# Generated by pormake.
# Topology snz, (6)-cn, num edge types: 1
# Building blocks:
#     Node 0, Type 0, BuildingBlock: LEVNOQ01_clean_sbu_1, # of connection points: 6
#     Node 1, Type 0, BuildingBlock: LEVNOQ01_clean_sbu_1, # of connection points: 6
#     Node 2, Type 0, BuildingBlock: LEVNOQ01_clean_sbu_1, # of connection points: 6
#     Node 3, Type 0, BuildingBlock: LEVNOQ01_clean_sbu_1, # of connection points: 6
#     Node 4, Type 0, BuildingBlock: LEVNOQ01_clean_sbu_1, # of connection points: 6
#     Node 5, Type 0, BuildingBlock: LEVNOQ01_clean_sbu_1, # of connection points: 6
#     Node 6, Type 0, BuildingBlock: LEVNOQ01_clean_sbu_1, # of connection points: 6
#     Node 7, Type 0, BuildingBlock: LEVNOQ01_clean_sbu_1, # of connection points: 6
#     Node 8, Type 0, BuildingBlock: LEVNOQ01_clean_sbu_1, # of connection points: 6
#     Edge 9, Type (0, 0), BuildingBlock: EZIPEK_clean_linker_0, # of connection points: 2
#     Edge 10, Type (0, 0), BuildingBlock: EZIPEK_clean_linker_0, # of connection points: 2
#     Edge 11, Type (0, 0), BuildingBlock: EZIPEK_clean_linker_0, # of connection points: 2
#     Edge 12, Type (0, 0), BuildingBlock: EZIPEK_clean_linker_0, # of connection points: 2
#     Edge 13, Type (0, 0), BuildingBlock: EZIPEK_clean_linker_0, # of connection points: 2
#     Edge 14, Type (0, 0), BuildingBlock: EZIPEK_clean_linker_0, # of connection points: 2
#     Edge 15, Type (0, 0), BuildingBlock: EZIPEK_clean_linker_0, # of connection points: 2
#     Edge 16, Type (0, 0), BuildingBlock: EZIPEK_clean_linker_0, # of connection points: 2
#     Edge 17, Type (0, 0), BuildingBlock: EZIPEK_clean_linker_0, # of connection points: 2
#     Edge 18, Type (0, 0), BuildingBlock: EZIPEK_clean_linker_0, # of connection points: 2
#     Edge 19, Type (0, 0), BuildingBlock: EZIPEK_clean_linker_0, # of connection points: 2
#     Edge 20, Type (0, 0), BuildingBlock: EZIPEK_clean_linker_0, # of connection points: 2
#     Edge 21, Type (0, 0), BuildingBlock: EZIPEK_clean_linker_0, # of connection points: 2
#     Edge 22, Type (0, 0), BuildingBlock: EZIPEK_clean_linker_0, # of connection points: 2
#     Edge 23, Type (0, 0), BuildingBlock: EZIPEK_clean_linker_0, # of connection points: 2
#     Edge 24, Type (0, 0), BuildingBlock: EZIPEK_clean_linker_0, # of connection points: 2
#     Edge 25, Type (0, 0), BuildingBlock: EZIPEK_clean_linker_0, # of connection points: 2
#     Edge 26, Type (0, 0), BuildingBlock: EZIPEK_clean_linker_0, # of connection points: 2
#     Edge 27, Type (0, 0), BuildingBlock: EZIPEK_clean_linker_0, # of connection points: 2
#     Edge 28, Type (0, 0), BuildingBlock: EZIPEK_clean_linker_0, # of connection points: 2
#     Edge 29, Type (0, 0), BuildingBlock: EZIPEK_clean_linker_0, # of connection points: 2
#     Edge 30, Type (0, 0), BuildingBlock: EZIPEK_clean_linker_0, # of connection points: 2
#     Edge 31, Type (0, 0), BuildingBlock: EZIPEK_clean_linker_0, # of connection points: 2
#     Edge 32, Type (0, 0), BuildingBlock: EZIPEK_clean_linker_0, # of connection points: 2
#     Edge 33, Type (0, 0), BuildingBlock: EZIPEK_clean_linker_0, # of connection points: 2
#     Edge 34, Type (0, 0), BuildingBlock: EZIPEK_clean_linker_0, # of connection points: 2
#     Edge 35, Type (0, 0), BuildingBlock: EZIPEK_clean_linker_0, # of connection points: 2
# Relax obj value: 0.250
# Max RMSD: 0.270
# Mean RMSD: 0.238
data_MOF--net-snz--node1-LEVNOQ01_clean_sbu_1--edge1-EZIPEK_clean_linker_0
_symmetry_space_group_name_H-M    P1
_symmetry_Int_Tables_number       1
_symmetry_cell_setting            triclinic
loop_
_symmetry_equiv_pos_as_xyz
'x, y, z'
_cell_length_a     37.043005
_cell_length_b     36.931665
_cell_length_c     11.254751
_cell_angle_alpha  91.91758
_cell_angle_beta   92.749344
_cell_angle_gamma 119.88034
loop_
_atom_site_label
_atom_site_type_symbol
_atom_site_fract_x
_atom_site_fract_y
_atom_site_fract_z
_atom_type_partial_charge
O0 O 0.05499 0.42226 -0.00319 0.0
Mg1 Mg 0.02078 0.4409 0.88598 0.0
O2 O 0.0722 0.4813 0.0923 0.0
Mg3 Mg 0.01616 0.49069 0.02234 0.0
O4 O 0.0385 0.49754 0.8272 0.0
O5 O 0.0526 0.45114 0.74099 0.0
O6 O 0.96556 0.50685 0.94054 0.0
O7 O 0.06707 0.56011 0.04655 0.0
Mg8 Mg 0.98983 0.54017 0.18758 0.0
O9 O 0.99426 0.48777 0.21104 0.0
O10 O 0.94098 0.53291 0.07301 0.0
O11 O 0.04973 0.59302 0.18028 0.0
O12 O 0.97136 0.51653 0.34429 0.0
C13 C 0.94335 0.39235 0.9231 0.0
C14 C 0.08038 0.45234 0.06766 0.0
C15 C 0.04989 0.48438 0.73563 0.0
C16 C 0.94076 0.52023 0.96763 0.0
C17 C 0.07533 0.59287 0.10971 0.0
C18 C 0.98109 0.48843 0.3154 0.0
O19 O 0.95867 0.40271 0.82472 0.0
O20 O 0.96311 0.41726 0.01428 0.0
O21 O 0.67091 0.53344 0.09343 0.0
Mg22 Mg 0.64226 0.56185 0.1915 0.0
O23 O 0.61406 0.49438 -0.02572 0.0
Mg24 Mg 0.55403 0.48727 0.05085 0.0
O25 O 0.58554 0.51573 0.2339 0.0
O26 O 0.63243 0.55697 0.37587 0.0
O27 O 0.49484 0.48184 0.12478 0.0
O28 O 0.5372 0.42162 0.12695 0.0
Mg29 Mg 0.48617 0.40873 0.92484 0.0
O30 O 0.52415 0.46312 0.85577 0.0
O31 O 0.45194 0.4157 0.06249 0.0
O32 O 0.52566 0.38432 0.96135 0.0
O33 O 0.46969 0.41081 0.74835 0.0
C34 C 0.59788 0.58957 0.00675 0.0
C35 C 0.65325 0.51025 -0.00174 0.0
C36 C 0.59561 0.52599 0.34619 0.0
C37 C 0.4599 0.44835 0.12587 0.0
C38 C 0.53253 0.38846 0.07304 0.0
C39 C 0.50404 0.44626 0.75282 0.0
O40 O 0.628 0.60058 0.08533 0.0
O41 O 0.56956 0.5515 -0.01582 0.0
O42 O 0.48198 0.90317 0.03582 0.0
Mg43 Mg 0.49315 0.95685 0.94537 0.0
O44 O 0.49588 0.9581 0.14692 0.0
Mg45 Mg 0.55851 0.0089 0.05302 0.0
O46 O 0.54244 0.98609 0.8466 0.0
O47 O 0.47589 0.94198 0.7725 0.0
O48 O 0.61842 0.06318 -0.02432 0.0
O49 O 0.59151 0.96915 0.08513 0.0
Mg50 Mg 0.64152 0.06167 0.25339 0.0
O51 O 0.57993 0.03767 0.23594 0.0
O52 O 0.66428 0.10522 0.1211 0.0
O53 O 0.64233 0.00435 0.22938 0.0
O54 O 0.61452 0.06789 0.40672 0.0
C55 C 0.48941 0.03331 0.00486 0.0
C56 C 0.47216 0.91884 0.12063 0.0
C57 C 0.51418 0.96866 0.75755 0.0
C58 C 0.65161 0.09747 0.01145 0.0
C59 C 0.62053 0.97192 0.15874 0.0
C60 C 0.57925 0.044 0.34791 0.0
O61 O 0.46589 0.99401 0.00057 0.0
O62 O 0.52863 0.0489 0.02057 0.0
O63 O 0.66449 0.73144 0.14031 0.0
Mg64 Mg 0.72552 0.74879 0.19897 0.0
O65 O 0.69647 0.7742 0.00134 0.0
Mg66 Mg 0.74708 0.83735 0.10855 0.0
O67 O 0.74582 0.80691 0.2848 0.0
O68 O 0.73976 0.75284 0.38137 0.0
O69 O 0.79378 0.90423 0.20158 0.0
O70 O 0.69267 0.84635 0.1712 0.0
Mg71 Mg 0.72733 0.90304 -0.02528 0.0
O72 O 0.74927 0.86542 0.92894 0.0
O73 O 0.77186 0.94331 0.11165 0.0
O74 O 0.66549 0.86005 0.01455 0.0
O75 O 0.74286 0.90639 0.79966 0.0
C76 C 0.79972 0.79207 0.07791 0.0
C77 C 0.66438 0.74193 0.03452 0.0
C78 C 0.74515 0.79011 0.38411 0.0
C79 C 0.79657 0.93992 0.18696 0.0
C80 C 0.66377 0.85123 0.12233 0.0
C81 C 0.75116 0.87717 0.82154 0.0
O82 O 0.76296 0.76297 0.0501 0.0
O83 O 0.80487 0.82884 0.076 0.0
O84 O 0.32341 0.93141 0.29426 0.0
Mg85 Mg 0.27236 0.91154 0.39072 0.0
O86 O 0.27841 0.87963 0.1696 0.0
Mg87 Mg 0.20824 0.8553 0.23103 0.0
O88 O 0.22887 0.8515 0.42675 0.0
O89 O 0.28716 0.89305 0.54205 0.0
O90 O 0.14077 0.82465 0.31268 0.0
O91 O 0.20059 0.7903 0.18942 0.0
Mg92 Mg 0.13496 0.81514 0.08739 0.0
O93 O 0.18955 0.85726 0.02699 0.0
O94 O 0.09645 0.82844 0.18614 0.0
O95 O 0.13676 0.75915 0.09966 0.0
O96 O 0.12805 0.8262 0.91856 0.0
C97 C 0.2242 0.94902 0.3505 0.0
C98 C 0.31625 0.90704 0.20486 0.0
C99 C 0.25129 0.85934 0.52691 0.0
C100 C 0.10474 0.82058 0.28818 0.0
C101 C 0.16888 0.75796 0.13882 0.0
C102 C 0.168 0.85013 0.92482 0.0
O103 O 0.25219 0.95247 0.42562 0.0
O104 O 0.20852 0.91961 0.26779 0.0
O105 O 0.23256 0.43048 0.31014 0.0
Mg106 Mg 0.18178 0.38312 0.3981 0.0
O107 O 0.19014 0.3774 0.19241 0.0
Mg108 Mg 0.20218 0.32926 0.3038 0.0
O109 O 0.20083 0.35107 0.50034 0.0
O110 O 0.18017 0.39444 0.5758 0.0
O111 O 0.21101 0.28154 0.41024 0.0
O112 O 0.2741 0.36899 0.29659 0.0
Mg113 Mg 0.23313 0.26988 0.16551 0.0
O114 O 0.20182 0.30033 0.12845 0.0
O115 O 0.20277 0.22751 0.29906 0.0
O116 O 0.29236 0.32279 0.22858 0.0
O117 O 0.21205 0.26664 -0.0171 0.0
C118 C 0.10686 0.30121 0.31311 0.0
C119 C 0.20802 0.41677 0.21811 0.0
C120 C 0.19304 0.36815 0.59078 0.0
C121 C 0.2058 0.24477 0.40146 0.0
C122 C 0.3016 0.35968 0.26582 0.0
C123 C 0.19974 0.29217 0.01613 0.0
O124 O 0.11999 0.34021 0.31294 0.0
O125 O 0.13267 0.28807 0.31055 0.0
O126 O 0.43043 0.22571 0.53635 0.0
Mg127 Mg 0.40614 0.24749 0.66912 0.0
O128 O 0.37064 0.16912 0.55835 0.0
Mg129 Mg 0.35707 0.162 0.75642 0.0
O130 O 0.40947 0.22715 0.83442 0.0
O131 O 0.44872 0.29363 0.79034 0.0
O132 O 0.34651 0.15562 0.95274 0.0
O133 O 0.40541 0.14137 0.78406 0.0
Mg134 Mg 0.31067 0.07998 0.84584 0.0
O135 O 0.29994 0.09654 0.68053 0.0
O136 O 0.29182 0.09798 -0.00034 0.0
O137 O 0.36845 0.08252 0.87277 0.0
O138 O 0.2653 0.03165 0.74252 0.0
C139 C 0.31101 0.21168 0.66762 0.0
C140 C 0.40013 0.19131 0.49389 0.0
C141 C 0.43852 0.26522 0.86595 0.0
C142 C 0.32262 0.13372 0.02988 0.0
C143 C 0.40284 0.11104 0.8402 0.0
C144 C 0.27019 0.05761 0.6622 0.0
O145 O 0.34488 0.23938 0.6282 0.0
O146 O 0.31003 0.18363 0.73159 0.0
O147 O 0.86718 0.10441 0.89936 0.0
Mg148 Mg 0.81841 0.07039 0.771 0.0
O149 O 0.89296 0.1668 0.82366 0.0
Mg150 Mg 0.86528 0.15478 0.61983 0.0
O151 O 0.84421 0.08406 0.61371 0.0
O152 O 0.81509 0.01966 0.67678 0.0
O153 O 0.83704 0.13839 0.41961 0.0
O154 O 0.93128 0.17333 0.55397 0.0
Mg155 Mg 0.89457 0.23837 0.44606 0.0
O156 O 0.88284 0.22399 0.61895 0.0
O157 O 0.83756 0.19313 0.36493 0.0
O158 O 0.94345 0.22435 0.43081 0.0
O159 O 0.90081 0.28693 0.56174 0.0
C160 C 0.77205 0.11816 0.73851 0.0
C161 C 0.8914 0.14373 0.90901 0.0
C162 C 0.83379 0.04499 0.59555 0.0
C163 C 0.84254 0.16278 0.33735 0.0
C164 C 0.95349 0.19949 0.47893 0.0
C165 C 0.89138 0.26177 0.64609 0.0
O166 O 0.76946 0.08477 0.77452 0.0
O167 O 0.80315 0.14425 0.68513 0.0
O168 O 0.83587 0.59763 0.28649 0.0
Mg169 Mg 0.8874 0.61141 0.40159 0.0
O170 O 0.83539 0.65161 0.35993 0.0
Mg171 Mg 0.85502 0.66008 0.56543 0.0
O172 O 0.87134 0.60643 0.57349 0.0
O173 O 0.88836 0.56303 0.48156 0.0
O174 O 0.87732 0.67516 0.76674 0.0
O175 O 0.7894 0.61047 0.61971 0.0
Mg176 Mg 0.81659 0.7092 0.71969 0.0
O177 O 0.83582 0.71029 0.55357 0.0
O178 O 0.86976 0.72738 0.8381 0.0
O179 O 0.76999 0.64505 0.74412 0.0
O180 O 0.81117 0.7513 0.60547 0.0
C181 C 0.95026 0.70655 0.46547 0.0
C182 C 0.84183 0.63369 0.27216 0.0
C183 C 0.8804 0.57666 0.57812 0.0
C184 C 0.88452 0.70302 0.84954 0.0
C185 C 0.76522 0.61097 0.69646 0.0
C186 C 0.82649 0.73849 0.52477 0.0
O187 O 0.94219 0.67275 0.40715 0.0
O188 O 0.92331 0.70826 0.52844 0.0
C189 C 0.00239 0.49548 0.60733 0.0
C190 C 0.03887 0.49234 0.61553 0.0
C191 C 0.01983 0.45866 0.41261 0.0
C192 C 0.9846 0.46373 0.41036 0.0
N193 N 0.93075 0.46023 0.52695 0.0
N194 N 0.08458 0.4732 0.52153 0.0
C195 C 0.97131 0.47086 0.51814 0.0
C196 C 0.0485 0.47468 0.5156 0.0
N197 N -0.00171 0.52329 0.67958 0.0
N198 N 0.02493 0.43851 0.31689 0.0
H199 H 0.10731 0.48852 0.59214 0.0
H200 H 0.09202 0.45743 0.45796 0.0
H201 H 0.002 0.42496 0.24607 0.0
H202 H 0.04974 0.43304 0.31047 0.0
H203 H 0.97234 0.52716 0.66939 0.0
H204 H 0.02312 0.5458 0.73619 0.0
H205 H 0.91988 0.46485 0.60678 0.0
H206 H 0.90833 0.44374 0.45635 0.0
C207 C 0.5331 0.50682 0.6202 0.0
C208 C 0.52258 0.46503 0.64022 0.0
C209 C 0.55614 0.46179 0.45928 0.0
C210 C 0.56677 0.50354 0.43958 0.0
N211 N 0.55931 0.56345 0.48613 0.0
N212 N 0.51838 0.40018 0.56904 0.0
C213 C 0.55358 0.52544 0.5161 0.0
C214 C 0.53169 0.44155 0.55563 0.0
N215 N 0.52331 0.52857 0.70072 0.0
N216 N 0.5727 0.44273 0.3926 0.0
H217 H 0.50599 0.38498 0.64559 0.0
H218 H 0.518 0.38006 0.5013 0.0
H219 H 0.59161 0.45671 0.32321 0.0
H220 H 0.57065 0.41438 0.41118 0.0
H221 H 0.53444 0.56059 0.7008 0.0
H222 H 0.50488 0.51474 0.77123 0.0
H223 H 0.54738 0.57978 0.53106 0.0
H224 H 0.57342 0.57741 0.40942 0.0
C225 C 0.52773 0.02371 0.61618 0.0
C226 C 0.52391 0.98433 0.63909 0.0
C227 C 0.5388 0.97604 0.436 0.0
C228 C 0.54418 0.01613 0.41546 0.0
N229 N 0.52811 0.0695 0.466 0.0
N230 N 0.51477 0.91816 0.56379 0.0
C231 C 0.53224 0.03643 0.49859 0.0
C232 C 0.52514 0.95856 0.54601 0.0
N233 N 0.52996 0.05021 0.70717 0.0
N234 N 0.55059 0.95654 0.35506 0.0
H235 H 0.50676 0.90505 0.64583 0.0
H236 H 0.5116 0.89682 0.49546 0.0
H237 H 0.55761 0.96705 0.27069 0.0
H238 H 0.55443 0.93113 0.37279 0.0
H239 H 0.53636 0.08068 0.69584 0.0
H240 H 0.52924 0.04312 0.79577 0.0
H241 H 0.51648 0.08407 0.52051 0.0
H242 H 0.53263 0.07924 0.37917 0.0
C243 C 0.78545 0.84823 0.54234 0.0
C244 C 0.74777 0.81176 0.49933 0.0
C245 C 0.71355 0.81647 0.67506 0.0
C246 C 0.75184 0.8516 0.72048 0.0
N247 N 0.82537 0.89805 0.71023 0.0
N248 N 0.67713 0.75791 0.52898 0.0
C249 C 0.78828 0.86649 0.6581 0.0
C250 C 0.71229 0.7947 0.56756 0.0
N251 N 0.81805 0.86581 0.47147 0.0
N252 N 0.67784 0.80533 0.73142 0.0
H253 H 0.67297 0.7428 0.44536 0.0
H254 H 0.65264 0.74104 0.58221 0.0
H255 H 0.67747 0.81935 0.81296 0.0
H256 H 0.64803 0.78363 0.69487 0.0
H257 H 0.84596 0.89316 0.49544 0.0
H258 H 0.81638 0.85422 0.38468 0.0
H259 H 0.85411 0.90835 0.67511 0.0
H260 H 0.82786 0.91193 0.79484 0.0
C261 C 0.18712 0.81834 0.62751 0.0
C262 C 0.23087 0.83945 0.63504 0.0
C263 C 0.23336 0.87455 0.82338 0.0
C264 C 0.18955 0.85623 0.81296 0.0
N265 N 0.12734 0.82343 0.67734 0.0
N266 N 0.29181 0.86718 0.76982 0.0
C267 C 0.16676 0.8312 0.70753 0.0
C268 C 0.2526 0.86038 0.74397 0.0
N269 N 0.16535 0.78578 0.54491 0.0
N270 N 0.25686 0.90835 0.90092 0.0
H271 H 0.30582 0.85623 0.7112 0.0
H272 H 0.30735 0.87904 0.85368 0.0
H273 H 0.24359 0.922 0.95275 0.0
H274 H 0.28904 0.9261 0.89755 0.0
H275 H 0.13328 0.7659 0.54626 0.0
H276 H 0.18061 0.77612 0.48709 0.0
H277 H 0.11088 0.80752 0.59731 0.0
H278 H 0.11402 0.83829 0.72334 0.0
C279 C 0.15805 0.31047 0.72917 0.0
C280 C 0.19119 0.35123 0.70859 0.0
C281 C 0.22219 0.35785 0.90911 0.0
C282 C 0.1913 0.31599 0.92663 0.0
N283 N 0.12364 0.25724 0.87045 0.0
N284 N 0.25453 0.41421 0.77958 0.0
C285 C 0.15713 0.29385 0.84178 0.0
C286 C 0.22278 0.37513 0.79908 0.0
N287 N 0.1295 0.28636 0.63799 0.0
N288 N 0.25157 0.38258 -0.00339 0.0
H289 H 0.25656 0.42832 0.69947 0.0
H290 H 0.27904 0.43224 0.84363 0.0
H291 H 0.25198 0.37384 0.08328 0.0
H292 H 0.25198 0.37384 0.08328 0.0
H293 H 0.10742 0.2549 0.64259 0.0
H294 H 0.13028 0.29689 0.55328 0.0
H295 H 0.09562 0.24121 0.81786 0.0
H296 H 0.12257 0.24508 0.95352 0.0
C297 C 0.38441 0.14282 0.31709 0.0
C298 C 0.39151 0.18195 0.36445 0.0
C299 C 0.34649 0.18436 0.20339 0.0
C300 C 0.3398 0.14569 0.15392 0.0
N301 N 0.35691 0.09027 0.15231 0.0
N302 N 0.39062 0.24587 0.33391 0.0
C303 C 0.36017 0.12548 0.20723 0.0
C304 C 0.37635 0.20474 0.30109 0.0
N305 N 0.40011 0.12198 0.37954 0.0
N306 N 0.32337 0.20097 0.15834 0.0
H307 H 0.41444 0.2627 0.40029 0.0
H308 H 0.38226 0.26466 0.28686 0.0
H309 H 0.30053 0.18599 0.0879 0.0
H310 H 0.32386 0.22715 0.19764 0.0
H311 H 0.3919 0.09099 0.35917 0.0
H312 H 0.42078 0.13588 0.45514 0.0
H313 H 0.37531 0.07748 0.1782 0.0
H314 H 0.33679 0.07431 0.07746 0.0
C315 C 0.88735 0.20012 0.16121 0.0
C316 C 0.87273 0.16712 0.24343 0.0
C317 C 0.90377 0.13393 0.12112 0.0
C318 C 0.90859 0.16164 0.03288 0.0
N319 N 0.93869 0.23435 0.01754 0.0
N320 N 0.88757 0.11392 0.32132 0.0
C321 C 0.91144 0.19923 0.06861 0.0
C322 C 0.88754 0.13755 0.23065 0.0
N323 N 0.87738 0.23117 0.16302 0.0
N324 N 0.91403 0.10383 0.09658 0.0
H325 H 0.88335 0.11876 0.40914 0.0
H326 H 0.897 0.09182 0.31476 0.0
H327 H 0.92884 0.10411 0.01955 0.0
H328 H 0.90766 0.07878 0.14819 0.0
H329 H 0.88495 0.25174 0.09493 0.0
H330 H 0.85943 0.23587 0.22233 0.0
H331 H 0.94633 0.2638 0.05357 0.0
H332 H 0.95746 0.23319 0.9528 0.0
C333 C 0.88755 0.64263 0.09652 0.0
C334 C 0.87265 0.66046 0.18376 0.0
C335 C 0.89863 0.72333 0.06912 0.0
C336 C 0.89975 0.69933 0.97107 0.0
N337 N 0.9253 0.65365 0.91755 0.0
N338 N 0.88966 0.72811 0.27853 0.0
C339 C 0.90389 0.66438 -0.00702 0.0
C340 C 0.88621 0.70424 0.17891 0.0
N341 N 0.88622 0.6054 0.1101 0.0
N342 N 0.90958 0.76409 0.05575 0.0
H343 H 0.88565 0.71766 0.36344 0.0
H344 H 0.90103 0.76013 0.28066 0.0
H345 H 0.92401 0.77923 -0.01941 0.0
H346 H 0.90483 0.78281 0.11672 0.0
H347 H 0.88853 0.58789 0.03937 0.0
H348 H 0.88553 0.59306 0.19204 0.0
H349 H 0.93347 0.63103 0.93454 0.0
H350 H 0.93918 0.67134 0.84536 0.0
C351 C 0.17047 0.45806 0.26015 0.0
C352 C 0.18611 0.43965 0.17787 0.0
C353 C 0.14112 0.44275 0.01674 0.0
C354 C 0.12196 0.45616 0.10148 0.0
N355 N 0.13659 0.49896 0.28428 0.0
N356 N 0.2004 0.43464 -0.02512 0.0
C357 C 0.14219 0.47095 0.21701 0.0
C358 C 0.17552 0.43792 0.05485 0.0
N359 N 0.18046 0.46204 0.38021 0.0
N360 N 0.12746 0.43601 0.89895 0.0
H361 H 0.22828 0.43608 0.00335 0.0
H362 H 0.19675 0.43646 0.88335 0.0
H363 H 0.10877 0.44722 0.86325 0.0
H364 H 0.13505 0.41974 0.83698 0.0
H365 H 0.16366 0.46799 0.44199 0.0
H366 H 0.20448 0.45918 0.42106 0.0
H367 H 0.15501 0.51449 0.36247 0.0
H368 H 0.11767 0.51088 0.25654 0.0
C369 C 0.62625 0.64441 0.86345 0.0
C370 C 0.59581 0.62298 0.94474 0.0
C371 C 0.59262 0.68597 -0.00903 0.0
C372 C 0.63259 0.70905 0.94816 0.0
N373 N 0.67993 0.71212 0.80488 0.0
N374 N 0.54235 0.61947 0.06428 0.0
C375 C 0.64612 0.68881 0.86748 0.0
C376 C 0.57529 0.64221 -0.00212 0.0
N377 N 0.63715 0.62213 0.78886 0.0
N378 N 0.57441 0.70704 0.03665 0.0
H379 H 0.52924 0.58714 0.06793 0.0
H380 H 0.52872 0.6325 0.11647 0.0
H381 H 0.58889 0.73956 0.03455 0.0
H382 H 0.54462 0.69249 0.06736 0.0
H383 H 0.65823 0.63518 0.72376 0.0
H384 H 0.62226 0.58951 0.78797 0.0
H385 H 0.69399 0.69971 0.75223 0.0
H386 H 0.69357 0.74452 0.80527 0.0
C387 C 0.41046 0.89264 0.24847 0.0
C388 C 0.42671 0.90158 0.13516 0.0
C389 C 0.37084 0.91425 0.06745 0.0
C390 C 0.35176 0.90141 0.1748 0.0
N391 N 0.3488 0.86869 0.35958 0.0
N392 N 0.40752 0.89846 0.92411 0.0
C393 C 0.37 0.8872 0.26288 0.0
C394 C 0.402 0.90478 0.04004 0.0
N395 N 0.43359 0.88978 0.34168 0.0
N396 N 0.3625 0.93877 -0.00309 0.0
H397 H 0.38906 0.90017 0.85394 0.0
H398 H 0.42553 0.88537 0.89984 0.0
H399 H 0.34393 0.95094 0.02392 0.0
H400 H 0.37824 0.95079 0.9206 0.0
H401 H 0.42533 0.88787 0.42944 0.0
H402 H 0.46203 0.89115 0.33038 0.0
H403 H 0.35942 0.85533 0.42222 0.0
H404 H 0.31867 0.86309 0.37053 0.0
C405 C 0.45419 0.05081 0.8393 0.0
C406 C 0.47267 0.05937 0.95881 0.0
C407 C 0.458 0.11667 -0.01492 0.0
C408 C 0.43948 0.10697 0.86699 0.0
N409 N 0.43561 0.07854 0.67017 0.0
N410 N 0.50014 0.10617 0.13675 0.0
C411 C 0.44355 0.07901 0.79009 0.0
C412 C 0.47778 0.09466 0.02858 0.0
N413 N 0.44477 0.01505 0.77347 0.0
N414 N 0.4545 0.14524 0.05649 0.0
H415 H 0.51279 0.08914 0.17435 0.0
H416 H 0.50804 0.13378 0.18622 0.0
H417 H 0.4416 0.16276 0.02354 0.0
H418 H 0.46283 0.15044 0.14773 0.0
H419 H 0.42668 0.00574 0.69261 0.0
H420 H 0.4525 0.99316 0.80082 0.0
H421 H 0.44161 0.06108 0.60771 0.0
H422 H 0.42739 0.09932 0.63385 0.0
C423 C 0.93354 0.29665 0.83555 0.0
C424 C 0.89445 0.27855 0.76903 0.0
C425 C 0.87742 0.32608 0.87616 0.0
C426 C 0.91827 0.3468 0.93188 0.0
N427 N 0.97691 0.3418 0.00723 0.0
N428 N 0.82421 0.26588 0.75233 0.0
C429 C 0.94253 0.32717 0.9293 0.0
C430 C 0.86431 0.28937 0.80043 0.0
N431 N 0.96334 0.2878 0.80161 0.0
N432 N 0.85329 0.34415 0.88675 0.0
H433 H 0.81487 0.23914 0.6961 0.0
H434 H 0.80006 0.27074 0.77609 0.0
H435 H 0.86322 0.371 0.94307 0.0
H436 H 0.82479 0.33349 0.83816 0.0
H437 H 0.99428 0.30423 0.83665 0.0
H438 H 0.9571 0.26462 0.73521 0.0
H439 H -0.00289 0.32982 0.009 0.0
H440 H 0.98278 0.36389 0.07682 0.0
C441 C 0.75254 0.56023 0.85461 0.0
C442 C 0.73702 0.57158 0.75232 0.0
C443 C 0.6667 0.51527 0.78262 0.0
C444 C 0.68037 0.51336 0.90022 0.0
N445 N 0.73587 0.51749 0.02741 0.0
N446 N 0.679 0.55877 0.61667 0.0
C447 C 0.72353 0.53017 0.92862 0.0
C448 C 0.69411 0.5481 0.71389 0.0
N449 N 0.79456 0.57997 0.88394 0.0
N450 N 0.62808 0.4853 0.73635 0.0
H451 H 0.69837 0.58211 0.56255 0.0
H452 H 0.64712 0.54625 0.59601 0.0
H453 H 0.6089 0.45945 0.7834 0.0
H454 H 0.61807 0.48341 0.64719 0.0
H455 H 0.80814 0.57512 0.96014 0.0
H456 H 0.81634 0.60141 0.83021 0.0
H457 H 0.76672 0.52742 0.05558 0.0
H458 H 0.71395 0.49441 0.07769 0.0
C459 C 0.93747 0.58386 0.71783 0.0
C460 C 0.89395 0.56652 0.69138 0.0
C461 C 0.87973 0.5178 0.84912 0.0
C462 C 0.92346 0.5355 0.87398 0.0
N463 N 0.99246 0.59535 0.86363 0.0
N464 N 0.8234 0.52257 0.7425 0.0
C465 C 0.95183 0.57169 0.81842 0.0
C466 C 0.86485 0.53535 0.76126 0.0
N467 N 0.9654 0.61064 0.64349 0.0
N468 N 0.85283 0.48393 0.90759 0.0
H469 H 0.8123 0.53507 0.67815 0.0
H470 H 0.80055 0.50217 0.79545 0.0
H471 H 0.86316 0.471 0.97267 0.0
H472 H 0.82065 0.46739 0.88831 0.0
H473 H -0.00309 0.61936 0.64993 0.0
H474 H 0.95676 0.62166 0.56972 0.0
H475 H 0.013 0.62461 0.83401 0.0
H476 H 0.00469 0.58799 0.93832 0.0
C477 C 0.47156 0.33185 0.14677 0.0
C478 C 0.51439 0.34856 0.13191 0.0
C479 C 0.4987 0.28548 0.0131 0.0
C480 C 0.45772 0.27846 -0.01049 0.0
N481 N 0.40161 0.2879 0.05185 0.0
N482 N 0.56836 0.33236 0.1101 0.0
C483 C 0.4425 0.29836 0.06574 0.0
C484 C 0.52745 0.321 0.08923 0.0
N485 N 0.45969 0.35135 0.22777 0.0
N486 N 0.51027 0.26022 0.95555 0.0
H487 H 0.58877 0.35974 0.1622 0.0
H488 H 0.58136 0.31475 0.08018 0.0
H489 H 0.48874 0.23423 0.90048 0.0
H490 H 0.54012 0.26415 0.96455 0.0
H491 H 0.42874 0.34067 0.2452 0.0
H492 H 0.48198 0.37703 0.28251 0.0
H493 H 0.38942 0.30426 0.09558 0.0
H494 H 0.38018 0.26286 -0.00622 0.0
C495 C 0.75475 0.15216 0.90328 0.0
C496 C 0.74428 0.13166 0.78775 0.0
C497 C 0.67189 0.11393 0.79975 0.0
C498 C 0.68098 0.12458 0.92386 0.0
N499 N 0.73146 0.17879 0.06452 0.0
N500 N 0.6995 0.11163 0.60863 0.0
C501 C 0.7228 0.15258 0.96577 0.0
C502 C 0.70483 0.11881 0.72938 0.0
N503 N 0.79417 0.16857 0.95592 0.0
N504 N 0.63214 0.09868 0.7519 0.0
H505 H 0.72386 0.11529 0.55794 0.0
H506 H 0.67272 0.10614 0.55907 0.0
H507 H 0.60944 0.09903 0.8027 0.0
H508 H 0.62221 0.08703 0.66378 0.0
H509 H 0.8016 0.17881 0.04572 0.0
H510 H 0.81879 0.17 0.91091 0.0
H511 H 0.76169 0.20154 0.0954 0.0
H512 H 0.70775 0.18064 0.10609 0.0
C513 C 0.66745 0.94286 0.21392 0.0
C514 C 0.62725 0.93544 0.1725 0.0
C515 C 0.60323 0.86013 0.15685 0.0
C516 C 0.6438 0.86917 0.19572 0.0
N517 N 0.70411 0.91486 0.32643 0.0
N518 N 0.55303 0.88374 0.14983 0.0
C519 C 0.6717 0.90895 0.25 0.0
C520 C 0.59363 0.893 0.15804 0.0
N521 N 0.70237 0.98088 0.20762 0.0
N522 N 0.57474 0.82045 0.11404 0.0
H523 H 0.54427 0.90626 0.15891 0.0
H524 H 0.52795 0.85327 0.14833 0.0
H525 H 0.58137 0.79615 0.11906 0.0
H526 H 0.54598 0.81244 0.07078 0.0
H527 H 0.73197 0.98503 0.22723 0.0
H528 H 0.70235 0.00568 0.16612 0.0
H529 H 0.72479 0.94391 0.37017 0.0
H530 H 0.70683 0.88967 0.35527 0.0
C531 C 0.15354 0.6971 0.00712 0.0
C532 C 0.16795 0.71781 0.12169 0.0
C533 C 0.14046 0.65093 0.21094 0.0
C534 C 0.11547 0.63173 0.10326 0.0
N535 N 0.10287 0.63386 0.89148 0.0
N536 N 0.18685 0.71608 0.32757 0.0
C537 C 0.12448 0.6536 -0.0024 0.0
C538 C 0.16621 0.69514 0.2218 0.0
N539 N 0.16628 0.71999 0.90928 0.0
N540 N 0.13847 0.62663 0.30208 0.0
H541 H 0.20823 0.74809 0.33393 0.0
H542 H 0.18327 0.70207 0.40811 0.0
H543 H 0.11997 0.59405 0.29335 0.0
H544 H 0.15712 0.63801 0.38165 0.0
H545 H 0.15915 0.70696 0.82197 0.0
H546 H 0.18731 0.7522 0.91771 0.0
H547 H 0.10455 0.64935 0.81458 0.0
H548 H 0.08208 0.6018 0.88055 0.0
C549 C 0.38993 0.43514 0.09173 0.0
C550 C 0.42378 0.44817 0.17581 0.0
C551 C 0.37487 0.4174 0.33072 0.0
C552 C 0.34299 0.39373 0.23896 0.0
N553 N 0.32487 0.37486 0.02581 0.0
N554 N 0.45004 0.45878 0.38032 0.0
C555 C 0.35132 0.40157 0.11738 0.0
C556 C 0.41675 0.44233 0.29802 0.0
N557 N 0.39628 0.45123 -0.01761 0.0
N558 N 0.36545 0.41459 0.44703 0.0
H559 H 0.48029 0.47811 0.35568 0.0
H560 H 0.44768 0.45275 0.47018 0.0
H561 H 0.3352 0.39544 0.47209 0.0
H562 H 0.38689 0.43321 0.51707 0.0
H563 H 0.37186 0.44367 0.91833 0.0
H564 H 0.42565 0.47506 0.96221 0.0
H565 H 0.3326 0.37794 0.93738 0.0
H566 H 0.2972 0.34745 0.03743 0.0
C567 C 0.85271 0.79702 0.38247 0.0
C568 C 0.82909 0.75338 0.40147 0.0
C569 C 0.80846 0.739 0.18779 0.0
C570 C 0.82246 0.78186 0.17456 0.0
N571 N 0.87303 0.85241 0.24293 0.0
N572 N 0.7789 0.6834 0.32103 0.0
C573 C 0.84944 0.8114 0.26725 0.0
C574 C 0.80599 0.72439 0.30348 0.0
N575 N 0.87781 0.82438 0.47491 0.0
N576 N 0.7973 0.71227 0.0888 0.0
H577 H 0.77421 0.67141 0.40502 0.0
H578 H 0.7584 0.66224 0.25293 0.0
H579 H 0.80068 0.72301 0.00304 0.0
H580 H 0.78981 0.68115 0.0928 0.0
H581 H 0.89464 0.8567 0.47127 0.0
H582 H 0.88217 0.81448 0.55736 0.0
H583 H 0.89288 0.87651 0.3051 0.0
H584 H 0.87499 0.86188 0.15605 0.0
C585 C 0.20155 0.00446 0.56352 0.0
C586 C 0.2408 0.04066 0.55229 0.0
C587 C 0.23596 0.0192 0.34177 0.0
C588 C 0.20856 0.97806 0.37064 0.0
N589 N 0.15518 0.93209 0.49142 0.0
N590 N 0.28284 0.09139 0.41575 0.0
C591 C 0.18627 0.97149 0.47338 0.0
C592 C 0.25393 0.05142 0.43578 0.0
N593 N 0.18082 0.00129 0.66307 0.0
N594 N 0.24809 0.02539 0.22834 0.0
H595 H 0.29586 0.11518 0.48307 0.0
H596 H 0.29066 0.10171 0.33129 0.0
H597 H 0.23484 0.00064 0.16278 0.0
H598 H 0.26998 0.05403 0.19923 0.0
H599 H 0.15131 0.97632 0.67547 0.0
H600 H 0.19226 0.02599 0.7284 0.0
H601 H 0.14028 0.92348 0.57027 0.0
H602 H 0.14597 0.90767 0.42646 0.0
C603 C 0.02509 0.24878 0.5307 0.0
C604 C -0.00283 0.21092 0.46782 0.0
C605 C 0.0416 0.23099 0.30028 0.0
C606 C 0.06524 0.27237 0.35509 0.0
N607 N 0.07265 0.32192 0.51785 0.0
N608 N 0.98703 0.15873 0.32005 0.0
C609 C 0.05506 0.28182 0.46878 0.0
C610 C 0.00784 0.19981 0.35972 0.0
N611 N 0.02138 0.25323 0.64953 0.0
N612 N 0.05051 0.22231 0.19003 0.0
H613 H 0.96583 0.13626 0.37292 0.0
H614 H 0.99362 0.14666 0.24465 0.0
H615 H 0.07377 0.24516 0.14257 0.0
H616 H 0.03337 0.19353 0.14197 0.0
H617 H 0.04307 0.27901 0.70457 0.0
H618 H -0.00121 0.22856 0.69404 0.0
H619 H 0.06268 0.32947 0.595 0.0
H620 H 0.09372 0.34853 0.47819 0.0
C621 C 0.26985 0.24818 0.66841 0.0
C622 C 0.27201 0.21201 0.6362 0.0
C623 C 0.20979 0.18659 0.49839 0.0
C624 C 0.21493 0.22708 0.50884 0.0
N625 N 0.22971 0.28342 0.65185 0.0
N626 N 0.23853 0.14183 0.54236 0.0
C627 C 0.23858 0.25395 0.60982 0.0
C628 C 0.2395 0.17903 0.56035 0.0
N629 N 0.29853 0.27746 0.75165 0.0
N630 N 0.17601 0.15577 0.43132 0.0
H631 H 0.25733 0.13397 0.59374 0.0
H632 H 0.21918 0.11866 0.47708 0.0
H633 H 0.15317 0.16124 0.39208 0.0
H634 H 0.16847 0.12459 0.42369 0.0
H635 H 0.30174 0.30685 0.76874 0.0
H636 H 0.32011 0.27261 0.80135 0.0
H637 H 0.24396 0.30235 0.72981 0.0
H638 H 0.20394 0.2846 0.61607 0.0
C639 C 0.81709 0.01206 0.26691 0.0
C640 C 0.82376 0.97763 0.26994 0.0
C641 C 0.85603 0.00219 0.47282 0.0
C642 C 0.83658 0.02717 0.47913 0.0
N643 N 0.79284 0.0506 0.38144 0.0
N644 N 0.87021 0.95558 0.34931 0.0
C645 C 0.81597 0.03122 0.37564 0.0
C646 C 0.84956 0.97709 0.36562 0.0
N647 N 0.81256 0.02672 0.16083 0.0
N648 N 0.87912 0.00153 0.57019 0.0
H649 H 0.86791 0.94016 0.26744 0.0
H650 H 0.8927 0.95666 0.41064 0.0
H651 H 0.88605 0.02131 0.64662 0.0
H652 H 0.891 0.98134 0.57627 0.0
H653 H 0.80966 0.0533 0.15536 0.0
H654 H 0.81747 0.0155 0.08035 0.0
H655 H 0.77658 0.05316 0.30709 0.0
H656 H 0.78696 0.06101 0.46146 0.0
C657 C 0.02611 0.73443 0.46759 0.0
C658 C 0.99326 0.7432 0.46277 0.0
C659 C 0.04088 0.81125 0.38669 0.0
C660 C 0.06919 0.7967 0.36297 0.0
N661 N 0.08167 0.73792 0.3599 0.0
N662 N 0.9712 0.79406 0.43747 0.0
C663 C 0.06029 0.75673 0.39893 0.0
C664 C 0.00129 0.78321 0.43009 0.0
N665 N 0.02455 0.70475 0.53907 0.0
N666 N 0.05184 0.85167 0.36757 0.0
H667 H 0.94412 0.77668 0.48075 0.0
H668 H 0.97274 0.82009 0.39966 0.0
H669 H 0.07982 0.87238 0.33244 0.0
H670 H 0.03479 0.86559 0.394 0.0
H671 H 0.04903 0.69858 0.55086 0.0
H672 H 0.0013 0.69133 0.59856 0.0
H673 H 0.10566 0.7513 0.30328 0.0
H674 H 0.07274 0.707 0.376 0.0
loop_
_geom_bond_atom_site_label_1
_geom_bond_atom_site_label_2
_geom_bond_distance
_geom_bond_site_symmetry_2
_ccdc_geom_bond_type
O0 Mg1 1.990 . S
O0 C14 1.253 1_556 S
Mg1 O0 1.990 . S
Mg1 O4 2.180 . S
Mg1 O5 2.117 . S
Mg1 O19 2.030 1_455 S
O2 Mg3 2.072 . S
O2 C14 1.260 . S
Mg3 O2 2.072 . S
Mg3 O4 2.099 1_554 S
Mg3 O6 2.079 1_454 S
Mg3 O7 2.072 . S
Mg3 O9 2.099 1_455 S
Mg3 O20 2.079 1_455 S
O4 Mg1 2.180 . S
O4 Mg3 2.099 1_556 S
O4 C15 1.279 . S
O5 Mg1 2.117 . S
O5 C15 1.250 . S
O6 Mg3 2.079 1_656 S
O6 C16 1.264 1_556 S
O7 Mg3 2.072 . S
O7 C17 1.260 . S
Mg8 O9 2.180 1_455 S
Mg8 O10 2.030 1_455 S
Mg8 O11 1.990 . S
Mg8 O12 2.117 . S
O9 Mg3 2.099 1_655 S
O9 Mg8 2.180 1_655 S
O9 C18 1.279 1_655 S
O10 Mg8 2.030 1_655 S
O10 C16 1.248 . S
O11 Mg8 1.990 . S
O11 C17 1.253 . S
O12 Mg8 2.117 . S
O12 C18 1.250 . S
C13 O19 1.248 . S
C13 O20 1.264 1_556 S
C14 O0 1.253 1_554 S
C14 O2 1.260 . S
C15 O4 1.279 . S
C15 O5 1.250 . S
C16 O6 1.264 1_554 S
C16 O10 1.248 . S
C17 O7 1.260 . S
C17 O11 1.253 . S
C18 O9 1.279 1_455 S
C18 O12 1.250 . S
O19 Mg1 2.030 1_655 S
O19 C13 1.248 . S
O20 Mg3 2.079 1_655 S
O20 C13 1.264 1_554 S
O21 Mg22 1.990 . S
O21 C35 1.253 . S
Mg22 O21 1.990 . S
Mg22 O25 2.180 . S
Mg22 O26 2.117 . S
Mg22 O40 2.030 . S
O23 Mg24 2.072 1_556 S
O23 C35 1.260 1_556 S
Mg24 O23 2.072 1_554 S
Mg24 O25 2.099 . S
Mg24 O27 2.079 . S
Mg24 O28 2.072 . S
Mg24 O30 2.099 1_554 S
Mg24 O41 2.079 . S
O25 Mg22 2.180 . S
O25 Mg24 2.099 . S
O25 C36 1.279 . S
O26 Mg22 2.117 . S
O26 C36 1.250 . S
O27 Mg24 2.079 . S
O27 C37 1.264 . S
O28 Mg24 2.072 . S
O28 C38 1.260 . S
Mg29 O30 2.180 . S
Mg29 O31 2.030 . S
Mg29 O32 1.990 . S
Mg29 O33 2.117 . S
O30 Mg24 2.099 1_556 S
O30 Mg29 2.180 . S
O30 C39 1.279 . S
O31 Mg29 2.030 . S
O31 C37 1.248 1_556 S
O32 Mg29 1.990 . S
O32 C38 1.253 1_556 S
O33 Mg29 2.117 . S
O33 C39 1.250 . S
C34 O40 1.248 . S
C34 O41 1.264 . S
C35 O21 1.253 . S
C35 O23 1.260 1_554 S
C36 O25 1.279 . S
C36 O26 1.250 . S
C37 O27 1.264 . S
C37 O31 1.248 1_554 S
C38 O28 1.260 . S
C38 O32 1.253 1_554 S
C39 O30 1.279 . S
C39 O33 1.250 . S
O40 Mg22 2.030 . S
O40 C34 1.248 . S
O41 Mg24 2.079 . S
O41 C34 1.264 . S
O42 Mg43 1.990 1_565 S
O42 C56 1.253 1_556 S
Mg43 O42 1.990 1_545 S
Mg43 O46 2.180 . S
Mg43 O47 2.117 1_545 S
Mg43 O61 2.030 . S
O44 Mg45 2.072 1_565 S
O44 C56 1.260 . S
Mg45 O44 2.072 1_545 S
Mg45 O46 2.099 1_554 S
Mg45 O48 2.079 . S
Mg45 O49 2.072 1_545 S
Mg45 O51 2.099 . S
Mg45 O62 2.079 . S
O46 Mg43 2.180 . S
O46 Mg45 2.099 1_556 S
O46 C57 1.279 1_545 S
O47 Mg43 2.117 1_565 S
O47 C57 1.250 . S
O48 Mg45 2.079 . S
O48 C58 1.264 . S
O49 Mg45 2.072 1_565 S
O49 C59 1.260 . S
Mg50 O51 2.180 . S
Mg50 O52 2.030 . S
Mg50 O53 1.990 1_545 S
Mg50 O54 2.117 . S
O51 Mg45 2.099 . S
O51 Mg50 2.180 . S
O51 C60 1.279 . S
O52 Mg50 2.030 . S
O52 C58 1.248 . S
O53 Mg50 1.990 1_565 S
O53 C59 1.253 . S
O54 Mg50 2.117 . S
O54 C60 1.250 . S
C55 O61 1.248 1_554 S
C55 O62 1.264 . S
C56 O42 1.253 1_554 S
C56 O44 1.260 . S
C57 O46 1.279 1_565 S
C57 O47 1.250 . S
C58 O48 1.264 . S
C58 O52 1.248 . S
C59 O49 1.260 . S
C59 O53 1.253 . S
C60 O51 1.279 . S
C60 O54 1.250 . S
O61 Mg43 2.030 . S
O61 C55 1.248 1_556 S
O62 Mg45 2.079 . S
O62 C55 1.264 . S
O63 Mg64 1.990 . S
O63 C77 1.253 . S
Mg64 O63 1.990 . S
Mg64 O67 2.180 . S
Mg64 O68 2.117 . S
Mg64 O82 2.030 . S
O65 Mg66 2.072 . S
O65 C77 1.260 . S
Mg66 O65 2.072 . S
Mg66 O67 2.099 . S
Mg66 O69 2.079 . S
Mg66 O70 2.072 . S
Mg66 O72 2.099 . S
Mg66 O83 2.079 . S
O67 Mg64 2.180 . S
O67 Mg66 2.099 . S
O67 C78 1.279 . S
O68 Mg64 2.117 . S
O68 C78 1.250 . S
O69 Mg66 2.079 . S
O69 C79 1.264 . S
O70 Mg66 2.072 . S
O70 C80 1.260 . S
Mg71 O72 2.180 . S
Mg71 O73 2.030 . S
Mg71 O74 1.990 . S
Mg71 O75 2.117 1_554 S
O72 Mg66 2.099 . S
O72 Mg71 2.180 . S
O72 C81 1.279 1_554 S
O73 Mg71 2.030 . S
O73 C79 1.248 . S
O74 Mg71 1.990 . S
O74 C80 1.253 . S
O75 Mg71 2.117 1_556 S
O75 C81 1.250 . S
C76 O82 1.248 . S
C76 O83 1.264 . S
C77 O63 1.253 . S
C77 O65 1.260 . S
C78 O67 1.279 . S
C78 O68 1.250 . S
C79 O69 1.264 . S
C79 O73 1.248 . S
C80 O70 1.260 . S
C80 O74 1.253 . S
C81 O72 1.279 1_556 S
C81 O75 1.250 . S
O82 Mg64 2.030 . S
O82 C76 1.248 . S
O83 Mg66 2.079 . S
O83 C76 1.264 . S
O84 Mg85 1.990 . S
O84 C98 1.253 . S
Mg85 O84 1.990 . S
Mg85 O88 2.180 . S
Mg85 O89 2.117 . S
Mg85 O103 2.030 . S
O86 Mg87 2.072 . S
O86 C98 1.260 . S
Mg87 O86 2.072 . S
Mg87 O88 2.099 . S
Mg87 O90 2.079 . S
Mg87 O91 2.072 . S
Mg87 O93 2.099 . S
Mg87 O104 2.079 . S
O88 Mg85 2.180 . S
O88 Mg87 2.099 . S
O88 C99 1.279 . S
O89 Mg85 2.117 . S
O89 C99 1.250 . S
O90 Mg87 2.079 . S
O90 C100 1.264 . S
O91 Mg87 2.072 . S
O91 C101 1.260 . S
Mg92 O93 2.180 . S
Mg92 O94 2.030 . S
Mg92 O95 1.990 . S
Mg92 O96 2.117 1_554 S
O93 Mg87 2.099 . S
O93 Mg92 2.180 . S
O93 C102 1.279 1_554 S
O94 Mg92 2.030 . S
O94 C100 1.248 . S
O95 Mg92 1.990 . S
O95 C101 1.253 . S
O96 Mg92 2.117 1_556 S
O96 C102 1.250 . S
C97 O103 1.248 . S
C97 O104 1.264 . S
C98 O84 1.253 . S
C98 O86 1.260 . S
C99 O88 1.279 . S
C99 O89 1.250 . S
C100 O90 1.264 . S
C100 O94 1.248 . S
C101 O91 1.260 . S
C101 O95 1.253 . S
C102 O93 1.279 1_556 S
C102 O96 1.250 . S
O103 Mg85 2.030 . S
O103 C97 1.248 . S
O104 Mg87 2.079 . S
O104 C97 1.264 . S
O105 Mg106 1.990 . S
O105 C119 1.253 . S
Mg106 O105 1.990 . S
Mg106 O109 2.180 . S
Mg106 O110 2.117 . S
Mg106 O124 2.030 . S
O107 Mg108 2.072 . S
O107 C119 1.260 . S
Mg108 O107 2.072 . S
Mg108 O109 2.099 . S
Mg108 O111 2.079 . S
Mg108 O112 2.072 . S
Mg108 O114 2.099 . S
Mg108 O125 2.079 . S
O109 Mg106 2.180 . S
O109 Mg108 2.099 . S
O109 C120 1.279 . S
O110 Mg106 2.117 . S
O110 C120 1.250 . S
O111 Mg108 2.079 . S
O111 C121 1.264 . S
O112 Mg108 2.072 . S
O112 C122 1.260 . S
Mg113 O114 2.180 . S
Mg113 O115 2.030 . S
Mg113 O116 1.990 . S
Mg113 O117 2.117 1_554 S
O114 Mg108 2.099 . S
O114 Mg113 2.180 . S
O114 C123 1.288 . S
O115 Mg113 2.030 . S
O115 C121 1.248 . S
O116 Mg113 1.990 . S
O116 C122 1.253 . S
O117 Mg113 2.117 1_556 S
O117 C123 1.245 1_556 S
C118 O124 1.248 . S
C118 O125 1.264 . S
C119 O105 1.253 . S
C119 O107 1.260 . S
C120 O109 1.279 . S
C120 O110 1.250 . S
C121 O111 1.264 . S
C121 O115 1.248 . S
C122 O112 1.260 . S
C122 O116 1.253 . S
C123 O114 1.288 . S
C123 O117 1.245 1_554 S
O124 Mg106 2.030 . S
O124 C118 1.248 . S
O125 Mg108 2.079 . S
O125 C118 1.264 . S
O126 Mg127 1.990 . S
O126 C140 1.253 . S
Mg127 O126 1.990 . S
Mg127 O130 2.180 . S
Mg127 O131 2.117 . S
Mg127 O145 2.030 . S
O128 Mg129 2.072 . S
O128 C140 1.260 . S
Mg129 O128 2.072 . S
Mg129 O130 2.099 . S
Mg129 O132 2.079 . S
Mg129 O133 2.072 . S
Mg129 O135 2.099 . S
Mg129 O146 2.079 . S
O130 Mg127 2.180 . S
O130 Mg129 2.099 . S
O130 C141 1.279 . S
O131 Mg127 2.117 . S
O131 C141 1.250 . S
O132 Mg129 2.079 . S
O132 C142 1.264 1_556 S
O133 Mg129 2.072 . S
O133 C143 1.260 . S
Mg134 O135 2.180 . S
Mg134 O136 2.030 1_556 S
Mg134 O137 1.990 . S
Mg134 O138 2.117 . S
O135 Mg129 2.099 . S
O135 Mg134 2.180 . S
O135 C144 1.279 . S
O136 Mg134 2.030 1_554 S
O136 C142 1.248 . S
O137 Mg134 1.990 . S
O137 C143 1.253 . S
O138 Mg134 2.117 . S
O138 C144 1.250 . S
C139 O145 1.248 . S
C139 O146 1.264 . S
C140 O126 1.253 . S
C140 O128 1.260 . S
C141 O130 1.279 . S
C141 O131 1.250 . S
C142 O132 1.264 1_554 S
C142 O136 1.248 . S
C143 O133 1.260 . S
C143 O137 1.253 . S
C144 O135 1.279 . S
C144 O138 1.250 . S
O145 Mg127 2.030 . S
O145 C139 1.248 . S
O146 Mg129 2.079 . S
O146 C139 1.264 . S
O147 Mg148 1.990 . S
O147 C161 1.253 . S
Mg148 O147 1.990 . S
Mg148 O151 2.180 . S
Mg148 O152 2.117 . S
Mg148 O166 2.030 . S
O149 Mg150 2.072 . S
O149 C161 1.260 . S
Mg150 O149 2.072 . S
Mg150 O151 2.099 . S
Mg150 O153 2.079 . S
Mg150 O154 2.072 . S
Mg150 O156 2.099 . S
Mg150 O167 2.079 . S
O151 Mg148 2.180 . S
O151 Mg150 2.099 . S
O151 C162 1.279 . S
O152 Mg148 2.117 . S
O152 C162 1.250 . S
O153 Mg150 2.079 . S
O153 C163 1.264 . S
O154 Mg150 2.072 . S
O154 C164 1.260 . S
Mg155 O156 2.180 . S
Mg155 O157 2.030 . S
Mg155 O158 1.990 . S
Mg155 O159 2.117 . S
O156 Mg150 2.099 . S
O156 Mg155 2.180 . S
O156 C165 1.279 . S
O157 Mg155 2.030 . S
O157 C163 1.248 . S
O158 Mg155 1.990 . S
O158 C164 1.253 . S
O159 Mg155 2.117 . S
O159 C165 1.250 . S
C160 O166 1.248 . S
C160 O167 1.264 . S
C161 O147 1.253 . S
C161 O149 1.260 . S
C162 O151 1.279 . S
C162 O152 1.250 . S
C163 O153 1.264 . S
C163 O157 1.248 . S
C164 O154 1.260 . S
C164 O158 1.253 . S
C165 O156 1.279 . S
C165 O159 1.250 . S
O166 Mg148 2.030 . S
O166 C160 1.248 . S
O167 Mg150 2.079 . S
O167 C160 1.264 . S
O168 Mg169 1.990 . S
O168 C182 1.253 . S
Mg169 O168 1.990 . S
Mg169 O172 2.180 . S
Mg169 O173 2.117 . S
Mg169 O187 2.030 . S
O170 Mg171 2.072 . S
O170 C182 1.260 . S
Mg171 O170 2.072 . S
Mg171 O172 2.099 . S
Mg171 O174 2.079 . S
Mg171 O175 2.072 . S
Mg171 O177 2.099 . S
Mg171 O188 2.079 . S
O172 Mg169 2.180 . S
O172 Mg171 2.099 . S
O172 C183 1.279 . S
O173 Mg169 2.117 . S
O173 C183 1.250 . S
O174 Mg171 2.079 . S
O174 C184 1.264 . S
O175 Mg171 2.072 . S
O175 C185 1.260 . S
Mg176 O177 2.180 . S
Mg176 O178 2.030 . S
Mg176 O179 1.990 . S
Mg176 O180 2.117 . S
O177 Mg171 2.099 . S
O177 Mg176 2.180 . S
O177 C186 1.279 . S
O178 Mg176 2.030 . S
O178 C184 1.248 . S
O179 Mg176 1.990 . S
O179 C185 1.253 . S
O180 Mg176 2.117 . S
O180 C186 1.250 . S
C181 O187 1.248 . S
C181 O188 1.264 . S
C182 O168 1.253 . S
C182 O170 1.260 . S
C183 O172 1.279 . S
C183 O173 1.250 . S
C184 O174 1.264 . S
C184 O178 1.248 . S
C185 O175 1.260 . S
C185 O179 1.253 . S
C186 O177 1.279 . S
C186 O180 1.250 . S
O187 Mg169 2.030 . S
O187 C181 1.248 . S
O188 Mg171 2.079 . S
O188 C181 1.264 . S
C189 C190 1.363 . S
C189 C195 1.379 . S
C189 N197 1.356 . S
C190 C189 1.363 . S
C190 C196 1.363 . S
C191 C192 1.363 . S
C191 C196 1.379 . S
C191 N198 1.356 . S
C192 C191 1.363 . S
C192 C195 1.363 . S
N193 C195 1.356 1_655 S
N193 H205 0.984 . S
N193 H206 0.985 . S
N194 C196 1.356 . S
N194 H199 0.984 . S
N194 H200 0.985 . S
C195 C189 1.379 . S
C195 C192 1.363 . S
C195 N193 1.356 1_455 S
C196 C190 1.363 . S
C196 C191 1.379 . S
C196 N194 1.356 . S
N197 C189 1.356 . S
N197 H203 0.984 . S
N197 H204 0.984 . S
N198 C191 1.356 . S
N198 H201 0.984 . S
N198 H202 0.985 . S
H199 N194 0.984 . S
H200 N194 0.985 . S
H201 N198 0.984 . S
H202 N198 0.985 . S
H203 N197 0.984 . S
H204 N197 0.984 . S
H205 N193 0.984 . S
H206 N193 0.985 . S
C207 C208 1.363 . S
C207 C213 1.379 . S
C207 N215 1.356 . S
C208 C207 1.363 . S
C208 C214 1.363 . S
C209 C210 1.363 . S
C209 C214 1.379 . S
C209 N216 1.356 . S
C210 C209 1.363 . S
C210 C213 1.363 . S
N211 C213 1.356 . S
N211 H223 0.984 . S
N211 H224 0.985 . S
N212 C214 1.356 . S
N212 H217 0.984 . S
N212 H218 0.985 . S
C213 C207 1.379 . S
C213 C210 1.363 . S
C213 N211 1.356 . S
C214 C208 1.363 . S
C214 C209 1.379 . S
C214 N212 1.356 . S
N215 C207 1.356 . S
N215 H221 0.984 . S
N215 H222 0.984 . S
N216 C209 1.356 . S
N216 H219 0.984 . S
N216 H220 0.985 . S
H217 N212 0.984 . S
H218 N212 0.985 . S
H219 N216 0.984 . S
H220 N216 0.985 . S
H221 N215 0.984 . S
H222 N215 0.984 . S
H223 N211 0.984 . S
H224 N211 0.985 . S
C225 C226 1.363 1_545 S
C225 C231 1.379 . S
C225 N233 1.356 . S
C226 C225 1.363 1_565 S
C226 C232 1.363 . S
C227 C228 1.363 . S
C227 C232 1.379 1_545 S
C227 N234 1.350 1_545 S
C228 C227 1.363 . S
C228 C231 1.363 . S
N229 C231 1.356 . S
N229 H241 0.984 . S
N229 H242 0.985 . S
N230 C232 1.356 . S
N230 H235 0.984 . S
N230 H236 0.985 . S
C231 C225 1.379 . S
C231 C228 1.363 . S
C231 N229 1.356 . S
C232 C226 1.363 . S
C232 C227 1.379 1_565 S
C232 N230 1.356 . S
N233 C225 1.356 . S
N233 H239 0.984 . S
N233 H240 0.984 . S
N234 C227 1.350 1_565 S
N234 H237 0.966 1_565 S
N234 H238 1.010 . S
H235 N230 0.984 . S
H236 N230 0.985 . S
H237 N234 0.966 1_545 S
H238 N234 1.010 . S
H239 N233 0.984 . S
H240 N233 0.984 . S
H241 N229 0.984 . S
H242 N229 0.985 . S
C243 C244 1.363 . S
C243 C249 1.379 . S
C243 N251 1.356 . S
C244 C243 1.363 . S
C244 C250 1.363 . S
C245 C246 1.363 . S
C245 C250 1.379 . S
C245 N252 1.356 . S
C246 C245 1.363 . S
C246 C249 1.363 . S
N247 C249 1.356 . S
N247 H259 0.984 . S
N247 H260 0.985 . S
N248 C250 1.356 . S
N248 H253 0.984 . S
N248 H254 0.985 . S
C249 C243 1.379 . S
C249 C246 1.363 . S
C249 N247 1.356 . S
C250 C244 1.363 . S
C250 C245 1.379 . S
C250 N248 1.356 . S
N251 C243 1.356 . S
N251 H257 0.984 . S
N251 H258 0.984 . S
N252 C245 1.356 . S
N252 H255 0.984 . S
N252 H256 0.985 . S
H253 N248 0.984 . S
H254 N248 0.985 . S
H255 N252 0.984 . S
H256 N252 0.985 . S
H257 N251 0.984 . S
H258 N251 0.984 . S
H259 N247 0.984 . S
H260 N247 0.985 . S
C261 C262 1.363 . S
C261 C267 1.379 . S
C261 N269 1.356 . S
C262 C261 1.363 . S
C262 C268 1.363 . S
C263 C264 1.363 . S
C263 C268 1.379 . S
C263 N270 1.356 . S
C264 C263 1.363 . S
C264 C267 1.363 . S
N265 C267 1.356 . S
N265 H277 0.984 . S
N265 H278 0.985 . S
N266 C268 1.356 . S
N266 H271 0.984 . S
N266 H272 0.985 . S
C267 C261 1.379 . S
C267 C264 1.363 . S
C267 N265 1.356 . S
C268 C262 1.363 . S
C268 C263 1.379 . S
C268 N266 1.356 . S
N269 C261 1.356 . S
N269 H275 0.984 . S
N269 H276 0.984 . S
N270 C263 1.356 . S
N270 H273 0.984 . S
N270 H274 0.985 . S
H271 N266 0.984 . S
H272 N266 0.985 . S
H273 N270 0.984 . S
H274 N270 0.985 . S
H275 N269 0.984 . S
H276 N269 0.984 . S
H277 N265 0.984 . S
H278 N265 0.985 . S
C279 C280 1.363 . S
C279 C285 1.379 . S
C279 N287 1.356 . S
C280 C279 1.363 . S
C280 C286 1.363 . S
C281 C282 1.363 . S
C281 C286 1.379 . S
C281 N288 1.356 1_556 S
C282 C281 1.363 . S
C282 C285 1.363 . S
N283 C285 1.356 . S
N283 H295 0.984 . S
N283 H296 0.985 . S
N284 C286 1.356 . S
N284 H289 0.984 . S
N284 H290 0.985 . S
C285 C279 1.379 . S
C285 C282 1.363 . S
C285 N283 1.356 . S
C286 C280 1.363 . S
C286 C281 1.379 . S
C286 N284 1.356 . S
N287 C279 1.356 . S
N287 H293 0.984 . S
N287 H294 0.984 . S
N288 C281 1.356 1_554 S
N288 H291 0.984 . S
N288 H292 0.985 . S
H289 N284 0.984 . S
H290 N284 0.985 . S
H291 N288 0.984 . S
H292 N288 0.985 . S
H293 N287 0.984 . S
H294 N287 0.984 . S
H295 N283 0.984 . S
H296 N283 0.985 . S
C297 C298 1.363 . S
C297 C303 1.379 . S
C297 N305 1.356 . S
C298 C297 1.363 . S
C298 C304 1.363 . S
C299 C300 1.363 . S
C299 C304 1.379 . S
C299 N306 1.356 . S
C300 C299 1.363 . S
C300 C303 1.363 . S
N301 C303 1.356 . S
N301 H313 0.984 . S
N301 H314 0.985 . S
N302 C304 1.356 . S
N302 H307 0.984 . S
N302 H308 0.985 . S
C303 C297 1.379 . S
C303 C300 1.363 . S
C303 N301 1.356 . S
C304 C298 1.363 . S
C304 C299 1.379 . S
C304 N302 1.356 . S
N305 C297 1.356 . S
N305 H311 0.984 . S
N305 H312 0.984 . S
N306 C299 1.356 . S
N306 H309 0.984 . S
N306 H310 0.985 . S
H307 N302 0.984 . S
H308 N302 0.985 . S
H309 N306 0.984 . S
H310 N306 0.985 . S
H311 N305 0.984 . S
H312 N305 0.984 . S
H313 N301 0.984 . S
H314 N301 0.985 . S
C315 C316 1.363 . S
C315 C321 1.379 . S
C315 N323 1.356 . S
C316 C315 1.363 . S
C316 C322 1.363 . S
C317 C318 1.363 . S
C317 C322 1.379 . S
C317 N324 1.356 . S
C318 C317 1.363 . S
C318 C321 1.363 . S
N319 C321 1.356 1_556 S
N319 H331 0.984 . S
N319 H332 0.985 . S
N320 C322 1.356 . S
N320 H325 0.984 . S
N320 H326 0.985 . S
C321 C315 1.379 . S
C321 C318 1.363 . S
C321 N319 1.356 1_554 S
C322 C316 1.363 . S
C322 C317 1.379 . S
C322 N320 1.356 . S
N323 C315 1.356 . S
N323 H329 0.984 . S
N323 H330 0.984 . S
N324 C317 1.356 . S
N324 H327 0.984 1_554 S
N324 H328 0.985 . S
H325 N320 0.984 . S
H326 N320 0.985 . S
H327 N324 0.984 1_556 S
H328 N324 0.985 . S
H329 N323 0.984 . S
H330 N323 0.984 . S
H331 N319 0.984 . S
H332 N319 0.985 . S
C333 C334 1.363 . S
C333 C339 1.379 . S
C333 N341 1.356 . S
C334 C333 1.363 . S
C334 C340 1.363 . S
C335 C336 1.363 . S
C335 C340 1.379 . S
C335 N342 1.356 . S
C336 C335 1.363 . S
C336 C339 1.363 . S
N337 C339 1.356 1_556 S
N337 H349 0.984 . S
N337 H350 0.985 . S
N338 C340 1.356 . S
N338 H343 0.984 . S
N338 H344 0.985 . S
C339 C333 1.379 . S
C339 C336 1.363 . S
C339 N337 1.356 1_554 S
C340 C334 1.363 . S
C340 C335 1.379 . S
C340 N338 1.356 . S
N341 C333 1.356 . S
N341 H347 0.984 . S
N341 H348 0.984 . S
N342 C335 1.356 . S
N342 H345 0.984 1_554 S
N342 H346 0.985 . S
H343 N338 0.984 . S
H344 N338 0.985 . S
H345 N342 0.984 1_556 S
H346 N342 0.985 . S
H347 N341 0.984 . S
H348 N341 0.984 . S
H349 N337 0.984 . S
H350 N337 0.985 . S
C351 C352 1.363 . S
C351 C357 1.379 . S
C351 N359 1.356 . S
C352 C351 1.363 . S
C352 C358 1.363 . S
C353 C354 1.363 . S
C353 C358 1.379 . S
C353 N360 1.356 1_554 S
C354 C353 1.363 . S
C354 C357 1.363 . S
N355 C357 1.356 . S
N355 H367 0.984 . S
N355 H368 0.985 . S
N356 C358 1.356 . S
N356 H361 0.984 . S
N356 H362 0.985 1_554 S
C357 C351 1.379 . S
C357 C354 1.363 . S
C357 N355 1.356 . S
C358 C352 1.363 . S
C358 C353 1.379 . S
C358 N356 1.356 . S
N359 C351 1.356 . S
N359 H365 0.984 . S
N359 H366 0.984 . S
N360 C353 1.356 1_556 S
N360 H363 0.984 . S
N360 H364 0.985 . S
H361 N356 0.984 . S
H362 N356 0.985 1_556 S
H363 N360 0.984 . S
H364 N360 0.985 . S
H365 N359 0.984 . S
H366 N359 0.984 . S
H367 N355 0.984 . S
H368 N355 0.985 . S
C369 C370 1.365 . S
C369 C375 1.379 . S
C369 N377 1.354 1_554 S
C370 C369 1.365 . S
C370 C376 1.363 . S
C371 C372 1.363 . S
C371 C376 1.379 . S
C371 N378 1.356 . S
C372 C371 1.363 . S
C372 C375 1.363 . S
N373 C375 1.356 1_556 S
N373 H385 0.984 . S
N373 H386 0.985 . S
N374 C376 1.356 . S
N374 H379 0.984 . S
N374 H380 0.985 . S
C375 C369 1.379 . S
C375 C372 1.363 . S
C375 N373 1.356 1_554 S
C376 C370 1.363 . S
C376 C371 1.379 . S
C376 N374 1.356 . S
N377 C369 1.354 1_556 S
N377 H383 0.984 . S
N377 H384 0.984 . S
N378 C371 1.356 . S
N378 H381 0.984 . S
N378 H382 0.985 . S
H379 N374 0.984 . S
H380 N374 0.985 . S
H381 N378 0.984 . S
H382 N378 0.985 . S
H383 N377 0.984 . S
H384 N377 0.984 . S
H385 N373 0.984 . S
H386 N373 0.985 . S
C387 C388 1.363 . S
C387 C393 1.379 . S
C387 N395 1.356 . S
C388 C387 1.363 . S
C388 C394 1.363 . S
C389 C390 1.363 . S
C389 C394 1.379 . S
C389 N396 1.356 . S
C390 C389 1.363 . S
C390 C393 1.363 . S
N391 C393 1.356 . S
N391 H403 0.984 . S
N391 H404 0.985 . S
N392 C394 1.356 1_556 S
N392 H397 0.984 . S
N392 H398 0.985 . S
C393 C387 1.379 . S
C393 C390 1.363 . S
C393 N391 1.356 . S
C394 C388 1.363 . S
C394 C389 1.379 . S
C394 N392 1.356 1_554 S
N395 C387 1.356 . S
N395 H401 0.984 . S
N395 H402 0.984 . S
N396 C389 1.356 . S
N396 H399 0.984 . S
N396 H400 0.985 1_554 S
H397 N392 0.984 . S
H398 N392 0.985 . S
H399 N396 0.984 . S
H400 N396 0.985 1_556 S
H401 N395 0.984 . S
H402 N395 0.984 . S
H403 N391 0.984 . S
H404 N391 0.985 . S
C405 C406 1.363 1_556 S
C405 C411 1.379 . S
C405 N413 1.356 . S
C406 C405 1.363 1_554 S
C406 C412 1.363 . S
C407 C408 1.363 1_554 S
C407 C412 1.379 . S
C407 N414 1.356 . S
C408 C407 1.363 1_556 S
C408 C411 1.363 . S
N409 C411 1.356 . S
N409 H421 0.984 . S
N409 H422 0.985 . S
N410 C412 1.356 . S
N410 H415 0.984 . S
N410 H416 0.985 . S
C411 C405 1.379 . S
C411 C408 1.363 . S
C411 N409 1.356 . S
C412 C406 1.363 . S
C412 C407 1.379 . S
C412 N410 1.356 . S
N413 C405 1.356 . S
N413 H419 0.984 . S
N413 H420 0.984 . S
N414 C407 1.356 . S
N414 H417 0.984 1_554 S
N414 H418 0.985 . S
H415 N410 0.984 . S
H416 N410 0.985 . S
H417 N414 0.984 1_556 S
H418 N414 0.985 . S
H419 N413 0.984 . S
H420 N413 0.984 . S
H421 N409 0.984 . S
H422 N409 0.985 . S
C423 C424 1.363 . S
C423 C429 1.379 . S
C423 N431 1.356 . S
C424 C423 1.363 . S
C424 C430 1.363 . S
C425 C426 1.363 . S
C425 C430 1.379 . S
C425 N432 1.356 1_556 S
C426 C425 1.363 . S
C426 C429 1.363 . S
N427 C429 1.356 1_455 S
N427 H439 0.984 . S
N427 H440 0.985 . S
N428 C430 1.356 . S
N428 H433 0.984 . S
N428 H434 0.985 . S
C429 C423 1.379 . S
C429 C426 1.363 . S
C429 N427 1.356 1_655 S
C430 C424 1.363 . S
C430 C425 1.379 . S
C430 N428 1.356 . S
N431 C423 1.356 . S
N431 H437 0.987 . S
N431 H438 0.984 . S
N432 C425 1.356 1_554 S
N432 H435 0.984 . S
N432 H436 0.985 . S
H433 N428 0.984 . S
H434 N428 0.985 . S
H435 N432 0.984 . S
H436 N432 0.985 . S
H437 N431 0.987 . S
H438 N431 0.984 . S
H439 N427 0.984 . S
H440 N427 0.985 . S
C441 C442 1.363 . S
C441 C447 1.379 . S
C441 N449 1.356 . S
C442 C441 1.363 . S
C442 C448 1.363 . S
C443 C444 1.363 . S
C443 C448 1.379 . S
C443 N450 1.356 . S
C444 C443 1.363 . S
C444 C447 1.363 . S
N445 C447 1.356 1_554 S
N445 H457 0.984 . S
N445 H458 0.985 . S
N446 C448 1.356 . S
N446 H451 0.984 . S
N446 H452 0.985 . S
C447 C441 1.379 . S
C447 C444 1.363 . S
C447 N445 1.356 1_556 S
C448 C442 1.363 . S
C448 C443 1.379 . S
C448 N446 1.356 . S
N449 C441 1.356 . S
N449 H455 0.984 . S
N449 H456 0.984 . S
N450 C443 1.356 . S
N450 H453 0.984 . S
N450 H454 0.985 . S
H451 N446 0.984 . S
H452 N446 0.985 . S
H453 N450 0.984 . S
H454 N450 0.985 . S
H455 N449 0.984 . S
H456 N449 0.984 . S
H457 N445 0.984 . S
H458 N445 0.985 . S
C459 C460 1.363 . S
C459 C465 1.379 . S
C459 N467 1.356 . S
C460 C459 1.363 . S
C460 C466 1.363 . S
C461 C462 1.363 . S
C461 C466 1.379 . S
C461 N468 1.356 1_556 S
C462 C461 1.363 . S
C462 C465 1.363 . S
N463 C465 1.356 . S
N463 H475 0.984 1_655 S
N463 H476 0.985 1_655 S
N464 C466 1.356 . S
N464 H469 0.984 . S
N464 H470 0.985 . S
C465 C459 1.379 . S
C465 C462 1.363 . S
C465 N463 1.356 . S
C466 C460 1.363 . S
C466 C461 1.379 . S
C466 N464 1.356 . S
N467 C459 1.356 . S
N467 H473 0.984 . S
N467 H474 0.984 . S
N468 C461 1.356 1_554 S
N468 H471 0.984 . S
N468 H472 0.985 . S
H469 N464 0.984 . S
H470 N464 0.985 . S
H471 N468 0.984 . S
H472 N468 0.985 . S
H473 N467 0.984 . S
H474 N467 0.984 . S
H475 N463 0.984 1_455 S
H476 N463 0.985 1_455 S
C477 C478 1.363 1_556 S
C477 C483 1.379 . S
C477 N485 1.356 . S
C478 C477 1.363 1_554 S
C478 C484 1.363 . S
C479 C480 1.363 . S
C479 C484 1.379 1_556 S
C479 N486 1.356 . S
C480 C479 1.363 . S
C480 C483 1.363 . S
N481 C483 1.356 . S
N481 H493 0.984 . S
N481 H494 0.985 . S
N482 C484 1.356 . S
N482 H487 0.984 . S
N482 H488 0.985 . S
C483 C477 1.379 . S
C483 C480 1.363 . S
C483 N481 1.356 . S
C484 C478 1.363 . S
C484 C479 1.379 1_554 S
C484 N482 1.356 . S
N485 C477 1.356 . S
N485 H491 0.984 . S
N485 H492 0.984 . S
N486 C479 1.356 . S
N486 H489 0.984 . S
N486 H490 0.985 1_556 S
H487 N482 0.984 . S
H488 N482 0.985 . S
H489 N486 0.984 . S
H490 N486 0.985 1_554 S
H491 N485 0.984 . S
H492 N485 0.984 . S
H493 N481 0.984 . S
H494 N481 0.985 . S
C495 C496 1.363 . S
C495 C501 1.379 1_556 S
C495 N503 1.356 . S
C496 C495 1.363 . S
C496 C502 1.363 . S
C497 C498 1.363 . S
C497 C502 1.379 . S
C497 N504 1.356 . S
C498 C497 1.363 . S
C498 C501 1.363 1_556 S
N499 C501 1.356 . S
N499 H511 0.984 . S
N499 H512 0.985 . S
N500 C502 1.356 . S
N500 H505 0.984 . S
N500 H506 0.985 . S
C501 C495 1.379 1_554 S
C501 C498 1.363 1_554 S
C501 N499 1.356 . S
C502 C496 1.363 . S
C502 C497 1.379 . S
C502 N500 1.356 . S
N503 C495 1.356 . S
N503 H509 0.984 1_556 S
N503 H510 0.984 . S
N504 C497 1.356 . S
N504 H507 0.984 . S
N504 H508 0.985 . S
H505 N500 0.984 . S
H506 N500 0.985 . S
H507 N504 0.984 . S
H508 N504 0.985 . S
H509 N503 0.984 1_554 S
H510 N503 0.984 . S
H511 N499 0.984 . S
H512 N499 0.985 . S
C513 C514 1.363 . S
C513 C519 1.379 . S
C513 N521 1.384 . S
C514 C513 1.363 . S
C514 C520 1.363 . S
C515 C516 1.363 . S
C515 C520 1.379 . S
C515 N522 1.356 . S
C516 C515 1.363 . S
C516 C519 1.363 . S
N517 C519 1.356 . S
N517 H529 0.984 . S
N517 H530 0.985 . S
N518 C520 1.356 1_556 S
N518 H523 0.984 . S
N518 H524 0.985 . S
C519 C513 1.379 . S
C519 C516 1.363 . S
C519 N517 1.356 . S
C520 C514 1.363 . S
C520 C515 1.379 . S
C520 N518 1.356 1_554 S
N521 C513 1.384 . S
N521 H527 0.975 1_565 S
N521 H528 0.966 1_565 S
N522 C515 1.356 . S
N522 H525 0.984 . S
N522 H526 0.985 . S
H523 N518 0.984 . S
H524 N518 0.985 . S
H525 N522 0.984 . S
H526 N522 0.985 . S
H527 N521 0.975 1_545 S
H528 N521 0.966 1_545 S
H529 N517 0.984 . S
H530 N517 0.985 . S
C531 C532 1.363 . S
C531 C537 1.379 . S
C531 N539 1.356 . S
C532 C531 1.363 . S
C532 C538 1.363 . S
C533 C534 1.363 . S
C533 C538 1.379 . S
C533 N540 1.356 . S
C534 C533 1.363 . S
C534 C537 1.363 . S
N535 C537 1.356 1_556 S
N535 H547 0.984 . S
N535 H548 0.985 . S
N536 C538 1.356 . S
N536 H541 0.984 . S
N536 H542 0.985 . S
C537 C531 1.379 . S
C537 C534 1.363 . S
C537 N535 1.356 1_554 S
C538 C532 1.363 . S
C538 C533 1.379 . S
C538 N536 1.356 . S
N539 C531 1.356 . S
N539 H545 0.984 1_554 S
N539 H546 0.984 . S
N540 C533 1.356 . S
N540 H543 0.984 . S
N540 H544 0.985 . S
H541 N536 0.984 . S
H542 N536 0.985 . S
H543 N540 0.984 . S
H544 N540 0.985 . S
H545 N539 0.984 1_556 S
H546 N539 0.984 . S
H547 N535 0.984 . S
H548 N535 0.985 . S
C549 C550 1.363 . S
C549 C555 1.379 . S
C549 N557 1.356 1_554 S
C550 C549 1.363 . S
C550 C556 1.363 . S
C551 C552 1.363 . S
C551 C556 1.379 . S
C551 N558 1.356 . S
C552 C551 1.363 . S
C552 C555 1.363 . S
N553 C555 1.356 . S
N553 H565 0.984 . S
N553 H566 0.985 . S
N554 C556 1.356 . S
N554 H559 0.984 . S
N554 H560 0.985 . S
C555 C549 1.379 . S
C555 C552 1.363 . S
C555 N553 1.356 . S
C556 C550 1.363 . S
C556 C551 1.379 . S
C556 N554 1.356 . S
N557 C549 1.356 1_556 S
N557 H563 0.984 . S
N557 H564 0.984 . S
N558 C551 1.356 . S
N558 H561 0.984 . S
N558 H562 0.985 . S
H559 N554 0.984 . S
H560 N554 0.985 . S
H561 N558 0.984 . S
H562 N558 0.985 . S
H563 N557 0.984 . S
H564 N557 0.984 . S
H565 N553 0.984 . S
H566 N553 0.985 . S
C567 C568 1.363 . S
C567 C573 1.379 . S
C567 N575 1.356 . S
C568 C567 1.363 . S
C568 C574 1.363 . S
C569 C570 1.363 . S
C569 C574 1.379 . S
C569 N576 1.356 . S
C570 C569 1.363 . S
C570 C573 1.363 . S
N571 C573 1.356 . S
N571 H583 0.984 . S
N571 H584 0.985 . S
N572 C574 1.356 . S
N572 H577 0.984 . S
N572 H578 0.985 . S
C573 C567 1.379 . S
C573 C570 1.363 . S
C573 N571 1.356 . S
C574 C568 1.363 . S
C574 C569 1.379 . S
C574 N572 1.356 . S
N575 C567 1.356 . S
N575 H581 0.984 . S
N575 H582 0.984 . S
N576 C569 1.356 . S
N576 H579 0.984 . S
N576 H580 0.985 . S
H577 N572 0.984 . S
H578 N572 0.985 . S
H579 N576 0.984 . S
H580 N576 0.985 . S
H581 N575 0.984 . S
H582 N575 0.984 . S
H583 N571 0.984 . S
H584 N571 0.985 . S
C585 C586 1.363 . S
C585 C591 1.379 1_545 S
C585 N593 1.356 . S
C586 C585 1.363 . S
C586 C592 1.363 . S
C587 C588 1.363 1_545 S
C587 C592 1.379 . S
C587 N594 1.356 . S
C588 C587 1.363 1_565 S
C588 C591 1.363 . S
N589 C591 1.356 . S
N589 H601 0.984 . S
N589 H602 0.985 . S
N590 C592 1.356 . S
N590 H595 0.984 . S
N590 H596 0.985 . S
C591 C585 1.379 1_565 S
C591 C588 1.363 . S
C591 N589 1.356 . S
C592 C586 1.363 . S
C592 C587 1.379 . S
C592 N590 1.356 . S
N593 C585 1.356 . S
N593 H599 0.984 1_545 S
N593 H600 0.984 . S
N594 C587 1.356 . S
N594 H597 0.984 1_545 S
N594 H598 0.985 . S
H595 N590 0.984 . S
H596 N590 0.985 . S
H597 N594 0.984 1_565 S
H598 N594 0.985 . S
H599 N593 0.984 1_565 S
H600 N593 0.984 . S
H601 N589 0.984 . S
H602 N589 0.985 . S
C603 C604 1.363 1_455 S
C603 C609 1.379 . S
C603 N611 1.356 . S
C604 C603 1.363 1_655 S
C604 C610 1.363 . S
C605 C606 1.363 . S
C605 C610 1.379 1_455 S
C605 N612 1.356 . S
C606 C605 1.363 . S
C606 C609 1.363 . S
N607 C609 1.356 . S
N607 H619 0.984 . S
N607 H620 0.985 . S
N608 C610 1.356 . S
N608 H613 0.984 . S
N608 H614 0.985 . S
C609 C603 1.379 . S
C609 C606 1.363 . S
C609 N607 1.356 . S
C610 C604 1.363 . S
C610 C605 1.379 1_655 S
C610 N608 1.356 . S
N611 C603 1.356 . S
N611 H617 0.984 . S
N611 H618 0.984 1_455 S
N612 C605 1.356 . S
N612 H615 0.984 . S
N612 H616 0.985 . S
H613 N608 0.984 . S
H614 N608 0.985 . S
H615 N612 0.984 . S
H616 N612 0.985 . S
H617 N611 0.984 . S
H618 N611 0.984 1_655 S
H619 N607 0.984 . S
H620 N607 0.985 . S
C621 C622 1.363 . S
C621 C627 1.379 . S
C621 N629 1.356 . S
C622 C621 1.363 . S
C622 C628 1.363 . S
C623 C624 1.363 . S
C623 C628 1.379 . S
C623 N630 1.356 . S
C624 C623 1.363 . S
C624 C627 1.363 . S
N625 C627 1.356 . S
N625 H637 0.984 . S
N625 H638 0.985 . S
N626 C628 1.356 . S
N626 H631 0.984 . S
N626 H632 0.985 . S
C627 C621 1.379 . S
C627 C624 1.363 . S
C627 N625 1.356 . S
C628 C622 1.363 . S
C628 C623 1.379 . S
C628 N626 1.356 . S
N629 C621 1.356 . S
N629 H635 0.984 . S
N629 H636 0.984 . S
N630 C623 1.356 . S
N630 H633 0.984 . S
N630 H634 0.985 . S
H631 N626 0.984 . S
H632 N626 0.985 . S
H633 N630 0.984 . S
H634 N630 0.985 . S
H635 N629 0.984 . S
H636 N629 0.984 . S
H637 N625 0.984 . S
H638 N625 0.985 . S
C639 C640 1.363 1_545 S
C639 C645 1.379 . S
C639 N647 1.356 . S
C640 C639 1.363 1_565 S
C640 C646 1.363 . S
C641 C642 1.363 . S
C641 C646 1.379 1_545 S
C641 N648 1.356 . S
C642 C641 1.363 . S
C642 C645 1.363 . S
N643 C645 1.356 . S
N643 H655 0.984 . S
N643 H656 0.985 . S
N644 C646 1.356 . S
N644 H649 0.984 . S
N644 H650 0.985 . S
C645 C639 1.379 . S
C645 C642 1.363 . S
C645 N643 1.356 . S
C646 C640 1.363 . S
C646 C641 1.379 1_565 S
C646 N644 1.356 . S
N647 C639 1.356 . S
N647 H653 0.984 . S
N647 H654 0.984 1_545 S
N648 C641 1.356 . S
N648 H651 0.984 . S
N648 H652 0.985 . S
H649 N644 0.984 . S
H650 N644 0.985 . S
H651 N648 0.984 . S
H652 N648 0.985 . S
H653 N647 0.984 . S
H654 N647 0.984 1_565 S
H655 N643 0.984 . S
H656 N643 0.985 . S
C657 C658 1.363 1_455 S
C657 C663 1.379 . S
C657 N665 1.356 1_455 S
C658 C657 1.363 1_655 S
C658 C664 1.363 1_655 S
C659 C660 1.363 . S
C659 C664 1.379 . S
C659 N666 1.356 . S
C660 C659 1.363 . S
C660 C663 1.363 . S
N661 C663 1.356 . S
N661 H673 0.984 . S
N661 H674 0.985 . S
N662 C664 1.356 1_655 S
N662 H667 0.984 . S
N662 H668 0.985 1_655 S
C663 C657 1.379 . S
C663 C660 1.363 . S
C663 N661 1.356 . S
C664 C658 1.363 1_455 S
C664 C659 1.379 . S
C664 N662 1.356 1_455 S
N665 C657 1.356 1_655 S
N665 H671 0.984 . S
N665 H672 0.984 . S
N666 C659 1.356 . S
N666 H669 0.984 . S
N666 H670 0.985 . S
H667 N662 0.984 . S
H668 N662 0.985 1_455 S
H669 N666 0.984 . S
H670 N666 0.985 . S
H671 N665 0.984 . S
H672 N665 0.984 . S
H673 N661 0.984 . S
H674 N661 0.985 . S
C190 C15 1.113 . S
C192 C18 1.114 . S
C208 C39 1.129 . S
C210 C36 1.128 . S
C226 C57 1.129 . S
C228 C60 1.130 . S
C244 C78 1.068 . S
C246 C81 1.069 . S
C262 C99 1.118 . S
C264 C102 1.119 . S
C280 C120 1.150 . S
C282 C123 1.144 1_556 S
C298 C140 1.060 . S
C300 C142 1.038 . S
C316 C163 1.076 . S
C318 C161 1.105 1_554 S
C334 C182 1.148 . S
C336 C184 1.115 1_554 S
C352 C119 1.503 . S
C354 C14 1.503 . S
C370 C34 1.410 . S
C372 C77 1.390 . S
C388 C56 1.479 . S
C390 C98 1.487 . S
C406 C55 1.180 . S
C408 C143 1.270 . S
C424 C165 1.187 . S
C426 C13 1.121 . S
C442 C185 1.421 . S
C444 C35 1.515 1_556 S
C460 C183 1.333 . S
C462 C16 1.447 1_556 S
C478 C38 1.141 . S
C480 C141 1.189 . S
C496 C160 1.268 . S
C498 C58 1.381 1_556 S
C514 C59 1.451 . S
C516 C80 1.454 . S
C532 C101 1.406 . S
C534 C17 1.412 . S
C550 C37 1.690 . S
C552 C122 1.555 . S
C568 C186 1.367 . S
C570 C76 1.196 . S
C586 C144 1.328 . S
C588 C97 1.209 . S
C604 C164 1.319 . S
C606 C118 1.247 . S
C622 C139 1.183 . S
C624 C121 1.298 . S
C640 C79 1.364 . S
C642 C162 1.264 . S
C658 C181 1.198 . S
C660 C100 1.266 . S
