# Generated by pormake.
# Topology sml, (6)-cn, num edge types: 1
# Building blocks:
#     Node 0, Type 0, BuildingBlock: IZENUY_clean_sbu_0, # of connection points: 6
#     Node 1, Type 0, BuildingBlock: IZENUY_clean_sbu_0, # of connection points: 6
#     Node 2, Type 0, BuildingBlock: IZENUY_clean_sbu_0, # of connection points: 6
#     Node 3, Type 0, BuildingBlock: IZENUY_clean_sbu_0, # of connection points: 6
#     Node 4, Type 0, BuildingBlock: IZENUY_clean_sbu_0, # of connection points: 6
#     Node 5, Type 0, BuildingBlock: IZENUY_clean_sbu_0, # of connection points: 6
#     Edge 6, Type (0, 0), BuildingBlock: XIVTED_clean_linker_0, # of connection points: 2
#     Edge 7, Type (0, 0), BuildingBlock: XIVTED_clean_linker_0, # of connection points: 2
#     Edge 8, Type (0, 0), BuildingBlock: XIVTED_clean_linker_0, # of connection points: 2
#     Edge 9, Type (0, 0), BuildingBlock: XIVTED_clean_linker_0, # of connection points: 2
#     Edge 10, Type (0, 0), BuildingBlock: XIVTED_clean_linker_0, # of connection points: 2
#     Edge 11, Type (0, 0), BuildingBlock: XIVTED_clean_linker_0, # of connection points: 2
#     Edge 12, Type (0, 0), BuildingBlock: XIVTED_clean_linker_0, # of connection points: 2
#     Edge 13, Type (0, 0), BuildingBlock: XIVTED_clean_linker_0, # of connection points: 2
#     Edge 14, Type (0, 0), BuildingBlock: XIVTED_clean_linker_0, # of connection points: 2
#     Edge 15, Type (0, 0), BuildingBlock: XIVTED_clean_linker_0, # of connection points: 2
#     Edge 16, Type (0, 0), BuildingBlock: XIVTED_clean_linker_0, # of connection points: 2
#     Edge 17, Type (0, 0), BuildingBlock: XIVTED_clean_linker_0, # of connection points: 2
#     Edge 18, Type (0, 0), BuildingBlock: XIVTED_clean_linker_0, # of connection points: 2
#     Edge 19, Type (0, 0), BuildingBlock: XIVTED_clean_linker_0, # of connection points: 2
#     Edge 20, Type (0, 0), BuildingBlock: XIVTED_clean_linker_0, # of connection points: 2
#     Edge 21, Type (0, 0), BuildingBlock: XIVTED_clean_linker_0, # of connection points: 2
#     Edge 22, Type (0, 0), BuildingBlock: XIVTED_clean_linker_0, # of connection points: 2
#     Edge 23, Type (0, 0), BuildingBlock: XIVTED_clean_linker_0, # of connection points: 2
# Relax obj value: 0.327
# Max RMSD: 0.283
# Mean RMSD: 0.283
data_MOF--net-sml--node1-IZENUY_clean_sbu_0--edge1-XIVTED_clean_linker_0
_symmetry_space_group_name_H-M    P1
_symmetry_Int_Tables_number       1
_symmetry_cell_setting            triclinic
loop_
_symmetry_equiv_pos_as_xyz
'x, y, z'
_cell_length_a     40.831974
_cell_length_b     40.893927
_cell_length_c     14.83299
_cell_angle_alpha  89.969191
_cell_angle_beta   90.072736
_cell_angle_gamma 120.03679
loop_
_atom_site_label
_atom_site_type_symbol
_atom_site_fract_x
_atom_site_fract_y
_atom_site_fract_z
_atom_type_partial_charge
Fe0 Fe 0.27344 0.45689 0.05925 0.0
Fe1 Fe 0.20318 0.38332 0.0007 0.0
O2 O 0.22909 0.43347 0.00359 0.0
Fe3 Fe 0.21025 0.45941 0.95106 0.0
O4 O 0.22989 0.49768 0.03255 0.0
O5 O 0.25809 0.48147 0.13589 0.0
O6 O 0.25977 0.42043 0.14603 0.0
C7 C 0.22713 0.39652 0.17437 0.0
C8 C 0.2853 0.50234 0.90542 0.0
O9 O 0.19921 0.38111 0.12172 0.0
C10 C 0.19472 0.40051 0.82886 0.0
O11 O 0.29249 0.43483 0.98529 0.0
O12 O 0.24485 0.37752 0.00349 0.0
O13 O 0.25144 0.48474 0.87788 0.0
O14 O 0.29431 0.49703 0.98316 0.0
C15 C 0.1461 0.40165 0.02686 0.0
O16 O 0.20591 0.38336 0.87962 0.0
O17 O 0.18758 0.42523 0.85945 0.0
C18 C 0.2781 0.39965 0.97619 0.0
O19 O 0.1565 0.37933 -0.00277 0.0
O20 O 0.168 0.43686 0.02183 0.0
C21 C 0.24322 0.50064 0.11082 0.0
Fe22 Fe 0.82403 0.26588 0.38342 0.0
Fe23 Fe 0.82674 0.19436 0.33509 0.0
O24 O 0.80347 0.22099 0.33134 0.0
Fe25 Fe 0.75917 0.20247 0.27722 0.0
O26 O 0.73693 0.20325 0.38124 0.0
O27 O 0.77806 0.26218 0.41399 0.0
O28 O 0.82232 0.24509 0.49141 0.0
C29 C 0.83567 0.224 0.5094 0.0
C30 C 0.7963 0.28129 0.23476 0.0
O31 O 0.84782 0.21152 0.44752 0.0
C32 C 0.79717 0.18345 0.15759 0.0
O33 O 0.87374 0.27811 0.36134 0.0
O34 O 0.8671 0.23093 0.27759 0.0
O35 O 0.76642 0.24927 0.24266 0.0
O36 O 0.8258 0.28836 0.27757 0.0
C37 C 0.75393 0.13893 0.36552 0.0
O38 O 0.80998 0.17286 0.22255 0.0
O39 O 0.77922 0.20062 0.17116 0.0
C40 C 0.88639 0.26483 0.30201 0.0
O41 O 0.78749 0.15607 0.39344 0.0
O42 O 0.74358 0.15248 0.30203 0.0
C43 C 0.74531 0.23329 0.42255 0.0
Fe44 Fe 0.56628 0.75352 0.60122 0.0
Fe45 Fe 0.56461 0.81621 0.7093 0.0
O46 O 0.59056 0.79813 0.65454 0.0
Fe47 Fe 0.64053 0.82505 0.65101 0.0
O48 O 0.64478 0.78843 0.7068 0.0
O49 O 0.60378 0.74145 0.62256 0.0
O50 O 0.54547 0.73046 0.70649 0.0
C51 C 0.52253 0.73695 0.74849 0.0
C52 C 0.61992 0.79613 0.47614 0.0
O53 O 0.52492 0.7691 0.74226 0.0
C54 C 0.62289 0.88033 0.62271 0.0
O55 O 0.52404 0.75718 0.57097 0.0
O56 O 0.54169 0.81588 0.60529 0.0
O57 O 0.64458 0.80858 0.53809 0.0
O58 O 0.58545 0.77485 0.49378 0.0
C59 C 0.62167 0.83506 0.82889 0.0
O60 O 0.599 0.86643 0.68607 0.0
O61 O 0.6393 0.86339 0.59394 0.0
C62 C 0.52008 0.78598 0.56329 0.0
O63 O 0.58648 0.81764 0.81525 0.0
O64 O 0.64512 0.84595 0.76408 0.0
C65 C 0.63045 0.75487 0.6801 0.0
Fe66 Fe 0.82206 0.55812 0.92428 0.0
Fe67 Fe 0.75909 0.561 0.02882 0.0
O68 O 0.80413 0.58466 0.97767 0.0
Fe69 Fe 0.8315 0.63457 0.97807 0.0
O70 O 0.86945 0.6332 0.03665 0.0
O71 O 0.87249 0.59315 0.94437 0.0
O72 O 0.82261 0.53675 0.0298 0.0
C73 C 0.79297 0.51633 0.07443 0.0
C74 C 0.8372 0.61325 0.80151 0.0
O75 O 0.76388 0.52001 0.0656 0.0
C76 C 0.761 0.62431 0.94352 0.0
O77 O 0.77523 0.51741 0.89441 0.0
O78 O 0.73688 0.5387 0.92388 0.0
O79 O 0.85183 0.6373 0.86475 0.0
O80 O 0.82132 0.57837 0.81749 0.0
C81 C 0.7991 0.61659 0.1528 0.0
O82 O 0.74659 0.59754 0.00047 0.0
O83 O 0.79515 0.63901 0.92088 0.0
C84 C 0.74342 0.51537 0.88466 0.0
O85 O 0.77824 0.58191 0.13666 0.0
O86 O 0.81566 0.64034 0.09019 0.0
C87 C 0.8862 0.61652 0.00879 0.0
Fe88 Fe 0.26476 0.80906 0.29057 0.0
Fe89 Fe 0.20003 0.74529 0.39575 0.0
O90 O 0.21947 0.78935 0.3403 0.0
Fe91 Fe 0.19353 0.81328 0.33285 0.0
O92 O 0.2302 0.85394 0.38978 0.0
O93 O 0.27736 0.85885 0.30865 0.0
O94 O 0.28611 0.81148 0.39858 0.0
C95 C 0.2786 0.7822 0.44266 0.0
C96 C 0.22429 0.82038 0.15979 0.0
O97 O 0.24645 0.75247 0.43446 0.0
C98 C 0.13775 0.74053 0.30176 0.0
O99 O 0.26109 0.76294 0.26421 0.0
O100 O 0.20173 0.7224 0.29359 0.0
O101 O 0.21155 0.83316 0.21978 0.0
O102 O 0.24496 0.80679 0.18075 0.0
C103 C 0.18057 0.78432 0.51143 0.0
O104 O 0.15033 0.72995 0.36688 0.0
O105 O 0.1553 0.7741 0.27454 0.0
C106 C 0.23245 0.73005 0.25661 0.0
O107 O 0.19723 0.76577 0.50011 0.0
O108 O 0.1712 0.79762 0.44514 0.0
C109 C 0.26413 0.8726 0.36499 0.0
Fe110 Fe 0.45961 0.2002 0.68935 0.0
Fe111 Fe 0.385 0.19593 0.63688 0.0
O112 O 0.435 0.22068 0.63779 0.0
Fe113 Fe 0.46064 0.26618 0.58926 0.0
O114 O 0.48236 0.2865 0.69605 0.0
O115 O 0.50106 0.24582 0.72401 0.0
O116 O 0.43913 0.20004 0.79677 0.0
C117 C 0.40435 0.18587 0.81243 0.0
C118 C 0.50423 0.23096 0.54442 0.0
O119 O 0.38039 0.1739 0.74866 0.0
C120 C 0.40547 0.22886 0.46283 0.0
O121 O 0.42317 0.15055 0.66397 0.0
O122 O 0.38334 0.15706 0.57722 0.0
O123 O 0.50113 0.26025 0.55429 0.0
O124 O 0.4816 0.20056 0.58381 0.0
C125 C 0.39945 0.26737 0.67576 0.0
O126 O 0.38111 0.2137 0.52517 0.0
O127 O 0.44027 0.24838 0.48016 0.0
C128 C 0.39745 0.1377 0.6041 0.0
O129 O 0.38333 0.23308 0.69679 0.0
O130 O 0.42526 0.28056 0.61632 0.0
C131 C 0.50436 0.27809 0.73582 0.0
H132 H 0.41596 0.34077 0.6369 0.0
H133 H 0.26503 0.32826 -0.00147 0.0
H134 H 0.35294 0.24794 0.82031 0.0
H135 H 0.34107 0.43336 0.86595 0.0
H136 H 0.29758 0.29915 0.92803 0.0
H137 H 0.38995 0.3763 0.71423 0.0
C138 C 0.39684 0.32791 0.69316 0.0
C139 C 0.38617 0.29103 0.72094 0.0
C140 C 0.30752 0.32867 0.91441 0.0
C141 C 0.35663 0.3313 0.80931 0.0
C142 C 0.28881 0.34534 0.95477 0.0
C143 C 0.3003 0.38332 0.93818 0.0
C144 C 0.3379 0.34981 0.85565 0.0
C145 C 0.33145 0.40401 0.88092 0.0
C146 C 0.3821 0.34818 0.73729 0.0
C147 C 0.36157 0.27592 0.79489 0.0
N148 N 0.34906 0.38688 0.84091 0.0
N149 N 0.34764 0.29595 0.83573 0.0
H150 H 0.11606 0.43552 0.13469 0.0
H151 H 0.91773 0.24274 0.1717 0.0
H152 H 0.08751 0.33031 0.00363 0.0
H153 H 0.94238 0.33917 0.33779 0.0
H154 H 0.97913 0.27814 0.10295 0.0
H155 H 0.05233 0.40465 0.20258 0.0
C156 C 0.09636 0.40616 0.11943 0.0
C157 C 0.10721 0.38547 0.06342 0.0
C158 C 0.97147 0.29183 0.15453 0.0
C159 C 0.03474 0.35017 0.14076 0.0
C160 C 0.93612 0.27147 0.19433 0.0
C161 C 0.92468 0.28774 0.26173 0.0
C162 C 0.9963 0.32912 0.1816 0.0
C163 C 0.95006 0.32537 0.28662 0.0
C164 C 0.06015 0.38855 0.15858 0.0
C165 C 0.08067 0.34745 0.04659 0.0
N166 N 0.98484 0.34484 0.24667 0.0
N167 N 0.04595 0.33122 0.08497 0.0
H168 H 0.69801 0.07672 0.27858 0.0
H169 H 0.63274 0.94324 0.71286 0.0
H170 H 0.7508 0.11584 0.53851 0.0
H171 H 0.63986 0.90304 0.44895 0.0
H172 H 0.6593 1.00741 0.65028 0.0
H173 H 0.65947 0.0129 0.34213 0.0
C174 C 0.70103 0.07197 0.34919 0.0
C175 C 0.72781 0.10131 0.4033 0.0
C176 C 0.65449 0.98432 0.60618 0.0
C177 C 0.68361 0.02917 0.47623 0.0
C178 C 0.63926 0.94785 0.64161 0.0
C179 C 0.63452 0.9181 0.58595 0.0
C180 C 0.66395 0.9906 0.51428 0.0
C181 C 0.64352 0.92543 0.49413 0.0
C182 C 0.67922 0.03569 0.38518 0.0
C183 C 0.73074 0.09377 0.4944 0.0
N184 N 0.65776 0.96096 0.46103 0.0
N185 N 0.70888 0.05842 0.52815 0.0
H186 H 0.70333 0.78309 0.72993 0.0
H187 H 0.68322 0.59479 0.9399 0.0
H188 H 0.59829 0.67762 0.7042 0.0
H189 H 0.78873 0.69163 0.8578 0.0
H190 H 0.64914 0.62406 0.87002 0.0
H191 H 0.73282 0.74955 0.79347 0.0
C192 C 0.68645 0.75269 0.73726 0.0
C193 C 0.64829 0.7331 0.71147 0.0
C194 C 0.67974 0.63861 0.86742 0.0
C195 C 0.68208 0.69425 0.78562 0.0
C196 C 0.69918 0.62213 0.90779 0.0
C197 C 0.73892 0.64084 0.90527 0.0
C198 C 0.70037 0.67414 0.82578 0.0
C199 C 0.75815 0.67603 0.86183 0.0
C200 C 0.70338 0.7335 0.77352 0.0
C201 C 0.62791 0.69367 0.72253 0.0
N202 N 0.73876 0.69147 0.82452 0.0
N203 N 0.645 0.67543 0.75969 0.0
H204 H 0.07311 0.68441 0.38082 0.0
H205 H 0.95074 0.62612 0.92638 0.0
H206 H 0.11953 0.7378 0.12517 0.0
H207 H 0.90466 0.6296 0.1853 0.0
H208 H 0.01318 0.65002 -0.00201 0.0
H209 H 1.0109 0.64671 0.30793 0.0
C210 C 0.07029 0.68769 0.30924 0.0
C211 C 0.10116 0.71448 0.259 0.0
C212 C 0.98916 0.64497 0.03897 0.0
C213 C 0.03091 0.6713 0.17554 0.0
C214 C 0.95368 0.63127 -0.00164 0.0
C215 C 0.92285 0.62638 0.05007 0.0
C216 C 0.99329 0.65275 0.13195 0.0
C217 C 0.92798 0.63351 0.14308 0.0
C218 C 0.03494 0.66636 0.26789 0.0
C219 C 0.09617 0.71777 0.1664 0.0
N220 N 0.96254 0.64634 0.18113 0.0
N221 N 0.06168 0.69645 0.12756 0.0
H222 H 0.32799 0.09656 0.52947 0.0
H223 H 0.34208 0.91837 0.37302 0.0
H224 H 0.42659 0.0891 0.6012 0.0
H225 H 0.23769 0.91646 0.43288 0.0
H226 H 0.37739 0.98329 0.43426 0.0
H227 H 0.29849 0.0331 0.46964 0.0
C228 C 0.34356 0.08155 0.53281 0.0
C229 C 0.37988 0.09827 0.57099 0.0
C230 C 0.34676 0.96837 0.43384 0.0
C231 C 0.34582 0.02486 0.50137 0.0
C232 C 0.32666 0.93161 0.39834 0.0
C233 C 0.28688 0.91203 0.39743 0.0
C234 C 0.32677 0.98559 0.46668 0.0
C235 C 0.26827 0.9303 0.43204 0.0
C236 C 0.32653 0.04512 0.49868 0.0
C237 C 0.39842 0.07711 0.57311 0.0
N238 N 0.28832 0.96593 0.46452 0.0
N239 N 0.38122 0.04138 0.5382 0.0
H240 H 0.19412 0.44584 0.69632 0.0
H241 H 0.16814 0.33628 0.25961 0.0
H242 H 0.18891 0.33886 0.74095 0.0
H243 H 0.27256 0.4405 0.30903 0.0
H244 H 0.1551 0.33091 0.42279 0.0
H245 H 0.19944 0.43848 0.5346 0.0
C246 C 0.1932 0.42041 0.67202 0.0
C247 C 0.19147 0.39306 0.73176 0.0
C248 C 0.18103 0.35444 0.39705 0.0
C249 C 0.19714 0.38463 0.54836 0.0
C250 C 0.18852 0.35759 0.30477 0.0
C251 C 0.2214 0.38896 0.27126 0.0
C252 C 0.20617 0.38335 0.45422 0.0
C253 C 0.24695 0.41585 0.33212 0.0
C254 C 0.1964 0.41642 0.58022 0.0
C255 C 0.1906 0.36072 0.6967 0.0
N256 N 0.23839 0.41282 0.42082 0.0
N257 N 0.19366 0.35738 0.60646 0.0
H258 H 0.86086 0.19187 0.07395 0.0
H259 H 0.7704 0.19168 0.5997 0.0
H260 H 0.74371 0.15733 0.02791 0.0
H261 H 0.88681 0.21986 0.62481 0.0
H262 H 0.75913 0.16961 0.75446 0.0
H263 H 0.87022 0.19265 0.90967 0.0
C264 C 0.83692 0.18331 0.02926 0.0
C265 C 0.80157 0.1749 0.06371 0.0
C266 C 0.78721 0.18036 0.72679 0.0
C267 C 0.81198 0.17611 0.87755 0.0
C268 C 0.79364 0.19315 0.63845 0.0
C269 C 0.82971 0.2082 0.60071 0.0
C270 C 0.81733 0.18349 0.77918 0.0
C271 C 0.8587 0.20871 0.65251 0.0
C272 C 0.8423 0.18402 0.93577 0.0
C273 C 0.7715 0.16439 0.00366 0.0
N274 N 0.85208 0.19718 0.74026 0.0
N275 N 0.77749 0.16566 0.9137 0.0
H276 H 0.58682 0.82816 0.38538 0.0
H277 H 0.6772 0.82732 0.91322 0.0
H278 H 0.67562 0.80083 0.36206 0.0
H279 H 0.59438 0.86159 0.95715 0.0
H280 H 0.68625 0.82759 0.07755 0.0
H281 H 0.5979 0.85042 0.23079 0.0
C282 C 0.60877 0.82692 0.34703 0.0
C283 C 0.62985 0.81202 0.38511 0.0
C284 C 0.66682 0.83594 0.05096 0.0
C285 C 0.64248 0.83691 0.20699 0.0
C286 C 0.66188 0.83604 0.95747 0.0
C287 C 0.63471 0.84402 0.92255 0.0
C288 C 0.64445 0.84401 0.10861 0.0
C289 C 0.61524 0.85479 0.9819 0.0
C290 C 0.61529 0.83982 0.25884 0.0
C291 C 0.65857 0.81182 0.33397 0.0
N292 N 0.62021 0.85409 0.07191 0.0
N293 N 0.66362 0.82341 0.2463 0.0
H294 H 0.89061 0.66965 0.69179 0.0
H295 H 0.74465 0.59254 0.27994 0.0
H296 H 0.77328 0.58269 0.70547 0.0
H297 H 0.86419 0.66723 0.24047 0.0
H298 H 0.75374 0.60194 0.44192 0.0
H299 H 0.88099 0.68088 0.5325 0.0
C300 C 0.86284 0.65343 0.66156 0.0
C301 C 0.83283 0.62473 0.71042 0.0
C302 C 0.77808 0.61677 0.39825 0.0
C303 C 0.82152 0.63757 0.53112 0.0
C304 C 0.77279 0.61149 0.30573 0.0
C305 C 0.80376 0.62886 0.2474 0.0
C306 C 0.81481 0.63882 0.4332 0.0
C307 C 0.83963 0.65338 0.28382 0.0
C308 C 0.85735 0.65975 0.57111 0.0
C309 C 0.79732 0.60453 0.66918 0.0
N310 N 0.84439 0.65708 0.37497 0.0
N311 N 0.79274 0.61121 0.58212 0.0
H312 H 0.14794 0.72968 0.63665 0.0
H313 H 0.20551 0.8667 0.06281 0.0
H314 H 0.19464 0.84938 0.59839 0.0
H315 H 0.21339 0.76559 0.04286 0.0
H316 H 0.1843 0.85793 0.90366 0.0
H317 H 0.15047 0.73895 0.79939 0.0
C318 C 0.1577 0.75782 0.66284 0.0
C319 C 0.17137 0.78886 0.60467 0.0
C320 C 0.1906 0.83777 0.93494 0.0
C321 C 0.17554 0.79987 0.79053 0.0
C322 C 0.20272 0.84276 0.02512 0.0
C323 C 0.21183 0.81718 0.0652 0.0
C324 C 0.18648 0.80635 0.8867 0.0
C325 C 0.20743 0.78642 0.01415 0.0
C326 C 0.15943 0.76315 0.75554 0.0
C327 C 0.18375 0.82478 0.64161 0.0
N328 N 0.19496 0.78183 0.92803 0.0
N329 N 0.18632 0.82954 0.7329 0.0
H330 H 0.34884 0.16542 0.38079 0.0
H331 H 0.42852 0.25236 0.89341 0.0
H332 H 0.43689 0.27977 0.3275 0.0
H333 H 0.3563 0.13284 0.93614 0.0
H334 H 0.41933 0.264 0.04972 0.0
H335 H 0.33949 0.15425 0.21708 0.0
C336 C 0.36544 0.18841 0.33467 0.0
C337 C 0.39381 0.22352 0.3673 0.0
C338 C 0.40513 0.23516 0.02533 0.0
C339 C 0.38349 0.21098 0.18136 0.0
C340 C 0.41035 0.22856 0.9361 0.0
C341 C 0.39349 0.19162 0.90289 0.0
C342 C 0.38338 0.20452 0.08277 0.0
C343 C 0.36986 0.16171 0.96 0.0
C344 C 0.36032 0.18194 0.2415 0.0
C345 C 0.41492 0.25222 0.30506 0.0
N346 N 0.36592 0.16875 0.04812 0.0
N347 N 0.40947 0.24524 0.21537 0.0
H348 H 0.1846 0.50253 0.18714 0.0
H349 H 0.29835 0.72761 0.23844 0.0
H350 H 0.30511 0.56864 0.14864 0.0
H351 H 0.17686 0.65838 0.21864 0.0
H352 H 0.30346 0.67056 0.22222 0.0
H353 H 0.18354 0.55987 0.22733 0.0
C354 C 0.21107 0.52908 0.19093 0.0
C355 C 0.24505 0.53101 0.16647 0.0
C356 C 0.27576 0.66803 0.22088 0.0
C357 C 0.24397 0.59703 0.20695 0.0
C358 C 0.27283 0.70059 0.22888 0.0
C359 C 0.23709 0.69779 0.22968 0.0
C360 C 0.24272 0.63256 0.21422 0.0
C361 C 0.20499 0.66195 0.21863 0.0
C362 C 0.21043 0.56191 0.21207 0.0
C363 C 0.27851 0.56612 0.16931 0.0
N364 N 0.20858 0.63084 0.21195 0.0
N365 N 0.27712 0.598 0.18796 0.0
H366 H 0.67969 0.17705 0.49096 0.0
H367 H 0.57319 0.29574 0.52015 0.0
H368 H 0.73733 0.29628 0.43116 0.0
H369 H 0.51771 0.17425 0.49925 0.0
H370 H 0.63443 0.29901 0.49865 0.0
H371 H 0.62146 0.17836 0.51577 0.0
C372 C 0.68022 0.20372 0.48475 0.0
C373 C 0.71335 0.23655 0.45862 0.0
C374 C 0.60874 0.27175 0.49776 0.0
C375 C 0.64634 0.23813 0.48482 0.0
C376 C 0.57374 0.26985 0.50895 0.0
C377 C 0.54019 0.23461 0.51177 0.0
C378 C 0.61006 0.23819 0.49015 0.0
C379 C 0.54276 0.20201 0.49816 0.0
C380 C 0.64685 0.20438 0.49794 0.0
C381 C 0.71244 0.27037 0.45184 0.0
N382 N 0.57701 0.2046 0.48891 0.0
N383 N 0.67927 0.27025 0.46401 0.0
H384 H 0.35024 0.50738 0.84986 0.0
H385 H 0.45314 0.73115 0.77536 0.0
H386 H 0.28997 0.56874 0.85435 0.0
H387 H 0.51035 0.66656 0.78721 0.0
H388 H 0.39266 0.67272 0.798 0.0
H389 H 0.40812 0.56543 0.81044 0.0
C390 C 0.34907 0.53301 0.83928 0.0
C391 C 0.31538 0.53335 0.85363 0.0
C392 C 0.41851 0.67146 0.79628 0.0
C393 C 0.38184 0.60042 0.81332 0.0
C394 C 0.45311 0.70486 0.78464 0.0
C395 C 0.48694 0.7038 0.77968 0.0
C396 C 0.4178 0.63683 0.80291 0.0
C397 C 0.48504 0.66879 0.79052 0.0
C398 C 0.3822 0.56629 0.81827 0.0
C399 C 0.31535 0.56735 0.84172 0.0
N400 N 0.45113 0.63681 0.80115 0.0
N401 N 0.3483 0.59978 0.8233 0.0
H402 H 0.85503 0.3503 0.18899 0.0
H403 H 0.72932 0.44668 0.09807 0.0
H404 H 0.73305 0.2871 0.20161 0.0
H405 H 0.85018 0.50753 0.13943 0.0
H406 H 0.72844 0.38748 0.1329 0.0
H407 H 0.85245 0.40739 0.15845 0.0
C408 C 0.82762 0.34833 0.18397 0.0
C409 C 0.79423 0.31386 0.1982 0.0
C410 C 0.75502 0.4139 0.13549 0.0
C411 C 0.79103 0.37954 0.16489 0.0
C412 C 0.75547 0.44771 0.1168 0.0
C413 C 0.78992 0.48204 0.11563 0.0
C414 C 0.78926 0.41463 0.15257 0.0
C415 C 0.82304 0.48168 0.13896 0.0
C416 C 0.82615 0.38106 0.16737 0.0
C417 C 0.7595 0.31304 0.19058 0.0
N418 N 0.82191 0.44854 0.15553 0.0
N419 N 0.75878 0.34552 0.17504 0.0
H420 H 0.28429 0.71866 0.46991 0.0
H421 H 0.5094 0.84211 0.49992 0.0
H422 H 0.34777 0.84029 0.49019 0.0
H423 H 0.44977 0.72224 0.55266 0.0
H424 H 0.44913 0.83956 0.47746 0.0
H425 H 0.34313 0.71724 0.49221 0.0
C426 C 0.31037 0.74497 0.48144 0.0
C427 C 0.31115 0.77971 0.47791 0.0
C428 C 0.44909 0.81368 0.49326 0.0
C429 C 0.37842 0.77826 0.50039 0.0
C430 C 0.48354 0.81507 0.50506 0.0
C431 C 0.48457 0.78238 0.52847 0.0
C432 C 0.41522 0.77936 0.50504 0.0
C433 C 0.4502 0.74806 0.53403 0.0
C434 C 0.34397 0.74413 0.49298 0.0
C435 C 0.34585 0.8129 0.49186 0.0
N436 N 0.41677 0.74746 0.52323 0.0
N437 N 0.37806 0.81135 0.50147 0.0
H438 H 0.67554 0.50624 0.83236 0.0
H439 H 0.57375 0.2831 0.75705 0.0
H440 H 0.73581 0.4451 0.86036 0.0
H441 H 0.51553 0.34572 0.7954 0.0
H442 H 0.634 0.34095 0.78828 0.0
H443 H 0.61765 0.44702 0.80299 0.0
C444 C 0.6767 0.48034 0.83106 0.0
C445 C 0.71054 0.48063 0.84931 0.0
C446 C 0.60793 0.3418 0.79089 0.0
C447 C 0.64394 0.41233 0.81724 0.0
C448 C 0.57352 0.30873 0.77414 0.0
C449 C 0.53958 0.30965 0.77331 0.0
C450 C 0.60822 0.37585 0.80631 0.0
C451 C 0.54101 0.34376 0.79463 0.0
C452 C 0.64351 0.44643 0.81508 0.0
C453 C 0.71035 0.44617 0.84621 0.0
N454 N 0.57473 0.37547 0.80935 0.0
N455 N 0.67741 0.41327 0.83117 0.0
loop_
_geom_bond_atom_site_label_1
_geom_bond_atom_site_label_2
_geom_bond_distance
_geom_bond_site_symmetry_2
_ccdc_geom_bond_type
Fe0 O2 1.918 1_554 S
Fe0 O5 1.997 . S
Fe0 O6 2.002 . S
Fe0 O11 1.976 . S
Fe0 O14 1.996 1_554 S
Fe1 O2 1.918 1_554 S
Fe1 O9 1.998 . S
Fe1 O12 1.996 1_554 S
Fe1 O16 1.974 1_554 S
Fe1 O19 2.003 . S
O2 Fe0 1.918 1_556 S
O2 Fe1 1.918 1_556 S
O2 Fe3 1.918 . S
Fe3 O2 1.918 . S
Fe3 O4 2.002 1_556 S
Fe3 O13 1.976 . S
Fe3 O17 1.996 . S
Fe3 O20 1.997 . S
O4 Fe3 2.002 1_554 S
O4 C21 1.295 . S
O5 Fe0 1.997 . S
O5 C21 1.235 . S
O6 Fe0 2.002 . S
O6 C7 1.295 . S
C7 O6 1.295 . S
C7 O9 1.235 . S
C8 O13 1.287 . S
C8 O14 1.255 . S
O9 Fe1 1.998 . S
O9 C7 1.235 . S
C10 O16 1.287 . S
C10 O17 1.255 . S
O11 Fe0 1.976 . S
O11 C18 1.287 . S
O12 Fe1 1.996 1_556 S
O12 C18 1.255 1_556 S
O13 Fe3 1.976 . S
O13 C8 1.287 . S
O14 Fe0 1.996 1_556 S
O14 C8 1.255 . S
C15 O19 1.297 . S
C15 O20 1.231 1_554 S
O16 Fe1 1.974 1_556 S
O16 C10 1.287 . S
O17 Fe3 1.996 . S
O17 C10 1.255 . S
C18 O11 1.287 . S
C18 O12 1.255 1_554 S
O19 Fe1 2.003 . S
O19 C15 1.297 . S
O20 Fe3 1.997 . S
O20 C15 1.231 1_556 S
C21 O4 1.295 . S
C21 O5 1.235 . S
Fe22 O24 1.918 . S
Fe22 O27 1.997 . S
Fe22 O28 2.002 . S
Fe22 O33 1.976 . S
Fe22 O36 1.996 . S
Fe23 O24 1.918 . S
Fe23 O31 1.997 . S
Fe23 O34 1.996 . S
Fe23 O38 1.976 . S
Fe23 O41 2.002 . S
O24 Fe22 1.918 . S
O24 Fe23 1.918 . S
O24 Fe25 1.918 . S
Fe25 O24 1.918 . S
Fe25 O26 2.002 . S
Fe25 O35 1.976 . S
Fe25 O39 1.996 . S
Fe25 O42 1.997 . S
O26 Fe25 2.002 . S
O26 C43 1.295 . S
O27 Fe22 1.997 . S
O27 C43 1.235 . S
O28 Fe22 2.002 . S
O28 C29 1.295 . S
C29 O28 1.295 . S
C29 O31 1.235 . S
C30 O35 1.287 . S
C30 O36 1.255 . S
O31 Fe23 1.997 . S
O31 C29 1.235 . S
C32 O38 1.287 . S
C32 O39 1.255 . S
O33 Fe22 1.976 . S
O33 C40 1.287 . S
O34 Fe23 1.996 . S
O34 C40 1.255 . S
O35 Fe25 1.976 . S
O35 C30 1.287 . S
O36 Fe22 1.996 . S
O36 C30 1.255 . S
C37 O41 1.295 . S
C37 O42 1.235 . S
O38 Fe23 1.976 . S
O38 C32 1.287 . S
O39 Fe25 1.996 . S
O39 C32 1.255 . S
C40 O33 1.287 . S
C40 O34 1.255 . S
O41 Fe23 2.002 . S
O41 C37 1.295 . S
O42 Fe25 1.997 . S
O42 C37 1.235 . S
C43 O26 1.295 . S
C43 O27 1.235 . S
Fe44 O46 1.918 . S
Fe44 O49 1.997 . S
Fe44 O50 2.002 . S
Fe44 O55 1.976 . S
Fe44 O58 1.996 . S
Fe45 O46 1.918 . S
Fe45 O53 1.997 . S
Fe45 O56 1.996 . S
Fe45 O60 1.976 . S
Fe45 O63 2.002 . S
O46 Fe44 1.918 . S
O46 Fe45 1.918 . S
O46 Fe47 1.918 . S
Fe47 O46 1.918 . S
Fe47 O48 2.002 . S
Fe47 O57 1.976 . S
Fe47 O61 1.996 . S
Fe47 O64 1.997 . S
O48 Fe47 2.002 . S
O48 C65 1.295 . S
O49 Fe44 1.997 . S
O49 C65 1.235 . S
O50 Fe44 2.002 . S
O50 C51 1.295 . S
C51 O50 1.295 . S
C51 O53 1.235 . S
C52 O57 1.287 . S
C52 O58 1.255 . S
O53 Fe45 1.997 . S
O53 C51 1.235 . S
C54 O60 1.287 . S
C54 O61 1.255 . S
O55 Fe44 1.976 . S
O55 C62 1.287 . S
O56 Fe45 1.996 . S
O56 C62 1.255 . S
O57 Fe47 1.976 . S
O57 C52 1.287 . S
O58 Fe44 1.996 . S
O58 C52 1.255 . S
C59 O63 1.295 . S
C59 O64 1.235 . S
O60 Fe45 1.976 . S
O60 C54 1.287 . S
O61 Fe47 1.996 . S
O61 C54 1.255 . S
C62 O55 1.287 . S
C62 O56 1.255 . S
O63 Fe45 2.002 . S
O63 C59 1.295 . S
O64 Fe47 1.997 . S
O64 C59 1.235 . S
C65 O48 1.295 . S
C65 O49 1.235 . S
Fe66 O68 1.918 . S
Fe66 O71 1.997 . S
Fe66 O72 2.002 1_556 S
Fe66 O77 1.976 . S
Fe66 O80 1.996 . S
Fe67 O68 1.918 1_554 S
Fe67 O75 1.997 . S
Fe67 O78 1.996 1_554 S
Fe67 O82 1.976 . S
Fe67 O85 2.002 . S
O68 Fe66 1.918 . S
O68 Fe67 1.918 1_556 S
O68 Fe69 1.918 1_556 S
Fe69 O68 1.918 1_554 S
Fe69 O70 2.003 . S
Fe69 O79 1.974 1_554 S
Fe69 O83 1.996 1_554 S
Fe69 O86 1.998 . S
O70 Fe69 2.003 . S
O70 C87 1.297 . S
O71 Fe66 1.997 . S
O71 C87 1.231 1_556 S
O72 Fe66 2.002 1_554 S
O72 C73 1.295 . S
C73 O72 1.295 . S
C73 O75 1.235 . S
C74 O79 1.287 . S
C74 O80 1.255 . S
O75 Fe67 1.997 . S
O75 C73 1.235 . S
C76 O82 1.287 . S
C76 O83 1.255 1_554 S
O77 Fe66 1.976 . S
O77 C84 1.287 . S
O78 Fe67 1.996 1_556 S
O78 C84 1.255 . S
O79 Fe69 1.974 1_556 S
O79 C74 1.287 . S
O80 Fe66 1.996 . S
O80 C74 1.255 . S
C81 O85 1.295 . S
C81 O86 1.235 . S
O82 Fe67 1.976 . S
O82 C76 1.287 . S
O83 Fe69 1.996 1_556 S
O83 C76 1.255 1_556 S
C84 O77 1.287 . S
C84 O78 1.255 . S
O85 Fe67 2.002 . S
O85 C81 1.295 . S
O86 Fe69 1.998 . S
O86 C81 1.235 . S
C87 O70 1.297 . S
C87 O71 1.231 1_554 S
Fe88 O90 1.918 . S
Fe88 O93 1.997 . S
Fe88 O94 2.002 . S
Fe88 O99 1.976 . S
Fe88 O102 1.996 . S
Fe89 O90 1.918 . S
Fe89 O97 1.997 . S
Fe89 O100 1.996 . S
Fe89 O104 1.976 . S
Fe89 O107 2.002 . S
O90 Fe88 1.918 . S
O90 Fe89 1.918 . S
O90 Fe91 1.918 . S
Fe91 O90 1.918 . S
Fe91 O92 2.002 . S
Fe91 O101 1.976 . S
Fe91 O105 1.996 . S
Fe91 O108 1.997 . S
O92 Fe91 2.002 . S
O92 C109 1.295 . S
O93 Fe88 1.997 . S
O93 C109 1.235 . S
O94 Fe88 2.002 . S
O94 C95 1.295 . S
C95 O94 1.295 . S
C95 O97 1.235 . S
C96 O101 1.287 . S
C96 O102 1.255 . S
O97 Fe89 1.997 . S
O97 C95 1.235 . S
C98 O104 1.287 . S
C98 O105 1.255 . S
O99 Fe88 1.976 . S
O99 C106 1.287 . S
O100 Fe89 1.996 . S
O100 C106 1.255 . S
O101 Fe91 1.976 . S
O101 C96 1.287 . S
O102 Fe88 1.996 . S
O102 C96 1.255 . S
C103 O107 1.295 . S
C103 O108 1.235 . S
O104 Fe89 1.976 . S
O104 C98 1.287 . S
O105 Fe91 1.996 . S
O105 C98 1.255 . S
C106 O99 1.287 . S
C106 O100 1.255 . S
O107 Fe89 2.002 . S
O107 C103 1.295 . S
O108 Fe91 1.997 . S
O108 C103 1.235 . S
C109 O92 1.295 . S
C109 O93 1.235 . S
Fe110 O112 1.918 . S
Fe110 O115 1.997 . S
Fe110 O116 2.002 . S
Fe110 O121 1.976 . S
Fe110 O124 1.996 . S
Fe111 O112 1.918 . S
Fe111 O119 1.997 . S
Fe111 O122 1.996 . S
Fe111 O126 1.976 . S
Fe111 O129 2.002 . S
O112 Fe110 1.918 . S
O112 Fe111 1.918 . S
O112 Fe113 1.918 . S
Fe113 O112 1.918 . S
Fe113 O114 2.002 . S
Fe113 O123 1.976 . S
Fe113 O127 1.996 . S
Fe113 O130 1.997 . S
O114 Fe113 2.002 . S
O114 C131 1.295 . S
O115 Fe110 1.997 . S
O115 C131 1.235 . S
O116 Fe110 2.002 . S
O116 C117 1.295 . S
C117 O116 1.295 . S
C117 O119 1.235 . S
C118 O123 1.287 . S
C118 O124 1.255 . S
O119 Fe111 1.997 . S
O119 C117 1.235 . S
C120 O126 1.287 . S
C120 O127 1.255 . S
O121 Fe110 1.976 . S
O121 C128 1.287 . S
O122 Fe111 1.996 . S
O122 C128 1.255 . S
O123 Fe113 1.976 . S
O123 C118 1.287 . S
O124 Fe110 1.996 . S
O124 C118 1.255 . S
C125 O129 1.295 . S
C125 O130 1.235 . S
O126 Fe111 1.976 . S
O126 C120 1.287 . S
O127 Fe113 1.996 . S
O127 C120 1.255 . S
C128 O121 1.287 . S
C128 O122 1.255 . S
O129 Fe111 2.002 . S
O129 C125 1.295 . S
O130 Fe113 1.997 . S
O130 C125 1.235 . S
C131 O114 1.295 . S
C131 O115 1.235 . S
H132 C138 0.930 . S
H133 C142 0.930 . S
H134 C147 0.929 . S
H135 C145 0.929 . S
H136 C140 0.929 . S
H137 C146 0.929 . S
C138 H132 0.930 . S
C138 C139 1.367 . S
C138 C146 1.378 . S
C139 C138 1.367 . S
C139 C147 1.433 . S
C140 H136 0.929 . S
C140 C142 1.378 . S
C140 C144 1.350 . S
C141 C144 1.463 . S
C141 C146 1.350 . S
C141 N149 1.427 . S
C142 H133 0.930 . S
C142 C140 1.378 . S
C142 C143 1.367 . S
C143 C142 1.367 . S
C143 C145 1.433 . S
C144 C140 1.350 . S
C144 C141 1.463 . S
C144 N148 1.427 . S
C145 H135 0.929 . S
C145 C143 1.433 . S
C145 N148 1.384 . S
C146 H137 0.929 . S
C146 C138 1.378 . S
C146 C141 1.350 . S
C147 H134 0.929 . S
C147 C139 1.433 . S
C147 N149 1.384 . S
N148 C144 1.427 . S
N148 C145 1.384 . S
N149 C141 1.427 . S
N149 C147 1.384 . S
H150 C156 0.930 . S
H151 C160 0.930 . S
H152 C165 0.929 . S
H153 C163 0.929 . S
H154 C158 0.929 . S
H155 C164 0.929 . S
C156 H150 0.930 . S
C156 C157 1.367 . S
C156 C164 1.378 . S
C157 C156 1.367 . S
C157 C165 1.433 . S
C158 H154 0.929 . S
C158 C160 1.378 . S
C158 C162 1.350 . S
C159 C162 1.463 1_455 S
C159 C164 1.350 . S
C159 N167 1.427 . S
C160 H151 0.930 . S
C160 C158 1.378 . S
C160 C161 1.367 . S
C161 C160 1.367 . S
C161 C163 1.433 . S
C162 C158 1.350 . S
C162 C159 1.463 1_655 S
C162 N166 1.427 . S
C163 H153 0.929 . S
C163 C161 1.433 . S
C163 N166 1.384 . S
C164 H155 0.929 . S
C164 C156 1.378 . S
C164 C159 1.350 . S
C165 H152 0.929 . S
C165 C157 1.433 . S
C165 N167 1.384 . S
N166 C162 1.427 . S
N166 C163 1.384 . S
N167 C159 1.427 . S
N167 C165 1.384 . S
H168 C174 0.930 . S
H169 C178 0.930 . S
H170 C183 0.929 . S
H171 C181 0.929 . S
H172 C176 0.929 1_545 S
H173 C182 0.929 1_565 S
C174 H168 0.930 . S
C174 C175 1.367 . S
C174 C182 1.378 . S
C175 C174 1.367 . S
C175 C183 1.433 . S
C176 H172 0.929 1_565 S
C176 C178 1.378 . S
C176 C180 1.350 . S
C177 C180 1.463 1_545 S
C177 C182 1.350 . S
C177 N185 1.427 . S
C178 H169 0.930 . S
C178 C176 1.378 . S
C178 C179 1.367 . S
C179 C178 1.367 . S
C179 C181 1.433 . S
C180 C176 1.350 . S
C180 C177 1.463 1_565 S
C180 N184 1.427 . S
C181 H171 0.929 . S
C181 C179 1.433 . S
C181 N184 1.384 . S
C182 H173 0.929 1_545 S
C182 C174 1.378 . S
C182 C177 1.350 . S
C183 H170 0.929 . S
C183 C175 1.433 . S
C183 N185 1.384 . S
N184 C180 1.427 . S
N184 C181 1.384 . S
N185 C177 1.427 . S
N185 C183 1.384 . S
H186 C192 0.930 . S
H187 C196 0.930 . S
H188 C201 0.929 . S
H189 C199 0.929 . S
H190 C194 0.929 . S
H191 C200 0.929 . S
C192 H186 0.930 . S
C192 C193 1.367 . S
C192 C200 1.378 . S
C193 C192 1.367 . S
C193 C201 1.433 . S
C194 H190 0.929 . S
C194 C196 1.378 . S
C194 C198 1.350 . S
C195 C198 1.463 . S
C195 C200 1.350 . S
C195 N203 1.427 . S
C196 H187 0.930 . S
C196 C194 1.378 . S
C196 C197 1.367 . S
C197 C196 1.367 . S
C197 C199 1.433 . S
C198 C194 1.350 . S
C198 C195 1.463 . S
C198 N202 1.427 . S
C199 H189 0.929 . S
C199 C197 1.433 . S
C199 N202 1.384 . S
C200 H191 0.929 . S
C200 C192 1.378 . S
C200 C195 1.350 . S
C201 H188 0.929 . S
C201 C193 1.433 . S
C201 N203 1.384 . S
N202 C198 1.427 . S
N202 C199 1.384 . S
N203 C195 1.427 . S
N203 C201 1.384 . S
H204 C210 0.930 . S
H205 C214 0.930 1_556 S
H206 C219 0.929 . S
H207 C217 0.929 . S
H208 C212 0.929 1_455 S
H209 C218 0.929 1_655 S
C210 H204 0.930 . S
C210 C211 1.367 . S
C210 C218 1.378 . S
C211 C210 1.367 . S
C211 C219 1.433 . S
C212 H208 0.929 1_655 S
C212 C214 1.378 . S
C212 C216 1.350 . S
C213 C216 1.463 1_455 S
C213 C218 1.350 . S
C213 N221 1.427 . S
C214 H205 0.930 1_554 S
C214 C212 1.378 . S
C214 C215 1.367 . S
C215 C214 1.367 . S
C215 C217 1.433 . S
C216 C212 1.350 . S
C216 C213 1.463 1_655 S
C216 N220 1.427 . S
C217 H207 0.929 . S
C217 C215 1.433 . S
C217 N220 1.384 . S
C218 H209 0.929 1_455 S
C218 C210 1.378 . S
C218 C213 1.350 . S
C219 H206 0.929 . S
C219 C211 1.433 . S
C219 N221 1.384 . S
N220 C216 1.427 . S
N220 C217 1.384 . S
N221 C213 1.427 . S
N221 C219 1.384 . S
H222 C228 0.930 . S
H223 C232 0.930 . S
H224 C237 0.929 . S
H225 C235 0.929 . S
H226 C230 0.929 . S
H227 C236 0.929 . S
C228 H222 0.930 . S
C228 C229 1.367 . S
C228 C236 1.378 . S
C229 C228 1.367 . S
C229 C237 1.433 . S
C230 H226 0.929 . S
C230 C232 1.378 . S
C230 C234 1.350 . S
C231 C234 1.463 1_545 S
C231 C236 1.350 . S
C231 N239 1.427 . S
C232 H223 0.930 . S
C232 C230 1.378 . S
C232 C233 1.367 . S
C233 C232 1.367 . S
C233 C235 1.433 . S
C234 C230 1.350 . S
C234 C231 1.463 1_565 S
C234 N238 1.427 . S
C235 H225 0.929 . S
C235 C233 1.433 . S
C235 N238 1.384 . S
C236 H227 0.929 . S
C236 C228 1.378 . S
C236 C231 1.350 . S
C237 H224 0.929 . S
C237 C229 1.433 . S
C237 N239 1.384 . S
N238 C234 1.427 . S
N238 C235 1.384 . S
N239 C231 1.427 . S
N239 C237 1.384 . S
H240 C246 0.930 . S
H241 C250 0.930 . S
H242 C255 0.929 . S
H243 C253 0.929 . S
H244 C248 0.929 . S
H245 C254 0.929 . S
C246 H240 0.930 . S
C246 C247 1.367 . S
C246 C254 1.378 . S
C247 C246 1.367 . S
C247 C255 1.433 . S
C248 H244 0.929 . S
C248 C250 1.378 . S
C248 C252 1.350 . S
C249 C252 1.463 . S
C249 C254 1.350 . S
C249 N257 1.427 . S
C250 H241 0.930 . S
C250 C248 1.378 . S
C250 C251 1.367 . S
C251 C250 1.367 . S
C251 C253 1.433 . S
C252 C248 1.350 . S
C252 C249 1.463 . S
C252 N256 1.427 . S
C253 H243 0.929 . S
C253 C251 1.433 . S
C253 N256 1.384 . S
C254 H245 0.929 . S
C254 C246 1.378 . S
C254 C249 1.350 . S
C255 H242 0.929 . S
C255 C247 1.433 . S
C255 N257 1.384 . S
N256 C252 1.427 . S
N256 C253 1.384 . S
N257 C249 1.427 . S
N257 C255 1.384 . S
H258 C264 0.930 . S
H259 C268 0.930 . S
H260 C273 0.929 . S
H261 C271 0.929 . S
H262 C266 0.929 . S
H263 C272 0.929 . S
C264 H258 0.930 . S
C264 C265 1.367 . S
C264 C272 1.378 1_554 S
C265 C264 1.367 . S
C265 C273 1.433 . S
C266 H262 0.929 . S
C266 C268 1.378 . S
C266 C270 1.350 . S
C267 C270 1.463 . S
C267 C272 1.350 . S
C267 N275 1.427 . S
C268 H259 0.930 . S
C268 C266 1.378 . S
C268 C269 1.367 . S
C269 C268 1.367 . S
C269 C271 1.433 . S
C270 C266 1.350 . S
C270 C267 1.463 . S
C270 N274 1.427 . S
C271 H261 0.929 . S
C271 C269 1.433 . S
C271 N274 1.384 . S
C272 H263 0.929 . S
C272 C264 1.378 1_556 S
C272 C267 1.350 . S
C273 H260 0.929 . S
C273 C265 1.433 . S
C273 N275 1.384 1_554 S
N274 C270 1.427 . S
N274 C271 1.384 . S
N275 C267 1.427 . S
N275 C273 1.384 1_556 S
H276 C282 0.930 . S
H277 C286 0.930 . S
H278 C291 0.929 . S
H279 C289 0.929 . S
H280 C284 0.929 . S
H281 C290 0.929 . S
C282 H276 0.930 . S
C282 C283 1.367 . S
C282 C290 1.378 . S
C283 C282 1.367 . S
C283 C291 1.433 . S
C284 H280 0.929 . S
C284 C286 1.378 1_554 S
C284 C288 1.350 . S
C285 C288 1.463 . S
C285 C290 1.350 . S
C285 N293 1.427 . S
C286 H277 0.930 . S
C286 C284 1.378 1_556 S
C286 C287 1.367 . S
C287 C286 1.367 . S
C287 C289 1.433 . S
C288 C284 1.350 . S
C288 C285 1.463 . S
C288 N292 1.427 . S
C289 H279 0.929 . S
C289 C287 1.433 . S
C289 N292 1.384 1_556 S
C290 H281 0.929 . S
C290 C282 1.378 . S
C290 C285 1.350 . S
C291 H278 0.929 . S
C291 C283 1.433 . S
C291 N293 1.384 . S
N292 C288 1.427 . S
N292 C289 1.384 1_554 S
N293 C285 1.427 . S
N293 C291 1.384 . S
H294 C300 0.930 . S
H295 C304 0.930 . S
H296 C309 0.929 . S
H297 C307 0.929 . S
H298 C302 0.929 . S
H299 C308 0.929 . S
C300 H294 0.930 . S
C300 C301 1.367 . S
C300 C308 1.378 . S
C301 C300 1.367 . S
C301 C309 1.433 . S
C302 H298 0.929 . S
C302 C304 1.378 . S
C302 C306 1.350 . S
C303 C306 1.463 . S
C303 C308 1.350 . S
C303 N311 1.427 . S
C304 H295 0.930 . S
C304 C302 1.378 . S
C304 C305 1.367 . S
C305 C304 1.367 . S
C305 C307 1.433 . S
C306 C302 1.350 . S
C306 C303 1.463 . S
C306 N310 1.427 . S
C307 H297 0.929 . S
C307 C305 1.433 . S
C307 N310 1.384 . S
C308 H299 0.929 . S
C308 C300 1.378 . S
C308 C303 1.350 . S
C309 H296 0.929 . S
C309 C301 1.433 . S
C309 N311 1.384 . S
N310 C306 1.427 . S
N310 C307 1.384 . S
N311 C303 1.427 . S
N311 C309 1.384 . S
H312 C318 0.930 . S
H313 C322 0.930 . S
H314 C327 0.929 . S
H315 C325 0.929 . S
H316 C320 0.929 . S
H317 C326 0.929 . S
C318 H312 0.930 . S
C318 C319 1.367 . S
C318 C326 1.378 . S
C319 C318 1.367 . S
C319 C327 1.433 . S
C320 H316 0.929 . S
C320 C322 1.378 1_556 S
C320 C324 1.350 . S
C321 C324 1.463 . S
C321 C326 1.350 . S
C321 N329 1.427 . S
C322 H313 0.930 . S
C322 C320 1.378 1_554 S
C322 C323 1.367 . S
C323 C322 1.367 . S
C323 C325 1.433 . S
C324 C320 1.350 . S
C324 C321 1.463 . S
C324 N328 1.427 . S
C325 H315 0.929 . S
C325 C323 1.433 . S
C325 N328 1.384 1_554 S
C326 H317 0.929 . S
C326 C318 1.378 . S
C326 C321 1.350 . S
C327 H314 0.929 . S
C327 C319 1.433 . S
C327 N329 1.384 . S
N328 C324 1.427 . S
N328 C325 1.384 1_556 S
N329 C321 1.427 . S
N329 C327 1.384 . S
H330 C336 0.930 . S
H331 C340 0.930 . S
H332 C345 0.929 . S
H333 C343 0.929 . S
H334 C338 0.929 . S
H335 C344 0.929 . S
C336 H330 0.930 . S
C336 C337 1.367 . S
C336 C344 1.378 . S
C337 C336 1.367 . S
C337 C345 1.433 . S
C338 H334 0.929 . S
C338 C340 1.378 1_554 S
C338 C342 1.350 . S
C339 C342 1.463 . S
C339 C344 1.350 . S
C339 N347 1.427 . S
C340 H331 0.930 . S
C340 C338 1.378 1_556 S
C340 C341 1.367 . S
C341 C340 1.367 . S
C341 C343 1.433 . S
C342 C338 1.350 . S
C342 C339 1.463 . S
C342 N346 1.427 . S
C343 H333 0.929 . S
C343 C341 1.433 . S
C343 N346 1.384 1_556 S
C344 H335 0.929 . S
C344 C336 1.378 . S
C344 C339 1.350 . S
C345 H332 0.929 . S
C345 C337 1.433 . S
C345 N347 1.384 . S
N346 C342 1.427 . S
N346 C343 1.384 1_554 S
N347 C339 1.427 . S
N347 C345 1.384 . S
H348 C354 0.930 . S
H349 C358 0.930 . S
H350 C363 0.929 . S
H351 C361 0.929 . S
H352 C356 0.929 . S
H353 C362 0.929 . S
C354 H348 0.930 . S
C354 C355 1.367 . S
C354 C362 1.378 . S
C355 C354 1.367 . S
C355 C363 1.433 . S
C356 H352 0.929 . S
C356 C358 1.378 . S
C356 C360 1.350 . S
C357 C360 1.463 . S
C357 C362 1.350 . S
C357 N365 1.427 . S
C358 H349 0.930 . S
C358 C356 1.378 . S
C358 C359 1.367 . S
C359 C358 1.367 . S
C359 C361 1.433 . S
C360 C356 1.350 . S
C360 C357 1.463 . S
C360 N364 1.427 . S
C361 H351 0.929 . S
C361 C359 1.433 . S
C361 N364 1.384 . S
C362 H353 0.929 . S
C362 C354 1.378 . S
C362 C357 1.350 . S
C363 H350 0.929 . S
C363 C355 1.433 . S
C363 N365 1.384 . S
N364 C360 1.427 . S
N364 C361 1.384 . S
N365 C357 1.427 . S
N365 C363 1.384 . S
H366 C372 0.930 . S
H367 C376 0.930 . S
H368 C381 0.929 . S
H369 C379 0.929 . S
H370 C374 0.929 . S
H371 C380 0.929 . S
C372 H366 0.930 . S
C372 C373 1.367 . S
C372 C380 1.378 . S
C373 C372 1.367 . S
C373 C381 1.433 . S
C374 H370 0.929 . S
C374 C376 1.378 . S
C374 C378 1.350 . S
C375 C378 1.463 . S
C375 C380 1.350 . S
C375 N383 1.427 . S
C376 H367 0.930 . S
C376 C374 1.378 . S
C376 C377 1.367 . S
C377 C376 1.367 . S
C377 C379 1.433 . S
C378 C374 1.350 . S
C378 C375 1.463 . S
C378 N382 1.427 . S
C379 H369 0.929 . S
C379 C377 1.433 . S
C379 N382 1.384 . S
C380 H371 0.929 . S
C380 C372 1.378 . S
C380 C375 1.350 . S
C381 H368 0.929 . S
C381 C373 1.433 . S
C381 N383 1.384 . S
N382 C378 1.427 . S
N382 C379 1.384 . S
N383 C375 1.427 . S
N383 C381 1.384 . S
H384 C390 0.930 . S
H385 C394 0.930 . S
H386 C399 0.929 . S
H387 C397 0.929 . S
H388 C392 0.929 . S
H389 C398 0.929 . S
C390 H384 0.930 . S
C390 C391 1.367 . S
C390 C398 1.378 . S
C391 C390 1.367 . S
C391 C399 1.433 . S
C392 H388 0.929 . S
C392 C394 1.378 . S
C392 C396 1.350 . S
C393 C396 1.463 . S
C393 C398 1.350 . S
C393 N401 1.427 . S
C394 H385 0.930 . S
C394 C392 1.378 . S
C394 C395 1.367 . S
C395 C394 1.367 . S
C395 C397 1.433 . S
C396 C392 1.350 . S
C396 C393 1.463 . S
C396 N400 1.427 . S
C397 H387 0.929 . S
C397 C395 1.433 . S
C397 N400 1.384 . S
C398 H389 0.929 . S
C398 C390 1.378 . S
C398 C393 1.350 . S
C399 H386 0.929 . S
C399 C391 1.433 . S
C399 N401 1.384 . S
N400 C396 1.427 . S
N400 C397 1.384 . S
N401 C393 1.427 . S
N401 C399 1.384 . S
H402 C408 0.930 . S
H403 C412 0.930 . S
H404 C417 0.929 . S
H405 C415 0.929 . S
H406 C410 0.929 . S
H407 C416 0.929 . S
C408 H402 0.930 . S
C408 C409 1.367 . S
C408 C416 1.378 . S
C409 C408 1.367 . S
C409 C417 1.433 . S
C410 H406 0.929 . S
C410 C412 1.378 . S
C410 C414 1.350 . S
C411 C414 1.463 . S
C411 C416 1.350 . S
C411 N419 1.427 . S
C412 H403 0.930 . S
C412 C410 1.378 . S
C412 C413 1.367 . S
C413 C412 1.367 . S
C413 C415 1.433 . S
C414 C410 1.350 . S
C414 C411 1.463 . S
C414 N418 1.427 . S
C415 H405 0.929 . S
C415 C413 1.433 . S
C415 N418 1.384 . S
C416 H407 0.929 . S
C416 C408 1.378 . S
C416 C411 1.350 . S
C417 H404 0.929 . S
C417 C409 1.433 . S
C417 N419 1.384 . S
N418 C414 1.427 . S
N418 C415 1.384 . S
N419 C411 1.427 . S
N419 C417 1.384 . S
H420 C426 0.930 . S
H421 C430 0.930 . S
H422 C435 0.929 . S
H423 C433 0.929 . S
H424 C428 0.929 . S
H425 C434 0.929 . S
C426 H420 0.930 . S
C426 C427 1.367 . S
C426 C434 1.378 . S
C427 C426 1.367 . S
C427 C435 1.433 . S
C428 H424 0.929 . S
C428 C430 1.378 . S
C428 C432 1.350 . S
C429 C432 1.463 . S
C429 C434 1.350 . S
C429 N437 1.427 . S
C430 H421 0.930 . S
C430 C428 1.378 . S
C430 C431 1.367 . S
C431 C430 1.367 . S
C431 C433 1.433 . S
C432 C428 1.350 . S
C432 C429 1.463 . S
C432 N436 1.427 . S
C433 H423 0.929 . S
C433 C431 1.433 . S
C433 N436 1.384 . S
C434 H425 0.929 . S
C434 C426 1.378 . S
C434 C429 1.350 . S
C435 H422 0.929 . S
C435 C427 1.433 . S
C435 N437 1.384 . S
N436 C432 1.427 . S
N436 C433 1.384 . S
N437 C429 1.427 . S
N437 C435 1.384 . S
H438 C444 0.930 . S
H439 C448 0.930 . S
H440 C453 0.929 . S
H441 C451 0.929 . S
H442 C446 0.929 . S
H443 C452 0.929 . S
C444 H438 0.930 . S
C444 C445 1.367 . S
C444 C452 1.378 . S
C445 C444 1.367 . S
C445 C453 1.433 . S
C446 H442 0.929 . S
C446 C448 1.378 . S
C446 C450 1.350 . S
C447 C450 1.463 . S
C447 C452 1.350 . S
C447 N455 1.427 . S
C448 H439 0.930 . S
C448 C446 1.378 . S
C448 C449 1.367 . S
C449 C448 1.367 . S
C449 C451 1.433 . S
C450 C446 1.350 . S
C450 C447 1.463 . S
C450 N454 1.427 . S
C451 H441 0.929 . S
C451 C449 1.433 . S
C451 N454 1.384 . S
C452 H443 0.929 . S
C452 C444 1.378 . S
C452 C447 1.350 . S
C453 H440 0.929 . S
C453 C445 1.433 . S
C453 N455 1.384 . S
N454 C450 1.427 . S
N454 C451 1.384 . S
N455 C447 1.427 . S
N455 C453 1.384 . S
C139 C125 1.694 . S
C143 C18 1.668 1_556 S
C157 C15 1.698 . S
C161 C40 1.667 . S
C175 C37 1.696 . S
C179 C54 1.677 . S
C193 C65 1.692 . S
C197 C76 1.676 1_556 S
C211 C98 1.677 . S
C215 C87 1.699 . S
C229 C128 1.671 . S
C233 C109 1.696 . S
C247 C10 0.953 . S
C251 C7 0.977 . S
C265 C32 0.963 . S
C269 C29 0.967 . S
C283 C52 0.959 . S
C287 C59 0.970 . S
C301 C74 0.972 . S
C305 C81 0.964 . S
C319 C103 0.964 . S
C323 C96 0.972 . S
C337 C120 0.968 . S
C341 C117 0.964 . S
C355 C21 1.234 . S
C359 C106 1.249 . S
C373 C43 1.242 . S
C377 C118 1.257 . S
C391 C8 1.257 . S
C395 C51 1.240 . S
C409 C30 1.243 . S
C413 C73 1.224 . S
C427 C95 1.228 . S
C431 C62 1.248 . S
C445 C84 1.257 . S
C449 C131 1.240 . S
