# Generated by pormake.
# Topology yfl, (5)-cn, num edge types: 1
# Building blocks:
#     Node 0, Type 0, BuildingBlock: XOMCOT_clean_sbu_1, # of connection points: 5
#     Node 1, Type 0, BuildingBlock: XOMCOT_clean_sbu_1, # of connection points: 5
#     Node 2, Type 0, BuildingBlock: XOMCOT_clean_sbu_1, # of connection points: 5
#     Node 3, Type 0, BuildingBlock: XOMCOT_clean_sbu_1, # of connection points: 5
#     Node 4, Type 0, BuildingBlock: XOMCOT_clean_sbu_1, # of connection points: 5
#     Node 5, Type 0, BuildingBlock: XOMCOT_clean_sbu_1, # of connection points: 5
#     Node 6, Type 0, BuildingBlock: XOMCOT_clean_sbu_1, # of connection points: 5
#     Node 7, Type 0, BuildingBlock: XOMCOT_clean_sbu_1, # of connection points: 5
#     Node 8, Type 0, BuildingBlock: XOMCOT_clean_sbu_1, # of connection points: 5
#     Node 9, Type 0, BuildingBlock: XOMCOT_clean_sbu_1, # of connection points: 5
#     Node 10, Type 0, BuildingBlock: XOMCOT_clean_sbu_1, # of connection points: 5
#     Node 11, Type 0, BuildingBlock: XOMCOT_clean_sbu_1, # of connection points: 5
#     Node 12, Type 0, BuildingBlock: XOMCOT_clean_sbu_1, # of connection points: 5
#     Node 13, Type 0, BuildingBlock: XOMCOT_clean_sbu_1, # of connection points: 5
#     Node 14, Type 0, BuildingBlock: XOMCOT_clean_sbu_1, # of connection points: 5
#     Node 15, Type 0, BuildingBlock: XOMCOT_clean_sbu_1, # of connection points: 5
#     Edge 16, Type (0, 0), BuildingBlock: ZUJKAS_clean_linker_0, # of connection points: 2
#     Edge 17, Type (0, 0), BuildingBlock: ZUJKAS_clean_linker_0, # of connection points: 2
#     Edge 18, Type (0, 0), BuildingBlock: ZUJKAS_clean_linker_0, # of connection points: 2
#     Edge 19, Type (0, 0), BuildingBlock: ZUJKAS_clean_linker_0, # of connection points: 2
#     Edge 20, Type (0, 0), BuildingBlock: ZUJKAS_clean_linker_0, # of connection points: 2
#     Edge 21, Type (0, 0), BuildingBlock: ZUJKAS_clean_linker_0, # of connection points: 2
#     Edge 22, Type (0, 0), BuildingBlock: ZUJKAS_clean_linker_0, # of connection points: 2
#     Edge 23, Type (0, 0), BuildingBlock: ZUJKAS_clean_linker_0, # of connection points: 2
#     Edge 24, Type (0, 0), BuildingBlock: ZUJKAS_clean_linker_0, # of connection points: 2
#     Edge 25, Type (0, 0), BuildingBlock: ZUJKAS_clean_linker_0, # of connection points: 2
#     Edge 26, Type (0, 0), BuildingBlock: ZUJKAS_clean_linker_0, # of connection points: 2
#     Edge 27, Type (0, 0), BuildingBlock: ZUJKAS_clean_linker_0, # of connection points: 2
#     Edge 28, Type (0, 0), BuildingBlock: ZUJKAS_clean_linker_0, # of connection points: 2
#     Edge 29, Type (0, 0), BuildingBlock: ZUJKAS_clean_linker_0, # of connection points: 2
#     Edge 30, Type (0, 0), BuildingBlock: ZUJKAS_clean_linker_0, # of connection points: 2
#     Edge 31, Type (0, 0), BuildingBlock: ZUJKAS_clean_linker_0, # of connection points: 2
#     Edge 32, Type (0, 0), BuildingBlock: ZUJKAS_clean_linker_0, # of connection points: 2
#     Edge 33, Type (0, 0), BuildingBlock: ZUJKAS_clean_linker_0, # of connection points: 2
#     Edge 34, Type (0, 0), BuildingBlock: ZUJKAS_clean_linker_0, # of connection points: 2
#     Edge 35, Type (0, 0), BuildingBlock: ZUJKAS_clean_linker_0, # of connection points: 2
#     Edge 36, Type (0, 0), BuildingBlock: ZUJKAS_clean_linker_0, # of connection points: 2
#     Edge 37, Type (0, 0), BuildingBlock: ZUJKAS_clean_linker_0, # of connection points: 2
#     Edge 38, Type (0, 0), BuildingBlock: ZUJKAS_clean_linker_0, # of connection points: 2
#     Edge 39, Type (0, 0), BuildingBlock: ZUJKAS_clean_linker_0, # of connection points: 2
#     Edge 40, Type (0, 0), BuildingBlock: ZUJKAS_clean_linker_0, # of connection points: 2
#     Edge 41, Type (0, 0), BuildingBlock: ZUJKAS_clean_linker_0, # of connection points: 2
#     Edge 42, Type (0, 0), BuildingBlock: ZUJKAS_clean_linker_0, # of connection points: 2
#     Edge 43, Type (0, 0), BuildingBlock: ZUJKAS_clean_linker_0, # of connection points: 2
#     Edge 44, Type (0, 0), BuildingBlock: ZUJKAS_clean_linker_0, # of connection points: 2
#     Edge 45, Type (0, 0), BuildingBlock: ZUJKAS_clean_linker_0, # of connection points: 2
#     Edge 46, Type (0, 0), BuildingBlock: ZUJKAS_clean_linker_0, # of connection points: 2
#     Edge 47, Type (0, 0), BuildingBlock: ZUJKAS_clean_linker_0, # of connection points: 2
#     Edge 48, Type (0, 0), BuildingBlock: ZUJKAS_clean_linker_0, # of connection points: 2
#     Edge 49, Type (0, 0), BuildingBlock: ZUJKAS_clean_linker_0, # of connection points: 2
#     Edge 50, Type (0, 0), BuildingBlock: ZUJKAS_clean_linker_0, # of connection points: 2
#     Edge 51, Type (0, 0), BuildingBlock: ZUJKAS_clean_linker_0, # of connection points: 2
#     Edge 52, Type (0, 0), BuildingBlock: ZUJKAS_clean_linker_0, # of connection points: 2
#     Edge 53, Type (0, 0), BuildingBlock: ZUJKAS_clean_linker_0, # of connection points: 2
#     Edge 54, Type (0, 0), BuildingBlock: ZUJKAS_clean_linker_0, # of connection points: 2
#     Edge 55, Type (0, 0), BuildingBlock: ZUJKAS_clean_linker_0, # of connection points: 2
# Relax obj value: 0.500
# Max RMSD: 0.265
# Mean RMSD: 0.265
data_MOF--net-yfl--node1-XOMCOT_clean_sbu_1--edge1-ZUJKAS_clean_linker_0
_symmetry_space_group_name_H-M    P1
_symmetry_Int_Tables_number       1
_symmetry_cell_setting            triclinic
loop_
_symmetry_equiv_pos_as_xyz
'x, y, z'
_cell_length_a     36.21366
_cell_length_b     36.207341
_cell_length_c     131.16996
_cell_angle_alpha  89.95019
_cell_angle_beta   90.046316
_cell_angle_gamma 90.134178
loop_
_atom_site_label
_atom_site_type_symbol
_atom_site_fract_x
_atom_site_fract_y
_atom_site_fract_z
_atom_type_partial_charge
C0 C 0.01741 0.21564 0.30083 0.0
C1 C 0.99198 0.22172 0.29323 0.0
N2 N 0.99301 0.25777 0.29081 0.0
N3 N 0.03398 0.24787 0.30333 0.0
C4 C 0.01851 0.27295 0.29701 0.0
H5 H 0.0245 0.18892 0.30385 0.0
Co6 Co 0.0739 0.25546 0.31217 0.0
C7 C 0.02326 0.31702 0.31867 0.0
O8 O 0.99397 0.29558 0.31899 0.0
N9 N 0.11423 0.26343 0.32088 0.0
C10 C 0.15977 0.29158 0.32924 0.0
C11 C 0.13225 0.29583 0.32215 0.0
C12 C 0.13156 0.23987 0.3273 0.0
N13 N 0.15917 0.25636 0.3325 0.0
O14 O 0.04757 0.22991 0.32293 0.0
H15 H 0.12553 0.32131 0.31831 0.0
H16 H 0.1243 0.21118 0.32824 0.0
O17 O 0.05454 0.30342 0.31628 0.0
C18 C 0.05576 0.19563 0.32253 0.0
O19 O 0.07953 0.18453 0.31563 0.0
N20 N 0.10037 0.27649 0.3014 0.0
C21 C 0.1371 0.29646 0.28355 0.0
C22 C 0.11967 0.32327 0.28959 0.0
C23 C 0.10134 0.31273 0.2985 0.0
C24 C 0.11796 0.25027 0.2958 0.0
C25 C 0.13646 0.25959 0.28684 0.0
H26 H 0.08741 0.33373 0.30286 0.0
H27 H 0.1166 0.22169 0.29818 0.0
H28 H 0.02643 0.30175 0.29675 0.0
H29 H 0.97569 0.20091 0.28935 0.0
H30 H 0.17787 0.3131 0.33207 0.0
H31 H 0.11995 0.35214 0.28743 0.0
H32 H 0.14909 0.23789 0.28237 0.0
C33 C 0.2506 0.8653 0.70633 0.0
C34 C 0.242 0.8891 0.71412 0.0
N35 N 0.24178 0.92365 0.71034 0.0
N36 N 0.25662 0.88478 0.6977 0.0
C37 C 0.24985 0.92018 0.70036 0.0
H38 H 0.25192 0.83557 0.70695 0.0
Co39 Co 0.26447 0.8651 0.68463 0.0
C40 C 0.33052 0.91873 0.68653 0.0
O41 O 0.32237 0.93056 0.6957 0.0
N42 N 0.27083 0.84522 0.67176 0.0
C43 C 0.29468 0.82333 0.65742 0.0
C44 C 0.30243 0.83449 0.66722 0.0
C45 C 0.24429 0.83968 0.66473 0.0
N46 N 0.25805 0.82677 0.65589 0.0
O47 O 0.23224 0.90209 0.67895 0.0
H48 H 0.32937 0.83494 0.67078 0.0
H49 H 0.21549 0.84598 0.66594 0.0
O50 O 0.30945 0.8952 0.68211 0.0
C51 C 0.19904 0.89337 0.6812 0.0
O52 O 0.19334 0.86347 0.68668 0.0
N53 N 0.29266 0.82687 0.69022 0.0
C54 C 0.32088 0.76787 0.70138 0.0
C55 C 0.33871 0.80234 0.70141 0.0
C56 C 0.32409 0.83155 0.69581 0.0
C57 C 0.2761 0.79309 0.68962 0.0
C58 C 0.28984 0.7631 0.69512 0.0
H59 H 0.33657 0.85828 0.69668 0.0
H60 H 0.25082 0.78997 0.68531 0.0
H61 H 0.25103 0.94309 0.69506 0.0
H62 H 0.23723 0.88165 0.72201 0.0
H63 H 0.31443 0.81344 0.65187 0.0
H64 H 0.36219 0.80764 0.70632 0.0
H65 H 0.27534 0.73693 0.69482 0.0
C66 C 0.03092 0.82196 0.2945 0.0
C67 C 0.06344 0.81575 0.28939 0.0
N68 N 0.07173 0.77957 0.29016 0.0
N69 N 0.0188 0.78994 0.29856 0.0
C70 C 0.04438 0.76478 0.29584 0.0
H71 H 0.01629 0.84789 0.29478 0.0
Co72 Co 0.9738 0.78188 0.30505 0.0
C73 C 0.99191 0.71589 0.31772 0.0
O74 O 0.98644 0.73478 0.32613 0.0
N75 N 0.92852 0.77332 0.31146 0.0
C76 C 0.87642 0.74541 0.31606 0.0
C77 C 0.90785 0.74248 0.31031 0.0
C78 C 0.90903 0.79457 0.31797 0.0
N79 N 0.87727 0.77819 0.32088 0.0
O80 O 0.99358 0.80448 0.31722 0.0
H81 H 0.91543 0.71898 0.30569 0.0
H82 H 0.91772 0.82146 0.32059 0.0
O83 O 0.98891 0.73198 0.30909 0.0
C84 C 0.98729 0.83906 0.31638 0.0
O85 O 0.96785 0.85077 0.30857 0.0
N86 N 0.95402 0.76448 0.29284 0.0
C87 C 0.91894 0.74669 0.27459 0.0
C88 C 0.94582 0.72317 0.27875 0.0
C89 C 0.96322 0.73267 0.2879 0.0
C90 C 0.92884 0.78814 0.28876 0.0
C91 C 0.91075 0.77968 0.27968 0.0
H92 H 0.98397 0.71448 0.29094 0.0
H93 H 0.92256 0.81364 0.29267 0.0
H94 H 0.0417 0.73561 0.29739 0.0
H95 H 0.07878 0.8361 0.28507 0.0
H96 H 0.85528 0.72447 0.31694 0.0
H97 H 0.95295 0.6974 0.27507 0.0
H98 H 0.89073 0.79895 0.27663 0.0
C99 C 0.81796 1.00263 0.68602 0.0
C100 C 0.81603 0.98234 0.69486 0.0
N101 N 0.78127 0.96947 0.69585 0.0
N102 N 0.78466 1.00241 0.68144 0.0
C103 C 0.76287 0.98201 0.68759 0.0
H104 H 0.84197 0.01718 0.68319 0.0
Co105 Co 0.77394 0.02821 0.66968 0.0
C106 C 0.70352 0.99753 0.66097 0.0
O107 O 0.69757 0.02967 0.65665 0.0
N108 N 0.76505 0.05499 0.65765 0.0
C109 C 0.7598 0.06902 0.64119 0.0
C110 C 0.76674 0.04127 0.64807 0.0
C111 C 0.75832 0.09137 0.65636 0.0
N112 N 0.75464 0.10041 0.64645 0.0
O113 O 0.81017 0.99887 0.66263 0.0
H114 H 0.77206 0.01268 0.6462 0.0
H115 H 0.75585 0.11105 0.6625 0.0
O116 O 0.73288 0.9927 0.66635 0.0
C117 C 0.83941 0.0178 0.66101 0.0
O118 O 0.83913 0.05316 0.66328 0.0
N119 N 0.74219 0.05869 0.67735 0.0
C120 C 0.70917 0.10111 0.69259 0.0
C121 C 0.69017 0.07161 0.68808 0.0
C122 C 0.70727 0.05043 0.6806 0.0
C123 C 0.76074 0.08789 0.68149 0.0
C124 C 0.74461 0.1098 0.68903 0.0
H125 H 0.69295 0.02611 0.67815 0.0
H126 H 0.78897 0.0932 0.6792 0.0
H127 H 0.73377 0.9777 0.68625 0.0
H128 H 0.83847 0.97768 0.70015 0.0
H129 H 0.75913 0.0665 0.63296 0.0
H130 H 0.66276 0.06389 0.69064 0.0
H131 H 0.7605 0.13199 0.69243 0.0
C132 C 0.05281 0.28314 0.94717 0.0
C133 C 0.0264 0.29617 0.95372 0.0
N134 N 0.99303 0.2896 0.94957 0.0
N135 N 0.03632 0.2676 0.93901 0.0
C136 C 0.99986 0.2733 0.94051 0.0
H137 H 0.08232 0.28411 0.9484 0.0
Co138 Co 0.0636 0.24769 0.92829 0.0
C139 C 1.00095 0.18757 0.92873 0.0
O140 O 0.98188 0.19898 0.93661 0.0
N141 N 0.09199 0.22919 0.91765 0.0
C142 C 0.124 0.19125 0.90776 0.0
C143 C 0.09935 0.19338 0.91568 0.0
C144 C 0.11276 0.24828 0.91092 0.0
N145 N 0.13249 0.22588 0.9048 0.0
O146 O 0.0378 0.27986 0.91904 0.0
H147 H 0.08878 0.17029 0.92002 0.0
H148 H 0.11486 0.27803 0.91082 0.0
O149 O 0.02938 0.20577 0.92579 0.0
C150 C 0.0541 0.31116 0.91939 0.0
O151 O 0.0835 0.31439 0.92522 0.0
N152 N 0.09066 0.21906 0.9376 0.0
C153 C 0.13281 0.18732 0.95304 0.0
C154 C 0.09498 0.17975 0.95224 0.0
C155 C 0.07435 0.19607 0.94451 0.0
C156 C 0.12762 0.22621 0.93813 0.0
C157 C 0.14938 0.21025 0.94574 0.0
H158 H 0.04498 0.19191 0.94454 0.0
H159 H 0.14004 0.24554 0.93285 0.0
H160 H 0.97862 0.26564 0.93511 0.0
H161 H 0.03128 0.30747 0.96124 0.0
H162 H 0.13526 0.16614 0.90457 0.0
H163 H 0.08118 0.16218 0.95775 0.0
H164 H 0.17844 0.21718 0.94619 0.0
C165 C 0.3143 0.97296 0.04956 0.0
C166 C 0.32124 0.99724 0.04172 0.0
N167 N 0.29082 0.01793 0.04024 0.0
N168 N 0.27973 0.97838 0.05304 0.0
C169 C 0.26627 0.00614 0.04728 0.0
H170 H 0.33275 0.95161 0.05221 0.0
Co171 Co 0.25589 0.94887 0.06256 0.0
C172 C 0.19942 0.9965 0.07192 0.0
O173 O 0.21468 0.99039 0.08086 0.0
N174 N 0.23159 0.91846 0.07208 0.0
C175 C 0.18714 0.88657 0.07988 0.0
C176 C 0.19552 0.90876 0.0717 0.0
C177 C 0.24449 0.90159 0.08054 0.0
N178 N 0.21808 0.88205 0.08541 0.0
O179 O 0.28505 0.97241 0.07303 0.0
H180 H 0.1763 0.9175 0.06587 0.0
H181 H 0.27247 0.90393 0.08328 0.0
O182 O 0.21523 0.98427 0.06391 0.0
C183 C 0.31481 0.95412 0.07437 0.0
O184 O 0.31803 0.92189 0.06985 0.0
N185 N 0.23163 0.92447 0.05196 0.0
C186 C 0.2083 0.88608 0.03475 0.0
C187 C 0.19315 0.9206 0.03714 0.0
C188 C 0.20521 0.93943 0.0458 0.0
C189 C 0.24596 0.89055 0.04992 0.0
C190 C 0.23448 0.87067 0.04137 0.0
H191 H 0.19418 0.96648 0.04725 0.0
H192 H 0.26735 0.87945 0.05479 0.0
H193 H 0.23813 0.01584 0.04777 0.0
H194 H 0.34625 0.99848 0.03723 0.0
H195 H 0.16051 0.87435 0.08154 0.0
H196 H 0.17261 0.93326 0.03226 0.0
H197 H 0.24709 0.84423 0.03974 0.0
C198 C 0.01259 0.68114 0.94041 0.0
C199 C 0.04413 0.67965 0.94625 0.0
N200 N 0.05722 0.71429 0.94737 0.0
N201 N 0.00584 0.71654 0.93783 0.0
C202 C 0.03375 0.73592 0.94206 0.0
H203 H 0.99466 0.65807 0.9387 0.0
Co204 Co 0.96334 0.73503 0.93175 0.0
C205 C 0.98961 0.79425 0.91825 0.0
O206 O 0.97407 0.77693 0.91055 0.0
N207 N 0.92005 0.75442 0.92574 0.0
C208 C 0.87591 0.79467 0.9217 0.0
C209 C 0.9071 0.78896 0.92739 0.0
C210 C 0.89607 0.73986 0.91892 0.0
N211 N 0.86909 0.76377 0.91636 0.0
O212 O 0.97506 0.70717 0.91966 0.0
H213 H 0.92018 0.80951 0.93214 0.0
H214 H 0.89827 0.71257 0.91571 0.0
O215 O 0.98993 0.77892 0.92702 0.0
C216 C 0.95809 0.67627 0.92026 0.0
O217 O 0.93486 0.67114 0.92783 0.0
N218 N 0.9508 0.7578 0.944 0.0
C219 C 0.92219 0.78486 0.96218 0.0
C220 C 0.9498 0.80442 0.95694 0.0
C221 C 0.96389 0.79035 0.94784 0.0
C222 C 0.92517 0.73774 0.94919 0.0
C223 C 0.91037 0.75077 0.95829 0.0
H224 H 0.98435 0.80624 0.9438 0.0
H225 H 0.9156 0.71175 0.94609 0.0
H226 H 0.03521 0.76572 0.94195 0.0
H227 H 0.05533 0.65519 0.94984 0.0
H228 H 0.86047 0.82017 0.92116 0.0
H229 H 0.95948 0.831 0.95964 0.0
H230 H 0.88956 0.73452 0.96219 0.0
C231 C 0.70123 0.05349 0.03942 0.0
C232 C 0.70234 0.0256 0.03232 0.0
N233 N 0.73117 1.00353 0.03454 0.0
N234 N 0.72922 0.049 0.04608 0.0
C235 C 0.7467 0.01816 0.04297 0.0
H236 H 0.68232 0.07655 0.03944 0.0
Co237 Co 0.74272 0.08226 0.05619 0.0
C238 C 0.80357 0.04479 0.06724 0.0
O239 O 0.78509 0.04771 0.07582 0.0
N240 N 0.75679 0.11591 0.06636 0.0
C241 C 0.79215 0.15341 0.07556 0.0
C242 C 0.78907 0.1347 0.06654 0.0
C243 C 0.74077 0.12371 0.07541 0.0
N244 N 0.76192 0.14619 0.08119 0.0
O245 O 0.71388 0.0539 0.06581 0.0
H246 H 0.80993 0.13375 0.06066 0.0
H247 H 0.71507 0.1117 0.07797 0.0
O248 O 0.78858 0.05537 0.05893 0.0
C249 C 0.68113 0.06644 0.06467 0.0
O250 O 0.67653 0.09573 0.05889 0.0
N251 N 0.76627 0.11089 0.04629 0.0
C252 C 0.7905 0.15448 0.03013 0.0
C253 C 0.80701 0.1202 0.03214 0.0
C254 C 0.7944 0.0987 0.04026 0.0
C255 C 0.74993 0.1441 0.04447 0.0
C256 C 0.76193 0.16661 0.03649 0.0
H257 H 0.80635 0.07177 0.04144 0.0
H258 H 0.72689 0.15277 0.04913 0.0
H259 H 0.77193 0.00803 0.04637 0.0
H260 H 0.6842 0.0227 0.02581 0.0
H261 H 0.81526 0.17051 0.07784 0.0
H262 H 0.82919 0.10991 0.0274 0.0
H263 H 0.74814 0.19264 0.0351 0.0
C264 C 0.54759 0.67333 0.7961 0.0
C265 C 0.52221 0.65905 0.7894 0.0
N266 N 0.49299 0.68194 0.78912 0.0
N267 N 0.53438 0.70495 0.80007 0.0
C268 C 0.50098 0.70954 0.79569 0.0
H269 H 0.57444 0.66189 0.7978 0.0
Co270 Co 0.56063 0.73279 0.80937 0.0
C271 C 0.50939 0.78711 0.81802 0.0
O272 O 0.51519 0.77269 0.82708 0.0
N273 N 0.58818 0.76059 0.81878 0.0
C274 C 0.61775 0.80715 0.8263 0.0
C275 C 0.59586 0.7971 0.8182 0.0
C276 C 0.60572 0.74919 0.82729 0.0
N277 N 0.62401 0.77684 0.83199 0.0
O278 O 0.53887 0.70306 0.81998 0.0
H279 H 0.58639 0.81529 0.8122 0.0
H280 H 0.60503 0.72124 0.8301 0.0
O281 O 0.52202 0.77054 0.81017 0.0
C282 C 0.55833 0.67422 0.82154 0.0
O283 O 0.59104 0.67215 0.81725 0.0
N284 N 0.58291 0.75827 0.79864 0.0
C285 C 0.61901 0.78932 0.78198 0.0
C286 C 0.58092 0.79411 0.78329 0.0
C287 C 0.56332 0.77813 0.79164 0.0
C288 C 0.61992 0.7531 0.79748 0.0
C289 C 0.63867 0.76875 0.78923 0.0
H290 H 0.53377 0.7809 0.79227 0.0
H291 H 0.63482 0.73632 0.80292 0.0
H292 H 0.4832 0.73294 0.79711 0.0
H293 H 0.52578 0.63472 0.78472 0.0
H294 H 0.62891 0.83441 0.82772 0.0
H295 H 0.56475 0.80987 0.77788 0.0
H296 H 0.66802 0.76393 0.7884 0.0
C297 C 0.73539 0.51408 0.1859 0.0
C298 C 0.73113 0.54493 0.19188 0.0
N299 N 0.76101 0.56658 0.19061 0.0
N300 N 0.76848 0.51531 0.18117 0.0
C301 C 0.78214 0.54885 0.18371 0.0
H302 H 0.71571 0.49174 0.18519 0.0
Co303 Co 0.78565 0.47753 0.17254 0.0
C304 C 0.85849 0.5153 0.176 0.0
O305 O 0.85241 0.51427 0.18588 0.0
N306 N 0.8005 0.44027 0.16385 0.0
C307 C 0.82341 0.40764 0.15106 0.0
C308 C 0.82291 0.44177 0.15566 0.0
C309 C 0.78759 0.40537 0.16408 0.0
N310 N 0.80095 0.38494 0.15635 0.0
O311 O 0.76078 0.50205 0.16151 0.0
H312 H 0.83651 0.4664 0.15291 0.0
H313 H 0.76772 0.39556 0.16962 0.0
O314 O 0.83339 0.50373 0.16983 0.0
C315 C 0.73032 0.48518 0.15989 0.0
O316 O 0.72316 0.45511 0.16514 0.0
N317 N 0.80664 0.451 0.18356 0.0
C318 C 0.83344 0.41227 0.20043 0.0
C319 C 0.85625 0.41926 0.19199 0.0
C320 C 0.84194 0.4376 0.1835 0.0
C321 C 0.78327 0.44103 0.19122 0.0
C322 C 0.79612 0.42218 0.19977 0.0
H323 H 0.85959 0.44179 0.17696 0.0
H324 H 0.75426 0.44693 0.1907 0.0
H325 H 0.80681 0.56076 0.18051 0.0
H326 H 0.70865 0.55 0.19712 0.0
H327 H 0.83729 0.40073 0.14401 0.0
H328 H 0.88506 0.41138 0.19198 0.0
H329 H 0.77678 0.41523 0.20577 0.0
C330 C 0.47158 0.28618 0.78377 0.0
C331 C 0.4968 0.28689 0.77596 0.0
N332 N 0.52024 0.25844 0.77723 0.0
N333 N 0.47919 0.2576 0.79001 0.0
C334 C 0.50914 0.24131 0.78586 0.0
H335 H 0.44795 0.30415 0.78453 0.0
Co336 Co 0.44932 0.2431 0.80082 0.0
C337 C 0.4921 0.18475 0.8114 0.0
O338 O 0.49073 0.20389 0.8199 0.0
N339 N 0.41876 0.22866 0.81157 0.0
C340 C 0.38481 0.1939 0.82193 0.0
C341 C 0.40635 0.19401 0.81334 0.0
C342 C 0.40374 0.24926 0.81906 0.0
N343 N 0.38325 0.22867 0.8255 0.0
O344 O 0.4787 0.2732 0.80986 0.0
H345 H 0.41255 0.17026 0.80865 0.0
H346 H 0.40787 0.27866 0.81988 0.0
O347 O 0.47919 0.19883 0.80322 0.0
C348 C 0.46678 0.30633 0.8094 0.0
O349 O 0.43742 0.31328 0.80385 0.0
N350 N 0.41943 0.21711 0.79172 0.0
C351 C 0.3715 0.18391 0.77789 0.0
C352 C 0.40808 0.17169 0.77883 0.0
C353 C 0.4317 0.18877 0.78578 0.0
C354 C 0.38423 0.22988 0.79077 0.0
C355 C 0.35957 0.21335 0.78397 0.0
H356 H 0.45993 0.17951 0.78623 0.0
H357 H 0.37529 0.25307 0.79533 0.0
H358 H 0.5216 0.21643 0.78884 0.0
H359 H 0.49628 0.30536 0.76947 0.0
H360 H 0.37081 0.17022 0.82518 0.0
H361 H 0.41831 0.14894 0.77429 0.0
H362 H 0.33169 0.22387 0.78336 0.0
C363 C 0.34665 0.48157 0.18765 0.0
C364 C 0.33897 0.44954 0.19292 0.0
N365 N 0.30237 0.44834 0.19485 0.0
N366 N 0.31504 0.50039 0.18624 0.0
C367 C 0.28857 0.47913 0.19048 0.0
H368 H 0.37385 0.49192 0.18578 0.0
Co369 Co 0.30992 0.54958 0.18256 0.0
C370 C 0.24999 0.52733 0.1675 0.0
O371 O 0.27216 0.52134 0.15976 0.0
N372 N 0.30476 0.59891 0.17901 0.0
C373 C 0.30609 0.66013 0.17957 0.0
C374 C 0.31414 0.62822 0.1848 0.0
C375 C 0.29159 0.61346 0.17028 0.0
N376 N 0.29193 0.65071 0.17044 0.0
O377 O 0.33856 0.54103 0.17043 0.0
H378 H 0.32617 0.62642 0.19233 0.0
H379 H 0.28178 0.59707 0.16395 0.0
O380 O 0.26315 0.5379 0.17603 0.0
C381 C 0.37049 0.55504 0.17196 0.0
O382 O 0.37701 0.57099 0.18078 0.0
N383 N 0.28542 0.559 0.19479 0.0
C384 C 0.25642 0.57749 0.2137 0.0
C385 C 0.23493 0.58093 0.20486 0.0
C386 C 0.25017 0.57206 0.19542 0.0
C387 C 0.30663 0.5553 0.20331 0.0
C388 C 0.29264 0.56437 0.21288 0.0
H389 H 0.23417 0.5772 0.18862 0.0
H390 H 0.33488 0.546 0.20263 0.0
H391 H 0.26011 0.48784 0.19105 0.0
H392 H 0.3593 0.43053 0.19591 0.0
H393 H 0.31094 0.68803 0.18222 0.0
H394 H 0.2072 0.59203 0.20518 0.0
H395 H 0.3101 0.56171 0.21955 0.0
C396 C 0.53872 0.77563 0.44318 0.0
C397 C 0.50889 0.78776 0.44866 0.0
N398 N 0.47903 0.78748 0.44252 0.0
N399 N 0.52771 0.76666 0.43367 0.0
C400 C 0.4916 0.77583 0.43339 0.0
H401 H 0.56657 0.77292 0.44605 0.0
Co402 Co 0.55819 0.74993 0.42315 0.0
C403 C 0.49739 0.68929 0.42261 0.0
O404 O 0.47583 0.70327 0.42963 0.0
N405 N 0.58933 0.73447 0.41272 0.0
C406 C 0.62614 0.70036 0.40304 0.0
C407 C 0.60075 0.69971 0.41081 0.0
C408 C 0.60824 0.7557 0.40608 0.0
N409 N 0.63087 0.73572 0.40009 0.0
O410 O 0.53219 0.78181 0.41388 0.0
H411 H 0.59247 0.67562 0.41512 0.0
H412 H 0.60599 0.78535 0.40572 0.0
O413 O 0.52681 0.7065 0.41996 0.0
C414 C 0.54711 0.81358 0.41492 0.0
O415 O 0.57531 0.81699 0.42117 0.0
N416 N 0.58554 0.7219 0.43245 0.0
C417 C 0.62847 0.69148 0.44791 0.0
C418 C 0.5924 0.6788 0.44617 0.0
C419 C 0.57126 0.69455 0.43844 0.0
C420 C 0.62091 0.73385 0.43383 0.0
C421 C 0.64298 0.71888 0.4415 0.0
H422 H 0.54283 0.68632 0.4378 0.0
H423 H 0.63155 0.75617 0.42919 0.0
H424 H 0.47459 0.77295 0.42665 0.0
H425 H 0.50894 0.79423 0.45671 0.0
H426 H 0.64104 0.67679 0.4001 0.0
H427 H 0.57976 0.65844 0.45112 0.0
H428 H 0.67072 0.72942 0.44259 0.0
C429 C 0.75315 0.51682 0.55628 0.0
C430 C 0.75847 0.53495 0.54723 0.0
N431 N 0.72711 0.553 0.54488 0.0
N432 N 0.7187 0.52344 0.55964 0.0
C433 C 0.70333 0.54558 0.55255 0.0
H434 H 0.773 0.49954 0.56018 0.0
Co435 Co 0.70252 0.50331 0.57165 0.0
C436 C 0.62398 0.52272 0.57454 0.0
O437 O 0.61995 0.48851 0.57771 0.0
N438 N 0.6885 0.4825 0.58422 0.0
C439 C 0.67422 0.4777 0.60072 0.0
C440 C 0.67622 0.50123 0.59248 0.0
C441 C 0.69493 0.44809 0.58774 0.0
N442 N 0.68635 0.44451 0.59767 0.0
O443 O 0.73062 0.54064 0.57876 0.0
H444 H 0.67049 0.53053 0.5926 0.0
H445 H 0.70764 0.42637 0.58337 0.0
O446 O 0.65601 0.53397 0.57154 0.0
C447 C 0.76042 0.52717 0.58244 0.0
O448 O 0.76446 0.49113 0.58249 0.0
N449 N 0.67975 0.46524 0.56399 0.0
C450 C 0.66241 0.41109 0.54951 0.0
C451 C 0.64123 0.44327 0.55032 0.0
C452 C 0.65094 0.47039 0.55738 0.0
C453 C 0.7011 0.4344 0.56314 0.0
C454 C 0.69259 0.4067 0.55609 0.0
H455 H 0.63687 0.49647 0.55685 0.0
H456 H 0.72651 0.43243 0.56742 0.0
H457 H 0.67539 0.55597 0.55299 0.0
H458 H 0.78315 0.53403 0.54259 0.0
H459 H 0.66676 0.48491 0.60845 0.0
H460 H 0.61891 0.44875 0.54503 0.0
H461 H 0.71039 0.38279 0.55553 0.0
C462 C 0.50622 0.19241 0.45116 0.0
C463 C 0.53299 0.19567 0.45855 0.0
N464 N 0.54194 0.23165 0.4595 0.0
N465 N 0.49839 0.22614 0.44738 0.0
C466 C 0.52105 0.24932 0.4525 0.0
H467 H 0.49154 0.16732 0.44929 0.0
Co468 Co 0.45785 0.23901 0.43935 0.0
C469 C 0.4872 0.2945 0.42516 0.0
O470 O 0.47607 0.27363 0.41756 0.0
N471 N 0.41641 0.25268 0.4314 0.0
C472 C 0.37212 0.28734 0.42457 0.0
C473 C 0.40073 0.28653 0.43139 0.0
C474 C 0.39658 0.23349 0.42442 0.0
N475 N 0.36959 0.25397 0.42011 0.0
O476 O 0.47643 0.20816 0.42852 0.0
H477 H 0.41004 0.30981 0.43584 0.0
H478 H 0.40238 0.20547 0.42222 0.0
O479 O 0.48378 0.28272 0.43429 0.0
C480 C 0.46153 0.17635 0.42951 0.0
O481 O 0.43719 0.17168 0.43684 0.0
N482 N 0.43842 0.26491 0.45038 0.0
C483 C 0.40217 0.2942 0.46724 0.0
C484 C 0.4279 0.3155 0.46177 0.0
C485 C 0.44596 0.30025 0.45337 0.0
C486 C 0.41445 0.24351 0.45577 0.0
C487 C 0.39605 0.25753 0.46423 0.0
H488 H 0.46516 0.31723 0.44919 0.0
H489 H 0.40937 0.21538 0.45337 0.0
H490 H 0.52052 0.27895 0.45154 0.0
H491 H 0.54265 0.1736 0.46343 0.0
H492 H 0.35486 0.31099 0.42297 0.0
H493 H 0.43324 0.34404 0.46375 0.0
H494 H 0.37704 0.23983 0.46834 0.0
C495 C 0.15065 0.57219 0.5294 0.0
C496 C 0.15738 0.53785 0.52537 0.0
N497 N 0.18695 0.52342 0.53016 0.0
N498 N 0.17567 0.57932 0.53675 0.0
C499 C 0.19724 0.54898 0.53709 0.0
H500 H 0.13028 0.59165 0.52669 0.0
Co501 Co 0.18141 0.62461 0.54322 0.0
C502 C 0.24287 0.61121 0.55799 0.0
O503 O 0.22312 0.62461 0.56552 0.0
N504 N 0.18727 0.6704 0.5496 0.0
C505 C 0.21316 0.72124 0.55578 0.0
C506 C 0.21784 0.69175 0.54937 0.0
C507 C 0.16416 0.68792 0.55604 0.0
N508 N 0.1794 0.71872 0.56007 0.0
O509 O 0.15279 0.60638 0.55463 0.0
H510 H 0.2428 0.68521 0.54523 0.0
H511 H 0.13722 0.67751 0.55805 0.0
O512 O 0.22863 0.60877 0.54911 0.0
C513 C 0.11888 0.60979 0.55209 0.0
O514 O 0.1112 0.62553 0.54331 0.0
N515 N 0.20539 0.64257 0.53169 0.0
C516 C 0.23433 0.67202 0.51379 0.0
C517 C 0.25259 0.64331 0.51893 0.0
C518 C 0.23756 0.62882 0.52787 0.0
C519 C 0.18669 0.66963 0.52667 0.0
C520 C 0.20085 0.68505 0.51774 0.0
H521 H 0.25145 0.60617 0.53158 0.0
H522 H 0.1607 0.67945 0.52967 0.0
H523 H 0.2212 0.54631 0.54195 0.0
H524 H 0.14338 0.52574 0.51888 0.0
H525 H 0.23422 0.74134 0.55767 0.0
H526 H 0.27797 0.6317 0.516 0.0
H527 H 0.18589 0.70723 0.51406 0.0
H528 H 0.11242 0.34583 0.2693 0.0
H529 H 0.14148 0.36264 0.25317 0.0
H530 H 0.22985 0.28591 0.25913 0.0
H531 H 0.20181 0.2701 0.27553 0.0
H532 H 0.2553 0.35223 0.2527 0.0
H533 H 0.14414 0.30495 0.22683 0.0
H534 H 0.12736 0.33621 0.23635 0.0
H535 H 0.14575 0.29211 0.24013 0.0
C536 C 0.13821 0.33273 0.26724 0.0
C537 C 0.1548 0.30663 0.27372 0.0
C538 C 0.15446 0.34192 0.25793 0.0
C539 C 0.18737 0.32488 0.25484 0.0
C540 C 0.20419 0.29903 0.26131 0.0
H541 H 0.32351 0.37997 0.20119 0.0
H542 H 0.29658 0.34414 0.21521 0.0
C543 C 0.18803 0.28992 0.27066 0.0
C544 C 0.20518 0.33567 0.24511 0.0
H545 H 0.18848 0.34737 0.21968 0.0
C546 C 0.24099 0.35054 0.24545 0.0
C547 C 0.1865 0.33324 0.23565 0.0
C548 C 0.14897 0.3154 0.23469 0.0
C549 C 0.25783 0.36489 0.23667 0.0
C550 C 0.23842 0.36404 0.22732 0.0
C551 C 0.20321 0.34795 0.22689 0.0
C552 C 0.25279 0.38314 0.21819 0.0
C553 C 0.29551 0.38254 0.23751 0.0
C554 C 0.2364 0.41626 0.21509 0.0
C555 C 0.25181 0.43694 0.20719 0.0
C556 C 0.28391 0.42475 0.20215 0.0
C557 C 0.29921 0.39051 0.20499 0.0
C558 C 0.28382 0.36992 0.21297 0.0
H559 H 0.30504 0.38465 0.24555 0.0
H560 H 0.31584 0.36582 0.2332 0.0
H561 H 0.29515 0.41064 0.23411 0.0
H562 H 0.21247 0.4269 0.21907 0.0
H563 H 0.2393 0.46323 0.20542 0.0
H564 H 0.45859 0.73927 0.78005 0.0
H565 H 0.41508 0.73585 0.76593 0.0
H566 H 0.41592 0.61682 0.76773 0.0
H567 H 0.46025 0.62023 0.78183 0.0
H568 H 0.42978 0.63829 0.74908 0.0
H569 H 0.30781 0.71495 0.76213 0.0
H570 H 0.34815 0.74246 0.76437 0.0
H571 H 0.34276 0.69885 0.77089 0.0
C572 C 0.44863 0.71243 0.77766 0.0
C573 C 0.46284 0.68001 0.78201 0.0
C574 C 0.42359 0.71046 0.7696 0.0
C575 C 0.41175 0.67606 0.76586 0.0
C576 C 0.42454 0.64364 0.77053 0.0
H577 H 0.27555 0.72407 0.7129 0.0
H578 H 0.29287 0.68764 0.7278 0.0
C579 C 0.4499 0.64561 0.77854 0.0
C580 C 0.39023 0.67437 0.75626 0.0
H581 H 0.32085 0.7187 0.74378 0.0
C582 C 0.40531 0.65505 0.74797 0.0
C583 C 0.35773 0.69527 0.75484 0.0
C584 C 0.33801 0.71365 0.76359 0.0
C585 C 0.39089 0.65912 0.73812 0.0
C586 C 0.36136 0.68391 0.7365 0.0
C587 C 0.34399 0.70021 0.74494 0.0
C588 C 0.35152 0.69763 0.72621 0.0
C589 C 0.40835 0.63782 0.72951 0.0
C590 C 0.37884 0.71412 0.72011 0.0
C591 C 0.3691 0.73441 0.71148 0.0
C592 C 0.33177 0.73926 0.7089 0.0
C593 C 0.30461 0.7206 0.7146 0.0
C594 C 0.31442 0.69996 0.72318 0.0
H595 H 0.41805 0.6104 0.7322 0.0
H596 H 0.38882 0.63367 0.72307 0.0
H597 H 0.43286 0.65316 0.72669 0.0
H598 H 0.40758 0.71352 0.72238 0.0
H599 H 0.39068 0.74806 0.70717 0.0
H600 H 0.83104 0.58857 0.19479 0.0
H601 H 0.85022 0.63187 0.20788 0.0
H602 H 0.73635 0.65708 0.21438 0.0
H603 H 0.71662 0.61343 0.20117 0.0
H604 H 0.8383 0.70674 0.2122 0.0
H605 H 0.77492 0.61392 0.24127 0.0
H606 H 0.78064 0.60014 0.22816 0.0
H607 H 0.74442 0.63153 0.23162 0.0
C608 C 0.8099 0.60393 0.19876 0.0
C609 C 0.77216 0.59706 0.19699 0.0
C610 C 0.82101 0.62867 0.2063 0.0
C611 C 0.79471 0.64707 0.21223 0.0
C612 C 0.75706 0.64248 0.21002 0.0
H613 H 0.84526 0.75363 0.27053 0.0
H614 H 0.81235 0.73564 0.255 0.0
C615 C 0.74585 0.61756 0.20247 0.0
C616 C 0.80715 0.66809 0.22127 0.0
H617 H 0.80945 0.66411 0.24727 0.0
C618 C 0.83162 0.69779 0.21988 0.0
C619 C 0.79845 0.65621 0.23127 0.0
C620 C 0.77341 0.62356 0.23324 0.0
C621 C 0.84842 0.71531 0.22822 0.0
C622 C 0.84085 0.70241 0.23818 0.0
C623 C 0.81515 0.67385 0.2396 0.0
C624 C 0.86116 0.7162 0.2472 0.0
C625 C 0.87449 0.74711 0.22631 0.0
C626 C 0.89946 0.71098 0.24796 0.0
C627 C 0.91833 0.72122 0.2568 0.0
C628 C 0.89919 0.73674 0.26507 0.0
C629 C 0.86085 0.74219 0.26424 0.0
C630 C 0.84199 0.73185 0.2554 0.0
H631 H 0.86897 0.76049 0.21884 0.0
H632 H 0.87232 0.76823 0.23242 0.0
H633 H 0.90326 0.73664 0.22621 0.0
H634 H 0.91463 0.69821 0.24179 0.0
H635 H 0.94789 0.71693 0.25718 0.0
H636 H 0.5396 0.18737 0.77365 0.0
H637 H 0.5779 0.16474 0.75969 0.0
H638 H 0.59752 0.27662 0.74976 0.0
H639 H 0.55972 0.29961 0.76387 0.0
H640 H 0.55862 0.18155 0.73881 0.0
H641 H 0.70133 0.22642 0.74872 0.0
H642 H 0.66537 0.22161 0.75817 0.0
H643 H 0.66551 0.26059 0.74972 0.0
C644 C 0.55288 0.20726 0.76869 0.0
C645 C 0.54658 0.24533 0.76986 0.0
C646 C 0.57458 0.19426 0.76068 0.0
C647 C 0.59065 0.21903 0.75375 0.0
C648 C 0.5857 0.2571 0.75511 0.0
H649 H 0.70812 0.1756 0.69656 0.0
H650 H 0.67987 0.20665 0.71127 0.0
C651 C 0.56387 0.27015 0.76311 0.0
C652 C 0.6093 0.20476 0.74455 0.0
H653 H 0.69281 0.1981 0.73263 0.0
C654 C 0.58796 0.18514 0.73745 0.0
C655 C 0.64743 0.21004 0.74276 0.0
C656 C 0.67147 0.2306 0.75025 0.0
C657 C 0.60379 0.17027 0.72863 0.0
C658 C 0.64216 0.17446 0.72699 0.0
C659 C 0.66342 0.19488 0.73395 0.0
C660 C 0.66076 0.15609 0.71834 0.0
C661 C 0.57921 0.15036 0.72112 0.0
C662 C 0.66006 0.11748 0.71761 0.0
C663 C 0.67594 0.09983 0.70927 0.0
C664 C 0.69313 0.12042 0.7015 0.0
C665 C 0.69495 0.15908 0.70241 0.0
C666 C 0.67885 0.1768 0.71078 0.0
H667 H 0.54987 0.15879 0.72194 0.0
H668 H 0.58809 0.15568 0.71315 0.0
H669 H 0.58079 0.12019 0.72255 0.0
H670 H 0.64704 0.10097 0.72349 0.0
H671 H 0.67499 0.06994 0.70893 0.0
H672 H 0.3235 0.01774 0.02159 0.0
H673 H 0.30377 0.05237 0.00658 0.0
H674 H 0.22016 0.10671 0.02444 0.0
H675 H 0.24025 0.07292 0.03959 0.0
H676 H 0.19701 0.0623 0.00619 0.0
H677 H 0.30703 0.16626 -0.0017 0.0
H678 H 0.32091 0.12004 0.00163 0.0
H679 H 0.29854 0.14837 0.01096 0.0
C680 C 0.3017 0.03785 0.02244 0.0
C681 C 0.28318 0.04222 0.0318 0.0
C682 C 0.29045 0.05758 0.01383 0.0
C683 C 0.26065 0.08205 0.01445 0.0
C684 C 0.2433 0.08792 0.02385 0.0
H685 H 0.11258 0.18901 0.97295 0.0
H686 H 0.14578 0.16371 0.98756 0.0
C687 C 0.25463 0.06838 0.03247 0.0
C688 C 0.24453 0.09787 0.0051 0.0
H689 H 0.25833 0.16173 0.98634 0.0
C690 C 0.21033 0.08408 0.00185 0.0
C691 C 0.26245 0.12575 -0.00058 0.0
C692 C 0.29922 0.14127 0.00272 0.0
C693 C 0.19327 0.09767 0.99304 0.0
C694 C 0.21052 0.12648 0.98751 0.0
C695 C 0.24517 0.13977 0.99064 0.0
C696 C 0.19206 0.14394 0.9787 0.0
C697 C 0.15711 0.08075 0.98968 0.0
C698 C 0.20784 0.14244 0.96894 0.0
C699 C 0.18895 0.15707 0.96056 0.0
C700 C 0.15403 0.17327 0.96185 0.0
C701 C 0.13902 0.17583 0.9717 0.0
C702 C 0.15796 0.16148 0.98005 0.0
H703 H 0.15329 0.05258 0.99288 0.0
H704 H 0.134 0.09815 0.99244 0.0
H705 H 0.15536 0.07911 0.98124 0.0
H706 H 0.23429 0.12917 0.96778 0.0
H707 H 0.20113 0.15487 0.95304 0.0
H708 H 0.09684 0.77774 0.94646 0.0
H709 H 0.1325 0.80532 0.96035 0.0
H710 H 0.11464 0.70788 0.97862 0.0
H711 H 0.0785 0.68041 0.9649 0.0
H712 H 0.09651 0.81676 0.97943 0.0
H713 H 0.22465 0.73425 0.98384 0.0
H714 H 0.19831 0.73527 0.97213 0.0
H715 H 0.1828 0.70776 0.9827 0.0
C716 C 0.10101 0.76193 0.95337 0.0
C717 C 0.08435 0.72707 0.9546 0.0
C718 C 0.12157 0.77763 0.96126 0.0
C719 C 0.12628 0.75854 0.97047 0.0
C720 C 0.11185 0.72278 0.9715 0.0
H721 H 0.19132 0.81308 0.03202 0.0
H722 H 0.17317 0.78252 0.0161 0.0
C723 C 0.09115 0.7071 0.96362 0.0
C724 C 0.14141 0.7779 0.97947 0.0
H725 H 0.20941 0.77494 -0.00253 0.0
C726 C 0.12145 0.80794 0.98332 0.0
C727 C 0.17359 0.76588 0.98456 0.0
C728 C 0.19633 0.7342 0.98057 0.0
C729 C 0.1323 0.82586 0.99229 0.0
C730 C 0.16455 0.81393 -0.00259 0.0
C731 C 0.18474 0.78403 0.99351 0.0
C732 C 0.17736 0.83198 0.00689 0.0
C733 C 0.10838 0.85655 -0.00361 0.0
C734 C 0.18634 0.86968 0.00692 0.0
C735 C 0.19636 0.88718 0.01598 0.0
C736 C 0.19805 0.86717 0.02515 0.0
C737 C 0.19022 0.82913 0.02505 0.0
C738 C 0.17989 0.81169 0.01598 0.0
H739 H 0.08 0.85549 0.99318 0.0
H740 H 0.10645 0.8552 0.00484 0.0
H741 H 0.12071 0.88357 -0.00572 0.0
H742 H 0.18542 0.88562 -7e-05 0.0
H743 H 0.20308 0.91634 0.01579 0.0
H744 H 0.95481 0.82117 0.97816 0.0
H745 H 0.9239 0.85186 0.99244 0.0
H746 H 0.81819 0.81623 0.98083 0.0
H747 H 0.84871 0.78567 0.9666 0.0
H748 H 0.87469 0.9082 0.99052 0.0
H749 H 0.8092 0.79138 0.01096 0.0
H750 H 0.84565 0.78499 0.00174 0.0
H751 H 0.79871 0.79138 -0.00242 0.0
C752 C 0.925 0.81964 0.97872 0.0
C753 C 0.90418 0.80094 0.97128 0.0
C754 C 0.90744 0.83697 0.98689 0.0
C755 C 0.86883 0.83574 0.98778 0.0
C756 C 0.84807 0.8166 0.98046 0.0
H757 H 0.72457 0.99607 0.01404 0.0
H758 H 0.7578 0.95261 0.00324 0.0
C759 C 0.86557 0.79923 0.97231 0.0
C760 C 0.84986 0.85747 -0.00427 0.0
H761 H 0.78483 0.8518 0.0145 0.0
C762 C 0.8554 0.89581 -0.00415 0.0
C763 C 0.82498 0.84118 0.00274 0.0
C764 C 0.81953 0.79992 0.00333 0.0
C765 C 0.83565 0.91852 0.00253 0.0
C766 C 0.80918 0.90247 0.00911 0.0
C767 C 0.80471 0.86399 0.00931 0.0
C768 C 0.78578 0.92551 0.01574 0.0
C769 C 0.84316 0.95955 0.00246 0.0
C770 C 0.7892 0.92332 0.02636 0.0
C771 C 0.76988 0.94787 0.03258 0.0
C772 C 0.7468 0.97494 0.02827 0.0
C773 C 0.74191 0.97555 0.01763 0.0
C774 C 0.7612 0.95098 0.01143 0.0
H775 H 0.87041 0.96609 -0.001 0.0
H776 H 0.82156 0.97362 -0.00211 0.0
H777 H 0.84245 0.97103 0.0103 0.0
H778 H 0.8078 0.90352 0.02982 0.0
H779 H 0.77369 0.94626 0.04076 0.0
H780 H 0.80482 0.22863 0.02953 0.0
H781 H 0.82673 0.2649 0.01491 0.0
H782 H 0.82459 0.16708 -0.00381 0.0
H783 H 0.80255 0.13078 0.01071 0.0
H784 H 0.89418 0.24671 0.00446 0.0
H785 H 0.77375 0.24778 0.97832 0.0
H786 H 0.76952 0.23952 0.99187 0.0
H787 H 0.78471 0.20322 0.98354 0.0
C788 C 0.80851 0.21504 0.02225 0.0
C789 C 0.80223 0.17687 0.02125 0.0
C790 C 0.82094 0.23575 0.01393 0.0
C791 C 0.82665 0.21873 0.00446 0.0
C792 C 0.81964 0.18083 0.00339 0.0
H793 H 0.93928 0.23782 0.94915 0.0
H794 H 0.8923 0.22887 0.96224 0.0
C795 C 0.80756 0.16005 0.01172 0.0
C796 C 0.8439 0.23937 -0.00402 0.0
H797 H 0.83254 0.26239 0.97094 0.0
C798 C 0.88057 0.25092 -0.00282 0.0
C799 C 0.82596 0.24445 0.98651 0.0
C800 C 0.78618 0.23339 0.98497 0.0
C801 C 0.9007 0.26535 0.98897 0.0
C802 C 0.88314 0.26951 0.97937 0.0
C803 C 0.84586 0.25945 0.9783 0.0
C804 C 0.90447 0.27991 0.97016 0.0
C805 C 0.94126 0.27353 0.99051 0.0
C806 C 0.92508 0.31277 0.96985 0.0
C807 C 0.9524 0.31761 0.96245 0.0
C808 C 0.95883 0.29008 0.95512 0.0
C809 C 0.935 0.25945 0.9547 0.0
C810 C 0.90815 0.25429 0.9622 0.0
H811 H 0.95202 0.26127 -0.00231 0.0
H812 H 0.95788 0.26273 0.98406 0.0
H813 H 0.94545 0.30385 0.99093 0.0
H814 H 0.92186 0.33343 0.97574 0.0
H815 H 0.97011 0.34171 0.96283 0.0
H816 H 0.59489 0.78845 0.76228 0.0
H817 H 0.62453 0.81626 0.74739 0.0
H818 H 0.71483 0.85339 0.76627 0.0
H819 H 0.6853 0.82559 0.78123 0.0
H820 H 0.64178 0.89028 0.74477 0.0
H821 H 0.76749 0.80316 0.74244 0.0
H822 H 0.72774 0.79031 0.74996 0.0
H823 H 0.76005 0.82395 0.75469 0.0
C824 C 0.62106 0.80257 0.76326 0.0
C825 C 0.63776 0.80497 0.77292 0.0
C826 C 0.63801 0.81824 0.75475 0.0
C827 C 0.67203 0.83645 0.75572 0.0
C828 C 0.68894 0.83874 0.76533 0.0
H829 H 0.8068 0.96775 0.7153 0.0
H830 H 0.78011 0.93415 0.72966 0.0
C831 C 0.67204 0.82294 0.77386 0.0
C832 C 0.68878 0.85464 0.74675 0.0
H833 H 0.76563 0.85611 0.73171 0.0
C834 C 0.66876 0.88269 0.74187 0.0
C835 C 0.72398 0.84462 0.74302 0.0
C836 C 0.74599 0.81364 0.74773 0.0
C837 C 0.6833 0.90151 0.73344 0.0
C838 C 0.71854 0.8916 0.72974 0.0
C839 C 0.73858 0.86354 0.7346 0.0
C840 C 0.73529 0.91056 0.72091 0.0
C841 C 0.66124 0.9324 0.72869 0.0
C842 C 0.71921 0.90779 0.71121 0.0
C843 C 0.7345 0.92678 0.70296 0.0
C844 C 0.76624 0.94876 0.70427 0.0
C845 C 0.78265 0.95079 0.71398 0.0
C846 C 0.76735 0.93176 0.72222 0.0
H847 H 0.63862 0.94187 0.73377 0.0
H848 H 0.6793 0.95635 0.72687 0.0
H849 H 0.6487 0.92252 0.72147 0.0
H850 H 0.69478 0.89098 0.71004 0.0
H851 H 0.72157 0.92406 0.69556 0.0
H852 H 0.8874 0.35912 0.20232 0.0
H853 H 0.91285 0.33352 0.21803 0.0
H854 H 0.83716 0.39936 0.23568 0.0
H855 H 0.81353 0.4272 0.22012 0.0
H856 H 0.90304 0.40268 0.24365 0.0
H857 H 0.86973 0.25592 0.23613 0.0
H858 H 0.89787 0.27561 0.22628 0.0
H859 H 0.8519 0.29293 0.22836 0.0
C860 C 0.87636 0.36848 0.20954 0.0
C861 C 0.84821 0.39517 0.20991 0.0
C862 C 0.89055 0.3533 0.21852 0.0
C863 C 0.87634 0.3639 0.22803 0.0
C864 C 0.84832 0.3905 0.22843 0.0
H865 H 0.92372 0.24459 0.28421 0.0
H866 H 0.89346 0.2723 0.26933 0.0
C867 C 0.83454 0.4061 0.21948 0.0
C868 C 0.89161 0.3485 0.23761 0.0
H869 H 0.91109 0.26787 0.24994 0.0
C870 C 0.90453 0.37319 0.24506 0.0
C871 C 0.89295 0.31006 0.23952 0.0
C872 C 0.877 0.28213 0.2322 0.0
C873 C 0.91934 0.36053 0.2543 0.0
C874 C 0.92254 0.32206 0.25597 0.0
C875 C 0.90899 0.29737 0.2486 0.0
C876 C 0.94015 0.30675 0.26525 0.0
C877 C 0.93072 0.38857 0.26222 0.0
C878 C 0.97638 0.31685 0.26787 0.0
C879 C 0.99335 0.30153 0.27643 0.0
C880 C 0.97468 0.27519 0.28238 0.0
C881 C 0.93858 0.26483 0.27972 0.0
C882 C 0.92137 0.28062 0.27124 0.0
H883 H 0.91549 0.41495 0.26125 0.0
H884 H 0.92579 0.37813 0.27006 0.0
H885 H 0.96059 0.39469 0.26136 0.0
H886 H 0.99186 0.33602 0.26318 0.0
H887 H 0.02151 0.30933 0.2782 0.0
H888 H 0.20018 0.93529 0.72714 0.0
H889 H 0.2034 0.98892 0.73848 0.0
H890 H 0.28177 0.04053 0.71816 0.0
H891 H 0.27788 0.98763 0.70676 0.0
H892 H 0.26379 0.00635 0.74819 0.0
H893 H 0.22256 0.12872 0.72596 0.0
H894 H 0.21221 0.08232 0.72178 0.0
H895 H 0.25656 0.10292 0.7191 0.0
C896 C 0.21738 0.95853 0.725 0.0
C897 C 0.23891 0.95727 0.71611 0.0
C898 C 0.21908 0.98919 0.73145 0.0
C899 C 0.24248 0.01901 0.72912 0.0
C900 C 0.26264 0.01847 0.71999 0.0
H901 H 0.38551 0.16476 0.75819 0.0
H902 H 0.34607 0.12865 0.74677 0.0
C903 C 0.26059 0.98805 0.71349 0.0
C904 C 0.25057 0.04758 0.7369 0.0
H905 H 0.26645 0.13996 0.73983 0.0
C906 C 0.26333 0.03565 0.74646 0.0
C907 C 0.25002 0.08582 0.73466 0.0
C908 C 0.23419 0.10064 0.72484 0.0
C909 C 0.27802 0.06061 0.75354 0.0
C910 C 0.27978 0.09848 0.751 0.0
C911 C 0.26517 0.1108 0.74171 0.0
C912 C 0.30068 0.12462 0.75742 0.0
C913 C 0.29375 0.04609 0.76343 0.0
C914 C 0.2877 0.13489 0.76708 0.0
C915 C 0.31024 0.15541 0.77363 0.0
C916 C 0.34608 0.16567 0.77062 0.0
C917 C 0.35824 0.1567 0.76076 0.0
C918 C 0.33566 0.13642 0.75421 0.0
H919 H 0.29345 0.01543 0.76378 0.0
H920 H 0.32262 0.05585 0.76442 0.0
H921 H 0.2773 0.05682 0.76991 0.0
H922 H 0.2607 0.12598 0.76966 0.0
H923 H 0.30024 0.16187 0.7812 0.0
H924 H 0.28964 0.6249 0.22689 0.0
H925 H 0.26248 0.6535 0.24197 0.0
H926 H 0.16362 0.58834 0.23783 0.0
H927 H 0.19037 0.56055 0.22251 0.0
H928 H 0.1475 0.65823 0.23948 0.0
H929 H 0.24337 0.62312 0.2708 0.0
H930 H 0.26728 0.64402 0.26031 0.0
H931 H 0.24468 0.60008 0.25861 0.0
C932 C 0.26248 0.61605 0.22936 0.0
C933 C 0.242 0.59061 0.22357 0.0
C934 C 0.24706 0.63224 0.23801 0.0
C935 C 0.21123 0.62267 0.24113 0.0
C936 C 0.19138 0.59602 0.23558 0.0
H937 H 0.09841 0.711 0.2943 0.0
H938 H 0.13436 0.67226 0.2828 0.0
C939 C 0.20658 0.58024 0.22684 0.0
C940 C 0.19282 0.64372 0.24935 0.0
H941 H 0.20314 0.67507 0.27374 0.0
C942 C 0.15949 0.66149 0.247 0.0
C943 C 0.20828 0.64775 0.2592 0.0
C944 C 0.24267 0.62738 0.26241 0.0
C945 C 0.14165 0.68393 0.25413 0.0
C946 C 0.15825 0.68979 0.26376 0.0
C947 C 0.19096 0.67114 0.26626 0.0
C948 C 0.14134 0.7147 0.27135 0.0
C949 C 0.10494 0.70082 0.25129 0.0
C950 C 0.13496 0.75187 0.26893 0.0
C951 C 0.11376 0.7739 0.27537 0.0
C952 C 0.09894 0.75925 0.28443 0.0
C953 C 0.10831 0.72289 0.28724 0.0
C954 C 0.12918 0.70075 0.28073 0.0
H955 H 0.09138 0.68547 0.24498 0.0
H956 H 0.08588 0.70129 0.25792 0.0
H957 H 0.10941 0.72965 0.24869 0.0
H958 H 0.14499 0.76338 0.26182 0.0
H959 H 0.10747 0.80171 0.27293 0.0
H960 H 0.7771 0.59099 0.53373 0.0
H961 H 0.76673 0.62071 0.51724 0.0
H962 H 0.65143 0.59098 0.51868 0.0
H963 H 0.66165 0.56105 0.53516 0.0
H964 H 0.74137 0.58512 0.49987 0.0
H965 H 0.64882 0.70034 0.5107 0.0
H966 H 0.67614 0.67529 0.51991 0.0
H967 H 0.6334 0.65619 0.51529 0.0
C968 C 0.74951 0.59096 0.53055 0.0
C969 C 0.7202 0.57357 0.53571 0.0
C970 C 0.74362 0.60807 0.52117 0.0
C971 C 0.7083 0.60828 0.51681 0.0
C972 C 0.67877 0.59173 0.52203 0.0
H973 H 0.63402 0.62116 0.45536 0.0
H974 H 0.65923 0.60242 0.47185 0.0
C975 C 0.68462 0.57466 0.53144 0.0
C976 C 0.70281 0.6235 0.50648 0.0
H977 H 0.6516 0.68533 0.49296 0.0
C978 C 0.72208 0.60734 0.49835 0.0
C979 C 0.67805 0.65278 0.50458 0.0
C980 C 0.65817 0.67244 0.51309 0.0
C981 C 0.71606 0.61874 0.48828 0.0
C982 C 0.68974 0.64659 0.48632 0.0
C983 C 0.6716 0.66377 0.49449 0.0
C984 C 0.67891 0.65702 0.47586 0.0
C985 C 0.73773 0.60074 0.47982 0.0
C986 C 0.68176 0.69387 0.47267 0.0
C987 C 0.66704 0.70471 0.4633 0.0
C988 C 0.64901 0.67887 0.45702 0.0
C989 C 0.64756 0.64168 0.46007 0.0
C990 C 0.66227 0.63088 0.46944 0.0
H991 H 0.76394 0.58868 0.4827 0.0
H992 H 0.72105 0.57802 0.47648 0.0
H993 H 0.74426 0.62082 0.47367 0.0
H994 H 0.6943 0.71445 0.47757 0.0
H995 H 0.66811 0.73366 0.46124 0.0
H996 H 0.53391 0.30071 0.46734 0.0
H997 H 0.56418 0.32589 0.48236 0.0
H998 H 0.6262 0.22523 0.48592 0.0
H999 H 0.59643 0.19979 0.47068 0.0
H1000 H 0.58825 0.24819 0.50368 0.0
H1001 H 0.67054 0.36256 0.48707 0.0
H1002 H 0.62321 0.36245 0.48298 0.0
H1003 H 0.65289 0.32474 0.47951 0.0
C1004 C 0.5547 0.28414 0.47109 0.0
C1005 C 0.56275 0.24811 0.46773 0.0
C1006 C 0.57195 0.29864 0.47973 0.0
C1007 C 0.59768 0.27758 0.48519 0.0
C1008 C 0.60646 0.24197 0.48178 0.0
H1009 H 0.71295 0.37907 0.53682 0.0
H1010 H 0.70066 0.34139 0.5217 0.0
C1011 C 0.58933 0.22744 0.4731 0.0
C1012 C 0.6131 0.29192 0.49488 0.0
H1013 H 0.65913 0.3655 0.50506 0.0
C1014 C 0.60423 0.27355 0.50398 0.0
C1015 C 0.63425 0.32475 0.49524 0.0
C1016 C 0.64613 0.34462 0.48567 0.0
C1017 C 0.61444 0.28816 0.51349 0.0
C1018 C 0.63365 0.32217 0.51387 0.0
C1019 C 0.6441 0.33957 0.50475 0.0
C1020 C 0.64135 0.34134 0.52362 0.0
C1021 C 0.60421 0.26731 0.52304 0.0
C1022 C 0.61207 0.35347 0.52976 0.0
C1023 C 0.61899 0.37489 0.53842 0.0
C1024 C 0.65534 0.38465 0.54108 0.0
C1025 C 0.68469 0.37154 0.53507 0.0
C1026 C 0.67772 0.35024 0.52639 0.0
H1027 H 0.59955 0.23752 0.52146 0.0
H1028 H 0.62605 0.27002 0.52895 0.0
H1029 H 0.57822 0.27882 0.52618 0.0
H1030 H 0.58375 0.34747 0.52767 0.0
H1031 H 0.59584 0.3845 0.54291 0.0
H1032 H 0.15991 0.46145 0.52141 0.0
H1033 H 0.19587 0.4127 0.51318 0.0
H1034 H 0.29672 0.46525 0.52306 0.0
H1035 H 0.26112 0.51391 0.53124 0.0
H1036 H 0.24331 0.43065 0.49752 0.0
H1037 H 0.31905 0.35604 0.52795 0.0
H1038 H 0.27889 0.38407 0.53051 0.0
H1039 H 0.3233 0.40538 0.5287 0.0
C1040 C 0.18972 0.46217 0.52199 0.0
C1041 C 0.20763 0.49164 0.52692 0.0
C1042 C 0.2102 0.43425 0.51734 0.0
C1043 C 0.24892 0.43521 0.51759 0.0
C1044 C 0.26686 0.46349 0.52298 0.0
H1045 H 0.42563 0.34277 0.48197 0.0
H1046 H 0.3877 0.3742 0.49474 0.0
C1047 C 0.2464 0.49138 0.52765 0.0
C1048 C 0.27043 0.41014 0.51099 0.0
H1049 H 0.34097 0.34773 0.51087 0.0
C1050 C 0.2643 0.41211 0.50045 0.0
C1051 C 0.2981 0.38643 0.51485 0.0
C1052 C 0.30508 0.38253 0.52613 0.0
C1053 C 0.28572 0.39172 0.4936 0.0
C1054 C 0.31354 0.36813 0.49743 0.0
C1055 C 0.31953 0.36582 0.50799 0.0
C1056 C 0.33706 0.34638 0.49048 0.0
C1057 C 0.27922 0.39663 0.48231 0.0
C1058 C 0.32123 0.31976 0.48407 0.0
C1059 C 0.3426 0.30224 0.47669 0.0
C1060 C 0.38037 0.31069 0.47566 0.0
C1061 C 0.3965 0.33615 0.48244 0.0
C1062 C 0.37499 0.35384 0.4898 0.0
H1063 H 0.26331 0.42212 0.48062 0.0
H1064 H 0.30579 0.39787 0.4781 0.0
H1065 H 0.26319 0.37273 0.47938 0.0
H1066 H 0.29206 0.31333 0.48458 0.0
H1067 H 0.32915 0.28306 0.47155 0.0
H1068 H 0.19789 0.69391 0.49643 0.0
H1069 H 0.22494 0.72022 0.48089 0.0
H1070 H 0.33341 0.71249 0.49426 0.0
H1071 H 0.30678 0.68728 0.50988 0.0
H1072 H 0.27822 0.78739 0.47946 0.0
H1073 H 0.33276 0.65292 0.46595 0.0
H1074 H 0.29448 0.65649 0.47473 0.0
H1075 H 0.34101 0.66239 0.47922 0.0
C1076 C 0.22746 0.69824 0.49611 0.0
C1077 C 0.25024 0.68828 0.50438 0.0
C1078 C 0.24279 0.71312 0.48722 0.0
C1079 C 0.28106 0.71793 0.48646 0.0
C1080 C 0.30378 0.70856 0.49472 0.0
H1081 H 0.4527 0.82465 0.45889 0.0
H1082 H 0.39378 0.81326 0.46721 0.0
C1083 C 0.28854 0.69392 0.5036 0.0
C1084 C 0.29805 0.73206 0.47703 0.0
H1085 H 0.36069 0.70719 0.45902 0.0
C1086 C 0.29564 0.76986 0.4748 0.0
C1087 C 0.32002 0.70891 0.47089 0.0
C1088 C 0.32207 0.66782 0.47273 0.0
C1089 C 0.31721 0.78565 0.46704 0.0
C1090 C 0.34196 0.76301 0.46154 0.0
C1091 C 0.34185 0.72469 0.46325 0.0
C1092 C 0.37214 0.77833 0.45519 0.0
C1093 C 0.31417 0.82654 0.46504 0.0
C1094 C 0.37925 0.76355 0.44551 0.0
C1095 C 0.41341 0.76935 0.44084 0.0
C1096 C 0.44112 0.78989 0.44581 0.0
C1097 C 0.43233 0.80795 0.45498 0.0
C1098 C 0.39829 0.80195 0.45967 0.0
H1099 H 0.28571 0.83646 0.46658 0.0
H1100 H 0.33311 0.84156 0.47025 0.0
H1101 H 0.3216 0.83352 0.45705 0.0
H1102 H 0.35946 0.7452 0.44193 0.0
H1103 H 0.41896 0.75512 0.43376 0.0
H1104 H 0.99478 0.1567 0.31766 0.0
H1105 H 0.98166 0.09428 0.32343 0.0
H1106 H 0.06475 0.1052 0.34686 0.0
H1107 H 0.07947 0.16725 0.34054 0.0
H1108 H 0.07939 0.04816 0.33712 0.0
H1109 H 0.93091 0.03636 0.34425 0.0
H1110 H 0.93616 0.05708 0.33196 0.0
H1111 H 0.9531 0.08086 0.34315 0.0
C1112 C 0.00898 0.14648 0.32435 0.0
C1113 C 0.03767 0.16705 0.32877 0.0
C1114 C 1.00139 0.11058 0.3277 0.0
C1115 C 0.02186 0.09465 0.3357 0.0
C1116 C 0.0484 0.11662 0.34071 0.0
H1117 H 0.96595 0.85803 0.33567 0.0
H1118 H 0.97879 0.91778 0.34392 0.0
C1119 C 0.05647 0.15236 0.3372 0.0
C1120 C 0.02004 0.05383 0.33747 0.0
H1121 H 0.96006 0.98094 0.33665 0.0
C1122 C 0.05319 0.03362 0.33732 0.0
C1123 C 0.98621 0.03416 0.33804 0.0
C1124 C 0.94971 0.05343 0.33948 0.0
C1125 C 0.05327 0.99485 0.33676 0.0
C1126 C 0.01933 0.9756 0.33589 0.0
C1127 C 0.98625 0.99545 0.33704 0.0
C1128 C 0.0174 0.93638 0.33238 0.0
C1129 C 0.08992 0.97514 0.33683 0.0
C1130 C 0.03565 0.92619 0.32336 0.0
C1131 C 0.02891 0.89199 0.31882 0.0
C1132 C 1.00355 0.86718 0.32312 0.0
C1133 C 0.98661 0.87621 0.33241 0.0
C1134 C 0.99356 0.91057 0.33703 0.0
H1135 H 0.1099 0.98966 0.34187 0.0
H1136 H 0.08719 0.94611 0.33946 0.0
H1137 H 0.10169 0.97533 0.32902 0.0
H1138 H 0.05309 0.94574 0.31936 0.0
H1139 H 0.04132 0.88615 0.31148 0.0
H1140 H 0.13475 0.90247 0.69111 0.0
H1141 H 0.0769 0.92669 0.68437 0.0
H1142 H 0.13088 0.95337 0.656 0.0
H1143 H 0.1896 0.92905 0.66282 0.0
H1144 H 0.06123 1.00005 0.67556 0.0
H1145 H 0.0402 0.88158 0.64905 0.0
H1146 H 0.07119 0.87873 0.65982 0.0
H1147 H 0.08384 0.90564 0.64889 0.0
C1148 C 0.13451 0.91403 0.68349 0.0
C1149 C 0.1666 0.91396 0.67748 0.0
C1150 C 0.10142 0.92778 0.67965 0.0
C1151 C 0.09951 0.94133 0.66966 0.0
C1152 C 0.1318 0.94267 0.66371 0.0
H1153 H 0.89589 0.04937 0.65071 0.0
H1154 H 0.96033 0.02949 0.6507 0.0
C1155 C 0.16531 0.92921 0.66763 0.0
C1156 C 0.06312 0.95296 0.66561 0.0
H1157 H 0.99086 0.92333 0.6509 0.0
C1158 C 0.04605 0.98372 0.67003 0.0
C1159 C 0.04326 0.93111 0.65853 0.0
C1160 C 0.06027 0.89727 0.65379 0.0
C1161 C 0.00931 0.99279 0.66776 0.0
C1162 C 0.98918 0.97067 0.66079 0.0
C1163 C 0.00644 0.94028 0.6562 0.0
C1164 C 0.94968 0.97822 0.65864 0.0
C1165 C 0.9918 0.02512 0.67316 0.0
C1166 C 0.92202 0.9548 0.66252 0.0
C1167 C 0.88493 0.96594 0.66242 0.0
C1168 C 0.87525 1.00071 0.6585 0.0
C1169 C 0.90263 0.0225 0.65383 0.0
C1170 C 0.93948 0.01126 0.65385 0.0
H1171 H 0.00873 0.03485 0.6797 0.0
H1172 H 0.98874 0.04842 0.66773 0.0
H1173 H 0.96387 0.01766 0.676 0.0
H1174 H 0.92939 0.92914 0.66624 0.0
H1175 H 0.86445 0.94879 0.66616 0.0
H1176 H 0.90899 0.63042 0.91138 0.0
H1177 H 0.92089 0.56698 0.90592 0.0
H1178 H 0.03774 0.58449 0.91005 0.0
H1179 H 0.02588 0.64856 0.91531 0.0
H1180 H 0.01694 0.53341 0.89329 0.0
H1181 H 0.95012 0.5007 0.93042 0.0
H1182 H 0.92292 0.52768 0.92173 0.0
H1183 H 0.96446 0.54686 0.92706 0.0
C1184 C 0.93733 0.62121 0.91069 0.0
C1185 C 0.96655 0.6443 0.91373 0.0
C1186 C 0.94407 0.58488 0.90765 0.0
C1187 C 0.98009 0.57078 0.90781 0.0
C1188 C 0.0097 0.59484 0.9099 0.0
H1189 H 0.09482 0.36921 0.91302 0.0
H1190 H 0.07297 0.42988 0.9079 0.0
C1191 C 1.00297 0.6315 0.91282 0.0
C1192 C 0.98618 0.53023 0.9073 0.0
H1193 H 0.97142 0.45077 0.92077 0.0
C1194 C 0.00677 0.51525 0.89925 0.0
C1195 C 0.97275 0.50651 0.91506 0.0
C1196 C 0.95158 0.52113 0.92411 0.0
C1197 C 0.01467 0.47721 0.89883 0.0
C1198 C 1.00224 0.45371 0.90677 0.0
C1199 C 0.98065 0.46861 0.91463 0.0
C1200 C 0.01509 0.41487 0.9079 0.0
C1201 C 0.03642 0.46261 0.88991 0.0
C1202 C 0.98991 0.38574 0.90955 0.0
C1203 C 1.00247 0.35067 0.91255 0.0
C1204 C 0.04034 0.34452 0.9141 0.0
C1205 C 0.06544 0.37312 0.9119 0.0
C1206 C 0.05299 0.40785 0.90887 0.0
H1207 H 0.03184 0.47972 0.88299 0.0
H1208 H 0.06631 0.46379 0.89175 0.0
H1209 H 0.02893 0.43354 0.88816 0.0
H1210 H 0.96049 0.39059 0.90895 0.0
H1211 H 0.98252 0.32924 0.91429 0.0
H1212 H 0.62089 0.05194 0.05359 0.0
H1213 H 0.56093 0.02995 0.05943 0.0
H1214 H 0.60423 0.01689 0.08986 0.0
H1215 H 0.66526 0.03911 0.08392 0.0
H1216 H 0.54129 0.96193 0.06944 0.0
H1217 H 0.51142 0.08757 0.09247 0.0
H1218 H 0.5469 0.08712 0.08281 0.0
H1219 H 0.55422 0.06346 0.09464 0.0
C1220 C 0.61787 0.04385 0.0615 0.0
C1221 C 0.64767 0.0471 0.06831 0.0
C1222 C 0.58354 0.03137 0.06484 0.0
C1223 C 0.5779 0.02225 0.0751 0.0
C1224 C 0.60793 0.02418 0.08192 0.0
H1225 H 0.36302 0.92002 0.08695 0.0
H1226 H 0.42752 0.93759 0.08976 0.0
C1227 C 0.64279 0.0364 0.07852 0.0
C1228 C 0.54002 0.0116 0.07839 0.0
H1229 H 0.46253 0.04563 0.08995 0.0
C1230 C 0.52424 0.97978 0.07411 0.0
C1231 C 0.51767 0.03539 0.0843 0.0
C1232 C 0.53311 0.07046 0.08882 0.0
C1233 C 0.48652 0.9717 0.07527 0.0
C1234 C 0.46391 0.99576 0.08106 0.0
C1235 C 0.47989 0.0271 0.08559 0.0
C1236 C 0.42327 0.98973 0.08179 0.0
C1237 C 0.47085 0.93849 0.06979 0.0
C1238 C 0.39864 0.01458 0.07713 0.0
C1239 C 0.36138 0.00494 0.07575 0.0
C1240 C 0.34843 0.97024 0.07895 0.0
C1241 C 0.37231 0.94702 0.08445 0.0
C1242 C 0.40926 0.95686 0.08596 0.0
H1243 H 0.49006 0.92775 0.0639 0.0
H1244 H 0.46575 0.91604 0.07538 0.0
H1245 H 0.4442 0.94534 0.06605 0.0
H1246 H 0.4088 0.04016 0.07388 0.0
H1247 H 0.34375 0.02304 0.07133 0.0
H1248 H 0.50143 0.36 0.7991 0.0
H1249 H 0.51991 0.42052 0.80555 0.0
H1250 H 0.49139 0.38658 0.83608 0.0
H1251 H 0.47254 0.32551 0.82952 0.0
H1252 H 0.45897 0.45303 0.8305 0.0
H1253 H 0.60791 0.45774 0.82167 0.0
H1254 H 0.58145 0.44374 0.81077 0.0
H1255 H 0.58214 0.415 0.82199 0.0
C1256 C 0.50048 0.36501 0.80724 0.0
C1257 C 0.48658 0.33794 0.81387 0.0
C1258 C 0.51094 0.39964 0.81093 0.0
C1259 C 0.50754 0.40807 0.82133 0.0
C1260 C 0.49463 0.38058 0.82805 0.0
H1261 H 0.59167 0.6281 0.83486 0.0
H1262 H 0.57621 0.56313 0.83771 0.0
C1263 C 0.48433 0.34563 0.82434 0.0
C1264 C 0.51441 0.44659 0.82484 0.0
H1265 H 0.57717 0.51661 0.82292 0.0
C1266 C 0.48506 0.46682 0.82905 0.0
C1267 C 0.54852 0.46458 0.82308 0.0
C1268 C 0.58189 0.444 0.81923 0.0
C1269 C 0.48829 0.50497 0.83098 0.0
C1270 C 0.52151 0.52354 0.82845 0.0
C1271 C 0.55147 0.50274 0.82479 0.0
C1272 C 0.52563 0.56457 0.82891 0.0
C1273 C 0.45594 0.52492 0.83564 0.0
C1274 C 0.50142 0.58776 0.82347 0.0
C1275 C 0.50978 0.6253 0.82209 0.0
C1276 C 0.54286 0.64002 0.82594 0.0
C1277 C 0.56574 0.61749 0.83194 0.0
C1278 C 0.55706 0.58026 0.83348 0.0
H1279 H 0.43912 0.50599 0.84044 0.0
H1280 H 0.46508 0.54862 0.84039 0.0
H1281 H 0.43784 0.53544 0.82946 0.0
H1282 H 0.47752 0.57638 0.81962 0.0
H1283 H 0.49224 0.64181 0.81718 0.0
H1284 H 0.69969 0.55326 0.16216 0.0
H1285 H 0.63532 0.56812 0.15797 0.0
H1286 H 0.62604 0.46668 0.14097 0.0
H1287 H 0.68986 0.45137 0.14538 0.0
H1288 H 0.58461 0.57066 0.14028 0.0
H1289 H 0.55997 0.45179 0.1664 0.0
H1290 H 0.60478 0.47301 0.16502 0.0
H1291 H 0.58761 0.44233 0.15535 0.0
C1292 C 0.68449 0.53517 0.15708 0.0
C1293 C 0.69965 0.50129 0.15404 0.0
C1294 C 0.6476 0.54349 0.15476 0.0
C1295 C 0.62568 0.51809 0.14935 0.0
C1296 C 0.64229 0.4864 0.14528 0.0
H1297 H 0.38626 0.49883 0.15851 0.0
H1298 H 0.44559 0.4894 0.14973 0.0
C1299 C 0.67886 0.47787 0.14771 0.0
C1300 C 0.5848 0.52146 0.1495 0.0
H1301 H 0.50817 0.48365 0.16056 0.0
C1302 C 0.56779 0.55142 0.1446 0.0
C1303 C 0.56281 0.49622 0.15511 0.0
C1304 C 0.57958 0.46415 0.16085 0.0
C1305 C 0.52946 0.55727 0.14539 0.0
C1306 C 0.50777 0.53295 0.15139 0.0
C1307 C 0.52463 0.50212 0.15589 0.0
C1308 C 0.46921 0.54166 0.15448 0.0
C1309 C 0.51269 0.58975 0.13989 0.0
C1310 C 0.46235 0.57446 0.15982 0.0
C1311 C 0.4288 0.57972 0.16481 0.0
C1312 C 0.40127 0.55231 0.16461 0.0
C1313 C 0.40688 0.52054 0.15869 0.0
C1314 C 0.4408 0.51512 0.15372 0.0
H1315 H 0.52828 0.59621 0.13281 0.0
H1316 H 0.48335 0.58456 0.13788 0.0
H1317 H 0.51411 0.61444 0.14488 0.0
H1318 H 0.48389 0.59496 0.16078 0.0
H1319 H 0.42521 0.60451 0.16932 0.0
H1320 H 0.58688 0.86105 0.40357 0.0
H1321 H 0.57202 0.92599 0.40048 0.0
H1322 H 0.46329 0.90859 0.41299 0.0
H1323 H 0.47791 0.84308 0.41586 0.0
H1324 H 0.46864 0.96434 0.39628 0.0
H1325 H 0.57018 0.98467 0.42769 0.0
H1326 H 0.58677 0.9601 0.41673 0.0
H1327 H 0.55142 0.9399 0.42456 0.0
C1328 C 0.55922 0.87074 0.40522 0.0
C1329 C 0.53342 0.8472 0.40989 0.0
C1330 C 0.55088 0.90788 0.40353 0.0
C1331 C 0.51686 0.92225 0.4067 0.0
C1332 C 0.48973 0.89801 0.41049 0.0
H1333 H 0.41576 0.11983 0.425 0.0
H1334 H 0.4312 0.06153 0.41694 0.0
C1335 C 0.49795 0.86057 0.41206 0.0
C1336 C 0.51186 0.96284 0.40754 0.0
H1337 H 0.54121 0.03748 0.42127 0.0
C1338 C 0.48469 0.98045 0.40167 0.0
C1339 C 0.533 0.98388 0.41455 0.0
C1340 C 0.56181 0.96628 0.42131 0.0
C1341 C 0.47769 0.01848 0.40276 0.0
C1342 C 0.49788 0.03919 0.41005 0.0
C1343 C 0.52595 0.02176 0.41562 0.0
C1344 C 0.48718 0.07726 0.41311 0.0
C1345 C 0.44851 0.03601 0.39614 0.0
C1346 C 0.51344 0.10599 0.41363 0.0
C1347 C 0.50465 0.13969 0.41834 0.0
C1348 C 0.46969 0.14474 0.42274 0.0
C1349 C 0.44303 0.11669 0.42173 0.0
C1350 C 0.45168 0.08337 0.417 0.0
H1351 H 0.44608 0.02146 0.38871 0.0
H1352 H 0.42137 0.03392 0.40003 0.0
H1353 H 0.45458 0.06562 0.39468 0.0
H1354 H 0.54117 0.10175 0.41078 0.0
H1355 H 0.52576 0.16075 0.41909 0.0
H1356 H 0.05762 0.57563 0.54556 0.0
H1357 H 1.00009 0.56576 0.55479 0.0
H1358 H 0.05024 0.60855 0.58219 0.0
H1359 H 0.10867 0.61856 0.57283 0.0
H1360 H 0.98407 0.52437 0.57266 0.0
H1361 H 0.95684 0.67482 0.57719 0.0
H1362 H 0.99064 0.65752 0.56828 0.0
H1363 H 1.00032 0.65704 0.58169 0.0
C1364 C 0.05667 0.58229 0.55361 0.0
C1365 C 0.08759 0.59766 0.5585 0.0
C1366 C 0.02372 0.57674 0.55887 0.0
C1367 C 0.02061 0.58689 0.56914 0.0
C1368 C 0.05192 0.60092 0.57423 0.0
H1369 H 0.81206 0.51877 0.59716 0.0
H1370 H 0.87656 0.53868 0.59612 0.0
C1371 C 0.08536 0.60614 0.56894 0.0
C1372 C 0.9839 0.58347 0.57416 0.0
H1373 H 0.90885 0.63398 0.58163 0.0
C1374 C 0.96785 0.54826 0.57482 0.0
C1375 C 0.96256 0.61477 0.57679 0.0
C1376 C 0.97817 0.65329 0.57593 0.0
C1377 C 0.93078 0.54349 0.5777 0.0
C1378 C 0.90915 0.57481 0.58019 0.0
C1379 C 0.92548 0.61002 0.5798 0.0
C1380 C 0.86897 0.5712 0.58245 0.0
C1381 C 0.91457 0.50502 0.57749 0.0
C1382 C 0.8426 0.58543 0.57562 0.0
C1383 C 0.80539 0.57478 0.57636 0.0
C1384 C 0.79418 0.54958 0.58391 0.0
C1385 C 0.81994 0.53838 0.59131 0.0
C1386 C 0.8569 0.54941 0.59065 0.0
H1387 H 0.93247 0.4853 0.57331 0.0
H1388 H 0.91146 0.49476 0.58541 0.0
H1389 H 0.88687 0.50505 0.57385 0.0
H1390 H 0.85125 0.60239 0.56924 0.0
H1391 H 0.78631 0.58332 0.57045 0.0
H1392 H 0.9863 0.6655 0.30218 0.0
H1393 H 0.99142 0.59851 0.30314 0.0
H1394 H 0.01579 0.60614 0.33525 0.0
H1395 H 0.0096 0.67343 0.3344 0.0
H1396 H 0.04596 0.55376 0.3077 0.0
H1397 H 0.93441 0.53118 0.33589 0.0
H1398 H 0.94209 0.57528 0.32985 0.0
H1399 H 0.97004 0.56131 0.34053 0.0
C1400 C 0.99292 0.65312 0.30945 0.0
C1401 C 0.99746 0.6751 0.31821 0.0
C1402 C 0.99575 0.6146 0.31 0.0
C1403 C 1.00328 0.5969 0.31931 0.0
C1404 C 0.00888 0.61884 0.32802 0.0
H1405 H 0.07825 0.36749 0.3221 0.0
H1406 H 0.07341 0.43469 0.32268 0.0
C1407 C 0.00567 0.65744 0.3275 0.0
C1408 C 0.00576 0.55567 0.31977 0.0
H1409 H 0.9714 0.47906 0.33183 0.0
C1410 C 0.02957 0.53749 0.31297 0.0
C1411 C 0.98395 0.53412 0.32651 0.0
C1412 C 0.95591 0.5514 0.33353 0.0
C1413 C 0.03245 0.49873 0.31278 0.0
C1414 C 0.01178 0.47726 0.31981 0.0
C1415 C 0.98764 0.49537 0.32653 0.0
C1416 C 0.01435 0.43604 0.32016 0.0
C1417 C 0.0569 0.48123 0.30483 0.0
C1418 C 0.98256 0.41397 0.31908 0.0
C1419 C 0.98518 0.37529 0.31892 0.0
C1420 C 0.0197 0.3578 0.31981 0.0
C1421 C 0.05129 0.37994 0.32124 0.0
C1422 C 0.04859 0.41851 0.3215 0.0
H1423 H 0.06153 0.50003 0.29825 0.0
H1424 H 0.08422 0.47505 0.30825 0.0
H1425 H 0.04478 0.45504 0.30195 0.0
H1426 H 0.95575 0.4267 0.3181 0.0
H1427 H 0.96029 0.35916 0.3178 0.0
H1428 H 0.36209 0.89331 0.66873 0.0
H1429 H 0.42671 0.89933 0.66343 0.0
H1430 H 0.4494 0.96593 0.68993 0.0
H1431 H 0.38516 0.96025 0.69526 0.0
H1432 H 0.48013 0.99451 0.67253 0.0
H1433 H 0.51496 0.84583 0.67639 0.0
H1434 H 0.47631 0.85554 0.66823 0.0
H1435 H 0.47327 0.86543 0.68162 0.0
C1436 C 0.38076 0.90929 0.67342 0.0
C1437 C 0.36834 0.92586 0.6825 0.0
C1438 C 0.41782 0.91248 0.67042 0.0
C1439 C 0.44319 0.93232 0.67642 0.0
C1440 C 0.43049 0.95014 0.68523 0.0
H1441 H 0.68255 0.95366 0.67722 0.0
H1442 H 0.61931 0.9324 0.6806 0.0
C1443 C 0.39359 0.94693 0.68825 0.0
C1444 C 0.48286 0.93525 0.67351 0.0
H1445 H 0.56169 0.88501 0.66968 0.0
C1446 C 0.49789 0.97053 0.67189 0.0
C1447 C 0.50624 0.90399 0.67282 0.0
C1448 C 0.49209 0.86554 0.67494 0.0
C1449 C 0.53538 0.97543 0.66951 0.0
C1450 C 0.55857 0.94417 0.66858 0.0
C1451 C 0.54379 0.90886 0.6703 0.0
C1452 C 0.59817 0.94839 0.66581 0.0
C1453 C 0.5501 0.01417 0.66815 0.0
C1454 C 0.60772 0.9622 0.65618 0.0
C1455 C 0.64366 0.97438 0.65425 0.0
C1456 C 0.6709 0.97287 0.6619 0.0
C1457 C 0.66233 0.95521 0.67116 0.0
C1458 C 0.62609 0.94321 0.67312 0.0
H1459 H 0.53083 0.03524 0.67122 0.0
H1460 H 0.57725 0.01739 0.672 0.0
H1461 H 0.55409 0.01976 0.6599 0.0
H1462 H 0.58673 0.96595 0.65038 0.0
H1463 H 0.64943 0.98764 0.64702 0.0
H1464 H 0.03114 0.15355 0.91189 0.0
H1465 H 0.03073 0.08736 0.90795 0.0
H1466 H 0.959 0.06745 0.93359 0.0
H1467 H 0.95959 0.13311 0.93764 0.0
H1468 H 0.05583 0.03078 0.92064 0.0
H1469 H 0.90856 0.00903 0.91097 0.0
H1470 H 0.92939 0.05436 0.91141 0.0
H1471 H 0.91489 0.03192 0.92298 0.0
C1472 C 0.01515 0.13513 0.91667 0.0
C1473 C 0.99588 0.14877 0.92518 0.0
C1474 C 0.01483 0.09727 0.91438 0.0
C1475 C 0.99473 0.07233 0.92044 0.0
C1476 C 0.97427 0.0861 0.92869 0.0
H1477 H 0.02354 0.83943 0.93227 0.0
H1478 H 0.02739 0.90684 0.93192 0.0
C1479 C 0.97468 0.12383 0.931 0.0
C1480 C 0.99683 0.03174 0.91861 0.0
H1481 H 0.94363 0.95485 0.91485 0.0
C1482 C 0.03134 0.01422 0.91926 0.0
C1483 C 0.96499 0.01007 0.9167 0.0
C1484 C 0.92741 0.02731 0.91537 0.0
C1485 C 0.03468 0.97559 0.91843 0.0
C1486 C 1.00257 0.95376 0.91704 0.0
C1487 C 0.96825 0.97143 0.91602 0.0
C1488 C 1.00364 0.91256 0.91686 0.0
C1489 C 0.07259 0.95855 0.91902 0.0
C1490 C 0.98912 0.89306 0.90851 0.0
C1491 C 0.98659 0.85445 0.90873 0.0
C1492 C 0.9982 0.83438 0.91735 0.0
C1493 C 0.01408 0.85389 0.92554 0.0
C1494 C 0.01659 0.89253 0.92532 0.0
H1495 H 0.09448 0.97885 0.91702 0.0
H1496 H 0.07774 0.94901 0.92693 0.0
H1497 H 0.0749 0.93441 0.91385 0.0
H1498 H 0.97889 0.90782 0.9019 0.0
H1499 H 0.97408 0.8405 0.90229 0.0
H1500 H 0.84764 0.03292 0.08395 0.0
H1501 H 0.91481 0.02593 0.08439 0.0
H1502 H 0.91825 0.02992 0.05157 0.0
H1503 H 0.85113 0.03708 0.05105 0.0
H1504 H 0.96202 0.97332 0.07598 0.0
H1505 H 0.9906 0.11185 0.05959 0.0
H1506 H 0.94558 0.09865 0.06425 0.0
H1507 H 0.96094 0.08326 0.05195 0.0
C1508 C 0.86256 0.03198 0.07681 0.0
C1509 C 0.8438 0.03598 0.06746 0.0
C1510 C 0.90107 0.02808 0.07708 0.0
C1511 C 0.92181 0.02826 0.06803 0.0
C1512 C 0.90305 0.03068 0.05867 0.0
H1513 H 0.15784 0.01268 0.0549 0.0
H1514 H 0.09083 0.02095 0.054 0.0
C1515 C 0.86453 0.03455 0.05839 0.0
C1516 C 0.96299 0.02606 0.06842 0.0
H1517 H 0.04212 0.07264 0.06208 0.0
C1518 C 0.97951 0.9951 0.07297 0.0
C1519 C 0.98594 0.05444 0.06448 0.0
C1520 C 0.96997 0.08911 0.05987 0.0
C1521 C 0.01816 0.99147 0.07355 0.0
C1522 C 0.04113 0.01996 0.06968 0.0
C1523 C 0.02462 0.05084 0.06508 0.0
C1524 C 0.08228 0.01799 0.0703 0.0
C1525 C 0.03405 0.95666 0.07811 0.0
C1526 C 0.10017 0.01509 0.07977 0.0
C1527 C 0.13851 0.01021 0.08031 0.0
C1528 C 0.15998 0.00825 0.07138 0.0
C1529 C 0.14225 0.0134 0.06193 0.0
C1530 C 0.10385 0.01824 0.0614 0.0
H1531 H 0.01358 0.93376 0.07816 0.0
H1532 H 0.05887 0.94752 0.07384 0.0
H1533 H 0.04232 0.96211 0.08612 0.0
H1534 H 0.08435 0.01582 0.08677 0.0
H1535 H 0.15106 0.00656 0.08774 0.0
H1536 H 0.49793 0.13603 0.79542 0.0
H1537 H 0.50006 0.06858 0.79625 0.0
H1538 H 0.50364 0.07365 0.82906 0.0
H1539 H 0.50182 0.14112 0.82831 0.0
H1540 H 0.55104 0.02119 0.82132 0.0
H1541 H 0.41203 0.00455 0.80408 0.0
H1542 H 0.44381 0.03049 0.79638 0.0
H1543 H 0.42919 0.04858 0.80848 0.0
C1544 C 0.49943 0.12289 0.80282 0.0
C1545 C 0.49928 0.14421 0.8118 0.0
C1546 C 0.50037 0.0842 0.80328 0.0
C1547 C 0.50098 0.06585 0.81273 0.0
C1548 C 0.50279 0.08707 0.82168 0.0
H1549 H 0.49836 0.83667 0.83352 0.0
H1550 H 0.49452 0.90389 0.83222 0.0
C1551 C 0.5019 0.12576 0.82123 0.0
C1552 C 0.4993 0.02465 0.81331 0.0
H1553 H 0.44622 0.94971 0.80693 0.0
C1554 C 0.52805 0.00561 0.81821 0.0
C1555 C 0.46928 1.00416 0.80925 0.0
C1556 C 0.43663 0.02293 0.80434 0.0
C1557 C 0.52794 0.96681 0.81901 0.0
C1558 C 0.4979 0.94635 0.81497 0.0
C1559 C 0.4692 0.96533 0.81004 0.0
C1560 C 0.49609 0.90522 0.81574 0.0
C1561 C 0.56045 0.94799 0.82398 0.0
C1562 C 0.49612 0.88331 0.80691 0.0
C1563 C 0.49795 0.84468 0.80762 0.0
C1564 C 0.49966 0.82706 0.81719 0.0
C1565 C 0.49722 0.84908 0.82601 0.0
C1566 C 0.49544 0.88767 0.82529 0.0
H1567 H 0.58501 0.9664 0.82433 0.0
H1568 H 0.55299 0.94018 0.8319 0.0
H1569 H 0.56806 0.92245 0.8198 0.0
H1570 H 0.4962 0.89614 0.79944 0.0
H1571 H 0.49945 0.82878 0.80066 0.0
H1572 H 0.91417 0.54623 0.187 0.0
H1573 H 0.97902 0.55144 0.18244 0.0
H1574 H 0.95514 0.50873 0.15247 0.0
H1575 H 0.88968 0.50284 0.15708 0.0
H1576 H 0.0132 0.47283 0.16152 0.0
H1577 H 0.03544 0.62322 0.16488 0.0
H1578 H 0.01409 0.60494 0.17614 0.0
H1579 H 0.98985 0.6031 0.16414 0.0
C1580 C 0.92241 0.53851 0.17936 0.0
C1581 C 0.89652 0.524 0.17242 0.0
C1582 C 0.95965 0.54175 0.17674 0.0
C1583 C 0.97209 0.53094 0.16706 0.0
C1584 C 0.94621 0.51746 0.15997 0.0
H1585 H 0.20922 0.52228 0.14978 0.0
H1586 H 0.14152 0.52229 0.14812 0.0
C1587 C 0.90872 0.51426 0.1626 0.0
C1588 C 0.01246 0.53112 0.1648 0.0
H1589 H 0.08986 0.58498 0.16671 0.0
C1590 C 0.02987 0.49753 0.16242 0.0
C1591 C 0.03436 0.56333 0.16594 0.0
C1592 C 0.01739 0.60073 0.16781 0.0
C1593 C 0.0686 0.49495 0.16177 0.0
C1594 C 0.09043 0.5267 0.16353 0.0
C1595 C 0.07304 0.56059 0.16543 0.0
C1596 C 0.1313 0.52472 0.16435 0.0
C1597 C 0.08621 0.45802 0.15972 0.0
C1598 C 0.14787 0.52564 0.174 0.0
C1599 C 0.1863 0.52535 0.17498 0.0
C1600 C 0.20918 0.52462 0.16631 0.0
C1601 C 0.19248 0.52288 0.15662 0.0
C1602 C 0.15383 0.52297 0.15565 0.0
H1603 H 0.06544 0.43566 0.15877 0.0
H1604 H 0.10319 0.45974 0.15269 0.0
H1605 H 0.10497 0.45065 0.1661 0.0
H1606 H 0.13098 0.52677 0.18081 0.0
H1607 H 0.19802 0.5259 0.18257 0.0
H1608 H 0.53703 0.6483 0.40872 0.0
H1609 H 0.53756 0.58094 0.40695 0.0
H1610 H 0.44983 0.57232 0.42902 0.0
H1611 H 0.44922 0.63924 0.43088 0.0
H1612 H 0.55309 0.5308 0.42236 0.0
H1613 H 0.41388 0.50379 0.40657 0.0
H1614 H 0.43464 0.54918 0.40651 0.0
H1615 H 0.41268 0.53176 0.41785 0.0
C1616 C 0.51763 0.63213 0.41313 0.0
C1617 C 0.49346 0.64937 0.42005 0.0
C1618 C 0.51791 0.59358 0.4121 0.0
C1619 C 0.49365 0.57146 0.41782 0.0
C1620 C 0.46843 0.5887 0.42439 0.0
H1621 H 0.51195 0.34631 0.43888 0.0
H1622 H 0.5165 0.41305 0.43635 0.0
C1623 C 0.46819 0.62715 0.42545 0.0
C1624 C 0.49624 0.53039 0.41752 0.0
H1625 H 0.44504 0.45203 0.41399 0.0
C1626 C 0.52959 0.51356 0.42042 0.0
C1627 C 0.46575 0.50781 0.41489 0.0
C1628 C 0.42983 0.52402 0.41118 0.0
C1629 C 0.53283 0.4749 0.4211 0.0
C1630 C 0.50174 0.4524 0.41898 0.0
C1631 C 0.46882 0.4692 0.41573 0.0
C1632 C 0.50229 0.41148 0.42032 0.0
C1633 C 0.56958 0.45856 0.42407 0.0
C1634 C 0.49277 0.38815 0.41218 0.0
C1635 C 0.4898 0.34993 0.41363 0.0
C1636 C 0.49595 0.33414 0.4233 0.0
C1637 C 0.50678 0.35744 0.43135 0.0
C1638 C 0.50971 0.39568 0.42989 0.0
H1639 H 0.59269 0.47789 0.4224 0.0
H1640 H 0.5697 0.45294 0.43238 0.0
H1641 H 0.57466 0.43217 0.42 0.0
H1642 H 0.48686 0.39963 0.40472 0.0
H1643 H 0.4813 0.33297 0.40725 0.0
H1644 H 0.28586 0.62618 0.57475 0.0
H1645 H 0.35246 0.61734 0.5767 0.0
H1646 H 0.358 0.57098 0.54648 0.0
H1647 H 0.29131 0.57911 0.54453 0.0
H1648 H 0.39737 0.5305 0.5603 0.0
H1649 H 0.43529 0.67821 0.56398 0.0
H1650 H 0.40077 0.66372 0.57296 0.0
H1651 H 0.39046 0.66328 0.55954 0.0
C1652 C 0.30115 0.61397 0.56852 0.0
C1653 C 0.28305 0.60363 0.55945 0.0
C1654 C 0.33941 0.60932 0.5696 0.0
C1655 C 0.36059 0.59432 0.56165 0.0
C1656 C 0.34246 0.58306 0.55269 0.0
H1657 H 0.6042 0.56965 0.55879 0.0
H1658 H 0.54097 0.59122 0.55501 0.0
C1659 C 0.30421 0.58776 0.55159 0.0
C1660 C 0.40135 0.58912 0.56281 0.0
H1661 H 0.4822 0.63437 0.56833 0.0
C1662 C 0.41588 0.55332 0.56195 0.0
C1663 C 0.42583 0.61888 0.56485 0.0
C1664 C 0.41242 0.65825 0.56529 0.0
C1665 C 0.45369 0.54631 0.56347 0.0
C1666 C 0.47781 0.57577 0.56597 0.0
C1667 C 0.46368 0.61178 0.56647 0.0
C1668 C 0.51705 0.56872 0.5688 0.0
C1669 C 0.46761 0.50721 0.56253 0.0
C1670 C 0.52481 0.55051 0.57798 0.0
C1671 C 0.56058 0.53848 0.58015 0.0
C1672 C 0.58962 0.5445 0.57322 0.0
C1673 C 0.58252 0.56511 0.56434 0.0
C1674 C 0.54638 0.57713 0.56214 0.0
H1675 H 0.44758 0.48914 0.55848 0.0
H1676 H 0.49438 0.50657 0.55841 0.0
H1677 H 0.47217 0.49565 0.57027 0.0
H1678 H 0.50277 0.54401 0.58327 0.0
H1679 H 0.56516 0.52265 0.58705 0.0
H1680 H 0.33302 0.29966 0.40717 0.0
H1681 H 0.29316 0.28217 0.3931 0.0
H1682 H 0.31146 0.16707 0.39972 0.0
H1683 H 0.35076 0.18417 0.41417 0.0
H1684 H 0.32275 0.19165 0.37833 0.0
H1685 H 0.18784 0.23339 0.39448 0.0
H1686 H 0.2236 0.26727 0.39625 0.0
H1687 H 0.22754 0.22291 0.40233 0.0
C1688 C 0.32816 0.27059 0.40585 0.0
C1689 C 0.34516 0.24341 0.41191 0.0
C1690 C 0.30538 0.26066 0.39775 0.0
C1691 C 0.29911 0.22339 0.39548 0.0
C1692 C 0.31592 0.19601 0.40142 0.0
H1693 H 0.13849 0.20326 0.34592 0.0
H1694 H 0.17288 0.18299 0.36099 0.0
C1695 C 0.33857 0.20591 0.40963 0.0
C1696 C 0.27634 0.21383 0.38654 0.0
H1697 H 0.19196 0.23143 0.37617 0.0
C1698 C 0.29388 0.19942 0.37789 0.0
C1699 C 0.23862 0.22345 0.38607 0.0
C1700 C 0.21814 0.23729 0.39531 0.0
C1701 C 0.27535 0.19736 0.36851 0.0
C1702 C 0.23866 0.21041 0.36782 0.0
C1703 C 0.22023 0.22175 0.37669 0.0
C1704 C 0.22053 0.21735 0.35791 0.0
C1705 C 0.29563 0.18262 0.35935 0.0
C1706 C 0.23615 0.24303 0.35114 0.0
C1707 C 0.2166 0.25465 0.34256 0.0
C1708 C 0.18099 0.24093 0.34061 0.0
C1709 C 0.16602 0.21401 0.34716 0.0
C1710 C 0.18556 0.20249 0.35578 0.0
H1711 H 0.3172 0.16249 0.36165 0.0
H1712 H 0.27642 0.16906 0.3539 0.0
H1713 H 0.30957 0.20583 0.35537 0.0
H1714 H 0.26275 0.25547 0.35275 0.0
H1715 H 0.22891 0.27515 0.3376 0.0
H1716 H 0.18642 0.80589 0.65417 0.0
H1717 H 0.15228 0.79449 0.63833 0.0
H1718 H 0.24955 0.82134 0.62089 0.0
H1719 H 0.28375 0.83321 0.63664 0.0
H1720 H 0.1677 0.85376 0.61512 0.0
H1721 H 0.18822 0.70165 0.61898 0.0
H1722 H 0.17531 0.72928 0.62984 0.0
H1723 H 0.2208 0.73349 0.6246 0.0
C1724 C 0.20039 0.8098 0.64696 0.0
C1725 C 0.23785 0.8202 0.64663 0.0
C1726 C 0.18085 0.80332 0.63795 0.0
C1727 C 0.19849 0.80734 0.62852 0.0
C1728 C 0.23557 0.81835 0.62815 0.0
H1729 H 0.20361 0.7858 0.56653 0.0
H1730 H 0.19473 0.81149 0.5834 0.0
C1731 C 0.25515 0.82465 0.63713 0.0
C1732 C 0.1796 0.79724 0.619 0.0
H1733 H 0.1682 0.72385 0.60318 0.0
C1734 C 0.16693 0.82532 0.61253 0.0
C1735 C 0.1782 0.76012 0.6158 0.0
C1736 C 0.19128 0.72918 0.62262 0.0
C1737 C 0.15484 0.81727 0.60261 0.0
C1738 C 0.15664 0.78041 0.59907 0.0
C1739 C 0.16677 0.75214 0.60586 0.0
C1740 C 0.15416 0.77085 0.58811 0.0
C1741 C 0.14124 0.84843 0.59598 0.0
C1742 C 0.13376 0.73988 0.58499 0.0
C1743 C 0.1399 0.72418 0.57543 0.0
C1744 C 0.16651 0.73932 0.56878 0.0
C1745 C 0.18381 0.77268 0.57153 0.0
C1746 C 0.17812 0.78797 0.58115 0.0
H1747 H 0.12663 0.86946 0.60063 0.0
H1748 H 0.16523 0.86232 0.59235 0.0
H1749 H 0.1223 0.83843 0.58991 0.0
H1750 H 0.11509 0.72622 0.59023 0.0
H1751 H 0.12569 0.69871 0.57365 0.0
H1752 H 0.80418 0.76433 0.32145 0.0
H1753 H 0.76272 0.77605 0.33573 0.0
H1754 H 0.85052 0.8322 0.35173 0.0
H1755 H 0.89243 0.8198 0.33751 0.0
H1756 H 0.82131 0.77369 0.36228 0.0
H1757 H 0.70852 0.86315 0.34838 0.0
H1758 H 0.71741 0.82581 0.33975 0.0
H1759 H 0.75262 0.86007 0.34199 0.0
C1760 C 0.81442 0.77975 0.32793 0.0
C1761 C 0.85156 0.79076 0.32843 0.0
C1762 C 0.7906 0.78692 0.33602 0.0
C1763 C 0.80348 0.80538 0.34472 0.0
C1764 C 0.84002 0.81827 0.34501 0.0
H1765 H 0.65954 0.80518 0.39875 0.0
H1766 H 0.70276 0.82813 0.38595 0.0
C1767 C 0.86387 0.81123 0.33689 0.0
C1768 C 0.78065 0.80526 0.35402 0.0
H1769 H 0.69306 0.82165 0.36239 0.0
C1770 C 0.79361 0.78505 0.36242 0.0
C1771 C 0.74464 0.82021 0.3542 0.0
C1772 C 0.73013 0.84385 0.34562 0.0
C1773 C 0.77047 0.77699 0.37066 0.0
C1774 C 0.73357 0.78932 0.37043 0.0
C1775 C 0.72135 0.81187 0.36243 0.0
C1776 C 0.70659 0.77612 0.37797 0.0
C1777 C 0.78502 0.7539 0.37936 0.0
C1778 C 0.69427 0.73946 0.37756 0.0
C1779 C 0.66922 0.72628 0.38476 0.0
C1780 C 0.65617 0.74958 0.39253 0.0
C1781 C 0.66849 0.78653 0.39282 0.0
C1782 C 0.69337 0.79973 0.38555 0.0
H1783 H 0.81569 0.7533 0.37948 0.0
H1784 H 0.77494 0.76464 0.38678 0.0
H1785 H 0.77482 0.72513 0.37852 0.0
H1786 H 0.70409 0.72103 0.37165 0.0
H1787 H 0.65993 0.69795 0.38419 0.0
H1788 H 0.70978 0.11609 0.63068 0.0
H1789 H 0.69753 0.17714 0.62341 0.0
H1790 H 0.77101 0.22647 0.6455 0.0
H1791 H 0.78201 0.16547 0.65303 0.0
H1792 H 0.71149 0.2677 0.64311 0.0
H1793 H 0.7665 0.23169 0.60506 0.0
H1794 H 0.7293 0.20175 0.6087 0.0
H1795 H 0.77164 0.20168 0.61593 0.0
C1796 C 0.7233 0.14004 0.63394 0.0
C1797 C 0.74706 0.13627 0.64232 0.0
C1798 C 0.71645 0.17481 0.62978 0.0
C1799 C 0.7341 0.20622 0.63375 0.0
C1800 C 0.75725 0.20256 0.64228 0.0
H1801 H 0.7501 0.40722 0.59839 0.0
H1802 H 0.76301 0.35146 0.6083 0.0
C1803 C 0.76353 0.16784 0.64657 0.0
C1804 C 0.72859 0.24282 0.62897 0.0
H1805 H 0.73268 0.28786 0.60618 0.0
C1806 C 0.71638 0.27226 0.63505 0.0
C1807 C 0.73571 0.24888 0.6185 0.0
C1808 C 0.7519 0.21942 0.6117 0.0
C1809 C 0.71047 0.30749 0.6309 0.0
C1810 C 0.71567 0.31297 0.62031 0.0
C1811 C 0.72834 0.2836 0.61428 0.0
C1812 C 0.70877 0.34887 0.61524 0.0
C1813 C 0.69955 0.33852 0.63794 0.0
C1814 C 0.67421 0.36631 0.61596 0.0
C1815 C 0.66721 0.39865 0.61047 0.0
C1816 C 0.69425 0.41321 0.60396 0.0
C1817 C 0.72883 0.39607 0.60332 0.0
C1818 C 0.73614 0.36435 0.60897 0.0
H1819 H 0.70848 0.33298 0.6459 0.0
H1820 H 0.71167 0.36524 0.63545 0.0
H1821 H 0.66904 0.34116 0.63796 0.0
H1822 H 0.65231 0.35437 0.62052 0.0
H1823 H 0.6403 0.41149 0.61096 0.0
H1824 H 0.13388 0.28991 0.89401 0.0
H1825 H 0.17961 0.30827 0.88121 0.0
H1826 H 0.23652 0.20492 0.8855 0.0
H1827 H 0.19195 0.18695 0.8985 0.0
H1828 H 0.28338 0.26851 0.88487 0.0
H1829 H 0.18407 0.26281 0.85236 0.0
H1830 H 0.17241 0.29148 0.86307 0.0
H1831 H 0.17368 0.24224 0.86457 0.0
C1832 C 0.15634 0.27126 0.8923 0.0
C1833 C 0.15911 0.23681 0.89723 0.0
C1834 C 0.18224 0.2817 0.88494 0.0
C1835 C 0.21114 0.25778 0.88238 0.0
C1836 C 0.2143 0.22371 0.88738 0.0
H1837 H 0.37258 0.19081 0.84291 0.0
H1838 H 0.33363 0.20877 0.85723 0.0
C1839 C 0.18854 0.2133 0.89473 0.0
C1840 C 0.23786 0.26715 0.87429 0.0
H1841 H 0.2467 0.26981 0.84843 0.0
C1842 C 0.27536 0.26957 0.87691 0.0
C1843 C 0.22716 0.2689 0.86394 0.0
C1844 C 0.1872 0.26606 0.86074 0.0
C1845 C 0.3027 0.27127 0.86937 0.0
C1846 C 0.29213 0.27007 0.85902 0.0
C1847 C 0.25457 0.27065 0.85641 0.0
C1848 C 0.31908 0.26204 0.8509 0.0
C1849 C 0.34271 0.2727 0.87255 0.0
C1850 C 0.32359 0.286 0.84259 0.0
C1851 C 0.34583 0.27567 0.83436 0.0
C1852 C 0.36317 0.24097 0.83429 0.0
C1853 C 0.3592 0.21751 0.84274 0.0
C1854 C 0.33736 0.22795 0.85097 0.0
H1855 H 0.34592 0.2856 0.88018 0.0
H1856 H 0.35366 0.24414 0.87301 0.0
H1857 H 0.35957 0.28837 0.86695 0.0
H1858 H 0.30925 0.31222 0.84237 0.0
H1859 H 0.34824 0.29409 0.82789 0.0
H1860 H 0.26489 0.71992 0.17258 0.0
H1861 H 0.24588 0.76187 0.15892 0.0
H1862 H 0.27351 0.67911 0.13657 0.0
H1863 H 0.29257 0.63716 0.15016 0.0
H1864 H 0.28855 0.78891 0.14332 0.0
H1865 H 0.16993 0.7098 0.12792 0.0
H1866 H 0.19025 0.69991 0.14019 0.0
H1867 H 0.21131 0.68277 0.12872 0.0
C1868 C 0.26693 0.7107 0.16476 0.0
C1869 C 0.28011 0.6752 0.16244 0.0
C1870 C 0.25586 0.73458 0.15698 0.0
C1871 C 0.25768 0.72329 0.14677 0.0
C1872 C 0.27094 0.68795 0.14443 0.0
H1873 H 0.28003 0.8478 0.09194 0.0
H1874 H 0.28744 0.81171 0.10752 0.0
C1875 C 0.28189 0.66404 0.1522 0.0
C1876 C 0.2478 0.74915 0.1385 0.0
H1877 H 0.19445 0.75761 0.11718 0.0
C1878 C 0.26767 0.78232 0.13767 0.0
C1879 C 0.22016 0.74069 0.13124 0.0
C1880 C 0.19641 0.70653 0.1321 0.0
C1881 C 0.26173 0.80657 0.12951 0.0
C1882 C 0.23574 0.79697 0.12191 0.0
C1883 C 0.2147 0.76462 0.12297 0.0
C1884 C 0.23112 0.81933 0.11259 0.0
C1885 C 0.28348 0.84214 0.12907 0.0
C1886 C 0.19672 0.83471 0.11016 0.0
C1887 C 0.19237 0.85531 0.10123 0.0
C1888 C 0.22235 0.86069 0.09458 0.0
C1889 C 0.25664 0.84484 0.09701 0.0
C1890 C 0.26093 0.82422 0.1059 0.0
H1891 H 0.29353 0.85045 0.13675 0.0
H1892 H 0.30794 0.83823 0.1241 0.0
H1893 H 0.2666 0.86494 0.12587 0.0
H1894 H 0.17334 0.831 0.11521 0.0
H1895 H 0.16571 0.86741 0.0996 0.0
H1896 H 0.80107 0.79401 0.91623 0.0
H1897 H 0.75617 0.79181 0.90227 0.0
H1898 H 0.82915 0.7213 0.88516 0.0
H1899 H 0.87436 0.72375 0.89902 0.0
H1900 H 0.8038 0.78894 0.87513 0.0
H1901 H 0.68986 0.70451 0.89158 0.0
H1902 H 0.7079 0.74078 0.89954 0.0
H1903 H 0.73674 0.70233 0.89628 0.0
C1904 C 0.80733 0.77779 0.90953 0.0
C1905 C 0.84119 0.75915 0.90868 0.0
C1906 C 0.7816 0.7763 0.90162 0.0
C1907 C 0.78939 0.75618 0.89277 0.0
C1908 C 0.82268 0.73673 0.892 0.0
H1909 H 0.6582 0.71541 0.83915 0.0
H1910 H 0.69722 0.71072 0.85424 0.0
C1911 C 0.84833 0.73799 0.89993 0.0
C1912 C 0.76423 0.7581 0.88397 0.0
H1913 H 0.67798 0.73432 0.8758 0.0
C1914 C 0.77633 0.77692 0.87524 0.0
C1915 C 0.72857 0.7423 0.88421 0.0
C1916 C 0.71491 0.72107 0.89337 0.0
C1917 C 0.75334 0.78075 0.86672 0.0
C1918 C 0.71746 0.76549 0.86702 0.0
C1919 C 0.7055 0.74623 0.87569 0.0
C1920 C 0.69241 0.76839 0.85823 0.0
C1921 C 0.76758 0.80074 0.85742 0.0
C1922 C 0.67659 0.80238 0.85561 0.0
C1923 C 0.65387 0.80516 0.84705 0.0
C1924 C 0.64673 0.77396 0.84097 0.0
C1925 C 0.6625 0.73988 0.84373 0.0
C1926 C 0.685 0.73712 0.85231 0.0
H1927 H 0.7978 0.80589 0.85783 0.0
H1928 H 0.7615 0.78458 0.85042 0.0
H1929 H 0.75337 0.82775 0.85671 0.0
H1930 H 0.68192 0.82672 0.86019 0.0
H1931 H 0.64177 0.83166 0.84523 0.0
H1932 H 0.69548 0.15291 0.09072 0.0
H1933 H 0.68464 0.17724 0.10788 0.0
H1934 H 0.80201 0.1916 0.11198 0.0
H1935 H 0.81311 0.16567 0.09523 0.0
H1936 H 0.76774 0.16737 0.1295 0.0
H1937 H 0.69342 0.28756 0.11247 0.0
H1938 H 0.67476 0.24222 0.11031 0.0
H1939 H 0.71808 0.25503 0.10464 0.0
C1940 C 0.71897 0.16064 0.09535 0.0
C1941 C 0.75515 0.15813 0.09149 0.0
C1942 C 0.7127 0.17474 0.10513 0.0
C1943 C 0.74249 0.18683 0.11112 0.0
C1944 C 0.77859 0.18255 0.10747 0.0
H1945 H 0.84184 0.33244 0.14729 0.0
H1946 H 0.81878 0.2759 0.13933 0.0
C1947 C 0.78487 0.16826 0.0978 0.0
C1948 C 0.73703 0.20729 0.12074 0.0
H1949 H 0.7155 0.2938 0.12901 0.0
C1950 C 0.75538 0.19463 0.12951 0.0
C1951 C 0.72052 0.24269 0.12078 0.0
C1952 C 0.70069 0.25795 0.11156 0.0
C1953 C 0.76088 0.21787 0.13792 0.0
C1954 C 0.7477 0.25447 0.13749 0.0
C1955 C 0.72574 0.26568 0.12925 0.0
C1956 C 0.76226 0.28356 0.14428 0.0
C1957 C 0.78276 0.20389 0.1469 0.0
C1958 C 0.73821 0.30633 0.14978 0.0
C1959 C 0.75141 0.33867 0.15432 0.0
C1960 C 0.78869 0.34894 0.15324 0.0
C1961 C 0.813 0.32514 0.14817 0.0
C1962 C 0.79991 0.29267 0.14374 0.0
H1963 H 0.77959 0.17352 0.14778 0.0
H1964 H 0.81249 0.20984 0.14564 0.0
H1965 H 0.77409 0.21761 0.15408 0.0
H1966 H 0.70898 0.30002 0.15013 0.0
H1967 H 0.732 0.35677 0.15809 0.0
loop_
_geom_bond_atom_site_label_1
_geom_bond_atom_site_label_2
_geom_bond_distance
_geom_bond_site_symmetry_2
_ccdc_geom_bond_type
C0 C1 1.351 . S
C0 N3 1.368 . S
C0 H5 0.931 . S
C1 C0 1.351 . S
C1 N2 1.373 . S
C1 H29 0.930 . S
N2 C1 1.373 . S
N2 C4 1.340 . S
N3 C0 1.368 . S
N3 C4 1.321 . S
N3 Co6 2.135 1_655 S
C4 N2 1.340 . S
C4 N3 1.321 . S
C4 H28 0.930 . S
H5 C0 0.931 . S
Co6 N3 2.135 1_455 S
Co6 N9 2.121 . S
Co6 O14 2.055 . S
Co6 O17 2.039 1_455 S
Co6 N20 2.140 . S
C7 O8 1.227 . S
C7 O17 1.265 1_455 S
O8 C7 1.227 . S
N9 Co6 2.121 . S
N9 C11 1.375 . S
N9 C12 1.313 . S
C10 C11 1.338 . S
C10 N13 1.377 . S
C10 H30 0.930 . S
C11 N9 1.375 . S
C11 C10 1.338 . S
C11 H15 0.931 . S
C12 N9 1.313 . S
C12 N13 1.344 . S
C12 H16 0.930 . S
N13 C10 1.377 . S
N13 C12 1.344 . S
O14 Co6 2.055 . S
O14 C18 1.253 . S
H15 C11 0.931 . S
H16 C12 0.930 . S
O17 Co6 2.039 1_655 S
O17 C7 1.265 1_655 S
C18 O14 1.253 . S
C18 O19 1.227 . S
O19 C18 1.227 . S
N20 Co6 2.140 . S
N20 C23 1.346 . S
N20 C24 1.345 . S
C21 C22 1.387 . S
C21 C25 1.391 . S
C22 C21 1.387 . S
C22 C23 1.369 . S
C22 H31 0.929 . S
C23 N20 1.346 . S
C23 C22 1.369 . S
C23 H26 0.928 . S
C24 N20 1.345 . S
C24 C25 1.371 . S
C24 H27 0.931 . S
C25 C21 1.391 . S
C25 C24 1.371 . S
C25 H32 0.930 . S
H26 C23 0.928 . S
H27 C24 0.931 . S
H28 C4 0.930 . S
H29 C1 0.930 . S
H30 C10 0.930 . S
H31 C22 0.929 . S
H32 C25 0.930 . S
C33 C34 1.351 . S
C33 N36 1.368 . S
C33 H38 0.931 . S
C34 C33 1.351 . S
C34 N35 1.373 . S
C34 H62 0.930 . S
N35 C34 1.373 . S
N35 C37 1.340 . S
N36 C33 1.368 . S
N36 C37 1.321 . S
N36 Co39 2.135 1_545 S
C37 N35 1.340 . S
C37 N36 1.321 . S
C37 H61 0.930 . S
H38 C33 0.931 . S
Co39 N36 2.135 1_565 S
Co39 N42 2.121 . S
Co39 O47 2.055 . S
Co39 O50 2.039 1_565 S
Co39 N53 2.140 . S
C40 O41 1.227 . S
C40 O50 1.265 1_565 S
O41 C40 1.227 . S
N42 Co39 2.121 . S
N42 C44 1.375 . S
N42 C45 1.313 . S
C43 C44 1.338 . S
C43 N46 1.377 . S
C43 H63 0.930 . S
C44 N42 1.375 . S
C44 C43 1.338 . S
C44 H48 0.931 . S
C45 N42 1.313 . S
C45 N46 1.344 . S
C45 H49 0.930 . S
N46 C43 1.377 . S
N46 C45 1.344 . S
O47 Co39 2.055 . S
O47 C51 1.253 . S
H48 C44 0.931 . S
H49 C45 0.930 . S
O50 Co39 2.039 1_545 S
O50 C40 1.265 1_545 S
C51 O47 1.253 . S
C51 O52 1.227 . S
O52 C51 1.227 . S
N53 Co39 2.140 . S
N53 C56 1.346 . S
N53 C57 1.345 . S
C54 C55 1.387 . S
C54 C58 1.391 . S
C55 C54 1.387 . S
C55 C56 1.369 . S
C55 H64 0.929 . S
C56 N53 1.346 . S
C56 C55 1.369 . S
C56 H59 0.928 . S
C57 N53 1.345 . S
C57 C58 1.371 . S
C57 H60 0.931 . S
C58 C54 1.391 . S
C58 C57 1.371 . S
C58 H65 0.930 . S
H59 C56 0.928 . S
H60 C57 0.931 . S
H61 C37 0.930 . S
H62 C34 0.930 . S
H63 C43 0.930 . S
H64 C55 0.929 . S
H65 C58 0.930 . S
C66 C67 1.351 . S
C66 N69 1.368 . S
C66 H71 0.931 . S
C67 C66 1.351 . S
C67 N68 1.373 . S
C67 H95 0.930 . S
N68 C67 1.373 . S
N68 C70 1.340 . S
N69 C66 1.368 . S
N69 C70 1.321 . S
N69 Co72 2.135 1_455 S
C70 N68 1.340 . S
C70 N69 1.321 . S
C70 H94 0.930 . S
H71 C66 0.931 . S
Co72 N69 2.135 1_655 S
Co72 N75 2.121 . S
Co72 O80 2.055 . S
Co72 O83 2.039 1_655 S
Co72 N86 2.140 . S
C73 O74 1.227 . S
C73 O83 1.265 1_655 S
O74 C73 1.227 . S
N75 Co72 2.121 . S
N75 C77 1.375 . S
N75 C78 1.313 . S
C76 C77 1.338 . S
C76 N79 1.377 . S
C76 H96 0.930 . S
C77 N75 1.375 . S
C77 C76 1.338 . S
C77 H81 0.931 . S
C78 N75 1.313 . S
C78 N79 1.344 . S
C78 H82 0.930 . S
N79 C76 1.377 . S
N79 C78 1.344 . S
O80 Co72 2.055 . S
O80 C84 1.253 . S
H81 C77 0.931 . S
H82 C78 0.930 . S
O83 Co72 2.039 1_455 S
O83 C73 1.265 1_455 S
C84 O80 1.253 . S
C84 O85 1.227 . S
O85 C84 1.227 . S
N86 Co72 2.140 . S
N86 C89 1.346 . S
N86 C90 1.345 . S
C87 C88 1.387 . S
C87 C91 1.391 . S
C88 C87 1.387 . S
C88 C89 1.369 . S
C88 H97 0.929 . S
C89 N86 1.346 . S
C89 C88 1.369 . S
C89 H92 0.928 . S
C90 N86 1.345 . S
C90 C91 1.371 . S
C90 H93 0.931 . S
C91 C87 1.391 . S
C91 C90 1.371 . S
C91 H98 0.930 . S
H92 C89 0.928 . S
H93 C90 0.931 . S
H94 C70 0.930 . S
H95 C67 0.930 . S
H96 C76 0.930 . S
H97 C88 0.929 . S
H98 C91 0.930 . S
C99 C100 1.351 . S
C99 N102 1.368 . S
C99 H104 0.931 . S
C100 C99 1.351 . S
C100 N101 1.373 . S
C100 H128 0.930 . S
N101 C100 1.373 . S
N101 C103 1.340 . S
N102 C99 1.368 . S
N102 C103 1.321 . S
N102 Co105 2.135 1_565 S
C103 N101 1.340 . S
C103 N102 1.321 . S
C103 H127 0.930 . S
H104 C99 0.931 . S
Co105 N102 2.135 1_545 S
Co105 N108 2.121 . S
Co105 O113 2.055 . S
Co105 O116 2.039 1_545 S
Co105 N119 2.140 . S
C106 O107 1.227 . S
C106 O116 1.265 1_545 S
O107 C106 1.227 . S
N108 Co105 2.121 . S
N108 C110 1.375 . S
N108 C111 1.313 . S
C109 C110 1.338 . S
C109 N112 1.377 . S
C109 H129 0.930 . S
C110 N108 1.375 . S
C110 C109 1.338 . S
C110 H114 0.931 . S
C111 N108 1.313 . S
C111 N112 1.344 . S
C111 H115 0.930 . S
N112 C109 1.377 . S
N112 C111 1.344 . S
O113 Co105 2.055 . S
O113 C117 1.253 . S
H114 C110 0.931 . S
H115 C111 0.930 . S
O116 Co105 2.039 1_565 S
O116 C106 1.265 1_565 S
C117 O113 1.253 . S
C117 O118 1.227 . S
O118 C117 1.227 . S
N119 Co105 2.140 . S
N119 C122 1.346 . S
N119 C123 1.345 . S
C120 C121 1.387 . S
C120 C124 1.391 . S
C121 C120 1.387 . S
C121 C122 1.369 . S
C121 H130 0.929 . S
C122 N119 1.346 . S
C122 C121 1.369 . S
C122 H125 0.928 . S
C123 N119 1.345 . S
C123 C124 1.371 . S
C123 H126 0.931 . S
C124 C120 1.391 . S
C124 C123 1.371 . S
C124 H131 0.930 . S
H125 C122 0.928 . S
H126 C123 0.931 . S
H127 C103 0.930 . S
H128 C100 0.930 . S
H129 C109 0.930 . S
H130 C121 0.929 . S
H131 C124 0.930 . S
C132 C133 1.351 . S
C132 N135 1.368 . S
C132 H137 0.931 . S
C133 C132 1.351 . S
C133 N134 1.373 . S
C133 H161 0.930 . S
N134 C133 1.373 . S
N134 C136 1.340 . S
N135 C132 1.368 . S
N135 C136 1.321 . S
N135 Co138 2.135 1_655 S
C136 N134 1.340 . S
C136 N135 1.321 . S
C136 H160 0.930 . S
H137 C132 0.931 . S
Co138 N135 2.135 1_455 S
Co138 N141 2.121 . S
Co138 O146 2.055 . S
Co138 O149 2.039 1_455 S
Co138 N152 2.140 . S
C139 O140 1.227 . S
C139 O149 1.265 1_455 S
O140 C139 1.227 . S
N141 Co138 2.121 . S
N141 C143 1.375 . S
N141 C144 1.313 . S
C142 C143 1.338 . S
C142 N145 1.377 . S
C142 H162 0.930 . S
C143 N141 1.375 . S
C143 C142 1.338 . S
C143 H147 0.931 . S
C144 N141 1.313 . S
C144 N145 1.344 . S
C144 H148 0.930 . S
N145 C142 1.377 . S
N145 C144 1.344 . S
O146 Co138 2.055 . S
O146 C150 1.253 . S
H147 C143 0.931 . S
H148 C144 0.930 . S
O149 Co138 2.039 1_655 S
O149 C139 1.265 1_655 S
C150 O146 1.253 . S
C150 O151 1.227 . S
O151 C150 1.227 . S
N152 Co138 2.140 . S
N152 C155 1.346 . S
N152 C156 1.345 . S
C153 C154 1.387 . S
C153 C157 1.391 . S
C154 C153 1.387 . S
C154 C155 1.369 . S
C154 H163 0.929 . S
C155 N152 1.346 . S
C155 C154 1.369 . S
C155 H158 0.928 . S
C156 N152 1.345 . S
C156 C157 1.371 . S
C156 H159 0.931 . S
C157 C153 1.391 . S
C157 C156 1.371 . S
C157 H164 0.930 . S
H158 C155 0.928 . S
H159 C156 0.931 . S
H160 C136 0.930 . S
H161 C133 0.930 . S
H162 C142 0.930 . S
H163 C154 0.929 . S
H164 C157 0.930 . S
C165 C166 1.351 . S
C165 N168 1.368 . S
C165 H170 0.931 . S
C166 C165 1.351 . S
C166 N167 1.373 . S
C166 H194 0.930 . S
N167 C166 1.373 . S
N167 C169 1.340 . S
N168 C165 1.368 . S
N168 C169 1.321 . S
N168 Co171 2.135 1_545 S
C169 N167 1.340 . S
C169 N168 1.321 . S
C169 H193 0.930 . S
H170 C165 0.931 . S
Co171 N168 2.135 1_565 S
Co171 N174 2.121 . S
Co171 O179 2.055 . S
Co171 O182 2.039 1_565 S
Co171 N185 2.140 . S
C172 O173 1.227 . S
C172 O182 1.265 1_565 S
O173 C172 1.227 . S
N174 Co171 2.121 . S
N174 C176 1.375 . S
N174 C177 1.313 . S
C175 C176 1.338 . S
C175 N178 1.377 . S
C175 H195 0.930 . S
C176 N174 1.375 . S
C176 C175 1.338 . S
C176 H180 0.931 . S
C177 N174 1.313 . S
C177 N178 1.344 . S
C177 H181 0.930 . S
N178 C175 1.377 . S
N178 C177 1.344 . S
O179 Co171 2.055 . S
O179 C183 1.253 . S
H180 C176 0.931 . S
H181 C177 0.930 . S
O182 Co171 2.039 1_545 S
O182 C172 1.265 1_545 S
C183 O179 1.253 . S
C183 O184 1.227 . S
O184 C183 1.227 . S
N185 Co171 2.140 . S
N185 C188 1.346 . S
N185 C189 1.345 . S
C186 C187 1.387 . S
C186 C190 1.391 . S
C187 C186 1.387 . S
C187 C188 1.369 . S
C187 H196 0.929 . S
C188 N185 1.346 . S
C188 C187 1.369 . S
C188 H191 0.928 . S
C189 N185 1.345 . S
C189 C190 1.371 . S
C189 H192 0.931 . S
C190 C186 1.391 . S
C190 C189 1.371 . S
C190 H197 0.930 . S
H191 C188 0.928 . S
H192 C189 0.931 . S
H193 C169 0.930 . S
H194 C166 0.930 . S
H195 C175 0.930 . S
H196 C187 0.929 . S
H197 C190 0.930 . S
C198 C199 1.351 . S
C198 N201 1.368 . S
C198 H203 0.931 . S
C199 C198 1.351 . S
C199 N200 1.373 . S
C199 H227 0.930 . S
N200 C199 1.373 . S
N200 C202 1.340 . S
N201 C198 1.368 . S
N201 C202 1.321 . S
N201 Co204 2.135 1_455 S
C202 N200 1.340 . S
C202 N201 1.321 . S
C202 H226 0.930 . S
H203 C198 0.931 . S
Co204 N201 2.135 1_655 S
Co204 N207 2.121 . S
Co204 O212 2.055 . S
Co204 O215 2.039 1_655 S
Co204 N218 2.140 . S
C205 O206 1.227 . S
C205 O215 1.265 1_655 S
O206 C205 1.227 . S
N207 Co204 2.121 . S
N207 C209 1.375 . S
N207 C210 1.313 . S
C208 C209 1.338 . S
C208 N211 1.377 . S
C208 H228 0.930 . S
C209 N207 1.375 . S
C209 C208 1.338 . S
C209 H213 0.931 . S
C210 N207 1.313 . S
C210 N211 1.344 . S
C210 H214 0.930 . S
N211 C208 1.377 . S
N211 C210 1.344 . S
O212 Co204 2.055 . S
O212 C216 1.253 . S
H213 C209 0.931 . S
H214 C210 0.930 . S
O215 Co204 2.039 1_455 S
O215 C205 1.265 1_455 S
C216 O212 1.253 . S
C216 O217 1.227 . S
O217 C216 1.227 . S
N218 Co204 2.140 . S
N218 C221 1.346 . S
N218 C222 1.345 . S
C219 C220 1.387 . S
C219 C223 1.391 . S
C220 C219 1.387 . S
C220 C221 1.369 . S
C220 H229 0.929 . S
C221 N218 1.346 . S
C221 C220 1.369 . S
C221 H224 0.928 . S
C222 N218 1.345 . S
C222 C223 1.371 . S
C222 H225 0.931 . S
C223 C219 1.391 . S
C223 C222 1.371 . S
C223 H230 0.930 . S
H224 C221 0.928 . S
H225 C222 0.931 . S
H226 C202 0.930 . S
H227 C199 0.930 . S
H228 C208 0.930 . S
H229 C220 0.929 . S
H230 C223 0.930 . S
C231 C232 1.351 . S
C231 N234 1.368 . S
C231 H236 0.931 . S
C232 C231 1.351 . S
C232 N233 1.373 . S
C232 H260 0.930 . S
N233 C232 1.373 . S
N233 C235 1.340 . S
N234 C231 1.368 . S
N234 C235 1.321 . S
N234 Co237 2.135 1_565 S
C235 N233 1.340 . S
C235 N234 1.321 . S
C235 H259 0.930 . S
H236 C231 0.931 . S
Co237 N234 2.135 1_545 S
Co237 N240 2.121 . S
Co237 O245 2.055 . S
Co237 O248 2.039 1_545 S
Co237 N251 2.140 . S
C238 O239 1.227 . S
C238 O248 1.265 1_545 S
O239 C238 1.227 . S
N240 Co237 2.121 . S
N240 C242 1.375 . S
N240 C243 1.313 . S
C241 C242 1.338 . S
C241 N244 1.377 . S
C241 H261 0.930 . S
C242 N240 1.375 . S
C242 C241 1.338 . S
C242 H246 0.931 . S
C243 N240 1.313 . S
C243 N244 1.344 . S
C243 H247 0.930 . S
N244 C241 1.377 . S
N244 C243 1.344 . S
O245 Co237 2.055 . S
O245 C249 1.253 . S
H246 C242 0.931 . S
H247 C243 0.930 . S
O248 Co237 2.039 1_565 S
O248 C238 1.265 1_565 S
C249 O245 1.253 . S
C249 O250 1.227 . S
O250 C249 1.227 . S
N251 Co237 2.140 . S
N251 C254 1.346 . S
N251 C255 1.345 . S
C252 C253 1.387 . S
C252 C256 1.391 . S
C253 C252 1.387 . S
C253 C254 1.369 . S
C253 H262 0.929 . S
C254 N251 1.346 . S
C254 C253 1.369 . S
C254 H257 0.928 . S
C255 N251 1.345 . S
C255 C256 1.371 . S
C255 H258 0.931 . S
C256 C252 1.391 . S
C256 C255 1.371 . S
C256 H263 0.930 . S
H257 C254 0.928 . S
H258 C255 0.931 . S
H259 C235 0.930 . S
H260 C232 0.930 . S
H261 C241 0.930 . S
H262 C253 0.929 . S
H263 C256 0.930 . S
C264 C265 1.351 . S
C264 N267 1.368 . S
C264 H269 0.931 . S
C265 C264 1.351 . S
C265 N266 1.373 . S
C265 H293 0.930 . S
N266 C265 1.373 . S
N266 C268 1.340 . S
N267 C264 1.368 . S
N267 C268 1.321 . S
N267 Co270 2.135 . S
C268 N266 1.340 . S
C268 N267 1.321 . S
C268 H292 0.930 . S
H269 C264 0.931 . S
Co270 N267 2.135 . S
Co270 N273 2.121 . S
Co270 O278 2.055 . S
Co270 O281 2.039 . S
Co270 N284 2.140 . S
C271 O272 1.227 . S
C271 O281 1.265 . S
O272 C271 1.227 . S
N273 Co270 2.121 . S
N273 C275 1.375 . S
N273 C276 1.313 . S
C274 C275 1.338 . S
C274 N277 1.377 . S
C274 H294 0.930 . S
C275 N273 1.375 . S
C275 C274 1.338 . S
C275 H279 0.931 . S
C276 N273 1.313 . S
C276 N277 1.344 . S
C276 H280 0.930 . S
N277 C274 1.377 . S
N277 C276 1.344 . S
O278 Co270 2.055 . S
O278 C282 1.253 . S
H279 C275 0.931 . S
H280 C276 0.930 . S
O281 Co270 2.039 . S
O281 C271 1.265 . S
C282 O278 1.253 . S
C282 O283 1.227 . S
O283 C282 1.227 . S
N284 Co270 2.140 . S
N284 C287 1.346 . S
N284 C288 1.345 . S
C285 C286 1.387 . S
C285 C289 1.391 . S
C286 C285 1.387 . S
C286 C287 1.369 . S
C286 H295 0.929 . S
C287 N284 1.346 . S
C287 C286 1.369 . S
C287 H290 0.928 . S
C288 N284 1.345 . S
C288 C289 1.371 . S
C288 H291 0.931 . S
C289 C285 1.391 . S
C289 C288 1.371 . S
C289 H296 0.930 . S
H290 C287 0.928 . S
H291 C288 0.931 . S
H292 C268 0.930 . S
H293 C265 0.930 . S
H294 C274 0.930 . S
H295 C286 0.929 . S
H296 C289 0.930 . S
C297 C298 1.351 . S
C297 N300 1.368 . S
C297 H302 0.931 . S
C298 C297 1.351 . S
C298 N299 1.373 . S
C298 H326 0.930 . S
N299 C298 1.373 . S
N299 C301 1.340 . S
N300 C297 1.368 . S
N300 C301 1.321 . S
N300 Co303 2.135 . S
C301 N299 1.340 . S
C301 N300 1.321 . S
C301 H325 0.930 . S
H302 C297 0.931 . S
Co303 N300 2.135 . S
Co303 N306 2.121 . S
Co303 O311 2.055 . S
Co303 O314 2.039 . S
Co303 N317 2.140 . S
C304 O305 1.227 . S
C304 O314 1.265 . S
O305 C304 1.227 . S
N306 Co303 2.121 . S
N306 C308 1.375 . S
N306 C309 1.313 . S
C307 C308 1.338 . S
C307 N310 1.377 . S
C307 H327 0.930 . S
C308 N306 1.375 . S
C308 C307 1.338 . S
C308 H312 0.931 . S
C309 N306 1.313 . S
C309 N310 1.344 . S
C309 H313 0.930 . S
N310 C307 1.377 . S
N310 C309 1.344 . S
O311 Co303 2.055 . S
O311 C315 1.253 . S
H312 C308 0.931 . S
H313 C309 0.930 . S
O314 Co303 2.039 . S
O314 C304 1.265 . S
C315 O311 1.253 . S
C315 O316 1.227 . S
O316 C315 1.227 . S
N317 Co303 2.140 . S
N317 C320 1.346 . S
N317 C321 1.345 . S
C318 C319 1.387 . S
C318 C322 1.391 . S
C319 C318 1.387 . S
C319 C320 1.369 . S
C319 H328 0.929 . S
C320 N317 1.346 . S
C320 C319 1.369 . S
C320 H323 0.928 . S
C321 N317 1.345 . S
C321 C322 1.371 . S
C321 H324 0.931 . S
C322 C318 1.391 . S
C322 C321 1.371 . S
C322 H329 0.930 . S
H323 C320 0.928 . S
H324 C321 0.931 . S
H325 C301 0.930 . S
H326 C298 0.930 . S
H327 C307 0.930 . S
H328 C319 0.929 . S
H329 C322 0.930 . S
C330 C331 1.351 . S
C330 N333 1.368 . S
C330 H335 0.931 . S
C331 C330 1.351 . S
C331 N332 1.373 . S
C331 H359 0.930 . S
N332 C331 1.373 . S
N332 C334 1.340 . S
N333 C330 1.368 . S
N333 C334 1.321 . S
N333 Co336 2.135 . S
C334 N332 1.340 . S
C334 N333 1.321 . S
C334 H358 0.930 . S
H335 C330 0.931 . S
Co336 N333 2.135 . S
Co336 N339 2.121 . S
Co336 O344 2.055 . S
Co336 O347 2.039 . S
Co336 N350 2.140 . S
C337 O338 1.227 . S
C337 O347 1.265 . S
O338 C337 1.227 . S
N339 Co336 2.121 . S
N339 C341 1.375 . S
N339 C342 1.313 . S
C340 C341 1.338 . S
C340 N343 1.377 . S
C340 H360 0.930 . S
C341 N339 1.375 . S
C341 C340 1.338 . S
C341 H345 0.931 . S
C342 N339 1.313 . S
C342 N343 1.344 . S
C342 H346 0.930 . S
N343 C340 1.377 . S
N343 C342 1.344 . S
O344 Co336 2.055 . S
O344 C348 1.253 . S
H345 C341 0.931 . S
H346 C342 0.930 . S
O347 Co336 2.039 . S
O347 C337 1.265 . S
C348 O344 1.253 . S
C348 O349 1.227 . S
O349 C348 1.227 . S
N350 Co336 2.140 . S
N350 C353 1.346 . S
N350 C354 1.345 . S
C351 C352 1.387 . S
C351 C355 1.391 . S
C352 C351 1.387 . S
C352 C353 1.369 . S
C352 H361 0.929 . S
C353 N350 1.346 . S
C353 C352 1.369 . S
C353 H356 0.928 . S
C354 N350 1.345 . S
C354 C355 1.371 . S
C354 H357 0.931 . S
C355 C351 1.391 . S
C355 C354 1.371 . S
C355 H362 0.930 . S
H356 C353 0.928 . S
H357 C354 0.931 . S
H358 C334 0.930 . S
H359 C331 0.930 . S
H360 C340 0.930 . S
H361 C352 0.929 . S
H362 C355 0.930 . S
C363 C364 1.351 . S
C363 N366 1.368 . S
C363 H368 0.931 . S
C364 C363 1.351 . S
C364 N365 1.373 . S
C364 H392 0.930 . S
N365 C364 1.373 . S
N365 C367 1.340 . S
N366 C363 1.368 . S
N366 C367 1.321 . S
N366 Co369 2.135 . S
C367 N365 1.340 . S
C367 N366 1.321 . S
C367 H391 0.930 . S
H368 C363 0.931 . S
Co369 N366 2.135 . S
Co369 N372 2.121 . S
Co369 O377 2.055 . S
Co369 O380 2.039 . S
Co369 N383 2.140 . S
C370 O371 1.227 . S
C370 O380 1.265 . S
O371 C370 1.227 . S
N372 Co369 2.121 . S
N372 C374 1.375 . S
N372 C375 1.313 . S
C373 C374 1.338 . S
C373 N376 1.377 . S
C373 H393 0.930 . S
C374 N372 1.375 . S
C374 C373 1.338 . S
C374 H378 0.931 . S
C375 N372 1.313 . S
C375 N376 1.344 . S
C375 H379 0.930 . S
N376 C373 1.377 . S
N376 C375 1.344 . S
O377 Co369 2.055 . S
O377 C381 1.253 . S
H378 C374 0.931 . S
H379 C375 0.930 . S
O380 Co369 2.039 . S
O380 C370 1.265 . S
C381 O377 1.253 . S
C381 O382 1.227 . S
O382 C381 1.227 . S
N383 Co369 2.140 . S
N383 C386 1.346 . S
N383 C387 1.345 . S
C384 C385 1.387 . S
C384 C388 1.391 . S
C385 C384 1.387 . S
C385 C386 1.369 . S
C385 H394 0.929 . S
C386 N383 1.346 . S
C386 C385 1.369 . S
C386 H389 0.928 . S
C387 N383 1.345 . S
C387 C388 1.371 . S
C387 H390 0.931 . S
C388 C384 1.391 . S
C388 C387 1.371 . S
C388 H395 0.930 . S
H389 C386 0.928 . S
H390 C387 0.931 . S
H391 C367 0.930 . S
H392 C364 0.930 . S
H393 C373 0.930 . S
H394 C385 0.929 . S
H395 C388 0.930 . S
C396 C397 1.351 . S
C396 N399 1.368 . S
C396 H401 0.931 . S
C397 C396 1.351 . S
C397 N398 1.373 . S
C397 H425 0.930 . S
N398 C397 1.373 . S
N398 C400 1.340 . S
N399 C396 1.368 . S
N399 C400 1.321 . S
N399 Co402 2.135 . S
C400 N398 1.340 . S
C400 N399 1.321 . S
C400 H424 0.930 . S
H401 C396 0.931 . S
Co402 N399 2.135 . S
Co402 N405 2.121 . S
Co402 O410 2.055 . S
Co402 O413 2.039 . S
Co402 N416 2.140 . S
C403 O404 1.227 . S
C403 O413 1.265 . S
O404 C403 1.227 . S
N405 Co402 2.121 . S
N405 C407 1.375 . S
N405 C408 1.313 . S
C406 C407 1.338 . S
C406 N409 1.377 . S
C406 H426 0.930 . S
C407 N405 1.375 . S
C407 C406 1.338 . S
C407 H411 0.931 . S
C408 N405 1.313 . S
C408 N409 1.344 . S
C408 H412 0.930 . S
N409 C406 1.377 . S
N409 C408 1.344 . S
O410 Co402 2.055 . S
O410 C414 1.253 . S
H411 C407 0.931 . S
H412 C408 0.930 . S
O413 Co402 2.039 . S
O413 C403 1.265 . S
C414 O410 1.253 . S
C414 O415 1.227 . S
O415 C414 1.227 . S
N416 Co402 2.140 . S
N416 C419 1.346 . S
N416 C420 1.345 . S
C417 C418 1.387 . S
C417 C421 1.391 . S
C418 C417 1.387 . S
C418 C419 1.369 . S
C418 H427 0.929 . S
C419 N416 1.346 . S
C419 C418 1.369 . S
C419 H422 0.928 . S
C420 N416 1.345 . S
C420 C421 1.371 . S
C420 H423 0.931 . S
C421 C417 1.391 . S
C421 C420 1.371 . S
C421 H428 0.930 . S
H422 C419 0.928 . S
H423 C420 0.931 . S
H424 C400 0.930 . S
H425 C397 0.930 . S
H426 C406 0.930 . S
H427 C418 0.929 . S
H428 C421 0.930 . S
C429 C430 1.351 . S
C429 N432 1.368 . S
C429 H434 0.931 . S
C430 C429 1.351 . S
C430 N431 1.373 . S
C430 H458 0.930 . S
N431 C430 1.373 . S
N431 C433 1.340 . S
N432 C429 1.368 . S
N432 C433 1.321 . S
N432 Co435 2.135 . S
C433 N431 1.340 . S
C433 N432 1.321 . S
C433 H457 0.930 . S
H434 C429 0.931 . S
Co435 N432 2.135 . S
Co435 N438 2.121 . S
Co435 O443 2.055 . S
Co435 O446 2.039 . S
Co435 N449 2.140 . S
C436 O437 1.227 . S
C436 O446 1.265 . S
O437 C436 1.227 . S
N438 Co435 2.121 . S
N438 C440 1.375 . S
N438 C441 1.313 . S
C439 C440 1.338 . S
C439 N442 1.377 . S
C439 H459 0.930 . S
C440 N438 1.375 . S
C440 C439 1.338 . S
C440 H444 0.931 . S
C441 N438 1.313 . S
C441 N442 1.344 . S
C441 H445 0.930 . S
N442 C439 1.377 . S
N442 C441 1.344 . S
O443 Co435 2.055 . S
O443 C447 1.253 . S
H444 C440 0.931 . S
H445 C441 0.930 . S
O446 Co435 2.039 . S
O446 C436 1.265 . S
C447 O443 1.253 . S
C447 O448 1.227 . S
O448 C447 1.227 . S
N449 Co435 2.140 . S
N449 C452 1.346 . S
N449 C453 1.345 . S
C450 C451 1.387 . S
C450 C454 1.391 . S
C451 C450 1.387 . S
C451 C452 1.369 . S
C451 H460 0.929 . S
C452 N449 1.346 . S
C452 C451 1.369 . S
C452 H455 0.928 . S
C453 N449 1.345 . S
C453 C454 1.371 . S
C453 H456 0.931 . S
C454 C450 1.391 . S
C454 C453 1.371 . S
C454 H461 0.930 . S
H455 C452 0.928 . S
H456 C453 0.931 . S
H457 C433 0.930 . S
H458 C430 0.930 . S
H459 C439 0.930 . S
H460 C451 0.929 . S
H461 C454 0.930 . S
C462 C463 1.351 . S
C462 N465 1.368 . S
C462 H467 0.931 . S
C463 C462 1.351 . S
C463 N464 1.373 . S
C463 H491 0.930 . S
N464 C463 1.373 . S
N464 C466 1.340 . S
N465 C462 1.368 . S
N465 C466 1.321 . S
N465 Co468 2.135 . S
C466 N464 1.340 . S
C466 N465 1.321 . S
C466 H490 0.930 . S
H467 C462 0.931 . S
Co468 N465 2.135 . S
Co468 N471 2.121 . S
Co468 O476 2.055 . S
Co468 O479 2.039 . S
Co468 N482 2.140 . S
C469 O470 1.227 . S
C469 O479 1.265 . S
O470 C469 1.227 . S
N471 Co468 2.121 . S
N471 C473 1.375 . S
N471 C474 1.313 . S
C472 C473 1.338 . S
C472 N475 1.377 . S
C472 H492 0.930 . S
C473 N471 1.375 . S
C473 C472 1.338 . S
C473 H477 0.931 . S
C474 N471 1.313 . S
C474 N475 1.344 . S
C474 H478 0.930 . S
N475 C472 1.377 . S
N475 C474 1.344 . S
O476 Co468 2.055 . S
O476 C480 1.253 . S
H477 C473 0.931 . S
H478 C474 0.930 . S
O479 Co468 2.039 . S
O479 C469 1.265 . S
C480 O476 1.253 . S
C480 O481 1.227 . S
O481 C480 1.227 . S
N482 Co468 2.140 . S
N482 C485 1.346 . S
N482 C486 1.345 . S
C483 C484 1.387 . S
C483 C487 1.391 . S
C484 C483 1.387 . S
C484 C485 1.369 . S
C484 H493 0.929 . S
C485 N482 1.346 . S
C485 C484 1.369 . S
C485 H488 0.928 . S
C486 N482 1.345 . S
C486 C487 1.371 . S
C486 H489 0.931 . S
C487 C483 1.391 . S
C487 C486 1.371 . S
C487 H494 0.930 . S
H488 C485 0.928 . S
H489 C486 0.931 . S
H490 C466 0.930 . S
H491 C463 0.930 . S
H492 C472 0.930 . S
H493 C484 0.929 . S
H494 C487 0.930 . S
C495 C496 1.351 . S
C495 N498 1.368 . S
C495 H500 0.931 . S
C496 C495 1.351 . S
C496 N497 1.373 . S
C496 H524 0.930 . S
N497 C496 1.373 . S
N497 C499 1.340 . S
N498 C495 1.368 . S
N498 C499 1.321 . S
N498 Co501 2.135 . S
C499 N497 1.340 . S
C499 N498 1.321 . S
C499 H523 0.930 . S
H500 C495 0.931 . S
Co501 N498 2.135 . S
Co501 N504 2.121 . S
Co501 O509 2.055 . S
Co501 O512 2.039 . S
Co501 N515 2.140 . S
C502 O503 1.227 . S
C502 O512 1.265 . S
O503 C502 1.227 . S
N504 Co501 2.121 . S
N504 C506 1.375 . S
N504 C507 1.313 . S
C505 C506 1.338 . S
C505 N508 1.377 . S
C505 H525 0.930 . S
C506 N504 1.375 . S
C506 C505 1.338 . S
C506 H510 0.931 . S
C507 N504 1.313 . S
C507 N508 1.344 . S
C507 H511 0.930 . S
N508 C505 1.377 . S
N508 C507 1.344 . S
O509 Co501 2.055 . S
O509 C513 1.253 . S
H510 C506 0.931 . S
H511 C507 0.930 . S
O512 Co501 2.039 . S
O512 C502 1.265 . S
C513 O509 1.253 . S
C513 O514 1.227 . S
O514 C513 1.227 . S
N515 Co501 2.140 . S
N515 C518 1.346 . S
N515 C519 1.345 . S
C516 C517 1.387 . S
C516 C520 1.391 . S
C517 C516 1.387 . S
C517 C518 1.369 . S
C517 H526 0.929 . S
C518 N515 1.346 . S
C518 C517 1.369 . S
C518 H521 0.928 . S
C519 N515 1.345 . S
C519 C520 1.371 . S
C519 H522 0.931 . S
C520 C516 1.391 . S
C520 C519 1.371 . S
C520 H527 0.930 . S
H521 C518 0.928 . S
H522 C519 0.931 . S
H523 C499 0.930 . S
H524 C496 0.930 . S
H525 C505 0.930 . S
H526 C517 0.929 . S
H527 C520 0.930 . S
H528 C536 0.929 . S
H529 C538 0.930 . S
H530 C540 0.930 . S
H531 C543 0.929 . S
H532 C546 0.930 . S
H533 C548 0.960 . S
H534 C548 0.960 . S
H535 C548 0.960 . S
C536 H528 0.929 . S
C536 C537 1.377 . S
C536 C538 1.384 . S
C537 C536 1.377 . S
C537 C543 1.390 . S
C538 H529 0.930 . S
C538 C536 1.384 . S
C538 C539 1.372 . S
C539 C538 1.372 . S
C539 C540 1.400 . S
C539 C544 1.490 . S
C540 H530 0.930 . S
C540 C539 1.400 . S
C540 C543 1.386 . S
H541 C557 0.930 . S
H542 C558 0.931 . S
C543 H531 0.929 . S
C543 C537 1.390 . S
C543 C540 1.386 . S
C544 C539 1.490 . S
C544 C546 1.395 . S
C544 C547 1.403 . S
H545 C551 0.930 . S
C546 H532 0.930 . S
C546 C544 1.395 . S
C546 C549 1.403 . S
C547 C544 1.403 . S
C547 C548 1.524 . S
C547 C551 1.400 . S
C548 H533 0.960 . S
C548 H534 0.960 . S
C548 H535 0.960 . S
C548 C547 1.524 . S
C549 C546 1.403 . S
C549 C550 1.392 . S
C549 C553 1.495 . S
C550 C549 1.392 . S
C550 C551 1.385 . S
C550 C552 1.478 . S
C551 H545 0.930 . S
C551 C547 1.400 . S
C551 C550 1.385 . S
C552 C550 1.478 . S
C552 C554 1.381 . S
C552 C558 1.383 . S
C553 C549 1.495 . S
C553 H559 0.959 . S
C553 H560 0.961 . S
C553 H561 0.960 . S
C554 C552 1.381 . S
C554 C555 1.394 . S
C554 H562 0.930 . S
C555 C554 1.394 . S
C555 C556 1.383 . S
C555 H563 0.929 . S
C556 C555 1.383 . S
C556 C557 1.377 . S
C557 H541 0.930 . S
C557 C556 1.377 . S
C557 C558 1.379 . S
C558 H542 0.931 . S
C558 C552 1.383 . S
C558 C557 1.379 . S
H559 C553 0.959 . S
H560 C553 0.961 . S
H561 C553 0.960 . S
H562 C554 0.930 . S
H563 C555 0.929 . S
H564 C572 0.929 . S
H565 C574 0.930 . S
H566 C576 0.930 . S
H567 C579 0.929 . S
H568 C582 0.930 . S
H569 C584 0.960 . S
H570 C584 0.960 . S
H571 C584 0.960 . S
C572 H564 0.929 . S
C572 C573 1.377 . S
C572 C574 1.384 . S
C573 C572 1.377 . S
C573 C579 1.390 . S
C574 H565 0.930 . S
C574 C572 1.384 . S
C574 C575 1.372 . S
C575 C574 1.372 . S
C575 C576 1.400 . S
C575 C580 1.490 . S
C576 H566 0.930 . S
C576 C575 1.400 . S
C576 C579 1.386 . S
H577 C593 0.930 . S
H578 C594 0.931 . S
C579 H567 0.929 . S
C579 C573 1.390 . S
C579 C576 1.386 . S
C580 C575 1.490 . S
C580 C582 1.395 . S
C580 C583 1.403 . S
H581 C587 0.930 . S
C582 H568 0.930 . S
C582 C580 1.395 . S
C582 C585 1.403 . S
C583 C580 1.403 . S
C583 C584 1.524 . S
C583 C587 1.400 . S
C584 H569 0.960 . S
C584 H570 0.960 . S
C584 H571 0.960 . S
C584 C583 1.524 . S
C585 C582 1.403 . S
C585 C586 1.392 . S
C585 C589 1.495 . S
C586 C585 1.392 . S
C586 C587 1.385 . S
C586 C588 1.478 . S
C587 H581 0.930 . S
C587 C583 1.400 . S
C587 C586 1.385 . S
C588 C586 1.478 . S
C588 C590 1.381 . S
C588 C594 1.383 . S
C589 C585 1.495 . S
C589 H595 0.959 . S
C589 H596 0.961 . S
C589 H597 0.960 . S
C590 C588 1.381 . S
C590 C591 1.394 . S
C590 H598 0.930 . S
C591 C590 1.394 . S
C591 C592 1.383 . S
C591 H599 0.929 . S
C592 C591 1.383 . S
C592 C593 1.377 . S
C593 H577 0.930 . S
C593 C592 1.377 . S
C593 C594 1.379 . S
C594 H578 0.931 . S
C594 C588 1.383 . S
C594 C593 1.379 . S
H595 C589 0.959 . S
H596 C589 0.961 . S
H597 C589 0.960 . S
H598 C590 0.930 . S
H599 C591 0.929 . S
H600 C608 0.929 . S
H601 C610 0.930 . S
H602 C612 0.930 . S
H603 C615 0.929 . S
H604 C618 0.930 . S
H605 C620 0.960 . S
H606 C620 0.960 . S
H607 C620 0.960 . S
C608 H600 0.929 . S
C608 C609 1.377 . S
C608 C610 1.384 . S
C609 C608 1.377 . S
C609 C615 1.390 . S
C610 H601 0.930 . S
C610 C608 1.384 . S
C610 C611 1.372 . S
C611 C610 1.372 . S
C611 C612 1.400 . S
C611 C616 1.490 . S
C612 H602 0.930 . S
C612 C611 1.400 . S
C612 C615 1.386 . S
H613 C629 0.930 . S
H614 C630 0.931 . S
C615 H603 0.929 . S
C615 C609 1.390 . S
C615 C612 1.386 . S
C616 C611 1.490 . S
C616 C618 1.395 . S
C616 C619 1.403 . S
H617 C623 0.930 . S
C618 H604 0.930 . S
C618 C616 1.395 . S
C618 C621 1.403 . S
C619 C616 1.403 . S
C619 C620 1.524 . S
C619 C623 1.400 . S
C620 H605 0.960 . S
C620 H606 0.960 . S
C620 H607 0.960 . S
C620 C619 1.524 . S
C621 C618 1.403 . S
C621 C622 1.392 . S
C621 C625 1.495 . S
C622 C621 1.392 . S
C622 C623 1.385 . S
C622 C624 1.478 . S
C623 H617 0.930 . S
C623 C619 1.400 . S
C623 C622 1.385 . S
C624 C622 1.478 . S
C624 C626 1.381 . S
C624 C630 1.383 . S
C625 C621 1.495 . S
C625 H631 0.959 . S
C625 H632 0.961 . S
C625 H633 0.960 . S
C626 C624 1.381 . S
C626 C627 1.394 . S
C626 H634 0.930 . S
C627 C626 1.394 . S
C627 C628 1.383 . S
C627 H635 0.929 . S
C628 C627 1.383 . S
C628 C629 1.377 . S
C629 H613 0.930 . S
C629 C628 1.377 . S
C629 C630 1.379 . S
C630 H614 0.931 . S
C630 C624 1.383 . S
C630 C629 1.379 . S
H631 C625 0.959 . S
H632 C625 0.961 . S
H633 C625 0.960 . S
H634 C626 0.930 . S
H635 C627 0.929 . S
H636 C644 0.929 . S
H637 C646 0.930 . S
H638 C648 0.930 . S
H639 C651 0.929 . S
H640 C654 0.930 . S
H641 C656 0.960 . S
H642 C656 0.960 . S
H643 C656 0.960 . S
C644 H636 0.929 . S
C644 C645 1.377 . S
C644 C646 1.384 . S
C645 C644 1.377 . S
C645 C651 1.390 . S
C646 H637 0.930 . S
C646 C644 1.384 . S
C646 C647 1.372 . S
C647 C646 1.372 . S
C647 C648 1.400 . S
C647 C652 1.490 . S
C648 H638 0.930 . S
C648 C647 1.400 . S
C648 C651 1.386 . S
H649 C665 0.930 . S
H650 C666 0.931 . S
C651 H639 0.929 . S
C651 C645 1.390 . S
C651 C648 1.386 . S
C652 C647 1.490 . S
C652 C654 1.395 . S
C652 C655 1.403 . S
H653 C659 0.930 . S
C654 H640 0.930 . S
C654 C652 1.395 . S
C654 C657 1.403 . S
C655 C652 1.403 . S
C655 C656 1.524 . S
C655 C659 1.400 . S
C656 H641 0.960 . S
C656 H642 0.960 . S
C656 H643 0.960 . S
C656 C655 1.524 . S
C657 C654 1.403 . S
C657 C658 1.392 . S
C657 C661 1.495 . S
C658 C657 1.392 . S
C658 C659 1.385 . S
C658 C660 1.478 . S
C659 H653 0.930 . S
C659 C655 1.400 . S
C659 C658 1.385 . S
C660 C658 1.478 . S
C660 C662 1.381 . S
C660 C666 1.383 . S
C661 C657 1.495 . S
C661 H667 0.959 . S
C661 H668 0.961 . S
C661 H669 0.960 . S
C662 C660 1.381 . S
C662 C663 1.394 . S
C662 H670 0.930 . S
C663 C662 1.394 . S
C663 C664 1.383 . S
C663 H671 0.929 . S
C664 C663 1.383 . S
C664 C665 1.377 . S
C665 H649 0.930 . S
C665 C664 1.377 . S
C665 C666 1.379 . S
C666 H650 0.931 . S
C666 C660 1.383 . S
C666 C665 1.379 . S
H667 C661 0.959 . S
H668 C661 0.961 . S
H669 C661 0.960 . S
H670 C662 0.930 . S
H671 C663 0.929 . S
H672 C680 0.929 . S
H673 C682 0.930 . S
H674 C684 0.930 . S
H675 C687 0.929 . S
H676 C690 0.930 . S
H677 C692 0.960 . S
H678 C692 0.960 . S
H679 C692 0.960 . S
C680 H672 0.929 . S
C680 C681 1.377 . S
C680 C682 1.384 . S
C681 C680 1.377 . S
C681 C687 1.390 . S
C682 H673 0.930 . S
C682 C680 1.384 . S
C682 C683 1.372 . S
C683 C682 1.372 . S
C683 C684 1.400 . S
C683 C688 1.490 . S
C684 H674 0.930 . S
C684 C683 1.400 . S
C684 C687 1.386 . S
H685 C701 0.930 . S
H686 C702 0.931 . S
C687 H675 0.929 . S
C687 C681 1.390 . S
C687 C684 1.386 . S
C688 C683 1.490 . S
C688 C690 1.395 . S
C688 C691 1.403 . S
H689 C695 0.930 . S
C690 H676 0.930 . S
C690 C688 1.395 . S
C690 C693 1.403 1_554 S
C691 C688 1.403 . S
C691 C692 1.524 . S
C691 C695 1.400 1_554 S
C692 H677 0.960 . S
C692 H678 0.960 . S
C692 H679 0.960 . S
C692 C691 1.524 . S
C693 C690 1.403 1_556 S
C693 C694 1.392 . S
C693 C697 1.495 . S
C694 C693 1.392 . S
C694 C695 1.385 . S
C694 C696 1.478 . S
C695 H689 0.930 . S
C695 C691 1.400 1_556 S
C695 C694 1.385 . S
C696 C694 1.478 . S
C696 C698 1.381 . S
C696 C702 1.383 . S
C697 C693 1.495 . S
C697 H703 1.017 . S
C697 H704 0.961 . S
C697 H705 0.960 . S
C698 C696 1.381 . S
C698 C699 1.394 . S
C698 H706 0.930 . S
C699 C698 1.394 . S
C699 C700 1.383 . S
C699 H707 0.929 . S
C700 C699 1.383 . S
C700 C701 1.377 . S
C701 H685 0.930 . S
C701 C700 1.377 . S
C701 C702 1.379 . S
C702 H686 0.931 . S
C702 C696 1.383 . S
C702 C701 1.379 . S
H703 C697 1.017 . S
H704 C697 0.961 . S
H705 C697 0.960 . S
H706 C698 0.930 . S
H707 C699 0.929 . S
H708 C716 0.929 . S
H709 C718 0.930 . S
H710 C720 0.930 . S
H711 C723 0.929 . S
H712 C726 0.930 . S
H713 C728 0.960 . S
H714 C728 0.960 . S
H715 C728 0.960 . S
C716 H708 0.929 . S
C716 C717 1.377 . S
C716 C718 1.384 . S
C717 C716 1.377 . S
C717 C723 1.390 . S
C718 H709 0.930 . S
C718 C716 1.384 . S
C718 C719 1.372 . S
C719 C718 1.372 . S
C719 C720 1.400 . S
C719 C724 1.490 . S
C720 H710 0.930 . S
C720 C719 1.400 . S
C720 C723 1.386 . S
H721 C737 0.930 . S
H722 C738 0.931 . S
C723 H711 0.929 . S
C723 C717 1.390 . S
C723 C720 1.386 . S
C724 C719 1.490 . S
C724 C726 1.395 . S
C724 C727 1.403 . S
H725 C731 0.962 . S
C726 H712 0.930 . S
C726 C724 1.395 . S
C726 C729 1.403 1_556 S
C727 C724 1.403 . S
C727 C728 1.524 . S
C727 C731 1.308 1_556 S
C728 H713 0.960 . S
C728 H714 0.960 . S
C728 H715 0.960 . S
C728 C727 1.524 . S
C729 C726 1.403 1_554 S
C729 C730 1.392 . S
C729 C733 1.495 . S
C730 C729 1.392 . S
C730 C731 1.456 . S
C730 C732 1.478 . S
C731 H725 0.962 . S
C731 C727 1.308 1_554 S
C731 C730 1.456 . S
C732 C730 1.478 . S
C732 C734 1.381 . S
C732 C738 1.383 . S
C733 C729 1.495 . S
C733 H739 0.959 . S
C733 H740 0.961 . S
C733 H741 0.960 . S
C734 C732 1.381 . S
C734 C735 1.394 . S
C734 H742 0.930 . S
C735 C734 1.394 . S
C735 C736 1.383 . S
C735 H743 0.929 . S
C736 C735 1.383 . S
C736 C737 1.377 . S
C737 H721 0.930 . S
C737 C736 1.377 . S
C737 C738 1.379 . S
C738 H722 0.931 . S
C738 C732 1.383 . S
C738 C737 1.379 . S
H739 C733 0.959 . S
H740 C733 0.961 . S
H741 C733 0.960 . S
H742 C734 0.930 . S
H743 C735 0.929 . S
H744 C752 0.929 . S
H745 C754 0.930 . S
H746 C756 0.930 . S
H747 C759 0.929 . S
H748 C762 0.930 . S
H749 C764 0.920 1_554 S
H750 C764 0.960 . S
H751 C764 0.960 . S
C752 H744 0.929 . S
C752 C753 1.377 . S
C752 C754 1.384 . S
C753 C752 1.377 . S
C753 C759 1.390 . S
C754 H745 0.930 . S
C754 C752 1.384 . S
C754 C755 1.372 . S
C755 C754 1.372 . S
C755 C756 1.400 . S
C755 C760 1.490 . S
C756 H746 0.930 . S
C756 C755 1.400 . S
C756 C759 1.386 . S
H757 C773 0.930 . S
H758 C774 0.931 . S
C759 H747 0.929 . S
C759 C753 1.390 . S
C759 C756 1.386 . S
C760 C755 1.490 . S
C760 C762 1.395 . S
C760 C763 1.403 . S
H761 C767 0.930 . S
C762 H748 0.930 . S
C762 C760 1.395 . S
C762 C765 1.403 1_556 S
C763 C760 1.403 . S
C763 C764 1.524 . S
C763 C767 1.400 1_556 S
C764 H749 0.920 1_556 S
C764 H750 0.960 . S
C764 H751 0.960 . S
C764 C763 1.524 . S
C765 C762 1.403 1_554 S
C765 C766 1.392 . S
C765 C769 1.495 . S
C766 C765 1.392 . S
C766 C767 1.385 . S
C766 C768 1.478 . S
C767 H761 0.930 . S
C767 C763 1.400 1_554 S
C767 C766 1.385 . S
C768 C766 1.478 . S
C768 C770 1.381 . S
C768 C774 1.383 . S
C769 C765 1.495 . S
C769 H775 0.959 . S
C769 H776 0.961 . S
C769 H777 0.960 . S
C770 C768 1.381 . S
C770 C771 1.394 . S
C770 H778 0.930 . S
C771 C770 1.394 . S
C771 C772 1.383 . S
C771 H779 0.929 . S
C772 C771 1.383 . S
C772 C773 1.377 . S
C773 H757 0.930 . S
C773 C772 1.377 . S
C773 C774 1.379 . S
C774 H758 0.931 . S
C774 C768 1.383 . S
C774 C773 1.379 . S
H775 C769 0.959 . S
H776 C769 0.961 . S
H777 C769 0.960 . S
H778 C770 0.930 . S
H779 C771 0.929 . S
H780 C788 0.929 . S
H781 C790 0.930 . S
H782 C792 0.930 . S
H783 C795 0.929 . S
H784 C798 0.930 . S
H785 C800 0.960 . S
H786 C800 0.960 . S
H787 C800 0.960 . S
C788 H780 0.929 . S
C788 C789 1.377 . S
C788 C790 1.384 . S
C789 C788 1.377 . S
C789 C795 1.390 . S
C790 H781 0.930 . S
C790 C788 1.384 . S
C790 C791 1.372 . S
C791 C790 1.372 . S
C791 C792 1.400 . S
C791 C796 1.490 . S
C792 H782 0.930 . S
C792 C791 1.400 . S
C792 C795 1.386 . S
H793 C809 0.930 . S
H794 C810 0.931 . S
C795 H783 0.929 . S
C795 C789 1.390 . S
C795 C792 1.386 . S
C796 C791 1.490 . S
C796 C798 1.395 . S
C796 C799 1.403 1_554 S
H797 C803 0.930 . S
C798 H784 0.930 . S
C798 C796 1.395 . S
C798 C801 1.436 . S
C799 C796 1.403 1_556 S
C799 C800 1.524 . S
C799 C803 1.400 . S
C800 H785 0.960 . S
C800 H786 0.960 . S
C800 H787 0.960 . S
C800 C799 1.524 . S
C801 C798 1.436 . S
C801 C802 1.353 1_554 S
C801 C805 1.503 . S
C802 C801 1.353 1_556 S
C802 C803 1.385 . S
C802 C804 1.478 . S
C803 H797 0.930 . S
C803 C799 1.400 . S
C803 C802 1.385 . S
C804 C802 1.478 . S
C804 C806 1.381 . S
C804 C810 1.383 . S
C805 C801 1.503 . S
C805 H811 0.959 . S
C805 H812 0.954 1_554 S
C805 H813 0.924 1_554 S
C806 C804 1.381 . S
C806 C807 1.394 . S
C806 H814 0.930 . S
C807 C806 1.394 . S
C807 C808 1.383 . S
C807 H815 0.929 . S
C808 C807 1.383 . S
C808 C809 1.377 . S
C809 H793 0.930 . S
C809 C808 1.377 . S
C809 C810 1.379 . S
C810 H794 0.931 . S
C810 C804 1.383 . S
C810 C809 1.379 . S
H811 C805 0.959 . S
H812 C805 0.954 1_556 S
H813 C805 0.924 1_556 S
H814 C806 0.930 . S
H815 C807 0.929 . S
H816 C824 0.929 . S
H817 C826 0.930 . S
H818 C828 0.930 . S
H819 C831 0.929 . S
H820 C834 0.930 . S
H821 C836 0.960 . S
H822 C836 0.960 . S
H823 C836 0.960 . S
C824 H816 0.929 . S
C824 C825 1.377 . S
C824 C826 1.384 . S
C825 C824 1.377 . S
C825 C831 1.390 . S
C826 H817 0.930 . S
C826 C824 1.384 . S
C826 C827 1.372 . S
C827 C826 1.372 . S
C827 C828 1.400 . S
C827 C832 1.490 . S
C828 H818 0.930 . S
C828 C827 1.400 . S
C828 C831 1.386 . S
H829 C845 0.930 . S
H830 C846 0.931 . S
C831 H819 0.929 . S
C831 C825 1.390 . S
C831 C828 1.386 . S
C832 C827 1.490 . S
C832 C834 1.395 . S
C832 C835 1.403 . S
H833 C839 0.930 . S
C834 H820 0.930 . S
C834 C832 1.395 . S
C834 C837 1.403 . S
C835 C832 1.403 . S
C835 C836 1.524 . S
C835 C839 1.400 . S
C836 H821 0.960 . S
C836 H822 0.960 . S
C836 H823 0.960 . S
C836 C835 1.524 . S
C837 C834 1.403 . S
C837 C838 1.392 . S
C837 C841 1.495 . S
C838 C837 1.392 . S
C838 C839 1.385 . S
C838 C840 1.478 . S
C839 H833 0.930 . S
C839 C835 1.400 . S
C839 C838 1.385 . S
C840 C838 1.478 . S
C840 C842 1.381 . S
C840 C846 1.383 . S
C841 C837 1.495 . S
C841 H847 0.959 . S
C841 H848 0.961 . S
C841 H849 0.960 . S
C842 C840 1.381 . S
C842 C843 1.394 . S
C842 H850 0.930 . S
C843 C842 1.394 . S
C843 C844 1.383 . S
C843 H851 0.929 . S
C844 C843 1.383 . S
C844 C845 1.377 . S
C845 H829 0.930 . S
C845 C844 1.377 . S
C845 C846 1.379 . S
C846 H830 0.931 . S
C846 C840 1.383 . S
C846 C845 1.379 . S
H847 C841 0.959 . S
H848 C841 0.961 . S
H849 C841 0.960 . S
H850 C842 0.930 . S
H851 C843 0.929 . S
H852 C860 0.929 . S
H853 C862 0.930 . S
H854 C864 0.930 . S
H855 C867 0.929 . S
H856 C870 0.930 . S
H857 C872 0.960 . S
H858 C872 0.960 . S
H859 C872 0.960 . S
C860 H852 0.929 . S
C860 C861 1.377 . S
C860 C862 1.384 . S
C861 C860 1.377 . S
C861 C867 1.390 . S
C862 H853 0.930 . S
C862 C860 1.384 . S
C862 C863 1.372 . S
C863 C862 1.372 . S
C863 C864 1.400 . S
C863 C868 1.490 . S
C864 H854 0.930 . S
C864 C863 1.400 . S
C864 C867 1.386 . S
H865 C881 0.930 . S
H866 C882 0.931 . S
C867 H855 0.929 . S
C867 C861 1.390 . S
C867 C864 1.386 . S
C868 C863 1.490 . S
C868 C870 1.395 . S
C868 C871 1.403 . S
H869 C875 0.930 . S
C870 H856 0.930 . S
C870 C868 1.395 . S
C870 C873 1.403 . S
C871 C868 1.403 . S
C871 C872 1.524 . S
C871 C875 1.400 . S
C872 H857 0.960 . S
C872 H858 0.960 . S
C872 H859 0.960 . S
C872 C871 1.524 . S
C873 C870 1.403 . S
C873 C874 1.392 . S
C873 C877 1.495 . S
C874 C873 1.392 . S
C874 C875 1.385 . S
C874 C876 1.478 . S
C875 H869 0.930 . S
C875 C871 1.400 . S
C875 C874 1.385 . S
C876 C874 1.478 . S
C876 C878 1.381 . S
C876 C882 1.383 . S
C877 C873 1.495 . S
C877 H883 0.959 . S
C877 H884 0.961 . S
C877 H885 0.960 . S
C878 C876 1.381 . S
C878 C879 1.394 . S
C878 H886 0.930 . S
C879 C878 1.394 . S
C879 C880 1.383 . S
C879 H887 0.929 . S
C880 C879 1.383 . S
C880 C881 1.377 . S
C881 H865 0.930 . S
C881 C880 1.377 . S
C881 C882 1.379 . S
C882 H866 0.931 . S
C882 C876 1.383 . S
C882 C881 1.379 . S
H883 C877 0.959 . S
H884 C877 0.961 . S
H885 C877 0.960 . S
H886 C878 0.930 . S
H887 C879 0.929 . S
H888 C896 0.929 . S
H889 C898 0.930 . S
H890 C900 0.930 . S
H891 C903 0.929 . S
H892 C906 0.930 . S
H893 C908 0.960 . S
H894 C908 0.960 . S
H895 C908 0.960 . S
C896 H888 0.929 . S
C896 C897 1.377 . S
C896 C898 1.384 . S
C897 C896 1.377 . S
C897 C903 1.390 . S
C898 H889 0.930 . S
C898 C896 1.384 . S
C898 C899 1.372 . S
C899 C898 1.372 . S
C899 C900 1.400 . S
C899 C904 1.490 . S
C900 H890 0.930 . S
C900 C899 1.400 . S
C900 C903 1.386 . S
H901 C917 0.930 . S
H902 C918 0.931 . S
C903 H891 0.929 . S
C903 C897 1.390 . S
C903 C900 1.386 . S
C904 C899 1.490 . S
C904 C906 1.395 . S
C904 C907 1.403 . S
H905 C911 0.930 . S
C906 H892 0.930 . S
C906 C904 1.395 . S
C906 C909 1.403 . S
C907 C904 1.403 . S
C907 C908 1.524 . S
C907 C911 1.400 . S
C908 H893 0.960 . S
C908 H894 0.960 . S
C908 H895 0.960 . S
C908 C907 1.524 . S
C909 C906 1.403 . S
C909 C910 1.392 . S
C909 C913 1.495 . S
C910 C909 1.392 . S
C910 C911 1.385 . S
C910 C912 1.478 . S
C911 H905 0.930 . S
C911 C907 1.400 . S
C911 C910 1.385 . S
C912 C910 1.478 . S
C912 C914 1.381 . S
C912 C918 1.383 . S
C913 C909 1.495 . S
C913 H919 0.959 . S
C913 H920 0.961 . S
C913 H921 0.960 . S
C914 C912 1.381 . S
C914 C915 1.394 . S
C914 H922 0.930 . S
C915 C914 1.394 . S
C915 C916 1.383 . S
C915 H923 0.929 . S
C916 C915 1.383 . S
C916 C917 1.377 . S
C917 H901 0.930 . S
C917 C916 1.377 . S
C917 C918 1.379 . S
C918 H902 0.931 . S
C918 C912 1.383 . S
C918 C917 1.379 . S
H919 C913 0.959 . S
H920 C913 0.961 . S
H921 C913 0.960 . S
H922 C914 0.930 . S
H923 C915 0.929 . S
H924 C932 0.929 . S
H925 C934 0.930 . S
H926 C936 0.930 . S
H927 C939 0.929 . S
H928 C942 0.930 . S
H929 C944 0.960 . S
H930 C944 0.960 . S
H931 C944 0.960 . S
C932 H924 0.929 . S
C932 C933 1.377 . S
C932 C934 1.384 . S
C933 C932 1.377 . S
C933 C939 1.390 . S
C934 H925 0.930 . S
C934 C932 1.384 . S
C934 C935 1.372 . S
C935 C934 1.372 . S
C935 C936 1.400 . S
C935 C940 1.490 . S
C936 H926 0.930 . S
C936 C935 1.400 . S
C936 C939 1.386 . S
H937 C953 0.930 . S
H938 C954 0.931 . S
C939 H927 0.929 . S
C939 C933 1.390 . S
C939 C936 1.386 . S
C940 C935 1.490 . S
C940 C942 1.395 . S
C940 C943 1.403 . S
H941 C947 0.930 . S
C942 H928 0.930 . S
C942 C940 1.395 . S
C942 C945 1.403 . S
C943 C940 1.403 . S
C943 C944 1.524 . S
C943 C947 1.400 . S
C944 H929 0.960 . S
C944 H930 0.960 . S
C944 H931 0.960 . S
C944 C943 1.524 . S
C945 C942 1.403 . S
C945 C946 1.392 . S
C945 C949 1.495 . S
C946 C945 1.392 . S
C946 C947 1.385 . S
C946 C948 1.478 . S
C947 H941 0.930 . S
C947 C943 1.400 . S
C947 C946 1.385 . S
C948 C946 1.478 . S
C948 C950 1.381 . S
C948 C954 1.383 . S
C949 C945 1.495 . S
C949 H955 0.959 . S
C949 H956 0.961 . S
C949 H957 0.960 . S
C950 C948 1.381 . S
C950 C951 1.394 . S
C950 H958 0.930 . S
C951 C950 1.394 . S
C951 C952 1.383 . S
C951 H959 0.929 . S
C952 C951 1.383 . S
C952 C953 1.377 . S
C953 H937 0.930 . S
C953 C952 1.377 . S
C953 C954 1.379 . S
C954 H938 0.931 . S
C954 C948 1.383 . S
C954 C953 1.379 . S
H955 C949 0.959 . S
H956 C949 0.961 . S
H957 C949 0.960 . S
H958 C950 0.930 . S
H959 C951 0.929 . S
H960 C968 0.929 . S
H961 C970 0.930 . S
H962 C972 0.930 . S
H963 C975 0.929 . S
H964 C978 0.930 . S
H965 C980 0.960 . S
H966 C980 0.960 . S
H967 C980 0.960 . S
C968 H960 0.929 . S
C968 C969 1.377 . S
C968 C970 1.384 . S
C969 C968 1.377 . S
C969 C975 1.390 . S
C970 H961 0.930 . S
C970 C968 1.384 . S
C970 C971 1.372 . S
C971 C970 1.372 . S
C971 C972 1.400 . S
C971 C976 1.490 . S
C972 H962 0.930 . S
C972 C971 1.400 . S
C972 C975 1.386 . S
H973 C989 0.930 . S
H974 C990 0.931 . S
C975 H963 0.929 . S
C975 C969 1.390 . S
C975 C972 1.386 . S
C976 C971 1.490 . S
C976 C978 1.395 . S
C976 C979 1.403 . S
H977 C983 0.930 . S
C978 H964 0.930 . S
C978 C976 1.395 . S
C978 C981 1.403 . S
C979 C976 1.403 . S
C979 C980 1.524 . S
C979 C983 1.400 . S
C980 H965 0.960 . S
C980 H966 0.960 . S
C980 H967 0.960 . S
C980 C979 1.524 . S
C981 C978 1.403 . S
C981 C982 1.392 . S
C981 C985 1.495 . S
C982 C981 1.392 . S
C982 C983 1.385 . S
C982 C984 1.478 . S
C983 H977 0.930 . S
C983 C979 1.400 . S
C983 C982 1.385 . S
C984 C982 1.478 . S
C984 C986 1.381 . S
C984 C990 1.383 . S
C985 C981 1.495 . S
C985 H991 0.959 . S
C985 H992 0.961 . S
C985 H993 0.960 . S
C986 C984 1.381 . S
C986 C987 1.394 . S
C986 H994 0.930 . S
C987 C986 1.394 . S
C987 C988 1.383 . S
C987 H995 0.929 . S
C988 C987 1.383 . S
C988 C989 1.377 . S
C989 H973 0.930 . S
C989 C988 1.377 . S
C989 C990 1.379 . S
C990 H974 0.931 . S
C990 C984 1.383 . S
C990 C989 1.379 . S
H991 C985 0.959 . S
H992 C985 0.961 . S
H993 C985 0.960 . S
H994 C986 0.930 . S
H995 C987 0.929 . S
H996 C1004 0.929 . S
H997 C1006 0.930 . S
H998 C1008 0.930 . S
H999 C1011 0.929 . S
H1000 C1014 0.930 . S
H1001 C1016 0.960 . S
H1002 C1016 0.960 . S
H1003 C1016 0.960 . S
C1004 H996 0.929 . S
C1004 C1005 1.377 . S
C1004 C1006 1.384 . S
C1005 C1004 1.377 . S
C1005 C1011 1.390 . S
C1006 H997 0.930 . S
C1006 C1004 1.384 . S
C1006 C1007 1.372 . S
C1007 C1006 1.372 . S
C1007 C1008 1.400 . S
C1007 C1012 1.490 . S
C1008 H998 0.930 . S
C1008 C1007 1.400 . S
C1008 C1011 1.386 . S
H1009 C1025 0.930 . S
H1010 C1026 0.931 . S
C1011 H999 0.929 . S
C1011 C1005 1.390 . S
C1011 C1008 1.386 . S
C1012 C1007 1.490 . S
C1012 C1014 1.395 . S
C1012 C1015 1.403 . S
H1013 C1019 0.930 . S
C1014 H1000 0.930 . S
C1014 C1012 1.395 . S
C1014 C1017 1.403 . S
C1015 C1012 1.403 . S
C1015 C1016 1.524 . S
C1015 C1019 1.400 . S
C1016 H1001 0.960 . S
C1016 H1002 0.960 . S
C1016 H1003 0.960 . S
C1016 C1015 1.524 . S
C1017 C1014 1.403 . S
C1017 C1018 1.392 . S
C1017 C1021 1.495 . S
C1018 C1017 1.392 . S
C1018 C1019 1.385 . S
C1018 C1020 1.478 . S
C1019 H1013 0.930 . S
C1019 C1015 1.400 . S
C1019 C1018 1.385 . S
C1020 C1018 1.478 . S
C1020 C1022 1.381 . S
C1020 C1026 1.383 . S
C1021 C1017 1.495 . S
C1021 H1027 0.959 . S
C1021 H1028 0.961 . S
C1021 H1029 0.960 . S
C1022 C1020 1.381 . S
C1022 C1023 1.394 . S
C1022 H1030 0.930 . S
C1023 C1022 1.394 . S
C1023 C1024 1.383 . S
C1023 H1031 0.929 . S
C1024 C1023 1.383 . S
C1024 C1025 1.377 . S
C1025 H1009 0.930 . S
C1025 C1024 1.377 . S
C1025 C1026 1.379 . S
C1026 H1010 0.931 . S
C1026 C1020 1.383 . S
C1026 C1025 1.379 . S
H1027 C1021 0.959 . S
H1028 C1021 0.961 . S
H1029 C1021 0.960 . S
H1030 C1022 0.930 . S
H1031 C1023 0.929 . S
H1032 C1040 0.929 . S
H1033 C1042 0.930 . S
H1034 C1044 0.930 . S
H1035 C1047 0.929 . S
H1036 C1050 0.930 . S
H1037 C1052 0.960 . S
H1038 C1052 0.960 . S
H1039 C1052 0.960 . S
C1040 H1032 0.929 . S
C1040 C1041 1.377 . S
C1040 C1042 1.384 . S
C1041 C1040 1.377 . S
C1041 C1047 1.390 . S
C1042 H1033 0.930 . S
C1042 C1040 1.384 . S
C1042 C1043 1.372 . S
C1043 C1042 1.372 . S
C1043 C1044 1.400 . S
C1043 C1048 1.490 . S
C1044 H1034 0.930 . S
C1044 C1043 1.400 . S
C1044 C1047 1.386 . S
H1045 C1061 0.930 . S
H1046 C1062 0.931 . S
C1047 H1035 0.929 . S
C1047 C1041 1.390 . S
C1047 C1044 1.386 . S
C1048 C1043 1.490 . S
C1048 C1050 1.395 . S
C1048 C1051 1.403 . S
H1049 C1055 0.930 . S
C1050 H1036 0.930 . S
C1050 C1048 1.395 . S
C1050 C1053 1.403 . S
C1051 C1048 1.403 . S
C1051 C1052 1.524 . S
C1051 C1055 1.400 . S
C1052 H1037 0.960 . S
C1052 H1038 0.960 . S
C1052 H1039 0.960 . S
C1052 C1051 1.524 . S
C1053 C1050 1.403 . S
C1053 C1054 1.392 . S
C1053 C1057 1.495 . S
C1054 C1053 1.392 . S
C1054 C1055 1.385 . S
C1054 C1056 1.478 . S
C1055 H1049 0.930 . S
C1055 C1051 1.400 . S
C1055 C1054 1.385 . S
C1056 C1054 1.478 . S
C1056 C1058 1.381 . S
C1056 C1062 1.383 . S
C1057 C1053 1.495 . S
C1057 H1063 0.959 . S
C1057 H1064 0.961 . S
C1057 H1065 0.960 . S
C1058 C1056 1.381 . S
C1058 C1059 1.394 . S
C1058 H1066 0.930 . S
C1059 C1058 1.394 . S
C1059 C1060 1.383 . S
C1059 H1067 0.929 . S
C1060 C1059 1.383 . S
C1060 C1061 1.377 . S
C1061 H1045 0.930 . S
C1061 C1060 1.377 . S
C1061 C1062 1.379 . S
C1062 H1046 0.931 . S
C1062 C1056 1.383 . S
C1062 C1061 1.379 . S
H1063 C1057 0.959 . S
H1064 C1057 0.961 . S
H1065 C1057 0.960 . S
H1066 C1058 0.930 . S
H1067 C1059 0.929 . S
H1068 C1076 0.929 . S
H1069 C1078 0.930 . S
H1070 C1080 0.930 . S
H1071 C1083 0.929 . S
H1072 C1086 0.930 . S
H1073 C1088 0.960 . S
H1074 C1088 0.960 . S
H1075 C1088 0.960 . S
C1076 H1068 0.929 . S
C1076 C1077 1.377 . S
C1076 C1078 1.384 . S
C1077 C1076 1.377 . S
C1077 C1083 1.390 . S
C1078 H1069 0.930 . S
C1078 C1076 1.384 . S
C1078 C1079 1.372 . S
C1079 C1078 1.372 . S
C1079 C1080 1.400 . S
C1079 C1084 1.490 . S
C1080 H1070 0.930 . S
C1080 C1079 1.400 . S
C1080 C1083 1.386 . S
H1081 C1097 0.930 . S
H1082 C1098 0.931 . S
C1083 H1071 0.929 . S
C1083 C1077 1.390 . S
C1083 C1080 1.386 . S
C1084 C1079 1.490 . S
C1084 C1086 1.395 . S
C1084 C1087 1.403 . S
H1085 C1091 0.930 . S
C1086 H1072 0.930 . S
C1086 C1084 1.395 . S
C1086 C1089 1.403 . S
C1087 C1084 1.403 . S
C1087 C1088 1.524 . S
C1087 C1091 1.400 . S
C1088 H1073 0.960 . S
C1088 H1074 0.960 . S
C1088 H1075 0.960 . S
C1088 C1087 1.524 . S
C1089 C1086 1.403 . S
C1089 C1090 1.392 . S
C1089 C1093 1.495 . S
C1090 C1089 1.392 . S
C1090 C1091 1.385 . S
C1090 C1092 1.478 . S
C1091 H1085 0.930 . S
C1091 C1087 1.400 . S
C1091 C1090 1.385 . S
C1092 C1090 1.478 . S
C1092 C1094 1.381 . S
C1092 C1098 1.383 . S
C1093 C1089 1.495 . S
C1093 H1099 0.959 . S
C1093 H1100 0.961 . S
C1093 H1101 0.960 . S
C1094 C1092 1.381 . S
C1094 C1095 1.394 . S
C1094 H1102 0.930 . S
C1095 C1094 1.394 . S
C1095 C1096 1.383 . S
C1095 H1103 0.929 . S
C1096 C1095 1.383 . S
C1096 C1097 1.377 . S
C1097 H1081 0.930 . S
C1097 C1096 1.377 . S
C1097 C1098 1.379 . S
C1098 H1082 0.931 . S
C1098 C1092 1.383 . S
C1098 C1097 1.379 . S
H1099 C1093 0.959 . S
H1100 C1093 0.961 . S
H1101 C1093 0.960 . S
H1102 C1094 0.930 . S
H1103 C1095 0.929 . S
H1104 C1112 0.929 . S
H1105 C1114 0.930 . S
H1106 C1116 0.930 . S
H1107 C1119 0.929 . S
H1108 C1122 0.930 . S
H1109 C1124 0.960 . S
H1110 C1124 0.960 . S
H1111 C1124 0.960 . S
C1112 H1104 0.929 . S
C1112 C1113 1.377 . S
C1112 C1114 1.384 . S
C1113 C1112 1.377 . S
C1113 C1119 1.390 1_455 S
C1114 H1105 0.930 . S
C1114 C1112 1.384 . S
C1114 C1115 1.372 . S
C1115 C1114 1.372 . S
C1115 C1116 1.400 1_455 S
C1115 C1120 1.490 . S
C1116 H1106 0.930 . S
C1116 C1115 1.400 1_655 S
C1116 C1119 1.386 . S
H1117 C1133 0.930 . S
H1118 C1134 0.931 . S
C1119 H1107 0.929 . S
C1119 C1113 1.390 1_655 S
C1119 C1116 1.386 . S
C1120 C1115 1.490 . S
C1120 C1122 1.395 . S
C1120 C1123 1.403 1_455 S
H1121 C1127 0.930 . S
C1122 H1108 0.930 . S
C1122 C1120 1.395 . S
C1122 C1125 1.403 1_545 S
C1123 C1120 1.403 1_655 S
C1123 C1124 1.524 . S
C1123 C1127 1.400 1_545 S
C1124 H1109 0.960 . S
C1124 H1110 0.960 . S
C1124 H1111 0.960 . S
C1124 C1123 1.524 . S
C1125 C1122 1.403 1_565 S
C1125 C1126 1.392 . S
C1125 C1129 1.495 . S
C1126 C1125 1.392 . S
C1126 C1127 1.385 1_455 S
C1126 C1128 1.476 1_455 S
C1127 H1121 0.930 . S
C1127 C1123 1.400 1_565 S
C1127 C1126 1.385 1_655 S
C1128 C1126 1.476 1_655 S
C1128 C1130 1.375 1_655 S
C1128 C1134 1.391 . S
C1129 C1125 1.495 . S
C1129 H1135 0.959 . S
C1129 H1136 0.961 . S
C1129 H1137 0.960 . S
C1130 C1128 1.375 1_455 S
C1130 C1131 1.394 . S
C1130 H1138 0.930 . S
C1131 C1130 1.394 . S
C1131 C1132 1.383 1_455 S
C1131 H1139 0.929 . S
C1132 C1131 1.383 1_655 S
C1132 C1133 1.377 . S
C1133 H1117 0.930 . S
C1133 C1132 1.377 . S
C1133 C1134 1.379 . S
C1134 H1118 0.931 . S
C1134 C1128 1.391 . S
C1134 C1133 1.379 . S
H1135 C1129 0.959 . S
H1136 C1129 0.961 . S
H1137 C1129 0.960 . S
H1138 C1130 0.930 . S
H1139 C1131 0.929 . S
H1140 C1148 0.929 . S
H1141 C1150 0.930 . S
H1142 C1152 0.930 . S
H1143 C1155 0.929 . S
H1144 C1158 0.930 . S
H1145 C1160 0.960 . S
H1146 C1160 0.960 . S
H1147 C1160 0.960 . S
C1148 H1140 0.929 . S
C1148 C1149 1.377 1_545 S
C1148 C1150 1.384 . S
C1149 C1148 1.377 1_565 S
C1149 C1155 1.390 . S
C1150 H1141 0.930 . S
C1150 C1148 1.384 . S
C1150 C1151 1.372 1_545 S
C1151 C1150 1.372 1_565 S
C1151 C1152 1.400 . S
C1151 C1156 1.490 . S
C1152 H1142 0.930 . S
C1152 C1151 1.400 . S
C1152 C1155 1.386 . S
H1153 C1169 0.930 1_565 S
H1154 C1170 0.925 1_565 S
C1155 H1143 0.929 . S
C1155 C1149 1.390 . S
C1155 C1152 1.386 . S
C1156 C1151 1.490 . S
C1156 C1158 1.395 1_565 S
C1156 C1159 1.403 . S
H1157 C1163 0.930 . S
C1158 H1144 0.930 . S
C1158 C1156 1.395 1_545 S
C1158 C1161 1.403 1_455 S
C1159 C1156 1.403 . S
C1159 C1160 1.524 . S
C1159 C1163 1.400 1_455 S
C1160 H1145 0.960 . S
C1160 H1146 0.960 . S
C1160 H1147 0.960 . S
C1160 C1159 1.524 . S
C1161 C1158 1.403 1_655 S
C1161 C1162 1.392 . S
C1161 C1165 1.495 . S
C1162 C1161 1.392 . S
C1162 C1163 1.385 1_545 S
C1162 C1164 1.478 . S
C1163 H1157 0.930 . S
C1163 C1159 1.400 1_655 S
C1163 C1162 1.385 1_565 S
C1164 C1162 1.478 . S
C1164 C1166 1.381 . S
C1164 C1170 1.389 . S
C1165 C1161 1.495 . S
C1165 H1171 0.959 . S
C1165 H1172 0.961 . S
C1165 H1173 0.960 . S
C1166 C1164 1.381 . S
C1166 C1167 1.394 . S
C1166 H1174 0.930 . S
C1167 C1166 1.394 . S
C1167 C1168 1.383 . S
C1167 H1175 0.929 . S
C1168 C1167 1.383 . S
C1168 C1169 1.377 . S
C1169 H1153 0.930 1_545 S
C1169 C1168 1.377 . S
C1169 C1170 1.380 . S
C1170 H1154 0.925 1_545 S
C1170 C1164 1.389 . S
C1170 C1169 1.380 . S
H1171 C1165 0.959 . S
H1172 C1165 0.961 . S
H1173 C1165 0.960 . S
H1174 C1166 0.930 . S
H1175 C1167 0.929 . S
H1176 C1184 0.929 . S
H1177 C1186 0.930 . S
H1178 C1188 0.930 . S
H1179 C1191 0.929 . S
H1180 C1194 0.930 . S
H1181 C1196 0.960 . S
H1182 C1196 0.960 . S
H1183 C1196 0.960 1_455 S
C1184 H1176 0.929 . S
C1184 C1185 1.377 . S
C1184 C1186 1.384 . S
C1185 C1184 1.377 . S
C1185 C1191 1.390 1_655 S
C1186 H1177 0.930 . S
C1186 C1184 1.384 . S
C1186 C1187 1.372 . S
C1187 C1186 1.372 . S
C1187 C1188 1.400 1_655 S
C1187 C1192 1.490 . S
C1188 H1178 0.930 . S
C1188 C1187 1.400 1_455 S
C1188 C1191 1.386 . S
H1189 C1205 0.930 . S
H1190 C1206 0.931 . S
C1191 H1179 0.929 . S
C1191 C1185 1.390 1_455 S
C1191 C1188 1.386 . S
C1192 C1187 1.490 . S
C1192 C1194 1.395 1_655 S
C1192 C1195 1.403 . S
H1193 C1199 0.930 . S
C1194 H1180 0.930 . S
C1194 C1192 1.395 1_455 S
C1194 C1197 1.403 . S
C1195 C1192 1.403 . S
C1195 C1196 1.524 . S
C1195 C1199 1.400 . S
C1196 H1181 0.960 . S
C1196 H1182 0.960 . S
C1196 H1183 0.960 1_655 S
C1196 C1195 1.524 . S
C1197 C1194 1.403 . S
C1197 C1198 1.392 . S
C1197 C1201 1.495 . S
C1198 C1197 1.392 . S
C1198 C1199 1.385 1_455 S
C1198 C1200 1.478 . S
C1199 H1193 0.930 . S
C1199 C1195 1.400 . S
C1199 C1198 1.385 1_655 S
C1200 C1198 1.478 . S
C1200 C1202 1.381 1_455 S
C1200 C1206 1.383 . S
C1201 C1197 1.495 . S
C1201 H1207 0.959 . S
C1201 H1208 0.961 . S
C1201 H1209 0.960 1_455 S
C1202 C1200 1.381 1_655 S
C1202 C1203 1.394 . S
C1202 H1210 0.930 . S
C1203 C1202 1.394 . S
C1203 C1204 1.383 1_655 S
C1203 H1211 0.929 . S
C1204 C1203 1.383 1_455 S
C1204 C1205 1.377 . S
C1205 H1189 0.930 . S
C1205 C1204 1.377 . S
C1205 C1206 1.379 . S
C1206 H1190 0.931 . S
C1206 C1200 1.383 . S
C1206 C1205 1.379 . S
H1207 C1201 0.959 . S
H1208 C1201 0.961 . S
H1209 C1201 0.960 1_655 S
H1210 C1202 0.930 . S
H1211 C1203 0.929 . S
H1212 C1220 0.929 . S
H1213 C1222 0.930 . S
H1214 C1224 0.930 . S
H1215 C1227 0.929 . S
H1216 C1230 0.930 . S
H1217 C1232 0.960 . S
H1218 C1232 0.960 . S
H1219 C1232 0.960 . S
C1220 H1212 0.929 . S
C1220 C1221 1.377 . S
C1220 C1222 1.384 . S
C1221 C1220 1.377 . S
C1221 C1227 1.390 . S
C1222 H1213 0.930 . S
C1222 C1220 1.384 . S
C1222 C1223 1.372 . S
C1223 C1222 1.372 . S
C1223 C1224 1.400 . S
C1223 C1228 1.490 . S
C1224 H1214 0.930 . S
C1224 C1223 1.400 . S
C1224 C1227 1.386 . S
H1225 C1241 0.930 . S
H1226 C1242 0.931 . S
C1227 H1215 0.929 . S
C1227 C1221 1.390 . S
C1227 C1224 1.386 . S
C1228 C1223 1.490 . S
C1228 C1230 1.395 1_545 S
C1228 C1231 1.403 . S
H1229 C1235 0.930 . S
C1230 H1216 0.930 . S
C1230 C1228 1.395 1_565 S
C1230 C1233 1.403 . S
C1231 C1228 1.403 . S
C1231 C1232 1.524 . S
C1231 C1235 1.400 . S
C1232 H1217 0.960 . S
C1232 H1218 0.960 . S
C1232 H1219 0.960 . S
C1232 C1231 1.524 . S
C1233 C1230 1.403 . S
C1233 C1234 1.392 . S
C1233 C1237 1.495 . S
C1234 C1233 1.392 . S
C1234 C1235 1.385 1_565 S
C1234 C1236 1.478 . S
C1235 H1229 0.930 . S
C1235 C1231 1.400 . S
C1235 C1234 1.385 1_545 S
C1236 C1234 1.478 . S
C1236 C1238 1.381 . S
C1236 C1242 1.383 . S
C1237 C1233 1.495 . S
C1237 H1243 0.959 . S
C1237 H1244 0.961 . S
C1237 H1245 0.960 . S
C1238 C1236 1.381 . S
C1238 C1239 1.394 . S
C1238 H1246 0.930 . S
C1239 C1238 1.394 . S
C1239 C1240 1.383 . S
C1239 H1247 0.929 . S
C1240 C1239 1.383 . S
C1240 C1241 1.377 . S
C1241 H1225 0.930 . S
C1241 C1240 1.377 . S
C1241 C1242 1.379 . S
C1242 H1226 0.931 . S
C1242 C1236 1.383 . S
C1242 C1241 1.379 . S
H1243 C1237 0.959 . S
H1244 C1237 0.961 . S
H1245 C1237 0.960 . S
H1246 C1238 0.930 . S
H1247 C1239 0.929 . S
H1248 C1256 0.929 . S
H1249 C1258 0.930 . S
H1250 C1260 0.930 . S
H1251 C1263 0.929 . S
H1252 C1266 0.930 . S
H1253 C1268 0.960 . S
H1254 C1268 0.960 . S
H1255 C1268 0.960 . S
C1256 H1248 0.929 . S
C1256 C1257 1.377 . S
C1256 C1258 1.384 . S
C1257 C1256 1.377 . S
C1257 C1263 1.390 . S
C1258 H1249 0.930 . S
C1258 C1256 1.384 . S
C1258 C1259 1.372 . S
C1259 C1258 1.372 . S
C1259 C1260 1.400 . S
C1259 C1264 1.490 . S
C1260 H1250 0.930 . S
C1260 C1259 1.400 . S
C1260 C1263 1.386 . S
H1261 C1277 0.930 . S
H1262 C1278 0.931 . S
C1263 H1251 0.929 . S
C1263 C1257 1.390 . S
C1263 C1260 1.386 . S
C1264 C1259 1.490 . S
C1264 C1266 1.395 . S
C1264 C1267 1.403 . S
H1265 C1271 0.930 . S
C1266 H1252 0.930 . S
C1266 C1264 1.395 . S
C1266 C1269 1.403 . S
C1267 C1264 1.403 . S
C1267 C1268 1.524 . S
C1267 C1271 1.400 . S
C1268 H1253 0.960 . S
C1268 H1254 0.960 . S
C1268 H1255 0.960 . S
C1268 C1267 1.524 . S
C1269 C1266 1.403 . S
C1269 C1270 1.392 . S
C1269 C1273 1.495 . S
C1270 C1269 1.392 . S
C1270 C1271 1.385 . S
C1270 C1272 1.478 . S
C1271 H1265 0.930 . S
C1271 C1267 1.400 . S
C1271 C1270 1.385 . S
C1272 C1270 1.478 . S
C1272 C1274 1.381 . S
C1272 C1278 1.383 . S
C1273 C1269 1.495 . S
C1273 H1279 0.959 . S
C1273 H1280 0.961 . S
C1273 H1281 0.960 . S
C1274 C1272 1.381 . S
C1274 C1275 1.394 . S
C1274 H1282 0.930 . S
C1275 C1274 1.394 . S
C1275 C1276 1.383 . S
C1275 H1283 0.929 . S
C1276 C1275 1.383 . S
C1276 C1277 1.377 . S
C1277 H1261 0.930 . S
C1277 C1276 1.377 . S
C1277 C1278 1.379 . S
C1278 H1262 0.931 . S
C1278 C1272 1.383 . S
C1278 C1277 1.379 . S
H1279 C1273 0.959 . S
H1280 C1273 0.961 . S
H1281 C1273 0.960 . S
H1282 C1274 0.930 . S
H1283 C1275 0.929 . S
H1284 C1292 0.929 . S
H1285 C1294 0.930 . S
H1286 C1296 0.930 . S
H1287 C1299 0.929 . S
H1288 C1302 0.930 . S
H1289 C1304 0.960 . S
H1290 C1304 0.960 . S
H1291 C1304 0.960 . S
C1292 H1284 0.929 . S
C1292 C1293 1.377 . S
C1292 C1294 1.384 . S
C1293 C1292 1.377 . S
C1293 C1299 1.390 . S
C1294 H1285 0.930 . S
C1294 C1292 1.384 . S
C1294 C1295 1.372 . S
C1295 C1294 1.372 . S
C1295 C1296 1.400 . S
C1295 C1300 1.490 . S
C1296 H1286 0.930 . S
C1296 C1295 1.400 . S
C1296 C1299 1.386 . S
H1297 C1313 0.930 . S
H1298 C1314 0.931 . S
C1299 H1287 0.929 . S
C1299 C1293 1.390 . S
C1299 C1296 1.386 . S
C1300 C1295 1.490 . S
C1300 C1302 1.395 . S
C1300 C1303 1.403 . S
H1301 C1307 0.930 . S
C1302 H1288 0.930 . S
C1302 C1300 1.395 . S
C1302 C1305 1.403 . S
C1303 C1300 1.403 . S
C1303 C1304 1.524 . S
C1303 C1307 1.400 . S
C1304 H1289 0.960 . S
C1304 H1290 0.960 . S
C1304 H1291 0.960 . S
C1304 C1303 1.524 . S
C1305 C1302 1.403 . S
C1305 C1306 1.392 . S
C1305 C1309 1.495 . S
C1306 C1305 1.392 . S
C1306 C1307 1.385 . S
C1306 C1308 1.478 . S
C1307 H1301 0.930 . S
C1307 C1303 1.400 . S
C1307 C1306 1.385 . S
C1308 C1306 1.478 . S
C1308 C1310 1.381 . S
C1308 C1314 1.383 . S
C1309 C1305 1.495 . S
C1309 H1315 0.959 . S
C1309 H1316 0.961 . S
C1309 H1317 0.960 . S
C1310 C1308 1.381 . S
C1310 C1311 1.394 . S
C1310 H1318 0.930 . S
C1311 C1310 1.394 . S
C1311 C1312 1.383 . S
C1311 H1319 0.929 . S
C1312 C1311 1.383 . S
C1312 C1313 1.377 . S
C1313 H1297 0.930 . S
C1313 C1312 1.377 . S
C1313 C1314 1.379 . S
C1314 H1298 0.931 . S
C1314 C1308 1.383 . S
C1314 C1313 1.379 . S
H1315 C1309 0.959 . S
H1316 C1309 0.961 . S
H1317 C1309 0.960 . S
H1318 C1310 0.930 . S
H1319 C1311 0.929 . S
H1320 C1328 0.929 . S
H1321 C1330 0.930 . S
H1322 C1332 0.930 . S
H1323 C1335 0.929 . S
H1324 C1338 0.930 . S
H1325 C1340 0.960 . S
H1326 C1340 0.960 . S
H1327 C1340 0.960 . S
C1328 H1320 0.929 . S
C1328 C1329 1.377 . S
C1328 C1330 1.384 . S
C1329 C1328 1.377 . S
C1329 C1335 1.390 . S
C1330 H1321 0.930 . S
C1330 C1328 1.384 . S
C1330 C1331 1.372 . S
C1331 C1330 1.372 . S
C1331 C1332 1.400 . S
C1331 C1336 1.490 . S
C1332 H1322 0.930 . S
C1332 C1331 1.400 . S
C1332 C1335 1.386 . S
H1333 C1349 0.930 . S
H1334 C1350 0.931 . S
C1335 H1323 0.929 . S
C1335 C1329 1.390 . S
C1335 C1332 1.386 . S
C1336 C1331 1.490 . S
C1336 C1338 1.395 . S
C1336 C1339 1.403 . S
H1337 C1343 0.930 . S
C1338 H1324 0.930 . S
C1338 C1336 1.395 . S
C1338 C1341 1.403 1_565 S
C1339 C1336 1.403 . S
C1339 C1340 1.524 . S
C1339 C1343 1.400 1_565 S
C1340 H1325 0.960 . S
C1340 H1326 0.960 . S
C1340 H1327 0.960 . S
C1340 C1339 1.524 . S
C1341 C1338 1.403 1_545 S
C1341 C1342 1.392 . S
C1341 C1345 1.495 . S
C1342 C1341 1.392 . S
C1342 C1343 1.385 . S
C1342 C1344 1.478 . S
C1343 H1337 0.930 . S
C1343 C1339 1.400 1_545 S
C1343 C1342 1.385 . S
C1344 C1342 1.478 . S
C1344 C1346 1.381 . S
C1344 C1350 1.383 . S
C1345 C1341 1.495 . S
C1345 H1351 0.959 . S
C1345 H1352 0.961 . S
C1345 H1353 0.960 . S
C1346 C1344 1.381 . S
C1346 C1347 1.394 . S
C1346 H1354 0.930 . S
C1347 C1346 1.394 . S
C1347 C1348 1.383 . S
C1347 H1355 0.929 . S
C1348 C1347 1.383 . S
C1348 C1349 1.377 . S
C1349 H1333 0.930 . S
C1349 C1348 1.377 . S
C1349 C1350 1.379 . S
C1350 H1334 0.931 . S
C1350 C1344 1.383 . S
C1350 C1349 1.379 . S
H1351 C1345 0.959 . S
H1352 C1345 0.961 . S
H1353 C1345 0.960 . S
H1354 C1346 0.930 . S
H1355 C1347 0.929 . S
H1356 C1364 0.929 . S
H1357 C1366 0.930 . S
H1358 C1368 0.930 . S
H1359 C1371 0.929 . S
H1360 C1374 0.930 . S
H1361 C1376 0.960 . S
H1362 C1376 0.960 . S
H1363 C1376 0.960 . S
C1364 H1356 0.929 . S
C1364 C1365 1.377 . S
C1364 C1366 1.384 . S
C1365 C1364 1.377 . S
C1365 C1371 1.390 . S
C1366 H1357 0.930 . S
C1366 C1364 1.384 . S
C1366 C1367 1.372 . S
C1367 C1366 1.372 . S
C1367 C1368 1.400 . S
C1367 C1372 1.490 . S
C1368 H1358 0.930 . S
C1368 C1367 1.400 . S
C1368 C1371 1.386 . S
H1369 C1385 0.930 . S
H1370 C1386 0.931 . S
C1371 H1359 0.929 . S
C1371 C1365 1.390 . S
C1371 C1368 1.386 . S
C1372 C1367 1.490 . S
C1372 C1374 1.395 . S
C1372 C1375 1.403 . S
H1373 C1379 0.930 . S
C1374 H1360 0.930 . S
C1374 C1372 1.395 . S
C1374 C1377 1.403 1_455 S
C1375 C1372 1.403 . S
C1375 C1376 1.524 . S
C1375 C1379 1.400 1_455 S
C1376 H1361 0.960 . S
C1376 H1362 0.960 . S
C1376 H1363 0.960 . S
C1376 C1375 1.524 . S
C1377 C1374 1.403 1_655 S
C1377 C1378 1.392 . S
C1377 C1381 1.495 . S
C1378 C1377 1.392 . S
C1378 C1379 1.385 . S
C1378 C1380 1.478 . S
C1379 H1373 0.930 . S
C1379 C1375 1.400 1_655 S
C1379 C1378 1.385 . S
C1380 C1378 1.478 . S
C1380 C1382 1.381 . S
C1380 C1386 1.383 . S
C1381 C1377 1.495 . S
C1381 H1387 0.959 . S
C1381 H1388 0.961 . S
C1381 H1389 0.960 . S
C1382 C1380 1.381 . S
C1382 C1383 1.394 . S
C1382 H1390 0.930 . S
C1383 C1382 1.394 . S
C1383 C1384 1.383 . S
C1383 H1391 0.929 . S
C1384 C1383 1.383 . S
C1384 C1385 1.377 . S
C1385 H1369 0.930 . S
C1385 C1384 1.377 . S
C1385 C1386 1.379 . S
C1386 H1370 0.931 . S
C1386 C1380 1.383 . S
C1386 C1385 1.379 . S
H1387 C1381 0.959 . S
H1388 C1381 0.961 . S
H1389 C1381 0.960 . S
H1390 C1382 0.930 . S
H1391 C1383 0.929 . S
H1392 C1400 0.929 . S
H1393 C1402 0.930 . S
H1394 C1404 0.930 . S
H1395 C1407 0.929 . S
H1396 C1410 0.930 . S
H1397 C1412 0.960 . S
H1398 C1412 0.960 1_655 S
H1399 C1412 0.960 . S
C1400 H1392 0.929 . S
C1400 C1401 1.377 1_655 S
C1400 C1402 1.384 . S
C1401 C1400 1.377 1_455 S
C1401 C1407 1.390 . S
C1402 H1393 0.930 . S
C1402 C1400 1.384 . S
C1402 C1403 1.354 1_655 S
C1403 C1402 1.354 1_455 S
C1403 C1404 1.419 . S
C1403 C1408 1.489 1_455 S
C1404 H1394 0.930 . S
C1404 C1403 1.419 . S
C1404 C1407 1.386 . S
H1405 C1421 0.930 . S
H1406 C1422 0.931 . S
C1407 H1395 0.929 . S
C1407 C1401 1.390 . S
C1407 C1404 1.386 . S
C1408 C1403 1.489 1_655 S
C1408 C1410 1.401 . S
C1408 C1411 1.398 1_655 S
H1409 C1415 0.930 . S
C1410 H1396 0.930 . S
C1410 C1408 1.401 . S
C1410 C1413 1.403 . S
C1411 C1408 1.398 1_455 S
C1411 C1412 1.524 . S
C1411 C1415 1.400 . S
C1412 H1397 0.960 . S
C1412 H1398 0.960 1_455 S
C1412 H1399 0.960 . S
C1412 C1411 1.524 . S
C1413 C1410 1.403 . S
C1413 C1414 1.392 . S
C1413 C1417 1.495 . S
C1414 C1413 1.392 . S
C1414 C1415 1.385 1_655 S
C1414 C1416 1.478 . S
C1415 H1409 0.930 . S
C1415 C1411 1.400 . S
C1415 C1414 1.385 1_455 S
C1416 C1414 1.478 . S
C1416 C1418 1.381 . S
C1416 C1422 1.383 1_655 S
C1417 C1413 1.495 . S
C1417 H1423 0.959 . S
C1417 H1424 0.961 1_655 S
C1417 H1425 0.960 . S
C1418 C1416 1.381 . S
C1418 C1419 1.394 . S
C1418 H1426 0.930 . S
C1419 C1418 1.394 . S
C1419 C1420 1.383 . S
C1419 H1427 0.929 . S
C1420 C1419 1.383 . S
C1420 C1421 1.377 1_655 S
C1421 H1405 0.930 . S
C1421 C1420 1.377 1_455 S
C1421 C1422 1.379 . S
C1422 H1406 0.931 . S
C1422 C1416 1.383 1_455 S
C1422 C1421 1.379 . S
H1423 C1417 0.959 . S
H1424 C1417 0.961 1_455 S
H1425 C1417 0.960 . S
H1426 C1418 0.930 . S
H1427 C1419 0.929 . S
H1428 C1436 0.929 . S
H1429 C1438 0.930 . S
H1430 C1440 0.930 . S
H1431 C1443 0.929 . S
H1432 C1446 0.930 . S
H1433 C1448 0.960 . S
H1434 C1448 0.960 . S
H1435 C1448 0.960 . S
C1436 H1428 0.929 . S
C1436 C1437 1.377 . S
C1436 C1438 1.384 . S
C1437 C1436 1.377 . S
C1437 C1443 1.390 1_545 S
C1438 H1429 0.930 . S
C1438 C1436 1.384 . S
C1438 C1439 1.372 . S
C1439 C1438 1.372 . S
C1439 C1440 1.400 1_545 S
C1439 C1444 1.490 . S
C1440 H1430 0.930 . S
C1440 C1439 1.400 1_565 S
C1440 C1443 1.386 . S
H1441 C1457 0.930 . S
H1442 C1458 0.931 . S
C1443 H1431 0.929 . S
C1443 C1437 1.390 1_565 S
C1443 C1440 1.386 . S
C1444 C1439 1.490 . S
C1444 C1446 1.395 . S
C1444 C1447 1.403 1_545 S
H1445 C1451 0.930 . S
C1446 H1432 0.930 . S
C1446 C1444 1.395 . S
C1446 C1449 1.403 . S
C1447 C1444 1.403 1_565 S
C1447 C1448 1.524 . S
C1447 C1451 1.400 . S
C1448 H1433 0.960 . S
C1448 H1434 0.960 . S
C1448 H1435 0.960 . S
C1448 C1447 1.524 . S
C1449 C1446 1.403 . S
C1449 C1450 1.392 . S
C1449 C1453 1.495 . S
C1450 C1449 1.392 . S
C1450 C1451 1.385 1_545 S
C1450 C1452 1.478 . S
C1451 H1445 0.930 . S
C1451 C1447 1.400 . S
C1451 C1450 1.385 1_565 S
C1452 C1450 1.478 . S
C1452 C1454 1.381 . S
C1452 C1458 1.383 1_545 S
C1453 C1449 1.495 . S
C1453 H1459 0.959 . S
C1453 H1460 0.961 . S
C1453 H1461 0.960 . S
C1454 C1452 1.381 . S
C1454 C1455 1.394 . S
C1454 H1462 0.930 . S
C1455 C1454 1.394 . S
C1455 C1456 1.383 1_545 S
C1455 H1463 0.929 . S
C1456 C1455 1.383 1_565 S
C1456 C1457 1.377 . S
C1457 H1441 0.930 . S
C1457 C1456 1.377 . S
C1457 C1458 1.379 . S
C1458 H1442 0.931 . S
C1458 C1452 1.383 1_565 S
C1458 C1457 1.379 . S
H1459 C1453 0.959 . S
H1460 C1453 0.961 . S
H1461 C1453 0.960 . S
H1462 C1454 0.930 . S
H1463 C1455 0.929 . S
H1464 C1472 0.929 . S
H1465 C1474 0.930 . S
H1466 C1476 0.930 . S
H1467 C1479 0.929 . S
H1468 C1482 0.930 . S
H1469 C1484 0.960 . S
H1470 C1484 0.960 . S
H1471 C1484 0.960 . S
C1472 H1464 0.929 . S
C1472 C1473 1.377 1_455 S
C1472 C1474 1.384 . S
C1473 C1472 1.377 1_655 S
C1473 C1479 1.390 . S
C1474 H1465 0.930 . S
C1474 C1472 1.384 . S
C1474 C1475 1.372 1_455 S
C1475 C1474 1.372 1_655 S
C1475 C1476 1.400 . S
C1475 C1480 1.490 1_655 S
C1476 H1466 0.930 . S
C1476 C1475 1.400 . S
C1476 C1479 1.386 . S
H1477 C1493 0.930 . S
H1478 C1494 0.931 . S
C1479 H1467 0.929 . S
C1479 C1473 1.390 . S
C1479 C1476 1.386 . S
C1480 C1475 1.490 1_455 S
C1480 C1482 1.395 . S
C1480 C1483 1.403 1_455 S
H1481 C1487 0.930 . S
C1482 H1468 0.930 . S
C1482 C1480 1.395 . S
C1482 C1485 1.403 1_545 S
C1483 C1480 1.403 1_655 S
C1483 C1484 1.524 . S
C1483 C1487 1.400 1_545 S
C1484 H1469 0.960 . S
C1484 H1470 0.960 . S
C1484 H1471 0.960 . S
C1484 C1483 1.524 . S
C1485 C1482 1.403 1_565 S
C1485 C1486 1.392 . S
C1485 C1489 1.495 . S
C1486 C1485 1.392 . S
C1486 C1487 1.385 1_455 S
C1486 C1488 1.478 . S
C1487 H1481 0.930 . S
C1487 C1483 1.400 1_565 S
C1487 C1486 1.385 1_655 S
C1488 C1486 1.478 . S
C1488 C1490 1.381 . S
C1488 C1494 1.383 1_455 S
C1489 C1485 1.495 . S
C1489 H1495 0.959 . S
C1489 H1496 0.961 . S
C1489 H1497 0.960 . S
C1490 C1488 1.381 . S
C1490 C1491 1.394 . S
C1490 H1498 0.930 . S
C1491 C1490 1.394 . S
C1491 C1492 1.383 . S
C1491 H1499 0.929 . S
C1492 C1491 1.383 . S
C1492 C1493 1.377 1_455 S
C1493 H1477 0.930 . S
C1493 C1492 1.377 1_655 S
C1493 C1494 1.379 . S
C1494 H1478 0.931 . S
C1494 C1488 1.383 1_655 S
C1494 C1493 1.379 . S
H1495 C1489 0.959 . S
H1496 C1489 0.961 . S
H1497 C1489 0.960 . S
H1498 C1490 0.930 . S
H1499 C1491 0.929 . S
H1500 C1508 0.929 . S
H1501 C1510 0.930 . S
H1502 C1512 0.930 . S
H1503 C1515 0.929 . S
H1504 C1518 0.930 . S
H1505 C1520 0.960 . S
H1506 C1520 0.960 . S
H1507 C1520 0.960 . S
C1508 H1500 0.929 . S
C1508 C1509 1.377 . S
C1508 C1510 1.384 . S
C1509 C1508 1.377 . S
C1509 C1515 1.390 1_565 S
C1510 H1501 0.930 . S
C1510 C1508 1.384 . S
C1510 C1511 1.372 . S
C1511 C1510 1.372 . S
C1511 C1512 1.400 1_565 S
C1511 C1516 1.490 . S
C1512 H1502 0.930 . S
C1512 C1511 1.400 1_545 S
C1512 C1515 1.386 . S
H1513 C1529 0.930 . S
H1514 C1530 0.931 1_545 S
C1515 H1503 0.929 . S
C1515 C1509 1.390 1_545 S
C1515 C1512 1.386 . S
C1516 C1511 1.490 . S
C1516 C1518 1.395 . S
C1516 C1519 1.403 1_565 S
H1517 C1523 0.930 . S
C1518 H1504 0.930 . S
C1518 C1516 1.395 . S
C1518 C1521 1.403 1_655 S
C1519 C1516 1.403 1_545 S
C1519 C1520 1.524 . S
C1519 C1523 1.400 1_655 S
C1520 H1505 0.960 . S
C1520 H1506 0.960 . S
C1520 H1507 0.960 . S
C1520 C1519 1.524 . S
C1521 C1518 1.403 1_455 S
C1521 C1522 1.392 . S
C1521 C1525 1.495 . S
C1522 C1521 1.392 . S
C1522 C1523 1.385 1_565 S
C1522 C1524 1.478 . S
C1523 H1517 0.930 . S
C1523 C1519 1.400 1_455 S
C1523 C1522 1.385 1_545 S
C1524 C1522 1.478 . S
C1524 C1526 1.381 . S
C1524 C1530 1.383 . S
C1525 C1521 1.495 . S
C1525 H1531 0.959 . S
C1525 H1532 0.961 . S
C1525 H1533 0.960 . S
C1526 C1524 1.381 . S
C1526 C1527 1.394 . S
C1526 H1534 0.930 . S
C1527 C1526 1.394 . S
C1527 C1528 1.383 1_565 S
C1527 H1535 0.929 . S
C1528 C1527 1.383 1_545 S
C1528 C1529 1.377 . S
C1529 H1513 0.930 . S
C1529 C1528 1.377 . S
C1529 C1530 1.380 1_545 S
C1530 H1514 0.931 1_565 S
C1530 C1524 1.383 . S
C1530 C1529 1.380 1_565 S
H1531 C1525 0.959 . S
H1532 C1525 0.961 . S
H1533 C1525 0.960 . S
H1534 C1526 0.930 . S
H1535 C1527 0.929 . S
H1536 C1544 0.929 . S
H1537 C1546 0.930 . S
H1538 C1548 0.930 . S
H1539 C1551 0.929 . S
H1540 C1554 0.930 . S
H1541 C1556 0.960 . S
H1542 C1556 0.960 . S
H1543 C1556 0.960 . S
C1544 H1536 0.929 . S
C1544 C1545 1.377 . S
C1544 C1546 1.384 . S
C1545 C1544 1.377 . S
C1545 C1551 1.390 . S
C1546 H1537 0.930 . S
C1546 C1544 1.384 . S
C1546 C1547 1.372 . S
C1547 C1546 1.372 . S
C1547 C1548 1.400 . S
C1547 C1552 1.490 . S
C1548 H1538 0.930 . S
C1548 C1547 1.400 . S
C1548 C1551 1.386 . S
H1549 C1565 0.930 . S
H1550 C1566 0.931 . S
C1551 H1539 0.929 . S
C1551 C1545 1.390 . S
C1551 C1548 1.386 . S
C1552 C1547 1.490 . S
C1552 C1554 1.395 . S
C1552 C1555 1.403 . S
H1553 C1559 0.930 . S
C1554 H1540 0.930 . S
C1554 C1552 1.395 . S
C1554 C1557 1.403 1_545 S
C1555 C1552 1.403 . S
C1555 C1556 1.524 . S
C1555 C1559 1.400 1_545 S
C1556 H1541 0.960 . S
C1556 H1542 0.960 . S
C1556 H1543 0.960 . S
C1556 C1555 1.524 . S
C1557 C1554 1.403 1_565 S
C1557 C1558 1.392 . S
C1557 C1561 1.495 . S
C1558 C1557 1.392 . S
C1558 C1559 1.385 . S
C1558 C1560 1.478 . S
C1559 H1553 0.930 . S
C1559 C1555 1.400 1_565 S
C1559 C1558 1.385 . S
C1560 C1558 1.478 . S
C1560 C1562 1.381 . S
C1560 C1566 1.383 . S
C1561 C1557 1.495 . S
C1561 H1567 0.959 . S
C1561 H1568 0.961 . S
C1561 H1569 0.960 . S
C1562 C1560 1.381 . S
C1562 C1563 1.394 . S
C1562 H1570 0.930 . S
C1563 C1562 1.394 . S
C1563 C1564 1.383 . S
C1563 H1571 0.929 . S
C1564 C1563 1.383 . S
C1564 C1565 1.377 . S
C1565 H1549 0.930 . S
C1565 C1564 1.377 . S
C1565 C1566 1.379 . S
C1566 H1550 0.931 . S
C1566 C1560 1.383 . S
C1566 C1565 1.379 . S
H1567 C1561 0.959 . S
H1568 C1561 0.961 . S
H1569 C1561 0.960 . S
H1570 C1562 0.930 . S
H1571 C1563 0.929 . S
H1572 C1580 0.929 . S
H1573 C1582 0.930 . S
H1574 C1584 0.930 . S
H1575 C1587 0.929 . S
H1576 C1590 0.930 . S
H1577 C1592 0.960 . S
H1578 C1592 0.960 . S
H1579 C1592 0.960 . S
C1580 H1572 0.929 . S
C1580 C1581 1.377 . S
C1580 C1582 1.384 . S
C1581 C1580 1.377 . S
C1581 C1587 1.390 . S
C1582 H1573 0.930 . S
C1582 C1580 1.384 . S
C1582 C1583 1.372 . S
C1583 C1582 1.372 . S
C1583 C1584 1.400 . S
C1583 C1588 1.490 . S
C1584 H1574 0.930 . S
C1584 C1583 1.400 . S
C1584 C1587 1.386 . S
H1585 C1601 0.930 . S
H1586 C1602 0.931 . S
C1587 H1575 0.929 . S
C1587 C1581 1.390 . S
C1587 C1584 1.386 . S
C1588 C1583 1.490 . S
C1588 C1590 1.395 . S
C1588 C1591 1.403 . S
H1589 C1595 0.930 . S
C1590 H1576 0.930 . S
C1590 C1588 1.395 . S
C1590 C1593 1.403 1_655 S
C1591 C1588 1.403 . S
C1591 C1592 1.524 . S
C1591 C1595 1.400 1_655 S
C1592 H1577 0.960 . S
C1592 H1578 0.960 . S
C1592 H1579 0.960 . S
C1592 C1591 1.524 . S
C1593 C1590 1.403 1_455 S
C1593 C1594 1.392 . S
C1593 C1597 1.495 . S
C1594 C1593 1.392 . S
C1594 C1595 1.385 . S
C1594 C1596 1.478 . S
C1595 H1589 0.930 . S
C1595 C1591 1.400 1_455 S
C1595 C1594 1.385 . S
C1596 C1594 1.478 . S
C1596 C1598 1.381 . S
C1596 C1602 1.383 . S
C1597 C1593 1.495 . S
C1597 H1603 0.959 . S
C1597 H1604 0.961 . S
C1597 H1605 0.960 . S
C1598 C1596 1.381 . S
C1598 C1599 1.394 . S
C1598 H1606 0.930 . S
C1599 C1598 1.394 . S
C1599 C1600 1.383 . S
C1599 H1607 0.929 . S
C1600 C1599 1.383 . S
C1600 C1601 1.377 . S
C1601 H1585 0.930 . S
C1601 C1600 1.377 . S
C1601 C1602 1.379 . S
C1602 H1586 0.931 . S
C1602 C1596 1.383 . S
C1602 C1601 1.379 . S
H1603 C1597 0.959 . S
H1604 C1597 0.961 . S
H1605 C1597 0.960 . S
H1606 C1598 0.930 . S
H1607 C1599 0.929 . S
H1608 C1616 0.929 . S
H1609 C1618 0.930 . S
H1610 C1620 0.930 . S
H1611 C1623 0.929 . S
H1612 C1626 0.930 . S
H1613 C1628 0.960 . S
H1614 C1628 0.960 . S
H1615 C1628 0.960 . S
C1616 H1608 0.929 . S
C1616 C1617 1.377 . S
C1616 C1618 1.384 . S
C1617 C1616 1.377 . S
C1617 C1623 1.390 . S
C1618 H1609 0.930 . S
C1618 C1616 1.384 . S
C1618 C1619 1.372 . S
C1619 C1618 1.372 . S
C1619 C1620 1.400 . S
C1619 C1624 1.490 . S
C1620 H1610 0.930 . S
C1620 C1619 1.400 . S
C1620 C1623 1.386 . S
H1621 C1637 0.930 . S
H1622 C1638 0.931 . S
C1623 H1611 0.929 . S
C1623 C1617 1.390 . S
C1623 C1620 1.386 . S
C1624 C1619 1.490 . S
C1624 C1626 1.395 . S
C1624 C1627 1.403 . S
H1625 C1631 0.930 . S
C1626 H1612 0.930 . S
C1626 C1624 1.395 . S
C1626 C1629 1.403 . S
C1627 C1624 1.403 . S
C1627 C1628 1.524 . S
C1627 C1631 1.400 . S
C1628 H1613 0.960 . S
C1628 H1614 0.960 . S
C1628 H1615 0.960 . S
C1628 C1627 1.524 . S
C1629 C1626 1.403 . S
C1629 C1630 1.392 . S
C1629 C1633 1.495 . S
C1630 C1629 1.392 . S
C1630 C1631 1.385 . S
C1630 C1632 1.478 . S
C1631 H1625 0.930 . S
C1631 C1627 1.400 . S
C1631 C1630 1.385 . S
C1632 C1630 1.478 . S
C1632 C1634 1.381 . S
C1632 C1638 1.383 . S
C1633 C1629 1.495 . S
C1633 H1639 0.959 . S
C1633 H1640 0.961 . S
C1633 H1641 0.960 . S
C1634 C1632 1.381 . S
C1634 C1635 1.394 . S
C1634 H1642 0.930 . S
C1635 C1634 1.394 . S
C1635 C1636 1.383 . S
C1635 H1643 0.929 . S
C1636 C1635 1.383 . S
C1636 C1637 1.377 . S
C1637 H1621 0.930 . S
C1637 C1636 1.377 . S
C1637 C1638 1.379 . S
C1638 H1622 0.931 . S
C1638 C1632 1.383 . S
C1638 C1637 1.379 . S
H1639 C1633 0.959 . S
H1640 C1633 0.961 . S
H1641 C1633 0.960 . S
H1642 C1634 0.930 . S
H1643 C1635 0.929 . S
H1644 C1652 0.929 . S
H1645 C1654 0.930 . S
H1646 C1656 0.930 . S
H1647 C1659 0.929 . S
H1648 C1662 0.930 . S
H1649 C1664 0.960 . S
H1650 C1664 0.960 . S
H1651 C1664 0.960 . S
C1652 H1644 0.929 . S
C1652 C1653 1.377 . S
C1652 C1654 1.384 . S
C1653 C1652 1.377 . S
C1653 C1659 1.390 . S
C1654 H1645 0.930 . S
C1654 C1652 1.384 . S
C1654 C1655 1.372 . S
C1655 C1654 1.372 . S
C1655 C1656 1.400 . S
C1655 C1660 1.490 . S
C1656 H1646 0.930 . S
C1656 C1655 1.400 . S
C1656 C1659 1.386 . S
H1657 C1673 0.930 . S
H1658 C1674 0.931 . S
C1659 H1647 0.929 . S
C1659 C1653 1.390 . S
C1659 C1656 1.386 . S
C1660 C1655 1.490 . S
C1660 C1662 1.395 . S
C1660 C1663 1.403 . S
H1661 C1667 0.930 . S
C1662 H1648 0.930 . S
C1662 C1660 1.395 . S
C1662 C1665 1.403 . S
C1663 C1660 1.403 . S
C1663 C1664 1.524 . S
C1663 C1667 1.400 . S
C1664 H1649 0.960 . S
C1664 H1650 0.960 . S
C1664 H1651 0.960 . S
C1664 C1663 1.524 . S
C1665 C1662 1.403 . S
C1665 C1666 1.392 . S
C1665 C1669 1.495 . S
C1666 C1665 1.392 . S
C1666 C1667 1.385 . S
C1666 C1668 1.478 . S
C1667 H1661 0.930 . S
C1667 C1663 1.400 . S
C1667 C1666 1.385 . S
C1668 C1666 1.478 . S
C1668 C1670 1.381 . S
C1668 C1674 1.383 . S
C1669 C1665 1.495 . S
C1669 H1675 0.959 . S
C1669 H1676 0.961 . S
C1669 H1677 0.960 . S
C1670 C1668 1.381 . S
C1670 C1671 1.394 . S
C1670 H1678 0.930 . S
C1671 C1670 1.394 . S
C1671 C1672 1.383 . S
C1671 H1679 0.929 . S
C1672 C1671 1.383 . S
C1672 C1673 1.377 . S
C1673 H1657 0.930 . S
C1673 C1672 1.377 . S
C1673 C1674 1.379 . S
C1674 H1658 0.931 . S
C1674 C1668 1.383 . S
C1674 C1673 1.379 . S
H1675 C1669 0.959 . S
H1676 C1669 0.961 . S
H1677 C1669 0.960 . S
H1678 C1670 0.930 . S
H1679 C1671 0.929 . S
H1680 C1688 0.929 . S
H1681 C1690 0.930 . S
H1682 C1692 0.930 . S
H1683 C1695 0.929 . S
H1684 C1698 0.930 . S
H1685 C1700 0.960 . S
H1686 C1700 0.960 . S
H1687 C1700 0.960 . S
C1688 H1680 0.929 . S
C1688 C1689 1.377 . S
C1688 C1690 1.384 . S
C1689 C1688 1.377 . S
C1689 C1695 1.390 . S
C1690 H1681 0.930 . S
C1690 C1688 1.384 . S
C1690 C1691 1.372 . S
C1691 C1690 1.372 . S
C1691 C1692 1.400 . S
C1691 C1696 1.490 . S
C1692 H1682 0.930 . S
C1692 C1691 1.400 . S
C1692 C1695 1.386 . S
H1693 C1709 0.930 . S
H1694 C1710 0.931 . S
C1695 H1683 0.929 . S
C1695 C1689 1.390 . S
C1695 C1692 1.386 . S
C1696 C1691 1.490 . S
C1696 C1698 1.395 . S
C1696 C1699 1.403 . S
H1697 C1703 0.930 . S
C1698 H1684 0.930 . S
C1698 C1696 1.395 . S
C1698 C1701 1.403 . S
C1699 C1696 1.403 . S
C1699 C1700 1.524 . S
C1699 C1703 1.400 . S
C1700 H1685 0.960 . S
C1700 H1686 0.960 . S
C1700 H1687 0.960 . S
C1700 C1699 1.524 . S
C1701 C1698 1.403 . S
C1701 C1702 1.392 . S
C1701 C1705 1.495 . S
C1702 C1701 1.392 . S
C1702 C1703 1.385 . S
C1702 C1704 1.478 . S
C1703 H1697 0.930 . S
C1703 C1699 1.400 . S
C1703 C1702 1.385 . S
C1704 C1702 1.478 . S
C1704 C1706 1.381 . S
C1704 C1710 1.383 . S
C1705 C1701 1.495 . S
C1705 H1711 0.959 . S
C1705 H1712 0.961 . S
C1705 H1713 0.960 . S
C1706 C1704 1.381 . S
C1706 C1707 1.394 . S
C1706 H1714 0.930 . S
C1707 C1706 1.394 . S
C1707 C1708 1.383 . S
C1707 H1715 0.929 . S
C1708 C1707 1.383 . S
C1708 C1709 1.377 . S
C1709 H1693 0.930 . S
C1709 C1708 1.377 . S
C1709 C1710 1.379 . S
C1710 H1694 0.931 . S
C1710 C1704 1.383 . S
C1710 C1709 1.379 . S
H1711 C1705 0.959 . S
H1712 C1705 0.961 . S
H1713 C1705 0.960 . S
H1714 C1706 0.930 . S
H1715 C1707 0.929 . S
H1716 C1724 0.929 . S
H1717 C1726 0.930 . S
H1718 C1728 0.930 . S
H1719 C1731 0.929 . S
H1720 C1734 0.930 . S
H1721 C1736 0.960 . S
H1722 C1736 0.960 . S
H1723 C1736 0.960 . S
C1724 H1716 0.929 . S
C1724 C1725 1.377 . S
C1724 C1726 1.384 . S
C1725 C1724 1.377 . S
C1725 C1731 1.390 . S
C1726 H1717 0.930 . S
C1726 C1724 1.384 . S
C1726 C1727 1.372 . S
C1727 C1726 1.372 . S
C1727 C1728 1.400 . S
C1727 C1732 1.490 . S
C1728 H1718 0.930 . S
C1728 C1727 1.400 . S
C1728 C1731 1.386 . S
H1729 C1745 0.930 . S
H1730 C1746 0.931 . S
C1731 H1719 0.929 . S
C1731 C1725 1.390 . S
C1731 C1728 1.386 . S
C1732 C1727 1.490 . S
C1732 C1734 1.395 . S
C1732 C1735 1.403 . S
H1733 C1739 0.930 . S
C1734 H1720 0.930 . S
C1734 C1732 1.395 . S
C1734 C1737 1.403 . S
C1735 C1732 1.403 . S
C1735 C1736 1.524 . S
C1735 C1739 1.400 . S
C1736 H1721 0.960 . S
C1736 H1722 0.960 . S
C1736 H1723 0.960 . S
C1736 C1735 1.524 . S
C1737 C1734 1.403 . S
C1737 C1738 1.392 . S
C1737 C1741 1.495 . S
C1738 C1737 1.392 . S
C1738 C1739 1.385 . S
C1738 C1740 1.478 . S
C1739 H1733 0.930 . S
C1739 C1735 1.400 . S
C1739 C1738 1.385 . S
C1740 C1738 1.478 . S
C1740 C1742 1.381 . S
C1740 C1746 1.383 . S
C1741 C1737 1.495 . S
C1741 H1747 0.959 . S
C1741 H1748 0.961 . S
C1741 H1749 0.960 . S
C1742 C1740 1.381 . S
C1742 C1743 1.394 . S
C1742 H1750 0.930 . S
C1743 C1742 1.394 . S
C1743 C1744 1.383 . S
C1743 H1751 0.929 . S
C1744 C1743 1.383 . S
C1744 C1745 1.377 . S
C1745 H1729 0.930 . S
C1745 C1744 1.377 . S
C1745 C1746 1.379 . S
C1746 H1730 0.931 . S
C1746 C1740 1.383 . S
C1746 C1745 1.379 . S
H1747 C1741 0.959 . S
H1748 C1741 0.961 . S
H1749 C1741 0.960 . S
H1750 C1742 0.930 . S
H1751 C1743 0.929 . S
H1752 C1760 0.929 . S
H1753 C1762 0.930 . S
H1754 C1764 0.930 . S
H1755 C1767 0.929 . S
H1756 C1770 0.930 . S
H1757 C1772 0.960 . S
H1758 C1772 0.960 . S
H1759 C1772 0.960 . S
C1760 H1752 0.929 . S
C1760 C1761 1.377 . S
C1760 C1762 1.384 . S
C1761 C1760 1.377 . S
C1761 C1767 1.390 . S
C1762 H1753 0.930 . S
C1762 C1760 1.384 . S
C1762 C1763 1.372 . S
C1763 C1762 1.372 . S
C1763 C1764 1.400 . S
C1763 C1768 1.490 . S
C1764 H1754 0.930 . S
C1764 C1763 1.400 . S
C1764 C1767 1.386 . S
H1765 C1781 0.930 . S
H1766 C1782 0.931 . S
C1767 H1755 0.929 . S
C1767 C1761 1.390 . S
C1767 C1764 1.386 . S
C1768 C1763 1.490 . S
C1768 C1770 1.395 . S
C1768 C1771 1.403 . S
H1769 C1775 0.930 . S
C1770 H1756 0.930 . S
C1770 C1768 1.395 . S
C1770 C1773 1.403 . S
C1771 C1768 1.403 . S
C1771 C1772 1.524 . S
C1771 C1775 1.400 . S
C1772 H1757 0.960 . S
C1772 H1758 0.960 . S
C1772 H1759 0.960 . S
C1772 C1771 1.524 . S
C1773 C1770 1.403 . S
C1773 C1774 1.392 . S
C1773 C1777 1.495 . S
C1774 C1773 1.392 . S
C1774 C1775 1.385 . S
C1774 C1776 1.478 . S
C1775 H1769 0.930 . S
C1775 C1771 1.400 . S
C1775 C1774 1.385 . S
C1776 C1774 1.478 . S
C1776 C1778 1.381 . S
C1776 C1782 1.383 . S
C1777 C1773 1.495 . S
C1777 H1783 0.959 . S
C1777 H1784 0.961 . S
C1777 H1785 0.960 . S
C1778 C1776 1.381 . S
C1778 C1779 1.394 . S
C1778 H1786 0.930 . S
C1779 C1778 1.394 . S
C1779 C1780 1.383 . S
C1779 H1787 0.929 . S
C1780 C1779 1.383 . S
C1780 C1781 1.377 . S
C1781 H1765 0.930 . S
C1781 C1780 1.377 . S
C1781 C1782 1.379 . S
C1782 H1766 0.931 . S
C1782 C1776 1.383 . S
C1782 C1781 1.379 . S
H1783 C1777 0.959 . S
H1784 C1777 0.961 . S
H1785 C1777 0.960 . S
H1786 C1778 0.930 . S
H1787 C1779 0.929 . S
H1788 C1796 0.929 . S
H1789 C1798 0.930 . S
H1790 C1800 0.930 . S
H1791 C1803 0.929 . S
H1792 C1806 0.930 . S
H1793 C1808 0.960 . S
H1794 C1808 0.960 . S
H1795 C1808 0.960 . S
C1796 H1788 0.929 . S
C1796 C1797 1.377 . S
C1796 C1798 1.384 . S
C1797 C1796 1.377 . S
C1797 C1803 1.390 . S
C1798 H1789 0.930 . S
C1798 C1796 1.384 . S
C1798 C1799 1.372 . S
C1799 C1798 1.372 . S
C1799 C1800 1.400 . S
C1799 C1804 1.490 . S
C1800 H1790 0.930 . S
C1800 C1799 1.400 . S
C1800 C1803 1.386 . S
H1801 C1817 0.930 . S
H1802 C1818 0.931 . S
C1803 H1791 0.929 . S
C1803 C1797 1.390 . S
C1803 C1800 1.386 . S
C1804 C1799 1.490 . S
C1804 C1806 1.395 . S
C1804 C1807 1.403 . S
H1805 C1811 0.930 . S
C1806 H1792 0.930 . S
C1806 C1804 1.395 . S
C1806 C1809 1.403 . S
C1807 C1804 1.403 . S
C1807 C1808 1.524 . S
C1807 C1811 1.400 . S
C1808 H1793 0.960 . S
C1808 H1794 0.960 . S
C1808 H1795 0.960 . S
C1808 C1807 1.524 . S
C1809 C1806 1.403 . S
C1809 C1810 1.392 . S
C1809 C1813 1.495 . S
C1810 C1809 1.392 . S
C1810 C1811 1.385 . S
C1810 C1812 1.478 . S
C1811 H1805 0.930 . S
C1811 C1807 1.400 . S
C1811 C1810 1.385 . S
C1812 C1810 1.478 . S
C1812 C1814 1.381 . S
C1812 C1818 1.383 . S
C1813 C1809 1.495 . S
C1813 H1819 0.959 . S
C1813 H1820 0.961 . S
C1813 H1821 0.960 . S
C1814 C1812 1.381 . S
C1814 C1815 1.394 . S
C1814 H1822 0.930 . S
C1815 C1814 1.394 . S
C1815 C1816 1.383 . S
C1815 H1823 0.929 . S
C1816 C1815 1.383 . S
C1816 C1817 1.377 . S
C1817 H1801 0.930 . S
C1817 C1816 1.377 . S
C1817 C1818 1.379 . S
C1818 H1802 0.931 . S
C1818 C1812 1.383 . S
C1818 C1817 1.379 . S
H1819 C1813 0.959 . S
H1820 C1813 0.961 . S
H1821 C1813 0.960 . S
H1822 C1814 0.930 . S
H1823 C1815 0.929 . S
H1824 C1832 0.929 . S
H1825 C1834 0.930 . S
H1826 C1836 0.930 . S
H1827 C1839 0.929 . S
H1828 C1842 0.930 . S
H1829 C1844 0.960 . S
H1830 C1844 0.960 . S
H1831 C1844 0.960 . S
C1832 H1824 0.929 . S
C1832 C1833 1.377 . S
C1832 C1834 1.384 . S
C1833 C1832 1.377 . S
C1833 C1839 1.390 . S
C1834 H1825 0.930 . S
C1834 C1832 1.384 . S
C1834 C1835 1.372 . S
C1835 C1834 1.372 . S
C1835 C1836 1.400 . S
C1835 C1840 1.490 . S
C1836 H1826 0.930 . S
C1836 C1835 1.400 . S
C1836 C1839 1.386 . S
H1837 C1853 0.930 . S
H1838 C1854 0.931 . S
C1839 H1827 0.929 . S
C1839 C1833 1.390 . S
C1839 C1836 1.386 . S
C1840 C1835 1.490 . S
C1840 C1842 1.395 . S
C1840 C1843 1.403 . S
H1841 C1847 0.930 . S
C1842 H1828 0.930 . S
C1842 C1840 1.395 . S
C1842 C1845 1.403 . S
C1843 C1840 1.403 . S
C1843 C1844 1.524 . S
C1843 C1847 1.400 . S
C1844 H1829 0.960 . S
C1844 H1830 0.960 . S
C1844 H1831 0.960 . S
C1844 C1843 1.524 . S
C1845 C1842 1.403 . S
C1845 C1846 1.392 . S
C1845 C1849 1.495 . S
C1846 C1845 1.392 . S
C1846 C1847 1.385 . S
C1846 C1848 1.478 . S
C1847 H1841 0.930 . S
C1847 C1843 1.400 . S
C1847 C1846 1.385 . S
C1848 C1846 1.478 . S
C1848 C1850 1.381 . S
C1848 C1854 1.383 . S
C1849 C1845 1.495 . S
C1849 H1855 0.959 . S
C1849 H1856 0.961 . S
C1849 H1857 0.960 . S
C1850 C1848 1.381 . S
C1850 C1851 1.394 . S
C1850 H1858 0.930 . S
C1851 C1850 1.394 . S
C1851 C1852 1.383 . S
C1851 H1859 0.929 . S
C1852 C1851 1.383 . S
C1852 C1853 1.377 . S
C1853 H1837 0.930 . S
C1853 C1852 1.377 . S
C1853 C1854 1.379 . S
C1854 H1838 0.931 . S
C1854 C1848 1.383 . S
C1854 C1853 1.379 . S
H1855 C1849 0.959 . S
H1856 C1849 0.961 . S
H1857 C1849 0.960 . S
H1858 C1850 0.930 . S
H1859 C1851 0.929 . S
H1860 C1868 0.929 . S
H1861 C1870 0.930 . S
H1862 C1872 0.930 . S
H1863 C1875 0.929 . S
H1864 C1878 0.930 . S
H1865 C1880 0.960 . S
H1866 C1880 0.960 . S
H1867 C1880 0.960 . S
C1868 H1860 0.929 . S
C1868 C1869 1.377 . S
C1868 C1870 1.384 . S
C1869 C1868 1.377 . S
C1869 C1875 1.390 . S
C1870 H1861 0.930 . S
C1870 C1868 1.384 . S
C1870 C1871 1.372 . S
C1871 C1870 1.372 . S
C1871 C1872 1.400 . S
C1871 C1876 1.490 . S
C1872 H1862 0.930 . S
C1872 C1871 1.400 . S
C1872 C1875 1.386 . S
H1873 C1889 0.930 . S
H1874 C1890 0.931 . S
C1875 H1863 0.929 . S
C1875 C1869 1.390 . S
C1875 C1872 1.386 . S
C1876 C1871 1.490 . S
C1876 C1878 1.395 . S
C1876 C1879 1.403 . S
H1877 C1883 0.930 . S
C1878 H1864 0.930 . S
C1878 C1876 1.395 . S
C1878 C1881 1.403 . S
C1879 C1876 1.403 . S
C1879 C1880 1.524 . S
C1879 C1883 1.400 . S
C1880 H1865 0.960 . S
C1880 H1866 0.960 . S
C1880 H1867 0.960 . S
C1880 C1879 1.524 . S
C1881 C1878 1.403 . S
C1881 C1882 1.392 . S
C1881 C1885 1.495 . S
C1882 C1881 1.392 . S
C1882 C1883 1.385 . S
C1882 C1884 1.478 . S
C1883 H1877 0.930 . S
C1883 C1879 1.400 . S
C1883 C1882 1.385 . S
C1884 C1882 1.478 . S
C1884 C1886 1.381 . S
C1884 C1890 1.383 . S
C1885 C1881 1.495 . S
C1885 H1891 0.959 . S
C1885 H1892 0.961 . S
C1885 H1893 0.960 . S
C1886 C1884 1.381 . S
C1886 C1887 1.394 . S
C1886 H1894 0.930 . S
C1887 C1886 1.394 . S
C1887 C1888 1.383 . S
C1887 H1895 0.929 . S
C1888 C1887 1.383 . S
C1888 C1889 1.377 . S
C1889 H1873 0.930 . S
C1889 C1888 1.377 . S
C1889 C1890 1.379 . S
C1890 H1874 0.931 . S
C1890 C1884 1.383 . S
C1890 C1889 1.379 . S
H1891 C1885 0.959 . S
H1892 C1885 0.961 . S
H1893 C1885 0.960 . S
H1894 C1886 0.930 . S
H1895 C1887 0.929 . S
H1896 C1904 0.929 . S
H1897 C1906 0.930 . S
H1898 C1908 0.930 . S
H1899 C1911 0.929 . S
H1900 C1914 0.930 . S
H1901 C1916 0.960 . S
H1902 C1916 0.960 . S
H1903 C1916 0.960 . S
C1904 H1896 0.929 . S
C1904 C1905 1.377 . S
C1904 C1906 1.384 . S
C1905 C1904 1.377 . S
C1905 C1911 1.390 . S
C1906 H1897 0.930 . S
C1906 C1904 1.384 . S
C1906 C1907 1.372 . S
C1907 C1906 1.372 . S
C1907 C1908 1.400 . S
C1907 C1912 1.490 . S
C1908 H1898 0.930 . S
C1908 C1907 1.400 . S
C1908 C1911 1.386 . S
H1909 C1925 0.930 . S
H1910 C1926 0.931 . S
C1911 H1899 0.929 . S
C1911 C1905 1.390 . S
C1911 C1908 1.386 . S
C1912 C1907 1.490 . S
C1912 C1914 1.395 . S
C1912 C1915 1.403 . S
H1913 C1919 0.930 . S
C1914 H1900 0.930 . S
C1914 C1912 1.395 . S
C1914 C1917 1.403 . S
C1915 C1912 1.403 . S
C1915 C1916 1.524 . S
C1915 C1919 1.400 . S
C1916 H1901 0.960 . S
C1916 H1902 0.960 . S
C1916 H1903 0.960 . S
C1916 C1915 1.524 . S
C1917 C1914 1.403 . S
C1917 C1918 1.392 . S
C1917 C1921 1.495 . S
C1918 C1917 1.392 . S
C1918 C1919 1.385 . S
C1918 C1920 1.478 . S
C1919 H1913 0.930 . S
C1919 C1915 1.400 . S
C1919 C1918 1.385 . S
C1920 C1918 1.478 . S
C1920 C1922 1.381 . S
C1920 C1926 1.383 . S
C1921 C1917 1.495 . S
C1921 H1927 0.959 . S
C1921 H1928 0.961 . S
C1921 H1929 0.960 . S
C1922 C1920 1.381 . S
C1922 C1923 1.394 . S
C1922 H1930 0.930 . S
C1923 C1922 1.394 . S
C1923 C1924 1.383 . S
C1923 H1931 0.929 . S
C1924 C1923 1.383 . S
C1924 C1925 1.377 . S
C1925 H1909 0.930 . S
C1925 C1924 1.377 . S
C1925 C1926 1.379 . S
C1926 H1910 0.931 . S
C1926 C1920 1.383 . S
C1926 C1925 1.379 . S
H1927 C1921 0.959 . S
H1928 C1921 0.961 . S
H1929 C1921 0.960 . S
H1930 C1922 0.930 . S
H1931 C1923 0.929 . S
H1932 C1940 0.929 . S
H1933 C1942 0.930 . S
H1934 C1944 0.930 . S
H1935 C1947 0.929 . S
H1936 C1950 0.930 . S
H1937 C1952 0.960 . S
H1938 C1952 0.960 . S
H1939 C1952 0.960 . S
C1940 H1932 0.929 . S
C1940 C1941 1.377 . S
C1940 C1942 1.384 . S
C1941 C1940 1.377 . S
C1941 C1947 1.390 . S
C1942 H1933 0.930 . S
C1942 C1940 1.384 . S
C1942 C1943 1.372 . S
C1943 C1942 1.372 . S
C1943 C1944 1.400 . S
C1943 C1948 1.490 . S
C1944 H1934 0.930 . S
C1944 C1943 1.400 . S
C1944 C1947 1.386 . S
H1945 C1961 0.930 . S
H1946 C1962 0.931 . S
C1947 H1935 0.929 . S
C1947 C1941 1.390 . S
C1947 C1944 1.386 . S
C1948 C1943 1.490 . S
C1948 C1950 1.395 . S
C1948 C1951 1.403 . S
H1949 C1955 0.930 . S
C1950 H1936 0.930 . S
C1950 C1948 1.395 . S
C1950 C1953 1.403 . S
C1951 C1948 1.403 . S
C1951 C1952 1.524 . S
C1951 C1955 1.400 . S
C1952 H1937 0.960 . S
C1952 H1938 0.960 . S
C1952 H1939 0.960 . S
C1952 C1951 1.524 . S
C1953 C1950 1.403 . S
C1953 C1954 1.392 . S
C1953 C1957 1.495 . S
C1954 C1953 1.392 . S
C1954 C1955 1.385 . S
C1954 C1956 1.478 . S
C1955 H1949 0.930 . S
C1955 C1951 1.400 . S
C1955 C1954 1.385 . S
C1956 C1954 1.478 . S
C1956 C1958 1.381 . S
C1956 C1962 1.383 . S
C1957 C1953 1.495 . S
C1957 H1963 0.959 . S
C1957 H1964 0.961 . S
C1957 H1965 0.960 . S
C1958 C1956 1.381 . S
C1958 C1959 1.394 . S
C1958 H1966 0.930 . S
C1959 C1958 1.394 . S
C1959 C1960 1.383 . S
C1959 H1967 0.929 . S
C1960 C1959 1.383 . S
C1960 C1961 1.377 . S
C1961 H1945 0.930 . S
C1961 C1960 1.377 . S
C1961 C1962 1.379 . S
C1962 H1946 0.931 . S
C1962 C1956 1.383 . S
C1962 C1961 1.379 . S
H1963 C1957 0.959 . S
H1964 C1957 0.961 . S
H1965 C1957 0.960 . S
H1966 C1958 0.930 . S
H1967 C1959 0.929 . S
C537 C21 0.460 . S
C556 N365 0.421 . S
C573 N266 0.448 . S
C592 C54 0.487 . S
C609 N299 0.437 . S
C628 C87 0.464 . S
C645 N332 0.451 . S
C664 C120 0.419 . S
C681 N167 0.425 . S
C700 C153 0.391 . S
C717 N200 0.451 . S
C736 C186 0.412 . S
C753 C219 0.469 . S
C772 N233 0.457 . S
C789 C252 0.479 . S
C808 N134 0.385 . S
C825 C285 0.472 . S
C844 N101 0.468 . S
C861 C318 0.462 . S
C880 N2 0.501 . S
C897 N35 0.434 . S
C916 C351 0.449 . S
C933 C384 0.481 . S
C952 N68 0.419 . S
C969 N431 0.448 . S
C988 C417 0.524 . S
C1005 N464 0.449 . S
C1024 C450 0.480 . S
C1041 N497 0.434 . S
C1060 C483 0.449 . S
C1077 C516 0.461 . S
C1096 N398 0.404 . S
C1113 C18 1.079 . S
C1132 C84 1.096 . S
C1149 C51 1.078 . S
C1168 C117 1.072 . S
C1185 C216 1.079 . S
C1204 C150 1.092 . S
C1221 C249 1.078 . S
C1240 C183 1.064 . S
C1257 C348 1.080 . S
C1276 C282 1.092 . S
C1293 C315 1.083 . S
C1312 C381 1.096 . S
C1329 C414 1.079 . S
C1348 C480 1.094 . S
C1365 C513 1.079 . S
C1384 C447 1.079 . S
C1401 C73 0.822 1_455 S
C1420 C7 0.772 1_655 S
C1437 C40 0.830 1_545 S
C1456 C106 0.776 1_565 S
C1473 C139 0.831 1_655 S
C1492 C205 0.820 1_455 S
C1509 C238 0.825 1_565 S
C1528 C172 0.799 1_545 S
C1545 C337 0.810 . S
C1564 C271 0.816 . S
C1581 C304 0.822 . S
C1600 C370 0.829 . S
C1617 C403 0.833 . S
C1636 C469 0.830 . S
C1653 C502 0.828 . S
C1672 C436 0.784 . S
C1689 N475 1.655 . S
C1708 N13 1.677 . S
C1725 N46 1.664 . S
C1744 N508 1.664 . S
C1761 N79 1.661 . S
C1780 N409 1.632 . S
C1797 N112 1.654 . S
C1816 N442 1.665 . S
C1833 N145 1.660 . S
C1852 N343 1.677 . S
C1869 N376 1.656 . S
C1888 N178 1.679 . S
C1905 N211 1.663 . S
C1924 N277 1.631 . S
C1941 N244 1.660 . S
C1960 N310 1.678 . S
