# Generated by pormake.
# Topology umx, (4)-cn, num edge types: 1
# Building blocks:
#     Node 0, Type 0, BuildingBlock: QUQFOY_clean_sbu_1, # of connection points: 4
#     Node 1, Type 0, BuildingBlock: QUQFOY_clean_sbu_1, # of connection points: 4
#     Node 2, Type 0, BuildingBlock: QUQFOY_clean_sbu_1, # of connection points: 4
#     Node 3, Type 0, BuildingBlock: QUQFOY_clean_sbu_1, # of connection points: 4
#     Node 4, Type 0, BuildingBlock: QUQFOY_clean_sbu_1, # of connection points: 4
#     Node 5, Type 0, BuildingBlock: QUQFOY_clean_sbu_1, # of connection points: 4
#     Node 6, Type 0, BuildingBlock: QUQFOY_clean_sbu_1, # of connection points: 4
#     Node 7, Type 0, BuildingBlock: QUQFOY_clean_sbu_1, # of connection points: 4
#     Edge 8, Type (0, 0), BuildingBlock: ZUJKAS_clean_linker_0, # of connection points: 2
#     Edge 9, Type (0, 0), BuildingBlock: ZUJKAS_clean_linker_0, # of connection points: 2
#     Edge 10, Type (0, 0), BuildingBlock: ZUJKAS_clean_linker_0, # of connection points: 2
#     Edge 11, Type (0, 0), BuildingBlock: ZUJKAS_clean_linker_0, # of connection points: 2
#     Edge 12, Type (0, 0), BuildingBlock: ZUJKAS_clean_linker_0, # of connection points: 2
#     Edge 13, Type (0, 0), BuildingBlock: ZUJKAS_clean_linker_0, # of connection points: 2
#     Edge 14, Type (0, 0), BuildingBlock: ZUJKAS_clean_linker_0, # of connection points: 2
#     Edge 15, Type (0, 0), BuildingBlock: ZUJKAS_clean_linker_0, # of connection points: 2
#     Edge 16, Type (0, 0), BuildingBlock: ZUJKAS_clean_linker_0, # of connection points: 2
#     Edge 17, Type (0, 0), BuildingBlock: ZUJKAS_clean_linker_0, # of connection points: 2
#     Edge 18, Type (0, 0), BuildingBlock: ZUJKAS_clean_linker_0, # of connection points: 2
#     Edge 19, Type (0, 0), BuildingBlock: ZUJKAS_clean_linker_0, # of connection points: 2
#     Edge 20, Type (0, 0), BuildingBlock: ZUJKAS_clean_linker_0, # of connection points: 2
#     Edge 21, Type (0, 0), BuildingBlock: ZUJKAS_clean_linker_0, # of connection points: 2
#     Edge 22, Type (0, 0), BuildingBlock: ZUJKAS_clean_linker_0, # of connection points: 2
#     Edge 23, Type (0, 0), BuildingBlock: ZUJKAS_clean_linker_0, # of connection points: 2
# Relax obj value: 0.063
# Max RMSD: 0.141
# Mean RMSD: 0.141
data_MOF--net-umx--node1-QUQFOY_clean_sbu_1--edge1-ZUJKAS_clean_linker_0
_symmetry_space_group_name_H-M    P1
_symmetry_Int_Tables_number       1
_symmetry_cell_setting            triclinic
loop_
_symmetry_equiv_pos_as_xyz
'x, y, z'
_cell_length_a     52.374357
_cell_length_b     52.412358
_cell_length_c     37.458339
_cell_angle_alpha  89.998303
_cell_angle_beta   90.008897
_cell_angle_gamma 89.999446
loop_
_atom_site_label
_atom_site_type_symbol
_atom_site_fract_x
_atom_site_fract_y
_atom_site_fract_z
_atom_type_partial_charge
O0 O 0.19508 0.44715 0.08111 0.0
Cd1 Cd 0.18106 0.43076 0.03538 0.0
Cd2 Cd 0.19215 0.47754 0.0088 0.0
O3 O 0.2083 0.48386 0.05886 0.0
O4 O 0.18401 0.39318 0.0435 0.0
O5 O 0.20678 0.41404 1.00322 0.0
C6 C 0.20193 0.39299 0.01984 0.0
C7 C 0.21286 0.48407 0.95432 0.0
C8 C 0.20606 0.46858 0.08512 0.0
C9 C 0.13667 0.46183 0.01069 0.0
O10 O 0.15294 0.47938 1.00514 0.0
O11 O 0.14376 0.43993 0.02154 0.0
O12 O 0.2051 0.50304 0.97343 0.0
O13 O 0.21039 0.46139 0.96742 0.0
O14 O 0.56178 0.19229 0.57988 0.0
Cd15 Cd 0.57805 0.17928 0.53321 0.0
Cd16 Cd 0.53195 0.19213 0.50776 0.0
O17 O 0.52692 0.20939 0.55699 0.0
O18 O 0.61585 0.18195 0.54055 0.0
O19 O 0.59437 0.20597 0.50238 0.0
C20 C 0.61567 0.20063 0.51807 0.0
C21 C 0.52658 0.21248 0.45283 0.0
C22 C 0.54139 0.20518 0.58366 0.0
C23 C 0.54523 0.13622 0.50895 0.0
O24 O 0.52788 0.15308 0.50631 0.0
O25 O 0.56804 0.14272 0.51659 0.0
O26 O 0.50716 0.20603 0.47204 0.0
O27 O 0.54909 0.20865 0.46588 0.0
O28 O 0.81926 0.56517 0.08366 0.0
Cd29 Cd 0.83284 0.5807 0.03711 0.0
Cd30 Cd 0.82035 0.53412 0.01166 0.0
O31 O 0.804 0.52912 0.06189 0.0
O32 O 0.82998 0.61848 0.04346 0.0
O33 O 0.80662 0.59653 1.00498 0.0
C34 C 0.81165 0.61799 0.02043 0.0
C35 C 0.79956 0.52674 0.95741 0.0
C36 C 0.80728 0.54433 0.08804 0.0
C37 C 0.87623 0.54838 0.0125 0.0
O38 O 0.85952 0.53108 1.00809 0.0
O39 O 0.86972 0.57069 0.02241 0.0
O40 O 0.80663 0.50809 0.97763 0.0
O41 O 0.80276 0.54967 0.96922 0.0
O42 O 0.45019 0.81513 0.58178 0.0
Cd43 Cd 0.43504 0.82908 0.53486 0.0
Cd44 Cd 0.48182 0.81656 0.51205 0.0
O45 O 0.48601 0.79875 0.56101 0.0
O46 O 0.39734 0.8274 0.54296 0.0
O47 O 0.41742 0.80385 0.50281 0.0
C48 C 0.39654 0.80941 0.51946 0.0
C49 C 0.48805 0.79687 0.45687 0.0
C50 C 0.47057 0.80245 0.5867 0.0
C51 C 0.46859 0.8724 0.51349 0.0
O52 O 0.48604 0.85559 0.51166 0.0
O53 O 0.44558 0.86582 0.51963 0.0
O54 O 0.50712 0.8029 0.47702 0.0
O55 O 0.4653 0.8007 0.46911 0.0
O56 O 0.19376 0.56353 0.45208 0.0
Cd57 Cd 0.17966 0.58049 0.49734 0.0
Cd58 Cd 0.19194 0.53475 0.52576 0.0
O59 O 0.20855 0.52807 0.47612 0.0
O60 O 0.18278 0.61784 0.48783 0.0
O61 O 0.20495 0.59779 0.52958 0.0
C62 C 0.20041 0.61847 0.5119 0.0
C63 C 0.21255 0.52763 0.58026 0.0
C64 C 0.2056 0.5425 0.44907 0.0
C65 C 0.13598 0.54916 0.52299 0.0
O66 O 0.15271 0.53213 0.52907 0.0
O67 O 0.14253 0.57107 0.51151 0.0
O68 O 0.20496 0.50892 0.56054 0.0
O69 O 0.20988 0.55049 0.56789 0.0
O70 O 0.44914 0.19326 0.95352 0.0
Cd71 Cd 0.43392 0.18021 1.00076 0.0
Cd72 Cd 0.48068 0.19279 0.02432 0.0
O73 O 0.48515 0.20927 0.97439 0.0
O74 O 0.39605 0.1824 0.99433 0.0
O75 O 0.41762 0.20669 0.03206 0.0
C76 C 0.39622 0.20106 0.01683 0.0
C77 C 0.48732 0.21362 0.07857 0.0
C78 C 0.46979 0.2055 0.94858 0.0
C79 C 0.46693 0.13703 0.02472 0.0
O80 O 0.48442 0.15376 0.02712 0.0
O81 O 0.4442 0.14361 0.01683 0.0
O82 O 0.50626 0.20699 0.05856 0.0
O83 O 0.4645 0.20985 0.06657 0.0
O84 O 0.81821 0.4483 0.45446 0.0
Cd85 Cd 0.83175 0.43089 0.49974 0.0
Cd86 Cd 0.82019 0.47669 0.52871 0.0
O87 O 0.80384 0.48379 0.47899 0.0
O88 O 0.82818 0.39341 0.49111 0.0
O89 O 0.80559 0.41448 0.5314 0.0
C90 C 0.81016 0.39342 0.51462 0.0
C91 C 0.79955 0.48304 0.58337 0.0
C92 C 0.80671 0.46955 0.45171 0.0
C93 C 0.87587 0.46149 0.52592 0.0
O94 O 0.85944 0.47878 0.53214 0.0
O95 O 0.86894 0.43973 0.5143 0.0
O96 O 0.80733 0.50206 0.56437 0.0
O97 O 0.80203 0.46041 0.57014 0.0
O98 O 0.56247 0.8184 0.95415 0.0
Cd99 Cd 0.57928 0.83166 1.0002 0.0
Cd100 Cd 0.5335 0.81897 0.0273 0.0
O101 O 0.52766 0.8019 0.97798 0.0
O102 O 0.61696 0.82879 0.99221 0.0
O103 O 0.5958 0.80526 0.03131 0.0
C104 C 0.61696 0.81039 0.01512 0.0
C105 C 0.52777 0.79861 0.08218 0.0
C106 C 0.54187 0.80577 0.95094 0.0
C107 C 0.5472 0.8749 0.02555 0.0
O108 O 0.52995 0.85809 0.02955 0.0
O109 O 0.56966 0.86839 0.01622 0.0
O110 O 0.50849 0.80553 0.06302 0.0
O111 O 0.55034 0.80186 0.06903 0.0
H112 H 0.21739 0.43696 0.14045 0.0
H113 H 0.22503 0.4486 0.20262 0.0
H114 H 0.22058 0.52831 0.17478 0.0
H115 H 0.21356 0.51677 0.112 0.0
H116 H 0.25803 0.51792 0.22642 0.0
H117 H 0.16538 0.47346 0.26267 0.0
H118 H 0.18706 0.452 0.2409 0.0
H119 H 0.17466 0.47908 0.21699 0.0
C120 C 0.21837 0.457 0.14742 0.0
C121 C 0.21452 0.47596 0.1214 0.0
C122 C 0.22264 0.4636 0.18301 0.0
C123 C 0.22267 0.48929 0.19349 0.0
C124 C 0.22041 0.50835 0.16729 0.0
H125 H 0.21085 0.57221 0.38984 0.0
H126 H 0.21913 0.55837 0.32879 0.0
C127 C 0.21644 0.50174 0.13144 0.0
C128 C 0.22343 0.49607 0.23195 0.0
H129 H 0.19094 0.48828 0.31027 0.0
C130 C 0.24339 0.51143 0.24479 0.0
C131 C 0.20425 0.48766 0.25587 0.0
C132 C 0.18149 0.47235 0.24343 0.0
C133 C 0.24476 0.51843 0.28099 0.0
C134 C 0.22557 0.50999 0.3048 0.0
C135 C 0.2058 0.49444 0.29203 0.0
C136 C 0.22431 0.51862 0.34246 0.0
C137 C 0.26674 0.5347 0.29354 0.0
C138 C 0.22457 0.50085 0.37054 0.0
C139 C 0.21982 0.50871 0.40568 0.0
C140 C 0.2143 0.53442 0.41314 0.0
C141 C 0.21496 0.55225 0.38504 0.0
C142 C 0.2199 0.54442 0.3501 0.0
H143 H 0.28319 0.5337 0.27486 0.0
H144 H 0.26042 0.55488 0.29508 0.0
H145 H 0.27321 0.52877 0.32053 0.0
H146 H 0.22771 0.48079 0.36511 0.0
H147 H 0.21934 0.4945 0.42666 0.0
H148 H 0.49411 0.22043 0.60671 0.0
H149 H 0.48085 0.22846 0.66849 0.0
H150 H 0.55816 0.21649 0.70425 0.0
H151 H 0.57156 0.20831 0.64286 0.0
H152 H 0.4895 0.18902 0.72318 0.0
H153 H 0.53332 0.28226 0.75843 0.0
H154 H 0.52659 0.27304 0.71286 0.0
H155 H 0.55369 0.25988 0.73571 0.0
C156 C 0.50838 0.22005 0.62762 0.0
C157 C 0.53386 0.21359 0.61991 0.0
C158 C 0.50077 0.22462 0.66287 0.0
C159 C 0.51859 0.22329 0.69081 0.0
C160 C 0.54421 0.21799 0.68299 0.0
H161 H 0.51727 0.21551 0.92112 0.0
H162 H 0.52823 0.22225 0.85817 0.0
C163 C 0.55178 0.21315 0.6479 0.0
C164 C 0.51003 0.22436 0.72842 0.0
H165 H 0.51654 0.25762 0.8063 0.0
C166 C 0.49511 0.20417 0.74131 0.0
C167 C 0.5178 0.24393 0.75198 0.0
C168 C 0.5336 0.26615 0.73914 0.0
C169 C 0.48826 0.20262 0.77742 0.0
C170 C 0.49585 0.22229 0.80111 0.0
C171 C 0.51062 0.24265 0.7881 0.0
C172 C 0.4891 0.22153 0.83957 0.0
C173 C 0.47384 0.17934 0.79005 0.0
C174 C 0.46346 0.21997 0.85017 0.0
C175 C 0.4572 0.21577 0.88591 0.0
C176 C 0.47644 0.21361 0.91191 0.0
C177 C 0.50204 0.21705 0.90168 0.0
C178 C 0.50832 0.22089 0.86573 0.0
H179 H 0.47587 0.16312 0.77116 0.0
H180 H 0.48061 0.17308 0.81674 0.0
H181 H 0.45323 0.18401 0.79204 0.0
H182 H 0.44828 0.22117 0.8306 0.0
H183 H 0.43727 0.2136 0.89304 0.0
H184 H 0.8025 0.4408 0.39134 0.0
H185 H 0.79485 0.45564 0.33053 0.0
H186 H 0.78471 0.53241 0.36931 0.0
H187 H 0.79247 0.51773 0.43058 0.0
H188 H 0.75319 0.48469 0.29718 0.0
H189 H 0.84683 0.53501 0.29892 0.0
H190 H 0.83843 0.51116 0.33162 0.0
H191 H 0.82498 0.5426 0.3344 0.0
C192 C 0.79832 0.46081 0.38711 0.0
C193 C 0.79841 0.47815 0.41582 0.0
C194 C 0.79385 0.46922 0.3523 0.0
C195 C 0.78954 0.49513 0.34541 0.0
C196 C 0.78826 0.51234 0.37411 0.0
H197 H 0.80013 0.57637 0.14429 0.0
H198 H 0.79168 0.56505 0.20631 0.0
C199 C 0.7926 0.50391 0.40909 0.0
C200 C 0.78852 0.5042 0.30798 0.0
H201 H 0.82314 0.5369 0.24589 0.0
C202 C 0.76834 0.49628 0.28592 0.0
C203 C 0.80842 0.51915 0.29342 0.0
C204 C 0.83104 0.52739 0.31561 0.0
C205 C 0.76748 0.50308 0.24961 0.0
C206 C 0.78764 0.51767 0.23489 0.0
C207 C 0.80764 0.52579 0.25717 0.0
C208 C 0.78896 0.52447 0.19641 0.0
C209 C 0.74488 0.49482 0.2275 0.0
C210 C 0.7897 0.50547 0.16993 0.0
C211 C 0.7943 0.51194 0.13419 0.0
C212 C 0.79868 0.53748 0.12449 0.0
C213 C 0.79701 0.55649 0.15089 0.0
C214 C 0.79216 0.55006 0.18639 0.0
H215 H 0.72794 0.49086 0.24447 0.0
H216 H 0.7397 0.50956 0.20748 0.0
H217 H 0.74977 0.47698 0.21308 0.0
H218 H 0.78787 0.48553 0.17706 0.0
H219 H 0.79567 0.49684 0.11453 0.0
H220 H 0.57088 0.8041 0.89051 0.0
H221 H 0.55665 0.79534 0.82965 0.0
H222 H 0.48079 0.77954 0.86837 0.0
H223 H 0.49483 0.78829 0.92964 0.0
H224 H 0.52935 0.75054 0.79721 0.0
H225 H 0.47519 0.84204 0.79725 0.0
H226 H 0.49996 0.83533 0.82942 0.0
H227 H 0.46932 0.82031 0.83353 0.0
C228 C 0.55122 0.79844 0.88624 0.0
C229 C 0.53391 0.79717 0.91493 0.0
C230 C 0.54318 0.79333 0.85143 0.0
C231 C 0.51766 0.78704 0.84457 0.0
C232 C 0.50055 0.78454 0.87321 0.0
H233 H 0.43765 0.79515 0.64198 0.0
H234 H 0.4482 0.78678 0.70435 0.0
C235 C 0.50863 0.78949 0.90817 0.0
C236 C 0.50867 0.78529 0.80719 0.0
H237 H 0.47496 0.8182 0.7444 0.0
C238 C 0.51727 0.76516 0.78561 0.0
C239 C 0.49302 0.80448 0.79226 0.0
C240 C 0.48389 0.8269 0.81409 0.0
C241 C 0.51053 0.76369 0.74932 0.0
C242 C 0.49535 0.78325 0.73414 0.0
C243 C 0.48651 0.80315 0.75601 0.0
C244 C 0.48895 0.78421 0.6955 0.0
C245 C 0.51952 0.74111 0.72777 0.0
C246 C 0.50829 0.78496 0.6695 0.0
C247 C 0.50226 0.78942 0.63361 0.0
C248 C 0.47682 0.79374 0.62326 0.0
C249 C 0.45745 0.79205 0.64913 0.0
C250 C 0.46345 0.78725 0.68482 0.0
H251 H 0.52339 0.72435 0.74511 0.0
H252 H 0.50524 0.73559 0.70727 0.0
H253 H 0.5376 0.74615 0.71403 0.0
H254 H 0.52816 0.78331 0.67713 0.0
H255 H 0.51762 0.79084 0.61434 0.0
H256 H 0.78714 0.44666 0.63291 0.0
H257 H 0.77914 0.4531 0.69667 0.0
H258 H 0.78497 0.5345 0.68221 0.0
H259 H 0.79276 0.52828 0.6185 0.0
H260 H 0.81463 0.47638 0.74135 0.0
H261 H 0.72234 0.52805 0.74703 0.0
H262 H 0.73258 0.5105 0.70806 0.0
H263 H 0.74513 0.54181 0.71682 0.0
C264 C 0.78612 0.46597 0.64311 0.0
C265 C 0.79063 0.48696 0.62057 0.0
C266 C 0.78159 0.46961 0.6796 0.0
C267 C 0.78122 0.49429 0.6942 0.0
C268 C 0.78466 0.51531 0.67149 0.0
H269 H 0.79199 0.56161 0.90398 0.0
H270 H 0.78496 0.55276 0.84056 0.0
C271 C 0.78925 0.5117 0.63504 0.0
C272 C 0.78011 0.49793 0.73352 0.0
H273 H 0.74741 0.52804 0.80034 0.0
C274 C 0.79975 0.48739 0.75432 0.0
C275 C 0.76085 0.51256 0.75033 0.0
C276 C 0.73889 0.52371 0.72949 0.0
C277 C 0.80108 0.49164 0.79127 0.0
C278 C 0.78186 0.50633 0.80816 0.0
C279 C 0.76206 0.51669 0.78743 0.0
C280 C 0.78269 0.5118 0.8471 0.0
C281 C 0.82366 0.48115 0.81163 0.0
C282 C 0.78266 0.49183 0.87208 0.0
C283 C 0.78684 0.49681 0.9083 0.0
C284 C 0.7908 0.52192 0.92034 0.0
C285 C 0.78906 0.54205 0.89561 0.0
C286 C 0.78506 0.53702 0.85931 0.0
H287 H 0.83973 0.47612 0.79359 0.0
H288 H 0.83065 0.49513 0.83165 0.0
H289 H 0.8178 0.46357 0.82594 0.0
H290 H 0.78025 0.47227 0.86339 0.0
H291 H 0.78784 0.48087 0.92666 0.0
H292 H 0.48286 0.79305 0.11862 0.0
H293 H 0.47744 0.78547 0.18259 0.0
H294 H 0.55886 0.77682 0.19435 0.0
H295 H 0.56454 0.78473 0.13043 0.0
H296 H 0.49205 0.74569 0.23052 0.0
H297 H 0.54115 0.83737 0.25989 0.0
H298 H 0.5304 0.82897 0.21566 0.0
H299 H 0.55922 0.81529 0.23332 0.0
C300 C 0.49961 0.78914 0.13466 0.0
C301 C 0.52417 0.78979 0.11946 0.0
C302 C 0.49646 0.78479 0.17125 0.0
C303 C 0.51778 0.78107 0.19332 0.0
C304 C 0.54219 0.78013 0.17788 0.0
H305 H 0.53351 0.78621 0.4243 0.0
H306 H 0.54097 0.77842 0.36084 0.0
C307 C 0.54538 0.78452 0.1413 0.0
C308 C 0.51456 0.78003 0.23267 0.0
H309 H 0.52829 0.81269 0.30915 0.0
C310 C 0.50004 0.76026 0.24779 0.0
C311 C 0.52487 0.79915 0.2551 0.0
C312 C 0.5396 0.82154 0.24027 0.0
C313 C 0.49578 0.75898 0.28484 0.0
C314 C 0.50596 0.77823 0.3072 0.0
C315 C 0.52064 0.79785 0.29203 0.0
C316 C 0.50101 0.77916 0.34625 0.0
C317 C 0.48066 0.73693 0.29972 0.0
C318 C 0.476 0.78171 0.35934 0.0
C319 C 0.47165 0.78607 0.39572 0.0
C320 C 0.49226 0.78823 0.41963 0.0
C321 C 0.5172 0.78466 0.40665 0.0
C322 C 0.52152 0.78023 0.37034 0.0
H323 H 0.48076 0.72034 0.28126 0.0
H324 H 0.48832 0.73076 0.32599 0.0
H325 H 0.46054 0.74295 0.30351 0.0
H326 H 0.45989 0.78152 0.34122 0.0
H327 H 0.45222 0.78889 0.40477 0.0
H328 H 0.21816 0.52932 0.91867 0.0
H329 H 0.22541 0.53539 0.85473 0.0
H330 H 0.23423 0.45418 0.84133 0.0
H331 H 0.22672 0.44785 0.90524 0.0
H332 H 0.2653 0.52093 0.80596 0.0
H333 H 0.17296 0.47286 0.77689 0.0
H334 H 0.18164 0.48332 0.82115 0.0
H335 H 0.19512 0.45457 0.80308 0.0
C336 C 0.22206 0.51275 0.90228 0.0
C337 C 0.22159 0.48806 0.91705 0.0
C338 C 0.22622 0.51628 0.8657 0.0
C339 C 0.22989 0.49521 0.84319 0.0
C340 C 0.231 0.47067 0.85816 0.0
H341 H 0.22241 0.48175 0.61204 0.0
H342 H 0.23053 0.47364 0.67526 0.0
C343 C 0.22684 0.46711 0.89474 0.0
C344 C 0.2307 0.49882 0.80387 0.0
H345 H 0.19729 0.48624 0.72759 0.0
C346 C 0.25051 0.51328 0.78874 0.0
C347 C 0.2113 0.48894 0.7815 0.0
C348 C 0.1889 0.47423 0.79637 0.0
C349 C 0.25157 0.51789 0.75174 0.0
C350 C 0.23203 0.50817 0.72944 0.0
C351 C 0.21236 0.49356 0.74463 0.0
C352 C 0.2309 0.51346 0.69044 0.0
C353 C 0.27375 0.53284 0.73686 0.0
C354 C 0.2289 0.5386 0.6777 0.0
C355 C 0.22441 0.54333 0.64143 0.0
C356 C 0.22151 0.52298 0.61727 0.0
C357 C 0.22453 0.49788 0.62988 0.0
C358 C 0.22914 0.49319 0.66607 0.0
H359 H 0.29051 0.53222 0.75503 0.0
H360 H 0.27957 0.52545 0.71029 0.0
H361 H 0.26802 0.5531 0.73373 0.0
H362 H 0.22963 0.55456 0.69603 0.0
H363 H 0.22199 0.56287 0.63266 0.0
H364 H 0.56369 0.22426 0.40412 0.0
H365 H 0.55805 0.23278 0.34039 0.0
H366 H 0.47634 0.22865 0.35321 0.0
H367 H 0.48177 0.22039 0.41696 0.0
H368 H 0.53473 0.1981 0.29516 0.0
H369 H 0.48462 0.29118 0.28892 0.0
H370 H 0.50145 0.28048 0.32827 0.0
H371 H 0.47003 0.26853 0.31855 0.0
C372 C 0.54449 0.22575 0.39357 0.0
C373 C 0.52318 0.22158 0.41565 0.0
C374 C 0.54131 0.23059 0.35711 0.0
C375 C 0.51677 0.23158 0.34206 0.0
C376 C 0.49543 0.22849 0.36431 0.0
H377 H 0.45182 0.22121 0.13115 0.0
H378 H 0.45999 0.22841 0.1947 0.0
C379 C 0.49859 0.22362 0.40077 0.0
C380 C 0.51359 0.23289 0.30271 0.0
H381 H 0.48477 0.26626 0.23544 0.0
C382 C 0.5241 0.21319 0.28204 0.0
C383 C 0.49946 0.25244 0.28571 0.0
C384 C 0.48841 0.2745 0.30643 0.0
C385 C 0.5203 0.21207 0.245 0.0
C386 C 0.50609 0.23155 0.22794 0.0
C387 C 0.49575 0.25143 0.24853 0.0
C388 C 0.50102 0.23087 0.18894 0.0
C389 C 0.53074 0.18947 0.2247 0.0
C390 C 0.52128 0.23095 0.16441 0.0
C391 C 0.51669 0.22669 0.12812 0.0
C392 C 0.49171 0.22255 0.11561 0.0
C393 C 0.47129 0.22427 0.1399 0.0
C394 C 0.47592 0.22837 0.17625 0.0
H395 H 0.53555 0.17333 0.24273 0.0
H396 H 0.51681 0.18264 0.20449 0.0
H397 H 0.54845 0.19522 0.21059 0.0
H398 H 0.54075 0.23341 0.17352 0.0
H399 H 0.53283 0.22571 0.11009 0.0
H400 H 0.91727 0.56669 0.04949 0.0
H401 H 0.96144 0.55165 0.04622 0.0
H402 H 0.94077 0.50054 0.96057 0.0
H403 H 0.89634 0.51435 0.96549 0.0
H404 H 0.96842 0.47606 1.0039 0.0
H405 H 0.01772 0.56771 0.98069 0.0
H406 H 0.99969 0.56877 0.02127 0.0
H407 H 0.98345 0.56499 0.97913 0.0
C408 C 0.9223 0.55253 0.02963 0.0
C409 C 0.90345 0.54176 1.00764 0.0
C410 C 0.9476 0.54402 0.0276 0.0
C411 C 0.95472 0.52524 1.00266 0.0
C412 C 0.9359 0.51501 0.98005 0.0
H413 H 0.11521 0.49314 0.96127 0.0
H414 H 0.07056 0.50635 0.95697 0.0
C415 C 0.91051 0.523 0.98275 0.0
C416 C 0.98132 0.51509 1.00143 0.0
H417 H 0.04403 0.53278 0.99912 0.0
C418 C 0.98494 0.48851 1.00242 0.0
C419 C 1.00299 0.53116 0.99897 0.0
C420 C 1.00075 0.5597 0.99455 0.0
C421 C 0.00943 0.4776 1.0014 0.0
C422 C 0.03114 0.49373 1.00111 0.0
C423 C 0.02751 0.5203 0.99973 0.0
C424 C 0.05778 0.48366 1.00191 0.0
C425 C 0.01158 0.44891 0.99965 0.0
C426 C 0.06562 0.46614 0.0282 0.0
C427 C 0.09103 0.45791 0.02989 0.0
C428 C 0.10928 0.46777 1.00616 0.0
C429 C 0.10149 0.48522 0.97987 0.0
C430 C 0.07599 0.49286 0.97753 0.0
H431 H 0.99428 0.44027 0.98747 0.0
H432 H 0.02849 0.44284 0.98392 0.0
H433 H 0.01334 0.44119 0.02712 0.0
H434 H 0.05229 0.45936 0.04814 0.0
H435 H 0.09665 0.4448 0.05083 0.0
H436 H 0.51651 0.89256 0.50885 0.0
H437 H 0.52871 0.93736 0.50577 0.0
H438 H 0.44931 0.95917 0.50564 0.0
H439 H 0.43684 0.91418 0.50976 0.0
H440 H 0.51956 0.97376 0.45677 0.0
H441 H 0.47678 1.00209 0.58639 0.0
H442 H 0.48018 0.96917 0.57319 0.0
H443 H 0.45433 0.98813 0.55593 0.0
C444 C 0.50155 0.90682 0.50817 0.0
C445 C 0.47565 0.89972 0.50983 0.0
C446 C 0.50861 0.93248 0.50637 0.0
C447 C 0.48998 0.9517 0.5061 0.0
C448 C 0.46406 0.94471 0.50673 0.0
H449 H 0.49787 0.11652 0.49604 0.0
H450 H 0.48529 0.07176 0.49353 0.0
C451 C 0.45695 0.91897 0.50884 0.0
C452 C 0.49791 0.97893 0.50514 0.0
H453 H 0.49348 0.03536 0.55043 0.0
C454 C 0.5139 0.98721 0.47731 0.0
C455 C 0.49067 0.99646 0.53207 0.0
C456 C 0.47476 0.98851 0.56378 0.0
C457 C 0.52253 0.01256 0.47542 0.0
C458 C 0.51511 0.03005 0.50217 0.0
C459 C 0.49909 0.02186 0.52992 0.0
C460 C 0.52342 0.0571 0.5017 0.0
C461 C 0.53919 0.0206 0.44456 0.0
C462 C 0.54913 0.06372 0.50701 0.0
C463 C 0.55647 0.08942 0.5086 0.0
C464 C 0.53818 0.10892 0.50491 0.0
C465 C 0.51252 0.10208 0.49897 0.0
C466 C 0.50523 0.07648 0.49756 0.0
H467 H 0.53908 0.0063 0.42266 0.0
H468 H 0.53282 0.03927 0.43373 0.0
H469 H 0.55914 0.02284 0.45404 0.0
H470 H 0.56341 0.04902 0.51073 0.0
H471 H 0.57635 0.09398 0.51334 0.0
H472 H 0.0951 0.56663 0.48476 0.0
H473 H 0.05095 0.55152 0.48807 0.0
H474 H 0.07121 0.50219 0.57592 0.0
H475 H 0.1156 0.51609 0.57111 0.0
H476 H 0.04403 0.47675 0.53269 0.0
H477 H 0.99418 0.56853 0.55261 0.0
H478 H 0.01251 0.56895 0.51227 0.0
H479 H 0.02845 0.56596 0.55475 0.0
C480 C 0.08999 0.55286 0.50511 0.0
C481 C 0.10873 0.5426 0.52776 0.0
C482 C 0.06469 0.54431 0.50715 0.0
C483 C 0.05748 0.52599 0.53269 0.0
C484 C 0.07617 0.5163 0.55596 0.0
H485 H 0.89722 0.49338 0.57478 0.0
H486 H 0.94178 0.50695 0.57866 0.0
C487 C 0.10154 0.52434 0.5533 0.0
C488 C 0.03093 0.51574 0.53396 0.0
H489 H 0.96812 0.53312 0.53548 0.0
C490 C 0.02745 0.48913 0.53371 0.0
C491 C 0.00917 0.53173 0.53579 0.0
C492 C 0.01127 0.56035 0.53927 0.0
C493 C 1.00301 0.47811 0.53491 0.0
C494 C 0.98122 0.49413 0.53468 0.0
C495 C 0.9847 0.52073 0.53529 0.0
C496 C 0.95464 0.4839 0.53412 0.0
C497 C 1.00099 0.44944 0.53739 0.0
C498 C 0.9469 0.46607 0.5082 0.0
C499 C 0.92153 0.45768 0.50672 0.0
C500 C 0.90324 0.46763 0.53032 0.0
C501 C 0.91096 0.48537 0.55628 0.0
C502 C 0.93641 0.49322 0.55838 0.0
H503 H 0.01834 0.44102 0.54974 0.0
H504 H 0.98413 0.4435 0.5533 0.0
H505 H 0.99922 0.44136 0.51012 0.0
H506 H 0.96025 0.45918 0.48838 0.0
H507 H 0.91599 0.44434 0.48603 0.0
H508 H 0.50388 0.89445 0.0554 0.0
H509 H 0.49059 0.93907 0.05818 0.0
H510 H 0.56121 0.96193 0.00851 0.0
H511 H 0.5748 0.91717 1.00559 0.0
H512 H 0.51642 0.98306 0.09033 0.0
H513 H 0.50239 0.991 0.94348 0.0
H514 H 0.50433 0.96063 0.96612 0.0
H515 H 0.53277 0.97884 0.95811 0.0
C516 C 0.51673 0.90894 0.04525 0.0
C517 C 0.54037 0.90219 0.03004 0.0
C518 C 0.50908 0.93444 0.04693 0.0
C519 C 0.52477 0.95372 0.03316 0.0
C520 C 0.54871 0.94724 0.01891 0.0
H521 H 0.51134 0.11757 0.0514 0.0
H522 H 0.52416 0.07288 0.05523 0.0
C523 C 0.5565 0.92169 0.01745 0.0
C524 C 0.51565 0.9805 0.03299 0.0
H525 H 0.49609 0.02841 0.97755 0.0
C526 C 0.512 0.99302 0.06571 0.0
C527 C 0.50954 0.99324 1.00083 0.0
C528 C 0.51223 0.98028 0.96507 0.0
C529 C 0.5028 0.01819 0.06706 0.0
C530 C 0.49719 0.03112 0.03486 0.0
C531 C 0.50045 0.01844 1.00218 0.0
C532 C 0.48862 0.05808 0.03442 0.0
C533 C 0.49889 0.03071 0.10291 0.0
C534 C 0.46436 0.06459 0.02131 0.0
C535 C 0.45687 0.09022 0.01916 0.0
C536 C 0.4737 0.10976 0.02962 0.0
C537 C 0.49788 0.10304 0.04311 0.0
C538 C 0.50523 0.07748 0.04549 0.0
H539 H 0.49841 0.0165 0.12492 0.0
H540 H 0.51487 0.04411 0.1081 0.0
H541 H 0.48083 0.04181 0.10328 0.0
H542 H 0.45131 0.04985 0.01247 0.0
H543 H 0.43819 0.09472 0.00848 0.0
H544 H 0.24612 0.38888 0.9813 0.0
H545 H 0.27586 0.35296 0.98043 0.0
H546 H 0.22438 0.30932 0.04637 0.0
H547 H 0.19482 0.34541 0.0481 0.0
H548 H 0.27193 0.30837 0.07266 0.0
H549 H 0.27554 0.28575 0.92845 0.0
H550 H 0.2825 0.31865 0.93728 0.0
H551 H 0.25132 0.30614 0.94742 0.0
C552 C 0.24087 0.37146 0.99503 0.0
C553 C 0.21806 0.37002 0.01473 0.0
C554 C 0.25788 0.35087 0.9944 0.0
C555 C 0.25227 0.32828 0.01302 0.0
C556 C 0.22912 0.32652 0.03175 0.0
H557 H 0.34794 0.19253 0.9916 0.0
H558 H 0.31151 0.2217 0.99354 0.0
C559 C 0.21218 0.34715 0.03259 0.0
C560 C 0.27133 0.30728 0.01515 0.0
H561 H 0.30899 0.26829 0.96454 0.0
C562 C 0.27984 0.29942 0.049 0.0
C563 C 0.28146 0.29534 0.98437 0.0
C564 C 0.27205 0.30171 0.94736 0.0
C565 C 0.29866 0.28052 0.05288 0.0
C566 C 0.30973 0.26953 0.02204 0.0
C567 C 0.3007 0.27686 0.98822 0.0
C568 C 0.33106 0.25082 0.02405 0.0
C569 C 0.3063 0.27238 0.09001 0.0
C570 C 0.35411 0.25727 0.04099 0.0
C571 C 0.37489 0.24049 0.04027 0.0
C572 C 0.37318 0.21707 0.02211 0.0
C573 C 0.34989 0.21038 1.0059 0.0
C574 C 0.32907 0.22709 1.00686 0.0
H575 H 0.29087 0.27625 0.10963 0.0
H576 H 0.31106 0.25175 0.09096 0.0
H577 H 0.32338 0.28338 0.09842 0.0
H578 H 0.35637 0.27569 0.0537 0.0
H579 H 0.39262 0.24637 0.05269 0.0
H580 H 0.81707 0.34548 0.48732 0.0
H581 H 0.78689 0.30988 0.48851 0.0
H582 H 0.73504 0.3547 0.55227 0.0
H583 H 0.76543 0.39013 0.55206 0.0
H584 H 0.73644 0.30569 0.5745 0.0
H585 H 0.72322 0.30867 0.42764 0.0
H586 H 0.75572 0.30356 0.44099 0.0
H587 H 0.74017 0.33319 0.4517 0.0
C588 C 0.79939 0.34766 0.502 0.0
C589 C 0.79358 0.37073 0.51938 0.0
C590 C 0.78204 0.32735 0.50237 0.0
C591 C 0.75838 0.32984 0.51964 0.0
C592 C 0.75308 0.3524 0.53849 0.0
H593 H 0.61877 0.24612 0.48262 0.0
H594 H 0.65446 0.27616 0.48257 0.0
C595 C 0.77051 0.37264 0.53841 0.0
C596 C 0.73884 0.3093 0.51737 0.0
H597 H 0.70277 0.27492 0.45843 0.0
C598 C 0.72911 0.29892 0.54913 0.0
C599 C 0.72895 0.30077 0.48424 0.0
C600 C 0.73733 0.31227 0.44921 0.0
C601 C 0.70984 0.28025 0.54871 0.0
C602 C 0.70048 0.27118 0.51555 0.0
C603 C 0.71018 0.28161 0.4838 0.0
C604 C 0.67969 0.25189 0.51328 0.0
C605 C 0.69911 0.2711 0.58385 0.0
C606 C 0.68226 0.22784 0.52943 0.0
C607 C 0.66179 0.21067 0.52972 0.0
C608 C 0.63847 0.21707 0.51337 0.0
C609 C 0.63645 0.24057 0.49546 0.0
C610 C 0.65684 0.25781 0.49547 0.0
H611 H 0.70331 0.28466 0.60588 0.0
H612 H 0.67811 0.26843 0.5822 0.0
H613 H 0.70791 0.2525 0.5908 0.0
H614 H 0.69994 0.22253 0.54244 0.0
H615 H 0.66404 0.19265 0.54352 0.0
H616 H 0.81914 0.66652 0.04534 0.0
H617 H 0.78896 0.70212 0.04361 0.0
H618 H 0.73616 0.6561 0.98312 0.0
H619 H 0.7665 0.62065 0.98388 0.0
H620 H 0.73721 0.70474 0.95909 0.0
H621 H 0.72621 0.70427 0.10638 0.0
H622 H 0.75848 0.70916 0.09183 0.0
H623 H 0.74279 0.67934 0.08266 0.0
C624 C 0.80125 0.66408 0.03123 0.0
C625 C 0.79515 0.64066 0.01497 0.0
C626 C 0.78391 0.68439 0.03056 0.0
C627 C 0.75999 0.68157 0.01409 0.0
C628 C 0.75441 0.65866 0.99627 0.0
H629 H 0.62051 0.76539 0.05174 0.0
H630 H 0.6563 0.73544 0.05194 0.0
C631 C 0.77182 0.63841 0.99665 0.0
C632 C 0.74045 0.70212 0.01624 0.0
H633 H 0.70508 0.73731 0.07504 0.0
C634 C 0.73022 0.71192 0.98443 0.0
C635 C 0.73101 0.71116 0.04935 0.0
C636 C 0.73997 0.70029 0.08451 0.0
C637 C 0.71088 0.73051 0.98478 0.0
C638 C 0.70196 0.74008 0.01789 0.0
C639 C 0.71215 0.73024 0.04969 0.0
C640 C 0.68114 0.75934 0.02008 0.0
C641 C 0.69962 0.73906 0.94966 0.0
C642 C 0.68349 0.78316 1.00323 0.0
C643 C 0.66297 0.80027 1.00288 0.0
C644 C 0.63983 0.79404 0.01983 0.0
C645 C 0.63805 0.7708 0.03842 0.0
C646 C 0.6585 0.75361 0.03849 0.0
H647 H 0.7036 0.72518 0.92793 0.0
H648 H 0.67863 0.74163 0.95179 0.0
H649 H 0.70821 0.7576 0.94192 0.0
H650 H 0.70102 0.78833 0.98972 0.0
H651 H 0.66505 0.8181 0.98855 0.0
H652 H 0.38679 0.77357 0.46796 0.0
H653 H 0.3504 0.74434 0.46496 0.0
H654 H 0.31807 0.77956 0.55872 0.0
H655 H 0.35376 0.80937 0.56103 0.0
H656 H 0.33783 0.70939 0.51166 0.0
H657 H 0.2557 0.77495 0.49825 0.0
H658 H 0.28823 0.78547 0.4924 0.0
H659 H 0.2748 0.78256 0.5365 0.0
C660 C 0.37162 0.77547 0.48743 0.0
C661 C 0.37312 0.7939 0.51461 0.0
C662 C 0.35086 0.75867 0.48579 0.0
C663 C 0.33125 0.75986 0.51137 0.0
C664 C 0.3325 0.77862 0.53808 0.0
H665 H 0.23647 0.62778 0.56339 0.0
H666 H 0.26715 0.66301 0.56519 0.0
C667 C 0.35306 0.79562 0.53946 0.0
C668 C 0.31066 0.74025 0.51183 0.0
H669 H 0.24597 0.73212 0.51592 0.0
C670 C 0.31774 0.7144 0.5123 0.0
C671 C 0.28439 0.74667 0.51236 0.0
C672 C 0.27532 0.77392 0.50947 0.0
C673 C 0.29941 0.69486 0.51367 0.0
C674 C 0.27318 0.70131 0.51588 0.0
C675 C 0.26606 0.72715 0.51489 0.0
C676 C 0.25286 0.68148 0.51748 0.0
C677 C 0.30839 0.66752 0.51178 0.0
C678 C 0.23358 0.68096 0.49144 0.0
C679 C 0.21568 0.66117 0.49084 0.0
C680 C 0.21675 0.64138 0.51618 0.0
C681 C 0.23526 0.6426 0.54332 0.0
C682 C 0.25298 0.6626 0.54415 0.0
H683 H 0.32778 0.66607 0.4999 0.0
H684 H 0.30933 0.65951 0.53916 0.0
H685 H 0.29512 0.65565 0.49572 0.0
H686 H 0.23294 0.69538 0.47074 0.0
H687 H 0.20169 0.66084 0.46955 0.0
loop_
_geom_bond_atom_site_label_1
_geom_bond_atom_site_label_2
_geom_bond_distance
_geom_bond_site_symmetry_2
_ccdc_geom_bond_type
O0 Cd1 2.223 . S
O0 C8 1.315 . S
Cd1 O0 2.223 . S
Cd1 O4 2.297 . S
Cd1 O5 2.439 . S
Cd1 O11 2.240 . S
Cd2 O3 2.234 1_556 S
Cd2 O10 2.221 1_556 S
Cd2 O12 2.305 . S
Cd2 O13 2.445 . S
O3 Cd2 2.234 1_554 S
O3 C8 1.279 . S
O4 Cd1 2.297 . S
O4 C6 1.247 . S
O5 Cd1 2.439 . S
O5 C6 1.208 . S
C6 O4 1.247 . S
C6 O5 1.208 . S
C7 O12 1.247 . S
C7 O13 1.208 . S
C8 O0 1.315 . S
C8 O3 1.279 . S
C9 O10 1.315 . S
C9 O11 1.279 . S
O10 Cd2 2.221 1_554 S
O10 C9 1.315 . S
O11 Cd1 2.240 . S
O11 C9 1.279 . S
O12 Cd2 2.305 . S
O12 C7 1.247 . S
O13 Cd2 2.445 . S
O13 C7 1.208 . S
O14 Cd15 2.223 . S
O14 C22 1.315 . S
Cd15 O14 2.223 . S
Cd15 O18 2.297 . S
Cd15 O19 2.439 . S
Cd15 O25 2.240 . S
Cd16 O17 2.240 . S
Cd16 O24 2.223 . S
Cd16 O26 2.297 . S
Cd16 O27 2.439 . S
O17 Cd16 2.240 . S
O17 C22 1.279 . S
O18 Cd15 2.297 . S
O18 C20 1.247 . S
O19 Cd15 2.439 . S
O19 C20 1.208 . S
C20 O18 1.247 . S
C20 O19 1.208 . S
C21 O26 1.247 . S
C21 O27 1.208 . S
C22 O14 1.315 . S
C22 O17 1.279 . S
C23 O24 1.315 . S
C23 O25 1.279 . S
O24 Cd16 2.223 . S
O24 C23 1.315 . S
O25 Cd15 2.240 . S
O25 C23 1.279 . S
O26 Cd16 2.297 . S
O26 C21 1.247 . S
O27 Cd16 2.439 . S
O27 C21 1.208 . S
O28 Cd29 2.223 . S
O28 C36 1.315 . S
Cd29 O28 2.223 . S
Cd29 O32 2.297 . S
Cd29 O33 2.439 . S
Cd29 O39 2.240 . S
Cd30 O31 2.234 1_556 S
Cd30 O38 2.221 1_556 S
Cd30 O40 2.305 . S
Cd30 O41 2.445 . S
O31 Cd30 2.234 1_554 S
O31 C36 1.279 . S
O32 Cd29 2.297 . S
O32 C34 1.247 . S
O33 Cd29 2.439 . S
O33 C34 1.208 . S
C34 O32 1.247 . S
C34 O33 1.208 . S
C35 O40 1.247 . S
C35 O41 1.208 . S
C36 O28 1.315 . S
C36 O31 1.279 . S
C37 O38 1.315 . S
C37 O39 1.279 . S
O38 Cd30 2.221 1_554 S
O38 C37 1.315 . S
O39 Cd29 2.240 . S
O39 C37 1.279 . S
O40 Cd30 2.305 . S
O40 C35 1.247 . S
O41 Cd30 2.445 . S
O41 C35 1.208 . S
O42 Cd43 2.223 . S
O42 C50 1.315 . S
Cd43 O42 2.223 . S
Cd43 O46 2.297 . S
Cd43 O47 2.439 . S
Cd43 O53 2.240 . S
Cd44 O45 2.240 . S
Cd44 O52 2.223 . S
Cd44 O54 2.297 . S
Cd44 O55 2.439 . S
O45 Cd44 2.240 . S
O45 C50 1.279 . S
O46 Cd43 2.297 . S
O46 C48 1.247 . S
O47 Cd43 2.439 . S
O47 C48 1.208 . S
C48 O46 1.247 . S
C48 O47 1.208 . S
C49 O54 1.247 . S
C49 O55 1.208 . S
C50 O42 1.315 . S
C50 O45 1.279 . S
C51 O52 1.315 . S
C51 O53 1.279 . S
O52 Cd44 2.223 . S
O52 C51 1.315 . S
O53 Cd43 2.240 . S
O53 C51 1.279 . S
O54 Cd44 2.297 . S
O54 C49 1.247 . S
O55 Cd44 2.439 . S
O55 C49 1.208 . S
O56 Cd57 2.223 . S
O56 C64 1.315 . S
Cd57 O56 2.223 . S
Cd57 O60 2.297 . S
Cd57 O61 2.439 . S
Cd57 O67 2.240 . S
Cd58 O59 2.240 . S
Cd58 O66 2.223 . S
Cd58 O68 2.297 . S
Cd58 O69 2.439 . S
O59 Cd58 2.240 . S
O59 C64 1.279 . S
O60 Cd57 2.297 . S
O60 C62 1.247 . S
O61 Cd57 2.439 . S
O61 C62 1.208 . S
C62 O60 1.247 . S
C62 O61 1.208 . S
C63 O68 1.247 . S
C63 O69 1.208 . S
C64 O56 1.315 . S
C64 O59 1.279 . S
C65 O66 1.315 . S
C65 O67 1.279 . S
O66 Cd58 2.223 . S
O66 C65 1.315 . S
O67 Cd57 2.240 . S
O67 C65 1.279 . S
O68 Cd58 2.297 . S
O68 C63 1.247 . S
O69 Cd58 2.439 . S
O69 C63 1.208 . S
O70 Cd71 2.223 . S
O70 C78 1.315 . S
Cd71 O70 2.223 . S
Cd71 O74 2.297 . S
Cd71 O75 2.439 1_556 S
Cd71 O81 2.240 1_556 S
Cd72 O73 2.240 1_554 S
Cd72 O80 2.223 . S
Cd72 O82 2.297 . S
Cd72 O83 2.439 . S
O73 Cd72 2.240 1_556 S
O73 C78 1.279 . S
O74 Cd71 2.297 . S
O74 C76 1.247 . S
O75 Cd71 2.439 1_554 S
O75 C76 1.208 1_554 S
C76 O74 1.247 . S
C76 O75 1.208 1_556 S
C77 O82 1.247 . S
C77 O83 1.208 . S
C78 O70 1.315 . S
C78 O73 1.279 . S
C79 O80 1.315 . S
C79 O81 1.279 . S
O80 Cd72 2.223 . S
O80 C79 1.315 . S
O81 Cd71 2.240 1_554 S
O81 C79 1.279 . S
O82 Cd72 2.297 . S
O82 C77 1.247 . S
O83 Cd72 2.439 . S
O83 C77 1.208 . S
O84 Cd85 2.223 . S
O84 C92 1.315 . S
Cd85 O84 2.223 . S
Cd85 O88 2.297 . S
Cd85 O89 2.439 . S
Cd85 O95 2.240 . S
Cd86 O87 2.240 . S
Cd86 O94 2.223 . S
Cd86 O96 2.297 . S
Cd86 O97 2.439 . S
O87 Cd86 2.240 . S
O87 C92 1.279 . S
O88 Cd85 2.297 . S
O88 C90 1.247 . S
O89 Cd85 2.439 . S
O89 C90 1.208 . S
C90 O88 1.247 . S
C90 O89 1.208 . S
C91 O96 1.247 . S
C91 O97 1.208 . S
C92 O84 1.315 . S
C92 O87 1.279 . S
C93 O94 1.315 . S
C93 O95 1.279 . S
O94 Cd86 2.223 . S
O94 C93 1.315 . S
O95 Cd85 2.240 . S
O95 C93 1.279 . S
O96 Cd86 2.297 . S
O96 C91 1.247 . S
O97 Cd86 2.439 . S
O97 C91 1.208 . S
O98 Cd99 2.223 . S
O98 C106 1.315 . S
Cd99 O98 2.223 . S
Cd99 O102 2.297 . S
Cd99 O103 2.439 1_556 S
Cd99 O109 2.240 1_556 S
Cd100 O101 2.240 1_554 S
Cd100 O108 2.223 . S
Cd100 O110 2.297 . S
Cd100 O111 2.439 . S
O101 Cd100 2.240 1_556 S
O101 C106 1.279 . S
O102 Cd99 2.297 . S
O102 C104 1.247 . S
O103 Cd99 2.439 1_554 S
O103 C104 1.208 1_554 S
C104 O102 1.247 . S
C104 O103 1.208 1_556 S
C105 O110 1.247 . S
C105 O111 1.208 . S
C106 O98 1.315 . S
C106 O101 1.279 . S
C107 O108 1.315 . S
C107 O109 1.279 . S
O108 Cd100 2.223 . S
O108 C107 1.315 . S
O109 Cd99 2.240 1_554 S
O109 C107 1.279 . S
O110 Cd100 2.297 . S
O110 C105 1.247 . S
O111 Cd100 2.439 . S
O111 C105 1.208 . S
H112 C120 0.929 . S
H113 C122 0.930 . S
H114 C124 0.930 . S
H115 C127 0.929 . S
H116 C130 0.930 . S
H117 C132 0.960 . S
H118 C132 0.960 . S
H119 C132 0.960 . S
C120 H112 0.929 . S
C120 C121 1.377 . S
C120 C122 1.384 . S
C121 C120 1.377 . S
C121 C127 1.390 . S
C122 H113 0.930 . S
C122 C120 1.384 . S
C122 C123 1.372 . S
C123 C122 1.372 . S
C123 C124 1.400 . S
C123 C128 1.490 . S
C124 H114 0.930 . S
C124 C123 1.400 . S
C124 C127 1.386 . S
H125 C141 0.930 . S
H126 C142 0.931 . S
C127 H115 0.929 . S
C127 C121 1.390 . S
C127 C124 1.386 . S
C128 C123 1.490 . S
C128 C130 1.395 . S
C128 C131 1.403 . S
H129 C135 0.930 . S
C130 H116 0.930 . S
C130 C128 1.395 . S
C130 C133 1.403 . S
C131 C128 1.403 . S
C131 C132 1.524 . S
C131 C135 1.400 . S
C132 H117 0.960 . S
C132 H118 0.960 . S
C132 H119 0.960 . S
C132 C131 1.524 . S
C133 C130 1.403 . S
C133 C134 1.392 . S
C133 C137 1.495 . S
C134 C133 1.392 . S
C134 C135 1.385 . S
C134 C136 1.478 . S
C135 H129 0.930 . S
C135 C131 1.400 . S
C135 C134 1.385 . S
C136 C134 1.478 . S
C136 C138 1.381 . S
C136 C142 1.383 . S
C137 C133 1.495 . S
C137 H143 0.959 . S
C137 H144 0.961 . S
C137 H145 0.960 . S
C138 C136 1.381 . S
C138 C139 1.394 . S
C138 H146 0.930 . S
C139 C138 1.394 . S
C139 C140 1.383 . S
C139 H147 0.929 . S
C140 C139 1.383 . S
C140 C141 1.377 . S
C141 H125 0.930 . S
C141 C140 1.377 . S
C141 C142 1.379 . S
C142 H126 0.931 . S
C142 C136 1.383 . S
C142 C141 1.379 . S
H143 C137 0.959 . S
H144 C137 0.961 . S
H145 C137 0.960 . S
H146 C138 0.930 . S
H147 C139 0.929 . S
H148 C156 0.929 . S
H149 C158 0.930 . S
H150 C160 0.930 . S
H151 C163 0.929 . S
H152 C166 0.930 . S
H153 C168 0.960 . S
H154 C168 0.960 . S
H155 C168 0.960 . S
C156 H148 0.929 . S
C156 C157 1.377 . S
C156 C158 1.384 . S
C157 C156 1.377 . S
C157 C163 1.390 . S
C158 H149 0.930 . S
C158 C156 1.384 . S
C158 C159 1.372 . S
C159 C158 1.372 . S
C159 C160 1.400 . S
C159 C164 1.490 . S
C160 H150 0.930 . S
C160 C159 1.400 . S
C160 C163 1.386 . S
H161 C177 0.930 . S
H162 C178 0.931 . S
C163 H151 0.929 . S
C163 C157 1.390 . S
C163 C160 1.386 . S
C164 C159 1.490 . S
C164 C166 1.395 . S
C164 C167 1.403 . S
H165 C171 0.930 . S
C166 H152 0.930 . S
C166 C164 1.395 . S
C166 C169 1.403 . S
C167 C164 1.403 . S
C167 C168 1.524 . S
C167 C171 1.400 . S
C168 H153 0.960 . S
C168 H154 0.960 . S
C168 H155 0.960 . S
C168 C167 1.524 . S
C169 C166 1.403 . S
C169 C170 1.392 . S
C169 C173 1.495 . S
C170 C169 1.392 . S
C170 C171 1.385 . S
C170 C172 1.478 . S
C171 H165 0.930 . S
C171 C167 1.400 . S
C171 C170 1.385 . S
C172 C170 1.478 . S
C172 C174 1.381 . S
C172 C178 1.383 . S
C173 C169 1.495 . S
C173 H179 0.959 . S
C173 H180 0.961 . S
C173 H181 0.960 . S
C174 C172 1.381 . S
C174 C175 1.394 . S
C174 H182 0.930 . S
C175 C174 1.394 . S
C175 C176 1.383 . S
C175 H183 0.929 . S
C176 C175 1.383 . S
C176 C177 1.377 . S
C177 H161 0.930 . S
C177 C176 1.377 . S
C177 C178 1.379 . S
C178 H162 0.931 . S
C178 C172 1.383 . S
C178 C177 1.379 . S
H179 C173 0.959 . S
H180 C173 0.961 . S
H181 C173 0.960 . S
H182 C174 0.930 . S
H183 C175 0.929 . S
H184 C192 0.929 . S
H185 C194 0.930 . S
H186 C196 0.930 . S
H187 C199 0.929 . S
H188 C202 0.930 . S
H189 C204 0.960 . S
H190 C204 0.960 . S
H191 C204 0.960 . S
C192 H184 0.929 . S
C192 C193 1.377 . S
C192 C194 1.384 . S
C193 C192 1.377 . S
C193 C199 1.390 . S
C194 H185 0.930 . S
C194 C192 1.384 . S
C194 C195 1.372 . S
C195 C194 1.372 . S
C195 C196 1.400 . S
C195 C200 1.490 . S
C196 H186 0.930 . S
C196 C195 1.400 . S
C196 C199 1.386 . S
H197 C213 0.930 . S
H198 C214 0.931 . S
C199 H187 0.929 . S
C199 C193 1.390 . S
C199 C196 1.386 . S
C200 C195 1.490 . S
C200 C202 1.395 . S
C200 C203 1.403 . S
H201 C207 0.930 . S
C202 H188 0.930 . S
C202 C200 1.395 . S
C202 C205 1.403 . S
C203 C200 1.403 . S
C203 C204 1.524 . S
C203 C207 1.400 . S
C204 H189 0.960 . S
C204 H190 0.960 . S
C204 H191 0.960 . S
C204 C203 1.524 . S
C205 C202 1.403 . S
C205 C206 1.392 . S
C205 C209 1.495 . S
C206 C205 1.392 . S
C206 C207 1.385 . S
C206 C208 1.478 . S
C207 H201 0.930 . S
C207 C203 1.400 . S
C207 C206 1.385 . S
C208 C206 1.478 . S
C208 C210 1.381 . S
C208 C214 1.383 . S
C209 C205 1.495 . S
C209 H215 0.959 . S
C209 H216 0.961 . S
C209 H217 0.960 . S
C210 C208 1.381 . S
C210 C211 1.394 . S
C210 H218 0.930 . S
C211 C210 1.394 . S
C211 C212 1.383 . S
C211 H219 0.929 . S
C212 C211 1.383 . S
C212 C213 1.377 . S
C213 H197 0.930 . S
C213 C212 1.377 . S
C213 C214 1.379 . S
C214 H198 0.931 . S
C214 C208 1.383 . S
C214 C213 1.379 . S
H215 C209 0.959 . S
H216 C209 0.961 . S
H217 C209 0.960 . S
H218 C210 0.930 . S
H219 C211 0.929 . S
H220 C228 0.929 . S
H221 C230 0.930 . S
H222 C232 0.930 . S
H223 C235 0.929 . S
H224 C238 0.930 . S
H225 C240 0.960 . S
H226 C240 0.960 . S
H227 C240 0.960 . S
C228 H220 0.929 . S
C228 C229 1.377 . S
C228 C230 1.384 . S
C229 C228 1.377 . S
C229 C235 1.390 . S
C230 H221 0.930 . S
C230 C228 1.384 . S
C230 C231 1.372 . S
C231 C230 1.372 . S
C231 C232 1.400 . S
C231 C236 1.490 . S
C232 H222 0.930 . S
C232 C231 1.400 . S
C232 C235 1.386 . S
H233 C249 0.930 . S
H234 C250 0.931 . S
C235 H223 0.929 . S
C235 C229 1.390 . S
C235 C232 1.386 . S
C236 C231 1.490 . S
C236 C238 1.395 . S
C236 C239 1.403 . S
H237 C243 0.930 . S
C238 H224 0.930 . S
C238 C236 1.395 . S
C238 C241 1.403 . S
C239 C236 1.403 . S
C239 C240 1.524 . S
C239 C243 1.400 . S
C240 H225 0.960 . S
C240 H226 0.960 . S
C240 H227 0.960 . S
C240 C239 1.524 . S
C241 C238 1.403 . S
C241 C242 1.392 . S
C241 C245 1.495 . S
C242 C241 1.392 . S
C242 C243 1.385 . S
C242 C244 1.478 . S
C243 H237 0.930 . S
C243 C239 1.400 . S
C243 C242 1.385 . S
C244 C242 1.478 . S
C244 C246 1.381 . S
C244 C250 1.383 . S
C245 C241 1.495 . S
C245 H251 0.959 . S
C245 H252 0.961 . S
C245 H253 0.960 . S
C246 C244 1.381 . S
C246 C247 1.394 . S
C246 H254 0.930 . S
C247 C246 1.394 . S
C247 C248 1.383 . S
C247 H255 0.929 . S
C248 C247 1.383 . S
C248 C249 1.377 . S
C249 H233 0.930 . S
C249 C248 1.377 . S
C249 C250 1.379 . S
C250 H234 0.931 . S
C250 C244 1.383 . S
C250 C249 1.379 . S
H251 C245 0.959 . S
H252 C245 0.961 . S
H253 C245 0.960 . S
H254 C246 0.930 . S
H255 C247 0.929 . S
H256 C264 0.929 . S
H257 C266 0.930 . S
H258 C268 0.930 . S
H259 C271 0.929 . S
H260 C274 0.930 . S
H261 C276 0.960 . S
H262 C276 0.960 . S
H263 C276 0.960 . S
C264 H256 0.929 . S
C264 C265 1.377 . S
C264 C266 1.384 . S
C265 C264 1.377 . S
C265 C271 1.390 . S
C266 H257 0.930 . S
C266 C264 1.384 . S
C266 C267 1.372 . S
C267 C266 1.372 . S
C267 C268 1.400 . S
C267 C272 1.490 . S
C268 H258 0.930 . S
C268 C267 1.400 . S
C268 C271 1.386 . S
H269 C285 0.930 . S
H270 C286 0.931 . S
C271 H259 0.929 . S
C271 C265 1.390 . S
C271 C268 1.386 . S
C272 C267 1.490 . S
C272 C274 1.395 . S
C272 C275 1.403 . S
H273 C279 0.930 . S
C274 H260 0.930 . S
C274 C272 1.395 . S
C274 C277 1.403 . S
C275 C272 1.403 . S
C275 C276 1.524 . S
C275 C279 1.400 . S
C276 H261 0.960 . S
C276 H262 0.960 . S
C276 H263 0.960 . S
C276 C275 1.524 . S
C277 C274 1.403 . S
C277 C278 1.392 . S
C277 C281 1.495 . S
C278 C277 1.392 . S
C278 C279 1.385 . S
C278 C280 1.478 . S
C279 H273 0.930 . S
C279 C275 1.400 . S
C279 C278 1.385 . S
C280 C278 1.478 . S
C280 C282 1.381 . S
C280 C286 1.383 . S
C281 C277 1.495 . S
C281 H287 0.959 . S
C281 H288 0.961 . S
C281 H289 0.960 . S
C282 C280 1.381 . S
C282 C283 1.394 . S
C282 H290 0.930 . S
C283 C282 1.394 . S
C283 C284 1.383 . S
C283 H291 0.929 . S
C284 C283 1.383 . S
C284 C285 1.377 . S
C285 H269 0.930 . S
C285 C284 1.377 . S
C285 C286 1.379 . S
C286 H270 0.931 . S
C286 C280 1.383 . S
C286 C285 1.379 . S
H287 C281 0.959 . S
H288 C281 0.961 . S
H289 C281 0.960 . S
H290 C282 0.930 . S
H291 C283 0.929 . S
H292 C300 0.929 . S
H293 C302 0.930 . S
H294 C304 0.930 . S
H295 C307 0.929 . S
H296 C310 0.930 . S
H297 C312 0.960 . S
H298 C312 0.960 . S
H299 C312 0.960 . S
C300 H292 0.929 . S
C300 C301 1.377 . S
C300 C302 1.384 . S
C301 C300 1.377 . S
C301 C307 1.390 . S
C302 H293 0.930 . S
C302 C300 1.384 . S
C302 C303 1.372 . S
C303 C302 1.372 . S
C303 C304 1.400 . S
C303 C308 1.490 . S
C304 H294 0.930 . S
C304 C303 1.400 . S
C304 C307 1.386 . S
H305 C321 0.930 . S
H306 C322 0.931 . S
C307 H295 0.929 . S
C307 C301 1.390 . S
C307 C304 1.386 . S
C308 C303 1.490 . S
C308 C310 1.395 . S
C308 C311 1.403 . S
H309 C315 0.930 . S
C310 H296 0.930 . S
C310 C308 1.395 . S
C310 C313 1.403 . S
C311 C308 1.403 . S
C311 C312 1.524 . S
C311 C315 1.400 . S
C312 H297 0.960 . S
C312 H298 0.960 . S
C312 H299 0.960 . S
C312 C311 1.524 . S
C313 C310 1.403 . S
C313 C314 1.392 . S
C313 C317 1.495 . S
C314 C313 1.392 . S
C314 C315 1.385 . S
C314 C316 1.478 . S
C315 H309 0.930 . S
C315 C311 1.400 . S
C315 C314 1.385 . S
C316 C314 1.478 . S
C316 C318 1.381 . S
C316 C322 1.383 . S
C317 C313 1.495 . S
C317 H323 0.959 . S
C317 H324 0.961 . S
C317 H325 0.960 . S
C318 C316 1.381 . S
C318 C319 1.394 . S
C318 H326 0.930 . S
C319 C318 1.394 . S
C319 C320 1.383 . S
C319 H327 0.929 . S
C320 C319 1.383 . S
C320 C321 1.377 . S
C321 H305 0.930 . S
C321 C320 1.377 . S
C321 C322 1.379 . S
C322 H306 0.931 . S
C322 C316 1.383 . S
C322 C321 1.379 . S
H323 C317 0.959 . S
H324 C317 0.961 . S
H325 C317 0.960 . S
H326 C318 0.930 . S
H327 C319 0.929 . S
H328 C336 0.929 . S
H329 C338 0.930 . S
H330 C340 0.930 . S
H331 C343 0.929 . S
H332 C346 0.930 . S
H333 C348 0.960 . S
H334 C348 0.960 . S
H335 C348 0.960 . S
C336 H328 0.929 . S
C336 C337 1.377 . S
C336 C338 1.384 . S
C337 C336 1.377 . S
C337 C343 1.390 . S
C338 H329 0.930 . S
C338 C336 1.384 . S
C338 C339 1.372 . S
C339 C338 1.372 . S
C339 C340 1.400 . S
C339 C344 1.490 . S
C340 H330 0.930 . S
C340 C339 1.400 . S
C340 C343 1.386 . S
H341 C357 0.930 . S
H342 C358 0.931 . S
C343 H331 0.929 . S
C343 C337 1.390 . S
C343 C340 1.386 . S
C344 C339 1.490 . S
C344 C346 1.395 . S
C344 C347 1.403 . S
H345 C351 0.930 . S
C346 H332 0.930 . S
C346 C344 1.395 . S
C346 C349 1.403 . S
C347 C344 1.403 . S
C347 C348 1.524 . S
C347 C351 1.400 . S
C348 H333 0.960 . S
C348 H334 0.960 . S
C348 H335 0.960 . S
C348 C347 1.524 . S
C349 C346 1.403 . S
C349 C350 1.392 . S
C349 C353 1.495 . S
C350 C349 1.392 . S
C350 C351 1.385 . S
C350 C352 1.478 . S
C351 H345 0.930 . S
C351 C347 1.400 . S
C351 C350 1.385 . S
C352 C350 1.478 . S
C352 C354 1.381 . S
C352 C358 1.383 . S
C353 C349 1.495 . S
C353 H359 0.959 . S
C353 H360 0.961 . S
C353 H361 0.960 . S
C354 C352 1.381 . S
C354 C355 1.394 . S
C354 H362 0.930 . S
C355 C354 1.394 . S
C355 C356 1.383 . S
C355 H363 0.929 . S
C356 C355 1.383 . S
C356 C357 1.377 . S
C357 H341 0.930 . S
C357 C356 1.377 . S
C357 C358 1.379 . S
C358 H342 0.931 . S
C358 C352 1.383 . S
C358 C357 1.379 . S
H359 C353 0.959 . S
H360 C353 0.961 . S
H361 C353 0.960 . S
H362 C354 0.930 . S
H363 C355 0.929 . S
H364 C372 0.929 . S
H365 C374 0.930 . S
H366 C376 0.930 . S
H367 C379 0.929 . S
H368 C382 0.930 . S
H369 C384 0.960 . S
H370 C384 0.960 . S
H371 C384 0.960 . S
C372 H364 0.929 . S
C372 C373 1.377 . S
C372 C374 1.384 . S
C373 C372 1.377 . S
C373 C379 1.390 . S
C374 H365 0.930 . S
C374 C372 1.384 . S
C374 C375 1.372 . S
C375 C374 1.372 . S
C375 C376 1.400 . S
C375 C380 1.490 . S
C376 H366 0.930 . S
C376 C375 1.400 . S
C376 C379 1.386 . S
H377 C393 0.930 . S
H378 C394 0.931 . S
C379 H367 0.929 . S
C379 C373 1.390 . S
C379 C376 1.386 . S
C380 C375 1.490 . S
C380 C382 1.395 . S
C380 C383 1.403 . S
H381 C387 0.930 . S
C382 H368 0.930 . S
C382 C380 1.395 . S
C382 C385 1.403 . S
C383 C380 1.403 . S
C383 C384 1.524 . S
C383 C387 1.400 . S
C384 H369 0.960 . S
C384 H370 0.960 . S
C384 H371 0.960 . S
C384 C383 1.524 . S
C385 C382 1.403 . S
C385 C386 1.392 . S
C385 C389 1.495 . S
C386 C385 1.392 . S
C386 C387 1.385 . S
C386 C388 1.478 . S
C387 H381 0.930 . S
C387 C383 1.400 . S
C387 C386 1.385 . S
C388 C386 1.478 . S
C388 C390 1.381 . S
C388 C394 1.383 . S
C389 C385 1.495 . S
C389 H395 0.959 . S
C389 H396 0.961 . S
C389 H397 0.960 . S
C390 C388 1.381 . S
C390 C391 1.394 . S
C390 H398 0.930 . S
C391 C390 1.394 . S
C391 C392 1.383 . S
C391 H399 0.929 . S
C392 C391 1.383 . S
C392 C393 1.377 . S
C393 H377 0.930 . S
C393 C392 1.377 . S
C393 C394 1.379 . S
C394 H378 0.931 . S
C394 C388 1.383 . S
C394 C393 1.379 . S
H395 C389 0.959 . S
H396 C389 0.961 . S
H397 C389 0.960 . S
H398 C390 0.930 . S
H399 C391 0.929 . S
H400 C408 0.929 . S
H401 C410 0.930 . S
H402 C412 0.930 . S
H403 C415 0.929 . S
H404 C418 0.930 . S
H405 C420 0.960 1_455 S
H406 C420 0.960 1_554 S
H407 C420 0.960 . S
C408 H400 0.929 . S
C408 C409 1.377 . S
C408 C410 1.384 . S
C409 C408 1.377 . S
C409 C415 1.390 1_554 S
C410 H401 0.930 . S
C410 C408 1.384 . S
C410 C411 1.372 . S
C411 C410 1.372 . S
C411 C412 1.400 1_554 S
C411 C416 1.490 . S
C412 H402 0.930 . S
C412 C411 1.400 1_556 S
C412 C415 1.386 . S
H413 C429 0.930 . S
H414 C430 0.931 . S
C415 H403 0.929 . S
C415 C409 1.390 1_556 S
C415 C412 1.386 . S
C416 C411 1.490 . S
C416 C418 1.395 . S
C416 C419 1.403 . S
H417 C423 0.939 . S
C418 H404 0.930 . S
C418 C416 1.395 . S
C418 C421 1.403 1_655 S
C419 C416 1.403 . S
C419 C420 1.524 1_554 S
C419 C423 1.400 1_655 S
C420 H405 0.960 1_655 S
C420 H406 0.960 1_556 S
C420 H407 0.960 . S
C420 C419 1.524 1_556 S
C421 C418 1.403 1_455 S
C421 C422 1.392 . S
C421 C425 1.495 . S
C422 C421 1.392 . S
C422 C423 1.385 . S
C422 C424 1.478 . S
C423 H417 0.939 . S
C423 C419 1.400 1_455 S
C423 C422 1.385 . S
C424 C422 1.478 . S
C424 C426 1.381 . S
C424 C430 1.383 1_554 S
C425 C421 1.495 . S
C425 H431 0.959 1_455 S
C425 H432 0.961 . S
C425 H433 0.960 . S
C426 C424 1.381 . S
C426 C427 1.394 . S
C426 H434 0.930 . S
C427 C426 1.394 . S
C427 C428 1.383 . S
C427 H435 0.929 . S
C428 C427 1.383 . S
C428 C429 1.377 1_554 S
C429 H413 0.930 . S
C429 C428 1.377 1_556 S
C429 C430 1.379 . S
C430 H414 0.931 . S
C430 C424 1.383 1_556 S
C430 C429 1.379 . S
H431 C425 0.959 1_655 S
H432 C425 0.961 . S
H433 C425 0.960 . S
H434 C426 0.930 . S
H435 C427 0.929 . S
H436 C444 0.929 . S
H437 C446 0.930 . S
H438 C448 0.930 . S
H439 C451 0.929 . S
H440 C454 0.930 . S
H441 C456 0.960 1_545 S
H442 C456 0.960 . S
H443 C456 0.960 . S
C444 H436 0.929 . S
C444 C445 1.377 . S
C444 C446 1.384 . S
C445 C444 1.377 . S
C445 C451 1.390 . S
C446 H437 0.930 . S
C446 C444 1.384 . S
C446 C447 1.372 . S
C447 C446 1.372 . S
C447 C448 1.400 . S
C447 C452 1.490 . S
C448 H438 0.930 . S
C448 C447 1.400 . S
C448 C451 1.386 . S
H449 C465 0.930 . S
H450 C466 0.931 . S
C451 H439 0.929 . S
C451 C445 1.390 . S
C451 C448 1.386 . S
C452 C447 1.490 . S
C452 C454 1.395 . S
C452 C455 1.403 . S
H453 C459 0.930 . S
C454 H440 0.930 . S
C454 C452 1.395 . S
C454 C457 1.403 1_565 S
C455 C452 1.403 . S
C455 C456 1.524 . S
C455 C459 1.400 1_565 S
C456 H441 0.960 1_565 S
C456 H442 0.960 . S
C456 H443 0.960 . S
C456 C455 1.524 . S
C457 C454 1.403 1_545 S
C457 C458 1.392 . S
C457 C461 1.495 . S
C458 C457 1.392 . S
C458 C459 1.385 . S
C458 C460 1.478 . S
C459 H453 0.930 . S
C459 C455 1.400 1_545 S
C459 C458 1.385 . S
C460 C458 1.478 . S
C460 C462 1.381 . S
C460 C466 1.383 . S
C461 C457 1.495 . S
C461 H467 0.959 1_545 S
C461 H468 0.961 . S
C461 H469 0.960 . S
C462 C460 1.381 . S
C462 C463 1.394 . S
C462 H470 0.930 . S
C463 C462 1.394 . S
C463 C464 1.383 . S
C463 H471 0.929 . S
C464 C463 1.383 . S
C464 C465 1.377 . S
C465 H449 0.930 . S
C465 C464 1.377 . S
C465 C466 1.379 . S
C466 H450 0.931 . S
C466 C460 1.383 . S
C466 C465 1.379 . S
H467 C461 0.959 1_565 S
H468 C461 0.961 . S
H469 C461 0.960 . S
H470 C462 0.930 . S
H471 C463 0.929 . S
H472 C480 0.929 . S
H473 C482 0.930 . S
H474 C484 0.930 . S
H475 C487 0.929 . S
H476 C490 0.930 . S
H477 C492 0.960 1_655 S
H478 C492 0.960 . S
H479 C492 0.960 . S
C480 H472 0.929 . S
C480 C481 1.377 . S
C480 C482 1.384 . S
C481 C480 1.377 . S
C481 C487 1.390 . S
C482 H473 0.930 . S
C482 C480 1.384 . S
C482 C483 1.372 . S
C483 C482 1.372 . S
C483 C484 1.400 . S
C483 C488 1.490 . S
C484 H474 0.930 . S
C484 C483 1.400 . S
C484 C487 1.386 . S
H485 C501 0.930 . S
H486 C502 0.931 . S
C487 H475 0.929 . S
C487 C481 1.390 . S
C487 C484 1.386 . S
C488 C483 1.490 . S
C488 C490 1.395 . S
C488 C491 1.403 . S
H489 C495 0.930 . S
C490 H476 0.930 . S
C490 C488 1.395 . S
C490 C493 1.403 1_455 S
C491 C488 1.403 . S
C491 C492 1.524 . S
C491 C495 1.400 1_455 S
C492 H477 0.960 1_455 S
C492 H478 0.960 . S
C492 H479 0.960 . S
C492 C491 1.524 . S
C493 C490 1.403 1_655 S
C493 C494 1.392 . S
C493 C497 1.495 . S
C494 C493 1.392 . S
C494 C495 1.385 . S
C494 C496 1.478 . S
C495 H489 0.930 . S
C495 C491 1.400 1_655 S
C495 C494 1.385 . S
C496 C494 1.478 . S
C496 C498 1.381 . S
C496 C502 1.383 . S
C497 C493 1.495 . S
C497 H503 0.959 1_655 S
C497 H504 0.961 . S
C497 H505 0.960 . S
C498 C496 1.381 . S
C498 C499 1.394 . S
C498 H506 0.930 . S
C499 C498 1.394 . S
C499 C500 1.383 . S
C499 H507 0.929 . S
C500 C499 1.383 . S
C500 C501 1.377 . S
C501 H485 0.930 . S
C501 C500 1.377 . S
C501 C502 1.379 . S
C502 H486 0.931 . S
C502 C496 1.383 . S
C502 C501 1.379 . S
H503 C497 0.959 1_455 S
H504 C497 0.961 . S
H505 C497 0.960 . S
H506 C498 0.930 . S
H507 C499 0.929 . S
H508 C516 0.929 . S
H509 C518 0.930 . S
H510 C520 0.930 . S
H511 C523 0.929 . S
H512 C526 0.930 . S
H513 C528 0.960 . S
H514 C528 0.960 . S
H515 C528 0.960 . S
C516 H508 0.929 . S
C516 C517 1.405 . S
C516 C518 1.384 . S
C517 C516 1.405 . S
C517 C523 1.363 1_554 S
C518 H509 0.930 . S
C518 C516 1.384 . S
C518 C519 1.372 . S
C519 C518 1.372 . S
C519 C520 1.400 1_554 S
C519 C524 1.490 . S
C520 H510 0.930 . S
C520 C519 1.400 1_556 S
C520 C523 1.386 . S
H521 C537 0.930 . S
H522 C538 0.931 . S
C523 H511 0.929 . S
C523 C517 1.363 1_556 S
C523 C520 1.386 . S
C524 C519 1.490 . S
C524 C526 1.395 . S
C524 C527 1.403 1_554 S
H525 C531 0.930 . S
C526 H512 0.930 . S
C526 C524 1.395 . S
C526 C529 1.403 1_565 S
C527 C524 1.403 1_556 S
C527 C528 1.524 . S
C527 C531 1.400 1_565 S
C528 H513 0.960 . S
C528 H514 0.960 . S
C528 H515 0.960 . S
C528 C527 1.524 . S
C529 C526 1.403 1_545 S
C529 C530 1.392 . S
C529 C533 1.495 . S
C530 C529 1.392 . S
C530 C531 1.385 1_554 S
C530 C532 1.478 . S
C531 H525 0.930 . S
C531 C527 1.400 1_545 S
C531 C530 1.385 1_556 S
C532 C530 1.478 . S
C532 C534 1.381 . S
C532 C538 1.383 1_554 S
C533 C529 1.495 . S
C533 H539 0.959 . S
C533 H540 0.961 . S
C533 H541 0.960 . S
C534 C532 1.381 . S
C534 C535 1.394 . S
C534 H542 0.930 . S
C535 C534 1.394 . S
C535 C536 1.383 . S
C535 H543 0.929 . S
C536 C535 1.383 . S
C536 C537 1.377 1_554 S
C537 H521 0.930 . S
C537 C536 1.377 1_556 S
C537 C538 1.379 . S
C538 H522 0.931 . S
C538 C532 1.383 1_556 S
C538 C537 1.379 . S
H539 C533 0.959 . S
H540 C533 0.961 . S
H541 C533 0.960 . S
H542 C534 0.930 . S
H543 C535 0.929 . S
H544 C552 0.929 1_556 S
H545 C554 0.930 . S
H546 C556 0.930 . S
H547 C559 0.929 . S
H548 C562 0.930 . S
H549 C564 0.960 . S
H550 C564 0.960 . S
H551 C564 0.960 1_554 S
C552 H544 0.929 1_554 S
C552 C553 1.377 . S
C552 C554 1.384 1_554 S
C553 C552 1.377 . S
C553 C559 1.390 . S
C554 H545 0.930 . S
C554 C552 1.384 1_556 S
C554 C555 1.372 1_556 S
C555 C554 1.372 1_554 S
C555 C556 1.400 . S
C555 C560 1.490 . S
C556 H546 0.930 . S
C556 C555 1.400 . S
C556 C559 1.386 . S
H557 C573 0.930 . S
H558 C574 0.931 . S
C559 H547 0.929 . S
C559 C553 1.390 . S
C559 C556 1.386 . S
C560 C555 1.490 . S
C560 C562 1.395 . S
C560 C563 1.403 1_554 S
H561 C567 0.930 . S
C562 H548 0.930 . S
C562 C560 1.395 . S
C562 C565 1.403 . S
C563 C560 1.403 1_556 S
C563 C564 1.524 . S
C563 C567 1.400 . S
C564 H549 0.960 . S
C564 H550 0.960 . S
C564 H551 0.960 1_556 S
C564 C563 1.524 . S
C565 C562 1.403 . S
C565 C566 1.392 . S
C565 C569 1.495 . S
C566 C565 1.392 . S
C566 C567 1.385 1_554 S
C566 C568 1.478 . S
C567 H561 0.930 . S
C567 C563 1.400 . S
C567 C566 1.385 1_556 S
C568 C566 1.478 . S
C568 C570 1.381 1_554 S
C568 C574 1.383 . S
C569 C565 1.495 . S
C569 H575 0.959 . S
C569 H576 0.961 . S
C569 H577 0.960 . S
C570 C568 1.381 1_556 S
C570 C571 1.394 . S
C570 H578 0.930 . S
C571 C570 1.394 . S
C571 C572 1.383 . S
C571 H579 0.929 . S
C572 C571 1.383 . S
C572 C573 1.377 1_556 S
C573 H557 0.930 . S
C573 C572 1.377 1_554 S
C573 C574 1.379 . S
C574 H558 0.931 . S
C574 C568 1.383 . S
C574 C573 1.379 . S
H575 C569 0.959 . S
H576 C569 0.961 . S
H577 C569 0.960 . S
H578 C570 0.930 . S
H579 C571 0.929 . S
H580 C588 0.929 . S
H581 C590 0.930 . S
H582 C592 0.930 . S
H583 C595 0.929 . S
H584 C598 0.930 . S
H585 C600 0.960 . S
H586 C600 0.960 . S
H587 C600 0.960 . S
C588 H580 0.929 . S
C588 C589 1.377 . S
C588 C590 1.384 . S
C589 C588 1.377 . S
C589 C595 1.390 . S
C590 H581 0.930 . S
C590 C588 1.384 . S
C590 C591 1.372 . S
C591 C590 1.372 . S
C591 C592 1.400 . S
C591 C596 1.490 . S
C592 H582 0.930 . S
C592 C591 1.400 . S
C592 C595 1.386 . S
H593 C609 0.930 . S
H594 C610 0.931 . S
C595 H583 0.929 . S
C595 C589 1.390 . S
C595 C592 1.386 . S
C596 C591 1.490 . S
C596 C598 1.395 . S
C596 C599 1.403 . S
H597 C603 0.930 . S
C598 H584 0.930 . S
C598 C596 1.395 . S
C598 C601 1.403 . S
C599 C596 1.403 . S
C599 C600 1.524 . S
C599 C603 1.400 . S
C600 H585 0.960 . S
C600 H586 0.960 . S
C600 H587 0.960 . S
C600 C599 1.524 . S
C601 C598 1.403 . S
C601 C602 1.392 . S
C601 C605 1.495 . S
C602 C601 1.392 . S
C602 C603 1.385 . S
C602 C604 1.478 . S
C603 H597 0.930 . S
C603 C599 1.400 . S
C603 C602 1.385 . S
C604 C602 1.478 . S
C604 C606 1.381 . S
C604 C610 1.383 . S
C605 C601 1.495 . S
C605 H611 0.959 . S
C605 H612 0.961 . S
C605 H613 0.960 . S
C606 C604 1.381 . S
C606 C607 1.394 . S
C606 H614 0.930 . S
C607 C606 1.394 . S
C607 C608 1.383 . S
C607 H615 0.929 . S
C608 C607 1.383 . S
C608 C609 1.377 . S
C609 H593 0.930 . S
C609 C608 1.377 . S
C609 C610 1.379 . S
C610 H594 0.931 . S
C610 C604 1.383 . S
C610 C609 1.379 . S
H611 C605 0.959 . S
H612 C605 0.961 . S
H613 C605 0.960 . S
H614 C606 0.930 . S
H615 C607 0.929 . S
H616 C624 0.929 . S
H617 C626 0.930 . S
H618 C628 0.930 . S
H619 C631 0.929 . S
H620 C634 0.930 . S
H621 C636 0.960 . S
H622 C636 0.960 . S
H623 C636 0.960 . S
C624 H616 0.929 . S
C624 C625 1.377 . S
C624 C626 1.384 . S
C625 C624 1.377 . S
C625 C631 1.390 . S
C626 H617 0.930 . S
C626 C624 1.384 . S
C626 C627 1.372 . S
C627 C626 1.372 . S
C627 C628 1.400 . S
C627 C632 1.490 . S
C628 H618 0.930 . S
C628 C627 1.400 . S
C628 C631 1.386 . S
H629 C645 0.930 1_554 S
H630 C646 0.930 1_554 S
C631 H619 0.929 . S
C631 C625 1.390 . S
C631 C628 1.386 . S
C632 C627 1.490 . S
C632 C634 1.395 1_554 S
C632 C635 1.403 . S
H633 C639 0.930 . S
C634 H620 0.930 . S
C634 C632 1.395 1_556 S
C634 C637 1.403 . S
C635 C632 1.403 . S
C635 C636 1.524 . S
C635 C639 1.400 . S
C636 H621 0.960 . S
C636 H622 0.960 . S
C636 H623 0.960 . S
C636 C635 1.524 . S
C637 C634 1.403 . S
C637 C638 1.398 . S
C637 C641 1.495 . S
C638 C637 1.398 . S
C638 C639 1.378 1_556 S
C638 C640 1.478 . S
C639 H633 0.930 . S
C639 C635 1.400 . S
C639 C638 1.378 1_554 S
C640 C638 1.478 . S
C640 C642 1.381 . S
C640 C646 1.384 . S
C641 C637 1.495 . S
C641 H647 0.959 . S
C641 H648 0.961 . S
C641 H649 0.960 . S
C642 C640 1.381 . S
C642 C643 1.394 . S
C642 H650 0.930 . S
C643 C642 1.394 . S
C643 C644 1.383 . S
C643 H651 0.929 . S
C644 C643 1.383 . S
C644 C645 1.377 . S
C645 H629 0.930 1_556 S
C645 C644 1.377 . S
C645 C646 1.380 . S
C646 H630 0.930 1_556 S
C646 C640 1.384 . S
C646 C645 1.380 . S
H647 C641 0.959 . S
H648 C641 0.961 . S
H649 C641 0.960 . S
H650 C642 0.930 . S
H651 C643 0.929 . S
H652 C660 0.929 . S
H653 C662 0.930 . S
H654 C664 0.930 . S
H655 C667 0.929 . S
H656 C670 0.930 . S
H657 C672 0.960 . S
H658 C672 0.960 . S
H659 C672 0.960 . S
C660 H652 0.929 . S
C660 C661 1.377 . S
C660 C662 1.384 . S
C661 C660 1.377 . S
C661 C667 1.390 . S
C662 H653 0.930 . S
C662 C660 1.384 . S
C662 C663 1.372 . S
C663 C662 1.372 . S
C663 C664 1.400 . S
C663 C668 1.490 . S
C664 H654 0.930 . S
C664 C663 1.400 . S
C664 C667 1.386 . S
H665 C681 0.930 . S
H666 C682 0.931 . S
C667 H655 0.929 . S
C667 C661 1.390 . S
C667 C664 1.386 . S
C668 C663 1.490 . S
C668 C670 1.395 . S
C668 C671 1.403 . S
H669 C675 0.930 . S
C670 H656 0.930 . S
C670 C668 1.395 . S
C670 C673 1.403 . S
C671 C668 1.403 . S
C671 C672 1.524 . S
C671 C675 1.400 . S
C672 H657 0.960 . S
C672 H658 0.960 . S
C672 H659 0.960 . S
C672 C671 1.524 . S
C673 C670 1.403 . S
C673 C674 1.392 . S
C673 C677 1.495 . S
C674 C673 1.392 . S
C674 C675 1.385 . S
C674 C676 1.478 . S
C675 H669 0.930 . S
C675 C671 1.400 . S
C675 C674 1.385 . S
C676 C674 1.478 . S
C676 C678 1.381 . S
C676 C682 1.383 . S
C677 C673 1.495 . S
C677 H683 0.959 . S
C677 H684 0.961 . S
C677 H685 0.960 . S
C678 C676 1.381 . S
C678 C679 1.394 . S
C678 H686 0.930 . S
C679 C678 1.394 . S
C679 C680 1.383 . S
C679 H687 0.929 . S
C680 C679 1.383 . S
C680 C681 1.377 . S
C681 H665 0.930 . S
C681 C680 1.377 . S
C681 C682 1.379 . S
C682 H666 0.931 . S
C682 C676 1.383 . S
C682 C681 1.379 . S
H683 C677 0.959 . S
H684 C677 0.961 . S
H685 C677 0.960 . S
H686 C678 0.930 . S
H687 C679 0.929 . S
C121 C8 1.720 . S
C140 C64 1.708 . S
C157 C22 1.725 . S
C176 C78 1.702 . S
C193 C92 1.719 . S
C212 C36 1.721 . S
C229 C106 1.723 . S
C248 C50 1.738 . S
C265 C91 0.923 . S
C284 C35 0.907 . S
C301 C105 0.920 . S
C320 C49 0.938 . S
C337 C7 0.919 . S
C356 C63 0.932 . S
C373 C21 0.924 . S
C392 C77 0.905 . S
C409 C37 1.249 . S
C428 C9 1.274 . S
C445 C51 1.245 . S
C464 C23 1.259 . S
C481 C65 1.249 . S
C500 C93 1.273 . S
C517 C107 1.240 . S
C536 C79 1.209 . S
C553 C6 1.397 . S
C572 C76 1.404 . S
C589 C90 1.397 . S
C608 C20 1.384 . S
C625 C34 1.396 . S
C644 C104 1.393 . S
C661 C48 1.395 . S
C680 C62 1.405 . S
