# Generated by pormake.
# Topology uoi, (4)-cn, num edge types: 1
# Building blocks:
#     Node 0, Type 0, BuildingBlock: QUQFOY_clean_sbu_1, # of connection points: 4
#     Node 1, Type 0, BuildingBlock: QUQFOY_clean_sbu_1, # of connection points: 4
#     Node 2, Type 0, BuildingBlock: QUQFOY_clean_sbu_1, # of connection points: 4
#     Node 3, Type 0, BuildingBlock: QUQFOY_clean_sbu_1, # of connection points: 4
#     Node 4, Type 0, BuildingBlock: QUQFOY_clean_sbu_1, # of connection points: 4
#     Node 5, Type 0, BuildingBlock: QUQFOY_clean_sbu_1, # of connection points: 4
#     Node 6, Type 0, BuildingBlock: QUQFOY_clean_sbu_1, # of connection points: 4
#     Node 7, Type 0, BuildingBlock: QUQFOY_clean_sbu_1, # of connection points: 4
#     Node 8, Type 0, BuildingBlock: QUQFOY_clean_sbu_1, # of connection points: 4
#     Node 9, Type 0, BuildingBlock: QUQFOY_clean_sbu_1, # of connection points: 4
#     Node 10, Type 0, BuildingBlock: QUQFOY_clean_sbu_1, # of connection points: 4
#     Node 11, Type 0, BuildingBlock: QUQFOY_clean_sbu_1, # of connection points: 4
#     Node 12, Type 0, BuildingBlock: QUQFOY_clean_sbu_1, # of connection points: 4
#     Node 13, Type 0, BuildingBlock: QUQFOY_clean_sbu_1, # of connection points: 4
#     Node 14, Type 0, BuildingBlock: QUQFOY_clean_sbu_1, # of connection points: 4
#     Node 15, Type 0, BuildingBlock: QUQFOY_clean_sbu_1, # of connection points: 4
#     Node 16, Type 0, BuildingBlock: QUQFOY_clean_sbu_1, # of connection points: 4
#     Node 17, Type 0, BuildingBlock: QUQFOY_clean_sbu_1, # of connection points: 4
#     Node 18, Type 0, BuildingBlock: QUQFOY_clean_sbu_1, # of connection points: 4
#     Node 19, Type 0, BuildingBlock: QUQFOY_clean_sbu_1, # of connection points: 4
#     Node 20, Type 0, BuildingBlock: QUQFOY_clean_sbu_1, # of connection points: 4
#     Node 21, Type 0, BuildingBlock: QUQFOY_clean_sbu_1, # of connection points: 4
#     Node 22, Type 0, BuildingBlock: QUQFOY_clean_sbu_1, # of connection points: 4
#     Node 23, Type 0, BuildingBlock: QUQFOY_clean_sbu_1, # of connection points: 4
#     Node 24, Type 0, BuildingBlock: QUQFOY_clean_sbu_1, # of connection points: 4
#     Node 25, Type 0, BuildingBlock: QUQFOY_clean_sbu_1, # of connection points: 4
#     Node 26, Type 0, BuildingBlock: QUQFOY_clean_sbu_1, # of connection points: 4
#     Node 27, Type 0, BuildingBlock: QUQFOY_clean_sbu_1, # of connection points: 4
#     Node 28, Type 0, BuildingBlock: QUQFOY_clean_sbu_1, # of connection points: 4
#     Node 29, Type 0, BuildingBlock: QUQFOY_clean_sbu_1, # of connection points: 4
#     Node 30, Type 0, BuildingBlock: QUQFOY_clean_sbu_1, # of connection points: 4
#     Node 31, Type 0, BuildingBlock: QUQFOY_clean_sbu_1, # of connection points: 4
#     Edge 32, Type (0, 0), BuildingBlock: ZUJKAS_clean_linker_0, # of connection points: 2
#     Edge 33, Type (0, 0), BuildingBlock: ZUJKAS_clean_linker_0, # of connection points: 2
#     Edge 34, Type (0, 0), BuildingBlock: ZUJKAS_clean_linker_0, # of connection points: 2
#     Edge 35, Type (0, 0), BuildingBlock: ZUJKAS_clean_linker_0, # of connection points: 2
#     Edge 36, Type (0, 0), BuildingBlock: ZUJKAS_clean_linker_0, # of connection points: 2
#     Edge 37, Type (0, 0), BuildingBlock: ZUJKAS_clean_linker_0, # of connection points: 2
#     Edge 38, Type (0, 0), BuildingBlock: ZUJKAS_clean_linker_0, # of connection points: 2
#     Edge 39, Type (0, 0), BuildingBlock: ZUJKAS_clean_linker_0, # of connection points: 2
#     Edge 40, Type (0, 0), BuildingBlock: ZUJKAS_clean_linker_0, # of connection points: 2
#     Edge 41, Type (0, 0), BuildingBlock: ZUJKAS_clean_linker_0, # of connection points: 2
#     Edge 42, Type (0, 0), BuildingBlock: ZUJKAS_clean_linker_0, # of connection points: 2
#     Edge 43, Type (0, 0), BuildingBlock: ZUJKAS_clean_linker_0, # of connection points: 2
#     Edge 44, Type (0, 0), BuildingBlock: ZUJKAS_clean_linker_0, # of connection points: 2
#     Edge 45, Type (0, 0), BuildingBlock: ZUJKAS_clean_linker_0, # of connection points: 2
#     Edge 46, Type (0, 0), BuildingBlock: ZUJKAS_clean_linker_0, # of connection points: 2
#     Edge 47, Type (0, 0), BuildingBlock: ZUJKAS_clean_linker_0, # of connection points: 2
#     Edge 48, Type (0, 0), BuildingBlock: ZUJKAS_clean_linker_0, # of connection points: 2
#     Edge 49, Type (0, 0), BuildingBlock: ZUJKAS_clean_linker_0, # of connection points: 2
#     Edge 50, Type (0, 0), BuildingBlock: ZUJKAS_clean_linker_0, # of connection points: 2
#     Edge 51, Type (0, 0), BuildingBlock: ZUJKAS_clean_linker_0, # of connection points: 2
#     Edge 52, Type (0, 0), BuildingBlock: ZUJKAS_clean_linker_0, # of connection points: 2
#     Edge 53, Type (0, 0), BuildingBlock: ZUJKAS_clean_linker_0, # of connection points: 2
#     Edge 54, Type (0, 0), BuildingBlock: ZUJKAS_clean_linker_0, # of connection points: 2
#     Edge 55, Type (0, 0), BuildingBlock: ZUJKAS_clean_linker_0, # of connection points: 2
#     Edge 56, Type (0, 0), BuildingBlock: ZUJKAS_clean_linker_0, # of connection points: 2
#     Edge 57, Type (0, 0), BuildingBlock: ZUJKAS_clean_linker_0, # of connection points: 2
#     Edge 58, Type (0, 0), BuildingBlock: ZUJKAS_clean_linker_0, # of connection points: 2
#     Edge 59, Type (0, 0), BuildingBlock: ZUJKAS_clean_linker_0, # of connection points: 2
#     Edge 60, Type (0, 0), BuildingBlock: ZUJKAS_clean_linker_0, # of connection points: 2
#     Edge 61, Type (0, 0), BuildingBlock: ZUJKAS_clean_linker_0, # of connection points: 2
#     Edge 62, Type (0, 0), BuildingBlock: ZUJKAS_clean_linker_0, # of connection points: 2
#     Edge 63, Type (0, 0), BuildingBlock: ZUJKAS_clean_linker_0, # of connection points: 2
#     Edge 64, Type (0, 0), BuildingBlock: ZUJKAS_clean_linker_0, # of connection points: 2
#     Edge 65, Type (0, 0), BuildingBlock: ZUJKAS_clean_linker_0, # of connection points: 2
#     Edge 66, Type (0, 0), BuildingBlock: ZUJKAS_clean_linker_0, # of connection points: 2
#     Edge 67, Type (0, 0), BuildingBlock: ZUJKAS_clean_linker_0, # of connection points: 2
#     Edge 68, Type (0, 0), BuildingBlock: ZUJKAS_clean_linker_0, # of connection points: 2
#     Edge 69, Type (0, 0), BuildingBlock: ZUJKAS_clean_linker_0, # of connection points: 2
#     Edge 70, Type (0, 0), BuildingBlock: ZUJKAS_clean_linker_0, # of connection points: 2
#     Edge 71, Type (0, 0), BuildingBlock: ZUJKAS_clean_linker_0, # of connection points: 2
#     Edge 72, Type (0, 0), BuildingBlock: ZUJKAS_clean_linker_0, # of connection points: 2
#     Edge 73, Type (0, 0), BuildingBlock: ZUJKAS_clean_linker_0, # of connection points: 2
#     Edge 74, Type (0, 0), BuildingBlock: ZUJKAS_clean_linker_0, # of connection points: 2
#     Edge 75, Type (0, 0), BuildingBlock: ZUJKAS_clean_linker_0, # of connection points: 2
#     Edge 76, Type (0, 0), BuildingBlock: ZUJKAS_clean_linker_0, # of connection points: 2
#     Edge 77, Type (0, 0), BuildingBlock: ZUJKAS_clean_linker_0, # of connection points: 2
#     Edge 78, Type (0, 0), BuildingBlock: ZUJKAS_clean_linker_0, # of connection points: 2
#     Edge 79, Type (0, 0), BuildingBlock: ZUJKAS_clean_linker_0, # of connection points: 2
#     Edge 80, Type (0, 0), BuildingBlock: ZUJKAS_clean_linker_0, # of connection points: 2
#     Edge 81, Type (0, 0), BuildingBlock: ZUJKAS_clean_linker_0, # of connection points: 2
#     Edge 82, Type (0, 0), BuildingBlock: ZUJKAS_clean_linker_0, # of connection points: 2
#     Edge 83, Type (0, 0), BuildingBlock: ZUJKAS_clean_linker_0, # of connection points: 2
#     Edge 84, Type (0, 0), BuildingBlock: ZUJKAS_clean_linker_0, # of connection points: 2
#     Edge 85, Type (0, 0), BuildingBlock: ZUJKAS_clean_linker_0, # of connection points: 2
#     Edge 86, Type (0, 0), BuildingBlock: ZUJKAS_clean_linker_0, # of connection points: 2
#     Edge 87, Type (0, 0), BuildingBlock: ZUJKAS_clean_linker_0, # of connection points: 2
#     Edge 88, Type (0, 0), BuildingBlock: ZUJKAS_clean_linker_0, # of connection points: 2
#     Edge 89, Type (0, 0), BuildingBlock: ZUJKAS_clean_linker_0, # of connection points: 2
#     Edge 90, Type (0, 0), BuildingBlock: ZUJKAS_clean_linker_0, # of connection points: 2
#     Edge 91, Type (0, 0), BuildingBlock: ZUJKAS_clean_linker_0, # of connection points: 2
#     Edge 92, Type (0, 0), BuildingBlock: ZUJKAS_clean_linker_0, # of connection points: 2
#     Edge 93, Type (0, 0), BuildingBlock: ZUJKAS_clean_linker_0, # of connection points: 2
#     Edge 94, Type (0, 0), BuildingBlock: ZUJKAS_clean_linker_0, # of connection points: 2
#     Edge 95, Type (0, 0), BuildingBlock: ZUJKAS_clean_linker_0, # of connection points: 2
# Relax obj value: 0.226
# Max RMSD: 0.150
# Mean RMSD: 0.150
data_MOF--net-uoi--node1-QUQFOY_clean_sbu_1--edge1-ZUJKAS_clean_linker_0
_symmetry_space_group_name_H-M    P1
_symmetry_Int_Tables_number       1
_symmetry_cell_setting            triclinic
loop_
_symmetry_equiv_pos_as_xyz
'x, y, z'
_cell_length_a     111.68466
_cell_length_b     111.68573
_cell_length_c     26.192337
_cell_angle_alpha  90.003813
_cell_angle_beta   90.002876
_cell_angle_gamma 89.998334
loop_
_atom_site_label
_atom_site_type_symbol
_atom_site_fract_x
_atom_site_fract_y
_atom_site_fract_z
_atom_type_partial_charge
O0 O 0.16442 0.20026 0.25843 0.0
Cd1 Cd 0.16308 0.18745 0.31441 0.0
Cd2 Cd 0.18658 0.19102 0.31903 0.0
O3 O 0.18404 0.19971 0.25007 0.0
O4 O 0.14811 0.17851 0.29928 0.0
O5 O 0.16617 0.17039 0.29399 0.0
C6 C 0.15473 0.16946 0.28732 0.0
C7 C 0.20379 0.17987 0.33772 0.0
C8 C 0.17388 0.20358 0.23557 0.0
C9 C 0.17106 0.20013 0.40572 0.0
O10 O 0.18098 0.20039 0.38211 0.0
O11 O 0.16232 0.19416 0.38783 0.0
O12 O 0.20424 0.19121 0.32908 0.0
O13 O 0.1936 0.17457 0.33193 0.0
O14 O 0.05198 0.91172 0.51319 0.0
Cd15 Cd 0.06496 0.91119 0.56872 0.0
Cd16 Cd 0.06134 0.93451 0.5691 0.0
O17 O 0.05291 0.93119 0.50017 0.0
O18 O 0.0748 0.89666 0.55609 0.0
O19 O 0.0816 0.91517 0.5455 0.0
C20 C 0.08326 0.90375 0.54132 0.0
C21 C 0.07209 0.95206 0.58606 0.0
C22 C 0.04885 0.92093 0.48803 0.0
C23 C 0.05219 0.91987 0.65824 0.0
O24 O 0.05175 0.92948 0.63241 0.0
O25 O 0.05842 0.91109 0.64254 0.0
O26 O 0.0608 0.95224 0.57617 0.0
O27 O 0.0776 0.94194 0.5822 0.0
O28 O 0.33985 0.80142 0.76547 0.0
Cd29 Cd 0.34093 0.81484 0.81879 0.0
Cd30 Cd 0.31732 0.81058 0.82558 0.0
O31 O 0.32017 0.80092 0.75918 0.0
O32 O 0.35554 0.82409 0.80093 0.0
O33 O 0.33722 0.83158 0.79538 0.0
C34 C 0.3486 0.8328 0.78776 0.0
C35 C 0.29927 0.82056 0.84216 0.0
C36 C 0.33043 0.79736 0.7445 0.0
C37 C 0.3335 0.80325 0.91365 0.0
O38 O 0.32347 0.80257 0.89104 0.0
O39 O 0.34213 0.80895 0.89341 0.0
O40 O 0.29975 0.80913 0.83652 0.0
O41 O 0.30897 0.82658 0.83441 0.0
O42 O 0.44815 0.08835 0.00652 0.0
Cd43 Cd 0.43566 0.08936 0.06379 0.0
Cd44 Cd 0.4386 0.0659 0.06377 0.0
O45 O 0.44673 0.0689 0.9939 0.0
O46 O 0.4265 0.10436 0.05156 0.0
O47 O 0.41857 0.08624 0.04411 0.0
C48 C 0.4175 0.09772 0.03899 0.0
C49 C 0.42701 0.049 0.08216 0.0
C50 C 0.45095 0.07907 0.98123 0.0
C51 C 0.44885 0.08019 0.1516 0.0
O52 O 0.44881 0.07056 0.12581 0.0
O53 O 0.44281 0.08918 0.13661 0.0
O54 O 0.43812 0.04812 0.06962 0.0
O55 O 0.42211 0.05946 0.08047 0.0
O56 O 0.16078 0.80257 0.2307 0.0
Cd57 Cd 0.16055 0.81567 0.1757 0.0
Cd58 Cd 0.18385 0.81143 0.17467 0.0
O59 O 0.18032 0.80273 0.24282 0.0
O60 O 0.14618 0.82574 0.18834 0.0
O61 O 0.16478 0.83222 0.19953 0.0
C62 C 0.15338 0.83407 0.20335 0.0
C63 C 0.20171 0.82172 0.15834 0.0
C64 C 0.16994 0.799 0.25514 0.0
C65 C 0.16888 0.80299 0.08518 0.0
O66 O 0.17853 0.8023 0.11059 0.0
O67 O 0.16021 0.80928 0.10166 0.0
O68 O 0.20155 0.8104 0.16737 0.0
O69 O 0.19175 0.82752 0.16279 0.0
O70 O 0.44766 0.91338 0.49024 0.0
Cd71 Cd 0.43526 0.91299 0.43246 0.0
Cd72 Cd 0.43872 0.93626 0.4357 0.0
O73 O 0.44641 0.93271 0.50602 0.0
O74 O 0.42599 0.898 0.44281 0.0
O75 O 0.41818 0.91612 0.4522 0.0
C76 C 0.41704 0.90463 0.45616 0.0
C77 C 0.42729 0.95324 0.41719 0.0
C78 C 0.45046 0.92239 0.51731 0.0
C79 C 0.44899 0.92236 0.34686 0.0
O80 O 0.44918 0.93176 0.37416 0.0
O81 O 0.44256 0.91348 0.35997 0.0
O82 O 0.43834 0.95405 0.43085 0.0
O83 O 0.42234 0.94279 0.41819 0.0
O84 O 0.33776 0.19961 0.73951 0.0
Cd85 Cd 0.33911 0.1867 0.68405 0.0
Cd86 Cd 0.31551 0.19017 0.67929 0.0
O87 O 0.31813 0.19904 0.74781 0.0
O88 O 0.35395 0.17758 0.69976 0.0
O89 O 0.33577 0.16975 0.70531 0.0
C90 C 0.34719 0.16867 0.71218 0.0
C91 C 0.2981 0.17926 0.66123 0.0
C92 C 0.32828 0.20296 0.7622 0.0
C93 C 0.33105 0.1991 0.59213 0.0
O94 O 0.32112 0.19933 0.61568 0.0
O95 O 0.33984 0.19327 0.61035 0.0
O96 O 0.29784 0.19062 0.66945 0.0
O97 O 0.30821 0.17381 0.66712 0.0
O98 O 0.05255 0.08829 0.9909 0.0
Cd99 Cd 0.06534 0.09017 0.93522 0.0
Cd100 Cd 0.06176 0.0664 0.9269 0.0
O101 O 0.05279 0.06858 0.9955 0.0
O102 O 0.07406 0.10514 0.95256 0.0
O103 O 0.08247 0.08719 0.95509 0.0
C104 C 0.08323 0.09858 0.9634 0.0
C105 C 0.07185 0.0486 0.90674 0.0
C106 C 0.04904 0.07864 0.01177 0.0
C107 C 0.05289 0.08289 0.84227 0.0
O108 O 0.05281 0.07272 0.86391 0.0
O109 O 0.05857 0.09158 0.86211 0.0
O110 O 0.06048 0.04887 0.91441 0.0
O111 O 0.07779 0.05837 0.91421 0.0
O112 O 0.83975 0.80178 0.73362 0.0
Cd113 Cd 0.84107 0.81503 0.67962 0.0
Cd114 Cd 0.81749 0.81122 0.67258 0.0
O115 O 0.82007 0.80187 0.73995 0.0
O116 O 0.85556 0.82449 0.69743 0.0
O117 O 0.83713 0.83179 0.70184 0.0
C118 C 0.84848 0.83317 0.70973 0.0
C119 C 0.79962 0.82142 0.65483 0.0
C120 C 0.83023 0.79807 0.75489 0.0
C121 C 0.83363 0.80323 0.58543 0.0
O122 O 0.82358 0.80276 0.60797 0.0
O123 O 0.8423 0.80893 0.60536 0.0
O124 O 0.79991 0.81001 0.66141 0.0
O125 O 0.80942 0.82731 0.66221 0.0
O126 O 0.94824 0.08903 0.48919 0.0
Cd127 Cd 0.93534 0.08899 0.4334 0.0
Cd128 Cd 0.93926 0.06583 0.43674 0.0
O129 O 0.94742 0.06972 0.50579 0.0
O130 O 0.92551 0.10359 0.44477 0.0
O131 O 0.91862 0.08516 0.45598 0.0
C132 C 0.91699 0.0966 0.45968 0.0
C133 C 0.92792 0.04867 0.42052 0.0
C134 C 0.95139 0.08012 0.51616 0.0
C135 C 0.94841 0.07966 0.34572 0.0
O136 O 0.94908 0.07034 0.37332 0.0
O137 O 0.94195 0.08845 0.35971 0.0
O138 O 0.93907 0.04803 0.43271 0.0
O139 O 0.92285 0.05906 0.42187 0.0
O140 O 0.66287 0.19796 0.23678 0.0
Cd141 Cd 0.6616 0.18512 0.18102 0.0
Cd142 Cd 0.68529 0.18876 0.17604 0.0
O143 O 0.68253 0.19773 0.24423 0.0
O144 O 0.64685 0.17586 0.19674 0.0
O145 O 0.66511 0.16817 0.20186 0.0
C146 C 0.6537 0.16699 0.20891 0.0
C147 C 0.70301 0.17826 0.15864 0.0
C148 C 0.67234 0.20147 0.25905 0.0
C149 C 0.66957 0.19753 0.08889 0.0
O150 O 0.67955 0.1977 0.11209 0.0
O151 O 0.66076 0.19179 0.10749 0.0
O152 O 0.70296 0.18964 0.16631 0.0
O153 O 0.69304 0.17257 0.16458 0.0
O154 O 0.55308 0.91292 0.98962 0.0
Cd155 Cd 0.56555 0.91141 0.93242 0.0
Cd156 Cd 0.56241 0.935 0.92814 0.0
O157 O 0.55405 0.93254 0.99791 0.0
O158 O 0.57476 0.89658 0.94726 0.0
O159 O 0.58266 0.91476 0.95104 0.0
C160 C 0.58377 0.90336 0.95819 0.0
C161 C 0.57334 0.95231 0.90844 0.0
C162 C 0.55006 0.92245 0.01278 0.0
C163 C 0.55247 0.91953 0.84259 0.0
O164 O 0.55263 0.92948 0.86607 0.0
O165 O 0.55834 0.91065 0.85986 0.0
O166 O 0.56206 0.95267 0.9182 0.0
O167 O 0.57874 0.94215 0.91358 0.0
O168 O 0.83924 0.19799 0.76312 0.0
Cd169 Cd 0.84063 0.18532 0.81959 0.0
Cd170 Cd 0.81704 0.18869 0.82422 0.0
O171 O 0.81962 0.19717 0.75483 0.0
O172 O 0.85534 0.17599 0.80411 0.0
O173 O 0.83706 0.16833 0.79981 0.0
C174 C 0.84845 0.1671 0.79254 0.0
C175 C 0.79957 0.17794 0.84309 0.0
C176 C 0.82974 0.20112 0.74009 0.0
C177 C 0.8326 0.19813 0.91044 0.0
O178 O 0.82266 0.1982 0.8869 0.0
O179 O 0.8414 0.19222 0.89275 0.0
O180 O 0.79936 0.18925 0.83392 0.0
O181 O 0.80966 0.17242 0.83789 0.0
O182 O 0.55323 0.08708 0.50691 0.0
Cd183 Cd 0.56578 0.08831 0.56393 0.0
Cd184 Cd 0.56224 0.06474 0.56743 0.0
O185 O 0.55387 0.06747 0.49787 0.0
O186 O 0.57497 0.10318 0.54975 0.0
O187 O 0.58286 0.08502 0.54444 0.0
C188 C 0.58396 0.09645 0.53801 0.0
C189 C 0.57313 0.04736 0.58624 0.0
C190 C 0.55005 0.07766 0.4834 0.0
C191 C 0.55271 0.08012 0.65391 0.0
O192 O 0.5526 0.07024 0.62993 0.0
O193 O 0.55873 0.08891 0.63685 0.0
O194 O 0.56183 0.04705 0.57674 0.0
O195 O 0.57856 0.05751 0.5813 0.0
O196 O 0.66206 0.80247 0.26287 0.0
Cd197 Cd 0.6613 0.81561 0.31758 0.0
Cd198 Cd 0.68479 0.81155 0.32081 0.0
O199 O 0.68166 0.80247 0.25321 0.0
O200 O 0.64671 0.82515 0.30231 0.0
O201 O 0.66512 0.83237 0.29512 0.0
C202 C 0.65372 0.8338 0.28894 0.0
C203 C 0.70262 0.8219 0.33728 0.0
C204 C 0.67135 0.79877 0.2398 0.0
C205 C 0.66938 0.80336 0.40972 0.0
O206 O 0.6792 0.80279 0.38545 0.0
O207 O 0.66066 0.80933 0.39174 0.0
O208 O 0.70245 0.81053 0.32959 0.0
O209 O 0.6927 0.82769 0.33153 0.0
O210 O 0.94755 0.91287 0.01121 0.0
Cd211 Cd 0.93482 0.9121 0.06766 0.0
Cd212 Cd 0.93848 0.9354 0.06904 0.0
O213 O 0.94666 0.93237 0.99931 0.0
O214 O 0.92543 0.89729 0.05458 0.0
O215 O 0.91786 0.91555 0.04707 0.0
C216 C 0.91659 0.90411 0.04175 0.0
C217 C 0.92716 0.95246 0.08759 0.0
C218 C 0.95065 0.92213 0.98641 0.0
C219 C 0.948 0.92063 0.15671 0.0
O220 O 0.94842 0.93031 0.13132 0.0
O221 O 0.94167 0.91191 0.14096 0.0
O222 O 0.93832 0.95316 0.07569 0.0
O223 O 0.92208 0.94209 0.08524 0.0
O224 O 0.66164 0.69871 0.7608 0.0
Cd225 Cd 0.66066 0.68569 0.81598 0.0
Cd226 Cd 0.6841 0.68957 0.81983 0.0
O227 O 0.68125 0.69842 0.75145 0.0
O228 O 0.64613 0.67611 0.8002 0.0
O229 O 0.66457 0.66889 0.79442 0.0
C230 C 0.65319 0.66744 0.78758 0.0
C231 C 0.70174 0.67909 0.8384 0.0
C232 C 0.671 0.70222 0.73769 0.0
C233 C 0.66858 0.69817 0.90763 0.0
O234 O 0.67842 0.69865 0.88346 0.0
O235 O 0.65988 0.69212 0.88989 0.0
O236 O 0.70174 0.69043 0.82968 0.0
O237 O 0.69178 0.67339 0.83238 0.0
O238 O 0.55305 0.41371 0.00963 0.0
Cd239 Cd 0.5658 0.41304 0.06598 0.0
Cd240 Cd 0.5621 0.43638 0.0661 0.0
O241 O 0.55393 0.43317 0.99646 0.0
O242 O 0.57492 0.39805 0.05326 0.0
O243 O 0.58279 0.41616 0.04475 0.0
C244 C 0.58385 0.40468 0.03973 0.0
C245 C 0.57338 0.45346 0.0846 0.0
C246 C 0.54996 0.42288 0.98419 0.0
C247 C 0.55267 0.42181 0.15466 0.0
O248 O 0.55221 0.43139 0.12867 0.0
O249 O 0.559 0.41305 0.13938 0.0
O250 O 0.56222 0.45414 0.07269 0.0
O251 O 0.5785 0.4431 0.08189 0.0
O252 O 0.83794 0.30249 0.26645 0.0
Cd253 Cd 0.83821 0.31546 0.32206 0.0
Cd254 Cd 0.81488 0.31144 0.32189 0.0
O255 O 0.81844 0.30282 0.25353 0.0
O256 O 0.85289 0.32517 0.31079 0.0
O257 O 0.83452 0.33216 0.29853 0.0
C258 C 0.84597 0.33371 0.29553 0.0
C259 C 0.7974 0.32235 0.33814 0.0
C260 C 0.82882 0.29904 0.24148 0.0
C261 C 0.82948 0.30263 0.41163 0.0
O262 O 0.81989 0.30206 0.38574 0.0
O263 O 0.83823 0.30889 0.39584 0.0
O264 O 0.79713 0.31104 0.32859 0.0
O265 O 0.80758 0.32777 0.33421 0.0
O266 O 0.94897 0.59339 0.51797 0.0
Cd267 Cd 0.93603 0.59311 0.57369 0.0
Cd268 Cd 0.93952 0.56989 0.56939 0.0
O269 O 0.94789 0.57408 0.50123 0.0
O270 O 0.92546 0.60723 0.5637 0.0
O271 O 0.91962 0.5885 0.54996 0.0
C272 C 0.91736 0.59985 0.54785 0.0
C273 C 0.92858 0.55226 0.58169 0.0
C274 C 0.95199 0.58444 0.49094 0.0
C275 C 0.94863 0.58336 0.66176 0.0
O276 O 0.94905 0.57403 0.63411 0.0
O277 O 0.94253 0.59236 0.64748 0.0
O278 O 0.93987 0.5521 0.57189 0.0
O279 O 0.92318 0.56247 0.58051 0.0
O280 O 0.6619 0.30212 0.73603 0.0
Cd281 Cd 0.66075 0.315 0.68038 0.0
Cd282 Cd 0.68441 0.31155 0.67702 0.0
O283 O 0.68151 0.30264 0.74528 0.0
O284 O 0.64597 0.32423 0.69571 0.0
O285 O 0.6642 0.33194 0.70154 0.0
C286 C 0.65279 0.33309 0.7083 0.0
C287 C 0.702 0.32224 0.65975 0.0
C288 C 0.67131 0.29876 0.75921 0.0
C289 C 0.66908 0.30269 0.58882 0.0
O290 O 0.67895 0.30253 0.61287 0.0
O291 O 0.66017 0.3084 0.60671 0.0
O292 O 0.7021 0.31089 0.66803 0.0
O293 O 0.69196 0.32782 0.66531 0.0
O294 O 0.9494 0.41476 0.98607 0.0
Cd295 Cd 0.93653 0.41089 0.93252 0.0
Cd296 Cd 0.94063 0.43418 0.90298 0.0
O297 O 0.95148 0.43391 0.96695 0.0
O298 O 0.92811 0.39631 0.95738 0.0
O299 O 0.91933 0.41406 0.95166 0.0
C300 C 0.91879 0.40291 0.96461 0.0
C301 C 0.93128 0.45218 0.87907 0.0
C302 C 0.9543 0.42486 0.99385 0.0
C303 C 0.94782 0.41417 0.83083 0.0
O304 O 0.94756 0.42526 0.84127 0.0
O305 O 0.94322 0.40658 0.86122 0.0
O306 O 0.94272 0.45102 0.87981 0.0
O307 O 0.92494 0.4432 0.89427 0.0
O308 O 0.83844 0.69897 0.23149 0.0
Cd309 Cd 0.83836 0.68546 0.17824 0.0
Cd310 Cd 0.81514 0.69008 0.17788 0.0
O311 O 0.81895 0.69919 0.24479 0.0
O312 O 0.85284 0.67559 0.19145 0.0
O313 O 0.83433 0.66908 0.20474 0.0
C314 C 0.84576 0.66735 0.20824 0.0
C315 C 0.79732 0.67961 0.16342 0.0
C316 C 0.82942 0.70283 0.25608 0.0
C317 C 0.82989 0.69754 0.08637 0.0
O318 O 0.82036 0.69867 0.11231 0.0
O319 O 0.83848 0.69122 0.10325 0.0
O320 O 0.79743 0.69099 0.17108 0.0
O321 O 0.8073 0.67389 0.16843 0.0
O322 O 0.55366 0.58875 0.49145 0.0
Cd323 Cd 0.56601 0.58905 0.43349 0.0
Cd324 Cd 0.5629 0.56584 0.43755 0.0
O325 O 0.55527 0.56948 0.50793 0.0
O326 O 0.57573 0.60377 0.44346 0.0
O327 O 0.58297 0.58542 0.45311 0.0
C328 C 0.58447 0.59688 0.45684 0.0
C329 C 0.57467 0.54906 0.41984 0.0
C330 C 0.55106 0.57975 0.51893 0.0
C331 C 0.55233 0.57934 0.34842 0.0
O332 O 0.55228 0.57 0.37608 0.0
O333 O 0.55866 0.58833 0.3611 0.0
O334 O 0.56367 0.54805 0.43396 0.0
O335 O 0.57937 0.55962 0.41971 0.0
O336 O 0.33768 0.30373 0.24074 0.0
Cd337 Cd 0.33821 0.31653 0.18457 0.0
Cd338 Cd 0.31493 0.31292 0.18488 0.0
O339 O 0.31822 0.30457 0.25406 0.0
O340 O 0.353 0.32599 0.19695 0.0
O341 O 0.33472 0.33342 0.206 0.0
C342 C 0.34618 0.33476 0.21062 0.0
C343 C 0.29803 0.32457 0.16761 0.0
C344 C 0.32851 0.30058 0.26612 0.0
C345 C 0.32924 0.30357 0.09564 0.0
O346 O 0.31968 0.3031 0.1218 0.0
O347 O 0.33805 0.30982 0.111 0.0
O348 O 0.29716 0.3134 0.17929 0.0
O349 O 0.3085 0.32947 0.16971 0.0
O350 O 0.44812 0.58718 0.99113 0.0
Cd351 Cd 0.4357 0.58862 0.9337 0.0
Cd352 Cd 0.43912 0.56505 0.92923 0.0
O353 O 0.44742 0.56755 0.99911 0.0
O354 O 0.42654 0.6035 0.94824 0.0
O355 O 0.41855 0.58536 0.95205 0.0
C356 C 0.41748 0.59678 0.95903 0.0
C357 C 0.42825 0.54773 0.90933 0.0
C358 C 0.45126 0.57768 0.01418 0.0
C359 C 0.44898 0.58066 0.84403 0.0
O360 O 0.44891 0.5707 0.86738 0.0
O361 O 0.44298 0.58945 0.86129 0.0
O362 O 0.43954 0.54739 0.91907 0.0
O363 O 0.42282 0.55786 0.91456 0.0
O364 O 0.15977 0.69883 0.72772 0.0
Cd365 Cd 0.15928 0.68555 0.67351 0.0
Cd366 Cd 0.18265 0.68963 0.67086 0.0
O367 O 0.17932 0.6984 0.73905 0.0
O368 O 0.14495 0.67555 0.68796 0.0
O369 O 0.16359 0.66908 0.69799 0.0
C370 C 0.15221 0.66726 0.70295 0.0
C371 C 0.20055 0.67944 0.65416 0.0
C372 C 0.16903 0.70229 0.75173 0.0
C373 C 0.1674 0.69782 0.58171 0.0
O374 O 0.17713 0.69857 0.60657 0.0
O375 O 0.15876 0.69164 0.59907 0.0
O376 O 0.20032 0.69078 0.66271 0.0
O377 O 0.19066 0.67358 0.65921 0.0
O378 O 0.05256 0.40969 0.48641 0.0
Cd379 Cd 0.06538 0.41239 0.43098 0.0
Cd380 Cd 0.05998 0.43405 0.45041 0.0
O381 O 0.05405 0.4277 0.51991 0.0
O382 O 0.07671 0.39862 0.43334 0.0
O383 O 0.08146 0.41701 0.4583 0.0
C384 C 0.0843 0.40582 0.45446 0.0
C385 C 0.07095 0.45136 0.43365 0.0
C386 C 0.04997 0.41706 0.52173 0.0
C387 C 0.0502 0.42313 0.35526 0.0
O388 O 0.04847 0.43044 0.39161 0.0
O389 O 0.05868 0.41555 0.35822 0.0
O390 O 0.0602 0.45187 0.45157 0.0
O391 O 0.07594 0.44096 0.43027 0.0
O392 O 0.33948 0.69851 0.26355 0.0
Cd393 Cd 0.3402 0.6852 0.31753 0.0
Cd394 Cd 0.31665 0.68975 0.3223 0.0
O395 O 0.31984 0.69912 0.25544 0.0
O396 O 0.35474 0.67566 0.3013 0.0
O397 O 0.33631 0.66849 0.29436 0.0
C398 C 0.34771 0.66705 0.28783 0.0
C399 C 0.29851 0.67992 0.33862 0.0
C400 C 0.3302 0.70257 0.24151 0.0
C401 C 0.33253 0.69719 0.4111 0.0
O402 O 0.32263 0.69799 0.38751 0.0
O403 O 0.34113 0.69123 0.39203 0.0
O404 O 0.29905 0.69132 0.33209 0.0
O405 O 0.30821 0.67383 0.33181 0.0
O406 O 0.053 0.58771 0.01717 0.0
Cd407 Cd 0.06606 0.58861 0.07229 0.0
Cd408 Cd 0.06114 0.56521 0.0792 0.0
O409 O 0.0526 0.56804 0.01006 0.0
O410 O 0.07561 0.60322 0.05722 0.0
O411 O 0.08282 0.58481 0.04948 0.0
C412 C 0.08425 0.59622 0.04384 0.0
C413 C 0.07054 0.5471 0.10026 0.0
C414 C 0.04918 0.57833 0.99505 0.0
C415 C 0.05309 0.58177 0.16445 0.0
O416 O 0.05219 0.57179 0.14157 0.0
O417 O 0.0596 0.59003 0.14593 0.0
O418 O 0.05924 0.54771 0.09123 0.0
O419 O 0.07683 0.55667 0.09325 0.0
O420 O 0.1631 0.30435 0.75955 0.0
Cd421 Cd 0.16293 0.31735 0.81497 0.0
Cd422 Cd 0.18606 0.3138 0.81222 0.0
O423 O 0.18238 0.30574 0.74281 0.0
O424 O 0.14827 0.32712 0.80386 0.0
O425 O 0.16667 0.33396 0.79074 0.0
C426 C 0.15522 0.33556 0.78773 0.0
C427 C 0.20304 0.32529 0.82966 0.0
C428 C 0.17208 0.30147 0.73249 0.0
C429 C 0.17231 0.30436 0.90264 0.0
O430 O 0.18162 0.30372 0.87493 0.0
O431 O 0.16353 0.31086 0.88889 0.0
O432 O 0.20385 0.31419 0.81673 0.0
O433 O 0.1926 0.33024 0.82827 0.0
O434 O 0.44839 0.413 0.50863 0.0
Cd435 Cd 0.43571 0.41172 0.56504 0.0
Cd436 Cd 0.439 0.4353 0.56875 0.0
O437 O 0.44771 0.43262 0.49988 0.0
O438 O 0.42632 0.39701 0.55009 0.0
O439 O 0.41872 0.41531 0.54525 0.0
C440 C 0.41746 0.40391 0.53841 0.0
C441 C 0.4281 0.45271 0.58697 0.0
C442 C 0.45164 0.42246 0.48554 0.0
C443 C 0.44842 0.41995 0.65573 0.0
O444 O 0.44841 0.42985 0.63196 0.0
O445 O 0.44263 0.41105 0.63816 0.0
O446 O 0.43943 0.45298 0.57807 0.0
O447 O 0.42266 0.44258 0.58167 0.0
H448 H 0.2754 0.18792 0.65571 0.0
H449 H 0.25918 0.18048 0.60274 0.0
H450 H 0.28042 0.14968 0.56177 0.0
H451 H 0.29694 0.15728 0.61441 0.0
H452 H 0.27243 0.16088 0.47892 0.0
H453 H 0.23409 0.15499 0.60811 0.0
H454 H 0.24057 0.16944 0.61875 0.0
H455 H 0.24925 0.15615 0.63158 0.0
C456 C 0.27654 0.17939 0.63666 0.0
C457 C 0.28749 0.17322 0.63914 0.0
C458 C 0.26718 0.17508 0.60658 0.0
C459 C 0.26848 0.16443 0.57861 0.0
C460 C 0.27917 0.15787 0.58328 0.0
H461 H 0.20458 0.15794 0.38507 0.0
H462 H 0.22096 0.15013 0.43794 0.0
C463 C 0.28858 0.1622 0.61357 0.0
C464 C 0.25935 0.16129 0.53948 0.0
H465 H 0.22913 0.16128 0.52064 0.0
C466 C 0.26297 0.16062 0.48818 0.0
C467 C 0.247 0.16065 0.55123 0.0
C468 C 0.24254 0.1602 0.60553 0.0
C469 C 0.25455 0.16053 0.44834 0.0
C470 C 0.24221 0.1614 0.46007 0.0
C471 C 0.23859 0.16085 0.51138 0.0
C472 C 0.23315 0.16466 0.42087 0.0
C473 C 0.25901 0.15995 0.39404 0.0
C474 C 0.23463 0.17525 0.39272 0.0
C475 C 0.22535 0.17969 0.36251 0.0
C476 C 0.2143 0.1737 0.36008 0.0
C477 C 0.21302 0.16272 0.38587 0.0
C478 C 0.22235 0.15828 0.41629 0.0
H479 H 0.26737 0.15459 0.39156 0.0
H480 H 0.25222 0.15598 0.36808 0.0
H481 H 0.26113 0.16914 0.38065 0.0
H482 H 0.24272 0.18053 0.39649 0.0
H483 H 0.22663 0.18818 0.34329 0.0
H484 H 0.09419 0.95378 0.63191 0.0
H485 H 0.10138 0.9704 0.68507 0.0
H486 H 0.06995 0.99086 0.6458 0.0
H487 H 0.06293 0.97457 0.59194 0.0
H488 H 0.08971 0.00506 0.6543 0.0
H489 H 0.08551 0.975 0.82316 0.0
H490 H 0.0959 0.97052 0.77443 0.0
H491 H 0.08013 0.97072 0.76091 0.0
C492 C 0.08899 0.96196 0.63352 0.0
C493 C 0.0779 0.96279 0.60827 0.0
C494 C 0.09306 0.9714 0.66433 0.0
C495 C 0.08604 0.98175 0.67052 0.0
C496 C 0.07548 0.98294 0.64196 0.0
H497 H 0.06171 0.02666 0.89505 0.0
H498 H 0.06876 0.01033 0.84155 0.0
C499 C 0.07146 0.97358 0.61117 0.0
C500 C 0.08883 0.99093 0.70991 0.0
H501 H 0.08807 0.99539 0.83894 0.0
C502 C 0.08963 0.00296 0.69473 0.0
C503 C 0.08865 0.98814 0.76268 0.0
C504 C 0.08743 0.97542 0.78157 0.0
C505 C 0.08939 0.01231 0.73062 0.0
C506 C 0.08862 0.00953 0.78329 0.0
C507 C 0.08871 0.99749 0.79859 0.0
C508 C 0.08557 0.0188 0.82191 0.0
C509 C 0.089 0.02506 0.71157 0.0
C510 C 0.09291 0.02882 0.83066 0.0
C511 C 0.08884 0.03829 0.86131 0.0
C512 C 0.07741 0.03782 0.8838 0.0
C513 C 0.07052 0.02737 0.87802 0.0
C514 C 0.07456 0.01799 0.84743 0.0
H515 H 0.08781 0.02556 0.6695 0.0
H516 H 0.08157 0.03005 0.73002 0.0
H517 H 0.09752 0.02962 0.72138 0.0
H518 H 0.10156 0.02952 0.81227 0.0
H519 H 0.09437 0.0462 0.86516 0.0
H520 H 0.20397 0.84381 0.11286 0.0
H521 H 0.22078 0.85065 0.05996 0.0
H522 H 0.2405 0.81874 0.0991 0.0
H523 H 0.224 0.81204 0.15259 0.0
H524 H 0.2551 0.8384 0.09146 0.0
H525 H 0.22527 0.83458 0.9217 0.0
H526 H 0.22083 0.84499 0.97046 0.0
H527 H 0.22084 0.82921 0.98379 0.0
C528 C 0.21203 0.83843 0.11128 0.0
C529 C 0.21259 0.8273 0.13638 0.0
C530 C 0.22158 0.84229 0.08062 0.0
C531 C 0.23177 0.83505 0.07451 0.0
C532 C 0.2327 0.82444 0.1029 0.0
H533 H 0.27731 0.81037 0.85228 0.0
H534 H 0.26076 0.81744 0.90462 0.0
C535 C 0.22323 0.82061 0.13349 0.0
C536 C 0.24105 0.83769 0.0354 0.0
H537 H 0.24573 0.8369 0.90651 0.0
C538 C 0.25306 0.83836 0.05097 0.0
C539 C 0.23835 0.83754 0.98255 0.0
C540 C 0.22565 0.83647 0.96332 0.0
C541 C 0.26247 0.83806 0.01536 0.0
C542 C 0.25977 0.83734 0.9626 0.0
C543 C 0.24776 0.83751 0.94692 0.0
C544 C 0.2691 0.83431 0.92425 0.0
C545 C 0.27519 0.83757 0.03477 0.0
C546 C 0.2791 0.84169 0.91578 0.0
C547 C 0.28868 0.83762 0.88573 0.0
C548 C 0.28834 0.82613 0.86366 0.0
C549 C 0.2779 0.81922 0.86901 0.0
C550 C 0.2684 0.82326 0.89894 0.0
H551 H 0.27562 0.83637 0.07684 0.0
H552 H 0.28015 0.8301 0.01642 0.0
H553 H 0.27983 0.84605 0.02507 0.0
H554 H 0.27972 0.85036 0.93406 0.0
H555 H 0.29658 0.84317 0.88223 0.0
H556 H 0.43028 0.02548 0.05965 0.0
H557 H 0.42476 0.00845 0.11322 0.0
H558 H 0.40572 0.03221 0.21471 0.0
H559 H 0.41071 0.04915 0.15957 0.0
H560 H 0.43357 0.00699 0.20365 0.0
H561 H 0.38441 0.0036 0.22389 0.0
H562 H 0.39138 0.01235 0.1741 0.0
H563 H 0.3897 0.01842 0.2374 0.0
C564 C 0.42448 0.02698 0.0922 0.0
C565 C 0.42092 0.03862 0.10549 0.0
C566 C 0.42137 0.01725 0.12297 0.0
C567 C 0.41484 0.01899 0.16826 0.0
C568 C 0.41053 0.03052 0.17956 0.0
H569 H 0.43202 0.97684 0.43331 0.0
H570 H 0.42679 0.99339 0.37648 0.0
C571 C 0.41342 0.04024 0.14802 0.0
C572 C 0.41442 0.00928 0.20721 0.0
H573 H 0.39618 0.99383 0.28902 0.0
C574 C 0.42534 0.00405 0.22172 0.0
C575 C 0.40372 0.00538 0.23106 0.0
C576 C 0.39163 0.01015 0.21543 0.0
C577 C 0.42591 0.99519 0.25946 0.0
C578 C 0.41531 0.99171 0.28508 0.0
C579 C 0.40432 0.9967 0.27005 0.0
C580 C 0.4157 0.98265 0.32657 0.0
C581 C 0.4379 0.98954 0.27099 0.0
C582 C 0.41039 0.97137 0.31977 0.0
C583 C 0.41317 0.96192 0.35296 0.0
C584 C 0.42139 0.96364 0.39297 0.0
C585 C 0.42573 0.97523 0.40254 0.0
C586 C 0.4228 0.98469 0.36994 0.0
H587 H 0.44436 0.99085 0.23921 0.0
H588 H 0.44176 0.99376 0.30565 0.0
H589 H 0.43697 0.97979 0.27819 0.0
H590 H 0.40483 0.96963 0.28669 0.0
H591 H 0.40972 0.95308 0.34455 0.0
H592 H 0.72489 0.81225 0.34454 0.0
H593 H 0.74132 0.81922 0.39774 0.0
H594 H 0.72157 0.85133 0.43342 0.0
H595 H 0.70482 0.84422 0.3808 0.0
H596 H 0.75592 0.8389 0.4038 0.0
H597 H 0.72589 0.83601 0.57327 0.0
H598 H 0.72152 0.83032 0.51162 0.0
H599 H 0.72155 0.84616 0.52341 0.0
C600 C 0.72409 0.82091 0.36281 0.0
C601 C 0.71346 0.82759 0.35904 0.0
C602 C 0.73353 0.8249 0.39323 0.0
C603 C 0.73257 0.83566 0.42058 0.0
C604 C 0.72239 0.84287 0.41357 0.0
H605 H 0.79729 0.84393 0.61332 0.0
H606 H 0.78056 0.85118 0.56086 0.0
C607 C 0.71287 0.83884 0.38308 0.0
C608 C 0.74181 0.83849 0.45962 0.0
H609 H 0.74635 0.83822 0.58864 0.0
C610 C 0.75384 0.83904 0.44425 0.0
C611 C 0.73905 0.83859 0.51242 0.0
C612 C 0.72633 0.83767 0.53149 0.0
C613 C 0.76321 0.83883 0.48005 0.0
C614 C 0.76046 0.83833 0.5328 0.0
C615 C 0.74842 0.83865 0.54823 0.0
C616 C 0.76971 0.83531 0.5715 0.0
C617 C 0.77595 0.83817 0.46091 0.0
C618 C 0.76884 0.82436 0.59747 0.0
C619 C 0.77826 0.82029 0.62777 0.0
C620 C 0.78879 0.82708 0.63281 0.0
C621 C 0.78931 0.83848 0.61005 0.0
C622 C 0.77981 0.84258 0.57965 0.0
H623 H 0.77641 0.83683 0.41892 0.0
H624 H 0.78064 0.84665 0.47019 0.0
H625 H 0.78083 0.83073 0.47978 0.0
H626 H 0.76112 0.81862 0.59204 0.0
H627 H 0.77753 0.81151 0.64504 0.0
H628 H 0.93285 0.02514 0.43741 0.0
H629 H 0.92758 0.00844 0.38143 0.0
H630 H 0.90522 0.03188 0.29191 0.0
H631 H 0.91012 0.04856 0.34904 0.0
H632 H 0.89674 0.00788 0.29427 0.0
H633 H 0.94491 0.01063 0.24417 0.0
H634 H 0.94237 0.00772 0.31065 0.0
H635 H 0.9376 0.02172 0.28328 0.0
C636 C 0.92647 0.02664 0.40692 0.0
C637 C 0.92201 0.03817 0.39719 0.0
C638 C 0.92352 0.0171 0.37477 0.0
C639 C 0.9163 0.01901 0.33163 0.0
C640 C 0.91087 0.03024 0.32478 0.0
H641 H 0.93073 0.97594 0.06526 0.0
H642 H 0.92534 0.99302 0.11878 0.0
C643 C 0.91366 0.03976 0.35757 0.0
C644 C 0.91589 0.0099 0.29037 0.0
H645 H 0.93406 0.99447 0.20909 0.0
C646 C 0.90487 0.00495 0.27536 0.0
C647 C 0.92647 0.00634 0.26476 0.0
C648 C 0.93849 0.01196 0.27608 0.0
C649 C 0.90422 0.99626 0.23641 0.0
C650 C 0.9149 0.99229 0.21261 0.0
C651 C 0.92585 0.99746 0.22713 0.0
C652 C 0.91526 0.98258 0.17366 0.0
C653 C 0.8921 0.99158 0.22072 0.0
C654 C 0.91083 0.97109 0.18487 0.0
C655 C 0.91364 0.96135 0.15332 0.0
C656 C 0.92119 0.9629 0.1109 0.0
C657 C 0.92489 0.9745 0.09772 0.0
C658 C 0.92185 0.98426 0.12847 0.0
H659 H 0.88493 0.9982 0.22903 0.0
H660 H 0.89185 0.98936 0.17941 0.0
H661 H 0.89009 0.98334 0.24277 0.0
H662 H 0.90598 0.96945 0.21995 0.0
H663 H 0.91082 0.95247 0.16479 0.0
H664 H 0.79828 0.15627 0.89242 0.0
H665 H 0.78155 0.14893 0.94452 0.0
H666 H 0.76038 0.17937 0.89847 0.0
H667 H 0.77684 0.18658 0.84612 0.0
H668 H 0.77302 0.16078 0.02557 0.0
H669 H 0.73557 0.15347 0.89267 0.0
H670 H 0.75088 0.15458 0.87099 0.0
H671 H 0.74205 0.16789 0.88118 0.0
C672 C 0.78991 0.16116 0.89208 0.0
C673 C 0.78889 0.17203 0.86523 0.0
C674 C 0.78038 0.15699 0.92206 0.0
C675 C 0.76964 0.16352 0.92508 0.0
C676 C 0.76843 0.174 0.89592 0.0
H677 H 0.72549 0.18749 0.15361 0.0
H678 H 0.74211 0.18021 0.1024 0.0
C679 C 0.77792 0.17817 0.86621 0.0
C680 C 0.76032 0.16052 0.96355 0.0
H681 H 0.72999 0.15995 0.97895 0.0
C682 C 0.76362 0.16026 0.01529 0.0
C683 C 0.74807 0.15957 0.95046 0.0
C684 C 0.74397 0.15875 0.89571 0.0
C685 C 0.75496 0.16022 0.05416 0.0
C686 C 0.74268 0.16071 0.04093 0.0
C687 C 0.7394 0.1598 0.9893 0.0
C688 C 0.73328 0.16386 0.07882 0.0
C689 C 0.75907 0.16011 0.109 0.0
C690 C 0.72272 0.15708 0.08313 0.0
C691 C 0.71309 0.16129 0.11244 0.0
C692 C 0.71383 0.17244 0.13731 0.0
C693 C 0.72463 0.17886 0.13507 0.0
C694 C 0.73422 0.17465 0.10601 0.0
H695 H 0.76761 0.15508 0.11304 0.0
H696 H 0.76076 0.16944 0.1217 0.0
H697 H 0.75227 0.15603 0.13454 0.0
H698 H 0.72176 0.14877 0.06219 0.0
H699 H 0.70485 0.15618 0.1131 0.0
H700 H 0.5951 0.95335 0.85966 0.0
H701 H 0.6026 0.96987 0.8068 0.0
H702 H 0.57212 0.99128 0.85034 0.0
H703 H 0.56477 0.97505 0.90355 0.0
H704 H 0.59121 0.97814 0.72486 0.0
H705 H 0.59786 0.01612 0.8554 0.0
H706 H 0.59663 0.00091 0.87825 0.0
H707 H 0.58338 0.00974 0.86648 0.0
C708 C 0.59023 0.96174 0.85929 0.0
C709 C 0.57933 0.96288 0.88572 0.0
C710 C 0.5945 0.97115 0.82887 0.0
C711 C 0.58801 0.9819 0.82492 0.0
C712 C 0.57747 0.98324 0.85361 0.0
H713 H 0.56443 0.02466 0.5914 0.0
H714 H 0.57184 0.00836 0.64404 0.0
C715 C 0.57322 0.97387 0.88383 0.0
C716 C 0.59111 0.99108 0.78599 0.0
H717 H 0.59146 0.02135 0.76845 0.0
C718 C 0.59161 0.98758 0.73451 0.0
C719 C 0.59193 0.0034 0.79824 0.0
C720 C 0.59256 0.00773 0.85271 0.0
C721 C 0.59172 0.99609 0.69503 0.0
C722 C 0.59104 0.00841 0.70732 0.0
C723 C 0.59175 0.01191 0.75877 0.0
C724 C 0.58787 0.01762 0.6686 0.0
C725 C 0.59212 0.99175 0.64053 0.0
C726 C 0.59442 0.02833 0.66436 0.0
C727 C 0.59012 0.03779 0.6343 0.0
C728 C 0.57912 0.03673 0.6085 0.0
C729 C 0.57295 0.02578 0.61063 0.0
C730 C 0.57724 0.01637 0.64052 0.0
H731 H 0.59735 0.98332 0.63749 0.0
H732 H 0.58287 0.9898 0.62737 0.0
H733 H 0.59614 0.99854 0.61471 0.0
H734 H 0.6026 0.02954 0.68596 0.0
H735 H 0.59504 0.04614 0.63372 0.0
H736 H 0.70351 0.6569 0.88342 0.0
H737 H 0.71989 0.64981 0.93813 0.0
H738 H 0.74009 0.68168 0.90292 0.0
H739 H 0.72403 0.68861 0.8476 0.0
H740 H 0.75449 0.66205 0.91111 0.0
H741 H 0.72367 0.66523 0.07782 0.0
H742 H 0.71953 0.65498 0.02795 0.0
H743 H 0.71959 0.67081 0.01563 0.0
C744 C 0.71159 0.66222 0.88628 0.0
C745 C 0.7124 0.6734 0.86168 0.0
C746 C 0.72089 0.65822 0.91799 0.0
C747 C 0.73109 0.66537 0.9257 0.0
C748 C 0.73228 0.67604 0.8979 0.0
H749 H 0.77509 0.68931 0.15457 0.0
H750 H 0.75879 0.6822 0.101 0.0
C751 C 0.72306 0.68001 0.86625 0.0
C752 C 0.74012 0.66255 0.96566 0.0
H753 H 0.74403 0.66285 0.09506 0.0
C754 C 0.75222 0.66195 0.95137 0.0
C755 C 0.7371 0.66249 0.0182 0.0
C756 C 0.7243 0.66349 0.03614 0.0
C757 C 0.76141 0.66215 0.98797 0.0
C758 C 0.75841 0.66266 0.04049 0.0
C759 C 0.7463 0.6624 0.05484 0.0
C760 C 0.7675 0.6656 0.08003 0.0
C761 C 0.77423 0.66279 0.96986 0.0
C762 C 0.77761 0.65836 0.08834 0.0
C763 C 0.78706 0.66247 0.11899 0.0
C764 C 0.78647 0.67385 0.14197 0.0
C765 C 0.77589 0.68056 0.13712 0.0
C766 C 0.76652 0.67648 0.10647 0.0
H767 H 0.77488 0.66425 0.92799 0.0
H768 H 0.77908 0.67015 0.98946 0.0
H769 H 0.77884 0.65426 0.979 0.0
H770 H 0.77844 0.64979 0.06932 0.0
H771 H 0.79508 0.65706 0.12214 0.0
H772 H 0.57183 0.52555 0.44386 0.0
H773 H 0.57726 0.50846 0.39049 0.0
H774 H 0.59546 0.53219 0.28613 0.0
H775 H 0.59058 0.5492 0.34101 0.0
H776 H 0.56795 0.50666 0.30134 0.0
H777 H 0.61697 0.50383 0.27519 0.0
H778 H 0.61024 0.51262 0.32546 0.0
H779 H 0.61148 0.51858 0.26178 0.0
C780 C 0.57744 0.52703 0.4107 0.0
C781 C 0.58078 0.53868 0.39653 0.0
C782 C 0.5805 0.51727 0.38004 0.0
C783 C 0.58676 0.51898 0.33402 0.0
C784 C 0.59086 0.53053 0.32183 0.0
H785 H 0.56824 0.47703 0.07056 0.0
H786 H 0.57365 0.49348 0.12765 0.0
C787 C 0.58803 0.54029 0.35323 0.0
C788 C 0.58703 0.50921 0.29531 0.0
H789 H 0.60488 0.49404 0.21099 0.0
C790 C 0.57609 0.50383 0.28222 0.0
C791 C 0.59761 0.50544 0.2701 0.0
C792 C 0.60975 0.51034 0.28424 0.0
C793 C 0.57536 0.495 0.24445 0.0
C794 C 0.58581 0.49168 0.21735 0.0
C795 C 0.59684 0.49678 0.23107 0.0
C796 C 0.58522 0.48273 0.1755 0.0
C797 C 0.56336 0.48921 0.23437 0.0
C798 C 0.59072 0.47149 0.18098 0.0
C799 C 0.58782 0.46212 0.1476 0.0
C800 C 0.57931 0.46386 0.10875 0.0
C801 C 0.57475 0.47542 0.10043 0.0
C802 C 0.57779 0.4848 0.13319 0.0
H803 H 0.55714 0.49035 0.26711 0.0
H804 H 0.55918 0.49345 0.20046 0.0
H805 H 0.56436 0.47948 0.22663 0.0
H806 H 0.59653 0.46973 0.21323 0.0
H807 H 0.59144 0.45329 0.15505 0.0
H808 H 0.77466 0.3137 0.34169 0.0
H809 H 0.75831 0.3209 0.3947 0.0
H810 H 0.77949 0.35147 0.43917 0.0
H811 H 0.79611 0.34412 0.38655 0.0
H812 H 0.77136 0.33981 0.52074 0.0
H813 H 0.73328 0.3465 0.3906 0.0
H814 H 0.73976 0.33208 0.37926 0.0
H815 H 0.74849 0.34539 0.36765 0.0
C816 C 0.77575 0.32214 0.36151 0.0
C817 C 0.78672 0.32831 0.36002 0.0
C818 C 0.76633 0.32631 0.39164 0.0
C819 C 0.76758 0.33681 0.42062 0.0
C820 C 0.77828 0.34339 0.4169 0.0
H821 H 0.70351 0.3442 0.61292 0.0
H822 H 0.72016 0.35156 0.56046 0.0
C823 C 0.78775 0.33921 0.38659 0.0
C824 C 0.75839 0.33979 0.45972 0.0
H825 H 0.72813 0.34017 0.47758 0.0
C826 C 0.76192 0.34022 0.51119 0.0
C827 C 0.74607 0.34061 0.4476 0.0
C828 C 0.74171 0.34126 0.39317 0.0
C829 C 0.75343 0.34032 0.55075 0.0
C830 C 0.7411 0.33971 0.53857 0.0
C831 C 0.73758 0.34043 0.48715 0.0
C832 C 0.73188 0.33665 0.57742 0.0
C833 C 0.75779 0.34066 0.60523 0.0
C834 C 0.73302 0.32599 0.60539 0.0
C835 C 0.72358 0.32181 0.63539 0.0
C836 C 0.71272 0.32813 0.63778 0.0
C837 C 0.71179 0.33917 0.61217 0.0
C838 C 0.72128 0.34335 0.58196 0.0
H839 H 0.76629 0.34577 0.60825 0.0
H840 H 0.75106 0.34476 0.6311 0.0
H841 H 0.75962 0.33139 0.61834 0.0
H842 H 0.74095 0.32048 0.60167 0.0
H843 H 0.72459 0.31326 0.65447 0.0
H844 H 0.90801 0.45581 0.84793 0.0
H845 H 0.90031 0.47304 0.79942 0.0
H846 H 0.9348 0.49019 0.81117 0.0
H847 H 0.94243 0.47327 0.85974 0.0
H848 H 0.91552 0.50595 0.82431 0.0
H849 H 0.91059 0.4779 0.6495 0.0
H850 H 0.90261 0.47341 0.70599 0.0
H851 H 0.91865 0.47267 0.70485 0.0
C852 C 0.91385 0.46338 0.84098 0.0
C853 C 0.92586 0.46314 0.85722 0.0
C854 C 0.90947 0.47316 0.81295 0.0
C855 C 0.91705 0.4828 0.80097 0.0
C856 C 0.92881 0.48284 0.81981 0.0
H857 H 0.93713 0.52948 0.57851 0.0
H858 H 0.93024 0.51253 0.6289 0.0
C859 C 0.93317 0.47312 0.84751 0.0
C860 C 0.91333 0.49258 0.76605 0.0
H861 H 0.90977 0.49868 0.63916 0.0
C862 C 0.91394 0.5044 0.78399 0.0
C863 C 0.91132 0.49048 0.71345 0.0
C864 C 0.9108 0.47796 0.69191 0.0
C865 C 0.91353 0.51418 0.75031 0.0
C866 C 0.91223 0.51205 0.69727 0.0
C867 C 0.91071 0.50026 0.67981 0.0
C868 C 0.91467 0.52161 0.65925 0.0
C869 C 0.91552 0.5266 0.77139 0.0
C870 C 0.90786 0.53218 0.65733 0.0
C871 C 0.91184 0.54198 0.62847 0.0
C872 C 0.92266 0.5413 0.60109 0.0
C873 C 0.92882 0.53034 0.59952 0.0
C874 C 0.92487 0.52061 0.62829 0.0
H875 H 0.91805 0.52648 0.81241 0.0
H876 H 0.92268 0.53127 0.74973 0.0
H877 H 0.90716 0.53189 0.76749 0.0
H878 H 0.89982 0.53306 0.68014 0.0
H879 H 0.90686 0.5503 0.63031 0.0
H880 H 0.22667 0.3207 0.81355 0.0
H881 H 0.24314 0.32582 0.87105 0.0
H882 H 0.2192 0.34753 0.9611 0.0
H883 H 0.20276 0.34278 0.90254 0.0
H884 H 0.2433 0.35616 0.96087 0.0
H885 H 0.24034 0.30776 0.00676 0.0
H886 H 0.24347 0.31063 0.9407 0.0
H887 H 0.22939 0.31527 0.96767 0.0
C888 C 0.22502 0.32692 0.8445 0.0
C889 C 0.21341 0.33122 0.85394 0.0
C890 C 0.23442 0.32979 0.8775 0.0
C891 C 0.2323 0.33676 0.92118 0.0
C892 C 0.22101 0.34207 0.92782 0.0
H893 H 0.27447 0.32109 0.1889 0.0
H894 H 0.25755 0.32682 0.1351 0.0
C895 C 0.21163 0.33937 0.8942 0.0
C896 C 0.24125 0.337 0.96311 0.0
H897 H 0.25635 0.31844 0.04393 0.0
C898 C 0.24614 0.34794 0.97932 0.0
C899 C 0.2447 0.3263 0.98809 0.0
C900 C 0.23912 0.31434 0.97537 0.0
C901 C 0.2547 0.34841 0.01887 0.0
C902 C 0.25857 0.33761 0.04205 0.0
C903 C 0.25343 0.32674 0.02636 0.0
C904 C 0.26818 0.33706 0.08146 0.0
C905 C 0.25935 0.36044 0.03579 0.0
C906 C 0.27971 0.34148 0.07108 0.0
C907 C 0.28936 0.33847 0.10278 0.0
C908 C 0.28767 0.33074 0.14452 0.0
C909 C 0.27602 0.32707 0.15698 0.0
C910 C 0.26635 0.3303 0.12607 0.0
H911 H 0.25277 0.36766 0.02765 0.0
H912 H 0.26143 0.3605 0.07724 0.0
H913 H 0.26767 0.36253 0.0144 0.0
H914 H 0.28146 0.34647 0.03647 0.0
H915 H 0.29829 0.34128 0.09187 0.0
H916 H 0.40624 0.45389 0.63478 0.0
H917 H 0.39873 0.47048 0.68728 0.0
H918 H 0.42939 0.49172 0.64448 0.0
H919 H 0.43674 0.47543 0.59163 0.0
H920 H 0.4101 0.47866 0.76948 0.0
H921 H 0.40378 0.51671 0.639 0.0
H922 H 0.40495 0.50149 0.61611 0.0
H923 H 0.41823 0.51024 0.62818 0.0
C924 C 0.41114 0.46226 0.6352 0.0
C925 C 0.4221 0.46334 0.60913 0.0
C926 C 0.40687 0.47171 0.66542 0.0
C927 C 0.41342 0.48242 0.66951 0.0
C928 C 0.424 0.4837 0.64109 0.0
H929 H 0.43694 0.52503 0.90374 0.0
H930 H 0.42955 0.50879 0.85067 0.0
C931 C 0.42826 0.4743 0.61108 0.0
C932 C 0.41032 0.49161 0.70842 0.0
H933 H 0.4101 0.52187 0.72613 0.0
C934 C 0.40976 0.4881 0.75987 0.0
C935 C 0.40957 0.50393 0.69622 0.0
C936 C 0.40903 0.50828 0.64176 0.0
C937 C 0.40965 0.4966 0.7994 0.0
C938 C 0.4104 0.50892 0.78718 0.0
C939 C 0.40976 0.51243 0.73574 0.0
C940 C 0.41356 0.51811 0.82602 0.0
C941 C 0.40919 0.49225 0.85387 0.0
C942 C 0.40702 0.52882 0.83032 0.0
C943 C 0.41131 0.53824 0.86064 0.0
C944 C 0.42228 0.53714 0.88662 0.0
C945 C 0.42844 0.52618 0.88437 0.0
C946 C 0.42416 0.51681 0.85424 0.0
H947 H 0.40393 0.48383 0.85678 0.0
H948 H 0.41841 0.49027 0.86719 0.0
H949 H 0.40516 0.49904 0.87965 0.0
H950 H 0.39886 0.53007 0.80861 0.0
H951 H 0.4064 0.5466 0.86131 0.0
H952 H 0.27661 0.6903 0.34795 0.0
H953 H 0.25996 0.68347 0.4003 0.0
H954 H 0.27864 0.65047 0.43133 0.0
H955 H 0.29561 0.65741 0.37953 0.0
H956 H 0.24477 0.66415 0.40269 0.0
H957 H 0.27451 0.66477 0.57348 0.0
H958 H 0.27914 0.67088 0.51291 0.0
H959 H 0.27871 0.65495 0.52219 0.0
C960 C 0.27712 0.68148 0.36504 0.0
C961 C 0.28751 0.67447 0.36014 0.0
C962 C 0.26756 0.67758 0.39498 0.0
C963 C 0.26816 0.66658 0.42072 0.0
C964 C 0.27811 0.65911 0.41271 0.0
H965 H 0.20288 0.65735 0.6088 0.0
H966 H 0.21972 0.65052 0.556 0.0
C967 C 0.28774 0.66304 0.38268 0.0
C968 C 0.25877 0.66369 0.45902 0.0
H969 H 0.25397 0.66279 0.58783 0.0
C970 C 0.24676 0.66357 0.44315 0.0
C971 C 0.26141 0.66303 0.51184 0.0
C972 C 0.27412 0.66348 0.53145 0.0
C973 C 0.23733 0.66361 0.47863 0.0
C974 C 0.23998 0.6635 0.53152 0.0
C975 C 0.25197 0.66281 0.5473 0.0
C976 C 0.23067 0.66616 0.57045 0.0
C977 C 0.22465 0.66472 0.45919 0.0
C978 C 0.23155 0.67679 0.59868 0.0
C979 C 0.22206 0.68062 0.62919 0.0
C980 C 0.21145 0.67389 0.63217 0.0
C981 C 0.21092 0.66275 0.60717 0.0
C982 C 0.22049 0.6589 0.57657 0.0
H983 H 0.22431 0.66658 0.41754 0.0
H984 H 0.21979 0.65623 0.46638 0.0
H985 H 0.21985 0.67201 0.4795 0.0
H986 H 0.23934 0.68251 0.59486 0.0
H987 H 0.2228 0.6892 0.6482 0.0
H988 H 0.06179 0.47397 0.42994 0.0
H989 H 0.06797 0.49009 0.37322 0.0
H990 H 0.09864 0.46941 0.326 0.0
H991 H 0.09228 0.45297 0.38179 0.0
H992 H 0.08733 0.50425 0.35769 0.0
H993 H 0.08088 0.47353 0.19253 0.0
H994 H 0.07651 0.46949 0.25647 0.0
H995 H 0.09202 0.46911 0.23821 0.0
C996 C 0.07 0.4729 0.40837 0.0
C997 C 0.07643 0.46209 0.40981 0.0
C998 C 0.07353 0.48216 0.37586 0.0
C999 C 0.08359 0.48084 0.34424 0.0
C1000 C 0.09066 0.4705 0.349 0.0
H1001 H 0.09286 0.54403 0.1429 0.0
H1002 H 0.09928 0.52741 0.19786 0.0
C1003 C 0.08708 0.46116 0.38134 0.0
C1004 C 0.08582 0.48986 0.30353 0.0
H1005 H 0.0843 0.49371 0.17422 0.0
C1006 C 0.08689 0.50195 0.3175 0.0
C1007 C 0.08514 0.48683 0.25105 0.0
C1008 C 0.08349 0.47406 0.23341 0.0
C1009 C 0.08663 0.51113 0.28079 0.0
C1010 C 0.08556 0.50811 0.22844 0.0
C1011 C 0.0852 0.49599 0.2143 0.0
C1012 C 0.08288 0.51729 0.18893 0.0
C1013 C 0.08664 0.52398 0.29871 0.0
C1014 C 0.07189 0.51676 0.16309 0.0
C1015 C 0.06829 0.52611 0.13124 0.0
C1016 C 0.07561 0.53623 0.12452 0.0
C1017 C 0.087 0.53638 0.14744 0.0
C1018 C 0.09063 0.52695 0.1793 0.0
H1019 H 0.0854 0.52471 0.34069 0.0
H1020 H 0.09532 0.52819 0.28879 0.0
H1021 H 0.07941 0.52913 0.27963 0.0
H1022 H 0.06578 0.50938 0.16958 0.0
H1023 H 0.05949 0.52565 0.11397 0.0
H1024 H 0.10194 0.08698 0.01004 0.0
H1025 H 0.11739 0.09595 0.06461 0.0
H1026 H 0.10345 0.1311 0.03146 0.0
H1027 H 0.0881 0.12227 0.97688 0.0
H1028 H 0.12906 0.12957 0.03241 0.0
H1029 H 0.10792 0.11002 0.20608 0.0
H1030 H 0.11199 0.09982 0.15584 0.0
H1031 H 0.1003 0.11056 0.14534 0.0
C1032 C 0.10231 0.09663 0.01363 0.0
C1033 C 0.09373 0.10391 0.98944 0.0
C1034 C 0.11109 0.10173 0.04509 0.0
C1035 C 0.11143 0.11417 0.0527 0.0
C1036 C 0.10331 0.12147 0.02628 0.0
H1037 H 0.13103 0.16422 0.27682 0.0
H1038 H 0.12207 0.14892 0.22235 0.0
C1039 C 0.09453 0.1164 0.9951 0.0
C1040 C 0.11967 0.11968 0.09038 0.0
H1041 H 0.12393 0.1233 0.21866 0.0
C1042 C 0.12812 0.12806 0.07312 0.0
C1043 C 0.11829 0.11776 0.14347 0.0
C1044 C 0.1091 0.10912 0.16413 0.0
C1045 C 0.13494 0.13486 0.10757 0.0
C1046 C 0.13334 0.13316 0.16069 0.0
C1047 C 0.12519 0.1245 0.17792 0.0
C1048 C 0.13897 0.14127 0.19858 0.0
C1049 C 0.14333 0.1443 0.08696 0.0
C1050 C 0.15144 0.14176 0.20478 0.0
C1051 C 0.15662 0.15051 0.23616 0.0
C1052 C 0.14938 0.15891 0.26167 0.0
C1053 C 0.13686 0.15793 0.25754 0.0
C1054 C 0.13172 0.14918 0.22644 0.0
H1055 H 0.14216 0.14571 0.04527 0.0
H1056 H 0.14187 0.15296 0.10683 0.0
H1057 H 0.15272 0.1415 0.09392 0.0
H1058 H 0.15718 0.13563 0.18413 0.0
H1059 H 0.16629 0.15103 0.23855 0.0
H1060 H 0.13215 0.8453 0.18608 0.0
H1061 H 0.12251 0.86028 0.24032 0.0
H1062 H 0.15358 0.86068 0.33838 0.0
H1063 H 0.16351 0.84631 0.28218 0.0
H1064 H 0.11573 0.8564 0.33041 0.0
H1065 H 0.14627 0.89518 0.3421 0.0
H1066 H 0.14819 0.88351 0.29521 0.0
H1067 H 0.15388 0.88164 0.35916 0.0
C1068 C 0.13706 0.84892 0.21825 0.0
C1069 C 0.14858 0.8447 0.22984 0.0
C1070 C 0.13153 0.85743 0.24943 0.0
C1071 C 0.13729 0.86171 0.29359 0.0
C1072 C 0.14903 0.85784 0.30397 0.0
H1073 H 0.09348 0.88179 0.55372 0.0
H1074 H 0.10804 0.87219 0.49719 0.0
C1075 C 0.15469 0.84956 0.2719 0.0
C1076 C 0.13044 0.8689 0.33165 0.0
H1077 H 0.13154 0.89356 0.40899 0.0
C1078 C 0.11918 0.86461 0.34701 0.0
C1079 C 0.13482 0.87967 0.35339 0.0
C1080 C 0.14639 0.88533 0.33617 0.0
C1081 C 0.11224 0.87065 0.38337 0.0
C1082 C 0.1169 0.88102 0.40732 0.0
C1083 C 0.12807 0.88547 0.39153 0.0
C1084 C 0.11003 0.88753 0.44733 0.0
C1085 C 0.09981 0.86597 0.3945 0.0
C1086 C 0.10712 0.89968 0.44085 0.0
C1087 C 0.09911 0.90531 0.47426 0.0
C1088 C 0.09377 0.89882 0.51422 0.0
C1089 C 0.09737 0.88695 0.52287 0.0
C1090 C 0.10559 0.88143 0.49026 0.0
H1091 H 0.09631 0.86048 0.36239 0.0
H1092 H 0.10012 0.86015 0.42882 0.0
H1093 H 0.09342 0.87339 0.40169 0.0
H1094 H 0.11051 0.90462 0.40836 0.0
H1095 H 0.09646 0.91447 0.46661 0.0
H1096 H 0.39858 0.916 0.50549 0.0
H1097 H 0.38338 0.90672 0.56027 0.0
H1098 H 0.39669 0.87174 0.51992 0.0
H1099 H 0.41176 0.88087 0.46487 0.0
H1100 H 0.3714 0.873 0.52688 0.0
H1101 H 0.39411 0.8921 0.69776 0.0
H1102 H 0.38929 0.90257 0.64987 0.0
H1103 H 0.40099 0.89208 0.63542 0.0
C1104 C 0.39809 0.90632 0.5074 0.0
C1105 C 0.40646 0.89918 0.4812 0.0
C1106 C 0.38946 0.90104 0.53904 0.0
C1107 C 0.38907 0.88855 0.54494 0.0
C1108 C 0.39688 0.8814 0.51614 0.0
H1109 H 0.3721 0.83841 0.77312 0.0
H1110 H 0.38033 0.85365 0.71635 0.0
C1111 C 0.4055 0.88665 0.48467 0.0
C1112 C 0.38123 0.88284 0.58368 0.0
H1113 H 0.37815 0.8789 0.71241 0.0
C1114 C 0.37271 0.87442 0.56747 0.0
C1115 C 0.38308 0.88463 0.63661 0.0
C1116 C 0.39241 0.89326 0.65626 0.0
C1117 C 0.36627 0.86745 0.60273 0.0
C1118 C 0.36832 0.86907 0.65563 0.0
C1119 C 0.37654 0.87777 0.67185 0.0
C1120 C 0.36311 0.86085 0.69422 0.0
C1121 C 0.35781 0.85798 0.58308 0.0
C1122 C 0.35069 0.86011 0.70203 0.0
C1123 C 0.34593 0.85138 0.73471 0.0
C1124 C 0.35353 0.84327 0.76002 0.0
C1125 C 0.36598 0.84448 0.75408 0.0
C1126 C 0.37072 0.85319 0.72163 0.0
H1127 H 0.35872 0.85658 0.54125 0.0
H1128 H 0.35943 0.84932 0.60272 0.0
H1129 H 0.34845 0.86073 0.5911 0.0
H1130 H 0.34468 0.86606 0.68185 0.0
H1131 H 0.3363 0.85069 0.7385 0.0
H1132 H 0.37078 0.16273 0.72093 0.0
H1133 H 0.37955 0.14739 0.77573 0.0
H1134 H 0.34425 0.13566 0.81973 0.0
H1135 H 0.33535 0.15106 0.76478 0.0
H1136 H 0.35949 0.14102 0.90258 0.0
H1137 H 0.38191 0.11075 0.76515 0.0
H1138 H 0.38528 0.12626 0.75415 0.0
H1139 H 0.37017 0.12098 0.7465 0.0
C1140 C 0.36486 0.15673 0.74135 0.0
C1141 C 0.35236 0.15812 0.73847 0.0
C1142 C 0.36989 0.14792 0.77253 0.0
C1143 C 0.36256 0.14031 0.8015 0.0
C1144 C 0.35007 0.14139 0.79744 0.0
H1145 H 0.39932 0.08623 0.98851 0.0
H1146 H 0.38384 0.09542 0.93494 0.0
C1147 C 0.345 0.15016 0.76585 0.0
C1148 C 0.36803 0.13209 0.83941 0.0
H1149 H 0.38911 0.11014 0.85169 0.0
C1150 C 0.3658 0.13411 0.89147 0.0
C1151 C 0.37616 0.123 0.82492 0.0
C1152 C 0.37845 0.12002 0.76961 0.0
C1153 C 0.37202 0.12776 0.92943 0.0
C1154 C 0.38076 0.11925 0.91489 0.0
C1155 C 0.38247 0.11673 0.86285 0.0
C1156 C 0.38897 0.11364 0.95253 0.0
C1157 C 0.36935 0.13038 0.98475 0.0
C1158 C 0.39686 0.12083 0.98081 0.0
C1159 C 0.40571 0.11562 0.0113 0.0
C1160 C 0.40687 0.1031 0.01405 0.0
C1161 C 0.39862 0.0959 0.9875 0.0
C1162 C 0.3898 0.10113 0.95669 0.0
H1163 H 0.36018 0.13407 0.98962 0.0
H1164 H 0.37024 0.1222 0.00855 0.0
H1165 H 0.3758 0.13715 0.99904 0.0
H1166 H 0.39654 0.13049 0.97749 0.0
H1167 H 0.41194 0.12143 0.03107 0.0
H1168 H 0.89881 0.91593 0.99005 0.0
H1169 H 0.88334 0.907 0.93564 0.0
H1170 H 0.89516 0.87173 0.9797 0.0
H1171 H 0.91053 0.88053 0.03412 0.0
H1172 H 0.88861 0.8923 0.85319 0.0
H1173 H 0.85879 0.86863 0.98813 0.0
H1174 H 0.86895 0.88031 0.0082 0.0
H1175 H 0.87429 0.86525 0.99917 0.0
C1176 C 0.8979 0.90628 0.9892 0.0
C1177 C 0.90592 0.89894 0.01638 0.0
C1178 C 0.88908 0.90119 0.95793 0.0
C1179 C 0.88802 0.8887 0.95393 0.0
C1180 C 0.89565 0.88139 0.9829 0.0
H1181 H 0.87186 0.83964 0.72122 0.0
H1182 H 0.87993 0.8552 0.77677 0.0
C1183 C 0.90449 0.88644 0.01384 0.0
C1184 C 0.87992 0.88321 0.91556 0.0
H1185 H 0.85877 0.8614 0.90119 0.0
C1186 C 0.88191 0.88572 0.86371 0.0
C1187 C 0.87108 0.87473 0.92923 0.0
C1188 C 0.86805 0.87215 0.98426 0.0
C1189 C 0.87585 0.87942 0.82517 0.0
C1190 C 0.86769 0.87028 0.83887 0.0
C1191 C 0.86512 0.86832 0.89068 0.0
C1192 C 0.86262 0.86191 0.80054 0.0
C1193 C 0.87845 0.88239 0.77011 0.0
C1194 C 0.85019 0.86052 0.79519 0.0
C1195 C 0.84552 0.85161 0.76322 0.0
C1196 C 0.85323 0.84381 0.73672 0.0
C1197 C 0.86567 0.84551 0.74093 0.0
C1198 C 0.87031 0.85445 0.77253 0.0
H1199 H 0.88172 0.89173 0.76595 0.0
H1200 H 0.88556 0.87632 0.75572 0.0
H1201 H 0.87037 0.8812 0.74593 0.0
H1202 H 0.84411 0.86614 0.81675 0.0
H1203 H 0.83591 0.85048 0.76109 0.0
H1204 H 0.83625 0.14917 0.74349 0.0
H1205 H 0.84475 0.13353 0.68862 0.0
H1206 H 0.88034 0.14564 0.72604 0.0
H1207 H 0.87198 0.16118 0.7809 0.0
H1208 H 0.85883 0.13833 0.60327 0.0
H1209 H 0.88346 0.10931 0.73834 0.0
H1210 H 0.87193 0.1196 0.75879 0.0
H1211 H 0.88691 0.12487 0.74707 0.0
C1212 C 0.84589 0.1483 0.74104 0.0
C1213 C 0.85344 0.15642 0.76658 0.0
C1214 C 0.85073 0.13939 0.7095 0.0
C1215 C 0.86318 0.13835 0.70357 0.0
C1216 C 0.87072 0.14612 0.73074 0.0
H1217 H 0.9103 0.12005 0.46573 0.0
H1218 H 0.89507 0.12871 0.52128 0.0
C1219 C 0.86591 0.15505 0.76196 0.0
C1220 C 0.86837 0.13001 0.66535 0.0
H1221 H 0.88993 0.10862 0.65051 0.0
C1222 C 0.86546 0.13167 0.61366 0.0
C1223 C 0.87691 0.12121 0.67887 0.0
C1224 C 0.8799 0.11854 0.73385 0.0
C1225 C 0.87141 0.1253 0.57499 0.0
C1226 C 0.88059 0.11716 0.58837 0.0
C1227 C 0.88296 0.11495 0.64018 0.0
C1228 C 0.8886 0.11169 0.54955 0.0
C1229 C 0.86799 0.12752 0.5201 0.0
C1230 C 0.88999 0.09922 0.54657 0.0
C1231 C 0.89872 0.09421 0.51465 0.0
C1232 C 0.90633 0.10162 0.48576 0.0
C1233 C 0.90457 0.11408 0.4873 0.0
C1234 C 0.89581 0.11906 0.51892 0.0
H1235 H 0.85861 0.13076 0.51695 0.0
H1236 H 0.87392 0.13453 0.50395 0.0
H1237 H 0.86898 0.11928 0.49675 0.0
H1238 H 0.88456 0.09338 0.57011 0.0
H1239 H 0.8999 0.08459 0.51461 0.0
H1240 H 0.6019 0.08468 0.48718 0.0
H1241 H 0.61741 0.09363 0.43299 0.0
H1242 H 0.60524 0.12889 0.47548 0.0
H1243 H 0.58981 0.12007 0.52959 0.0
H1244 H 0.61213 0.10841 0.34969 0.0
H1245 H 0.6417 0.13197 0.48622 0.0
H1246 H 0.63157 0.1202 0.50559 0.0
H1247 H 0.62615 0.13522 0.49654 0.0
C1248 C 0.60273 0.09434 0.48601 0.0
C1249 C 0.59462 0.10166 0.51268 0.0
C1250 C 0.61157 0.09943 0.45486 0.0
C1251 C 0.61255 0.11193 0.45051 0.0
C1252 C 0.6048 0.11924 0.47893 0.0
H1253 H 0.63016 0.16094 0.2186 0.0
H1254 H 0.6216 0.14552 0.27354 0.0
C1255 C 0.59594 0.11417 0.50971 0.0
C1256 C 0.62074 0.11742 0.4125 0.0
H1257 H 0.64215 0.13901 0.39924 0.0
C1258 C 0.61886 0.11493 0.36055 0.0
C1259 C 0.62961 0.12582 0.42663 0.0
C1260 C 0.63248 0.12838 0.48183 0.0
C1261 C 0.62509 0.12118 0.32232 0.0
C1262 C 0.63333 0.13021 0.33644 0.0
C1263 C 0.63576 0.13216 0.38839 0.0
C1264 C 0.63868 0.13847 0.29835 0.0
C1265 C 0.62261 0.11825 0.26712 0.0
C1266 C 0.65115 0.1396 0.29372 0.0
C1267 C 0.6561 0.14842 0.26207 0.0
C1268 C 0.64864 0.15638 0.23518 0.0
C1269 C 0.63616 0.15494 0.23861 0.0
C1270 C 0.63124 0.14608 0.26988 0.0
H1271 H 0.61916 0.10897 0.26276 0.0
H1272 H 0.61569 0.12447 0.25228 0.0
H1273 H 0.63079 0.11926 0.24344 0.0
H1274 H 0.65705 0.13386 0.31563 0.0
H1275 H 0.66575 0.14936 0.26057 0.0
H1276 H 0.60194 0.91532 0.00668 0.0
H1277 H 0.61761 0.9066 0.06073 0.0
H1278 H 0.60511 0.87117 0.02274 0.0
H1279 H 0.58954 0.87976 0.96873 0.0
H1280 H 0.61267 0.89242 0.14582 0.0
H1281 H 0.64144 0.86775 0.00987 0.0
H1282 H 0.63128 0.87943 0.98986 0.0
H1283 H 0.62584 0.86449 0.00109 0.0
C1284 C 0.60273 0.90567 0.0088 0.0
C1285 C 0.59448 0.89823 0.98342 0.0
C1286 C 0.61166 0.90071 0.03987 0.0
C1287 C 0.6126 0.88824 0.04543 0.0
C1288 C 0.60471 0.88081 0.01831 0.0
H1289 H 0.63029 0.8404 0.28088 0.0
H1290 H 0.62184 0.85575 0.22533 0.0
C1291 C 0.59576 0.88575 0.98759 0.0
C1292 C 0.62091 0.88292 0.08342 0.0
H1293 H 0.64209 0.86114 0.09754 0.0
C1294 C 0.61927 0.88575 0.13521 0.0
C1295 C 0.62962 0.87433 0.0696 0.0
C1296 C 0.63225 0.8714 0.01451 0.0
C1297 C 0.62558 0.87966 0.17366 0.0
C1298 C 0.63363 0.87043 0.15996 0.0
C1299 C 0.63583 0.86814 0.10808 0.0
C1300 C 0.63896 0.86228 0.19851 0.0
C1301 C 0.62336 0.88296 0.22868 0.0
C1302 C 0.65143 0.86088 0.20224 0.0
C1303 C 0.65631 0.85208 0.23421 0.0
C1304 C 0.64879 0.84443 0.26234 0.0
C1305 C 0.63634 0.84616 0.25988 0.0
C1306 C 0.63148 0.85499 0.22828 0.0
H1307 H 0.62013 0.89234 0.23224 0.0
H1308 H 0.61635 0.87699 0.24461 0.0
H1309 H 0.6316 0.88191 0.25196 0.0
H1310 H 0.65735 0.86636 0.17933 0.0
H1311 H 0.66594 0.85092 0.23497 0.0
H1312 H 0.59079 0.62042 0.46343 0.0
H1313 H 0.60625 0.62915 0.51762 0.0
H1314 H 0.61779 0.59384 0.56236 0.0
H1315 H 0.60222 0.58498 0.50826 0.0
H1316 H 0.61263 0.60852 0.64446 0.0
H1317 H 0.64259 0.63208 0.50976 0.0
H1318 H 0.62712 0.6356 0.49878 0.0
H1319 H 0.63234 0.6205 0.48954 0.0
C1320 C 0.5968 0.61448 0.48376 0.0
C1321 C 0.59525 0.602 0.48157 0.0
C1322 C 0.60569 0.6195 0.51459 0.0
C1323 C 0.61325 0.61215 0.54374 0.0
C1324 C 0.61209 0.59967 0.53995 0.0
H1325 H 0.66565 0.65007 0.73601 0.0
H1326 H 0.65732 0.63446 0.68055 0.0
C1327 C 0.60322 0.59462 0.50884 0.0
C1328 C 0.62136 0.61761 0.58217 0.0
H1329 H 0.64265 0.63928 0.59677 0.0
C1330 C 0.61936 0.61508 0.634 0.0
C1331 C 0.63026 0.62605 0.56859 0.0
C1332 C 0.6333 0.62863 0.51359 0.0
C1333 C 0.62547 0.62131 0.67261 0.0
C1334 C 0.63369 0.6304 0.65901 0.0
C1335 C 0.63626 0.63238 0.60721 0.0
C1336 C 0.63884 0.6387 0.69744 0.0
C1337 C 0.62287 0.61829 0.72763 0.0
C1338 C 0.63122 0.64615 0.72585 0.0
C1339 C 0.63593 0.65507 0.75737 0.0
C1340 C 0.64838 0.65675 0.76108 0.0
C1341 C 0.65602 0.64896 0.73428 0.0
C1342 C 0.65128 0.64006 0.7024 0.0
H1343 H 0.61959 0.60895 0.73165 0.0
H1344 H 0.63096 0.61944 0.75183 0.0
H1345 H 0.61578 0.62436 0.74212 0.0
H1346 H 0.62159 0.64543 0.72191 0.0
H1347 H 0.62979 0.66094 0.77733 0.0
H1348 H 0.60213 0.41613 0.98949 0.0
H1349 H 0.61723 0.40693 0.93388 0.0
H1350 H 0.60402 0.37189 0.97387 0.0
H1351 H 0.58905 0.38095 0.02968 0.0
H1352 H 0.62933 0.37329 0.96708 0.0
H1353 H 0.60653 0.39227 0.79616 0.0
H1354 H 0.61127 0.40276 0.84421 0.0
H1355 H 0.59964 0.39218 0.85846 0.0
C1356 C 0.60261 0.40646 0.98726 0.0
C1357 C 0.59432 0.39927 0.01367 0.0
C1358 C 0.61118 0.40123 0.95516 0.0
C1359 C 0.61158 0.38874 0.94902 0.0
C1360 C 0.60382 0.38155 0.97784 0.0
H1361 H 0.62919 0.33855 0.72147 0.0
H1362 H 0.62071 0.35382 0.77744 0.0
C1363 C 0.59526 0.38675 0.00975 0.0
C1364 C 0.61944 0.38307 0.91026 0.0
H1365 H 0.62258 0.37916 0.78153 0.0
C1366 C 0.62802 0.3747 0.92649 0.0
C1367 C 0.61759 0.38485 0.85733 0.0
C1368 C 0.60821 0.39343 0.83768 0.0
C1369 C 0.63452 0.36779 0.89125 0.0
C1370 C 0.63248 0.3694 0.83835 0.0
C1371 C 0.62419 0.37803 0.82209 0.0
C1372 C 0.63781 0.36125 0.79979 0.0
C1373 C 0.64304 0.35838 0.91095 0.0
C1374 C 0.65024 0.36064 0.79226 0.0
C1375 C 0.65515 0.35191 0.76004 0.0
C1376 C 0.64769 0.34364 0.73492 0.0
C1377 C 0.63521 0.34474 0.74038 0.0
C1378 C 0.63033 0.35347 0.77238 0.0
H1379 H 0.64211 0.35695 0.95274 0.0
H1380 H 0.64151 0.34971 0.8912 0.0
H1381 H 0.65238 0.36122 0.90311 0.0
H1382 H 0.65616 0.36669 0.81244 0.0
H1383 H 0.6648 0.35131 0.75662 0.0
H1384 H 0.83642 0.34618 0.21601 0.0
H1385 H 0.84705 0.36007 0.1596 0.0
H1386 H 0.87767 0.35904 0.25998 0.0
H1387 H 0.86736 0.34455 0.31453 0.0
H1388 H 0.85737 0.38115 0.15991 0.0
H1389 H 0.89256 0.34687 0.13273 0.0
H1390 H 0.87904 0.34385 0.16783 0.0
H1391 H 0.89144 0.35135 0.19821 0.0
C1392 C 0.84534 0.34911 0.2265 0.0
C1393 C 0.85115 0.34418 0.26919 0.0
C1394 C 0.85142 0.35703 0.19416 0.0
C1395 C 0.86333 0.36029 0.2045 0.0
C1396 C 0.86867 0.3563 0.25004 0.0
H1397 H 0.90509 0.4136 0.03751 0.0
H1398 H 0.89051 0.40383 0.09348 0.0
C1399 C 0.86273 0.34812 0.28153 0.0
C1400 C 0.87044 0.36704 0.16596 0.0
H1401 H 0.89656 0.36607 0.09856 0.0
C1402 C 0.86592 0.37783 0.14623 0.0
C1403 C 0.88144 0.36256 0.1469 0.0
C1404 C 0.88634 0.35046 0.16207 0.0
C1405 C 0.87217 0.38435 0.10871 0.0
C1406 C 0.88349 0.38019 0.09184 0.0
C1407 C 0.88793 0.36935 0.1114 0.0
C1408 C 0.89103 0.38676 0.05406 0.0
C1409 C 0.86638 0.39541 0.08673 0.0
C1410 C 0.8963 0.3805 0.01323 0.0
C1411 C 0.90495 0.38595 0.98254 0.0
C1412 C 0.90827 0.39789 0.99104 0.0
C1413 C 0.90251 0.40443 0.02968 0.0
C1414 C 0.89411 0.39885 0.06152 0.0
H1415 H 0.85647 0.39495 0.08961 0.0
H1416 H 0.86936 0.40336 0.10874 0.0
H1417 H 0.86884 0.39671 0.04604 0.0
H1418 H 0.89408 0.37119 0.00635 0.0
H1419 H 0.90929 0.38072 0.95301 0.0
H1420 H 0.83527 0.65484 0.28577 0.0
H1421 H 0.8453 0.64126 0.34549 0.0
H1422 H 0.87739 0.64285 0.25401 0.0
H1423 H 0.8676 0.65691 0.19584 0.0
H1424 H 0.85647 0.62009 0.34684 0.0
H1425 H 0.88945 0.65588 0.38651 0.0
H1426 H 0.87636 0.65839 0.34782 0.0
H1427 H 0.88954 0.65161 0.32058 0.0
C1428 C 0.84439 0.65209 0.27786 0.0
C1429 C 0.85073 0.65705 0.23661 0.0
C1430 C 0.85012 0.64435 0.31211 0.0
C1431 C 0.86223 0.64135 0.30521 0.0
C1432 C 0.86818 0.64538 0.26117 0.0
H1433 H 0.90479 0.58931 0.47093 0.0
H1434 H 0.88994 0.59884 0.41582 0.0
C1435 C 0.86255 0.65332 0.22766 0.0
C1436 C 0.86891 0.63483 0.34577 0.0
H1437 H 0.89384 0.6367 0.42052 0.0
C1438 C 0.86461 0.62374 0.36324 0.0
C1439 C 0.87933 0.63974 0.36836 0.0
C1440 C 0.88386 0.65211 0.35529 0.0
C1441 C 0.87065 0.61728 0.4016 0.0
C1442 C 0.88148 0.62188 0.42188 0.0
C1443 C 0.88559 0.63308 0.40501 0.0
C1444 C 0.88896 0.61527 0.45966 0.0
C1445 C 0.86519 0.60576 0.42054 0.0
C1446 C 0.89343 0.62124 0.50295 0.0
C1447 C 0.9022 0.61594 0.53355 0.0
C1448 C 0.90652 0.60444 0.52217 0.0
C1449 C 0.90149 0.59812 0.48104 0.0
C1450 C 0.89293 0.60355 0.4496 0.0
H1451 H 0.85531 0.60577 0.41562 0.0
H1452 H 0.86881 0.59818 0.39791 0.0
H1453 H 0.86726 0.60419 0.46145 0.0
H1454 H 0.89052 0.63026 0.51176 0.0
H1455 H 0.90593 0.62102 0.56501 0.0
H1456 H 0.39962 0.41606 0.48854 0.0
H1457 H 0.38391 0.40748 0.4343 0.0
H1458 H 0.3957 0.37194 0.47432 0.0
H1459 H 0.41133 0.38039 0.52849 0.0
H1460 H 0.3887 0.3929 0.34995 0.0
H1461 H 0.35926 0.36933 0.4869 0.0
H1462 H 0.36963 0.38089 0.50634 0.0
H1463 H 0.37479 0.36581 0.49617 0.0
C1464 C 0.39867 0.40642 0.48679 0.0
C1465 C 0.40673 0.3989 0.51283 0.0
C1466 C 0.38972 0.40153 0.45561 0.0
C1467 C 0.38856 0.38907 0.4506 0.0
C1468 C 0.39628 0.38157 0.47831 0.0
H1469 H 0.36975 0.34094 0.21728 0.0
H1470 H 0.37861 0.35629 0.27171 0.0
C1471 C 0.40525 0.38643 0.50912 0.0
C1472 C 0.38019 0.3838 0.41276 0.0
H1473 H 0.3585 0.3625 0.39964 0.0
C1474 C 0.38193 0.38642 0.36084 0.0
C1475 C 0.37126 0.37546 0.42697 0.0
C1476 C 0.36853 0.37279 0.48219 0.0
C1477 C 0.3755 0.38036 0.32265 0.0
C1478 C 0.36722 0.37138 0.33678 0.0
C1479 C 0.36493 0.36931 0.38877 0.0
C1480 C 0.36167 0.36326 0.29864 0.0
C1481 C 0.37783 0.38344 0.26749 0.0
C1482 C 0.34917 0.36211 0.29531 0.0
C1483 C 0.34405 0.35332 0.26402 0.0
C1484 C 0.35136 0.34541 0.23615 0.0
C1485 C 0.36385 0.34691 0.23809 0.0
C1486 C 0.36895 0.35573 0.26905 0.0
H1487 H 0.38126 0.39274 0.26346 0.0
H1488 H 0.38472 0.37728 0.252 0.0
H1489 H 0.36959 0.38249 0.24414 0.0
H1490 H 0.34339 0.36779 0.31808 0.0
H1491 H 0.3344 0.35235 0.26365 0.0
H1492 H 0.39923 0.58496 0.00759 0.0
H1493 H 0.38354 0.59383 0.06108 0.0
H1494 H 0.39618 0.62914 0.02209 0.0
H1495 H 0.41177 0.6204 0.96864 0.0
H1496 H 0.38847 0.60814 0.14573 0.0
H1497 H 0.35987 0.63269 0.00876 0.0
H1498 H 0.37 0.62094 0.9892 0.0
H1499 H 0.37549 0.63587 1e-05 0.0
C1500 C 0.39846 0.59462 0.00936 0.0
C1501 C 0.40676 0.60198 0.98388 0.0
C1502 C 0.38952 0.59967 0.04011 0.0
C1503 C 0.38861 0.61215 0.04523 0.0
C1504 C 0.39655 0.6195 0.01798 0.0
H1505 H 0.3711 0.66043 0.27928 0.0
H1506 H 0.37948 0.64501 0.22384 0.0
C1507 C 0.40552 0.61448 0.9876 0.0
C1508 C 0.38031 0.61757 0.08297 0.0
H1509 H 0.35923 0.63948 0.09622 0.0
C1510 C 0.3819 0.61482 0.13485 0.0
C1511 C 0.37164 0.62618 0.0688 0.0
C1512 C 0.36905 0.62901 0.0136 0.0
C1513 C 0.37562 0.62102 0.17306 0.0
C1514 C 0.36762 0.63027 0.159 0.0
C1515 C 0.36545 0.63247 0.10703 0.0
C1516 C 0.36233 0.63852 0.19727 0.0
C1517 C 0.3778 0.6178 0.2282 0.0
C1518 C 0.34987 0.63997 0.20103 0.0
C1519 C 0.34502 0.6488 0.23295 0.0
C1520 C 0.35258 0.65644 0.26097 0.0
C1521 C 0.36503 0.65467 0.25837 0.0
C1522 C 0.36984 0.64581 0.22683 0.0
H1523 H 0.38098 0.60842 0.23208 0.0
H1524 H 0.38483 0.62377 0.24398 0.0
H1525 H 0.36955 0.61894 0.25139 0.0
H1526 H 0.34391 0.63448 0.17827 0.0
H1527 H 0.3354 0.64999 0.23382 0.0
H1528 H 0.13044 0.65658 0.69175 0.0
H1529 H 0.12123 0.64197 0.74914 0.0
H1530 H 0.15381 0.64042 0.83737 0.0
H1531 H 0.16328 0.65453 0.77824 0.0
H1532 H 0.14324 0.61914 0.83777 0.0
H1533 H 0.10939 0.65366 0.88372 0.0
H1534 H 0.10907 0.64975 0.81742 0.0
H1535 H 0.12219 0.65678 0.84408 0.0
C1536 C 0.13572 0.6529 0.72268 0.0
C1537 C 0.14753 0.65677 0.73087 0.0
C1538 C 0.13042 0.64464 0.75578 0.0
C1539 C 0.13667 0.64043 0.79875 0.0
C1540 C 0.14876 0.64363 0.80485 0.0
H1541 H 0.09494 0.61774 0.06052 0.0
H1542 H 0.10972 0.62764 0.00616 0.0
C1543 C 0.15417 0.65167 0.77094 0.0
C1544 C 0.13036 0.63349 0.8391 0.0
H1545 H 0.10573 0.63418 0.91606 0.0
C1546 C 0.13507 0.62244 0.85518 0.0
C1547 C 0.11989 0.63794 0.863 0.0
C1548 C 0.11492 0.65024 0.8516 0.0
C1549 C 0.12944 0.61562 0.89351 0.0
C1550 C 0.11857 0.61977 0.91515 0.0
C1551 C 0.11401 0.63091 0.89953 0.0
C1552 C 0.11154 0.6128 0.95338 0.0
C1553 C 0.13538 0.60421 0.91103 0.0
C1554 C 0.10797 0.60095 0.94336 0.0
C1555 C 0.09982 0.59514 0.97554 0.0
C1556 C 0.09479 0.60121 0.01732 0.0
C1557 C 0.0987 0.61286 0.02857 0.0
C1558 C 0.1071 0.61853 0.99732 0.0
H1559 H 0.14523 0.60457 0.90514 0.0
H1560 H 0.1336 0.60242 0.95202 0.0
H1561 H 0.13189 0.5966 0.8882 0.0
H1562 H 0.11094 0.59641 0.90912 0.0
H1563 H 0.09678 0.58623 0.96555 0.0
H1564 H 0.13291 0.34515 0.79857 0.0
H1565 H 0.12315 0.3595 0.74166 0.0
H1566 H 0.15586 0.36304 0.6554 0.0
H1567 H 0.16584 0.34914 0.71388 0.0
H1568 H 0.14424 0.38385 0.65707 0.0
H1569 H 0.11234 0.34799 0.60478 0.0
H1570 H 0.11165 0.35145 0.67153 0.0
H1571 H 0.12517 0.34526 0.64477 0.0
C1572 C 0.13809 0.3492 0.76819 0.0
C1573 C 0.1501 0.34594 0.76035 0.0
C1574 C 0.13247 0.35731 0.73535 0.0
C1575 C 0.13863 0.36201 0.69307 0.0
C1576 C 0.15087 0.35943 0.68738 0.0
H1577 H 0.09627 0.38513 0.43274 0.0
H1578 H 0.11149 0.37534 0.48533 0.0
C1579 C 0.15658 0.35151 0.72094 0.0
C1580 C 0.13212 0.36889 0.65308 0.0
H1581 H 0.10779 0.3675 0.57455 0.0
C1582 C 0.13631 0.38026 0.63874 0.0
C1583 C 0.12197 0.36407 0.62795 0.0
C1584 C 0.1176 0.35147 0.6376 0.0
C1585 C 0.13042 0.38708 0.60112 0.0
C1586 C 0.11983 0.38256 0.57837 0.0
C1587 C 0.11584 0.37107 0.59199 0.0
C1588 C 0.11244 0.38956 0.54151 0.0
C1589 C 0.13578 0.39894 0.58563 0.0
C1590 C 0.1082 0.40103 0.55422 0.0
C1591 C 0.09975 0.40678 0.5233 0.0
C1592 C 0.0951 0.40101 0.4799 0.0
C1593 C 0.0997 0.38978 0.46595 0.0
C1594 C 0.10837 0.38417 0.49617 0.0
H1595 H 0.14563 0.39901 0.59164 0.0
H1596 H 0.13393 0.40102 0.54495 0.0
H1597 H 0.1319 0.40614 0.60968 0.0
H1598 H 0.11088 0.40528 0.58955 0.0
H1599 H 0.09624 0.41535 0.53546 0.0
H1600 H 0.15362 0.21372 0.19633 0.0
H1601 H 0.15221 0.23142 0.14216 0.0
H1602 H 0.19072 0.23293 0.13218 0.0
H1603 H 0.19226 0.21527 0.18717 0.0
H1604 H 0.17998 0.25456 0.1624 0.0
H1605 H 0.15793 0.23608 0.98935 0.0
H1606 H 0.15044 0.23274 0.04834 0.0
H1607 H 0.16509 0.22668 0.0364 0.0
C1608 C 0.16181 0.21766 0.18192 0.0
C1609 C 0.17306 0.21308 0.19623 0.0
C1610 C 0.16097 0.22777 0.15078 0.0
C1611 C 0.17135 0.23344 0.13294 0.0
C1612 C 0.1826 0.22866 0.14557 0.0
H1613 H 0.19068 0.29391 0.95386 0.0
H1614 H 0.18944 0.27775 0.01603 0.0
C1615 C 0.18345 0.21853 0.17678 0.0
C1616 C 0.17051 0.2448 0.10408 0.0
H1617 H 0.15993 0.25715 0.99377 0.0
C1618 C 0.17561 0.25514 0.12549 0.0
C1619 C 0.16466 0.24554 0.05631 0.0
C1620 C 0.15929 0.23466 0.03093 0.0
C1621 C 0.17511 0.26619 0.10017 0.0
C1622 C 0.1695 0.26688 0.05188 0.0
C1623 C 0.16415 0.25661 0.031 0.0
C1624 C 0.17009 0.27782 0.02008 0.0
C1625 C 0.18057 0.27704 0.12536 0.0
C1626 C 0.1596 0.28333 0.00208 0.0
C1627 C 0.16028 0.29264 0.96633 0.0
C1628 C 0.17146 0.29639 0.94755 0.0
C1629 C 0.18193 0.29121 0.96754 0.0
C1630 C 0.18125 0.282 0.00334 0.0
H1631 H 0.18104 0.27596 0.16748 0.0
H1632 H 0.18984 0.27827 0.11101 0.0
H1633 H 0.17538 0.28527 0.11648 0.0
H1634 H 0.1509 0.28016 0.01439 0.0
H1635 H 0.15206 0.2964 0.95134 0.0
H1636 H 0.9558 0.8999 0.20222 0.0
H1637 H 0.97199 0.89805 0.26518 0.0
H1638 H 0.97486 0.93652 0.27233 0.0
H1639 H 0.95873 0.93845 0.21042 0.0
H1640 H 0.99505 0.90664 0.24721 0.0
H1641 H 0.97639 0.9272 0.42217 0.0
H1642 H 0.96706 0.92215 0.37013 0.0
H1643 H 0.97437 0.93649 0.36701 0.0
C1644 C 0.95966 0.90795 0.21838 0.0
C1645 C 0.95602 0.91932 0.20127 0.0
C1646 C 0.96893 0.90688 0.25408 0.0
C1647 C 0.97455 0.91715 0.27368 0.0
C1648 C 0.97051 0.92848 0.25847 0.0
H1649 H 0.03738 0.93893 0.43655 0.0
H1650 H 0.01966 0.9371 0.3822 0.0
C1651 C 0.96132 0.92956 0.22278 0.0
C1652 C 0.98543 0.91619 0.30571 0.0
H1653 H 0.99786 0.92627 0.41666 0.0
C1654 C 0.99563 0.91075 0.28466 0.0
C1655 C 0.98617 0.92162 0.35437 0.0
C1656 C 0.97537 0.92709 0.37997 0.0
C1657 C 0.0067 0.91105 0.31005 0.0
C1658 C 0.00751 0.91684 0.35789 0.0
C1659 C 0.99723 0.92196 0.37964 0.0
C1660 C 0.01894 0.91777 0.38618 0.0
C1661 C 0.01753 0.90559 0.28469 0.0
C1662 C 0.02451 0.90748 0.40552 0.0
C1663 C 0.03465 0.90849 0.43646 0.0
C1664 C 0.03936 0.91981 0.44884 0.0
C1665 C 0.03402 0.93008 0.42767 0.0
C1666 C 0.02386 0.92906 0.39682 0.0
H1667 H 0.01598 0.90383 0.24347 0.0
H1668 H 0.02544 0.91155 0.28869 0.0
H1669 H 0.01967 0.89695 0.30349 0.0
H1670 H 0.02075 0.8987 0.39828 0.0
H1671 H 0.03851 0.90039 0.45219 0.0
H1672 H 0.31516 0.70609 0.47283 0.0
H1673 H 0.31725 0.72199 0.53588 0.0
H1674 H 0.3556 0.72126 0.51694 0.0
H1675 H 0.35357 0.70535 0.45279 0.0
H1676 H 0.32999 0.72508 0.62772 0.0
H1677 H 0.34598 0.75546 0.47344 0.0
H1678 H 0.33945 0.74102 0.46013 0.0
H1679 H 0.35453 0.74203 0.48353 0.0
C1680 C 0.32408 0.70913 0.48274 0.0
C1681 C 0.3342 0.7046 0.45731 0.0
C1682 C 0.32525 0.71822 0.51885 0.0
C1683 C 0.33655 0.72298 0.53014 0.0
C1684 C 0.34678 0.71784 0.50793 0.0
H1685 H 0.35089 0.78852 0.70141 0.0
H1686 H 0.35301 0.7704 0.64991 0.0
C1687 C 0.34562 0.70868 0.47172 0.0
C1688 C 0.33731 0.73394 0.56175 0.0
H1689 H 0.34291 0.76396 0.55437 0.0
C1690 C 0.33292 0.73357 0.61192 0.0
C1691 C 0.34107 0.745 0.54079 0.0
C1692 C 0.34545 0.74601 0.48643 0.0
C1693 C 0.33206 0.744 0.64154 0.0
C1694 C 0.33548 0.7551 0.62003 0.0
C1695 C 0.34022 0.75543 0.57049 0.0
C1696 C 0.33405 0.76649 0.64823 0.0
C1697 C 0.32748 0.74306 0.69559 0.0
C1698 C 0.32264 0.77052 0.66263 0.0
C1699 C 0.32137 0.78091 0.69189 0.0
C1700 C 0.33151 0.78745 0.70719 0.0
C1701 C 0.34289 0.78367 0.69053 0.0
C1702 C 0.34413 0.77331 0.66118 0.0
H1703 H 0.32816 0.73377 0.71043 0.0
H1704 H 0.33252 0.74912 0.72144 0.0
H1705 H 0.31791 0.74573 0.69653 0.0
H1706 H 0.31472 0.7655 0.65199 0.0
H1707 H 0.31248 0.78358 0.70395 0.0
H1708 H 0.54247 0.06241 0.70999 0.0
H1709 H 0.52584 0.06428 0.7696 0.0
H1710 H 0.52752 0.10274 0.7571 0.0
H1711 H 0.54416 0.10095 0.69633 0.0
H1712 H 0.52236 0.07608 0.86258 0.0
H1713 H 0.49341 0.09455 0.70845 0.0
H1714 H 0.50778 0.08781 0.69555 0.0
H1715 H 0.50696 0.10267 0.72154 0.0
C1716 C 0.53946 0.07129 0.72047 0.0
C1717 C 0.54453 0.08153 0.69789 0.0
C1718 C 0.52995 0.07234 0.75461 0.0
C1719 C 0.52528 0.08362 0.76679 0.0
C1720 C 0.53085 0.09393 0.74728 0.0
H1721 H 0.46059 0.09941 0.94047 0.0
H1722 H 0.47852 0.10098 0.88739 0.0
C1723 C 0.54043 0.0929 0.71303 0.0
C1724 C 0.51413 0.08436 0.7972 0.0
H1725 H 0.4844 0.09129 0.78844 0.0
C1726 C 0.51408 0.07949 0.84656 0.0
C1727 C 0.50333 0.08875 0.77597 0.0
C1728 C 0.50277 0.09367 0.72235 0.0
C1729 C 0.50348 0.07879 0.87516 0.0
C1730 C 0.49264 0.0829 0.85344 0.0
C1731 C 0.49273 0.08808 0.80469 0.0
C1732 C 0.48112 0.08186 0.88098 0.0
C1733 C 0.50396 0.07366 0.92844 0.0
C1734 C 0.47639 0.07057 0.89301 0.0
C1735 C 0.4661 0.06962 0.92313 0.0
C1736 C 0.4604 0.07996 0.94175 0.0
C1737 C 0.4648 0.09126 0.92703 0.0
C1738 C 0.47505 0.09219 0.89677 0.0
H1739 H 0.51324 0.07356 0.94378 0.0
H1740 H 0.49819 0.07888 0.95484 0.0
H1741 H 0.50062 0.06431 0.9277 0.0
H1742 H 0.48085 0.06249 0.88027 0.0
H1743 H 0.46294 0.06079 0.93367 0.0
H1744 H 0.14655 0.70621 0.53939 0.0
H1745 H 0.14475 0.72232 0.47607 0.0
H1746 H 0.18318 0.72321 0.46037 0.0
H1747 H 0.18503 0.70716 0.52265 0.0
H1748 H 0.15465 0.74479 0.49297 0.0
H1749 H 0.17227 0.72582 0.31301 0.0
H1750 H 0.1674 0.71654 0.36554 0.0
H1751 H 0.18212 0.72312 0.36588 0.0
C1752 C 0.15457 0.70958 0.52111 0.0
C1753 C 0.16593 0.70546 0.53608 0.0
C1754 C 0.15353 0.71882 0.48523 0.0
C1755 C 0.16383 0.72391 0.4633 0.0
C1756 C 0.17511 0.71929 0.47604 0.0
H1757 H 0.18762 0.78628 0.30324 0.0
H1758 H 0.18519 0.76835 0.35589 0.0
C1759 C 0.17615 0.71014 0.51193 0.0
C1760 C 0.16306 0.73493 0.43206 0.0
H1761 H 0.17275 0.74732 0.32038 0.0
C1762 C 0.15839 0.74532 0.45484 0.0
C1763 C 0.16803 0.73559 0.3825 0.0
C1764 C 0.17263 0.72464 0.35511 0.0
C1765 C 0.15908 0.75647 0.43029 0.0
C1766 C 0.16446 0.75719 0.38156 0.0
C1767 C 0.16876 0.74675 0.35807 0.0
C1768 C 0.16582 0.7687 0.35422 0.0
C1769 C 0.1545 0.76747 0.45744 0.0
C1770 C 0.15573 0.77493 0.33678 0.0
C1771 C 0.15708 0.78519 0.30681 0.0
C1772 C 0.16857 0.78936 0.29354 0.0
C1773 C 0.17866 0.78335 0.31287 0.0
C1774 C 0.17729 0.77307 0.34272 0.0
H1775 H 0.15292 0.76579 0.4987 0.0
H1776 H 0.16093 0.775 0.45346 0.0
H1777 H 0.14589 0.77028 0.43997 0.0
H1778 H 0.14681 0.77162 0.34476 0.0
H1779 H 0.14911 0.78958 0.2925 0.0
H1780 H 0.46205 0.94001 0.57086 0.0
H1781 H 0.47957 0.93761 0.62604 0.0
H1782 H 0.47733 0.89926 0.60956 0.0
H1783 H 0.45992 0.90154 0.55399 0.0
H1784 H 0.48338 0.92477 0.71748 0.0
H1785 H 0.51128 0.90709 0.55847 0.0
H1786 H 0.49703 0.91431 0.54791 0.0
H1787 H 0.49758 0.89911 0.57021 0.0
C1788 C 0.46516 0.93105 0.57959 0.0
C1789 C 0.45966 0.92098 0.55754 0.0
C1790 C 0.4752 0.9297 0.61097 0.0
C1791 C 0.47991 0.91827 0.62075 0.0
C1792 C 0.47401 0.90817 0.60138 0.0
H1793 H 0.54271 0.89882 0.80425 0.0
H1794 H 0.52534 0.89741 0.74692 0.0
C1795 C 0.46401 0.9095 0.56995 0.0
C1796 C 0.49117 0.91699 0.65004 0.0
H1797 H 0.5204 0.90819 0.63976 0.0
C1798 C 0.49146 0.9211 0.70057 0.0
C1799 C 0.50168 0.91217 0.62778 0.0
C1800 C 0.50197 0.908 0.57299 0.0
C1801 C 0.50202 0.92062 0.72941 0.0
C1802 C 0.51257 0.91605 0.70685 0.0
C1803 C 0.51226 0.91167 0.65676 0.0
C1804 C 0.52413 0.91651 0.73416 0.0
C1805 C 0.50186 0.92509 0.78378 0.0
C1806 C 0.52947 0.92763 0.7436 0.0
C1807 C 0.53934 0.92846 0.77595 0.0
C1808 C 0.54406 0.91816 0.79941 0.0
C1809 C 0.53928 0.9069 0.78664 0.0
C1810 C 0.52934 0.90608 0.75418 0.0
H1811 H 0.4926 0.92588 0.79889 0.0
H1812 H 0.50706 0.91903 0.80902 0.0
H1813 H 0.50609 0.93408 0.78532 0.0
H1814 H 0.52565 0.93574 0.72782 0.0
H1815 H 0.54289 0.93725 0.78461 0.0
H1816 H 0.34853 0.21293 0.80239 0.0
H1817 H 0.34994 0.23067 0.85642 0.0
H1818 H 0.31142 0.23262 0.86386 0.0
H1819 H 0.30988 0.21493 0.8091 0.0
H1820 H 0.32273 0.25418 0.83386 0.0
H1821 H 0.34347 0.23532 0.00921 0.0
H1822 H 0.3511 0.23178 0.95075 0.0
H1823 H 0.33629 0.22606 0.96171 0.0
C1824 C 0.34033 0.21699 0.81619 0.0
C1825 C 0.32908 0.21251 0.80131 0.0
C1826 C 0.34117 0.22711 0.84724 0.0
C1827 C 0.33079 0.23291 0.86432 0.0
C1828 C 0.31954 0.22825 0.85104 0.0
H1829 H 0.31112 0.29349 0.04148 0.0
H1830 H 0.3126 0.27743 0.97897 0.0
C1831 C 0.31868 0.2181 0.81999 0.0
C1832 C 0.33166 0.24426 0.89324 0.0
H1833 H 0.34166 0.25639 0.00493 0.0
C1834 C 0.32687 0.25467 0.87128 0.0
C1835 C 0.33721 0.24489 0.94168 0.0
C1836 C 0.34224 0.23391 0.96755 0.0
C1837 C 0.32737 0.26571 0.89676 0.0
C1838 C 0.33264 0.26629 0.94575 0.0
C1839 C 0.3377 0.25593 0.96717 0.0
C1840 C 0.33197 0.2772 0.97766 0.0
C1841 C 0.32226 0.27666 0.871 0.0
C1842 C 0.34239 0.28253 0.9973 0.0
C1843 C 0.34158 0.29177 0.03326 0.0
C1844 C 0.33032 0.29567 0.05061 0.0
C1845 C 0.31993 0.29069 0.02895 0.0
C1846 C 0.32075 0.28154 0.99294 0.0
H1847 H 0.32211 0.27562 0.82881 0.0
H1848 H 0.3129 0.278 0.88403 0.0
H1849 H 0.32748 0.28481 0.88074 0.0
H1850 H 0.35113 0.27924 0.98613 0.0
H1851 H 0.34973 0.29538 0.04953 0.0
H1852 H 0.03915 0.09863 0.05452 0.0
H1853 H 0.02144 0.09975 0.10866 0.0
H1854 H 0.0193 0.06121 0.11135 0.0
H1855 H 0.03697 0.05997 0.05628 0.0
H1856 H 0.99782 0.07246 0.08403 0.0
H1857 H 0.01682 0.09264 0.26009 0.0
H1858 H 0.02019 0.10071 0.20257 0.0
H1859 H 0.02606 0.08587 0.21146 0.0
C1860 C 0.03507 0.09036 0.06728 0.0
C1861 C 0.03949 0.0792 0.05096 0.0
C1862 C 0.02495 0.09104 0.09843 0.0
C1863 C 0.01911 0.08057 0.11428 0.0
C1864 C 0.02371 0.06939 0.09952 0.0
H1865 H 0.95844 0.06129 0.29305 0.0
H1866 H 0.97454 0.06246 0.23049 0.0
C1867 C 0.03384 0.0687 0.06829 0.0
C1868 C 0.00779 0.08131 0.14351 0.0
H1869 H 0.99568 0.09126 0.25536 0.0
C1870 C 0.99735 0.07655 0.12154 0.0
C1871 C 0.00718 0.08678 0.19213 0.0
C1872 C 0.01817 0.09171 0.21825 0.0
C1873 C 0.98632 0.07706 0.14706 0.0
C1874 C 0.98576 0.08234 0.19603 0.0
C1875 C 0.99614 0.08731 0.21757 0.0
C1876 C 0.9748 0.08182 0.22773 0.0
C1877 C 0.97535 0.07197 0.12138 0.0
C1878 C 0.96948 0.09233 0.24645 0.0
C1879 C 0.9602 0.0917 0.28234 0.0
C1880 C 0.95629 0.08052 0.30057 0.0
C1881 C 0.96127 0.07003 0.2798 0.0
C1882 C 0.97043 0.07067 0.2438 0.0
H1883 H 0.97644 0.07162 0.07924 0.0
H1884 H 0.97386 0.0627 0.13517 0.0
H1885 H 0.96726 0.07734 0.13051 0.0
H1886 H 0.97279 0.10102 0.23465 0.0
H1887 H 0.95661 0.09993 0.29794 0.0
H1888 H 0.8118 0.78572 0.79973 0.0
H1889 H 0.81332 0.76777 0.85291 0.0
H1890 H 0.85184 0.76996 0.84718 0.0
H1891 H 0.85045 0.78795 0.79473 0.0
H1892 H 0.8248 0.74636 0.82209 0.0
H1893 H 0.84503 0.76479 0.99938 0.0
H1894 H 0.83793 0.77416 0.95209 0.0
H1895 H 0.85278 0.76851 0.94141 0.0
C1896 C 0.8206 0.78253 0.81062 0.0
C1897 C 0.831 0.78829 0.79293 0.0
C1898 C 0.82144 0.77224 0.84077 0.0
C1899 C 0.83269 0.76758 0.85411 0.0
C1900 C 0.84308 0.7735 0.83793 0.0
H1901 H 0.85068 0.70513 0.04097 0.0
H1902 H 0.85252 0.72097 0.97646 0.0
C1903 C 0.84225 0.78378 0.8078 0.0
C1904 C 0.83354 0.75614 0.88239 0.0
H1905 H 0.84316 0.74376 0.99418 0.0
C1906 C 0.82882 0.74577 0.85971 0.0
C1907 C 0.83894 0.75539 0.9311 0.0
C1908 C 0.84388 0.76631 0.95775 0.0
C1909 C 0.82922 0.73468 0.88478 0.0
C1910 C 0.83432 0.734 0.93409 0.0
C1911 C 0.83933 0.7443 0.95618 0.0
C1912 C 0.83342 0.72306 0.96578 0.0
C1913 C 0.82417 0.7238 0.85831 0.0
C1914 C 0.8221 0.7188 0.98003 0.0
C1915 C 0.82103 0.70982 0.01666 0.0
C1916 C 0.83126 0.70493 0.03997 0.0
C1917 C 0.84264 0.70866 0.02339 0.0
C1918 C 0.8437 0.71775 0.98681 0.0
H1919 H 0.82428 0.72489 0.81614 0.0
H1920 H 0.82926 0.71559 0.86845 0.0
H1921 H 0.81472 0.72254 0.87028 0.0
H1922 H 0.81405 0.72291 0.96502 0.0
H1923 H 0.81214 0.70713 0.02861 0.0
H1924 H 0.04293 0.1039 0.80812 0.0
H1925 H 0.02587 0.10571 0.74933 0.0
H1926 H 0.02737 0.06778 0.71977 0.0
H1927 H 0.04432 0.06586 0.77801 0.0
H1928 H 0.02175 0.09462 0.63564 0.0
H1929 H 0.99379 0.07769 0.79613 0.0
H1930 H 0.00789 0.08527 0.80627 0.0
H1931 H 0.00772 0.07007 0.78414 0.0
C1932 C 0.03987 0.09602 0.78781 0.0
C1933 C 0.04487 0.08471 0.79808 0.0
C1934 C 0.03011 0.09707 0.75449 0.0
C1935 C 0.02533 0.08684 0.73103 0.0
C1936 C 0.03092 0.07574 0.73797 0.0
H1937 H 0.96313 0.06281 0.57093 0.0
H1938 H 0.98076 0.06551 0.62524 0.0
C1939 C 0.0406 0.07468 0.77121 0.0
C1940 C 0.0138 0.08735 0.70364 0.0
H1941 H 0.98453 0.07899 0.71515 0.0
C1942 C 0.01356 0.09137 0.65301 0.0
C1943 C 0.0032 0.08303 0.72667 0.0
C1944 C 0.00305 0.07883 0.78142 0.0
C1945 C 0.00298 0.09077 0.62403 0.0
C1946 C 0.99241 0.08622 0.64682 0.0
C1947 C 0.99264 0.08247 0.69787 0.0
C1948 C 0.98116 0.08479 0.61759 0.0
C1949 C 0.00332 0.09456 0.56875 0.0
C1950 C 0.9753 0.09479 0.59706 0.0
C1951 C 0.96523 0.09329 0.56613 0.0
C1952 C 0.9608 0.08176 0.55537 0.0
C1953 C 0.96631 0.07181 0.57838 0.0
C1954 C 0.97641 0.07333 0.60927 0.0
H1955 H 0.01264 0.09535 0.55424 0.0
H1956 H 0.99839 0.08808 0.54444 0.0
H1957 H 0.99895 0.10343 0.56477 0.0
H1958 H 0.97867 0.10373 0.60407 0.0
H1959 H 0.96115 0.10116 0.54939 0.0
H1960 H 0.6869 0.2947 0.52731 0.0
H1961 H 0.6859 0.27806 0.4672 0.0
H1962 H 0.64773 0.27568 0.48997 0.0
H1963 H 0.64864 0.29249 0.55022 0.0
H1964 H 0.67739 0.25553 0.50375 0.0
H1965 H 0.65221 0.27127 0.33308 0.0
H1966 H 0.65956 0.28148 0.37649 0.0
H1967 H 0.64572 0.2745 0.39446 0.0
C1968 C 0.67823 0.29086 0.5185 0.0
C1969 C 0.66785 0.29483 0.54377 0.0
C1970 C 0.67769 0.28134 0.48421 0.0
C1971 C 0.66677 0.27562 0.47436 0.0
C1972 C 0.65623 0.28007 0.49669 0.0
H1973 H 0.65206 0.2104 0.30321 0.0
H1974 H 0.65036 0.22782 0.35913 0.0
C1975 C 0.65676 0.28968 0.53101 0.0
C1976 C 0.66677 0.26418 0.44587 0.0
H1977 H 0.65753 0.25081 0.33564 0.0
C1978 C 0.67305 0.25448 0.46697 0.0
C1979 C 0.66098 0.26284 0.39831 0.0
C1980 C 0.65428 0.27307 0.37385 0.0
C1981 C 0.67378 0.24346 0.44157 0.0
C1982 C 0.66828 0.2422 0.39329 0.0
C1983 C 0.66177 0.25183 0.37264 0.0
C1984 C 0.66943 0.23107 0.36289 0.0
C1985 C 0.68033 0.23325 0.46694 0.0
C1986 C 0.68074 0.22702 0.34708 0.0
C1987 C 0.68176 0.217 0.31538 0.0
C1988 C 0.67147 0.21094 0.29844 0.0
C1989 C 0.66017 0.21485 0.31553 0.0
C1990 C 0.65917 0.22483 0.34734 0.0
H1991 H 0.68089 0.23451 0.50895 0.0
H1992 H 0.67588 0.22456 0.45902 0.0
H1993 H 0.6896 0.23282 0.45186 0.0
H1994 H 0.68877 0.23184 0.35789 0.0
H1995 H 0.69058 0.21431 0.30257 0.0
H1996 H 0.4577 0.90212 0.30029 0.0
H1997 H 0.47483 0.90106 0.2416 0.0
H1998 H 0.47662 0.93962 0.23818 0.0
H1999 H 0.45968 0.94077 0.29674 0.0
H2000 H 0.47994 0.91183 0.14198 0.0
H2001 H 0.50947 0.92868 0.29664 0.0
H2002 H 0.49462 0.92295 0.3086 0.0
H2003 H 0.49659 0.93788 0.28434 0.0
C2004 C 0.46158 0.91036 0.28607 0.0
C2005 C 0.45746 0.92152 0.30365 0.0
C2006 C 0.47138 0.90974 0.25279 0.0
C2007 C 0.47713 0.92026 0.23675 0.0
C2008 C 0.47245 0.9314 0.25114 0.0
H2009 H 0.53898 0.94104 0.06224 0.0
H2010 H 0.52151 0.93984 0.11849 0.0
C2011 C 0.46274 0.93203 0.2844 0.0
C2012 C 0.48844 0.91973 0.2075 0.0
H2013 H 0.51793 0.9277 0.21352 0.0
C2014 C 0.48828 0.91519 0.15764 0.0
C2015 C 0.49929 0.9241 0.2283 0.0
C2016 C 0.50008 0.92859 0.28257 0.0
C2017 C 0.49864 0.91529 0.12725 0.0
C2018 C 0.50944 0.91989 0.14776 0.0
C2019 C 0.50963 0.92423 0.19794 0.0
C2020 C 0.52057 0.9205 0.11726 0.0
C2021 C 0.49787 0.91084 0.07294 0.0
C2022 C 0.52606 0.91 0.09971 0.0
C2023 C 0.53605 0.91064 0.06779 0.0
C2024 C 0.54075 0.92181 0.05293 0.0
C2025 C 0.53559 0.9323 0.07285 0.0
C2026 C 0.52559 0.93164 0.10484 0.0
H2027 H 0.48846 0.91011 0.05964 0.0
H2028 H 0.50281 0.9169 0.0467 0.0
H2029 H 0.50202 0.90183 0.07049 0.0
H2030 H 0.52247 0.90131 0.10987 0.0
H2031 H 0.53985 0.90237 0.05348 0.0
H2032 H 0.81158 0.29281 0.46777 0.0
H2033 H 0.81316 0.27602 0.52688 0.0
H2034 H 0.85163 0.27689 0.51342 0.0
H2035 H 0.85013 0.29385 0.45425 0.0
H2036 H 0.82388 0.25437 0.49229 0.0
H2037 H 0.8456 0.2718 0.66854 0.0
H2038 H 0.83809 0.28146 0.62344 0.0
H2039 H 0.85263 0.27556 0.60886 0.0
C2040 C 0.8204 0.28965 0.4784 0.0
C2041 C 0.83073 0.29459 0.45609 0.0
C2042 C 0.82128 0.28004 0.51209 0.0
C2043 C 0.83249 0.2752 0.5243 0.0
C2044 C 0.8429 0.28059 0.50486 0.0
H2045 H 0.84987 0.21109 0.69876 0.0
H2046 H 0.85105 0.22844 0.64222 0.0
C2047 C 0.84203 0.29029 0.47115 0.0
C2048 C 0.83308 0.26375 0.55253 0.0
H2049 H 0.84198 0.25098 0.66456 0.0
C2050 C 0.82784 0.25361 0.52997 0.0
C2051 C 0.83838 0.26279 0.60129 0.0
C2052 C 0.84394 0.27348 0.62734 0.0
C2053 C 0.82765 0.24254 0.55514 0.0
C2054 C 0.83263 0.24165 0.60457 0.0
C2055 C 0.83813 0.25172 0.62667 0.0
C2056 C 0.83187 0.23048 0.63481 0.0
C2057 C 0.82219 0.23188 0.52842 0.0
C2058 C 0.82068 0.22576 0.64868 0.0
C2059 C 0.81996 0.2158 0.68081 0.0
C2060 C 0.83043 0.21045 0.70004 0.0
C2061 C 0.84162 0.21498 0.68466 0.0
C2062 C 0.84233 0.22493 0.6525 0.0
H2063 H 0.82201 0.23314 0.48634 0.0
H2064 H 0.82721 0.22355 0.53722 0.0
H2065 H 0.81283 0.23072 0.54162 0.0
H2066 H 0.8125 0.23004 0.63612 0.0
H2067 H 0.8112 0.2126 0.69217 0.0
H2068 H 0.45863 0.06186 0.2054 0.0
H2069 H 0.47547 0.06287 0.26444 0.0
H2070 H 0.47531 0.1014 0.25414 0.0
H2071 H 0.45828 0.10048 0.19502 0.0
H2072 H 0.49741 0.07317 0.23253 0.0
H2073 H 0.47977 0.09472 0.40875 0.0
H2074 H 0.47012 0.08767 0.36225 0.0
H2075 H 0.47646 0.10213 0.34944 0.0
C2076 C 0.46198 0.07058 0.21657 0.0
C2077 C 0.45718 0.0811 0.19529 0.0
C2078 C 0.47162 0.07113 0.25025 0.0
C2079 C 0.47664 0.08219 0.2635 0.0
C2080 C 0.47146 0.09278 0.2448 0.0
H2081 H 0.54049 0.09799 0.44213 0.0
H2082 H 0.52331 0.09952 0.38484 0.0
C2083 C 0.46173 0.09224 0.2111 0.0
C2084 C 0.48801 0.08244 0.29251 0.0
H2085 H 0.50055 0.09079 0.40581 0.0
C2086 C 0.49811 0.07703 0.27043 0.0
C2087 C 0.48889 0.08758 0.34161 0.0
C2088 C 0.47824 0.09329 0.36728 0.0
C2089 C 0.50908 0.07653 0.29635 0.0
C2090 C 0.5099 0.08139 0.34603 0.0
C2091 C 0.49987 0.08704 0.36771 0.0
C2092 C 0.52097 0.08039 0.37687 0.0
C2093 C 0.51972 0.07091 0.27013 0.0
C2094 C 0.52546 0.06911 0.39073 0.0
C2095 C 0.53533 0.06818 0.42332 0.0
C2096 C 0.54081 0.07854 0.44302 0.0
C2097 C 0.53649 0.08982 0.4277 0.0
C2098 C 0.52665 0.09074 0.39509 0.0
H2099 H 0.51859 0.07078 0.22798 0.0
H2100 H 0.52811 0.07576 0.2795 0.0
H2101 H 0.52067 0.06151 0.28324 0.0
H2102 H 0.52108 0.06101 0.37776 0.0
H2103 H 0.53835 0.05936 0.43463 0.0
H2104 H 0.6507 0.78956 0.19987 0.0
H2105 H 0.64856 0.77156 0.14764 0.0
H2106 H 0.68695 0.76783 0.1416 0.0
H2107 H 0.68923 0.78579 0.19425 0.0
H2108 H 0.65785 0.76546 0.04965 0.0
H2109 H 0.67503 0.73572 0.2028 0.0
H2110 H 0.67032 0.75093 0.21467 0.0
H2111 H 0.68475 0.74799 0.187 0.0
C2112 C 0.65872 0.785 0.18698 0.0
C2113 C 0.67015 0.78905 0.20167 0.0
C2114 C 0.65745 0.77471 0.15721 0.0
C2115 C 0.66758 0.76824 0.14185 0.0
C2116 C 0.67902 0.77258 0.1541 0.0
H2117 H 0.68623 0.70783 0.96569 0.0
H2118 H 0.68435 0.72398 0.02758 0.0
C2119 C 0.6803 0.7829 0.18378 0.0
C2120 C 0.66617 0.75682 0.11386 0.0
H2121 H 0.6725 0.72696 0.12067 0.0
C2122 C 0.66092 0.75701 0.06526 0.0
C2123 C 0.6701 0.74582 0.13475 0.0
C2124 C 0.67527 0.74503 0.18787 0.0
C2125 C 0.66003 0.74655 0.03577 0.0
C2126 C 0.6643 0.73559 0.05606 0.0
C2127 C 0.66919 0.73536 0.10537 0.0
C2128 C 0.665 0.72462 0.0245 0.0
C2129 C 0.65508 0.74741 0.98227 0.0
C2130 C 0.6547 0.71922 0.00405 0.0
C2131 C 0.65574 0.70992 0.96844 0.0
C2132 C 0.66711 0.70593 0.9529 0.0
C2133 C 0.67734 0.71078 0.97646 0.0
C2134 C 0.67629 0.72001 0.01192 0.0
H2135 H 0.65423 0.75684 0.96928 0.0
H2136 H 0.6609 0.74252 0.95493 0.0
H2137 H 0.64606 0.74326 0.98116 0.0
H2138 H 0.64589 0.72251 0.01414 0.0
H2139 H 0.6477 0.70635 0.951 0.0
H2140 H 0.04408 0.89927 0.70397 0.0
H2141 H 0.02754 0.8977 0.76538 0.0
H2142 H 0.02528 0.93621 0.77239 0.0
H2143 H 0.0418 0.93786 0.71207 0.0
H2144 H 0.0221 0.92499 0.86729 0.0
H2145 H 0.99325 0.90511 0.716 0.0
H2146 H 0.00694 0.8973 0.72983 0.0
H2147 H 0.0075 0.91198 0.70196 0.0
C2148 C 0.04025 0.90738 0.71962 0.0
C2149 C 0.04414 0.91869 0.70273 0.0
C2150 C 0.03073 0.90648 0.75425 0.0
C2151 C 0.02502 0.91685 0.77238 0.0
C2152 C 0.02949 0.9281 0.75848 0.0
H2153 H 0.96272 0.94024 0.93796 0.0
H2154 H 0.98064 0.93834 0.88483 0.0
C2155 C 0.03894 0.92902 0.72395 0.0
C2156 C 0.01391 0.91619 0.80308 0.0
H2157 H 0.98424 0.90892 0.79553 0.0
C2158 C 0.01384 0.92139 0.85181 0.0
C2159 C 0.00314 0.91154 0.78255 0.0
C2160 C 0.0026 0.90624 0.72958 0.0
C2161 C 0.00326 0.92218 0.88046 0.0
C2162 C 0.99244 0.91783 0.85938 0.0
C2163 C 0.99256 0.91232 0.81129 0.0
C2164 C 0.98093 0.91897 0.88685 0.0
C2165 C 0.00375 0.92765 0.93312 0.0
C2166 C 0.97484 0.9087 0.90325 0.0
C2167 C 0.96456 0.90974 0.9333 0.0
C2168 C 0.96016 0.92109 0.94726 0.0
C2169 C 0.96588 0.93137 0.92807 0.0
C2170 C 0.97618 0.9303 0.89811 0.0
H2171 H 0.01302 0.92782 0.94846 0.0
H2172 H 1.00044 0.93701 0.93125 0.0
H2173 H 0.99796 0.92262 0.96013 0.0
H2174 H 0.97831 0.89987 0.89446 0.0
H2175 H 0.96034 0.90164 0.94718 0.0
H2176 H 0.64857 0.79478 0.45173 0.0
H2177 H 0.64686 0.77866 0.51506 0.0
H2178 H 0.68528 0.77815 0.5315 0.0
H2179 H 0.68704 0.79423 0.46928 0.0
H2180 H 0.65693 0.75634 0.49827 0.0
H2181 H 0.67435 0.77535 0.67856 0.0
H2182 H 0.6695 0.78462 0.62597 0.0
H2183 H 0.68423 0.77806 0.62584 0.0
C2184 C 0.6566 0.7915 0.47017 0.0
C2185 C 0.66794 0.79573 0.4554 0.0
C2186 C 0.65562 0.78225 0.50607 0.0
C2187 C 0.66594 0.77726 0.5282 0.0
C2188 C 0.67719 0.782 0.51569 0.0
H2189 H 0.68909 0.71486 0.69186 0.0
H2190 H 0.6871 0.73276 0.63863 0.0
C2191 C 0.67818 0.79115 0.47981 0.0
C2192 C 0.66524 0.76622 0.55936 0.0
H2193 H 0.67478 0.75386 0.67137 0.0
C2194 C 0.66064 0.75582 0.53649 0.0
C2195 C 0.67017 0.76557 0.60901 0.0
C2196 C 0.67473 0.77653 0.63647 0.0
C2197 C 0.66129 0.74468 0.5611 0.0
C2198 C 0.66657 0.74397 0.61005 0.0
C2199 C 0.67086 0.75442 0.63353 0.0
C2200 C 0.66773 0.73249 0.63781 0.0
C2201 C 0.65675 0.73368 0.53381 0.0
C2202 C 0.6575 0.72631 0.6541 0.0
C2203 C 0.6586 0.71607 0.68432 0.0
C2204 C 0.66997 0.71186 0.69909 0.0
C2205 C 0.68021 0.71782 0.68104 0.0
C2206 C 0.67909 0.72809 0.65087 0.0
H2207 H 0.65549 0.73529 0.4923 0.0
H2208 H 0.66303 0.72605 0.53889 0.0
H2209 H 0.64798 0.73105 0.5502 0.0
H2210 H 0.64865 0.72966 0.64498 0.0
H2211 H 0.65051 0.71172 0.69763 0.0
H2212 H 0.45731 0.43771 0.7154 0.0
H2213 H 0.47431 0.43642 0.77357 0.0
H2214 H 0.47549 0.39815 0.75287 0.0
H2215 H 0.45834 0.39934 0.69426 0.0
H2216 H 0.48001 0.40835 0.86 0.0
H2217 H 0.50768 0.42786 0.70442 0.0
H2218 H 0.49405 0.43575 0.7187 0.0
H2219 H 0.49334 0.42087 0.69289 0.0
C2220 C 0.46099 0.42897 0.72404 0.0
C2221 C 0.45659 0.41864 0.69976 0.0
C2222 C 0.47072 0.42826 0.75717 0.0
C2223 C 0.47626 0.41723 0.76651 0.0
C2224 C 0.47134 0.40675 0.7457 0.0
H2225 H 0.54059 0.40219 0.94551 0.0
H2226 H 0.52311 0.40009 0.8902 0.0
C2227 C 0.46152 0.40744 0.7125 0.0
C2228 C 0.48776 0.41693 0.79437 0.0
H2229 H 0.51675 0.42641 0.78602 0.0
C2230 C 0.4881 0.41217 0.84381 0.0
C2231 C 0.49824 0.42194 0.77287 0.0
C2232 C 0.49841 0.42682 0.71914 0.0
C2233 C 0.4986 0.41269 0.87321 0.0
C2234 C 0.50904 0.41791 0.85202 0.0
C2235 C 0.50873 0.42244 0.80213 0.0
C2236 C 0.52026 0.41914 0.88166 0.0
C2237 C 0.49833 0.40805 0.92732 0.0
C2238 C 0.52482 0.43055 0.89292 0.0
C2239 C 0.5349 0.43181 0.92413 0.0
C2240 C 0.54059 0.42165 0.94454 0.0
C2241 C 0.53636 0.41021 0.93083 0.0
C2242 C 0.52631 0.40898 0.89955 0.0
H2243 H 0.48902 0.40689 0.9415 0.0
H2244 H 0.50284 0.39921 0.92882 0.0
H2245 H 0.50315 0.41422 0.95345 0.0
H2246 H 0.52033 0.4385 0.87899 0.0
H2247 H 0.53792 0.44073 0.9339 0.0
H2248 H 0.81118 0.28621 0.19358 0.0
H2249 H 0.81373 0.26838 0.14036 0.0
H2250 H 0.85208 0.27216 0.14959 0.0
H2251 H 0.84967 0.29002 0.20259 0.0
H2252 H 0.84276 0.26613 0.04964 0.0
H2253 H 0.82596 0.23629 0.20331 0.0
H2254 H 0.81627 0.24861 0.18783 0.0
H2255 H 0.83074 0.25148 0.21513 0.0
C2256 C 0.82016 0.28337 0.18365 0.0
C2257 C 0.83022 0.28948 0.20274 0.0
C2258 C 0.8216 0.27313 0.1536 0.0
C2259 C 0.83309 0.26884 0.14209 0.0
C2260 C 0.84314 0.27528 0.15855 0.0
H2261 H 0.85342 0.20687 0.95227 0.0
H2262 H 0.85512 0.2233 0.01421 0.0
C2263 C 0.84172 0.28549 0.18877 0.0
C2264 C 0.83462 0.25743 0.11413 0.0
H2265 H 0.82862 0.22751 0.12139 0.0
C2266 C 0.8398 0.25765 0.06539 0.0
C2267 C 0.83084 0.24641 0.1352 0.0
C2268 C 0.82574 0.2456 0.18844 0.0
C2269 C 0.84074 0.24719 0.03595 0.0
C2270 C 0.83662 0.2362 0.05644 0.0
C2271 C 0.83181 0.23594 0.1059 0.0
C2272 C 0.836 0.22518 0.02508 0.0
C2273 C 0.8456 0.24807 0.98231 0.0
C2274 C 0.82476 0.22038 0.01309 0.0
C2275 C 0.82377 0.211 0.9783 0.0
C2276 C 0.83402 0.20618 0.95484 0.0
C2277 C 0.84536 0.21041 0.96966 0.0
C2278 C 0.84634 0.21987 0.00459 0.0
H2279 H 0.84632 0.2575 0.96918 0.0
H2280 H 0.85467 0.24403 0.98099 0.0
H2281 H 0.8398 0.24309 0.95519 0.0
H2282 H 0.81667 0.22429 0.02879 0.0
H2283 H 0.8149 0.20788 0.96806 0.0
H2284 H 0.96298 0.60515 0.46063 0.0
H2285 H 0.9802 0.60716 0.40368 0.0
H2286 H 0.97972 0.56908 0.3764 0.0
H2287 H 0.96243 0.56699 0.43263 0.0
H2288 H 0.00228 0.59654 0.41826 0.0
H2289 H 0.98291 0.5826 0.23297 0.0
H2290 H 0.97374 0.58672 0.28696 0.0
H2291 H 0.98009 0.57193 0.28276 0.0
C2292 C 0.96638 0.59722 0.44177 0.0
C2293 C 0.96131 0.5859 0.4512 0.0
C2294 C 0.97626 0.5984 0.40938 0.0
C2295 C 0.98117 0.58829 0.38554 0.0
C2296 C 0.97592 0.57703 0.39367 0.0
H2297 H 0.04233 0.56517 0.2246 0.0
H2298 H 0.02557 0.56839 0.2826 0.0
C2299 C 0.96605 0.57585 0.42598 0.0
C2300 C 0.99227 0.58933 0.35494 0.0
H2301 H 0.00435 0.58212 0.23938 0.0
C2302 C 0.00272 0.59357 0.37887 0.0
C2303 C 0.99278 0.58552 0.30353 0.0
C2304 C 0.98175 0.58155 0.27487 0.0
C2305 C 0.01378 0.59353 0.35338 0.0
C2306 C 0.01435 0.58917 0.30292 0.0
C2307 C 0.00385 0.58537 0.27836 0.0
C2308 C 0.02581 0.58767 0.27559 0.0
C2309 C 0.02489 0.59764 0.38097 0.0
C2310 C 0.03176 0.59752 0.25409 0.0
C2311 C 0.04142 0.59571 0.22083 0.0
C2312 C 0.04512 0.58403 0.20846 0.0
C2313 C 0.03964 0.57427 0.23306 0.0
C2314 C 0.03005 0.57608 0.26617 0.0
H2315 H 0.02307 0.60003 0.42141 0.0
H2316 H 0.0318 0.59049 0.37991 0.0
H2317 H 0.02866 0.6056 0.3613 0.0
H2318 H 0.02853 0.60653 0.2608 0.0
H2319 H 0.04543 0.60339 0.20222 0.0
H2320 H 0.65091 0.28935 0.80055 0.0
H2321 H 0.64921 0.272 0.85685 0.0
H2322 H 0.68769 0.269 0.86156 0.0
H2323 H 0.68951 0.28646 0.80582 0.0
H2324 H 0.65717 0.24915 0.83543 0.0
H2325 H 0.6786 0.26642 0.01149 0.0
H2326 H 0.67371 0.27613 0.96049 0.0
H2327 H 0.68775 0.2683 0.95575 0.0
C2328 C 0.65903 0.28514 0.81425 0.0
C2329 C 0.67036 0.28931 0.7987 0.0
C2330 C 0.65803 0.27519 0.84627 0.0
C2331 C 0.66831 0.26926 0.86363 0.0
C2332 C 0.67964 0.27358 0.84934 0.0
H2333 H 0.68711 0.20614 0.02732 0.0
H2334 H 0.68559 0.22286 0.96782 0.0
C2335 C 0.68066 0.28356 0.81739 0.0
C2336 C 0.66721 0.25817 0.89427 0.0
H2337 H 0.67597 0.24524 0.00614 0.0
C2338 C 0.66116 0.24831 0.87301 0.0
C2339 C 0.67237 0.25714 0.94334 0.0
C2340 C 0.67837 0.2676 0.96938 0.0
C2341 C 0.66055 0.2373 0.89881 0.0
C2342 C 0.66607 0.23619 0.94705 0.0
C2343 C 0.67183 0.24612 0.96884 0.0
C2344 C 0.6664 0.22474 0.97534 0.0
C2345 C 0.65438 0.22682 0.87379 0.0
C2346 C 0.65602 0.21997 0.99768 0.0
C2347 C 0.65684 0.21032 0.03173 0.0
C2348 C 0.66809 0.20545 0.04414 0.0
C2349 C 0.67833 0.20975 0.01882 0.0
C2350 C 0.67749 0.21931 0.98486 0.0
H2351 H 0.65218 0.22863 0.83315 0.0
H2352 H 0.66011 0.21871 0.8759 0.0
H2353 H 0.64593 0.22486 0.89446 0.0
H2354 H 0.64739 0.22413 0.99112 0.0
H2355 H 0.64882 0.20726 0.05094 0.0
H2356 H 0.97312 0.44032 0.99048 0.0
H2357 H 0.9912 0.43986 0.04287 0.0
H2358 H 0.97622 0.41106 0.13233 0.0
H2359 H 0.95841 0.41103 0.078 0.0
H2360 H 0.99577 0.44388 0.13582 0.0
H2361 H 0.00772 0.39666 0.10134 0.0
H2362 H 0.99598 0.40406 0.06621 0.0
H2363 H 0.993 0.3976 0.12806 0.0
C2364 C 0.97366 0.43394 0.02154 0.0
C2365 C 0.96439 0.42567 0.03008 0.0
C2366 C 0.98403 0.43364 0.0513 0.0
C2367 C 0.98527 0.42518 0.09066 0.0
C2368 C 0.97572 0.41734 0.10091 0.0
H2369 H 0.02775 0.4321 0.35568 0.0
H2370 H 0.01335 0.43258 0.28651 0.0
C2371 C 0.96546 0.41744 0.07036 0.0
C2372 C 0.99635 0.42486 0.12203 0.0
H2373 H 0.01694 0.40593 0.17489 0.0
C2374 C 1.00048 0.43559 0.14366 0.0
C2375 C 0.0028 0.41413 0.13118 0.0
C2376 C 0.99972 0.40251 0.10491 0.0
C2377 C 0.01043 0.4358 0.17624 0.0
C2378 C 0.01611 0.42489 0.18945 0.0
C2379 C 0.01244 0.41426 0.1656 0.0
C2380 C 0.02508 0.42425 0.23112 0.0
C2381 C 0.01469 0.44773 0.19626 0.0
C2382 C 0.03631 0.4188 0.22394 0.0
C2383 C 0.04458 0.41825 0.26426 0.0
C2384 C 0.04171 0.42322 0.31201 0.0
C2385 C 0.03036 0.42841 0.31906 0.0
C2386 C 0.02212 0.42878 0.27936 0.0
H2387 H 0.01276 0.45502 0.16858 0.0
H2388 H 0.00985 0.44987 0.23211 0.0
H2389 H 0.02446 0.44767 0.20422 0.0
H2390 H 0.03872 0.41509 0.18715 0.0
H2391 H 0.05323 0.41412 0.2579 0.0
H2392 H 0.85054 0.71167 0.29303 0.0
H2393 H 0.85343 0.72958 0.34516 0.0
H2394 H 0.81519 0.73422 0.35549 0.0
H2395 H 0.81216 0.71633 0.30308 0.0
H2396 H 0.82888 0.75491 0.32005 0.0
H2397 H 0.84686 0.73529 0.49982 0.0
H2398 H 0.85371 0.73045 0.44118 0.0
H2399 H 0.83843 0.72657 0.45421 0.0
C2400 C 0.84272 0.71637 0.30706 0.0
C2401 C 0.83111 0.71257 0.29378 0.0
C2402 C 0.84441 0.72659 0.33693 0.0
C2403 C 0.83453 0.73318 0.35417 0.0
C2404 C 0.82292 0.72922 0.34246 0.0
H2405 H 0.81637 0.79497 0.52167 0.0
H2406 H 0.81829 0.77913 0.45848 0.0
C2407 C 0.82121 0.71897 0.31275 0.0
C2408 C 0.83627 0.74458 0.38191 0.0
H2409 H 0.84573 0.75631 0.49517 0.0
C2410 C 0.83261 0.75524 0.35827 0.0
C2411 C 0.84132 0.74497 0.43132 0.0
C2412 C 0.84526 0.73373 0.45849 0.0
C2413 C 0.83363 0.7663 0.38327 0.0
C2414 C 0.8382 0.76665 0.43359 0.0
C2415 C 0.84227 0.75603 0.45649 0.0
C2416 C 0.83754 0.7776 0.46539 0.0
C2417 C 0.82973 0.7775 0.35566 0.0
C2418 C 0.84776 0.78215 0.48993 0.0
C2419 C 0.84668 0.79126 0.52641 0.0
C2420 C 0.83533 0.79579 0.53935 0.0
C2421 C 0.82523 0.79166 0.51258 0.0
C2422 C 0.82632 0.78264 0.47613 0.0
H2423 H 0.83053 0.77642 0.31363 0.0
H2424 H 0.82018 0.7793 0.36448 0.0
H2425 H 0.8351 0.78538 0.36765 0.0
H2426 H 0.85649 0.77832 0.48235 0.0
H2427 H 0.85461 0.7942 0.54671 0.0
H2428 H 0.53993 0.56201 0.57348 0.0
H2429 H 0.52241 0.56414 0.62879 0.0
H2430 H 0.52375 0.60249 0.61068 0.0
H2431 H 0.54116 0.60048 0.5549 0.0
H2432 H 0.51832 0.57699 0.71959 0.0
H2433 H 0.48999 0.59385 0.56034 0.0
H2434 H 0.5044 0.58696 0.54987 0.0
H2435 H 0.50349 0.60217 0.57191 0.0
C2436 C 0.53662 0.57092 0.58187 0.0
C2437 C 0.54187 0.58106 0.55929 0.0
C2438 C 0.52658 0.57211 0.61333 0.0
C2439 C 0.52162 0.58345 0.6227 0.0
C2440 C 0.52727 0.59364 0.60283 0.0
H2441 H 0.45828 0.60156 0.80541 0.0
H2442 H 0.47566 0.60333 0.74835 0.0
C2443 C 0.53728 0.59246 0.57128 0.0
C2444 C 0.51034 0.58453 0.65203 0.0
H2445 H 0.4809 0.59259 0.64164 0.0
C2446 C 0.51016 0.58045 0.70263 0.0
C2447 C 0.49971 0.58907 0.62971 0.0
C2448 C 0.49931 0.59318 0.57485 0.0
C2449 C 0.49958 0.58069 0.73146 0.0
C2450 C 0.48892 0.58498 0.70883 0.0
C2451 C 0.48913 0.58934 0.6587 0.0
C2452 C 0.47737 0.58425 0.73612 0.0
C2453 C 0.49985 0.57626 0.78588 0.0
C2454 C 0.47231 0.57301 0.74579 0.0
C2455 C 0.46244 0.57197 0.77798 0.0
C2456 C 0.45743 0.58218 0.80107 0.0
C2457 C 0.46193 0.59354 0.78811 0.0
C2458 C 0.47188 0.59457 0.75579 0.0
H2459 H 0.50913 0.57573 0.80103 0.0
H2460 H 0.49448 0.58219 0.81104 0.0
H2461 H 0.49587 0.56716 0.78749 0.0
H2462 H 0.47636 0.56498 0.73026 0.0
H2463 H 0.45911 0.5631 0.78678 0.0
H2464 H 0.31341 0.20827 0.53251 0.0
H2465 H 0.31512 0.22453 0.47116 0.0
H2466 H 0.35351 0.2244 0.48901 0.0
H2467 H 0.35185 0.2081 0.55152 0.0
H2468 H 0.34327 0.2466 0.50567 0.0
H2469 H 0.32625 0.22763 0.32466 0.0
H2470 H 0.31628 0.22478 0.37695 0.0
H2471 H 0.33107 0.21834 0.37724 0.0
C2472 C 0.32226 0.21147 0.52251 0.0
C2473 C 0.3325 0.20694 0.54706 0.0
C2474 C 0.32322 0.22074 0.48711 0.0
C2475 C 0.33444 0.22562 0.4752 0.0
C2476 C 0.34477 0.2207 0.49753 0.0
H2477 H 0.3492 0.29123 0.30498 0.0
H2478 H 0.35133 0.27336 0.3579 0.0
C2479 C 0.34382 0.21135 0.53297 0.0
C2480 C 0.33508 0.23671 0.44428 0.0
H2481 H 0.32551 0.24911 0.33243 0.0
C2482 C 0.33959 0.24712 0.46742 0.0
C2483 C 0.3302 0.23737 0.39455 0.0
C2484 C 0.32579 0.2264 0.36672 0.0
C2485 C 0.33885 0.25829 0.443 0.0
C2486 C 0.33358 0.259 0.39407 0.0
C2487 C 0.32941 0.24854 0.37029 0.0
C2488 C 0.33229 0.2705 0.36661 0.0
C2489 C 0.34331 0.2693 0.47042 0.0
C2490 C 0.32086 0.2749 0.35453 0.0
C2491 C 0.31959 0.28514 0.32432 0.0
C2492 C 0.32975 0.29107 0.30519 0.0
C2493 C 0.34118 0.28689 0.31911 0.0
C2494 C 0.34244 0.27669 0.34946 0.0
H2495 H 0.34479 0.26762 0.51174 0.0
H2496 H 0.35194 0.27216 0.45337 0.0
H2497 H 0.33685 0.2768 0.46617 0.0
H2498 H 0.31292 0.27022 0.36746 0.0
H2499 H 0.31066 0.28807 0.31415 0.0
H2500 H 0.54335 0.59937 0.30116 0.0
H2501 H 0.5262 0.60009 0.24252 0.0
H2502 H 0.52488 0.56152 0.24057 0.0
H2503 H 0.54184 0.56069 0.29912 0.0
H2504 H 0.52121 0.58917 0.14351 0.0
H2505 H 0.49189 0.57203 0.29827 0.0
H2506 H 0.50667 0.57794 0.3102 0.0
H2507 H 0.50487 0.56298 0.28613 0.0
C2508 C 0.53957 0.59105 0.28729 0.0
C2509 C 0.54383 0.57998 0.30527 0.0
C2510 C 0.52975 0.59148 0.25404 0.0
C2511 C 0.52412 0.58085 0.23841 0.0
C2512 C 0.52895 0.56981 0.25321 0.0
H2513 H 0.46258 0.5592 0.06349 0.0
H2514 H 0.48003 0.5606 0.11981 0.0
C2515 C 0.53867 0.56937 0.28647 0.0
C2516 C 0.51281 0.58119 0.20909 0.0
H2517 H 0.48343 0.57282 0.21508 0.0
C2518 C 0.51292 0.5857 0.15918 0.0
C2519 C 0.50202 0.57668 0.2299 0.0
C2520 C 0.50127 0.57223 0.28423 0.0
C2521 C 0.50256 0.58544 0.12876 0.0
C2522 C 0.49183 0.58071 0.14929 0.0
C2523 C 0.49169 0.57639 0.1995 0.0
C2524 C 0.48071 0.57996 0.11879 0.0
C2525 C 0.50327 0.58988 0.07442 0.0
C2526 C 0.47507 0.59039 0.10136 0.0
C2527 C 0.4651 0.58964 0.06941 0.0
C2528 C 0.46055 0.57841 0.05441 0.0
C2529 C 0.46585 0.56798 0.07422 0.0
C2530 C 0.47584 0.56876 0.10624 0.0
H2531 H 0.51268 0.59074 0.06114 0.0
H2532 H 0.49843 0.58374 0.04821 0.0
H2533 H 0.499 0.59882 0.0719 0.0
H2534 H 0.47854 0.59913 0.11161 0.0
H2535 H 0.46119 0.59786 0.05519 0.0
H2536 H 0.14805 0.79455 0.0426 0.0
H2537 H 0.14629 0.77772 0.98261 0.0
H2538 H 0.18472 0.77646 0.96835 0.0
H2539 H 0.18657 0.79313 0.02796 0.0
H2540 H 0.15695 0.77286 0.8773 0.0
H2541 H 0.17357 0.74351 0.03326 0.0
H2542 H 0.16749 0.75825 0.04485 0.0
H2543 H 0.18248 0.75661 0.021 0.0
C2544 C 0.15609 0.79091 0.0255 0.0
C2545 C 0.16745 0.79505 0.04046 0.0
C2546 C 0.15507 0.78128 0.9915 0.0
C2547 C 0.1654 0.77574 0.9721 0.0
C2548 C 0.17667 0.78051 0.98367 0.0
H2549 H 0.18699 0.71376 0.80358 0.0
H2550 H 0.18511 0.73135 0.85863 0.0
C2551 C 0.1777 0.79006 0.0176 0.0
C2552 C 0.16461 0.76439 0.94337 0.0
H2553 H 0.1724 0.73488 0.95063 0.0
C2554 C 0.16018 0.76451 0.89333 0.0
C2555 C 0.16884 0.75355 0.96471 0.0
C2556 C 0.17328 0.75288 0.01906 0.0
C2557 C 0.16033 0.7541 0.86318 0.0
C2558 C 0.16484 0.74332 0.88417 0.0
C2559 C 0.16898 0.74317 0.93467 0.0
C2560 C 0.16579 0.7322 0.85369 0.0
C2561 C 0.1561 0.75483 0.80855 0.0
C2562 C 0.15551 0.72662 0.83425 0.0
C2563 C 0.15655 0.71656 0.80289 0.0
C2564 C 0.16789 0.71186 0.79058 0.0
C2565 C 0.17813 0.71715 0.81219 0.0
C2566 C 0.17708 0.72722 0.84353 0.0
H2567 H 0.15539 0.76424 0.79511 0.0
H2568 H 0.16227 0.7499 0.78279 0.0
H2569 H 0.14711 0.75066 0.80548 0.0
H2570 H 0.14671 0.73017 0.84266 0.0
H2571 H 0.14846 0.71267 0.7872 0.0
H2572 H 0.03902 0.39536 0.53381 0.0
H2573 H 0.02143 0.39091 0.58589 0.0
H2574 H 0.02232 0.42668 0.64764 0.0
H2575 H 0.03996 0.43125 0.59577 0.0
H2576 H 0.01695 0.4075 0.72029 0.0
H2577 H 0.98871 0.40651 0.54507 0.0
H2578 H 0.0017 0.397 0.54562 0.0
H2579 H 0.00353 0.41296 0.54578 0.0
C2580 C 0.03562 0.40224 0.55911 0.0
C2581 C 0.04083 0.41373 0.56015 0.0
C2582 C 0.02553 0.39968 0.58863 0.0
C2583 C 0.02047 0.40854 0.61973 0.0
C2584 C 0.02608 0.41975 0.62352 0.0
H2585 H 0.95425 0.42707 0.74716 0.0
H2586 H 0.9713 0.42308 0.69146 0.0
C2587 C 0.03617 0.42234 0.59393 0.0
C2588 C 0.00892 0.40645 0.64583 0.0
H2589 H 0.97889 0.40383 0.62365 0.0
C2590 C 0.00863 0.40652 0.69931 0.0
C2591 C 0.99811 0.40528 0.61806 0.0
C2592 C 0.99792 0.4055 0.56045 0.0
C2593 C 0.99776 0.40573 0.72591 0.0
C2594 C 0.98692 0.40476 0.69815 0.0
C2595 C 0.98723 0.40441 0.64467 0.0
C2596 C 0.97519 0.40572 0.724 0.0
C2597 C 0.99787 0.40656 0.78344 0.0
C2598 C 0.97131 0.39694 0.75859 0.0
C2599 C 0.96147 0.39915 0.79034 0.0
C2600 C 0.95549 0.41022 0.78806 0.0
C2601 C 0.95874 0.41849 0.75004 0.0
C2602 C 0.96849 0.41624 0.7182 0.0
H2603 H 0.00685 0.40897 0.79857 0.0
H2604 H 0.9913 0.41335 0.79673 0.0
H2605 H 0.99525 0.39779 0.79989 0.0
H2606 H 0.9763 0.38869 0.76306 0.0
H2607 H 0.9592 0.39262 0.81933 0.0
H2608 H 0.31256 0.71647 0.19934 0.0
H2609 H 0.31519 0.73446 0.14713 0.0
H2610 H 0.35342 0.72917 0.14809 0.0
H2611 H 0.35092 0.71115 0.19982 0.0
H2612 H 0.32923 0.75483 0.17917 0.0
H2613 H 0.34538 0.73536 0.99613 0.0
H2614 H 0.33759 0.72658 0.04355 0.0
H2615 H 0.35303 0.73048 0.05284 0.0
C2616 C 0.32151 0.71898 0.1876 0.0
C2617 C 0.33153 0.71237 0.20381 0.0
C2618 C 0.323 0.7293 0.15804 0.0
C2619 C 0.33449 0.7331 0.14373 0.0
C2620 C 0.34447 0.7263 0.15826 0.0
H2621 H 0.35448 0.79408 0.95155 0.0
H2622 H 0.35635 0.77818 0.0158 0.0
C2623 C 0.34301 0.71602 0.18793 0.0
C2624 C 0.33608 0.74454 0.11605 0.0
H2625 H 0.34499 0.75641 0.00225 0.0
C2626 C 0.33271 0.7552 0.14052 0.0
C2627 C 0.34079 0.74497 0.06602 0.0
C2628 C 0.34434 0.73375 0.03776 0.0
C2629 C 0.33373 0.7663 0.11587 0.0
C2630 C 0.33803 0.76671 0.06514 0.0
C2631 C 0.34177 0.75608 0.04128 0.0
C2632 C 0.33745 0.77776 0.03396 0.0
C2633 C 0.33015 0.77749 0.14431 0.0
C2634 C 0.32628 0.78299 0.02405 0.0
C2635 C 0.3252 0.79202 0.98763 0.0
C2636 C 0.33527 0.79596 0.96012 0.0
C2637 C 0.34659 0.79129 0.97244 0.0
C2638 C 0.34765 0.78216 0.00886 0.0
H2639 H 0.33107 0.77628 0.18624 0.0
H2640 H 0.33564 0.78529 0.13238 0.0
H2641 H 0.32061 0.77951 0.13615 0.0
H2642 H 0.31825 0.7796 0.04219 0.0
H2643 H 0.31636 0.79545 0.97899 0.0
H2644 H 0.95811 0.56467 0.71432 0.0
H2645 H 0.97422 0.56536 0.77694 0.0
H2646 H 0.9735 0.60396 0.77347 0.0
H2647 H 0.95731 0.60335 0.71007 0.0
H2648 H 0.9961 0.5938 0.75308 0.0
H2649 H 0.97639 0.57417 0.92815 0.0
H2650 H 0.97364 0.56535 0.87207 0.0
H2651 H 0.96734 0.58013 0.87692 0.0
C2652 C 0.96116 0.57333 0.72775 0.0
C2653 C 0.95647 0.58397 0.70712 0.0
C2654 C 0.97034 0.5737 0.76379 0.0
C2655 C 0.975 0.58471 0.78008 0.0
C2656 C 0.96996 0.59537 0.76151 0.0
H2657 H 0.0399 0.5989 0.95484 0.0
H2658 H 0.0222 0.60091 0.90095 0.0
C2659 C 0.96068 0.59501 0.72557 0.0
C2660 C 0.98596 0.58491 0.81185 0.0
H2661 H 0.99781 0.57431 0.92308 0.0
C2662 C 0.99646 0.5897 0.7906 0.0
C2663 C 0.9864 0.57946 0.86051 0.0
C2664 C 0.97531 0.57458 0.88601 0.0
C2665 C 0.00749 0.5888 0.81595 0.0
C2666 C 0.00798 0.58311 0.86413 0.0
C2667 C 0.99743 0.57856 0.88588 0.0
C2668 C 0.0193 0.58186 0.89302 0.0
C2669 C 0.0186 0.59355 0.79018 0.0
C2670 C 0.02358 0.57045 0.9063 0.0
C2671 C 0.0337 0.56925 0.93733 0.0
C2672 C 0.03966 0.57945 0.95597 0.0
C2673 C 0.03556 0.59085 0.94107 0.0
C2674 C 0.02546 0.59203 0.91008 0.0
H2675 H 0.01723 0.59483 0.74851 0.0
H2676 H 0.02094 0.60237 0.80698 0.0
H2677 H 0.0263 0.58742 0.79601 0.0
H2678 H 0.01893 0.56249 0.89351 0.0
H2679 H 0.03657 0.56035 0.94821 0.0
H2680 H 0.1898 0.28977 0.68017 0.0
H2681 H 0.18761 0.27191 0.62685 0.0
H2682 H 0.14928 0.27349 0.64488 0.0
H2683 H 0.15133 0.29136 0.69791 0.0
H2684 H 0.17613 0.25029 0.66477 0.0
H2685 H 0.15439 0.26812 0.48927 0.0
H2686 H 0.16256 0.27757 0.53306 0.0
H2687 H 0.14782 0.27242 0.54924 0.0
C2688 C 0.18089 0.28649 0.67189 0.0
C2689 C 0.17075 0.29198 0.69345 0.0
C2690 C 0.17966 0.27625 0.64165 0.0
C2691 C 0.16829 0.27141 0.63196 0.0
C2692 C 0.15812 0.27716 0.65149 0.0
H2693 H 0.15011 0.20835 0.44815 0.0
H2694 H 0.1481 0.22456 0.51086 0.0
C2695 C 0.15933 0.28736 0.68189 0.0
C2696 C 0.16715 0.25989 0.60462 0.0
H2697 H 0.1571 0.24722 0.49415 0.0
C2698 C 0.17195 0.24959 0.62751 0.0
C2699 C 0.16149 0.25901 0.55653 0.0
C2700 C 0.15632 0.26985 0.53021 0.0
C2701 C 0.17144 0.23843 0.60306 0.0
C2702 C 0.16622 0.23762 0.55399 0.0
C2703 C 0.16106 0.24785 0.53187 0.0
C2704 C 0.16717 0.22663 0.5226 0.0
C2705 C 0.17653 0.22763 0.62997 0.0
C2706 C 0.17853 0.22227 0.50937 0.0
C2707 C 0.17969 0.21305 0.47391 0.0
C2708 C 0.16953 0.20804 0.45052 0.0
C2709 C 0.15811 0.21197 0.46576 0.0
C2710 C 0.15695 0.22127 0.50132 0.0
H2711 H 0.17627 0.22876 0.67211 0.0
H2712 H 0.17158 0.21935 0.61972 0.0
H2713 H 0.18604 0.22649 0.61869 0.0
H2714 H 0.18655 0.22642 0.52448 0.0
H2715 H 0.18862 0.21023 0.46303 0.0
H2716 H 0.46355 0.44085 0.43837 0.0
H2717 H 0.48127 0.43931 0.3838 0.0
H2718 H 0.47931 0.40079 0.39124 0.0
H2719 H 0.46155 0.40221 0.44512 0.0
H2720 H 0.50277 0.42796 0.4147 0.0
H2721 H 0.48427 0.40727 0.23853 0.0
H2722 H 0.47491 0.41447 0.28564 0.0
H2723 H 0.4806 0.39966 0.29689 0.0
C2724 C 0.46672 0.43205 0.42749 0.0
C2725 C 0.46113 0.42166 0.4462 0.0
C2726 C 0.47688 0.43119 0.39654 0.0
C2727 C 0.48156 0.41994 0.38337 0.0
C2728 C 0.47575 0.40956 0.40035 0.0
H2729 H 0.54442 0.40123 0.19991 0.0
H2730 H 0.52815 0.39972 0.26267 0.0
C2731 C 0.46561 0.4104 0.43131 0.0
C2732 C 0.49297 0.41908 0.35486 0.0
H2733 H 0.50532 0.40915 0.24349 0.0
C2734 C 0.50334 0.42386 0.37725 0.0
C2735 C 0.49369 0.41355 0.3064 0.0
C2736 C 0.48277 0.40852 0.28013 0.0
C2737 C 0.51443 0.42338 0.35217 0.0
C2738 C 0.5151 0.41814 0.30312 0.0
C2739 C 0.50479 0.41309 0.28128 0.0
C2740 C 0.52607 0.41887 0.27158 0.0
C2741 C 0.52532 0.42847 0.37841 0.0
C2742 C 0.53042 0.43012 0.25675 0.0
C2743 C 0.53964 0.431 0.22112 0.0
C2744 C 0.54468 0.42065 0.19938 0.0
C2745 C 0.54077 0.40936 0.21627 0.0
C2746 C 0.53145 0.40848 0.25185 0.0
H2747 H 0.5242 0.42856 0.42056 0.0
H2748 H 0.53349 0.42328 0.36878 0.0
H2749 H 0.52666 0.43785 0.36568 0.0
H2750 H 0.52627 0.43824 0.27077 0.0
H2751 H 0.54247 0.43983 0.20893 0.0
loop_
_geom_bond_atom_site_label_1
_geom_bond_atom_site_label_2
_geom_bond_distance
_geom_bond_site_symmetry_2
_ccdc_geom_bond_type
O0 Cd1 2.223 . S
O0 C8 1.315 . S
Cd1 O0 2.223 . S
Cd1 O4 2.297 . S
Cd1 O5 2.439 . S
Cd1 O11 2.240 . S
Cd2 O3 2.240 . S
Cd2 O10 2.223 . S
Cd2 O12 2.297 . S
Cd2 O13 2.439 . S
O3 Cd2 2.240 . S
O3 C8 1.279 . S
O4 Cd1 2.297 . S
O4 C6 1.247 . S
O5 Cd1 2.439 . S
O5 C6 1.208 . S
C6 O4 1.247 . S
C6 O5 1.208 . S
C7 O12 1.247 . S
C7 O13 1.208 . S
C8 O0 1.315 . S
C8 O3 1.279 . S
C9 O10 1.315 . S
C9 O11 1.279 . S
O10 Cd2 2.223 . S
O10 C9 1.315 . S
O11 Cd1 2.240 . S
O11 C9 1.279 . S
O12 Cd2 2.297 . S
O12 C7 1.247 . S
O13 Cd2 2.439 . S
O13 C7 1.208 . S
O14 Cd15 2.223 . S
O14 C22 1.315 . S
Cd15 O14 2.223 . S
Cd15 O18 2.297 . S
Cd15 O19 2.439 . S
Cd15 O25 2.240 . S
Cd16 O17 2.240 . S
Cd16 O24 2.223 . S
Cd16 O26 2.297 . S
Cd16 O27 2.439 . S
O17 Cd16 2.240 . S
O17 C22 1.279 . S
O18 Cd15 2.297 . S
O18 C20 1.247 . S
O19 Cd15 2.439 . S
O19 C20 1.208 . S
C20 O18 1.247 . S
C20 O19 1.208 . S
C21 O26 1.247 . S
C21 O27 1.208 . S
C22 O14 1.315 . S
C22 O17 1.279 . S
C23 O24 1.315 . S
C23 O25 1.279 . S
O24 Cd16 2.223 . S
O24 C23 1.315 . S
O25 Cd15 2.240 . S
O25 C23 1.279 . S
O26 Cd16 2.297 . S
O26 C21 1.247 . S
O27 Cd16 2.439 . S
O27 C21 1.208 . S
O28 Cd29 2.223 . S
O28 C36 1.315 . S
Cd29 O28 2.223 . S
Cd29 O32 2.297 . S
Cd29 O33 2.439 . S
Cd29 O39 2.240 . S
Cd30 O31 2.240 . S
Cd30 O38 2.223 . S
Cd30 O40 2.297 . S
Cd30 O41 2.439 . S
O31 Cd30 2.240 . S
O31 C36 1.279 . S
O32 Cd29 2.297 . S
O32 C34 1.247 . S
O33 Cd29 2.439 . S
O33 C34 1.208 . S
C34 O32 1.247 . S
C34 O33 1.208 . S
C35 O40 1.247 . S
C35 O41 1.208 . S
C36 O28 1.315 . S
C36 O31 1.279 . S
C37 O38 1.315 . S
C37 O39 1.279 . S
O38 Cd30 2.223 . S
O38 C37 1.315 . S
O39 Cd29 2.240 . S
O39 C37 1.279 . S
O40 Cd30 2.297 . S
O40 C35 1.247 . S
O41 Cd30 2.439 . S
O41 C35 1.208 . S
O42 Cd43 2.223 . S
O42 C50 1.315 . S
Cd43 O42 2.223 . S
Cd43 O46 2.297 . S
Cd43 O47 2.439 . S
Cd43 O53 2.240 . S
Cd44 O45 2.240 . S
Cd44 O52 2.223 . S
Cd44 O54 2.297 . S
Cd44 O55 2.439 . S
O45 Cd44 2.240 . S
O45 C50 1.279 . S
O46 Cd43 2.297 . S
O46 C48 1.247 . S
O47 Cd43 2.439 . S
O47 C48 1.208 . S
C48 O46 1.247 . S
C48 O47 1.208 . S
C49 O54 1.247 . S
C49 O55 1.208 . S
C50 O42 1.315 . S
C50 O45 1.279 . S
C51 O52 1.315 . S
C51 O53 1.279 . S
O52 Cd44 2.223 . S
O52 C51 1.315 . S
O53 Cd43 2.240 . S
O53 C51 1.279 . S
O54 Cd44 2.297 . S
O54 C49 1.247 . S
O55 Cd44 2.439 . S
O55 C49 1.208 . S
O56 Cd57 2.223 . S
O56 C64 1.315 . S
Cd57 O56 2.223 . S
Cd57 O60 2.297 . S
Cd57 O61 2.439 . S
Cd57 O67 2.240 . S
Cd58 O59 2.240 . S
Cd58 O66 2.223 . S
Cd58 O68 2.297 . S
Cd58 O69 2.439 . S
O59 Cd58 2.240 . S
O59 C64 1.279 . S
O60 Cd57 2.297 . S
O60 C62 1.247 . S
O61 Cd57 2.439 . S
O61 C62 1.208 . S
C62 O60 1.247 . S
C62 O61 1.208 . S
C63 O68 1.247 . S
C63 O69 1.208 . S
C64 O56 1.315 . S
C64 O59 1.279 . S
C65 O66 1.315 . S
C65 O67 1.279 . S
O66 Cd58 2.223 . S
O66 C65 1.315 . S
O67 Cd57 2.240 . S
O67 C65 1.279 . S
O68 Cd58 2.297 . S
O68 C63 1.247 . S
O69 Cd58 2.439 . S
O69 C63 1.208 . S
O70 Cd71 2.223 . S
O70 C78 1.315 . S
Cd71 O70 2.223 . S
Cd71 O74 2.297 . S
Cd71 O75 2.439 . S
Cd71 O81 2.240 . S
Cd72 O73 2.240 . S
Cd72 O80 2.223 . S
Cd72 O82 2.297 . S
Cd72 O83 2.439 . S
O73 Cd72 2.240 . S
O73 C78 1.279 . S
O74 Cd71 2.297 . S
O74 C76 1.247 . S
O75 Cd71 2.439 . S
O75 C76 1.208 . S
C76 O74 1.247 . S
C76 O75 1.208 . S
C77 O82 1.247 . S
C77 O83 1.208 . S
C78 O70 1.315 . S
C78 O73 1.279 . S
C79 O80 1.315 . S
C79 O81 1.279 . S
O80 Cd72 2.223 . S
O80 C79 1.315 . S
O81 Cd71 2.240 . S
O81 C79 1.279 . S
O82 Cd72 2.297 . S
O82 C77 1.247 . S
O83 Cd72 2.439 . S
O83 C77 1.208 . S
O84 Cd85 2.223 . S
O84 C92 1.315 . S
Cd85 O84 2.223 . S
Cd85 O88 2.297 . S
Cd85 O89 2.439 . S
Cd85 O95 2.240 . S
Cd86 O87 2.240 . S
Cd86 O94 2.223 . S
Cd86 O96 2.297 . S
Cd86 O97 2.439 . S
O87 Cd86 2.240 . S
O87 C92 1.279 . S
O88 Cd85 2.297 . S
O88 C90 1.247 . S
O89 Cd85 2.439 . S
O89 C90 1.208 . S
C90 O88 1.247 . S
C90 O89 1.208 . S
C91 O96 1.247 . S
C91 O97 1.208 . S
C92 O84 1.315 . S
C92 O87 1.279 . S
C93 O94 1.315 . S
C93 O95 1.279 . S
O94 Cd86 2.223 . S
O94 C93 1.315 . S
O95 Cd85 2.240 . S
O95 C93 1.279 . S
O96 Cd86 2.297 . S
O96 C91 1.247 . S
O97 Cd86 2.439 . S
O97 C91 1.208 . S
O98 Cd99 2.223 . S
O98 C106 1.315 . S
Cd99 O98 2.223 . S
Cd99 O102 2.297 . S
Cd99 O103 2.439 . S
Cd99 O109 2.240 . S
Cd100 O101 2.240 . S
Cd100 O108 2.223 . S
Cd100 O110 2.297 . S
Cd100 O111 2.439 . S
O101 Cd100 2.240 . S
O101 C106 1.279 . S
O102 Cd99 2.297 . S
O102 C104 1.247 . S
O103 Cd99 2.439 . S
O103 C104 1.208 . S
C104 O102 1.247 . S
C104 O103 1.208 . S
C105 O110 1.247 . S
C105 O111 1.208 . S
C106 O98 1.315 . S
C106 O101 1.279 . S
C107 O108 1.315 . S
C107 O109 1.279 . S
O108 Cd100 2.223 . S
O108 C107 1.315 . S
O109 Cd99 2.240 . S
O109 C107 1.279 . S
O110 Cd100 2.297 . S
O110 C105 1.247 . S
O111 Cd100 2.439 . S
O111 C105 1.208 . S
O112 Cd113 2.223 . S
O112 C120 1.315 . S
Cd113 O112 2.223 . S
Cd113 O116 2.297 . S
Cd113 O117 2.439 . S
Cd113 O123 2.240 . S
Cd114 O115 2.240 . S
Cd114 O122 2.223 . S
Cd114 O124 2.297 . S
Cd114 O125 2.439 . S
O115 Cd114 2.240 . S
O115 C120 1.279 . S
O116 Cd113 2.297 . S
O116 C118 1.247 . S
O117 Cd113 2.439 . S
O117 C118 1.208 . S
C118 O116 1.247 . S
C118 O117 1.208 . S
C119 O124 1.247 . S
C119 O125 1.208 . S
C120 O112 1.315 . S
C120 O115 1.279 . S
C121 O122 1.315 . S
C121 O123 1.279 . S
O122 Cd114 2.223 . S
O122 C121 1.315 . S
O123 Cd113 2.240 . S
O123 C121 1.279 . S
O124 Cd114 2.297 . S
O124 C119 1.247 . S
O125 Cd114 2.439 . S
O125 C119 1.208 . S
O126 Cd127 2.223 . S
O126 C134 1.315 . S
Cd127 O126 2.223 . S
Cd127 O130 2.297 . S
Cd127 O131 2.439 . S
Cd127 O137 2.240 . S
Cd128 O129 2.240 . S
Cd128 O136 2.223 . S
Cd128 O138 2.297 . S
Cd128 O139 2.439 . S
O129 Cd128 2.240 . S
O129 C134 1.279 . S
O130 Cd127 2.297 . S
O130 C132 1.247 . S
O131 Cd127 2.439 . S
O131 C132 1.208 . S
C132 O130 1.247 . S
C132 O131 1.208 . S
C133 O138 1.247 . S
C133 O139 1.208 . S
C134 O126 1.315 . S
C134 O129 1.279 . S
C135 O136 1.315 . S
C135 O137 1.279 . S
O136 Cd128 2.223 . S
O136 C135 1.315 . S
O137 Cd127 2.240 . S
O137 C135 1.279 . S
O138 Cd128 2.297 . S
O138 C133 1.247 . S
O139 Cd128 2.439 . S
O139 C133 1.208 . S
O140 Cd141 2.223 . S
O140 C148 1.315 . S
Cd141 O140 2.223 . S
Cd141 O144 2.297 . S
Cd141 O145 2.439 . S
Cd141 O151 2.240 . S
Cd142 O143 2.240 . S
Cd142 O150 2.223 . S
Cd142 O152 2.297 . S
Cd142 O153 2.439 . S
O143 Cd142 2.240 . S
O143 C148 1.279 . S
O144 Cd141 2.297 . S
O144 C146 1.247 . S
O145 Cd141 2.439 . S
O145 C146 1.208 . S
C146 O144 1.247 . S
C146 O145 1.208 . S
C147 O152 1.247 . S
C147 O153 1.208 . S
C148 O140 1.315 . S
C148 O143 1.279 . S
C149 O150 1.315 . S
C149 O151 1.279 . S
O150 Cd142 2.223 . S
O150 C149 1.315 . S
O151 Cd141 2.240 . S
O151 C149 1.279 . S
O152 Cd142 2.297 . S
O152 C147 1.247 . S
O153 Cd142 2.439 . S
O153 C147 1.208 . S
O154 Cd155 2.223 . S
O154 C162 1.315 . S
Cd155 O154 2.223 . S
Cd155 O158 2.297 . S
Cd155 O159 2.439 . S
Cd155 O165 2.240 . S
Cd156 O157 2.240 . S
Cd156 O164 2.223 . S
Cd156 O166 2.297 . S
Cd156 O167 2.439 . S
O157 Cd156 2.240 . S
O157 C162 1.279 . S
O158 Cd155 2.297 . S
O158 C160 1.247 . S
O159 Cd155 2.439 . S
O159 C160 1.208 . S
C160 O158 1.247 . S
C160 O159 1.208 . S
C161 O166 1.247 . S
C161 O167 1.208 . S
C162 O154 1.315 . S
C162 O157 1.279 . S
C163 O164 1.315 . S
C163 O165 1.279 . S
O164 Cd156 2.223 . S
O164 C163 1.315 . S
O165 Cd155 2.240 . S
O165 C163 1.279 . S
O166 Cd156 2.297 . S
O166 C161 1.247 . S
O167 Cd156 2.439 . S
O167 C161 1.208 . S
O168 Cd169 2.223 . S
O168 C176 1.315 . S
Cd169 O168 2.223 . S
Cd169 O172 2.297 . S
Cd169 O173 2.439 . S
Cd169 O179 2.240 . S
Cd170 O171 2.240 . S
Cd170 O178 2.223 . S
Cd170 O180 2.297 . S
Cd170 O181 2.439 . S
O171 Cd170 2.240 . S
O171 C176 1.279 . S
O172 Cd169 2.297 . S
O172 C174 1.247 . S
O173 Cd169 2.439 . S
O173 C174 1.208 . S
C174 O172 1.247 . S
C174 O173 1.208 . S
C175 O180 1.247 . S
C175 O181 1.208 . S
C176 O168 1.315 . S
C176 O171 1.279 . S
C177 O178 1.315 . S
C177 O179 1.279 . S
O178 Cd170 2.223 . S
O178 C177 1.315 . S
O179 Cd169 2.240 . S
O179 C177 1.279 . S
O180 Cd170 2.297 . S
O180 C175 1.247 . S
O181 Cd170 2.439 . S
O181 C175 1.208 . S
O182 Cd183 2.223 . S
O182 C190 1.315 . S
Cd183 O182 2.223 . S
Cd183 O186 2.297 . S
Cd183 O187 2.439 . S
Cd183 O193 2.240 . S
Cd184 O185 2.240 . S
Cd184 O192 2.223 . S
Cd184 O194 2.297 . S
Cd184 O195 2.439 . S
O185 Cd184 2.240 . S
O185 C190 1.279 . S
O186 Cd183 2.297 . S
O186 C188 1.247 . S
O187 Cd183 2.439 . S
O187 C188 1.208 . S
C188 O186 1.247 . S
C188 O187 1.208 . S
C189 O194 1.247 . S
C189 O195 1.208 . S
C190 O182 1.315 . S
C190 O185 1.279 . S
C191 O192 1.315 . S
C191 O193 1.279 . S
O192 Cd184 2.223 . S
O192 C191 1.315 . S
O193 Cd183 2.240 . S
O193 C191 1.279 . S
O194 Cd184 2.297 . S
O194 C189 1.247 . S
O195 Cd184 2.439 . S
O195 C189 1.208 . S
O196 Cd197 2.223 . S
O196 C204 1.315 . S
Cd197 O196 2.223 . S
Cd197 O200 2.297 . S
Cd197 O201 2.439 . S
Cd197 O207 2.240 . S
Cd198 O199 2.240 . S
Cd198 O206 2.223 . S
Cd198 O208 2.297 . S
Cd198 O209 2.439 . S
O199 Cd198 2.240 . S
O199 C204 1.279 . S
O200 Cd197 2.297 . S
O200 C202 1.247 . S
O201 Cd197 2.439 . S
O201 C202 1.208 . S
C202 O200 1.247 . S
C202 O201 1.208 . S
C203 O208 1.247 . S
C203 O209 1.208 . S
C204 O196 1.315 . S
C204 O199 1.279 . S
C205 O206 1.315 . S
C205 O207 1.279 . S
O206 Cd198 2.223 . S
O206 C205 1.315 . S
O207 Cd197 2.240 . S
O207 C205 1.279 . S
O208 Cd198 2.297 . S
O208 C203 1.247 . S
O209 Cd198 2.439 . S
O209 C203 1.208 . S
O210 Cd211 2.223 . S
O210 C218 1.315 . S
Cd211 O210 2.223 . S
Cd211 O214 2.297 . S
Cd211 O215 2.439 . S
Cd211 O221 2.240 . S
Cd212 O213 2.240 . S
Cd212 O220 2.223 . S
Cd212 O222 2.297 . S
Cd212 O223 2.439 . S
O213 Cd212 2.240 . S
O213 C218 1.279 . S
O214 Cd211 2.297 . S
O214 C216 1.247 . S
O215 Cd211 2.439 . S
O215 C216 1.208 . S
C216 O214 1.247 . S
C216 O215 1.208 . S
C217 O222 1.247 . S
C217 O223 1.208 . S
C218 O210 1.315 . S
C218 O213 1.279 . S
C219 O220 1.315 . S
C219 O221 1.279 . S
O220 Cd212 2.223 . S
O220 C219 1.315 . S
O221 Cd211 2.240 . S
O221 C219 1.279 . S
O222 Cd212 2.297 . S
O222 C217 1.247 . S
O223 Cd212 2.439 . S
O223 C217 1.208 . S
O224 Cd225 2.223 . S
O224 C232 1.315 . S
Cd225 O224 2.223 . S
Cd225 O228 2.297 . S
Cd225 O229 2.439 . S
Cd225 O235 2.240 . S
Cd226 O227 2.240 . S
Cd226 O234 2.223 . S
Cd226 O236 2.297 . S
Cd226 O237 2.439 . S
O227 Cd226 2.240 . S
O227 C232 1.279 . S
O228 Cd225 2.297 . S
O228 C230 1.247 . S
O229 Cd225 2.439 . S
O229 C230 1.208 . S
C230 O228 1.247 . S
C230 O229 1.208 . S
C231 O236 1.247 . S
C231 O237 1.208 . S
C232 O224 1.315 . S
C232 O227 1.279 . S
C233 O234 1.315 . S
C233 O235 1.279 . S
O234 Cd226 2.223 . S
O234 C233 1.315 . S
O235 Cd225 2.240 . S
O235 C233 1.279 . S
O236 Cd226 2.297 . S
O236 C231 1.247 . S
O237 Cd226 2.439 . S
O237 C231 1.208 . S
O238 Cd239 2.223 . S
O238 C246 1.315 . S
Cd239 O238 2.223 . S
Cd239 O242 2.297 . S
Cd239 O243 2.439 . S
Cd239 O249 2.240 . S
Cd240 O241 2.240 . S
Cd240 O248 2.223 . S
Cd240 O250 2.297 . S
Cd240 O251 2.439 . S
O241 Cd240 2.240 . S
O241 C246 1.279 . S
O242 Cd239 2.297 . S
O242 C244 1.247 . S
O243 Cd239 2.439 . S
O243 C244 1.208 . S
C244 O242 1.247 . S
C244 O243 1.208 . S
C245 O250 1.247 . S
C245 O251 1.208 . S
C246 O238 1.315 . S
C246 O241 1.279 . S
C247 O248 1.315 . S
C247 O249 1.279 . S
O248 Cd240 2.223 . S
O248 C247 1.315 . S
O249 Cd239 2.240 . S
O249 C247 1.279 . S
O250 Cd240 2.297 . S
O250 C245 1.247 . S
O251 Cd240 2.439 . S
O251 C245 1.208 . S
O252 Cd253 2.223 . S
O252 C260 1.315 . S
Cd253 O252 2.223 . S
Cd253 O256 2.297 . S
Cd253 O257 2.439 . S
Cd253 O263 2.240 . S
Cd254 O255 2.240 . S
Cd254 O262 2.223 . S
Cd254 O264 2.297 . S
Cd254 O265 2.439 . S
O255 Cd254 2.240 . S
O255 C260 1.279 . S
O256 Cd253 2.297 . S
O256 C258 1.247 . S
O257 Cd253 2.439 . S
O257 C258 1.208 . S
C258 O256 1.247 . S
C258 O257 1.208 . S
C259 O264 1.247 . S
C259 O265 1.208 . S
C260 O252 1.315 . S
C260 O255 1.279 . S
C261 O262 1.315 . S
C261 O263 1.279 . S
O262 Cd254 2.223 . S
O262 C261 1.315 . S
O263 Cd253 2.240 . S
O263 C261 1.279 . S
O264 Cd254 2.297 . S
O264 C259 1.247 . S
O265 Cd254 2.439 . S
O265 C259 1.208 . S
O266 Cd267 2.223 . S
O266 C274 1.315 . S
Cd267 O266 2.223 . S
Cd267 O270 2.297 . S
Cd267 O271 2.439 . S
Cd267 O277 2.240 . S
Cd268 O269 2.240 . S
Cd268 O276 2.223 . S
Cd268 O278 2.297 . S
Cd268 O279 2.439 . S
O269 Cd268 2.240 . S
O269 C274 1.279 . S
O270 Cd267 2.297 . S
O270 C272 1.247 . S
O271 Cd267 2.439 . S
O271 C272 1.208 . S
C272 O270 1.247 . S
C272 O271 1.208 . S
C273 O278 1.247 . S
C273 O279 1.208 . S
C274 O266 1.315 . S
C274 O269 1.279 . S
C275 O276 1.315 . S
C275 O277 1.279 . S
O276 Cd268 2.223 . S
O276 C275 1.315 . S
O277 Cd267 2.240 . S
O277 C275 1.279 . S
O278 Cd268 2.297 . S
O278 C273 1.247 . S
O279 Cd268 2.439 . S
O279 C273 1.208 . S
O280 Cd281 2.223 . S
O280 C288 1.315 . S
Cd281 O280 2.223 . S
Cd281 O284 2.297 . S
Cd281 O285 2.439 . S
Cd281 O291 2.240 . S
Cd282 O283 2.240 . S
Cd282 O290 2.223 . S
Cd282 O292 2.297 . S
Cd282 O293 2.439 . S
O283 Cd282 2.240 . S
O283 C288 1.279 . S
O284 Cd281 2.297 . S
O284 C286 1.247 . S
O285 Cd281 2.439 . S
O285 C286 1.208 . S
C286 O284 1.247 . S
C286 O285 1.208 . S
C287 O292 1.247 . S
C287 O293 1.208 . S
C288 O280 1.315 . S
C288 O283 1.279 . S
C289 O290 1.315 . S
C289 O291 1.279 . S
O290 Cd282 2.223 . S
O290 C289 1.315 . S
O291 Cd281 2.240 . S
O291 C289 1.279 . S
O292 Cd282 2.297 . S
O292 C287 1.247 . S
O293 Cd282 2.439 . S
O293 C287 1.208 . S
O294 Cd295 2.223 . S
O294 C302 1.315 . S
Cd295 O294 2.223 . S
Cd295 O298 2.297 . S
Cd295 O299 2.439 . S
Cd295 O305 2.240 . S
Cd296 O297 2.240 . S
Cd296 O304 2.223 . S
Cd296 O306 2.297 . S
Cd296 O307 2.439 . S
O297 Cd296 2.240 . S
O297 C302 1.279 . S
O298 Cd295 2.297 . S
O298 C300 1.247 . S
O299 Cd295 2.439 . S
O299 C300 1.208 . S
C300 O298 1.247 . S
C300 O299 1.208 . S
C301 O306 1.247 . S
C301 O307 1.208 . S
C302 O294 1.315 . S
C302 O297 1.279 . S
C303 O304 1.315 . S
C303 O305 1.279 . S
O304 Cd296 2.223 . S
O304 C303 1.315 . S
O305 Cd295 2.240 . S
O305 C303 1.279 . S
O306 Cd296 2.297 . S
O306 C301 1.247 . S
O307 Cd296 2.439 . S
O307 C301 1.208 . S
O308 Cd309 2.223 . S
O308 C316 1.315 . S
Cd309 O308 2.223 . S
Cd309 O312 2.297 . S
Cd309 O313 2.439 . S
Cd309 O319 2.240 . S
Cd310 O311 2.240 . S
Cd310 O318 2.223 . S
Cd310 O320 2.297 . S
Cd310 O321 2.439 . S
O311 Cd310 2.240 . S
O311 C316 1.279 . S
O312 Cd309 2.297 . S
O312 C314 1.247 . S
O313 Cd309 2.439 . S
O313 C314 1.208 . S
C314 O312 1.247 . S
C314 O313 1.208 . S
C315 O320 1.247 . S
C315 O321 1.208 . S
C316 O308 1.315 . S
C316 O311 1.279 . S
C317 O318 1.315 . S
C317 O319 1.279 . S
O318 Cd310 2.223 . S
O318 C317 1.315 . S
O319 Cd309 2.240 . S
O319 C317 1.279 . S
O320 Cd310 2.297 . S
O320 C315 1.247 . S
O321 Cd310 2.439 . S
O321 C315 1.208 . S
O322 Cd323 2.223 . S
O322 C330 1.315 . S
Cd323 O322 2.223 . S
Cd323 O326 2.297 . S
Cd323 O327 2.439 . S
Cd323 O333 2.240 . S
Cd324 O325 2.240 . S
Cd324 O332 2.223 . S
Cd324 O334 2.297 . S
Cd324 O335 2.439 . S
O325 Cd324 2.240 . S
O325 C330 1.279 . S
O326 Cd323 2.297 . S
O326 C328 1.247 . S
O327 Cd323 2.439 . S
O327 C328 1.208 . S
C328 O326 1.247 . S
C328 O327 1.208 . S
C329 O334 1.247 . S
C329 O335 1.208 . S
C330 O322 1.315 . S
C330 O325 1.279 . S
C331 O332 1.315 . S
C331 O333 1.279 . S
O332 Cd324 2.223 . S
O332 C331 1.315 . S
O333 Cd323 2.240 . S
O333 C331 1.279 . S
O334 Cd324 2.297 . S
O334 C329 1.247 . S
O335 Cd324 2.439 . S
O335 C329 1.208 . S
O336 Cd337 2.223 . S
O336 C344 1.315 . S
Cd337 O336 2.223 . S
Cd337 O340 2.297 . S
Cd337 O341 2.439 . S
Cd337 O347 2.240 . S
Cd338 O339 2.240 . S
Cd338 O346 2.223 . S
Cd338 O348 2.297 . S
Cd338 O349 2.439 . S
O339 Cd338 2.240 . S
O339 C344 1.279 . S
O340 Cd337 2.297 . S
O340 C342 1.247 . S
O341 Cd337 2.439 . S
O341 C342 1.208 . S
C342 O340 1.247 . S
C342 O341 1.208 . S
C343 O348 1.247 . S
C343 O349 1.208 . S
C344 O336 1.315 . S
C344 O339 1.279 . S
C345 O346 1.315 . S
C345 O347 1.279 . S
O346 Cd338 2.223 . S
O346 C345 1.315 . S
O347 Cd337 2.240 . S
O347 C345 1.279 . S
O348 Cd338 2.297 . S
O348 C343 1.247 . S
O349 Cd338 2.439 . S
O349 C343 1.208 . S
O350 Cd351 2.223 . S
O350 C358 1.315 . S
Cd351 O350 2.223 . S
Cd351 O354 2.297 . S
Cd351 O355 2.439 . S
Cd351 O361 2.240 . S
Cd352 O353 2.240 . S
Cd352 O360 2.223 . S
Cd352 O362 2.297 . S
Cd352 O363 2.439 . S
O353 Cd352 2.240 . S
O353 C358 1.279 . S
O354 Cd351 2.297 . S
O354 C356 1.247 . S
O355 Cd351 2.439 . S
O355 C356 1.208 . S
C356 O354 1.247 . S
C356 O355 1.208 . S
C357 O362 1.247 . S
C357 O363 1.208 . S
C358 O350 1.315 . S
C358 O353 1.279 . S
C359 O360 1.315 . S
C359 O361 1.279 . S
O360 Cd352 2.223 . S
O360 C359 1.315 . S
O361 Cd351 2.240 . S
O361 C359 1.279 . S
O362 Cd352 2.297 . S
O362 C357 1.247 . S
O363 Cd352 2.439 . S
O363 C357 1.208 . S
O364 Cd365 2.223 . S
O364 C372 1.315 . S
Cd365 O364 2.223 . S
Cd365 O368 2.297 . S
Cd365 O369 2.439 . S
Cd365 O375 2.240 . S
Cd366 O367 2.240 . S
Cd366 O374 2.223 . S
Cd366 O376 2.297 . S
Cd366 O377 2.439 . S
O367 Cd366 2.240 . S
O367 C372 1.279 . S
O368 Cd365 2.297 . S
O368 C370 1.247 . S
O369 Cd365 2.439 . S
O369 C370 1.208 . S
C370 O368 1.247 . S
C370 O369 1.208 . S
C371 O376 1.247 . S
C371 O377 1.208 . S
C372 O364 1.315 . S
C372 O367 1.279 . S
C373 O374 1.315 . S
C373 O375 1.279 . S
O374 Cd366 2.223 . S
O374 C373 1.315 . S
O375 Cd365 2.240 . S
O375 C373 1.279 . S
O376 Cd366 2.297 . S
O376 C371 1.247 . S
O377 Cd366 2.439 . S
O377 C371 1.208 . S
O378 Cd379 2.223 . S
O378 C386 1.315 . S
Cd379 O378 2.223 . S
Cd379 O382 2.297 . S
Cd379 O383 2.439 . S
Cd379 O389 2.240 . S
Cd380 O381 2.240 . S
Cd380 O388 2.223 . S
Cd380 O390 2.297 . S
Cd380 O391 2.439 . S
O381 Cd380 2.240 . S
O381 C386 1.279 . S
O382 Cd379 2.297 . S
O382 C384 1.247 . S
O383 Cd379 2.439 . S
O383 C384 1.208 . S
C384 O382 1.247 . S
C384 O383 1.208 . S
C385 O390 1.247 . S
C385 O391 1.208 . S
C386 O378 1.315 . S
C386 O381 1.279 . S
C387 O388 1.315 . S
C387 O389 1.279 . S
O388 Cd380 2.223 . S
O388 C387 1.315 . S
O389 Cd379 2.240 . S
O389 C387 1.279 . S
O390 Cd380 2.297 . S
O390 C385 1.247 . S
O391 Cd380 2.439 . S
O391 C385 1.208 . S
O392 Cd393 2.223 . S
O392 C400 1.315 . S
Cd393 O392 2.223 . S
Cd393 O396 2.297 . S
Cd393 O397 2.439 . S
Cd393 O403 2.240 . S
Cd394 O395 2.240 . S
Cd394 O402 2.223 . S
Cd394 O404 2.297 . S
Cd394 O405 2.439 . S
O395 Cd394 2.240 . S
O395 C400 1.279 . S
O396 Cd393 2.297 . S
O396 C398 1.247 . S
O397 Cd393 2.439 . S
O397 C398 1.208 . S
C398 O396 1.247 . S
C398 O397 1.208 . S
C399 O404 1.247 . S
C399 O405 1.208 . S
C400 O392 1.315 . S
C400 O395 1.279 . S
C401 O402 1.315 . S
C401 O403 1.279 . S
O402 Cd394 2.223 . S
O402 C401 1.315 . S
O403 Cd393 2.240 . S
O403 C401 1.279 . S
O404 Cd394 2.297 . S
O404 C399 1.247 . S
O405 Cd394 2.439 . S
O405 C399 1.208 . S
O406 Cd407 2.223 . S
O406 C414 1.315 . S
Cd407 O406 2.223 . S
Cd407 O410 2.297 . S
Cd407 O411 2.439 . S
Cd407 O417 2.240 . S
Cd408 O409 2.240 . S
Cd408 O416 2.223 . S
Cd408 O418 2.297 . S
Cd408 O419 2.439 . S
O409 Cd408 2.240 . S
O409 C414 1.279 . S
O410 Cd407 2.297 . S
O410 C412 1.247 . S
O411 Cd407 2.439 . S
O411 C412 1.208 . S
C412 O410 1.247 . S
C412 O411 1.208 . S
C413 O418 1.247 . S
C413 O419 1.208 . S
C414 O406 1.315 . S
C414 O409 1.279 . S
C415 O416 1.315 . S
C415 O417 1.279 . S
O416 Cd408 2.223 . S
O416 C415 1.315 . S
O417 Cd407 2.240 . S
O417 C415 1.279 . S
O418 Cd408 2.297 . S
O418 C413 1.247 . S
O419 Cd408 2.439 . S
O419 C413 1.208 . S
O420 Cd421 2.223 . S
O420 C428 1.315 . S
Cd421 O420 2.223 . S
Cd421 O424 2.297 . S
Cd421 O425 2.439 . S
Cd421 O431 2.240 . S
Cd422 O423 2.240 . S
Cd422 O430 2.223 . S
Cd422 O432 2.297 . S
Cd422 O433 2.439 . S
O423 Cd422 2.240 . S
O423 C428 1.279 . S
O424 Cd421 2.297 . S
O424 C426 1.247 . S
O425 Cd421 2.439 . S
O425 C426 1.208 . S
C426 O424 1.247 . S
C426 O425 1.208 . S
C427 O432 1.247 . S
C427 O433 1.208 . S
C428 O420 1.315 . S
C428 O423 1.279 . S
C429 O430 1.315 . S
C429 O431 1.279 . S
O430 Cd422 2.223 . S
O430 C429 1.315 . S
O431 Cd421 2.240 . S
O431 C429 1.279 . S
O432 Cd422 2.297 . S
O432 C427 1.247 . S
O433 Cd422 2.439 . S
O433 C427 1.208 . S
O434 Cd435 2.223 . S
O434 C442 1.315 . S
Cd435 O434 2.223 . S
Cd435 O438 2.297 . S
Cd435 O439 2.439 . S
Cd435 O445 2.240 . S
Cd436 O437 2.240 . S
Cd436 O444 2.223 . S
Cd436 O446 2.297 . S
Cd436 O447 2.439 . S
O437 Cd436 2.240 . S
O437 C442 1.279 . S
O438 Cd435 2.297 . S
O438 C440 1.247 . S
O439 Cd435 2.439 . S
O439 C440 1.208 . S
C440 O438 1.247 . S
C440 O439 1.208 . S
C441 O446 1.247 . S
C441 O447 1.208 . S
C442 O434 1.315 . S
C442 O437 1.279 . S
C443 O444 1.315 . S
C443 O445 1.279 . S
O444 Cd436 2.223 . S
O444 C443 1.315 . S
O445 Cd435 2.240 . S
O445 C443 1.279 . S
O446 Cd436 2.297 . S
O446 C441 1.247 . S
O447 Cd436 2.439 . S
O447 C441 1.208 . S
H448 C456 0.929 . S
H449 C458 0.930 . S
H450 C460 0.930 . S
H451 C463 0.929 . S
H452 C466 0.930 . S
H453 C468 0.960 . S
H454 C468 0.960 . S
H455 C468 0.960 . S
C456 H448 0.929 . S
C456 C457 1.377 . S
C456 C458 1.384 . S
C457 C456 1.377 . S
C457 C463 1.390 . S
C458 H449 0.930 . S
C458 C456 1.384 . S
C458 C459 1.372 . S
C459 C458 1.372 . S
C459 C460 1.400 . S
C459 C464 1.490 . S
C460 H450 0.930 . S
C460 C459 1.400 . S
C460 C463 1.386 . S
H461 C477 0.930 . S
H462 C478 0.931 . S
C463 H451 0.929 . S
C463 C457 1.390 . S
C463 C460 1.386 . S
C464 C459 1.490 . S
C464 C466 1.395 . S
C464 C467 1.403 . S
H465 C471 0.930 . S
C466 H452 0.930 . S
C466 C464 1.395 . S
C466 C469 1.403 . S
C467 C464 1.403 . S
C467 C468 1.524 . S
C467 C471 1.400 . S
C468 H453 0.960 . S
C468 H454 0.960 . S
C468 H455 0.960 . S
C468 C467 1.524 . S
C469 C466 1.403 . S
C469 C470 1.392 . S
C469 C473 1.495 . S
C470 C469 1.392 . S
C470 C471 1.385 . S
C470 C472 1.478 . S
C471 H465 0.930 . S
C471 C467 1.400 . S
C471 C470 1.385 . S
C472 C470 1.478 . S
C472 C474 1.381 . S
C472 C478 1.383 . S
C473 C469 1.495 . S
C473 H479 0.959 . S
C473 H480 0.961 . S
C473 H481 0.960 . S
C474 C472 1.381 . S
C474 C475 1.394 . S
C474 H482 0.930 . S
C475 C474 1.394 . S
C475 C476 1.383 . S
C475 H483 0.929 . S
C476 C475 1.383 . S
C476 C477 1.377 . S
C477 H461 0.930 . S
C477 C476 1.377 . S
C477 C478 1.379 . S
C478 H462 0.931 . S
C478 C472 1.383 . S
C478 C477 1.379 . S
H479 C473 0.959 . S
H480 C473 0.961 . S
H481 C473 0.960 . S
H482 C474 0.930 . S
H483 C475 0.929 . S
H484 C492 0.929 . S
H485 C494 0.930 . S
H486 C496 0.930 . S
H487 C499 0.929 . S
H488 C502 0.930 . S
H489 C504 0.960 . S
H490 C504 0.960 . S
H491 C504 0.960 . S
C492 H484 0.929 . S
C492 C493 1.377 . S
C492 C494 1.384 . S
C493 C492 1.377 . S
C493 C499 1.390 . S
C494 H485 0.930 . S
C494 C492 1.384 . S
C494 C495 1.372 . S
C495 C494 1.372 . S
C495 C496 1.400 . S
C495 C500 1.490 . S
C496 H486 0.930 . S
C496 C495 1.400 . S
C496 C499 1.386 . S
H497 C513 0.930 . S
H498 C514 0.931 . S
C499 H487 0.929 . S
C499 C493 1.390 . S
C499 C496 1.386 . S
C500 C495 1.490 . S
C500 C502 1.395 . S
C500 C503 1.403 . S
H501 C507 0.930 . S
C502 H488 0.930 . S
C502 C500 1.395 . S
C502 C505 1.403 1_565 S
C503 C500 1.403 . S
C503 C504 1.524 . S
C503 C507 1.400 1_565 S
C504 H489 0.960 . S
C504 H490 0.960 . S
C504 H491 0.960 . S
C504 C503 1.524 . S
C505 C502 1.403 1_545 S
C505 C506 1.392 . S
C505 C509 1.495 . S
C506 C505 1.392 . S
C506 C507 1.385 . S
C506 C508 1.478 . S
C507 H501 0.930 . S
C507 C503 1.400 1_545 S
C507 C506 1.385 . S
C508 C506 1.478 . S
C508 C510 1.381 . S
C508 C514 1.383 . S
C509 C505 1.495 . S
C509 H515 0.959 . S
C509 H516 0.961 . S
C509 H517 0.960 . S
C510 C508 1.381 . S
C510 C511 1.394 . S
C510 H518 0.930 . S
C511 C510 1.394 . S
C511 C512 1.383 . S
C511 H519 0.929 . S
C512 C511 1.383 . S
C512 C513 1.377 . S
C513 H497 0.930 . S
C513 C512 1.377 . S
C513 C514 1.379 . S
C514 H498 0.931 . S
C514 C508 1.383 . S
C514 C513 1.379 . S
H515 C509 0.959 . S
H516 C509 0.961 . S
H517 C509 0.960 . S
H518 C510 0.930 . S
H519 C511 0.929 . S
H520 C528 0.929 . S
H521 C530 0.930 . S
H522 C532 0.930 . S
H523 C535 0.929 . S
H524 C538 0.930 . S
H525 C540 0.960 . S
H526 C540 0.960 . S
H527 C540 0.960 . S
C528 H520 0.929 . S
C528 C529 1.377 . S
C528 C530 1.384 . S
C529 C528 1.377 . S
C529 C535 1.390 . S
C530 H521 0.930 . S
C530 C528 1.384 . S
C530 C531 1.372 . S
C531 C530 1.372 . S
C531 C532 1.400 . S
C531 C536 1.490 . S
C532 H522 0.930 . S
C532 C531 1.400 . S
C532 C535 1.386 . S
H533 C549 0.930 . S
H534 C550 0.931 . S
C535 H523 0.929 . S
C535 C529 1.390 . S
C535 C532 1.386 . S
C536 C531 1.490 . S
C536 C538 1.395 . S
C536 C539 1.403 1_554 S
H537 C543 0.930 . S
C538 H524 0.930 . S
C538 C536 1.395 . S
C538 C541 1.403 . S
C539 C536 1.403 1_556 S
C539 C540 1.524 . S
C539 C543 1.400 . S
C540 H525 0.960 . S
C540 H526 0.960 . S
C540 H527 0.960 . S
C540 C539 1.524 . S
C541 C538 1.403 . S
C541 C542 1.392 1_554 S
C541 C545 1.495 . S
C542 C541 1.392 1_556 S
C542 C543 1.385 . S
C542 C544 1.478 . S
C543 H537 0.930 . S
C543 C539 1.400 . S
C543 C542 1.385 . S
C544 C542 1.478 . S
C544 C546 1.381 . S
C544 C550 1.383 . S
C545 C541 1.495 . S
C545 H551 0.959 . S
C545 H552 0.961 . S
C545 H553 0.960 . S
C546 C544 1.381 . S
C546 C547 1.394 . S
C546 H554 0.930 . S
C547 C546 1.394 . S
C547 C548 1.383 . S
C547 H555 0.929 . S
C548 C547 1.383 . S
C548 C549 1.377 . S
C549 H533 0.930 . S
C549 C548 1.377 . S
C549 C550 1.379 . S
C550 H534 0.931 . S
C550 C544 1.383 . S
C550 C549 1.379 . S
H551 C545 0.959 . S
H552 C545 0.961 . S
H553 C545 0.960 . S
H554 C546 0.930 . S
H555 C547 0.929 . S
H556 C564 0.929 . S
H557 C566 0.930 . S
H558 C568 0.930 . S
H559 C571 0.929 . S
H560 C574 0.930 . S
H561 C576 0.960 . S
H562 C576 0.960 . S
H563 C576 0.960 . S
C564 H556 0.929 . S
C564 C565 1.377 . S
C564 C566 1.384 . S
C565 C564 1.377 . S
C565 C571 1.390 . S
C566 H557 0.930 . S
C566 C564 1.384 . S
C566 C567 1.372 . S
C567 C566 1.372 . S
C567 C568 1.400 . S
C567 C572 1.490 . S
C568 H558 0.930 . S
C568 C567 1.400 . S
C568 C571 1.386 . S
H569 C585 0.930 . S
H570 C586 0.931 . S
C571 H559 0.929 . S
C571 C565 1.390 . S
C571 C568 1.386 . S
C572 C567 1.490 . S
C572 C574 1.395 . S
C572 C575 1.403 . S
H573 C579 0.930 . S
C574 H560 0.930 . S
C574 C572 1.395 . S
C574 C577 1.403 1_545 S
C575 C572 1.403 . S
C575 C576 1.524 . S
C575 C579 1.400 1_545 S
C576 H561 0.960 . S
C576 H562 0.960 . S
C576 H563 0.960 . S
C576 C575 1.524 . S
C577 C574 1.403 1_565 S
C577 C578 1.392 . S
C577 C581 1.495 . S
C578 C577 1.392 . S
C578 C579 1.385 . S
C578 C580 1.478 . S
C579 H573 0.930 . S
C579 C575 1.400 1_565 S
C579 C578 1.385 . S
C580 C578 1.478 . S
C580 C582 1.381 . S
C580 C586 1.383 . S
C581 C577 1.495 . S
C581 H587 0.959 . S
C581 H588 0.961 . S
C581 H589 0.960 . S
C582 C580 1.381 . S
C582 C583 1.394 . S
C582 H590 0.930 . S
C583 C582 1.394 . S
C583 C584 1.383 . S
C583 H591 0.929 . S
C584 C583 1.383 . S
C584 C585 1.377 . S
C585 H569 0.930 . S
C585 C584 1.377 . S
C585 C586 1.379 . S
C586 H570 0.931 . S
C586 C580 1.383 . S
C586 C585 1.379 . S
H587 C581 0.959 . S
H588 C581 0.961 . S
H589 C581 0.960 . S
H590 C582 0.930 . S
H591 C583 0.929 . S
H592 C600 0.929 . S
H593 C602 0.930 . S
H594 C604 0.930 . S
H595 C607 0.929 . S
H596 C610 0.930 . S
H597 C612 0.960 . S
H598 C612 0.960 . S
H599 C612 0.960 . S
C600 H592 0.929 . S
C600 C601 1.377 . S
C600 C602 1.384 . S
C601 C600 1.377 . S
C601 C607 1.390 . S
C602 H593 0.930 . S
C602 C600 1.384 . S
C602 C603 1.372 . S
C603 C602 1.372 . S
C603 C604 1.400 . S
C603 C608 1.490 . S
C604 H594 0.930 . S
C604 C603 1.400 . S
C604 C607 1.386 . S
H605 C621 0.930 . S
H606 C622 0.931 . S
C607 H595 0.929 . S
C607 C601 1.390 . S
C607 C604 1.386 . S
C608 C603 1.490 . S
C608 C610 1.395 . S
C608 C611 1.403 . S
H609 C615 0.930 . S
C610 H596 0.930 . S
C610 C608 1.395 . S
C610 C613 1.403 . S
C611 C608 1.403 . S
C611 C612 1.524 . S
C611 C615 1.400 . S
C612 H597 0.960 . S
C612 H598 0.960 . S
C612 H599 0.960 . S
C612 C611 1.524 . S
C613 C610 1.403 . S
C613 C614 1.392 . S
C613 C617 1.495 . S
C614 C613 1.392 . S
C614 C615 1.385 . S
C614 C616 1.478 . S
C615 H609 0.930 . S
C615 C611 1.400 . S
C615 C614 1.385 . S
C616 C614 1.478 . S
C616 C618 1.381 . S
C616 C622 1.383 . S
C617 C613 1.495 . S
C617 H623 0.959 . S
C617 H624 0.961 . S
C617 H625 0.960 . S
C618 C616 1.381 . S
C618 C619 1.394 . S
C618 H626 0.930 . S
C619 C618 1.394 . S
C619 C620 1.383 . S
C619 H627 0.929 . S
C620 C619 1.383 . S
C620 C621 1.377 . S
C621 H605 0.930 . S
C621 C620 1.377 . S
C621 C622 1.379 . S
C622 H606 0.931 . S
C622 C616 1.383 . S
C622 C621 1.379 . S
H623 C617 0.959 . S
H624 C617 0.961 . S
H625 C617 0.960 . S
H626 C618 0.930 . S
H627 C619 0.929 . S
H628 C636 0.929 . S
H629 C638 0.930 . S
H630 C640 0.930 . S
H631 C643 0.929 . S
H632 C646 0.930 . S
H633 C648 0.960 . S
H634 C648 0.960 . S
H635 C648 0.960 . S
C636 H628 0.929 . S
C636 C637 1.377 . S
C636 C638 1.384 . S
C637 C636 1.377 . S
C637 C643 1.390 . S
C638 H629 0.930 . S
C638 C636 1.384 . S
C638 C639 1.372 . S
C639 C638 1.372 . S
C639 C640 1.400 . S
C639 C644 1.490 . S
C640 H630 0.930 . S
C640 C639 1.400 . S
C640 C643 1.386 . S
H641 C657 0.930 . S
H642 C658 0.931 . S
C643 H631 0.929 . S
C643 C637 1.390 . S
C643 C640 1.386 . S
C644 C639 1.490 . S
C644 C646 1.395 . S
C644 C647 1.403 . S
H645 C651 0.930 . S
C646 H632 0.930 . S
C646 C644 1.395 . S
C646 C649 1.403 1_545 S
C647 C644 1.403 . S
C647 C648 1.524 . S
C647 C651 1.400 1_545 S
C648 H633 0.960 . S
C648 H634 0.960 . S
C648 H635 0.960 . S
C648 C647 1.524 . S
C649 C646 1.403 1_565 S
C649 C650 1.392 . S
C649 C653 1.495 . S
C650 C649 1.392 . S
C650 C651 1.385 . S
C650 C652 1.478 . S
C651 H645 0.930 . S
C651 C647 1.400 1_565 S
C651 C650 1.385 . S
C652 C650 1.478 . S
C652 C654 1.381 . S
C652 C658 1.383 . S
C653 C649 1.495 . S
C653 H659 0.959 . S
C653 H660 0.961 . S
C653 H661 0.960 . S
C654 C652 1.381 . S
C654 C655 1.394 . S
C654 H662 0.930 . S
C655 C654 1.394 . S
C655 C656 1.383 . S
C655 H663 0.929 . S
C656 C655 1.383 . S
C656 C657 1.377 . S
C657 H641 0.930 . S
C657 C656 1.377 . S
C657 C658 1.379 . S
C658 H642 0.931 . S
C658 C652 1.383 . S
C658 C657 1.379 . S
H659 C653 0.959 . S
H660 C653 0.961 . S
H661 C653 0.960 . S
H662 C654 0.930 . S
H663 C655 0.929 . S
H664 C672 0.929 . S
H665 C674 0.930 . S
H666 C676 0.930 . S
H667 C679 0.929 . S
H668 C682 0.930 . S
H669 C684 0.960 . S
H670 C684 0.960 . S
H671 C684 0.960 . S
C672 H664 0.929 . S
C672 C673 1.377 . S
C672 C674 1.384 . S
C673 C672 1.377 . S
C673 C679 1.390 . S
C674 H665 0.930 . S
C674 C672 1.384 . S
C674 C675 1.372 . S
C675 C674 1.372 . S
C675 C676 1.400 . S
C675 C680 1.490 . S
C676 H666 0.930 . S
C676 C675 1.400 . S
C676 C679 1.386 . S
H677 C693 0.930 . S
H678 C694 0.931 . S
C679 H667 0.929 . S
C679 C673 1.390 . S
C679 C676 1.386 . S
C680 C675 1.490 . S
C680 C682 1.395 1_556 S
C680 C683 1.403 . S
H681 C687 0.930 . S
C682 H668 0.930 . S
C682 C680 1.395 1_554 S
C682 C685 1.403 . S
C683 C680 1.403 . S
C683 C684 1.524 . S
C683 C687 1.400 . S
C684 H669 0.960 . S
C684 H670 0.960 . S
C684 H671 0.960 . S
C684 C683 1.524 . S
C685 C682 1.403 . S
C685 C686 1.392 . S
C685 C689 1.495 . S
C686 C685 1.392 . S
C686 C687 1.385 1_554 S
C686 C688 1.478 . S
C687 H681 0.930 . S
C687 C683 1.400 . S
C687 C686 1.385 1_556 S
C688 C686 1.478 . S
C688 C690 1.381 . S
C688 C694 1.383 . S
C689 C685 1.495 . S
C689 H695 0.959 . S
C689 H696 0.961 . S
C689 H697 0.960 . S
C690 C688 1.381 . S
C690 C691 1.394 . S
C690 H698 0.930 . S
C691 C690 1.394 . S
C691 C692 1.383 . S
C691 H699 0.929 . S
C692 C691 1.383 . S
C692 C693 1.377 . S
C693 H677 0.930 . S
C693 C692 1.377 . S
C693 C694 1.379 . S
C694 H678 0.931 . S
C694 C688 1.383 . S
C694 C693 1.379 . S
H695 C689 0.959 . S
H696 C689 0.961 . S
H697 C689 0.960 . S
H698 C690 0.930 . S
H699 C691 0.929 . S
H700 C708 0.929 . S
H701 C710 0.930 . S
H702 C712 0.930 . S
H703 C715 0.929 . S
H704 C718 0.930 . S
H705 C720 0.936 1_545 S
H706 C720 0.972 . S
H707 C720 0.973 . S
C708 H700 0.929 . S
C708 C709 1.377 . S
C708 C710 1.384 . S
C709 C708 1.377 . S
C709 C715 1.390 . S
C710 H701 0.930 . S
C710 C708 1.384 . S
C710 C711 1.372 . S
C711 C710 1.372 . S
C711 C712 1.400 . S
C711 C716 1.490 . S
C712 H702 0.930 . S
C712 C711 1.400 . S
C712 C715 1.386 . S
H713 C729 0.930 . S
H714 C730 0.931 . S
C715 H703 0.929 . S
C715 C709 1.390 . S
C715 C712 1.386 . S
C716 C711 1.490 . S
C716 C718 1.395 . S
C716 C719 1.465 . S
H717 C723 0.930 . S
C718 H704 0.930 . S
C718 C716 1.395 . S
C718 C721 1.418 . S
C719 C716 1.465 . S
C719 C720 1.523 . S
C719 C723 1.339 1_565 S
C720 H705 0.936 1_565 S
C720 H706 0.972 . S
C720 H707 0.973 . S
C720 C719 1.523 . S
C721 C718 1.418 . S
C721 C722 1.378 1_565 S
C721 C725 1.495 . S
C722 C721 1.378 1_545 S
C722 C723 1.385 . S
C722 C724 1.478 . S
C723 H717 0.930 . S
C723 C719 1.339 1_545 S
C723 C722 1.385 . S
C724 C722 1.478 . S
C724 C726 1.381 . S
C724 C730 1.383 . S
C725 C721 1.495 . S
C725 H731 0.996 . S
C725 H732 0.944 1_565 S
C725 H733 0.942 1_565 S
C726 C724 1.381 . S
C726 C727 1.394 . S
C726 H734 0.930 . S
C727 C726 1.394 . S
C727 C728 1.383 . S
C727 H735 0.929 . S
C728 C727 1.383 . S
C728 C729 1.377 . S
C729 H713 0.930 . S
C729 C728 1.377 . S
C729 C730 1.379 . S
C730 H714 0.931 . S
C730 C724 1.383 . S
C730 C729 1.379 . S
H731 C725 0.996 . S
H732 C725 0.944 1_545 S
H733 C725 0.942 1_545 S
H734 C726 0.930 . S
H735 C727 0.929 . S
H736 C744 0.929 . S
H737 C746 0.930 . S
H738 C748 0.930 . S
H739 C751 0.929 . S
H740 C754 0.930 . S
H741 C756 0.960 . S
H742 C756 0.960 . S
H743 C756 0.960 . S
C744 H736 0.929 . S
C744 C745 1.377 . S
C744 C746 1.384 . S
C745 C744 1.377 . S
C745 C751 1.390 . S
C746 H737 0.930 . S
C746 C744 1.384 . S
C746 C747 1.372 . S
C747 C746 1.372 . S
C747 C748 1.400 . S
C747 C752 1.490 . S
C748 H738 0.930 . S
C748 C747 1.400 . S
C748 C751 1.386 . S
H749 C765 0.930 . S
H750 C766 0.931 . S
C751 H739 0.929 . S
C751 C745 1.390 . S
C751 C748 1.386 . S
C752 C747 1.490 . S
C752 C754 1.395 . S
C752 C755 1.403 1_556 S
H753 C759 0.930 . S
C754 H740 0.930 . S
C754 C752 1.395 . S
C754 C757 1.403 . S
C755 C752 1.403 1_554 S
C755 C756 1.524 . S
C755 C759 1.400 . S
C756 H741 0.960 . S
C756 H742 0.960 . S
C756 H743 0.960 . S
C756 C755 1.524 . S
C757 C754 1.403 . S
C757 C758 1.392 1_556 S
C757 C761 1.495 . S
C758 C757 1.392 1_554 S
C758 C759 1.385 . S
C758 C760 1.478 . S
C759 H753 0.930 . S
C759 C755 1.400 . S
C759 C758 1.385 . S
C760 C758 1.478 . S
C760 C762 1.381 . S
C760 C766 1.383 . S
C761 C757 1.495 . S
C761 H767 0.959 . S
C761 H768 0.961 . S
C761 H769 0.960 . S
C762 C760 1.381 . S
C762 C763 1.394 . S
C762 H770 0.930 . S
C763 C762 1.394 . S
C763 C764 1.383 . S
C763 H771 0.929 . S
C764 C763 1.383 . S
C764 C765 1.377 . S
C765 H749 0.930 . S
C765 C764 1.377 . S
C765 C766 1.379 . S
C766 H750 0.931 . S
C766 C760 1.383 . S
C766 C765 1.379 . S
H767 C761 0.959 . S
H768 C761 0.961 . S
H769 C761 0.960 . S
H770 C762 0.930 . S
H771 C763 0.929 . S
H772 C780 0.929 . S
H773 C782 0.930 . S
H774 C784 0.930 . S
H775 C787 0.929 . S
H776 C790 0.930 . S
H777 C792 0.960 . S
H778 C792 0.960 . S
H779 C792 0.960 . S
C780 H772 0.929 . S
C780 C781 1.377 . S
C780 C782 1.384 . S
C781 C780 1.377 . S
C781 C787 1.390 . S
C782 H773 0.930 . S
C782 C780 1.384 . S
C782 C783 1.372 . S
C783 C782 1.372 . S
C783 C784 1.400 . S
C783 C788 1.490 . S
C784 H774 0.930 . S
C784 C783 1.400 . S
C784 C787 1.386 . S
H785 C801 0.930 . S
H786 C802 0.931 . S
C787 H775 0.929 . S
C787 C781 1.390 . S
C787 C784 1.386 . S
C788 C783 1.490 . S
C788 C790 1.395 . S
C788 C791 1.403 . S
H789 C795 0.930 . S
C790 H776 0.930 . S
C790 C788 1.395 . S
C790 C793 1.403 . S
C791 C788 1.403 . S
C791 C792 1.524 . S
C791 C795 1.400 . S
C792 H777 0.960 . S
C792 H778 0.960 . S
C792 H779 0.960 . S
C792 C791 1.524 . S
C793 C790 1.403 . S
C793 C794 1.392 . S
C793 C797 1.495 . S
C794 C793 1.392 . S
C794 C795 1.385 . S
C794 C796 1.478 . S
C795 H789 0.930 . S
C795 C791 1.400 . S
C795 C794 1.385 . S
C796 C794 1.478 . S
C796 C798 1.381 . S
C796 C802 1.383 . S
C797 C793 1.495 . S
C797 H803 0.959 . S
C797 H804 0.961 . S
C797 H805 0.960 . S
C798 C796 1.381 . S
C798 C799 1.394 . S
C798 H806 0.930 . S
C799 C798 1.394 . S
C799 C800 1.383 . S
C799 H807 0.929 . S
C800 C799 1.383 . S
C800 C801 1.377 . S
C801 H785 0.930 . S
C801 C800 1.377 . S
C801 C802 1.379 . S
C802 H786 0.931 . S
C802 C796 1.383 . S
C802 C801 1.379 . S
H803 C797 0.959 . S
H804 C797 0.961 . S
H805 C797 0.960 . S
H806 C798 0.930 . S
H807 C799 0.929 . S
H808 C816 0.929 . S
H809 C818 0.930 . S
H810 C820 0.930 . S
H811 C823 0.929 . S
H812 C826 0.930 . S
H813 C828 0.960 . S
H814 C828 0.960 . S
H815 C828 0.960 . S
C816 H808 0.929 . S
C816 C817 1.377 . S
C816 C818 1.384 . S
C817 C816 1.377 . S
C817 C823 1.390 . S
C818 H809 0.930 . S
C818 C816 1.384 . S
C818 C819 1.372 . S
C819 C818 1.372 . S
C819 C820 1.400 . S
C819 C824 1.490 . S
C820 H810 0.930 . S
C820 C819 1.400 . S
C820 C823 1.386 . S
H821 C837 0.930 . S
H822 C838 0.931 . S
C823 H811 0.929 . S
C823 C817 1.390 . S
C823 C820 1.386 . S
C824 C819 1.490 . S
C824 C826 1.395 . S
C824 C827 1.403 . S
H825 C831 0.930 . S
C826 H812 0.930 . S
C826 C824 1.395 . S
C826 C829 1.403 . S
C827 C824 1.403 . S
C827 C828 1.524 . S
C827 C831 1.400 . S
C828 H813 0.960 . S
C828 H814 0.960 . S
C828 H815 0.960 . S
C828 C827 1.524 . S
C829 C826 1.403 . S
C829 C830 1.392 . S
C829 C833 1.495 . S
C830 C829 1.392 . S
C830 C831 1.385 . S
C830 C832 1.478 . S
C831 H825 0.930 . S
C831 C827 1.400 . S
C831 C830 1.385 . S
C832 C830 1.478 . S
C832 C834 1.381 . S
C832 C838 1.383 . S
C833 C829 1.495 . S
C833 H839 0.959 . S
C833 H840 0.961 . S
C833 H841 0.960 . S
C834 C832 1.381 . S
C834 C835 1.394 . S
C834 H842 0.930 . S
C835 C834 1.394 . S
C835 C836 1.383 . S
C835 H843 0.929 . S
C836 C835 1.383 . S
C836 C837 1.377 . S
C837 H821 0.930 . S
C837 C836 1.377 . S
C837 C838 1.379 . S
C838 H822 0.931 . S
C838 C832 1.383 . S
C838 C837 1.379 . S
H839 C833 0.959 . S
H840 C833 0.961 . S
H841 C833 0.960 . S
H842 C834 0.930 . S
H843 C835 0.929 . S
H844 C852 0.929 . S
H845 C854 0.930 . S
H846 C856 0.930 . S
H847 C859 0.929 . S
H848 C862 0.930 . S
H849 C864 0.960 . S
H850 C864 0.960 . S
H851 C864 0.960 . S
C852 H844 0.929 . S
C852 C853 1.377 . S
C852 C854 1.384 . S
C853 C852 1.377 . S
C853 C859 1.390 . S
C854 H845 0.930 . S
C854 C852 1.384 . S
C854 C855 1.372 . S
C855 C854 1.372 . S
C855 C856 1.400 . S
C855 C860 1.490 . S
C856 H846 0.930 . S
C856 C855 1.400 . S
C856 C859 1.386 . S
H857 C873 0.930 . S
H858 C874 0.931 . S
C859 H847 0.929 . S
C859 C853 1.390 . S
C859 C856 1.386 . S
C860 C855 1.490 . S
C860 C862 1.395 . S
C860 C863 1.403 . S
H861 C867 0.930 . S
C862 H848 0.930 . S
C862 C860 1.395 . S
C862 C865 1.403 . S
C863 C860 1.403 . S
C863 C864 1.524 . S
C863 C867 1.400 . S
C864 H849 0.960 . S
C864 H850 0.960 . S
C864 H851 0.960 . S
C864 C863 1.524 . S
C865 C862 1.403 . S
C865 C866 1.392 . S
C865 C869 1.495 . S
C866 C865 1.392 . S
C866 C867 1.385 . S
C866 C868 1.478 . S
C867 H861 0.930 . S
C867 C863 1.400 . S
C867 C866 1.385 . S
C868 C866 1.478 . S
C868 C870 1.381 . S
C868 C874 1.383 . S
C869 C865 1.495 . S
C869 H875 0.959 . S
C869 H876 0.961 . S
C869 H877 0.960 . S
C870 C868 1.381 . S
C870 C871 1.394 . S
C870 H878 0.930 . S
C871 C870 1.394 . S
C871 C872 1.383 . S
C871 H879 0.929 . S
C872 C871 1.383 . S
C872 C873 1.377 . S
C873 H857 0.930 . S
C873 C872 1.377 . S
C873 C874 1.379 . S
C874 H858 0.931 . S
C874 C868 1.383 . S
C874 C873 1.379 . S
H875 C869 0.959 . S
H876 C869 0.961 . S
H877 C869 0.960 . S
H878 C870 0.930 . S
H879 C871 0.929 . S
H880 C888 0.929 . S
H881 C890 0.930 . S
H882 C892 0.930 1_554 S
H883 C895 0.929 . S
H884 C898 0.930 . S
H885 C900 0.960 . S
H886 C900 0.960 . S
H887 C900 0.960 . S
C888 H880 0.929 . S
C888 C889 1.377 . S
C888 C890 1.384 . S
C889 C888 1.377 . S
C889 C895 1.390 . S
C890 H881 0.930 . S
C890 C888 1.384 . S
C890 C891 1.372 . S
C891 C890 1.372 . S
C891 C892 1.400 . S
C891 C896 1.490 . S
C892 H882 0.930 1_556 S
C892 C891 1.400 . S
C892 C895 1.386 . S
H893 C909 0.930 . S
H894 C910 0.931 . S
C895 H883 0.929 . S
C895 C889 1.390 . S
C895 C892 1.386 . S
C896 C891 1.490 . S
C896 C898 1.395 . S
C896 C899 1.403 . S
H897 C903 0.930 . S
C898 H884 0.930 . S
C898 C896 1.395 . S
C898 C901 1.403 1_556 S
C899 C896 1.403 . S
C899 C900 1.524 . S
C899 C903 1.400 1_556 S
C900 H885 0.960 . S
C900 H886 0.960 . S
C900 H887 0.960 . S
C900 C899 1.524 . S
C901 C898 1.403 1_554 S
C901 C902 1.392 . S
C901 C905 1.495 . S
C902 C901 1.392 . S
C902 C903 1.385 . S
C902 C904 1.478 . S
C903 H897 0.930 . S
C903 C899 1.400 1_554 S
C903 C902 1.385 . S
C904 C902 1.478 . S
C904 C906 1.381 . S
C904 C910 1.383 . S
C905 C901 1.495 . S
C905 H911 0.959 . S
C905 H912 0.961 . S
C905 H913 0.960 . S
C906 C904 1.381 . S
C906 C907 1.394 . S
C906 H914 0.930 1_554 S
C907 C906 1.394 . S
C907 C908 1.383 . S
C907 H915 0.929 . S
C908 C907 1.383 . S
C908 C909 1.377 . S
C909 H893 0.930 . S
C909 C908 1.377 . S
C909 C910 1.379 . S
C910 H894 0.931 . S
C910 C904 1.383 . S
C910 C909 1.379 . S
H911 C905 0.959 . S
H912 C905 0.961 . S
H913 C905 0.960 . S
H914 C906 0.930 1_556 S
H915 C907 0.929 . S
H916 C924 0.929 . S
H917 C926 0.930 . S
H918 C928 0.930 . S
H919 C931 0.929 . S
H920 C934 0.930 . S
H921 C936 0.960 . S
H922 C936 0.960 . S
H923 C936 0.960 . S
C924 H916 0.929 . S
C924 C925 1.377 . S
C924 C926 1.384 . S
C925 C924 1.377 . S
C925 C931 1.390 . S
C926 H917 0.930 . S
C926 C924 1.384 . S
C926 C927 1.372 . S
C927 C926 1.372 . S
C927 C928 1.400 . S
C927 C932 1.490 . S
C928 H918 0.930 . S
C928 C927 1.400 . S
C928 C931 1.386 . S
H929 C945 0.930 . S
H930 C946 0.931 . S
C931 H919 0.929 . S
C931 C925 1.390 . S
C931 C928 1.386 . S
C932 C927 1.490 . S
C932 C934 1.395 . S
C932 C935 1.403 . S
H933 C939 0.930 . S
C934 H920 0.930 . S
C934 C932 1.395 . S
C934 C937 1.403 . S
C935 C932 1.403 . S
C935 C936 1.524 . S
C935 C939 1.400 . S
C936 H921 0.960 . S
C936 H922 0.960 . S
C936 H923 0.960 . S
C936 C935 1.524 . S
C937 C934 1.403 . S
C937 C938 1.392 . S
C937 C941 1.495 . S
C938 C937 1.392 . S
C938 C939 1.385 . S
C938 C940 1.478 . S
C939 H933 0.930 . S
C939 C935 1.400 . S
C939 C938 1.385 . S
C940 C938 1.478 . S
C940 C942 1.381 . S
C940 C946 1.383 . S
C941 C937 1.495 . S
C941 H947 0.959 . S
C941 H948 0.961 . S
C941 H949 0.960 . S
C942 C940 1.381 . S
C942 C943 1.394 . S
C942 H950 0.930 . S
C943 C942 1.394 . S
C943 C944 1.383 . S
C943 H951 0.929 . S
C944 C943 1.383 . S
C944 C945 1.377 . S
C945 H929 0.930 . S
C945 C944 1.377 . S
C945 C946 1.379 . S
C946 H930 0.931 . S
C946 C940 1.383 . S
C946 C945 1.379 . S
H947 C941 0.959 . S
H948 C941 0.961 . S
H949 C941 0.960 . S
H950 C942 0.930 . S
H951 C943 0.929 . S
H952 C960 0.929 . S
H953 C962 0.930 . S
H954 C964 0.930 . S
H955 C967 0.929 . S
H956 C970 0.930 . S
H957 C972 0.960 . S
H958 C972 0.960 . S
H959 C972 0.960 . S
C960 H952 0.929 . S
C960 C961 1.377 . S
C960 C962 1.384 . S
C961 C960 1.377 . S
C961 C967 1.390 . S
C962 H953 0.930 . S
C962 C960 1.384 . S
C962 C963 1.372 . S
C963 C962 1.372 . S
C963 C964 1.400 . S
C963 C968 1.490 . S
C964 H954 0.930 . S
C964 C963 1.400 . S
C964 C967 1.386 . S
H965 C981 0.930 . S
H966 C982 0.931 . S
C967 H955 0.929 . S
C967 C961 1.390 . S
C967 C964 1.386 . S
C968 C963 1.490 . S
C968 C970 1.395 . S
C968 C971 1.403 . S
H969 C975 0.930 . S
C970 H956 0.930 . S
C970 C968 1.395 . S
C970 C973 1.403 . S
C971 C968 1.403 . S
C971 C972 1.524 . S
C971 C975 1.400 . S
C972 H957 0.960 . S
C972 H958 0.960 . S
C972 H959 0.960 . S
C972 C971 1.524 . S
C973 C970 1.403 . S
C973 C974 1.392 . S
C973 C977 1.495 . S
C974 C973 1.392 . S
C974 C975 1.385 . S
C974 C976 1.478 . S
C975 H969 0.930 . S
C975 C971 1.400 . S
C975 C974 1.385 . S
C976 C974 1.478 . S
C976 C978 1.381 . S
C976 C982 1.383 . S
C977 C973 1.495 . S
C977 H983 0.959 . S
C977 H984 0.961 . S
C977 H985 0.960 . S
C978 C976 1.381 . S
C978 C979 1.394 . S
C978 H986 0.930 . S
C979 C978 1.394 . S
C979 C980 1.383 . S
C979 H987 0.929 . S
C980 C979 1.383 . S
C980 C981 1.377 . S
C981 H965 0.930 . S
C981 C980 1.377 . S
C981 C982 1.379 . S
C982 H966 0.931 . S
C982 C976 1.383 . S
C982 C981 1.379 . S
H983 C977 0.959 . S
H984 C977 0.961 . S
H985 C977 0.960 . S
H986 C978 0.930 . S
H987 C979 0.929 . S
H988 C996 0.929 . S
H989 C998 0.930 . S
H990 C1000 0.930 . S
H991 C1003 0.929 . S
H992 C1006 0.930 . S
H993 C1008 0.960 . S
H994 C1008 0.960 . S
H995 C1008 0.960 . S
C996 H988 0.929 . S
C996 C997 1.377 . S
C996 C998 1.384 . S
C997 C996 1.377 . S
C997 C1003 1.390 . S
C998 H989 0.930 . S
C998 C996 1.384 . S
C998 C999 1.372 . S
C999 C998 1.372 . S
C999 C1000 1.400 . S
C999 C1004 1.490 . S
C1000 H990 0.930 . S
C1000 C999 1.400 . S
C1000 C1003 1.386 . S
H1001 C1017 0.930 . S
H1002 C1018 0.931 . S
C1003 H991 0.929 . S
C1003 C997 1.390 . S
C1003 C1000 1.386 . S
C1004 C999 1.490 . S
C1004 C1006 1.395 . S
C1004 C1007 1.403 . S
H1005 C1011 0.930 . S
C1006 H992 0.930 . S
C1006 C1004 1.395 . S
C1006 C1009 1.403 . S
C1007 C1004 1.403 . S
C1007 C1008 1.524 . S
C1007 C1011 1.400 . S
C1008 H993 0.960 . S
C1008 H994 0.960 . S
C1008 H995 0.960 . S
C1008 C1007 1.524 . S
C1009 C1006 1.403 . S
C1009 C1010 1.392 . S
C1009 C1013 1.495 . S
C1010 C1009 1.392 . S
C1010 C1011 1.385 . S
C1010 C1012 1.478 . S
C1011 H1005 0.930 . S
C1011 C1007 1.400 . S
C1011 C1010 1.385 . S
C1012 C1010 1.478 . S
C1012 C1014 1.381 . S
C1012 C1018 1.383 . S
C1013 C1009 1.495 . S
C1013 H1019 0.959 . S
C1013 H1020 0.961 . S
C1013 H1021 0.960 . S
C1014 C1012 1.381 . S
C1014 C1015 1.394 . S
C1014 H1022 0.930 . S
C1015 C1014 1.394 . S
C1015 C1016 1.383 . S
C1015 H1023 0.929 . S
C1016 C1015 1.383 . S
C1016 C1017 1.377 . S
C1017 H1001 0.930 . S
C1017 C1016 1.377 . S
C1017 C1018 1.379 . S
C1018 H1002 0.931 . S
C1018 C1012 1.383 . S
C1018 C1017 1.379 . S
H1019 C1013 0.959 . S
H1020 C1013 0.961 . S
H1021 C1013 0.960 . S
H1022 C1014 0.930 . S
H1023 C1015 0.929 . S
H1024 C1032 0.929 . S
H1025 C1034 0.930 1_556 S
H1026 C1036 0.930 . S
H1027 C1039 0.929 . S
H1028 C1042 0.930 . S
H1029 C1044 0.960 . S
H1030 C1044 0.960 . S
H1031 C1044 0.960 . S
C1032 H1024 0.929 . S
C1032 C1033 1.378 . S
C1032 C1034 1.384 1_556 S
C1033 C1032 1.378 . S
C1033 C1039 1.387 1_556 S
C1034 H1025 0.930 1_554 S
C1034 C1032 1.384 1_554 S
C1034 C1035 1.372 . S
C1035 C1034 1.372 . S
C1035 C1036 1.400 . S
C1035 C1040 1.490 . S
C1036 H1026 0.930 . S
C1036 C1035 1.400 . S
C1036 C1039 1.386 . S
H1037 C1053 0.930 . S
H1038 C1054 0.931 . S
C1039 H1027 0.929 . S
C1039 C1033 1.387 1_554 S
C1039 C1036 1.386 . S
C1040 C1035 1.490 . S
C1040 C1042 1.395 . S
C1040 C1043 1.403 . S
H1041 C1047 0.930 . S
C1042 H1028 0.930 . S
C1042 C1040 1.395 . S
C1042 C1045 1.403 . S
C1043 C1040 1.403 . S
C1043 C1044 1.524 . S
C1043 C1047 1.400 . S
C1044 H1029 0.960 . S
C1044 H1030 0.960 . S
C1044 H1031 0.960 . S
C1044 C1043 1.524 . S
C1045 C1042 1.403 . S
C1045 C1046 1.392 . S
C1045 C1049 1.495 . S
C1046 C1045 1.392 . S
C1046 C1047 1.385 . S
C1046 C1048 1.478 . S
C1047 H1041 0.930 . S
C1047 C1043 1.400 . S
C1047 C1046 1.385 . S
C1048 C1046 1.478 . S
C1048 C1050 1.381 . S
C1048 C1054 1.383 . S
C1049 C1045 1.495 . S
C1049 H1055 0.959 . S
C1049 H1056 0.961 . S
C1049 H1057 0.960 . S
C1050 C1048 1.381 . S
C1050 C1051 1.394 . S
C1050 H1058 0.930 . S
C1051 C1050 1.394 . S
C1051 C1052 1.383 . S
C1051 H1059 0.929 . S
C1052 C1051 1.383 . S
C1052 C1053 1.377 . S
C1053 H1037 0.930 . S
C1053 C1052 1.377 . S
C1053 C1054 1.379 . S
C1054 H1038 0.931 . S
C1054 C1048 1.383 . S
C1054 C1053 1.379 . S
H1055 C1049 0.959 . S
H1056 C1049 0.961 . S
H1057 C1049 0.960 . S
H1058 C1050 0.930 . S
H1059 C1051 0.929 . S
H1060 C1068 0.929 . S
H1061 C1070 0.930 . S
H1062 C1072 0.930 . S
H1063 C1075 0.929 . S
H1064 C1078 0.930 . S
H1065 C1080 0.960 . S
H1066 C1080 0.960 . S
H1067 C1080 0.960 . S
C1068 H1060 0.929 . S
C1068 C1069 1.377 . S
C1068 C1070 1.384 . S
C1069 C1068 1.377 . S
C1069 C1075 1.390 . S
C1070 H1061 0.930 . S
C1070 C1068 1.384 . S
C1070 C1071 1.372 . S
C1071 C1070 1.372 . S
C1071 C1072 1.400 . S
C1071 C1076 1.490 . S
C1072 H1062 0.930 . S
C1072 C1071 1.400 . S
C1072 C1075 1.386 . S
H1073 C1089 0.930 . S
H1074 C1090 0.931 . S
C1075 H1063 0.929 . S
C1075 C1069 1.390 . S
C1075 C1072 1.386 . S
C1076 C1071 1.490 . S
C1076 C1078 1.395 . S
C1076 C1079 1.403 . S
H1077 C1083 0.930 . S
C1078 H1064 0.930 . S
C1078 C1076 1.395 . S
C1078 C1081 1.403 . S
C1079 C1076 1.403 . S
C1079 C1080 1.524 . S
C1079 C1083 1.400 . S
C1080 H1065 0.960 . S
C1080 H1066 0.960 . S
C1080 H1067 0.960 . S
C1080 C1079 1.524 . S
C1081 C1078 1.403 . S
C1081 C1082 1.392 . S
C1081 C1085 1.495 . S
C1082 C1081 1.392 . S
C1082 C1083 1.385 . S
C1082 C1084 1.478 . S
C1083 H1077 0.930 . S
C1083 C1079 1.400 . S
C1083 C1082 1.385 . S
C1084 C1082 1.478 . S
C1084 C1086 1.381 . S
C1084 C1090 1.383 . S
C1085 C1081 1.495 . S
C1085 H1091 0.959 . S
C1085 H1092 0.961 . S
C1085 H1093 0.960 . S
C1086 C1084 1.381 . S
C1086 C1087 1.394 . S
C1086 H1094 0.930 . S
C1087 C1086 1.394 . S
C1087 C1088 1.383 . S
C1087 H1095 0.929 . S
C1088 C1087 1.383 . S
C1088 C1089 1.377 . S
C1089 H1073 0.930 . S
C1089 C1088 1.377 . S
C1089 C1090 1.379 . S
C1090 H1074 0.931 . S
C1090 C1084 1.383 . S
C1090 C1089 1.379 . S
H1091 C1085 0.959 . S
H1092 C1085 0.961 . S
H1093 C1085 0.960 . S
H1094 C1086 0.930 . S
H1095 C1087 0.929 . S
H1096 C1104 0.929 . S
H1097 C1106 0.930 . S
H1098 C1108 0.930 . S
H1099 C1111 0.929 . S
H1100 C1114 0.930 . S
H1101 C1116 0.960 . S
H1102 C1116 0.960 . S
H1103 C1116 0.960 . S
C1104 H1096 0.929 . S
C1104 C1105 1.377 . S
C1104 C1106 1.384 . S
C1105 C1104 1.377 . S
C1105 C1111 1.390 . S
C1106 H1097 0.930 . S
C1106 C1104 1.384 . S
C1106 C1107 1.372 . S
C1107 C1106 1.372 . S
C1107 C1108 1.400 . S
C1107 C1112 1.490 . S
C1108 H1098 0.930 . S
C1108 C1107 1.400 . S
C1108 C1111 1.386 . S
H1109 C1125 0.930 . S
H1110 C1126 0.931 . S
C1111 H1099 0.929 . S
C1111 C1105 1.390 . S
C1111 C1108 1.386 . S
C1112 C1107 1.490 . S
C1112 C1114 1.395 . S
C1112 C1115 1.403 . S
H1113 C1119 0.930 . S
C1114 H1100 0.930 . S
C1114 C1112 1.395 . S
C1114 C1117 1.403 . S
C1115 C1112 1.403 . S
C1115 C1116 1.524 . S
C1115 C1119 1.400 . S
C1116 H1101 0.960 . S
C1116 H1102 0.960 . S
C1116 H1103 0.960 . S
C1116 C1115 1.524 . S
C1117 C1114 1.403 . S
C1117 C1118 1.392 . S
C1117 C1121 1.495 . S
C1118 C1117 1.392 . S
C1118 C1119 1.385 . S
C1118 C1120 1.478 . S
C1119 H1113 0.930 . S
C1119 C1115 1.400 . S
C1119 C1118 1.385 . S
C1120 C1118 1.478 . S
C1120 C1122 1.381 . S
C1120 C1126 1.383 . S
C1121 C1117 1.495 . S
C1121 H1127 0.959 . S
C1121 H1128 0.961 . S
C1121 H1129 0.960 . S
C1122 C1120 1.381 . S
C1122 C1123 1.394 . S
C1122 H1130 0.930 . S
C1123 C1122 1.394 . S
C1123 C1124 1.383 . S
C1123 H1131 0.929 . S
C1124 C1123 1.383 . S
C1124 C1125 1.377 . S
C1125 H1109 0.930 . S
C1125 C1124 1.377 . S
C1125 C1126 1.379 . S
C1126 H1110 0.931 . S
C1126 C1120 1.383 . S
C1126 C1125 1.379 . S
H1127 C1121 0.959 . S
H1128 C1121 0.961 . S
H1129 C1121 0.960 . S
H1130 C1122 0.930 . S
H1131 C1123 0.929 . S
H1132 C1140 0.929 . S
H1133 C1142 0.930 . S
H1134 C1144 0.930 . S
H1135 C1147 0.929 . S
H1136 C1150 0.930 . S
H1137 C1152 0.960 . S
H1138 C1152 0.960 . S
H1139 C1152 0.960 . S
C1140 H1132 0.929 . S
C1140 C1141 1.377 . S
C1140 C1142 1.384 . S
C1141 C1140 1.377 . S
C1141 C1147 1.390 . S
C1142 H1133 0.930 . S
C1142 C1140 1.384 . S
C1142 C1143 1.372 . S
C1143 C1142 1.372 . S
C1143 C1144 1.400 . S
C1143 C1148 1.490 . S
C1144 H1134 0.930 . S
C1144 C1143 1.400 . S
C1144 C1147 1.386 . S
H1145 C1161 0.930 . S
H1146 C1162 0.938 . S
C1147 H1135 0.929 . S
C1147 C1141 1.390 . S
C1147 C1144 1.386 . S
C1148 C1143 1.490 . S
C1148 C1150 1.395 . S
C1148 C1151 1.403 . S
H1149 C1155 0.930 . S
C1150 H1136 0.930 . S
C1150 C1148 1.395 . S
C1150 C1153 1.403 . S
C1151 C1148 1.403 . S
C1151 C1152 1.524 . S
C1151 C1155 1.400 . S
C1152 H1137 0.960 . S
C1152 H1138 0.960 . S
C1152 H1139 0.960 . S
C1152 C1151 1.524 . S
C1153 C1150 1.403 . S
C1153 C1154 1.392 . S
C1153 C1157 1.495 . S
C1154 C1153 1.392 . S
C1154 C1155 1.385 . S
C1154 C1156 1.478 . S
C1155 H1149 0.930 . S
C1155 C1151 1.400 . S
C1155 C1154 1.385 . S
C1156 C1154 1.478 . S
C1156 C1158 1.381 . S
C1156 C1162 1.383 . S
C1157 C1153 1.495 . S
C1157 H1163 0.959 . S
C1157 H1164 0.961 . S
C1157 H1165 0.960 . S
C1158 C1156 1.381 . S
C1158 C1159 1.394 . S
C1158 H1166 0.930 . S
C1159 C1158 1.394 . S
C1159 C1160 1.369 1_556 S
C1159 H1167 0.929 . S
C1160 C1159 1.369 1_554 S
C1160 C1161 1.382 . S
C1161 H1145 0.930 . S
C1161 C1160 1.382 . S
C1161 C1162 1.379 1_554 S
C1162 H1146 0.938 . S
C1162 C1156 1.383 . S
C1162 C1161 1.379 1_556 S
H1163 C1157 0.959 . S
H1164 C1157 0.961 . S
H1165 C1157 0.960 . S
H1166 C1158 0.930 . S
H1167 C1159 0.929 . S
H1168 C1176 0.929 1_554 S
H1169 C1178 0.930 . S
H1170 C1180 0.930 . S
H1171 C1183 0.929 . S
H1172 C1186 0.930 . S
H1173 C1188 0.960 . S
H1174 C1188 0.960 . S
H1175 C1188 0.960 . S
C1176 H1168 0.929 1_556 S
C1176 C1177 1.375 1_556 S
C1176 C1178 1.384 . S
C1177 C1176 1.375 1_554 S
C1177 C1183 1.383 1_554 S
C1178 H1169 0.930 . S
C1178 C1176 1.384 . S
C1178 C1179 1.372 . S
C1179 C1178 1.372 . S
C1179 C1180 1.400 . S
C1179 C1184 1.490 . S
C1180 H1170 0.930 . S
C1180 C1179 1.400 . S
C1180 C1183 1.386 . S
H1181 C1197 0.930 . S
H1182 C1198 0.931 . S
C1183 H1171 0.929 . S
C1183 C1177 1.383 1_556 S
C1183 C1180 1.386 . S
C1184 C1179 1.490 . S
C1184 C1186 1.395 . S
C1184 C1187 1.403 . S
H1185 C1191 0.930 . S
C1186 H1172 0.930 . S
C1186 C1184 1.395 . S
C1186 C1189 1.403 . S
C1187 C1184 1.403 . S
C1187 C1188 1.524 . S
C1187 C1191 1.400 . S
C1188 H1173 0.960 . S
C1188 H1174 0.960 . S
C1188 H1175 0.960 . S
C1188 C1187 1.524 . S
C1189 C1186 1.403 . S
C1189 C1190 1.392 . S
C1189 C1193 1.495 . S
C1190 C1189 1.392 . S
C1190 C1191 1.385 . S
C1190 C1192 1.478 . S
C1191 H1185 0.930 . S
C1191 C1187 1.400 . S
C1191 C1190 1.385 . S
C1192 C1190 1.478 . S
C1192 C1194 1.381 . S
C1192 C1198 1.383 . S
C1193 C1189 1.495 . S
C1193 H1199 0.959 . S
C1193 H1200 0.961 . S
C1193 H1201 0.960 . S
C1194 C1192 1.381 . S
C1194 C1195 1.394 . S
C1194 H1202 0.930 . S
C1195 C1194 1.394 . S
C1195 C1196 1.383 . S
C1195 H1203 0.929 . S
C1196 C1195 1.383 . S
C1196 C1197 1.377 . S
C1197 H1181 0.930 . S
C1197 C1196 1.377 . S
C1197 C1198 1.379 . S
C1198 H1182 0.931 . S
C1198 C1192 1.383 . S
C1198 C1197 1.379 . S
H1199 C1193 0.959 . S
H1200 C1193 0.961 . S
H1201 C1193 0.960 . S
H1202 C1194 0.930 . S
H1203 C1195 0.929 . S
H1204 C1212 0.929 . S
H1205 C1214 0.930 . S
H1206 C1216 0.930 . S
H1207 C1219 0.929 . S
H1208 C1222 0.930 . S
H1209 C1224 0.960 . S
H1210 C1224 0.960 . S
H1211 C1224 0.960 . S
C1212 H1204 0.929 . S
C1212 C1213 1.377 . S
C1212 C1214 1.384 . S
C1213 C1212 1.377 . S
C1213 C1219 1.390 . S
C1214 H1205 0.930 . S
C1214 C1212 1.384 . S
C1214 C1215 1.372 . S
C1215 C1214 1.372 . S
C1215 C1216 1.400 . S
C1215 C1220 1.490 . S
C1216 H1206 0.930 . S
C1216 C1215 1.400 . S
C1216 C1219 1.386 . S
H1217 C1233 0.930 . S
H1218 C1234 0.931 . S
C1219 H1207 0.929 . S
C1219 C1213 1.390 . S
C1219 C1216 1.386 . S
C1220 C1215 1.490 . S
C1220 C1222 1.395 . S
C1220 C1223 1.403 . S
H1221 C1227 0.930 . S
C1222 H1208 0.930 . S
C1222 C1220 1.395 . S
C1222 C1225 1.403 . S
C1223 C1220 1.403 . S
C1223 C1224 1.524 . S
C1223 C1227 1.400 . S
C1224 H1209 0.960 . S
C1224 H1210 0.960 . S
C1224 H1211 0.960 . S
C1224 C1223 1.524 . S
C1225 C1222 1.403 . S
C1225 C1226 1.392 . S
C1225 C1229 1.495 . S
C1226 C1225 1.392 . S
C1226 C1227 1.385 . S
C1226 C1228 1.478 . S
C1227 H1221 0.930 . S
C1227 C1223 1.400 . S
C1227 C1226 1.385 . S
C1228 C1226 1.478 . S
C1228 C1230 1.381 . S
C1228 C1234 1.383 . S
C1229 C1225 1.495 . S
C1229 H1235 0.959 . S
C1229 H1236 0.961 . S
C1229 H1237 0.960 . S
C1230 C1228 1.381 . S
C1230 C1231 1.394 . S
C1230 H1238 0.930 . S
C1231 C1230 1.394 . S
C1231 C1232 1.383 . S
C1231 H1239 0.929 . S
C1232 C1231 1.383 . S
C1232 C1233 1.377 . S
C1233 H1217 0.930 . S
C1233 C1232 1.377 . S
C1233 C1234 1.379 . S
C1234 H1218 0.931 . S
C1234 C1228 1.383 . S
C1234 C1233 1.379 . S
H1235 C1229 0.959 . S
H1236 C1229 0.961 . S
H1237 C1229 0.960 . S
H1238 C1230 0.930 . S
H1239 C1231 0.929 . S
H1240 C1248 0.929 . S
H1241 C1250 0.930 . S
H1242 C1252 0.930 . S
H1243 C1255 0.929 . S
H1244 C1258 0.930 . S
H1245 C1260 0.960 . S
H1246 C1260 0.960 . S
H1247 C1260 0.960 . S
C1248 H1240 0.929 . S
C1248 C1249 1.377 . S
C1248 C1250 1.384 . S
C1249 C1248 1.377 . S
C1249 C1255 1.390 . S
C1250 H1241 0.930 . S
C1250 C1248 1.384 . S
C1250 C1251 1.372 . S
C1251 C1250 1.372 . S
C1251 C1252 1.400 . S
C1251 C1256 1.490 . S
C1252 H1242 0.930 . S
C1252 C1251 1.400 . S
C1252 C1255 1.386 . S
H1253 C1269 0.930 . S
H1254 C1270 0.931 . S
C1255 H1243 0.929 . S
C1255 C1249 1.390 . S
C1255 C1252 1.386 . S
C1256 C1251 1.490 . S
C1256 C1258 1.395 . S
C1256 C1259 1.403 . S
H1257 C1263 0.930 . S
C1258 H1244 0.930 . S
C1258 C1256 1.395 . S
C1258 C1261 1.403 . S
C1259 C1256 1.403 . S
C1259 C1260 1.524 . S
C1259 C1263 1.400 . S
C1260 H1245 0.960 . S
C1260 H1246 0.960 . S
C1260 H1247 0.960 . S
C1260 C1259 1.524 . S
C1261 C1258 1.403 . S
C1261 C1262 1.392 . S
C1261 C1265 1.495 . S
C1262 C1261 1.392 . S
C1262 C1263 1.385 . S
C1262 C1264 1.478 . S
C1263 H1257 0.930 . S
C1263 C1259 1.400 . S
C1263 C1262 1.385 . S
C1264 C1262 1.478 . S
C1264 C1266 1.381 . S
C1264 C1270 1.383 . S
C1265 C1261 1.495 . S
C1265 H1271 0.959 . S
C1265 H1272 0.961 . S
C1265 H1273 0.960 . S
C1266 C1264 1.381 . S
C1266 C1267 1.394 . S
C1266 H1274 0.930 . S
C1267 C1266 1.394 . S
C1267 C1268 1.383 . S
C1267 H1275 0.929 . S
C1268 C1267 1.383 . S
C1268 C1269 1.377 . S
C1269 H1253 0.930 . S
C1269 C1268 1.377 . S
C1269 C1270 1.379 . S
C1270 H1254 0.931 . S
C1270 C1264 1.383 . S
C1270 C1269 1.379 . S
H1271 C1265 0.959 . S
H1272 C1265 0.961 . S
H1273 C1265 0.960 . S
H1274 C1266 0.930 . S
H1275 C1267 0.929 . S
H1276 C1284 0.929 . S
H1277 C1286 0.930 . S
H1278 C1288 0.930 . S
H1279 C1291 0.929 . S
H1280 C1294 0.930 . S
H1281 C1296 0.960 . S
H1282 C1296 0.960 . S
H1283 C1296 0.960 . S
C1284 H1276 0.929 . S
C1284 C1285 1.380 . S
C1284 C1286 1.384 1_556 S
C1285 C1284 1.380 . S
C1285 C1291 1.378 1_556 S
C1286 H1277 0.930 . S
C1286 C1284 1.384 1_554 S
C1286 C1287 1.372 . S
C1287 C1286 1.372 . S
C1287 C1288 1.400 . S
C1287 C1292 1.490 . S
C1288 H1278 0.930 . S
C1288 C1287 1.400 . S
C1288 C1291 1.386 . S
H1289 C1305 0.930 . S
H1290 C1306 0.931 . S
C1291 H1279 0.929 . S
C1291 C1285 1.378 1_554 S
C1291 C1288 1.386 . S
C1292 C1287 1.490 . S
C1292 C1294 1.395 . S
C1292 C1295 1.403 . S
H1293 C1299 0.930 . S
C1294 H1280 0.930 . S
C1294 C1292 1.395 . S
C1294 C1297 1.403 . S
C1295 C1292 1.403 . S
C1295 C1296 1.524 . S
C1295 C1299 1.400 . S
C1296 H1281 0.960 . S
C1296 H1282 0.960 . S
C1296 H1283 0.960 . S
C1296 C1295 1.524 . S
C1297 C1294 1.403 . S
C1297 C1298 1.392 . S
C1297 C1301 1.495 . S
C1298 C1297 1.392 . S
C1298 C1299 1.385 . S
C1298 C1300 1.478 . S
C1299 H1293 0.930 . S
C1299 C1295 1.400 . S
C1299 C1298 1.385 . S
C1300 C1298 1.478 . S
C1300 C1302 1.381 . S
C1300 C1306 1.383 . S
C1301 C1297 1.495 . S
C1301 H1307 0.959 . S
C1301 H1308 0.961 . S
C1301 H1309 0.960 . S
C1302 C1300 1.381 . S
C1302 C1303 1.394 . S
C1302 H1310 0.930 . S
C1303 C1302 1.394 . S
C1303 C1304 1.383 . S
C1303 H1311 0.929 . S
C1304 C1303 1.383 . S
C1304 C1305 1.377 . S
C1305 H1289 0.930 . S
C1305 C1304 1.377 . S
C1305 C1306 1.379 . S
C1306 H1290 0.931 . S
C1306 C1300 1.383 . S
C1306 C1305 1.379 . S
H1307 C1301 0.959 . S
H1308 C1301 0.961 . S
H1309 C1301 0.960 . S
H1310 C1302 0.930 . S
H1311 C1303 0.929 . S
H1312 C1320 0.929 . S
H1313 C1322 0.930 . S
H1314 C1324 0.930 . S
H1315 C1327 0.929 . S
H1316 C1330 0.930 . S
H1317 C1332 0.960 . S
H1318 C1332 0.960 . S
H1319 C1332 0.960 . S
C1320 H1312 0.929 . S
C1320 C1321 1.377 . S
C1320 C1322 1.384 . S
C1321 C1320 1.377 . S
C1321 C1327 1.390 . S
C1322 H1313 0.930 . S
C1322 C1320 1.384 . S
C1322 C1323 1.372 . S
C1323 C1322 1.372 . S
C1323 C1324 1.400 . S
C1323 C1328 1.490 . S
C1324 H1314 0.930 . S
C1324 C1323 1.400 . S
C1324 C1327 1.386 . S
H1325 C1341 0.930 . S
H1326 C1342 0.931 . S
C1327 H1315 0.929 . S
C1327 C1321 1.390 . S
C1327 C1324 1.386 . S
C1328 C1323 1.490 . S
C1328 C1330 1.395 . S
C1328 C1331 1.403 . S
H1329 C1335 0.930 . S
C1330 H1316 0.930 . S
C1330 C1328 1.395 . S
C1330 C1333 1.403 . S
C1331 C1328 1.403 . S
C1331 C1332 1.524 . S
C1331 C1335 1.400 . S
C1332 H1317 0.960 . S
C1332 H1318 0.960 . S
C1332 H1319 0.960 . S
C1332 C1331 1.524 . S
C1333 C1330 1.403 . S
C1333 C1334 1.392 . S
C1333 C1337 1.495 . S
C1334 C1333 1.392 . S
C1334 C1335 1.385 . S
C1334 C1336 1.478 . S
C1335 H1329 0.930 . S
C1335 C1331 1.400 . S
C1335 C1334 1.385 . S
C1336 C1334 1.478 . S
C1336 C1338 1.381 . S
C1336 C1342 1.383 . S
C1337 C1333 1.495 . S
C1337 H1343 0.959 . S
C1337 H1344 0.961 . S
C1337 H1345 0.960 . S
C1338 C1336 1.381 . S
C1338 C1339 1.394 . S
C1338 H1346 0.930 . S
C1339 C1338 1.394 . S
C1339 C1340 1.383 . S
C1339 H1347 0.929 . S
C1340 C1339 1.383 . S
C1340 C1341 1.377 . S
C1341 H1325 0.930 . S
C1341 C1340 1.377 . S
C1341 C1342 1.379 . S
C1342 H1326 0.931 . S
C1342 C1336 1.383 . S
C1342 C1341 1.379 . S
H1343 C1337 0.959 . S
H1344 C1337 0.961 . S
H1345 C1337 0.960 . S
H1346 C1338 0.930 . S
H1347 C1339 0.929 . S
H1348 C1356 0.929 . S
H1349 C1358 0.930 . S
H1350 C1360 0.930 . S
H1351 C1363 0.929 . S
H1352 C1366 0.930 . S
H1353 C1368 0.960 . S
H1354 C1368 0.960 . S
H1355 C1368 0.960 . S
C1356 H1348 0.929 . S
C1356 C1357 1.378 1_554 S
C1356 C1358 1.384 1_554 S
C1357 C1356 1.378 1_556 S
C1357 C1363 1.388 . S
C1358 H1349 0.930 . S
C1358 C1356 1.384 1_556 S
C1358 C1359 1.372 . S
C1359 C1358 1.372 . S
C1359 C1360 1.400 . S
C1359 C1364 1.490 . S
C1360 H1350 0.930 . S
C1360 C1359 1.400 . S
C1360 C1363 1.386 . S
H1361 C1377 0.930 . S
H1362 C1378 0.931 . S
C1363 H1351 0.929 . S
C1363 C1357 1.388 . S
C1363 C1360 1.386 . S
C1364 C1359 1.490 . S
C1364 C1366 1.395 . S
C1364 C1367 1.403 . S
H1365 C1371 0.930 . S
C1366 H1352 0.930 . S
C1366 C1364 1.395 . S
C1366 C1369 1.403 . S
C1367 C1364 1.403 . S
C1367 C1368 1.524 . S
C1367 C1371 1.400 . S
C1368 H1353 0.960 . S
C1368 H1354 0.960 . S
C1368 H1355 0.960 . S
C1368 C1367 1.524 . S
C1369 C1366 1.403 . S
C1369 C1370 1.392 . S
C1369 C1373 1.495 . S
C1370 C1369 1.392 . S
C1370 C1371 1.385 . S
C1370 C1372 1.478 . S
C1371 H1365 0.930 . S
C1371 C1367 1.400 . S
C1371 C1370 1.385 . S
C1372 C1370 1.478 . S
C1372 C1374 1.381 . S
C1372 C1378 1.383 . S
C1373 C1369 1.495 . S
C1373 H1379 0.959 . S
C1373 H1380 0.961 . S
C1373 H1381 0.960 . S
C1374 C1372 1.381 . S
C1374 C1375 1.394 . S
C1374 H1382 0.930 . S
C1375 C1374 1.394 . S
C1375 C1376 1.383 . S
C1375 H1383 0.929 . S
C1376 C1375 1.383 . S
C1376 C1377 1.377 . S
C1377 H1361 0.930 . S
C1377 C1376 1.377 . S
C1377 C1378 1.379 . S
C1378 H1362 0.931 . S
C1378 C1372 1.383 . S
C1378 C1377 1.379 . S
H1379 C1373 0.959 . S
H1380 C1373 0.961 . S
H1381 C1373 0.960 . S
H1382 C1374 0.930 . S
H1383 C1375 0.929 . S
H1384 C1392 0.929 . S
H1385 C1394 0.930 . S
H1386 C1396 0.930 . S
H1387 C1399 0.929 . S
H1388 C1402 0.930 . S
H1389 C1404 0.960 . S
H1390 C1404 0.960 . S
H1391 C1404 0.960 . S
C1392 H1384 0.929 . S
C1392 C1393 1.377 . S
C1392 C1394 1.384 . S
C1393 C1392 1.377 . S
C1393 C1399 1.390 . S
C1394 H1385 0.930 . S
C1394 C1392 1.384 . S
C1394 C1395 1.372 . S
C1395 C1394 1.372 . S
C1395 C1396 1.400 . S
C1395 C1400 1.490 . S
C1396 H1386 0.930 . S
C1396 C1395 1.400 . S
C1396 C1399 1.386 . S
H1397 C1413 0.930 . S
H1398 C1414 0.931 . S
C1399 H1387 0.929 . S
C1399 C1393 1.390 . S
C1399 C1396 1.386 . S
C1400 C1395 1.490 . S
C1400 C1402 1.395 . S
C1400 C1403 1.403 . S
H1401 C1407 0.930 . S
C1402 H1388 0.930 . S
C1402 C1400 1.395 . S
C1402 C1405 1.403 . S
C1403 C1400 1.403 . S
C1403 C1404 1.524 . S
C1403 C1407 1.400 . S
C1404 H1389 0.960 . S
C1404 H1390 0.960 . S
C1404 H1391 0.960 . S
C1404 C1403 1.524 . S
C1405 C1402 1.403 . S
C1405 C1406 1.392 . S
C1405 C1409 1.495 . S
C1406 C1405 1.392 . S
C1406 C1407 1.385 . S
C1406 C1408 1.478 . S
C1407 H1401 0.930 . S
C1407 C1403 1.400 . S
C1407 C1406 1.385 . S
C1408 C1406 1.478 . S
C1408 C1410 1.381 . S
C1408 C1414 1.383 . S
C1409 C1405 1.495 . S
C1409 H1415 0.959 . S
C1409 H1416 0.961 . S
C1409 H1417 0.960 . S
C1410 C1408 1.381 . S
C1410 C1411 1.394 1_554 S
C1410 H1418 0.930 1_554 S
C1411 C1410 1.394 1_556 S
C1411 C1412 1.384 . S
C1411 H1419 0.929 . S
C1412 C1411 1.384 . S
C1412 C1413 1.375 1_556 S
C1413 H1397 0.930 . S
C1413 C1412 1.375 1_554 S
C1413 C1414 1.379 . S
C1414 H1398 0.931 . S
C1414 C1408 1.383 . S
C1414 C1413 1.379 . S
H1415 C1409 0.959 . S
H1416 C1409 0.961 . S
H1417 C1409 0.960 . S
H1418 C1410 0.930 1_556 S
H1419 C1411 0.929 . S
H1420 C1428 0.929 . S
H1421 C1430 0.930 . S
H1422 C1432 0.930 . S
H1423 C1435 0.929 . S
H1424 C1438 0.930 . S
H1425 C1440 0.960 . S
H1426 C1440 0.960 . S
H1427 C1440 0.960 . S
C1428 H1420 0.929 . S
C1428 C1429 1.377 . S
C1428 C1430 1.384 . S
C1429 C1428 1.377 . S
C1429 C1435 1.390 . S
C1430 H1421 0.930 . S
C1430 C1428 1.384 . S
C1430 C1431 1.372 . S
C1431 C1430 1.372 . S
C1431 C1432 1.400 . S
C1431 C1436 1.490 . S
C1432 H1422 0.930 . S
C1432 C1431 1.400 . S
C1432 C1435 1.386 . S
H1433 C1449 0.930 . S
H1434 C1450 0.931 . S
C1435 H1423 0.929 . S
C1435 C1429 1.390 . S
C1435 C1432 1.386 . S
C1436 C1431 1.490 . S
C1436 C1438 1.395 . S
C1436 C1439 1.403 . S
H1437 C1443 0.930 . S
C1438 H1424 0.930 . S
C1438 C1436 1.395 . S
C1438 C1441 1.403 . S
C1439 C1436 1.403 . S
C1439 C1440 1.524 . S
C1439 C1443 1.400 . S
C1440 H1425 0.960 . S
C1440 H1426 0.960 . S
C1440 H1427 0.960 . S
C1440 C1439 1.524 . S
C1441 C1438 1.403 . S
C1441 C1442 1.392 . S
C1441 C1445 1.495 . S
C1442 C1441 1.392 . S
C1442 C1443 1.385 . S
C1442 C1444 1.478 . S
C1443 H1437 0.930 . S
C1443 C1439 1.400 . S
C1443 C1442 1.385 . S
C1444 C1442 1.478 . S
C1444 C1446 1.381 . S
C1444 C1450 1.383 . S
C1445 C1441 1.495 . S
C1445 H1451 0.959 . S
C1445 H1452 0.961 . S
C1445 H1453 0.960 . S
C1446 C1444 1.381 . S
C1446 C1447 1.394 . S
C1446 H1454 0.930 . S
C1447 C1446 1.394 . S
C1447 C1448 1.383 . S
C1447 H1455 0.929 . S
C1448 C1447 1.383 . S
C1448 C1449 1.377 . S
C1449 H1433 0.930 . S
C1449 C1448 1.377 . S
C1449 C1450 1.379 . S
C1450 H1434 0.931 . S
C1450 C1444 1.383 . S
C1450 C1449 1.379 . S
H1451 C1445 0.959 . S
H1452 C1445 0.961 . S
H1453 C1445 0.960 . S
H1454 C1446 0.930 . S
H1455 C1447 0.929 . S
H1456 C1464 0.929 . S
H1457 C1466 0.930 . S
H1458 C1468 0.930 . S
H1459 C1471 0.929 . S
H1460 C1474 0.930 . S
H1461 C1476 0.960 . S
H1462 C1476 0.960 . S
H1463 C1476 0.960 . S
C1464 H1456 0.929 . S
C1464 C1465 1.377 . S
C1464 C1466 1.384 . S
C1465 C1464 1.377 . S
C1465 C1471 1.390 . S
C1466 H1457 0.930 . S
C1466 C1464 1.384 . S
C1466 C1467 1.372 . S
C1467 C1466 1.372 . S
C1467 C1468 1.400 . S
C1467 C1472 1.490 . S
C1468 H1458 0.930 . S
C1468 C1467 1.400 . S
C1468 C1471 1.386 . S
H1469 C1485 0.930 . S
H1470 C1486 0.931 . S
C1471 H1459 0.929 . S
C1471 C1465 1.390 . S
C1471 C1468 1.386 . S
C1472 C1467 1.490 . S
C1472 C1474 1.395 . S
C1472 C1475 1.403 . S
H1473 C1479 0.930 . S
C1474 H1460 0.930 . S
C1474 C1472 1.395 . S
C1474 C1477 1.403 . S
C1475 C1472 1.403 . S
C1475 C1476 1.524 . S
C1475 C1479 1.400 . S
C1476 H1461 0.960 . S
C1476 H1462 0.960 . S
C1476 H1463 0.960 . S
C1476 C1475 1.524 . S
C1477 C1474 1.403 . S
C1477 C1478 1.392 . S
C1477 C1481 1.495 . S
C1478 C1477 1.392 . S
C1478 C1479 1.385 . S
C1478 C1480 1.478 . S
C1479 H1473 0.930 . S
C1479 C1475 1.400 . S
C1479 C1478 1.385 . S
C1480 C1478 1.478 . S
C1480 C1482 1.381 . S
C1480 C1486 1.383 . S
C1481 C1477 1.495 . S
C1481 H1487 0.959 . S
C1481 H1488 0.961 . S
C1481 H1489 0.960 . S
C1482 C1480 1.381 . S
C1482 C1483 1.394 . S
C1482 H1490 0.930 . S
C1483 C1482 1.394 . S
C1483 C1484 1.383 . S
C1483 H1491 0.929 . S
C1484 C1483 1.383 . S
C1484 C1485 1.377 . S
C1485 H1469 0.930 . S
C1485 C1484 1.377 . S
C1485 C1486 1.379 . S
C1486 H1470 0.931 . S
C1486 C1480 1.383 . S
C1486 C1485 1.379 . S
H1487 C1481 0.959 . S
H1488 C1481 0.961 . S
H1489 C1481 0.960 . S
H1490 C1482 0.930 . S
H1491 C1483 0.929 . S
H1492 C1500 0.929 . S
H1493 C1502 0.930 . S
H1494 C1504 0.930 . S
H1495 C1507 0.929 . S
H1496 C1510 0.930 . S
H1497 C1512 0.960 . S
H1498 C1512 0.960 . S
H1499 C1512 0.960 . S
C1500 H1492 0.929 . S
C1500 C1501 1.378 . S
C1500 C1502 1.384 1_556 S
C1501 C1500 1.378 . S
C1501 C1507 1.380 1_556 S
C1502 H1493 0.930 . S
C1502 C1500 1.384 1_554 S
C1502 C1503 1.372 . S
C1503 C1502 1.372 . S
C1503 C1504 1.400 . S
C1503 C1508 1.490 . S
C1504 H1494 0.930 . S
C1504 C1503 1.400 . S
C1504 C1507 1.386 . S
H1505 C1521 0.930 . S
H1506 C1522 0.931 . S
C1507 H1495 0.929 . S
C1507 C1501 1.380 1_554 S
C1507 C1504 1.386 . S
C1508 C1503 1.490 . S
C1508 C1510 1.395 . S
C1508 C1511 1.403 . S
H1509 C1515 0.930 . S
C1510 H1496 0.930 . S
C1510 C1508 1.395 . S
C1510 C1513 1.403 . S
C1511 C1508 1.403 . S
C1511 C1512 1.524 . S
C1511 C1515 1.400 . S
C1512 H1497 0.960 . S
C1512 H1498 0.960 . S
C1512 H1499 0.960 . S
C1512 C1511 1.524 . S
C1513 C1510 1.403 . S
C1513 C1514 1.392 . S
C1513 C1517 1.495 . S
C1514 C1513 1.392 . S
C1514 C1515 1.385 . S
C1514 C1516 1.478 . S
C1515 H1509 0.930 . S
C1515 C1511 1.400 . S
C1515 C1514 1.385 . S
C1516 C1514 1.478 . S
C1516 C1518 1.381 . S
C1516 C1522 1.383 . S
C1517 C1513 1.495 . S
C1517 H1523 0.959 . S
C1517 H1524 0.961 . S
C1517 H1525 0.960 . S
C1518 C1516 1.381 . S
C1518 C1519 1.394 . S
C1518 H1526 0.930 . S
C1519 C1518 1.394 . S
C1519 C1520 1.383 . S
C1519 H1527 0.929 . S
C1520 C1519 1.383 . S
C1520 C1521 1.377 . S
C1521 H1505 0.930 . S
C1521 C1520 1.377 . S
C1521 C1522 1.379 . S
C1522 H1506 0.931 . S
C1522 C1516 1.383 . S
C1522 C1521 1.379 . S
H1523 C1517 0.959 . S
H1524 C1517 0.961 . S
H1525 C1517 0.960 . S
H1526 C1518 0.930 . S
H1527 C1519 0.929 . S
H1528 C1536 0.929 . S
H1529 C1538 0.930 . S
H1530 C1540 0.930 . S
H1531 C1543 0.929 . S
H1532 C1546 0.930 . S
H1533 C1548 0.960 . S
H1534 C1548 0.960 . S
H1535 C1548 0.960 . S
C1536 H1528 0.929 . S
C1536 C1537 1.377 . S
C1536 C1538 1.384 . S
C1537 C1536 1.377 . S
C1537 C1543 1.390 . S
C1538 H1529 0.930 . S
C1538 C1536 1.384 . S
C1538 C1539 1.372 . S
C1539 C1538 1.372 . S
C1539 C1540 1.400 . S
C1539 C1544 1.490 . S
C1540 H1530 0.930 . S
C1540 C1539 1.400 . S
C1540 C1543 1.386 . S
H1541 C1557 0.930 . S
H1542 C1558 0.931 . S
C1543 H1531 0.929 . S
C1543 C1537 1.390 . S
C1543 C1540 1.386 . S
C1544 C1539 1.490 . S
C1544 C1546 1.395 . S
C1544 C1547 1.403 . S
H1545 C1551 0.930 . S
C1546 H1532 0.930 . S
C1546 C1544 1.395 . S
C1546 C1549 1.403 . S
C1547 C1544 1.403 . S
C1547 C1548 1.524 . S
C1547 C1551 1.400 . S
C1548 H1533 0.960 . S
C1548 H1534 0.960 . S
C1548 H1535 0.960 . S
C1548 C1547 1.524 . S
C1549 C1546 1.403 . S
C1549 C1550 1.392 . S
C1549 C1553 1.495 . S
C1550 C1549 1.392 . S
C1550 C1551 1.385 . S
C1550 C1552 1.478 . S
C1551 H1545 0.930 . S
C1551 C1547 1.400 . S
C1551 C1550 1.385 . S
C1552 C1550 1.478 . S
C1552 C1554 1.381 . S
C1552 C1558 1.383 . S
C1553 C1549 1.495 . S
C1553 H1559 0.959 . S
C1553 H1560 0.961 . S
C1553 H1561 0.960 . S
C1554 C1552 1.381 . S
C1554 C1555 1.394 . S
C1554 H1562 0.930 . S
C1555 C1554 1.394 . S
C1555 C1556 1.383 . S
C1555 H1563 0.929 . S
C1556 C1555 1.383 . S
C1556 C1557 1.377 1_556 S
C1557 H1541 0.930 . S
C1557 C1556 1.377 1_554 S
C1557 C1558 1.379 1_554 S
C1558 H1542 0.931 . S
C1558 C1552 1.383 . S
C1558 C1557 1.379 1_556 S
H1559 C1553 0.959 . S
H1560 C1553 0.961 . S
H1561 C1553 0.960 . S
H1562 C1554 0.930 . S
H1563 C1555 0.929 . S
H1564 C1572 0.929 . S
H1565 C1574 0.930 . S
H1566 C1576 0.930 . S
H1567 C1579 0.929 . S
H1568 C1582 0.930 . S
H1569 C1584 0.960 . S
H1570 C1584 0.960 . S
H1571 C1584 0.960 . S
C1572 H1564 0.929 . S
C1572 C1573 1.377 . S
C1572 C1574 1.384 . S
C1573 C1572 1.377 . S
C1573 C1579 1.390 . S
C1574 H1565 0.930 . S
C1574 C1572 1.384 . S
C1574 C1575 1.372 . S
C1575 C1574 1.372 . S
C1575 C1576 1.400 . S
C1575 C1580 1.490 . S
C1576 H1566 0.930 . S
C1576 C1575 1.400 . S
C1576 C1579 1.386 . S
H1577 C1593 0.930 . S
H1578 C1594 0.931 . S
C1579 H1567 0.929 . S
C1579 C1573 1.390 . S
C1579 C1576 1.386 . S
C1580 C1575 1.490 . S
C1580 C1582 1.395 . S
C1580 C1583 1.403 . S
H1581 C1587 0.930 . S
C1582 H1568 0.930 . S
C1582 C1580 1.395 . S
C1582 C1585 1.403 . S
C1583 C1580 1.403 . S
C1583 C1584 1.524 . S
C1583 C1587 1.400 . S
C1584 H1569 0.960 . S
C1584 H1570 0.960 . S
C1584 H1571 0.960 . S
C1584 C1583 1.524 . S
C1585 C1582 1.403 . S
C1585 C1586 1.392 . S
C1585 C1589 1.495 . S
C1586 C1585 1.392 . S
C1586 C1587 1.385 . S
C1586 C1588 1.478 . S
C1587 H1581 0.930 . S
C1587 C1583 1.400 . S
C1587 C1586 1.385 . S
C1588 C1586 1.478 . S
C1588 C1590 1.381 . S
C1588 C1594 1.383 . S
C1589 C1585 1.495 . S
C1589 H1595 0.959 . S
C1589 H1596 0.961 . S
C1589 H1597 0.960 . S
C1590 C1588 1.381 . S
C1590 C1591 1.394 . S
C1590 H1598 0.930 . S
C1591 C1590 1.394 . S
C1591 C1592 1.383 . S
C1591 H1599 0.929 . S
C1592 C1591 1.383 . S
C1592 C1593 1.377 . S
C1593 H1577 0.930 . S
C1593 C1592 1.377 . S
C1593 C1594 1.379 . S
C1594 H1578 0.931 . S
C1594 C1588 1.383 . S
C1594 C1593 1.379 . S
H1595 C1589 0.959 . S
H1596 C1589 0.961 . S
H1597 C1589 0.960 . S
H1598 C1590 0.930 . S
H1599 C1591 0.929 . S
H1600 C1608 0.929 . S
H1601 C1610 0.930 . S
H1602 C1612 0.930 . S
H1603 C1615 0.929 . S
H1604 C1618 0.930 . S
H1605 C1620 0.960 . S
H1606 C1620 0.960 . S
H1607 C1620 0.960 . S
C1608 H1600 0.929 . S
C1608 C1609 1.377 . S
C1608 C1610 1.384 . S
C1609 C1608 1.377 . S
C1609 C1615 1.390 . S
C1610 H1601 0.930 . S
C1610 C1608 1.384 . S
C1610 C1611 1.372 . S
C1611 C1610 1.372 . S
C1611 C1612 1.400 . S
C1611 C1616 1.490 . S
C1612 H1602 0.930 . S
C1612 C1611 1.400 . S
C1612 C1615 1.386 . S
H1613 C1629 0.930 . S
H1614 C1630 0.931 . S
C1615 H1603 0.929 . S
C1615 C1609 1.390 . S
C1615 C1612 1.386 . S
C1616 C1611 1.490 . S
C1616 C1618 1.395 . S
C1616 C1619 1.403 . S
H1617 C1623 0.930 . S
C1618 H1604 0.930 . S
C1618 C1616 1.395 . S
C1618 C1621 1.403 . S
C1619 C1616 1.403 . S
C1619 C1620 1.524 . S
C1619 C1623 1.400 . S
C1620 H1605 0.960 . S
C1620 H1606 0.960 . S
C1620 H1607 0.960 . S
C1620 C1619 1.524 . S
C1621 C1618 1.403 . S
C1621 C1622 1.392 . S
C1621 C1625 1.495 . S
C1622 C1621 1.392 . S
C1622 C1623 1.385 . S
C1622 C1624 1.476 1_554 S
C1623 H1617 0.930 . S
C1623 C1619 1.400 . S
C1623 C1622 1.385 . S
C1624 C1622 1.476 1_556 S
C1624 C1626 1.380 1_556 S
C1624 C1630 1.385 . S
C1625 C1621 1.495 . S
C1625 H1631 0.959 . S
C1625 H1632 0.961 . S
C1625 H1633 0.960 . S
C1626 C1624 1.380 1_554 S
C1626 C1627 1.394 1_554 S
C1626 H1634 0.930 . S
C1627 C1626 1.394 1_556 S
C1627 C1628 1.383 . S
C1627 H1635 0.929 . S
C1628 C1627 1.383 . S
C1628 C1629 1.377 . S
C1629 H1613 0.930 . S
C1629 C1628 1.377 . S
C1629 C1630 1.379 . S
C1630 H1614 0.931 . S
C1630 C1624 1.385 . S
C1630 C1629 1.379 . S
H1631 C1625 0.959 . S
H1632 C1625 0.961 . S
H1633 C1625 0.960 . S
H1634 C1626 0.930 . S
H1635 C1627 0.929 . S
H1636 C1644 0.929 . S
H1637 C1646 0.930 . S
H1638 C1648 0.930 . S
H1639 C1651 0.929 . S
H1640 C1654 0.930 . S
H1641 C1656 0.981 . S
H1642 C1656 0.960 . S
H1643 C1656 0.960 . S
C1644 H1636 0.929 . S
C1644 C1645 1.377 . S
C1644 C1646 1.384 . S
C1645 C1644 1.377 . S
C1645 C1651 1.390 . S
C1646 H1637 0.930 . S
C1646 C1644 1.384 . S
C1646 C1647 1.372 . S
C1647 C1646 1.372 . S
C1647 C1648 1.400 . S
C1647 C1652 1.490 . S
C1648 H1638 0.930 . S
C1648 C1647 1.400 . S
C1648 C1651 1.386 . S
H1649 C1665 0.930 . S
H1650 C1666 0.931 . S
C1651 H1639 0.929 . S
C1651 C1645 1.390 . S
C1651 C1648 1.386 . S
C1652 C1647 1.490 . S
C1652 C1654 1.395 . S
C1652 C1655 1.403 . S
H1653 C1659 0.930 . S
C1654 H1640 0.930 . S
C1654 C1652 1.395 . S
C1654 C1657 1.403 1_655 S
C1655 C1652 1.403 . S
C1655 C1656 1.524 . S
C1655 C1659 1.400 1_655 S
C1656 H1641 0.981 . S
C1656 H1642 0.960 . S
C1656 H1643 0.960 . S
C1656 C1655 1.524 . S
C1657 C1654 1.403 1_455 S
C1657 C1658 1.392 . S
C1657 C1661 1.495 . S
C1658 C1657 1.392 . S
C1658 C1659 1.385 . S
C1658 C1660 1.478 . S
C1659 H1653 0.930 . S
C1659 C1655 1.400 1_455 S
C1659 C1658 1.385 . S
C1660 C1658 1.478 . S
C1660 C1662 1.381 . S
C1660 C1666 1.383 . S
C1661 C1657 1.495 . S
C1661 H1667 0.986 . S
C1661 H1668 0.961 . S
C1661 H1669 0.960 . S
C1662 C1660 1.381 . S
C1662 C1663 1.394 . S
C1662 H1670 0.930 . S
C1663 C1662 1.394 . S
C1663 C1664 1.383 . S
C1663 H1671 0.929 . S
C1664 C1663 1.383 . S
C1664 C1665 1.377 . S
C1665 H1649 0.930 . S
C1665 C1664 1.377 . S
C1665 C1666 1.379 . S
C1666 H1650 0.931 . S
C1666 C1660 1.383 . S
C1666 C1665 1.379 . S
H1667 C1661 0.986 . S
H1668 C1661 0.961 . S
H1669 C1661 0.960 . S
H1670 C1662 0.930 . S
H1671 C1663 0.929 . S
H1672 C1680 0.929 . S
H1673 C1682 0.930 . S
H1674 C1684 0.930 . S
H1675 C1687 0.929 . S
H1676 C1690 0.930 . S
H1677 C1692 0.960 . S
H1678 C1692 0.960 . S
H1679 C1692 0.960 . S
C1680 H1672 0.929 . S
C1680 C1681 1.377 . S
C1680 C1682 1.384 . S
C1681 C1680 1.377 . S
C1681 C1687 1.390 . S
C1682 H1673 0.930 . S
C1682 C1680 1.384 . S
C1682 C1683 1.372 . S
C1683 C1682 1.372 . S
C1683 C1684 1.400 . S
C1683 C1688 1.490 . S
C1684 H1674 0.930 . S
C1684 C1683 1.400 . S
C1684 C1687 1.386 . S
H1685 C1701 0.930 . S
H1686 C1702 0.931 . S
C1687 H1675 0.929 . S
C1687 C1681 1.390 . S
C1687 C1684 1.386 . S
C1688 C1683 1.490 . S
C1688 C1690 1.395 . S
C1688 C1691 1.403 . S
H1689 C1695 0.930 . S
C1690 H1676 0.930 . S
C1690 C1688 1.395 . S
C1690 C1693 1.403 . S
C1691 C1688 1.403 . S
C1691 C1692 1.524 . S
C1691 C1695 1.400 . S
C1692 H1677 0.960 . S
C1692 H1678 0.960 . S
C1692 H1679 0.960 . S
C1692 C1691 1.524 . S
C1693 C1690 1.403 . S
C1693 C1694 1.392 . S
C1693 C1697 1.495 . S
C1694 C1693 1.392 . S
C1694 C1695 1.385 . S
C1694 C1696 1.478 . S
C1695 H1689 0.930 . S
C1695 C1691 1.400 . S
C1695 C1694 1.385 . S
C1696 C1694 1.478 . S
C1696 C1698 1.381 . S
C1696 C1702 1.383 . S
C1697 C1693 1.495 . S
C1697 H1703 0.959 . S
C1697 H1704 0.961 . S
C1697 H1705 0.960 . S
C1698 C1696 1.381 . S
C1698 C1699 1.394 . S
C1698 H1706 0.930 . S
C1699 C1698 1.394 . S
C1699 C1700 1.383 . S
C1699 H1707 0.929 . S
C1700 C1699 1.383 . S
C1700 C1701 1.377 . S
C1701 H1685 0.930 . S
C1701 C1700 1.377 . S
C1701 C1702 1.379 . S
C1702 H1686 0.931 . S
C1702 C1696 1.383 . S
C1702 C1701 1.379 . S
H1703 C1697 0.959 . S
H1704 C1697 0.961 . S
H1705 C1697 0.960 . S
H1706 C1698 0.930 . S
H1707 C1699 0.929 . S
H1708 C1716 0.929 . S
H1709 C1718 0.930 . S
H1710 C1720 0.930 . S
H1711 C1723 0.929 . S
H1712 C1726 0.930 . S
H1713 C1728 0.960 . S
H1714 C1728 0.960 . S
H1715 C1728 0.960 . S
C1716 H1708 0.929 . S
C1716 C1717 1.377 . S
C1716 C1718 1.384 . S
C1717 C1716 1.377 . S
C1717 C1723 1.390 . S
C1718 H1709 0.930 . S
C1718 C1716 1.384 . S
C1718 C1719 1.372 . S
C1719 C1718 1.372 . S
C1719 C1720 1.400 . S
C1719 C1724 1.490 . S
C1720 H1710 0.930 . S
C1720 C1719 1.400 . S
C1720 C1723 1.386 . S
H1721 C1737 0.930 . S
H1722 C1738 0.931 . S
C1723 H1711 0.929 . S
C1723 C1717 1.390 . S
C1723 C1720 1.386 . S
C1724 C1719 1.490 . S
C1724 C1726 1.395 . S
C1724 C1727 1.403 . S
H1725 C1731 0.930 . S
C1726 H1712 0.930 . S
C1726 C1724 1.395 . S
C1726 C1729 1.403 . S
C1727 C1724 1.403 . S
C1727 C1728 1.524 . S
C1727 C1731 1.400 . S
C1728 H1713 0.960 . S
C1728 H1714 0.960 . S
C1728 H1715 0.960 . S
C1728 C1727 1.524 . S
C1729 C1726 1.403 . S
C1729 C1730 1.392 . S
C1729 C1733 1.495 . S
C1730 C1729 1.392 . S
C1730 C1731 1.385 . S
C1730 C1732 1.478 . S
C1731 H1725 0.930 . S
C1731 C1727 1.400 . S
C1731 C1730 1.385 . S
C1732 C1730 1.478 . S
C1732 C1734 1.381 . S
C1732 C1738 1.383 . S
C1733 C1729 1.495 . S
C1733 H1739 0.959 . S
C1733 H1740 0.961 . S
C1733 H1741 0.960 . S
C1734 C1732 1.381 . S
C1734 C1735 1.394 . S
C1734 H1742 0.930 . S
C1735 C1734 1.394 . S
C1735 C1736 1.383 . S
C1735 H1743 0.930 1_556 S
C1736 C1735 1.383 . S
C1736 C1737 1.377 . S
C1737 H1721 0.930 . S
C1737 C1736 1.377 . S
C1737 C1738 1.379 . S
C1738 H1722 0.931 . S
C1738 C1732 1.383 . S
C1738 C1737 1.379 . S
H1739 C1733 0.959 . S
H1740 C1733 0.961 . S
H1741 C1733 0.960 . S
H1742 C1734 0.930 . S
H1743 C1735 0.930 1_554 S
H1744 C1752 0.929 . S
H1745 C1754 0.930 . S
H1746 C1756 0.930 . S
H1747 C1759 0.929 . S
H1748 C1762 0.930 . S
H1749 C1764 0.960 . S
H1750 C1764 0.960 . S
H1751 C1764 0.960 . S
C1752 H1744 0.929 . S
C1752 C1753 1.377 . S
C1752 C1754 1.384 . S
C1753 C1752 1.377 . S
C1753 C1759 1.390 . S
C1754 H1745 0.930 . S
C1754 C1752 1.384 . S
C1754 C1755 1.372 . S
C1755 C1754 1.372 . S
C1755 C1756 1.400 . S
C1755 C1760 1.490 . S
C1756 H1746 0.930 . S
C1756 C1755 1.400 . S
C1756 C1759 1.386 . S
H1757 C1773 0.930 . S
H1758 C1774 0.931 . S
C1759 H1747 0.929 . S
C1759 C1753 1.390 . S
C1759 C1756 1.386 . S
C1760 C1755 1.490 . S
C1760 C1762 1.395 . S
C1760 C1763 1.403 . S
H1761 C1767 0.930 . S
C1762 H1748 0.930 . S
C1762 C1760 1.395 . S
C1762 C1765 1.403 . S
C1763 C1760 1.403 . S
C1763 C1764 1.524 . S
C1763 C1767 1.400 . S
C1764 H1749 0.960 . S
C1764 H1750 0.960 . S
C1764 H1751 0.960 . S
C1764 C1763 1.524 . S
C1765 C1762 1.403 . S
C1765 C1766 1.392 . S
C1765 C1769 1.495 . S
C1766 C1765 1.392 . S
C1766 C1767 1.385 . S
C1766 C1768 1.478 . S
C1767 H1761 0.930 . S
C1767 C1763 1.400 . S
C1767 C1766 1.385 . S
C1768 C1766 1.478 . S
C1768 C1770 1.381 . S
C1768 C1774 1.383 . S
C1769 C1765 1.495 . S
C1769 H1775 0.959 . S
C1769 H1776 0.961 . S
C1769 H1777 0.960 . S
C1770 C1768 1.381 . S
C1770 C1771 1.394 . S
C1770 H1778 0.930 . S
C1771 C1770 1.394 . S
C1771 C1772 1.383 . S
C1771 H1779 0.929 . S
C1772 C1771 1.383 . S
C1772 C1773 1.377 . S
C1773 H1757 0.930 . S
C1773 C1772 1.377 . S
C1773 C1774 1.379 . S
C1774 H1758 0.931 . S
C1774 C1768 1.383 . S
C1774 C1773 1.379 . S
H1775 C1769 0.959 . S
H1776 C1769 0.961 . S
H1777 C1769 0.960 . S
H1778 C1770 0.930 . S
H1779 C1771 0.929 . S
H1780 C1788 0.929 . S
H1781 C1790 0.930 . S
H1782 C1792 0.930 . S
H1783 C1795 0.929 . S
H1784 C1798 0.930 . S
H1785 C1800 0.960 . S
H1786 C1800 0.960 . S
H1787 C1800 0.960 . S
C1788 H1780 0.929 . S
C1788 C1789 1.377 . S
C1788 C1790 1.384 . S
C1789 C1788 1.377 . S
C1789 C1795 1.390 . S
C1790 H1781 0.930 . S
C1790 C1788 1.384 . S
C1790 C1791 1.372 . S
C1791 C1790 1.372 . S
C1791 C1792 1.400 . S
C1791 C1796 1.490 . S
C1792 H1782 0.930 . S
C1792 C1791 1.400 . S
C1792 C1795 1.386 . S
H1793 C1809 0.930 . S
H1794 C1810 0.931 . S
C1795 H1783 0.929 . S
C1795 C1789 1.390 . S
C1795 C1792 1.386 . S
C1796 C1791 1.490 . S
C1796 C1798 1.395 . S
C1796 C1799 1.403 . S
H1797 C1803 0.930 . S
C1798 H1784 0.930 . S
C1798 C1796 1.395 . S
C1798 C1801 1.403 . S
C1799 C1796 1.403 . S
C1799 C1800 1.524 . S
C1799 C1803 1.400 . S
C1800 H1785 0.960 . S
C1800 H1786 0.960 . S
C1800 H1787 0.960 . S
C1800 C1799 1.524 . S
C1801 C1798 1.403 . S
C1801 C1802 1.392 . S
C1801 C1805 1.495 . S
C1802 C1801 1.392 . S
C1802 C1803 1.385 . S
C1802 C1804 1.478 . S
C1803 H1797 0.930 . S
C1803 C1799 1.400 . S
C1803 C1802 1.385 . S
C1804 C1802 1.478 . S
C1804 C1806 1.381 . S
C1804 C1810 1.383 . S
C1805 C1801 1.495 . S
C1805 H1811 0.959 . S
C1805 H1812 0.961 . S
C1805 H1813 0.960 . S
C1806 C1804 1.381 . S
C1806 C1807 1.394 . S
C1806 H1814 0.930 . S
C1807 C1806 1.394 . S
C1807 C1808 1.383 . S
C1807 H1815 0.929 . S
C1808 C1807 1.383 . S
C1808 C1809 1.377 . S
C1809 H1793 0.930 . S
C1809 C1808 1.377 . S
C1809 C1810 1.379 . S
C1810 H1794 0.931 . S
C1810 C1804 1.383 . S
C1810 C1809 1.379 . S
H1811 C1805 0.959 . S
H1812 C1805 0.961 . S
H1813 C1805 0.960 . S
H1814 C1806 0.930 . S
H1815 C1807 0.929 . S
H1816 C1824 0.929 . S
H1817 C1826 0.930 . S
H1818 C1828 0.930 . S
H1819 C1831 0.929 . S
H1820 C1834 0.930 . S
H1821 C1836 0.960 . S
H1822 C1836 0.960 . S
H1823 C1836 0.960 . S
C1824 H1816 0.929 . S
C1824 C1825 1.377 . S
C1824 C1826 1.384 . S
C1825 C1824 1.377 . S
C1825 C1831 1.390 . S
C1826 H1817 0.930 . S
C1826 C1824 1.384 . S
C1826 C1827 1.372 . S
C1827 C1826 1.372 . S
C1827 C1828 1.400 . S
C1827 C1832 1.490 . S
C1828 H1818 0.930 . S
C1828 C1827 1.400 . S
C1828 C1831 1.386 . S
H1829 C1845 0.930 . S
H1830 C1846 0.931 . S
C1831 H1819 0.929 . S
C1831 C1825 1.390 . S
C1831 C1828 1.386 . S
C1832 C1827 1.490 . S
C1832 C1834 1.395 . S
C1832 C1835 1.403 . S
H1833 C1839 0.930 . S
C1834 H1820 0.930 . S
C1834 C1832 1.395 . S
C1834 C1837 1.403 . S
C1835 C1832 1.403 . S
C1835 C1836 1.524 . S
C1835 C1839 1.400 . S
C1836 H1821 0.960 . S
C1836 H1822 0.960 . S
C1836 H1823 0.960 . S
C1836 C1835 1.524 . S
C1837 C1834 1.403 . S
C1837 C1838 1.392 . S
C1837 C1841 1.495 . S
C1838 C1837 1.392 . S
C1838 C1839 1.385 . S
C1838 C1840 1.478 . S
C1839 H1833 0.930 . S
C1839 C1835 1.400 . S
C1839 C1838 1.385 . S
C1840 C1838 1.478 . S
C1840 C1842 1.381 . S
C1840 C1846 1.383 1_556 S
C1841 C1837 1.495 . S
C1841 H1847 0.959 . S
C1841 H1848 0.961 . S
C1841 H1849 0.960 . S
C1842 C1840 1.381 . S
C1842 C1843 1.394 1_556 S
C1842 H1850 0.930 . S
C1843 C1842 1.394 1_554 S
C1843 C1844 1.383 . S
C1843 H1851 0.929 . S
C1844 C1843 1.383 . S
C1844 C1845 1.377 . S
C1845 H1829 0.930 . S
C1845 C1844 1.377 . S
C1845 C1846 1.379 . S
C1846 H1830 0.931 . S
C1846 C1840 1.383 1_554 S
C1846 C1845 1.379 . S
H1847 C1841 0.959 . S
H1848 C1841 0.961 . S
H1849 C1841 0.960 . S
H1850 C1842 0.930 . S
H1851 C1843 0.929 . S
H1852 C1860 0.929 1_556 S
H1853 C1862 0.930 . S
H1854 C1864 0.930 . S
H1855 C1867 0.929 . S
H1856 C1870 0.930 . S
H1857 C1872 0.960 . S
H1858 C1872 0.960 . S
H1859 C1872 0.960 . S
C1860 H1852 0.929 1_554 S
C1860 C1861 1.377 . S
C1860 C1862 1.384 . S
C1861 C1860 1.377 . S
C1861 C1867 1.390 . S
C1862 H1853 0.930 . S
C1862 C1860 1.384 . S
C1862 C1863 1.372 . S
C1863 C1862 1.372 . S
C1863 C1864 1.400 . S
C1863 C1868 1.490 . S
C1864 H1854 0.930 . S
C1864 C1863 1.400 . S
C1864 C1867 1.386 . S
H1865 C1881 0.930 . S
H1866 C1882 0.931 . S
C1867 H1855 0.929 . S
C1867 C1861 1.390 . S
C1867 C1864 1.386 . S
C1868 C1863 1.490 . S
C1868 C1870 1.395 1_455 S
C1868 C1871 1.403 . S
H1869 C1875 0.928 . S
C1870 H1856 0.930 . S
C1870 C1868 1.395 1_655 S
C1870 C1873 1.403 . S
C1871 C1868 1.403 . S
C1871 C1872 1.524 . S
C1871 C1875 1.406 . S
C1872 H1857 0.960 . S
C1872 H1858 0.960 . S
C1872 H1859 0.960 . S
C1872 C1871 1.524 . S
C1873 C1870 1.403 . S
C1873 C1874 1.392 . S
C1873 C1877 1.495 . S
C1874 C1873 1.392 . S
C1874 C1875 1.378 1_655 S
C1874 C1876 1.478 . S
C1875 H1869 0.928 . S
C1875 C1871 1.406 . S
C1875 C1874 1.378 1_455 S
C1876 C1874 1.478 . S
C1876 C1878 1.381 . S
C1876 C1882 1.383 . S
C1877 C1873 1.495 . S
C1877 H1883 0.959 . S
C1877 H1884 0.961 . S
C1877 H1885 0.960 . S
C1878 C1876 1.381 . S
C1878 C1879 1.394 . S
C1878 H1886 0.930 . S
C1879 C1878 1.394 . S
C1879 C1880 1.383 . S
C1879 H1887 0.929 . S
C1880 C1879 1.383 . S
C1880 C1881 1.377 . S
C1881 H1865 0.930 . S
C1881 C1880 1.377 . S
C1881 C1882 1.379 . S
C1882 H1866 0.931 . S
C1882 C1876 1.383 . S
C1882 C1881 1.379 . S
H1883 C1877 0.959 . S
H1884 C1877 0.961 . S
H1885 C1877 0.960 . S
H1886 C1878 0.930 . S
H1887 C1879 0.929 . S
H1888 C1896 0.929 . S
H1889 C1898 0.930 . S
H1890 C1900 0.930 . S
H1891 C1903 0.929 . S
H1892 C1906 0.930 . S
H1893 C1908 0.960 . S
H1894 C1908 0.960 . S
H1895 C1908 0.960 . S
C1896 H1888 0.929 . S
C1896 C1897 1.377 . S
C1896 C1898 1.384 . S
C1897 C1896 1.377 . S
C1897 C1903 1.390 . S
C1898 H1889 0.930 . S
C1898 C1896 1.384 . S
C1898 C1899 1.372 . S
C1899 C1898 1.372 . S
C1899 C1900 1.400 . S
C1899 C1904 1.490 . S
C1900 H1890 0.930 . S
C1900 C1899 1.400 . S
C1900 C1903 1.386 . S
H1901 C1917 0.930 . S
H1902 C1918 0.931 . S
C1903 H1891 0.929 . S
C1903 C1897 1.390 . S
C1903 C1900 1.386 . S
C1904 C1899 1.490 . S
C1904 C1906 1.395 . S
C1904 C1907 1.403 . S
H1905 C1911 0.930 . S
C1906 H1892 0.930 . S
C1906 C1904 1.395 . S
C1906 C1909 1.403 . S
C1907 C1904 1.403 . S
C1907 C1908 1.524 . S
C1907 C1911 1.400 . S
C1908 H1893 0.960 . S
C1908 H1894 0.960 . S
C1908 H1895 0.960 . S
C1908 C1907 1.524 . S
C1909 C1906 1.403 . S
C1909 C1910 1.392 . S
C1909 C1913 1.495 . S
C1910 C1909 1.392 . S
C1910 C1911 1.385 . S
C1910 C1912 1.478 1_556 S
C1911 H1905 0.930 . S
C1911 C1907 1.400 . S
C1911 C1910 1.385 . S
C1912 C1910 1.478 1_554 S
C1912 C1914 1.381 . S
C1912 C1918 1.383 1_554 S
C1913 C1909 1.495 . S
C1913 H1919 0.959 . S
C1913 H1920 0.961 . S
C1913 H1921 0.960 1_556 S
C1914 C1912 1.381 . S
C1914 C1915 1.394 . S
C1914 H1922 0.930 . S
C1915 C1914 1.394 . S
C1915 C1916 1.383 . S
C1915 H1923 0.929 . S
C1916 C1915 1.383 . S
C1916 C1917 1.377 . S
C1917 H1901 0.930 . S
C1917 C1916 1.377 . S
C1917 C1918 1.379 1_554 S
C1918 H1902 0.931 . S
C1918 C1912 1.383 1_556 S
C1918 C1917 1.379 1_556 S
H1919 C1913 0.959 . S
H1920 C1913 0.961 . S
H1921 C1913 0.960 1_554 S
H1922 C1914 0.930 . S
H1923 C1915 0.929 . S
H1924 C1932 0.929 . S
H1925 C1934 0.930 . S
H1926 C1936 0.930 . S
H1927 C1939 0.929 . S
H1928 C1942 0.930 . S
H1929 C1944 0.960 . S
H1930 C1944 0.960 . S
H1931 C1944 0.961 . S
C1932 H1924 0.929 . S
C1932 C1933 1.377 . S
C1932 C1934 1.384 . S
C1933 C1932 1.377 . S
C1933 C1939 1.390 . S
C1934 H1925 0.930 . S
C1934 C1932 1.384 . S
C1934 C1935 1.372 . S
C1935 C1934 1.372 . S
C1935 C1936 1.400 . S
C1935 C1940 1.490 . S
C1936 H1926 0.930 . S
C1936 C1935 1.400 . S
C1936 C1939 1.386 . S
H1937 C1953 0.930 . S
H1938 C1954 0.931 . S
C1939 H1927 0.929 . S
C1939 C1933 1.390 . S
C1939 C1936 1.386 . S
C1940 C1935 1.490 . S
C1940 C1942 1.395 . S
C1940 C1943 1.403 1_455 S
H1941 C1947 0.930 . S
C1942 H1928 0.930 . S
C1942 C1940 1.395 . S
C1942 C1945 1.403 . S
C1943 C1940 1.403 1_655 S
C1943 C1944 1.524 . S
C1943 C1947 1.400 . S
C1944 H1929 0.960 . S
C1944 H1930 0.960 . S
C1944 H1931 0.961 . S
C1944 C1943 1.524 . S
C1945 C1942 1.403 . S
C1945 C1946 1.392 1_455 S
C1945 C1949 1.495 . S
C1946 C1945 1.392 1_655 S
C1946 C1947 1.385 . S
C1946 C1948 1.478 . S
C1947 H1941 0.930 . S
C1947 C1943 1.400 . S
C1947 C1946 1.385 . S
C1948 C1946 1.478 . S
C1948 C1950 1.381 . S
C1948 C1954 1.383 . S
C1949 C1945 1.495 . S
C1949 H1955 0.959 . S
C1949 H1956 0.961 . S
C1949 H1957 0.933 1_455 S
C1950 C1948 1.381 . S
C1950 C1951 1.394 . S
C1950 H1958 0.930 . S
C1951 C1950 1.394 . S
C1951 C1952 1.383 . S
C1951 H1959 0.929 . S
C1952 C1951 1.383 . S
C1952 C1953 1.377 . S
C1953 H1937 0.930 . S
C1953 C1952 1.377 . S
C1953 C1954 1.379 . S
C1954 H1938 0.931 . S
C1954 C1948 1.383 . S
C1954 C1953 1.379 . S
H1955 C1949 0.959 . S
H1956 C1949 0.961 . S
H1957 C1949 0.933 1_655 S
H1958 C1950 0.930 . S
H1959 C1951 0.929 . S
H1960 C1968 0.929 . S
H1961 C1970 0.930 . S
H1962 C1972 0.930 . S
H1963 C1975 0.929 . S
H1964 C1978 0.930 . S
H1965 C1980 0.960 . S
H1966 C1980 0.960 . S
H1967 C1980 0.960 . S
C1968 H1960 0.929 . S
C1968 C1969 1.377 . S
C1968 C1970 1.384 . S
C1969 C1968 1.377 . S
C1969 C1975 1.390 . S
C1970 H1961 0.930 . S
C1970 C1968 1.384 . S
C1970 C1971 1.372 . S
C1971 C1970 1.372 . S
C1971 C1972 1.400 . S
C1971 C1976 1.490 . S
C1972 H1962 0.930 . S
C1972 C1971 1.400 . S
C1972 C1975 1.386 . S
H1973 C1989 0.930 . S
H1974 C1990 0.931 . S
C1975 H1963 0.929 . S
C1975 C1969 1.390 . S
C1975 C1972 1.386 . S
C1976 C1971 1.490 . S
C1976 C1978 1.395 . S
C1976 C1979 1.403 . S
H1977 C1983 0.930 . S
C1978 H1964 0.930 . S
C1978 C1976 1.395 . S
C1978 C1981 1.403 . S
C1979 C1976 1.403 . S
C1979 C1980 1.524 . S
C1979 C1983 1.400 . S
C1980 H1965 0.960 . S
C1980 H1966 0.960 . S
C1980 H1967 0.960 . S
C1980 C1979 1.524 . S
C1981 C1978 1.403 . S
C1981 C1982 1.392 . S
C1981 C1985 1.495 . S
C1982 C1981 1.392 . S
C1982 C1983 1.385 . S
C1982 C1984 1.478 . S
C1983 H1977 0.930 . S
C1983 C1979 1.400 . S
C1983 C1982 1.385 . S
C1984 C1982 1.478 . S
C1984 C1986 1.381 . S
C1984 C1990 1.383 . S
C1985 C1981 1.495 . S
C1985 H1991 0.959 . S
C1985 H1992 0.961 . S
C1985 H1993 0.960 . S
C1986 C1984 1.381 . S
C1986 C1987 1.394 . S
C1986 H1994 0.930 . S
C1987 C1986 1.394 . S
C1987 C1988 1.383 . S
C1987 H1995 0.929 . S
C1988 C1987 1.383 . S
C1988 C1989 1.377 . S
C1989 H1973 0.930 . S
C1989 C1988 1.377 . S
C1989 C1990 1.379 . S
C1990 H1974 0.931 . S
C1990 C1984 1.383 . S
C1990 C1989 1.379 . S
H1991 C1985 0.959 . S
H1992 C1985 0.961 . S
H1993 C1985 0.960 . S
H1994 C1986 0.930 . S
H1995 C1987 0.929 . S
H1996 C2004 0.929 . S
H1997 C2006 0.930 . S
H1998 C2008 0.930 . S
H1999 C2011 0.929 . S
H2000 C2014 0.930 . S
H2001 C2016 0.960 . S
H2002 C2016 0.960 . S
H2003 C2016 0.960 . S
C2004 H1996 0.929 . S
C2004 C2005 1.377 . S
C2004 C2006 1.384 . S
C2005 C2004 1.377 . S
C2005 C2011 1.390 . S
C2006 H1997 0.930 . S
C2006 C2004 1.384 . S
C2006 C2007 1.372 . S
C2007 C2006 1.372 . S
C2007 C2008 1.400 . S
C2007 C2012 1.490 . S
C2008 H1998 0.930 . S
C2008 C2007 1.400 . S
C2008 C2011 1.386 . S
H2009 C2025 0.930 . S
H2010 C2026 0.931 . S
C2011 H1999 0.929 . S
C2011 C2005 1.390 . S
C2011 C2008 1.386 . S
C2012 C2007 1.490 . S
C2012 C2014 1.395 . S
C2012 C2015 1.403 . S
H2013 C2019 0.930 . S
C2014 H2000 0.930 . S
C2014 C2012 1.395 . S
C2014 C2017 1.403 . S
C2015 C2012 1.403 . S
C2015 C2016 1.524 . S
C2015 C2019 1.400 . S
C2016 H2001 0.960 . S
C2016 H2002 0.960 . S
C2016 H2003 0.960 . S
C2016 C2015 1.524 . S
C2017 C2014 1.403 . S
C2017 C2018 1.392 . S
C2017 C2021 1.495 . S
C2018 C2017 1.392 . S
C2018 C2019 1.385 . S
C2018 C2020 1.478 . S
C2019 H2013 0.930 . S
C2019 C2015 1.400 . S
C2019 C2018 1.385 . S
C2020 C2018 1.478 . S
C2020 C2022 1.381 . S
C2020 C2026 1.383 . S
C2021 C2017 1.495 . S
C2021 H2027 0.959 . S
C2021 H2028 0.961 . S
C2021 H2029 0.960 . S
C2022 C2020 1.381 . S
C2022 C2023 1.394 . S
C2022 H2030 0.930 . S
C2023 C2022 1.394 . S
C2023 C2024 1.383 . S
C2023 H2031 0.929 . S
C2024 C2023 1.383 . S
C2024 C2025 1.377 . S
C2025 H2009 0.930 . S
C2025 C2024 1.377 . S
C2025 C2026 1.379 . S
C2026 H2010 0.931 . S
C2026 C2020 1.383 . S
C2026 C2025 1.379 . S
H2027 C2021 0.959 . S
H2028 C2021 0.961 . S
H2029 C2021 0.960 . S
H2030 C2022 0.930 . S
H2031 C2023 0.929 . S
H2032 C2040 0.929 . S
H2033 C2042 0.930 . S
H2034 C2044 0.930 . S
H2035 C2047 0.929 . S
H2036 C2050 0.930 . S
H2037 C2052 0.960 . S
H2038 C2052 0.960 . S
H2039 C2052 0.960 . S
C2040 H2032 0.929 . S
C2040 C2041 1.377 . S
C2040 C2042 1.384 . S
C2041 C2040 1.377 . S
C2041 C2047 1.390 . S
C2042 H2033 0.930 . S
C2042 C2040 1.384 . S
C2042 C2043 1.372 . S
C2043 C2042 1.372 . S
C2043 C2044 1.400 . S
C2043 C2048 1.490 . S
C2044 H2034 0.930 . S
C2044 C2043 1.400 . S
C2044 C2047 1.386 . S
H2045 C2061 0.930 . S
H2046 C2062 0.931 . S
C2047 H2035 0.929 . S
C2047 C2041 1.390 . S
C2047 C2044 1.386 . S
C2048 C2043 1.490 . S
C2048 C2050 1.395 . S
C2048 C2051 1.403 . S
H2049 C2055 0.930 . S
C2050 H2036 0.930 . S
C2050 C2048 1.395 . S
C2050 C2053 1.403 . S
C2051 C2048 1.403 . S
C2051 C2052 1.524 . S
C2051 C2055 1.400 . S
C2052 H2037 0.960 . S
C2052 H2038 0.960 . S
C2052 H2039 0.960 . S
C2052 C2051 1.524 . S
C2053 C2050 1.403 . S
C2053 C2054 1.392 . S
C2053 C2057 1.495 . S
C2054 C2053 1.392 . S
C2054 C2055 1.385 . S
C2054 C2056 1.478 . S
C2055 H2049 0.930 . S
C2055 C2051 1.400 . S
C2055 C2054 1.385 . S
C2056 C2054 1.478 . S
C2056 C2058 1.381 . S
C2056 C2062 1.383 . S
C2057 C2053 1.495 . S
C2057 H2063 0.959 . S
C2057 H2064 0.961 . S
C2057 H2065 0.960 . S
C2058 C2056 1.381 . S
C2058 C2059 1.394 . S
C2058 H2066 0.930 . S
C2059 C2058 1.394 . S
C2059 C2060 1.383 . S
C2059 H2067 0.929 . S
C2060 C2059 1.383 . S
C2060 C2061 1.377 . S
C2061 H2045 0.930 . S
C2061 C2060 1.377 . S
C2061 C2062 1.379 . S
C2062 H2046 0.931 . S
C2062 C2056 1.383 . S
C2062 C2061 1.379 . S
H2063 C2057 0.959 . S
H2064 C2057 0.961 . S
H2065 C2057 0.960 . S
H2066 C2058 0.930 . S
H2067 C2059 0.929 . S
H2068 C2076 0.929 . S
H2069 C2078 0.930 . S
H2070 C2080 0.930 . S
H2071 C2083 0.929 . S
H2072 C2086 0.930 . S
H2073 C2088 0.960 . S
H2074 C2088 0.960 . S
H2075 C2088 0.960 . S
C2076 H2068 0.929 . S
C2076 C2077 1.377 . S
C2076 C2078 1.384 . S
C2077 C2076 1.377 . S
C2077 C2083 1.390 . S
C2078 H2069 0.930 . S
C2078 C2076 1.384 . S
C2078 C2079 1.372 . S
C2079 C2078 1.372 . S
C2079 C2080 1.400 . S
C2079 C2084 1.490 . S
C2080 H2070 0.930 . S
C2080 C2079 1.400 . S
C2080 C2083 1.386 . S
H2081 C2097 0.930 . S
H2082 C2098 0.931 . S
C2083 H2071 0.929 . S
C2083 C2077 1.390 . S
C2083 C2080 1.386 . S
C2084 C2079 1.490 . S
C2084 C2086 1.395 . S
C2084 C2087 1.403 . S
H2085 C2091 0.930 . S
C2086 H2072 0.930 . S
C2086 C2084 1.395 . S
C2086 C2089 1.403 . S
C2087 C2084 1.403 . S
C2087 C2088 1.524 . S
C2087 C2091 1.400 . S
C2088 H2073 0.960 . S
C2088 H2074 0.960 . S
C2088 H2075 0.960 . S
C2088 C2087 1.524 . S
C2089 C2086 1.403 . S
C2089 C2090 1.392 . S
C2089 C2093 1.495 . S
C2090 C2089 1.392 . S
C2090 C2091 1.385 . S
C2090 C2092 1.478 . S
C2091 H2085 0.930 . S
C2091 C2087 1.400 . S
C2091 C2090 1.385 . S
C2092 C2090 1.478 . S
C2092 C2094 1.381 . S
C2092 C2098 1.383 . S
C2093 C2089 1.495 . S
C2093 H2099 0.959 . S
C2093 H2100 0.961 . S
C2093 H2101 0.960 . S
C2094 C2092 1.381 . S
C2094 C2095 1.394 . S
C2094 H2102 0.930 . S
C2095 C2094 1.394 . S
C2095 C2096 1.383 . S
C2095 H2103 0.929 . S
C2096 C2095 1.383 . S
C2096 C2097 1.377 . S
C2097 H2081 0.930 . S
C2097 C2096 1.377 . S
C2097 C2098 1.379 . S
C2098 H2082 0.931 . S
C2098 C2092 1.383 . S
C2098 C2097 1.379 . S
H2099 C2093 0.959 . S
H2100 C2093 0.961 . S
H2101 C2093 0.960 . S
H2102 C2094 0.930 . S
H2103 C2095 0.929 . S
H2104 C2112 0.929 . S
H2105 C2114 0.930 . S
H2106 C2116 0.930 . S
H2107 C2119 0.929 . S
H2108 C2122 0.930 . S
H2109 C2124 0.960 . S
H2110 C2124 0.960 . S
H2111 C2124 0.960 . S
C2112 H2104 0.929 . S
C2112 C2113 1.377 . S
C2112 C2114 1.384 . S
C2113 C2112 1.377 . S
C2113 C2119 1.390 . S
C2114 H2105 0.930 . S
C2114 C2112 1.384 . S
C2114 C2115 1.372 . S
C2115 C2114 1.372 . S
C2115 C2116 1.400 . S
C2115 C2120 1.490 . S
C2116 H2106 0.930 . S
C2116 C2115 1.400 . S
C2116 C2119 1.386 . S
H2117 C2133 0.930 . S
H2118 C2134 0.931 . S
C2119 H2107 0.929 . S
C2119 C2113 1.390 . S
C2119 C2116 1.386 . S
C2120 C2115 1.490 . S
C2120 C2122 1.395 . S
C2120 C2123 1.403 . S
H2121 C2127 0.930 . S
C2122 H2108 0.930 . S
C2122 C2120 1.395 . S
C2122 C2125 1.403 . S
C2123 C2120 1.403 . S
C2123 C2124 1.524 . S
C2123 C2127 1.400 . S
C2124 H2109 0.960 . S
C2124 H2110 0.960 . S
C2124 H2111 0.960 . S
C2124 C2123 1.524 . S
C2125 C2122 1.403 . S
C2125 C2126 1.392 . S
C2125 C2129 1.495 . S
C2126 C2125 1.392 . S
C2126 C2127 1.385 . S
C2126 C2128 1.478 . S
C2127 H2121 0.930 . S
C2127 C2123 1.400 . S
C2127 C2126 1.385 . S
C2128 C2126 1.478 . S
C2128 C2130 1.381 . S
C2128 C2134 1.383 1_554 S
C2129 C2125 1.495 . S
C2129 H2135 0.959 . S
C2129 H2136 0.961 . S
C2129 H2137 0.960 . S
C2130 C2128 1.381 . S
C2130 C2131 1.394 1_554 S
C2130 H2138 0.930 . S
C2131 C2130 1.394 1_556 S
C2131 C2132 1.383 . S
C2131 H2139 0.929 . S
C2132 C2131 1.383 . S
C2132 C2133 1.377 . S
C2133 H2117 0.930 . S
C2133 C2132 1.377 . S
C2133 C2134 1.379 . S
C2134 H2118 0.931 . S
C2134 C2128 1.383 1_556 S
C2134 C2133 1.379 . S
H2135 C2129 0.959 . S
H2136 C2129 0.961 . S
H2137 C2129 0.960 . S
H2138 C2130 0.930 . S
H2139 C2131 0.929 . S
H2140 C2148 0.929 . S
H2141 C2150 0.930 . S
H2142 C2152 0.930 . S
H2143 C2155 0.929 . S
H2144 C2158 0.930 . S
H2145 C2160 0.960 . S
H2146 C2160 0.960 . S
H2147 C2160 0.960 . S
C2148 H2140 0.929 . S
C2148 C2149 1.377 . S
C2148 C2150 1.384 . S
C2149 C2148 1.377 . S
C2149 C2155 1.390 . S
C2150 H2141 0.930 . S
C2150 C2148 1.384 . S
C2150 C2151 1.372 . S
C2151 C2150 1.372 . S
C2151 C2152 1.400 . S
C2151 C2156 1.490 . S
C2152 H2142 0.930 . S
C2152 C2151 1.400 . S
C2152 C2155 1.386 . S
H2153 C2169 0.930 . S
H2154 C2170 0.931 . S
C2155 H2143 0.929 . S
C2155 C2149 1.390 . S
C2155 C2152 1.386 . S
C2156 C2151 1.490 . S
C2156 C2158 1.395 . S
C2156 C2159 1.403 1_455 S
H2157 C2163 0.930 . S
C2158 H2144 0.930 . S
C2158 C2156 1.395 . S
C2158 C2161 1.403 . S
C2159 C2156 1.403 1_655 S
C2159 C2160 1.524 . S
C2159 C2163 1.400 . S
C2160 H2145 0.960 . S
C2160 H2146 0.960 . S
C2160 H2147 0.960 . S
C2160 C2159 1.524 . S
C2161 C2158 1.403 . S
C2161 C2162 1.392 1_455 S
C2161 C2165 1.495 . S
C2162 C2161 1.392 1_655 S
C2162 C2163 1.385 . S
C2162 C2164 1.478 . S
C2163 H2157 0.930 . S
C2163 C2159 1.400 . S
C2163 C2162 1.385 . S
C2164 C2162 1.478 . S
C2164 C2166 1.381 . S
C2164 C2170 1.383 . S
C2165 C2161 1.495 . S
C2165 H2171 0.959 . S
C2165 H2172 0.961 . S
C2165 H2173 0.960 . S
C2166 C2164 1.381 . S
C2166 C2167 1.394 . S
C2166 H2174 0.930 . S
C2167 C2166 1.394 . S
C2167 C2168 1.383 . S
C2167 H2175 0.929 1_556 S
C2168 C2167 1.383 . S
C2168 C2169 1.377 . S
C2169 H2153 0.930 . S
C2169 C2168 1.377 . S
C2169 C2170 1.379 . S
C2170 H2154 0.931 . S
C2170 C2164 1.383 . S
C2170 C2169 1.379 . S
H2171 C2165 0.959 . S
H2172 C2165 0.961 . S
H2173 C2165 0.960 . S
H2174 C2166 0.930 . S
H2175 C2167 0.929 1_554 S
H2176 C2184 0.929 . S
H2177 C2186 0.930 . S
H2178 C2188 0.930 . S
H2179 C2191 0.929 . S
H2180 C2194 0.930 . S
H2181 C2196 0.960 . S
H2182 C2196 0.960 . S
H2183 C2196 0.960 . S
C2184 H2176 0.929 . S
C2184 C2185 1.377 . S
C2184 C2186 1.384 . S
C2185 C2184 1.377 . S
C2185 C2191 1.390 . S
C2186 H2177 0.930 . S
C2186 C2184 1.384 . S
C2186 C2187 1.372 . S
C2187 C2186 1.372 . S
C2187 C2188 1.400 . S
C2187 C2192 1.490 . S
C2188 H2178 0.930 . S
C2188 C2187 1.400 . S
C2188 C2191 1.386 . S
H2189 C2205 0.930 . S
H2190 C2206 0.931 . S
C2191 H2179 0.929 . S
C2191 C2185 1.390 . S
C2191 C2188 1.386 . S
C2192 C2187 1.490 . S
C2192 C2194 1.395 . S
C2192 C2195 1.403 . S
H2193 C2199 0.930 . S
C2194 H2180 0.930 . S
C2194 C2192 1.395 . S
C2194 C2197 1.403 . S
C2195 C2192 1.403 . S
C2195 C2196 1.524 . S
C2195 C2199 1.400 . S
C2196 H2181 0.960 . S
C2196 H2182 0.960 . S
C2196 H2183 0.960 . S
C2196 C2195 1.524 . S
C2197 C2194 1.403 . S
C2197 C2198 1.392 . S
C2197 C2201 1.495 . S
C2198 C2197 1.392 . S
C2198 C2199 1.385 . S
C2198 C2200 1.478 . S
C2199 H2193 0.930 . S
C2199 C2195 1.400 . S
C2199 C2198 1.385 . S
C2200 C2198 1.478 . S
C2200 C2202 1.381 . S
C2200 C2206 1.383 . S
C2201 C2197 1.495 . S
C2201 H2207 0.959 . S
C2201 H2208 0.961 . S
C2201 H2209 0.960 . S
C2202 C2200 1.381 . S
C2202 C2203 1.394 . S
C2202 H2210 0.930 . S
C2203 C2202 1.394 . S
C2203 C2204 1.383 . S
C2203 H2211 0.929 . S
C2204 C2203 1.383 . S
C2204 C2205 1.377 . S
C2205 H2189 0.930 . S
C2205 C2204 1.377 . S
C2205 C2206 1.379 . S
C2206 H2190 0.931 . S
C2206 C2200 1.383 . S
C2206 C2205 1.379 . S
H2207 C2201 0.959 . S
H2208 C2201 0.961 . S
H2209 C2201 0.960 . S
H2210 C2202 0.930 . S
H2211 C2203 0.929 . S
H2212 C2220 0.929 . S
H2213 C2222 0.930 . S
H2214 C2224 0.930 . S
H2215 C2227 0.929 . S
H2216 C2230 0.930 . S
H2217 C2232 0.960 . S
H2218 C2232 0.960 . S
H2219 C2232 0.960 . S
C2220 H2212 0.929 . S
C2220 C2221 1.377 . S
C2220 C2222 1.384 . S
C2221 C2220 1.377 . S
C2221 C2227 1.390 . S
C2222 H2213 0.930 . S
C2222 C2220 1.384 . S
C2222 C2223 1.372 . S
C2223 C2222 1.372 . S
C2223 C2224 1.400 . S
C2223 C2228 1.490 . S
C2224 H2214 0.930 . S
C2224 C2223 1.400 . S
C2224 C2227 1.386 . S
H2225 C2241 0.930 . S
H2226 C2242 0.931 . S
C2227 H2215 0.929 . S
C2227 C2221 1.390 . S
C2227 C2224 1.386 . S
C2228 C2223 1.490 . S
C2228 C2230 1.395 . S
C2228 C2231 1.403 . S
H2229 C2235 0.930 . S
C2230 H2216 0.930 . S
C2230 C2228 1.395 . S
C2230 C2233 1.403 . S
C2231 C2228 1.403 . S
C2231 C2232 1.524 . S
C2231 C2235 1.400 . S
C2232 H2217 0.960 . S
C2232 H2218 0.960 . S
C2232 H2219 0.960 . S
C2232 C2231 1.524 . S
C2233 C2230 1.403 . S
C2233 C2234 1.392 . S
C2233 C2237 1.495 . S
C2234 C2233 1.392 . S
C2234 C2235 1.385 . S
C2234 C2236 1.478 . S
C2235 H2229 0.930 . S
C2235 C2231 1.400 . S
C2235 C2234 1.385 . S
C2236 C2234 1.478 . S
C2236 C2238 1.381 . S
C2236 C2242 1.383 . S
C2237 C2233 1.495 . S
C2237 H2243 0.959 . S
C2237 H2244 0.961 . S
C2237 H2245 0.960 . S
C2238 C2236 1.381 . S
C2238 C2239 1.394 . S
C2238 H2246 0.930 . S
C2239 C2238 1.394 . S
C2239 C2240 1.383 . S
C2239 H2247 0.929 1_556 S
C2240 C2239 1.383 . S
C2240 C2241 1.377 . S
C2241 H2225 0.930 . S
C2241 C2240 1.377 . S
C2241 C2242 1.379 . S
C2242 H2226 0.931 . S
C2242 C2236 1.383 . S
C2242 C2241 1.379 . S
H2243 C2237 0.959 . S
H2244 C2237 0.961 . S
H2245 C2237 0.960 . S
H2246 C2238 0.930 . S
H2247 C2239 0.929 1_554 S
H2248 C2256 0.929 . S
H2249 C2258 0.930 . S
H2250 C2260 0.930 . S
H2251 C2263 0.929 . S
H2252 C2266 0.930 . S
H2253 C2268 0.960 . S
H2254 C2268 0.960 . S
H2255 C2268 0.960 . S
C2256 H2248 0.929 . S
C2256 C2257 1.377 . S
C2256 C2258 1.384 . S
C2257 C2256 1.377 . S
C2257 C2263 1.390 . S
C2258 H2249 0.930 . S
C2258 C2256 1.384 . S
C2258 C2259 1.372 . S
C2259 C2258 1.372 . S
C2259 C2260 1.400 . S
C2259 C2264 1.490 . S
C2260 H2250 0.930 . S
C2260 C2259 1.400 . S
C2260 C2263 1.386 . S
H2261 C2277 0.930 . S
H2262 C2278 0.931 1_554 S
C2263 H2251 0.929 . S
C2263 C2257 1.390 . S
C2263 C2260 1.386 . S
C2264 C2259 1.490 . S
C2264 C2266 1.395 . S
C2264 C2267 1.403 . S
H2265 C2271 0.930 . S
C2266 H2252 0.930 . S
C2266 C2264 1.395 . S
C2266 C2269 1.403 . S
C2267 C2264 1.403 . S
C2267 C2268 1.524 . S
C2267 C2271 1.400 . S
C2268 H2253 0.960 . S
C2268 H2254 0.960 . S
C2268 H2255 0.960 . S
C2268 C2267 1.524 . S
C2269 C2266 1.403 . S
C2269 C2270 1.392 . S
C2269 C2273 1.495 1_554 S
C2270 C2269 1.392 . S
C2270 C2271 1.385 . S
C2270 C2272 1.478 1_554 S
C2271 H2265 0.930 . S
C2271 C2267 1.400 . S
C2271 C2270 1.385 . S
C2272 C2270 1.478 1_556 S
C2272 C2274 1.381 . S
C2272 C2278 1.383 . S
C2273 C2269 1.495 1_556 S
C2273 H2279 0.959 . S
C2273 H2280 0.961 . S
C2273 H2281 0.960 . S
C2274 C2272 1.381 . S
C2274 C2275 1.394 . S
C2274 H2282 0.930 . S
C2275 C2274 1.394 . S
C2275 C2276 1.383 . S
C2275 H2283 0.929 . S
C2276 C2275 1.383 . S
C2276 C2277 1.377 . S
C2277 H2261 0.930 . S
C2277 C2276 1.377 . S
C2277 C2278 1.379 . S
C2278 H2262 0.931 1_556 S
C2278 C2272 1.383 . S
C2278 C2277 1.379 . S
H2279 C2273 0.959 . S
H2280 C2273 0.961 . S
H2281 C2273 0.960 . S
H2282 C2274 0.930 . S
H2283 C2275 0.929 . S
H2284 C2292 0.929 . S
H2285 C2294 0.930 . S
H2286 C2296 0.930 . S
H2287 C2299 0.929 . S
H2288 C2302 0.930 . S
H2289 C2304 0.960 . S
H2290 C2304 0.960 . S
H2291 C2304 0.960 . S
C2292 H2284 0.929 . S
C2292 C2293 1.377 . S
C2292 C2294 1.384 . S
C2293 C2292 1.377 . S
C2293 C2299 1.390 . S
C2294 H2285 0.930 . S
C2294 C2292 1.384 . S
C2294 C2295 1.372 . S
C2295 C2294 1.372 . S
C2295 C2296 1.400 . S
C2295 C2300 1.490 . S
C2296 H2286 0.930 . S
C2296 C2295 1.400 . S
C2296 C2299 1.386 . S
H2297 C2313 0.930 . S
H2298 C2314 0.931 . S
C2299 H2287 0.929 . S
C2299 C2293 1.390 . S
C2299 C2296 1.386 . S
C2300 C2295 1.490 . S
C2300 C2302 1.395 1_655 S
C2300 C2303 1.403 . S
H2301 C2307 0.945 . S
C2302 H2288 0.930 . S
C2302 C2300 1.395 1_455 S
C2302 C2305 1.403 . S
C2303 C2300 1.403 . S
C2303 C2304 1.524 . S
C2303 C2307 1.478 . S
C2304 H2289 0.960 . S
C2304 H2290 0.960 . S
C2304 H2291 0.960 . S
C2304 C2303 1.524 . S
C2305 C2302 1.403 . S
C2305 C2306 1.392 . S
C2305 C2309 1.495 . S
C2306 C2305 1.392 . S
C2306 C2307 1.299 1_455 S
C2306 C2308 1.478 . S
C2307 H2301 0.945 . S
C2307 C2303 1.478 . S
C2307 C2306 1.299 1_655 S
C2308 C2306 1.478 . S
C2308 C2310 1.381 . S
C2308 C2314 1.383 . S
C2309 C2305 1.495 . S
C2309 H2315 0.959 . S
C2309 H2316 0.961 . S
C2309 H2317 0.960 . S
C2310 C2308 1.381 . S
C2310 C2311 1.394 . S
C2310 H2318 0.930 . S
C2311 C2310 1.394 . S
C2311 C2312 1.383 . S
C2311 H2319 0.929 . S
C2312 C2311 1.383 . S
C2312 C2313 1.377 . S
C2313 H2297 0.930 . S
C2313 C2312 1.377 . S
C2313 C2314 1.379 . S
C2314 H2298 0.931 . S
C2314 C2308 1.383 . S
C2314 C2313 1.379 . S
H2315 C2309 0.959 . S
H2316 C2309 0.961 . S
H2317 C2309 0.960 . S
H2318 C2310 0.930 . S
H2319 C2311 0.929 . S
H2320 C2328 0.929 . S
H2321 C2330 0.930 . S
H2322 C2332 0.930 . S
H2323 C2335 0.929 . S
H2324 C2338 0.930 . S
H2325 C2340 0.953 1_554 S
H2326 C2340 0.960 . S
H2327 C2340 0.960 . S
C2328 H2320 0.929 . S
C2328 C2329 1.377 . S
C2328 C2330 1.384 . S
C2329 C2328 1.377 . S
C2329 C2335 1.390 . S
C2330 H2321 0.930 . S
C2330 C2328 1.384 . S
C2330 C2331 1.372 . S
C2331 C2330 1.372 . S
C2331 C2332 1.400 . S
C2331 C2336 1.490 . S
C2332 H2322 0.930 . S
C2332 C2331 1.400 . S
C2332 C2335 1.386 . S
H2333 C2349 0.930 . S
H2334 C2350 0.931 . S
C2335 H2323 0.929 . S
C2335 C2329 1.390 . S
C2335 C2332 1.386 . S
C2336 C2331 1.490 . S
C2336 C2338 1.395 . S
C2336 C2339 1.403 . S
H2337 C2343 0.930 1_554 S
C2338 H2324 0.930 . S
C2338 C2336 1.395 . S
C2338 C2341 1.403 . S
C2339 C2336 1.403 . S
C2339 C2340 1.524 . S
C2339 C2343 1.400 . S
C2340 H2325 0.953 1_556 S
C2340 H2326 0.960 . S
C2340 H2327 0.960 . S
C2340 C2339 1.524 . S
C2341 C2338 1.403 . S
C2341 C2342 1.392 . S
C2341 C2345 1.495 . S
C2342 C2341 1.392 . S
C2342 C2343 1.385 . S
C2342 C2344 1.478 . S
C2343 H2337 0.930 1_556 S
C2343 C2339 1.400 . S
C2343 C2342 1.385 . S
C2344 C2342 1.478 . S
C2344 C2346 1.381 1_556 S
C2344 C2350 1.383 1_556 S
C2345 C2341 1.495 . S
C2345 H2351 0.959 . S
C2345 H2352 0.961 . S
C2345 H2353 0.960 . S
C2346 C2344 1.381 1_554 S
C2346 C2347 1.394 . S
C2346 H2354 0.930 1_554 S
C2347 C2346 1.394 . S
C2347 C2348 1.383 . S
C2347 H2355 0.929 . S
C2348 C2347 1.383 . S
C2348 C2349 1.377 . S
C2349 H2333 0.930 . S
C2349 C2348 1.377 . S
C2349 C2350 1.379 . S
C2350 H2334 0.931 . S
C2350 C2344 1.383 1_554 S
C2350 C2349 1.379 . S
H2351 C2345 0.959 . S
H2352 C2345 0.961 . S
H2353 C2345 0.960 . S
H2354 C2346 0.930 1_556 S
H2355 C2347 0.929 . S
H2356 C2364 0.929 1_556 S
H2357 C2366 0.930 . S
H2358 C2368 0.930 . S
H2359 C2371 0.929 . S
H2360 C2374 0.930 . S
H2361 C2376 0.960 . S
H2362 C2376 0.960 . S
H2363 C2376 0.960 . S
C2364 H2356 0.929 1_554 S
C2364 C2365 1.377 . S
C2364 C2366 1.384 . S
C2365 C2364 1.377 . S
C2365 C2371 1.390 . S
C2366 H2357 0.930 . S
C2366 C2364 1.384 . S
C2366 C2367 1.372 . S
C2367 C2366 1.372 . S
C2367 C2368 1.400 . S
C2367 C2372 1.490 . S
C2368 H2358 0.930 . S
C2368 C2367 1.400 . S
C2368 C2371 1.386 . S
H2369 C2385 0.930 . S
H2370 C2386 0.931 . S
C2371 H2359 0.929 . S
C2371 C2365 1.390 . S
C2371 C2368 1.386 . S
C2372 C2367 1.490 . S
C2372 C2374 1.395 . S
C2372 C2375 1.403 . S
H2373 C2379 0.930 . S
C2374 H2360 0.930 . S
C2374 C2372 1.395 . S
C2374 C2377 1.403 1_655 S
C2375 C2372 1.403 . S
C2375 C2376 1.524 . S
C2375 C2379 1.400 1_655 S
C2376 H2361 0.960 . S
C2376 H2362 0.960 . S
C2376 H2363 0.960 . S
C2376 C2375 1.524 . S
C2377 C2374 1.403 1_455 S
C2377 C2378 1.392 . S
C2377 C2381 1.495 . S
C2378 C2377 1.392 . S
C2378 C2379 1.385 . S
C2378 C2380 1.478 . S
C2379 H2373 0.930 . S
C2379 C2375 1.400 1_455 S
C2379 C2378 1.385 . S
C2380 C2378 1.478 . S
C2380 C2382 1.381 . S
C2380 C2386 1.383 . S
C2381 C2377 1.495 . S
C2381 H2387 0.959 . S
C2381 H2388 0.961 . S
C2381 H2389 0.960 . S
C2382 C2380 1.381 . S
C2382 C2383 1.394 . S
C2382 H2390 0.930 . S
C2383 C2382 1.394 . S
C2383 C2384 1.383 . S
C2383 H2391 0.929 . S
C2384 C2383 1.383 . S
C2384 C2385 1.377 . S
C2385 H2369 0.930 . S
C2385 C2384 1.377 . S
C2385 C2386 1.379 . S
C2386 H2370 0.931 . S
C2386 C2380 1.383 . S
C2386 C2385 1.379 . S
H2387 C2381 0.959 . S
H2388 C2381 0.961 . S
H2389 C2381 0.960 . S
H2390 C2382 0.930 . S
H2391 C2383 0.929 . S
H2392 C2400 0.929 . S
H2393 C2402 0.930 . S
H2394 C2404 0.930 . S
H2395 C2407 0.929 . S
H2396 C2410 0.930 . S
H2397 C2412 0.960 . S
H2398 C2412 0.960 . S
H2399 C2412 0.960 . S
C2400 H2392 0.929 . S
C2400 C2401 1.377 . S
C2400 C2402 1.384 . S
C2401 C2400 1.377 . S
C2401 C2407 1.390 . S
C2402 H2393 0.930 . S
C2402 C2400 1.384 . S
C2402 C2403 1.372 . S
C2403 C2402 1.372 . S
C2403 C2404 1.400 . S
C2403 C2408 1.490 . S
C2404 H2394 0.930 . S
C2404 C2403 1.400 . S
C2404 C2407 1.386 . S
H2405 C2421 0.930 . S
H2406 C2422 0.931 . S
C2407 H2395 0.929 . S
C2407 C2401 1.390 . S
C2407 C2404 1.386 . S
C2408 C2403 1.490 . S
C2408 C2410 1.395 . S
C2408 C2411 1.403 . S
H2409 C2415 0.930 . S
C2410 H2396 0.930 . S
C2410 C2408 1.395 . S
C2410 C2413 1.403 . S
C2411 C2408 1.403 . S
C2411 C2412 1.524 . S
C2411 C2415 1.400 . S
C2412 H2397 0.960 . S
C2412 H2398 0.960 . S
C2412 H2399 0.960 . S
C2412 C2411 1.524 . S
C2413 C2410 1.403 . S
C2413 C2414 1.392 . S
C2413 C2417 1.495 . S
C2414 C2413 1.392 . S
C2414 C2415 1.385 . S
C2414 C2416 1.478 . S
C2415 H2409 0.930 . S
C2415 C2411 1.400 . S
C2415 C2414 1.385 . S
C2416 C2414 1.478 . S
C2416 C2418 1.381 . S
C2416 C2422 1.383 . S
C2417 C2413 1.495 . S
C2417 H2423 0.959 . S
C2417 H2424 0.961 . S
C2417 H2425 0.960 . S
C2418 C2416 1.381 . S
C2418 C2419 1.394 . S
C2418 H2426 0.930 . S
C2419 C2418 1.394 . S
C2419 C2420 1.383 . S
C2419 H2427 0.929 . S
C2420 C2419 1.383 . S
C2420 C2421 1.377 . S
C2421 H2405 0.930 . S
C2421 C2420 1.377 . S
C2421 C2422 1.379 . S
C2422 H2406 0.931 . S
C2422 C2416 1.383 . S
C2422 C2421 1.379 . S
H2423 C2417 0.959 . S
H2424 C2417 0.961 . S
H2425 C2417 0.960 . S
H2426 C2418 0.930 . S
H2427 C2419 0.929 . S
H2428 C2436 0.929 . S
H2429 C2438 0.930 . S
H2430 C2440 0.930 . S
H2431 C2443 0.929 . S
H2432 C2446 0.930 . S
H2433 C2448 0.960 . S
H2434 C2448 0.960 . S
H2435 C2448 0.960 . S
C2436 H2428 0.929 . S
C2436 C2437 1.377 . S
C2436 C2438 1.384 . S
C2437 C2436 1.377 . S
C2437 C2443 1.390 . S
C2438 H2429 0.930 . S
C2438 C2436 1.384 . S
C2438 C2439 1.372 . S
C2439 C2438 1.372 . S
C2439 C2440 1.400 . S
C2439 C2444 1.490 . S
C2440 H2430 0.930 . S
C2440 C2439 1.400 . S
C2440 C2443 1.386 . S
H2441 C2457 0.930 . S
H2442 C2458 0.931 . S
C2443 H2431 0.929 . S
C2443 C2437 1.390 . S
C2443 C2440 1.386 . S
C2444 C2439 1.490 . S
C2444 C2446 1.395 . S
C2444 C2447 1.403 . S
H2445 C2451 0.930 . S
C2446 H2432 0.930 . S
C2446 C2444 1.395 . S
C2446 C2449 1.403 . S
C2447 C2444 1.403 . S
C2447 C2448 1.524 . S
C2447 C2451 1.400 . S
C2448 H2433 0.960 . S
C2448 H2434 0.960 . S
C2448 H2435 0.960 . S
C2448 C2447 1.524 . S
C2449 C2446 1.403 . S
C2449 C2450 1.392 . S
C2449 C2453 1.495 . S
C2450 C2449 1.392 . S
C2450 C2451 1.385 . S
C2450 C2452 1.478 . S
C2451 H2445 0.930 . S
C2451 C2447 1.400 . S
C2451 C2450 1.385 . S
C2452 C2450 1.478 . S
C2452 C2454 1.381 . S
C2452 C2458 1.383 . S
C2453 C2449 1.495 . S
C2453 H2459 0.959 . S
C2453 H2460 0.961 . S
C2453 H2461 0.960 . S
C2454 C2452 1.381 . S
C2454 C2455 1.394 . S
C2454 H2462 0.930 . S
C2455 C2454 1.394 . S
C2455 C2456 1.383 . S
C2455 H2463 0.929 . S
C2456 C2455 1.383 . S
C2456 C2457 1.377 . S
C2457 H2441 0.930 . S
C2457 C2456 1.377 . S
C2457 C2458 1.379 . S
C2458 H2442 0.931 . S
C2458 C2452 1.383 . S
C2458 C2457 1.379 . S
H2459 C2453 0.959 . S
H2460 C2453 0.961 . S
H2461 C2453 0.960 . S
H2462 C2454 0.930 . S
H2463 C2455 0.929 . S
H2464 C2472 0.929 . S
H2465 C2474 0.930 . S
H2466 C2476 0.930 . S
H2467 C2479 0.929 . S
H2468 C2482 0.930 . S
H2469 C2484 0.960 . S
H2470 C2484 0.960 . S
H2471 C2484 0.960 . S
C2472 H2464 0.929 . S
C2472 C2473 1.377 . S
C2472 C2474 1.384 . S
C2473 C2472 1.377 . S
C2473 C2479 1.390 . S
C2474 H2465 0.930 . S
C2474 C2472 1.384 . S
C2474 C2475 1.372 . S
C2475 C2474 1.372 . S
C2475 C2476 1.400 . S
C2475 C2480 1.490 . S
C2476 H2466 0.930 . S
C2476 C2475 1.400 . S
C2476 C2479 1.386 . S
H2477 C2493 0.930 . S
H2478 C2494 0.931 . S
C2479 H2467 0.929 . S
C2479 C2473 1.390 . S
C2479 C2476 1.386 . S
C2480 C2475 1.490 . S
C2480 C2482 1.395 . S
C2480 C2483 1.403 . S
H2481 C2487 0.930 . S
C2482 H2468 0.930 . S
C2482 C2480 1.395 . S
C2482 C2485 1.403 . S
C2483 C2480 1.403 . S
C2483 C2484 1.524 . S
C2483 C2487 1.400 . S
C2484 H2469 0.960 . S
C2484 H2470 0.960 . S
C2484 H2471 0.960 . S
C2484 C2483 1.524 . S
C2485 C2482 1.403 . S
C2485 C2486 1.392 . S
C2485 C2489 1.495 . S
C2486 C2485 1.392 . S
C2486 C2487 1.385 . S
C2486 C2488 1.478 . S
C2487 H2481 0.930 . S
C2487 C2483 1.400 . S
C2487 C2486 1.385 . S
C2488 C2486 1.478 . S
C2488 C2490 1.381 . S
C2488 C2494 1.383 . S
C2489 C2485 1.495 . S
C2489 H2495 0.959 . S
C2489 H2496 0.961 . S
C2489 H2497 0.960 . S
C2490 C2488 1.381 . S
C2490 C2491 1.394 . S
C2490 H2498 0.930 . S
C2491 C2490 1.394 . S
C2491 C2492 1.383 . S
C2491 H2499 0.929 . S
C2492 C2491 1.383 . S
C2492 C2493 1.377 . S
C2493 H2477 0.930 . S
C2493 C2492 1.377 . S
C2493 C2494 1.379 . S
C2494 H2478 0.931 . S
C2494 C2488 1.383 . S
C2494 C2493 1.379 . S
H2495 C2489 0.959 . S
H2496 C2489 0.961 . S
H2497 C2489 0.960 . S
H2498 C2490 0.930 . S
H2499 C2491 0.929 . S
H2500 C2508 0.929 . S
H2501 C2510 0.930 . S
H2502 C2512 0.930 . S
H2503 C2515 0.929 . S
H2504 C2518 0.930 . S
H2505 C2520 0.960 . S
H2506 C2520 0.960 . S
H2507 C2520 0.960 . S
C2508 H2500 0.929 . S
C2508 C2509 1.377 . S
C2508 C2510 1.384 . S
C2509 C2508 1.377 . S
C2509 C2515 1.390 . S
C2510 H2501 0.930 . S
C2510 C2508 1.384 . S
C2510 C2511 1.372 . S
C2511 C2510 1.372 . S
C2511 C2512 1.400 . S
C2511 C2516 1.490 . S
C2512 H2502 0.930 . S
C2512 C2511 1.400 . S
C2512 C2515 1.386 . S
H2513 C2529 0.930 . S
H2514 C2530 0.931 . S
C2515 H2503 0.929 . S
C2515 C2509 1.390 . S
C2515 C2512 1.386 . S
C2516 C2511 1.490 . S
C2516 C2518 1.395 . S
C2516 C2519 1.403 . S
H2517 C2523 0.930 . S
C2518 H2504 0.930 . S
C2518 C2516 1.395 . S
C2518 C2521 1.403 . S
C2519 C2516 1.403 . S
C2519 C2520 1.524 . S
C2519 C2523 1.400 . S
C2520 H2505 0.960 . S
C2520 H2506 0.960 . S
C2520 H2507 0.960 . S
C2520 C2519 1.524 . S
C2521 C2518 1.403 . S
C2521 C2522 1.392 . S
C2521 C2525 1.495 . S
C2522 C2521 1.392 . S
C2522 C2523 1.385 . S
C2522 C2524 1.478 . S
C2523 H2517 0.930 . S
C2523 C2519 1.400 . S
C2523 C2522 1.385 . S
C2524 C2522 1.478 . S
C2524 C2526 1.381 . S
C2524 C2530 1.383 . S
C2525 C2521 1.495 . S
C2525 H2531 0.959 . S
C2525 H2532 0.961 . S
C2525 H2533 0.960 . S
C2526 C2524 1.381 . S
C2526 C2527 1.394 . S
C2526 H2534 0.930 . S
C2527 C2526 1.394 . S
C2527 C2528 1.383 . S
C2527 H2535 0.929 . S
C2528 C2527 1.383 . S
C2528 C2529 1.377 . S
C2529 H2513 0.930 . S
C2529 C2528 1.377 . S
C2529 C2530 1.379 . S
C2530 H2514 0.931 . S
C2530 C2524 1.383 . S
C2530 C2529 1.379 . S
H2531 C2525 0.959 . S
H2532 C2525 0.961 . S
H2533 C2525 0.960 . S
H2534 C2526 0.930 . S
H2535 C2527 0.929 . S
H2536 C2544 0.929 . S
H2537 C2546 0.930 . S
H2538 C2548 0.930 1_556 S
H2539 C2551 0.929 . S
H2540 C2554 0.930 . S
H2541 C2556 0.961 . S
H2542 C2556 0.958 1_554 S
H2543 C2556 0.960 . S
C2544 H2536 0.929 . S
C2544 C2545 1.377 . S
C2544 C2546 1.384 . S
C2545 C2544 1.377 . S
C2545 C2551 1.390 . S
C2546 H2537 0.930 . S
C2546 C2544 1.384 . S
C2546 C2547 1.372 . S
C2547 C2546 1.372 . S
C2547 C2548 1.400 . S
C2547 C2552 1.490 1_554 S
C2548 H2538 0.930 1_554 S
C2548 C2547 1.400 . S
C2548 C2551 1.386 . S
H2549 C2565 0.930 . S
H2550 C2566 0.931 . S
C2551 H2539 0.929 . S
C2551 C2545 1.390 . S
C2551 C2548 1.386 . S
C2552 C2547 1.490 1_556 S
C2552 C2554 1.395 . S
C2552 C2555 1.403 . S
H2553 C2559 0.930 . S
C2554 H2540 0.930 . S
C2554 C2552 1.395 . S
C2554 C2557 1.403 . S
C2555 C2552 1.403 . S
C2555 C2556 1.525 . S
C2555 C2559 1.400 . S
C2556 H2541 0.961 . S
C2556 H2542 0.958 1_556 S
C2556 H2543 0.960 . S
C2556 C2555 1.525 . S
C2557 C2554 1.403 . S
C2557 C2558 1.392 . S
C2557 C2561 1.495 . S
C2558 C2557 1.392 . S
C2558 C2559 1.385 . S
C2558 C2560 1.478 . S
C2559 H2553 0.930 . S
C2559 C2555 1.400 . S
C2559 C2558 1.385 . S
C2560 C2558 1.478 . S
C2560 C2562 1.381 . S
C2560 C2566 1.383 . S
C2561 C2557 1.495 . S
C2561 H2567 0.959 . S
C2561 H2568 0.961 . S
C2561 H2569 0.960 . S
C2562 C2560 1.381 . S
C2562 C2563 1.394 . S
C2562 H2570 0.930 . S
C2563 C2562 1.394 . S
C2563 C2564 1.383 . S
C2563 H2571 0.929 . S
C2564 C2563 1.383 . S
C2564 C2565 1.377 . S
C2565 H2549 0.930 . S
C2565 C2564 1.377 . S
C2565 C2566 1.379 . S
C2566 H2550 0.931 . S
C2566 C2560 1.383 . S
C2566 C2565 1.379 . S
H2567 C2561 0.959 . S
H2568 C2561 0.961 . S
H2569 C2561 0.960 . S
H2570 C2562 0.930 . S
H2571 C2563 0.929 . S
H2572 C2580 0.929 . S
H2573 C2582 0.930 . S
H2574 C2584 0.930 . S
H2575 C2587 0.929 . S
H2576 C2590 0.930 . S
H2577 C2592 0.960 . S
H2578 C2592 0.960 . S
H2579 C2592 0.960 . S
C2580 H2572 0.929 . S
C2580 C2581 1.377 . S
C2580 C2582 1.384 . S
C2581 C2580 1.377 . S
C2581 C2587 1.390 . S
C2582 H2573 0.930 . S
C2582 C2580 1.384 . S
C2582 C2583 1.372 . S
C2583 C2582 1.372 . S
C2583 C2584 1.400 . S
C2583 C2588 1.490 . S
C2584 H2574 0.930 . S
C2584 C2583 1.400 . S
C2584 C2587 1.386 . S
H2585 C2601 0.930 . S
H2586 C2602 0.931 . S
C2587 H2575 0.929 . S
C2587 C2581 1.390 . S
C2587 C2584 1.386 . S
C2588 C2583 1.490 . S
C2588 C2590 1.395 . S
C2588 C2591 1.403 1_455 S
H2589 C2595 0.930 . S
C2590 H2576 0.930 . S
C2590 C2588 1.395 . S
C2590 C2593 1.403 . S
C2591 C2588 1.403 1_655 S
C2591 C2592 1.524 . S
C2591 C2595 1.400 . S
C2592 H2577 0.960 . S
C2592 H2578 0.960 . S
C2592 H2579 0.960 . S
C2592 C2591 1.524 . S
C2593 C2590 1.403 . S
C2593 C2594 1.392 1_455 S
C2593 C2597 1.495 . S
C2594 C2593 1.392 1_655 S
C2594 C2595 1.385 . S
C2594 C2596 1.478 . S
C2595 H2589 0.930 . S
C2595 C2591 1.400 . S
C2595 C2594 1.385 . S
C2596 C2594 1.478 . S
C2596 C2598 1.381 . S
C2596 C2602 1.383 . S
C2597 C2593 1.495 . S
C2597 H2603 0.959 . S
C2597 H2604 0.961 . S
C2597 H2605 0.960 . S
C2598 C2596 1.381 . S
C2598 C2599 1.394 . S
C2598 H2606 0.930 . S
C2599 C2598 1.394 . S
C2599 C2600 1.383 . S
C2599 H2607 0.929 . S
C2600 C2599 1.383 . S
C2600 C2601 1.377 . S
C2601 H2585 0.930 . S
C2601 C2600 1.377 . S
C2601 C2602 1.379 . S
C2602 H2586 0.931 . S
C2602 C2596 1.383 . S
C2602 C2601 1.379 . S
H2603 C2597 0.959 . S
H2604 C2597 0.961 . S
H2605 C2597 0.960 . S
H2606 C2598 0.930 . S
H2607 C2599 0.929 . S
H2608 C2616 0.929 . S
H2609 C2618 0.930 . S
H2610 C2620 0.930 . S
H2611 C2623 0.929 . S
H2612 C2626 0.930 . S
H2613 C2628 0.960 . S
H2614 C2628 0.960 . S
H2615 C2628 0.960 . S
C2616 H2608 0.929 . S
C2616 C2617 1.377 . S
C2616 C2618 1.384 . S
C2617 C2616 1.377 . S
C2617 C2623 1.390 . S
C2618 H2609 0.930 . S
C2618 C2616 1.384 . S
C2618 C2619 1.372 . S
C2619 C2618 1.372 . S
C2619 C2620 1.400 . S
C2619 C2624 1.490 . S
C2620 H2610 0.930 . S
C2620 C2619 1.400 . S
C2620 C2623 1.386 . S
H2621 C2637 0.930 . S
H2622 C2638 0.931 . S
C2623 H2611 0.929 . S
C2623 C2617 1.390 . S
C2623 C2620 1.386 . S
C2624 C2619 1.490 . S
C2624 C2626 1.395 . S
C2624 C2627 1.403 . S
H2625 C2631 0.930 1_556 S
C2626 H2612 0.930 . S
C2626 C2624 1.395 . S
C2626 C2629 1.403 . S
C2627 C2624 1.403 . S
C2627 C2628 1.524 . S
C2627 C2631 1.400 . S
C2628 H2613 0.960 . S
C2628 H2614 0.960 . S
C2628 H2615 0.960 . S
C2628 C2627 1.524 . S
C2629 C2626 1.403 . S
C2629 C2630 1.392 . S
C2629 C2633 1.495 . S
C2630 C2629 1.392 . S
C2630 C2631 1.385 . S
C2630 C2632 1.478 . S
C2631 H2625 0.930 1_554 S
C2631 C2627 1.400 . S
C2631 C2630 1.385 . S
C2632 C2630 1.478 . S
C2632 C2634 1.381 . S
C2632 C2638 1.383 1_554 S
C2633 C2629 1.495 . S
C2633 H2639 0.959 . S
C2633 H2640 0.961 . S
C2633 H2641 0.960 . S
C2634 C2632 1.381 . S
C2634 C2635 1.394 1_554 S
C2634 H2642 0.930 . S
C2635 C2634 1.394 1_556 S
C2635 C2636 1.383 . S
C2635 H2643 0.929 . S
C2636 C2635 1.383 . S
C2636 C2637 1.377 . S
C2637 H2621 0.930 . S
C2637 C2636 1.377 . S
C2637 C2638 1.379 . S
C2638 H2622 0.931 . S
C2638 C2632 1.383 1_556 S
C2638 C2637 1.379 . S
H2639 C2633 0.959 . S
H2640 C2633 0.961 . S
H2641 C2633 0.960 . S
H2642 C2634 0.930 . S
H2643 C2635 0.929 . S
H2644 C2652 0.929 . S
H2645 C2654 0.930 . S
H2646 C2656 0.930 . S
H2647 C2659 0.929 . S
H2648 C2662 0.930 . S
H2649 C2664 0.960 . S
H2650 C2664 0.960 . S
H2651 C2664 0.960 . S
C2652 H2644 0.929 . S
C2652 C2653 1.377 . S
C2652 C2654 1.384 . S
C2653 C2652 1.377 . S
C2653 C2659 1.390 . S
C2654 H2645 0.930 . S
C2654 C2652 1.384 . S
C2654 C2655 1.372 . S
C2655 C2654 1.372 . S
C2655 C2656 1.400 . S
C2655 C2660 1.490 . S
C2656 H2646 0.930 . S
C2656 C2655 1.400 . S
C2656 C2659 1.386 . S
H2657 C2673 0.930 1_554 S
H2658 C2674 0.931 . S
C2659 H2647 0.929 . S
C2659 C2653 1.390 . S
C2659 C2656 1.386 . S
C2660 C2655 1.490 . S
C2660 C2662 1.395 1_655 S
C2660 C2663 1.403 . S
H2661 C2667 0.930 . S
C2662 H2648 0.930 . S
C2662 C2660 1.395 1_455 S
C2662 C2665 1.403 . S
C2663 C2660 1.403 . S
C2663 C2664 1.524 . S
C2663 C2667 1.400 1_655 S
C2664 H2649 0.960 . S
C2664 H2650 0.960 . S
C2664 H2651 0.960 . S
C2664 C2663 1.524 . S
C2665 C2662 1.403 . S
C2665 C2666 1.392 . S
C2665 C2669 1.495 . S
C2666 C2665 1.392 . S
C2666 C2667 1.385 . S
C2666 C2668 1.478 . S
C2667 H2661 0.930 . S
C2667 C2663 1.400 1_455 S
C2667 C2666 1.385 . S
C2668 C2666 1.478 . S
C2668 C2670 1.381 . S
C2668 C2674 1.383 . S
C2669 C2665 1.495 . S
C2669 H2675 0.959 . S
C2669 H2676 0.961 . S
C2669 H2677 0.960 . S
C2670 C2668 1.381 . S
C2670 C2671 1.394 . S
C2670 H2678 0.930 . S
C2671 C2670 1.394 . S
C2671 C2672 1.383 . S
C2671 H2679 0.929 . S
C2672 C2671 1.383 . S
C2672 C2673 1.377 . S
C2673 H2657 0.930 1_556 S
C2673 C2672 1.377 . S
C2673 C2674 1.379 . S
C2674 H2658 0.931 . S
C2674 C2668 1.383 . S
C2674 C2673 1.379 . S
H2675 C2669 0.959 . S
H2676 C2669 0.961 . S
H2677 C2669 0.960 . S
H2678 C2670 0.930 . S
H2679 C2671 0.929 . S
H2680 C2688 0.929 . S
H2681 C2690 0.930 . S
H2682 C2692 0.930 . S
H2683 C2695 0.929 . S
H2684 C2698 0.930 . S
H2685 C2700 0.960 . S
H2686 C2700 0.960 . S
H2687 C2700 0.960 . S
C2688 H2680 0.929 . S
C2688 C2689 1.377 . S
C2688 C2690 1.384 . S
C2689 C2688 1.377 . S
C2689 C2695 1.390 . S
C2690 H2681 0.930 . S
C2690 C2688 1.384 . S
C2690 C2691 1.372 . S
C2691 C2690 1.372 . S
C2691 C2692 1.400 . S
C2691 C2696 1.490 . S
C2692 H2682 0.930 . S
C2692 C2691 1.400 . S
C2692 C2695 1.386 . S
H2693 C2709 0.930 . S
H2694 C2710 0.931 . S
C2695 H2683 0.929 . S
C2695 C2689 1.390 . S
C2695 C2692 1.386 . S
C2696 C2691 1.490 . S
C2696 C2698 1.395 . S
C2696 C2699 1.403 . S
H2697 C2703 0.930 . S
C2698 H2684 0.930 . S
C2698 C2696 1.395 . S
C2698 C2701 1.403 . S
C2699 C2696 1.403 . S
C2699 C2700 1.524 . S
C2699 C2703 1.400 . S
C2700 H2685 0.960 . S
C2700 H2686 0.960 . S
C2700 H2687 0.960 . S
C2700 C2699 1.524 . S
C2701 C2698 1.403 . S
C2701 C2702 1.392 . S
C2701 C2705 1.495 . S
C2702 C2701 1.392 . S
C2702 C2703 1.385 . S
C2702 C2704 1.478 . S
C2703 H2697 0.930 . S
C2703 C2699 1.400 . S
C2703 C2702 1.385 . S
C2704 C2702 1.478 . S
C2704 C2706 1.381 . S
C2704 C2710 1.383 . S
C2705 C2701 1.495 . S
C2705 H2711 0.959 . S
C2705 H2712 0.961 . S
C2705 H2713 0.960 . S
C2706 C2704 1.381 . S
C2706 C2707 1.394 . S
C2706 H2714 0.930 . S
C2707 C2706 1.394 . S
C2707 C2708 1.383 . S
C2707 H2715 0.929 . S
C2708 C2707 1.383 . S
C2708 C2709 1.377 . S
C2709 H2693 0.930 . S
C2709 C2708 1.377 . S
C2709 C2710 1.379 . S
C2710 H2694 0.931 . S
C2710 C2704 1.383 . S
C2710 C2709 1.379 . S
H2711 C2705 0.959 . S
H2712 C2705 0.961 . S
H2713 C2705 0.960 . S
H2714 C2706 0.930 . S
H2715 C2707 0.929 . S
H2716 C2724 0.929 . S
H2717 C2726 0.930 . S
H2718 C2728 0.930 . S
H2719 C2731 0.929 . S
H2720 C2734 0.930 . S
H2721 C2736 0.960 . S
H2722 C2736 0.960 . S
H2723 C2736 0.960 . S
C2724 H2716 0.929 . S
C2724 C2725 1.377 . S
C2724 C2726 1.384 . S
C2725 C2724 1.377 . S
C2725 C2731 1.390 . S
C2726 H2717 0.930 . S
C2726 C2724 1.384 . S
C2726 C2727 1.372 . S
C2727 C2726 1.372 . S
C2727 C2728 1.400 . S
C2727 C2732 1.490 . S
C2728 H2718 0.930 . S
C2728 C2727 1.400 . S
C2728 C2731 1.386 . S
H2729 C2745 0.930 . S
H2730 C2746 0.931 . S
C2731 H2719 0.929 . S
C2731 C2725 1.390 . S
C2731 C2728 1.386 . S
C2732 C2727 1.490 . S
C2732 C2734 1.395 . S
C2732 C2735 1.403 . S
H2733 C2739 0.930 . S
C2734 H2720 0.930 . S
C2734 C2732 1.395 . S
C2734 C2737 1.403 . S
C2735 C2732 1.403 . S
C2735 C2736 1.524 . S
C2735 C2739 1.400 . S
C2736 H2721 0.960 . S
C2736 H2722 0.960 . S
C2736 H2723 0.960 . S
C2736 C2735 1.524 . S
C2737 C2734 1.403 . S
C2737 C2738 1.392 . S
C2737 C2741 1.495 . S
C2738 C2737 1.392 . S
C2738 C2739 1.385 . S
C2738 C2740 1.478 . S
C2739 H2733 0.930 . S
C2739 C2735 1.400 . S
C2739 C2738 1.385 . S
C2740 C2738 1.478 . S
C2740 C2742 1.381 . S
C2740 C2746 1.383 . S
C2741 C2737 1.495 . S
C2741 H2747 0.959 . S
C2741 H2748 0.961 . S
C2741 H2749 0.960 . S
C2742 C2740 1.381 . S
C2742 C2743 1.394 . S
C2742 H2750 0.930 . S
C2743 C2742 1.394 . S
C2743 C2744 1.383 . S
C2743 H2751 0.929 . S
C2744 C2743 1.383 . S
C2744 C2745 1.377 . S
C2745 H2729 0.930 . S
C2745 C2744 1.377 . S
C2745 C2746 1.379 . S
C2746 H2730 0.931 . S
C2746 C2740 1.383 . S
C2746 C2745 1.379 . S
H2747 C2741 0.959 . S
H2748 C2741 0.961 . S
H2749 C2741 0.960 . S
H2750 C2742 0.930 . S
H2751 C2743 0.929 . S
C457 C91 1.137 . S
C476 C7 1.107 . S
C493 C21 1.149 . S
C512 C105 1.186 . S
C529 C63 1.153 . S
C548 C35 1.147 . S
C565 C49 1.152 . S
C584 C77 1.129 . S
C601 C203 1.142 . S
C620 C119 1.140 . S
C637 C133 1.138 . S
C656 C217 1.181 . S
C673 C175 1.152 . S
C692 C147 1.115 . S
C709 C161 1.151 . S
C728 C189 1.121 . S
C745 C231 1.151 . S
C764 C315 1.180 . S
C781 C329 1.151 . S
C800 C245 1.120 . S
C817 C259 1.135 . S
C836 C287 1.118 . S
C853 C301 1.153 . S
C872 C273 1.143 . S
C889 C427 1.138 . S
C908 C343 1.182 . S
C925 C441 1.152 . S
C944 C357 1.114 . S
C961 C399 1.147 . S
C980 C371 1.114 . S
C997 C385 1.136 . S
C1016 C413 1.172 . S
C1033 C104 0.909 . S
C1052 C6 0.874 . S
C1069 C62 0.908 . S
C1088 C20 0.868 . S
C1105 C76 0.908 . S
C1124 C34 0.887 . S
C1141 C90 0.903 . S
C1160 C48 0.869 . S
C1177 C216 0.911 . S
C1196 C118 0.923 . S
C1213 C174 0.906 . S
C1232 C132 0.913 . S
C1249 C188 0.908 . S
C1268 C146 0.894 . S
C1285 C160 0.909 . S
C1304 C202 0.934 . S
C1321 C328 0.892 . S
C1340 C230 0.905 . S
C1357 C244 0.909 1_556 S
C1376 C286 0.886 . S
C1393 C258 0.896 . S
C1412 C300 0.939 . S
C1429 C314 0.892 . S
C1448 C272 0.927 . S
C1465 C440 0.908 . S
C1484 C342 0.883 . S
C1501 C356 0.910 . S
C1520 C398 0.929 . S
C1537 C370 0.893 . S
C1556 C412 0.932 1_556 S
C1573 C426 0.894 . S
C1592 C384 0.935 . S
C1609 C8 1.514 . S
C1628 C429 1.441 . S
C1645 C219 1.466 . S
C1664 C22 1.504 . S
C1681 C401 1.464 . S
C1700 C36 1.513 . S
C1717 C191 1.463 . S
C1736 C50 1.510 1_556 S
C1753 C373 1.473 . S
C1772 C64 1.508 . S
C1789 C78 1.517 . S
C1808 C163 1.469 . S
C1825 C92 1.514 . S
C1844 C345 1.447 . S
C1861 C106 1.513 1_554 S
C1880 C135 1.453 . S
C1897 C120 1.514 . S
C1916 C317 1.440 . S
C1933 C107 1.471 . S
C1952 C134 1.509 . S
C1969 C289 1.472 . S
C1988 C148 1.519 . S
C2005 C79 1.473 . S
C2024 C162 1.512 1_554 S
C2041 C261 1.469 . S
C2060 C176 1.518 . S
C2077 C51 1.466 . S
C2096 C190 1.513 . S
C2113 C204 1.516 . S
C2132 C233 1.490 . S
C2149 C23 1.474 . S
C2168 C218 1.516 1_556 S
C2185 C205 1.465 . S
C2204 C232 1.505 . S
C2221 C443 1.464 . S
C2240 C246 1.506 1_556 S
C2257 C260 1.517 . S
C2276 C177 1.473 . S
C2293 C274 1.514 . S
C2312 C415 1.476 . S
C2329 C288 1.514 . S
C2348 C149 1.473 . S
C2365 C302 1.514 1_554 S
C2384 C387 1.442 . S
C2401 C316 1.513 . S
C2420 C121 1.455 . S
C2437 C330 1.516 . S
C2456 C359 1.457 . S
C2473 C93 1.463 . S
C2492 C344 1.506 . S
C2509 C331 1.473 . S
C2528 C358 1.513 1_554 S
C2545 C65 1.469 . S
C2564 C372 1.506 . S
C2581 C386 1.514 . S
C2600 C303 1.461 . S
C2617 C400 1.517 . S
C2636 C37 1.477 . S
C2653 C275 1.464 . S
C2672 C414 1.506 1_556 S
C2689 C428 1.514 . S
C2708 C9 1.442 . S
C2725 C442 1.515 . S
C2744 C247 1.444 . S
