# Generated by pormake.
# Topology svf, (7)-cn, num edge types: 1
# Building blocks:
#     Node 0, Type 0, BuildingBlock: HICVOG_clean_sbu_0, # of connection points: 7
#     Node 1, Type 0, BuildingBlock: HICVOG_clean_sbu_0, # of connection points: 7
#     Node 2, Type 0, BuildingBlock: HICVOG_clean_sbu_0, # of connection points: 7
#     Node 3, Type 0, BuildingBlock: HICVOG_clean_sbu_0, # of connection points: 7
#     Node 4, Type 0, BuildingBlock: HICVOG_clean_sbu_0, # of connection points: 7
#     Node 5, Type 0, BuildingBlock: HICVOG_clean_sbu_0, # of connection points: 7
#     Node 6, Type 0, BuildingBlock: HICVOG_clean_sbu_0, # of connection points: 7
#     Node 7, Type 0, BuildingBlock: HICVOG_clean_sbu_0, # of connection points: 7
#     Edge 8, Type (0, 0), BuildingBlock: AJUNOK_clean_linker_0, # of connection points: 2
#     Edge 9, Type (0, 0), BuildingBlock: AJUNOK_clean_linker_0, # of connection points: 2
#     Edge 10, Type (0, 0), BuildingBlock: AJUNOK_clean_linker_0, # of connection points: 2
#     Edge 11, Type (0, 0), BuildingBlock: AJUNOK_clean_linker_0, # of connection points: 2
#     Edge 12, Type (0, 0), BuildingBlock: AJUNOK_clean_linker_0, # of connection points: 2
#     Edge 13, Type (0, 0), BuildingBlock: AJUNOK_clean_linker_0, # of connection points: 2
#     Edge 14, Type (0, 0), BuildingBlock: AJUNOK_clean_linker_0, # of connection points: 2
#     Edge 15, Type (0, 0), BuildingBlock: AJUNOK_clean_linker_0, # of connection points: 2
#     Edge 16, Type (0, 0), BuildingBlock: AJUNOK_clean_linker_0, # of connection points: 2
#     Edge 17, Type (0, 0), BuildingBlock: AJUNOK_clean_linker_0, # of connection points: 2
#     Edge 18, Type (0, 0), BuildingBlock: AJUNOK_clean_linker_0, # of connection points: 2
#     Edge 19, Type (0, 0), BuildingBlock: AJUNOK_clean_linker_0, # of connection points: 2
#     Edge 20, Type (0, 0), BuildingBlock: AJUNOK_clean_linker_0, # of connection points: 2
#     Edge 21, Type (0, 0), BuildingBlock: AJUNOK_clean_linker_0, # of connection points: 2
#     Edge 22, Type (0, 0), BuildingBlock: AJUNOK_clean_linker_0, # of connection points: 2
#     Edge 23, Type (0, 0), BuildingBlock: AJUNOK_clean_linker_0, # of connection points: 2
#     Edge 24, Type (0, 0), BuildingBlock: AJUNOK_clean_linker_0, # of connection points: 2
#     Edge 25, Type (0, 0), BuildingBlock: AJUNOK_clean_linker_0, # of connection points: 2
#     Edge 26, Type (0, 0), BuildingBlock: AJUNOK_clean_linker_0, # of connection points: 2
#     Edge 27, Type (0, 0), BuildingBlock: AJUNOK_clean_linker_0, # of connection points: 2
#     Edge 28, Type (0, 0), BuildingBlock: AJUNOK_clean_linker_0, # of connection points: 2
#     Edge 29, Type (0, 0), BuildingBlock: AJUNOK_clean_linker_0, # of connection points: 2
#     Edge 30, Type (0, 0), BuildingBlock: AJUNOK_clean_linker_0, # of connection points: 2
#     Edge 31, Type (0, 0), BuildingBlock: AJUNOK_clean_linker_0, # of connection points: 2
#     Edge 32, Type (0, 0), BuildingBlock: AJUNOK_clean_linker_0, # of connection points: 2
#     Edge 33, Type (0, 0), BuildingBlock: AJUNOK_clean_linker_0, # of connection points: 2
#     Edge 34, Type (0, 0), BuildingBlock: AJUNOK_clean_linker_0, # of connection points: 2
#     Edge 35, Type (0, 0), BuildingBlock: AJUNOK_clean_linker_0, # of connection points: 2
# Relax obj value: 0.420
# Max RMSD: 0.199
# Mean RMSD: 0.199
data_MOF--net-svf--node1-HICVOG_clean_sbu_0--edge1-AJUNOK_clean_linker_0
_symmetry_space_group_name_H-M    P1
_symmetry_Int_Tables_number       1
_symmetry_cell_setting            triclinic
loop_
_symmetry_equiv_pos_as_xyz
'x, y, z'
_cell_length_a     25.714543
_cell_length_b     26.056592
_cell_length_c     16.129477
_cell_angle_alpha  90.155709
_cell_angle_beta   89.222643
_cell_angle_gamma 90.345895
loop_
_atom_site_label
_atom_site_type_symbol
_atom_site_fract_x
_atom_site_fract_y
_atom_site_fract_z
_atom_type_partial_charge
Zn0 Zn 0.1138 0.31548 1.12842 0.0
C1 C 0.22044 0.23911 0.26853 0.0
N2 N 0.23748 0.21664 0.19588 0.0
C3 C 0.20853 0.23927 1.1343 0.0
N4 N 0.17384 0.27305 1.16948 0.0
N5 N 0.18308 0.27371 0.25068 0.0
C6 C 0.24125 0.38016 0.35628 0.0
O7 O 0.24721 0.3729 0.27628 0.0
O8 O 0.07288 0.29261 1.02701 0.0
Zn9 Zn 0.15138 0.31807 0.3337 0.0
N10 N 0.13445 0.38457 1.10452 0.0
C11 C 0.10072 0.46741 1.0773 0.0
C12 C 0.09402 0.41464 1.08208 0.0
C13 C 0.18236 0.4047 1.11821 0.0
N14 N 0.14851 0.4876 1.09038 0.0
C15 C 0.18999 0.45783 1.10986 0.0
O16 O 0.10246 0.37562 0.29781 0.0
C17 C 0.06085 0.37019 0.25712 0.0
O18 O 0.0554 0.32973 0.21366 0.0
H19 H 0.05613 0.39774 1.07203 0.0
H20 H 0.21396 0.37959 1.1336 0.0
C21 C 0.12718 0.27417 0.49103 0.0
C22 C 0.1058 0.23572 0.54178 0.0
C23 C 0.05874 0.20328 0.42626 0.0
C24 C 0.08067 0.24103 0.37613 0.0
N25 N 0.11489 0.27495 0.40925 0.0
N26 N 0.07189 0.20146 0.50724 0.0
H27 H 0.1549 0.30162 0.51507 0.0
C28 C 0.02684 0.27507 1.03818 0.0
O29 O 0.01345 0.25717 1.11148 0.0
O30 O 0.20661 0.35472 0.3952 0.0
H31 H 0.07236 0.24213 0.31062 0.0
H32 H 0.06855 0.49209 1.0621 0.0
H33 H 0.03194 0.17532 0.40113 0.0
Zn34 Zn 0.65611 0.16118 0.18217 0.0
C35 C 0.71392 0.25281 1.00334 0.0
N36 N 0.73811 0.27617 1.06922 0.0
C37 C 0.71609 0.25353 1.13826 0.0
N38 N 0.68037 0.21782 1.11421 0.0
N39 N 0.67879 0.21733 1.03185 0.0
C40 C 0.68863 0.08369 0.95989 0.0
O41 O 0.67955 0.09134 1.03904 0.0
O42 O 0.62687 0.18732 0.28954 0.0
Zn43 Zn 0.63193 0.17358 0.96458 0.0
N44 N 0.71711 0.12064 0.20048 0.0
C45 C 0.80518 0.09996 1.16823 0.0
C46 C 0.76081 0.12865 1.15349 0.0
C47 C 0.71576 0.08466 0.26073 0.0
N48 N 0.8041 0.06439 0.22938 0.0
C49 C 0.76061 0.05619 0.27666 0.0
O50 O 0.56733 0.13352 1.02002 0.0
C51 C 0.56081 0.10906 1.08836 0.0
O52 O 0.59391 0.11498 1.14596 0.0
H53 H 0.76128 0.15666 1.10431 0.0
H54 H 0.67969 0.078 0.29437 0.0
C55 C 0.56795 0.25134 0.91842 0.0
C56 C 0.54423 0.28922 0.87022 0.0
C57 C 0.59791 0.2642 0.75612 0.0
C58 C 0.61941 0.22518 0.80386 0.0
N59 N 0.60421 0.22017 0.8844 0.0
N60 N 0.56014 0.2945 0.78968 0.0
H61 H 0.55585 0.24372 0.98166 0.0
C62 C 0.58304 0.20831 0.27838 0.0
O63 O 0.56968 0.21961 0.20228 0.0
O64 O 0.67318 0.11738 0.90916 0.0
H65 H 0.64793 0.19947 0.77729 0.0
H66 H 0.84015 0.10581 1.13134 0.0
H67 H 0.60992 0.26923 0.69208 0.0
Zn68 Zn 0.82802 0.59293 1.12956 0.0
C69 C 0.74184 0.6604 0.31296 0.0
N70 N 0.7121 0.67599 0.24722 0.0
C71 C 0.73883 0.65963 0.17781 0.0
N72 N 0.78224 0.63424 0.20116 0.0
N73 N 0.78527 0.63564 0.28334 0.0
C74 C 0.87067 0.57682 0.48485 0.0
O75 O 0.88763 0.57753 0.56109 0.0
O76 O 0.87532 0.63339 1.04901 0.0
Zn77 Zn 0.85672 0.63147 0.32599 0.0
N78 N 0.78173 0.55423 1.06601 0.0
C79 C 0.72298 0.48547 1.04299 0.0
C80 C 0.75755 0.5112 1.0945 0.0
C81 C 0.77371 0.57257 0.98947 0.0
N82 N 0.71511 0.50375 0.9654 0.0
C83 C 0.74 0.54672 0.93699 0.0
O84 O 0.90586 0.57339 0.28661 0.0
C85 C 0.90665 0.53711 0.23369 0.0
O86 O 0.87334 0.53616 0.1765 0.0
H87 H 0.76494 0.4974 1.15633 0.0
H88 H 0.79172 0.60854 0.97263 0.0
C89 C 0.93698 0.70397 0.27135 0.0
C90 C 0.95424 0.74957 0.2323 0.0
C91 C 0.86817 0.78132 0.23749 0.0
C92 C 0.85147 0.73644 0.27625 0.0
N93 N 0.88575 0.69792 0.29096 0.0
N94 N 0.91905 0.78697 0.21681 0.0
H95 H 0.96371 0.67372 0.28693 0.0
C96 C 0.92294 0.63696 1.06867 0.0
O97 O 0.93621 0.62407 1.14366 0.0
O98 O 0.86172 0.61959 0.44935 0.0
H99 H 0.81106 0.73255 0.29295 0.0
H100 H 0.70292 0.45119 1.06399 0.0
H101 H 0.84098 0.81171 0.22465 0.0
Zn102 Zn 0.32805 0.87039 1.03589 0.0
C103 C 0.28528 0.77446 0.22832 0.0
N104 N 0.27148 0.74225 1.16442 0.0
C105 C 0.2838 0.76916 1.09347 0.0
N106 N 0.3038 0.81587 1.11369 0.0
N107 N 0.30556 0.81881 0.19567 0.0
C108 C 0.39296 0.84264 0.34262 0.0
O109 O 0.40236 0.82999 0.26528 0.0
O110 O 0.27536 0.87827 0.94852 0.0
Zn111 Zn 0.3206 0.88448 0.24557 0.0
N112 N 0.38963 0.84271 0.99277 0.0
C113 C 0.45609 0.81076 0.90426 0.0
C114 C 0.40628 0.83128 0.91472 0.0
C115 C 0.42001 0.83638 1.05933 0.0
N116 N 0.48646 0.80398 0.97201 0.0
C117 C 0.46928 0.81705 1.04954 0.0
O118 O 0.37996 0.93122 0.19809 0.0
C119 C 0.38578 0.95655 1.13114 0.0
O120 O 0.35794 0.94426 1.06887 0.0
H121 H 0.38132 0.83742 0.86226 0.0
H122 H 0.40516 0.84642 1.11964 0.0
C123 C 0.25583 0.97063 0.20948 0.0
C124 C 0.21086 -0.0046 0.17955 0.0
C125 C 0.16598 0.91574 0.18402 0.0
C126 C 0.21022 0.89196 0.21392 0.0
N127 N 0.25436 0.91991 0.22755 0.0
N128 N 0.16718 0.96668 1.1682 0.0
H129 H 0.29177 -0.00888 0.22012 0.0
C130 C 0.22678 0.87556 0.96387 0.0
O131 O 0.21059 0.86384 1.03875 0.0
O132 O 0.35269 0.86949 0.35889 0.0
H133 H 0.20954 0.85089 0.22202 0.0
H134 H 0.47043 0.80036 0.84319 0.0
H135 H 0.13111 0.89374 0.17197 0.0
Zn136 Zn 0.18787 0.62257 0.75361 0.0
C137 C 0.25183 0.72363 0.59534 0.0
N138 N 0.27147 0.74656 0.66518 0.0
C139 C 0.24714 0.72121 0.72987 0.0
N140 N 0.21408 0.6847 0.69949 0.0
N141 N 0.21697 0.68676 0.6177 0.0
C142 C 0.22977 0.57479 0.50919 0.0
O143 O 0.23055 0.57985 0.58989 0.0
O144 O 0.13682 0.63889 0.84574 0.0
Zn145 Zn 0.16734 0.65604 0.54425 0.0
N146 N 0.25204 0.59435 0.7965 0.0
C147 C 0.34369 0.58172 0.7814 0.0
C148 C 0.29628 0.59757 0.74922 0.0
C149 C 0.25411 0.57812 0.87602 0.0
N150 N 0.34547 0.56408 0.8604 0.0
C151 C 0.30198 0.56295 0.90908 0.0
O152 O 0.10581 0.61088 0.58845 0.0
C153 C 0.10713 0.57122 0.63484 0.0
O154 O 0.14311 0.56664 0.68866 0.0
H155 H 0.29532 0.61357 0.68765 0.0
H156 H 0.21862 0.57658 0.91288 0.0
C157 C 0.14126 0.72202 0.40882 0.0
C158 C 0.12787 0.77001 0.37496 0.0
C159 C 0.12051 0.80385 0.5121 0.0
C160 C 0.13051 0.75572 0.54443 0.0
N161 N 0.14132 0.71611 0.49216 0.0
N162 N 0.1189 0.80962 0.4288 0.0
H163 H 0.15079 0.68906 0.37149 0.0
C164 C 0.0916 0.65411 0.82595 0.0
O165 O 0.08264 0.66567 0.74829 0.0
O166 O 0.20508 0.60785 0.46757 0.0
H167 H 0.13207 0.75033 0.6108 0.0
H168 H 0.37884 0.58362 0.7439 0.0
H169 H 0.11331 0.83625 0.55267 0.0
Zn170 Zn 0.34483 0.1092 0.60217 0.0
C171 C 0.25746 0.19338 0.76858 0.0
N172 N 0.24185 0.21851 0.69838 0.0
C173 C 0.26837 0.19519 0.63404 0.0
N174 N 0.29978 0.15758 0.66502 0.0
N175 N 0.29209 0.15576 0.74689 0.0
C176 C 0.22501 0.04282 0.80028 0.0
O177 O 0.2192 0.06639 0.72928 0.0
O178 O 0.38962 0.14916 0.52337 0.0
Zn179 Zn 0.32116 0.10365 0.82268 0.0
N180 N 0.29778 0.07143 0.53652 0.0
C181 C 0.23164 0.008 0.52783 0.0
C182 C 0.27362 0.02969 0.56926 0.0
C183 C 0.28404 0.09104 0.46235 0.0
N184 N 0.2163 0.02894 0.45546 0.0
C185 C 0.24126 0.07023 0.42162 0.0
O186 O 0.38473 0.05595 0.7925 0.0
C187 C 0.40792 0.03845 0.7278 0.0
O188 O 0.39502 0.05543 0.65669 0.0
H189 H 0.28612 0.0149 0.62811 0.0
H190 H 0.30462 0.12406 0.43765 0.0
C191 C 0.35996 0.18803 0.90534 0.0
C192 C 0.36868 0.22326 0.96989 0.0
C193 C 0.3377 0.16071 1.06571 0.0
C194 C 0.32815 0.12646 1.00065 0.0
N195 N 0.339 0.14135 0.92167 0.0
N196 N 0.35761 0.20803 1.04893 0.0
H197 H 0.36995 0.19672 0.84159 0.0
C198 C 0.434 0.16707 0.54178 0.0
O199 O 0.45043 0.16234 0.61816 0.0
O200 O 0.26373 0.05309 0.84606 0.0
H201 H 0.31077 0.0893 1.01226 0.0
H202 H 0.21096 0.97518 0.55261 0.0
H203 H 0.32929 0.15008 1.12919 0.0
Zn204 Zn 0.88594 0.32393 0.49741 0.0
C205 C 0.76509 0.28925 0.63757 0.0
N206 N 0.74354 0.26719 0.56838 0.0
C207 C 0.77406 0.28415 0.50286 0.0
N208 N 0.81313 0.31501 0.53296 0.0
N209 N 0.80609 0.31926 0.61421 0.0
C210 C 0.86696 0.32419 0.80092 0.0
O211 O 0.87196 0.29297 0.73754 0.0
O212 O 0.88359 0.33336 0.37248 0.0
Zn213 Zn 0.8274 0.38224 0.66927 0.0
N214 N 0.91385 0.26078 0.54585 0.0
C215 C 0.89487 0.17982 0.60908 0.0
C216 C 0.88356 0.21777 0.5514 0.0
C217 C 0.95521 0.2667 0.59666 0.0
N218 N 0.9359 0.18614 0.66007 0.0
C219 C 0.96633 0.22896 0.65665 0.0
O220 O 0.89634 0.42036 0.64536 0.0
C221 C 0.93592 0.41671 0.59789 0.0
O222 O 0.93623 0.38202 0.54192 0.0
H223 H 0.84877 0.21386 0.51576 0.0
H224 H 0.97863 0.30103 0.59095 0.0
C225 C 0.77415 0.479 0.65919 0.0
C226 C 0.73787 0.51452 0.62843 0.0
C227 C 0.70604 0.45144 0.537 0.0
C228 C 0.74082 0.4162 0.56929 0.0
N229 N 0.77412 0.43027 0.63074 0.0
N230 N 0.70445 0.49958 0.5685 0.0
H231 H 0.80026 0.4888 0.70894 0.0
C232 C 0.87036 0.37364 0.33296 0.0
O233 O 0.85955 0.36937 0.25394 0.0
O234 O 0.84209 0.36615 0.7916 0.0
H235 H 0.74035 0.37808 0.54458 0.0
H236 H 0.87059 0.14591 0.61428 0.0
H237 H 0.6794 0.4401 0.48886 0.0
Zn238 Zn 0.64593 0.80557 0.64131 0.0
C239 C 0.69577 0.70603 0.8137 0.0
N240 N 0.71509 0.68036 0.74567 0.0
C241 C 0.69482 0.70535 0.67861 0.0
N242 N 0.6652 0.74542 0.70569 0.0
N243 N 0.66567 0.74553 0.78792 0.0
C244 C 0.69902 0.87435 0.85448 0.0
O245 O 0.69582 0.86265 0.77563 0.0
O246 O 0.59866 0.78611 0.54915 0.0
Zn247 Zn 0.62802 0.79301 0.8582 0.0
N248 N 0.71112 0.83339 0.60065 0.0
C249 C 0.80387 0.83543 0.60105 0.0
C250 C 0.75684 0.81593 0.63143 0.0
C251 C 0.71064 0.87131 0.54351 0.0
N252 N 0.80341 0.8731 0.54334 0.0
C253 C 0.75789 0.89201 0.51484 0.0
O254 O 0.56916 0.8405 0.81072 0.0
C255 C 0.56788 0.8711 0.74856 0.0
O256 O 0.60021 0.86524 0.68863 0.0
H257 H 0.75722 0.7875 0.67981 0.0
H258 H 0.67383 0.88528 0.52113 0.0
C259 C 0.61429 0.75711 1.02276 0.0
C260 C 0.59305 0.72573 1.08624 0.0
C261 C 0.5557 0.67269 0.98154 0.0
C262 C 0.57113 0.70786 0.92105 0.0
N263 N 0.60028 0.74916 0.94312 0.0
N264 N 0.56612 0.68286 1.06223 0.0
H265 H 0.63828 0.79014 1.03618 0.0
C266 C 0.55171 0.78032 0.57397 0.0
O267 O 0.54245 0.77364 0.65349 0.0
O268 O 0.67733 0.84463 0.90697 0.0
H269 H 0.56216 0.70121 0.85657 0.0
H270 H 0.84041 0.82133 0.62407 0.0
H271 H 0.53407 0.63854 0.96496 0.0
C272 C 0.97673 0.40826 0.20447 0.0
C273 C 0.02264 0.41386 0.25076 0.0
C274 C 0.94075 0.44869 0.19669 0.0
C275 C 0.94796 0.49636 0.23673 0.0
H276 H 0.9683 0.37219 0.17379 0.0
H277 H 0.90609 0.44192 1.16079 0.0
S278 S 0.06535 0.53455 0.35433 0.0
N279 N 0.07607 0.47419 0.32828 0.0
N280 N 0.00793 0.54871 0.31633 0.0
C281 C 0.99484 0.50345 0.27982 0.0
C282 C 0.03197 0.46262 0.28658 0.0
C283 C 0.42724 0.0378 1.06461 0.0
C284 C 0.42818 -0.00172 1.12484 0.0
C285 C 0.46939 0.07321 1.05292 0.0
C286 C 0.51466 0.07203 1.10212 0.0
H287 H 0.39438 0.04018 1.02373 0.0
H288 H 0.46643 0.1016 1.00433 0.0
S289 S 0.53571 0.9792 0.2737 0.0
N290 N 0.47839 0.96259 0.23714 0.0
N291 N 0.55546 0.02855 0.21736 0.0
C292 C 0.51491 0.03407 1.16499 0.0
C293 C 0.47246 -0.0022 0.17603 0.0
C294 C 0.01515 0.53749 0.66277 0.0
C295 C 0.06498 0.53039 0.62693 0.0
C296 C 0.97465 0.50057 0.65403 0.0
C297 C 0.98107 0.45484 0.60716 0.0
H298 H 0.00732 0.57203 0.69823 0.0
H299 H 0.93746 0.50855 0.68347 0.0
S300 S 0.1047 0.41721 0.50143 0.0
N301 N 0.11879 0.47312 0.54445 0.0
N302 N 0.04298 0.4054 0.52467 0.0
C303 C 0.03085 0.44765 0.57032 0.0
C304 C 0.07247 0.48475 0.58108 0.0
C305 C 0.51336 0.93675 0.66811 0.0
C306 C 0.52742 0.91393 0.74422 0.0
C307 C 0.47552 0.97644 0.6635 0.0
C308 C 0.44936 -0.00385 0.7347 0.0
H309 H 0.53139 0.92348 0.61096 0.0
H310 H 0.46663 -0.00832 0.60298 0.0
S311 S 0.47316 0.95037 0.94918 0.0
N312 N 0.51319 0.91575 0.89223 0.0
N313 N 0.44187 0.98795 0.88459 0.0
C314 C 0.46342 0.97348 0.81106 0.0
C315 C 0.50215 0.93333 0.81546 0.0
C316 C 0.24968 0.52212 0.3836 0.0
C317 C 0.24809 0.52671 0.47041 0.0
C318 C 0.25463 0.47403 0.34565 0.0
C319 C 0.25731 0.4291 0.39344 0.0
H320 H 0.24361 0.55538 0.34482 0.0
H321 H 0.25112 0.47172 0.279 0.0
S322 S 0.26523 0.421 0.62195 0.0
N323 N 0.25848 0.48278 0.6027 0.0
N324 N 0.26623 0.39245 0.53049 0.0
C325 C 0.26147 0.43365 0.47963 0.0
C326 C 0.25718 0.48255 0.51844 0.0
C327 C 0.52205 0.19655 0.49255 0.0
C328 C 0.46957 0.18572 0.47507 0.0
C329 C 0.5583 0.20655 0.42876 0.0
C330 C 0.54323 0.20696 0.34533 0.0
H331 H 0.53589 0.19508 0.55563 0.0
H332 H 0.59872 0.21235 0.44469 0.0
S333 S 0.40991 0.18439 0.26635 0.0
N334 N 0.40403 0.17855 0.36782 0.0
N335 N 0.47174 0.19817 0.24871 0.0
C336 C 0.49036 0.19905 0.32724 0.0
C337 C 0.45363 0.1882 0.39192 0.0
C338 C 0.91324 0.44584 0.40792 0.0
C339 C 0.86817 0.42508 0.37277 0.0
C340 C 0.91382 0.49539 0.44243 0.0
C341 C 0.86986 0.527 0.44025 0.0
H342 H 0.94899 0.4241 0.4065 0.0
H343 H 0.94947 0.50969 0.46918 0.0
S344 S 0.74426 0.49441 0.34299 0.0
N345 N 0.77971 0.44219 0.32989 0.0
N346 N 0.78111 0.53584 0.3935 0.0
C347 C 0.82524 0.50802 0.40106 0.0
C348 C 0.82444 0.45709 0.36698 0.0
C349 C 0.51857 0.7945 0.43198 0.0
C350 C 0.50855 0.79243 0.51754 0.0
C351 C 0.48083 0.81141 0.37735 0.0
C352 C 0.4311 0.82672 0.40532 0.0
H353 H 0.5563 0.78385 0.4068 0.0
H354 H 0.49139 0.81339 0.31236 0.0
S355 S 0.38491 0.82954 0.62384 0.0
N356 N 0.44508 0.80796 0.62866 0.0
N357 N 0.37382 0.83923 0.52448 0.0
C358 C 0.42019 0.82488 0.49068 0.0
C359 C 0.45887 0.80758 0.54701 0.0
C360 C 0.68065 0.55337 0.72722 0.0
C361 C 0.72586 0.55974 0.67866 0.0
C362 C 0.6845 0.55299 0.81338 0.0
C363 C 0.73229 0.56376 0.85121 0.0
H364 H 0.64575 0.53736 0.70016 0.0
H365 H 0.65139 0.53973 0.84984 0.0
S366 S 0.85062 0.61537 0.74445 0.0
N367 N 0.80992 0.60112 0.66951 0.0
N368 N 0.81961 0.60057 0.83136 0.0
C369 C 0.77309 0.58429 0.80182 0.0
C370 C 0.7682 0.5846 0.71444 0.0
C371 C 0.53245 0.73162 0.19899 0.0
C372 C 0.58229 0.74764 0.17161 0.0
C373 C 0.49014 0.75718 1.1631 0.0
C374 C 0.49951 0.80444 1.12272 0.0
H375 H 0.52653 0.6926 0.22026 0.0
H376 H 0.453 0.73765 1.15808 0.0
S377 S 0.61737 0.88393 1.15119 0.0
N378 N 0.63331 0.82631 0.18544 0.0
N379 N 0.55641 0.87973 1.12 0.0
C380 C 0.54629 0.83008 1.13971 0.0
C381 C 0.58737 0.80142 0.17501 0.0
C382 C 0.27908 0.45682 1.05102 0.0
C383 C 0.24228 0.48118 1.10293 0.0
C384 C 0.3086 0.48576 0.99439 0.0
C385 C 0.30256 0.53919 0.99124 0.0
H386 H 0.27864 0.4156 1.04336 0.0
H387 H 0.3291 0.46578 0.94492 0.0
S388 S 0.23382 0.62046 1.14459 0.0
N389 N 0.21788 0.56108 1.17053 0.0
N390 N 0.27423 0.61567 1.06452 0.0
C391 C 0.27725 0.5638 1.05749 0.0
C392 C 0.24697 0.53441 1.11442 0.0
C393 C 0.40426 0.28944 0.87135 0.0
C394 C 0.3982 0.27162 0.95355 0.0
C395 C 0.45246 0.30852 0.84386 0.0
C396 C 0.49413 0.31156 0.89913 0.0
H397 H 0.37503 0.28132 0.82537 0.0
H398 H 0.45916 0.31181 0.77759 0.0
S399 S 0.48289 0.309 1.12802 0.0
N400 N 0.42726 0.28475 1.09535 0.0
N401 N 0.51624 0.3253 1.04374 0.0
C402 C 0.48162 0.31213 0.98434 0.0
C403 C 0.43358 0.29041 1.01209 0.0
C404 C 0.70252 0.9675 0.82111 0.0
C405 C 0.71083 0.92785 0.87855 0.0
C406 C 0.69953 0.01878 0.84677 0.0
C407 C 0.70509 0.03226 0.93067 0.0
H408 H 0.69425 0.95873 0.7569 0.0
H409 H 0.68931 0.04743 0.80134 0.0
S410 S 0.74135 0.94414 1.10094 0.0
N411 N 0.73405 0.90627 1.0196 0.0
N412 N 0.72957 0.00282 1.06802 0.0
C413 C 0.71938 -0.00641 0.98684 0.0
C414 C 0.7219 0.94129 0.96075 0.0
C415 C 0.05334 0.62368 0.95979 0.0
C416 C 0.04832 0.65327 0.88774 0.0
C417 C 0.01217 0.61856 1.01658 0.0
C418 C 0.9646 0.64392 1.00539 0.0
H419 H 0.08891 0.603 0.97161 0.0
H420 H 0.0176 0.59374 1.06952 0.0
S421 S 0.93113 0.7265 0.82765 0.0
N422 N 0.99145 0.70821 0.80767 0.0
N423 N 0.91441 0.69938 0.91663 0.0
C424 C 0.95873 0.67362 0.93377 0.0
C425 C 0.00061 0.67836 0.87478 0.0
C426 C 0.171 -0.00557 0.89945 0.0
C427 C 0.19465 -0.00315 0.82064 0.0
C428 C 0.16896 0.94795 0.94258 0.0
C429 C 0.19302 0.90423 0.90881 0.0
H430 H 0.16104 0.02944 0.93233 0.0
H431 H 0.15756 0.94889 1.00728 0.0
S432 S 0.2427 0.88746 0.69542 0.0
N433 N 0.2281 0.94891 0.70265 0.0
N434 N 0.22543 0.86195 0.78515 0.0
C435 C 0.20557 0.90387 0.82435 0.0
C436 C 0.20696 0.9508 0.77993 0.0
C437 C 0.94509 0.34794 0.88258 0.0
C438 C 0.90177 0.31556 0.87169 0.0
C439 C 0.98629 0.3337 0.93416 0.0
C440 C 0.98515 0.28702 0.9782 0.0
H441 H 0.9485 0.38325 0.84753 0.0
H442 H 0.01912 0.35964 0.93982 0.0
S443 S 0.87896 0.19003 0.97371 0.0
N444 N 0.85998 0.23513 0.90924 0.0
N445 N 0.93549 0.20971 1.01003 0.0
C446 C 0.94107 0.25526 0.96994 0.0
C447 C 0.89995 0.26913 0.91565 0.0
C448 C 0.2528 0.07928 0.19513 0.0
C449 C 0.20611 0.05231 0.18194 0.0
C450 C 0.26438 0.09386 0.27662 0.0
C451 C 0.226 0.08774 0.33909 0.0
H452 H 0.28509 0.07347 1.15267 0.0
H453 H 0.30465 0.10102 0.292 0.0
S454 S 0.08526 0.06971 0.30312 0.0
N455 N 0.11351 0.05823 0.21231 0.0
N456 N 0.13266 0.08459 0.36725 0.0
C457 C 0.17414 0.08217 0.31435 0.0
C458 C 0.16389 0.06823 0.23118 0.0
C459 C 0.09703 0.18808 0.66949 0.0
C460 C 0.11342 0.23468 0.63309 0.0
C461 C 0.04565 0.18524 0.70026 0.0
C462 C 0.0157 0.23045 0.70319 0.0
H463 H 0.11571 0.15261 0.65099 0.0
H464 H 0.02722 0.14782 0.7043 0.0
S465 S 0.07284 0.36073 0.71479 0.0
N466 N 0.11864 0.32513 0.67069 0.0
N467 N 0.0232 0.32179 0.73468 0.0
C468 C 0.04381 0.27675 0.70821 0.0
C469 C 0.09489 0.27854 0.67392 0.0
C470 C 0.78689 0.9697 0.32357 0.0
C471 C 0.76075 0.01591 0.34034 0.0
C472 C 0.78608 0.92964 0.3809 0.0
C473 C 0.75883 0.93461 0.45626 0.0
H474 H 0.80734 0.96408 0.26511 0.0
H475 H 0.80604 0.89426 0.36564 0.0
S476 S 0.69099 0.05002 0.53575 0.0
N477 N 0.71216 0.06636 0.44232 0.0
N478 N 0.70939 0.99003 0.54898 0.0
C479 C 0.73406 0.981 0.47533 0.0
C480 C 0.73535 0.02204 0.41753 0.0
C481 C 0.07788 0.81856 0.27362 0.0
C482 C 0.10971 0.77571 0.28795 0.0
C483 C 0.02751 0.81119 0.24421 0.0
C484 C 0.01019 0.76162 0.22303 0.0
H485 H 0.08692 0.85543 0.30132 0.0
H486 H 0.00052 0.84285 0.24917 0.0
S487 S 0.09605 0.65085 0.18027 0.0
N488 N 0.13363 0.69324 0.22709 0.0
N489 N 0.03809 0.67755 0.17482 0.0
C490 C 0.04791 0.72358 0.21086 0.0
C491 C 0.09916 0.73178 0.24012 0.0
C492 C 0.21481 0.18574 0.49827 0.0
C493 C 0.25881 0.20591 0.53966 0.0
C494 C 0.20418 0.19554 0.41233 0.0
C495 C 0.23677 0.22556 0.35955 0.0
H496 H 0.18791 0.16157 0.53278 0.0
H497 H 0.16901 0.17965 0.38693 0.0
S498 S 0.35626 0.29116 0.43523 0.0
N499 N 0.33467 0.26036 0.51846 0.0
N500 N 0.3154 0.27742 0.35993 0.0
C501 C 0.28104 0.24623 0.4001 0.0
C502 C 0.29175 0.23673 0.4882 0.0
C503 C 0.69758 0.28142 0.29164 0.0
C504 C 0.73267 0.26257 0.23005 0.0
C505 C 0.71117 0.2875 0.37741 0.0
C506 C 0.76102 0.27528 0.40889 0.0
H507 H 0.65879 0.29205 0.2733 0.0
H508 H 0.68199 0.30262 0.41973 0.0
S509 S 0.86671 0.21934 0.2761 0.0
N510 N 0.81986 0.23011 0.2095 0.0
N511 N 0.84405 0.23814 0.36751 0.0
C512 C 0.79609 0.25516 0.34786 0.0
C513 C 0.78245 0.24991 0.26023 0.0
C514 C 0.75764 0.69626 0.5503 0.0
C515 C 0.70681 0.69304 0.58561 0.0
C516 C 0.7683 0.68747 0.46362 0.0
C517 C 0.72951 0.6727 0.40613 0.0
H518 H 0.78966 0.70713 0.58966 0.0
H519 H 0.8074 0.69415 0.44094 0.0
S520 S 0.58972 0.65733 0.46461 0.0
N521 N 0.61708 0.67366 0.55305 0.0
N522 N 0.63699 0.65617 0.39422 0.0
C523 C 0.67854 0.66957 0.44077 0.0
C524 C 0.66748 0.67944 0.52859 0.0
C525 C 0.28463 0.71278 0.35603 0.0
C526 C 0.27713 0.76269 0.32314 0.0
C527 C 0.2787 0.70114 0.4428 0.0
C528 C 0.26413 0.7382 0.50357 0.0
H529 H 0.29601 0.6821 0.3143 0.0
H530 H 0.28663 0.66248 0.46266 0.0
S531 S 0.23631 0.87418 0.45472 0.0
N532 N 0.25093 0.84882 0.36366 0.0
N533 N 0.24219 0.82733 0.52237 0.0
C534 C 0.2569 0.78802 0.47216 0.0
C535 C 0.26233 0.79991 0.38398 0.0
C536 C 0.67985 0.65614 0.95269 0.0
C537 C 0.70775 0.69392 0.90639 0.0
C538 C 0.68803 0.64679 1.03954 0.0
C539 C 0.72627 0.67327 1.08609 0.0
H540 H 0.65075 0.6334 0.92148 0.0
H541 H 0.66511 0.6171 1.06974 0.0
S542 S 0.81128 0.77606 0.99738 0.0
N543 N 0.77523 0.75875 0.91785 0.0
N544 N 0.7926 0.73956 1.0761 0.0
C545 C 0.75485 0.71077 1.04039 0.0
C546 C 0.74534 0.72131 0.95275 0.0
C547 C 0.30653 0.7331 0.85868 0.0
C548 C 0.2562 0.73166 0.82361 0.0
C549 C 0.31493 0.74264 0.94529 0.0
C550 C 0.27376 0.75167 1.00299 0.0
H551 H 0.34007 0.72653 0.81882 0.0
H552 H 0.35443 0.74278 0.96745 0.0
S553 S 0.13465 0.75664 0.94498 0.0
N554 N 0.16482 0.74462 0.85592 0.0
N555 N 0.18019 0.75848 1.01613 0.0
C556 C 0.22336 0.74948 0.96905 0.0
C557 C 0.21481 0.74086 0.8808 0.0
C558 C 0.21525 0.1787 1.00517 0.0
C559 C 0.21608 0.22896 1.03912 0.0
C560 C 0.22551 0.1681 0.91891 0.0
C561 C 0.23943 0.20637 0.85974 0.0
H562 H 0.2068 0.14669 1.04595 0.0
H563 H 0.22304 0.12889 0.89908 0.0
S564 S 0.24257 0.34551 0.91142 0.0
N565 N 0.22773 0.31839 1.00126 0.0
N566 N 0.24849 0.29834 0.84345 0.0
C567 C 0.23794 0.25704 0.89204 0.0
C568 C 0.22641 0.26813 0.97965 0.0
C569 C 0.75342 0.23144 0.76829 0.0
C570 C 0.74815 0.28004 0.72964 0.0
C571 C 0.74269 0.22312 0.85503 0.0
C572 C 0.72642 0.26286 0.90997 0.0
H573 H 0.76691 0.19931 0.73132 0.0
H574 H 0.74818 0.18499 0.87961 0.0
S575 S 0.70439 0.39728 0.84256 0.0
N576 N 0.72327 0.36821 0.75625 0.0
N577 N 0.70497 0.35321 0.91602 0.0
C578 C 0.72112 0.31156 0.87223 0.0
C579 C 0.73137 0.31987 0.78383 0.0
loop_
_geom_bond_atom_site_label_1
_geom_bond_atom_site_label_2
_geom_bond_distance
_geom_bond_site_symmetry_2
_ccdc_geom_bond_type
Zn0 N4 2.020 . S
Zn0 O8 2.019 . S
Zn0 N10 2.119 . S
Zn0 O18 1.975 . S
C1 N2 1.334 . S
C1 N5 1.336 . S
N2 C1 1.334 . S
N2 C3 1.334 1_554 S
C3 N2 1.334 1_556 S
C3 N4 1.336 . S
N4 Zn0 2.020 . S
N4 C3 1.336 . S
N4 N5 1.354 1_556 S
N5 C1 1.336 . S
N5 N4 1.354 1_554 S
N5 Zn9 2.020 . S
C6 O7 1.244 . S
C6 O30 1.257 . S
O7 C6 1.244 . S
O8 Zn0 2.019 . S
O8 C28 1.257 . S
Zn9 N5 2.020 . S
Zn9 O16 1.975 . S
Zn9 N25 2.119 . S
Zn9 O30 2.019 . S
N10 Zn0 2.119 . S
N10 C12 1.334 . S
N10 C13 1.328 . S
C11 C12 1.391 . S
C11 N14 1.329 . S
C11 H32 0.930 . S
C12 N10 1.334 . S
C12 C11 1.391 . S
C12 H19 0.930 . S
C13 N10 1.328 . S
C13 C15 1.392 . S
C13 H20 0.930 . S
N14 C11 1.329 . S
N14 C15 1.331 . S
C15 C13 1.392 . S
C15 N14 1.331 . S
O16 Zn9 1.975 . S
O16 C17 1.252 . S
C17 O16 1.252 . S
C17 O18 1.252 1_554 S
O18 Zn0 1.975 . S
O18 C17 1.252 1_556 S
H19 C12 0.930 . S
H20 C13 0.930 . S
C21 C22 1.392 . S
C21 N25 1.328 . S
C21 H27 0.930 . S
C22 C21 1.392 . S
C22 N26 1.331 . S
C23 C24 1.391 . S
C23 N26 1.329 . S
C23 H33 0.930 1_455 S
C24 C23 1.391 . S
C24 N25 1.334 . S
C24 H31 0.930 . S
N25 Zn9 2.119 . S
N25 C21 1.328 . S
N25 C24 1.334 . S
N26 C22 1.331 . S
N26 C23 1.329 . S
H27 C21 0.930 . S
C28 O8 1.257 . S
C28 O29 1.244 . S
O29 C28 1.244 . S
O30 C6 1.257 . S
O30 Zn9 2.019 . S
H31 C24 0.930 . S
H32 C11 0.930 . S
H33 C23 0.930 1_655 S
Zn34 N38 2.020 . S
Zn34 O42 2.019 . S
Zn34 N44 2.119 . S
Zn34 O52 1.975 . S
C35 N36 1.334 1_556 S
C35 N39 1.336 . S
N36 C35 1.334 1_554 S
N36 C37 1.334 . S
C37 N36 1.334 . S
C37 N38 1.336 . S
N38 Zn34 2.020 . S
N38 C37 1.336 . S
N38 N39 1.354 1_554 S
N39 C35 1.336 . S
N39 N38 1.354 1_556 S
N39 Zn43 2.020 . S
C40 O41 1.244 . S
C40 O64 1.257 . S
O41 C40 1.244 . S
O42 Zn34 2.019 . S
O42 C62 1.257 . S
Zn43 N39 2.020 . S
Zn43 O50 1.975 . S
Zn43 N59 2.119 . S
Zn43 O64 2.019 . S
N44 Zn34 2.119 . S
N44 C46 1.334 . S
N44 C47 1.328 . S
C45 C46 1.391 . S
C45 N48 1.329 . S
C45 H66 0.930 1_545 S
C46 N44 1.334 . S
C46 C45 1.391 . S
C46 H53 0.930 . S
C47 N44 1.328 . S
C47 C49 1.392 . S
C47 H54 0.930 . S
N48 C45 1.329 . S
N48 C49 1.331 . S
C49 C47 1.392 . S
C49 N48 1.331 . S
O50 Zn43 1.975 . S
O50 C51 1.252 1_556 S
C51 O50 1.252 1_554 S
C51 O52 1.252 . S
O52 Zn34 1.975 . S
O52 C51 1.252 . S
H53 C46 0.930 . S
H54 C47 0.930 . S
C55 C56 1.392 . S
C55 N59 1.328 . S
C55 H61 0.930 . S
C56 C55 1.392 . S
C56 N60 1.331 . S
C57 C58 1.391 . S
C57 N60 1.329 . S
C57 H67 0.930 . S
C58 C57 1.391 . S
C58 N59 1.334 . S
C58 H65 0.930 . S
N59 Zn43 2.119 . S
N59 C55 1.328 . S
N59 C58 1.334 . S
N60 C56 1.331 . S
N60 C57 1.329 . S
H61 C55 0.930 . S
C62 O42 1.257 . S
C62 O63 1.244 . S
O63 C62 1.244 . S
O64 C40 1.257 . S
O64 Zn43 2.019 . S
H65 C58 0.930 . S
H66 C45 0.930 1_565 S
H67 C57 0.930 . S
Zn68 N72 2.020 . S
Zn68 O76 2.019 . S
Zn68 N78 2.119 . S
Zn68 O86 1.975 . S
C69 N70 1.334 . S
C69 N73 1.336 . S
N70 C69 1.334 . S
N70 C71 1.334 1_554 S
C71 N70 1.334 1_556 S
C71 N72 1.336 . S
N72 Zn68 2.020 . S
N72 C71 1.336 . S
N72 N73 1.354 1_556 S
N73 C69 1.336 . S
N73 N72 1.354 1_554 S
N73 Zn77 2.020 . S
C74 O75 1.244 . S
C74 O98 1.257 . S
O75 C74 1.244 . S
O76 Zn68 2.019 . S
O76 C96 1.257 . S
Zn77 N73 2.020 . S
Zn77 O84 1.975 . S
Zn77 N93 2.119 . S
Zn77 O98 2.019 . S
N78 Zn68 2.119 . S
N78 C80 1.334 . S
N78 C81 1.328 . S
C79 C80 1.391 . S
C79 N82 1.329 . S
C79 H100 0.930 . S
C80 N78 1.334 . S
C80 C79 1.391 . S
C80 H87 0.930 . S
C81 N78 1.328 . S
C81 C83 1.392 . S
C81 H88 0.930 . S
N82 C79 1.329 . S
N82 C83 1.331 . S
C83 C81 1.392 . S
C83 N82 1.331 . S
O84 Zn77 1.975 . S
O84 C85 1.252 . S
C85 O84 1.252 . S
C85 O86 1.252 1_554 S
O86 Zn68 1.975 . S
O86 C85 1.252 1_556 S
H87 C80 0.930 . S
H88 C81 0.930 . S
C89 C90 1.392 . S
C89 N93 1.328 . S
C89 H95 0.930 . S
C90 C89 1.392 . S
C90 N94 1.331 . S
C91 C92 1.391 . S
C91 N94 1.329 . S
C91 H101 0.930 1_655 S
C92 C91 1.391 . S
C92 N93 1.334 . S
C92 H99 0.930 . S
N93 Zn77 2.119 . S
N93 C89 1.328 . S
N93 C92 1.334 . S
N94 C90 1.331 . S
N94 C91 1.329 . S
H95 C89 0.930 . S
C96 O76 1.257 . S
C96 O97 1.244 . S
O97 C96 1.244 . S
O98 C74 1.257 . S
O98 Zn77 2.019 . S
H99 C92 0.930 . S
H100 C79 0.930 . S
H101 C91 0.930 1_455 S
Zn102 N106 2.020 . S
Zn102 O110 2.019 . S
Zn102 N112 2.119 . S
Zn102 O120 1.975 . S
C103 N104 1.334 . S
C103 N107 1.336 . S
N104 C103 1.334 . S
N104 C105 1.334 1_554 S
C105 N104 1.334 1_556 S
C105 N106 1.336 . S
N106 Zn102 2.020 . S
N106 C105 1.336 . S
N106 N107 1.354 1_556 S
N107 C103 1.336 . S
N107 N106 1.354 1_554 S
N107 Zn111 2.020 . S
C108 O109 1.244 . S
C108 O132 1.257 . S
O109 C108 1.244 . S
O110 Zn102 2.019 . S
O110 C130 1.257 . S
Zn111 N107 2.020 . S
Zn111 O118 1.975 . S
Zn111 N127 2.119 . S
Zn111 O132 2.019 . S
N112 Zn102 2.119 . S
N112 C114 1.334 . S
N112 C115 1.328 . S
C113 C114 1.391 . S
C113 N116 1.329 . S
C113 H134 0.930 . S
C114 N112 1.334 . S
C114 C113 1.391 . S
C114 H121 0.930 . S
C115 N112 1.328 . S
C115 C117 1.392 . S
C115 H122 0.930 . S
N116 C113 1.329 . S
N116 C117 1.331 . S
C117 C115 1.392 . S
C117 N116 1.331 . S
O118 Zn111 1.975 . S
O118 C119 1.252 . S
C119 O118 1.252 . S
C119 O120 1.252 1_554 S
O120 Zn102 1.975 . S
O120 C119 1.252 1_556 S
H121 C114 0.930 . S
H122 C115 0.930 . S
C123 C124 1.392 . S
C123 N127 1.328 . S
C123 H129 0.930 . S
C124 C123 1.392 . S
C124 N128 1.331 . S
C125 C126 1.391 . S
C125 N128 1.329 . S
C125 H135 0.930 1_565 S
C126 C125 1.391 . S
C126 N127 1.334 . S
C126 H133 0.930 . S
N127 Zn111 2.119 . S
N127 C123 1.328 . S
N127 C126 1.334 . S
N128 C124 1.331 . S
N128 C125 1.329 . S
H129 C123 0.930 . S
C130 O110 1.257 . S
C130 O131 1.244 . S
O131 C130 1.244 . S
O132 C108 1.257 . S
O132 Zn111 2.019 . S
H133 C126 0.930 . S
H134 C113 0.930 . S
H135 C125 0.930 1_545 S
Zn136 N140 2.020 . S
Zn136 O144 2.019 . S
Zn136 N146 2.119 . S
Zn136 O154 1.975 . S
C137 N138 1.334 . S
C137 N141 1.336 . S
N138 C137 1.334 . S
N138 C139 1.334 . S
C139 N138 1.334 . S
C139 N140 1.336 . S
N140 Zn136 2.020 . S
N140 C139 1.336 . S
N140 N141 1.354 . S
N141 C137 1.336 . S
N141 N140 1.354 . S
N141 Zn145 2.020 . S
C142 O143 1.244 . S
C142 O166 1.257 . S
O143 C142 1.244 . S
O144 Zn136 2.019 . S
O144 C164 1.257 . S
Zn145 N141 2.020 . S
Zn145 O152 1.975 . S
Zn145 N161 2.119 . S
Zn145 O166 2.019 . S
N146 Zn136 2.119 . S
N146 C148 1.334 . S
N146 C149 1.328 . S
C147 C148 1.391 . S
C147 N150 1.329 . S
C147 H168 0.930 . S
C148 N146 1.334 . S
C148 C147 1.391 . S
C148 H155 0.930 . S
C149 N146 1.328 . S
C149 C151 1.392 . S
C149 H156 0.930 . S
N150 C147 1.329 . S
N150 C151 1.331 . S
C151 C149 1.392 . S
C151 N150 1.331 . S
O152 Zn145 1.975 . S
O152 C153 1.252 . S
C153 O152 1.252 . S
C153 O154 1.252 . S
O154 Zn136 1.975 . S
O154 C153 1.252 . S
H155 C148 0.930 . S
H156 C149 0.930 . S
C157 C158 1.392 . S
C157 N161 1.328 . S
C157 H163 0.930 . S
C158 C157 1.392 . S
C158 N162 1.331 . S
C159 C160 1.391 . S
C159 N162 1.329 . S
C159 H169 0.930 1_455 S
C160 C159 1.391 . S
C160 N161 1.334 . S
C160 H167 0.930 . S
N161 Zn145 2.119 . S
N161 C157 1.328 . S
N161 C160 1.334 . S
N162 C158 1.331 . S
N162 C159 1.329 . S
H163 C157 0.930 . S
C164 O144 1.257 . S
C164 O165 1.244 . S
O165 C164 1.244 . S
O166 C142 1.257 . S
O166 Zn145 2.019 . S
H167 C160 0.930 . S
H168 C147 0.930 . S
H169 C159 0.930 1_655 S
Zn170 N174 2.020 . S
Zn170 O178 2.019 . S
Zn170 N180 2.119 . S
Zn170 O188 1.975 . S
C171 N172 1.334 . S
C171 N175 1.336 . S
N172 C171 1.334 . S
N172 C173 1.334 . S
C173 N172 1.334 . S
C173 N174 1.336 . S
N174 Zn170 2.020 . S
N174 C173 1.336 . S
N174 N175 1.354 . S
N175 C171 1.336 . S
N175 N174 1.354 . S
N175 Zn179 2.020 . S
C176 O177 1.244 . S
C176 O200 1.257 . S
O177 C176 1.244 . S
O178 Zn170 2.019 . S
O178 C198 1.257 . S
Zn179 N175 2.020 . S
Zn179 O186 1.975 . S
Zn179 N195 2.119 . S
Zn179 O200 2.019 . S
N180 Zn170 2.119 . S
N180 C182 1.334 . S
N180 C183 1.328 . S
C181 C182 1.391 . S
C181 N184 1.329 . S
C181 H202 0.930 1_545 S
C182 N180 1.334 . S
C182 C181 1.391 . S
C182 H189 0.930 . S
C183 N180 1.328 . S
C183 C185 1.392 . S
C183 H190 0.930 . S
N184 C181 1.329 . S
N184 C185 1.331 . S
C185 C183 1.392 . S
C185 N184 1.331 . S
O186 Zn179 1.975 . S
O186 C187 1.252 . S
C187 O186 1.252 . S
C187 O188 1.252 . S
O188 Zn170 1.975 . S
O188 C187 1.252 . S
H189 C182 0.930 . S
H190 C183 0.930 . S
C191 C192 1.392 . S
C191 N195 1.328 . S
C191 H197 0.930 . S
C192 C191 1.392 . S
C192 N196 1.331 . S
C193 C194 1.391 . S
C193 N196 1.329 . S
C193 H203 0.930 . S
C194 C193 1.391 . S
C194 N195 1.334 . S
C194 H201 0.930 . S
N195 Zn179 2.119 . S
N195 C191 1.328 . S
N195 C194 1.334 . S
N196 C192 1.331 . S
N196 C193 1.329 . S
H197 C191 0.930 . S
C198 O178 1.257 . S
C198 O199 1.244 . S
O199 C198 1.244 . S
O200 C176 1.257 . S
O200 Zn179 2.019 . S
H201 C194 0.930 . S
H202 C181 0.930 1_565 S
H203 C193 0.930 . S
Zn204 N208 2.020 . S
Zn204 O212 2.019 . S
Zn204 N214 2.119 . S
Zn204 O222 1.975 . S
C205 N206 1.334 . S
C205 N209 1.336 . S
N206 C205 1.334 . S
N206 C207 1.334 . S
C207 N206 1.334 . S
C207 N208 1.336 . S
N208 Zn204 2.020 . S
N208 C207 1.336 . S
N208 N209 1.354 . S
N209 C205 1.336 . S
N209 N208 1.354 . S
N209 Zn213 2.020 . S
C210 O211 1.244 . S
C210 O234 1.257 . S
O211 C210 1.244 . S
O212 Zn204 2.019 . S
O212 C232 1.257 . S
Zn213 N209 2.020 . S
Zn213 O220 1.975 . S
Zn213 N229 2.119 . S
Zn213 O234 2.019 . S
N214 Zn204 2.119 . S
N214 C216 1.334 . S
N214 C217 1.328 . S
C215 C216 1.391 . S
C215 N218 1.329 . S
C215 H236 0.930 1_655 S
C216 N214 1.334 . S
C216 C215 1.391 . S
C216 H223 0.930 . S
C217 N214 1.328 . S
C217 C219 1.392 . S
C217 H224 0.930 . S
N218 C215 1.329 . S
N218 C219 1.331 . S
C219 C217 1.392 . S
C219 N218 1.331 . S
O220 Zn213 1.975 . S
O220 C221 1.252 . S
C221 O220 1.252 . S
C221 O222 1.252 . S
O222 Zn204 1.975 . S
O222 C221 1.252 . S
H223 C216 0.930 . S
H224 C217 0.930 . S
C225 C226 1.392 . S
C225 N229 1.328 . S
C225 H231 0.930 . S
C226 C225 1.392 . S
C226 N230 1.331 . S
C227 C228 1.391 . S
C227 N230 1.329 . S
C227 H237 0.930 . S
C228 C227 1.391 . S
C228 N229 1.334 . S
C228 H235 0.930 . S
N229 Zn213 2.119 . S
N229 C225 1.328 . S
N229 C228 1.334 . S
N230 C226 1.331 . S
N230 C227 1.329 . S
H231 C225 0.930 . S
C232 O212 1.257 . S
C232 O233 1.244 . S
O233 C232 1.244 . S
O234 C210 1.257 . S
O234 Zn213 2.019 . S
H235 C228 0.930 . S
H236 C215 0.930 1_455 S
H237 C227 0.930 . S
Zn238 N242 2.020 . S
Zn238 O246 2.019 . S
Zn238 N248 2.119 . S
Zn238 O256 1.975 . S
C239 N240 1.334 . S
C239 N243 1.336 . S
N240 C239 1.334 . S
N240 C241 1.334 . S
C241 N240 1.334 . S
C241 N242 1.336 . S
N242 Zn238 2.020 . S
N242 C241 1.336 . S
N242 N243 1.354 . S
N243 C239 1.336 . S
N243 N242 1.354 . S
N243 Zn247 2.020 . S
C244 O245 1.244 . S
C244 O268 1.257 . S
O245 C244 1.244 . S
O246 Zn238 2.019 . S
O246 C266 1.257 . S
Zn247 N243 2.020 . S
Zn247 O254 1.975 . S
Zn247 N263 2.119 . S
Zn247 O268 2.019 . S
N248 Zn238 2.119 . S
N248 C250 1.334 . S
N248 C251 1.328 . S
C249 C250 1.391 . S
C249 N252 1.329 . S
C249 H270 0.930 1_565 S
C250 N248 1.334 . S
C250 C249 1.391 . S
C250 H257 0.930 . S
C251 N248 1.328 . S
C251 C253 1.392 . S
C251 H258 0.930 . S
N252 C249 1.329 . S
N252 C253 1.331 . S
C253 C251 1.392 . S
C253 N252 1.331 . S
O254 Zn247 1.975 . S
O254 C255 1.252 . S
C255 O254 1.252 . S
C255 O256 1.252 . S
O256 Zn238 1.975 . S
O256 C255 1.252 . S
H257 C250 0.930 . S
H258 C251 0.930 . S
C259 C260 1.392 . S
C259 N263 1.328 . S
C259 H265 0.930 . S
C260 C259 1.392 . S
C260 N264 1.331 . S
C261 C262 1.391 . S
C261 N264 1.329 . S
C261 H271 0.930 . S
C262 C261 1.391 . S
C262 N263 1.334 . S
C262 H269 0.930 . S
N263 Zn247 2.119 . S
N263 C259 1.328 . S
N263 C262 1.334 . S
N264 C260 1.331 . S
N264 C261 1.329 . S
H265 C259 0.930 . S
C266 O246 1.257 . S
C266 O267 1.244 . S
O267 C266 1.244 . S
O268 C244 1.257 . S
O268 Zn247 2.019 . S
H269 C262 0.930 . S
H270 C249 0.930 1_545 S
H271 C261 0.930 . S
C272 C273 1.367 1_556 S
C272 C274 1.419 . S
C272 H276 0.930 . S
C273 C272 1.367 1_554 S
C273 C282 1.431 1_455 S
C274 C272 1.419 . S
C274 C275 1.361 1_456 S
C274 H277 0.929 . S
C275 C274 1.361 1_654 S
C275 C281 1.430 . S
H276 C272 0.930 . S
H277 C274 0.929 . S
S278 N279 1.613 . S
S278 N280 1.610 . S
N279 S278 1.613 . S
N279 C282 1.350 . S
N280 S278 1.610 . S
N280 C281 1.351 . S
C281 C275 1.430 . S
C281 N280 1.351 . S
C281 C282 1.434 . S
C282 C273 1.431 1_655 S
C282 N279 1.350 . S
C282 C281 1.434 . S
C283 C284 1.367 1_546 S
C283 C285 1.419 . S
C283 H287 0.930 . S
C284 C283 1.367 1_564 S
C284 C293 1.431 . S
C285 C283 1.419 . S
C285 C286 1.362 1_556 S
C285 H288 0.929 . S
C286 C285 1.362 1_554 S
C286 C292 1.430 1_545 S
H287 C283 0.930 . S
H288 C285 0.929 . S
S289 N290 1.613 . S
S289 N291 1.610 . S
N290 S289 1.613 . S
N290 C293 1.350 . S
N291 S289 1.610 . S
N291 C292 1.351 . S
C292 C286 1.430 1_565 S
C292 N291 1.351 . S
C292 C293 1.434 . S
C293 C284 1.431 . S
C293 N290 1.350 . S
C293 C292 1.434 . S
C294 C295 1.369 1_655 S
C294 C296 1.419 . S
C294 H298 0.930 . S
C295 C294 1.369 1_455 S
C295 C304 1.429 . S
C296 C294 1.419 . S
C296 C297 1.363 . S
C296 H299 0.929 . S
C297 C296 1.363 . S
C297 C303 1.428 1_655 S
H298 C294 0.930 . S
H299 C296 0.929 . S
S300 N301 1.613 . S
S300 N302 1.610 . S
N301 S300 1.613 . S
N301 C304 1.350 . S
N302 S300 1.610 . S
N302 C303 1.351 . S
C303 C297 1.428 1_455 S
C303 N302 1.351 . S
C303 C304 1.434 . S
C304 C295 1.429 . S
C304 N301 1.350 . S
C304 C303 1.434 . S
C305 C306 1.369 . S
C305 C307 1.419 1_565 S
C305 H309 0.930 . S
C306 C305 1.369 . S
C306 C315 1.429 . S
C307 C305 1.419 1_545 S
C307 C308 1.363 . S
C307 H310 0.929 . S
C308 C307 1.363 . S
C308 C314 1.428 . S
H309 C305 0.930 . S
H310 C307 0.929 . S
S311 N312 1.613 1_545 S
S311 N313 1.610 . S
N312 S311 1.613 1_565 S
N312 C315 1.350 . S
N313 S311 1.610 . S
N313 C314 1.351 . S
C314 C308 1.428 . S
C314 N313 1.351 . S
C314 C315 1.434 1_545 S
C315 C306 1.429 . S
C315 N312 1.350 . S
C315 C314 1.434 1_565 S
C316 C317 1.369 . S
C316 C318 1.419 . S
C316 H320 0.930 . S
C317 C316 1.369 . S
C317 C326 1.429 . S
C318 C316 1.419 . S
C318 C319 1.363 . S
C318 H321 0.929 . S
C319 C318 1.363 . S
C319 C325 1.428 . S
H320 C316 0.930 . S
H321 C318 0.929 . S
S322 N323 1.613 . S
S322 N324 1.610 . S
N323 S322 1.613 . S
N323 C326 1.350 . S
N324 S322 1.610 . S
N324 C325 1.351 . S
C325 C319 1.428 . S
C325 N324 1.351 . S
C325 C326 1.434 . S
C326 C317 1.429 . S
C326 N323 1.350 . S
C326 C325 1.434 . S
C327 C328 1.369 . S
C327 C329 1.419 . S
C327 H331 0.930 . S
C328 C327 1.369 . S
C328 C337 1.429 . S
C329 C327 1.419 . S
C329 C330 1.363 . S
C329 H332 0.929 . S
C330 C329 1.363 . S
C330 C336 1.428 . S
H331 C327 0.930 . S
H332 C329 0.929 . S
S333 N334 1.613 . S
S333 N335 1.610 . S
N334 S333 1.613 . S
N334 C337 1.350 . S
N335 S333 1.610 . S
N335 C336 1.351 . S
C336 C330 1.428 . S
C336 N335 1.351 . S
C336 C337 1.434 . S
C337 C328 1.429 . S
C337 N334 1.350 . S
C337 C336 1.434 . S
C338 C339 1.369 . S
C338 C340 1.419 . S
C338 H342 0.930 . S
C339 C338 1.369 . S
C339 C348 1.429 . S
C340 C338 1.419 . S
C340 C341 1.363 . S
C340 H343 0.929 . S
C341 C340 1.363 . S
C341 C347 1.428 . S
H342 C338 0.930 . S
H343 C340 0.929 . S
S344 N345 1.613 . S
S344 N346 1.610 . S
N345 S344 1.613 . S
N345 C348 1.350 . S
N346 S344 1.610 . S
N346 C347 1.351 . S
C347 C341 1.428 . S
C347 N346 1.351 . S
C347 C348 1.434 . S
C348 C339 1.429 . S
C348 N345 1.350 . S
C348 C347 1.434 . S
C349 C350 1.369 . S
C349 C351 1.419 . S
C349 H353 0.930 . S
C350 C349 1.369 . S
C350 C359 1.429 . S
C351 C349 1.419 . S
C351 C352 1.363 . S
C351 H354 0.929 . S
C352 C351 1.363 . S
C352 C358 1.428 . S
H353 C349 0.930 . S
H354 C351 0.929 . S
S355 N356 1.613 . S
S355 N357 1.610 . S
N356 S355 1.613 . S
N356 C359 1.350 . S
N357 S355 1.610 . S
N357 C358 1.351 . S
C358 C352 1.428 . S
C358 N357 1.351 . S
C358 C359 1.434 . S
C359 C350 1.429 . S
C359 N356 1.350 . S
C359 C358 1.434 . S
C360 C361 1.369 . S
C360 C362 1.419 . S
C360 H364 0.930 . S
C361 C360 1.369 . S
C361 C370 1.429 . S
C362 C360 1.419 . S
C362 C363 1.363 . S
C362 H365 0.929 . S
C363 C362 1.363 . S
C363 C369 1.428 . S
H364 C360 0.930 . S
H365 C362 0.929 . S
S366 N367 1.613 . S
S366 N368 1.610 . S
N367 S366 1.613 . S
N367 C370 1.350 . S
N368 S366 1.610 . S
N368 C369 1.351 . S
C369 C363 1.428 . S
C369 N368 1.351 . S
C369 C370 1.434 . S
C370 C361 1.429 . S
C370 N367 1.350 . S
C370 C369 1.434 . S
C371 C372 1.369 . S
C371 C373 1.419 . S
C371 H375 0.930 . S
C372 C371 1.369 . S
C372 C381 1.429 . S
C373 C371 1.419 . S
C373 C374 1.363 . S
C373 H376 0.929 . S
C374 C373 1.363 . S
C374 C380 1.428 . S
H375 C371 0.930 . S
H376 C373 0.929 . S
S377 N378 1.613 . S
S377 N379 1.610 . S
N378 S377 1.613 . S
N378 C381 1.350 . S
N379 S377 1.610 . S
N379 C380 1.351 . S
C380 C374 1.428 . S
C380 N379 1.351 . S
C380 C381 1.434 . S
C381 C372 1.429 . S
C381 N378 1.350 . S
C381 C380 1.434 . S
C382 C383 1.369 . S
C382 C384 1.419 . S
C382 H386 0.930 . S
C383 C382 1.369 . S
C383 C392 1.429 . S
C384 C382 1.419 . S
C384 C385 1.363 . S
C384 H387 0.929 . S
C385 C384 1.363 . S
C385 C391 1.428 . S
H386 C382 0.930 . S
H387 C384 0.929 . S
S388 N389 1.613 . S
S388 N390 1.610 . S
N389 S388 1.613 . S
N389 C392 1.350 . S
N390 S388 1.610 . S
N390 C391 1.351 . S
C391 C385 1.428 . S
C391 N390 1.351 . S
C391 C392 1.434 . S
C392 C383 1.429 . S
C392 N389 1.350 . S
C392 C391 1.434 . S
C393 C394 1.369 . S
C393 C395 1.419 . S
C393 H397 0.930 . S
C394 C393 1.369 . S
C394 C403 1.429 . S
C395 C393 1.419 . S
C395 C396 1.363 . S
C395 H398 0.929 . S
C396 C395 1.363 . S
C396 C402 1.428 . S
H397 C393 0.930 . S
H398 C395 0.929 . S
S399 N400 1.613 . S
S399 N401 1.610 . S
N400 S399 1.613 . S
N400 C403 1.350 . S
N401 S399 1.610 . S
N401 C402 1.351 . S
C402 C396 1.428 . S
C402 N401 1.351 . S
C402 C403 1.434 . S
C403 C394 1.429 . S
C403 N400 1.350 . S
C403 C402 1.434 . S
C404 C405 1.369 1_545 S
C404 C406 1.419 . S
C404 H408 0.930 . S
C405 C404 1.369 1_565 S
C405 C414 1.429 . S
C406 C404 1.419 . S
C406 C407 1.363 . S
C406 H409 0.929 . S
C407 C406 1.363 . S
C407 C413 1.428 1_545 S
H408 C404 0.930 . S
H409 C406 0.929 . S
S410 N411 1.613 . S
S410 N412 1.610 . S
N411 S410 1.613 . S
N411 C414 1.350 . S
N412 S410 1.610 . S
N412 C413 1.351 . S
C413 C407 1.428 1_565 S
C413 N412 1.351 . S
C413 C414 1.434 . S
C414 C405 1.429 . S
C414 N411 1.350 . S
C414 C413 1.434 . S
C415 C416 1.369 . S
C415 C417 1.419 1_455 S
C415 H419 0.930 . S
C416 C415 1.369 . S
C416 C425 1.429 . S
C417 C415 1.419 1_655 S
C417 C418 1.363 . S
C417 H420 0.929 . S
C418 C417 1.363 . S
C418 C424 1.428 . S
H419 C415 0.930 . S
H420 C417 0.929 . S
S421 N422 1.621 . S
S421 N423 1.610 . S
N422 S421 1.621 . S
N422 C425 1.349 1_655 S
N423 S421 1.610 . S
N423 C424 1.351 . S
C424 C418 1.428 . S
C424 N423 1.351 . S
C424 C425 1.434 1_655 S
C425 C416 1.429 . S
C425 N422 1.349 1_455 S
C425 C424 1.434 1_455 S
C426 C427 1.369 . S
C426 C428 1.419 . S
C426 H430 0.930 . S
C427 C426 1.369 . S
C427 C436 1.429 1_545 S
C428 C426 1.419 . S
C428 C429 1.363 1_545 S
C428 H431 0.929 . S
C429 C428 1.363 1_565 S
C429 C435 1.428 . S
H430 C426 0.930 . S
H431 C428 0.929 . S
S432 N433 1.613 . S
S432 N434 1.610 . S
N433 S432 1.613 . S
N433 C436 1.350 . S
N434 S432 1.610 . S
N434 C435 1.351 . S
C435 C429 1.428 . S
C435 N434 1.351 . S
C435 C436 1.434 . S
C436 C427 1.429 1_565 S
C436 N433 1.350 . S
C436 C435 1.434 . S
C437 C438 1.357 1_455 S
C437 C439 1.430 . S
C437 H441 0.931 . S
C438 C437 1.357 1_655 S
C438 C447 1.429 . S
C439 C437 1.430 . S
C439 C440 1.363 . S
C439 H442 0.929 . S
C440 C439 1.363 . S
C440 C446 1.428 1_455 S
H441 C437 0.931 . S
H442 C439 0.929 . S
S443 N444 1.613 . S
S443 N445 1.610 . S
N444 S443 1.613 . S
N444 C447 1.350 . S
N445 S443 1.610 . S
N445 C446 1.351 . S
C446 C440 1.428 1_655 S
C446 N445 1.351 . S
C446 C447 1.434 . S
C447 C438 1.429 . S
C447 N444 1.350 . S
C447 C446 1.434 . S
C448 C449 1.369 . S
C448 C450 1.419 1_565 S
C448 H452 0.930 . S
C449 C448 1.369 . S
C449 C458 1.429 . S
C450 C448 1.419 1_545 S
C450 C451 1.363 . S
C450 H453 0.929 . S
C451 C450 1.363 . S
C451 C457 1.428 . S
H452 C448 0.930 . S
H453 C450 0.929 . S
S454 N455 1.613 1_545 S
S454 N456 1.610 . S
N455 S454 1.613 1_565 S
N455 C458 1.350 . S
N456 S454 1.610 . S
N456 C457 1.351 . S
C457 C451 1.428 . S
C457 N456 1.351 . S
C457 C458 1.434 1_545 S
C458 C449 1.429 . S
C458 N455 1.350 . S
C458 C457 1.434 1_565 S
C459 C460 1.369 . S
C459 C461 1.419 1_455 S
C459 H463 0.930 . S
C460 C459 1.369 . S
C460 C469 1.429 . S
C461 C459 1.419 1_655 S
C461 C462 1.363 . S
C461 H464 0.929 . S
C462 C461 1.363 . S
C462 C468 1.428 . S
H463 C459 0.930 . S
H464 C461 0.929 . S
S465 N466 1.613 . S
S465 N467 1.610 1_455 S
N466 S465 1.613 . S
N466 C469 1.350 . S
N467 S465 1.610 1_655 S
N467 C468 1.351 . S
C468 C462 1.428 . S
C468 N467 1.351 . S
C468 C469 1.434 1_655 S
C469 C460 1.429 . S
C469 N466 1.350 . S
C469 C468 1.434 1_455 S
C470 C471 1.369 . S
C470 C472 1.419 1_545 S
C470 H474 0.930 . S
C471 C470 1.369 . S
C471 C480 1.429 . S
C472 C470 1.419 1_565 S
C472 C473 1.363 . S
C472 H475 0.929 . S
C473 C472 1.363 . S
C473 C479 1.428 . S
H474 C470 0.930 . S
H475 C472 0.929 . S
S476 N477 1.613 . S
S476 N478 1.610 1_545 S
N477 S476 1.613 . S
N477 C480 1.350 . S
N478 S476 1.610 1_565 S
N478 C479 1.351 . S
C479 C473 1.428 . S
C479 N478 1.351 . S
C479 C480 1.434 1_565 S
C480 C471 1.429 . S
C480 N477 1.350 . S
C480 C479 1.434 1_545 S
C481 C482 1.369 . S
C481 C483 1.419 1_455 S
C481 H485 0.930 . S
C482 C481 1.369 . S
C482 C491 1.429 . S
C483 C481 1.419 1_655 S
C483 C484 1.363 . S
C483 H486 0.929 . S
C484 C483 1.363 . S
C484 C490 1.428 . S
H485 C481 0.930 . S
H486 C483 0.929 . S
S487 N488 1.613 . S
S487 N489 1.610 1_455 S
N488 S487 1.613 . S
N488 C491 1.350 . S
N489 S487 1.610 1_655 S
N489 C490 1.351 . S
C490 C484 1.428 . S
C490 N489 1.351 . S
C490 C491 1.434 1_655 S
C491 C482 1.429 . S
C491 N488 1.350 . S
C491 C490 1.434 1_455 S
C492 C493 1.369 . S
C492 C494 1.419 . S
C492 H496 0.930 . S
C493 C492 1.369 . S
C493 C502 1.429 . S
C494 C492 1.419 . S
C494 C495 1.363 . S
C494 H497 0.929 . S
C495 C494 1.363 . S
C495 C501 1.428 . S
H496 C492 0.930 . S
H497 C494 0.929 . S
S498 N499 1.613 . S
S498 N500 1.610 . S
N499 S498 1.613 . S
N499 C502 1.350 . S
N500 S498 1.610 . S
N500 C501 1.351 . S
C501 C495 1.428 . S
C501 N500 1.351 . S
C501 C502 1.434 . S
C502 C493 1.429 . S
C502 N499 1.350 . S
C502 C501 1.434 . S
C503 C504 1.369 . S
C503 C505 1.419 . S
C503 H507 0.930 . S
C504 C503 1.369 . S
C504 C513 1.429 . S
C505 C503 1.419 . S
C505 C506 1.363 . S
C505 H508 0.929 . S
C506 C505 1.363 . S
C506 C512 1.428 . S
H507 C503 0.930 . S
H508 C505 0.929 . S
S509 N510 1.613 . S
S509 N511 1.610 . S
N510 S509 1.613 . S
N510 C513 1.350 . S
N511 S509 1.610 . S
N511 C512 1.351 . S
C512 C506 1.428 . S
C512 N511 1.351 . S
C512 C513 1.434 . S
C513 C504 1.429 . S
C513 N510 1.350 . S
C513 C512 1.434 . S
C514 C515 1.369 . S
C514 C516 1.419 . S
C514 H518 0.930 . S
C515 C514 1.369 . S
C515 C524 1.429 . S
C516 C514 1.419 . S
C516 C517 1.363 . S
C516 H519 0.929 . S
C517 C516 1.363 . S
C517 C523 1.428 . S
H518 C514 0.930 . S
H519 C516 0.929 . S
S520 N521 1.613 . S
S520 N522 1.610 . S
N521 S520 1.613 . S
N521 C524 1.350 . S
N522 S520 1.610 . S
N522 C523 1.351 . S
C523 C517 1.428 . S
C523 N522 1.351 . S
C523 C524 1.434 . S
C524 C515 1.429 . S
C524 N521 1.350 . S
C524 C523 1.434 . S
C525 C526 1.369 . S
C525 C527 1.419 . S
C525 H529 0.930 . S
C526 C525 1.369 . S
C526 C535 1.429 . S
C527 C525 1.419 . S
C527 C528 1.363 . S
C527 H530 0.929 . S
C528 C527 1.363 . S
C528 C534 1.428 . S
H529 C525 0.930 . S
H530 C527 0.929 . S
S531 N532 1.613 . S
S531 N533 1.610 . S
N532 S531 1.613 . S
N532 C535 1.350 . S
N533 S531 1.610 . S
N533 C534 1.351 . S
C534 C528 1.428 . S
C534 N533 1.351 . S
C534 C535 1.434 . S
C535 C526 1.429 . S
C535 N532 1.350 . S
C535 C534 1.434 . S
C536 C537 1.369 . S
C536 C538 1.419 . S
C536 H540 0.930 . S
C537 C536 1.369 . S
C537 C546 1.429 . S
C538 C536 1.419 . S
C538 C539 1.363 . S
C538 H541 0.929 . S
C539 C538 1.363 . S
C539 C545 1.428 . S
H540 C536 0.930 . S
H541 C538 0.929 . S
S542 N543 1.613 . S
S542 N544 1.610 . S
N543 S542 1.613 . S
N543 C546 1.350 . S
N544 S542 1.610 . S
N544 C545 1.351 . S
C545 C539 1.428 . S
C545 N544 1.351 . S
C545 C546 1.434 . S
C546 C537 1.429 . S
C546 N543 1.350 . S
C546 C545 1.434 . S
C547 C548 1.369 . S
C547 C549 1.419 . S
C547 H551 0.930 . S
C548 C547 1.369 . S
C548 C557 1.429 . S
C549 C547 1.419 . S
C549 C550 1.363 . S
C549 H552 0.929 . S
C550 C549 1.363 . S
C550 C556 1.428 . S
H551 C547 0.930 . S
H552 C549 0.929 . S
S553 N554 1.613 . S
S553 N555 1.610 . S
N554 S553 1.613 . S
N554 C557 1.350 . S
N555 S553 1.610 . S
N555 C556 1.351 . S
C556 C550 1.428 . S
C556 N555 1.351 . S
C556 C557 1.434 . S
C557 C548 1.429 . S
C557 N554 1.350 . S
C557 C556 1.434 . S
C558 C559 1.369 . S
C558 C560 1.419 . S
C558 H562 0.930 . S
C559 C558 1.369 . S
C559 C568 1.429 . S
C560 C558 1.419 . S
C560 C561 1.363 . S
C560 H563 0.929 . S
C561 C560 1.363 . S
C561 C567 1.428 . S
H562 C558 0.930 . S
H563 C560 0.929 . S
S564 N565 1.613 . S
S564 N566 1.610 . S
N565 S564 1.613 . S
N565 C568 1.350 . S
N566 S564 1.610 . S
N566 C567 1.351 . S
C567 C561 1.428 . S
C567 N566 1.351 . S
C567 C568 1.434 . S
C568 C559 1.429 . S
C568 N565 1.350 . S
C568 C567 1.434 . S
C569 C570 1.369 . S
C569 C571 1.419 . S
C569 H573 0.930 . S
C570 C569 1.369 . S
C570 C579 1.429 . S
C571 C569 1.419 . S
C571 C572 1.363 . S
C571 H574 0.929 . S
C572 C571 1.363 . S
C572 C578 1.428 . S
H573 C569 0.930 . S
H574 C571 0.929 . S
S575 N576 1.613 . S
S575 N577 1.610 . S
N576 S575 1.613 . S
N576 C579 1.350 . S
N577 S575 1.610 . S
N577 C578 1.351 . S
C578 C572 1.428 . S
C578 N577 1.351 . S
C578 C579 1.434 . S
C579 C570 1.429 . S
C579 N576 1.350 . S
C579 C578 1.434 . S
C273 C17 1.610 . S
C275 C85 1.610 . S
C284 C119 1.610 . S
C286 C51 1.610 . S
C295 C153 1.610 . S
C297 C221 1.610 . S
C306 C255 1.610 . S
C308 C187 1.610 . S
C317 C142 1.246 . S
C319 C6 1.251 . S
C328 C198 1.253 . S
C330 C62 1.245 . S
C339 C232 1.254 . S
C341 C74 1.251 . S
C350 C266 1.245 . S
C352 C108 1.250 . S
C361 C226 0.664 . S
C363 C83 0.651 . S
C372 C260 0.670 . S
C374 C117 0.646 . S
C383 C15 0.639 . S
C385 C151 0.671 . S
C394 C192 0.673 . S
C396 C56 0.645 . S
C405 C244 1.252 . S
C407 C40 1.247 . S
C416 C164 1.244 . S
C418 C96 1.252 . S
C427 C176 1.246 . S
C429 C130 1.254 . S
C438 C210 1.253 . S
C440 C28 1.248 . S
C449 C124 0.639 . S
C451 C185 0.668 . S
C460 C22 0.673 . S
C462 C219 0.643 . S
C471 C49 0.672 . S
C473 C253 0.642 . S
C482 C158 0.673 . S
C484 C90 0.642 . S
C493 C173 3.035 . S
C495 C1 3.033 . S
C504 C37 3.034 . S
C506 C207 3.032 . S
C515 C241 3.035 . S
C517 C69 3.033 . S
C526 C103 3.034 . S
C528 C137 3.033 . S
C537 C239 3.035 . S
C539 C71 3.037 . S
C548 C139 3.035 . S
C550 C105 3.037 . S
C559 C3 3.034 . S
C561 C171 3.036 . S
C570 C205 3.035 . S
C572 C35 3.037 . S
