# Generated by pormake.
# Topology lcy-a, (4)-cn, num edge types: 1
# Building blocks:
#     Node 0, Type 0, BuildingBlock: UXUYUI_clean_sbu_0, # of connection points: 4
#     Node 1, Type 0, BuildingBlock: UXUYUI_clean_sbu_0, # of connection points: 4
#     Node 2, Type 0, BuildingBlock: UXUYUI_clean_sbu_0, # of connection points: 4
#     Node 3, Type 0, BuildingBlock: UXUYUI_clean_sbu_0, # of connection points: 4
#     Node 4, Type 0, BuildingBlock: UXUYUI_clean_sbu_0, # of connection points: 4
#     Node 5, Type 0, BuildingBlock: UXUYUI_clean_sbu_0, # of connection points: 4
#     Node 6, Type 0, BuildingBlock: UXUYUI_clean_sbu_0, # of connection points: 4
#     Node 7, Type 0, BuildingBlock: UXUYUI_clean_sbu_0, # of connection points: 4
#     Node 8, Type 0, BuildingBlock: UXUYUI_clean_sbu_0, # of connection points: 4
#     Node 9, Type 0, BuildingBlock: UXUYUI_clean_sbu_0, # of connection points: 4
#     Node 10, Type 0, BuildingBlock: UXUYUI_clean_sbu_0, # of connection points: 4
#     Node 11, Type 0, BuildingBlock: UXUYUI_clean_sbu_0, # of connection points: 4
#     Node 12, Type 0, BuildingBlock: UXUYUI_clean_sbu_0, # of connection points: 4
#     Node 13, Type 0, BuildingBlock: UXUYUI_clean_sbu_0, # of connection points: 4
#     Node 14, Type 0, BuildingBlock: UXUYUI_clean_sbu_0, # of connection points: 4
#     Node 15, Type 0, BuildingBlock: UXUYUI_clean_sbu_0, # of connection points: 4
#     Node 16, Type 0, BuildingBlock: UXUYUI_clean_sbu_0, # of connection points: 4
#     Node 17, Type 0, BuildingBlock: UXUYUI_clean_sbu_0, # of connection points: 4
#     Node 18, Type 0, BuildingBlock: UXUYUI_clean_sbu_0, # of connection points: 4
#     Node 19, Type 0, BuildingBlock: UXUYUI_clean_sbu_0, # of connection points: 4
#     Node 20, Type 0, BuildingBlock: UXUYUI_clean_sbu_0, # of connection points: 4
#     Node 21, Type 0, BuildingBlock: UXUYUI_clean_sbu_0, # of connection points: 4
#     Node 22, Type 0, BuildingBlock: UXUYUI_clean_sbu_0, # of connection points: 4
#     Node 23, Type 0, BuildingBlock: UXUYUI_clean_sbu_0, # of connection points: 4
#     Edge 24, Type (0, 0), BuildingBlock: CIFDUS_clean_linker_0, # of connection points: 2
#     Edge 25, Type (0, 0), BuildingBlock: CIFDUS_clean_linker_0, # of connection points: 2
#     Edge 26, Type (0, 0), BuildingBlock: CIFDUS_clean_linker_0, # of connection points: 2
#     Edge 27, Type (0, 0), BuildingBlock: CIFDUS_clean_linker_0, # of connection points: 2
#     Edge 28, Type (0, 0), BuildingBlock: CIFDUS_clean_linker_0, # of connection points: 2
#     Edge 29, Type (0, 0), BuildingBlock: CIFDUS_clean_linker_0, # of connection points: 2
#     Edge 30, Type (0, 0), BuildingBlock: CIFDUS_clean_linker_0, # of connection points: 2
#     Edge 31, Type (0, 0), BuildingBlock: CIFDUS_clean_linker_0, # of connection points: 2
#     Edge 32, Type (0, 0), BuildingBlock: CIFDUS_clean_linker_0, # of connection points: 2
#     Edge 33, Type (0, 0), BuildingBlock: CIFDUS_clean_linker_0, # of connection points: 2
#     Edge 34, Type (0, 0), BuildingBlock: CIFDUS_clean_linker_0, # of connection points: 2
#     Edge 35, Type (0, 0), BuildingBlock: CIFDUS_clean_linker_0, # of connection points: 2
#     Edge 36, Type (0, 0), BuildingBlock: CIFDUS_clean_linker_0, # of connection points: 2
#     Edge 37, Type (0, 0), BuildingBlock: CIFDUS_clean_linker_0, # of connection points: 2
#     Edge 38, Type (0, 0), BuildingBlock: CIFDUS_clean_linker_0, # of connection points: 2
#     Edge 39, Type (0, 0), BuildingBlock: CIFDUS_clean_linker_0, # of connection points: 2
#     Edge 40, Type (0, 0), BuildingBlock: CIFDUS_clean_linker_0, # of connection points: 2
#     Edge 41, Type (0, 0), BuildingBlock: CIFDUS_clean_linker_0, # of connection points: 2
#     Edge 42, Type (0, 0), BuildingBlock: CIFDUS_clean_linker_0, # of connection points: 2
#     Edge 43, Type (0, 0), BuildingBlock: CIFDUS_clean_linker_0, # of connection points: 2
#     Edge 44, Type (0, 0), BuildingBlock: CIFDUS_clean_linker_0, # of connection points: 2
#     Edge 45, Type (0, 0), BuildingBlock: CIFDUS_clean_linker_0, # of connection points: 2
#     Edge 46, Type (0, 0), BuildingBlock: CIFDUS_clean_linker_0, # of connection points: 2
#     Edge 47, Type (0, 0), BuildingBlock: CIFDUS_clean_linker_0, # of connection points: 2
#     Edge 48, Type (0, 0), BuildingBlock: CIFDUS_clean_linker_0, # of connection points: 2
#     Edge 49, Type (0, 0), BuildingBlock: CIFDUS_clean_linker_0, # of connection points: 2
#     Edge 50, Type (0, 0), BuildingBlock: CIFDUS_clean_linker_0, # of connection points: 2
#     Edge 51, Type (0, 0), BuildingBlock: CIFDUS_clean_linker_0, # of connection points: 2
#     Edge 52, Type (0, 0), BuildingBlock: CIFDUS_clean_linker_0, # of connection points: 2
#     Edge 53, Type (0, 0), BuildingBlock: CIFDUS_clean_linker_0, # of connection points: 2
#     Edge 54, Type (0, 0), BuildingBlock: CIFDUS_clean_linker_0, # of connection points: 2
#     Edge 55, Type (0, 0), BuildingBlock: CIFDUS_clean_linker_0, # of connection points: 2
#     Edge 56, Type (0, 0), BuildingBlock: CIFDUS_clean_linker_0, # of connection points: 2
#     Edge 57, Type (0, 0), BuildingBlock: CIFDUS_clean_linker_0, # of connection points: 2
#     Edge 58, Type (0, 0), BuildingBlock: CIFDUS_clean_linker_0, # of connection points: 2
#     Edge 59, Type (0, 0), BuildingBlock: CIFDUS_clean_linker_0, # of connection points: 2
#     Edge 60, Type (0, 0), BuildingBlock: CIFDUS_clean_linker_0, # of connection points: 2
#     Edge 61, Type (0, 0), BuildingBlock: CIFDUS_clean_linker_0, # of connection points: 2
#     Edge 62, Type (0, 0), BuildingBlock: CIFDUS_clean_linker_0, # of connection points: 2
#     Edge 63, Type (0, 0), BuildingBlock: CIFDUS_clean_linker_0, # of connection points: 2
#     Edge 64, Type (0, 0), BuildingBlock: CIFDUS_clean_linker_0, # of connection points: 2
#     Edge 65, Type (0, 0), BuildingBlock: CIFDUS_clean_linker_0, # of connection points: 2
#     Edge 66, Type (0, 0), BuildingBlock: CIFDUS_clean_linker_0, # of connection points: 2
#     Edge 67, Type (0, 0), BuildingBlock: CIFDUS_clean_linker_0, # of connection points: 2
#     Edge 68, Type (0, 0), BuildingBlock: CIFDUS_clean_linker_0, # of connection points: 2
#     Edge 69, Type (0, 0), BuildingBlock: CIFDUS_clean_linker_0, # of connection points: 2
#     Edge 70, Type (0, 0), BuildingBlock: CIFDUS_clean_linker_0, # of connection points: 2
#     Edge 71, Type (0, 0), BuildingBlock: CIFDUS_clean_linker_0, # of connection points: 2
# Relax obj value: 0.522
# Max RMSD: 0.263
# Mean RMSD: 0.261
data_MOF--net-lcy-a--node1-UXUYUI_clean_sbu_0--edge1-CIFDUS_clean_linker_0
_symmetry_space_group_name_H-M    P1
_symmetry_Int_Tables_number       1
_symmetry_cell_setting            triclinic
loop_
_symmetry_equiv_pos_as_xyz
'x, y, z'
_cell_length_a     75.527638
_cell_length_b     73.979259
_cell_length_c     73.996375
_cell_angle_alpha  90.001404
_cell_angle_beta   89.993995
_cell_angle_gamma 89.998225
loop_
_atom_site_label
_atom_site_type_symbol
_atom_site_fract_x
_atom_site_fract_y
_atom_site_fract_z
_atom_type_partial_charge
Li0 Li 0.2034 0.31857 0.40521 0.0
Li1 Li 0.20249 0.28867 0.38923 0.0
Li2 Li 0.18302 0.31341 0.38025 0.0
Li3 Li 0.17764 0.29823 0.40768 0.0
C4 C 0.21449 0.31939 0.36379 0.0
N5 N 0.22353 0.33299 0.33026 0.0
C6 C 0.21739 0.30765 0.34928 0.0
C7 C 0.21623 0.33803 0.36127 0.0
C8 C 0.2219 0.3148 0.33242 0.0
C9 C 0.22085 0.34463 0.34422 0.0
C10 C 0.21397 0.2827 0.42342 0.0
C11 C 0.22098 0.25449 0.43808 0.0
N12 N 0.23827 0.25956 0.43901 0.0
C13 C 0.23177 0.28771 0.42466 0.0
C14 C 0.20848 0.26603 0.43029 0.0
C15 C 0.24387 0.27579 0.43253 0.0
C16 C 0.2155 0.33449 0.43667 0.0
N17 N 0.2185 0.33366 0.4186 0.0
C18 C 0.24513 0.35071 0.42169 0.0
C19 C 0.23287 0.34158 0.41093 0.0
C20 C 0.24268 0.3514 0.44053 0.0
C21 C 0.22748 0.34332 0.44796 0.0
H22 H 0.20412 0.32767 0.44236 0.0
H23 H 0.23512 0.34032 0.39657 0.0
C24 C 0.2121 0.25299 0.377 0.0
N25 N 0.21785 0.26968 0.38196 0.0
C26 C 0.22425 0.23954 0.3723 0.0
C27 C 0.24793 0.26092 0.3774 0.0
C28 C 0.23535 0.27387 0.38205 0.0
C29 C 0.24246 0.24342 0.37255 0.0
H30 H 0.19814 0.25005 0.37656 0.0
H31 H 0.23952 0.28738 0.3857 0.0
C32 C 0.16075 0.33133 0.40456 0.0
N33 N 0.12636 0.34398 0.4061 0.0
C34 C 0.1473 0.32241 0.39515 0.0
C35 C 0.15672 0.34669 0.41476 0.0
C36 C 0.13 0.32901 0.3961 0.0
C37 C 0.13925 0.35288 0.41536 0.0
C38 C 0.16532 0.27367 0.38231 0.0
C39 C 0.15054 0.27464 0.37098 0.0
C40 C 0.16778 0.25847 0.39323 0.0
C41 C 0.13842 0.26037 0.37083 0.0
C42 C 0.15537 0.24448 0.39269 0.0
N43 N 0.14106 0.24572 0.3816 0.0
C44 C 0.17436 0.31473 0.34388 0.0
C45 C 0.17186 0.34296 0.35885 0.0
C46 C 0.17438 0.32326 0.32709 0.0
N47 N 0.17416 0.32475 0.35924 0.0
C48 C 0.17153 0.35203 0.34232 0.0
C49 C 0.17409 0.34225 0.32622 0.0
H50 H 0.17652 0.3003 0.34468 0.0
H51 H 0.17199 0.35058 0.37132 0.0
C52 C 0.16857 0.29126 0.44262 0.0
N53 N 0.16186 0.28999 0.42564 0.0
C54 C 0.1602 0.28264 0.45697 0.0
C55 C 0.13748 0.27253 0.43628 0.0
C56 C 0.1461 0.28177 0.4224 0.0
C57 C 0.14492 0.27231 0.45374 0.0
H58 H 0.18092 0.2983 0.44485 0.0
H59 H 0.1407 0.28148 0.40889 0.0
O60 O 0.20992 0.31265 0.38037 0.0
O61 O 0.20197 0.29408 0.41553 0.0
O62 O 0.17779 0.32511 0.40394 0.0
O63 O 0.17725 0.28759 0.38266 0.0
H64 H 0.21598 0.2932 0.35098 0.0
H65 H 0.21385 0.34731 0.37231 0.0
H66 H 0.22406 0.3059 0.32104 0.0
H67 H 0.22224 0.35902 0.34207 0.0
H68 H 0.21693 0.24152 0.44341 0.0
H69 H 0.23626 0.30056 0.41939 0.0
H70 H 0.19472 0.26205 0.42968 0.0
H71 H 0.25771 0.27943 0.43346 0.0
H72 H 0.25653 0.35692 0.41535 0.0
H73 H 0.22519 0.3432 0.46241 0.0
H74 H 0.21943 0.22626 0.36863 0.0
H75 H 0.26178 0.2647 0.3773 0.0
H76 H 0.15017 0.31055 0.38718 0.0
H77 H 0.167 0.35373 0.42213 0.0
H78 H 0.11946 0.32223 0.38888 0.0
H79 H 0.13594 0.36475 0.4232 0.0
H80 H 0.14844 0.28631 0.36241 0.0
H81 H 0.17907 0.25758 0.40215 0.0
H82 H 0.12691 0.26095 0.36215 0.0
H83 H 0.15709 0.23268 0.40114 0.0
H84 H 0.17656 0.3151 0.31515 0.0
H85 H 0.17091 0.36666 0.34227 0.0
H86 H 0.16607 0.28346 0.47029 0.0
H87 H 0.12574 0.2648 0.43303 0.0
Li88 Li 0.93689 0.94875 0.64817 0.0
Li89 Li 0.95732 0.92254 0.64613 0.0
Li90 Li 0.96588 0.95088 0.63142 0.0
Li91 Li 0.94289 0.93214 0.61997 0.0
C92 C 0.97394 0.95547 0.66627 0.0
N93 N 0.00068 0.9748 0.68281 0.0
C94 C 0.99046 0.94747 0.66915 0.0
C95 C 0.97098 0.97326 0.67183 0.0
C96 C 0.00382 0.95747 0.67754 0.0
C97 C 0.98469 0.98282 0.68016 0.0
C98 C 0.92624 0.9076 0.65052 0.0
C99 C 0.92219 0.87527 0.65024 0.0
N100 N 0.91731 0.87586 0.66793 0.0
C101 C 0.92099 0.90792 0.66862 0.0
C102 C 0.92669 0.89119 0.64118 0.0
C103 C 0.91661 0.89171 0.67721 0.0
C104 C 0.9093 0.9732 0.65778 0.0
N105 N 0.92181 0.96156 0.664 0.0
C106 C 0.91493 0.96909 0.69458 0.0
C107 C 0.92476 0.95932 0.68197 0.0
C108 C 0.90194 0.98128 0.6886 0.0
C109 C 0.89909 0.9832 0.66993 0.0
H110 H 0.90747 0.97498 0.64343 0.0
H111 H 0.93495 0.95009 0.68648 0.0
C112 C 0.97972 0.89326 0.65416 0.0
N113 N 0.96735 0.90472 0.66093 0.0
C114 C 0.99129 0.88433 0.66581 0.0
C115 C 0.97639 0.89839 0.69113 0.0
C116 C 0.96512 0.90702 0.679 0.0
C117 C 0.99016 0.88751 0.6845 0.0
H118 H 0.98155 0.89215 0.63973 0.0
H119 H 0.95562 0.9168 0.68391 0.0
C120 C 0.93612 0.96574 0.60798 0.0
N121 N 0.92361 0.97833 0.57521 0.0
C122 C 0.94797 0.97133 0.59457 0.0
C123 C 0.91791 0.96653 0.60469 0.0
C124 C 0.94138 0.97765 0.5781 0.0
C125 C 0.91185 0.97296 0.58805 0.0
C126 C 0.97336 0.91685 0.60733 0.0
C127 C 0.98461 0.92487 0.59465 0.0
C128 C 0.96727 0.89925 0.6045 0.0
C129 C 0.98938 0.91519 0.57918 0.0
C130 C 0.97232 0.89002 0.58885 0.0
N131 N 0.98317 0.89812 0.57662 0.0
C132 C 0.00179 0.96091 0.62601 0.0
C133 C 0.98099 0.98489 0.62733 0.0
C134 C 0.01568 0.97316 0.62365 0.0
N135 N 0.98488 0.96699 0.62759 0.0
C136 C 0.99441 0.99758 0.62503 0.0
C137 C 0.01203 0.99177 0.62311 0.0
H138 H 0.00447 0.94656 0.62668 0.0
H139 H 0.96741 0.98928 0.62888 0.0
C140 C 0.9139 0.92096 0.59888 0.0
N141 N 0.93129 0.92563 0.59799 0.0
C142 C 0.9034 0.92146 0.58334 0.0
C143 C 0.9293 0.92983 0.56608 0.0
C144 C 0.9392 0.92941 0.58193 0.0
C145 C 0.911 0.92674 0.56683 0.0
H146 H 0.90784 0.91841 0.61188 0.0
H147 H 0.95274 0.93395 0.58157 0.0
O148 O 0.96086 0.94608 0.65763 0.0
O149 O 0.93083 0.92328 0.64193 0.0
O150 O 0.94235 0.95937 0.62415 0.0
O151 O 0.96866 0.92609 0.62261 0.0
H152 H 0.99301 0.93376 0.66475 0.0
H153 H 0.95829 0.97968 0.66954 0.0
H154 H 0.0167 0.95149 0.67979 0.0
H155 H 0.98263 0.99664 0.68446 0.0
H156 H 0.92253 0.86246 0.64321 0.0
H157 H 0.92045 0.92052 0.67599 0.0
H158 H 0.93036 0.89077 0.62707 0.0
H159 H 0.91265 0.89174 0.69126 0.0
H160 H 0.91744 0.9671 0.70886 0.0
H161 H 0.88938 0.99265 0.66476 0.0
H162 H 0.00166 0.87591 0.66022 0.0
H163 H 0.97523 0.90141 0.7054 0.0
H164 H 0.96211 0.97054 0.59674 0.0
H165 H 0.90855 0.96189 0.61472 0.0
H166 H 0.95039 0.98193 0.56758 0.0
H167 H 0.89779 0.97361 0.58532 0.0
H168 H 0.98942 0.9385 0.59659 0.0
H169 H 0.95875 0.89277 0.61428 0.0
H170 H 0.99797 0.92127 0.56919 0.0
H171 H 0.96765 0.87641 0.58645 0.0
H172 H 0.0291 0.96816 0.62238 0.0
H173 H 0.99095 0.01177 0.62439 0.0
H174 H 0.8893 0.91904 0.58445 0.0
H175 H 0.93561 0.9344 0.55375 0.0
Li176 Li 0.29567 0.71522 0.88895 0.0
Li177 Li 0.29444 0.68647 0.90852 0.0
Li178 Li 0.32139 0.70376 0.9047 0.0
Li179 Li 0.31069 0.6869 0.88013 0.0
C180 C 0.30304 0.72159 0.93054 0.0
N181 N 0.31315 0.74047 0.96107 0.0
C182 C 0.30077 0.71395 0.94766 0.0
C183 C 0.31021 0.73894 0.92897 0.0
C184 C 0.30601 0.72369 0.96293 0.0
C185 C 0.31534 0.74822 0.94456 0.0
C186 C 0.27696 0.68003 0.87166 0.0
C187 C 0.26867 0.65015 0.86172 0.0
N188 N 0.26256 0.65727 0.84597 0.0
C189 C 0.27047 0.68707 0.85544 0.0
C190 C 0.27597 0.66144 0.87491 0.0
C191 C 0.26327 0.67533 0.8426 0.0
C192 C 0.28067 0.73922 0.86356 0.0
N193 N 0.28232 0.73538 0.88143 0.0
C194 C 0.26254 0.75928 0.88924 0.0
C195 C 0.27381 0.74523 0.89426 0.0
C196 C 0.25985 0.76306 0.87083 0.0
C197 C 0.26941 0.75308 0.85791 0.0
H198 H 0.2877 0.73115 0.8537 0.0
H199 H 0.27541 0.74184 0.90837 0.0
C200 C 0.28615 0.66406 0.9384 0.0
N201 N 0.27954 0.67294 0.9238 0.0
C202 C 0.27489 0.65397 0.94948 0.0
C203 C 0.25041 0.66217 0.93003 0.0
C204 C 0.26206 0.6723 0.91953 0.0
C205 C 0.2568 0.65285 0.9452 0.0
H206 H 0.30015 0.66485 0.9414 0.0
H207 H 0.2572 0.67961 0.90789 0.0
C208 C 0.32988 0.72476 0.8716 0.0
N209 N 0.35079 0.75115 0.85601 0.0
C210 C 0.34336 0.71996 0.85959 0.0
C211 C 0.32686 0.743 0.87549 0.0
C212 C 0.35384 0.7335 0.85191 0.0
C213 C 0.33762 0.75613 0.86752 0.0
C214 C 0.33451 0.66857 0.90221 0.0
C215 C 0.34789 0.67626 0.8917 0.0
C216 C 0.33757 0.65219 0.91108 0.0
C217 C 0.36415 0.6674 0.89018 0.0
C218 C 0.35401 0.64374 0.90922 0.0
N219 N 0.36685 0.65145 0.89889 0.0
C220 C 0.34209 0.70448 0.93548 0.0
C221 C 0.35259 0.7245 0.91287 0.0
C222 C 0.3533 0.71225 0.94826 0.0
N223 N 0.34131 0.71132 0.91845 0.0
C224 C 0.36425 0.73243 0.92511 0.0
C225 C 0.3641 0.72679 0.94319 0.0
H226 H 0.33307 0.69385 0.93946 0.0
H227 H 0.35196 0.72959 0.89927 0.0
C228 C 0.3125 0.68144 0.84327 0.0
N229 N 0.31508 0.67288 0.85927 0.0
C230 C 0.30988 0.67142 0.82756 0.0
C231 C 0.31456 0.64408 0.84482 0.0
C232 C 0.31687 0.65464 0.86028 0.0
C233 C 0.31004 0.65243 0.82838 0.0
H234 H 0.31078 0.69595 0.84303 0.0
H235 H 0.31858 0.64818 0.87327 0.0
O236 O 0.2983 0.71209 0.91542 0.0
O237 O 0.28464 0.6912 0.88414 0.0
O238 O 0.31938 0.71167 0.87906 0.0
O239 O 0.31845 0.67694 0.90393 0.0
H240 H 0.29516 0.70059 0.94914 0.0
H241 H 0.31199 0.74509 0.91585 0.0
H242 H 0.30444 0.7179 0.97626 0.0
H243 H 0.32108 0.76157 0.94352 0.0
H244 H 0.26799 0.63572 0.86396 0.0
H245 H 0.27117 0.70141 0.85271 0.0
H246 H 0.28108 0.65575 0.88733 0.0
H247 H 0.25833 0.68057 0.82992 0.0
H248 H 0.25566 0.76679 0.89965 0.0
H249 H 0.2676 0.75537 0.84358 0.0
H250 H 0.28026 0.64688 0.96105 0.0
H251 H 0.23651 0.66176 0.92645 0.0
H252 H 0.3457 0.70593 0.8562 0.0
H253 H 0.31638 0.747 0.88457 0.0
H254 H 0.36437 0.72997 0.84264 0.0
H255 H 0.33549 0.77029 0.87048 0.0
H256 H 0.3458 0.68895 0.88483 0.0
H257 H 0.32733 0.64608 0.9193 0.0
H258 H 0.37463 0.67321 0.88208 0.0
H259 H 0.35657 0.63104 0.91599 0.0
H260 H 0.35297 0.7075 0.96211 0.0
H261 H 0.37242 0.74366 0.92077 0.0
H262 H 0.30618 0.67851 0.81533 0.0
H263 H 0.31507 0.6295 0.84603 0.0
Li264 Li 0.56371 0.04358 0.15502 0.0
Li265 Li 0.54157 0.06886 0.15342 0.0
Li266 Li 0.53544 0.04085 0.13853 0.0
Li267 Li 0.55765 0.06046 0.12673 0.0
C268 C 0.52719 0.03382 0.17231 0.0
N269 N 0.50187 0.01075 0.18622 0.0
C270 C 0.51006 0.0401 0.17568 0.0
C271 C 0.53148 0.01583 0.17608 0.0
C272 C 0.49743 0.02822 0.1827 0.0
C273 C 0.51848 0.00437 0.18309 0.0
C274 C 0.57827 0.08241 0.15696 0.0
C275 C 0.59411 0.11065 0.15489 0.0
N276 N 0.60004 0.10834 0.17209 0.0
C277 C 0.58474 0.08019 0.17451 0.0
C278 C 0.58318 0.09765 0.14696 0.0
C279 C 0.59563 0.09351 0.18197 0.0
C280 C 0.59531 0.02453 0.16334 0.0
N281 N 0.58011 0.03165 0.17009 0.0
C282 C 0.58656 0.02003 0.19944 0.0
C283 C 0.57571 0.02985 0.1878 0.0
C284 C 0.60208 0.01199 0.19277 0.0
C285 C 0.60657 0.01456 0.17451 0.0
H286 H 0.59853 0.02635 0.14923 0.0
H287 H 0.56362 0.03586 0.19281 0.0
C288 C 0.51366 0.09101 0.16447 0.0
N289 N 0.53069 0.08644 0.16823 0.0
C290 C 0.50351 0.10011 0.17729 0.0
C291 C 0.52888 0.10047 0.19723 0.0
C292 C 0.5385 0.0912 0.18408 0.0
C293 C 0.51099 0.10443 0.1941 0.0
H294 H 0.50756 0.08645 0.15207 0.0
H295 H 0.55176 0.08671 0.18707 0.0
C296 C 0.56263 0.02679 0.11375 0.0
N297 N 0.56972 0.01447 0.07922 0.0
C298 C 0.54927 0.02658 0.10066 0.0
C299 C 0.5796 0.02074 0.10923 0.0
C300 C 0.55311 0.02028 0.0833 0.0
C301 C 0.58292 0.01456 0.09171 0.0
C302 C 0.52778 0.08144 0.12048 0.0
C303 C 0.51447 0.08233 0.1074 0.0
C304 C 0.53707 0.09708 0.12517 0.0
C305 C 0.51073 0.09889 0.09915 0.0
C306 C 0.53293 0.11338 0.11664 0.0
N307 N 0.51997 0.11394 0.1039 0.0
C308 C 0.50031 0.02893 0.13127 0.0
C309 C 0.52224 0.00606 0.1333 0.0
C310 C 0.48712 0.01594 0.12858 0.0
N311 N 0.51743 0.02374 0.13361 0.0
C312 C 0.50954 0.99268 0.13069 0.0
C313 C 0.49169 0.99753 0.12839 0.0
H314 H 0.49691 0.04313 0.13174 0.0
H315 H 0.53596 0.00238 0.13527 0.0
C316 C 0.58739 0.06731 0.10582 0.0
N317 N 0.56942 0.06739 0.1053 0.0
C318 C 0.59706 0.06611 0.08981 0.0
C319 C 0.56955 0.06667 0.07309 0.0
C320 C 0.56041 0.06791 0.08942 0.0
C321 C 0.58805 0.06475 0.07325 0.0
H322 H 0.59414 0.0665 0.11869 0.0
H323 H 0.54611 0.06738 0.08943 0.0
O324 O 0.53958 0.0451 0.16493 0.0
O325 O 0.56789 0.06933 0.14929 0.0
O326 O 0.55929 0.0335 0.13066 0.0
O327 O 0.53163 0.06526 0.12851 0.0
H328 H 0.50648 0.05394 0.17273 0.0
H329 H 0.54463 0.01069 0.17334 0.0
H330 H 0.4841 0.03287 0.1853 0.0
H331 H 0.52157 0.99038 0.18596 0.0
H332 H 0.59795 0.12254 0.14733 0.0
H333 H 0.58125 0.0684 0.18237 0.0
H334 H 0.57871 0.09936 0.13317 0.0
H335 H 0.6006 0.09203 0.1956 0.0
H336 H 0.58278 0.01869 0.2135 0.0
H337 H 0.61837 0.00852 0.1688 0.0
H338 H 0.48973 0.10299 0.17442 0.0
H339 H 0.53499 0.10335 0.21016 0.0
H340 H 0.53617 0.03161 0.10373 0.0
H341 H 0.59017 0.02099 0.11907 0.0
H342 H 0.54293 0.02017 0.07303 0.0
H343 H 0.596 0.0099 0.08803 0.0
H344 H 0.50716 0.07032 0.10362 0.0
H345 H 0.5472 0.09667 0.13543 0.0
H346 H 0.50049 0.09977 0.08897 0.0
H347 H 0.54001 0.12559 0.12017 0.0
H348 H 0.47351 0.02023 0.12694 0.0
H349 H 0.5137 0.97868 0.13029 0.0
H350 H 0.61133 0.0648 0.09048 0.0
H351 H 0.56208 0.0654 0.06066 0.0
Li352 Li 0.68519 0.19489 0.6238 0.0
Li353 Li 0.67406 0.21162 0.59947 0.0
Li354 Li 0.69811 0.19065 0.59397 0.0
Li355 Li 0.70268 0.22036 0.61173 0.0
C356 C 0.65747 0.17796 0.60586 0.0
N357 N 0.62455 0.16406 0.61434 0.0
C358 C 0.64513 0.18855 0.61511 0.0
C359 C 0.65306 0.16032 0.60084 0.0
C360 C 0.62856 0.18128 0.61929 0.0
C361 C 0.63635 0.15352 0.60528 0.0
C362 C 0.67035 0.23467 0.63149 0.0
C363 C 0.66535 0.26661 0.6356 0.0
N364 N 0.65176 0.26283 0.64705 0.0
C365 C 0.6565 0.2311 0.64351 0.0
C366 C 0.67497 0.25257 0.62767 0.0
C367 C 0.6472 0.24552 0.65115 0.0
C368 C 0.685 0.1925 0.66113 0.0
N369 N 0.68128 0.18287 0.64598 0.0
C370 C 0.68128 0.15527 0.66263 0.0
C371 C 0.67864 0.16471 0.64652 0.0
C372 C 0.68691 0.16465 0.67814 0.0
C373 C 0.68788 0.18361 0.67747 0.0
H374 H 0.68738 0.20688 0.66015 0.0
H375 H 0.67604 0.15737 0.63417 0.0
C376 C 0.65103 0.21214 0.57089 0.0
N377 N 0.65439 0.22103 0.5866 0.0
C378 C 0.6405 0.22013 0.55767 0.0
C379 C 0.63548 0.24532 0.57787 0.0
C380 C 0.64637 0.23699 0.5906 0.0
C381 C 0.63314 0.2372 0.56091 0.0
H382 H 0.65773 0.19953 0.56807 0.0
H383 H 0.64927 0.24387 0.60307 0.0
C384 C 0.71862 0.1848 0.62993 0.0
N385 N 0.7329 0.16358 0.65697 0.0
C386 C 0.7261 0.19285 0.64521 0.0
C387 C 0.71855 0.16598 0.6283 0.0
C388 C 0.73321 0.18188 0.65876 0.0
C389 C 0.72581 0.15548 0.64214 0.0
C390 C 0.69224 0.22696 0.57176 0.0
C391 C 0.69069 0.21956 0.55446 0.0
C392 C 0.6892 0.24541 0.57435 0.0
C393 C 0.68587 0.23073 0.54005 0.0
C394 C 0.68438 0.25612 0.55961 0.0
N395 N 0.68283 0.24862 0.5429 0.0
C396 C 0.70006 0.16837 0.56307 0.0
C397 C 0.72678 0.17182 0.57954 0.0
C398 C 0.70874 0.15809 0.54994 0.0
N399 N 0.70924 0.17512 0.57734 0.0
C400 C 0.73593 0.16147 0.56688 0.0
C401 C 0.72699 0.15469 0.55165 0.0
H402 H 0.68611 0.17137 0.56167 0.0
H403 H 0.73372 0.17746 0.59101 0.0
C404 C 0.72117 0.2456 0.63326 0.0
N405 N 0.71924 0.23884 0.61631 0.0
C406 C 0.73427 0.25842 0.63684 0.0
C407 C 0.74284 0.25728 0.60535 0.0
C408 C 0.72959 0.24449 0.6024 0.0
C409 C 0.74549 0.26422 0.62282 0.0
H410 H 0.71278 0.24072 0.64406 0.0
H411 H 0.72776 0.23879 0.58907 0.0
O412 O 0.67383 0.18471 0.6017 0.0
O413 O 0.67984 0.22072 0.62416 0.0
O414 O 0.71109 0.19528 0.61678 0.0
O415 O 0.69669 0.21619 0.5861 0.0
H416 H 0.64827 0.20226 0.6189 0.0
H417 H 0.66248 0.15196 0.59365 0.0
H418 H 0.61889 0.18935 0.62644 0.0
H419 H 0.63277 0.13987 0.60152 0.0
H420 H 0.66871 0.28052 0.63267 0.0
H421 H 0.65304 0.21735 0.64701 0.0
H422 H 0.68583 0.25562 0.61868 0.0
H423 H 0.6364 0.24295 0.66041 0.0
H424 H 0.68016 0.14068 0.66261 0.0
H425 H 0.69243 0.1914 0.68895 0.0
H426 H 0.63892 0.21352 0.54471 0.0
H427 H 0.63006 0.25858 0.58072 0.0
H428 H 0.7262 0.2074 0.6467 0.0
H429 H 0.71269 0.15955 0.61659 0.0
H430 H 0.73891 0.1879 0.67075 0.0
H431 H 0.7257 0.1409 0.64114 0.0
H432 H 0.69304 0.20532 0.5522 0.0
H433 H 0.69045 0.25137 0.58762 0.0
H434 H 0.6845 0.22516 0.5266 0.0
H435 H 0.68186 0.2704 0.56145 0.0
H436 H 0.70135 0.15329 0.53835 0.0
H437 H 0.74988 0.15888 0.569 0.0
H438 H 0.73603 0.26321 0.65055 0.0
H439 H 0.7511 0.26149 0.59415 0.0
Li440 Li 0.03002 0.45815 0.85947 0.0
Li441 Li 0.05486 0.44171 0.86966 0.0
Li442 Li 0.05902 0.46067 0.84278 0.0
Li443 Li 0.04197 0.43223 0.84264 0.0
C444 C 0.05971 0.4756 0.88272 0.0
N445 N 0.07456 0.48853 0.91432 0.0
C446 C 0.04887 0.48103 0.89704 0.0
C447 C 0.0781 0.47691 0.88442 0.0
C448 C 0.05663 0.48753 0.91291 0.0
C449 C 0.08535 0.4834 0.90053 0.0
C450 C 0.02799 0.42151 0.88105 0.0
C451 C 0.03491 0.39424 0.89746 0.0
N452 N 0.02365 0.39943 0.91084 0.0
C453 C 0.01638 0.4265 0.89489 0.0
C454 C 0.03723 0.40519 0.88226 0.0
C455 C 0.01441 0.41518 0.90987 0.0
C456 C 0.99349 0.46394 0.8676 0.0
N457 N 0.00961 0.47179 0.86529 0.0
C458 C 0.99745 0.50108 0.87035 0.0
C459 C 0.01181 0.48996 0.86644 0.0
C460 C 0.98064 0.49342 0.8731 0.0
C461 C 0.97872 0.47459 0.87166 0.0
H462 H 0.99213 0.44945 0.86627 0.0
H463 H 0.02478 0.49579 0.86431 0.0
C464 C 0.0844 0.43069 0.89036 0.0
N465 N 0.06703 0.43538 0.89132 0.0
C466 C 0.09502 0.4315 0.90581 0.0
C467 C 0.06932 0.44053 0.92303 0.0
C468 C 0.05923 0.43944 0.90735 0.0
C469 C 0.08766 0.43743 0.92224 0.0
H470 H 0.09033 0.42777 0.87738 0.0
H471 H 0.04559 0.44374 0.90768 0.0
C472 C 0.01899 0.46155 0.82611 0.0
N473 N 0.98604 0.47271 0.81422 0.0
C474 C 0.00536 0.44898 0.82369 0.0
C475 C 0.01575 0.47985 0.82266 0.0
C476 C 0.98884 0.45487 0.81759 0.0
C477 C -0.00098 0.48521 0.81663 0.0
C478 C 0.07524 0.42322 0.83636 0.0
C479 C 0.0807 0.42795 0.81895 0.0
C480 C 0.07729 0.40543 0.84235 0.0
C481 C 0.08789 0.41469 0.80768 0.0
C482 C 0.08454 0.39256 0.83067 0.0
N483 N 0.08963 0.39742 0.81372 0.0
C484 C 0.09147 0.47693 0.83263 0.0
C485 C 0.06663 0.48484 0.81474 0.0
C486 C 0.10247 0.48787 0.8221 0.0
N487 N 0.0739 0.47579 0.82887 0.0
C488 C 0.07707 0.49597 0.80393 0.0
C489 C 0.09526 0.49761 0.80754 0.0
H490 H 0.097 0.46913 0.84361 0.0
H491 H 0.05275 0.48327 0.81173 0.0
C492 C 0.02648 0.39888 0.83176 0.0
N493 N 0.03566 0.41373 0.82641 0.0
C494 C 0.01853 0.38774 0.81888 0.0
C495 C 0.03046 0.40695 0.79538 0.0
C496 C 0.03815 0.41768 0.80866 0.0
C497 C 0.01996 0.39217 0.80047 0.0
H498 H 0.02433 0.39637 0.84598 0.0
H499 H 0.04515 0.42985 0.80488 0.0
O500 O 0.05236 0.46889 0.8672 0.0
O501 O 0.03006 0.4324 0.86627 0.0
O502 O 0.03511 0.45612 0.83265 0.0
O503 O 0.06795 0.43594 0.84752 0.0
H504 H 0.03462 0.47996 0.89605 0.0
H505 H 0.08668 0.47262 0.87356 0.0
H506 H 0.0484 0.49165 0.92414 0.0
H507 H 0.09957 0.48426 0.90211 0.0
H508 H 0.04205 0.38162 0.89861 0.0
H509 H 0.00913 0.4391 0.8942 0.0
H510 H 0.04614 0.40107 0.87161 0.0
H511 H 0.00556 0.41893 0.92074 0.0
H512 H -0.00041 0.5155 0.87162 0.0
H513 H 0.96595 0.4682 0.87357 0.0
H514 H 0.10905 0.42872 0.90461 0.0
H515 H 0.06302 0.44552 0.93519 0.0
H516 H 0.00736 0.43485 0.82676 0.0
H517 H 0.02587 0.4899 0.82505 0.0
H518 H 0.9782 0.44527 0.81567 0.0
H519 H 0.99633 0.49933 0.81402 0.0
H520 H 0.0792 0.44165 0.81409 0.0
H521 H 0.07337 0.4016 0.85587 0.0
H522 H 0.09206 0.41813 0.79412 0.0
H523 H 0.08614 0.37872 0.8351 0.0
H524 H 0.11648 0.48845 0.82514 0.0
H525 H 0.07091 0.50331 0.79294 0.0
H526 H 0.01033 0.37658 0.82333 0.0
H527 H 0.03194 0.41071 0.78131 0.0
Li528 Li 0.81992 0.79727 0.09256 0.0
Li529 Li 0.8055 0.81437 0.11482 0.0
Li530 Li 0.79354 0.78446 0.10649 0.0
Li531 Li 0.79216 0.81191 0.08502 0.0
C532 C 0.8275 0.77975 0.12764 0.0
N533 N 0.85038 0.75815 0.14723 0.0
C534 C 0.84029 0.78758 0.13884 0.0
C535 C 0.82617 0.76092 0.12666 0.0
C536 C 0.85178 0.77643 0.14856 0.0
C537 C 0.83791 0.75024 0.13659 0.0
C538 C 0.82946 0.8341 0.09433 0.0
C539 C 0.84542 0.86206 0.09039 0.0
N540 N 0.85895 0.85531 0.10047 0.0
C541 C 0.84353 0.82744 0.1046 0.0
C542 C 0.8304 0.85153 0.08711 0.0
C543 C 0.85832 0.83837 0.10757 0.0
C544 C 0.84421 0.79789 0.06441 0.0
N545 N 0.84121 0.7902 0.08081 0.0
C546 C 0.86246 0.76716 0.07482 0.0
C547 C 0.85064 0.77564 0.08649 0.0
C548 C 0.86448 0.77369 0.05712 0.0
C549 C 0.85587 0.78979 0.05223 0.0
H550 H 0.83634 0.80936 0.06018 0.0
H551 H 0.84796 0.76961 0.09942 0.0
C552 C 0.8063 0.8217 0.15164 0.0
N553 N 0.80711 0.82977 0.13518 0.0
C554 C 0.80311 0.832 0.16707 0.0
C555 C 0.80281 0.85885 0.14842 0.0
C556 C 0.806 0.84801 0.13332 0.0
C557 C 0.80068 0.85076 0.16547 0.0
H558 H 0.80681 0.80713 0.15261 0.0
H559 H 0.80634 0.854 0.12 0.0
C560 C 0.80565 0.77521 0.06747 0.0
N561 N 0.82019 0.7528 0.04153 0.0
C562 C 0.80664 0.78088 0.04948 0.0
C563 C 0.81188 0.75806 0.07223 0.0
C564 C 0.81407 0.76937 0.03657 0.0
C565 C 0.81925 0.74697 0.05894 0.0
C566 C 0.77107 0.81798 0.12074 0.0
C567 C 0.76585 0.81058 0.13728 0.0
C568 C 0.76722 0.83605 0.11686 0.0
C569 C 0.75704 0.82149 0.1498 0.0
C570 C 0.75838 0.84651 0.12974 0.0
N571 N 0.75355 0.83908 0.14582 0.0
C572 C 0.77968 0.75898 0.1313 0.0
C573 C 0.77239 0.75423 0.10049 0.0
C574 C 0.76903 0.74445 0.13648 0.0
N575 N 0.78092 0.76367 0.1136 0.0
C576 C 0.76167 0.73959 0.10503 0.0
C577 C 0.75957 0.73477 0.12327 0.0
H578 H 0.78659 0.76683 0.14142 0.0
H579 H 0.77358 0.75836 0.08653 0.0
C580 C 0.78538 0.82945 0.05176 0.0
N581 N 0.77798 0.82263 0.06704 0.0
C582 C 0.77464 0.83667 0.03818 0.0
C583 C 0.749 0.83001 0.0566 0.0
C584 C 0.7602 0.82273 0.06967 0.0
C585 C 0.75614 0.837 0.0405 0.0
H586 H 0.7996 0.82906 0.05004 0.0
H587 H 0.75471 0.81711 0.08194 0.0
O588 O 0.81589 0.79045 0.1183 0.0
O589 O 0.81475 0.82374 0.09134 0.0
O590 O 0.79872 0.78641 0.08037 0.0
O591 O 0.78027 0.80771 0.10857 0.0
H592 H 0.84126 0.80211 0.14012 0.0
H593 H 0.81629 0.75459 0.1182 0.0
H594 H 0.86178 0.78232 0.15722 0.0
H595 H 0.8371 0.73566 0.13585 0.0
H596 H 0.84631 0.87559 0.08492 0.0
H597 H 0.84308 0.81395 0.11012 0.0
H598 H 0.81959 0.85687 0.07912 0.0
H599 H 0.86931 0.83337 0.1155 0.0
H600 H 0.86866 0.75467 0.0791 0.0
H601 H 0.8572 0.79534 0.03876 0.0
H602 H 0.80127 0.82515 0.17986 0.0
H603 H 0.80113 0.87328 0.14663 0.0
H604 H 0.80187 0.79409 0.04556 0.0
H605 H 0.81118 0.75345 0.08607 0.0
H606 H 0.81504 0.77363 0.02262 0.0
H607 H 0.82427 0.73373 0.06246 0.0
H608 H 0.76878 0.79664 0.1405 0.0
H609 H 0.77131 0.84201 0.10417 0.0
H610 H 0.75306 0.81599 0.16273 0.0
H611 H 0.75547 0.86056 0.12701 0.0
H612 H 0.7676 0.74135 0.15071 0.0
H613 H 0.75477 0.73238 0.09442 0.0
H614 H 0.78074 0.84168 0.02593 0.0
H615 H 0.73489 0.83028 0.05921 0.0
Li616 Li 0.44568 0.55667 0.36802 0.0
Li617 Li 0.4678 0.53744 0.35361 0.0
Li618 Li 0.45864 0.56635 0.34028 0.0
Li619 Li 0.43894 0.54038 0.33988 0.0
C620 C 0.47706 0.57108 0.37801 0.0
N621 N 0.48853 0.58892 0.40864 0.0
C622 C 0.48832 0.56239 0.39023 0.0
C623 C 0.47181 0.5889 0.38124 0.0
C624 C 0.49393 0.57163 0.40567 0.0
C625 C 0.4777 0.59767 0.39684 0.0
C626 C 0.4318 0.51756 0.36608 0.0
C627 C 0.41824 0.48917 0.35791 0.0
N628 N 0.40468 0.49269 0.36947 0.0
C629 C 0.41773 0.52087 0.37791 0.0
C630 C 0.43209 0.50154 0.35603 0.0
C631 C 0.40415 0.50813 0.37943 0.0
C632 C 0.42147 0.5723 0.39311 0.0
N633 N 0.43689 0.56306 0.39101 0.0
C634 C 0.43812 0.55643 0.4225 0.0
C635 C 0.44536 0.55539 0.40526 0.0
C636 C 0.42169 0.5649 0.42497 0.0
C637 C 0.41349 0.5733 0.41014 0.0
H638 H 0.41482 0.57784 0.38141 0.0
H639 H 0.45714 0.54742 0.40304 0.0
C640 C 0.50409 0.5267 0.35614 0.0
N641 N 0.48694 0.52132 0.35781 0.0
C642 C 0.51784 0.51424 0.35852 0.0
C643 C 0.49591 0.49112 0.36426 0.0
C644 C 0.48269 0.504 0.36203 0.0
C645 C 0.51372 0.49615 0.36241 0.0
H646 H 0.50705 0.54062 0.35279 0.0
H647 H 0.46901 0.50016 0.36356 0.0
C648 C 0.42599 0.58025 0.33805 0.0
N649 N 0.41242 0.61003 0.32031 0.0
C650 C 0.41675 0.57808 0.32183 0.0
C651 C 0.42811 0.59752 0.34539 0.0
C652 C 0.41005 0.59332 0.31303 0.0
C653 C 0.42121 0.61242 0.33617 0.0
C654 C 0.47607 0.53463 0.31975 0.0
C655 C 0.49056 0.54491 0.31403 0.0
C656 C 0.47638 0.51585 0.31761 0.0
C657 C 0.50513 0.53621 0.30629 0.0
C658 C 0.49122 0.50766 0.30988 0.0
N659 N 0.50516 0.51792 0.30442 0.0
C660 C 0.48183 0.59428 0.33076 0.0
C661 C 0.46067 0.58614 0.30846 0.0
C662 C 0.49161 0.60386 0.31797 0.0
N663 N 0.46703 0.58521 0.32562 0.0
C664 C 0.46985 0.59585 0.29533 0.0
C665 C 0.4859 0.60411 0.29994 0.0
H666 H 0.4869 0.59273 0.34432 0.0
H667 H 0.4494 0.57803 0.30458 0.0
C668 C 0.40455 0.52667 0.33099 0.0
N669 N 0.42174 0.52817 0.32571 0.0
C670 C 0.39268 0.5164 0.32075 0.0
C671 C 0.41629 0.51017 0.29957 0.0
C672 C 0.42762 0.52053 0.31015 0.0
C673 C 0.39859 0.50782 0.30489 0.0
H674 H 0.40018 0.53314 0.34331 0.0
H675 H 0.44121 0.52226 0.30605 0.0
O676 O 0.47134 0.56222 0.36289 0.0
O677 O 0.44516 0.52996 0.36426 0.0
O678 O 0.43267 0.56551 0.34685 0.0
O679 O 0.46183 0.54284 0.32776 0.0
H680 H 0.49252 0.54861 0.38791 0.0
H681 H 0.46326 0.59586 0.37182 0.0
H682 H 0.50255 0.56504 0.41531 0.0
H683 H 0.47367 0.61143 0.39956 0.0
H684 H 0.41822 0.47682 0.35008 0.0
H685 H 0.4172 0.53314 0.38579 0.0
H686 H 0.44269 0.49886 0.34657 0.0
H687 H 0.39317 0.51055 0.38851 0.0
H688 H 0.44457 0.54934 0.43349 0.0
H689 H 0.40066 0.57969 0.41155 0.0
H690 H 0.53145 0.51859 0.35708 0.0
H691 H 0.49225 0.47736 0.36763 0.0
H692 H 0.41493 0.56479 0.31601 0.0
H693 H 0.43498 0.59938 0.35807 0.0
H694 H 0.40298 0.59187 0.3004 0.0
H695 H 0.42282 0.62587 0.34165 0.0
H696 H 0.49068 0.55941 0.31564 0.0
H697 H 0.4654 0.50764 0.3222 0.0
H698 H 0.51644 0.544 0.30185 0.0
H699 H 0.49168 0.49313 0.30829 0.0
H700 H 0.50409 0.60996 0.32183 0.0
H701 H 0.46533 0.5955 0.28144 0.0
H702 H 0.37908 0.51515 0.32521 0.0
H703 H 0.42151 0.50366 0.28759 0.0
Li704 Li 0.39244 0.20444 0.28436 0.0
Li705 Li 0.41124 0.20122 0.31318 0.0
Li706 Li 0.40453 0.17553 0.29412 0.0
Li707 Li 0.38171 0.18835 0.31146 0.0
C708 C 0.43123 0.19216 0.27666 0.0
N709 N 0.45839 0.17937 0.25517 0.0
C710 C 0.44829 0.19032 0.28374 0.0
C711 C 0.42803 0.18771 0.2586 0.0
C712 C 0.46184 0.18379 0.27266 0.0
C713 C 0.44192 0.18118 0.24798 0.0
C714 C 0.37694 0.22287 0.3202 0.0
C715 C 0.36691 0.23065 0.35015 0.0
N716 N 0.35231 0.23859 0.34288 0.0
C717 C 0.36193 0.23124 0.31301 0.0
C718 C 0.37955 0.22267 0.3389 0.0
C719 C 0.3496 0.23908 0.32472 0.0
C720 C 0.36987 0.22264 0.26014 0.0
N721 N 0.38699 0.22023 0.2652 0.0
C722 C 0.39678 0.24236 0.24397 0.0
C723 C 0.40041 0.22959 0.25734 0.0
C724 C 0.37917 0.24552 0.23875 0.0
C725 C 0.36563 0.23526 0.24682 0.0
H726 H 0.3595 0.21504 0.26677 0.0
H727 H 0.41389 0.22741 0.26173 0.0
C728 C 0.44205 0.20552 0.33492 0.0
N729 N 0.42799 0.21393 0.32711 0.0
C730 C 0.45471 0.21563 0.34429 0.0
C731 C 0.4379 0.24267 0.33763 0.0
C732 C 0.42572 0.2321 0.32827 0.0
C733 C 0.45268 0.23447 0.3457 0.0
H734 H 0.44352 0.19103 0.33364 0.0
H735 H 0.41453 0.23841 0.32169 0.0
C736 C 0.37067 0.17237 0.27319 0.0
N737 N 0.35109 0.15463 0.24709 0.0
C738 C 0.35779 0.15977 0.27822 0.0
C739 C 0.37344 0.1761 0.25488 0.0
C740 C 0.34807 0.1509 0.26483 0.0
C741 C 0.36345 0.16694 0.24189 0.0
C742 C 0.39967 0.1604 0.32851 0.0
C743 C 0.38909 0.14812 0.31907 0.0
C744 C 0.40607 0.15586 0.34563 0.0
C745 C 0.38503 0.13147 0.32695 0.0
C746 C 0.40171 0.13908 0.35307 0.0
N747 N 0.39136 0.12734 0.34366 0.0
C748 C 0.43157 0.1501 0.2919 0.0
C749 C 0.40945 0.14624 0.26952 0.0
C750 C 0.44289 0.13837 0.28272 0.0
N751 N 0.41558 0.15445 0.2847 0.0
C752 C 0.42024 0.13433 0.25999 0.0
C753 C 0.4375 0.13097 0.26615 0.0
H754 H 0.43609 0.1569 0.30399 0.0
H755 H 0.39676 0.14982 0.26402 0.0
C756 C 0.34551 0.18992 0.31533 0.0
N757 N 0.36041 0.18538 0.32452 0.0
C758 C 0.32973 0.19286 0.32457 0.0
C759 C 0.34457 0.18488 0.35242 0.0
C760 C 0.36017 0.18226 0.34262 0.0
C761 C 0.32926 0.19102 0.34348 0.0
H762 H 0.34626 0.19273 0.30101 0.0
H763 H 0.37232 0.179 0.34962 0.0
O764 O 0.41771 0.19816 0.2874 0.0
O765 O 0.38881 0.2145 0.30904 0.0
O766 O 0.38012 0.18139 0.28614 0.0
O767 O 0.40375 0.17685 0.32117 0.0
H768 H 0.451 0.19373 0.29769 0.0
H769 H 0.41491 0.18909 0.25291 0.0
H770 H 0.47508 0.18217 0.27799 0.0
H771 H 0.43959 0.17751 0.23403 0.0
H772 H 0.36865 0.23043 0.36466 0.0
H773 H 0.35971 0.23147 0.29857 0.0
H774 H 0.39105 0.21612 0.34467 0.0
H775 H 0.33784 0.24547 0.31936 0.0
H776 H 0.4076 0.2499 0.23801 0.0
H777 H 0.35186 0.23748 0.24341 0.0
H778 H 0.46591 0.20883 0.3504 0.0
H779 H 0.43601 0.25717 0.33817 0.0
H780 H 0.35527 0.15689 0.29233 0.0
H781 H 0.38328 0.18584 0.25071 0.0
H782 H 0.3381 0.14108 0.26853 0.0
H783 H 0.36553 0.16963 0.22768 0.0
H784 H 0.38415 0.15134 0.30578 0.0
H785 H 0.41428 0.16524 0.35311 0.0
H786 H 0.37686 0.12184 0.31979 0.0
H787 H 0.40654 0.13539 0.36633 0.0
H788 H 0.45607 0.13596 0.28797 0.0
H789 H 0.41562 0.12899 0.2472 0.0
H790 H 0.31846 0.19792 0.31708 0.0
H791 H 0.34477 0.1831 0.36694 0.0
Li792 Li 0.03815 0.16157 0.56874 0.0
Li793 Li 0.03527 0.14144 0.54011 0.0
Li794 Li 0.05544 0.13417 0.56553 0.0
Li795 Li 0.06207 0.15834 0.5464 0.0
C796 C 0.02353 0.1234 0.57744 0.0
N797 N 0.0139 0.09611 0.60094 0.0
C798 C 0.01859 0.10648 0.57073 0.0
C799 C 0.0234 0.12653 0.59606 0.0
C800 C 0.01383 0.09283 0.58285 0.0
C801 C 0.01852 0.11254 0.60773 0.0
C802 C 0.03993 0.1841 0.5338 0.0
C803 C 0.04065 0.20178 0.5064 0.0
N804 N 0.04564 0.21651 0.51614 0.0
C805 C 0.04503 0.19943 0.54353 0.0
C806 C 0.03771 0.18527 0.51507 0.0
C807 C 0.04788 0.21568 0.53436 0.0
C808 C 0.03252 0.19107 0.59255 0.0
N809 N 0.02492 0.17681 0.58397 0.0
C810 C 0.99643 0.18479 0.59538 0.0
C811 C 0.0073 0.17339 0.58528 0.0
C812 C 0.00378 0.19994 0.60397 0.0
C813 C 0.02209 0.20299 0.60261 0.0
H814 H 0.04661 0.19338 0.59128 0.0
H815 H 0.00166 0.16196 0.57821 0.0
C816 C 0.02015 0.11597 0.51616 0.0
N817 N 0.01959 0.13333 0.5221 0.0
C818 C 0.00861 0.11023 0.50256 0.0
C819 C 0.99662 0.14051 0.5012 0.0
C820 C 0.0081 0.14553 0.51504 0.0
C821 C 0.99658 0.12258 0.49487 0.0
H822 H 0.02948 0.10658 0.52207 0.0
H823 H 0.00789 0.15921 0.52016 0.0
C824 C 0.07832 0.15755 0.58376 0.0
N825 N 0.10798 0.15548 0.6055 0.0
C826 C 0.09463 0.15254 0.57639 0.0
C827 C 0.07714 0.16181 0.60212 0.0
C828 C 0.10946 0.15149 0.58762 0.0
C829 C 0.09228 0.16059 0.61291 0.0
C830 C 0.07278 0.12646 0.52842 0.0
C831 C 0.0889 0.12075 0.53573 0.0
C832 C 0.0699 0.12507 0.50981 0.0
C833 C 0.10212 0.11432 0.5242 0.0
C834 C 0.08346 0.11859 0.49873 0.0
N835 N 0.09917 0.11342 0.50609 0.0
C836 C 0.06158 0.09768 0.56974 0.0
C837 C 0.06551 0.11408 0.59695 0.0
C838 C 0.06093 0.08144 0.57922 0.0
N839 N 0.06298 0.11358 0.57877 0.0
C840 C 0.06527 0.09809 0.60696 0.0
C841 C 0.06184 0.08158 0.59821 0.0
H842 H 0.05912 0.09774 0.55534 0.0
H843 H 0.06603 0.12686 0.60392 0.0
C844 C 0.08818 0.18547 0.5422 0.0
N845 N 0.07878 0.17237 0.53359 0.0
C846 C 0.09664 0.19894 0.53221 0.0
C847 C 0.08594 0.18482 0.50481 0.0
C848 C 0.07793 0.17154 0.51528 0.0
C849 C 0.09495 0.19898 0.51334 0.0
H850 H 0.08805 0.18622 0.55679 0.0
H851 H 0.06965 0.16156 0.50883 0.0
O852 O 0.02873 0.13678 0.56584 0.0
O853 O 0.03745 0.16798 0.54254 0.0
O854 O 0.06365 0.15877 0.57302 0.0
O855 O 0.05952 0.13247 0.53948 0.0
H856 H 0.01868 0.10385 0.55635 0.0
H857 H 0.02727 0.13955 0.60145 0.0
H858 H 0.01014 0.0796 0.57788 0.0
H859 H 0.01851 0.1147 0.62219 0.0
H860 H 0.03911 0.20284 0.49191 0.0
H861 H 0.04707 0.19872 0.55796 0.0
H862 H 0.03411 0.17349 0.50724 0.0
H863 H 0.05195 0.22761 0.54172 0.0
H864 H 0.98234 0.1821 0.59599 0.0
H865 H 0.02823 0.21447 0.60918 0.0
H866 H 0.00889 0.0962 0.49842 0.0
H867 H 0.98789 0.15064 0.49554 0.0
H868 H 0.09586 0.14974 0.56212 0.0
H869 H 0.06462 0.16586 0.60799 0.0
H870 H 0.12216 0.14759 0.5821 0.0
H871 H 0.09154 0.16371 0.62717 0.0
H872 H 0.09109 0.12103 0.55016 0.0
H873 H 0.05736 0.12911 0.50399 0.0
H874 H 0.11469 0.10994 0.52966 0.0
H875 H 0.08148 0.11763 0.48428 0.0
H876 H 0.05798 0.0692 0.5718 0.0
H877 H 0.06633 0.09886 0.62154 0.0
H878 H 0.10339 0.20983 0.53916 0.0
H879 H 0.08439 0.18452 0.49026 0.0
Li880 Li 0.0922 0.81738 0.79552 0.0
Li881 Li 0.11571 0.80841 0.8138 0.0
Li882 Li 0.10515 0.78782 0.79018 0.0
Li883 Li 0.0871 0.79458 0.81922 0.0
C884 C 0.1245 0.82631 0.77997 0.0
N885 N 0.14063 0.85632 0.76508 0.0
C886 C 0.12716 0.84179 0.79042 0.0
C887 C 0.13012 0.82603 0.76198 0.0
C888 C 0.13533 0.85684 0.78264 0.0
C889 C 0.13821 0.84136 0.75468 0.0
C890 C 0.09488 0.83088 0.83682 0.0
C891 C 0.09362 0.83471 0.86916 0.0
N892 N 0.09743 0.85256 0.86711 0.0
C893 C 0.09851 0.84932 0.83501 0.0
C894 C 0.09217 0.82353 0.85401 0.0
C895 C 0.09986 0.86003 0.85049 0.0
C896 C 0.06778 0.84577 0.79078 0.0
N897 N 0.08046 0.83565 0.78258 0.0
C898 C 0.07063 0.84481 0.75344 0.0
C899 C 0.0825 0.83551 0.76437 0.0
C900 C 0.05657 0.85439 0.76138 0.0
C901 C 0.05563 0.85541 0.78033 0.0
H902 H 0.06632 0.84527 0.80531 0.0
H903 H 0.0923 0.82682 0.75825 0.0
C904 C 0.15222 0.80976 0.81534 0.0
N905 N 0.13771 0.81417 0.82527 0.0
C906 C 0.16872 0.8081 0.82361 0.0
C907 C 0.15541 0.81734 0.85183 0.0
C908 C 0.13912 0.81868 0.84303 0.0
C909 C 0.17028 0.81106 0.8423 0.0
H910 H 0.1507 0.80586 0.80135 0.0
H911 H 0.12749 0.82185 0.8508 0.0
C912 C 0.06576 0.7972 0.78219 0.0
N913 N 0.0379 0.80591 0.7596 0.0
C914 C 0.05001 0.80405 0.78936 0.0
C915 C 0.06729 0.79464 0.76353 0.0
C916 C 0.0361 0.80844 0.77771 0.0
C917 C 0.05305 0.79913 0.75234 0.0
C918 C 0.12373 0.77549 0.82615 0.0
C919 C 0.13846 0.76769 0.8178 0.0
C920 C 0.12321 0.77703 0.84496 0.0
C921 C 0.15261 0.76178 0.82845 0.0
C922 C 0.13763 0.77096 0.85513 0.0
N923 N 0.15191 0.76355 0.84673 0.0
C924 C 0.12577 0.77005 0.76379 0.0
C925 C 0.09746 0.75738 0.76945 0.0
C926 C 0.12919 0.75696 0.75065 0.0
N927 N 0.11013 0.76994 0.77285 0.0
C928 C 0.10024 0.74417 0.75632 0.0
C929 C 0.11633 0.74376 0.74677 0.0
H930 H 0.13558 0.78025 0.76686 0.0
H931 H 0.08511 0.75775 0.77685 0.0
C932 C 0.05571 0.79155 0.8403 0.0
N933 N 0.07111 0.78345 0.83533 0.0
C934 C 0.04318 0.782 0.8504 0.0
C935 C 0.06311 0.75642 0.85087 0.0
C936 C 0.07508 0.76634 0.84056 0.0
C937 C 0.04668 0.76403 0.85555 0.0
H938 H 0.05295 0.80523 0.83597 0.0
H939 H 0.08741 0.76023 0.83634 0.0
O940 O 0.11642 0.81144 0.78723 0.0
O941 O 0.09311 0.82028 0.8218 0.0
O942 O 0.07974 0.79338 0.79333 0.0
O943 O 0.10999 0.78184 0.81592 0.0
H944 H 0.12304 0.84213 0.80439 0.0
H945 H 0.12814 0.81411 0.75372 0.0
H946 H 0.13748 0.86892 0.79058 0.0
H947 H 0.14257 0.84136 0.74075 0.0
H948 H 0.09171 0.82918 0.88256 0.0
H949 H 0.1001 0.85534 0.82178 0.0
H950 H 0.08917 0.80934 0.85565 0.0
H951 H 0.10275 0.8743 0.8493 0.0
H952 H 0.07169 0.8433 0.73893 0.0
H953 H 0.04512 0.86281 0.78699 0.0
H954 H 0.17971 0.80297 0.81574 0.0
H955 H 0.15607 0.81999 0.8662 0.0
H956 H 0.04865 0.80626 0.80372 0.0
H957 H 0.07946 0.78959 0.75771 0.0
H958 H 0.02391 0.81393 0.78306 0.0
H959 H 0.05411 0.79736 0.73787 0.0
H960 H 0.13906 0.76644 0.80324 0.0
H961 H 0.11192 0.7831 0.85161 0.0
H962 H 0.16417 0.75587 0.82217 0.0
H963 H 0.1375 0.77223 0.86969 0.0
H964 H 0.14191 0.75698 0.74389 0.0
H965 H 0.08986 0.73444 0.75363 0.0
H966 H 0.03067 0.78841 0.85358 0.0
H967 H 0.06662 0.74281 0.8549 0.0
Li968 Li 0.43296 0.8387 0.04642 0.0
Li969 Li 0.43738 0.86662 0.06101 0.0
Li970 Li 0.45909 0.85489 0.03944 0.0
Li971 Li 0.45562 0.83971 0.06958 0.0
C972 C 0.42064 0.86335 0.02327 0.0
N973 N 0.39219 0.86415 -0.00018 0.0
C974 C 0.40567 0.87365 0.02743 0.0
C975 C 0.42119 0.85354 0.00713 0.0
C976 C 0.39141 0.87386 0.0154 0.0
C977 C 0.40665 0.85409 0.99547 0.0
C978 C 0.41294 0.83774 0.07518 0.0
C979 C 0.39282 0.81319 0.08129 0.0
N980 N 0.3789 0.82456 0.07868 0.0
C981 C 0.39845 0.84921 0.07264 0.0
C982 C 0.41014 0.8196 0.07963 0.0
C983 C 0.38134 0.84228 0.07446 0.0
C984 C 0.42421 0.80469 0.03427 0.0
N985 N 0.41686 0.82129 0.03662 0.0
C986 C 0.38999 0.8114 0.02271 0.0
C987 C 0.39979 0.82464 0.03176 0.0
C988 C 0.39787 0.79463 0.01889 0.0
C989 C 0.41496 0.79115 0.02534 0.0
H990 H 0.43748 0.80201 0.03894 0.0
H991 H 0.39396 0.83771 0.03432 0.0
C992 C 0.43163 0.9036 0.05962 0.0
N993 N 0.42922 0.8889 0.07032 0.0
C994 C 0.432 0.92084 0.06721 0.0
C995 C 0.42536 0.90757 0.0963 0.0
C996 C 0.42529 0.89053 0.08816 0.0
C997 C 0.42985 0.92288 0.08597 0.0
H998 H 0.43511 0.90179 0.04556 0.0
H999 H 0.42372 0.87853 0.09636 0.0
C1000 C 0.47025 0.82177 0.03521 0.0
N1001 N 0.49759 0.80857 0.01423 0.0
C1002 C 0.48683 0.81847 0.04293 0.0
C1003 C 0.46753 0.81825 0.01687 0.0
C1004 C 0.50049 0.81181 0.03208 0.0
C1005 C 0.48154 0.81162 0.00647 0.0
C1006 C 0.46934 0.88051 0.07074 0.0
C1007 C 0.47451 0.89446 0.05914 0.0
C1008 C 0.46915 0.88344 0.0894 0.0
C1009 C 0.47937 0.91116 0.06644 0.0
C1010 C 0.47415 0.90032 0.09616 0.0
N1011 N 0.47909 0.91372 0.08464 0.0
C1012 C 0.47184 0.86401 0.00442 0.0
C1013 C 0.49359 0.86125 0.02735 0.0
C1014 C 0.48487 0.86761 0.99153 0.0
N1015 N 0.47643 0.86083 0.02189 0.0
C1016 C 0.50703 0.86483 0.01495 0.0
C1017 C 0.50276 0.86801 0.99673 0.0
H1018 H 0.45809 0.86367 0.00047 0.0
H1019 H 0.49681 0.85872 0.04137 0.0
C1020 C 0.46307 0.80808 0.0877 0.0
N1021 N 0.46752 0.82586 0.08713 0.0
C1022 C 0.47254 0.79616 0.0986 0.0
C1023 C 0.49086 0.82114 0.10836 0.0
C1024 C 0.48105 0.8326 0.09718 0.0
C1025 C 0.4868 0.8026 0.10891 0.0
H1026 H 0.45252 0.80308 0.07918 0.0
H1027 H 0.48463 0.84669 0.09602 0.0
O1028 O 0.43482 0.86322 0.03476 0.0
O1029 O 0.42977 0.84421 0.07308 0.0
O1030 O 0.45682 0.82877 0.04546 0.0
O1031 O 0.46425 0.86416 0.06384 0.0
H1032 H 0.40504 0.88137 0.03983 0.0
H1033 H 0.43258 0.84535 0.00378 0.0
H1034 H 0.37972 0.88173 0.01848 0.0
H1035 H 0.40684 0.84645 0.983 0.0
H1036 H 0.39044 0.79916 0.08461 0.0
H1037 H 0.4004 0.86326 0.06915 0.0
H1038 H 0.42121 0.81054 0.0816 0.0
H1039 H 0.37 0.85098 0.07244 0.0
H1040 H 0.37675 0.81454 0.01804 0.0
H1041 H 0.42129 0.7782 0.0231 0.0
H1042 H 0.43574 0.93212 0.05871 0.0
H1043 H 0.42335 0.90855 0.11075 0.0
H1044 H 0.4892 0.82124 0.05707 0.0
H1045 H 0.45478 0.82078 0.01069 0.0
H1046 H 0.51342 0.80929 0.03784 0.0
H1047 H 0.47966 0.80893 0.99223 0.0
H1048 H 0.47456 0.89249 0.04466 0.0
H1049 H 0.46494 0.87287 0.09855 0.0
H1050 H 0.4833 0.92212 0.05762 0.0
H1051 H 0.47401 0.90279 0.11057 0.0
H1052 H 0.48099 0.86986 0.97762 0.0
H1053 H 0.5206 0.86536 0.01965 0.0
H1054 H 0.46893 0.78199 0.09873 0.0
H1055 H 0.50194 0.82658 0.11588 0.0
Li1056 Li 0.87339 0.31791 0.69567 0.0
Li1057 Li 0.9008 0.32364 0.70999 0.0
Li1058 Li 0.897 0.29643 0.69287 0.0
Li1059 Li 0.88199 0.30015 0.72148 0.0
C1060 C 0.89725 0.33852 0.67611 0.0
N1061 N 0.89862 0.37263 0.66098 0.0
C1062 C 0.88857 0.35298 0.68445 0.0
C1063 C 0.90662 0.3414 0.66009 0.0
C1064 C 0.88943 0.37012 0.67658 0.0
C1065 C 0.90716 0.35875 0.65265 0.0
C1066 C 0.87773 0.33324 0.73806 0.0
C1067 C 0.89289 0.33614 0.76661 0.0
N1068 N 0.87957 0.34684 0.77279 0.0
C1069 C 0.8642 0.34427 0.7447 0.0
C1070 C 0.89221 0.32913 0.74909 0.0
C1071 C 0.86536 0.35101 0.7623 0.0
C1072 C 0.83774 0.32465 0.69387 0.0
N1073 N 0.85277 0.32629 0.68395 0.0
C1074 C 0.83614 0.32838 0.65665 0.0
C1075 C 0.85229 0.32897 0.66578 0.0
C1076 C 0.82051 0.3249 0.66637 0.0
C1077 C 0.82133 0.32403 0.68531 0.0
H1078 H 0.83865 0.32204 0.70823 0.0
H1079 H 0.86449 0.32974 0.65818 0.0
C1080 C 0.93526 0.33351 0.71495 0.0
N1081 N 0.9186 0.34022 0.71643 0.0
C1082 C 0.94953 0.34299 0.72209 0.0
C1083 C 0.92933 0.36673 0.73113 0.0
C1084 C 0.91539 0.35674 0.72376 0.0
C1085 C 0.94656 0.35954 0.73084 0.0
H1086 H 0.93733 0.32037 0.70889 0.0
H1087 H 0.90196 0.36172 0.72474 0.0
C1088 C 0.86291 0.28432 0.68395 0.0
N1089 N 0.84368 0.27186 0.65469 0.0
C1090 C 0.84766 0.27396 0.68665 0.0
C1091 C 0.86835 0.28835 0.66634 0.0
C1092 C 0.83812 0.26779 0.67169 0.0
C1093 C 0.85848 0.2819 0.65174 0.0
C1094 C 0.91438 0.28269 0.72265 0.0
C1095 C 0.90469 0.26678 0.72018 0.0
C1096 C 0.93101 0.28194 0.73089 0.0
C1097 C 0.91182 0.25036 0.726 0.0
C1098 C 0.93769 0.26525 0.73652 0.0
N1099 N 0.92803 0.24994 0.73398 0.0
C1100 C 0.92676 0.28503 0.67461 0.0
C1101 C 0.90386 0.26313 0.67401 0.0
C1102 C 0.93823 0.27328 0.66567 0.0
N1103 N 0.90999 0.27979 0.6786 0.0
C1104 C 0.9148 0.25104 0.66478 0.0
C1105 C 0.93233 0.25597 0.66063 0.0
H1106 H 0.93136 0.29822 0.67884 0.0
H1107 H 0.89063 0.25907 0.6778 0.0
C1108 C 0.85744 0.28021 0.74142 0.0
N1109 N 0.87388 0.28756 0.74226 0.0
C1110 C 0.85154 0.26871 0.75508 0.0
C1111 C 0.87919 0.27352 0.77083 0.0
C1112 C 0.88461 0.28479 0.75675 0.0
C1113 C 0.86265 0.26486 0.76986 0.0
H1114 H 0.84918 0.28274 0.72977 0.0
H1115 H 0.89767 0.29075 0.7571 0.0
O1116 O 0.89673 0.32157 0.6835 0.0
O1117 O 0.87665 0.32661 0.72083 0.0
O1118 O 0.87186 0.29124 0.6985 0.0
O1119 O 0.90775 0.29899 0.71707 0.0
H1120 H 0.88122 0.35106 0.69682 0.0
H1121 H 0.91342 0.33034 0.65349 0.0
H1122 H 0.88278 0.38144 0.68289 0.0
H1123 H 0.91436 0.36118 0.64025 0.0
H1124 H 0.90404 0.33309 0.77527 0.0
H1125 H 0.8529 0.34757 0.73632 0.0
H1126 H 0.90287 0.32072 0.74421 0.0
H1127 H 0.85497 0.35956 0.76761 0.0
H1128 H 0.83602 0.32918 0.64203 0.0
H1129 H 0.80966 0.32107 0.6933 0.0
H1130 H 0.96266 0.33715 0.72135 0.0
H1131 H 0.9265 0.3794 0.73786 0.0
H1132 H 0.84313 0.27082 0.70016 0.0
H1133 H 0.87995 0.29657 0.66393 0.0
H1134 H 0.82626 0.25982 0.6736 0.0
H1135 H 0.86251 0.28499 0.63805 0.0
H1136 H 0.89178 0.26705 0.71389 0.0
H1137 H 0.93867 0.29414 0.73293 0.0
H1138 H 0.90446 0.23795 0.72418 0.0
H1139 H 0.95054 0.26448 0.74292 0.0
H1140 H 0.95171 0.27759 0.6632 0.0
H1141 H 0.90956 0.23794 0.66103 0.0
H1142 H 0.83879 0.2622 0.75356 0.0
H1143 H 0.88809 0.27119 0.78206 0.0
Li1144 Li 0.94496 0.6384 0.96574 0.0
Li1145 Li 0.94546 0.65628 0.93642 0.0
Li1146 Li 0.92017 0.65602 0.95634 0.0
Li1147 Li 0.92748 0.62893 0.94001 0.0
C1148 C 0.94165 0.68119 0.97 0.0
N1149 N 0.93533 0.71419 0.98637 0.0
C1150 C 0.9417 0.69708 0.95977 0.0
C1151 C 0.93853 0.68215 0.98861 0.0
C1152 C 0.93841 0.71361 0.96827 0.0
C1153 C 0.93537 0.69894 0.99662 0.0
C1154 C 0.96055 0.6196 0.92927 0.0
C1155 C 0.9649 0.61015 0.89839 0.0
N1156 N 0.97316 0.59494 0.90436 0.0
C1157 C 0.96919 0.60395 0.9351 0.0
C1158 C 0.95848 0.62281 0.91077 0.0
C1159 C 0.97544 0.59162 0.92229 0.0
C1160 C 0.96147 0.61223 0.98799 0.0
N1161 N 0.95973 0.63023 0.98477 0.0
C1162 C 0.98043 0.63719 0.00812 0.0
C1163 C 0.96889 0.64268 0.99449 0.0
C1164 C 0.98286 0.61867 0.01154 0.0
C1165 C 0.97302 0.60611 0.00139 0.0
H1166 H 0.9541 0.60264 0.97992 0.0
H1167 H 0.96749 0.65688 0.99144 0.0
C1168 C 0.95318 0.68409 0.91148 0.0
N1169 N 0.96002 0.6699 0.92083 0.0
C1170 C 0.96422 0.69494 0.90092 0.0
C1171 C 0.98889 0.67575 0.90912 0.0
C1172 C 0.97746 0.66552 0.91981 0.0
C1173 C 0.98231 0.69078 0.89973 0.0
H1174 H 0.93922 0.6872 0.91257 0.0
H1175 H 0.98251 0.65421 0.9275 0.0
C1176 C 0.91701 0.62072 0.98064 0.0
N1177 N 0.91196 0.60016 0.01143 0.0
C1178 C 0.90973 0.60339 0.97939 0.0
C1179 C 0.92129 0.62774 0.99763 0.0
C1180 C 0.90738 0.59317 0.99508 0.0
C1181 C 0.91878 0.61709 0.01301 0.0
C1182 C 0.90357 0.65241 0.9228 0.0
C1183 C 0.89065 0.64181 0.93123 0.0
C1184 C 0.89911 0.66263 0.90758 0.0
C1185 C 0.87347 0.64159 0.92423 0.0
C1186 C 0.88179 0.66205 0.90101 0.0
N1187 N 0.86943 0.65163 0.9094 0.0
C1188 C 0.8992 0.68738 0.95598 0.0
C1189 C 0.8965 0.66919 0.98225 0.0
C1190 C 0.89071 0.70175 0.96462 0.0
N1191 N 0.90255 0.67184 0.96518 0.0
C1192 C 0.88813 0.68321 0.99143 0.0
C1193 C 0.88589 0.69994 0.98283 0.0
H1194 H 0.90448 0.68918 0.94251 0.0
H1195 H 0.89941 0.65675 0.98923 0.0
C1196 C 0.92691 0.59202 0.93523 0.0
N1197 N 0.92142 0.60755 0.92723 0.0
C1198 C 0.92863 0.57625 0.92515 0.0
C1199 C 0.91776 0.59238 0.89899 0.0
C1200 C 0.91628 0.60792 0.90962 0.0
C1201 C 0.92483 0.5765 0.90656 0.0
H1202 H 0.93178 0.59235 0.94897 0.0
H1203 H 0.91254 0.62058 0.9034 0.0
O1204 O 0.94466 0.66484 0.96185 0.0
O1205 O 0.95369 0.63146 0.94161 0.0
O1206 O 0.91941 0.63089 0.96535 0.0
O1207 O 0.92048 0.65298 0.92938 0.0
H1208 H 0.94408 0.69666 0.9454 0.0
H1209 H 0.93844 0.67007 0.99681 0.0
H1210 H 0.93827 0.72597 0.96047 0.0
H1211 H 0.93291 0.69983 0.01099 0.0
H1212 H 0.96323 0.61236 0.88404 0.0
H1213 H 0.97086 0.60124 0.94937 0.0
H1214 H 0.95166 0.63478 0.90605 0.0
H1215 H 0.98203 0.57938 0.9266 0.0
H1216 H 0.98757 0.64737 0.01571 0.0
H1217 H 0.97467 0.59171 0.00333 0.0
H1218 H 0.95873 0.70641 0.89376 0.0
H1219 H 0.00282 0.67226 0.90858 0.0
H1220 H 0.90569 0.59797 0.96647 0.0
H1221 H 0.9267 0.64118 -0.00108 0.0
H1222 H 0.90183 0.57971 0.99427 0.0
H1223 H 0.92225 0.6223 0.0262 0.0
H1224 H 0.89379 0.6338 0.943 0.0
H1225 H 0.90896 0.67092 0.90093 0.0
H1226 H 0.86335 0.63344 0.9306 0.0
H1227 H 0.87816 0.66989 0.88923 0.0
H1228 H 0.88925 0.71454 0.95766 0.0
H1229 H 0.8844 0.68136 0.00545 0.0
H1230 H 0.93456 0.56454 0.93151 0.0
H1231 H 0.91462 0.59314 0.88474 0.0
Li1232 Li 0.60984 0.69598 0.21103 0.0
Li1233 Li 0.5914 0.69262 0.18206 0.0
Li1234 Li 0.59762 0.66711 0.20157 0.0
Li1235 Li 0.62073 0.67936 0.18436 0.0
C1236 C 0.57044 0.68434 0.21779 0.0
N1237 N 0.54191 0.67263 0.23802 0.0
C1238 C 0.55374 0.6827 0.20982 0.0
C1239 C 0.57259 0.6802 0.23609 0.0
C1240 C 0.53949 0.67672 0.22027 0.0
C1241 C 0.55802 0.67422 0.24607 0.0
C1242 C 0.62576 0.71375 0.17494 0.0
C1243 C 0.63534 0.72155 0.14485 0.0
N1244 N 0.65029 0.72904 0.15185 0.0
C1245 C 0.64113 0.72165 0.18186 0.0
C1246 C 0.62275 0.71379 0.1563 0.0
C1247 C 0.6534 0.72927 0.16996 0.0
C1248 C 0.63176 0.7155 0.23503 0.0
N1249 N 0.61481 0.71228 0.22984 0.0
C1250 C 0.60395 0.73491 0.24995 0.0
C1251 C 0.60096 0.72144 0.23714 0.0
C1252 C 0.62136 0.73905 0.25514 0.0
C1253 C 0.63537 0.7289 0.24779 0.0
H1254 H 0.64248 0.70801 0.22886 0.0
H1255 H 0.58763 0.71864 0.23263 0.0
C1256 C 0.562 0.6975 0.15832 0.0
N1257 N 0.57504 0.70564 0.168 0.0
C1258 C 0.54967 0.708 0.1489 0.0
C1259 C 0.56471 0.73487 0.15947 0.0
C1260 C 0.57663 0.7239 0.16871 0.0
C1261 C 0.55088 0.72698 0.14953 0.0
H1262 H 0.56103 0.68291 0.15816 0.0
H1263 H 0.58713 0.72994 0.17661 0.0
C1264 C 0.63072 0.66417 0.22358 0.0
N1265 N 0.6488 0.64722 0.25128 0.0
C1266 C 0.64361 0.65118 0.21968 0.0
C1267 C 0.62719 0.66869 0.24157 0.0
C1268 C 0.65256 0.64272 0.23387 0.0
C1269 C 0.63642 0.65993 0.25538 0.0
C1270 C 0.60263 0.65136 0.16758 0.0
C1271 C 0.61329 0.63933 0.17726 0.0
C1272 C 0.59601 0.64632 0.15069 0.0
C1273 C 0.6172 0.62244 0.16983 0.0
C1274 C 0.60022 0.62931 0.14371 0.0
N1275 N 0.61065 0.61782 0.15334 0.0
C1276 C 0.57035 0.64191 0.20357 0.0
C1277 C 0.59155 0.63883 0.22697 0.0
C1278 C 0.55848 0.63088 0.21288 0.0
N1279 N 0.58613 0.64638 0.21119 0.0
C1280 C 0.58017 0.62769 0.2367 0.0
C1281 C 0.56307 0.62436 0.23008 0.0
H1282 H 0.56638 0.6482 0.19101 0.0
H1283 H 0.60407 0.64248 0.2328 0.0
C1284 C 0.65707 0.68002 0.18069 0.0
N1285 N 0.64204 0.67601 0.17147 0.0
C1286 C 0.67283 0.683 0.17141 0.0
C1287 C 0.65767 0.67605 0.14347 0.0
C1288 C 0.64212 0.67334 0.15331 0.0
C1289 C 0.6731 0.6818 0.15246 0.0
H1290 H 0.65644 0.68249 0.19508 0.0
H1291 H 0.62987 0.67049 0.1463 0.0
O1292 O 0.5846 0.68991 0.20771 0.0
O1293 O 0.61391 0.70559 0.1863 0.0
O1294 O 0.62205 0.67281 0.20983 0.0
O1295 O 0.59866 0.66802 0.17448 0.0
H1296 H 0.55185 0.68586 0.19567 0.0
H1297 H 0.58542 0.68142 0.24247 0.0
H1298 H 0.52651 0.67528 0.21425 0.0
H1299 H 0.55953 0.67081 0.2602 0.0
H1300 H 0.63328 0.72152 0.13038 0.0
H1301 H 0.64367 0.72167 0.19625 0.0
H1302 H 0.61096 0.70761 0.15073 0.0
H1303 H 0.66544 0.73529 0.1751 0.0
H1304 H 0.59278 0.7423 0.2554 0.0
H1305 H 0.64901 0.73183 0.25122 0.0
H1306 H 0.53912 0.70137 0.14154 0.0
H1307 H 0.56638 0.7494 0.16006 0.0
H1308 H 0.64672 0.6477 0.20583 0.0
H1309 H 0.61731 0.67873 0.24487 0.0
H1310 H 0.66253 0.6326 0.23104 0.0
H1311 H 0.63375 0.66322 0.26936 0.0
H1312 H 0.61842 0.64294 0.19037 0.0
H1313 H 0.58773 0.6555 0.14304 0.0
H1314 H 0.62543 0.613 0.17718 0.0
H1315 H 0.59521 0.62524 0.13063 0.0
H1316 H 0.54548 0.62842 0.20723 0.0
H1317 H 0.58422 0.62305 0.24995 0.0
H1318 H 0.68423 0.68771 0.17893 0.0
H1319 H 0.65734 0.67476 0.1289 0.0
Li1320 Li 0.56918 0.36988 0.43477 0.0
Li1321 Li 0.57527 0.34239 0.44931 0.0
Li1322 Li 0.54962 0.34491 0.43004 0.0
Li1323 Li 0.55082 0.36073 0.45948 0.0
C1324 C 0.59198 0.34673 0.41658 0.0
N1325 N 0.62645 0.3471 0.40405 0.0
C1326 C 0.60505 0.35624 0.426 0.0
C1327 C 0.59645 0.33742 0.4008 0.0
C1328 C 0.6224 0.35626 0.41944 0.0
C1329 C 0.61395 0.33777 0.39468 0.0
C1330 C 0.58181 0.36587 0.47795 0.0
C1331 C 0.58238 0.3505 0.50671 0.0
N1332 N 0.59297 0.36374 0.51346 0.0
C1333 C 0.59268 0.37932 0.48519 0.0
C1334 C 0.57659 0.35133 0.48881 0.0
C1335 C 0.59818 0.37801 0.50317 0.0
C1336 C 0.57513 0.40664 0.43353 0.0
N1337 N 0.57752 0.39136 0.42368 0.0
C1338 C 0.58147 0.40853 0.3967 0.0
C1339 C 0.58148 0.39198 0.40578 0.0
C1340 C 0.57706 0.4244 0.40616 0.0
C1341 C 0.57487 0.42344 0.425 0.0
H1342 H 0.57162 0.40563 0.44767 0.0
H1343 H 0.58294 0.37958 0.39819 0.0
C1344 C 0.58544 0.3079 0.45714 0.0
N1345 N 0.5917 0.3251 0.45752 0.0
C1346 C 0.59398 0.29439 0.46687 0.0
C1347 C 0.61631 0.31618 0.47562 0.0
C1348 C 0.60717 0.32939 0.46587 0.0
C1349 C 0.60923 0.29869 0.47671 0.0
H1350 H 0.57317 0.30496 0.45023 0.0
H1351 H 0.61174 0.34324 0.46603 0.0
C1352 C 0.5378 0.38221 0.42294 0.0
N1353 N 0.52891 0.40746 0.39694 0.0
C1354 C 0.53058 0.39886 0.42801 0.0
C1355 C 0.54047 0.37841 0.40463 0.0
C1356 C 0.52621 0.41145 0.41466 0.0
C1357 C 0.53588 0.39134 0.3917 0.0
C1358 C 0.53508 0.32637 0.45881 0.0
C1359 C 0.51915 0.33537 0.45536 0.0
C1360 C 0.53474 0.30911 0.46649 0.0
C1361 C 0.50314 0.32691 0.45959 0.0
C1362 C 0.51846 0.30112 0.47055 0.0
N1363 N 0.50313 0.3101 0.46703 0.0
C1364 C 0.53932 0.31364 0.41225 0.0
C1365 C 0.51865 0.33758 0.40929 0.0
C1366 C 0.52773 0.3017 0.40369 0.0
N1367 N 0.53453 0.33112 0.415 0.0
C1368 C 0.50675 0.32618 0.40047 0.0
C1369 C 0.51107 0.30786 0.39787 0.0
H1370 H 0.55186 0.30882 0.4174 0.0
H1371 H 0.51494 0.35139 0.41214 0.0
C1372 C 0.5337 0.38643 0.48126 0.0
N1373 N 0.53748 0.36853 0.47993 0.0
C1374 C 0.52278 0.39274 0.49512 0.0
C1375 C 0.52061 0.3622 0.50651 0.0
C1376 C 0.5317 0.35652 0.49255 0.0
C1377 C 0.51573 0.38046 0.50767 0.0
H1378 H 0.53891 0.39574 0.47135 0.0
H1379 H 0.5354 0.34246 0.49166 0.0
O1380 O 0.57486 0.34642 0.42264 0.0
O1381 O 0.57641 0.3671 0.46033 0.0
O1382 O 0.54266 0.36988 0.43582 0.0
O1383 O 0.55097 0.33424 0.45455 0.0
H1384 H 0.60191 0.36359 0.43819 0.0
H1385 H 0.58648 0.32999 0.39335 0.0
H1386 H 0.63264 0.36357 0.42659 0.0
H1387 H 0.61759 0.33063 0.38247 0.0
H1388 H 0.57848 0.3393 0.51522 0.0
H1389 H 0.59683 0.39067 0.47697 0.0
H1390 H 0.56827 0.34072 0.4835 0.0
H1391 H 0.60661 0.38834 0.50894 0.0
H1392 H 0.58339 0.4087 0.3822 0.0
H1393 H 0.57118 0.43523 0.43281 0.0
H1394 H 0.58824 0.28099 0.46753 0.0
H1395 H 0.628 0.31988 0.48327 0.0
H1396 H 0.52842 0.40207 0.44208 0.0
H1397 H 0.5463 0.36571 0.40047 0.0
H1398 H 0.52069 0.42442 0.4184 0.0
H1399 H 0.53797 0.38861 0.37749 0.0
H1400 H 0.51908 0.34875 0.44951 0.0
H1401 H 0.54692 0.30197 0.46936 0.0
H1402 H 0.49073 0.33371 0.45697 0.0
H1403 H 0.51802 0.28777 0.4765 0.0
H1404 H 0.53153 0.28766 0.40231 0.0
H1405 H 0.49416 0.33161 0.39603 0.0
H1406 H 0.5193 0.40694 0.49555 0.0
H1407 H 0.51566 0.35238 0.51612 0.0
Li1408 Li 0.28284 0.38803 0.20905 0.0
Li1409 Li 0.3039 0.37598 0.18831 0.0
Li1410 Li 0.31189 0.40377 0.20442 0.0
Li1411 Li 0.28879 0.40296 0.18006 0.0
C1412 C 0.31494 0.36444 0.22077 0.0
N1413 N 0.33138 0.33269 0.23101 0.0
C1414 C 0.30488 0.34988 0.22704 0.0
C1415 C 0.33337 0.36292 0.21983 0.0
C1416 C 0.31345 0.33393 0.23213 0.0
C1417 C 0.34143 0.34674 0.22505 0.0
C1418 C 0.27012 0.36788 0.17269 0.0
C1419 C 0.26339 0.35906 0.14207 0.0
N1420 N 0.25349 0.34509 0.14846 0.0
C1421 C 0.25961 0.35364 0.17895 0.0
C1422 C 0.2718 0.3708 0.15411 0.0
C1423 C 0.25143 0.34218 0.16648 0.0
C1424 C 0.24775 0.38396 0.22138 0.0
N1425 N 0.26506 0.384 0.22639 0.0
C1426 C 0.25725 0.38063 0.25739 0.0
C1427 C 0.27002 0.38234 0.24393 0.0
C1428 C 0.2392 0.38068 0.25272 0.0
C1429 C 0.23449 0.38225 0.23443 0.0
H1430 H 0.24427 0.38557 0.20728 0.0
H1431 H 0.28392 0.3826 0.24745 0.0
C1432 C 0.33125 0.35294 0.17612 0.0
N1433 N 0.31388 0.35355 0.18089 0.0
C1434 C 0.34026 0.33646 0.17597 0.0
C1435 C 0.31298 0.3215 0.18423 0.0
C1436 C 0.30454 0.33823 0.18426 0.0
C1437 C 0.33126 0.32058 0.18093 0.0
H1438 H 0.33848 0.36538 0.17397 0.0
H1439 H 0.29101 0.33912 0.18882 0.0
C1440 C 0.2783 0.42261 0.21744 0.0
N1441 N 0.25847 0.43823 0.24466 0.0
C1442 C 0.26104 0.42847 0.214 0.0
C1443 C 0.28551 0.42474 0.23471 0.0
C1444 C 0.25122 0.43632 0.22794 0.0
C1445 C 0.27526 0.43267 0.24829 0.0
C1446 C 0.32152 0.40053 0.16134 0.0
C1447 C 0.33247 0.41531 0.15765 0.0
C1448 C 0.31767 0.38815 0.14764 0.0
C1449 C 0.33905 0.41768 0.14017 0.0
C1450 C 0.32453 0.39097 0.13033 0.0
N1451 N 0.33497 0.40558 0.12698 0.0
C1452 C 0.33679 0.41358 0.23116 0.0
C1453 C 0.33039 0.43585 0.20904 0.0
C1454 C 0.34722 0.42582 0.24077 0.0
N1455 N 0.32858 0.41885 0.21571 0.0
C1456 C 0.34068 0.44853 0.2182 0.0
C1457 C 0.34904 0.44365 0.23444 0.0
H1458 H 0.33474 0.40008 0.23635 0.0
H1459 H 0.32329 0.43971 0.19695 0.0
C1460 C 0.25925 0.4165 0.16397 0.0
N1461 N 0.27716 0.41776 0.16327 0.0
C1462 C 0.24877 0.42964 0.15584 0.0
C1463 C 0.27539 0.44442 0.14526 0.0
C1464 C 0.28539 0.43113 0.15393 0.0
C1465 C 0.25681 0.44415 0.14671 0.0
H1466 H 0.25314 0.40598 0.17198 0.0
H1467 H 0.29964 0.43212 0.15405 0.0
O1468 O 0.30677 0.38004 0.21539 0.0
O1469 O 0.27797 0.37936 0.18476 0.0
O1470 O 0.2879 0.4143 0.20415 0.0
O1471 O 0.31505 0.39802 0.17842 0.0
H1472 H 0.2906 0.35081 0.22774 0.0
H1473 H 0.34133 0.37403 0.21487 0.0
H1474 H 0.30583 0.32249 0.23687 0.0
H1475 H 0.35566 0.34532 0.22427 0.0
H1476 H 0.26465 0.36112 0.12766 0.0
H1477 H 0.25792 0.35141 0.19331 0.0
H1478 H 0.2793 0.38215 0.14902 0.0
H1479 H 0.2434 0.331 0.17114 0.0
H1480 H 0.26148 0.37912 0.27129 0.0
H1481 H 0.22074 0.38247 0.2303 0.0
H1482 H 0.35435 0.33631 0.1733 0.0
H1483 H 0.3056 0.3097 0.18852 0.0
H1484 H 0.25521 0.42681 0.20077 0.0
H1485 H 0.29875 0.42006 0.2377 0.0
H1486 H 0.23781 0.44084 0.22549 0.0
H1487 H 0.28063 0.43431 0.26174 0.0
H1488 H 0.33574 0.42492 0.16816 0.0
H1489 H 0.30969 0.37635 0.15037 0.0
H1490 H 0.34743 0.42914 0.13709 0.0
H1491 H 0.32162 0.38151 0.11959 0.0
H1492 H 0.35357 0.42147 0.25315 0.0
H1493 H 0.34152 0.46219 0.213 0.0
H1494 H 0.23458 0.42896 0.15773 0.0
H1495 H 0.28217 0.45516 0.13813 0.0
Li1496 Li 0.80087 0.09112 0.81734 0.0
Li1497 Li 0.82407 0.08564 0.79435 0.0
Li1498 Li 0.82 0.11555 0.80871 0.0
Li1499 Li 0.79819 0.10412 0.78797 0.0
C1500 C 0.83122 0.09576 0.83827 0.0
N1501 N 0.83934 0.10271 0.87401 0.0
C1502 C 0.8464 0.08827 0.84605 0.0
C1503 C 0.82016 0.10679 0.84867 0.0
C1504 C 0.85027 0.09194 0.86415 0.0
C1505 C 0.8245 0.11014 0.86671 0.0
C1506 C 0.78564 0.07134 0.78406 0.0
C1507 C 0.77448 0.06007 0.75568 0.0
N1508 N 0.75802 0.05881 0.76303 0.0
C1509 C 0.76863 0.06985 0.79136 0.0
C1510 C 0.78863 0.06633 0.7661 0.0
C1511 C 0.75484 0.0635 0.7805 0.0
C1512 C 0.77392 0.08748 0.8434 0.0
N1513 N 0.78787 0.07921 0.83529 0.0
C1514 C 0.77926 0.05058 0.8471 0.0
C1515 C 0.79102 0.06126 0.83729 0.0
C1516 C 0.76415 0.05852 0.85478 0.0
C1517 C 0.76184 0.07731 0.8534 0.0
H1518 H 0.7716 0.10172 0.84117 0.0
H1519 H 0.8021 0.0551 0.83035 0.0
C1520 C 0.85669 0.07377 0.77976 0.0
N1521 N 0.84007 0.06866 0.7846 0.0
C1522 C 0.86746 0.06194 0.76997 0.0
C1523 C 0.84405 0.03964 0.77118 0.0
C1524 C 0.83378 0.05186 0.78094 0.0
C1525 C 0.86095 0.04479 0.76517 0.0
H1526 H 0.86123 0.08731 0.78274 0.0
H1527 H 0.82051 0.0482 0.78504 0.0
C1528 C 0.7878 0.13349 0.80891 0.0
N1529 N 0.77629 0.1686 0.80383 0.0
C1530 C 0.79365 0.14347 0.79403 0.0
C1531 C 0.77603 0.14138 0.82118 0.0
C1532 C 0.7877 0.16119 0.7917 0.0
C1533 C 0.77038 0.15914 0.81838 0.0
C1534 C 0.82914 0.1137 0.76595 0.0
C1535 C 0.83332 0.13157 0.76149 0.0
C1536 C 0.83138 0.10008 0.75303 0.0
C1537 C 0.83953 0.13553 0.74415 0.0
C1538 C 0.83764 0.10459 0.73585 0.0
N1539 N 0.84155 0.12207 0.7318 0.0
C1540 C 0.84812 0.13918 0.80642 0.0
C1541 C 0.82564 0.14962 0.8262 0.0
C1542 C 0.85633 0.15603 0.8067 0.0
N1543 N 0.83266 0.13659 0.81539 0.0
C1544 C 0.83343 0.16673 0.82689 0.0
C1545 C 0.84855 0.17032 0.81639 0.0
H1546 H 0.85336 0.12853 0.79797 0.0
H1547 H 0.81343 0.14712 0.83339 0.0
C1548 C 0.76378 0.11216 0.77592 0.0
N1549 N 0.78071 0.10992 0.77003 0.0
C1550 C 0.75017 0.11581 0.76366 0.0
C1551 C 0.77166 0.11482 0.73951 0.0
C1552 C 0.78479 0.11112 0.7522 0.0
C1553 C 0.75405 0.11717 0.74515 0.0
H1554 H 0.76081 0.11091 0.79017 0.0
H1555 H 0.79815 0.10913 0.74767 0.0
O1556 O 0.82736 0.09231 0.82054 0.0
O1557 O 0.79921 0.07798 0.79432 0.0
O1558 O 0.7936 0.11617 0.81169 0.0
O1559 O 0.82344 0.10953 0.78303 0.0
H1560 H 0.8551 0.07972 0.83816 0.0
H1561 H 0.80837 0.11273 0.84293 0.0
H1562 H 0.86198 0.08623 0.87034 0.0
H1563 H 0.81607 0.11866 0.87491 0.0
H1564 H 0.77658 0.05626 0.74173 0.0
H1565 H 0.76605 0.07377 0.8052 0.0
H1566 H 0.8017 0.06744 0.76022 0.0
H1567 H 0.74159 0.06238 0.78595 0.0
H1568 H 0.78156 0.03615 0.84802 0.0
H1569 H 0.75025 0.08388 0.85898 0.0
H1570 H 0.88036 0.06647 0.76546 0.0
H1571 H 0.83867 0.02645 0.76799 0.0
H1572 H 0.80265 0.13763 0.78436 0.0
H1573 H 0.7714 0.1339 0.83282 0.0
H1574 H 0.79216 0.16905 0.78024 0.0
H1575 H 0.76131 0.16541 0.8278 0.0
H1576 H 0.8318 0.1423 0.77129 0.0
H1577 H 0.82803 0.08623 0.75607 0.0
H1578 H 0.84277 0.1493 0.74053 0.0
H1579 H 0.83934 0.0942 0.72571 0.0
H1580 H 0.86784 0.15815 0.79824 0.0
H1581 H 0.82717 0.17729 0.83476 0.0
H1582 H 0.73676 0.11734 0.76861 0.0
H1583 H 0.77536 0.11606 0.72542 0.0
Li1584 Li 0.15084 0.54791 0.07272 0.0
Li1585 Li 0.12544 0.56276 0.06236 0.0
Li1586 Li 0.13784 0.53919 0.04425 0.0
Li1587 Li 0.15289 0.56885 0.04774 0.0
C1588 C 0.12731 0.51901 0.0732 0.0
N1589 N 0.12752 0.4829 0.0828 0.0
C1590 C 0.1127 0.51142 0.08196 0.0
C1591 C 0.14201 0.50819 0.06925 0.0
C1592 C 0.11306 0.49314 0.08671 0.0
C1593 C 0.14187 0.48999 0.07425 0.0
C1594 C 0.14319 0.57948 0.09069 0.0
C1595 C 0.14757 0.59982 0.11577 0.0
N1596 N 0.13637 0.58964 0.12595 0.0
C1597 C 0.13171 0.56922 0.1014 0.0
C1598 C 0.15119 0.59489 0.09792 0.0
C1599 C 0.12844 0.57458 0.11919 0.0
C1600 C 0.1819 0.53869 0.08945 0.0
N1601 N 0.16411 0.53822 0.09194 0.0
C1602 C 0.16704 0.51659 0.1156 0.0
C1603 C 0.15659 0.52824 0.10531 0.0
C1604 C 0.18529 0.51552 0.11211 0.0
C1605 C 0.19285 0.52739 0.0995 0.0
H1606 H 0.18742 0.54682 0.07869 0.0
H1607 H 0.14237 0.5282 0.10701 0.0
C1608 C 0.08894 0.56301 0.06243 0.0
N1609 N 0.10308 0.57308 0.0676 0.0
C1610 C 0.07246 0.57114 0.06009 0.0
C1611 C 0.08506 0.5994 0.07032 0.0
C1612 C 0.10136 0.59074 0.07233 0.0
C1613 C 0.0706 0.58979 0.06317 0.0
H1614 H 0.09086 0.54907 0.05844 0.0
H1615 H 0.11293 0.59849 0.07607 0.0
C1616 C 0.17401 0.54101 0.03499 0.0
N1617 N 0.19597 0.53499 0.00572 0.0
C1618 C 0.16852 0.54576 0.01757 0.0
C1619 C 0.19067 0.53318 0.0375 0.0
C1620 C 0.17982 0.54262 0.00296 0.0
C1621 C 0.20157 0.53023 0.02253 0.0
C1622 C 0.1177 0.57476 0.02925 0.0
C1623 C 0.10323 0.56807 0.01955 0.0
C1624 C 0.119 0.59331 0.0326 0.0
C1625 C 0.09018 0.58004 0.01357 0.0
C1626 C 0.10569 0.60485 0.02636 0.0
N1627 N 0.09166 0.59802 0.01708 0.0
C1628 C 0.11465 0.51644 0.02627 0.0
C1629 C 0.14459 0.50778 0.02212 0.0
C1630 C 0.10891 0.50204 0.01562 0.0
N1631 N 0.13222 0.51925 0.029 0.0
C1632 C 0.13945 0.49331 0.01121 0.0
C1633 C 0.12141 0.49041 0.00775 0.0
H1634 H 0.10509 0.5254 0.03244 0.0
H1635 H 0.15843 0.50967 0.02516 0.0
C1636 C 0.1842 0.58861 0.04347 0.0
N1637 N 0.16816 0.58527 0.03587 0.0
C1638 C 0.1968 0.59886 0.0342 0.0
C1639 C 0.17587 0.60239 0.00972 0.0
C1640 C 0.16378 0.59194 0.01937 0.0
C1641 C 0.19278 0.60571 0.01696 0.0
H1642 H 0.1874 0.58277 0.05648 0.0
H1643 H 0.15111 0.58869 0.01343 0.0
O1644 O 0.12702 0.53692 0.06855 0.0
O1645 O 0.14672 0.57458 0.07322 0.0
O1646 O 0.16335 0.54424 0.0496 0.0
O1647 O 0.13038 0.5632 0.03566 0.0
H1648 H 0.10121 0.5196 0.08507 0.0
H1649 H 0.15348 0.51375 0.06253 0.0
H1650 H 0.10185 0.48711 0.09352 0.0
H1651 H 0.15318 0.4815 0.07135 0.0
H1652 H 0.15368 0.61172 0.12154 0.0
H1653 H 0.12532 0.5573 0.0961 0.0
H1654 H 0.16012 0.60297 0.0898 0.0
H1655 H 0.11958 0.56678 0.12762 0.0
H1656 H 0.1608 0.50777 0.12539 0.0
H1657 H 0.20685 0.5269 0.09636 0.0
H1658 H 0.0618 0.56322 0.05433 0.0
H1659 H 0.08414 0.61374 0.07308 0.0
H1660 H 0.15566 0.55174 0.01529 0.0
H1661 H 0.19513 0.52938 0.05086 0.0
H1662 H 0.17574 0.54624 0.98942 0.0
H1663 H 0.2145 0.52418 0.02428 0.0
H1664 H 0.10204 0.55378 0.01674 0.0
H1665 H 0.13003 0.5987 0.04024 0.0
H1666 H 0.07885 0.57503 0.00616 0.0
H1667 H 0.10645 0.6192 0.02901 0.0
H1668 H 0.09487 0.5003 0.01321 0.0
H1669 H 0.14945 0.48444 0.0056 0.0
H1670 H 0.20973 0.60084 0.0402 0.0
H1671 H 0.17209 0.60759 0.9966 0.0
Li1672 Li 0.70038 0.90322 0.32612 0.0
Li1673 Li 0.68421 0.90792 0.29814 0.0
Li1674 Li 0.68863 0.87677 0.31176 0.0
Li1675 Li 0.71283 0.89336 0.29856 0.0
C1676 C 0.66362 0.90592 0.33319 0.0
N1677 N 0.64013 0.92232 0.35671 0.0
C1678 C 0.65863 0.92393 0.33058 0.0
C1679 C 0.6563 0.89613 0.34753 0.0
C1680 C 0.64685 0.93202 0.34269 0.0
C1681 C 0.64455 0.90469 0.35933 0.0
C1682 C 0.72211 0.92801 0.30977 0.0
C1683 C 0.7372 0.95636 0.31463 0.0
N1684 N 0.75148 0.94725 0.32114 0.0
C1685 C 0.73695 0.91894 0.31656 0.0
C1686 C 0.72224 0.94689 0.30884 0.0
C1687 C 0.75166 0.9289 0.3222 0.0
C1688 C 0.72009 0.91026 0.35819 0.0
N1689 N 0.70648 0.91592 0.34758 0.0
C1690 C 0.70835 0.9457 0.35985 0.0
C1691 C 0.7002 0.93311 0.34862 0.0
C1692 C 0.72332 0.9406 0.36983 0.0
C1693 C 0.72866 0.92242 0.3696 0.0
H1694 H 0.72556 0.89691 0.35656 0.0
H1695 H 0.69016 0.93763 0.33932 0.0
C1696 C 0.65423 0.91539 0.27682 0.0
N1697 N 0.66895 0.92268 0.28444 0.0
C1698 C 0.64331 0.92598 0.26588 0.0
C1699 C 0.66288 0.95134 0.27105 0.0
C1700 C 0.67341 0.94026 0.28183 0.0
C1701 C 0.64767 0.9442 0.26278 0.0
H1702 H 0.65115 0.90128 0.27905 0.0
H1703 H 0.68522 0.94562 0.28805 0.0
C1704 C 0.7148 0.86923 0.33649 0.0
N1705 N 0.71855 0.84763 0.3667 0.0
C1706 C 0.73007 0.85882 0.33879 0.0
C1707 C 0.70144 0.86863 0.34952 0.0
C1708 C 0.73173 0.84799 0.35416 0.0
C1709 C 0.70358 0.85765 0.36471 0.0
C1710 C 0.69675 0.88089 0.26948 0.0
C1711 C 0.70252 0.86339 0.26552 0.0
C1712 C 0.69769 0.89433 0.25624 0.0
C1713 C 0.70938 0.85967 0.24838 0.0
C1714 C 0.70462 0.89006 0.23926 0.0
N1715 N 0.7103 0.87297 0.23572 0.0
C1716 C 0.66077 0.85187 0.31642 0.0
C1717 C 0.68915 0.83923 0.311 0.0
C1718 C 0.65292 0.83485 0.31498 0.0
N1719 N 0.67849 0.85371 0.31395 0.0
C1720 C 0.68188 0.82201 0.30939 0.0
C1721 C 0.66345 0.81974 0.31078 0.0
H1722 H 0.65266 0.86371 0.31864 0.0
H1723 H 0.70319 0.84123 0.30892 0.0
C1724 C 0.73805 0.90346 0.27222 0.0
N1725 N 0.73328 0.89023 0.28399 0.0
C1726 C 0.75115 0.9002 0.25935 0.0
C1727 C 0.7547 0.87008 0.27154 0.0
C1728 C 0.74156 0.87394 0.28421 0.0
C1729 C 0.75931 0.88315 0.25857 0.0
H1730 H 0.73107 0.91623 0.27227 0.0
H1731 H 0.73724 0.86362 0.29358 0.0
O1732 O 0.67488 0.89766 0.32125 0.0
O1733 O 0.70713 0.91862 0.30512 0.0
O1734 O 0.71292 0.87967 0.32136 0.0
O1735 O 0.69061 0.88498 0.28638 0.0
H1736 H 0.66396 0.93169 0.31947 0.0
H1737 H 0.65949 0.88201 0.34946 0.0
H1738 H 0.64305 0.946 0.34092 0.0
H1739 H 0.63886 0.89729 0.37053 0.0
H1740 H 0.73742 0.97097 0.31407 0.0
H1741 H 0.73706 0.9044 0.31779 0.0
H1742 H 0.71081 0.95421 0.30397 0.0
H1743 H 0.76317 0.92205 0.32755 0.0
H1744 H 0.70383 0.9596 0.35966 0.0
H1745 H 0.74038 0.91801 0.37678 0.0
H1746 H 0.63183 0.91987 0.25959 0.0
H1747 H 0.66659 0.96537 0.26925 0.0
H1748 H 0.74052 0.85909 0.32878 0.0
H1749 H 0.68964 0.87666 0.34794 0.0
H1750 H 0.74348 0.83986 0.35613 0.0
H1751 H 0.69334 0.85709 0.37492 0.0
H1752 H 0.70193 0.85286 0.27564 0.0
H1753 H 0.69338 0.90798 0.25913 0.0
H1754 H 0.71404 0.84622 0.24516 0.0
H1755 H 0.70558 0.90035 0.22892 0.0
H1756 H 0.63869 0.83366 0.31633 0.0
H1757 H 0.69047 0.81082 0.30588 0.0
H1758 H 0.75442 0.9107 0.24971 0.0
H1759 H 0.76044 0.85667 0.27126 0.0
Li1760 Li 0.34963 0.45514 0.57145 0.0
Li1761 Li 0.37351 0.43855 0.55928 0.0
Li1762 Li 0.36193 0.46476 0.54243 0.0
Li1763 Li 0.34439 0.43523 0.54597 0.0
C1764 C 0.3826 0.47777 0.57431 0.0
N1765 N 0.40077 0.50541 0.59124 0.0
C1766 C 0.3959 0.47381 0.58683 0.0
C1767 C 0.37864 0.49579 0.57029 0.0
C1768 C 0.4049 0.48798 0.59528 0.0
C1769 C 0.38795 0.50957 0.57903 0.0
C1770 C 0.35585 0.42157 0.58752 0.0
C1771 C 0.35465 0.39772 0.6097 0.0
N1772 N 0.36437 0.40806 0.62122 0.0
C1773 C 0.36579 0.43197 0.59959 0.0
C1774 C 0.35019 0.40433 0.59261 0.0
C1775 C 0.36997 0.4249 0.61656 0.0
C1776 C 0.32063 0.45916 0.59408 0.0
N1777 N 0.33749 0.46507 0.59162 0.0
C1778 C 0.33178 0.49153 0.60897 0.0
C1779 C 0.34353 0.48027 0.59985 0.0
C1780 C 0.31372 0.48705 0.60948 0.0
C1781 C 0.30835 0.47009 0.60297 0.0
H1782 H 0.31622 0.44698 0.58734 0.0
H1783 H 0.35704 0.48452 0.5981 0.0
C1784 C 0.4098 0.43634 0.55764 0.0
N1785 N 0.3954 0.42664 0.56274 0.0
C1786 C 0.426 0.42778 0.555 0.0
C1787 C 0.4126 0.39965 0.56448 0.0
C1788 C 0.39654 0.40875 0.56672 0.0
C1789 C 0.42744 0.40903 0.55779 0.0
H1790 H 0.40833 0.45046 0.55416 0.0
H1791 H 0.38477 0.40131 0.57042 0.0
C1792 C 0.32231 0.47088 0.55251 0.0
N1793 N 0.29295 0.49145 0.56111 0.0
C1794 C 0.30544 0.46312 0.55228 0.0
C1795 C 0.32423 0.48914 0.55696 0.0
C1796 C 0.29077 0.47373 0.55673 0.0
C1797 C 0.30923 0.49931 0.56128 0.0
C1798 C 0.37871 0.42862 0.52504 0.0
C1799 C 0.39364 0.43554 0.51629 0.0
C1800 C 0.37623 0.40993 0.52612 0.0
C1801 C 0.40603 0.42357 0.50896 0.0
C1802 C 0.38893 0.39842 0.51862 0.0
N1803 N 0.40345 0.40542 0.5103 0.0
C1804 C 0.3838 0.48897 0.52358 0.0
C1805 C 0.35305 0.49235 0.51804 0.0
C1806 C 0.38767 0.50261 0.51117 0.0
N1807 N 0.36674 0.48404 0.52658 0.0
C1808 C 0.3563 0.50616 0.50566 0.0
C1809 C 0.37382 0.51127 0.50185 0.0
H1810 H 0.39439 0.48203 0.53057 0.0
H1811 H 0.33962 0.48803 0.52062 0.0
C1812 C 0.31518 0.41138 0.54198 0.0
N1813 N 0.32822 0.42064 0.53336 0.0
C1814 C 0.30255 0.40188 0.53196 0.0
C1815 C 0.31734 0.41142 0.50456 0.0
C1816 C 0.32958 0.42078 0.51507 0.0
C1817 C 0.30352 0.40193 0.51299 0.0
H1818 H 0.31441 0.4117 0.55658 0.0
H1819 H 0.33998 0.4285 0.50864 0.0
O1820 O 0.37378 0.46405 0.56579 0.0
O1821 O 0.35167 0.42808 0.57075 0.0
O1822 O 0.33685 0.46065 0.54839 0.0
O1823 O 0.36679 0.44008 0.53294 0.0
H1824 H 0.39926 0.45994 0.58999 0.0
H1825 H 0.36844 0.49912 0.56061 0.0
H1826 H 0.4152 0.48511 0.60503 0.0
H1827 H 0.38497 0.52357 0.57609 0.0
H1828 H 0.35039 0.38438 0.61381 0.0
H1829 H 0.37018 0.44536 0.59595 0.0
H1830 H 0.34248 0.39611 0.5834 0.0
H1831 H 0.37767 0.4328 0.62602 0.0
H1832 H 0.33651 0.50428 0.61432 0.0
H1833 H 0.29455 0.46611 0.60309 0.0
H1834 H 0.43685 0.43559 0.54949 0.0
H1835 H 0.41313 0.38525 0.56705 0.0
H1836 H 0.30372 0.44902 0.54884 0.0
H1837 H 0.33717 0.49537 0.55719 0.0
H1838 H 0.27764 0.46787 0.55672 0.0
H1839 H 0.31053 0.51343 0.56479 0.0
H1840 H 0.39575 0.44997 0.51539 0.0
H1841 H 0.36478 0.40439 0.53296 0.0
H1842 H 0.41774 0.42871 0.50229 0.0
H1843 H 0.38729 0.38392 0.51951 0.0
H1844 H 0.4014 0.50582 0.50844 0.0
H1845 H 0.34521 0.51255 0.49892 0.0
H1846 H 0.29213 0.39464 0.53895 0.0
H1847 H 0.3184 0.41204 0.48998 0.0
Li1848 Li 0.18842 0.62097 0.68119 0.0
Li1849 Li 0.21136 0.61037 0.70088 0.0
Li1850 Li 0.20372 0.59383 0.67331 0.0
Li1851 Li 0.18256 0.59386 0.69932 0.0
C1852 C 0.22133 0.63061 0.66455 0.0
N1853 N 0.23667 0.65571 0.64177 0.0
C1854 C 0.23126 0.64488 0.67167 0.0
C1855 C 0.21955 0.62887 0.64584 0.0
C1856 C 0.2388 0.6575 0.65993 0.0
C1857 C 0.22731 0.64176 0.63454 0.0
C1858 C 0.18222 0.63469 0.71471 0.0
C1859 C 0.15902 0.65422 0.72565 0.0
N1860 N 0.17098 0.66783 0.72754 0.0
C1861 C 0.19431 0.64885 0.71682 0.0
C1862 C 0.16442 0.63739 0.71909 0.0
C1863 C 0.18835 0.66552 0.72327 0.0
C1864 C 0.15859 0.64159 0.67295 0.0
N1865 N 0.17653 0.64254 0.67406 0.0
C1866 C 0.17542 0.67469 0.67624 0.0
C1867 C 0.18505 0.65869 0.67479 0.0
C1868 C 0.15686 0.67397 0.67715 0.0
C1869 C 0.14842 0.65728 0.67435 0.0
H1870 H 0.15214 0.62854 0.67279 0.0
H1871 H 0.19921 0.65913 0.67637 0.0
C1872 C 0.247 0.61721 0.71072 0.0
N1873 N 0.23007 0.61592 0.71682 0.0
C1874 C 0.26077 0.62085 0.72279 0.0
C1875 C 0.23933 0.62155 0.74708 0.0
C1876 C 0.22603 0.61791 0.73458 0.0
C1877 C 0.25698 0.62306 0.74125 0.0
H1878 H 0.24979 0.61528 0.69651 0.0
H1879 H 0.21243 0.61665 0.73899 0.0
C1880 C 0.17117 0.59512 0.65608 0.0
N1881 N 0.15873 0.5892 0.62147 0.0
C1882 C 0.16136 0.57959 0.65217 0.0
C1883 C 0.17445 0.60775 0.64245 0.0
C1884 C 0.15525 0.5768 0.63457 0.0
C1885 C 0.1681 0.60449 0.62503 0.0
C1886 C 0.21828 0.57648 0.70984 0.0
C1887 C 0.23552 0.5723 0.70439 0.0
C1888 C 0.21321 0.5737 0.72779 0.0
C1889 C 0.24748 0.56549 0.71708 0.0
C1890 C 0.22557 0.56686 0.74006 0.0
N1891 N 0.2423 0.56294 0.7345 0.0
C1892 C 0.23156 0.58204 0.65264 0.0
C1893 C 0.20681 0.56233 0.65196 0.0
C1894 C 0.24218 0.56899 0.64455 0.0
N1895 N 0.21438 0.57836 0.65649 0.0
C1896 C 0.21692 0.54889 0.64362 0.0
C1897 C 0.23503 0.55194 0.64038 0.0
H1898 H 0.2374 0.59459 0.65716 0.0
H1899 H 0.19331 0.55952 0.65587 0.0
C1900 C 0.1606 0.58567 0.7289 0.0
N1901 N 0.16665 0.57966 0.7127 0.0
C1902 C 0.14983 0.57464 0.73952 0.0
C1903 C 0.15179 0.55146 0.71654 0.0
C1904 C 0.16249 0.56297 0.70635 0.0
C1905 C 0.14542 0.55721 0.73343 0.0
H1906 H 0.16445 0.59889 0.73373 0.0
H1907 H 0.16784 0.55847 0.69356 0.0
O1908 O 0.21415 0.61795 0.67586 0.0
O1909 O 0.18779 0.61827 0.70838 0.0
O1910 O 0.17729 0.59799 0.67324 0.0
O1911 O 0.20657 0.58374 0.69778 0.0
H1912 H 0.23293 0.6463 0.68613 0.0
H1913 H 0.21246 0.61755 0.64006 0.0
H1914 H 0.24637 0.66872 0.66526 0.0
H1915 H 0.22598 0.64061 0.62003 0.0
H1916 H 0.1453 0.65647 0.72921 0.0
H1917 H 0.2081 0.64705 0.71329 0.0
H1918 H 0.15486 0.62663 0.71739 0.0
H1919 H 0.19753 0.67663 0.72485 0.0
H1920 H 0.18251 0.68718 0.67868 0.0
H1921 H 0.13413 0.65616 0.67484 0.0
H1922 H 0.27421 0.62177 0.71778 0.0
H1923 H 0.23576 0.62345 0.76113 0.0
H1924 H 0.15859 0.56974 0.6626 0.0
H1925 H 0.18171 0.62 0.64531 0.0
H1926 H 0.14773 0.56479 0.63133 0.0
H1927 H 0.17058 0.61415 0.61434 0.0
H1928 H 0.23967 0.5745 0.69057 0.0
H1929 H 0.19996 0.577 0.73224 0.0
H1930 H 0.26089 0.56229 0.71309 0.0
H1931 H 0.22187 0.56473 0.75403 0.0
H1932 H 0.25612 0.57187 0.64279 0.0
H1933 H 0.21083 0.53601 0.64053 0.0
H1934 H 0.14508 0.57967 0.75238 0.0
H1935 H 0.14895 0.53803 0.71147 0.0
Li1936 Li 0.64084 0.96229 0.95001 0.0
Li1937 Li 0.65841 0.93326 0.94312 0.0
Li1938 Li 0.65282 0.95644 0.92017 0.0
Li1939 Li 0.62929 0.9388 0.9305 0.0
C1940 C 0.67893 0.97133 0.93958 0.0
N1941 N 0.70468 0.99622 0.93037 0.0
C1942 C 0.69565 0.96548 0.93399 0.0
C1943 C 0.67535 0.98984 0.94064 0.0
C1944 C 0.70848 0.97827 0.92933 0.0
C1945 C 0.68854 0.00221 0.9359 0.0
C1946 C 0.62196 0.9278 0.96415 0.0
C1947 C 0.60672 0.90003 0.97126 0.0
N1948 N 0.59315 0.90974 0.97845 0.0
C1949 C 0.60793 0.93749 0.97177 0.0
C1950 C 0.62143 0.90891 0.96402 0.0
C1951 C 0.59346 0.92811 0.97887 0.0
C1952 C 0.62086 0.98873 0.96844 0.0
N1953 N 0.63641 0.97953 0.96814 0.0
C1954 C 0.64601 0.99403 0.99521 0.0
C1955 C 0.649 0.98204 0.98099 0.0
C1956 C 0.62982 0.00334 0.99628 0.0
C1957 C 0.61723 0.00074 0.98251 0.0
H1958 H 0.6111 0.98635 0.958 0.0
H1959 H 0.66128 0.97455 0.98029 0.0
C1960 C 0.69044 0.91329 0.94523 0.0
N1961 N 0.67494 0.91728 0.95368 0.0
C1962 C 0.70315 0.90268 0.95396 0.0
C1963 C 0.6833 0.89995 0.97948 0.0
C1964 C 0.67114 0.91082 0.97041 0.0
C1965 C 0.69963 0.89598 0.97134 0.0
H1966 H 0.69303 0.9186 0.93187 0.0
H1967 H 0.65881 0.91443 0.97688 0.0
C1968 C 0.61989 0.97026 0.91132 0.0
N1969 N 0.60165 0.98007 0.88049 0.0
C1970 C 0.61961 0.95877 0.89635 0.0
C1971 C 0.61087 0.98673 0.91064 0.0
C1972 C 0.61032 0.96396 0.88089 0.0
C1973 C 0.60173 0.99146 0.89493 0.0
C1974 C 0.64931 0.9135 0.90958 0.0
C1975 C 0.64662 0.91241 0.89092 0.0
C1976 C 0.65094 0.89762 0.91969 0.0
C1977 C 0.64517 0.89544 0.88276 0.0
C1978 C 0.64944 0.88091 0.91103 0.0
N1979 N 0.64659 0.88018 0.8929 0.0
C1980 C 0.67797 0.96017 0.89268 0.0
C1981 C 0.66119 0.98655 0.899 0.0
C1982 C 0.68994 0.97019 0.88239 0.0
N1983 N 0.66435 0.96861 0.90119 0.0
C1984 C 0.6728 0.99707 0.88886 0.0
C1985 C 0.68778 0.989 0.88105 0.0
H1986 H 0.68032 0.94594 0.89506 0.0
H1987 H 0.6505 0.99294 0.90631 0.0
C1988 C 0.59273 0.93851 0.93041 0.0
N1989 N 0.60672 0.92783 0.92598 0.0
C1990 C 0.57603 0.93098 0.9331 0.0
C1991 C 0.58802 0.9018 0.92507 0.0
C1992 C 0.60453 0.90991 0.92251 0.0
C1993 C 0.57374 0.91224 0.93131 0.0
H1994 H 0.59485 0.9526 0.93359 0.0
H1995 H 0.61574 0.90156 0.91926 0.0
O1996 O 0.66601 0.95901 0.94364 0.0
O1997 O 0.63603 0.93679 0.9567 0.0
O1998 O 0.62895 0.96552 0.92662 0.0
O1999 O 0.65116 0.93002 0.91768 0.0
H2000 H 0.69862 0.95122 0.93302 0.0
H2001 H 0.66243 0.99461 0.94476 0.0
H2002 H 0.72142 0.97394 0.92483 0.0
H2003 H 0.68591 0.01657 0.93651 0.0
H2004 H 0.60607 0.88543 0.97109 0.0
H2005 H 0.6081 0.9521 0.97197 0.0
H2006 H 0.63217 0.90119 0.95822 0.0
H2007 H 0.58244 0.93545 0.98465 0.0
H2008 H 0.65619 0.9958 0.00536 0.0
H2009 H 0.60447 0.00741 0.98293 0.0
H2010 H 0.7156 0.89982 0.94727 0.0
H2011 H 0.68023 0.89521 0.99297 0.0
H2012 H 0.62642 0.94596 0.89671 0.0
H2013 H 0.61098 0.99578 0.92214 0.0
H2014 H 0.60999 0.95518 0.8692 0.0
H2015 H 0.59471 0.00418 0.8942 0.0
H2016 H 0.64578 0.92453 0.88278 0.0
H2017 H 0.65312 0.89812 0.93409 0.0
H2018 H 0.64301 0.89441 0.86834 0.0
H2019 H 0.65053 0.86853 0.91872 0.0
H2020 H 0.70142 0.96352 0.87671 0.0
H2021 H 0.67063 0.01152 0.88797 0.0
H2022 H 0.5655 0.93952 0.93818 0.0
H2023 H 0.58676 0.88732 0.92337 0.0
Li2024 Li 0.84853 0.03652 0.45729 0.0
Li2025 Li 0.83116 0.06636 0.45333 0.0
Li2026 Li 0.83461 0.04501 0.42875 0.0
Li2027 Li 0.8594 0.06175 0.43824 0.0
C2028 C 0.80886 0.03006 0.44898 0.0
N2029 N 0.78031 0.00822 0.44079 0.0
C2030 C 0.79214 0.03766 0.44624 0.0
C2031 C 0.81106 0.01134 0.44765 0.0
C2032 C 0.77787 0.02639 0.44206 0.0
C2033 C 0.79645 0.00053 0.44349 0.0
C2034 C 0.86783 0.07153 0.47225 0.0
C2035 C 0.88112 0.10035 0.47919 0.0
N2036 N 0.89534 0.09167 0.48639 0.0
C2037 C 0.88252 0.06289 0.47982 0.0
C2038 C 0.86708 0.09041 0.47196 0.0
C2039 C 0.89632 0.07332 0.48685 0.0
C2040 C 0.87068 0.01096 0.47425 0.0
N2041 N 0.85404 0.01791 0.47374 0.0
C2042 C 0.84471 0.99831 0.49753 0.0
C2043 C 0.84111 0.01192 0.48502 0.0
C2044 C 0.86183 0.99094 0.49853 0.0
C2045 C 0.87488 0.99738 0.4866 0.0
H2046 H 0.8807 0.01613 0.46517 0.0
H2047 H 0.82802 0.0178 0.48434 0.0
C2048 C 0.80145 0.08936 0.45828 0.0
N2049 N 0.8164 0.08257 0.46596 0.0
C2050 C 0.7905 0.10099 0.46814 0.0
C2051 C 0.81086 0.09871 0.49328 0.0
C2052 C 0.82118 0.08688 0.48312 0.0
C2053 C 0.7953 0.10583 0.4858 0.0
H2054 H 0.79801 0.08564 0.44459 0.0
H2055 H 0.83297 0.08103 0.48897 0.0
C2056 C 0.86757 0.02294 0.42335 0.0
N2057 N 0.88581 0.99681 0.4042 0.0
C2058 C 0.8788 0.02791 0.40917 0.0
C2059 C 0.86585 0.00469 0.42796 0.0
C2060 C 0.88784 0.01449 0.3996 0.0
C2061 C 0.8751 0.99169 0.41806 0.0
C2062 C 0.8401 0.07826 0.41079 0.0
C2063 C 0.84788 0.06717 0.39775 0.0
C2064 C 0.83544 0.09599 0.40635 0.0
C2065 C 0.85099 0.07403 0.38046 0.0
C2066 C 0.83877 0.10237 0.3889 0.0
N2067 N 0.84641 0.09135 0.37642 0.0
C2068 C 0.80653 0.04332 0.40395 0.0
C2069 C 0.82409 0.0168 0.40561 0.0
C2070 C 0.79336 0.03401 0.39451 0.0
N2071 N 0.82117 0.03439 0.40986 0.0
C2072 C 0.81132 0.007 0.3963 0.0
C2073 C 0.79542 0.01543 0.39141 0.0
H2074 H 0.80439 0.05723 0.40791 0.0
H2075 H 0.83552 0.00988 0.4108 0.0
C2076 C 0.89593 0.06429 0.43702 0.0
N2077 N 0.88096 0.07361 0.43298 0.0
C2078 C 0.91179 0.07349 0.43979 0.0
C2079 C 0.89688 0.10143 0.43229 0.0
C2080 C 0.88124 0.09169 0.42977 0.0
C2081 C 0.91214 0.09244 0.43842 0.0
H2082 H 0.89515 0.05 0.43997 0.0
H2083 H 0.86904 0.09881 0.42703 0.0
O2084 O 0.82304 0.04088 0.45286 0.0
O2085 O 0.85431 0.06157 0.46502 0.0
O2086 O 0.85894 0.0359 0.43319 0.0
O2087 O 0.83702 0.07194 0.42788 0.0
H2088 H 0.79023 0.05211 0.4472 0.0
H2089 H 0.82395 0.00526 0.44957 0.0
H2090 H 0.76488 0.03209 0.43979 0.0
H2091 H 0.79797 0.98604 0.44231 0.0
H2092 H 0.88076 0.11496 0.47898 0.0
H2093 H 0.88331 0.0483 0.48011 0.0
H2094 H 0.85586 0.09731 0.46602 0.0
H2095 H 0.90783 0.06682 0.49263 0.0
H2096 H 0.83423 0.99367 0.50638 0.0
H2097 H 0.88834 0.99235 0.48714 0.0
H2098 H 0.77855 0.10627 0.46201 0.0
H2099 H 0.81481 0.102 0.50697 0.0
H2100 H 0.88064 0.04198 0.40565 0.0
H2101 H 0.85725 0.00059 0.43891 0.0
H2102 H 0.89653 0.01815 0.38857 0.0
H2103 H 0.87378 0.97751 0.4214 0.0
H2104 H 0.85135 0.05338 0.40089 0.0
H2105 H 0.82938 0.10474 0.41631 0.0
H2106 H 0.857 0.06558 0.37023 0.0
H2107 H 0.83527 0.11608 0.38528 0.0
H2108 H 0.78116 0.04087 0.39102 0.0
H2109 H 0.81332 0.99267 0.39403 0.0
H2110 H 0.92311 0.066 0.44475 0.0
H2111 H 0.89663 0.116 0.43089 0.0
H2112 H 0.12815 0.21263 0.51225 0.0
H2113 H 0.0757 0.21965 0.49044 0.0
H2114 H 0.08613 0.24446 0.47138 0.0
H2115 H 0.11043 0.26301 0.45991 0.0
H2116 H 0.16358 0.25363 0.47943 0.0
H2117 H 0.15252 0.23145 0.50082 0.0
C2118 C 0.11905 0.21975 0.50341 0.0
C2119 C 0.10128 0.2144 0.50258 0.0
C2120 C 0.12523 0.23366 0.49219 0.0
C2121 C 0.08951 0.22354 0.49108 0.0
C2122 C 0.09545 0.23771 0.48025 0.0
C2123 C 0.11964 0.25608 0.46874 0.0
C2124 C 0.13782 0.26009 0.46795 0.0
C2125 C 0.11334 0.24268 0.48048 0.0
C2126 C 0.14946 0.25119 0.47988 0.0
C2127 C 0.14319 0.23828 0.49202 0.0
H2128 H 0.98692 0.87319 0.71824 0.0
H2129 H 0.02561 0.88916 0.67838 0.0
H2130 H 0.04952 0.88151 0.69911 0.0
H2131 H 0.05947 0.87064 0.72856 0.0
H2132 H 0.02096 0.85343 0.76812 0.0
H2133 H 0.99697 0.86208 0.74784 0.0
C2134 C 0.0006 0.87498 0.71413 0.0
C2135 C 0.00449 0.88153 0.69675 0.0
C2136 C 0.01431 0.87071 0.72618 0.0
C2137 C 0.02226 0.88373 0.69154 0.0
C2138 C 0.03595 0.87958 0.70346 0.0
C2139 C 0.04583 0.86871 0.73274 0.0
C2140 C 0.04207 0.86145 0.74986 0.0
C2141 C 0.03212 0.87309 0.7208 0.0
C2142 C 0.02429 0.85933 0.75517 0.0
C2143 C 0.01054 0.86404 0.74348 0.0
H2144 H 0.35028 0.7413 0.97347 0.0
H2145 H 0.39884 0.7366 0.94319 0.0
H2146 H 0.41372 0.75681 0.96455 0.0
H2147 H 0.41238 0.77691 0.99075 0.0
H2148 H 0.36355 0.78278 0.02042 0.0
H2149 H 0.34911 0.76106 0.00019 0.0
C2150 C 0.3642 0.74449 0.97178 0.0
C2151 C 0.37357 0.73743 0.95697 0.0
C2152 C 0.37247 0.75643 0.98381 0.0
C2153 C 0.39147 0.7419 0.95458 0.0
C2154 C 0.39992 0.75345 0.96673 0.0
C2155 C 0.39864 0.77323 0.99294 0.0
C2156 C 0.38904 0.78127 0.00709 0.0
C2157 C 0.39048 0.76095 0.98123 0.0
C2158 C 0.37115 0.77677 0.00955 0.0
C2159 C 0.36294 0.76433 0.99806 0.0
H2160 H 0.47959 0.09083 0.20484 0.0
H2161 H 0.51747 0.13277 0.21683 0.0
H2162 H 0.49863 0.14368 0.24149 0.0
H2163 H 0.47075 0.14212 0.25844 0.0
H2164 H 0.43281 0.10025 0.24623 0.0
H2165 H 0.45243 0.08833 0.22279 0.0
C2166 C 0.48363 0.10245 0.21278 0.0
C2167 C 0.49969 0.11121 0.20891 0.0
C2168 C 0.47282 0.10852 0.2269 0.0
C2169 C 0.50507 0.12592 0.21956 0.0
C2170 C 0.49434 0.13212 0.23363 0.0
C2171 C 0.46694 0.13015 0.25092 0.0
C2172 C 0.45038 0.12204 0.25404 0.0
C2173 C 0.47814 0.12358 0.23732 0.0
C2174 C 0.44548 0.10674 0.24398 0.0
C2175 C 0.45665 0.09997 0.23057 0.0
H2176 H 0.64818 0.24461 0.52884 0.0
H2177 H 0.60078 0.25348 0.56003 0.0
H2178 H 0.58883 0.27273 0.53597 0.0
H2179 H 0.59256 0.28795 0.50668 0.0
H2180 H 0.641 0.28122 0.47671 0.0
H2181 H 0.6521 0.26014 0.49974 0.0
C2182 C 0.63516 0.25061 0.53021 0.0
C2183 C 0.62522 0.24757 0.54598 0.0
C2184 C 0.62872 0.26207 0.51666 0.0
C2185 C 0.60852 0.25563 0.5479 0.0
C2186 C 0.60176 0.26662 0.53421 0.0
C2187 C 0.60549 0.28171 0.50522 0.0
C2188 C 0.61599 0.28583 0.49013 0.0
C2189 C 0.61183 0.27007 0.51865 0.0
C2190 C 0.6328 0.27806 0.4883 0.0
C2191 C 0.63907 0.26606 0.5014 0.0
H2192 H 0.96998 0.34328 0.75317 0.0
H2193 H 0.95516 0.39543 0.73186 0.0
H2194 H 0.97758 0.40997 0.7508 0.0
H2195 H -2e-05 0.40792 0.77464 0.0
H2196 H 0.01439 0.35586 0.79642 0.0
H2197 H 0.99353 0.34108 0.77584 0.0
C2198 C 0.9719 0.3578 0.75241 0.0
C2199 C 0.96101 0.36829 0.74111 0.0
C2200 C 0.98463 0.36602 0.76343 0.0
C2201 C 0.96334 0.38711 0.74055 0.0
C2202 C 0.97616 0.3954 0.75133 0.0
C2203 C -0.00117 0.3933 0.77461 0.0
C2204 C 0.00875 0.38294 0.78692 0.0
C2205 C 0.98669 0.38499 0.76298 0.0
C2206 C 0.00682 0.36407 0.78708 0.0
C2207 C 0.99494 0.35565 0.77533 0.0
H2208 H 0.85268 0.7666 0.02323 0.0
H2209 H 0.8952 0.7544 0.06026 0.0
H2210 H 0.9058 0.73069 0.04 0.0
H2211 H 0.90129 0.71173 0.01329 0.0
H2212 H 0.85918 0.72393 0.97596 0.0
H2213 H 0.85001 0.74955 0.99487 0.0
C2214 C 0.86454 0.75909 0.02667 0.0
C2215 C 0.87306 0.76214 0.04332 0.0
C2216 C 0.87039 0.74534 0.01509 0.0
C2217 C 0.8883 0.75215 0.04763 0.0
C2218 C 0.89433 0.73858 0.03609 0.0
C2219 C 0.89014 0.72006 0.0093 0.0
C2220 C 0.88067 0.71588 0.99352 0.0
C2221 C 0.88515 0.73472 0.02009 0.0
C2222 C 0.8665 0.7269 0.98819 0.0
C2223 C 0.86131 0.7415 -0.00103 0.0
H2224 H 0.52939 0.63605 0.23488 0.0
H2225 H 0.56656 0.59558 0.25299 0.0
H2226 H 0.5459 0.58615 0.27658 0.0
H2227 H 0.51796 0.59045 0.29292 0.0
H2228 H 0.4804 0.63019 0.27447 0.0
H2229 H 0.50061 0.63901 0.25 0.0
C2230 C 0.53283 0.6249 0.24372 0.0
C2231 C 0.54951 0.61656 0.24224 0.0
C2232 C 0.52098 0.61969 0.25732 0.0
C2233 C 0.55385 0.6023 0.25398 0.0
C2234 C 0.54209 0.59695 0.26748 0.0
C2235 C 0.51434 0.60115 0.28359 0.0
C2236 C 0.49803 0.61001 0.28556 0.0
C2237 C 0.5258 0.60581 0.26949 0.0
C2238 C 0.49307 0.62345 0.27321 0.0
C2239 C 0.50456 0.62839 0.25925 0.0
H2240 H 0.22357 0.44294 0.13235 0.0
H2241 H 0.2653 0.48021 0.14679 0.0
H2242 H 0.24675 0.50558 0.13781 0.0
H2243 H 0.21841 0.51731 0.12641 0.0
H2244 H 0.17628 0.48003 0.11368 0.0
H2245 H 0.19497 0.45461 0.12241 0.0
C2246 C 0.2286 0.4566 0.13377 0.0
C2247 C 0.24589 0.45954 0.14018 0.0
C2248 C 0.21765 0.47119 0.12926 0.0
C2249 C 0.25222 0.4774 0.14151 0.0
C2250 C 0.24153 0.49199 0.13662 0.0
C2251 C 0.21333 0.50361 0.12568 0.0
C2252 C 0.19599 0.50054 0.11954 0.0
C2253 C 0.22419 0.48904 0.13058 0.0
C2254 C 0.18949 0.48276 0.1187 0.0
C2255 C 0.20023 0.4682 0.12347 0.0
H2256 H 0.70155 0.01951 0.89542 0.0
H2257 H 0.70627 0.98358 0.84974 0.0
H2258 H 0.7308 0.00169 0.83795 0.0
H2259 H 0.75056 0.02786 0.84054 0.0
H2260 H 0.74576 0.06385 0.88616 0.0
H2261 H 0.72133 0.04565 0.89803 0.0
C2262 C 0.70778 0.0158 0.88274 0.0
C2263 C 0.70202 0.00036 0.87334 0.0
C2264 C 0.72185 0.02621 0.87612 0.0
C2265 C 0.7105 0.99542 0.85719 0.0
C2266 C 0.72449 0.00576 0.85047 0.0
C2267 C 0.74433 0.03157 0.85322 0.0
C2268 C 0.75002 0.04707 0.86256 0.0
C2269 C 0.73029 0.02113 0.85986 0.0
C2270 C 0.74156 0.05198 0.87874 0.0
C2271 C 0.72763 0.04159 0.88551 0.0
H2272 H 0.73292 0.97264 0.35506 0.0
H2273 H 0.74045 0.93931 0.40234 0.0
H2274 H 0.76333 0.95997 0.41325 0.0
H2275 H 0.7824 0.98622 0.40827 0.0
H2276 H 0.77458 0.02006 0.36154 0.0
H2277 H 0.75027 0.00047 0.35145 0.0
C2278 C 0.73921 0.97014 0.368 0.0
C2279 C 0.73501 0.95446 0.37791 0.0
C2280 C 0.75237 0.98199 0.3741 0.0
C2281 C 0.74357 0.95121 0.39444 0.0
C2282 C 0.75664 0.96299 0.40065 0.0
C2283 C 0.77532 0.9893 0.3959 0.0
C2284 C 0.78033 0.0043 0.38546 0.0
C2285 C 0.76139 0.97816 0.39038 0.0
C2286 C 0.77093 0.00845 0.36965 0.0
C2287 C 0.7571 0.99729 0.36393 0.0
H2288 H 0.26332 0.55421 0.61779 0.0
H2289 H 0.2337 0.51616 0.65011 0.0
H2290 H 0.25523 0.49258 0.64322 0.0
H2291 H 0.28354 0.48323 0.6295 0.0
H2292 H 0.31376 0.52214 0.59883 0.0
H2293 H 0.29132 0.54506 0.6043 0.0
C2294 C 0.26159 0.5408 0.62344 0.0
C2295 C 0.24692 0.53706 0.6345 0.0
C2296 C 0.27435 0.52751 0.62006 0.0
C2297 C 0.2447 0.51943 0.64131 0.0
C2298 C 0.25714 0.50596 0.63758 0.0
C2299 C 0.28518 0.49674 0.62405 0.0
C2300 C 0.30041 0.50102 0.61401 0.0
C2301 C 0.27218 0.50994 0.62722 0.0
C2302 C 0.30237 0.51858 0.607 0.0
C2303 C 0.28945 0.53167 0.60993 0.0
H2304 H 0.30891 0.38101 0.48339 0.0
H2305 H 0.26764 0.40231 0.51762 0.0
H2306 H 0.24514 0.38861 0.49821 0.0
H2307 H 0.23725 0.37159 0.4709 0.0
H2308 H 0.27869 0.34976 0.4371 0.0
H2309 H 0.30105 0.36321 0.45665 0.0
C2310 C 0.29498 0.38269 0.48657 0.0
C2311 C 0.28994 0.39269 0.50188 0.0
C2312 C 0.28215 0.37492 0.47529 0.0
C2313 C 0.27186 0.39451 0.50601 0.0
C2314 C 0.259 0.38681 0.49484 0.0
C2315 C 0.25117 0.3696 0.46789 0.0
C2316 C 0.25623 0.35977 0.45244 0.0
C2317 C 0.264 0.3771 0.47937 0.0
C2318 C 0.27436 0.35758 0.44865 0.0
C2319 C 0.28719 0.36511 0.45993 0.0
H2320 H 0.9144 0.99887 0.71824 0.0
H2321 H 0.86646 0.98824 0.68834 0.0
H2322 H 0.84958 0.0067 0.70961 0.0
H2323 H 0.84854 0.02621 0.73632 0.0
H2324 H 0.89635 0.0369 0.76638 0.0
H2325 H 0.91323 0.01798 0.74541 0.0
C2326 C 0.90022 0.00044 0.71651 0.0
C2327 C 0.89169 0.99219 0.70175 0.0
C2328 C 0.89061 0.01108 0.72877 0.0
C2329 C 0.87336 0.9946 0.69949 0.0
C2330 C 0.8637 0.00508 0.71168 0.0
C2331 C 0.86261 0.02419 0.73844 0.0
C2332 C 0.87117 0.03283 0.75294 0.0
C2333 C 0.87219 0.01341 0.72632 0.0
C2334 C 0.88948 0.03045 0.75526 0.0
C2335 C 0.89912 0.0196 0.74332 0.0
H2336 H 0.25284 0.65385 0.98167 0.0
H2337 H 0.2333 0.62765 0.93359 0.0
H2338 H 0.21209 0.61042 0.95164 0.0
H2339 H 0.19895 0.60313 0.98088 0.0
H2340 H 0.2172 0.63043 0.02897 0.0
H2341 H 0.23935 0.64663 0.01117 0.0
C2342 C 0.24402 0.64424 0.97523 0.0
C2343 C 0.24456 0.64198 0.95638 0.0
C2344 C 0.23168 0.6346 0.98566 0.0
C2345 C 0.23298 0.62967 0.94808 0.0
C2346 C 0.2209 0.61982 0.95838 0.0
C2347 C 0.20759 0.6128 0.98748 0.0
C2348 C 0.20629 0.61562 0.00624 0.0
C2349 C 0.22004 0.6223 0.97714 0.0
C2350 C 0.21798 0.62786 0.01458 0.0
C2351 C 0.23059 0.63721 0.0044 0.0
H2352 H 0.59091 0.98725 0.21734 0.0
H2353 H 0.63825 0.01094 0.19484 0.0
H2354 H 0.65649 0.99185 0.21432 0.0
H2355 H 0.65894 0.96849 0.23772 0.0
H2356 H 0.61154 0.94552 0.26087 0.0
H2357 H 0.59334 0.96431 0.2411 0.0
C2358 C 0.60521 0.9884 0.21684 0.0
C2359 C 0.6132 0.00055 0.2047 0.0
C2360 C 0.61559 0.97748 0.22814 0.0
C2361 C 0.63177 0.00158 0.20395 0.0
C2362 C 0.6422 0.99074 0.21514 0.0
C2363 C 0.64462 0.96773 0.23859 0.0
C2364 C 0.63662 0.95564 0.25079 0.0
C2365 C 0.63425 0.97866 0.22729 0.0
C2366 C 0.61805 0.95457 0.25147 0.0
C2367 C 0.60763 0.96538 0.24025 0.0
H2368 H 0.76011 0.1614 0.53901 0.0
H2369 H 0.71588 0.12503 0.53243 0.0
H2370 H 0.73258 0.10769 0.51009 0.0
H2371 H 0.76055 0.1017 0.49387 0.0
H2372 H 0.80529 0.13685 0.50241 0.0
H2373 H 0.78768 0.15574 0.52273 0.0
C2374 C 0.75415 0.14958 0.53285 0.0
C2375 C 0.73681 0.14445 0.53756 0.0
C2376 C 0.76395 0.13943 0.52039 0.0
C2377 C 0.72915 0.12938 0.529 0.0
C2378 C 0.73873 0.11938 0.51629 0.0
C2379 C 0.76629 0.11365 0.50004 0.0
C2380 C 0.7841 0.11798 0.49672 0.0
C2381 C 0.75622 0.12415 0.51205 0.0
C2382 C 0.79158 0.13331 0.50488 0.0
C2383 C 0.78154 0.14406 0.51648 0.0
H2384 H 0.1478 0.5522 0.76975 0.0
H2385 H 0.11885 0.53455 0.72265 0.0
H2386 H 0.10128 0.51411 0.74134 0.0
H2387 H 0.094 0.50147 0.77101 0.0
H2388 H 0.122 0.52011 0.81833 0.0
H2389 H 0.14017 0.5399 0.79954 0.0
C2390 C 0.1375 0.54404 0.7636 0.0
C2391 C 0.13461 0.54495 0.74484 0.0
C2392 C 0.12735 0.53244 0.77443 0.0
C2393 C 0.12147 0.53398 0.73703 0.0
C2394 C 0.11136 0.52236 0.74771 0.0
C2395 C 0.10395 0.51 0.77726 0.0
C2396 C 0.10657 0.50934 0.79607 0.0
C2397 C 0.11417 0.52152 0.76642 0.0
C2398 C 0.11982 0.52018 0.80387 0.0
C2399 C 0.13013 0.5316 0.79315 0.0
H2400 H 0.69517 0.86419 0.98885 0.0
H2401 H 0.73421 0.90491 0.97669 0.0
H2402 H 0.75558 0.88977 0.99642 0.0
H2403 H 0.76219 0.86639 0.01899 0.0
H2404 H 0.72338 0.82496 0.03016 0.0
H2405 H 0.70279 0.83915 0.00918 0.0
C2406 C 0.70842 0.86963 0.99045 0.0
C2407 C 0.71312 0.88565 0.98149 0.0
C2408 C 0.72056 0.8609 0.00181 0.0
C2409 C 0.73036 0.89251 0.98341 0.0
C2410 C 0.74252 0.88393 0.99478 0.0
C2411 C 0.74938 0.86023 0.01661 0.0
C2412 C 0.7443 0.84477 0.02643 0.0
C2413 C 0.73765 0.8683 0.00429 0.0
C2414 C 0.72752 0.83713 0.02321 0.0
C2415 C 0.71575 0.84515 0.01109 0.0
H2416 H 0.3484 0.44875 0.27081 0.0
H2417 H 0.37196 0.46927 0.22178 0.0
H2418 H 0.38828 0.49183 0.23918 0.0
H2419 H 0.39647 0.50512 0.2683 0.0
H2420 H 0.37419 0.48357 0.31752 0.0
H2421 H 0.35651 0.46219 0.3 0.0
C2422 C 0.35725 0.45804 0.26395 0.0
C2423 C 0.35905 0.45725 0.24504 0.0
C2424 C 0.3667 0.47087 0.27404 0.0
C2425 C 0.37025 0.46966 0.23631 0.0
C2426 C 0.37963 0.48252 0.24625 0.0
C2427 C 0.38782 0.49569 0.27522 0.0
C2428 C 0.38674 0.4959 0.29421 0.0
C2429 C 0.37803 0.48316 0.26512 0.0
C2430 C 0.37514 0.48385 0.30292 0.0
C2431 C 0.36515 0.4715 0.29292 0.0
H2432 H 0.51744 0.27965 0.37492 0.0
H2433 H 0.47521 0.30722 0.40305 0.0
H2434 H 0.45361 0.28678 0.38968 0.0
H2435 H 0.44658 0.26127 0.36984 0.0
H2436 H 0.48867 0.23295 0.34246 0.0
H2437 H 0.51054 0.2531 0.35625 0.0
C2438 C 0.50355 0.28108 0.37831 0.0
C2439 C 0.49801 0.29514 0.38983 0.0
C2440 C 0.49118 0.26904 0.37085 0.0
C2441 C 0.47988 0.29685 0.39388 0.0
C2442 C 0.46749 0.28504 0.38638 0.0
C2443 C 0.46055 0.25953 0.3669 0.0
C2444 C 0.46602 0.24573 0.3551 0.0
C2445 C 0.47298 0.27117 0.37478 0.0
C2446 C 0.48417 0.2434 0.35162 0.0
C2447 C 0.49664 0.25499 0.35939 0.0
H2448 H 0.97841 0.19208 0.62869 0.0
H2449 H 0.00325 0.2366 0.60089 0.0
H2450 H 0.98316 0.25785 0.61573 0.0
H2451 H 0.95801 0.26358 0.6358 0.0
H2452 H 0.93426 0.21919 0.665 0.0
H2453 H 0.9541 0.19803 0.64996 0.0
C2454 C 0.97939 0.20645 0.62591 0.0
C2455 C 0.99223 0.2128 0.61373 0.0
C2456 C 0.96786 0.21856 0.63454 0.0
C2457 C 0.99355 0.23144 0.61036 0.0
C2458 C 0.98201 0.24356 0.61875 0.0
C2459 C 0.95729 0.24933 0.63912 0.0
C2460 C 0.94451 0.24306 0.65148 0.0
C2461 C 0.96906 0.23725 0.63079 0.0
C2462 C 0.94365 0.22444 0.65527 0.0
C2463 C 0.95513 0.2123 0.6468 0.0
H2464 H 0.98694 0.72694 0.9028 0.0
H2465 H 0.00494 0.68019 0.87327 0.0
H2466 H 0.02602 0.69892 0.85653 0.0
H2467 H 0.03946 0.72835 0.85066 0.0
H2468 H 0.02316 0.77487 0.88175 0.0
H2469 H 0.00097 0.75654 0.89725 0.0
C2470 C 0.99541 0.72095 0.89257 0.0
C2471 C 0.99443 0.7023 0.88914 0.0
C2472 C 0.00773 0.73173 0.88331 0.0
C2473 C 0.00557 0.69455 0.87609 0.0
C2474 C 0.01757 0.70523 0.86655 0.0
C2475 C 0.03128 0.73449 0.86102 0.0
C2476 C 0.03312 0.75299 0.86508 0.0
C2477 C 0.01887 0.7238 0.87017 0.0
C2478 C 0.02196 0.76073 0.87819 0.0
C2479 C 0.00933 0.75023 0.88715 0.0
H2480 H 0.53601 0.75822 0.16158 0.0
H2481 H 0.53649 0.72184 0.11596 0.0
H2482 H 0.51606 0.74166 0.09977 0.0
H2483 H 0.49929 0.77001 0.09799 0.0
H2484 H 0.49954 0.80683 0.14322 0.0
H2485 H 0.51889 0.78632 0.16 0.0
C2486 C 0.53177 0.75467 0.14804 0.0
C2487 C 0.53787 0.7386 0.13997 0.0
C2488 C 0.52029 0.76627 0.13869 0.0
C2489 C 0.53189 0.73403 0.12257 0.0
C2490 C 0.52031 0.74542 0.11325 0.0
C2491 C 0.50339 0.77343 0.11162 0.0
C2492 C 0.49797 0.78989 0.11938 0.0
C2493 C 0.51455 0.76164 0.12112 0.0
C2494 C 0.50366 0.7943 0.13691 0.0
C2495 C 0.51466 0.78256 0.14652 0.0
H2496 H 0.19593 0.37124 0.32414 0.0
H2497 H 0.16694 0.33367 0.29071 0.0
H2498 H 0.18364 0.34369 0.26424 0.0
H2499 H 0.20944 0.35985 0.25177 0.0
H2500 H 0.23835 0.39702 0.28571 0.0
H2501 H 0.21857 0.39038 0.31089 0.0
C2502 C 0.19276 0.36559 0.31102 0.0
C2503 C 0.18035 0.35148 0.30954 0.0
C2504 C 0.20268 0.37109 0.29601 0.0
C2505 C 0.17665 0.34431 0.29233 0.0
C2506 C 0.18623 0.35 0.27719 0.0
C2507 C 0.21114 0.36682 0.26455 0.0
C2508 C 0.22555 0.37863 0.26698 0.0
C2509 C 0.19978 0.36285 0.27904 0.0
C2510 C 0.22762 0.38751 0.28364 0.0
C2511 C 0.21627 0.38381 0.29801 0.0
H2512 H 0.8828 0.96112 0.49516 0.0
H2513 H 0.85119 0.99069 0.53378 0.0
H2514 H 0.86129 0.97084 0.55792 0.0
H2515 H 0.88206 0.94799 0.56868 0.0
H2516 H 0.91548 0.9198 0.53075 0.0
H2517 H 0.90161 0.93609 0.50567 0.0
C2518 C 0.87806 0.96316 0.50885 0.0
C2519 C 0.86639 0.97749 0.51266 0.0
C2520 C 0.88428 0.95197 0.52279 0.0
C2521 C 0.86007 0.97971 0.53041 0.0
C2522 C 0.86593 0.96843 0.54427 0.0
C2523 C 0.88594 0.94499 0.55489 0.0
C2524 C 0.89981 0.93278 0.55155 0.0
C2525 C 0.8784 0.95486 0.54069 0.0
C2526 C 0.90486 0.92922 0.53362 0.0
C2527 C 0.89702 0.93861 0.51932 0.0
H2528 H 0.26128 0.60941 0.77499 0.0
H2529 H 0.28441 0.64687 0.73705 0.0
H2530 H 0.30513 0.65726 0.76018 0.0
H2531 H 0.31411 0.65829 0.79209 0.0
H2532 H 0.28863 0.62275 0.83044 0.0
H2533 H 0.27179 0.60881 0.80622 0.0
C2534 C 0.2709 0.61981 0.77177 0.0
C2535 C 0.27111 0.62756 0.75443 0.0
C2536 C 0.28241 0.62607 0.78523 0.0
C2537 C 0.28397 0.64066 0.75029 0.0
C2538 C 0.29575 0.6467 0.76355 0.0
C2539 C 0.30498 0.64739 0.79513 0.0
C2540 C 0.30263 0.64172 0.81314 0.0
C2541 C 0.2947 0.6399 0.78121 0.0
C2542 C 0.29099 0.62729 0.81675 0.0
C2543 C 0.28112 0.61943 0.80291 0.0
H2544 H 0.61176 0.03757 0.07183 0.0
H2545 H 0.58443 0.07604 0.03807 0.0
H2546 H 0.59609 0.06109 0.01102 0.0
H2547 H 0.61215 0.0356 0.99714 0.0
H2548 H 0.63779 0.99635 0.03154 0.0
H2549 H 0.62903 0.0134 0.05817 0.0
C2550 C 0.60871 0.04301 0.05858 0.0
C2551 C 0.59731 0.05794 0.05695 0.0
C2552 C 0.61508 0.03412 0.0432 0.0
C2553 C 0.59316 0.06454 0.03965 0.0
C2554 C 0.59978 0.05597 0.02421 0.0
C2555 C 0.61583 0.0308 0.01047 0.0
C2556 C 0.6256 0.01468 0.01228 0.0
C2557 C 0.61039 0.04047 0.02583 0.0
C2558 C 0.63051 0.00882 0.02966 0.0
C2559 C 0.62538 0.01849 0.04495 0.0
H2560 H 0.7078 0.1349 0.677 0.0
H2561 H 0.68415 0.17272 0.71429 0.0
H2562 H 0.70204 0.16031 0.73886 0.0
H2563 H 0.72684 0.14116 0.74876 0.0
H2564 H 0.74983 0.10302 0.71133 0.0
H2565 H 0.72956 0.1131 0.68778 0.0
C2566 C 0.70607 0.14008 0.69059 0.0
C2567 C 0.69471 0.15482 0.69374 0.0
C2568 C 0.7165 0.13303 0.70457 0.0
C2569 C 0.69297 0.16154 0.71143 0.0
C2570 C 0.70321 0.15446 0.72549 0.0
C2571 C 0.72715 0.13474 0.73559 0.0
C2572 C 0.74008 0.12159 0.73174 0.0
C2573 C 0.71542 0.14058 0.72207 0.0
C2574 C 0.74034 0.11351 0.71453 0.0
C2575 C 0.72868 0.11918 0.70107 0.0
H2576 H 0.13493 0.48289 0.97476 0.0
H2577 H 0.09467 0.46601 0.01248 0.0
H2578 H 0.08241 0.44532 0.98992 0.0
H2579 H 0.08112 0.43488 0.9585 0.0
H2580 H 0.11979 0.45437 0.92014 0.0
H2581 H 0.13519 0.47037 0.94411 0.0
C2582 C 0.12372 0.47437 0.97816 0.0
C2583 C 0.1156 0.47605 0.99515 0.0
C2584 C 0.1165 0.46289 0.965 0.0
C2585 C 0.10098 0.46509 -0.00064 0.0
C2586 C 0.094 0.45325 0.9865 0.0
C2587 C 0.09301 0.44249 0.95539 0.0
C2588 C 0.0991 0.44351 0.93744 0.0
C2589 C 0.10132 0.45249 0.96909 0.0
C2590 C 0.11481 0.45309 0.9338 0.0
C2591 C 0.12353 0.46251 0.94749 0.0
H2592 H 0.75481 0.89159 0.22324 0.0
H2593 H 0.79005 0.86345 0.25951 0.0
H2594 H 0.80716 0.85228 0.23376 0.0
H2595 H 0.81056 0.84857 0.20088 0.0
H2596 H 0.7745 0.87608 0.16493 0.0
H2597 H 0.75972 0.89001 0.19065 0.0
C2598 C 0.7665 0.8834 0.22557 0.0
C2599 C 0.77111 0.87832 0.24327 0.0
C2600 C 0.77616 0.87693 0.21075 0.0
C2601 C 0.7861 0.86738 0.246 0.0
C2602 C 0.79591 0.86103 0.23129 0.0
C2603 C 0.79957 0.85775 0.1987 0.0
C2604 C 0.79366 0.86124 0.181 0.0
C2605 C 0.7908 0.86538 0.21359 0.0
C2606 C 0.77952 0.87334 0.17836 0.0
C2607 C 0.77091 0.88117 0.19309 0.0
H2608 H 0.3995 0.53722 0.50123 0.0
H2609 H 0.35712 0.51457 0.46926 0.0
H2610 H 0.36628 0.53261 0.44342 0.0
H2611 H 0.38913 0.55069 0.42852 0.0
H2612 H 0.43321 0.57102 0.45941 0.0
H2613 H 0.42061 0.55812 0.48704 0.0
C2614 C 0.3922 0.53632 0.48864 0.0
C2615 C 0.37779 0.52436 0.48717 0.0
C2616 C 0.39793 0.54626 0.47358 0.0
C2617 C 0.3682 0.52372 0.47088 0.0
C2618 C 0.37351 0.53393 0.456 0.0
C2619 C 0.39563 0.55284 0.44143 0.0
C2620 C 0.41202 0.56175 0.44202 0.0
C2621 C 0.38872 0.54473 0.45702 0.0
C2622 C 0.42054 0.56417 0.45872 0.0
C2623 C 0.41342 0.55669 0.47445 0.0
H2624 H 0.27463 0.23712 0.38778 0.0
H2625 H 0.24012 0.21872 0.34506 0.0
H2626 H 0.26323 0.19846 0.3341 0.0
H2627 H 0.29422 0.18857 0.33458 0.0
H2628 H 0.32953 0.20974 0.37535 0.0
H2629 H 0.30506 0.22592 0.3893 0.0
C2630 C 0.27215 0.22869 0.37606 0.0
C2631 C 0.25574 0.22965 0.36712 0.0
C2632 C 0.28566 0.2175 0.36947 0.0
C2633 C 0.25259 0.21823 0.35227 0.0
C2634 C 0.26585 0.20672 0.3459 0.0
C2635 C 0.29657 0.19665 0.34657 0.0
C2636 C 0.31378 0.19799 0.35376 0.0
C2637 C 0.28259 0.20663 0.35409 0.0
C2638 C 0.31644 0.20819 0.36959 0.0
C2639 C 0.30247 0.21769 0.37747 0.0
H2640 H 0.01657 0.02419 0.63958 0.0
H2641 H 0.03935 0.98948 0.5989 0.0
H2642 H 0.05955 0.01362 0.58983 0.0
H2643 H 0.06758 0.0458 0.59054 0.0
H2644 H 0.04203 0.08105 0.62915 0.0
H2645 H 0.02658 0.05547 0.64219 0.0
C2646 C 0.02604 0.02188 0.6288 0.0
C2647 C 0.02622 0.0052 0.6197 0.0
C2648 C 0.03717 0.03597 0.62326 0.0
C2649 C 0.03892 0.0022 0.60613 0.0
C2650 C 0.05039 0.01605 0.60084 0.0
C2651 C 0.05876 0.04788 0.60192 0.0
C2652 C 0.05589 0.06546 0.60862 0.0
C2653 C 0.04915 0.0332 0.60886 0.0
C2654 C 0.04476 0.06776 0.62372 0.0
C2655 C 0.03565 0.05312 0.63109 0.0
H2656 H 0.22733 0.76753 0.88564 0.0
H2657 H 0.26093 0.7875 0.84289 0.0
H2658 H 0.23653 0.80592 0.83135 0.0
H2659 H 0.20493 0.8142 0.83197 0.0
H2660 H 0.17152 0.79296 0.87433 0.0
H2661 H 0.19681 0.77789 0.8879 0.0
C2662 C 0.22952 0.77625 0.87407 0.0
C2663 C 0.24593 0.77604 0.86509 0.0
C2664 C 0.21545 0.78667 0.86747 0.0
C2665 C 0.24835 0.78719 0.8499 0.0
C2666 C 0.23443 0.79778 0.84334 0.0
C2667 C 0.20324 0.80642 0.84427 0.0
C2668 C 0.18631 0.80474 0.85206 0.0
C2669 C 0.21779 0.79727 0.85176 0.0
C2670 C 0.18439 0.79479 0.86815 0.0
C2671 C 0.19883 0.78594 0.87583 0.0
H2672 H 0.46459 0.99773 0.10402 0.0
H2673 H 0.48849 0.96531 0.14594 0.0
H2674 H 0.46937 0.93997 0.13802 0.0
H2675 H 0.44884 0.92601 0.1169 0.0
H2676 H 0.4248 0.95798 0.07472 0.0
H2677 H 0.44076 0.98469 0.08536 0.0
C2678 C 0.46532 0.98526 0.11169 0.0
C2679 C 0.47818 0.98329 0.12532 0.0
C2680 C 0.45434 0.97066 0.10699 0.0
C2681 C 0.479 0.96702 0.1351 0.0
C2682 C 0.46801 0.95255 0.13064 0.0
C2683 C 0.44658 0.93889 0.11032 0.0
C2684 C 0.43578 0.93987 0.09486 0.0
C2685 C 0.45604 0.95406 0.11626 0.0
C2686 C 0.43326 0.95675 0.08647 0.0
C2687 C 0.44241 0.97203 0.09252 0.0
H2688 H 0.74598 0.29423 0.64426 0.0
H2689 H 0.77924 0.26114 0.61023 0.0
H2690 H 0.80506 0.27888 0.61887 0.0
H2691 H 0.81865 0.30132 0.6386 0.0
H2692 H 0.78598 0.33386 0.67367 0.0
H2693 H 0.75944 0.31877 0.66212 0.0
C2694 C 0.75888 0.29099 0.63867 0.0
C2695 C 0.76068 0.27632 0.6267 0.0
C2696 C 0.77377 0.30107 0.64393 0.0
C2697 C 0.77743 0.27245 0.61934 0.0
C2698 C 0.79224 0.28252 0.62436 0.0
C2699 C 0.8057 0.30554 0.64333 0.0
C2700 C 0.80428 0.31871 0.65695 0.0
C2701 C 0.79062 0.29658 0.63693 0.0
C2702 C 0.7874 0.32369 0.66323 0.0
C2703 C 0.77225 0.31503 0.65668 0.0
H2704 H 0.97152 0.52581 0.85864 0.0
H2705 H 0.95607 0.48737 0.89953 0.0
H2706 H 0.93467 0.50897 0.91167 0.0
H2707 H 0.92366 0.54021 0.91333 0.0
H2708 H 0.94133 0.57926 0.87388 0.0
H2709 H 0.95811 0.55594 0.8583 0.0
C2710 C 0.96333 0.52211 0.87011 0.0
C2711 C 0.96558 0.50516 0.87837 0.0
C2712 C 0.95144 0.53475 0.87731 0.0
C2713 C 0.9546 0.50035 0.89293 0.0
C2714 C 0.94245 0.51274 0.89996 0.0
C2715 C 0.93098 0.54354 0.90117 0.0
C2716 C 0.93133 0.56152 0.89493 0.0
C2717 C 0.94125 0.53021 0.89266 0.0
C2718 C 0.94061 0.56554 0.87894 0.0
C2719 C 0.95045 0.55224 0.87012 0.0
H2720 H 0.70833 0.67874 0.1604 0.0
H2721 H 0.67212 0.70229 0.12183 0.0
H2722 H 0.69627 0.71912 0.10814 0.0
H2723 H 0.72661 0.73028 0.10964 0.0
H2724 H 0.76276 0.70842 0.14915 0.0
H2725 H 0.73957 0.68817 0.16025 0.0
C2726 C 0.70576 0.68743 0.1489 0.0
C2727 C 0.68838 0.68924 0.14224 0.0
C2728 C 0.71962 0.69767 0.14148 0.0
C2729 C 0.68535 0.70035 0.12712 0.0
C2730 C 0.69914 0.71021 0.11939 0.0
C2731 C 0.72958 0.72079 0.12039 0.0
C2732 C 0.74636 0.72092 0.12861 0.0
C2733 C 0.71618 0.70939 0.12681 0.0
C2734 C 0.74986 0.70875 0.14276 0.0
C2735 C 0.73664 0.69713 0.14906 0.0
H2736 H 0.54256 0.49833 0.3843 0.0
H2737 H 0.51584 0.4631 0.34673 0.0
H2738 H 0.53549 0.43824 0.35503 0.0
H2739 H 0.557 0.4256 0.37594 0.0
H2740 H 0.58306 0.46006 0.41474 0.0
H2741 H 0.56714 0.48628 0.40277 0.0
C2742 C 0.54139 0.48533 0.37764 0.0
C2743 C 0.5277 0.48242 0.3651 0.0
C2744 C 0.55248 0.47096 0.3828 0.0
C2745 C 0.52617 0.46551 0.35661 0.0
C2746 C 0.53739 0.45133 0.36133 0.0
C2747 C 0.5597 0.43891 0.38143 0.0
C2748 C 0.57112 0.44082 0.39632 0.0
C2749 C 0.55015 0.45374 0.37486 0.0
C2750 C 0.57418 0.45819 0.4034 0.0
C2751 C 0.56504 0.47317 0.3966 0.0
H2752 H 0.35513 0.24524 0.21126 0.0
H2753 H 0.39315 0.27945 0.23822 0.0
H2754 H 0.38341 0.30525 0.22034 0.0
H2755 H 0.36162 0.31882 0.20017 0.0
H2756 H 0.32261 0.28524 0.17396 0.0
H2757 H 0.33524 0.25843 0.18841 0.0
C2758 C 0.36136 0.25832 0.2131 0.0
C2759 C 0.37474 0.26044 0.22615 0.0
C2760 C 0.35546 0.27322 0.203 0.0
C2761 C 0.38292 0.2774 0.22818 0.0
C2762 C 0.37727 0.2922 0.21804 0.0
C2763 C 0.3562 0.30559 0.19714 0.0
C2764 C 0.34114 0.30404 0.18608 0.0
C2765 C 0.36325 0.29036 0.20579 0.0
C2766 C 0.33412 0.28679 0.18256 0.0
C2767 C 0.34129 0.27149 0.19086 0.0
H2768 H 0.82811 0.20013 0.81155 0.0
H2769 H 0.88264 0.18272 0.81337 0.0
H2770 H 0.89206 0.21169 0.80081 0.0
H2771 H 0.88429 0.23974 0.78519 0.0
H2772 H 0.82982 0.25745 0.78395 0.0
H2773 H 0.82092 0.23049 0.80062 0.0
C2774 C 0.84212 0.20285 0.80981 0.0
C2775 C 0.85463 0.18914 0.81315 0.0
C2776 C 0.84742 0.21944 0.8024 0.0
C2777 C 0.87271 0.19291 0.81058 0.0
C2778 C 0.8781 0.20946 0.8034 0.0
C2779 C 0.87054 0.23807 0.78903 0.0
C2780 C 0.85771 0.2505 0.78299 0.0
C2781 C 0.8655 0.22253 0.79859 0.0
C2782 C 0.83992 0.24789 0.78799 0.0
C2783 C 0.83482 0.2325 0.7976 0.0
H2784 H 0.01544 0.63311 0.01709 0.0
H2785 H 0.98109 0.59016 0.03526 0.0
H2786 H 0.00477 0.5784 0.05448 0.0
H2787 H 0.03592 0.57916 0.06436 0.0
H2788 H 0.07003 0.62195 0.04526 0.0
H2789 H 0.04545 0.63541 0.02891 0.0
C2790 C 0.01292 0.62144 0.02556 0.0
C2791 C 0.99651 0.61249 0.02462 0.0
C2792 C 0.02654 0.61477 0.03655 0.0
C2793 C 0.99369 0.59714 0.03547 0.0
C2794 C 0.00719 0.59047 0.04655 0.0
C2795 C 0.03791 0.59153 0.05676 0.0
C2796 C 0.05484 0.59947 0.05606 0.0
C2797 C 0.02379 0.59897 0.0469 0.0
C2798 C 0.05713 0.61564 0.04633 0.0
C2799 C 0.04311 0.62326 0.03675 0.0
H2800 H 0.63441 0.81521 0.2899 0.0
H2801 H 0.67442 0.78529 0.31885 0.0
H2802 H 0.66393 0.75716 0.30516 0.0
H2803 H 0.64519 0.74165 0.28273 0.0
H2804 H 0.60588 0.77221 0.2534 0.0
H2805 H 0.61396 0.79942 0.26994 0.0
C2806 C 0.64054 0.8025 0.29366 0.0
C2807 C 0.65524 0.80237 0.3053 0.0
C2808 C 0.63461 0.78649 0.28559 0.0
C2809 C 0.66321 0.78577 0.30974 0.0
C2810 C 0.65722 0.76969 0.30192 0.0
C2811 C 0.63834 0.75425 0.28007 0.0
C2812 C 0.62503 0.75491 0.26679 0.0
C2813 C 0.64327 0.76998 0.28941 0.0
C2814 C 0.61606 0.77127 0.26367 0.0
C2815 C 0.62076 0.78689 0.27302 0.0
H2816 H 0.46198 0.42012 0.55914 0.0
H2817 H 0.42888 0.37594 0.54132 0.0
H2818 H 0.45406 0.36211 0.52626 0.0
H2819 H 0.48434 0.36449 0.51472 0.0
H2820 H 0.51677 0.41 0.52986 0.0
H2821 H 0.49289 0.42161 0.54899 0.0
C2822 C 0.46026 0.40744 0.55202 0.0
C2823 C 0.44345 0.39921 0.55135 0.0
C2824 C 0.47462 0.39994 0.54261 0.0
C2825 C 0.44163 0.38253 0.54238 0.0
C2826 C 0.45601 0.37468 0.53351 0.0
C2827 C 0.4863 0.37675 0.52252 0.0
C2828 C 0.50223 0.38642 0.52089 0.0
C2829 C 0.4724 0.38354 0.53308 0.0
C2830 C 0.50453 0.40243 0.53081 0.0
C2831 C 0.4909 0.40904 0.54175 0.0
H2832 H 0.1317 0.67268 0.70299 0.0
H2833 H 0.16051 0.71013 0.66936 0.0
H2834 H 0.14918 0.73545 0.68727 0.0
H2835 H 0.13369 0.74645 0.71445 0.0
H2836 H 0.10724 0.70812 0.74926 0.0
H2837 H 0.11488 0.68366 0.72874 0.0
C2838 C 0.13518 0.68639 0.69925 0.0
C2839 C 0.14702 0.68949 0.68492 0.0
C2840 C 0.12921 0.70072 0.70999 0.0
C2841 C 0.1515 0.70738 0.68041 0.0
C2842 C 0.14511 0.72183 0.69071 0.0
C2843 C 0.12961 0.73274 0.71755 0.0
C2844 C 0.11997 0.72918 0.73346 0.0
C2845 C 0.13445 0.71859 0.70591 0.0
C2846 C 0.11448 0.71136 0.73705 0.0
C2847 C 0.11893 0.69731 0.72537 0.0
H2848 H 0.50199 0.89304 0.9697 0.0
H2849 H 0.5354 0.85233 0.9939 0.0
H2850 H 0.55982 0.86127 0.97426 0.0
H2851 H 0.57238 0.88238 0.95238 0.0
H2852 H 0.53916 0.92304 0.92792 0.0
H2853 H 0.51378 0.91207 0.94528 0.0
C2854 C 0.51449 0.88585 0.97043 0.0
C2855 C 0.51692 0.8722 0.98344 0.0
C2856 C 0.52849 0.89105 0.95908 0.0
C2857 C 0.53328 0.86317 0.9843 0.0
C2858 C 0.54722 0.86818 0.973 0.0
C2859 C 0.55949 0.88852 0.95041 0.0
C2860 C 0.55768 0.90354 0.93889 0.0
C2861 C 0.54508 0.88235 0.96062 0.0
C2862 C 0.54092 0.91155 0.93681 0.0
C2863 C 0.52643 0.90531 0.94676 0.0
H2864 H 0.94764 0.08519 0.4365 0.0
H2865 H 0.90985 0.12241 0.45963 0.0
H2866 H 0.93289 0.13562 0.47828 0.0
H2867 H 0.96262 0.13416 0.49075 0.0
H2868 H 0.00105 0.09757 0.46768 0.0
H2869 H 0.97869 0.08616 0.44677 0.0
C2870 C 0.94452 0.09635 0.44546 0.0
C2871 C 0.92698 0.10267 0.4467 0.0
C2872 C 0.95781 0.10371 0.4565 0.0
C2873 C 0.92321 0.11734 0.45819 0.0
C2874 C 0.93636 0.12479 0.46907 0.0
C2875 C 0.96635 0.12403 0.48088 0.0
C2876 C 0.98353 0.11666 0.481 0.0
C2877 C 0.95356 0.11773 0.46872 0.0
C2878 C 0.98784 0.10324 0.46825 0.0
C2879 C 0.9751 0.09679 0.45615 0.0
loop_
_geom_bond_atom_site_label_1
_geom_bond_atom_site_label_2
_geom_bond_distance
_geom_bond_site_symmetry_2
_ccdc_geom_bond_type
Li0 N17 1.990 . S
Li0 O60 1.956 . S
Li0 O61 1.970 . S
Li0 O62 1.961 . S
Li1 N25 1.990 . S
Li1 O60 1.970 . S
Li1 O61 1.956 . S
Li1 O63 1.961 . S
Li2 N47 1.990 . S
Li2 O60 1.961 . S
Li2 O62 1.956 . S
Li2 O63 1.970 . S
Li3 N53 1.990 . S
Li3 O61 1.961 . S
Li3 O62 1.970 . S
Li3 O63 1.956 . S
C4 C6 1.348 . S
C4 C7 1.356 . S
C4 O60 1.325 . S
N5 C8 1.314 . S
N5 C9 1.279 . S
C6 C4 1.348 . S
C6 C8 1.353 . S
C6 H64 0.929 . S
C7 C4 1.356 . S
C7 C9 1.358 . S
C7 H65 0.930 . S
C8 N5 1.314 . S
C8 C6 1.353 . S
C8 H66 0.930 . S
C9 N5 1.279 . S
C9 C7 1.358 . S
C9 H67 0.930 . S
C10 C13 1.348 . S
C10 C14 1.356 . S
C10 O61 1.325 . S
C11 N12 1.279 . S
C11 C14 1.358 . S
C11 H68 0.930 . S
N12 C11 1.279 . S
N12 C15 1.314 . S
C13 C10 1.348 . S
C13 C15 1.353 . S
C13 H69 0.929 . S
C14 C10 1.356 . S
C14 C11 1.358 . S
C14 H70 0.930 . S
C15 N12 1.314 . S
C15 C13 1.353 . S
C15 H71 0.930 . S
C16 N17 1.314 . S
C16 C21 1.353 . S
C16 H22 0.930 . S
N17 Li0 1.990 . S
N17 C16 1.314 . S
N17 C19 1.279 . S
C18 C19 1.358 . S
C18 C20 1.356 . S
C18 H72 0.930 . S
C19 N17 1.279 . S
C19 C18 1.358 . S
C19 H23 0.930 . S
C20 C18 1.356 . S
C20 C21 1.348 . S
C21 C16 1.353 . S
C21 C20 1.348 . S
C21 H73 0.929 . S
H22 C16 0.930 . S
H23 C19 0.930 . S
C24 N25 1.314 . S
C24 C26 1.353 . S
C24 H30 0.930 . S
N25 Li1 1.990 . S
N25 C24 1.314 . S
N25 C28 1.279 . S
C26 C24 1.353 . S
C26 C29 1.348 . S
C26 H74 0.929 . S
C27 C28 1.358 . S
C27 C29 1.356 . S
C27 H75 0.930 . S
C28 N25 1.279 . S
C28 C27 1.358 . S
C28 H31 0.930 . S
C29 C26 1.348 . S
C29 C27 1.356 . S
H30 C24 0.930 . S
H31 C28 0.930 . S
C32 C34 1.348 . S
C32 C35 1.356 . S
C32 O62 1.325 . S
N33 C36 1.314 . S
N33 C37 1.279 . S
C34 C32 1.348 . S
C34 C36 1.353 . S
C34 H76 0.929 . S
C35 C32 1.356 . S
C35 C37 1.358 . S
C35 H77 0.930 . S
C36 N33 1.314 . S
C36 C34 1.353 . S
C36 H78 0.930 . S
C37 N33 1.279 . S
C37 C35 1.358 . S
C37 H79 0.930 . S
C38 C39 1.348 . S
C38 C40 1.356 . S
C38 O63 1.325 . S
C39 C38 1.348 . S
C39 C41 1.353 . S
C39 H80 0.929 . S
C40 C38 1.356 . S
C40 C42 1.358 . S
C40 H81 0.930 . S
C41 C39 1.353 . S
C41 N43 1.314 . S
C41 H82 0.930 . S
C42 C40 1.358 . S
C42 N43 1.279 . S
C42 H83 0.930 . S
N43 C41 1.314 . S
N43 C42 1.279 . S
C44 C46 1.353 . S
C44 N47 1.314 . S
C44 H50 0.930 . S
C45 N47 1.279 . S
C45 C48 1.358 . S
C45 H51 0.930 . S
C46 C44 1.353 . S
C46 C49 1.348 . S
C46 H84 0.929 . S
N47 Li2 1.990 . S
N47 C44 1.314 . S
N47 C45 1.279 . S
C48 C45 1.358 . S
C48 C49 1.356 . S
C48 H85 0.930 . S
C49 C46 1.348 . S
C49 C48 1.356 . S
H50 C44 0.930 . S
H51 C45 0.930 . S
C52 N53 1.314 . S
C52 C54 1.353 . S
C52 H58 0.930 . S
N53 Li3 1.990 . S
N53 C52 1.314 . S
N53 C56 1.279 . S
C54 C52 1.353 . S
C54 C57 1.348 . S
C54 H86 0.929 . S
C55 C56 1.358 . S
C55 C57 1.356 . S
C55 H87 0.930 . S
C56 N53 1.279 . S
C56 C55 1.358 . S
C56 H59 0.930 . S
C57 C54 1.348 . S
C57 C55 1.356 . S
H58 C52 0.930 . S
H59 C56 0.930 . S
O60 Li0 1.956 . S
O60 Li1 1.970 . S
O60 Li2 1.961 . S
O60 C4 1.325 . S
O61 Li0 1.970 . S
O61 Li1 1.956 . S
O61 Li3 1.961 . S
O61 C10 1.325 . S
O62 Li0 1.961 . S
O62 Li2 1.956 . S
O62 Li3 1.970 . S
O62 C32 1.325 . S
O63 Li1 1.961 . S
O63 Li2 1.970 . S
O63 Li3 1.956 . S
O63 C38 1.325 . S
H64 C6 0.929 . S
H65 C7 0.930 . S
H66 C8 0.930 . S
H67 C9 0.930 . S
H68 C11 0.930 . S
H69 C13 0.929 . S
H70 C14 0.930 . S
H71 C15 0.930 . S
H72 C18 0.930 . S
H73 C21 0.929 . S
H74 C26 0.929 . S
H75 C27 0.930 . S
H76 C34 0.929 . S
H77 C35 0.930 . S
H78 C36 0.930 . S
H79 C37 0.930 . S
H80 C39 0.929 . S
H81 C40 0.930 . S
H82 C41 0.930 . S
H83 C42 0.930 . S
H84 C46 0.929 . S
H85 C48 0.930 . S
H86 C54 0.929 . S
H87 C55 0.930 . S
Li88 N105 1.990 . S
Li88 O148 1.956 . S
Li88 O149 1.970 . S
Li88 O150 1.961 . S
Li89 N113 1.990 . S
Li89 O148 1.970 . S
Li89 O149 1.956 . S
Li89 O151 1.961 . S
Li90 N135 1.990 . S
Li90 O148 1.961 . S
Li90 O150 1.956 . S
Li90 O151 1.970 . S
Li91 N141 1.990 . S
Li91 O149 1.961 . S
Li91 O150 1.970 . S
Li91 O151 1.956 . S
C92 C94 1.348 . S
C92 C95 1.356 . S
C92 O148 1.325 . S
N93 C96 1.314 . S
N93 C97 1.279 . S
C94 C92 1.348 . S
C94 C96 1.353 . S
C94 H152 0.929 . S
C95 C92 1.356 . S
C95 C97 1.358 . S
C95 H153 0.930 . S
C96 N93 1.314 . S
C96 C94 1.353 . S
C96 H154 0.930 . S
C97 N93 1.279 . S
C97 C95 1.358 . S
C97 H155 0.930 . S
C98 C101 1.348 . S
C98 C102 1.356 . S
C98 O149 1.325 . S
C99 N100 1.279 . S
C99 C102 1.358 . S
C99 H156 0.930 . S
N100 C99 1.279 . S
N100 C103 1.314 . S
C101 C98 1.348 . S
C101 C103 1.353 . S
C101 H157 0.929 . S
C102 C98 1.356 . S
C102 C99 1.358 . S
C102 H158 0.930 . S
C103 N100 1.314 . S
C103 C101 1.353 . S
C103 H159 0.930 . S
C104 N105 1.314 . S
C104 C109 1.353 . S
C104 H110 0.930 . S
N105 Li88 1.990 . S
N105 C104 1.314 . S
N105 C107 1.279 . S
C106 C107 1.358 . S
C106 C108 1.356 . S
C106 H160 0.930 . S
C107 N105 1.279 . S
C107 C106 1.358 . S
C107 H111 0.930 . S
C108 C106 1.356 . S
C108 C109 1.348 . S
C109 C104 1.353 . S
C109 C108 1.348 . S
C109 H161 0.929 . S
H110 C104 0.930 . S
H111 C107 0.930 . S
C112 N113 1.314 . S
C112 C114 1.353 1_655 S
C112 H118 0.930 1_655 S
N113 Li89 1.990 . S
N113 C112 1.314 . S
N113 C116 1.279 . S
C114 C112 1.353 1_455 S
C114 C117 1.348 1_455 S
C114 H162 0.929 . S
C115 C116 1.358 . S
C115 C117 1.356 . S
C115 H163 0.930 . S
C116 N113 1.279 . S
C116 C115 1.358 . S
C116 H119 0.930 . S
C117 C114 1.348 1_655 S
C117 C115 1.356 . S
H118 C112 0.930 1_455 S
H119 C116 0.930 . S
C120 C122 1.348 . S
C120 C123 1.356 . S
C120 O150 1.325 . S
N121 C124 1.314 1_545 S
N121 C125 1.279 . S
C122 C120 1.348 . S
C122 C124 1.353 . S
C122 H164 0.929 . S
C123 C120 1.356 . S
C123 C125 1.358 1_565 S
C123 H165 0.930 . S
C124 N121 1.314 1_565 S
C124 C122 1.353 . S
C124 H166 0.930 . S
C125 N121 1.279 . S
C125 C123 1.358 1_545 S
C125 H167 0.930 . S
C126 C127 1.348 . S
C126 C128 1.356 . S
C126 O151 1.325 . S
C127 C126 1.348 . S
C127 C129 1.353 1_655 S
C127 H168 0.929 . S
C128 C126 1.356 . S
C128 C130 1.358 . S
C128 H169 0.930 . S
C129 C127 1.353 1_455 S
C129 N131 1.314 . S
C129 H170 0.930 . S
C130 C128 1.358 . S
C130 N131 1.279 1_655 S
C130 H171 0.930 . S
N131 C129 1.314 . S
N131 C130 1.279 1_455 S
C132 C134 1.353 . S
C132 N135 1.314 1_455 S
C132 H138 0.930 . S
C133 N135 1.279 . S
C133 C136 1.358 1_565 S
C133 H139 0.930 . S
C134 C132 1.353 . S
C134 C137 1.348 1_565 S
C134 H172 0.929 . S
N135 Li90 1.990 . S
N135 C132 1.314 1_655 S
N135 C133 1.279 . S
C136 C133 1.358 1_545 S
C136 C137 1.356 1_655 S
C136 H173 0.930 . S
C137 C134 1.348 1_545 S
C137 C136 1.356 1_455 S
H138 C132 0.930 . S
H139 C133 0.930 . S
C140 N141 1.314 . S
C140 C142 1.353 . S
C140 H146 0.930 . S
N141 Li91 1.990 . S
N141 C140 1.314 . S
N141 C144 1.279 . S
C142 C140 1.353 . S
C142 C145 1.348 . S
C142 H174 0.929 . S
C143 C144 1.358 . S
C143 C145 1.356 . S
C143 H175 0.930 . S
C144 N141 1.279 . S
C144 C143 1.358 . S
C144 H147 0.930 . S
C145 C142 1.348 . S
C145 C143 1.356 . S
H146 C140 0.930 . S
H147 C144 0.930 . S
O148 Li88 1.956 . S
O148 Li89 1.970 . S
O148 Li90 1.961 . S
O148 C92 1.325 . S
O149 Li88 1.970 . S
O149 Li89 1.956 . S
O149 Li91 1.961 . S
O149 C98 1.325 . S
O150 Li88 1.961 . S
O150 Li90 1.956 . S
O150 Li91 1.970 . S
O150 C120 1.325 . S
O151 Li89 1.961 . S
O151 Li90 1.970 . S
O151 Li91 1.956 . S
O151 C126 1.325 . S
H152 C94 0.929 . S
H153 C95 0.930 . S
H154 C96 0.930 . S
H155 C97 0.930 . S
H156 C99 0.930 . S
H157 C101 0.929 . S
H158 C102 0.930 . S
H159 C103 0.930 . S
H160 C106 0.930 . S
H161 C109 0.929 . S
H162 C114 0.929 . S
H163 C115 0.930 . S
H164 C122 0.929 . S
H165 C123 0.930 . S
H166 C124 0.930 . S
H167 C125 0.930 . S
H168 C127 0.929 . S
H169 C128 0.930 . S
H170 C129 0.930 . S
H171 C130 0.930 . S
H172 C134 0.929 . S
H173 C136 0.930 . S
H174 C142 0.929 . S
H175 C143 0.930 . S
Li176 N193 1.990 . S
Li176 O236 1.956 . S
Li176 O237 1.970 . S
Li176 O238 1.961 . S
Li177 N201 1.990 . S
Li177 O236 1.970 . S
Li177 O237 1.956 . S
Li177 O239 1.961 . S
Li178 N223 1.990 . S
Li178 O236 1.961 . S
Li178 O238 1.956 . S
Li178 O239 1.970 . S
Li179 N229 1.990 . S
Li179 O237 1.961 . S
Li179 O238 1.970 . S
Li179 O239 1.956 . S
C180 C182 1.348 . S
C180 C183 1.356 . S
C180 O236 1.325 . S
N181 C184 1.314 . S
N181 C185 1.279 . S
C182 C180 1.348 . S
C182 C184 1.353 . S
C182 H240 0.929 . S
C183 C180 1.356 . S
C183 C185 1.358 . S
C183 H241 0.930 . S
C184 N181 1.314 . S
C184 C182 1.353 . S
C184 H242 0.930 . S
C185 N181 1.279 . S
C185 C183 1.358 . S
C185 H243 0.930 . S
C186 C189 1.348 . S
C186 C190 1.356 . S
C186 O237 1.325 . S
C187 N188 1.279 . S
C187 C190 1.358 . S
C187 H244 0.930 . S
N188 C187 1.279 . S
N188 C191 1.314 . S
C189 C186 1.348 . S
C189 C191 1.353 . S
C189 H245 0.929 . S
C190 C186 1.356 . S
C190 C187 1.358 . S
C190 H246 0.930 . S
C191 N188 1.314 . S
C191 C189 1.353 . S
C191 H247 0.930 . S
C192 N193 1.314 . S
C192 C197 1.353 . S
C192 H198 0.930 . S
N193 Li176 1.990 . S
N193 C192 1.314 . S
N193 C195 1.279 . S
C194 C195 1.358 . S
C194 C196 1.356 . S
C194 H248 0.930 . S
C195 N193 1.279 . S
C195 C194 1.358 . S
C195 H199 0.930 . S
C196 C194 1.356 . S
C196 C197 1.348 . S
C197 C192 1.353 . S
C197 C196 1.348 . S
C197 H249 0.929 . S
H198 C192 0.930 . S
H199 C195 0.930 . S
C200 N201 1.314 . S
C200 C202 1.353 . S
C200 H206 0.930 . S
N201 Li177 1.990 . S
N201 C200 1.314 . S
N201 C204 1.279 . S
C202 C200 1.353 . S
C202 C205 1.348 . S
C202 H250 0.929 . S
C203 C204 1.358 . S
C203 C205 1.356 . S
C203 H251 0.930 . S
C204 N201 1.279 . S
C204 C203 1.358 . S
C204 H207 0.930 . S
C205 C202 1.348 . S
C205 C203 1.356 . S
H206 C200 0.930 . S
H207 C204 0.930 . S
C208 C210 1.348 . S
C208 C211 1.356 . S
C208 O238 1.325 . S
N209 C212 1.314 . S
N209 C213 1.279 . S
C210 C208 1.348 . S
C210 C212 1.353 . S
C210 H252 0.929 . S
C211 C208 1.356 . S
C211 C213 1.358 . S
C211 H253 0.930 . S
C212 N209 1.314 . S
C212 C210 1.353 . S
C212 H254 0.930 . S
C213 N209 1.279 . S
C213 C211 1.358 . S
C213 H255 0.930 . S
C214 C215 1.348 . S
C214 C216 1.356 . S
C214 O239 1.325 . S
C215 C214 1.348 . S
C215 C217 1.353 . S
C215 H256 0.929 . S
C216 C214 1.356 . S
C216 C218 1.358 . S
C216 H257 0.930 . S
C217 C215 1.353 . S
C217 N219 1.314 . S
C217 H258 0.930 . S
C218 C216 1.358 . S
C218 N219 1.279 . S
C218 H259 0.930 . S
N219 C217 1.314 . S
N219 C218 1.279 . S
C220 C222 1.353 . S
C220 N223 1.314 . S
C220 H226 0.930 . S
C221 N223 1.279 . S
C221 C224 1.358 . S
C221 H227 0.930 . S
C222 C220 1.353 . S
C222 C225 1.348 . S
C222 H260 0.929 . S
N223 Li178 1.990 . S
N223 C220 1.314 . S
N223 C221 1.279 . S
C224 C221 1.358 . S
C224 C225 1.356 . S
C224 H261 0.930 . S
C225 C222 1.348 . S
C225 C224 1.356 . S
H226 C220 0.930 . S
H227 C221 0.930 . S
C228 N229 1.314 . S
C228 C230 1.353 . S
C228 H234 0.930 . S
N229 Li179 1.990 . S
N229 C228 1.314 . S
N229 C232 1.279 . S
C230 C228 1.353 . S
C230 C233 1.348 . S
C230 H262 0.929 . S
C231 C232 1.358 . S
C231 C233 1.356 . S
C231 H263 0.930 . S
C232 N229 1.279 . S
C232 C231 1.358 . S
C232 H235 0.930 . S
C233 C230 1.348 . S
C233 C231 1.356 . S
H234 C228 0.930 . S
H235 C232 0.930 . S
O236 Li176 1.956 . S
O236 Li177 1.970 . S
O236 Li178 1.961 . S
O236 C180 1.325 . S
O237 Li176 1.970 . S
O237 Li177 1.956 . S
O237 Li179 1.961 . S
O237 C186 1.325 . S
O238 Li176 1.961 . S
O238 Li178 1.956 . S
O238 Li179 1.970 . S
O238 C208 1.325 . S
O239 Li177 1.961 . S
O239 Li178 1.970 . S
O239 Li179 1.956 . S
O239 C214 1.325 . S
H240 C182 0.929 . S
H241 C183 0.930 . S
H242 C184 0.930 . S
H243 C185 0.930 . S
H244 C187 0.930 . S
H245 C189 0.929 . S
H246 C190 0.930 . S
H247 C191 0.930 . S
H248 C194 0.930 . S
H249 C197 0.929 . S
H250 C202 0.929 . S
H251 C203 0.930 . S
H252 C210 0.929 . S
H253 C211 0.930 . S
H254 C212 0.930 . S
H255 C213 0.930 . S
H256 C215 0.929 . S
H257 C216 0.930 . S
H258 C217 0.930 . S
H259 C218 0.930 . S
H260 C222 0.929 . S
H261 C224 0.930 . S
H262 C230 0.929 . S
H263 C231 0.930 . S
Li264 N281 1.990 . S
Li264 O324 1.956 . S
Li264 O325 1.970 . S
Li264 O326 1.961 . S
Li265 N289 1.990 . S
Li265 O324 1.970 . S
Li265 O325 1.956 . S
Li265 O327 1.961 . S
Li266 N311 1.990 . S
Li266 O324 1.961 . S
Li266 O326 1.956 . S
Li266 O327 1.970 . S
Li267 N317 1.990 . S
Li267 O325 1.961 . S
Li267 O326 1.970 . S
Li267 O327 1.956 . S
C268 C270 1.348 . S
C268 C271 1.356 . S
C268 O324 1.325 . S
N269 C272 1.314 . S
N269 C273 1.279 . S
C270 C268 1.348 . S
C270 C272 1.353 . S
C270 H328 0.929 . S
C271 C268 1.356 . S
C271 C273 1.358 . S
C271 H329 0.930 . S
C272 N269 1.314 . S
C272 C270 1.353 . S
C272 H330 0.930 . S
C273 N269 1.279 . S
C273 C271 1.358 . S
C273 H331 0.930 . S
C274 C277 1.348 . S
C274 C278 1.356 . S
C274 O325 1.325 . S
C275 N276 1.279 . S
C275 C278 1.358 . S
C275 H332 0.930 . S
N276 C275 1.279 . S
N276 C279 1.314 . S
C277 C274 1.348 . S
C277 C279 1.353 . S
C277 H333 0.929 . S
C278 C274 1.356 . S
C278 C275 1.358 . S
C278 H334 0.930 . S
C279 N276 1.314 . S
C279 C277 1.353 . S
C279 H335 0.930 . S
C280 N281 1.314 . S
C280 C285 1.353 . S
C280 H286 0.930 . S
N281 Li264 1.990 . S
N281 C280 1.314 . S
N281 C283 1.279 . S
C282 C283 1.358 . S
C282 C284 1.356 . S
C282 H336 0.930 . S
C283 N281 1.279 . S
C283 C282 1.358 . S
C283 H287 0.930 . S
C284 C282 1.356 . S
C284 C285 1.348 . S
C285 C280 1.353 . S
C285 C284 1.348 . S
C285 H337 0.929 . S
H286 C280 0.930 . S
H287 C283 0.930 . S
C288 N289 1.314 . S
C288 C290 1.353 . S
C288 H294 0.930 . S
N289 Li265 1.990 . S
N289 C288 1.314 . S
N289 C292 1.279 . S
C290 C288 1.353 . S
C290 C293 1.348 . S
C290 H338 0.929 . S
C291 C292 1.358 . S
C291 C293 1.356 . S
C291 H339 0.930 . S
C292 N289 1.279 . S
C292 C291 1.358 . S
C292 H295 0.930 . S
C293 C290 1.348 . S
C293 C291 1.356 . S
H294 C288 0.930 . S
H295 C292 0.930 . S
C296 C298 1.348 . S
C296 C299 1.356 . S
C296 O326 1.325 . S
N297 C300 1.314 1_565 S
N297 C301 1.279 . S
C298 C296 1.348 . S
C298 C300 1.353 . S
C298 H340 0.929 . S
C299 C296 1.356 . S
C299 C301 1.358 1_545 S
C299 H341 0.930 . S
C300 N297 1.314 1_545 S
C300 C298 1.353 . S
C300 H342 0.930 . S
C301 N297 1.279 . S
C301 C299 1.358 1_565 S
C301 H343 0.930 . S
C302 C303 1.348 . S
C302 C304 1.356 . S
C302 O327 1.325 . S
C303 C302 1.348 . S
C303 C305 1.353 . S
C303 H344 0.929 . S
C304 C302 1.356 . S
C304 C306 1.358 . S
C304 H345 0.930 . S
C305 C303 1.353 . S
C305 N307 1.314 . S
C305 H346 0.930 . S
C306 C304 1.358 . S
C306 N307 1.279 . S
C306 H347 0.930 . S
N307 C305 1.314 . S
N307 C306 1.279 . S
C308 C310 1.353 . S
C308 N311 1.314 . S
C308 H314 0.930 . S
C309 N311 1.279 . S
C309 C312 1.358 1_545 S
C309 H315 0.930 . S
C310 C308 1.353 . S
C310 C313 1.348 1_545 S
C310 H348 0.929 . S
N311 Li266 1.990 . S
N311 C308 1.314 . S
N311 C309 1.279 . S
C312 C309 1.358 1_565 S
C312 C313 1.356 . S
C312 H349 0.930 . S
C313 C310 1.348 1_565 S
C313 C312 1.356 . S
H314 C308 0.930 . S
H315 C309 0.930 . S
C316 N317 1.314 . S
C316 C318 1.353 . S
C316 H322 0.930 . S
N317 Li267 1.990 . S
N317 C316 1.314 . S
N317 C320 1.279 . S
C318 C316 1.353 . S
C318 C321 1.348 . S
C318 H350 0.929 . S
C319 C320 1.358 . S
C319 C321 1.356 . S
C319 H351 0.930 . S
C320 N317 1.279 . S
C320 C319 1.358 . S
C320 H323 0.930 . S
C321 C318 1.348 . S
C321 C319 1.356 . S
H322 C316 0.930 . S
H323 C320 0.930 . S
O324 Li264 1.956 . S
O324 Li265 1.970 . S
O324 Li266 1.961 . S
O324 C268 1.325 . S
O325 Li264 1.970 . S
O325 Li265 1.956 . S
O325 Li267 1.961 . S
O325 C274 1.325 . S
O326 Li264 1.961 . S
O326 Li266 1.956 . S
O326 Li267 1.970 . S
O326 C296 1.325 . S
O327 Li265 1.961 . S
O327 Li266 1.970 . S
O327 Li267 1.956 . S
O327 C302 1.325 . S
H328 C270 0.929 . S
H329 C271 0.930 . S
H330 C272 0.930 . S
H331 C273 0.930 . S
H332 C275 0.930 . S
H333 C277 0.929 . S
H334 C278 0.930 . S
H335 C279 0.930 . S
H336 C282 0.930 . S
H337 C285 0.929 . S
H338 C290 0.929 . S
H339 C291 0.930 . S
H340 C298 0.929 . S
H341 C299 0.930 . S
H342 C300 0.930 . S
H343 C301 0.930 . S
H344 C303 0.929 . S
H345 C304 0.930 . S
H346 C305 0.930 . S
H347 C306 0.930 . S
H348 C310 0.929 . S
H349 C312 0.930 . S
H350 C318 0.929 . S
H351 C319 0.930 . S
Li352 N369 1.990 . S
Li352 O412 1.956 . S
Li352 O413 1.970 . S
Li352 O414 1.961 . S
Li353 N377 1.990 . S
Li353 O412 1.970 . S
Li353 O413 1.956 . S
Li353 O415 1.961 . S
Li354 N399 1.990 . S
Li354 O412 1.961 . S
Li354 O414 1.956 . S
Li354 O415 1.970 . S
Li355 N405 1.990 . S
Li355 O413 1.961 . S
Li355 O414 1.970 . S
Li355 O415 1.956 . S
C356 C358 1.348 . S
C356 C359 1.356 . S
C356 O412 1.325 . S
N357 C360 1.314 . S
N357 C361 1.279 . S
C358 C356 1.348 . S
C358 C360 1.353 . S
C358 H416 0.929 . S
C359 C356 1.356 . S
C359 C361 1.358 . S
C359 H417 0.930 . S
C360 N357 1.314 . S
C360 C358 1.353 . S
C360 H418 0.930 . S
C361 N357 1.279 . S
C361 C359 1.358 . S
C361 H419 0.930 . S
C362 C365 1.348 . S
C362 C366 1.356 . S
C362 O413 1.325 . S
C363 N364 1.279 . S
C363 C366 1.358 . S
C363 H420 0.930 . S
N364 C363 1.279 . S
N364 C367 1.314 . S
C365 C362 1.348 . S
C365 C367 1.353 . S
C365 H421 0.929 . S
C366 C362 1.356 . S
C366 C363 1.358 . S
C366 H422 0.930 . S
C367 N364 1.314 . S
C367 C365 1.353 . S
C367 H423 0.930 . S
C368 N369 1.314 . S
C368 C373 1.353 . S
C368 H374 0.930 . S
N369 Li352 1.990 . S
N369 C368 1.314 . S
N369 C371 1.279 . S
C370 C371 1.358 . S
C370 C372 1.356 . S
C370 H424 0.930 . S
C371 N369 1.279 . S
C371 C370 1.358 . S
C371 H375 0.930 . S
C372 C370 1.356 . S
C372 C373 1.348 . S
C373 C368 1.353 . S
C373 C372 1.348 . S
C373 H425 0.929 . S
H374 C368 0.930 . S
H375 C371 0.930 . S
C376 N377 1.314 . S
C376 C378 1.353 . S
C376 H382 0.930 . S
N377 Li353 1.990 . S
N377 C376 1.314 . S
N377 C380 1.279 . S
C378 C376 1.353 . S
C378 C381 1.348 . S
C378 H426 0.929 . S
C379 C380 1.358 . S
C379 C381 1.356 . S
C379 H427 0.930 . S
C380 N377 1.279 . S
C380 C379 1.358 . S
C380 H383 0.930 . S
C381 C378 1.348 . S
C381 C379 1.356 . S
H382 C376 0.930 . S
H383 C380 0.930 . S
C384 C386 1.348 . S
C384 C387 1.356 . S
C384 O414 1.325 . S
N385 C388 1.314 . S
N385 C389 1.279 . S
C386 C384 1.348 . S
C386 C388 1.353 . S
C386 H428 0.929 . S
C387 C384 1.356 . S
C387 C389 1.358 . S
C387 H429 0.930 . S
C388 N385 1.314 . S
C388 C386 1.353 . S
C388 H430 0.930 . S
C389 N385 1.279 . S
C389 C387 1.358 . S
C389 H431 0.930 . S
C390 C391 1.348 . S
C390 C392 1.356 . S
C390 O415 1.325 . S
C391 C390 1.348 . S
C391 C393 1.353 . S
C391 H432 0.929 . S
C392 C390 1.356 . S
C392 C394 1.358 . S
C392 H433 0.930 . S
C393 C391 1.353 . S
C393 N395 1.314 . S
C393 H434 0.930 . S
C394 C392 1.358 . S
C394 N395 1.279 . S
C394 H435 0.930 . S
N395 C393 1.314 . S
N395 C394 1.279 . S
C396 C398 1.353 . S
C396 N399 1.314 . S
C396 H402 0.930 . S
C397 N399 1.279 . S
C397 C400 1.358 . S
C397 H403 0.930 . S
C398 C396 1.353 . S
C398 C401 1.348 . S
C398 H436 0.929 . S
N399 Li354 1.990 . S
N399 C396 1.314 . S
N399 C397 1.279 . S
C400 C397 1.358 . S
C400 C401 1.356 . S
C400 H437 0.930 . S
C401 C398 1.348 . S
C401 C400 1.356 . S
H402 C396 0.930 . S
H403 C397 0.930 . S
C404 N405 1.314 . S
C404 C406 1.353 . S
C404 H410 0.930 . S
N405 Li355 1.990 . S
N405 C404 1.314 . S
N405 C408 1.279 . S
C406 C404 1.353 . S
C406 C409 1.348 . S
C406 H438 0.929 . S
C407 C408 1.358 . S
C407 C409 1.356 . S
C407 H439 0.930 . S
C408 N405 1.279 . S
C408 C407 1.358 . S
C408 H411 0.930 . S
C409 C406 1.348 . S
C409 C407 1.356 . S
H410 C404 0.930 . S
H411 C408 0.930 . S
O412 Li352 1.956 . S
O412 Li353 1.970 . S
O412 Li354 1.961 . S
O412 C356 1.325 . S
O413 Li352 1.970 . S
O413 Li353 1.956 . S
O413 Li355 1.961 . S
O413 C362 1.325 . S
O414 Li352 1.961 . S
O414 Li354 1.956 . S
O414 Li355 1.970 . S
O414 C384 1.325 . S
O415 Li353 1.961 . S
O415 Li354 1.970 . S
O415 Li355 1.956 . S
O415 C390 1.325 . S
H416 C358 0.929 . S
H417 C359 0.930 . S
H418 C360 0.930 . S
H419 C361 0.930 . S
H420 C363 0.930 . S
H421 C365 0.929 . S
H422 C366 0.930 . S
H423 C367 0.930 . S
H424 C370 0.930 . S
H425 C373 0.929 . S
H426 C378 0.929 . S
H427 C379 0.930 . S
H428 C386 0.929 . S
H429 C387 0.930 . S
H430 C388 0.930 . S
H431 C389 0.930 . S
H432 C391 0.929 . S
H433 C392 0.930 . S
H434 C393 0.930 . S
H435 C394 0.930 . S
H436 C398 0.929 . S
H437 C400 0.930 . S
H438 C406 0.929 . S
H439 C407 0.930 . S
Li440 N457 1.990 . S
Li440 O500 1.956 . S
Li440 O501 1.970 . S
Li440 O502 1.961 . S
Li441 N465 1.990 . S
Li441 O500 1.970 . S
Li441 O501 1.956 . S
Li441 O503 1.961 . S
Li442 N487 1.990 . S
Li442 O500 1.961 . S
Li442 O502 1.956 . S
Li442 O503 1.970 . S
Li443 N493 1.990 . S
Li443 O501 1.961 . S
Li443 O502 1.970 . S
Li443 O503 1.956 . S
C444 C446 1.348 . S
C444 C447 1.356 . S
C444 O500 1.325 . S
N445 C448 1.314 . S
N445 C449 1.279 . S
C446 C444 1.348 . S
C446 C448 1.353 . S
C446 H504 0.929 . S
C447 C444 1.356 . S
C447 C449 1.358 . S
C447 H505 0.930 . S
C448 N445 1.314 . S
C448 C446 1.353 . S
C448 H506 0.930 . S
C449 N445 1.279 . S
C449 C447 1.358 . S
C449 H507 0.930 . S
C450 C453 1.348 . S
C450 C454 1.356 . S
C450 O501 1.325 . S
C451 N452 1.279 1_455 S
C451 C454 1.358 . S
C451 H508 0.930 . S
N452 C451 1.279 1_655 S
N452 C455 1.314 . S
C453 C450 1.348 . S
C453 C455 1.353 1_455 S
C453 H509 0.929 . S
C454 C450 1.356 . S
C454 C451 1.358 . S
C454 H510 0.930 . S
C455 N452 1.314 . S
C455 C453 1.353 1_655 S
C455 H511 0.930 . S
C456 N457 1.314 1_655 S
C456 C461 1.353 . S
C456 H462 0.930 . S
N457 Li440 1.990 . S
N457 C456 1.314 1_455 S
N457 C459 1.279 . S
C458 C459 1.358 . S
C458 C460 1.356 1_455 S
C458 H512 0.930 . S
C459 N457 1.279 . S
C459 C458 1.358 . S
C459 H463 0.930 . S
C460 C458 1.356 1_655 S
C460 C461 1.348 . S
C461 C456 1.353 . S
C461 C460 1.348 . S
C461 H513 0.929 . S
H462 C456 0.930 . S
H463 C459 0.930 . S
C464 N465 1.314 . S
C464 C466 1.353 . S
C464 H470 0.930 . S
N465 Li441 1.990 . S
N465 C464 1.314 . S
N465 C468 1.279 . S
C466 C464 1.353 . S
C466 C469 1.348 . S
C466 H514 0.929 . S
C467 C468 1.358 . S
C467 C469 1.356 . S
C467 H515 0.930 . S
C468 N465 1.279 . S
C468 C467 1.358 . S
C468 H471 0.930 . S
C469 C466 1.348 . S
C469 C467 1.356 . S
H470 C464 0.930 . S
H471 C468 0.930 . S
C472 C474 1.348 . S
C472 C475 1.356 . S
C472 O502 1.325 . S
N473 C476 1.314 . S
N473 C477 1.279 . S
C474 C472 1.348 . S
C474 C476 1.353 . S
C474 H516 0.929 . S
C475 C472 1.356 . S
C475 C477 1.358 . S
C475 H517 0.930 . S
C476 N473 1.314 . S
C476 C474 1.353 . S
C476 H518 0.930 . S
C477 N473 1.279 . S
C477 C475 1.358 . S
C477 H519 0.930 . S
C478 C479 1.348 . S
C478 C480 1.356 . S
C478 O503 1.325 . S
C479 C478 1.348 . S
C479 C481 1.353 . S
C479 H520 0.929 . S
C480 C478 1.356 . S
C480 C482 1.358 . S
C480 H521 0.930 . S
C481 C479 1.353 . S
C481 N483 1.314 . S
C481 H522 0.930 . S
C482 C480 1.358 . S
C482 N483 1.279 . S
C482 H523 0.930 . S
N483 C481 1.314 . S
N483 C482 1.279 . S
C484 C486 1.353 . S
C484 N487 1.314 . S
C484 H490 0.930 . S
C485 N487 1.279 . S
C485 C488 1.358 . S
C485 H491 0.930 . S
C486 C484 1.353 . S
C486 C489 1.348 . S
C486 H524 0.929 . S
N487 Li442 1.990 . S
N487 C484 1.314 . S
N487 C485 1.279 . S
C488 C485 1.358 . S
C488 C489 1.356 . S
C488 H525 0.930 . S
C489 C486 1.348 . S
C489 C488 1.356 . S
H490 C484 0.930 . S
H491 C485 0.930 . S
C492 N493 1.314 . S
C492 C494 1.353 1_455 S
C492 H498 0.930 1_455 S
N493 Li443 1.990 . S
N493 C492 1.314 . S
N493 C496 1.279 . S
C494 C492 1.353 1_655 S
C494 C497 1.348 1_655 S
C494 H526 0.929 . S
C495 C496 1.358 . S
C495 C497 1.356 . S
C495 H527 0.930 . S
C496 N493 1.279 . S
C496 C495 1.358 . S
C496 H499 0.930 . S
C497 C494 1.348 1_455 S
C497 C495 1.356 . S
H498 C492 0.930 1_655 S
H499 C496 0.930 . S
O500 Li440 1.956 . S
O500 Li441 1.970 . S
O500 Li442 1.961 . S
O500 C444 1.325 . S
O501 Li440 1.970 . S
O501 Li441 1.956 . S
O501 Li443 1.961 . S
O501 C450 1.325 . S
O502 Li440 1.961 . S
O502 Li442 1.956 . S
O502 Li443 1.970 . S
O502 C472 1.325 . S
O503 Li441 1.961 . S
O503 Li442 1.970 . S
O503 Li443 1.956 . S
O503 C478 1.325 . S
H504 C446 0.929 . S
H505 C447 0.930 . S
H506 C448 0.930 . S
H507 C449 0.930 . S
H508 C451 0.930 . S
H509 C453 0.929 . S
H510 C454 0.930 . S
H511 C455 0.930 . S
H512 C458 0.930 . S
H513 C461 0.929 . S
H514 C466 0.929 . S
H515 C467 0.930 . S
H516 C474 0.929 . S
H517 C475 0.930 . S
H518 C476 0.930 . S
H519 C477 0.930 . S
H520 C479 0.929 . S
H521 C480 0.930 . S
H522 C481 0.930 . S
H523 C482 0.930 . S
H524 C486 0.929 . S
H525 C488 0.930 . S
H526 C494 0.929 . S
H527 C495 0.930 . S
Li528 N545 1.990 . S
Li528 O588 1.956 . S
Li528 O589 1.970 . S
Li528 O590 1.961 . S
Li529 N553 1.990 . S
Li529 O588 1.970 . S
Li529 O589 1.956 . S
Li529 O591 1.961 . S
Li530 N575 1.990 . S
Li530 O588 1.961 . S
Li530 O590 1.956 . S
Li530 O591 1.970 . S
Li531 N581 1.990 . S
Li531 O589 1.961 . S
Li531 O590 1.970 . S
Li531 O591 1.956 . S
C532 C534 1.348 . S
C532 C535 1.356 . S
C532 O588 1.325 . S
N533 C536 1.314 . S
N533 C537 1.279 . S
C534 C532 1.348 . S
C534 C536 1.353 . S
C534 H592 0.929 . S
C535 C532 1.356 . S
C535 C537 1.358 . S
C535 H593 0.930 . S
C536 N533 1.314 . S
C536 C534 1.353 . S
C536 H594 0.930 . S
C537 N533 1.279 . S
C537 C535 1.358 . S
C537 H595 0.930 . S
C538 C541 1.348 . S
C538 C542 1.356 . S
C538 O589 1.325 . S
C539 N540 1.279 . S
C539 C542 1.358 . S
C539 H596 0.930 . S
N540 C539 1.279 . S
N540 C543 1.314 . S
C541 C538 1.348 . S
C541 C543 1.353 . S
C541 H597 0.929 . S
C542 C538 1.356 . S
C542 C539 1.358 . S
C542 H598 0.930 . S
C543 N540 1.314 . S
C543 C541 1.353 . S
C543 H599 0.930 . S
C544 N545 1.314 . S
C544 C549 1.353 . S
C544 H550 0.930 . S
N545 Li528 1.990 . S
N545 C544 1.314 . S
N545 C547 1.279 . S
C546 C547 1.358 . S
C546 C548 1.356 . S
C546 H600 0.930 . S
C547 N545 1.279 . S
C547 C546 1.358 . S
C547 H551 0.930 . S
C548 C546 1.356 . S
C548 C549 1.348 . S
C549 C544 1.353 . S
C549 C548 1.348 . S
C549 H601 0.929 . S
H550 C544 0.930 . S
H551 C547 0.930 . S
C552 N553 1.314 . S
C552 C554 1.353 . S
C552 H558 0.930 . S
N553 Li529 1.990 . S
N553 C552 1.314 . S
N553 C556 1.279 . S
C554 C552 1.353 . S
C554 C557 1.348 . S
C554 H602 0.929 . S
C555 C556 1.358 . S
C555 C557 1.356 . S
C555 H603 0.930 . S
C556 N553 1.279 . S
C556 C555 1.358 . S
C556 H559 0.930 . S
C557 C554 1.348 . S
C557 C555 1.356 . S
H558 C552 0.930 . S
H559 C556 0.930 . S
C560 C562 1.348 . S
C560 C563 1.356 . S
C560 O590 1.325 . S
N561 C564 1.314 . S
N561 C565 1.279 . S
C562 C560 1.348 . S
C562 C564 1.353 . S
C562 H604 0.929 . S
C563 C560 1.356 . S
C563 C565 1.358 . S
C563 H605 0.930 . S
C564 N561 1.314 . S
C564 C562 1.353 . S
C564 H606 0.930 . S
C565 N561 1.279 . S
C565 C563 1.358 . S
C565 H607 0.930 . S
C566 C567 1.348 . S
C566 C568 1.356 . S
C566 O591 1.325 . S
C567 C566 1.348 . S
C567 C569 1.353 . S
C567 H608 0.929 . S
C568 C566 1.356 . S
C568 C570 1.358 . S
C568 H609 0.930 . S
C569 C567 1.353 . S
C569 N571 1.314 . S
C569 H610 0.930 . S
C570 C568 1.358 . S
C570 N571 1.279 . S
C570 H611 0.930 . S
N571 C569 1.314 . S
N571 C570 1.279 . S
C572 C574 1.353 . S
C572 N575 1.314 . S
C572 H578 0.930 . S
C573 N575 1.279 . S
C573 C576 1.358 . S
C573 H579 0.930 . S
C574 C572 1.353 . S
C574 C577 1.348 . S
C574 H612 0.929 . S
N575 Li530 1.990 . S
N575 C572 1.314 . S
N575 C573 1.279 . S
C576 C573 1.358 . S
C576 C577 1.356 . S
C576 H613 0.930 . S
C577 C574 1.348 . S
C577 C576 1.356 . S
H578 C572 0.930 . S
H579 C573 0.930 . S
C580 N581 1.314 . S
C580 C582 1.353 . S
C580 H586 0.930 . S
N581 Li531 1.990 . S
N581 C580 1.314 . S
N581 C584 1.279 . S
C582 C580 1.353 . S
C582 C585 1.348 . S
C582 H614 0.929 . S
C583 C584 1.358 . S
C583 C585 1.356 . S
C583 H615 0.930 . S
C584 N581 1.279 . S
C584 C583 1.358 . S
C584 H587 0.930 . S
C585 C582 1.348 . S
C585 C583 1.356 . S
H586 C580 0.930 . S
H587 C584 0.930 . S
O588 Li528 1.956 . S
O588 Li529 1.970 . S
O588 Li530 1.961 . S
O588 C532 1.325 . S
O589 Li528 1.970 . S
O589 Li529 1.956 . S
O589 Li531 1.961 . S
O589 C538 1.325 . S
O590 Li528 1.961 . S
O590 Li530 1.956 . S
O590 Li531 1.970 . S
O590 C560 1.325 . S
O591 Li529 1.961 . S
O591 Li530 1.970 . S
O591 Li531 1.956 . S
O591 C566 1.325 . S
H592 C534 0.929 . S
H593 C535 0.930 . S
H594 C536 0.930 . S
H595 C537 0.930 . S
H596 C539 0.930 . S
H597 C541 0.929 . S
H598 C542 0.930 . S
H599 C543 0.930 . S
H600 C546 0.930 . S
H601 C549 0.929 . S
H602 C554 0.929 . S
H603 C555 0.930 . S
H604 C562 0.929 . S
H605 C563 0.930 . S
H606 C564 0.930 . S
H607 C565 0.930 . S
H608 C567 0.929 . S
H609 C568 0.930 . S
H610 C569 0.930 . S
H611 C570 0.930 . S
H612 C574 0.929 . S
H613 C576 0.930 . S
H614 C582 0.929 . S
H615 C583 0.930 . S
Li616 N633 1.990 . S
Li616 O676 1.956 . S
Li616 O677 1.970 . S
Li616 O678 1.961 . S
Li617 N641 1.990 . S
Li617 O676 1.970 . S
Li617 O677 1.956 . S
Li617 O679 1.961 . S
Li618 N663 1.990 . S
Li618 O676 1.961 . S
Li618 O678 1.956 . S
Li618 O679 1.970 . S
Li619 N669 1.990 . S
Li619 O677 1.961 . S
Li619 O678 1.970 . S
Li619 O679 1.956 . S
C620 C622 1.348 . S
C620 C623 1.356 . S
C620 O676 1.325 . S
N621 C624 1.314 . S
N621 C625 1.279 . S
C622 C620 1.348 . S
C622 C624 1.353 . S
C622 H680 0.929 . S
C623 C620 1.356 . S
C623 C625 1.358 . S
C623 H681 0.930 . S
C624 N621 1.314 . S
C624 C622 1.353 . S
C624 H682 0.930 . S
C625 N621 1.279 . S
C625 C623 1.358 . S
C625 H683 0.930 . S
C626 C629 1.348 . S
C626 C630 1.356 . S
C626 O677 1.325 . S
C627 N628 1.279 . S
C627 C630 1.358 . S
C627 H684 0.930 . S
N628 C627 1.279 . S
N628 C631 1.314 . S
C629 C626 1.348 . S
C629 C631 1.353 . S
C629 H685 0.929 . S
C630 C626 1.356 . S
C630 C627 1.358 . S
C630 H686 0.930 . S
C631 N628 1.314 . S
C631 C629 1.353 . S
C631 H687 0.930 . S
C632 N633 1.314 . S
C632 C637 1.353 . S
C632 H638 0.930 . S
N633 Li616 1.990 . S
N633 C632 1.314 . S
N633 C635 1.279 . S
C634 C635 1.358 . S
C634 C636 1.356 . S
C634 H688 0.930 . S
C635 N633 1.279 . S
C635 C634 1.358 . S
C635 H639 0.930 . S
C636 C634 1.356 . S
C636 C637 1.348 . S
C637 C632 1.353 . S
C637 C636 1.348 . S
C637 H689 0.929 . S
H638 C632 0.930 . S
H639 C635 0.930 . S
C640 N641 1.314 . S
C640 C642 1.353 . S
C640 H646 0.930 . S
N641 Li617 1.990 . S
N641 C640 1.314 . S
N641 C644 1.279 . S
C642 C640 1.353 . S
C642 C645 1.348 . S
C642 H690 0.929 . S
C643 C644 1.358 . S
C643 C645 1.356 . S
C643 H691 0.930 . S
C644 N641 1.279 . S
C644 C643 1.358 . S
C644 H647 0.930 . S
C645 C642 1.348 . S
C645 C643 1.356 . S
H646 C640 0.930 . S
H647 C644 0.930 . S
C648 C650 1.348 . S
C648 C651 1.356 . S
C648 O678 1.325 . S
N649 C652 1.314 . S
N649 C653 1.279 . S
C650 C648 1.348 . S
C650 C652 1.353 . S
C650 H692 0.929 . S
C651 C648 1.356 . S
C651 C653 1.358 . S
C651 H693 0.930 . S
C652 N649 1.314 . S
C652 C650 1.353 . S
C652 H694 0.930 . S
C653 N649 1.279 . S
C653 C651 1.358 . S
C653 H695 0.930 . S
C654 C655 1.348 . S
C654 C656 1.356 . S
C654 O679 1.325 . S
C655 C654 1.348 . S
C655 C657 1.353 . S
C655 H696 0.929 . S
C656 C654 1.356 . S
C656 C658 1.358 . S
C656 H697 0.930 . S
C657 C655 1.353 . S
C657 N659 1.314 . S
C657 H698 0.930 . S
C658 C656 1.358 . S
C658 N659 1.279 . S
C658 H699 0.930 . S
N659 C657 1.314 . S
N659 C658 1.279 . S
C660 C662 1.353 . S
C660 N663 1.314 . S
C660 H666 0.930 . S
C661 N663 1.279 . S
C661 C664 1.358 . S
C661 H667 0.930 . S
C662 C660 1.353 . S
C662 C665 1.348 . S
C662 H700 0.929 . S
N663 Li618 1.990 . S
N663 C660 1.314 . S
N663 C661 1.279 . S
C664 C661 1.358 . S
C664 C665 1.356 . S
C664 H701 0.930 . S
C665 C662 1.348 . S
C665 C664 1.356 . S
H666 C660 0.930 . S
H667 C661 0.930 . S
C668 N669 1.314 . S
C668 C670 1.353 . S
C668 H674 0.930 . S
N669 Li619 1.990 . S
N669 C668 1.314 . S
N669 C672 1.279 . S
C670 C668 1.353 . S
C670 C673 1.348 . S
C670 H702 0.929 . S
C671 C672 1.358 . S
C671 C673 1.356 . S
C671 H703 0.930 . S
C672 N669 1.279 . S
C672 C671 1.358 . S
C672 H675 0.930 . S
C673 C670 1.348 . S
C673 C671 1.356 . S
H674 C668 0.930 . S
H675 C672 0.930 . S
O676 Li616 1.956 . S
O676 Li617 1.970 . S
O676 Li618 1.961 . S
O676 C620 1.325 . S
O677 Li616 1.970 . S
O677 Li617 1.956 . S
O677 Li619 1.961 . S
O677 C626 1.325 . S
O678 Li616 1.961 . S
O678 Li618 1.956 . S
O678 Li619 1.970 . S
O678 C648 1.325 . S
O679 Li617 1.961 . S
O679 Li618 1.970 . S
O679 Li619 1.956 . S
O679 C654 1.325 . S
H680 C622 0.929 . S
H681 C623 0.930 . S
H682 C624 0.930 . S
H683 C625 0.930 . S
H684 C627 0.930 . S
H685 C629 0.929 . S
H686 C630 0.930 . S
H687 C631 0.930 . S
H688 C634 0.930 . S
H689 C637 0.929 . S
H690 C642 0.929 . S
H691 C643 0.930 . S
H692 C650 0.929 . S
H693 C651 0.930 . S
H694 C652 0.930 . S
H695 C653 0.930 . S
H696 C655 0.929 . S
H697 C656 0.930 . S
H698 C657 0.930 . S
H699 C658 0.930 . S
H700 C662 0.929 . S
H701 C664 0.930 . S
H702 C670 0.929 . S
H703 C671 0.930 . S
Li704 N721 1.990 . S
Li704 O764 1.956 . S
Li704 O765 1.970 . S
Li704 O766 1.961 . S
Li705 N729 1.990 . S
Li705 O764 1.970 . S
Li705 O765 1.956 . S
Li705 O767 1.961 . S
Li706 N751 1.990 . S
Li706 O764 1.961 . S
Li706 O766 1.956 . S
Li706 O767 1.970 . S
Li707 N757 1.990 . S
Li707 O765 1.961 . S
Li707 O766 1.970 . S
Li707 O767 1.956 . S
C708 C710 1.348 . S
C708 C711 1.356 . S
C708 O764 1.325 . S
N709 C712 1.314 . S
N709 C713 1.279 . S
C710 C708 1.348 . S
C710 C712 1.353 . S
C710 H768 0.929 . S
C711 C708 1.356 . S
C711 C713 1.358 . S
C711 H769 0.930 . S
C712 N709 1.314 . S
C712 C710 1.353 . S
C712 H770 0.930 . S
C713 N709 1.279 . S
C713 C711 1.358 . S
C713 H771 0.930 . S
C714 C717 1.348 . S
C714 C718 1.356 . S
C714 O765 1.325 . S
C715 N716 1.279 . S
C715 C718 1.358 . S
C715 H772 0.930 . S
N716 C715 1.279 . S
N716 C719 1.314 . S
C717 C714 1.348 . S
C717 C719 1.353 . S
C717 H773 0.929 . S
C718 C714 1.356 . S
C718 C715 1.358 . S
C718 H774 0.930 . S
C719 N716 1.314 . S
C719 C717 1.353 . S
C719 H775 0.930 . S
C720 N721 1.314 . S
C720 C725 1.353 . S
C720 H726 0.930 . S
N721 Li704 1.990 . S
N721 C720 1.314 . S
N721 C723 1.279 . S
C722 C723 1.358 . S
C722 C724 1.356 . S
C722 H776 0.930 . S
C723 N721 1.279 . S
C723 C722 1.358 . S
C723 H727 0.930 . S
C724 C722 1.356 . S
C724 C725 1.348 . S
C725 C720 1.353 . S
C725 C724 1.348 . S
C725 H777 0.929 . S
H726 C720 0.930 . S
H727 C723 0.930 . S
C728 N729 1.314 . S
C728 C730 1.353 . S
C728 H734 0.930 . S
N729 Li705 1.990 . S
N729 C728 1.314 . S
N729 C732 1.279 . S
C730 C728 1.353 . S
C730 C733 1.348 . S
C730 H778 0.929 . S
C731 C732 1.358 . S
C731 C733 1.356 . S
C731 H779 0.930 . S
C732 N729 1.279 . S
C732 C731 1.358 . S
C732 H735 0.930 . S
C733 C730 1.348 . S
C733 C731 1.356 . S
H734 C728 0.930 . S
H735 C732 0.930 . S
C736 C738 1.348 . S
C736 C739 1.356 . S
C736 O766 1.325 . S
N737 C740 1.314 . S
N737 C741 1.279 . S
C738 C736 1.348 . S
C738 C740 1.353 . S
C738 H780 0.929 . S
C739 C736 1.356 . S
C739 C741 1.358 . S
C739 H781 0.930 . S
C740 N737 1.314 . S
C740 C738 1.353 . S
C740 H782 0.930 . S
C741 N737 1.279 . S
C741 C739 1.358 . S
C741 H783 0.930 . S
C742 C743 1.348 . S
C742 C744 1.356 . S
C742 O767 1.325 . S
C743 C742 1.348 . S
C743 C745 1.353 . S
C743 H784 0.929 . S
C744 C742 1.356 . S
C744 C746 1.358 . S
C744 H785 0.930 . S
C745 C743 1.353 . S
C745 N747 1.314 . S
C745 H786 0.930 . S
C746 C744 1.358 . S
C746 N747 1.279 . S
C746 H787 0.930 . S
N747 C745 1.314 . S
N747 C746 1.279 . S
C748 C750 1.353 . S
C748 N751 1.314 . S
C748 H754 0.930 . S
C749 N751 1.279 . S
C749 C752 1.358 . S
C749 H755 0.930 . S
C750 C748 1.353 . S
C750 C753 1.348 . S
C750 H788 0.929 . S
N751 Li706 1.990 . S
N751 C748 1.314 . S
N751 C749 1.279 . S
C752 C749 1.358 . S
C752 C753 1.356 . S
C752 H789 0.930 . S
C753 C750 1.348 . S
C753 C752 1.356 . S
H754 C748 0.930 . S
H755 C749 0.930 . S
C756 N757 1.314 . S
C756 C758 1.353 . S
C756 H762 0.930 . S
N757 Li707 1.990 . S
N757 C756 1.314 . S
N757 C760 1.279 . S
C758 C756 1.353 . S
C758 C761 1.348 . S
C758 H790 0.929 . S
C759 C760 1.358 . S
C759 C761 1.356 . S
C759 H791 0.930 . S
C760 N757 1.279 . S
C760 C759 1.358 . S
C760 H763 0.930 . S
C761 C758 1.348 . S
C761 C759 1.356 . S
H762 C756 0.930 . S
H763 C760 0.930 . S
O764 Li704 1.956 . S
O764 Li705 1.970 . S
O764 Li706 1.961 . S
O764 C708 1.325 . S
O765 Li704 1.970 . S
O765 Li705 1.956 . S
O765 Li707 1.961 . S
O765 C714 1.325 . S
O766 Li704 1.961 . S
O766 Li706 1.956 . S
O766 Li707 1.970 . S
O766 C736 1.325 . S
O767 Li705 1.961 . S
O767 Li706 1.970 . S
O767 Li707 1.956 . S
O767 C742 1.325 . S
H768 C710 0.929 . S
H769 C711 0.930 . S
H770 C712 0.930 . S
H771 C713 0.930 . S
H772 C715 0.930 . S
H773 C717 0.929 . S
H774 C718 0.930 . S
H775 C719 0.930 . S
H776 C722 0.930 . S
H777 C725 0.929 . S
H778 C730 0.929 . S
H779 C731 0.930 . S
H780 C738 0.929 . S
H781 C739 0.930 . S
H782 C740 0.930 . S
H783 C741 0.930 . S
H784 C743 0.929 . S
H785 C744 0.930 . S
H786 C745 0.930 . S
H787 C746 0.930 . S
H788 C750 0.929 . S
H789 C752 0.930 . S
H790 C758 0.929 . S
H791 C759 0.930 . S
Li792 N809 1.990 . S
Li792 O852 1.956 . S
Li792 O853 1.970 . S
Li792 O854 1.961 . S
Li793 N817 1.990 . S
Li793 O852 1.970 . S
Li793 O853 1.956 . S
Li793 O855 1.961 . S
Li794 N839 1.990 . S
Li794 O852 1.961 . S
Li794 O854 1.956 . S
Li794 O855 1.970 . S
Li795 N845 1.990 . S
Li795 O853 1.961 . S
Li795 O854 1.970 . S
Li795 O855 1.956 . S
C796 C798 1.351 . S
C796 C799 1.356 . S
C796 O852 1.325 . S
N797 C800 1.314 . S
N797 C801 1.279 1_655 S
C798 C796 1.351 . S
C798 C800 1.350 1_455 S
C798 H856 0.929 1_455 S
C799 C796 1.356 . S
C799 C801 1.358 . S
C799 H857 0.930 . S
C800 N797 1.314 . S
C800 C798 1.350 1_655 S
C800 H858 0.930 . S
C801 N797 1.279 1_455 S
C801 C799 1.358 . S
C801 H859 0.930 . S
C802 C805 1.348 . S
C802 C806 1.356 . S
C802 O853 1.325 . S
C803 N804 1.279 . S
C803 C806 1.358 . S
C803 H860 0.930 . S
N804 C803 1.279 . S
N804 C807 1.314 . S
C805 C802 1.348 . S
C805 C807 1.353 . S
C805 H861 0.929 . S
C806 C802 1.356 . S
C806 C803 1.358 . S
C806 H862 0.930 . S
C807 N804 1.314 . S
C807 C805 1.353 . S
C807 H863 0.930 . S
C808 N809 1.314 . S
C808 C813 1.353 . S
C808 H814 0.930 . S
N809 Li792 1.990 . S
N809 C808 1.314 . S
N809 C811 1.279 . S
C810 C811 1.358 . S
C810 C812 1.356 . S
C810 H864 0.930 1_455 S
C811 N809 1.279 . S
C811 C810 1.358 . S
C811 H815 0.930 . S
C812 C810 1.356 . S
C812 C813 1.348 . S
C813 C808 1.353 . S
C813 C812 1.348 . S
C813 H865 0.929 . S
H814 C808 0.930 . S
H815 C811 0.930 . S
C816 N817 1.314 . S
C816 C818 1.353 . S
C816 H822 0.930 . S
N817 Li793 1.990 . S
N817 C816 1.314 . S
N817 C820 1.279 . S
C818 C816 1.353 . S
C818 C821 1.348 1_455 S
C818 H866 0.933 . S
C819 C820 1.358 1_655 S
C819 C821 1.356 . S
C819 H867 0.930 . S
C820 N817 1.279 . S
C820 C819 1.358 1_455 S
C820 H823 0.930 . S
C821 C818 1.348 1_655 S
C821 C819 1.356 . S
H822 C816 0.930 . S
H823 C820 0.930 . S
C824 C826 1.348 . S
C824 C827 1.356 . S
C824 O854 1.325 . S
N825 C828 1.314 . S
N825 C829 1.279 . S
C826 C824 1.348 . S
C826 C828 1.353 . S
C826 H868 0.929 . S
C827 C824 1.356 . S
C827 C829 1.358 . S
C827 H869 0.930 . S
C828 N825 1.314 . S
C828 C826 1.353 . S
C828 H870 0.930 . S
C829 N825 1.279 . S
C829 C827 1.358 . S
C829 H871 0.930 . S
C830 C831 1.348 . S
C830 C832 1.356 . S
C830 O855 1.325 . S
C831 C830 1.348 . S
C831 C833 1.353 . S
C831 H872 0.929 . S
C832 C830 1.356 . S
C832 C834 1.358 . S
C832 H873 0.930 . S
C833 C831 1.353 . S
C833 N835 1.314 . S
C833 H874 0.930 . S
C834 C832 1.358 . S
C834 N835 1.279 . S
C834 H875 0.930 . S
N835 C833 1.314 . S
N835 C834 1.279 . S
C836 C838 1.353 . S
C836 N839 1.314 . S
C836 H842 0.930 . S
C837 N839 1.279 . S
C837 C840 1.358 . S
C837 H843 0.930 . S
C838 C836 1.353 . S
C838 C841 1.348 . S
C838 H876 0.929 . S
N839 Li794 1.990 . S
N839 C836 1.314 . S
N839 C837 1.279 . S
C840 C837 1.358 . S
C840 C841 1.356 . S
C840 H877 0.930 . S
C841 C838 1.348 . S
C841 C840 1.356 . S
H842 C836 0.930 . S
H843 C837 0.930 . S
C844 N845 1.314 . S
C844 C846 1.353 . S
C844 H850 0.930 . S
N845 Li795 1.990 . S
N845 C844 1.314 . S
N845 C848 1.279 . S
C846 C844 1.353 . S
C846 C849 1.348 . S
C846 H878 0.929 . S
C847 C848 1.358 . S
C847 C849 1.356 . S
C847 H879 0.930 . S
C848 N845 1.279 . S
C848 C847 1.358 . S
C848 H851 0.930 . S
C849 C846 1.348 . S
C849 C847 1.356 . S
H850 C844 0.930 . S
H851 C848 0.930 . S
O852 Li792 1.956 . S
O852 Li793 1.970 . S
O852 Li794 1.961 . S
O852 C796 1.325 . S
O853 Li792 1.970 . S
O853 Li793 1.956 . S
O853 Li795 1.961 . S
O853 C802 1.325 . S
O854 Li792 1.961 . S
O854 Li794 1.956 . S
O854 Li795 1.970 . S
O854 C824 1.325 . S
O855 Li793 1.961 . S
O855 Li794 1.970 . S
O855 Li795 1.956 . S
O855 C830 1.325 . S
H856 C798 0.929 1_655 S
H857 C799 0.930 . S
H858 C800 0.930 . S
H859 C801 0.930 . S
H860 C803 0.930 . S
H861 C805 0.929 . S
H862 C806 0.930 . S
H863 C807 0.930 . S
H864 C810 0.930 1_655 S
H865 C813 0.929 . S
H866 C818 0.933 . S
H867 C819 0.930 . S
H868 C826 0.929 . S
H869 C827 0.930 . S
H870 C828 0.930 . S
H871 C829 0.930 . S
H872 C831 0.929 . S
H873 C832 0.930 . S
H874 C833 0.930 . S
H875 C834 0.930 . S
H876 C838 0.929 . S
H877 C840 0.930 . S
H878 C846 0.929 . S
H879 C847 0.930 . S
Li880 N897 1.990 . S
Li880 O940 1.956 . S
Li880 O941 1.970 . S
Li880 O942 1.961 . S
Li881 N905 1.990 . S
Li881 O940 1.970 . S
Li881 O941 1.956 . S
Li881 O943 1.961 . S
Li882 N927 1.990 . S
Li882 O940 1.961 . S
Li882 O942 1.956 . S
Li882 O943 1.970 . S
Li883 N933 1.990 . S
Li883 O941 1.961 . S
Li883 O942 1.970 . S
Li883 O943 1.956 . S
C884 C886 1.348 . S
C884 C887 1.356 . S
C884 O940 1.325 . S
N885 C888 1.314 . S
N885 C889 1.279 . S
C886 C884 1.348 . S
C886 C888 1.353 . S
C886 H944 0.929 . S
C887 C884 1.356 . S
C887 C889 1.358 . S
C887 H945 0.930 . S
C888 N885 1.314 . S
C888 C886 1.353 . S
C888 H946 0.930 . S
C889 N885 1.279 . S
C889 C887 1.358 . S
C889 H947 0.930 . S
C890 C893 1.348 . S
C890 C894 1.356 . S
C890 O941 1.325 . S
C891 N892 1.279 . S
C891 C894 1.358 . S
C891 H948 0.930 . S
N892 C891 1.279 . S
N892 C895 1.314 . S
C893 C890 1.348 . S
C893 C895 1.353 . S
C893 H949 0.929 . S
C894 C890 1.356 . S
C894 C891 1.358 . S
C894 H950 0.930 . S
C895 N892 1.314 . S
C895 C893 1.353 . S
C895 H951 0.930 . S
C896 N897 1.314 . S
C896 C901 1.353 . S
C896 H902 0.930 . S
N897 Li880 1.990 . S
N897 C896 1.314 . S
N897 C899 1.279 . S
C898 C899 1.358 . S
C898 C900 1.356 . S
C898 H952 0.930 . S
C899 N897 1.279 . S
C899 C898 1.358 . S
C899 H903 0.930 . S
C900 C898 1.356 . S
C900 C901 1.348 . S
C901 C896 1.353 . S
C901 C900 1.348 . S
C901 H953 0.929 . S
H902 C896 0.930 . S
H903 C899 0.930 . S
C904 N905 1.314 . S
C904 C906 1.353 . S
C904 H910 0.930 . S
N905 Li881 1.990 . S
N905 C904 1.314 . S
N905 C908 1.279 . S
C906 C904 1.353 . S
C906 C909 1.348 . S
C906 H954 0.929 . S
C907 C908 1.358 . S
C907 C909 1.356 . S
C907 H955 0.930 . S
C908 N905 1.279 . S
C908 C907 1.358 . S
C908 H911 0.930 . S
C909 C906 1.348 . S
C909 C907 1.356 . S
H910 C904 0.930 . S
H911 C908 0.930 . S
C912 C914 1.348 . S
C912 C915 1.356 . S
C912 O942 1.325 . S
N913 C916 1.314 . S
N913 C917 1.279 . S
C914 C912 1.348 . S
C914 C916 1.353 . S
C914 H956 0.929 . S
C915 C912 1.356 . S
C915 C917 1.358 . S
C915 H957 0.930 . S
C916 N913 1.314 . S
C916 C914 1.353 . S
C916 H958 0.930 . S
C917 N913 1.279 . S
C917 C915 1.358 . S
C917 H959 0.930 . S
C918 C919 1.348 . S
C918 C920 1.356 . S
C918 O943 1.325 . S
C919 C918 1.348 . S
C919 C921 1.353 . S
C919 H960 0.929 . S
C920 C918 1.356 . S
C920 C922 1.358 . S
C920 H961 0.930 . S
C921 C919 1.353 . S
C921 N923 1.314 . S
C921 H962 0.930 . S
C922 C920 1.358 . S
C922 N923 1.279 . S
C922 H963 0.930 . S
N923 C921 1.314 . S
N923 C922 1.279 . S
C924 C926 1.353 . S
C924 N927 1.314 . S
C924 H930 0.930 . S
C925 N927 1.279 . S
C925 C928 1.358 . S
C925 H931 0.930 . S
C926 C924 1.353 . S
C926 C929 1.348 . S
C926 H964 0.929 . S
N927 Li882 1.990 . S
N927 C924 1.314 . S
N927 C925 1.279 . S
C928 C925 1.358 . S
C928 C929 1.356 . S
C928 H965 0.930 . S
C929 C926 1.348 . S
C929 C928 1.356 . S
H930 C924 0.930 . S
H931 C925 0.930 . S
C932 N933 1.314 . S
C932 C934 1.353 . S
C932 H938 0.930 . S
N933 Li883 1.990 . S
N933 C932 1.314 . S
N933 C936 1.279 . S
C934 C932 1.353 . S
C934 C937 1.348 . S
C934 H966 0.929 . S
C935 C936 1.358 . S
C935 C937 1.356 . S
C935 H967 0.930 . S
C936 N933 1.279 . S
C936 C935 1.358 . S
C936 H939 0.930 . S
C937 C934 1.348 . S
C937 C935 1.356 . S
H938 C932 0.930 . S
H939 C936 0.930 . S
O940 Li880 1.956 . S
O940 Li881 1.970 . S
O940 Li882 1.961 . S
O940 C884 1.325 . S
O941 Li880 1.970 . S
O941 Li881 1.956 . S
O941 Li883 1.961 . S
O941 C890 1.325 . S
O942 Li880 1.961 . S
O942 Li882 1.956 . S
O942 Li883 1.970 . S
O942 C912 1.325 . S
O943 Li881 1.961 . S
O943 Li882 1.970 . S
O943 Li883 1.956 . S
O943 C918 1.325 . S
H944 C886 0.929 . S
H945 C887 0.930 . S
H946 C888 0.930 . S
H947 C889 0.930 . S
H948 C891 0.930 . S
H949 C893 0.929 . S
H950 C894 0.930 . S
H951 C895 0.930 . S
H952 C898 0.930 . S
H953 C901 0.929 . S
H954 C906 0.929 . S
H955 C907 0.930 . S
H956 C914 0.929 . S
H957 C915 0.930 . S
H958 C916 0.930 . S
H959 C917 0.930 . S
H960 C919 0.929 . S
H961 C920 0.930 . S
H962 C921 0.930 . S
H963 C922 0.930 . S
H964 C926 0.929 . S
H965 C928 0.930 . S
H966 C934 0.929 . S
H967 C935 0.930 . S
Li968 N985 1.990 . S
Li968 O1028 1.956 . S
Li968 O1029 1.970 . S
Li968 O1030 1.961 . S
Li969 N993 1.990 . S
Li969 O1028 1.970 . S
Li969 O1029 1.956 . S
Li969 O1031 1.961 . S
Li970 N1015 1.990 . S
Li970 O1028 1.961 . S
Li970 O1030 1.956 . S
Li970 O1031 1.970 . S
Li971 N1021 1.990 . S
Li971 O1029 1.961 . S
Li971 O1030 1.970 . S
Li971 O1031 1.956 . S
C972 C974 1.348 . S
C972 C975 1.356 1_554 S
C972 O1028 1.325 . S
N973 C976 1.314 1_556 S
N973 C977 1.279 . S
C974 C972 1.348 . S
C974 C976 1.353 . S
C974 H1032 0.929 . S
C975 C972 1.356 1_556 S
C975 C977 1.358 . S
C975 H1033 0.930 . S
C976 N973 1.314 1_554 S
C976 C974 1.353 . S
C976 H1034 0.930 . S
C977 N973 1.279 . S
C977 C975 1.358 . S
C977 H1035 0.930 . S
C978 C981 1.348 . S
C978 C982 1.356 . S
C978 O1029 1.325 . S
C979 N980 1.279 . S
C979 C982 1.358 . S
C979 H1036 0.930 . S
N980 C979 1.279 . S
N980 C983 1.314 . S
C981 C978 1.348 . S
C981 C983 1.353 . S
C981 H1037 0.929 . S
C982 C978 1.356 . S
C982 C979 1.358 . S
C982 H1038 0.930 . S
C983 N980 1.314 . S
C983 C981 1.353 . S
C983 H1039 0.930 . S
C984 N985 1.314 . S
C984 C989 1.353 . S
C984 H990 0.930 . S
N985 Li968 1.990 . S
N985 C984 1.314 . S
N985 C987 1.279 . S
C986 C987 1.358 1_556 S
C986 C988 1.356 . S
C986 H1040 0.930 . S
C987 N985 1.279 . S
C987 C986 1.358 1_554 S
C987 H991 0.930 . S
C988 C986 1.356 . S
C988 C989 1.348 1_556 S
C989 C984 1.353 . S
C989 C988 1.348 1_554 S
C989 H1041 0.929 . S
H990 C984 0.930 . S
H991 C987 0.930 . S
C992 N993 1.314 . S
C992 C994 1.353 . S
C992 H998 0.930 . S
N993 Li969 1.990 . S
N993 C992 1.314 . S
N993 C996 1.279 . S
C994 C992 1.353 . S
C994 C997 1.348 . S
C994 H1042 0.929 . S
C995 C996 1.358 . S
C995 C997 1.356 . S
C995 H1043 0.930 . S
C996 N993 1.279 . S
C996 C995 1.358 . S
C996 H999 0.930 . S
C997 C994 1.348 . S
C997 C995 1.356 . S
H998 C992 0.930 . S
H999 C996 0.930 . S
C1000 C1002 1.348 . S
C1000 C1003 1.313 1_554 S
C1000 O1030 1.325 . S
N1001 C1004 1.314 1_556 S
N1001 C1005 1.279 . S
C1002 C1000 1.348 . S
C1002 C1004 1.353 . S
C1002 H1044 0.929 . S
C1003 C1000 1.313 1_556 S
C1003 C1005 1.383 . S
C1003 H1045 0.950 . S
C1004 N1001 1.314 1_554 S
C1004 C1002 1.353 . S
C1004 H1046 0.930 . S
C1005 N1001 1.279 . S
C1005 C1003 1.383 . S
C1005 H1047 0.930 . S
C1006 C1007 1.348 . S
C1006 C1008 1.356 . S
C1006 O1031 1.325 . S
C1007 C1006 1.348 . S
C1007 C1009 1.353 . S
C1007 H1048 0.929 . S
C1008 C1006 1.356 . S
C1008 C1010 1.358 . S
C1008 H1049 0.930 . S
C1009 C1007 1.353 . S
C1009 N1011 1.314 . S
C1009 H1050 0.930 . S
C1010 C1008 1.358 . S
C1010 N1011 1.279 . S
C1010 H1051 0.930 . S
N1011 C1009 1.314 . S
N1011 C1010 1.279 . S
C1012 C1014 1.355 1_554 S
C1012 N1015 1.314 . S
C1012 H1018 0.928 . S
C1013 N1015 1.279 1_556 S
C1013 C1016 1.358 . S
C1013 H1019 0.930 . S
C1014 C1012 1.355 1_556 S
C1014 C1017 1.348 . S
C1014 H1052 0.929 . S
N1015 Li970 1.990 . S
N1015 C1012 1.314 . S
N1015 C1013 1.279 1_554 S
C1016 C1013 1.358 . S
C1016 C1017 1.356 . S
C1016 H1053 0.930 . S
C1017 C1014 1.348 . S
C1017 C1016 1.356 . S
H1018 C1012 0.928 . S
H1019 C1013 0.930 . S
C1020 N1021 1.314 . S
C1020 C1022 1.353 . S
C1020 H1026 0.930 . S
N1021 Li971 1.990 . S
N1021 C1020 1.314 . S
N1021 C1024 1.279 . S
C1022 C1020 1.353 . S
C1022 C1025 1.348 . S
C1022 H1054 0.929 . S
C1023 C1024 1.358 . S
C1023 C1025 1.356 . S
C1023 H1055 0.930 . S
C1024 N1021 1.279 . S
C1024 C1023 1.358 . S
C1024 H1027 0.930 . S
C1025 C1022 1.348 . S
C1025 C1023 1.356 . S
H1026 C1020 0.930 . S
H1027 C1024 0.930 . S
O1028 Li968 1.956 . S
O1028 Li969 1.970 . S
O1028 Li970 1.961 . S
O1028 C972 1.325 . S
O1029 Li968 1.970 . S
O1029 Li969 1.956 . S
O1029 Li971 1.961 . S
O1029 C978 1.325 . S
O1030 Li968 1.961 . S
O1030 Li970 1.956 . S
O1030 Li971 1.970 . S
O1030 C1000 1.325 . S
O1031 Li969 1.961 . S
O1031 Li970 1.970 . S
O1031 Li971 1.956 . S
O1031 C1006 1.325 . S
H1032 C974 0.929 . S
H1033 C975 0.930 . S
H1034 C976 0.930 . S
H1035 C977 0.930 . S
H1036 C979 0.930 . S
H1037 C981 0.929 . S
H1038 C982 0.930 . S
H1039 C983 0.930 . S
H1040 C986 0.930 . S
H1041 C989 0.929 . S
H1042 C994 0.929 . S
H1043 C995 0.930 . S
H1044 C1002 0.929 . S
H1045 C1003 0.950 . S
H1046 C1004 0.930 . S
H1047 C1005 0.930 . S
H1048 C1007 0.929 . S
H1049 C1008 0.930 . S
H1050 C1009 0.930 . S
H1051 C1010 0.930 . S
H1052 C1014 0.929 . S
H1053 C1016 0.930 . S
H1054 C1022 0.929 . S
H1055 C1023 0.930 . S
Li1056 N1073 1.990 . S
Li1056 O1116 1.956 . S
Li1056 O1117 1.970 . S
Li1056 O1118 1.961 . S
Li1057 N1081 1.990 . S
Li1057 O1116 1.970 . S
Li1057 O1117 1.956 . S
Li1057 O1119 1.961 . S
Li1058 N1103 1.990 . S
Li1058 O1116 1.961 . S
Li1058 O1118 1.956 . S
Li1058 O1119 1.970 . S
Li1059 N1109 1.990 . S
Li1059 O1117 1.961 . S
Li1059 O1118 1.970 . S
Li1059 O1119 1.956 . S
C1060 C1062 1.348 . S
C1060 C1063 1.356 . S
C1060 O1116 1.325 . S
N1061 C1064 1.314 . S
N1061 C1065 1.279 . S
C1062 C1060 1.348 . S
C1062 C1064 1.353 . S
C1062 H1120 0.929 . S
C1063 C1060 1.356 . S
C1063 C1065 1.358 . S
C1063 H1121 0.930 . S
C1064 N1061 1.314 . S
C1064 C1062 1.353 . S
C1064 H1122 0.930 . S
C1065 N1061 1.279 . S
C1065 C1063 1.358 . S
C1065 H1123 0.930 . S
C1066 C1069 1.348 . S
C1066 C1070 1.356 . S
C1066 O1117 1.325 . S
C1067 N1068 1.279 . S
C1067 C1070 1.358 . S
C1067 H1124 0.930 . S
N1068 C1067 1.279 . S
N1068 C1071 1.314 . S
C1069 C1066 1.348 . S
C1069 C1071 1.353 . S
C1069 H1125 0.929 . S
C1070 C1066 1.356 . S
C1070 C1067 1.358 . S
C1070 H1126 0.930 . S
C1071 N1068 1.314 . S
C1071 C1069 1.353 . S
C1071 H1127 0.930 . S
C1072 N1073 1.314 . S
C1072 C1077 1.353 . S
C1072 H1078 0.930 . S
N1073 Li1056 1.990 . S
N1073 C1072 1.314 . S
N1073 C1075 1.279 . S
C1074 C1075 1.358 . S
C1074 C1076 1.356 . S
C1074 H1128 0.930 . S
C1075 N1073 1.279 . S
C1075 C1074 1.358 . S
C1075 H1079 0.930 . S
C1076 C1074 1.356 . S
C1076 C1077 1.348 . S
C1077 C1072 1.353 . S
C1077 C1076 1.348 . S
C1077 H1129 0.929 . S
H1078 C1072 0.930 . S
H1079 C1075 0.930 . S
C1080 N1081 1.314 . S
C1080 C1082 1.353 . S
C1080 H1086 0.930 . S
N1081 Li1057 1.990 . S
N1081 C1080 1.314 . S
N1081 C1084 1.279 . S
C1082 C1080 1.353 . S
C1082 C1085 1.348 . S
C1082 H1130 0.929 . S
C1083 C1084 1.358 . S
C1083 C1085 1.356 . S
C1083 H1131 0.930 . S
C1084 N1081 1.279 . S
C1084 C1083 1.358 . S
C1084 H1087 0.930 . S
C1085 C1082 1.348 . S
C1085 C1083 1.356 . S
H1086 C1080 0.930 . S
H1087 C1084 0.930 . S
C1088 C1090 1.348 . S
C1088 C1091 1.356 . S
C1088 O1118 1.325 . S
N1089 C1092 1.314 . S
N1089 C1093 1.279 . S
C1090 C1088 1.348 . S
C1090 C1092 1.353 . S
C1090 H1132 0.929 . S
C1091 C1088 1.356 . S
C1091 C1093 1.358 . S
C1091 H1133 0.930 . S
C1092 N1089 1.314 . S
C1092 C1090 1.353 . S
C1092 H1134 0.930 . S
C1093 N1089 1.279 . S
C1093 C1091 1.358 . S
C1093 H1135 0.930 . S
C1094 C1095 1.348 . S
C1094 C1096 1.356 . S
C1094 O1119 1.325 . S
C1095 C1094 1.348 . S
C1095 C1097 1.353 . S
C1095 H1136 0.929 . S
C1096 C1094 1.356 . S
C1096 C1098 1.358 . S
C1096 H1137 0.930 . S
C1097 C1095 1.353 . S
C1097 N1099 1.314 . S
C1097 H1138 0.930 . S
C1098 C1096 1.358 . S
C1098 N1099 1.279 . S
C1098 H1139 0.930 . S
N1099 C1097 1.314 . S
N1099 C1098 1.279 . S
C1100 C1102 1.353 . S
C1100 N1103 1.314 . S
C1100 H1106 0.930 . S
C1101 N1103 1.279 . S
C1101 C1104 1.358 . S
C1101 H1107 0.930 . S
C1102 C1100 1.353 . S
C1102 C1105 1.348 . S
C1102 H1140 0.929 . S
N1103 Li1058 1.990 . S
N1103 C1100 1.314 . S
N1103 C1101 1.279 . S
C1104 C1101 1.358 . S
C1104 C1105 1.356 . S
C1104 H1141 0.930 . S
C1105 C1102 1.348 . S
C1105 C1104 1.356 . S
H1106 C1100 0.930 . S
H1107 C1101 0.930 . S
C1108 N1109 1.314 . S
C1108 C1110 1.353 . S
C1108 H1114 0.930 . S
N1109 Li1059 1.990 . S
N1109 C1108 1.314 . S
N1109 C1112 1.279 . S
C1110 C1108 1.353 . S
C1110 C1113 1.348 . S
C1110 H1142 0.929 . S
C1111 C1112 1.358 . S
C1111 C1113 1.356 . S
C1111 H1143 0.930 . S
C1112 N1109 1.279 . S
C1112 C1111 1.358 . S
C1112 H1115 0.930 . S
C1113 C1110 1.348 . S
C1113 C1111 1.356 . S
H1114 C1108 0.930 . S
H1115 C1112 0.930 . S
O1116 Li1056 1.956 . S
O1116 Li1057 1.970 . S
O1116 Li1058 1.961 . S
O1116 C1060 1.325 . S
O1117 Li1056 1.970 . S
O1117 Li1057 1.956 . S
O1117 Li1059 1.961 . S
O1117 C1066 1.325 . S
O1118 Li1056 1.961 . S
O1118 Li1058 1.956 . S
O1118 Li1059 1.970 . S
O1118 C1088 1.325 . S
O1119 Li1057 1.961 . S
O1119 Li1058 1.970 . S
O1119 Li1059 1.956 . S
O1119 C1094 1.325 . S
H1120 C1062 0.929 . S
H1121 C1063 0.930 . S
H1122 C1064 0.930 . S
H1123 C1065 0.930 . S
H1124 C1067 0.930 . S
H1125 C1069 0.929 . S
H1126 C1070 0.930 . S
H1127 C1071 0.930 . S
H1128 C1074 0.930 . S
H1129 C1077 0.929 . S
H1130 C1082 0.929 . S
H1131 C1083 0.930 . S
H1132 C1090 0.929 . S
H1133 C1091 0.930 . S
H1134 C1092 0.930 . S
H1135 C1093 0.930 . S
H1136 C1095 0.929 . S
H1137 C1096 0.930 . S
H1138 C1097 0.930 . S
H1139 C1098 0.930 . S
H1140 C1102 0.929 . S
H1141 C1104 0.930 . S
H1142 C1110 0.929 . S
H1143 C1111 0.930 . S
Li1144 N1161 1.990 . S
Li1144 O1204 1.956 . S
Li1144 O1205 1.970 . S
Li1144 O1206 1.961 . S
Li1145 N1169 1.990 . S
Li1145 O1204 1.970 . S
Li1145 O1205 1.956 . S
Li1145 O1207 1.961 . S
Li1146 N1191 1.990 . S
Li1146 O1204 1.961 . S
Li1146 O1206 1.956 . S
Li1146 O1207 1.970 . S
Li1147 N1197 1.990 . S
Li1147 O1205 1.961 . S
Li1147 O1206 1.970 . S
Li1147 O1207 1.956 . S
C1148 C1150 1.348 . S
C1148 C1151 1.313 1_556 S
C1148 O1204 1.325 . S
N1149 C1152 1.314 1_554 S
N1149 C1153 1.279 . S
C1150 C1148 1.348 . S
C1150 C1152 1.353 . S
C1150 H1208 0.929 . S
C1151 C1148 1.313 1_554 S
C1151 C1153 1.383 . S
C1151 H1209 0.950 . S
C1152 N1149 1.314 1_556 S
C1152 C1150 1.353 . S
C1152 H1210 0.930 . S
C1153 N1149 1.279 . S
C1153 C1151 1.383 . S
C1153 H1211 0.930 . S
C1154 C1157 1.352 . S
C1154 C1158 1.356 . S
C1154 O1205 1.325 . S
C1155 N1156 1.279 1_655 S
C1155 C1158 1.358 . S
C1155 H1212 0.930 . S
N1156 C1155 1.279 1_455 S
N1156 C1159 1.314 . S
C1157 C1154 1.352 . S
C1157 C1159 1.349 1_655 S
C1157 H1213 0.929 1_655 S
C1158 C1154 1.356 . S
C1158 C1155 1.358 . S
C1158 H1214 0.930 . S
C1159 N1156 1.314 . S
C1159 C1157 1.349 1_455 S
C1159 H1215 0.930 . S
C1160 N1161 1.313 . S
C1160 C1165 1.355 1_556 S
C1160 H1166 0.928 . S
N1161 Li1144 1.990 . S
N1161 C1160 1.313 . S
N1161 C1163 1.279 1_556 S
C1162 C1163 1.358 1_455 S
C1162 C1164 1.356 . S
C1162 H1216 0.930 . S
C1163 N1161 1.279 1_554 S
C1163 C1162 1.358 1_655 S
C1163 H1167 0.930 . S
C1164 C1162 1.356 . S
C1164 C1165 1.348 1_455 S
C1165 C1160 1.355 1_554 S
C1165 C1164 1.348 1_655 S
C1165 H1217 0.934 . S
H1166 C1160 0.928 . S
H1167 C1163 0.930 . S
C1168 N1169 1.314 . S
C1168 C1170 1.353 . S
C1168 H1174 0.930 . S
N1169 Li1145 1.990 . S
N1169 C1168 1.314 . S
N1169 C1172 1.279 . S
C1170 C1168 1.353 . S
C1170 C1173 1.348 . S
C1170 H1218 0.929 . S
C1171 C1172 1.358 . S
C1171 C1173 1.356 . S
C1171 H1219 0.930 1_655 S
C1172 N1169 1.279 . S
C1172 C1171 1.358 . S
C1172 H1175 0.930 . S
C1173 C1170 1.348 . S
C1173 C1171 1.356 . S
H1174 C1168 0.930 . S
H1175 C1172 0.930 . S
C1176 C1178 1.348 . S
C1176 C1179 1.356 1_556 S
C1176 O1206 1.325 . S
N1177 C1180 1.314 1_554 S
N1177 C1181 1.279 . S
C1178 C1176 1.348 . S
C1178 C1180 1.353 . S
C1178 H1220 0.929 . S
C1179 C1176 1.356 1_554 S
C1179 C1181 1.358 . S
C1179 H1221 0.930 . S
C1180 N1177 1.314 1_556 S
C1180 C1178 1.353 . S
C1180 H1222 0.930 . S
C1181 N1177 1.279 . S
C1181 C1179 1.358 . S
C1181 H1223 0.930 . S
C1182 C1183 1.348 . S
C1182 C1184 1.356 . S
C1182 O1207 1.325 . S
C1183 C1182 1.348 . S
C1183 C1185 1.353 . S
C1183 H1224 0.929 . S
C1184 C1182 1.356 . S
C1184 C1186 1.358 . S
C1184 H1225 0.930 . S
C1185 C1183 1.353 . S
C1185 N1187 1.314 . S
C1185 H1226 0.930 . S
C1186 C1184 1.358 . S
C1186 N1187 1.279 . S
C1186 H1227 0.930 . S
N1187 C1185 1.314 . S
N1187 C1186 1.279 . S
C1188 C1190 1.353 . S
C1188 N1191 1.314 . S
C1188 H1194 0.930 . S
C1189 N1191 1.279 . S
C1189 C1192 1.358 1_556 S
C1189 H1195 0.930 . S
C1190 C1188 1.353 . S
C1190 C1193 1.348 1_556 S
C1190 H1228 0.929 . S
N1191 Li1146 1.990 . S
N1191 C1188 1.314 . S
N1191 C1189 1.279 . S
C1192 C1189 1.358 1_554 S
C1192 C1193 1.356 . S
C1192 H1229 0.930 . S
C1193 C1190 1.348 1_554 S
C1193 C1192 1.356 . S
H1194 C1188 0.930 . S
H1195 C1189 0.930 . S
C1196 N1197 1.314 . S
C1196 C1198 1.353 . S
C1196 H1202 0.930 . S
N1197 Li1147 1.990 . S
N1197 C1196 1.314 . S
N1197 C1200 1.279 . S
C1198 C1196 1.353 . S
C1198 C1201 1.348 . S
C1198 H1230 0.929 . S
C1199 C1200 1.358 . S
C1199 C1201 1.356 . S
C1199 H1231 0.930 . S
C1200 N1197 1.279 . S
C1200 C1199 1.358 . S
C1200 H1203 0.930 . S
C1201 C1198 1.348 . S
C1201 C1199 1.356 . S
H1202 C1196 0.930 . S
H1203 C1200 0.930 . S
O1204 Li1144 1.956 . S
O1204 Li1145 1.970 . S
O1204 Li1146 1.961 . S
O1204 C1148 1.325 . S
O1205 Li1144 1.970 . S
O1205 Li1145 1.956 . S
O1205 Li1147 1.961 . S
O1205 C1154 1.325 . S
O1206 Li1144 1.961 . S
O1206 Li1146 1.956 . S
O1206 Li1147 1.970 . S
O1206 C1176 1.325 . S
O1207 Li1145 1.961 . S
O1207 Li1146 1.970 . S
O1207 Li1147 1.956 . S
O1207 C1182 1.325 . S
H1208 C1150 0.929 . S
H1209 C1151 0.950 . S
H1210 C1152 0.930 . S
H1211 C1153 0.930 . S
H1212 C1155 0.930 . S
H1213 C1157 0.929 1_455 S
H1214 C1158 0.930 . S
H1215 C1159 0.930 . S
H1216 C1162 0.930 . S
H1217 C1165 0.934 . S
H1218 C1170 0.929 . S
H1219 C1171 0.930 1_455 S
H1220 C1178 0.929 . S
H1221 C1179 0.930 . S
H1222 C1180 0.930 . S
H1223 C1181 0.930 . S
H1224 C1183 0.929 . S
H1225 C1184 0.930 . S
H1226 C1185 0.930 . S
H1227 C1186 0.930 . S
H1228 C1190 0.929 . S
H1229 C1192 0.930 . S
H1230 C1198 0.929 . S
H1231 C1199 0.930 . S
Li1232 N1249 1.990 . S
Li1232 O1292 1.956 . S
Li1232 O1293 1.970 . S
Li1232 O1294 1.961 . S
Li1233 N1257 1.990 . S
Li1233 O1292 1.970 . S
Li1233 O1293 1.956 . S
Li1233 O1295 1.961 . S
Li1234 N1279 1.990 . S
Li1234 O1292 1.961 . S
Li1234 O1294 1.956 . S
Li1234 O1295 1.970 . S
Li1235 N1285 1.990 . S
Li1235 O1293 1.961 . S
Li1235 O1294 1.970 . S
Li1235 O1295 1.956 . S
C1236 C1238 1.348 . S
C1236 C1239 1.356 . S
C1236 O1292 1.325 . S
N1237 C1240 1.314 . S
N1237 C1241 1.279 . S
C1238 C1236 1.348 . S
C1238 C1240 1.353 . S
C1238 H1296 0.929 . S
C1239 C1236 1.356 . S
C1239 C1241 1.358 . S
C1239 H1297 0.930 . S
C1240 N1237 1.314 . S
C1240 C1238 1.353 . S
C1240 H1298 0.930 . S
C1241 N1237 1.279 . S
C1241 C1239 1.358 . S
C1241 H1299 0.930 . S
C1242 C1245 1.348 . S
C1242 C1246 1.356 . S
C1242 O1293 1.325 . S
C1243 N1244 1.279 . S
C1243 C1246 1.358 . S
C1243 H1300 0.930 . S
N1244 C1243 1.279 . S
N1244 C1247 1.314 . S
C1245 C1242 1.348 . S
C1245 C1247 1.353 . S
C1245 H1301 0.929 . S
C1246 C1242 1.356 . S
C1246 C1243 1.358 . S
C1246 H1302 0.930 . S
C1247 N1244 1.314 . S
C1247 C1245 1.353 . S
C1247 H1303 0.930 . S
C1248 N1249 1.314 . S
C1248 C1253 1.353 . S
C1248 H1254 0.930 . S
N1249 Li1232 1.990 . S
N1249 C1248 1.314 . S
N1249 C1251 1.279 . S
C1250 C1251 1.358 . S
C1250 C1252 1.356 . S
C1250 H1304 0.930 . S
C1251 N1249 1.279 . S
C1251 C1250 1.358 . S
C1251 H1255 0.930 . S
C1252 C1250 1.356 . S
C1252 C1253 1.348 . S
C1253 C1248 1.353 . S
C1253 C1252 1.348 . S
C1253 H1305 0.929 . S
H1254 C1248 0.930 . S
H1255 C1251 0.930 . S
C1256 N1257 1.314 . S
C1256 C1258 1.353 . S
C1256 H1262 0.930 . S
N1257 Li1233 1.990 . S
N1257 C1256 1.314 . S
N1257 C1260 1.279 . S
C1258 C1256 1.353 . S
C1258 C1261 1.348 . S
C1258 H1306 0.929 . S
C1259 C1260 1.358 . S
C1259 C1261 1.356 . S
C1259 H1307 0.930 . S
C1260 N1257 1.279 . S
C1260 C1259 1.358 . S
C1260 H1263 0.930 . S
C1261 C1258 1.348 . S
C1261 C1259 1.356 . S
H1262 C1256 0.930 . S
H1263 C1260 0.930 . S
C1264 C1266 1.348 . S
C1264 C1267 1.356 . S
C1264 O1294 1.325 . S
N1265 C1268 1.314 . S
N1265 C1269 1.279 . S
C1266 C1264 1.348 . S
C1266 C1268 1.353 . S
C1266 H1308 0.929 . S
C1267 C1264 1.356 . S
C1267 C1269 1.358 . S
C1267 H1309 0.930 . S
C1268 N1265 1.314 . S
C1268 C1266 1.353 . S
C1268 H1310 0.930 . S
C1269 N1265 1.279 . S
C1269 C1267 1.358 . S
C1269 H1311 0.930 . S
C1270 C1271 1.348 . S
C1270 C1272 1.356 . S
C1270 O1295 1.325 . S
C1271 C1270 1.348 . S
C1271 C1273 1.353 . S
C1271 H1312 0.929 . S
C1272 C1270 1.356 . S
C1272 C1274 1.358 . S
C1272 H1313 0.930 . S
C1273 C1271 1.353 . S
C1273 N1275 1.314 . S
C1273 H1314 0.930 . S
C1274 C1272 1.358 . S
C1274 N1275 1.279 . S
C1274 H1315 0.930 . S
N1275 C1273 1.314 . S
N1275 C1274 1.279 . S
C1276 C1278 1.353 . S
C1276 N1279 1.314 . S
C1276 H1282 0.930 . S
C1277 N1279 1.279 . S
C1277 C1280 1.358 . S
C1277 H1283 0.930 . S
C1278 C1276 1.353 . S
C1278 C1281 1.348 . S
C1278 H1316 0.929 . S
N1279 Li1234 1.990 . S
N1279 C1276 1.314 . S
N1279 C1277 1.279 . S
C1280 C1277 1.358 . S
C1280 C1281 1.356 . S
C1280 H1317 0.930 . S
C1281 C1278 1.348 . S
C1281 C1280 1.356 . S
H1282 C1276 0.930 . S
H1283 C1277 0.930 . S
C1284 N1285 1.314 . S
C1284 C1286 1.353 . S
C1284 H1290 0.930 . S
N1285 Li1235 1.990 . S
N1285 C1284 1.314 . S
N1285 C1288 1.279 . S
C1286 C1284 1.353 . S
C1286 C1289 1.348 . S
C1286 H1318 0.929 . S
C1287 C1288 1.358 . S
C1287 C1289 1.356 . S
C1287 H1319 0.930 . S
C1288 N1285 1.279 . S
C1288 C1287 1.358 . S
C1288 H1291 0.930 . S
C1289 C1286 1.348 . S
C1289 C1287 1.356 . S
H1290 C1284 0.930 . S
H1291 C1288 0.930 . S
O1292 Li1232 1.956 . S
O1292 Li1233 1.970 . S
O1292 Li1234 1.961 . S
O1292 C1236 1.325 . S
O1293 Li1232 1.970 . S
O1293 Li1233 1.956 . S
O1293 Li1235 1.961 . S
O1293 C1242 1.325 . S
O1294 Li1232 1.961 . S
O1294 Li1234 1.956 . S
O1294 Li1235 1.970 . S
O1294 C1264 1.325 . S
O1295 Li1233 1.961 . S
O1295 Li1234 1.970 . S
O1295 Li1235 1.956 . S
O1295 C1270 1.325 . S
H1296 C1238 0.929 . S
H1297 C1239 0.930 . S
H1298 C1240 0.930 . S
H1299 C1241 0.930 . S
H1300 C1243 0.930 . S
H1301 C1245 0.929 . S
H1302 C1246 0.930 . S
H1303 C1247 0.930 . S
H1304 C1250 0.930 . S
H1305 C1253 0.929 . S
H1306 C1258 0.929 . S
H1307 C1259 0.930 . S
H1308 C1266 0.929 . S
H1309 C1267 0.930 . S
H1310 C1268 0.930 . S
H1311 C1269 0.930 . S
H1312 C1271 0.929 . S
H1313 C1272 0.930 . S
H1314 C1273 0.930 . S
H1315 C1274 0.930 . S
H1316 C1278 0.929 . S
H1317 C1280 0.930 . S
H1318 C1286 0.929 . S
H1319 C1287 0.930 . S
Li1320 N1337 1.990 . S
Li1320 O1380 1.956 . S
Li1320 O1381 1.970 . S
Li1320 O1382 1.961 . S
Li1321 N1345 1.990 . S
Li1321 O1380 1.970 . S
Li1321 O1381 1.956 . S
Li1321 O1383 1.961 . S
Li1322 N1367 1.990 . S
Li1322 O1380 1.961 . S
Li1322 O1382 1.956 . S
Li1322 O1383 1.970 . S
Li1323 N1373 1.990 . S
Li1323 O1381 1.961 . S
Li1323 O1382 1.970 . S
Li1323 O1383 1.956 . S
C1324 C1326 1.348 . S
C1324 C1327 1.356 . S
C1324 O1380 1.325 . S
N1325 C1328 1.314 . S
N1325 C1329 1.279 . S
C1326 C1324 1.348 . S
C1326 C1328 1.353 . S
C1326 H1384 0.929 . S
C1327 C1324 1.356 . S
C1327 C1329 1.358 . S
C1327 H1385 0.930 . S
C1328 N1325 1.314 . S
C1328 C1326 1.353 . S
C1328 H1386 0.930 . S
C1329 N1325 1.279 . S
C1329 C1327 1.358 . S
C1329 H1387 0.930 . S
C1330 C1333 1.348 . S
C1330 C1334 1.356 . S
C1330 O1381 1.325 . S
C1331 N1332 1.279 . S
C1331 C1334 1.358 . S
C1331 H1388 0.930 . S
N1332 C1331 1.279 . S
N1332 C1335 1.314 . S
C1333 C1330 1.348 . S
C1333 C1335 1.353 . S
C1333 H1389 0.929 . S
C1334 C1330 1.356 . S
C1334 C1331 1.358 . S
C1334 H1390 0.930 . S
C1335 N1332 1.314 . S
C1335 C1333 1.353 . S
C1335 H1391 0.930 . S
C1336 N1337 1.314 . S
C1336 C1341 1.353 . S
C1336 H1342 0.930 . S
N1337 Li1320 1.990 . S
N1337 C1336 1.314 . S
N1337 C1339 1.279 . S
C1338 C1339 1.358 . S
C1338 C1340 1.356 . S
C1338 H1392 0.930 . S
C1339 N1337 1.279 . S
C1339 C1338 1.358 . S
C1339 H1343 0.930 . S
C1340 C1338 1.356 . S
C1340 C1341 1.348 . S
C1341 C1336 1.353 . S
C1341 C1340 1.348 . S
C1341 H1393 0.929 . S
H1342 C1336 0.930 . S
H1343 C1339 0.930 . S
C1344 N1345 1.314 . S
C1344 C1346 1.353 . S
C1344 H1350 0.930 . S
N1345 Li1321 1.990 . S
N1345 C1344 1.314 . S
N1345 C1348 1.279 . S
C1346 C1344 1.353 . S
C1346 C1349 1.348 . S
C1346 H1394 0.929 . S
C1347 C1348 1.358 . S
C1347 C1349 1.356 . S
C1347 H1395 0.930 . S
C1348 N1345 1.279 . S
C1348 C1347 1.358 . S
C1348 H1351 0.930 . S
C1349 C1346 1.348 . S
C1349 C1347 1.356 . S
H1350 C1344 0.930 . S
H1351 C1348 0.930 . S
C1352 C1354 1.348 . S
C1352 C1355 1.356 . S
C1352 O1382 1.325 . S
N1353 C1356 1.314 . S
N1353 C1357 1.279 . S
C1354 C1352 1.348 . S
C1354 C1356 1.353 . S
C1354 H1396 0.929 . S
C1355 C1352 1.356 . S
C1355 C1357 1.358 . S
C1355 H1397 0.930 . S
C1356 N1353 1.314 . S
C1356 C1354 1.353 . S
C1356 H1398 0.930 . S
C1357 N1353 1.279 . S
C1357 C1355 1.358 . S
C1357 H1399 0.930 . S
C1358 C1359 1.348 . S
C1358 C1360 1.356 . S
C1358 O1383 1.325 . S
C1359 C1358 1.348 . S
C1359 C1361 1.353 . S
C1359 H1400 0.929 . S
C1360 C1358 1.356 . S
C1360 C1362 1.358 . S
C1360 H1401 0.930 . S
C1361 C1359 1.353 . S
C1361 N1363 1.314 . S
C1361 H1402 0.930 . S
C1362 C1360 1.358 . S
C1362 N1363 1.279 . S
C1362 H1403 0.930 . S
N1363 C1361 1.314 . S
N1363 C1362 1.279 . S
C1364 C1366 1.353 . S
C1364 N1367 1.314 . S
C1364 H1370 0.930 . S
C1365 N1367 1.279 . S
C1365 C1368 1.358 . S
C1365 H1371 0.930 . S
C1366 C1364 1.353 . S
C1366 C1369 1.348 . S
C1366 H1404 0.929 . S
N1367 Li1322 1.990 . S
N1367 C1364 1.314 . S
N1367 C1365 1.279 . S
C1368 C1365 1.358 . S
C1368 C1369 1.356 . S
C1368 H1405 0.930 . S
C1369 C1366 1.348 . S
C1369 C1368 1.356 . S
H1370 C1364 0.930 . S
H1371 C1365 0.930 . S
C1372 N1373 1.314 . S
C1372 C1374 1.353 . S
C1372 H1378 0.930 . S
N1373 Li1323 1.990 . S
N1373 C1372 1.314 . S
N1373 C1376 1.279 . S
C1374 C1372 1.353 . S
C1374 C1377 1.348 . S
C1374 H1406 0.929 . S
C1375 C1376 1.358 . S
C1375 C1377 1.356 . S
C1375 H1407 0.930 . S
C1376 N1373 1.279 . S
C1376 C1375 1.358 . S
C1376 H1379 0.930 . S
C1377 C1374 1.348 . S
C1377 C1375 1.356 . S
H1378 C1372 0.930 . S
H1379 C1376 0.930 . S
O1380 Li1320 1.956 . S
O1380 Li1321 1.970 . S
O1380 Li1322 1.961 . S
O1380 C1324 1.325 . S
O1381 Li1320 1.970 . S
O1381 Li1321 1.956 . S
O1381 Li1323 1.961 . S
O1381 C1330 1.325 . S
O1382 Li1320 1.961 . S
O1382 Li1322 1.956 . S
O1382 Li1323 1.970 . S
O1382 C1352 1.325 . S
O1383 Li1321 1.961 . S
O1383 Li1322 1.970 . S
O1383 Li1323 1.956 . S
O1383 C1358 1.325 . S
H1384 C1326 0.929 . S
H1385 C1327 0.930 . S
H1386 C1328 0.930 . S
H1387 C1329 0.930 . S
H1388 C1331 0.930 . S
H1389 C1333 0.929 . S
H1390 C1334 0.930 . S
H1391 C1335 0.930 . S
H1392 C1338 0.930 . S
H1393 C1341 0.929 . S
H1394 C1346 0.929 . S
H1395 C1347 0.930 . S
H1396 C1354 0.929 . S
H1397 C1355 0.930 . S
H1398 C1356 0.930 . S
H1399 C1357 0.930 . S
H1400 C1359 0.929 . S
H1401 C1360 0.930 . S
H1402 C1361 0.930 . S
H1403 C1362 0.930 . S
H1404 C1366 0.929 . S
H1405 C1368 0.930 . S
H1406 C1374 0.929 . S
H1407 C1375 0.930 . S
Li1408 N1425 1.990 . S
Li1408 O1468 1.956 . S
Li1408 O1469 1.970 . S
Li1408 O1470 1.961 . S
Li1409 N1433 1.990 . S
Li1409 O1468 1.970 . S
Li1409 O1469 1.956 . S
Li1409 O1471 1.961 . S
Li1410 N1455 1.990 . S
Li1410 O1468 1.961 . S
Li1410 O1470 1.956 . S
Li1410 O1471 1.970 . S
Li1411 N1461 1.990 . S
Li1411 O1469 1.961 . S
Li1411 O1470 1.970 . S
Li1411 O1471 1.956 . S
C1412 C1414 1.348 . S
C1412 C1415 1.356 . S
C1412 O1468 1.325 . S
N1413 C1416 1.314 . S
N1413 C1417 1.279 . S
C1414 C1412 1.348 . S
C1414 C1416 1.353 . S
C1414 H1472 0.929 . S
C1415 C1412 1.356 . S
C1415 C1417 1.358 . S
C1415 H1473 0.930 . S
C1416 N1413 1.314 . S
C1416 C1414 1.353 . S
C1416 H1474 0.930 . S
C1417 N1413 1.279 . S
C1417 C1415 1.358 . S
C1417 H1475 0.930 . S
C1418 C1421 1.348 . S
C1418 C1422 1.356 . S
C1418 O1469 1.325 . S
C1419 N1420 1.279 . S
C1419 C1422 1.358 . S
C1419 H1476 0.930 . S
N1420 C1419 1.279 . S
N1420 C1423 1.314 . S
C1421 C1418 1.348 . S
C1421 C1423 1.353 . S
C1421 H1477 0.929 . S
C1422 C1418 1.356 . S
C1422 C1419 1.358 . S
C1422 H1478 0.930 . S
C1423 N1420 1.314 . S
C1423 C1421 1.353 . S
C1423 H1479 0.930 . S
C1424 N1425 1.314 . S
C1424 C1429 1.353 . S
C1424 H1430 0.930 . S
N1425 Li1408 1.990 . S
N1425 C1424 1.314 . S
N1425 C1427 1.279 . S
C1426 C1427 1.358 . S
C1426 C1428 1.356 . S
C1426 H1480 0.930 . S
C1427 N1425 1.279 . S
C1427 C1426 1.358 . S
C1427 H1431 0.930 . S
C1428 C1426 1.356 . S
C1428 C1429 1.348 . S
C1429 C1424 1.353 . S
C1429 C1428 1.348 . S
C1429 H1481 0.929 . S
H1430 C1424 0.930 . S
H1431 C1427 0.930 . S
C1432 N1433 1.314 . S
C1432 C1434 1.353 . S
C1432 H1438 0.930 . S
N1433 Li1409 1.990 . S
N1433 C1432 1.314 . S
N1433 C1436 1.279 . S
C1434 C1432 1.353 . S
C1434 C1437 1.348 . S
C1434 H1482 0.929 . S
C1435 C1436 1.358 . S
C1435 C1437 1.356 . S
C1435 H1483 0.930 . S
C1436 N1433 1.279 . S
C1436 C1435 1.358 . S
C1436 H1439 0.930 . S
C1437 C1434 1.348 . S
C1437 C1435 1.356 . S
H1438 C1432 0.930 . S
H1439 C1436 0.930 . S
C1440 C1442 1.348 . S
C1440 C1443 1.356 . S
C1440 O1470 1.325 . S
N1441 C1444 1.314 . S
N1441 C1445 1.279 . S
C1442 C1440 1.348 . S
C1442 C1444 1.353 . S
C1442 H1484 0.929 . S
C1443 C1440 1.356 . S
C1443 C1445 1.358 . S
C1443 H1485 0.930 . S
C1444 N1441 1.314 . S
C1444 C1442 1.353 . S
C1444 H1486 0.930 . S
C1445 N1441 1.279 . S
C1445 C1443 1.358 . S
C1445 H1487 0.930 . S
C1446 C1447 1.348 . S
C1446 C1448 1.356 . S
C1446 O1471 1.325 . S
C1447 C1446 1.348 . S
C1447 C1449 1.353 . S
C1447 H1488 0.929 . S
C1448 C1446 1.356 . S
C1448 C1450 1.358 . S
C1448 H1489 0.930 . S
C1449 C1447 1.353 . S
C1449 N1451 1.314 . S
C1449 H1490 0.930 . S
C1450 C1448 1.358 . S
C1450 N1451 1.279 . S
C1450 H1491 0.930 . S
N1451 C1449 1.314 . S
N1451 C1450 1.279 . S
C1452 C1454 1.353 . S
C1452 N1455 1.314 . S
C1452 H1458 0.930 . S
C1453 N1455 1.279 . S
C1453 C1456 1.358 . S
C1453 H1459 0.930 . S
C1454 C1452 1.353 . S
C1454 C1457 1.348 . S
C1454 H1492 0.929 . S
N1455 Li1410 1.990 . S
N1455 C1452 1.314 . S
N1455 C1453 1.279 . S
C1456 C1453 1.358 . S
C1456 C1457 1.356 . S
C1456 H1493 0.930 . S
C1457 C1454 1.348 . S
C1457 C1456 1.356 . S
H1458 C1452 0.930 . S
H1459 C1453 0.930 . S
C1460 N1461 1.314 . S
C1460 C1462 1.353 . S
C1460 H1466 0.930 . S
N1461 Li1411 1.990 . S
N1461 C1460 1.314 . S
N1461 C1464 1.279 . S
C1462 C1460 1.353 . S
C1462 C1465 1.348 . S
C1462 H1494 0.929 . S
C1463 C1464 1.358 . S
C1463 C1465 1.356 . S
C1463 H1495 0.930 . S
C1464 N1461 1.279 . S
C1464 C1463 1.358 . S
C1464 H1467 0.930 . S
C1465 C1462 1.348 . S
C1465 C1463 1.356 . S
H1466 C1460 0.930 . S
H1467 C1464 0.930 . S
O1468 Li1408 1.956 . S
O1468 Li1409 1.970 . S
O1468 Li1410 1.961 . S
O1468 C1412 1.325 . S
O1469 Li1408 1.970 . S
O1469 Li1409 1.956 . S
O1469 Li1411 1.961 . S
O1469 C1418 1.325 . S
O1470 Li1408 1.961 . S
O1470 Li1410 1.956 . S
O1470 Li1411 1.970 . S
O1470 C1440 1.325 . S
O1471 Li1409 1.961 . S
O1471 Li1410 1.970 . S
O1471 Li1411 1.956 . S
O1471 C1446 1.325 . S
H1472 C1414 0.929 . S
H1473 C1415 0.930 . S
H1474 C1416 0.930 . S
H1475 C1417 0.930 . S
H1476 C1419 0.930 . S
H1477 C1421 0.929 . S
H1478 C1422 0.930 . S
H1479 C1423 0.930 . S
H1480 C1426 0.930 . S
H1481 C1429 0.929 . S
H1482 C1434 0.929 . S
H1483 C1435 0.930 . S
H1484 C1442 0.929 . S
H1485 C1443 0.930 . S
H1486 C1444 0.930 . S
H1487 C1445 0.930 . S
H1488 C1447 0.929 . S
H1489 C1448 0.930 . S
H1490 C1449 0.930 . S
H1491 C1450 0.930 . S
H1492 C1454 0.929 . S
H1493 C1456 0.930 . S
H1494 C1462 0.929 . S
H1495 C1463 0.930 . S
Li1496 N1513 1.990 . S
Li1496 O1556 1.956 . S
Li1496 O1557 1.970 . S
Li1496 O1558 1.961 . S
Li1497 N1521 1.990 . S
Li1497 O1556 1.970 . S
Li1497 O1557 1.956 . S
Li1497 O1559 1.961 . S
Li1498 N1543 1.990 . S
Li1498 O1556 1.961 . S
Li1498 O1558 1.956 . S
Li1498 O1559 1.970 . S
Li1499 N1549 1.990 . S
Li1499 O1557 1.961 . S
Li1499 O1558 1.970 . S
Li1499 O1559 1.956 . S
C1500 C1502 1.348 . S
C1500 C1503 1.356 . S
C1500 O1556 1.325 . S
N1501 C1504 1.314 . S
N1501 C1505 1.279 . S
C1502 C1500 1.348 . S
C1502 C1504 1.353 . S
C1502 H1560 0.929 . S
C1503 C1500 1.356 . S
C1503 C1505 1.358 . S
C1503 H1561 0.930 . S
C1504 N1501 1.314 . S
C1504 C1502 1.353 . S
C1504 H1562 0.930 . S
C1505 N1501 1.279 . S
C1505 C1503 1.358 . S
C1505 H1563 0.930 . S
C1506 C1509 1.348 . S
C1506 C1510 1.356 . S
C1506 O1557 1.325 . S
C1507 N1508 1.279 . S
C1507 C1510 1.358 . S
C1507 H1564 0.930 . S
N1508 C1507 1.279 . S
N1508 C1511 1.314 . S
C1509 C1506 1.348 . S
C1509 C1511 1.353 . S
C1509 H1565 0.929 . S
C1510 C1506 1.356 . S
C1510 C1507 1.358 . S
C1510 H1566 0.930 . S
C1511 N1508 1.314 . S
C1511 C1509 1.353 . S
C1511 H1567 0.930 . S
C1512 N1513 1.314 . S
C1512 C1517 1.353 . S
C1512 H1518 0.930 . S
N1513 Li1496 1.990 . S
N1513 C1512 1.314 . S
N1513 C1515 1.279 . S
C1514 C1515 1.358 . S
C1514 C1516 1.356 . S
C1514 H1568 0.930 . S
C1515 N1513 1.279 . S
C1515 C1514 1.358 . S
C1515 H1519 0.930 . S
C1516 C1514 1.356 . S
C1516 C1517 1.348 . S
C1517 C1512 1.353 . S
C1517 C1516 1.348 . S
C1517 H1569 0.929 . S
H1518 C1512 0.930 . S
H1519 C1515 0.930 . S
C1520 N1521 1.314 . S
C1520 C1522 1.353 . S
C1520 H1526 0.930 . S
N1521 Li1497 1.990 . S
N1521 C1520 1.314 . S
N1521 C1524 1.279 . S
C1522 C1520 1.353 . S
C1522 C1525 1.348 . S
C1522 H1570 0.929 . S
C1523 C1524 1.358 . S
C1523 C1525 1.356 . S
C1523 H1571 0.930 . S
C1524 N1521 1.279 . S
C1524 C1523 1.358 . S
C1524 H1527 0.930 . S
C1525 C1522 1.348 . S
C1525 C1523 1.356 . S
H1526 C1520 0.930 . S
H1527 C1524 0.930 . S
C1528 C1530 1.348 . S
C1528 C1531 1.356 . S
C1528 O1558 1.325 . S
N1529 C1532 1.314 . S
N1529 C1533 1.279 . S
C1530 C1528 1.348 . S
C1530 C1532 1.353 . S
C1530 H1572 0.929 . S
C1531 C1528 1.356 . S
C1531 C1533 1.358 . S
C1531 H1573 0.930 . S
C1532 N1529 1.314 . S
C1532 C1530 1.353 . S
C1532 H1574 0.930 . S
C1533 N1529 1.279 . S
C1533 C1531 1.358 . S
C1533 H1575 0.930 . S
C1534 C1535 1.348 . S
C1534 C1536 1.356 . S
C1534 O1559 1.325 . S
C1535 C1534 1.348 . S
C1535 C1537 1.353 . S
C1535 H1576 0.929 . S
C1536 C1534 1.356 . S
C1536 C1538 1.358 . S
C1536 H1577 0.930 . S
C1537 C1535 1.353 . S
C1537 N1539 1.314 . S
C1537 H1578 0.930 . S
C1538 C1536 1.358 . S
C1538 N1539 1.279 . S
C1538 H1579 0.930 . S
N1539 C1537 1.314 . S
N1539 C1538 1.279 . S
C1540 C1542 1.353 . S
C1540 N1543 1.314 . S
C1540 H1546 0.930 . S
C1541 N1543 1.279 . S
C1541 C1544 1.358 . S
C1541 H1547 0.930 . S
C1542 C1540 1.353 . S
C1542 C1545 1.348 . S
C1542 H1580 0.929 . S
N1543 Li1498 1.990 . S
N1543 C1540 1.314 . S
N1543 C1541 1.279 . S
C1544 C1541 1.358 . S
C1544 C1545 1.356 . S
C1544 H1581 0.930 . S
C1545 C1542 1.348 . S
C1545 C1544 1.356 . S
H1546 C1540 0.930 . S
H1547 C1541 0.930 . S
C1548 N1549 1.314 . S
C1548 C1550 1.353 . S
C1548 H1554 0.930 . S
N1549 Li1499 1.990 . S
N1549 C1548 1.314 . S
N1549 C1552 1.279 . S
C1550 C1548 1.353 . S
C1550 C1553 1.348 . S
C1550 H1582 0.929 . S
C1551 C1552 1.358 . S
C1551 C1553 1.356 . S
C1551 H1583 0.930 . S
C1552 N1549 1.279 . S
C1552 C1551 1.358 . S
C1552 H1555 0.930 . S
C1553 C1550 1.348 . S
C1553 C1551 1.356 . S
H1554 C1548 0.930 . S
H1555 C1552 0.930 . S
O1556 Li1496 1.956 . S
O1556 Li1497 1.970 . S
O1556 Li1498 1.961 . S
O1556 C1500 1.325 . S
O1557 Li1496 1.970 . S
O1557 Li1497 1.956 . S
O1557 Li1499 1.961 . S
O1557 C1506 1.325 . S
O1558 Li1496 1.961 . S
O1558 Li1498 1.956 . S
O1558 Li1499 1.970 . S
O1558 C1528 1.325 . S
O1559 Li1497 1.961 . S
O1559 Li1498 1.970 . S
O1559 Li1499 1.956 . S
O1559 C1534 1.325 . S
H1560 C1502 0.929 . S
H1561 C1503 0.930 . S
H1562 C1504 0.930 . S
H1563 C1505 0.930 . S
H1564 C1507 0.930 . S
H1565 C1509 0.929 . S
H1566 C1510 0.930 . S
H1567 C1511 0.930 . S
H1568 C1514 0.930 . S
H1569 C1517 0.929 . S
H1570 C1522 0.929 . S
H1571 C1523 0.930 . S
H1572 C1530 0.929 . S
H1573 C1531 0.930 . S
H1574 C1532 0.930 . S
H1575 C1533 0.930 . S
H1576 C1535 0.929 . S
H1577 C1536 0.930 . S
H1578 C1537 0.930 . S
H1579 C1538 0.930 . S
H1580 C1542 0.929 . S
H1581 C1544 0.930 . S
H1582 C1550 0.929 . S
H1583 C1551 0.930 . S
Li1584 N1601 1.990 . S
Li1584 O1644 1.956 . S
Li1584 O1645 1.970 . S
Li1584 O1646 1.961 . S
Li1585 N1609 1.990 . S
Li1585 O1644 1.970 . S
Li1585 O1645 1.956 . S
Li1585 O1647 1.961 . S
Li1586 N1631 1.990 . S
Li1586 O1644 1.961 . S
Li1586 O1646 1.956 . S
Li1586 O1647 1.970 . S
Li1587 N1637 1.990 . S
Li1587 O1645 1.961 . S
Li1587 O1646 1.970 . S
Li1587 O1647 1.956 . S
C1588 C1590 1.348 . S
C1588 C1591 1.356 . S
C1588 O1644 1.325 . S
N1589 C1592 1.314 . S
N1589 C1593 1.279 . S
C1590 C1588 1.348 . S
C1590 C1592 1.353 . S
C1590 H1648 0.929 . S
C1591 C1588 1.356 . S
C1591 C1593 1.358 . S
C1591 H1649 0.930 . S
C1592 N1589 1.314 . S
C1592 C1590 1.353 . S
C1592 H1650 0.930 . S
C1593 N1589 1.279 . S
C1593 C1591 1.358 . S
C1593 H1651 0.930 . S
C1594 C1597 1.348 . S
C1594 C1598 1.356 . S
C1594 O1645 1.325 . S
C1595 N1596 1.279 . S
C1595 C1598 1.358 . S
C1595 H1652 0.930 . S
N1596 C1595 1.279 . S
N1596 C1599 1.314 . S
C1597 C1594 1.348 . S
C1597 C1599 1.353 . S
C1597 H1653 0.929 . S
C1598 C1594 1.356 . S
C1598 C1595 1.358 . S
C1598 H1654 0.930 . S
C1599 N1596 1.314 . S
C1599 C1597 1.353 . S
C1599 H1655 0.930 . S
C1600 N1601 1.314 . S
C1600 C1605 1.353 . S
C1600 H1606 0.930 . S
N1601 Li1584 1.990 . S
N1601 C1600 1.314 . S
N1601 C1603 1.279 . S
C1602 C1603 1.358 . S
C1602 C1604 1.356 . S
C1602 H1656 0.930 . S
C1603 N1601 1.279 . S
C1603 C1602 1.358 . S
C1603 H1607 0.930 . S
C1604 C1602 1.356 . S
C1604 C1605 1.348 . S
C1605 C1600 1.353 . S
C1605 C1604 1.348 . S
C1605 H1657 0.929 . S
H1606 C1600 0.930 . S
H1607 C1603 0.930 . S
C1608 N1609 1.314 . S
C1608 C1610 1.353 . S
C1608 H1614 0.930 . S
N1609 Li1585 1.990 . S
N1609 C1608 1.314 . S
N1609 C1612 1.279 . S
C1610 C1608 1.353 . S
C1610 C1613 1.348 . S
C1610 H1658 0.929 . S
C1611 C1612 1.358 . S
C1611 C1613 1.356 . S
C1611 H1659 0.930 . S
C1612 N1609 1.279 . S
C1612 C1611 1.358 . S
C1612 H1615 0.930 . S
C1613 C1610 1.348 . S
C1613 C1611 1.356 . S
H1614 C1608 0.930 . S
H1615 C1612 0.930 . S
C1616 C1618 1.348 . S
C1616 C1619 1.356 . S
C1616 O1646 1.325 . S
N1617 C1620 1.314 . S
N1617 C1621 1.279 . S
C1618 C1616 1.348 . S
C1618 C1620 1.353 . S
C1618 H1660 0.929 . S
C1619 C1616 1.356 . S
C1619 C1621 1.358 . S
C1619 H1661 0.930 . S
C1620 N1617 1.314 . S
C1620 C1618 1.353 . S
C1620 H1662 0.930 . S
C1621 N1617 1.279 . S
C1621 C1619 1.358 . S
C1621 H1663 0.930 . S
C1622 C1623 1.348 . S
C1622 C1624 1.356 . S
C1622 O1647 1.325 . S
C1623 C1622 1.348 . S
C1623 C1625 1.353 1_554 S
C1623 H1664 0.929 . S
C1624 C1622 1.356 . S
C1624 C1626 1.358 . S
C1624 H1665 0.930 . S
C1625 C1623 1.353 1_556 S
C1625 N1627 1.314 . S
C1625 H1666 0.930 . S
C1626 C1624 1.358 . S
C1626 N1627 1.279 1_554 S
C1626 H1667 0.930 . S
N1627 C1625 1.314 . S
N1627 C1626 1.279 1_556 S
C1628 C1630 1.353 . S
C1628 N1631 1.314 . S
C1628 H1634 0.930 . S
C1629 N1631 1.279 . S
C1629 C1632 1.358 1_554 S
C1629 H1635 0.930 . S
C1630 C1628 1.353 . S
C1630 C1633 1.348 1_554 S
C1630 H1668 0.929 . S
N1631 Li1586 1.990 . S
N1631 C1628 1.314 . S
N1631 C1629 1.279 . S
C1632 C1629 1.358 1_556 S
C1632 C1633 1.356 . S
C1632 H1669 0.930 . S
C1633 C1630 1.348 1_556 S
C1633 C1632 1.356 . S
H1634 C1628 0.930 . S
H1635 C1629 0.930 . S
C1636 N1637 1.314 . S
C1636 C1638 1.353 . S
C1636 H1642 0.930 . S
N1637 Li1587 1.990 . S
N1637 C1636 1.314 . S
N1637 C1640 1.279 . S
C1638 C1636 1.353 . S
C1638 C1641 1.348 . S
C1638 H1670 0.929 . S
C1639 C1640 1.358 . S
C1639 C1641 1.356 . S
C1639 H1671 0.951 . S
C1640 N1637 1.279 . S
C1640 C1639 1.358 . S
C1640 H1643 0.930 . S
C1641 C1638 1.348 . S
C1641 C1639 1.356 . S
H1642 C1636 0.930 . S
H1643 C1640 0.930 . S
O1644 Li1584 1.956 . S
O1644 Li1585 1.970 . S
O1644 Li1586 1.961 . S
O1644 C1588 1.325 . S
O1645 Li1584 1.970 . S
O1645 Li1585 1.956 . S
O1645 Li1587 1.961 . S
O1645 C1594 1.325 . S
O1646 Li1584 1.961 . S
O1646 Li1586 1.956 . S
O1646 Li1587 1.970 . S
O1646 C1616 1.325 . S
O1647 Li1585 1.961 . S
O1647 Li1586 1.970 . S
O1647 Li1587 1.956 . S
O1647 C1622 1.325 . S
H1648 C1590 0.929 . S
H1649 C1591 0.930 . S
H1650 C1592 0.930 . S
H1651 C1593 0.930 . S
H1652 C1595 0.930 . S
H1653 C1597 0.929 . S
H1654 C1598 0.930 . S
H1655 C1599 0.930 . S
H1656 C1602 0.930 . S
H1657 C1605 0.929 . S
H1658 C1610 0.929 . S
H1659 C1611 0.930 . S
H1660 C1618 0.929 . S
H1661 C1619 0.930 . S
H1662 C1620 0.930 . S
H1663 C1621 0.930 . S
H1664 C1623 0.929 . S
H1665 C1624 0.930 . S
H1666 C1625 0.930 . S
H1667 C1626 0.930 . S
H1668 C1630 0.929 . S
H1669 C1632 0.930 . S
H1670 C1638 0.929 . S
H1671 C1639 0.951 . S
Li1672 N1689 1.990 . S
Li1672 O1732 1.956 . S
Li1672 O1733 1.970 . S
Li1672 O1734 1.961 . S
Li1673 N1697 1.990 . S
Li1673 O1732 1.970 . S
Li1673 O1733 1.956 . S
Li1673 O1735 1.961 . S
Li1674 N1719 1.990 . S
Li1674 O1732 1.961 . S
Li1674 O1734 1.956 . S
Li1674 O1735 1.970 . S
Li1675 N1725 1.990 . S
Li1675 O1733 1.961 . S
Li1675 O1734 1.970 . S
Li1675 O1735 1.956 . S
C1676 C1678 1.348 . S
C1676 C1679 1.356 . S
C1676 O1732 1.325 . S
N1677 C1680 1.314 . S
N1677 C1681 1.279 . S
C1678 C1676 1.348 . S
C1678 C1680 1.353 . S
C1678 H1736 0.929 . S
C1679 C1676 1.356 . S
C1679 C1681 1.358 . S
C1679 H1737 0.930 . S
C1680 N1677 1.314 . S
C1680 C1678 1.353 . S
C1680 H1738 0.930 . S
C1681 N1677 1.279 . S
C1681 C1679 1.358 . S
C1681 H1739 0.930 . S
C1682 C1685 1.348 . S
C1682 C1686 1.356 . S
C1682 O1733 1.325 . S
C1683 N1684 1.279 . S
C1683 C1686 1.358 . S
C1683 H1740 0.930 . S
N1684 C1683 1.279 . S
N1684 C1687 1.314 . S
C1685 C1682 1.348 . S
C1685 C1687 1.353 . S
C1685 H1741 0.929 . S
C1686 C1682 1.356 . S
C1686 C1683 1.358 . S
C1686 H1742 0.930 . S
C1687 N1684 1.314 . S
C1687 C1685 1.353 . S
C1687 H1743 0.930 . S
C1688 N1689 1.314 . S
C1688 C1693 1.353 . S
C1688 H1694 0.930 . S
N1689 Li1672 1.990 . S
N1689 C1688 1.314 . S
N1689 C1691 1.279 . S
C1690 C1691 1.358 . S
C1690 C1692 1.356 . S
C1690 H1744 0.930 . S
C1691 N1689 1.279 . S
C1691 C1690 1.358 . S
C1691 H1695 0.930 . S
C1692 C1690 1.356 . S
C1692 C1693 1.348 . S
C1693 C1688 1.353 . S
C1693 C1692 1.348 . S
C1693 H1745 0.929 . S
H1694 C1688 0.930 . S
H1695 C1691 0.930 . S
C1696 N1697 1.314 . S
C1696 C1698 1.353 . S
C1696 H1702 0.930 . S
N1697 Li1673 1.990 . S
N1697 C1696 1.314 . S
N1697 C1700 1.279 . S
C1698 C1696 1.353 . S
C1698 C1701 1.348 . S
C1698 H1746 0.929 . S
C1699 C1700 1.358 . S
C1699 C1701 1.356 . S
C1699 H1747 0.930 . S
C1700 N1697 1.279 . S
C1700 C1699 1.358 . S
C1700 H1703 0.930 . S
C1701 C1698 1.348 . S
C1701 C1699 1.356 . S
H1702 C1696 0.930 . S
H1703 C1700 0.930 . S
C1704 C1706 1.348 . S
C1704 C1707 1.356 . S
C1704 O1734 1.325 . S
N1705 C1708 1.314 . S
N1705 C1709 1.279 . S
C1706 C1704 1.348 . S
C1706 C1708 1.353 . S
C1706 H1748 0.929 . S
C1707 C1704 1.356 . S
C1707 C1709 1.358 . S
C1707 H1749 0.930 . S
C1708 N1705 1.314 . S
C1708 C1706 1.353 . S
C1708 H1750 0.930 . S
C1709 N1705 1.279 . S
C1709 C1707 1.358 . S
C1709 H1751 0.930 . S
C1710 C1711 1.348 . S
C1710 C1712 1.356 . S
C1710 O1735 1.325 . S
C1711 C1710 1.348 . S
C1711 C1713 1.353 . S
C1711 H1752 0.929 . S
C1712 C1710 1.356 . S
C1712 C1714 1.358 . S
C1712 H1753 0.930 . S
C1713 C1711 1.353 . S
C1713 N1715 1.314 . S
C1713 H1754 0.930 . S
C1714 C1712 1.358 . S
C1714 N1715 1.279 . S
C1714 H1755 0.930 . S
N1715 C1713 1.314 . S
N1715 C1714 1.279 . S
C1716 C1718 1.353 . S
C1716 N1719 1.314 . S
C1716 H1722 0.930 . S
C1717 N1719 1.279 . S
C1717 C1720 1.358 . S
C1717 H1723 0.930 . S
C1718 C1716 1.353 . S
C1718 C1721 1.348 . S
C1718 H1756 0.929 . S
N1719 Li1674 1.990 . S
N1719 C1716 1.314 . S
N1719 C1717 1.279 . S
C1720 C1717 1.358 . S
C1720 C1721 1.356 . S
C1720 H1757 0.930 . S
C1721 C1718 1.348 . S
C1721 C1720 1.356 . S
H1722 C1716 0.930 . S
H1723 C1717 0.930 . S
C1724 N1725 1.314 . S
C1724 C1726 1.353 . S
C1724 H1730 0.930 . S
N1725 Li1675 1.990 . S
N1725 C1724 1.314 . S
N1725 C1728 1.279 . S
C1726 C1724 1.353 . S
C1726 C1729 1.348 . S
C1726 H1758 0.929 . S
C1727 C1728 1.358 . S
C1727 C1729 1.356 . S
C1727 H1759 0.930 . S
C1728 N1725 1.279 . S
C1728 C1727 1.358 . S
C1728 H1731 0.930 . S
C1729 C1726 1.348 . S
C1729 C1727 1.356 . S
H1730 C1724 0.930 . S
H1731 C1728 0.930 . S
O1732 Li1672 1.956 . S
O1732 Li1673 1.970 . S
O1732 Li1674 1.961 . S
O1732 C1676 1.325 . S
O1733 Li1672 1.970 . S
O1733 Li1673 1.956 . S
O1733 Li1675 1.961 . S
O1733 C1682 1.325 . S
O1734 Li1672 1.961 . S
O1734 Li1674 1.956 . S
O1734 Li1675 1.970 . S
O1734 C1704 1.325 . S
O1735 Li1673 1.961 . S
O1735 Li1674 1.970 . S
O1735 Li1675 1.956 . S
O1735 C1710 1.325 . S
H1736 C1678 0.929 . S
H1737 C1679 0.930 . S
H1738 C1680 0.930 . S
H1739 C1681 0.930 . S
H1740 C1683 0.930 . S
H1741 C1685 0.929 . S
H1742 C1686 0.930 . S
H1743 C1687 0.930 . S
H1744 C1690 0.930 . S
H1745 C1693 0.929 . S
H1746 C1698 0.929 . S
H1747 C1699 0.930 . S
H1748 C1706 0.929 . S
H1749 C1707 0.930 . S
H1750 C1708 0.930 . S
H1751 C1709 0.930 . S
H1752 C1711 0.929 . S
H1753 C1712 0.930 . S
H1754 C1713 0.930 . S
H1755 C1714 0.930 . S
H1756 C1718 0.929 . S
H1757 C1720 0.930 . S
H1758 C1726 0.929 . S
H1759 C1727 0.930 . S
Li1760 N1777 1.990 . S
Li1760 O1820 1.956 . S
Li1760 O1821 1.970 . S
Li1760 O1822 1.961 . S
Li1761 N1785 1.990 . S
Li1761 O1820 1.970 . S
Li1761 O1821 1.956 . S
Li1761 O1823 1.961 . S
Li1762 N1807 1.990 . S
Li1762 O1820 1.961 . S
Li1762 O1822 1.956 . S
Li1762 O1823 1.970 . S
Li1763 N1813 1.990 . S
Li1763 O1821 1.961 . S
Li1763 O1822 1.970 . S
Li1763 O1823 1.956 . S
C1764 C1766 1.348 . S
C1764 C1767 1.356 . S
C1764 O1820 1.325 . S
N1765 C1768 1.314 . S
N1765 C1769 1.279 . S
C1766 C1764 1.348 . S
C1766 C1768 1.353 . S
C1766 H1824 0.929 . S
C1767 C1764 1.356 . S
C1767 C1769 1.358 . S
C1767 H1825 0.930 . S
C1768 N1765 1.314 . S
C1768 C1766 1.353 . S
C1768 H1826 0.930 . S
C1769 N1765 1.279 . S
C1769 C1767 1.358 . S
C1769 H1827 0.930 . S
C1770 C1773 1.348 . S
C1770 C1774 1.356 . S
C1770 O1821 1.325 . S
C1771 N1772 1.279 . S
C1771 C1774 1.358 . S
C1771 H1828 0.930 . S
N1772 C1771 1.279 . S
N1772 C1775 1.314 . S
C1773 C1770 1.348 . S
C1773 C1775 1.353 . S
C1773 H1829 0.929 . S
C1774 C1770 1.356 . S
C1774 C1771 1.358 . S
C1774 H1830 0.930 . S
C1775 N1772 1.314 . S
C1775 C1773 1.353 . S
C1775 H1831 0.930 . S
C1776 N1777 1.314 . S
C1776 C1781 1.353 . S
C1776 H1782 0.930 . S
N1777 Li1760 1.990 . S
N1777 C1776 1.314 . S
N1777 C1779 1.279 . S
C1778 C1779 1.358 . S
C1778 C1780 1.356 . S
C1778 H1832 0.930 . S
C1779 N1777 1.279 . S
C1779 C1778 1.358 . S
C1779 H1783 0.930 . S
C1780 C1778 1.356 . S
C1780 C1781 1.348 . S
C1781 C1776 1.353 . S
C1781 C1780 1.348 . S
C1781 H1833 0.929 . S
H1782 C1776 0.930 . S
H1783 C1779 0.930 . S
C1784 N1785 1.314 . S
C1784 C1786 1.353 . S
C1784 H1790 0.930 . S
N1785 Li1761 1.990 . S
N1785 C1784 1.314 . S
N1785 C1788 1.279 . S
C1786 C1784 1.353 . S
C1786 C1789 1.348 . S
C1786 H1834 0.929 . S
C1787 C1788 1.358 . S
C1787 C1789 1.356 . S
C1787 H1835 0.930 . S
C1788 N1785 1.279 . S
C1788 C1787 1.358 . S
C1788 H1791 0.930 . S
C1789 C1786 1.348 . S
C1789 C1787 1.356 . S
H1790 C1784 0.930 . S
H1791 C1788 0.930 . S
C1792 C1794 1.348 . S
C1792 C1795 1.356 . S
C1792 O1822 1.325 . S
N1793 C1796 1.314 . S
N1793 C1797 1.279 . S
C1794 C1792 1.348 . S
C1794 C1796 1.353 . S
C1794 H1836 0.929 . S
C1795 C1792 1.356 . S
C1795 C1797 1.358 . S
C1795 H1837 0.930 . S
C1796 N1793 1.314 . S
C1796 C1794 1.353 . S
C1796 H1838 0.930 . S
C1797 N1793 1.279 . S
C1797 C1795 1.358 . S
C1797 H1839 0.930 . S
C1798 C1799 1.348 . S
C1798 C1800 1.356 . S
C1798 O1823 1.325 . S
C1799 C1798 1.348 . S
C1799 C1801 1.353 . S
C1799 H1840 0.929 . S
C1800 C1798 1.356 . S
C1800 C1802 1.358 . S
C1800 H1841 0.930 . S
C1801 C1799 1.353 . S
C1801 N1803 1.314 . S
C1801 H1842 0.930 . S
C1802 C1800 1.358 . S
C1802 N1803 1.279 . S
C1802 H1843 0.930 . S
N1803 C1801 1.314 . S
N1803 C1802 1.279 . S
C1804 C1806 1.353 . S
C1804 N1807 1.314 . S
C1804 H1810 0.930 . S
C1805 N1807 1.279 . S
C1805 C1808 1.358 . S
C1805 H1811 0.930 . S
C1806 C1804 1.353 . S
C1806 C1809 1.348 . S
C1806 H1844 0.929 . S
N1807 Li1762 1.990 . S
N1807 C1804 1.314 . S
N1807 C1805 1.279 . S
C1808 C1805 1.358 . S
C1808 C1809 1.356 . S
C1808 H1845 0.930 . S
C1809 C1806 1.348 . S
C1809 C1808 1.356 . S
H1810 C1804 0.930 . S
H1811 C1805 0.930 . S
C1812 N1813 1.314 . S
C1812 C1814 1.353 . S
C1812 H1818 0.930 . S
N1813 Li1763 1.990 . S
N1813 C1812 1.314 . S
N1813 C1816 1.279 . S
C1814 C1812 1.353 . S
C1814 C1817 1.348 . S
C1814 H1846 0.929 . S
C1815 C1816 1.358 . S
C1815 C1817 1.356 . S
C1815 H1847 0.930 . S
C1816 N1813 1.279 . S
C1816 C1815 1.358 . S
C1816 H1819 0.930 . S
C1817 C1814 1.348 . S
C1817 C1815 1.356 . S
H1818 C1812 0.930 . S
H1819 C1816 0.930 . S
O1820 Li1760 1.956 . S
O1820 Li1761 1.970 . S
O1820 Li1762 1.961 . S
O1820 C1764 1.325 . S
O1821 Li1760 1.970 . S
O1821 Li1761 1.956 . S
O1821 Li1763 1.961 . S
O1821 C1770 1.325 . S
O1822 Li1760 1.961 . S
O1822 Li1762 1.956 . S
O1822 Li1763 1.970 . S
O1822 C1792 1.325 . S
O1823 Li1761 1.961 . S
O1823 Li1762 1.970 . S
O1823 Li1763 1.956 . S
O1823 C1798 1.325 . S
H1824 C1766 0.929 . S
H1825 C1767 0.930 . S
H1826 C1768 0.930 . S
H1827 C1769 0.930 . S
H1828 C1771 0.930 . S
H1829 C1773 0.929 . S
H1830 C1774 0.930 . S
H1831 C1775 0.930 . S
H1832 C1778 0.930 . S
H1833 C1781 0.929 . S
H1834 C1786 0.929 . S
H1835 C1787 0.930 . S
H1836 C1794 0.929 . S
H1837 C1795 0.930 . S
H1838 C1796 0.930 . S
H1839 C1797 0.930 . S
H1840 C1799 0.929 . S
H1841 C1800 0.930 . S
H1842 C1801 0.930 . S
H1843 C1802 0.930 . S
H1844 C1806 0.929 . S
H1845 C1808 0.930 . S
H1846 C1814 0.929 . S
H1847 C1815 0.930 . S
Li1848 N1865 1.990 . S
Li1848 O1908 1.956 . S
Li1848 O1909 1.970 . S
Li1848 O1910 1.961 . S
Li1849 N1873 1.990 . S
Li1849 O1908 1.970 . S
Li1849 O1909 1.956 . S
Li1849 O1911 1.961 . S
Li1850 N1895 1.990 . S
Li1850 O1908 1.961 . S
Li1850 O1910 1.956 . S
Li1850 O1911 1.970 . S
Li1851 N1901 1.990 . S
Li1851 O1909 1.961 . S
Li1851 O1910 1.970 . S
Li1851 O1911 1.956 . S
C1852 C1854 1.348 . S
C1852 C1855 1.356 . S
C1852 O1908 1.325 . S
N1853 C1856 1.314 . S
N1853 C1857 1.279 . S
C1854 C1852 1.348 . S
C1854 C1856 1.353 . S
C1854 H1912 0.929 . S
C1855 C1852 1.356 . S
C1855 C1857 1.358 . S
C1855 H1913 0.930 . S
C1856 N1853 1.314 . S
C1856 C1854 1.353 . S
C1856 H1914 0.930 . S
C1857 N1853 1.279 . S
C1857 C1855 1.358 . S
C1857 H1915 0.930 . S
C1858 C1861 1.348 . S
C1858 C1862 1.356 . S
C1858 O1909 1.325 . S
C1859 N1860 1.279 . S
C1859 C1862 1.358 . S
C1859 H1916 0.930 . S
N1860 C1859 1.279 . S
N1860 C1863 1.314 . S
C1861 C1858 1.348 . S
C1861 C1863 1.353 . S
C1861 H1917 0.929 . S
C1862 C1858 1.356 . S
C1862 C1859 1.358 . S
C1862 H1918 0.930 . S
C1863 N1860 1.314 . S
C1863 C1861 1.353 . S
C1863 H1919 0.930 . S
C1864 N1865 1.314 . S
C1864 C1869 1.353 . S
C1864 H1870 0.930 . S
N1865 Li1848 1.990 . S
N1865 C1864 1.314 . S
N1865 C1867 1.279 . S
C1866 C1867 1.358 . S
C1866 C1868 1.356 . S
C1866 H1920 0.930 . S
C1867 N1865 1.279 . S
C1867 C1866 1.358 . S
C1867 H1871 0.930 . S
C1868 C1866 1.356 . S
C1868 C1869 1.348 . S
C1869 C1864 1.353 . S
C1869 C1868 1.348 . S
C1869 H1921 0.929 . S
H1870 C1864 0.930 . S
H1871 C1867 0.930 . S
C1872 N1873 1.314 . S
C1872 C1874 1.353 . S
C1872 H1878 0.930 . S
N1873 Li1849 1.990 . S
N1873 C1872 1.314 . S
N1873 C1876 1.279 . S
C1874 C1872 1.353 . S
C1874 C1877 1.348 . S
C1874 H1922 0.929 . S
C1875 C1876 1.358 . S
C1875 C1877 1.356 . S
C1875 H1923 0.930 . S
C1876 N1873 1.279 . S
C1876 C1875 1.358 . S
C1876 H1879 0.930 . S
C1877 C1874 1.348 . S
C1877 C1875 1.356 . S
H1878 C1872 0.930 . S
H1879 C1876 0.930 . S
C1880 C1882 1.348 . S
C1880 C1883 1.356 . S
C1880 O1910 1.325 . S
N1881 C1884 1.314 . S
N1881 C1885 1.279 . S
C1882 C1880 1.348 . S
C1882 C1884 1.353 . S
C1882 H1924 0.929 . S
C1883 C1880 1.356 . S
C1883 C1885 1.358 . S
C1883 H1925 0.930 . S
C1884 N1881 1.314 . S
C1884 C1882 1.353 . S
C1884 H1926 0.930 . S
C1885 N1881 1.279 . S
C1885 C1883 1.358 . S
C1885 H1927 0.930 . S
C1886 C1887 1.348 . S
C1886 C1888 1.356 . S
C1886 O1911 1.325 . S
C1887 C1886 1.348 . S
C1887 C1889 1.353 . S
C1887 H1928 0.929 . S
C1888 C1886 1.356 . S
C1888 C1890 1.358 . S
C1888 H1929 0.930 . S
C1889 C1887 1.353 . S
C1889 N1891 1.314 . S
C1889 H1930 0.930 . S
C1890 C1888 1.358 . S
C1890 N1891 1.279 . S
C1890 H1931 0.930 . S
N1891 C1889 1.314 . S
N1891 C1890 1.279 . S
C1892 C1894 1.353 . S
C1892 N1895 1.314 . S
C1892 H1898 0.930 . S
C1893 N1895 1.279 . S
C1893 C1896 1.358 . S
C1893 H1899 0.930 . S
C1894 C1892 1.353 . S
C1894 C1897 1.348 . S
C1894 H1932 0.929 . S
N1895 Li1850 1.990 . S
N1895 C1892 1.314 . S
N1895 C1893 1.279 . S
C1896 C1893 1.358 . S
C1896 C1897 1.356 . S
C1896 H1933 0.930 . S
C1897 C1894 1.348 . S
C1897 C1896 1.356 . S
H1898 C1892 0.930 . S
H1899 C1893 0.930 . S
C1900 N1901 1.314 . S
C1900 C1902 1.353 . S
C1900 H1906 0.930 . S
N1901 Li1851 1.990 . S
N1901 C1900 1.314 . S
N1901 C1904 1.279 . S
C1902 C1900 1.353 . S
C1902 C1905 1.348 . S
C1902 H1934 0.929 . S
C1903 C1904 1.358 . S
C1903 C1905 1.356 . S
C1903 H1935 0.930 . S
C1904 N1901 1.279 . S
C1904 C1903 1.358 . S
C1904 H1907 0.930 . S
C1905 C1902 1.348 . S
C1905 C1903 1.356 . S
H1906 C1900 0.930 . S
H1907 C1904 0.930 . S
O1908 Li1848 1.956 . S
O1908 Li1849 1.970 . S
O1908 Li1850 1.961 . S
O1908 C1852 1.325 . S
O1909 Li1848 1.970 . S
O1909 Li1849 1.956 . S
O1909 Li1851 1.961 . S
O1909 C1858 1.325 . S
O1910 Li1848 1.961 . S
O1910 Li1850 1.956 . S
O1910 Li1851 1.970 . S
O1910 C1880 1.325 . S
O1911 Li1849 1.961 . S
O1911 Li1850 1.970 . S
O1911 Li1851 1.956 . S
O1911 C1886 1.325 . S
H1912 C1854 0.929 . S
H1913 C1855 0.930 . S
H1914 C1856 0.930 . S
H1915 C1857 0.930 . S
H1916 C1859 0.930 . S
H1917 C1861 0.929 . S
H1918 C1862 0.930 . S
H1919 C1863 0.930 . S
H1920 C1866 0.930 . S
H1921 C1869 0.929 . S
H1922 C1874 0.929 . S
H1923 C1875 0.930 . S
H1924 C1882 0.929 . S
H1925 C1883 0.930 . S
H1926 C1884 0.930 . S
H1927 C1885 0.930 . S
H1928 C1887 0.929 . S
H1929 C1888 0.930 . S
H1930 C1889 0.930 . S
H1931 C1890 0.930 . S
H1932 C1894 0.929 . S
H1933 C1896 0.930 . S
H1934 C1902 0.929 . S
H1935 C1903 0.930 . S
Li1936 N1953 1.990 . S
Li1936 O1996 1.956 . S
Li1936 O1997 1.970 . S
Li1936 O1998 1.961 . S
Li1937 N1961 1.990 . S
Li1937 O1996 1.970 . S
Li1937 O1997 1.956 . S
Li1937 O1999 1.961 . S
Li1938 N1983 1.990 . S
Li1938 O1996 1.961 . S
Li1938 O1998 1.956 . S
Li1938 O1999 1.970 . S
Li1939 N1989 1.990 . S
Li1939 O1997 1.961 . S
Li1939 O1998 1.970 . S
Li1939 O1999 1.956 . S
C1940 C1942 1.348 . S
C1940 C1943 1.356 . S
C1940 O1996 1.325 . S
N1941 C1944 1.314 1_545 S
N1941 C1945 1.279 . S
C1942 C1940 1.348 . S
C1942 C1944 1.353 . S
C1942 H2000 0.929 . S
C1943 C1940 1.356 . S
C1943 C1945 1.358 1_565 S
C1943 H2001 0.930 1_565 S
C1944 N1941 1.314 1_565 S
C1944 C1942 1.353 . S
C1944 H2002 0.930 . S
C1945 N1941 1.279 . S
C1945 C1943 1.358 1_545 S
C1945 H2003 0.930 . S
C1946 C1949 1.348 . S
C1946 C1950 1.356 . S
C1946 O1997 1.325 . S
C1947 N1948 1.279 1_556 S
C1947 C1950 1.358 . S
C1947 H2004 0.930 . S
N1948 C1947 1.279 1_554 S
N1948 C1951 1.314 . S
C1949 C1946 1.348 . S
C1949 C1951 1.353 1_556 S
C1949 H2005 0.929 . S
C1950 C1946 1.356 . S
C1950 C1947 1.358 . S
C1950 H2006 0.930 . S
C1951 N1948 1.314 . S
C1951 C1949 1.353 1_554 S
C1951 H2007 0.930 . S
C1952 N1953 1.314 . S
C1952 C1957 1.353 1_565 S
C1952 H1958 0.930 . S
N1953 Li1936 1.990 . S
N1953 C1952 1.314 . S
N1953 C1955 1.276 . S
C1954 C1955 1.363 1_544 S
C1954 C1956 1.356 . S
C1954 H2008 0.930 . S
C1955 N1953 1.276 . S
C1955 C1954 1.363 1_566 S
C1955 H1959 0.929 . S
C1956 C1954 1.356 . S
C1956 C1957 1.348 1_554 S
C1957 C1952 1.353 1_545 S
C1957 C1956 1.348 1_556 S
C1957 H2009 0.929 . S
H1958 C1952 0.930 . S
H1959 C1955 0.929 . S
C1960 N1961 1.314 . S
C1960 C1962 1.353 . S
C1960 H1966 0.930 . S
N1961 Li1937 1.990 . S
N1961 C1960 1.314 . S
N1961 C1964 1.279 . S
C1962 C1960 1.353 . S
C1962 C1965 1.348 . S
C1962 H2010 0.929 . S
C1963 C1964 1.358 . S
C1963 C1965 1.356 . S
C1963 H2011 0.953 . S
C1964 N1961 1.279 . S
C1964 C1963 1.358 . S
C1964 H1967 0.930 . S
C1965 C1962 1.348 . S
C1965 C1963 1.356 . S
H1966 C1960 0.930 . S
H1967 C1964 0.930 . S
C1968 C1970 1.348 . S
C1968 C1971 1.356 1_565 S
C1968 O1998 1.325 . S
N1969 C1972 1.314 1_545 S
N1969 C1973 1.279 . S
C1970 C1968 1.348 . S
C1970 C1972 1.353 . S
C1970 H2012 0.929 . S
C1971 C1968 1.356 1_545 S
C1971 C1973 1.358 . S
C1971 H2013 0.930 . S
C1972 N1969 1.314 1_565 S
C1972 C1970 1.353 . S
C1972 H2014 0.930 . S
C1973 N1969 1.279 . S
C1973 C1971 1.358 . S
C1973 H2015 0.930 . S
C1974 C1975 1.348 . S
C1974 C1976 1.356 . S
C1974 O1999 1.325 . S
C1975 C1974 1.348 . S
C1975 C1977 1.353 . S
C1975 H2016 0.929 . S
C1976 C1974 1.356 . S
C1976 C1978 1.358 . S
C1976 H2017 0.930 . S
C1977 C1975 1.353 . S
C1977 N1979 1.314 . S
C1977 H2018 0.930 . S
C1978 C1976 1.358 . S
C1978 N1979 1.279 . S
C1978 H2019 0.930 . S
N1979 C1977 1.314 . S
N1979 C1978 1.279 . S
C1980 C1982 1.353 . S
C1980 N1983 1.314 . S
C1980 H1986 0.930 . S
C1981 N1983 1.279 . S
C1981 C1984 1.379 . S
C1981 H1987 0.930 . S
C1982 C1980 1.353 . S
C1982 C1985 1.348 . S
C1982 H2020 0.929 . S
N1983 Li1938 1.990 . S
N1983 C1980 1.314 . S
N1983 C1981 1.279 . S
C1984 C1981 1.379 . S
C1984 C1985 1.358 . S
C1984 H2021 0.909 1_565 S
C1985 C1982 1.348 . S
C1985 C1984 1.358 . S
H1986 C1980 0.930 . S
H1987 C1981 0.930 . S
C1988 N1989 1.314 . S
C1988 C1990 1.353 . S
C1988 H1994 0.930 . S
N1989 Li1939 1.990 . S
N1989 C1988 1.314 . S
N1989 C1992 1.279 . S
C1990 C1988 1.353 . S
C1990 C1993 1.348 . S
C1990 H2022 0.929 . S
C1991 C1992 1.358 . S
C1991 C1993 1.356 . S
C1991 H2023 0.930 . S
C1992 N1989 1.279 . S
C1992 C1991 1.358 . S
C1992 H1995 0.930 . S
C1993 C1990 1.348 . S
C1993 C1991 1.356 . S
H1994 C1988 0.930 . S
H1995 C1992 0.930 . S
O1996 Li1936 1.956 . S
O1996 Li1937 1.970 . S
O1996 Li1938 1.961 . S
O1996 C1940 1.325 . S
O1997 Li1936 1.970 . S
O1997 Li1937 1.956 . S
O1997 Li1939 1.961 . S
O1997 C1946 1.325 . S
O1998 Li1936 1.961 . S
O1998 Li1938 1.956 . S
O1998 Li1939 1.970 . S
O1998 C1968 1.325 . S
O1999 Li1937 1.961 . S
O1999 Li1938 1.970 . S
O1999 Li1939 1.956 . S
O1999 C1974 1.325 . S
H2000 C1942 0.929 . S
H2001 C1943 0.930 1_545 S
H2002 C1944 0.930 . S
H2003 C1945 0.930 . S
H2004 C1947 0.930 . S
H2005 C1949 0.929 . S
H2006 C1950 0.930 . S
H2007 C1951 0.930 . S
H2008 C1954 0.930 . S
H2009 C1957 0.929 . S
H2010 C1962 0.929 . S
H2011 C1963 0.953 . S
H2012 C1970 0.929 . S
H2013 C1971 0.930 . S
H2014 C1972 0.930 . S
H2015 C1973 0.930 . S
H2016 C1975 0.929 . S
H2017 C1976 0.930 . S
H2018 C1977 0.930 . S
H2019 C1978 0.930 . S
H2020 C1982 0.929 . S
H2021 C1984 0.909 1_545 S
H2022 C1990 0.929 . S
H2023 C1991 0.930 . S
Li2024 N2041 1.990 . S
Li2024 O2084 1.956 . S
Li2024 O2085 1.970 . S
Li2024 O2086 1.961 . S
Li2025 N2049 1.990 . S
Li2025 O2084 1.970 . S
Li2025 O2085 1.956 . S
Li2025 O2087 1.961 . S
Li2026 N2071 1.990 . S
Li2026 O2084 1.961 . S
Li2026 O2086 1.956 . S
Li2026 O2087 1.970 . S
Li2027 N2077 1.990 . S
Li2027 O2085 1.961 . S
Li2027 O2086 1.970 . S
Li2027 O2087 1.956 . S
C2028 C2030 1.348 . S
C2028 C2031 1.356 . S
C2028 O2084 1.325 . S
N2029 C2032 1.314 1_565 S
N2029 C2033 1.279 . S
C2030 C2028 1.348 . S
C2030 C2032 1.353 . S
C2030 H2088 0.929 . S
C2031 C2028 1.356 . S
C2031 C2033 1.358 1_545 S
C2031 H2089 0.930 1_545 S
C2032 N2029 1.314 1_545 S
C2032 C2030 1.353 . S
C2032 H2090 0.930 . S
C2033 N2029 1.279 . S
C2033 C2031 1.358 1_565 S
C2033 H2091 0.930 . S
C2034 C2037 1.348 . S
C2034 C2038 1.356 . S
C2034 O2085 1.325 . S
C2035 N2036 1.279 . S
C2035 C2038 1.358 . S
C2035 H2092 0.930 . S
N2036 C2035 1.279 . S
N2036 C2039 1.314 . S
C2037 C2034 1.348 . S
C2037 C2039 1.353 . S
C2037 H2093 0.929 . S
C2038 C2034 1.356 . S
C2038 C2035 1.358 . S
C2038 H2094 0.930 . S
C2039 N2036 1.314 . S
C2039 C2037 1.353 . S
C2039 H2095 0.930 . S
C2040 N2041 1.314 . S
C2040 C2045 1.353 1_545 S
C2040 H2046 0.930 . S
N2041 Li2024 1.990 . S
N2041 C2040 1.314 . S
N2041 C2043 1.283 1_545 S
C2042 C2043 1.354 . S
C2042 C2044 1.356 . S
C2042 H2096 0.930 . S
C2043 N2041 1.283 1_565 S
C2043 C2042 1.354 . S
C2043 H2047 0.932 1_565 S
C2044 C2042 1.356 . S
C2044 C2045 1.348 . S
C2045 C2040 1.353 1_565 S
C2045 C2044 1.348 . S
C2045 H2097 0.929 . S
H2046 C2040 0.930 . S
H2047 C2043 0.932 1_545 S
C2048 N2049 1.314 . S
C2048 C2050 1.353 . S
C2048 H2054 0.930 . S
N2049 Li2025 1.990 . S
N2049 C2048 1.314 . S
N2049 C2052 1.279 . S
C2050 C2048 1.353 . S
C2050 C2053 1.348 . S
C2050 H2098 0.929 . S
C2051 C2052 1.358 . S
C2051 C2053 1.356 . S
C2051 H2099 0.930 . S
C2052 N2049 1.279 . S
C2052 C2051 1.358 . S
C2052 H2055 0.930 . S
C2053 C2050 1.348 . S
C2053 C2051 1.356 . S
H2054 C2048 0.930 . S
H2055 C2052 0.930 . S
C2056 C2058 1.348 . S
C2056 C2059 1.356 1_545 S
C2056 O2086 1.325 . S
N2057 C2060 1.314 1_565 S
N2057 C2061 1.279 . S
C2058 C2056 1.348 . S
C2058 C2060 1.353 . S
C2058 H2100 0.929 . S
C2059 C2056 1.356 1_565 S
C2059 C2061 1.358 . S
C2059 H2101 0.930 . S
C2060 N2057 1.314 1_545 S
C2060 C2058 1.353 . S
C2060 H2102 0.930 . S
C2061 N2057 1.279 . S
C2061 C2059 1.358 . S
C2061 H2103 0.930 . S
C2062 C2063 1.348 . S
C2062 C2064 1.356 . S
C2062 O2087 1.325 . S
C2063 C2062 1.348 . S
C2063 C2065 1.353 . S
C2063 H2104 0.929 . S
C2064 C2062 1.356 . S
C2064 C2066 1.358 . S
C2064 H2105 0.930 . S
C2065 C2063 1.353 . S
C2065 N2067 1.314 . S
C2065 H2106 0.930 . S
C2066 C2064 1.358 . S
C2066 N2067 1.279 . S
C2066 H2107 0.930 . S
N2067 C2065 1.314 . S
N2067 C2066 1.279 . S
C2068 C2070 1.353 . S
C2068 N2071 1.314 . S
C2068 H2074 0.930 . S
C2069 N2071 1.279 . S
C2069 C2072 1.378 . S
C2069 H2075 0.930 . S
C2070 C2068 1.353 . S
C2070 C2073 1.348 . S
C2070 H2108 0.929 . S
N2071 Li2026 1.990 . S
N2071 C2068 1.314 . S
N2071 C2069 1.279 . S
C2072 C2069 1.378 . S
C2072 C2073 1.358 . S
C2072 H2109 0.910 1_545 S
C2073 C2070 1.348 . S
C2073 C2072 1.358 . S
H2074 C2068 0.930 . S
H2075 C2069 0.930 . S
C2076 N2077 1.314 . S
C2076 C2078 1.353 . S
C2076 H2082 0.930 . S
N2077 Li2027 1.990 . S
N2077 C2076 1.314 . S
N2077 C2080 1.279 . S
C2078 C2076 1.353 . S
C2078 C2081 1.348 . S
C2078 H2110 0.929 . S
C2079 C2080 1.358 . S
C2079 C2081 1.356 . S
C2079 H2111 0.930 . S
C2080 N2077 1.279 . S
C2080 C2079 1.358 . S
C2080 H2083 0.930 . S
C2081 C2078 1.348 . S
C2081 C2079 1.356 . S
H2082 C2076 0.930 . S
H2083 C2080 0.930 . S
O2084 Li2024 1.956 . S
O2084 Li2025 1.970 . S
O2084 Li2026 1.961 . S
O2084 C2028 1.325 . S
O2085 Li2024 1.970 . S
O2085 Li2025 1.956 . S
O2085 Li2027 1.961 . S
O2085 C2034 1.325 . S
O2086 Li2024 1.961 . S
O2086 Li2026 1.956 . S
O2086 Li2027 1.970 . S
O2086 C2056 1.325 . S
O2087 Li2025 1.961 . S
O2087 Li2026 1.970 . S
O2087 Li2027 1.956 . S
O2087 C2062 1.325 . S
H2088 C2030 0.929 . S
H2089 C2031 0.930 1_565 S
H2090 C2032 0.930 . S
H2091 C2033 0.930 . S
H2092 C2035 0.930 . S
H2093 C2037 0.929 . S
H2094 C2038 0.930 . S
H2095 C2039 0.930 . S
H2096 C2042 0.930 . S
H2097 C2045 0.929 . S
H2098 C2050 0.929 . S
H2099 C2051 0.930 . S
H2100 C2058 0.929 . S
H2101 C2059 0.930 . S
H2102 C2060 0.930 . S
H2103 C2061 0.930 . S
H2104 C2063 0.929 . S
H2105 C2064 0.930 . S
H2106 C2065 0.930 . S
H2107 C2066 0.930 . S
H2108 C2070 0.929 . S
H2109 C2072 0.910 1_565 S
H2110 C2078 0.929 . S
H2111 C2079 0.930 . S
H2112 C2118 0.930 . S
H2113 C2121 0.930 . S
H2114 C2122 0.930 . S
H2115 C2123 0.930 . S
H2116 C2126 0.930 . S
H2117 C2127 0.930 . S
C2118 H2112 0.930 . S
C2118 C2119 1.355 . S
C2118 C2120 1.415 . S
C2119 C2118 1.355 . S
C2119 C2121 1.419 . S
C2120 C2118 1.415 . S
C2120 C2125 1.425 . S
C2120 C2127 1.409 . S
C2121 H2113 0.930 . S
C2121 C2119 1.419 . S
C2121 C2122 1.362 . S
C2122 H2114 0.930 . S
C2122 C2121 1.362 . S
C2122 C2125 1.409 . S
C2123 H2115 0.930 . S
C2123 C2124 1.355 . S
C2123 C2125 1.415 . S
C2124 C2123 1.355 . S
C2124 C2126 1.419 . S
C2125 C2120 1.425 . S
C2125 C2122 1.409 . S
C2125 C2123 1.415 . S
C2126 H2116 0.930 . S
C2126 C2124 1.419 . S
C2126 C2127 1.362 . S
C2127 H2117 0.930 . S
C2127 C2120 1.409 . S
C2127 C2126 1.362 . S
H2128 C2134 0.930 . S
H2129 C2137 0.930 . S
H2130 C2138 0.930 . S
H2131 C2139 0.930 . S
H2132 C2142 0.930 . S
H2133 C2143 0.930 . S
C2134 H2128 0.930 . S
C2134 C2135 1.355 . S
C2134 C2136 1.415 . S
C2135 C2134 1.355 . S
C2135 C2137 1.419 . S
C2136 C2134 1.415 . S
C2136 C2141 1.425 . S
C2136 C2143 1.409 . S
C2137 H2129 0.930 . S
C2137 C2135 1.419 . S
C2137 C2138 1.362 . S
C2138 H2130 0.930 . S
C2138 C2137 1.362 . S
C2138 C2141 1.409 . S
C2139 H2131 0.930 . S
C2139 C2140 1.355 . S
C2139 C2141 1.415 . S
C2140 C2139 1.355 . S
C2140 C2142 1.419 . S
C2141 C2136 1.425 . S
C2141 C2138 1.409 . S
C2141 C2139 1.415 . S
C2142 H2132 0.930 . S
C2142 C2140 1.419 . S
C2142 C2143 1.362 . S
C2143 H2133 0.930 . S
C2143 C2136 1.409 . S
C2143 C2142 1.362 . S
H2144 C2150 0.930 . S
H2145 C2153 0.930 . S
H2146 C2154 0.930 . S
H2147 C2155 0.930 . S
H2148 C2158 0.930 . S
H2149 C2159 0.930 . S
C2150 H2144 0.930 . S
C2150 C2151 1.355 . S
C2150 C2152 1.415 . S
C2151 C2150 1.355 . S
C2151 C2153 1.419 . S
C2152 C2150 1.415 . S
C2152 C2157 1.425 . S
C2152 C2159 1.409 . S
C2153 H2145 0.930 . S
C2153 C2151 1.419 . S
C2153 C2154 1.362 . S
C2154 H2146 0.930 . S
C2154 C2153 1.362 . S
C2154 C2157 1.409 . S
C2155 H2147 0.930 . S
C2155 C2156 1.355 . S
C2155 C2157 1.415 . S
C2156 C2155 1.355 . S
C2156 C2158 1.419 . S
C2157 C2152 1.425 . S
C2157 C2154 1.409 . S
C2157 C2155 1.415 . S
C2158 H2148 0.930 . S
C2158 C2156 1.419 . S
C2158 C2159 1.362 . S
C2159 H2149 0.930 . S
C2159 C2152 1.409 . S
C2159 C2158 1.362 . S
H2160 C2166 0.930 . S
H2161 C2169 0.930 . S
H2162 C2170 0.930 . S
H2163 C2171 0.930 . S
H2164 C2174 0.930 . S
H2165 C2175 0.930 . S
C2166 H2160 0.930 . S
C2166 C2167 1.355 . S
C2166 C2168 1.415 . S
C2167 C2166 1.355 . S
C2167 C2169 1.419 . S
C2168 C2166 1.415 . S
C2168 C2173 1.425 . S
C2168 C2175 1.409 . S
C2169 H2161 0.930 . S
C2169 C2167 1.419 . S
C2169 C2170 1.362 . S
C2170 H2162 0.930 . S
C2170 C2169 1.362 . S
C2170 C2173 1.409 . S
C2171 H2163 0.930 . S
C2171 C2172 1.355 . S
C2171 C2173 1.415 . S
C2172 C2171 1.355 . S
C2172 C2174 1.419 . S
C2173 C2168 1.425 . S
C2173 C2170 1.409 . S
C2173 C2171 1.415 . S
C2174 H2164 0.930 . S
C2174 C2172 1.419 . S
C2174 C2175 1.362 . S
C2175 H2165 0.930 . S
C2175 C2168 1.409 . S
C2175 C2174 1.362 . S
H2176 C2182 0.930 . S
H2177 C2185 0.930 . S
H2178 C2186 0.930 . S
H2179 C2187 0.930 . S
H2180 C2190 0.930 . S
H2181 C2191 0.930 . S
C2182 H2176 0.930 . S
C2182 C2183 1.355 . S
C2182 C2184 1.415 . S
C2183 C2182 1.355 . S
C2183 C2185 1.419 . S
C2184 C2182 1.415 . S
C2184 C2189 1.425 . S
C2184 C2191 1.409 . S
C2185 H2177 0.930 . S
C2185 C2183 1.419 . S
C2185 C2186 1.362 . S
C2186 H2178 0.930 . S
C2186 C2185 1.362 . S
C2186 C2189 1.409 . S
C2187 H2179 0.930 . S
C2187 C2188 1.355 . S
C2187 C2189 1.415 . S
C2188 C2187 1.355 . S
C2188 C2190 1.419 . S
C2189 C2184 1.425 . S
C2189 C2186 1.409 . S
C2189 C2187 1.415 . S
C2190 H2180 0.930 . S
C2190 C2188 1.419 . S
C2190 C2191 1.362 . S
C2191 H2181 0.930 . S
C2191 C2184 1.409 . S
C2191 C2190 1.362 . S
H2192 C2198 0.930 . S
H2193 C2201 0.930 . S
H2194 C2202 0.930 . S
H2195 C2203 0.930 . S
H2196 C2206 0.930 1_455 S
H2197 C2207 0.930 . S
C2198 H2192 0.930 . S
C2198 C2199 1.355 . S
C2198 C2200 1.415 . S
C2199 C2198 1.355 . S
C2199 C2201 1.419 . S
C2200 C2198 1.415 . S
C2200 C2205 1.425 . S
C2200 C2207 1.409 . S
C2201 H2193 0.930 . S
C2201 C2199 1.419 . S
C2201 C2202 1.362 . S
C2202 H2194 0.930 . S
C2202 C2201 1.362 . S
C2202 C2205 1.409 . S
C2203 H2195 0.930 . S
C2203 C2204 1.355 . S
C2203 C2205 1.415 . S
C2204 C2203 1.355 . S
C2204 C2206 1.419 . S
C2205 C2200 1.425 . S
C2205 C2202 1.409 . S
C2205 C2203 1.415 . S
C2206 H2196 0.930 1_655 S
C2206 C2204 1.419 . S
C2206 C2207 1.362 . S
C2207 H2197 0.930 . S
C2207 C2200 1.409 . S
C2207 C2206 1.362 . S
H2208 C2214 0.930 . S
H2209 C2217 0.930 . S
H2210 C2218 0.930 . S
H2211 C2219 0.930 . S
H2212 C2222 0.930 1_556 S
H2213 C2223 0.930 . S
C2214 H2208 0.930 . S
C2214 C2215 1.355 . S
C2214 C2216 1.415 . S
C2215 C2214 1.355 . S
C2215 C2217 1.419 . S
C2216 C2214 1.415 . S
C2216 C2221 1.425 . S
C2216 C2223 1.409 . S
C2217 H2209 0.930 . S
C2217 C2215 1.419 . S
C2217 C2218 1.362 . S
C2218 H2210 0.930 . S
C2218 C2217 1.362 . S
C2218 C2221 1.409 . S
C2219 H2211 0.930 . S
C2219 C2220 1.355 . S
C2219 C2221 1.415 . S
C2220 C2219 1.355 . S
C2220 C2222 1.419 . S
C2221 C2216 1.425 . S
C2221 C2218 1.409 . S
C2221 C2219 1.415 . S
C2222 H2212 0.930 1_554 S
C2222 C2220 1.419 . S
C2222 C2223 1.362 . S
C2223 H2213 0.930 . S
C2223 C2216 1.409 . S
C2223 C2222 1.362 . S
H2224 C2230 0.930 . S
H2225 C2233 0.930 . S
H2226 C2234 0.930 . S
H2227 C2235 0.930 . S
H2228 C2238 0.930 . S
H2229 C2239 0.930 . S
C2230 H2224 0.930 . S
C2230 C2231 1.355 . S
C2230 C2232 1.415 . S
C2231 C2230 1.355 . S
C2231 C2233 1.419 . S
C2232 C2230 1.415 . S
C2232 C2237 1.425 . S
C2232 C2239 1.409 . S
C2233 H2225 0.930 . S
C2233 C2231 1.419 . S
C2233 C2234 1.362 . S
C2234 H2226 0.930 . S
C2234 C2233 1.362 . S
C2234 C2237 1.409 . S
C2235 H2227 0.930 . S
C2235 C2236 1.355 . S
C2235 C2237 1.415 . S
C2236 C2235 1.355 . S
C2236 C2238 1.419 . S
C2237 C2232 1.425 . S
C2237 C2234 1.409 . S
C2237 C2235 1.415 . S
C2238 H2228 0.930 . S
C2238 C2236 1.419 . S
C2238 C2239 1.362 . S
C2239 H2229 0.930 . S
C2239 C2232 1.409 . S
C2239 C2238 1.362 . S
H2240 C2246 0.930 . S
H2241 C2249 0.930 . S
H2242 C2250 0.930 . S
H2243 C2251 0.930 . S
H2244 C2254 0.930 . S
H2245 C2255 0.930 . S
C2246 H2240 0.930 . S
C2246 C2247 1.355 . S
C2246 C2248 1.415 . S
C2247 C2246 1.355 . S
C2247 C2249 1.419 . S
C2248 C2246 1.415 . S
C2248 C2253 1.425 . S
C2248 C2255 1.409 . S
C2249 H2241 0.930 . S
C2249 C2247 1.419 . S
C2249 C2250 1.362 . S
C2250 H2242 0.930 . S
C2250 C2249 1.362 . S
C2250 C2253 1.409 . S
C2251 H2243 0.930 . S
C2251 C2252 1.355 . S
C2251 C2253 1.415 . S
C2252 C2251 1.355 . S
C2252 C2254 1.419 . S
C2253 C2248 1.425 . S
C2253 C2250 1.409 . S
C2253 C2251 1.415 . S
C2254 H2244 0.930 . S
C2254 C2252 1.419 . S
C2254 C2255 1.362 . S
C2255 H2245 0.930 . S
C2255 C2248 1.409 . S
C2255 C2254 1.362 . S
H2256 C2262 0.930 . S
H2257 C2265 0.930 1_565 S
H2258 C2266 0.930 . S
H2259 C2267 0.930 . S
H2260 C2270 0.930 . S
H2261 C2271 0.930 . S
C2262 H2256 0.930 . S
C2262 C2263 1.355 . S
C2262 C2264 1.415 . S
C2263 C2262 1.355 . S
C2263 C2265 1.419 . S
C2264 C2262 1.415 . S
C2264 C2269 1.425 . S
C2264 C2271 1.409 . S
C2265 H2257 0.930 1_545 S
C2265 C2263 1.419 . S
C2265 C2266 1.362 . S
C2266 H2258 0.930 . S
C2266 C2265 1.362 . S
C2266 C2269 1.409 . S
C2267 H2259 0.930 . S
C2267 C2268 1.355 . S
C2267 C2269 1.415 . S
C2268 C2267 1.355 . S
C2268 C2270 1.419 . S
C2269 C2264 1.425 . S
C2269 C2266 1.409 . S
C2269 C2267 1.415 . S
C2270 H2260 0.930 . S
C2270 C2268 1.419 . S
C2270 C2271 1.362 . S
C2271 H2261 0.930 . S
C2271 C2264 1.409 . S
C2271 C2270 1.362 . S
H2272 C2278 0.930 . S
H2273 C2281 0.930 . S
H2274 C2282 0.930 . S
H2275 C2283 0.930 . S
H2276 C2286 0.930 1_545 S
H2277 C2287 0.930 . S
C2278 H2272 0.930 . S
C2278 C2279 1.355 . S
C2278 C2280 1.415 . S
C2279 C2278 1.355 . S
C2279 C2281 1.419 . S
C2280 C2278 1.415 . S
C2280 C2285 1.425 . S
C2280 C2287 1.409 . S
C2281 H2273 0.930 . S
C2281 C2279 1.419 . S
C2281 C2282 1.362 . S
C2282 H2274 0.930 . S
C2282 C2281 1.362 . S
C2282 C2285 1.409 . S
C2283 H2275 0.930 . S
C2283 C2284 1.355 . S
C2283 C2285 1.415 . S
C2284 C2283 1.355 . S
C2284 C2286 1.419 . S
C2285 C2280 1.425 . S
C2285 C2282 1.409 . S
C2285 C2283 1.415 . S
C2286 H2276 0.930 1_565 S
C2286 C2284 1.419 . S
C2286 C2287 1.362 . S
C2287 H2277 0.930 . S
C2287 C2280 1.409 . S
C2287 C2286 1.362 . S
H2288 C2294 0.930 . S
H2289 C2297 0.930 . S
H2290 C2298 0.930 . S
H2291 C2299 0.930 . S
H2292 C2302 0.930 . S
H2293 C2303 0.930 . S
C2294 H2288 0.930 . S
C2294 C2295 1.355 . S
C2294 C2296 1.415 . S
C2295 C2294 1.355 . S
C2295 C2297 1.419 . S
C2296 C2294 1.415 . S
C2296 C2301 1.425 . S
C2296 C2303 1.409 . S
C2297 H2289 0.930 . S
C2297 C2295 1.419 . S
C2297 C2298 1.362 . S
C2298 H2290 0.930 . S
C2298 C2297 1.362 . S
C2298 C2301 1.409 . S
C2299 H2291 0.930 . S
C2299 C2300 1.355 . S
C2299 C2301 1.415 . S
C2300 C2299 1.355 . S
C2300 C2302 1.419 . S
C2301 C2296 1.425 . S
C2301 C2298 1.409 . S
C2301 C2299 1.415 . S
C2302 H2292 0.930 . S
C2302 C2300 1.419 . S
C2302 C2303 1.362 . S
C2303 H2293 0.930 . S
C2303 C2296 1.409 . S
C2303 C2302 1.362 . S
H2304 C2310 0.930 . S
H2305 C2313 0.930 . S
H2306 C2314 0.930 . S
H2307 C2315 0.930 . S
H2308 C2318 0.930 . S
H2309 C2319 0.930 . S
C2310 H2304 0.930 . S
C2310 C2311 1.355 . S
C2310 C2312 1.415 . S
C2311 C2310 1.355 . S
C2311 C2313 1.419 . S
C2312 C2310 1.415 . S
C2312 C2317 1.425 . S
C2312 C2319 1.409 . S
C2313 H2305 0.930 . S
C2313 C2311 1.419 . S
C2313 C2314 1.362 . S
C2314 H2306 0.930 . S
C2314 C2313 1.362 . S
C2314 C2317 1.409 . S
C2315 H2307 0.930 . S
C2315 C2316 1.355 . S
C2315 C2317 1.415 . S
C2316 C2315 1.355 . S
C2316 C2318 1.419 . S
C2317 C2312 1.425 . S
C2317 C2314 1.409 . S
C2317 C2315 1.415 . S
C2318 H2308 0.930 . S
C2318 C2316 1.419 . S
C2318 C2319 1.362 . S
C2319 H2309 0.930 . S
C2319 C2312 1.409 . S
C2319 C2318 1.362 . S
H2320 C2326 0.930 . S
H2321 C2329 0.930 . S
H2322 C2330 0.930 . S
H2323 C2331 0.930 . S
H2324 C2334 0.930 . S
H2325 C2335 0.930 . S
C2326 H2320 0.930 . S
C2326 C2327 1.355 1_545 S
C2326 C2328 1.415 . S
C2327 C2326 1.355 1_565 S
C2327 C2329 1.419 . S
C2328 C2326 1.415 . S
C2328 C2333 1.425 . S
C2328 C2335 1.409 . S
C2329 H2321 0.930 . S
C2329 C2327 1.419 . S
C2329 C2330 1.362 . S
C2330 H2322 0.930 . S
C2330 C2329 1.362 . S
C2330 C2333 1.409 1_565 S
C2331 H2323 0.930 . S
C2331 C2332 1.355 . S
C2331 C2333 1.415 . S
C2332 C2331 1.355 . S
C2332 C2334 1.419 . S
C2333 C2328 1.425 . S
C2333 C2330 1.409 1_545 S
C2333 C2331 1.415 . S
C2334 H2324 0.930 . S
C2334 C2332 1.419 . S
C2334 C2335 1.362 . S
C2335 H2325 0.930 . S
C2335 C2328 1.409 . S
C2335 C2334 1.362 . S
H2336 C2342 0.930 . S
H2337 C2345 0.930 . S
H2338 C2346 0.930 . S
H2339 C2347 0.930 . S
H2340 C2350 0.930 . S
H2341 C2351 0.930 . S
C2342 H2336 0.930 . S
C2342 C2343 1.355 . S
C2342 C2344 1.415 . S
C2343 C2342 1.355 . S
C2343 C2345 1.419 . S
C2344 C2342 1.415 . S
C2344 C2349 1.425 . S
C2344 C2351 1.409 1_556 S
C2345 H2337 0.930 . S
C2345 C2343 1.419 . S
C2345 C2346 1.362 . S
C2346 H2338 0.930 . S
C2346 C2345 1.362 . S
C2346 C2349 1.409 . S
C2347 H2339 0.930 . S
C2347 C2348 1.355 1_556 S
C2347 C2349 1.415 . S
C2348 C2347 1.355 1_554 S
C2348 C2350 1.419 . S
C2349 C2344 1.425 . S
C2349 C2346 1.409 . S
C2349 C2347 1.415 . S
C2350 H2340 0.930 . S
C2350 C2348 1.419 . S
C2350 C2351 1.362 . S
C2351 H2341 0.930 . S
C2351 C2344 1.409 1_554 S
C2351 C2350 1.362 . S
H2352 C2358 0.930 . S
H2353 C2361 0.930 . S
H2354 C2362 0.930 . S
H2355 C2363 0.930 . S
H2356 C2366 0.930 . S
H2357 C2367 0.930 . S
C2358 H2352 0.930 . S
C2358 C2359 1.355 1_565 S
C2358 C2360 1.415 . S
C2359 C2358 1.355 1_545 S
C2359 C2361 1.419 . S
C2360 C2358 1.415 . S
C2360 C2365 1.425 . S
C2360 C2367 1.409 . S
C2361 H2353 0.930 . S
C2361 C2359 1.419 . S
C2361 C2362 1.362 . S
C2362 H2354 0.930 . S
C2362 C2361 1.362 . S
C2362 C2365 1.409 1_545 S
C2363 H2355 0.930 . S
C2363 C2364 1.355 . S
C2363 C2365 1.415 . S
C2364 C2363 1.355 . S
C2364 C2366 1.419 . S
C2365 C2360 1.425 . S
C2365 C2362 1.409 1_565 S
C2365 C2363 1.415 . S
C2366 H2356 0.930 . S
C2366 C2364 1.419 . S
C2366 C2367 1.362 . S
C2367 H2357 0.930 . S
C2367 C2360 1.409 . S
C2367 C2366 1.362 . S
H2368 C2374 0.930 . S
H2369 C2377 0.930 . S
H2370 C2378 0.930 . S
H2371 C2379 0.930 . S
H2372 C2382 0.930 . S
H2373 C2383 0.930 . S
C2374 H2368 0.930 . S
C2374 C2375 1.355 . S
C2374 C2376 1.415 . S
C2375 C2374 1.355 . S
C2375 C2377 1.419 . S
C2376 C2374 1.415 . S
C2376 C2381 1.425 . S
C2376 C2383 1.409 . S
C2377 H2369 0.930 . S
C2377 C2375 1.419 . S
C2377 C2378 1.362 . S
C2378 H2370 0.930 . S
C2378 C2377 1.362 . S
C2378 C2381 1.409 . S
C2379 H2371 0.930 . S
C2379 C2380 1.355 . S
C2379 C2381 1.415 . S
C2380 C2379 1.355 . S
C2380 C2382 1.419 . S
C2381 C2376 1.425 . S
C2381 C2378 1.409 . S
C2381 C2379 1.415 . S
C2382 H2372 0.930 . S
C2382 C2380 1.419 . S
C2382 C2383 1.362 . S
C2383 H2373 0.930 . S
C2383 C2376 1.409 . S
C2383 C2382 1.362 . S
H2384 C2390 0.930 . S
H2385 C2393 0.930 . S
H2386 C2394 0.930 . S
H2387 C2395 0.930 . S
H2388 C2398 0.930 . S
H2389 C2399 0.930 . S
C2390 H2384 0.930 . S
C2390 C2391 1.355 . S
C2390 C2392 1.415 . S
C2391 C2390 1.355 . S
C2391 C2393 1.419 . S
C2392 C2390 1.415 . S
C2392 C2397 1.425 . S
C2392 C2399 1.409 . S
C2393 H2385 0.930 . S
C2393 C2391 1.419 . S
C2393 C2394 1.362 . S
C2394 H2386 0.930 . S
C2394 C2393 1.362 . S
C2394 C2397 1.409 . S
C2395 H2387 0.930 . S
C2395 C2396 1.355 . S
C2395 C2397 1.415 . S
C2396 C2395 1.355 . S
C2396 C2398 1.419 . S
C2397 C2392 1.425 . S
C2397 C2394 1.409 . S
C2397 C2395 1.415 . S
C2398 H2388 0.930 . S
C2398 C2396 1.419 . S
C2398 C2399 1.362 . S
C2399 H2389 0.930 . S
C2399 C2392 1.409 . S
C2399 C2398 1.362 . S
H2400 C2406 0.935 . S
H2401 C2409 0.930 . S
H2402 C2410 0.930 . S
H2403 C2411 0.930 . S
H2404 C2414 0.930 . S
H2405 C2415 0.930 . S
C2406 H2400 0.935 . S
C2406 C2407 1.380 . S
C2406 C2408 1.387 1_556 S
C2407 C2406 1.380 . S
C2407 C2409 1.419 . S
C2408 C2406 1.387 1_554 S
C2408 C2413 1.425 . S
C2408 C2415 1.409 . S
C2409 H2401 0.930 . S
C2409 C2407 1.419 . S
C2409 C2410 1.362 1_556 S
C2410 H2402 0.930 . S
C2410 C2409 1.362 1_554 S
C2410 C2413 1.409 . S
C2411 H2403 0.930 . S
C2411 C2412 1.355 . S
C2411 C2413 1.415 . S
C2412 C2411 1.355 . S
C2412 C2414 1.419 . S
C2413 C2408 1.425 . S
C2413 C2410 1.409 . S
C2413 C2411 1.415 . S
C2414 H2404 0.930 . S
C2414 C2412 1.419 . S
C2414 C2415 1.362 . S
C2415 H2405 0.930 . S
C2415 C2408 1.409 . S
C2415 C2414 1.362 . S
H2416 C2422 0.930 . S
H2417 C2425 0.930 . S
H2418 C2426 0.930 . S
H2419 C2427 0.930 . S
H2420 C2430 0.930 . S
H2421 C2431 0.930 . S
C2422 H2416 0.930 . S
C2422 C2423 1.355 . S
C2422 C2424 1.415 . S
C2423 C2422 1.355 . S
C2423 C2425 1.419 . S
C2424 C2422 1.415 . S
C2424 C2429 1.425 . S
C2424 C2431 1.409 . S
C2425 H2417 0.930 . S
C2425 C2423 1.419 . S
C2425 C2426 1.362 . S
C2426 H2418 0.930 . S
C2426 C2425 1.362 . S
C2426 C2429 1.409 . S
C2427 H2419 0.930 . S
C2427 C2428 1.355 . S
C2427 C2429 1.415 . S
C2428 C2427 1.355 . S
C2428 C2430 1.419 . S
C2429 C2424 1.425 . S
C2429 C2426 1.409 . S
C2429 C2427 1.415 . S
C2430 H2420 0.930 . S
C2430 C2428 1.419 . S
C2430 C2431 1.362 . S
C2431 H2421 0.930 . S
C2431 C2424 1.409 . S
C2431 C2430 1.362 . S
H2432 C2438 0.930 . S
H2433 C2441 0.930 . S
H2434 C2442 0.930 . S
H2435 C2443 0.930 . S
H2436 C2446 0.930 . S
H2437 C2447 0.930 . S
C2438 H2432 0.930 . S
C2438 C2439 1.355 . S
C2438 C2440 1.415 . S
C2439 C2438 1.355 . S
C2439 C2441 1.419 . S
C2440 C2438 1.415 . S
C2440 C2445 1.425 . S
C2440 C2447 1.409 . S
C2441 H2433 0.930 . S
C2441 C2439 1.419 . S
C2441 C2442 1.362 . S
C2442 H2434 0.930 . S
C2442 C2441 1.362 . S
C2442 C2445 1.409 . S
C2443 H2435 0.930 . S
C2443 C2444 1.355 . S
C2443 C2445 1.415 . S
C2444 C2443 1.355 . S
C2444 C2446 1.419 . S
C2445 C2440 1.425 . S
C2445 C2442 1.409 . S
C2445 C2443 1.415 . S
C2446 H2436 0.930 . S
C2446 C2444 1.419 . S
C2446 C2447 1.362 . S
C2447 H2437 0.930 . S
C2447 C2440 1.409 . S
C2447 C2446 1.362 . S
H2448 C2454 0.930 . S
H2449 C2457 0.930 . S
H2450 C2458 0.930 . S
H2451 C2459 0.930 . S
H2452 C2462 0.930 . S
H2453 C2463 0.930 . S
C2454 H2448 0.930 . S
C2454 C2455 1.355 1_655 S
C2454 C2456 1.415 . S
C2455 C2454 1.355 1_455 S
C2455 C2457 1.419 . S
C2456 C2454 1.415 . S
C2456 C2461 1.425 . S
C2456 C2463 1.409 . S
C2457 H2449 0.930 . S
C2457 C2455 1.419 . S
C2457 C2458 1.362 1_455 S
C2458 H2450 0.930 . S
C2458 C2457 1.362 1_655 S
C2458 C2461 1.409 . S
C2459 H2451 0.930 . S
C2459 C2460 1.355 . S
C2459 C2461 1.415 . S
C2460 C2459 1.355 . S
C2460 C2462 1.419 . S
C2461 C2456 1.425 . S
C2461 C2458 1.409 . S
C2461 C2459 1.415 . S
C2462 H2452 0.930 . S
C2462 C2460 1.419 . S
C2462 C2463 1.362 . S
C2463 H2453 0.930 . S
C2463 C2456 1.409 . S
C2463 C2462 1.362 . S
H2464 C2470 0.930 . S
H2465 C2473 0.930 . S
H2466 C2474 0.930 . S
H2467 C2475 0.930 . S
H2468 C2478 0.930 . S
H2469 C2479 0.930 . S
C2470 H2464 0.930 . S
C2470 C2471 1.355 . S
C2470 C2472 1.415 1_655 S
C2471 C2470 1.355 . S
C2471 C2473 1.419 1_655 S
C2472 C2470 1.415 1_455 S
C2472 C2477 1.425 . S
C2472 C2479 1.409 . S
C2473 H2465 0.930 . S
C2473 C2471 1.419 1_455 S
C2473 C2474 1.362 . S
C2474 H2466 0.930 . S
C2474 C2473 1.362 . S
C2474 C2477 1.409 . S
C2475 H2467 0.930 . S
C2475 C2476 1.355 . S
C2475 C2477 1.415 . S
C2476 C2475 1.355 . S
C2476 C2478 1.419 . S
C2477 C2472 1.425 . S
C2477 C2474 1.409 . S
C2477 C2475 1.415 . S
C2478 H2468 0.930 . S
C2478 C2476 1.419 . S
C2478 C2479 1.362 . S
C2479 H2469 0.930 . S
C2479 C2472 1.409 . S
C2479 C2478 1.362 . S
H2480 C2486 0.930 . S
H2481 C2489 0.930 . S
H2482 C2490 0.930 . S
H2483 C2491 0.930 . S
H2484 C2494 0.930 . S
H2485 C2495 0.930 . S
C2486 H2480 0.930 . S
C2486 C2487 1.355 . S
C2486 C2488 1.415 . S
C2487 C2486 1.355 . S
C2487 C2489 1.419 . S
C2488 C2486 1.415 . S
C2488 C2493 1.425 . S
C2488 C2495 1.409 . S
C2489 H2481 0.930 . S
C2489 C2487 1.419 . S
C2489 C2490 1.362 . S
C2490 H2482 0.930 . S
C2490 C2489 1.362 . S
C2490 C2493 1.409 . S
C2491 H2483 0.930 . S
C2491 C2492 1.355 . S
C2491 C2493 1.415 . S
C2492 C2491 1.355 . S
C2492 C2494 1.419 . S
C2493 C2488 1.425 . S
C2493 C2490 1.409 . S
C2493 C2491 1.415 . S
C2494 H2484 0.930 . S
C2494 C2492 1.419 . S
C2494 C2495 1.362 . S
C2495 H2485 0.930 . S
C2495 C2488 1.409 . S
C2495 C2494 1.362 . S
H2496 C2502 0.930 . S
H2497 C2505 0.930 . S
H2498 C2506 0.930 . S
H2499 C2507 0.930 . S
H2500 C2510 0.930 . S
H2501 C2511 0.930 . S
C2502 H2496 0.930 . S
C2502 C2503 1.355 . S
C2502 C2504 1.415 . S
C2503 C2502 1.355 . S
C2503 C2505 1.419 . S
C2504 C2502 1.415 . S
C2504 C2509 1.425 . S
C2504 C2511 1.409 . S
C2505 H2497 0.930 . S
C2505 C2503 1.419 . S
C2505 C2506 1.362 . S
C2506 H2498 0.930 . S
C2506 C2505 1.362 . S
C2506 C2509 1.409 . S
C2507 H2499 0.930 . S
C2507 C2508 1.355 . S
C2507 C2509 1.415 . S
C2508 C2507 1.355 . S
C2508 C2510 1.419 . S
C2509 C2504 1.425 . S
C2509 C2506 1.409 . S
C2509 C2507 1.415 . S
C2510 H2500 0.930 . S
C2510 C2508 1.419 . S
C2510 C2511 1.362 . S
C2511 H2501 0.930 . S
C2511 C2504 1.409 . S
C2511 C2510 1.362 . S
H2512 C2518 0.930 . S
H2513 C2521 0.930 . S
H2514 C2522 0.930 . S
H2515 C2523 0.930 . S
H2516 C2526 0.930 . S
H2517 C2527 0.930 . S
C2518 H2512 0.930 . S
C2518 C2519 1.355 . S
C2518 C2520 1.415 . S
C2519 C2518 1.355 . S
C2519 C2521 1.419 . S
C2520 C2518 1.415 . S
C2520 C2525 1.425 . S
C2520 C2527 1.409 . S
C2521 H2513 0.930 . S
C2521 C2519 1.419 . S
C2521 C2522 1.362 . S
C2522 H2514 0.930 . S
C2522 C2521 1.362 . S
C2522 C2525 1.409 . S
C2523 H2515 0.930 . S
C2523 C2524 1.355 . S
C2523 C2525 1.415 . S
C2524 C2523 1.355 . S
C2524 C2526 1.419 . S
C2525 C2520 1.425 . S
C2525 C2522 1.409 . S
C2525 C2523 1.415 . S
C2526 H2516 0.930 . S
C2526 C2524 1.419 . S
C2526 C2527 1.362 . S
C2527 H2517 0.930 . S
C2527 C2520 1.409 . S
C2527 C2526 1.362 . S
H2528 C2534 0.930 . S
H2529 C2537 0.930 . S
H2530 C2538 0.930 . S
H2531 C2539 0.930 . S
H2532 C2542 0.930 . S
H2533 C2543 0.930 . S
C2534 H2528 0.930 . S
C2534 C2535 1.355 . S
C2534 C2536 1.415 . S
C2535 C2534 1.355 . S
C2535 C2537 1.419 . S
C2536 C2534 1.415 . S
C2536 C2541 1.425 . S
C2536 C2543 1.409 . S
C2537 H2529 0.930 . S
C2537 C2535 1.419 . S
C2537 C2538 1.362 . S
C2538 H2530 0.930 . S
C2538 C2537 1.362 . S
C2538 C2541 1.409 . S
C2539 H2531 0.930 . S
C2539 C2540 1.355 . S
C2539 C2541 1.415 . S
C2540 C2539 1.355 . S
C2540 C2542 1.419 . S
C2541 C2536 1.425 . S
C2541 C2538 1.409 . S
C2541 C2539 1.415 . S
C2542 H2532 0.930 . S
C2542 C2540 1.419 . S
C2542 C2543 1.362 . S
C2543 H2533 0.930 . S
C2543 C2536 1.409 . S
C2543 C2542 1.362 . S
H2544 C2550 0.930 . S
H2545 C2553 0.930 . S
H2546 C2554 0.930 . S
H2547 C2555 0.930 . S
H2548 C2558 0.930 . S
H2549 C2559 0.930 . S
C2550 H2544 0.930 . S
C2550 C2551 1.355 . S
C2550 C2552 1.415 . S
C2551 C2550 1.355 . S
C2551 C2553 1.419 . S
C2552 C2550 1.415 . S
C2552 C2557 1.425 . S
C2552 C2559 1.409 . S
C2553 H2545 0.930 . S
C2553 C2551 1.419 . S
C2553 C2554 1.362 . S
C2554 H2546 0.930 . S
C2554 C2553 1.362 . S
C2554 C2557 1.409 . S
C2555 H2547 0.930 . S
C2555 C2556 1.355 . S
C2555 C2557 1.415 . S
C2556 C2555 1.355 . S
C2556 C2558 1.419 . S
C2557 C2552 1.425 . S
C2557 C2554 1.409 . S
C2557 C2555 1.415 . S
C2558 H2548 0.930 . S
C2558 C2556 1.419 . S
C2558 C2559 1.362 . S
C2559 H2549 0.930 . S
C2559 C2552 1.409 . S
C2559 C2558 1.362 . S
H2560 C2566 0.930 . S
H2561 C2569 0.930 . S
H2562 C2570 0.930 . S
H2563 C2571 0.930 . S
H2564 C2574 0.930 . S
H2565 C2575 0.930 . S
C2566 H2560 0.930 . S
C2566 C2567 1.355 . S
C2566 C2568 1.415 . S
C2567 C2566 1.355 . S
C2567 C2569 1.419 . S
C2568 C2566 1.415 . S
C2568 C2573 1.425 . S
C2568 C2575 1.409 . S
C2569 H2561 0.930 . S
C2569 C2567 1.419 . S
C2569 C2570 1.362 . S
C2570 H2562 0.930 . S
C2570 C2569 1.362 . S
C2570 C2573 1.409 . S
C2571 H2563 0.930 . S
C2571 C2572 1.355 . S
C2571 C2573 1.415 . S
C2572 C2571 1.355 . S
C2572 C2574 1.419 . S
C2573 C2568 1.425 . S
C2573 C2570 1.409 . S
C2573 C2571 1.415 . S
C2574 H2564 0.930 . S
C2574 C2572 1.419 . S
C2574 C2575 1.362 . S
C2575 H2565 0.930 . S
C2575 C2568 1.409 . S
C2575 C2574 1.362 . S
H2576 C2582 0.930 . S
H2577 C2585 0.930 1_554 S
H2578 C2586 0.930 . S
H2579 C2587 0.930 . S
H2580 C2590 0.930 . S
H2581 C2591 0.930 . S
C2582 H2576 0.930 . S
C2582 C2583 1.355 . S
C2582 C2584 1.415 . S
C2583 C2582 1.355 . S
C2583 C2585 1.419 . S
C2584 C2582 1.415 . S
C2584 C2589 1.425 . S
C2584 C2591 1.409 . S
C2585 H2577 0.930 1_556 S
C2585 C2583 1.419 . S
C2585 C2586 1.362 . S
C2586 H2578 0.930 . S
C2586 C2585 1.362 . S
C2586 C2589 1.409 . S
C2587 H2579 0.930 . S
C2587 C2588 1.355 . S
C2587 C2589 1.415 . S
C2588 C2587 1.355 . S
C2588 C2590 1.419 . S
C2589 C2584 1.425 . S
C2589 C2586 1.409 . S
C2589 C2587 1.415 . S
C2590 H2580 0.930 . S
C2590 C2588 1.419 . S
C2590 C2591 1.362 . S
C2591 H2581 0.930 . S
C2591 C2584 1.409 . S
C2591 C2590 1.362 . S
H2592 C2598 0.930 . S
H2593 C2601 0.930 . S
H2594 C2602 0.930 . S
H2595 C2603 0.930 . S
H2596 C2606 0.930 . S
H2597 C2607 0.930 . S
C2598 H2592 0.930 . S
C2598 C2599 1.355 . S
C2598 C2600 1.415 . S
C2599 C2598 1.355 . S
C2599 C2601 1.419 . S
C2600 C2598 1.415 . S
C2600 C2605 1.425 . S
C2600 C2607 1.409 . S
C2601 H2593 0.930 . S
C2601 C2599 1.419 . S
C2601 C2602 1.362 . S
C2602 H2594 0.930 . S
C2602 C2601 1.362 . S
C2602 C2605 1.409 . S
C2603 H2595 0.930 . S
C2603 C2604 1.355 . S
C2603 C2605 1.415 . S
C2604 C2603 1.355 . S
C2604 C2606 1.419 . S
C2605 C2600 1.425 . S
C2605 C2602 1.409 . S
C2605 C2603 1.415 . S
C2606 H2596 0.930 . S
C2606 C2604 1.419 . S
C2606 C2607 1.362 . S
C2607 H2597 0.930 . S
C2607 C2600 1.409 . S
C2607 C2606 1.362 . S
H2608 C2614 0.930 . S
H2609 C2617 0.930 . S
H2610 C2618 0.930 . S
H2611 C2619 0.930 . S
H2612 C2622 0.930 . S
H2613 C2623 0.930 . S
C2614 H2608 0.930 . S
C2614 C2615 1.355 . S
C2614 C2616 1.415 . S
C2615 C2614 1.355 . S
C2615 C2617 1.419 . S
C2616 C2614 1.415 . S
C2616 C2621 1.425 . S
C2616 C2623 1.409 . S
C2617 H2609 0.930 . S
C2617 C2615 1.419 . S
C2617 C2618 1.362 . S
C2618 H2610 0.930 . S
C2618 C2617 1.362 . S
C2618 C2621 1.409 . S
C2619 H2611 0.930 . S
C2619 C2620 1.355 . S
C2619 C2621 1.415 . S
C2620 C2619 1.355 . S
C2620 C2622 1.419 . S
C2621 C2616 1.425 . S
C2621 C2618 1.409 . S
C2621 C2619 1.415 . S
C2622 H2612 0.930 . S
C2622 C2620 1.419 . S
C2622 C2623 1.362 . S
C2623 H2613 0.930 . S
C2623 C2616 1.409 . S
C2623 C2622 1.362 . S
H2624 C2630 0.930 . S
H2625 C2633 0.930 . S
H2626 C2634 0.930 . S
H2627 C2635 0.930 . S
H2628 C2638 0.930 . S
H2629 C2639 0.930 . S
C2630 H2624 0.930 . S
C2630 C2631 1.355 . S
C2630 C2632 1.415 . S
C2631 C2630 1.355 . S
C2631 C2633 1.419 . S
C2632 C2630 1.415 . S
C2632 C2637 1.425 . S
C2632 C2639 1.409 . S
C2633 H2625 0.930 . S
C2633 C2631 1.419 . S
C2633 C2634 1.362 . S
C2634 H2626 0.930 . S
C2634 C2633 1.362 . S
C2634 C2637 1.409 . S
C2635 H2627 0.930 . S
C2635 C2636 1.355 . S
C2635 C2637 1.415 . S
C2636 C2635 1.355 . S
C2636 C2638 1.419 . S
C2637 C2632 1.425 . S
C2637 C2634 1.409 . S
C2637 C2635 1.415 . S
C2638 H2628 0.930 . S
C2638 C2636 1.419 . S
C2638 C2639 1.362 . S
C2639 H2629 0.930 . S
C2639 C2632 1.409 . S
C2639 C2638 1.362 . S
H2640 C2646 0.930 . S
H2641 C2649 0.930 1_565 S
H2642 C2650 0.930 . S
H2643 C2651 0.930 . S
H2644 C2654 0.930 . S
H2645 C2655 0.930 . S
C2646 H2640 0.930 . S
C2646 C2647 1.355 . S
C2646 C2648 1.415 . S
C2647 C2646 1.355 . S
C2647 C2649 1.419 . S
C2648 C2646 1.415 . S
C2648 C2653 1.425 . S
C2648 C2655 1.409 . S
C2649 H2641 0.930 1_545 S
C2649 C2647 1.419 . S
C2649 C2650 1.362 . S
C2650 H2642 0.930 . S
C2650 C2649 1.362 . S
C2650 C2653 1.409 . S
C2651 H2643 0.930 . S
C2651 C2652 1.355 . S
C2651 C2653 1.415 . S
C2652 C2651 1.355 . S
C2652 C2654 1.419 . S
C2653 C2648 1.425 . S
C2653 C2650 1.409 . S
C2653 C2651 1.415 . S
C2654 H2644 0.930 . S
C2654 C2652 1.419 . S
C2654 C2655 1.362 . S
C2655 H2645 0.930 . S
C2655 C2648 1.409 . S
C2655 C2654 1.362 . S
H2656 C2662 0.930 . S
H2657 C2665 0.930 . S
H2658 C2666 0.930 . S
H2659 C2667 0.930 . S
H2660 C2670 0.930 . S
H2661 C2671 0.930 . S
C2662 H2656 0.930 . S
C2662 C2663 1.355 . S
C2662 C2664 1.415 . S
C2663 C2662 1.355 . S
C2663 C2665 1.419 . S
C2664 C2662 1.415 . S
C2664 C2669 1.425 . S
C2664 C2671 1.409 . S
C2665 H2657 0.930 . S
C2665 C2663 1.419 . S
C2665 C2666 1.362 . S
C2666 H2658 0.930 . S
C2666 C2665 1.362 . S
C2666 C2669 1.409 . S
C2667 H2659 0.930 . S
C2667 C2668 1.355 . S
C2667 C2669 1.415 . S
C2668 C2667 1.355 . S
C2668 C2670 1.419 . S
C2669 C2664 1.425 . S
C2669 C2666 1.409 . S
C2669 C2667 1.415 . S
C2670 H2660 0.930 . S
C2670 C2668 1.419 . S
C2670 C2671 1.362 . S
C2671 H2661 0.930 . S
C2671 C2664 1.409 . S
C2671 C2670 1.362 . S
H2672 C2678 0.930 . S
H2673 C2681 0.930 . S
H2674 C2682 0.930 . S
H2675 C2683 0.930 . S
H2676 C2686 0.930 . S
H2677 C2687 0.930 . S
C2678 H2672 0.930 . S
C2678 C2679 1.355 . S
C2678 C2680 1.415 . S
C2679 C2678 1.355 . S
C2679 C2681 1.419 . S
C2680 C2678 1.415 . S
C2680 C2685 1.425 . S
C2680 C2687 1.409 . S
C2681 H2673 0.930 . S
C2681 C2679 1.419 . S
C2681 C2682 1.362 . S
C2682 H2674 0.930 . S
C2682 C2681 1.362 . S
C2682 C2685 1.409 . S
C2683 H2675 0.930 . S
C2683 C2684 1.355 . S
C2683 C2685 1.415 . S
C2684 C2683 1.355 . S
C2684 C2686 1.419 . S
C2685 C2680 1.425 . S
C2685 C2682 1.409 . S
C2685 C2683 1.415 . S
C2686 H2676 0.930 . S
C2686 C2684 1.419 . S
C2686 C2687 1.362 . S
C2687 H2677 0.930 . S
C2687 C2680 1.409 . S
C2687 C2686 1.362 . S
H2688 C2694 0.930 . S
H2689 C2697 0.930 . S
H2690 C2698 0.930 . S
H2691 C2699 0.930 . S
H2692 C2702 0.930 . S
H2693 C2703 0.930 . S
C2694 H2688 0.930 . S
C2694 C2695 1.355 . S
C2694 C2696 1.415 . S
C2695 C2694 1.355 . S
C2695 C2697 1.419 . S
C2696 C2694 1.415 . S
C2696 C2701 1.425 . S
C2696 C2703 1.409 . S
C2697 H2689 0.930 . S
C2697 C2695 1.419 . S
C2697 C2698 1.362 . S
C2698 H2690 0.930 . S
C2698 C2697 1.362 . S
C2698 C2701 1.409 . S
C2699 H2691 0.930 . S
C2699 C2700 1.355 . S
C2699 C2701 1.415 . S
C2700 C2699 1.355 . S
C2700 C2702 1.419 . S
C2701 C2696 1.425 . S
C2701 C2698 1.409 . S
C2701 C2699 1.415 . S
C2702 H2692 0.930 . S
C2702 C2700 1.419 . S
C2702 C2703 1.362 . S
C2703 H2693 0.930 . S
C2703 C2696 1.409 . S
C2703 C2702 1.362 . S
H2704 C2710 0.930 . S
H2705 C2713 0.930 . S
H2706 C2714 0.930 . S
H2707 C2715 0.930 . S
H2708 C2718 0.930 . S
H2709 C2719 0.930 . S
C2710 H2704 0.930 . S
C2710 C2711 1.355 . S
C2710 C2712 1.415 . S
C2711 C2710 1.355 . S
C2711 C2713 1.419 . S
C2712 C2710 1.415 . S
C2712 C2717 1.425 . S
C2712 C2719 1.409 . S
C2713 H2705 0.930 . S
C2713 C2711 1.419 . S
C2713 C2714 1.362 . S
C2714 H2706 0.930 . S
C2714 C2713 1.362 . S
C2714 C2717 1.409 . S
C2715 H2707 0.930 . S
C2715 C2716 1.355 . S
C2715 C2717 1.415 . S
C2716 C2715 1.355 . S
C2716 C2718 1.419 . S
C2717 C2712 1.425 . S
C2717 C2714 1.409 . S
C2717 C2715 1.415 . S
C2718 H2708 0.930 . S
C2718 C2716 1.419 . S
C2718 C2719 1.362 . S
C2719 H2709 0.930 . S
C2719 C2712 1.409 . S
C2719 C2718 1.362 . S
H2720 C2726 0.930 . S
H2721 C2729 0.930 . S
H2722 C2730 0.930 . S
H2723 C2731 0.930 . S
H2724 C2734 0.930 . S
H2725 C2735 0.930 . S
C2726 H2720 0.930 . S
C2726 C2727 1.355 . S
C2726 C2728 1.415 . S
C2727 C2726 1.355 . S
C2727 C2729 1.419 . S
C2728 C2726 1.415 . S
C2728 C2733 1.425 . S
C2728 C2735 1.409 . S
C2729 H2721 0.930 . S
C2729 C2727 1.419 . S
C2729 C2730 1.362 . S
C2730 H2722 0.930 . S
C2730 C2729 1.362 . S
C2730 C2733 1.409 . S
C2731 H2723 0.930 . S
C2731 C2732 1.355 . S
C2731 C2733 1.415 . S
C2732 C2731 1.355 . S
C2732 C2734 1.419 . S
C2733 C2728 1.425 . S
C2733 C2730 1.409 . S
C2733 C2731 1.415 . S
C2734 H2724 0.930 . S
C2734 C2732 1.419 . S
C2734 C2735 1.362 . S
C2735 H2725 0.930 . S
C2735 C2728 1.409 . S
C2735 C2734 1.362 . S
H2736 C2742 0.930 . S
H2737 C2745 0.930 . S
H2738 C2746 0.930 . S
H2739 C2747 0.930 . S
H2740 C2750 0.930 . S
H2741 C2751 0.930 . S
C2742 H2736 0.930 . S
C2742 C2743 1.355 . S
C2742 C2744 1.415 . S
C2743 C2742 1.355 . S
C2743 C2745 1.419 . S
C2744 C2742 1.415 . S
C2744 C2749 1.425 . S
C2744 C2751 1.409 . S
C2745 H2737 0.930 . S
C2745 C2743 1.419 . S
C2745 C2746 1.362 . S
C2746 H2738 0.930 . S
C2746 C2745 1.362 . S
C2746 C2749 1.409 . S
C2747 H2739 0.930 . S
C2747 C2748 1.355 . S
C2747 C2749 1.415 . S
C2748 C2747 1.355 . S
C2748 C2750 1.419 . S
C2749 C2744 1.425 . S
C2749 C2746 1.409 . S
C2749 C2747 1.415 . S
C2750 H2740 0.930 . S
C2750 C2748 1.419 . S
C2750 C2751 1.362 . S
C2751 H2741 0.930 . S
C2751 C2744 1.409 . S
C2751 C2750 1.362 . S
H2752 C2758 0.930 . S
H2753 C2761 0.930 . S
H2754 C2762 0.930 . S
H2755 C2763 0.930 . S
H2756 C2766 0.930 . S
H2757 C2767 0.930 . S
C2758 H2752 0.930 . S
C2758 C2759 1.355 . S
C2758 C2760 1.415 . S
C2759 C2758 1.355 . S
C2759 C2761 1.419 . S
C2760 C2758 1.415 . S
C2760 C2765 1.425 . S
C2760 C2767 1.409 . S
C2761 H2753 0.930 . S
C2761 C2759 1.419 . S
C2761 C2762 1.362 . S
C2762 H2754 0.930 . S
C2762 C2761 1.362 . S
C2762 C2765 1.409 . S
C2763 H2755 0.930 . S
C2763 C2764 1.355 . S
C2763 C2765 1.415 . S
C2764 C2763 1.355 . S
C2764 C2766 1.419 . S
C2765 C2760 1.425 . S
C2765 C2762 1.409 . S
C2765 C2763 1.415 . S
C2766 H2756 0.930 . S
C2766 C2764 1.419 . S
C2766 C2767 1.362 . S
C2767 H2757 0.930 . S
C2767 C2760 1.409 . S
C2767 C2766 1.362 . S
H2768 C2774 0.930 . S
H2769 C2777 0.930 . S
H2770 C2778 0.930 . S
H2771 C2779 0.930 . S
H2772 C2782 0.930 . S
H2773 C2783 0.930 . S
C2774 H2768 0.930 . S
C2774 C2775 1.355 . S
C2774 C2776 1.415 . S
C2775 C2774 1.355 . S
C2775 C2777 1.419 . S
C2776 C2774 1.415 . S
C2776 C2781 1.425 . S
C2776 C2783 1.409 . S
C2777 H2769 0.930 . S
C2777 C2775 1.419 . S
C2777 C2778 1.362 . S
C2778 H2770 0.930 . S
C2778 C2777 1.362 . S
C2778 C2781 1.409 . S
C2779 H2771 0.930 . S
C2779 C2780 1.355 . S
C2779 C2781 1.415 . S
C2780 C2779 1.355 . S
C2780 C2782 1.419 . S
C2781 C2776 1.425 . S
C2781 C2778 1.409 . S
C2781 C2779 1.415 . S
C2782 H2772 0.930 . S
C2782 C2780 1.419 . S
C2782 C2783 1.362 . S
C2783 H2773 0.930 . S
C2783 C2776 1.409 . S
C2783 C2782 1.362 . S
H2784 C2790 0.930 . S
H2785 C2793 0.930 1_655 S
H2786 C2794 0.930 . S
H2787 C2795 0.930 . S
H2788 C2798 0.930 . S
H2789 C2799 0.930 . S
C2790 H2784 0.930 . S
C2790 C2791 1.355 . S
C2790 C2792 1.415 . S
C2791 C2790 1.355 . S
C2791 C2793 1.419 . S
C2792 C2790 1.415 . S
C2792 C2797 1.425 . S
C2792 C2799 1.409 . S
C2793 H2785 0.930 1_455 S
C2793 C2791 1.419 . S
C2793 C2794 1.362 . S
C2794 H2786 0.930 . S
C2794 C2793 1.362 . S
C2794 C2797 1.409 . S
C2795 H2787 0.930 . S
C2795 C2796 1.355 . S
C2795 C2797 1.415 . S
C2796 C2795 1.355 . S
C2796 C2798 1.419 . S
C2797 C2792 1.425 . S
C2797 C2794 1.409 . S
C2797 C2795 1.415 . S
C2798 H2788 0.930 . S
C2798 C2796 1.419 . S
C2798 C2799 1.362 . S
C2799 H2789 0.930 . S
C2799 C2792 1.409 . S
C2799 C2798 1.362 . S
H2800 C2806 0.930 . S
H2801 C2809 0.930 . S
H2802 C2810 0.930 . S
H2803 C2811 0.930 . S
H2804 C2814 0.930 . S
H2805 C2815 0.930 . S
C2806 H2800 0.930 . S
C2806 C2807 1.355 . S
C2806 C2808 1.415 . S
C2807 C2806 1.355 . S
C2807 C2809 1.419 . S
C2808 C2806 1.415 . S
C2808 C2813 1.425 . S
C2808 C2815 1.409 . S
C2809 H2801 0.930 . S
C2809 C2807 1.419 . S
C2809 C2810 1.362 . S
C2810 H2802 0.930 . S
C2810 C2809 1.362 . S
C2810 C2813 1.409 . S
C2811 H2803 0.930 . S
C2811 C2812 1.355 . S
C2811 C2813 1.415 . S
C2812 C2811 1.355 . S
C2812 C2814 1.419 . S
C2813 C2808 1.425 . S
C2813 C2810 1.409 . S
C2813 C2811 1.415 . S
C2814 H2804 0.930 . S
C2814 C2812 1.419 . S
C2814 C2815 1.362 . S
C2815 H2805 0.930 . S
C2815 C2808 1.409 . S
C2815 C2814 1.362 . S
H2816 C2822 0.930 . S
H2817 C2825 0.930 . S
H2818 C2826 0.930 . S
H2819 C2827 0.930 . S
H2820 C2830 0.930 . S
H2821 C2831 0.930 . S
C2822 H2816 0.930 . S
C2822 C2823 1.355 . S
C2822 C2824 1.415 . S
C2823 C2822 1.355 . S
C2823 C2825 1.419 . S
C2824 C2822 1.415 . S
C2824 C2829 1.425 . S
C2824 C2831 1.409 . S
C2825 H2817 0.930 . S
C2825 C2823 1.419 . S
C2825 C2826 1.362 . S
C2826 H2818 0.930 . S
C2826 C2825 1.362 . S
C2826 C2829 1.409 . S
C2827 H2819 0.930 . S
C2827 C2828 1.355 . S
C2827 C2829 1.415 . S
C2828 C2827 1.355 . S
C2828 C2830 1.419 . S
C2829 C2824 1.425 . S
C2829 C2826 1.409 . S
C2829 C2827 1.415 . S
C2830 H2820 0.930 . S
C2830 C2828 1.419 . S
C2830 C2831 1.362 . S
C2831 H2821 0.930 . S
C2831 C2824 1.409 . S
C2831 C2830 1.362 . S
H2832 C2838 0.930 . S
H2833 C2841 0.930 . S
H2834 C2842 0.930 . S
H2835 C2843 0.930 . S
H2836 C2846 0.930 . S
H2837 C2847 0.930 . S
C2838 H2832 0.930 . S
C2838 C2839 1.355 . S
C2838 C2840 1.415 . S
C2839 C2838 1.355 . S
C2839 C2841 1.419 . S
C2840 C2838 1.415 . S
C2840 C2845 1.425 . S
C2840 C2847 1.409 . S
C2841 H2833 0.930 . S
C2841 C2839 1.419 . S
C2841 C2842 1.362 . S
C2842 H2834 0.930 . S
C2842 C2841 1.362 . S
C2842 C2845 1.409 . S
C2843 H2835 0.930 . S
C2843 C2844 1.355 . S
C2843 C2845 1.415 . S
C2844 C2843 1.355 . S
C2844 C2846 1.419 . S
C2845 C2840 1.425 . S
C2845 C2842 1.409 . S
C2845 C2843 1.415 . S
C2846 H2836 0.930 . S
C2846 C2844 1.419 . S
C2846 C2847 1.362 . S
C2847 H2837 0.930 . S
C2847 C2840 1.409 . S
C2847 C2846 1.362 . S
H2848 C2854 0.930 . S
H2849 C2857 0.930 . S
H2850 C2858 0.930 . S
H2851 C2859 0.930 . S
H2852 C2862 0.930 . S
H2853 C2863 0.930 . S
C2854 H2848 0.930 . S
C2854 C2855 1.355 . S
C2854 C2856 1.415 . S
C2855 C2854 1.355 . S
C2855 C2857 1.419 . S
C2856 C2854 1.415 . S
C2856 C2861 1.425 . S
C2856 C2863 1.409 . S
C2857 H2849 0.930 . S
C2857 C2855 1.419 . S
C2857 C2858 1.362 . S
C2858 H2850 0.930 . S
C2858 C2857 1.362 . S
C2858 C2861 1.409 . S
C2859 H2851 0.930 . S
C2859 C2860 1.355 . S
C2859 C2861 1.415 . S
C2860 C2859 1.355 . S
C2860 C2862 1.419 . S
C2861 C2856 1.425 . S
C2861 C2858 1.409 . S
C2861 C2859 1.415 . S
C2862 H2852 0.930 . S
C2862 C2860 1.419 . S
C2862 C2863 1.362 . S
C2863 H2853 0.930 . S
C2863 C2856 1.409 . S
C2863 C2862 1.362 . S
H2864 C2870 0.930 . S
H2865 C2873 0.930 . S
H2866 C2874 0.930 . S
H2867 C2875 0.930 . S
H2868 C2878 0.930 1_455 S
H2869 C2879 0.930 . S
C2870 H2864 0.930 . S
C2870 C2871 1.355 . S
C2870 C2872 1.415 . S
C2871 C2870 1.355 . S
C2871 C2873 1.419 . S
C2872 C2870 1.415 . S
C2872 C2877 1.425 . S
C2872 C2879 1.409 . S
C2873 H2865 0.930 . S
C2873 C2871 1.419 . S
C2873 C2874 1.362 . S
C2874 H2866 0.930 . S
C2874 C2873 1.362 . S
C2874 C2877 1.409 . S
C2875 H2867 0.930 . S
C2875 C2876 1.355 . S
C2875 C2877 1.415 . S
C2876 C2875 1.355 . S
C2876 C2878 1.419 . S
C2877 C2872 1.425 . S
C2877 C2874 1.409 . S
C2877 C2875 1.415 . S
C2878 H2868 0.930 1_655 S
C2878 C2876 1.419 . S
C2878 C2879 1.362 . S
C2879 H2869 0.930 . S
C2879 C2872 1.409 . S
C2879 C2878 1.362 . S
C2119 C849 1.362 . S
C2124 C57 1.361 . S
C2135 C117 1.529 1_455 S
C2140 C900 1.504 . S
C2151 C225 1.476 . S
C2156 C988 1.477 . S
C2167 C293 1.625 . S
C2172 C753 1.609 . S
C2183 C381 1.448 . S
C2188 C1349 1.444 . S
C2199 C1085 1.575 . S
C2204 C497 1.590 1_655 S
C2215 C548 1.443 . S
C2220 C1193 1.439 . S
C2231 C1281 1.602 . S
C2236 C665 1.617 . S
C2247 C1465 1.547 . S
C2252 C1604 1.529 . S
C2263 C1985 1.577 1_545 S
C2268 C1516 1.604 . S
C2279 C1692 1.557 . S
C2284 C2073 1.528 1_565 S
C2295 C1897 1.572 . S
C2300 C1780 1.557 . S
C2311 C1817 1.640 . S
C2316 C20 1.633 . S
C2327 C108 1.666 . S
C2332 C1525 1.643 . S
C2343 C205 1.635 . S
C2348 C1641 1.655 . S
C2359 C284 1.665 . S
C2364 C1701 1.646 . S
C2375 C401 1.654 . S
C2380 C2053 1.626 . S
C2391 C1905 1.658 . S
C2396 C489 1.632 . S
C2407 C1965 1.641 . S
C2412 C585 1.632 . S
C2423 C1457 1.658 . S
C2428 C673 1.631 . S
C2439 C1369 1.625 . S
C2444 C733 1.656 . S
C2455 C812 1.642 . S
C2460 C1105 1.631 . S
C2471 C1173 1.633 . S
C2476 C937 1.656 . S
C2487 C1261 1.655 . S
C2492 C1025 1.625 . S
C2503 C49 1.055 . S
C2508 C1428 1.101 . S
C2519 C2044 1.203 . S
C2524 C145 1.032 . S
C2535 C1877 1.100 . S
C2540 C233 0.896 . S
C2551 C321 1.133 . S
C2556 C1956 1.208 . S
C2567 C372 1.046 . S
C2572 C1553 1.103 . S
C2583 C1633 1.193 . S
C2588 C469 0.976 . S
C2599 C1729 1.097 . S
C2604 C557 0.977 . S
C2615 C1809 1.207 . S
C2620 C636 1.074 . S
C2631 C29 1.175 . S
C2636 C761 1.108 . S
C2647 C137 1.096 . S
C2652 C841 0.956 . S
C2663 C196 1.163 . S
C2668 C909 0.965 . S
C2679 C313 1.102 . S
C2684 C997 1.059 . S
C2695 C409 1.173 . S
C2700 C1076 0.986 . S
C2711 C460 1.099 . S
C2716 C1201 0.907 . S
C2727 C1289 0.937 . S
C2732 C577 1.166 . S
C2743 C645 1.101 . S
C2748 C1340 1.066 . S
C2759 C724 1.208 . S
C2764 C1437 1.101 . S
C2775 C1545 1.048 . S
C2780 C1113 1.196 . S
C2791 C1164 1.163 . S
C2796 C1613 0.954 . S
C2807 C1721 1.130 . S
C2812 C1252 1.209 . S
C2823 C1789 0.959 . S
C2828 C1377 1.163 . S
C2839 C1868 1.130 . S
C2844 C929 1.209 . S
C2855 C1017 1.167 . S
C2860 C1993 0.940 . S
C2871 C2081 0.935 . S
C2876 C821 1.164 . S
