# Generated by pormake.
# Topology fny, (5)-cn, num edge types: 1
# Building blocks:
#     Node 0, Type 0, BuildingBlock: XOMCOT_clean_sbu_1, # of connection points: 5
#     Node 1, Type 0, BuildingBlock: XOMCOT_clean_sbu_1, # of connection points: 5
#     Node 2, Type 0, BuildingBlock: XOMCOT_clean_sbu_1, # of connection points: 5
#     Node 3, Type 0, BuildingBlock: XOMCOT_clean_sbu_1, # of connection points: 5
#     Node 4, Type 0, BuildingBlock: XOMCOT_clean_sbu_1, # of connection points: 5
#     Node 5, Type 0, BuildingBlock: XOMCOT_clean_sbu_1, # of connection points: 5
#     Node 6, Type 0, BuildingBlock: XOMCOT_clean_sbu_1, # of connection points: 5
#     Node 7, Type 0, BuildingBlock: XOMCOT_clean_sbu_1, # of connection points: 5
#     Node 8, Type 0, BuildingBlock: XOMCOT_clean_sbu_1, # of connection points: 5
#     Node 9, Type 0, BuildingBlock: XOMCOT_clean_sbu_1, # of connection points: 5
#     Node 10, Type 0, BuildingBlock: XOMCOT_clean_sbu_1, # of connection points: 5
#     Node 11, Type 0, BuildingBlock: XOMCOT_clean_sbu_1, # of connection points: 5
#     Edge 12, Type (0, 0), BuildingBlock: CIFDUS_clean_linker_0, # of connection points: 2
#     Edge 13, Type (0, 0), BuildingBlock: CIFDUS_clean_linker_0, # of connection points: 2
#     Edge 14, Type (0, 0), BuildingBlock: CIFDUS_clean_linker_0, # of connection points: 2
#     Edge 15, Type (0, 0), BuildingBlock: CIFDUS_clean_linker_0, # of connection points: 2
#     Edge 16, Type (0, 0), BuildingBlock: CIFDUS_clean_linker_0, # of connection points: 2
#     Edge 17, Type (0, 0), BuildingBlock: CIFDUS_clean_linker_0, # of connection points: 2
#     Edge 18, Type (0, 0), BuildingBlock: CIFDUS_clean_linker_0, # of connection points: 2
#     Edge 19, Type (0, 0), BuildingBlock: CIFDUS_clean_linker_0, # of connection points: 2
#     Edge 20, Type (0, 0), BuildingBlock: CIFDUS_clean_linker_0, # of connection points: 2
#     Edge 21, Type (0, 0), BuildingBlock: CIFDUS_clean_linker_0, # of connection points: 2
#     Edge 22, Type (0, 0), BuildingBlock: CIFDUS_clean_linker_0, # of connection points: 2
#     Edge 23, Type (0, 0), BuildingBlock: CIFDUS_clean_linker_0, # of connection points: 2
#     Edge 24, Type (0, 0), BuildingBlock: CIFDUS_clean_linker_0, # of connection points: 2
#     Edge 25, Type (0, 0), BuildingBlock: CIFDUS_clean_linker_0, # of connection points: 2
#     Edge 26, Type (0, 0), BuildingBlock: CIFDUS_clean_linker_0, # of connection points: 2
#     Edge 27, Type (0, 0), BuildingBlock: CIFDUS_clean_linker_0, # of connection points: 2
#     Edge 28, Type (0, 0), BuildingBlock: CIFDUS_clean_linker_0, # of connection points: 2
#     Edge 29, Type (0, 0), BuildingBlock: CIFDUS_clean_linker_0, # of connection points: 2
#     Edge 30, Type (0, 0), BuildingBlock: CIFDUS_clean_linker_0, # of connection points: 2
#     Edge 31, Type (0, 0), BuildingBlock: CIFDUS_clean_linker_0, # of connection points: 2
#     Edge 32, Type (0, 0), BuildingBlock: CIFDUS_clean_linker_0, # of connection points: 2
#     Edge 33, Type (0, 0), BuildingBlock: CIFDUS_clean_linker_0, # of connection points: 2
#     Edge 34, Type (0, 0), BuildingBlock: CIFDUS_clean_linker_0, # of connection points: 2
#     Edge 35, Type (0, 0), BuildingBlock: CIFDUS_clean_linker_0, # of connection points: 2
#     Edge 36, Type (0, 0), BuildingBlock: CIFDUS_clean_linker_0, # of connection points: 2
#     Edge 37, Type (0, 0), BuildingBlock: CIFDUS_clean_linker_0, # of connection points: 2
#     Edge 38, Type (0, 0), BuildingBlock: CIFDUS_clean_linker_0, # of connection points: 2
#     Edge 39, Type (0, 0), BuildingBlock: CIFDUS_clean_linker_0, # of connection points: 2
#     Edge 40, Type (0, 0), BuildingBlock: CIFDUS_clean_linker_0, # of connection points: 2
#     Edge 41, Type (0, 0), BuildingBlock: CIFDUS_clean_linker_0, # of connection points: 2
# Relax obj value: 0.276
# Max RMSD: 0.208
# Mean RMSD: 0.208
data_MOF--net-fny--node1-XOMCOT_clean_sbu_1--edge1-CIFDUS_clean_linker_0
_symmetry_space_group_name_H-M    P1
_symmetry_Int_Tables_number       1
_symmetry_cell_setting            triclinic
loop_
_symmetry_equiv_pos_as_xyz
'x, y, z'
_cell_length_a     54.937408
_cell_length_b     54.908035
_cell_length_c     21.377506
_cell_angle_alpha  89.918827
_cell_angle_beta   90.15003
_cell_angle_gamma 120.05397
loop_
_atom_site_label
_atom_site_type_symbol
_atom_site_fract_x
_atom_site_fract_y
_atom_site_fract_z
_atom_type_partial_charge
C0 C 0.32177 0.47754 0.26289 0.0
C1 C 0.29875 0.4603 0.22615 0.0
N2 N 0.28792 0.47581 0.20385 0.0
N3 N 0.32571 0.50387 0.26157 0.0
C4 C 0.30442 0.50187 0.22652 0.0
H5 H 0.33609 0.47177 0.28391 0.0
Co6 Co 0.35641 0.53863 0.2812 0.0
C7 C 0.3638 0.57462 0.16684 0.0
O8 O 0.36494 0.59491 0.20147 0.0
N9 N 0.38722 0.57412 0.29705 0.0
C10 C 0.42543 0.61578 0.28044 0.0
C11 C 0.4112 0.58785 0.26342 0.0
C12 C 0.3877 0.59395 0.33444 0.0
N13 N 0.41029 0.61963 0.32474 0.0
O14 O 0.32984 0.55051 0.31387 0.0
H15 H 0.4173 0.57856 0.22653 0.0
H16 H 0.37209 0.58963 0.3696 0.0
O17 O 0.35789 0.55113 0.19259 0.0
C18 C 0.32558 0.54348 0.37233 0.0
O19 O 0.3393 0.5318 0.39643 0.0
N20 N 0.38087 0.52498 0.26209 0.0
C21 C 0.41101 0.4961 0.25759 0.0
C22 C 0.40178 0.50316 0.20228 0.0
C23 C 0.38643 0.51734 0.20552 0.0
C24 C 0.39053 0.51938 0.31578 0.0
C25 C 0.40534 0.50487 0.31474 0.0
H26 H 0.37828 0.5212 0.16296 0.0
H27 H 0.38543 0.52505 0.36027 0.0
H28 H 0.30292 0.51997 0.21186 0.0
H29 H 0.29186 0.43877 0.21298 0.0
H30 H 0.4455 0.63181 0.26226 0.0
H31 H 0.40586 0.49737 0.15679 0.0
H32 H 0.4111 0.49956 0.35898 0.0
C33 C 0.83478 0.28565 0.78183 0.0
C34 C 0.81976 0.26277 0.7435 0.0
N35 N 0.80399 0.26872 0.70527 0.0
N36 N 0.82894 0.30606 0.76632 0.0
C37 C 0.80968 0.29483 0.72031 0.0
H38 H 0.84979 0.28758 0.81697 0.0
Co39 Co 0.84677 0.34259 0.79616 0.0
C40 C 0.82305 0.36895 0.70288 0.0
O41 O 0.81227 0.37737 0.74682 0.0
N42 N 0.86567 0.37881 0.82603 0.0
C43 C 0.90011 0.42339 0.83046 0.0
C44 C 0.87833 0.40355 0.79476 0.0
C45 C 0.87997 0.38415 0.87994 0.0
N46 N 0.90144 0.41083 0.88343 0.0
O47 O 0.81242 0.33378 0.84528 0.0
H48 H 0.87424 0.40656 0.74679 0.0
H49 H 0.87565 0.36815 0.9146 0.0
O50 O 0.83572 0.35548 0.71842 0.0
C51 C 0.81348 0.32213 0.89698 0.0
O52 O 0.83484 0.318 0.90509 0.0
N53 N 0.88098 0.34984 0.75981 0.0
C54 C 0.93932 0.37418 0.74952 0.0
C55 C 0.92371 0.37823 0.70242 0.0
C56 C 0.89435 0.36588 0.70855 0.0
C57 C 0.89562 0.34389 0.80278 0.0
C58 C 0.92464 0.35569 0.79849 0.0
H59 H 0.88304 0.3713 0.67517 0.0
H60 H 0.88515 0.33222 0.84445 0.0
H61 H 0.80112 0.30603 0.69544 0.0
H62 H 0.82103 0.24373 0.74217 0.0
H63 H 0.91443 0.44502 0.81745 0.0
H64 H 0.93426 0.39239 0.66377 0.0
H65 H 0.93569 0.35162 0.83537 0.0
C66 C 0.5494 0.81205 0.26927 0.0
C67 C 0.56114 0.80105 0.22951 0.0
N68 N 0.55202 0.80155 0.17147 0.0
N69 N 0.5329 0.81925 0.23633 0.0
C70 C 0.5347 0.8121 0.17689 0.0
H71 H 0.55282 0.81489 0.31922 0.0
Co72 Co 0.51382 0.83519 0.2753 0.0
C73 C 0.48573 0.83037 0.14693 0.0
O74 O 0.51043 0.84754 0.12243 0.0
N75 N 0.49581 0.85083 0.31624 0.0
C76 C 0.4668 0.865 0.34836 0.0
C77 C 0.46895 0.845 0.31409 0.0
C78 C 0.50943 0.87388 0.35228 0.0
N79 N 0.49245 0.88333 0.37185 0.0
O80 O 0.49248 0.79955 0.325 0.0
H81 H 0.45209 0.82736 0.28977 0.0
H82 H 0.5316 0.88362 0.36327 0.0
O83 O 0.4842 0.8228 0.20492 0.0
C84 C 0.49718 0.80104 0.38463 0.0
O85 O 0.51244 0.82601 0.4099 0.0
N86 N 0.53738 0.871 0.23649 0.0
C87 C 0.5731 0.92954 0.23041 0.0
C88 C 0.54467 0.91725 0.2138 0.0
C89 C 0.5272 0.88802 0.21693 0.0
C90 C 0.56545 0.8826 0.24886 0.0
C91 C 0.5837 0.91173 0.24535 0.0
H92 H 0.50489 0.87948 0.21001 0.0
H93 H 0.5735 0.86973 0.26747 0.0
H94 H 0.52308 0.81342 0.13796 0.0
H95 H 0.5755 0.79371 0.24191 0.0
H96 H 0.4475 0.86508 0.35798 0.0
H97 H 0.53563 0.93022 0.20175 0.0
H98 H 0.60547 0.92034 0.25915 0.0
C99 C 0.73027 0.53581 0.79121 0.0
C100 C 0.75383 0.55172 0.75525 0.0
N101 N 0.75217 0.53622 0.70536 0.0
N102 N 0.71322 0.51112 0.76197 0.0
C103 C 0.72806 0.51165 0.71136 0.0
H104 H 0.72598 0.54204 0.83585 0.0
Co105 Co 0.67787 0.48263 0.7891 0.0
C106 C 0.66896 0.46731 0.64897 0.0
O107 O 0.67821 0.49382 0.63471 0.0
N108 N 0.64338 0.45457 0.8169 0.0
C109 C 0.60043 0.41739 0.81592 0.0
C110 C 0.628 0.42752 0.79866 0.0
C111 C 0.62535 0.45995 0.8476 0.0
N112 N 0.59872 0.43822 0.84537 0.0
O113 O 0.6972 0.46436 0.83137 0.0
H114 H 0.63598 0.41634 0.77198 0.0
H115 H 0.63182 0.48021 0.86835 0.0
O116 O 0.66985 0.46064 0.70673 0.0
C117 C 0.69919 0.46802 0.89135 0.0
O118 O 0.6859 0.47985 0.91669 0.0
N119 N 0.65957 0.50261 0.75816 0.0
C120 C 0.62642 0.52854 0.74739 0.0
C121 C 0.61923 0.50351 0.71517 0.0
C122 C 0.63574 0.49071 0.72186 0.0
C123 C 0.66675 0.527 0.78945 0.0
C124 C 0.6509 0.54043 0.78401 0.0
H125 H 0.62776 0.46998 0.70222 0.0
H126 H 0.68338 0.53504 0.82348 0.0
H127 H 0.72161 0.49456 0.67864 0.0
H128 H 0.77043 0.57309 0.76411 0.0
H129 H 0.5831 0.3965 0.80643 0.0
H130 H 0.60003 0.49289 0.68798 0.0
H131 H 0.65736 0.55957 0.81026 0.0
C132 C 0.21082 0.72814 0.28311 0.0
C133 C 0.22361 0.75043 0.24254 0.0
N134 N 0.23379 0.74257 0.19425 0.0
N135 N 0.2119 0.70593 0.25945 0.0
C136 C 0.22742 0.71599 0.20717 0.0
H137 H 0.2015 0.72823 0.32752 0.0
Co138 Co 0.19731 0.67141 0.29955 0.0
C139 C 0.20342 0.65103 0.16948 0.0
O140 O 0.18945 0.66223 0.14429 0.0
N141 N 0.18298 0.63811 0.34154 0.0
C142 C 0.16969 0.59502 0.37362 0.0
C143 C 0.18923 0.61738 0.33892 0.0
C144 C 0.16015 0.6283 0.3782 0.0
N145 N 0.1512 0.60189 0.39774 0.0
O146 O 0.23384 0.68677 0.34507 0.0
H147 H 0.20675 0.61844 0.31367 0.0
H148 H 0.15011 0.64039 0.38943 0.0
O149 O 0.20895 0.65425 0.22874 0.0
C150 C 0.23345 0.69308 0.40307 0.0
O151 O 0.20897 0.68569 0.42847 0.0
N152 N 0.16056 0.6579 0.26337 0.0
C153 C 0.10158 0.63307 0.25425 0.0
C154 C 0.11529 0.61884 0.233 0.0
C155 C 0.14471 0.63153 0.23812 0.0
C156 C 0.14743 0.67215 0.28242 0.0
C157 C 0.11831 0.66042 0.27749 0.0
H158 H 0.15422 0.61895 0.22732 0.0
H159 H 0.15884 0.69154 0.30775 0.0
H160 H 0.23505 0.70466 0.18023 0.0
H161 H 0.22483 0.7706 0.24794 0.0
H162 H 0.16996 0.57576 0.38268 0.0
H163 H 0.10333 0.59759 0.21506 0.0
H164 H 0.10885 0.672 0.29645 0.0
C165 C 0.48685 0.19684 0.72594 0.0
C166 C 0.4752 0.20139 0.67355 0.0
N167 N 0.49593 0.21595 0.63196 0.0
N168 N 0.51473 0.20821 0.71734 0.0
C169 C 0.51972 0.22005 0.66019 0.0
H170 H 0.47557 0.18571 0.76743 0.0
Co171 Co 0.53891 0.20534 0.77275 0.0
C172 C 0.59026 0.22935 0.67878 0.0
O173 O 0.60773 0.25305 0.70692 0.0
N174 N 0.56136 0.20223 0.82912 0.0
C175 C 0.59512 0.21029 0.89647 0.0
C176 C 0.58898 0.21084 0.83411 0.0
C177 C 0.55109 0.19603 0.88719 0.0
N178 N 0.5711 0.20106 0.92896 0.0
O179 O 0.5558 0.24554 0.79819 0.0
H180 H 0.60402 0.21898 0.79646 0.0
H181 H 0.52989 0.19073 0.89931 0.0
O182 O 0.5661 0.21288 0.70315 0.0
C183 C 0.54153 0.25007 0.83973 0.0
O184 O 0.51583 0.22976 0.85144 0.0
N185 N 0.52116 0.16583 0.75766 0.0
C186 C 0.49517 0.10667 0.76206 0.0
C187 C 0.51771 0.12266 0.72112 0.0
C188 C 0.53055 0.15216 0.71992 0.0
C189 C 0.49897 0.15061 0.79663 0.0
C190 C 0.48573 0.12125 0.79954 0.0
H191 H 0.54857 0.16372 0.69015 0.0
H192 H 0.49218 0.16144 0.82802 0.0
H193 H 0.54047 0.23169 0.64004 0.0
H194 H 0.45309 0.19409 0.66668 0.0
H195 H 0.61569 0.21742 0.91669 0.0
H196 H 0.52573 0.11255 0.69073 0.0
H197 H 0.46893 0.11024 0.83299 0.0
C198 C 0.5493 0.71524 0.77003 0.0
C199 C 0.56528 0.73284 0.81784 0.0
N200 N 0.55273 0.72093 0.87239 0.0
N201 N 0.52659 0.69274 0.79463 0.0
C202 C 0.52948 0.69663 0.85703 0.0
H203 H 0.55335 0.71912 0.72051 0.0
Co204 Co 0.49698 0.66451 0.75088 0.0
C205 C 0.45177 0.6304 0.84521 0.0
O206 O 0.44693 0.60809 0.81284 0.0
N207 N 0.4668 0.63619 0.70652 0.0
C208 C 0.44008 0.60333 0.63827 0.0
C209 C 0.4636 0.61344 0.67537 0.0
C210 C 0.44407 0.6381 0.69051 0.0
N211 N 0.42859 0.61986 0.64548 0.0
O212 O 0.48791 0.69301 0.71535 0.0
H213 H 0.47856 0.60619 0.67421 0.0
H214 H 0.44109 0.65537 0.70427 0.0
O215 O 0.47118 0.6549 0.8265 0.0
C216 C 0.49673 0.69915 0.65836 0.0
O217 O 0.51014 0.687 0.63528 0.0
N218 N 0.50992 0.63962 0.77469 0.0
C219 C 0.53826 0.60901 0.78611 0.0
C220 C 0.52207 0.6103 0.83582 0.0
C221 C 0.50843 0.62615 0.8296 0.0
C222 C 0.52663 0.63969 0.72758 0.0
C223 C 0.54059 0.6244 0.73186 0.0
H224 H 0.49744 0.628 0.86939 0.0
H225 H 0.52902 0.65179 0.68573 0.0
H226 H 0.51406 0.68279 0.89069 0.0
H227 H 0.584 0.75327 0.81288 0.0
H228 H 0.43496 0.58834 0.60061 0.0
H229 H 0.52004 0.59932 0.8793 0.0
H230 H 0.55367 0.62527 0.69315 0.0
C231 C 0.81904 0.52594 0.28933 0.0
C232 C 0.8145 0.53981 0.33758 0.0
N233 N 0.81983 0.53092 0.3921 0.0
N234 N 0.82689 0.50828 0.3136 0.0
C235 C 0.82735 0.51189 0.37592 0.0
H236 H 0.81711 0.52876 0.23985 0.0
Co237 Co 0.83792 0.48633 0.27136 0.0
C238 C 0.83164 0.44052 0.36563 0.0
O239 O 0.84961 0.4365 0.3333 0.0
N240 N 0.84942 0.46476 0.22787 0.0
C241 C 0.85159 0.43077 0.17676 0.0
C242 C 0.83443 0.43751 0.21038 0.0
C243 C 0.87506 0.47422 0.20281 0.0
N244 N 0.87713 0.45404 0.17257 0.0
O245 O 0.80064 0.46679 0.22652 0.0
H246 H 0.81242 0.42362 0.22077 0.0
H247 H 0.89175 0.49582 0.20335 0.0
O248 O 0.82492 0.45867 0.34574 0.0
C249 C 0.80237 0.47359 0.16801 0.0
O250 O 0.82755 0.49031 0.14506 0.0
N251 N 0.87492 0.50882 0.30503 0.0
C252 C 0.93393 0.54104 0.31126 0.0
C253 C 0.91857 0.5186 0.35308 0.0
C254 C 0.88908 0.50282 0.34944 0.0
C255 C 0.8891 0.53276 0.27021 0.0
C256 C 0.91849 0.54882 0.27166 0.0
H257 H 0.87824 0.48542 0.38091 0.0
H258 H 0.87772 0.53766 0.23578 0.0
H259 H 0.83302 0.5006 0.40882 0.0
H260 H 0.80797 0.55532 0.33265 0.0
H261 H 0.8453 0.41097 0.15352 0.0
H262 H 0.92921 0.51259 0.38712 0.0
H263 H 0.92885 0.56586 0.23845 0.0
C264 C 0.31113 0.83884 0.79457 0.0
C265 C 0.28943 0.82381 0.83531 0.0
N266 N 0.29332 0.80371 0.86097 0.0
N267 N 0.3293 0.82899 0.79665 0.0
C268 C 0.31707 0.80676 0.83576 0.0
H269 H 0.31318 0.85601 0.76639 0.0
Co270 Co 0.3633 0.84171 0.75487 0.0
C271 C 0.37999 0.83199 0.88714 0.0
O272 O 0.36547 0.84217 0.91397 0.0
N273 N 0.39648 0.85418 0.71303 0.0
C274 C 0.43887 0.8638 0.68341 0.0
C275 C 0.41544 0.84556 0.71702 0.0
C276 C 0.40841 0.87713 0.6763 0.0
N277 N 0.43447 0.88389 0.65839 0.0
O278 O 0.3466 0.80427 0.71252 0.0
H279 H 0.4124 0.8272 0.74234 0.0
H280 H 0.39805 0.88866 0.66298 0.0
O281 O 0.37978 0.83015 0.8269 0.0
C282 C 0.34137 0.80385 0.6535 0.0
O283 O 0.3502 0.82804 0.62495 0.0
N284 N 0.37819 0.87905 0.78725 0.0
C285 C 0.40353 0.93795 0.79819 0.0
C286 C 0.41459 0.92318 0.83003 0.0
C287 C 0.40171 0.89372 0.82369 0.0
C288 C 0.36792 0.89343 0.75489 0.0
C289 C 0.37968 0.92248 0.76083 0.0
H290 H 0.41204 0.88334 0.84421 0.0
H291 H 0.35222 0.88276 0.71909 0.0
H292 H 0.32614 0.7939 0.84834 0.0
H293 H 0.27265 0.82792 0.84703 0.0
H294 H 0.45712 0.86158 0.67564 0.0
H295 H 0.43346 0.93437 0.85811 0.0
H296 H 0.37121 0.93298 0.73285 0.0
C297 C 0.49879 0.31107 0.24206 0.0
C298 C 0.49155 0.28628 0.27207 0.0
N299 N 0.51297 0.2908 0.30981 0.0
N300 N 0.52401 0.33155 0.26323 0.0
C301 C 0.53269 0.318 0.30211 0.0
H302 H 0.48646 0.31373 0.20614 0.0
Co303 Co 0.54206 0.36822 0.23207 0.0
C304 C 0.57165 0.37984 0.35766 0.0
O305 O 0.54669 0.36502 0.3833 0.0
N306 N 0.55866 0.40346 0.19795 0.0
C307 C 0.58496 0.44647 0.16107 0.0
C308 C 0.58506 0.42538 0.19604 0.0
C309 C 0.54301 0.41172 0.16588 0.0
N310 N 0.55837 0.43766 0.14155 0.0
O311 O 0.56114 0.35625 0.16911 0.0
H312 H 0.60324 0.4255 0.2159 0.0
H313 H 0.52077 0.398 0.15748 0.0
O314 O 0.57353 0.38193 0.29733 0.0
C315 C 0.54599 0.34865 0.11899 0.0
O316 O 0.52312 0.35063 0.11958 0.0
N317 N 0.52092 0.37954 0.28452 0.0
C318 C 0.49183 0.40871 0.30851 0.0
C319 C 0.51999 0.41985 0.3269 0.0
C320 C 0.53411 0.40506 0.31451 0.0
C321 C 0.49288 0.36745 0.27121 0.0
C322 C 0.47796 0.38143 0.2834 0.0
H323 H 0.55659 0.41615 0.32149 0.0
H324 H 0.4824 0.34847 0.24423 0.0
H325 H 0.55289 0.32765 0.32522 0.0
H326 H 0.47196 0.26657 0.26738 0.0
H327 H 0.60349 0.46554 0.14583 0.0
H328 H 0.53196 0.44098 0.34546 0.0
H329 H 0.45612 0.37159 0.26929 0.0
C330 C 0.2161 0.48126 0.77762 0.0
C331 C 0.2274 0.46921 0.81576 0.0
N332 N 0.23392 0.4829 0.87072 0.0
N333 N 0.21504 0.50211 0.80873 0.0
C334 C 0.22715 0.50323 0.86447 0.0
H335 H 0.20833 0.4747 0.73053 0.0
Co336 Co 0.19886 0.52195 0.77355 0.0
C337 C 0.20689 0.54846 0.90489 0.0
O338 O 0.19239 0.52329 0.92991 0.0
N339 N 0.18282 0.54061 0.73669 0.0
C340 C 0.16922 0.57067 0.70877 0.0
C341 C 0.18949 0.56771 0.74002 0.0
C342 C 0.15895 0.52764 0.703 0.0
N343 N 0.14983 0.54528 0.68589 0.0
O344 O 0.23361 0.54384 0.72206 0.0
H345 H 0.208 0.58423 0.76269 0.0
H346 H 0.14853 0.5055 0.69146 0.0
O347 O 0.21214 0.5507 0.84547 0.0
C348 C 0.23012 0.53634 0.66391 0.0
O349 O 0.20471 0.51738 0.64573 0.0
N350 N 0.16353 0.49809 0.81352 0.0
C351 C 0.10485 0.46407 0.82283 0.0
C352 C 0.11872 0.49141 0.84748 0.0
C353 C 0.14794 0.50824 0.8414 0.0
C354 C 0.15037 0.47089 0.79284 0.0
C355 C 0.12117 0.45359 0.797 0.0
H356 H 0.15734 0.53028 0.85279 0.0
H357 H 0.16191 0.46322 0.76678 0.0
H358 H 0.23183 0.51888 0.89979 0.0
H359 H 0.22969 0.45121 0.80481 0.0
H360 H 0.16977 0.59038 0.70045 0.0
H361 H 0.10686 0.50057 0.86658 0.0
H362 H 0.1113 0.43262 0.77721 0.0
C363 C 0.74642 0.21174 0.2657 0.0
C364 C 0.76641 0.21795 0.31175 0.0
N365 N 0.7531 0.21051 0.36731 0.0
N366 N 0.72092 0.20064 0.29282 0.0
C367 C 0.72567 0.19961 0.35409 0.0
H368 H 0.75039 0.21635 0.21636 0.0
Co369 Co 0.68649 0.19186 0.26024 0.0
C370 C 0.6523 0.19433 0.36974 0.0
O371 O 0.63114 0.17111 0.34711 0.0
N372 N 0.65173 0.1834 0.22875 0.0
C373 C 0.60673 0.16315 0.20325 0.0
C374 C 0.62935 0.15915 0.20924 0.0
C375 C 0.6424 0.20183 0.23244 0.0
N376 N 0.61486 0.19 0.21895 0.0
O377 O 0.70402 0.22951 0.21793 0.0
H378 H 0.62895 0.13957 0.20115 0.0
H379 H 0.65554 0.2234 0.24735 0.0
O380 O 0.67635 0.2054 0.34142 0.0
C381 C 0.70649 0.22568 0.15924 0.0
O382 O 0.69679 0.19968 0.14022 0.0
N383 N 0.67176 0.15428 0.28866 0.0
C384 C 0.64804 0.09571 0.2955 0.0
C385 C 0.64838 0.11132 0.34809 0.0
C386 C 0.661 0.14079 0.34419 0.0
C387 C 0.67407 0.13973 0.23961 0.0
C388 C 0.66208 0.11057 0.24157 0.0
H389 H 0.66165 0.15231 0.38552 0.0
H390 H 0.68387 0.15078 0.19682 0.0
H391 H 0.70933 0.19201 0.38906 0.0
H392 H 0.78898 0.22879 0.30531 0.0
H393 H 0.58619 0.14762 0.18603 0.0
H394 H 0.63882 0.10087 0.39167 0.0
H395 H 0.66264 0.09973 0.19981 0.0
H396 H 0.39903 0.62635 0.11388 0.0
H397 H 0.35595 0.53741 0.07324 0.0
H398 H 0.37841 0.54718 0.97057 0.0
H399 H 0.41159 0.58041 0.89406 0.0
H400 H 0.45665 0.66938 0.9343 0.0
H401 H 0.43207 0.66015 0.035 0.0
C402 C 0.3942 0.60909 0.08223 0.0
C403 C 0.3755 0.58105 0.10165 0.0
C404 C 0.40776 0.61488 0.02322 0.0
C405 C 0.37007 0.55909 0.06002 0.0
C406 C 0.38301 0.5647 1.00116 0.0
C407 C 0.4161 0.59798 0.92443 0.0
C408 C 0.43615 0.62571 0.90587 0.0
C409 C 0.40213 0.59244 0.98255 0.0
C410 C 0.44142 0.6479 0.94669 0.0
C411 C 0.42733 0.64257 1.0045 0.0
H412 H 0.80647 0.40534 0.65411 0.0
H413 H 0.84056 0.35279 0.59921 0.0
H414 H 0.84435 0.3689 0.49144 0.0
H415 H 0.84018 0.39923 0.41295 0.0
H416 H 0.80678 0.45259 0.46512 0.0
H417 H 0.80022 0.43461 0.57276 0.0
C418 C 0.81454 0.3972 0.61857 0.0
C419 C 0.82339 0.37782 0.6358 0.0
C420 C 0.8168 0.40675 0.55575 0.0
C421 C 0.83377 0.36775 0.58835 0.0
C422 C 0.83592 0.37697 0.5263 0.0
C423 C 0.83122 0.4069 0.44748 0.0
C424 C 0.82407 0.42748 0.43005 0.0
C425 C 0.82783 0.39668 0.50951 0.0
C426 C 0.81241 0.4368 0.47628 0.0
C427 C 0.8088 0.42656 0.53822 0.0
H428 H 0.48164 0.8279 1.01977 0.0
H429 H 0.43284 0.81902 0.18456 0.0
H430 H 0.39535 0.81742 0.11889 0.0
H431 H 0.37818 0.82277 1.01442 0.0
H432 H 0.42698 0.83034 0.85026 0.0
H433 H 0.46235 0.82807 0.91548 0.0
C434 C 0.46261 0.82514 0.04151 0.0
C435 C 0.46033 0.82369 0.1076 0.0
C436 C 0.4411 0.82427 1.00323 0.0
C437 C 0.43532 0.81999 0.13428 0.0
C438 C 0.4139 0.81932 0.0965 0.0
C439 C 0.39638 0.82358 0.99271 0.0
C440 C 0.39972 0.82686 0.92684 0.0
C441 C 0.41681 0.8221 0.03092 0.0
C442 C 0.4235 0.82767 0.90018 0.0
C443 C 0.44393 0.82653 0.93775 0.0
H444 H 0.57838 0.3684 0.47879 0.0
H445 H 0.61949 0.43076 0.33465 0.0
H446 H 0.65444 0.46244 0.41101 0.0
H447 H 0.6706 0.47424 0.52132 0.0
H448 H 0.63 0.41106 0.66421 0.0
H449 H 0.598 0.37806 0.58614 0.0
C450 C 0.59528 0.38875 0.46367 0.0
C451 C 0.5961 0.39708 0.40057 0.0
C452 C 0.61536 0.40691 0.50807 0.0
C453 C 0.61831 0.42354 0.38231 0.0
C454 C 0.63822 0.44181 0.42632 0.0
C455 C 0.65505 0.45309 0.53543 0.0
C456 C 0.65281 0.44546 0.59952 0.0
C457 C 0.63658 0.43401 0.48972 0.0
C458 C 0.63251 0.4178 0.61601 0.0
C459 C 0.61398 0.39885 0.57109 0.0
H460 H 0.20995 0.65276 0.04199 0.0
H461 H 0.21048 0.60672 0.20504 0.0
H462 H 0.21364 0.5723 0.13795 0.0
H463 H 0.21213 0.55287 0.03242 0.0
H464 H 0.21339 0.59975 0.86932 0.0
H465 H 0.21402 0.63615 0.93651 0.0
C466 C 0.21114 0.6354 0.06304 0.0
C467 C 0.20979 0.63244 0.12908 0.0
C468 C 0.21316 0.61565 0.02383 0.0
C469 C 0.21159 0.60983 0.15492 0.0
C470 C 0.21323 0.58995 0.1163 0.0
C471 C 0.213 0.57128 1.01137 0.0
C472 C 0.21258 0.57327 0.94525 0.0
C473 C 0.21345 0.5923 0.05063 0.0
C474 C 0.21387 0.59748 0.91949 0.0
C475 C 0.21401 0.61829 0.95817 0.0
H476 H 0.60157 0.17879 0.42122 0.0
H477 H 0.68998 0.23666 0.45029 0.0
H478 H 0.67883 0.25312 0.5475 0.0
H479 H 0.64335 0.24993 0.62624 0.0
H480 H 0.55537 0.19106 0.59301 0.0
H481 H 0.56709 0.17622 0.49599 0.0
C482 C 0.61864 0.19506 0.44845 0.0
C483 C 0.64674 0.20631 0.42784 0.0
C484 C 0.61205 0.2042 0.50417 0.0
C485 C 0.66821 0.22757 0.46433 0.0
C486 C 0.66177 0.23692 0.5202 0.0
C487 C 0.62673 0.23391 0.59767 0.0
C488 C 0.59837 0.22142 0.61809 0.0
C489 C 0.63369 0.22526 0.54094 0.0
C490 C 0.5773 0.20075 0.57985 0.0
C491 C 0.584 0.1923 0.52386 0.0
H492 H 0.51955 0.4054 0.0553 0.0
H493 H 0.58035 0.49146 0.09957 0.0
H494 H 0.5891 0.50214 0.98821 0.0
H495 H 0.5945 0.48214 0.89127 0.0
H496 H 0.54643 0.39223 0.86321 0.0
H497 H 0.51646 0.3879 0.95058 0.0
C498 C 0.53398 0.42681 0.04095 0.0
C499 C 0.5511 0.44713 0.08551 0.0
C500 C 0.54177 0.4316 0.97822 0.0
C501 C 0.5681 0.47511 0.06585 0.0
C502 C 0.57333 0.48106 1.00218 0.0
C503 C 0.57756 0.4615 0.90416 0.0
C504 C 0.57469 0.43718 0.87503 0.0
C505 C 0.56298 0.45866 0.95947 0.0
C506 C 0.55048 0.41117 0.8874 0.0
C507 C 0.53334 0.40865 0.93781 0.0
H508 H 0.12423 0.54624 0.4203 0.0
H509 H 0.13106 0.62388 0.48427 0.0
H510 H 0.11739 0.60481 0.58856 0.0
H511 H 0.12436 0.57553 0.66448 0.0
H512 H 0.1267 0.50228 0.60068 0.0
H513 H 0.11439 0.50897 0.49598 0.0
C514 C 0.12186 0.55861 0.45674 0.0
C515 C 0.13093 0.58709 0.44604 0.0
C516 C 0.11615 0.5483 0.51787 0.0
C517 C 0.12569 0.60229 0.49186 0.0
C518 C 0.11798 0.59143 0.55203 0.0
C519 C 0.12131 0.56057 0.62797 0.0
C520 C 0.12907 0.54018 0.63879 0.0
C521 C 0.11655 0.56591 0.5666 0.0
C522 C 0.12265 0.51938 0.59297 0.0
C523 C 0.11573 0.52327 0.53251 0.0
H524 H 0.55869 0.16802 0.2021 0.0
H525 H 0.63576 0.24731 0.20826 0.0
H526 H 0.6237 0.2617 0.11138 0.0
H527 H 0.60332 0.24219 1.0079 0.0
H528 H 0.52968 0.16 0.9956 0.0
H529 H 0.52867 0.15521 0.10955 0.0
C530 C 0.57231 0.18885 0.18311 0.0
C531 C 0.59994 0.20471 0.20539 0.0
C532 C 0.56657 0.19543 0.1239 0.0
C533 C 0.61563 0.23314 0.18714 0.0
C534 C 0.60899 0.24132 0.13099 0.0
C535 C 0.58675 0.22365 0.03072 0.0
C536 C 0.56757 0.20079 0.9948 0.0
C537 C 0.58662 0.22102 0.09546 0.0
C538 C 0.54523 0.17726 0.02353 0.0
C539 C 0.54451 0.17469 0.08834 0.0
H540 H 0.46394 0.65341 0.56129 0.0
H541 H 0.37652 0.60931 0.61186 0.0
H542 H 0.3642 0.62095 0.50952 0.0
H543 H 0.37796 0.63176 0.39963 0.0
H544 H 0.46397 0.66214 0.34734 0.0
H545 H 0.47821 0.67115 0.45557 0.0
C546 C 0.44235 0.64727 0.55018 0.0
C547 C 0.42098 0.63015 0.59207 0.0
C548 C 0.43564 0.65248 0.49097 0.0
C549 C 0.39299 0.62203 0.57889 0.0
C550 C 0.38614 0.62888 0.5209 0.0
C551 C 0.39999 0.64129 0.41228 0.0
C552 C 0.41942 0.64286 0.36731 0.0
C553 C 0.40719 0.64244 0.47531 0.0
C554 C 0.44815 0.65851 0.38191 0.0
C555 C 0.4563 0.66331 0.44434 0.0
H556 H 0.89848 0.42045 0.15294 0.0
H557 H 0.9043 0.49838 0.0952 0.0
H558 H 0.92618 0.49733 0.99748 0.0
H559 H 0.92506 0.46504 0.91811 0.0
H560 H 0.91693 0.38584 0.97286 0.0
H561 H 0.91628 0.39719 0.08272 0.0
C562 C 0.90572 0.43769 0.11986 0.0
C563 C 0.89875 0.45864 0.12921 0.0
C564 C 0.9175 0.43649 0.06295 0.0
C565 C 0.90893 0.48161 0.08788 0.0
C566 C 0.92134 0.48097 0.03181 0.0
C567 C 0.92469 0.45092 0.95404 0.0
C568 C 0.91818 0.42358 0.93815 0.0
C569 C 0.92303 0.45711 1.01666 0.0
C570 C 0.91968 0.40624 0.98471 0.0
C571 C 0.91918 0.41264 0.04749 0.0
H572 H 0.46559 0.91203 0.39329 0.0
H573 H 0.53357 0.9012 0.46079 0.0
H574 H 0.52704 0.9134 0.56569 0.0
H575 H 0.48998 0.90635 0.63903 0.0
H576 H 0.41688 0.90798 0.57058 0.0
H577 H 0.43765 0.92143 0.46779 0.0
C578 C 0.47955 0.91332 0.43073 0.0
C579 C 0.49833 0.90348 0.42065 0.0
C580 C 0.47413 0.91803 0.49193 0.0
C581 C 0.51783 0.90724 0.46786 0.0
C582 C 0.51397 0.91402 0.52835 0.0
C583 C 0.47901 0.91045 0.60197 0.0
C584 C 0.45108 0.90384 0.6109 0.0
C585 C 0.49012 0.91604 0.54159 0.0
C586 C 0.43787 0.91138 0.56435 0.0
C587 C 0.4497 0.91898 0.50502 0.0
H588 H 0.219 0.48678 0.98762 0.0
H589 H 0.26955 0.46246 0.87986 0.0
H590 H 0.2877 0.45317 0.97652 0.0
H591 H 0.29288 0.45719 0.09166 0.0
H592 H 0.24393 0.48389 0.19769 0.0
H593 H 0.22087 0.48662 0.10188 0.0
C594 C 0.23402 0.47948 0.98538 0.0
C595 C 0.24341 0.47584 0.92697 0.0
C596 C 0.24433 0.47438 0.04082 0.0
C597 C 0.26221 0.46556 0.92446 0.0
C598 C 0.27256 0.46029 0.97962 0.0
C599 C 0.27641 0.46257 0.09361 0.0
C600 C 0.26966 0.46998 0.15121 0.0
C601 C 0.26417 0.46515 0.03807 0.0
C602 C 0.24897 0.47776 0.15361 0.0
C603 C 0.23612 0.47963 0.09894 0.0
H604 H 0.82201 0.24673 0.61772 0.0
H605 H 0.753 0.25851 0.67047 0.0
H606 H 0.73009 0.23969 0.56964 0.0
H607 H 0.73216 0.22444 0.46477 0.0
H608 H 0.80166 0.2141 0.4075 0.0
H609 H 0.82263 0.22852 0.51217 0.0
C610 C 0.80163 0.24442 0.60732 0.0
C611 C 0.78886 0.25359 0.65091 0.0
C612 C 0.78919 0.23451 0.54859 0.0
C613 C 0.76287 0.25133 0.63716 0.0
C614 C 0.74997 0.24078 0.57969 0.0
C615 C 0.75153 0.2246 0.47534 0.0
C616 C 0.76522 0.21789 0.42878 0.0
C617 C 0.76328 0.23295 0.53473 0.0
C618 C 0.79086 0.21927 0.44274 0.0
C619 C 0.8027 0.22736 0.50246 0.0
H620 H 0.5522 0.75346 0.15174 0.0
H621 H 0.56657 0.83003 0.06347 0.0
H622 H 0.57253 0.81313 0.96203 0.0
H623 H 0.56802 0.77437 0.89719 0.0
H624 H 0.54908 0.69587 0.98305 0.0
H625 H 0.55082 0.71553 0.08699 0.0
C626 C 0.5572 0.7665 0.1103 0.0
C627 C 0.55891 0.7928 0.11436 0.0
C628 C 0.55957 0.75617 0.05194 0.0
C629 C 0.56501 0.8096 0.06071 0.0
C630 C 0.5684 0.79996 1.00297 0.0
C631 C 0.56507 0.76191 0.93886 0.0
C632 C 0.55857 0.73386 0.93298 0.0
C633 C 0.56496 0.77298 0.99777 0.0
C634 C 0.5541 0.71756 0.98697 0.0
C635 C 0.55499 0.72875 0.04614 0.0
H636 H 0.79734 0.53238 0.67764 0.0
H637 H 0.7408 0.55859 0.60699 0.0
H638 H 0.75969 0.56292 0.50121 0.0
H639 H 0.78697 0.55199 0.42796 0.0
H640 H 0.84392 0.52572 0.4987 0.0
H641 H 0.8304 0.52872 0.60542 0.0
C642 C 0.79005 0.53996 0.63914 0.0
C643 C 0.76812 0.54546 0.64909 0.0
C644 C 0.80061 0.54174 0.5786 0.0
C645 C 0.75807 0.55473 0.59952 0.0
C646 C 0.76864 0.55689 0.5393 0.0
C647 C 0.79701 0.5476 0.46654 0.0
C648 C 0.81579 0.53779 0.45487 0.0
C649 C 0.78917 0.54941 0.52796 0.0
C650 C 0.82861 0.53232 0.50593 0.0
C651 C 0.82105 0.53422 0.56719 0.0
H652 H 0.23777 0.72117 0.08364 0.0
H653 H 0.25806 0.79901 0.17654 0.0
H654 H 0.27659 0.82457 0.07896 0.0
H655 H 0.28749 0.82485 0.96758 0.0
H656 H 0.27114 0.74811 0.87739 0.0
H657 H 0.25073 0.72174 0.97451 0.0
C658 C 0.24668 0.74377 0.08334 0.0
C659 C 0.24645 0.75806 0.1378 0.0
C660 C 0.25779 0.7584 0.02751 0.0
C661 C 0.25759 0.78734 0.13541 0.0
C662 C 0.2683 0.80202 0.07964 0.0
C663 C 0.27907 0.80228 0.96945 0.0
C664 C 0.28007 0.78806 0.91606 0.0
C665 C 0.26835 0.78772 0.02549 0.0
C666 C 0.27006 0.75909 0.9184 0.0
C667 C 0.25859 0.74421 0.97366 0.0
H668 H 0.53403 0.23342 0.53801 0.0
H669 H 0.45169 0.21975 0.58632 0.0
H670 H 0.44828 0.23797 0.48531 0.0
H671 H 0.47042 0.26221 0.38791 0.0
H672 H 0.55452 0.28107 0.34431 0.0
H673 H 0.55573 0.25659 0.43943 0.0
C674 C 0.5154 0.23459 0.52711 0.0
C675 C 0.49333 0.22544 0.5707 0.0
C676 C 0.51393 0.24607 0.46968 0.0
C677 C 0.46903 0.22643 0.55415 0.0
C678 C 0.46706 0.23702 0.4963 0.0
C679 C 0.48868 0.26028 0.39869 0.0
C680 C 0.51225 0.27302 0.35953 0.0
C681 C 0.48957 0.24738 0.45434 0.0
C682 C 0.53618 0.27121 0.3742 0.0
C683 C 0.53686 0.25739 0.42846 0.0
H684 H 0.69538 0.4594 1.01833 0.0
H685 H 0.74729 0.46637 0.86066 0.0
H686 H 0.78249 0.46666 0.9322 0.0
H687 H 0.8006 0.46933 0.04021 0.0
H688 H 0.74825 0.46111 0.19788 0.0
H689 H 0.71122 0.45663 0.12602 0.0
C690 C 0.71418 0.46051 0.99926 0.0
C691 C 0.71845 0.46291 0.93336 0.0
C692 C 0.73444 0.46064 0.04108 0.0
C693 C 0.74305 0.46424 0.91042 0.0
C694 C 0.76337 0.46464 0.95166 0.0
C695 C 0.78091 0.46609 0.05913 0.0
C696 C 0.77749 0.46564 0.12517 0.0
C697 C 0.7596 0.46348 1.01716 0.0
C698 C 0.75163 0.46132 0.14795 0.0
C699 C 0.73048 0.45898 0.10656 0.0
H700 H 0.24002 0.69461 0.53034 0.0
H701 H 0.2851 0.73517 0.36175 0.0
H702 H 0.32339 0.7717 0.42471 0.0
H703 H 0.3418 0.79492 0.52755 0.0
H704 H 0.29757 0.75349 0.69632 0.0
H705 H 0.26159 0.71453 0.63381 0.0
C706 C 0.25849 0.71112 0.50722 0.0
C707 C 0.25945 0.71195 0.4408 0.0
C708 C 0.28057 0.73212 0.54404 0.0
C709 C 0.2837 0.73361 0.41227 0.0
C710 C 0.30555 0.75473 0.4485 0.0
C711 C 0.32458 0.77711 0.55092 0.0
C712 C 0.32256 0.77739 0.61713 0.0
C713 C 0.30392 0.75462 0.51438 0.0
C714 C 0.30002 0.75394 0.646 0.0
C715 C 0.27924 0.73171 0.60998 0.0
H716 H 0.57159 0.31553 0.09776 0.0
H717 H 0.53333 0.35739 1.00291 0.0
H718 H 0.53155 0.33365 0.906 0.0
H719 H 0.53427 0.29572 0.85035 0.0
H720 H 0.57478 0.25525 0.93919 0.0
H721 H 0.58228 0.28318 0.03436 0.0
C722 C 0.56362 0.32007 0.05555 0.0
C723 C 0.55223 0.33821 0.05888 0.0
C724 C 0.56264 0.30608 0.99821 0.0
C725 C 0.54188 0.3434 1.0029 0.0
C726 C 0.54076 0.3297 0.94689 0.0
C727 C 0.54582 0.29386 0.88952 0.0
C728 C 0.55441 0.27361 0.88672 0.0
C729 C 0.55016 0.31025 0.94423 0.0
C730 C 0.56851 0.27101 0.9392 0.0
C731 C 0.5725 0.28687 0.99415 0.0
H732 H 0.33439 0.5572 0.49614 0.0
H733 H 0.27439 0.53999 0.34833 0.0
H734 H 0.24058 0.53862 0.42546 0.0
H735 H 0.22628 0.53722 0.5363 0.0
H736 H 0.28669 0.55539 0.68385 0.0
H737 H 0.32212 0.56181 0.60564 0.0
C738 C 0.31407 0.55363 0.48045 0.0
C739 C 0.30702 0.54857 0.4159 0.0
C740 C 0.29469 0.55281 0.5254 0.0
C741 C 0.28062 0.5442 0.39701 0.0
C742 C 0.26116 0.54314 0.44147 0.0
C743 C 0.24735 0.54305 0.55156 0.0
C744 C 0.25357 0.54564 0.61668 0.0
C745 C 0.26767 0.54667 0.50599 0.0
C746 C 0.28114 0.55339 0.63473 0.0
C747 C 0.30139 0.55684 0.58976 0.0
H748 H 0.75741 0.27655 0.16041 0.0
H749 H 0.68578 0.22437 0.04416 0.0
H750 H 0.71051 0.25191 0.95219 0.0
H751 H 0.75542 0.28639 0.90088 0.0
H752 H 0.82723 0.33829 1.01676 0.0
H753 H 0.79987 0.31614 0.1108 0.0
C754 C 0.74683 0.2719 0.11547 0.0
C755 C 0.7195 0.24831 0.10997 0.0
C756 C 0.76157 0.28774 0.06151 0.0
C757 C 0.70666 0.24238 0.05039 0.0
C758 C 0.72093 0.25808 0.99726 0.0
C759 C 0.76472 0.29366 0.94672 0.0
C760 C 0.79344 0.31441 0.95112 0.0
C761 C 0.74882 0.28023 1.00153 0.0
C762 C 0.80516 0.32271 1.0115 0.0
C763 C 0.78953 0.30979 0.06568 0.0
H764 H 0.48162 0.79203 0.5084 0.0
H765 H 0.50183 0.75517 0.35352 0.0
H766 H 0.50411 0.72145 0.42473 0.0
H767 H 0.50375 0.7045 0.53205 0.0
H768 H 0.47949 0.73781 0.68688 0.0
H769 H 0.47534 0.7707 0.61517 0.0
C770 C 0.48563 0.77601 0.48989 0.0
C771 C 0.49123 0.77611 0.4249 0.0
C772 C 0.48642 0.75615 0.5315 0.0
C773 C 0.49679 0.75537 0.40242 0.0
C774 C 0.49836 0.73617 0.44357 0.0
C775 C 0.4969 0.71845 0.55033 0.0
C776 C 0.49186 0.71833 0.61552 0.0
C777 C 0.49369 0.73664 0.50831 0.0
C778 C 0.48347 0.73712 0.63752 0.0
C779 C 0.48109 0.75599 0.59623 0.0
H780 H 0.45012 0.49686 0.34014 0.0
H781 H 0.40328 0.45475 0.17337 0.0
H782 H 0.42411 0.42472 0.1743 0.0
H783 H 0.45501 0.40967 0.22284 0.0
H784 H 0.49816 0.44857 0.39515 0.0
H785 H 0.47881 0.48001 0.39196 0.0
C786 C 0.44398 0.48089 0.3043 0.0
C787 C 0.42494 0.47845 0.25666 0.0
C788 C 0.45526 0.46281 0.30626 0.0
C789 C 0.4182 0.45789 0.21003 0.0
C790 C 0.42987 0.44032 0.21089 0.0
C791 C 0.45981 0.42458 0.26057 0.0
C792 C 0.47813 0.42648 0.30931 0.0
C793 C 0.44826 0.44243 0.25902 0.0
C794 C 0.48449 0.44665 0.35659 0.0
C795 C 0.47333 0.46466 0.35493 0.0
H796 H 0.07219 0.437 0.72138 0.0
H797 H 0.06722 0.45492 0.91578 0.0
H798 H 1.01583 0.42911 0.90968 0.0
H799 H 0.97237 0.40157 0.84933 0.0
H800 H 0.97677 0.3843 0.65425 0.0
H801 H 0.02832 0.41001 0.66006 0.0
C802 C 0.05981 0.43497 0.76255 0.0
C803 C 0.07354 0.44761 0.81925 0.0
C804 C 0.03021 0.4204 0.7584 0.0
C805 C 0.05721 0.44538 0.87174 0.0
C806 C 0.02783 0.43061 0.86823 0.0
C807 C 0.98459 0.40321 0.80812 0.0
C808 C 0.97069 0.39067 0.75156 0.0
C809 C 1.01412 0.41805 0.81186 0.0
C810 C 0.9869 0.39371 0.69828 0.0
C811 C 1.01637 0.4083 0.70173 0.0
H812 H 0.66299 0.0597 0.24217 0.0
H813 H 0.59618 0.06071 0.34579 0.0
H814 H 0.56723 1.00971 0.33451 0.0
H815 H 0.55998 0.96492 0.29142 0.0
H816 H 0.62664 0.96383 0.18773 0.0
H817 H 0.65632 0.01474 0.20193 0.0
C818 C 0.64209 0.04881 0.26231 0.0
C819 C 0.63183 0.06423 0.29464 0.0
C820 C 0.62535 0.01944 0.25492 0.0
C821 C 0.60485 0.04952 0.32135 0.0
C822 C 0.58812 0.02032 0.31433 0.0
C823 C 0.58091 0.97589 0.27141 0.0
C824 C 0.59094 0.96064 0.23776 0.0
C825 C 0.59798 1.00512 0.28044 0.0
C826 C 0.61839 0.97507 0.21358 0.0
C827 C 0.63536 1.00417 0.22175 0.0
H828 H 0.54709 0.57956 0.69389 0.0
H829 H 0.56471 0.60222 0.88884 0.0
H830 H 0.59244 0.57874 0.89447 0.0
H831 H 0.61323 0.55319 0.8433 0.0
H832 H 0.59747 0.53273 0.64703 0.0
H833 H 0.56772 0.55403 0.6429 0.0
C834 C 0.55713 0.57963 0.73765 0.0
C835 C 0.55374 0.59295 0.79078 0.0
C836 C 0.57358 0.56652 0.74033 0.0
C837 C 0.56649 0.59199 0.84726 0.0
C838 C 0.58264 0.57874 0.85041 0.0
C839 C 0.60358 0.55363 0.79934 0.0
C840 C 0.60793 0.54143 0.74538 0.0
C841 C 0.58661 0.56621 0.79707 0.0
C842 C 0.59448 0.54167 0.68944 0.0
C843 C 0.57752 0.55401 0.68694 0.0
H844 H 0.0637 0.57871 0.28825 0.0
H845 H 0.06844 0.65618 0.2294 0.0
H846 H 1.01791 0.6354 0.24504 0.0
H847 H 0.97244 0.59574 0.27773 0.0
H848 H 0.96707 0.51713 0.32997 0.0
H849 H 1.01757 0.53811 0.31602 0.0
C850 C 0.05366 0.59093 0.27775 0.0
C851 C 0.07013 0.6191 0.25769 0.0
C852 C 0.02438 0.5788 0.28678 0.0
C853 C 0.05655 0.63461 0.24552 0.0
C854 C 0.02755 0.62271 0.25443 0.0
C855 C 0.98207 0.58293 0.28551 0.0
C856 C 0.96543 0.55473 0.30551 0.0
C857 C 1.01125 0.59489 0.27556 0.0
C858 C 0.97897 0.53901 0.3162 0.0
C859 C 1.008 0.55091 0.30738 0.0
H860 H 0.45946 0.97709 0.78322 0.0
H861 H 0.37839 0.96948 0.81397 0.0
H862 H 0.39921 0.0204 0.80465 0.0
H863 H 0.43993 0.06698 0.78366 0.0
H864 H 0.52145 0.07522 0.75446 0.0
H865 H 0.50091 0.02443 0.76592 0.0
C866 C 0.44647 0.98665 0.78892 0.0
C867 C 0.41735 0.96937 0.79945 0.0
C868 C 0.45858 0.01612 0.78266 0.0
C869 C 0.40079 0.98217 0.80561 0.0
C870 C 0.41269 1.01134 0.80016 0.0
C871 C 0.45339 0.05784 0.78046 0.0
C872 C 0.48233 0.07529 0.76788 0.0
C873 C 0.4415 0.02852 0.78796 0.0
C874 C 0.49907 0.06258 0.76287 0.0
C875 C 0.48736 0.03342 0.77009 0.0
loop_
_geom_bond_atom_site_label_1
_geom_bond_atom_site_label_2
_geom_bond_distance
_geom_bond_site_symmetry_2
_ccdc_geom_bond_type
C0 C1 1.351 . S
C0 N3 1.368 . S
C0 H5 0.931 . S
C1 C0 1.351 . S
C1 N2 1.373 . S
C1 H29 0.930 . S
N2 C1 1.373 . S
N2 C4 1.340 . S
N3 C0 1.368 . S
N3 C4 1.321 . S
N3 Co6 2.135 . S
C4 N2 1.340 . S
C4 N3 1.321 . S
C4 H28 0.930 . S
H5 C0 0.931 . S
Co6 N3 2.135 . S
Co6 N9 2.121 . S
Co6 O14 2.055 . S
Co6 O17 2.039 . S
Co6 N20 2.140 . S
C7 O8 1.227 . S
C7 O17 1.265 . S
O8 C7 1.227 . S
N9 Co6 2.121 . S
N9 C11 1.375 . S
N9 C12 1.313 . S
C10 C11 1.338 . S
C10 N13 1.377 . S
C10 H30 0.930 . S
C11 N9 1.375 . S
C11 C10 1.338 . S
C11 H15 0.931 . S
C12 N9 1.313 . S
C12 N13 1.344 . S
C12 H16 0.930 . S
N13 C10 1.377 . S
N13 C12 1.344 . S
O14 Co6 2.055 . S
O14 C18 1.253 . S
H15 C11 0.931 . S
H16 C12 0.930 . S
O17 Co6 2.039 . S
O17 C7 1.265 . S
C18 O14 1.253 . S
C18 O19 1.227 . S
O19 C18 1.227 . S
N20 Co6 2.140 . S
N20 C23 1.346 . S
N20 C24 1.345 . S
C21 C22 1.387 . S
C21 C25 1.391 . S
C22 C21 1.387 . S
C22 C23 1.369 . S
C22 H31 0.929 . S
C23 N20 1.346 . S
C23 C22 1.369 . S
C23 H26 0.928 . S
C24 N20 1.345 . S
C24 C25 1.371 . S
C24 H27 0.931 . S
C25 C21 1.391 . S
C25 C24 1.371 . S
C25 H32 0.930 . S
H26 C23 0.928 . S
H27 C24 0.931 . S
H28 C4 0.930 . S
H29 C1 0.930 . S
H30 C10 0.930 . S
H31 C22 0.929 . S
H32 C25 0.930 . S
C33 C34 1.351 . S
C33 N36 1.368 . S
C33 H38 0.931 . S
C34 C33 1.351 . S
C34 N35 1.373 . S
C34 H62 0.930 . S
N35 C34 1.373 . S
N35 C37 1.340 . S
N36 C33 1.368 . S
N36 C37 1.321 . S
N36 Co39 2.135 . S
C37 N35 1.340 . S
C37 N36 1.321 . S
C37 H61 0.930 . S
H38 C33 0.931 . S
Co39 N36 2.135 . S
Co39 N42 2.121 . S
Co39 O47 2.055 . S
Co39 O50 2.039 . S
Co39 N53 2.140 . S
C40 O41 1.227 . S
C40 O50 1.265 . S
O41 C40 1.227 . S
N42 Co39 2.121 . S
N42 C44 1.375 . S
N42 C45 1.313 . S
C43 C44 1.338 . S
C43 N46 1.377 . S
C43 H63 0.930 . S
C44 N42 1.375 . S
C44 C43 1.338 . S
C44 H48 0.931 . S
C45 N42 1.313 . S
C45 N46 1.344 . S
C45 H49 0.930 . S
N46 C43 1.377 . S
N46 C45 1.344 . S
O47 Co39 2.055 . S
O47 C51 1.253 . S
H48 C44 0.931 . S
H49 C45 0.930 . S
O50 Co39 2.039 . S
O50 C40 1.265 . S
C51 O47 1.253 . S
C51 O52 1.227 . S
O52 C51 1.227 . S
N53 Co39 2.140 . S
N53 C56 1.346 . S
N53 C57 1.345 . S
C54 C55 1.387 . S
C54 C58 1.391 . S
C55 C54 1.387 . S
C55 C56 1.369 . S
C55 H64 0.929 . S
C56 N53 1.346 . S
C56 C55 1.369 . S
C56 H59 0.928 . S
C57 N53 1.345 . S
C57 C58 1.371 . S
C57 H60 0.931 . S
C58 C54 1.391 . S
C58 C57 1.371 . S
C58 H65 0.930 . S
H59 C56 0.928 . S
H60 C57 0.931 . S
H61 C37 0.930 . S
H62 C34 0.930 . S
H63 C43 0.930 . S
H64 C55 0.929 . S
H65 C58 0.930 . S
C66 C67 1.351 . S
C66 N69 1.368 . S
C66 H71 0.931 . S
C67 C66 1.351 . S
C67 N68 1.373 . S
C67 H95 0.930 . S
N68 C67 1.373 . S
N68 C70 1.340 . S
N69 C66 1.368 . S
N69 C70 1.321 . S
N69 Co72 2.135 . S
C70 N68 1.340 . S
C70 N69 1.321 . S
C70 H94 0.930 . S
H71 C66 0.931 . S
Co72 N69 2.135 . S
Co72 N75 2.121 . S
Co72 O80 2.055 . S
Co72 O83 2.039 . S
Co72 N86 2.140 . S
C73 O74 1.227 . S
C73 O83 1.265 . S
O74 C73 1.227 . S
N75 Co72 2.121 . S
N75 C77 1.375 . S
N75 C78 1.313 . S
C76 C77 1.338 . S
C76 N79 1.377 . S
C76 H96 0.930 . S
C77 N75 1.375 . S
C77 C76 1.338 . S
C77 H81 0.931 . S
C78 N75 1.313 . S
C78 N79 1.344 . S
C78 H82 0.930 . S
N79 C76 1.377 . S
N79 C78 1.344 . S
O80 Co72 2.055 . S
O80 C84 1.253 . S
H81 C77 0.931 . S
H82 C78 0.930 . S
O83 Co72 2.039 . S
O83 C73 1.265 . S
C84 O80 1.253 . S
C84 O85 1.227 . S
O85 C84 1.227 . S
N86 Co72 2.140 . S
N86 C89 1.346 . S
N86 C90 1.345 . S
C87 C88 1.387 . S
C87 C91 1.391 . S
C88 C87 1.387 . S
C88 C89 1.369 . S
C88 H97 0.929 . S
C89 N86 1.346 . S
C89 C88 1.369 . S
C89 H92 0.928 . S
C90 N86 1.345 . S
C90 C91 1.371 . S
C90 H93 0.931 . S
C91 C87 1.391 . S
C91 C90 1.371 . S
C91 H98 0.930 . S
H92 C89 0.928 . S
H93 C90 0.931 . S
H94 C70 0.930 . S
H95 C67 0.930 . S
H96 C76 0.930 . S
H97 C88 0.929 . S
H98 C91 0.930 . S
C99 C100 1.351 . S
C99 N102 1.368 . S
C99 H104 0.931 . S
C100 C99 1.351 . S
C100 N101 1.373 . S
C100 H128 0.930 . S
N101 C100 1.373 . S
N101 C103 1.340 . S
N102 C99 1.368 . S
N102 C103 1.321 . S
N102 Co105 2.135 . S
C103 N101 1.340 . S
C103 N102 1.321 . S
C103 H127 0.930 . S
H104 C99 0.931 . S
Co105 N102 2.135 . S
Co105 N108 2.121 . S
Co105 O113 2.055 . S
Co105 O116 2.039 . S
Co105 N119 2.140 . S
C106 O107 1.227 . S
C106 O116 1.265 . S
O107 C106 1.227 . S
N108 Co105 2.121 . S
N108 C110 1.375 . S
N108 C111 1.313 . S
C109 C110 1.338 . S
C109 N112 1.377 . S
C109 H129 0.930 . S
C110 N108 1.375 . S
C110 C109 1.338 . S
C110 H114 0.931 . S
C111 N108 1.313 . S
C111 N112 1.344 . S
C111 H115 0.930 . S
N112 C109 1.377 . S
N112 C111 1.344 . S
O113 Co105 2.055 . S
O113 C117 1.253 . S
H114 C110 0.931 . S
H115 C111 0.930 . S
O116 Co105 2.039 . S
O116 C106 1.265 . S
C117 O113 1.253 . S
C117 O118 1.227 . S
O118 C117 1.227 . S
N119 Co105 2.140 . S
N119 C122 1.346 . S
N119 C123 1.345 . S
C120 C121 1.387 . S
C120 C124 1.391 . S
C121 C120 1.387 . S
C121 C122 1.369 . S
C121 H130 0.929 . S
C122 N119 1.346 . S
C122 C121 1.369 . S
C122 H125 0.928 . S
C123 N119 1.345 . S
C123 C124 1.371 . S
C123 H126 0.931 . S
C124 C120 1.391 . S
C124 C123 1.371 . S
C124 H131 0.930 . S
H125 C122 0.928 . S
H126 C123 0.931 . S
H127 C103 0.930 . S
H128 C100 0.930 . S
H129 C109 0.930 . S
H130 C121 0.929 . S
H131 C124 0.930 . S
C132 C133 1.351 . S
C132 N135 1.368 . S
C132 H137 0.931 . S
C133 C132 1.351 . S
C133 N134 1.373 . S
C133 H161 0.930 . S
N134 C133 1.373 . S
N134 C136 1.340 . S
N135 C132 1.368 . S
N135 C136 1.321 . S
N135 Co138 2.135 . S
C136 N134 1.340 . S
C136 N135 1.321 . S
C136 H160 0.930 . S
H137 C132 0.931 . S
Co138 N135 2.135 . S
Co138 N141 2.121 . S
Co138 O146 2.055 . S
Co138 O149 2.039 . S
Co138 N152 2.140 . S
C139 O140 1.227 . S
C139 O149 1.265 . S
O140 C139 1.227 . S
N141 Co138 2.121 . S
N141 C143 1.375 . S
N141 C144 1.313 . S
C142 C143 1.338 . S
C142 N145 1.377 . S
C142 H162 0.930 . S
C143 N141 1.375 . S
C143 C142 1.338 . S
C143 H147 0.931 . S
C144 N141 1.313 . S
C144 N145 1.344 . S
C144 H148 0.930 . S
N145 C142 1.377 . S
N145 C144 1.344 . S
O146 Co138 2.055 . S
O146 C150 1.253 . S
H147 C143 0.931 . S
H148 C144 0.930 . S
O149 Co138 2.039 . S
O149 C139 1.265 . S
C150 O146 1.253 . S
C150 O151 1.227 . S
O151 C150 1.227 . S
N152 Co138 2.140 . S
N152 C155 1.346 . S
N152 C156 1.345 . S
C153 C154 1.387 . S
C153 C157 1.391 . S
C154 C153 1.387 . S
C154 C155 1.369 . S
C154 H163 0.929 . S
C155 N152 1.346 . S
C155 C154 1.369 . S
C155 H158 0.928 . S
C156 N152 1.345 . S
C156 C157 1.371 . S
C156 H159 0.931 . S
C157 C153 1.391 . S
C157 C156 1.371 . S
C157 H164 0.930 . S
H158 C155 0.928 . S
H159 C156 0.931 . S
H160 C136 0.930 . S
H161 C133 0.930 . S
H162 C142 0.930 . S
H163 C154 0.929 . S
H164 C157 0.930 . S
C165 C166 1.351 . S
C165 N168 1.368 . S
C165 H170 0.931 . S
C166 C165 1.351 . S
C166 N167 1.373 . S
C166 H194 0.930 . S
N167 C166 1.373 . S
N167 C169 1.340 . S
N168 C165 1.368 . S
N168 C169 1.321 . S
N168 Co171 2.135 . S
C169 N167 1.340 . S
C169 N168 1.321 . S
C169 H193 0.930 . S
H170 C165 0.931 . S
Co171 N168 2.135 . S
Co171 N174 2.121 . S
Co171 O179 2.055 . S
Co171 O182 2.039 . S
Co171 N185 2.140 . S
C172 O173 1.227 . S
C172 O182 1.265 . S
O173 C172 1.227 . S
N174 Co171 2.121 . S
N174 C176 1.375 . S
N174 C177 1.313 . S
C175 C176 1.338 . S
C175 N178 1.377 . S
C175 H195 0.930 . S
C176 N174 1.375 . S
C176 C175 1.338 . S
C176 H180 0.931 . S
C177 N174 1.313 . S
C177 N178 1.344 . S
C177 H181 0.930 . S
N178 C175 1.377 . S
N178 C177 1.344 . S
O179 Co171 2.055 . S
O179 C183 1.253 . S
H180 C176 0.931 . S
H181 C177 0.930 . S
O182 Co171 2.039 . S
O182 C172 1.265 . S
C183 O179 1.253 . S
C183 O184 1.227 . S
O184 C183 1.227 . S
N185 Co171 2.140 . S
N185 C188 1.346 . S
N185 C189 1.345 . S
C186 C187 1.387 . S
C186 C190 1.391 . S
C187 C186 1.387 . S
C187 C188 1.369 . S
C187 H196 0.929 . S
C188 N185 1.346 . S
C188 C187 1.369 . S
C188 H191 0.928 . S
C189 N185 1.345 . S
C189 C190 1.371 . S
C189 H192 0.931 . S
C190 C186 1.391 . S
C190 C189 1.371 . S
C190 H197 0.930 . S
H191 C188 0.928 . S
H192 C189 0.931 . S
H193 C169 0.930 . S
H194 C166 0.930 . S
H195 C175 0.930 . S
H196 C187 0.929 . S
H197 C190 0.930 . S
C198 C199 1.351 . S
C198 N201 1.368 . S
C198 H203 0.931 . S
C199 C198 1.351 . S
C199 N200 1.373 . S
C199 H227 0.930 . S
N200 C199 1.373 . S
N200 C202 1.340 . S
N201 C198 1.368 . S
N201 C202 1.321 . S
N201 Co204 2.135 . S
C202 N200 1.340 . S
C202 N201 1.321 . S
C202 H226 0.930 . S
H203 C198 0.931 . S
Co204 N201 2.135 . S
Co204 N207 2.121 . S
Co204 O212 2.055 . S
Co204 O215 2.039 . S
Co204 N218 2.140 . S
C205 O206 1.227 . S
C205 O215 1.265 . S
O206 C205 1.227 . S
N207 Co204 2.121 . S
N207 C209 1.375 . S
N207 C210 1.313 . S
C208 C209 1.338 . S
C208 N211 1.377 . S
C208 H228 0.930 . S
C209 N207 1.375 . S
C209 C208 1.338 . S
C209 H213 0.931 . S
C210 N207 1.313 . S
C210 N211 1.344 . S
C210 H214 0.930 . S
N211 C208 1.377 . S
N211 C210 1.344 . S
O212 Co204 2.055 . S
O212 C216 1.253 . S
H213 C209 0.931 . S
H214 C210 0.930 . S
O215 Co204 2.039 . S
O215 C205 1.265 . S
C216 O212 1.253 . S
C216 O217 1.227 . S
O217 C216 1.227 . S
N218 Co204 2.140 . S
N218 C221 1.346 . S
N218 C222 1.345 . S
C219 C220 1.387 . S
C219 C223 1.391 . S
C220 C219 1.387 . S
C220 C221 1.369 . S
C220 H229 0.929 . S
C221 N218 1.346 . S
C221 C220 1.369 . S
C221 H224 0.928 . S
C222 N218 1.345 . S
C222 C223 1.371 . S
C222 H225 0.931 . S
C223 C219 1.391 . S
C223 C222 1.371 . S
C223 H230 0.930 . S
H224 C221 0.928 . S
H225 C222 0.931 . S
H226 C202 0.930 . S
H227 C199 0.930 . S
H228 C208 0.930 . S
H229 C220 0.929 . S
H230 C223 0.930 . S
C231 C232 1.351 . S
C231 N234 1.368 . S
C231 H236 0.931 . S
C232 C231 1.351 . S
C232 N233 1.373 . S
C232 H260 0.930 . S
N233 C232 1.373 . S
N233 C235 1.340 . S
N234 C231 1.368 . S
N234 C235 1.321 . S
N234 Co237 2.135 . S
C235 N233 1.340 . S
C235 N234 1.321 . S
C235 H259 0.930 . S
H236 C231 0.931 . S
Co237 N234 2.135 . S
Co237 N240 2.121 . S
Co237 O245 2.055 . S
Co237 O248 2.039 . S
Co237 N251 2.140 . S
C238 O239 1.227 . S
C238 O248 1.265 . S
O239 C238 1.227 . S
N240 Co237 2.121 . S
N240 C242 1.375 . S
N240 C243 1.313 . S
C241 C242 1.338 . S
C241 N244 1.377 . S
C241 H261 0.930 . S
C242 N240 1.375 . S
C242 C241 1.338 . S
C242 H246 0.931 . S
C243 N240 1.313 . S
C243 N244 1.344 . S
C243 H247 0.930 . S
N244 C241 1.377 . S
N244 C243 1.344 . S
O245 Co237 2.055 . S
O245 C249 1.253 . S
H246 C242 0.931 . S
H247 C243 0.930 . S
O248 Co237 2.039 . S
O248 C238 1.265 . S
C249 O245 1.253 . S
C249 O250 1.227 . S
O250 C249 1.227 . S
N251 Co237 2.140 . S
N251 C254 1.346 . S
N251 C255 1.345 . S
C252 C253 1.387 . S
C252 C256 1.391 . S
C253 C252 1.387 . S
C253 C254 1.369 . S
C253 H262 0.929 . S
C254 N251 1.346 . S
C254 C253 1.369 . S
C254 H257 0.928 . S
C255 N251 1.345 . S
C255 C256 1.371 . S
C255 H258 0.931 . S
C256 C252 1.391 . S
C256 C255 1.371 . S
C256 H263 0.930 . S
H257 C254 0.928 . S
H258 C255 0.931 . S
H259 C235 0.930 . S
H260 C232 0.930 . S
H261 C241 0.930 . S
H262 C253 0.929 . S
H263 C256 0.930 . S
C264 C265 1.351 . S
C264 N267 1.368 . S
C264 H269 0.931 . S
C265 C264 1.351 . S
C265 N266 1.373 . S
C265 H293 0.930 . S
N266 C265 1.373 . S
N266 C268 1.340 . S
N267 C264 1.368 . S
N267 C268 1.321 . S
N267 Co270 2.135 . S
C268 N266 1.340 . S
C268 N267 1.321 . S
C268 H292 0.930 . S
H269 C264 0.931 . S
Co270 N267 2.135 . S
Co270 N273 2.121 . S
Co270 O278 2.055 . S
Co270 O281 2.039 . S
Co270 N284 2.140 . S
C271 O272 1.227 . S
C271 O281 1.265 . S
O272 C271 1.227 . S
N273 Co270 2.121 . S
N273 C275 1.375 . S
N273 C276 1.313 . S
C274 C275 1.338 . S
C274 N277 1.377 . S
C274 H294 0.930 . S
C275 N273 1.375 . S
C275 C274 1.338 . S
C275 H279 0.931 . S
C276 N273 1.313 . S
C276 N277 1.344 . S
C276 H280 0.930 . S
N277 C274 1.377 . S
N277 C276 1.344 . S
O278 Co270 2.055 . S
O278 C282 1.253 . S
H279 C275 0.931 . S
H280 C276 0.930 . S
O281 Co270 2.039 . S
O281 C271 1.265 . S
C282 O278 1.253 . S
C282 O283 1.227 . S
O283 C282 1.227 . S
N284 Co270 2.140 . S
N284 C287 1.346 . S
N284 C288 1.345 . S
C285 C286 1.387 . S
C285 C289 1.391 . S
C286 C285 1.387 . S
C286 C287 1.369 . S
C286 H295 0.929 . S
C287 N284 1.346 . S
C287 C286 1.369 . S
C287 H290 0.928 . S
C288 N284 1.345 . S
C288 C289 1.371 . S
C288 H291 0.931 . S
C289 C285 1.391 . S
C289 C288 1.371 . S
C289 H296 0.930 . S
H290 C287 0.928 . S
H291 C288 0.931 . S
H292 C268 0.930 . S
H293 C265 0.930 . S
H294 C274 0.930 . S
H295 C286 0.929 . S
H296 C289 0.930 . S
C297 C298 1.351 . S
C297 N300 1.368 . S
C297 H302 0.931 . S
C298 C297 1.351 . S
C298 N299 1.373 . S
C298 H326 0.930 . S
N299 C298 1.373 . S
N299 C301 1.340 . S
N300 C297 1.368 . S
N300 C301 1.321 . S
N300 Co303 2.135 . S
C301 N299 1.340 . S
C301 N300 1.321 . S
C301 H325 0.930 . S
H302 C297 0.931 . S
Co303 N300 2.135 . S
Co303 N306 2.121 . S
Co303 O311 2.055 . S
Co303 O314 2.039 . S
Co303 N317 2.140 . S
C304 O305 1.227 . S
C304 O314 1.265 . S
O305 C304 1.227 . S
N306 Co303 2.121 . S
N306 C308 1.375 . S
N306 C309 1.313 . S
C307 C308 1.338 . S
C307 N310 1.377 . S
C307 H327 0.930 . S
C308 N306 1.375 . S
C308 C307 1.338 . S
C308 H312 0.931 . S
C309 N306 1.313 . S
C309 N310 1.344 . S
C309 H313 0.930 . S
N310 C307 1.377 . S
N310 C309 1.344 . S
O311 Co303 2.055 . S
O311 C315 1.253 . S
H312 C308 0.931 . S
H313 C309 0.930 . S
O314 Co303 2.039 . S
O314 C304 1.265 . S
C315 O311 1.253 . S
C315 O316 1.227 . S
O316 C315 1.227 . S
N317 Co303 2.140 . S
N317 C320 1.346 . S
N317 C321 1.345 . S
C318 C319 1.387 . S
C318 C322 1.391 . S
C319 C318 1.387 . S
C319 C320 1.369 . S
C319 H328 0.929 . S
C320 N317 1.346 . S
C320 C319 1.369 . S
C320 H323 0.928 . S
C321 N317 1.345 . S
C321 C322 1.371 . S
C321 H324 0.931 . S
C322 C318 1.391 . S
C322 C321 1.371 . S
C322 H329 0.930 . S
H323 C320 0.928 . S
H324 C321 0.931 . S
H325 C301 0.930 . S
H326 C298 0.930 . S
H327 C307 0.930 . S
H328 C319 0.929 . S
H329 C322 0.930 . S
C330 C331 1.351 . S
C330 N333 1.368 . S
C330 H335 0.931 . S
C331 C330 1.351 . S
C331 N332 1.373 . S
C331 H359 0.930 . S
N332 C331 1.373 . S
N332 C334 1.340 . S
N333 C330 1.368 . S
N333 C334 1.321 . S
N333 Co336 2.135 . S
C334 N332 1.340 . S
C334 N333 1.321 . S
C334 H358 0.930 . S
H335 C330 0.931 . S
Co336 N333 2.135 . S
Co336 N339 2.121 . S
Co336 O344 2.055 . S
Co336 O347 2.039 . S
Co336 N350 2.140 . S
C337 O338 1.227 . S
C337 O347 1.265 . S
O338 C337 1.227 . S
N339 Co336 2.121 . S
N339 C341 1.375 . S
N339 C342 1.313 . S
C340 C341 1.338 . S
C340 N343 1.377 . S
C340 H360 0.930 . S
C341 N339 1.375 . S
C341 C340 1.338 . S
C341 H345 0.931 . S
C342 N339 1.313 . S
C342 N343 1.344 . S
C342 H346 0.930 . S
N343 C340 1.377 . S
N343 C342 1.344 . S
O344 Co336 2.055 . S
O344 C348 1.253 . S
H345 C341 0.931 . S
H346 C342 0.930 . S
O347 Co336 2.039 . S
O347 C337 1.265 . S
C348 O344 1.253 . S
C348 O349 1.227 . S
O349 C348 1.227 . S
N350 Co336 2.140 . S
N350 C353 1.346 . S
N350 C354 1.345 . S
C351 C352 1.387 . S
C351 C355 1.391 . S
C352 C351 1.387 . S
C352 C353 1.369 . S
C352 H361 0.929 . S
C353 N350 1.346 . S
C353 C352 1.369 . S
C353 H356 0.928 . S
C354 N350 1.345 . S
C354 C355 1.371 . S
C354 H357 0.931 . S
C355 C351 1.391 . S
C355 C354 1.371 . S
C355 H362 0.930 . S
H356 C353 0.928 . S
H357 C354 0.931 . S
H358 C334 0.930 . S
H359 C331 0.930 . S
H360 C340 0.930 . S
H361 C352 0.929 . S
H362 C355 0.930 . S
C363 C364 1.351 . S
C363 N366 1.368 . S
C363 H368 0.931 . S
C364 C363 1.351 . S
C364 N365 1.373 . S
C364 H392 0.930 . S
N365 C364 1.373 . S
N365 C367 1.340 . S
N366 C363 1.368 . S
N366 C367 1.321 . S
N366 Co369 2.135 . S
C367 N365 1.340 . S
C367 N366 1.321 . S
C367 H391 0.930 . S
H368 C363 0.931 . S
Co369 N366 2.135 . S
Co369 N372 2.121 . S
Co369 O377 2.055 . S
Co369 O380 2.039 . S
Co369 N383 2.140 . S
C370 O371 1.227 . S
C370 O380 1.265 . S
O371 C370 1.227 . S
N372 Co369 2.121 . S
N372 C374 1.375 . S
N372 C375 1.313 . S
C373 C374 1.338 . S
C373 N376 1.377 . S
C373 H393 0.930 . S
C374 N372 1.375 . S
C374 C373 1.338 . S
C374 H378 0.931 . S
C375 N372 1.313 . S
C375 N376 1.344 . S
C375 H379 0.930 . S
N376 C373 1.377 . S
N376 C375 1.344 . S
O377 Co369 2.055 . S
O377 C381 1.253 . S
H378 C374 0.931 . S
H379 C375 0.930 . S
O380 Co369 2.039 . S
O380 C370 1.265 . S
C381 O377 1.253 . S
C381 O382 1.227 . S
O382 C381 1.227 . S
N383 Co369 2.140 . S
N383 C386 1.346 . S
N383 C387 1.345 . S
C384 C385 1.387 . S
C384 C388 1.391 . S
C385 C384 1.387 . S
C385 C386 1.369 . S
C385 H394 0.929 . S
C386 N383 1.346 . S
C386 C385 1.369 . S
C386 H389 0.928 . S
C387 N383 1.345 . S
C387 C388 1.371 . S
C387 H390 0.931 . S
C388 C384 1.391 . S
C388 C387 1.371 . S
C388 H395 0.930 . S
H389 C386 0.928 . S
H390 C387 0.931 . S
H391 C367 0.930 . S
H392 C364 0.930 . S
H393 C373 0.930 . S
H394 C385 0.929 . S
H395 C388 0.930 . S
H396 C402 0.930 . S
H397 C405 0.930 . S
H398 C406 0.930 . S
H399 C407 0.930 . S
H400 C410 0.930 . S
H401 C411 0.930 . S
C402 H396 0.930 . S
C402 C403 1.355 . S
C402 C404 1.415 . S
C403 C402 1.355 . S
C403 C405 1.419 . S
C404 C402 1.415 . S
C404 C409 1.425 1_554 S
C404 C411 1.409 1_554 S
C405 H397 0.930 . S
C405 C403 1.419 . S
C405 C406 1.362 . S
C406 H398 0.930 . S
C406 C405 1.362 . S
C406 C409 1.409 1_554 S
C407 H399 0.930 . S
C407 C408 1.355 . S
C407 C409 1.415 . S
C408 C407 1.355 . S
C408 C410 1.419 . S
C409 C404 1.425 1_556 S
C409 C406 1.409 1_556 S
C409 C407 1.415 . S
C410 H400 0.930 . S
C410 C408 1.419 . S
C410 C411 1.362 . S
C411 H401 0.930 . S
C411 C404 1.409 1_556 S
C411 C410 1.362 . S
H412 C418 0.930 . S
H413 C421 0.930 . S
H414 C422 0.930 . S
H415 C423 0.930 . S
H416 C426 0.930 . S
H417 C427 0.930 . S
C418 H412 0.930 . S
C418 C419 1.355 . S
C418 C420 1.415 . S
C419 C418 1.355 . S
C419 C421 1.419 . S
C420 C418 1.415 . S
C420 C425 1.425 . S
C420 C427 1.409 . S
C421 H413 0.930 . S
C421 C419 1.419 . S
C421 C422 1.362 . S
C422 H414 0.930 . S
C422 C421 1.362 . S
C422 C425 1.409 . S
C423 H415 0.930 . S
C423 C424 1.355 . S
C423 C425 1.415 . S
C424 C423 1.355 . S
C424 C426 1.419 . S
C425 C420 1.425 . S
C425 C422 1.409 . S
C425 C423 1.415 . S
C426 H416 0.930 . S
C426 C424 1.419 . S
C426 C427 1.362 . S
C427 H417 0.930 . S
C427 C420 1.409 . S
C427 C426 1.362 . S
H428 C434 0.930 . S
H429 C437 0.930 . S
H430 C438 0.930 . S
H431 C439 0.930 . S
H432 C442 0.930 . S
H433 C443 0.930 . S
C434 H428 0.930 . S
C434 C435 1.355 . S
C434 C436 1.415 1_554 S
C435 C434 1.355 . S
C435 C437 1.419 . S
C436 C434 1.415 1_556 S
C436 C441 1.425 1_556 S
C436 C443 1.409 . S
C437 H429 0.930 . S
C437 C435 1.419 . S
C437 C438 1.362 . S
C438 H430 0.930 . S
C438 C437 1.362 . S
C438 C441 1.409 . S
C439 H431 0.930 . S
C439 C440 1.355 . S
C439 C441 1.415 1_556 S
C440 C439 1.355 . S
C440 C442 1.419 . S
C441 C436 1.425 1_554 S
C441 C438 1.409 . S
C441 C439 1.415 1_554 S
C442 H432 0.930 . S
C442 C440 1.419 . S
C442 C443 1.362 . S
C443 H433 0.930 . S
C443 C436 1.409 . S
C443 C442 1.362 . S
H444 C450 0.930 . S
H445 C453 0.930 . S
H446 C454 0.930 . S
H447 C455 0.930 . S
H448 C458 0.930 . S
H449 C459 0.930 . S
C450 H444 0.930 . S
C450 C451 1.355 . S
C450 C452 1.415 . S
C451 C450 1.355 . S
C451 C453 1.419 . S
C452 C450 1.415 . S
C452 C457 1.425 . S
C452 C459 1.409 . S
C453 H445 0.930 . S
C453 C451 1.419 . S
C453 C454 1.362 . S
C454 H446 0.930 . S
C454 C453 1.362 . S
C454 C457 1.409 . S
C455 H447 0.930 . S
C455 C456 1.355 . S
C455 C457 1.415 . S
C456 C455 1.355 . S
C456 C458 1.419 . S
C457 C452 1.425 . S
C457 C454 1.409 . S
C457 C455 1.415 . S
C458 H448 0.930 . S
C458 C456 1.419 . S
C458 C459 1.362 . S
C459 H449 0.930 . S
C459 C452 1.409 . S
C459 C458 1.362 . S
H460 C466 0.930 . S
H461 C469 0.930 . S
H462 C470 0.930 . S
H463 C471 0.930 . S
H464 C474 0.930 . S
H465 C475 0.930 . S
C466 H460 0.930 . S
C466 C467 1.355 . S
C466 C468 1.415 . S
C467 C466 1.355 . S
C467 C469 1.419 . S
C468 C466 1.415 . S
C468 C473 1.425 1_554 S
C468 C475 1.409 1_554 S
C469 H461 0.930 . S
C469 C467 1.419 . S
C469 C470 1.362 . S
C470 H462 0.930 . S
C470 C469 1.362 . S
C470 C473 1.409 1_554 S
C471 H463 0.930 . S
C471 C472 1.355 . S
C471 C473 1.415 . S
C472 C471 1.355 . S
C472 C474 1.419 . S
C473 C468 1.425 1_556 S
C473 C470 1.409 1_556 S
C473 C471 1.415 . S
C474 H464 0.930 . S
C474 C472 1.419 . S
C474 C475 1.362 . S
C475 H465 0.930 . S
C475 C468 1.409 1_556 S
C475 C474 1.362 . S
H476 C482 0.930 . S
H477 C485 0.930 . S
H478 C486 0.930 . S
H479 C487 0.930 . S
H480 C490 0.930 . S
H481 C491 0.930 . S
C482 H476 0.930 . S
C482 C483 1.355 . S
C482 C484 1.415 . S
C483 C482 1.355 . S
C483 C485 1.419 . S
C484 C482 1.415 . S
C484 C489 1.425 . S
C484 C491 1.409 . S
C485 H477 0.930 . S
C485 C483 1.419 . S
C485 C486 1.362 . S
C486 H478 0.930 . S
C486 C485 1.362 . S
C486 C489 1.409 . S
C487 H479 0.930 . S
C487 C488 1.355 . S
C487 C489 1.415 . S
C488 C487 1.355 . S
C488 C490 1.419 . S
C489 C484 1.425 . S
C489 C486 1.409 . S
C489 C487 1.415 . S
C490 H480 0.930 . S
C490 C488 1.419 . S
C490 C491 1.362 . S
C491 H481 0.930 . S
C491 C484 1.409 . S
C491 C490 1.362 . S
H492 C498 0.930 1_556 S
H493 C501 0.930 . S
H494 C502 0.930 . S
H495 C503 0.930 1_554 S
H496 C506 0.930 . S
H497 C507 0.930 . S
C498 H492 0.930 1_554 S
C498 C499 1.355 . S
C498 C500 1.415 1_554 S
C499 C498 1.355 . S
C499 C501 1.419 . S
C500 C498 1.415 1_556 S
C500 C505 1.425 1_556 S
C500 C507 1.409 . S
C501 H493 0.930 . S
C501 C499 1.419 . S
C501 C502 1.362 . S
C502 H494 0.930 . S
C502 C501 1.362 . S
C502 C505 1.409 . S
C503 H495 0.930 1_556 S
C503 C504 1.355 . S
C503 C505 1.415 1_556 S
C504 C503 1.355 . S
C504 C506 1.419 . S
C505 C500 1.425 1_554 S
C505 C502 1.409 . S
C505 C503 1.415 1_554 S
C506 H496 0.930 . S
C506 C504 1.419 . S
C506 C507 1.362 . S
C507 H497 0.930 . S
C507 C500 1.409 . S
C507 C506 1.362 . S
H508 C514 0.930 . S
H509 C517 0.930 . S
H510 C518 0.930 . S
H511 C519 0.930 . S
H512 C522 0.930 . S
H513 C523 0.930 . S
C514 H508 0.930 . S
C514 C515 1.355 . S
C514 C516 1.415 . S
C515 C514 1.355 . S
C515 C517 1.419 . S
C516 C514 1.415 . S
C516 C521 1.425 . S
C516 C523 1.409 . S
C517 H509 0.930 . S
C517 C515 1.419 . S
C517 C518 1.362 . S
C518 H510 0.930 . S
C518 C517 1.362 . S
C518 C521 1.409 . S
C519 H511 0.930 . S
C519 C520 1.355 . S
C519 C521 1.415 . S
C520 C519 1.355 . S
C520 C522 1.419 . S
C521 C516 1.425 . S
C521 C518 1.409 . S
C521 C519 1.415 . S
C522 H512 0.930 . S
C522 C520 1.419 . S
C522 C523 1.362 . S
C523 H513 0.930 . S
C523 C516 1.409 . S
C523 C522 1.362 . S
H524 C530 0.930 . S
H525 C533 0.930 . S
H526 C534 0.930 . S
H527 C535 0.930 . S
H528 C538 0.930 . S
H529 C539 0.930 . S
C530 H524 0.930 . S
C530 C531 1.355 . S
C530 C532 1.415 . S
C531 C530 1.355 . S
C531 C533 1.419 . S
C532 C530 1.415 . S
C532 C537 1.425 1_554 S
C532 C539 1.409 1_554 S
C533 H525 0.930 . S
C533 C531 1.419 . S
C533 C534 1.362 . S
C534 H526 0.930 . S
C534 C533 1.362 . S
C534 C537 1.409 1_554 S
C535 H527 0.930 . S
C535 C536 1.355 . S
C535 C537 1.415 . S
C536 C535 1.355 . S
C536 C538 1.419 . S
C537 C532 1.425 1_556 S
C537 C534 1.409 1_556 S
C537 C535 1.415 . S
C538 H528 0.930 . S
C538 C536 1.419 . S
C538 C539 1.362 . S
C539 H529 0.930 . S
C539 C532 1.409 1_556 S
C539 C538 1.362 . S
H540 C546 0.930 . S
H541 C549 0.930 . S
H542 C550 0.930 . S
H543 C551 0.930 . S
H544 C554 0.930 . S
H545 C555 0.930 . S
C546 H540 0.930 . S
C546 C547 1.355 . S
C546 C548 1.415 . S
C547 C546 1.355 . S
C547 C549 1.419 . S
C548 C546 1.415 . S
C548 C553 1.425 . S
C548 C555 1.409 . S
C549 H541 0.930 . S
C549 C547 1.419 . S
C549 C550 1.362 . S
C550 H542 0.930 . S
C550 C549 1.362 . S
C550 C553 1.409 . S
C551 H543 0.930 . S
C551 C552 1.355 . S
C551 C553 1.415 . S
C552 C551 1.355 . S
C552 C554 1.419 . S
C553 C548 1.425 . S
C553 C550 1.409 . S
C553 C551 1.415 . S
C554 H544 0.930 . S
C554 C552 1.419 . S
C554 C555 1.362 . S
C555 H545 0.930 . S
C555 C548 1.409 . S
C555 C554 1.362 . S
H556 C562 0.930 . S
H557 C565 0.930 . S
H558 C566 0.930 . S
H559 C567 0.930 . S
H560 C570 0.930 . S
H561 C571 0.930 . S
C562 H556 0.930 . S
C562 C563 1.355 . S
C562 C564 1.415 . S
C563 C562 1.355 . S
C563 C565 1.419 . S
C564 C562 1.415 . S
C564 C569 1.425 1_554 S
C564 C571 1.409 . S
C565 H557 0.930 . S
C565 C563 1.419 . S
C565 C566 1.362 1_554 S
C566 H558 0.930 . S
C566 C565 1.362 1_556 S
C566 C569 1.409 . S
C567 H559 0.930 . S
C567 C568 1.355 . S
C567 C569 1.415 . S
C568 C567 1.355 . S
C568 C570 1.419 . S
C569 C564 1.425 1_556 S
C569 C566 1.409 . S
C569 C567 1.415 . S
C570 H560 0.930 . S
C570 C568 1.419 . S
C570 C571 1.362 1_556 S
C571 H561 0.930 . S
C571 C564 1.409 . S
C571 C570 1.362 1_554 S
H572 C578 0.930 . S
H573 C581 0.930 . S
H574 C582 0.930 . S
H575 C583 0.930 . S
H576 C586 0.930 . S
H577 C587 0.930 . S
C578 H572 0.930 . S
C578 C579 1.355 . S
C578 C580 1.415 . S
C579 C578 1.355 . S
C579 C581 1.419 . S
C580 C578 1.415 . S
C580 C585 1.425 . S
C580 C587 1.409 . S
C581 H573 0.930 . S
C581 C579 1.419 . S
C581 C582 1.362 . S
C582 H574 0.930 . S
C582 C581 1.362 . S
C582 C585 1.409 . S
C583 H575 0.930 . S
C583 C584 1.355 . S
C583 C585 1.415 . S
C584 C583 1.355 . S
C584 C586 1.419 . S
C585 C580 1.425 . S
C585 C582 1.409 . S
C585 C583 1.415 . S
C586 H576 0.930 . S
C586 C584 1.419 . S
C586 C587 1.362 . S
C587 H577 0.930 . S
C587 C580 1.409 . S
C587 C586 1.362 . S
H588 C594 0.930 . S
H589 C597 0.930 . S
H590 C598 0.930 . S
H591 C599 0.930 . S
H592 C602 0.930 . S
H593 C603 0.930 . S
C594 H588 0.930 . S
C594 C595 1.355 . S
C594 C596 1.415 1_556 S
C595 C594 1.355 . S
C595 C597 1.419 . S
C596 C594 1.415 1_554 S
C596 C601 1.425 1_554 S
C596 C603 1.409 . S
C597 H589 0.930 . S
C597 C595 1.419 . S
C597 C598 1.362 . S
C598 H590 0.930 . S
C598 C597 1.362 . S
C598 C601 1.409 . S
C599 H591 0.930 . S
C599 C600 1.355 . S
C599 C601 1.415 1_554 S
C600 C599 1.355 . S
C600 C602 1.419 . S
C601 C596 1.425 1_556 S
C601 C598 1.409 . S
C601 C599 1.415 1_556 S
C602 H592 0.930 . S
C602 C600 1.419 . S
C602 C603 1.362 . S
C603 H593 0.930 . S
C603 C596 1.409 . S
C603 C602 1.362 . S
H604 C610 0.930 . S
H605 C613 0.930 . S
H606 C614 0.930 . S
H607 C615 0.930 . S
H608 C618 0.930 . S
H609 C619 0.930 . S
C610 H604 0.930 . S
C610 C611 1.355 . S
C610 C612 1.415 . S
C611 C610 1.355 . S
C611 C613 1.419 . S
C612 C610 1.415 . S
C612 C617 1.425 . S
C612 C619 1.409 . S
C613 H605 0.930 . S
C613 C611 1.419 . S
C613 C614 1.362 . S
C614 H606 0.930 . S
C614 C613 1.362 . S
C614 C617 1.409 . S
C615 H607 0.930 . S
C615 C616 1.355 . S
C615 C617 1.415 . S
C616 C615 1.355 . S
C616 C618 1.419 . S
C617 C612 1.425 . S
C617 C614 1.409 . S
C617 C615 1.415 . S
C618 H608 0.930 . S
C618 C616 1.419 . S
C618 C619 1.362 . S
C619 H609 0.930 . S
C619 C612 1.409 . S
C619 C618 1.362 . S
H620 C626 0.930 . S
H621 C629 0.930 . S
H622 C630 0.930 . S
H623 C631 0.930 . S
H624 C634 0.930 . S
H625 C635 0.930 . S
C626 H620 0.930 . S
C626 C627 1.355 . S
C626 C628 1.415 . S
C627 C626 1.355 . S
C627 C629 1.419 . S
C628 C626 1.415 . S
C628 C633 1.425 1_554 S
C628 C635 1.409 . S
C629 H621 0.930 . S
C629 C627 1.419 . S
C629 C630 1.362 1_554 S
C630 H622 0.930 . S
C630 C629 1.362 1_556 S
C630 C633 1.409 . S
C631 H623 0.930 . S
C631 C632 1.355 . S
C631 C633 1.415 . S
C632 C631 1.355 . S
C632 C634 1.419 . S
C633 C628 1.425 1_556 S
C633 C630 1.409 . S
C633 C631 1.415 . S
C634 H624 0.930 . S
C634 C632 1.419 . S
C634 C635 1.362 1_556 S
C635 H625 0.930 . S
C635 C628 1.409 . S
C635 C634 1.362 1_554 S
H636 C642 0.930 . S
H637 C645 0.930 . S
H638 C646 0.930 . S
H639 C647 0.930 . S
H640 C650 0.930 . S
H641 C651 0.930 . S
C642 H636 0.930 . S
C642 C643 1.355 . S
C642 C644 1.415 . S
C643 C642 1.355 . S
C643 C645 1.419 . S
C644 C642 1.415 . S
C644 C649 1.425 . S
C644 C651 1.409 . S
C645 H637 0.930 . S
C645 C643 1.419 . S
C645 C646 1.362 . S
C646 H638 0.930 . S
C646 C645 1.362 . S
C646 C649 1.409 . S
C647 H639 0.930 . S
C647 C648 1.355 . S
C647 C649 1.415 . S
C648 C647 1.355 . S
C648 C650 1.419 . S
C649 C644 1.425 . S
C649 C646 1.409 . S
C649 C647 1.415 . S
C650 H640 0.930 . S
C650 C648 1.419 . S
C650 C651 1.362 . S
C651 H641 0.930 . S
C651 C644 1.409 . S
C651 C650 1.362 . S
H652 C658 0.930 . S
H653 C661 0.930 . S
H654 C662 0.930 . S
H655 C663 0.930 . S
H656 C666 0.930 . S
H657 C667 0.930 . S
C658 H652 0.930 . S
C658 C659 1.355 . S
C658 C660 1.415 1_554 S
C659 C658 1.355 . S
C659 C661 1.419 . S
C660 C658 1.415 1_556 S
C660 C665 1.425 1_556 S
C660 C667 1.409 . S
C661 H653 0.930 . S
C661 C659 1.419 . S
C661 C662 1.362 . S
C662 H654 0.930 . S
C662 C661 1.362 . S
C662 C665 1.409 . S
C663 H655 0.930 . S
C663 C664 1.355 . S
C663 C665 1.415 1_556 S
C664 C663 1.355 . S
C664 C666 1.419 . S
C665 C660 1.425 1_554 S
C665 C662 1.409 . S
C665 C663 1.415 1_554 S
C666 H656 0.930 . S
C666 C664 1.419 . S
C666 C667 1.362 . S
C667 H657 0.930 . S
C667 C660 1.409 . S
C667 C666 1.362 . S
H668 C674 0.930 . S
H669 C677 0.930 . S
H670 C678 0.930 . S
H671 C679 0.930 . S
H672 C682 0.930 . S
H673 C683 0.930 . S
C674 H668 0.930 . S
C674 C675 1.355 . S
C674 C676 1.415 . S
C675 C674 1.355 . S
C675 C677 1.419 . S
C676 C674 1.415 . S
C676 C681 1.425 . S
C676 C683 1.409 . S
C677 H669 0.930 . S
C677 C675 1.419 . S
C677 C678 1.362 . S
C678 H670 0.930 . S
C678 C677 1.362 . S
C678 C681 1.409 . S
C679 H671 0.930 . S
C679 C680 1.355 . S
C679 C681 1.415 . S
C680 C679 1.355 . S
C680 C682 1.419 . S
C681 C676 1.425 . S
C681 C678 1.409 . S
C681 C679 1.415 . S
C682 H672 0.930 . S
C682 C680 1.419 . S
C682 C683 1.362 . S
C683 H673 0.930 . S
C683 C676 1.409 . S
C683 C682 1.362 . S
H684 C690 0.930 . S
H685 C693 0.930 . S
H686 C694 0.930 . S
H687 C695 0.930 . S
H688 C698 0.930 . S
H689 C699 0.930 . S
C690 H684 0.930 . S
C690 C691 1.355 . S
C690 C692 1.415 1_556 S
C691 C690 1.355 . S
C691 C693 1.419 . S
C692 C690 1.415 1_554 S
C692 C697 1.425 1_554 S
C692 C699 1.409 . S
C693 H685 0.930 . S
C693 C691 1.419 . S
C693 C694 1.362 . S
C694 H686 0.930 . S
C694 C693 1.362 . S
C694 C697 1.409 . S
C695 H687 0.930 . S
C695 C696 1.355 . S
C695 C697 1.415 1_554 S
C696 C695 1.355 . S
C696 C698 1.419 . S
C697 C692 1.425 1_556 S
C697 C694 1.409 . S
C697 C695 1.415 1_556 S
C698 H688 0.930 . S
C698 C696 1.419 . S
C698 C699 1.362 . S
C699 H689 0.930 . S
C699 C692 1.409 . S
C699 C698 1.362 . S
H700 C706 0.930 . S
H701 C709 0.930 . S
H702 C710 0.930 . S
H703 C711 0.930 . S
H704 C714 0.930 . S
H705 C715 0.930 . S
C706 H700 0.930 . S
C706 C707 1.355 . S
C706 C708 1.415 . S
C707 C706 1.355 . S
C707 C709 1.419 . S
C708 C706 1.415 . S
C708 C713 1.425 . S
C708 C715 1.409 . S
C709 H701 0.930 . S
C709 C707 1.419 . S
C709 C710 1.362 . S
C710 H702 0.930 . S
C710 C709 1.362 . S
C710 C713 1.409 . S
C711 H703 0.930 . S
C711 C712 1.355 . S
C711 C713 1.415 . S
C712 C711 1.355 . S
C712 C714 1.419 . S
C713 C708 1.425 . S
C713 C710 1.409 . S
C713 C711 1.415 . S
C714 H704 0.930 . S
C714 C712 1.419 . S
C714 C715 1.362 . S
C715 H705 0.930 . S
C715 C708 1.409 . S
C715 C714 1.362 . S
H716 C722 0.930 . S
H717 C725 0.930 . S
H718 C726 0.930 . S
H719 C727 0.930 . S
H720 C730 0.930 . S
H721 C731 0.930 . S
C722 H716 0.930 . S
C722 C723 1.355 . S
C722 C724 1.415 . S
C723 C722 1.355 . S
C723 C725 1.419 . S
C724 C722 1.415 . S
C724 C729 1.425 1_554 S
C724 C731 1.409 . S
C725 H717 0.930 . S
C725 C723 1.419 . S
C725 C726 1.362 1_554 S
C726 H718 0.930 . S
C726 C725 1.362 1_556 S
C726 C729 1.409 . S
C727 H719 0.930 . S
C727 C728 1.355 . S
C727 C729 1.415 . S
C728 C727 1.355 . S
C728 C730 1.419 . S
C729 C724 1.425 1_556 S
C729 C726 1.409 . S
C729 C727 1.415 . S
C730 H720 0.930 . S
C730 C728 1.419 . S
C730 C731 1.362 1_556 S
C731 H721 0.930 . S
C731 C724 1.409 . S
C731 C730 1.362 1_554 S
H732 C738 0.930 . S
H733 C741 0.930 . S
H734 C742 0.930 . S
H735 C743 0.930 . S
H736 C746 0.930 . S
H737 C747 0.930 . S
C738 H732 0.930 . S
C738 C739 1.355 . S
C738 C740 1.415 . S
C739 C738 1.355 . S
C739 C741 1.419 . S
C740 C738 1.415 . S
C740 C745 1.425 . S
C740 C747 1.409 . S
C741 H733 0.930 . S
C741 C739 1.419 . S
C741 C742 1.362 . S
C742 H734 0.930 . S
C742 C741 1.362 . S
C742 C745 1.409 . S
C743 H735 0.930 . S
C743 C744 1.355 . S
C743 C745 1.415 . S
C744 C743 1.355 . S
C744 C746 1.419 . S
C745 C740 1.425 . S
C745 C742 1.409 . S
C745 C743 1.415 . S
C746 H736 0.930 . S
C746 C744 1.419 . S
C746 C747 1.362 . S
C747 H737 0.930 . S
C747 C740 1.409 . S
C747 C746 1.362 . S
H748 C754 0.930 . S
H749 C757 0.930 . S
H750 C758 0.930 . S
H751 C759 0.930 . S
H752 C762 0.930 . S
H753 C763 0.930 . S
C754 H748 0.930 . S
C754 C755 1.355 . S
C754 C756 1.415 . S
C755 C754 1.355 . S
C755 C757 1.419 . S
C756 C754 1.415 . S
C756 C761 1.425 1_554 S
C756 C763 1.409 . S
C757 H749 0.930 . S
C757 C755 1.419 . S
C757 C758 1.362 1_554 S
C758 H750 0.930 . S
C758 C757 1.362 1_556 S
C758 C761 1.409 . S
C759 H751 0.930 . S
C759 C760 1.355 . S
C759 C761 1.415 . S
C760 C759 1.355 . S
C760 C762 1.419 . S
C761 C756 1.425 1_556 S
C761 C758 1.409 . S
C761 C759 1.415 . S
C762 H752 0.930 . S
C762 C760 1.419 . S
C762 C763 1.362 1_556 S
C763 H753 0.930 . S
C763 C756 1.409 . S
C763 C762 1.362 1_554 S
H764 C770 0.930 . S
H765 C773 0.930 . S
H766 C774 0.930 . S
H767 C775 0.930 . S
H768 C778 0.930 . S
H769 C779 0.930 . S
C770 H764 0.930 . S
C770 C771 1.355 . S
C770 C772 1.415 . S
C771 C770 1.355 . S
C771 C773 1.419 . S
C772 C770 1.415 . S
C772 C777 1.425 . S
C772 C779 1.409 . S
C773 H765 0.930 . S
C773 C771 1.419 . S
C773 C774 1.362 . S
C774 H766 0.930 . S
C774 C773 1.362 . S
C774 C777 1.409 . S
C775 H767 0.930 . S
C775 C776 1.355 . S
C775 C777 1.415 . S
C776 C775 1.355 . S
C776 C778 1.419 . S
C777 C772 1.425 . S
C777 C774 1.409 . S
C777 C775 1.415 . S
C778 H768 0.930 . S
C778 C776 1.419 . S
C778 C779 1.362 . S
C779 H769 0.930 . S
C779 C772 1.409 . S
C779 C778 1.362 . S
H780 C786 0.930 . S
H781 C789 0.930 . S
H782 C790 0.930 . S
H783 C791 0.930 . S
H784 C794 0.930 . S
H785 C795 0.930 . S
C786 H780 0.930 . S
C786 C787 1.355 . S
C786 C788 1.415 . S
C787 C786 1.355 . S
C787 C789 1.419 . S
C788 C786 1.415 . S
C788 C793 1.425 . S
C788 C795 1.409 . S
C789 H781 0.930 . S
C789 C787 1.419 . S
C789 C790 1.362 . S
C790 H782 0.930 . S
C790 C789 1.362 . S
C790 C793 1.409 . S
C791 H783 0.930 . S
C791 C792 1.355 . S
C791 C793 1.415 . S
C792 C791 1.355 . S
C792 C794 1.419 . S
C793 C788 1.425 . S
C793 C790 1.409 . S
C793 C791 1.415 . S
C794 H784 0.930 . S
C794 C792 1.419 . S
C794 C795 1.362 . S
C795 H785 0.930 . S
C795 C788 1.409 . S
C795 C794 1.362 . S
H796 C802 0.930 . S
H797 C805 0.930 . S
H798 C806 0.930 . S
H799 C807 0.930 . S
H800 C810 0.930 . S
H801 C811 0.930 . S
C802 H796 0.930 . S
C802 C803 1.355 . S
C802 C804 1.415 . S
C803 C802 1.355 . S
C803 C805 1.419 . S
C804 C802 1.415 . S
C804 C809 1.425 1_455 S
C804 C811 1.409 1_455 S
C805 H797 0.930 . S
C805 C803 1.419 . S
C805 C806 1.362 . S
C806 H798 0.930 . S
C806 C805 1.362 . S
C806 C809 1.409 1_455 S
C807 H799 0.930 . S
C807 C808 1.355 . S
C807 C809 1.415 . S
C808 C807 1.355 . S
C808 C810 1.419 . S
C809 C804 1.425 1_655 S
C809 C806 1.409 1_655 S
C809 C807 1.415 . S
C810 H800 0.930 . S
C810 C808 1.419 . S
C810 C811 1.362 . S
C811 H801 0.930 . S
C811 C804 1.409 1_655 S
C811 C810 1.362 . S
H812 C818 0.930 . S
H813 C821 0.930 . S
H814 C822 0.930 . S
H815 C823 0.930 . S
H816 C826 0.930 . S
H817 C827 0.930 . S
C818 H812 0.930 . S
C818 C819 1.355 . S
C818 C820 1.415 . S
C819 C818 1.355 . S
C819 C821 1.419 . S
C820 C818 1.415 . S
C820 C825 1.425 1_545 S
C820 C827 1.409 1_545 S
C821 H813 0.930 . S
C821 C819 1.419 . S
C821 C822 1.362 . S
C822 H814 0.930 . S
C822 C821 1.362 . S
C822 C825 1.409 1_545 S
C823 H815 0.930 . S
C823 C824 1.355 . S
C823 C825 1.415 . S
C824 C823 1.355 . S
C824 C826 1.419 . S
C825 C820 1.425 1_565 S
C825 C822 1.409 1_565 S
C825 C823 1.415 . S
C826 H816 0.930 . S
C826 C824 1.419 . S
C826 C827 1.362 . S
C827 H817 0.930 . S
C827 C820 1.409 1_565 S
C827 C826 1.362 . S
H828 C834 0.930 . S
H829 C837 0.930 . S
H830 C838 0.930 . S
H831 C839 0.930 . S
H832 C842 0.930 . S
H833 C843 0.930 . S
C834 H828 0.930 . S
C834 C835 1.355 . S
C834 C836 1.415 . S
C835 C834 1.355 . S
C835 C837 1.419 . S
C836 C834 1.415 . S
C836 C841 1.425 . S
C836 C843 1.409 . S
C837 H829 0.930 . S
C837 C835 1.419 . S
C837 C838 1.362 . S
C838 H830 0.930 . S
C838 C837 1.362 . S
C838 C841 1.409 . S
C839 H831 0.930 . S
C839 C840 1.355 . S
C839 C841 1.415 . S
C840 C839 1.355 . S
C840 C842 1.419 . S
C841 C836 1.425 . S
C841 C838 1.409 . S
C841 C839 1.415 . S
C842 H832 0.930 . S
C842 C840 1.419 . S
C842 C843 1.362 . S
C843 H833 0.930 . S
C843 C836 1.409 . S
C843 C842 1.362 . S
H844 C850 0.930 . S
H845 C853 0.930 . S
H846 C854 0.930 . S
H847 C855 0.930 . S
H848 C858 0.930 . S
H849 C859 0.930 . S
C850 H844 0.930 . S
C850 C851 1.355 . S
C850 C852 1.415 . S
C851 C850 1.355 . S
C851 C853 1.419 . S
C852 C850 1.415 . S
C852 C857 1.425 1_455 S
C852 C859 1.409 1_455 S
C853 H845 0.930 . S
C853 C851 1.419 . S
C853 C854 1.362 . S
C854 H846 0.930 . S
C854 C853 1.362 . S
C854 C857 1.409 1_455 S
C855 H847 0.930 . S
C855 C856 1.355 . S
C855 C857 1.415 . S
C856 C855 1.355 . S
C856 C858 1.419 . S
C857 C852 1.425 1_655 S
C857 C854 1.409 1_655 S
C857 C855 1.415 . S
C858 H848 0.930 . S
C858 C856 1.419 . S
C858 C859 1.362 . S
C859 H849 0.930 . S
C859 C852 1.409 1_655 S
C859 C858 1.362 . S
H860 C866 0.930 . S
H861 C869 0.930 . S
H862 C870 0.930 . S
H863 C871 0.930 . S
H864 C874 0.930 . S
H865 C875 0.930 . S
C866 H860 0.930 . S
C866 C867 1.355 . S
C866 C868 1.415 . S
C867 C866 1.355 . S
C867 C869 1.419 . S
C868 C866 1.415 . S
C868 C873 1.425 1_565 S
C868 C875 1.409 1_565 S
C869 H861 0.930 . S
C869 C867 1.419 . S
C869 C870 1.362 . S
C870 H862 0.930 . S
C870 C869 1.362 . S
C870 C873 1.409 1_565 S
C871 H863 0.930 . S
C871 C872 1.355 . S
C871 C873 1.415 . S
C872 C871 1.355 . S
C872 C874 1.419 . S
C873 C868 1.425 1_545 S
C873 C870 1.409 1_545 S
C873 C871 1.415 . S
C874 H864 0.930 . S
C874 C872 1.419 . S
C874 C875 1.362 . S
C875 H865 0.930 . S
C875 C868 1.409 1_545 S
C875 C874 1.362 . S
C403 C7 2.297 . S
C408 C205 2.322 . S
C419 C40 2.305 . S
C424 C238 2.296 . S
C435 C73 2.326 . S
C440 C271 2.316 . S
C451 C304 2.327 . S
C456 C106 2.315 . S
C467 C139 2.327 . S
C472 C337 2.303 . S
C483 C370 2.312 . S
C488 C172 2.294 . S
C499 N310 0.886 . S
C504 N112 0.886 . S
C515 N145 1.007 . S
C520 N343 1.007 . S
C531 N376 0.969 . S
C536 N178 0.972 . S
C547 N211 0.967 . S
C552 N13 0.970 . S
C563 N244 0.978 . S
C568 N46 0.974 . S
C579 N79 1.006 . S
C584 N277 1.007 . S
C595 N332 0.828 . S
C600 N2 0.787 . S
C611 N35 0.865 . S
C616 N365 0.914 . S
C627 N68 0.932 . S
C632 N200 0.907 . S
C643 N101 0.932 . S
C648 N233 0.905 . S
C659 N134 0.799 . S
C664 N266 0.781 . S
C675 N167 0.834 . S
C680 N299 0.790 . S
C691 C117 1.827 . S
C696 C249 1.827 . S
C707 C150 1.798 . S
C712 C282 1.798 . S
C723 C315 1.793 . S
C728 C183 1.793 . S
C739 C18 1.828 . S
C744 C348 1.828 . S
C755 C381 1.796 . S
C760 C51 1.797 . S
C771 C84 1.793 . S
C776 C216 1.793 . S
C787 C21 1.300 . S
C792 C318 1.301 . S
C803 C351 1.279 . S
C808 C54 1.317 . S
C819 C384 1.275 . S
C824 C87 1.319 . S
C835 C219 1.318 . S
C840 C120 1.269 . S
C851 C153 1.317 . S
C856 C252 1.278 . S
C867 C285 1.301 . S
C872 C186 1.276 . S
