# Generated by pormake.
# Topology can, (4)-cn, num edge types: 1
# Building blocks:
#     Node 0, Type 0, BuildingBlock: AZAVOO_clean_sbu_0, # of connection points: 4
#     Node 1, Type 0, BuildingBlock: AZAVOO_clean_sbu_0, # of connection points: 4
#     Node 2, Type 0, BuildingBlock: AZAVOO_clean_sbu_0, # of connection points: 4
#     Node 3, Type 0, BuildingBlock: AZAVOO_clean_sbu_0, # of connection points: 4
#     Node 4, Type 0, BuildingBlock: AZAVOO_clean_sbu_0, # of connection points: 4
#     Node 5, Type 0, BuildingBlock: AZAVOO_clean_sbu_0, # of connection points: 4
#     Node 6, Type 0, BuildingBlock: AZAVOO_clean_sbu_0, # of connection points: 4
#     Node 7, Type 0, BuildingBlock: AZAVOO_clean_sbu_0, # of connection points: 4
#     Node 8, Type 0, BuildingBlock: AZAVOO_clean_sbu_0, # of connection points: 4
#     Node 9, Type 0, BuildingBlock: AZAVOO_clean_sbu_0, # of connection points: 4
#     Node 10, Type 0, BuildingBlock: AZAVOO_clean_sbu_0, # of connection points: 4
#     Node 11, Type 0, BuildingBlock: AZAVOO_clean_sbu_0, # of connection points: 4
#     Edge 12, Type (0, 0), BuildingBlock: XUDNAN_clean_linker_2, # of connection points: 2
#     Edge 13, Type (0, 0), BuildingBlock: XUDNAN_clean_linker_2, # of connection points: 2
#     Edge 14, Type (0, 0), BuildingBlock: XUDNAN_clean_linker_2, # of connection points: 2
#     Edge 15, Type (0, 0), BuildingBlock: XUDNAN_clean_linker_2, # of connection points: 2
#     Edge 16, Type (0, 0), BuildingBlock: XUDNAN_clean_linker_2, # of connection points: 2
#     Edge 17, Type (0, 0), BuildingBlock: XUDNAN_clean_linker_2, # of connection points: 2
#     Edge 18, Type (0, 0), BuildingBlock: XUDNAN_clean_linker_2, # of connection points: 2
#     Edge 19, Type (0, 0), BuildingBlock: XUDNAN_clean_linker_2, # of connection points: 2
#     Edge 20, Type (0, 0), BuildingBlock: XUDNAN_clean_linker_2, # of connection points: 2
#     Edge 21, Type (0, 0), BuildingBlock: XUDNAN_clean_linker_2, # of connection points: 2
#     Edge 22, Type (0, 0), BuildingBlock: XUDNAN_clean_linker_2, # of connection points: 2
#     Edge 23, Type (0, 0), BuildingBlock: XUDNAN_clean_linker_2, # of connection points: 2
#     Edge 24, Type (0, 0), BuildingBlock: XUDNAN_clean_linker_2, # of connection points: 2
#     Edge 25, Type (0, 0), BuildingBlock: XUDNAN_clean_linker_2, # of connection points: 2
#     Edge 26, Type (0, 0), BuildingBlock: XUDNAN_clean_linker_2, # of connection points: 2
#     Edge 27, Type (0, 0), BuildingBlock: XUDNAN_clean_linker_2, # of connection points: 2
#     Edge 28, Type (0, 0), BuildingBlock: XUDNAN_clean_linker_2, # of connection points: 2
#     Edge 29, Type (0, 0), BuildingBlock: XUDNAN_clean_linker_2, # of connection points: 2
#     Edge 30, Type (0, 0), BuildingBlock: XUDNAN_clean_linker_2, # of connection points: 2
#     Edge 31, Type (0, 0), BuildingBlock: XUDNAN_clean_linker_2, # of connection points: 2
#     Edge 32, Type (0, 0), BuildingBlock: XUDNAN_clean_linker_2, # of connection points: 2
#     Edge 33, Type (0, 0), BuildingBlock: XUDNAN_clean_linker_2, # of connection points: 2
#     Edge 34, Type (0, 0), BuildingBlock: XUDNAN_clean_linker_2, # of connection points: 2
#     Edge 35, Type (0, 0), BuildingBlock: XUDNAN_clean_linker_2, # of connection points: 2
# Relax obj value: 0.086
# Max RMSD: 0.099
# Mean RMSD: 0.099
data_MOF--net-can--node1-AZAVOO_clean_sbu_0--edge1-XUDNAN_clean_linker_2
_symmetry_space_group_name_H-M    P1
_symmetry_Int_Tables_number       1
_symmetry_cell_setting            triclinic
loop_
_symmetry_equiv_pos_as_xyz
'x, y, z'
_cell_length_a     57.957537
_cell_length_b     57.955395
_cell_length_c     26.498938
_cell_angle_alpha  89.946088
_cell_angle_beta   89.972459
_cell_angle_gamma 120.06188
loop_
_atom_site_label
_atom_site_type_symbol
_atom_site_fract_x
_atom_site_fract_y
_atom_site_fract_z
_atom_type_partial_charge
Mg0 Mg 0.07036 0.39306 0.21995 0.0
O1 O 0.07459 0.43421 0.21682 0.0
O2 O 0.08653 0.45399 0.29214 0.0
Mg3 Mg 0.09008 0.42434 0.34472 0.0
C4 C 0.08063 0.45401 0.24573 0.0
C5 C 0.05098 0.36835 0.1147 0.0
O6 O 0.04082 0.34698 0.14343 0.0
O7 O 0.11556 0.41294 0.21941 0.0
O8 O 0.12575 0.42867 0.29852 0.0
O9 O 0.02833 0.37544 0.24405 0.0
O10 O 0.0624 0.39083 0.2969 0.0
C11 C 0.13241 0.42458 0.25487 0.0
C12 C 0.03721 0.38105 0.28982 0.0
O13 O 0.06649 0.39092 0.13445 0.0
Mg14 Mg 0.66262 0.07083 0.7773 0.0
O15 O 0.62219 0.06779 0.76365 0.0
O16 O 0.61343 0.08723 0.82764 0.0
Mg17 Mg 0.64834 0.1032 0.88267 0.0
C18 C 0.60707 0.07473 0.78576 0.0
C19 C 0.66323 0.03451 0.69439 0.0
O20 O 0.66909 0.02588 0.73557 0.0
O21 O 0.68473 0.11517 0.75478 0.0
O22 O 0.6765 0.13227 0.82361 0.0
O23 O 0.64366 0.03379 0.82529 0.0
O24 O 0.65939 0.0745 0.8547 0.0
C25 C 0.68791 0.13515 0.78095 0.0
C26 C 0.64778 0.04937 0.86333 0.0
O27 O 0.66062 0.055 0.69732 0.0
Mg28 Mg 0.59038 0.67329 0.283 0.0
O29 O 0.55365 0.63288 0.30223 0.0
O30 O 0.53831 0.63584 0.37789 0.0
Mg31 Mg 0.56334 0.67859 0.40535 0.0
C32 C 0.53722 0.62254 0.33877 0.0
C33 C 0.61271 0.66916 0.17991 0.0
O34 O 0.633 0.69057 0.19931 0.0
O35 O 0.56327 0.6901 0.26133 0.0
O36 O 0.54925 0.69309 0.33851 0.0
O37 O 0.61661 0.66271 0.32809 0.0
O38 O 0.59677 0.68368 0.35887 0.0
C39 C 0.54972 0.69634 0.29077 0.0
C40 C 0.61128 0.67306 0.36648 0.0
O41 O 0.59083 0.6577 0.20415 0.0
Mg42 Mg 0.9258 0.59733 0.72139 0.0
O43 O 0.92298 0.55727 0.73978 0.0
O44 O 0.91599 0.54967 0.82267 0.0
Mg45 Mg 0.91107 0.58303 0.8567 0.0
C46 C 0.91978 0.54305 0.77886 0.0
C47 C 0.94761 0.60938 0.61496 0.0
O48 O 0.96175 0.63165 0.64017 0.0
O49 O 0.88009 0.57697 0.72434 0.0
O50 O 0.87421 0.57008 0.80768 0.0
O51 O 0.96867 0.61832 0.74363 0.0
O52 O 0.93567 0.60958 0.79615 0.0
C53 C 0.86495 0.56837 0.76325 0.0
C54 C 0.96064 0.61833 0.78917 0.0
O55 O 0.9282 0.58981 0.6373 0.0
Mg56 Mg 0.3281 0.92531 0.26171 0.0
O57 O 0.36808 0.92733 0.27846 0.0
O58 O 0.36658 0.9148 0.35886 0.0
Mg59 Mg 0.32636 0.90369 0.39332 0.0
C60 C 0.37872 0.92291 0.31674 0.0
C61 C 0.33395 0.95305 0.1651 0.0
O62 O 0.32069 0.95937 0.1971 0.0
O63 O 0.30708 0.87965 0.25528 0.0
O64 O 0.30537 0.86958 0.33728 0.0
O65 O 0.34335 0.96629 0.29213 0.0
O66 O 0.32284 0.92993 0.33868 0.0
C67 C 0.29973 0.86256 0.29121 0.0
C68 C 0.33492 0.95548 0.33589 0.0
O69 O 0.33909 0.93487 0.17771 0.0
Mg70 Mg 0.40882 0.32818 0.79395 0.0
O71 O 0.44695 0.368 0.78723 0.0
O72 O 0.47486 0.37382 0.8501 0.0
Mg73 Mg 0.45306 0.33663 0.90049 0.0
C74 C 0.46916 0.38182 0.80962 0.0
C75 C 0.3771 0.32245 0.6911 0.0
O76 O 0.3585 0.29976 0.71021 0.0
O77 O 0.43118 0.30711 0.76757 0.0
O78 O 0.45395 0.30988 0.83807 0.0
O79 O 0.39065 0.34586 0.84391 0.0
O80 O 0.41386 0.32773 0.87169 0.0
C81 C 0.44639 0.3014 0.79322 0.0
C82 C 0.40102 0.33993 0.88147 0.0
O83 O 0.39892 0.33604 0.71473 0.0
Mg84 Mg 0.60054 0.9239 0.25724 0.0
O85 O 0.56259 0.92651 0.2613 0.0
O86 O 0.54225 0.91579 0.18637 0.0
Mg87 Mg 0.56792 0.90675 0.13303 0.0
C88 C 0.54348 0.92289 0.23237 0.0
C89 C 0.60625 0.94899 0.36194 0.0
O90 O 0.6028 0.96513 0.33209 0.0
O91 O 0.57495 0.87853 0.25884 0.0
O92 O 0.55888 0.86972 0.17974 0.0
O93 O 0.62331 0.96589 0.23115 0.0
O94 O 0.60294 0.93125 0.18006 0.0
C95 C 0.56167 0.86221 0.22353 0.0
C96 C 0.61589 0.9567 0.18597 0.0
O97 O 0.60506 0.92821 0.3431 0.0
Mg98 Mg 0.67262 0.60613 0.75953 0.0
O99 O 0.63413 0.5671 0.74304 0.0
O100 O 0.63474 0.55646 0.66216 0.0
Mg101 Mg 0.67375 0.58854 0.62686 0.0
C102 C 0.62348 0.55167 0.70534 0.0
C103 C 0.67108 0.62229 0.86802 0.0
O104 O 0.68752 0.64488 0.84547 0.0
O105 O 0.69513 0.58321 0.76122 0.0
O106 O 0.69765 0.57647 0.67862 0.0
O107 O 0.65431 0.62991 0.73486 0.0
O108 O 0.67584 0.61713 0.68354 0.0
C109 C 0.70334 0.57485 0.72459 0.0
C110 C 0.6619 0.62861 0.68955 0.0
O111 O 0.66237 0.60071 0.84333 0.0
Mg112 Mg 0.07134 0.66497 0.20283 0.0
O113 O 0.07868 0.62984 0.19077 0.0
O114 O 0.10149 0.6378 0.11842 0.0
Mg115 Mg 0.10947 0.6774 0.08467 0.0
C116 C 0.09007 0.62325 0.157 0.0
C117 C 0.03627 0.62758 0.28874 0.0
O118 O 0.02768 0.61179 0.24927 0.0
O119 O 0.11501 0.6912 0.22756 0.0
O120 O 0.13513 0.6995 0.15219 0.0
O121 O 0.03403 0.6446 0.15607 0.0
O122 O 0.07418 0.67139 0.12516 0.0
C123 C 0.13586 0.70294 0.19981 0.0
C124 C 0.04935 0.65497 0.11723 0.0
O125 O 0.05585 0.65115 0.28327 0.0
Mg126 Mg 0.39266 0.07189 0.73712 0.0
O127 O 0.42806 0.0662 0.71852 0.0
O128 O 0.44022 0.07796 0.63832 0.0
Mg129 Mg 0.41366 0.093 0.60578 0.0
C130 C 0.44295 0.06916 0.68072 0.0
C131 C 0.39051 0.03987 0.8341 0.0
O132 O 0.38562 0.02183 0.79935 0.0
O133 O 0.4213 0.11727 0.74388 0.0
O134 O 0.431 0.12716 0.66205 0.0
O135 O 0.36379 0.03187 0.70226 0.0
O136 O 0.38308 0.07035 0.66196 0.0
C137 C 0.43308 0.1342 0.70824 0.0
C138 C 0.36752 0.04511 0.66078 0.0
O139 O 0.39542 0.06299 0.82051 0.0
Mg140 Mg 0.32584 0.39325 0.27204 0.0
O141 O 0.36534 0.43242 0.27736 0.0
O142 O 0.37697 0.45204 0.20189 0.0
Mg143 Mg 0.34386 0.42507 0.14713 0.0
C144 C 0.38142 0.45151 0.2489 0.0
C145 C 0.31914 0.36867 0.378 0.0
O146 O 0.30886 0.3473 0.34938 0.0
O147 O 0.30321 0.41626 0.26824 0.0
O148 O 0.31411 0.43278 0.18994 0.0
O149 O 0.3475 0.37204 0.25007 0.0
O150 O 0.33235 0.39026 0.19579 0.0
C151 C 0.30134 0.42942 0.23117 0.0
C152 C 0.34545 0.37814 0.20393 0.0
O153 O 0.32586 0.39109 0.35781 0.0
Mg154 Mg 0.92171 0.32444 0.69681 0.0
O155 O 0.9192 0.36213 0.70417 0.0
O156 O 0.89616 0.36588 0.6405 0.0
Mg157 Mg 0.88397 0.32938 0.58997 0.0
C158 C 0.90928 0.37452 0.68147 0.0
C159 C 0.94708 0.3195 0.80105 0.0
O160 O 0.94347 0.29689 0.78267 0.0
O161 O 0.87822 0.29977 0.72234 0.0
O162 O 0.85729 0.30121 0.65208 0.0
O163 O 0.95806 0.34564 0.64863 0.0
O164 O 0.91697 0.32459 0.61878 0.0
C165 C 0.85703 0.29277 0.6967 0.0
C166 C 0.94212 0.33912 0.61036 0.0
O167 O 0.93882 0.33278 0.77645 0.0
H168 H 0.02213 0.32348 0.05711 0.0
H169 H 0.05555 0.40934 0.0562 0.0
H170 H 0.03277 0.40595 0.97565 0.0
H171 H 0.02687 0.31678 0.91955 0.0
H172 H 0.9961 0.28534 0.91726 0.0
H173 H 0.01635 0.29476 0.97337 0.0
H174 H 0.97583 0.2881 0.0262 0.0
H175 H 0.95556 0.27906 0.97022 0.0
H176 H 0.95903 0.30607 0.00923 0.0
H177 H 0.00283 0.3929 0.90052 0.0
H178 H 0.97236 0.37181 0.82884 0.0
H179 H 0.95998 0.29452 0.87527 0.0
C180 C 0.02503 0.34162 0.03952 0.0
C181 C 0.04061 0.36668 0.063 0.0
C182 C 0.04387 0.38995 0.03882 0.0
C183 C 0.03088 0.38821 0.99318 0.0
C184 C 0.01505 0.36314 0.97182 0.0
C185 C 0.0125 0.3403 0.99357 0.0
C186 C 0.99412 0.3158 0.96284 0.0
C187 C 0.00927 0.30239 0.94201 0.0
C188 C 0.96969 0.29611 0.994 0.0
C189 C 0.98633 0.3284 0.92099 0.0
C190 C -0.00151 0.3557 0.9272 0.0
C191 C 0.99349 0.3716 0.89482 0.0
C192 C 0.97597 0.35937 0.8544 0.0
C193 C 0.96386 0.33151 0.84628 0.0
C194 C 0.9691 0.31587 0.88025 0.0
H195 H 0.61032 0.99217 0.41216 0.0
H196 H 0.6204 0.92336 0.43209 0.0
H197 H 0.63678 0.93826 0.51882 0.0
H198 H 0.66856 0.03862 0.47869 0.0
H199 H 0.65339 0.05613 0.50668 0.0
H200 H 0.64163 0.03967 0.44682 0.0
H201 H 0.59367 0.01248 0.48264 0.0
H202 H 0.60522 0.02905 0.54247 0.0
H203 H 0.58788 0.99316 0.53942 0.0
H204 H 0.65344 0.9615 0.60223 0.0
H205 H 0.66664 0.98976 0.67822 0.0
H206 H 0.64555 0.04344 0.60382 0.0
C207 C 0.61576 0.98007 0.43481 0.0
C208 C 0.61407 0.95656 0.41526 0.0
C209 C 0.62144 0.94138 0.44625 0.0
C210 C 0.63086 0.94974 0.49549 0.0
C211 C 0.6327 0.97326 0.5132 0.0
C212 C 0.62514 0.98809 0.48396 0.0
C213 C 0.62912 0.01264 0.51186 0.0
C214 C 0.64938 0.03828 0.48437 0.0
C215 C 0.60238 0.01177 0.51956 0.0
C216 C 0.64021 0.00939 0.56139 0.0
C217 C 0.64218 0.98658 0.5613 0.0
C218 C 0.6519 0.97935 0.60277 0.0
C219 C 0.65943 0.99562 0.64575 0.0
C220 C 0.65716 0.01887 0.64709 0.0
C221 C 0.64763 0.02589 0.60401 0.0
H222 H 0.65407 0.69209 0.11262 0.0
H223 H 0.57971 0.61899 0.14233 0.0
H224 H 0.58771 0.59801 0.06823 0.0
H225 H 0.64822 0.6889 0.97713 0.0
H226 H 0.68347 0.70263 0.96712 0.0
H227 H 0.67178 0.71146 0.02274 0.0
H228 H 0.69789 0.69558 0.07862 0.0
H229 H 0.70937 0.68638 0.02315 0.0
H230 H 0.6918 0.66203 0.07186 0.0
H231 H 0.60471 0.58469 0.99173 0.0
H232 H 0.62678 0.58176 0.91405 0.0
H233 H 0.68922 0.66407 0.93391 0.0
C234 C 0.63939 0.67169 0.1035 0.0
C235 C 0.6163 0.65716 0.13337 0.0
C236 C 0.59752 0.63055 0.11991 0.0
C237 C 0.60196 0.61841 0.07807 0.0
C238 C 0.62518 0.6332 0.04992 0.0
C239 C 0.64339 0.65938 0.06172 0.0
C240 C 0.66635 0.67122 0.02461 0.0
C241 C 0.66751 0.69495 0.99622 0.0
C242 C 0.69292 0.67927 0.05116 0.0
C243 C 0.65824 0.64763 0.99001 0.0
C244 C 0.6346 0.62578 0.00548 0.0
C245 C 0.6232 0.60171 0.97923 0.0
C246 C 0.63597 0.60018 0.93531 0.0
C247 C 0.65972 0.62268 0.91788 0.0
C248 C 0.67111 0.64651 0.94622 0.0
H249 H 0.04274 0.65783 0.37331 0.0
H250 H 0.99509 0.57796 0.31264 0.0
H251 H 0.96697 0.56445 0.3891 0.0
H252 H 0.04022 0.63797 0.50485 0.0
H253 H 0.03814 0.66603 0.52851 0.0
H254 H 0.05524 0.66888 0.47003 0.0
H255 H 0.02496 0.68345 0.4247 0.0
H256 H 0.00758 0.68034 0.48289 0.0
H257 H 0.98926 0.66226 0.42777 0.0
H258 H 0.94273 0.56011 0.47117 0.0
H259 H 0.92594 0.56491 0.55413 0.0
H260 H 0.98926 0.64764 0.56013 0.0
C261 C 0.02664 0.63739 0.37636 0.0
C262 C 0.02118 0.61896 0.3369 0.0
C263 C -0.00029 0.59247 0.34231 0.0
C264 C 0.98357 0.58459 0.3856 0.0
C265 C 0.98913 0.60341 0.42327 0.0
C266 C 0.01027 0.6292 0.41925 0.0
C267 C 0.01168 0.6457 0.46466 0.0
C268 C 0.03787 0.65519 0.49373 0.0
C269 C 0.00815 0.66933 0.44905 0.0
C270 C 0.98792 0.62523 0.49462 0.0
C271 C 0.97515 0.60094 0.47021 0.0
C272 C 0.95263 0.57904 0.4907 0.0
C273 C 0.94316 0.58198 0.53773 0.0
C274 C 0.9562 0.60664 0.56367 0.0
C275 C 0.97874 0.62851 0.54135 0.0
H276 H 0.37724 0.99117 0.87596 0.0
H277 H 0.39616 0.07156 0.91501 0.0
H278 H 0.38655 0.05824 0.0043 0.0
H279 H 0.32289 0.95758 0.95794 0.0
H280 H 0.32985 0.93162 0.97552 0.0
H281 H 0.34061 0.94777 0.9151 0.0
H282 H 0.38924 0.96039 0.93543 0.0
H283 H 0.37861 0.9441 0.99587 0.0
H284 H 0.40469 0.97851 0.99245 0.0
H285 H 0.3704 0.03564 0.08656 0.0
H286 H 0.35129 0.00566 0.15946 0.0
H287 H 0.34414 0.93964 0.0702 0.0
C288 C 0.37983 0.00611 0.90341 0.0
C289 C 0.38747 0.03247 0.88834 0.0
C290 C 0.3904 0.05131 0.92547 0.0
C291 C 0.38499 0.04393 0.97636 0.0
C292 C 0.37692 0.01769 0.98971 0.0
C293 C 0.37464 -0.0009 0.95456 0.0
C294 C 0.36451 0.97194 0.97898 0.0
C295 C 0.33789 0.951 0.95548 0.0
C296 C 0.38552 0.96323 0.97547 0.0
C297 C 0.36078 0.97805 0.03309 0.0
C298 C 0.36814 0.00463 0.03815 0.0
C299 C 0.36496 0.01491 0.0833 0.0
C300 C 0.35391 0.99764 0.12441 0.0
C301 C 0.34632 0.97035 0.12054 0.0
C302 C 0.35013 0.96048 0.07438 0.0
H303 H 0.30381 0.32412 0.43639 0.0
H304 H 0.35471 0.41022 0.43643 0.0
H305 H 0.37442 0.40755 0.51712 0.0
H306 H 0.29261 0.31741 0.5746 0.0
H307 H 0.29274 0.28639 0.57694 0.0
H308 H 0.2813 0.29531 0.521 0.0
H309 H 0.31557 0.28958 0.46766 0.0
H310 H 0.32741 0.28107 0.52347 0.0
H311 H 0.35042 0.3083 0.48401 0.0
H312 H 0.3922 0.39525 0.59195 0.0
H313 H 0.40279 0.37477 0.66311 0.0
H314 H 0.3388 0.29672 0.61791 0.0
C315 C 0.31872 0.34246 0.45388 0.0
C316 C 0.32771 0.36738 0.43005 0.0
C317 C 0.34734 0.39092 0.45408 0.0
C318 C 0.35878 0.3896 0.49981 0.0
C319 C 0.35008 0.36465 0.52144 0.0
C320 C 0.3301 0.34154 0.49993 0.0
C321 C 0.32465 0.31725 0.5308 0.0
C322 C 0.29613 0.30327 0.55211 0.0
C323 C 0.32983 0.29792 0.49961 0.0
C324 C 0.34516 0.33029 0.57233 0.0
C325 C 0.3597 0.35763 0.56594 0.0
C326 C 0.38068 0.37392 0.59784 0.0
C327 C 0.38666 0.36204 0.63795 0.0
C328 C 0.37154 0.33414 0.64624 0.0
C329 C 0.35055 0.31811 0.6128 0.0
H330 H 0.95137 0.62735 0.8861 0.0
H331 H 0.01019 0.62334 0.79071 0.0
H332 H 0.03856 0.63068 0.86546 0.0
H333 H 0.99778 0.67885 0.96868 0.0
H334 H 0.97746 0.66462 0.02413 0.0
H335 H 0.96202 0.65924 0.96303 0.0
H336 H 0.93836 0.60816 0.97742 0.0
H337 H 0.9539 0.61337 0.03842 0.0
H338 H 0.95797 0.59282 0.99234 0.0
H339 H 0.05958 0.63695 0.95026 0.0
H340 H 0.07386 0.6453 0.0389 0.0
H341 H 0.00174 0.64604 0.07924 0.0
C342 C 0.97019 0.62795 0.88089 0.0
C343 C 0.97855 0.62459 0.83274 0.0
C344 C 0.00348 0.62592 0.82731 0.0
C345 C 0.01962 0.62992 0.86952 0.0
C346 C 0.01051 0.63263 0.9166 0.0
C347 C 0.98651 0.63194 0.92249 0.0
C348 C 0.9815 0.63576 0.97712 0.0
C349 C 0.97959 0.66113 0.9836 0.0
C350 C 0.95645 0.61105 0.99751 0.0
C351 C 0.00653 0.63878 0.00112 0.0
C352 C 0.02289 0.63677 0.9655 0.0
C353 C 0.04714 0.63894 0.97836 0.0
C354 C 0.05524 0.64403 0.02877 0.0
C355 C 0.03927 0.6471 0.06553 0.0
C356 C 0.01432 0.64382 0.05174 0.0
H357 H 0.3388 0.94396 0.43523 0.0
H358 H 0.33916 0.00423 0.33739 0.0
H359 H 0.3426 0.03119 0.41206 0.0
H360 H 0.30099 0.94987 0.53894 0.0
H361 H 0.3207 0.94578 0.58691 0.0
H362 H 0.3165 0.93019 0.52616 0.0
H363 H 0.36778 0.95371 0.51498 0.0
H364 H 0.37212 0.9691 0.57586 0.0
H365 H 0.38735 0.98947 0.52085 0.0
H366 H 0.34665 0.05163 0.4952 0.0
H367 H 0.35683 0.06777 0.58253 0.0
H368 H 0.3552 0.99496 0.62785 0.0
C369 C 0.33926 0.96261 0.42947 0.0
C370 C 0.33839 0.9719 0.38061 0.0
C371 C 0.33984 0.99683 0.3746 0.0
C372 C 0.34153 0.01212 0.41672 0.0
C373 C 0.34198 0.00223 0.4644 0.0
C374 C 0.3413 0.97828 0.4711 0.0
C375 C 0.34416 0.97329 0.52632 0.0
C376 C 0.31909 0.9483 0.54572 0.0
C377 C 0.36935 0.97129 0.53499 0.0
C378 C 0.34683 0.99838 0.54955 0.0
C379 C 0.34507 0.0145 0.51299 0.0
C380 C 0.34798 0.0392 0.52423 0.0
C381 C 0.35376 0.04815 0.57392 0.0
C382 C 0.35678 0.03256 0.61171 0.0
C383 C 0.35257 0.00703 0.59975 0.0
H384 H 0.37451 0.36501 0.91539 0.0
H385 H 0.42054 0.32908 0.96658 0.0
H386 H 0.41397 0.33777 0.05462 0.0
H387 H 0.39619 0.41638 0.01359 0.0
H388 H 0.36361 0.41292 0.01926 0.0
H389 H 0.37429 0.40642 0.95973 0.0
H390 H 0.33237 0.35925 0.95776 0.0
H391 H 0.32161 0.36558 0.01724 0.0
H392 H 0.32574 0.33692 0.01019 0.0
H393 H 0.39998 0.34758 0.13748 0.0
H394 H 0.37915 0.35779 0.20906 0.0
H395 H 0.34099 0.38553 0.10353 0.0
C396 C 0.38361 0.35942 0.94506 0.0
C397 C 0.39845 0.34682 0.93395 0.0
C398 C 0.40957 0.33928 0.97394 0.0
C399 C 0.40587 0.34404 0.02422 0.0
C400 C 0.39091 0.35623 0.03392 0.0
C401 C 0.37995 0.36383 0.99552 0.0
C402 C 0.36326 0.37499 0.01628 0.0
C403 C 0.37505 0.40443 0.00132 0.0
C404 C 0.33402 0.35817 -0.00063 0.0
C405 C 0.36623 0.37205 0.07224 0.0
C406 C 0.38244 0.36143 0.08172 0.0
C407 C 0.38743 0.35615 0.13062 0.0
C408 C 0.37547 0.36192 0.17096 0.0
C409 C 0.35869 0.3727 0.1619 0.0
C410 C 0.35411 0.37779 0.11185 0.0
H411 H 0.99413 0.36496 0.57836 0.0
H412 H 0.91285 0.33198 0.52479 0.0
H413 H 0.92915 0.34394 0.43799 0.0
H414 H 0.0265 0.41954 0.48438 0.0
H415 H 0.05489 0.41495 0.47772 0.0
H416 H 0.03732 0.4076 0.537 0.0
H417 H 0.03018 0.35974 0.53478 0.0
H418 H 0.04764 0.3669 0.47555 0.0
H419 H 0.01427 0.33888 0.48073 0.0
H420 H 0.95335 0.35547 0.35651 0.0
H421 H 0.98411 0.36467 0.28514 0.0
H422 H 0.0495 0.38811 0.39051 0.0
C423 C 0.97983 0.36086 0.54851 0.0
C424 C 0.95222 0.34809 0.55872 0.0
C425 C 0.93409 0.34233 0.51839 0.0
C426 C 0.94317 0.349 0.46872 0.0
C427 C 0.97042 0.36123 0.45986 0.0
C428 C 0.98853 0.36705 0.49851 0.0
C429 C 0.01648 0.37779 0.4781 0.0
C430 C 0.03488 0.40669 0.49532 0.0
C431 C 0.02779 0.35974 0.49318 0.0
C432 C 0.01104 0.37641 0.42199 0.0
C433 C 0.98442 0.36719 0.41236 0.0
C434 C 0.97432 0.36301 0.36346 0.0
C435 C 0.99192 0.3682 0.32322 0.0
C436 C 0.01922 0.37726 0.33226 0.0
C437 C 0.02885 0.38161 0.38232 0.0
H438 H 0.62503 0.99749 0.89641 0.0
H439 H 0.65528 0.07868 0.94851 0.0
H440 H 0.64725 0.06311 0.03612 0.0
H441 H 0.57386 0.96432 0.99616 0.0
H442 H 0.58002 0.93686 0.00137 0.0
H443 H 0.58493 0.95378 0.94183 0.0
H444 H 0.63348 0.96284 0.93852 0.0
H445 H 0.62879 0.94616 0.99813 0.0
H446 H 0.65571 0.97994 0.99031 0.0
H447 H 0.64025 0.04005 0.11801 0.0
H448 H 0.63314 0.01001 0.18977 0.0
H449 H 0.60845 0.9439 0.08568 0.0
C450 C 0.62936 0.01187 0.92621 0.0
C451 C 0.64029 0.03924 0.91536 0.0
C452 C 0.6463 0.05754 0.95551 0.0
C453 C 0.64194 0.04892 0.00564 0.0
C454 C 0.63163 0.02194 0.01512 0.0
C455 C 0.62527 0.00361 0.97669 0.0
C456 C 0.61619 0.97605 0.99761 0.0
C457 C 0.58701 0.9566 0.9834 0.0
C458 C 0.63465 0.96565 0.9801 0.0
C459 C 0.61907 0.982 0.05361 0.0
C460 C 0.62782 0.00856 0.06284 0.0
C461 C 0.63308 0.01911 0.11144 0.0
C462 C 0.62913 0.00195 0.15187 0.0
C463 C 0.62006 0.97463 0.14327 0.0
C464 C 0.61498 0.96461 0.09348 0.0
H465 H 0.63509 0.64489 0.39967 0.0
H466 H 0.60622 0.69714 0.45054 0.0
H467 H 0.61629 0.69161 0.53821 0.0
H468 H 0.61073 0.59956 0.50262 0.0
H469 H 0.63947 0.5954 0.50667 0.0
H470 H 0.63045 0.60367 0.44713 0.0
H471 H 0.67762 0.64523 0.43925 0.0
H472 H 0.68684 0.63698 0.49863 0.0
H473 H 0.69024 0.66937 0.48959 0.0
H474 H 0.6266 0.67834 0.62062 0.0
H475 H 0.64016 0.66081 0.69264 0.0
H476 H 0.66538 0.61996 0.58835 0.0
C477 C 0.63107 0.65529 0.42923 0.0
C478 C 0.61931 0.67096 0.41832 0.0
C479 C 0.61456 0.68445 0.45801 0.0
C480 C 0.62038 0.6816 0.50801 0.0
C481 C 0.63138 0.66557 0.51766 0.0
C482 C 0.63707 0.65293 0.47948 0.0
C483 C 0.64907 0.63697 0.50044 0.0
C484 C 0.63137 0.60713 0.4885 0.0
C485 C 0.67764 0.6478 0.48081 0.0
C486 C 0.64882 0.64238 0.55629 0.0
C487 C 0.6384 0.65879 0.56537 0.0
C488 C 0.63508 0.66568 0.61406 0.0
C489 C 0.64274 0.65555 0.65469 0.0
C490 C 0.6538 0.63895 0.64625 0.0
C491 C 0.65701 0.63251 0.59631 0.0
H492 H 0.083 0.59344 0.24271 0.0
H493 H 0.0952 0.5947 0.08075 0.0
H494 H 0.09324 0.55134 0.08632 0.0
H495 H 0.12389 0.5648 0.27454 0.0
H496 H 0.10274 0.54482 0.32562 0.0
H497 H 0.10426 0.57571 0.30908 0.0
H498 H 0.05299 0.55072 0.29746 0.0
H499 H 0.05131 0.51974 0.31391 0.0
H500 H 0.03755 0.52275 0.25492 0.0
H501 H 0.0889 0.50779 0.10825 0.0
H502 H 0.08562 0.4675 0.14625 0.0
H503 H 0.07851 0.49484 0.29498 0.0
C504 C 0.08518 0.58452 0.20845 0.0
C505 C 0.08921 0.59741 0.16126 0.0
C506 C 0.09224 0.58526 0.11733 0.0
C507 C 0.09104 0.56058 0.12005 0.0
C508 C 0.08707 0.54842 0.16702 0.0
C509 C 0.08445 0.56 0.21056 0.0
C510 C 0.08123 0.54295 0.25641 0.0
C511 C 0.10442 0.55797 0.2936 0.0
C512 C 0.05416 0.53348 0.28218 0.0
C513 C 0.08239 0.51997 0.23167 0.0
C514 C 0.0855 0.52348 0.18003 0.0
C515 C 0.08659 0.50482 0.14867 0.0
C516 C 0.08461 0.48195 0.17065 0.0
C517 C 0.08189 0.47804 0.22361 0.0
C518 C 0.08077 0.49737 0.25444 0.0
H519 H 0.46782 0.06998 0.76875 0.0
H520 H 0.46937 0.05814 0.60739 0.0
H521 H 0.50957 0.05406 0.61794 0.0
H522 H 0.53617 0.11174 0.78178 0.0
H523 H 0.53857 0.09946 0.84293 0.0
H524 H 0.50789 0.09756 0.82385 0.0
H525 H 0.48236 0.04659 0.84006 0.0
H526 H 0.51299 0.04834 0.85956 0.0
H527 H 0.49337 0.02597 0.80968 0.0
H528 H 0.5513 0.05434 0.6455 0.0
H529 H 0.59241 0.06118 0.68703 0.0
H530 H 0.56444 0.0751 0.82956 0.0
C531 C 0.47621 0.06586 0.73578 0.0
C532 C 0.46535 0.0641 0.68731 0.0
C533 C 0.47734 0.05944 0.6449 0.0
C534 C 0.5001 0.057 0.65056 0.0
C535 C 0.51065 0.05942 0.6988 0.0
C536 C 0.49911 0.06379 0.74065 0.0
C537 C 0.51566 0.06811 0.78757 0.0
C538 C 0.52513 0.09587 0.81034 0.0
C539 C 0.50017 0.04593 0.82651 0.0
C540 C 0.53864 0.0661 0.7654 0.0
C541 C 0.53517 0.06059 0.71434 0.0
C542 C 0.55415 0.05849 0.68553 0.0
C543 C 0.57743 0.0624 0.70946 0.0
C544 C 0.58169 0.06877 0.7615 0.0
C545 C 0.56183 0.07034 0.78971 0.0
H546 H 0.51481 0.59341 0.25298 0.0
H547 H 0.51022 0.58872 0.41648 0.0
H548 H 0.47188 0.54294 0.41087 0.0
H549 H 0.44575 0.56111 0.23274 0.0
H550 H 0.44599 0.54373 0.17655 0.0
H551 H 0.47497 0.57488 0.1931 0.0
H552 H 0.50393 0.55237 0.19113 0.0
H553 H 0.47502 0.52112 0.17434 0.0
H554 H 0.49441 0.52309 0.22903 0.0
H555 H 0.43275 0.49897 0.38788 0.0
H556 H 0.39416 0.46024 0.34923 0.0
H557 H 0.42304 0.49406 0.20041 0.0
C558 C 0.50607 0.58253 0.28757 0.0
C559 C 0.51559 0.5945 0.33519 0.0
C560 C 0.50324 0.57989 0.37962 0.0
C561 C 0.48154 0.55385 0.37683 0.0
C562 C 0.47235 0.54279 0.32933 0.0
C563 C 0.48415 0.55664 0.28546 0.0
C564 C 0.4691 0.54092 0.23928 0.0
C565 C 0.45831 0.55607 0.20864 0.0
C566 C 0.48666 0.53396 0.20652 0.0
C567 C 0.44674 0.51629 0.26411 0.0
C568 C 0.44923 0.51763 0.31602 0.0
C569 C 0.43065 0.49759 0.34725 0.0
C570 C 0.40878 0.47567 0.32486 0.0
C571 C 0.40548 0.47406 0.27171 0.0
C572 C 0.42494 0.49462 0.24109 0.0
H573 H 0.91095 0.51325 0.69303 0.0
H574 H 0.92942 0.51596 0.85248 0.0
H575 H 0.92958 0.47365 0.84411 0.0
H576 H 0.86597 0.4428 0.68809 0.0
H577 H 0.87608 0.43888 0.62584 0.0
H578 H 0.87859 0.47003 0.64365 0.0
H579 H 0.92882 0.49505 0.62072 0.0
H580 H 0.92648 0.46398 0.60275 0.0
H581 H 0.95054 0.48489 0.64935 0.0
H582 H 0.92812 0.43154 0.81871 0.0
H583 H 0.92291 0.39082 0.7789 0.0
H584 H 0.90337 0.41415 0.63652 0.0
C585 C 0.91525 0.50505 0.72608 0.0
C586 C 0.92031 0.51795 0.77338 0.0
C587 C 0.92545 0.50639 0.81591 0.0
C588 C 0.92566 0.48242 0.81152 0.0
C589 C 0.92046 0.47015 0.76446 0.0
C590 C 0.91518 0.48093 0.72254 0.0
C591 C 0.90928 0.46316 0.67679 0.0
C592 C 0.88078 0.45313 0.65748 0.0
C593 C 0.93002 0.47764 0.63494 0.0
C594 C 0.91208 0.44072 0.6996 0.0
C595 C 0.91877 0.44531 0.7501 0.0
C596 C 0.92281 0.42766 0.77922 0.0
C597 C 0.91986 0.40462 0.75618 0.0
C598 C 0.91266 0.39925 0.70459 0.0
C599 C 0.9087 0.4176 0.67607 0.0
H600 H 0.40481 0.92145 0.23113 0.0
H601 H 0.4138 0.93281 0.39337 0.0
H602 H 0.45816 0.93688 0.38824 0.0
H603 H 0.43358 0.88045 0.2228 0.0
H604 H 0.45002 0.89365 0.16326 0.0
H605 H 0.42007 0.89424 0.17858 0.0
H606 H 0.44466 0.94531 0.16383 0.0
H607 H 0.47471 0.94486 0.14827 0.0
H608 H 0.47508 0.96642 0.19764 0.0
H609 H 0.5003 0.93762 0.3667 0.0
H610 H 0.53719 0.93354 0.3304 0.0
H611 H 0.50055 0.92025 0.18221 0.0
C612 C 0.41633 0.92526 0.2654 0.0
C613 C 0.40593 0.92695 0.31262 0.0
C614 C 0.42137 0.93141 0.3568 0.0
C615 C 0.44663 0.93386 0.35427 0.0
C616 C 0.45614 0.93169 0.30732 0.0
C617 C 0.4415 0.92744 0.26366 0.0
C618 C 0.45568 0.92414 0.21855 0.0
C619 C 0.43883 0.89647 0.1944 0.0
C620 C 0.46297 0.94652 0.17979 0.0
C621 C 0.48034 0.92681 0.24389 0.0
C622 C 0.48031 0.93147 0.29499 0.0
C623 C 0.50064 0.9341 0.32666 0.0
C624 C 0.52152 0.93172 0.30565 0.0
C625 C 0.52182 0.92651 0.25343 0.0
C626 C 0.50097 0.92424 0.22226 0.0
H627 H 0.60315 0.5232 0.79254 0.0
H628 H 0.58581 0.52412 0.63347 0.0
H629 H 0.54329 0.48184 0.64425 0.0
H630 H 0.57903 0.45368 0.79941 0.0
H631 H 0.56557 0.44974 0.8622 0.0
H632 H 0.59351 0.48119 0.84311 0.0
H633 H 0.56738 0.50512 0.86674 0.0
H634 H 0.53935 0.47373 0.88605 0.0
H635 H 0.53498 0.49389 0.83944 0.0
H636 H 0.5033 0.43943 0.6718 0.0
H637 H 0.46952 0.39799 0.71274 0.0
H638 H 0.51396 0.42323 0.85322 0.0
C639 C 0.5902 0.51469 0.76016 0.0
C640 C 0.5976 0.527 0.71224 0.0
C641 C 0.58046 0.51499 0.6705 0.0
C642 C 0.55626 0.49107 0.6763 0.0
C643 C 0.54968 0.47932 0.72395 0.0
C644 C 0.5662 0.49059 0.7651 0.0
C645 C 0.55521 0.47302 0.81142 0.0
C646 C 0.57448 0.46387 0.83011 0.0
C647 C 0.54885 0.4873 0.85339 0.0
C648 C 0.53001 0.44999 0.78977 0.0
C649 C 0.52705 0.45425 0.73944 0.0
C650 C 0.50538 0.43587 0.71119 0.0
C651 C 0.48627 0.4124 0.73488 0.0
C652 C 0.48911 0.4073 0.78621 0.0
C653 C 0.51128 0.42647 0.81392 0.0
H654 H 0.16587 0.4193 0.31955 0.0
H655 H 0.1616 0.44694 0.16967 0.0
H656 H 0.20822 0.45836 0.15357 0.0
H657 H 0.23789 0.4665 0.34446 0.0
H658 H 0.2423 0.44114 0.37487 0.0
H659 H 0.21056 0.43978 0.3783 0.0
H660 H 0.18722 0.39198 0.34124 0.0
H661 H 0.21877 0.39317 0.33795 0.0
H662 H 0.19866 0.38606 0.28198 0.0
H663 H 0.25335 0.46352 0.15141 0.0
H664 H 0.29158 0.45643 0.15751 0.0
H665 H 0.26547 0.42198 0.30685 0.0
C666 C 0.17508 0.42842 0.28388 0.0
C667 C 0.16051 0.43272 0.24603 0.0
C668 C 0.17266 0.44374 0.19912 0.0
C669 C 0.19912 0.45047 0.18989 0.0
C670 C 0.21292 0.44571 0.22781 0.0
C671 C 0.20123 0.43462 0.27365 0.0
C672 C 0.21902 0.42805 0.30516 0.0
C673 C 0.22797 0.44488 0.35357 0.0
C674 C 0.20509 0.39804 0.31725 0.0
C675 C 0.24215 0.43633 0.26914 0.0
C676 C 0.23854 0.44722 0.22546 0.0
C677 C 0.25649 0.45518 0.18553 0.0
C678 C 0.27818 0.45101 0.18945 0.0
C679 C 0.28151 0.43843 0.2326 0.0
C680 C 0.26364 0.43178 0.27356 0.0
H681 H 0.82592 0.24321 0.65998 0.0
H682 H 0.83015 0.29725 0.77718 0.0
H683 H 0.78426 0.26404 0.80464 0.0
H684 H 0.7562 0.21441 0.62884 0.0
H685 H 0.75084 0.1812 0.62062 0.0
H686 H 0.78322 0.20969 0.60834 0.0
H687 H 0.80481 0.19203 0.67181 0.0
H688 H 0.77261 0.16328 0.68344 0.0
H689 H 0.79202 0.18399 0.73533 0.0
H690 H 0.73815 0.22549 0.81759 0.0
H691 H 0.69809 0.18146 0.82693 0.0
H692 H 0.72513 0.15107 0.70429 0.0
C693 C 0.81709 0.24789 0.69153 0.0
C694 C 0.83118 0.27254 0.71672 0.0
C695 C 0.81945 0.27826 0.75793 0.0
C696 C 0.79342 0.25969 0.77326 0.0
C697 C 0.7798 0.2356 0.74711 0.0
C698 C 0.79143 0.22943 0.70783 0.0
C699 C 0.77335 0.2014 0.68857 0.0
C700 C 0.76544 0.20171 0.63331 0.0
C701 C 0.78648 0.18416 0.69521 0.0
C702 C 0.74974 0.19257 0.72353 0.0
C703 C 0.75366 0.21285 0.75614 0.0
C704 C 0.73492 0.20943 0.79247 0.0
C705 C 0.71215 0.18427 0.79729 0.0
C706 C 0.7085 0.16261 0.76662 0.0
C707 C 0.72718 0.16716 0.72811 0.0
H708 H 0.56421 0.7285 0.20711 0.0
H709 H 0.50977 0.70098 0.33435 0.0
H710 H 0.50108 0.73794 0.32162 0.0
H711 H 0.59522 0.79196 0.2334 0.0
H712 H 0.59891 0.80564 0.17085 0.0
H713 H 0.59529 0.77326 0.17909 0.0
H714 H 0.55432 0.75224 0.11985 0.0
H715 H 0.5582 0.7848 0.11003 0.0
H716 H 0.52679 0.75767 0.13181 0.0
H717 H 0.509 0.78373 0.31282 0.0
H718 H 0.52639 0.83179 0.29663 0.0
H719 H 0.57269 0.82893 0.17104 0.0
C720 C 0.5493 0.72939 0.23034 0.0
C721 C 0.53778 0.71199 0.27181 0.0
C722 C 0.5189 0.71417 0.3024 0.0
C723 C 0.51379 0.73511 0.29546 0.0
C724 C 0.5272 0.75332 0.25696 0.0
C725 C 0.54384 0.75018 0.22363 0.0
C726 C 0.55818 0.77426 0.18935 0.0
C727 C 0.58869 0.78701 0.19348 0.0
C728 C 0.5488 0.76679 0.1345 0.0
C729 C 0.54869 0.79216 0.21143 0.0
C730 C 0.53063 0.77962 0.25012 0.0
C731 C 0.52223 0.79344 0.28124 0.0
C732 C 0.53236 0.8207 0.27226 0.0
C733 C 0.55036 0.83358 0.23218 0.0
C734 C 0.55829 0.8191 0.201 0.0
H735 H 0.83796 0.57464 0.68379 0.0
H736 H 0.82674 0.54073 0.8341 0.0
H737 H 0.78093 0.53271 0.83559 0.0
H738 H 0.80736 0.61011 0.70415 0.0
H739 H 0.79115 0.60471 0.64377 0.0
H740 H 0.82103 0.6028 0.64934 0.0
H741 H 0.79671 0.55503 0.61227 0.0
H742 H 0.76671 0.5569 0.60592 0.0
H743 H 0.76609 0.52986 0.64075 0.0
H744 H 0.74075 0.53736 0.82903 0.0
H745 H 0.70682 0.55014 0.81016 0.0
H746 H 0.74245 0.57851 0.6627 0.0
C747 C 0.82551 0.56456 0.71613 0.0
C748 C 0.83602 0.55845 0.75883 0.0
C749 C 0.81923 0.54576 0.80094 0.0
C750 C 0.79308 0.54098 0.80215 0.0
C751 C 0.78375 0.54854 0.7606 0.0
C752 C 0.79921 0.55951 0.71786 0.0
C753 C 0.78531 0.5682 0.68045 0.0
C754 C 0.80222 0.59823 0.6688 0.0
C755 C 0.77828 0.55149 0.63198 0.0
C756 C 0.76047 0.56185 0.71015 0.0
C757 C 0.75981 0.55027 0.7561 0.0
C758 C 0.74054 0.54563 0.79252 0.0
C759 C 0.72149 0.55311 0.7817 0.0
C760 C 0.72182 0.56488 0.73476 0.0
C761 C 0.74128 0.56882 0.69836 0.0
H762 H 0.27265 0.83935 0.20343 0.0
H763 H 0.2829 0.82128 0.3581 0.0
H764 H 0.24378 0.77649 0.34963 0.0
H765 H 0.20546 0.8104 0.2057 0.0
H766 H 0.19909 0.79658 0.14296 0.0
H767 H 0.23061 0.82555 0.15733 0.0
H768 H 0.25564 0.80148 0.12729 0.0
H769 H 0.22416 0.77252 0.11172 0.0
H770 H 0.24696 0.76943 0.15363 0.0
H771 H 0.19866 0.73737 0.3303 0.0
H772 H 0.15457 0.70393 0.29584 0.0
H773 H 0.1753 0.74643 0.15315 0.0
C774 C 0.26732 0.82565 0.23487 0.0
C775 C 0.28079 0.83399 0.28145 0.0
C776 C 0.27286 0.81549 0.32198 0.0
C777 C 0.25061 0.78992 0.31764 0.0
C778 C 0.2368 0.78287 0.27221 0.0
C779 C 0.24526 0.7999 0.23104 0.0
C780 C 0.22586 0.78814 0.18765 0.0
C781 C 0.2146 0.80625 0.17257 0.0
C782 C 0.23894 0.78255 0.1424 0.0
C783 C 0.2047 0.76251 0.2117 0.0
C784 C 0.21131 0.75974 0.26046 0.0
C785 C 0.19355 0.73889 0.29164 0.0
C786 C 0.16852 0.72017 0.27205 0.0
C787 C 0.16178 0.72242 0.22175 0.0
C788 C 0.1802 0.74384 0.19142 0.0
H789 H 0.44128 0.25886 0.8441 0.0
H790 H 0.46386 0.29822 0.69861 0.0
H791 H 0.47177 0.26249 0.6668 0.0
H792 H 0.48509 0.22877 0.84467 0.0
H793 H 0.45939 0.19824 0.87252 0.0
H794 H 0.46106 0.22944 0.88695 0.0
H795 H 0.4121 0.21003 0.85766 0.0
H796 H 0.41026 0.17884 0.84362 0.0
H797 H 0.40269 0.19596 0.79531 0.0
H798 H 0.47373 0.22127 0.64958 0.0
H799 H 0.4619 0.17446 0.64149 0.0
H800 H 0.43354 0.1597 0.79646 0.0
C801 C 0.44867 0.2603 0.80599 0.0
C802 C 0.45262 0.28142 0.77391 0.0
C803 C 0.46111 0.28226 0.72368 0.0
C804 C 0.46585 0.26223 0.70563 0.0
C805 C 0.46157 0.24147 0.73822 0.0
C806 C 0.45272 0.24016 0.78712 0.0
C807 C 0.44537 0.21376 0.81182 0.0
C808 C 0.46384 0.21781 0.85665 0.0
C809 C 0.41586 0.19877 0.82801 0.0
C810 C 0.45051 0.19993 0.76855 0.0
C811 C 0.46078 0.21667 0.72716 0.0
C812 C 0.46581 0.20804 0.68176 0.0
C813 C 0.45894 0.18131 0.67764 0.0
C814 C 0.44644 0.16322 0.71825 0.0
C815 C 0.44323 0.173 0.76492 0.0
loop_
_geom_bond_atom_site_label_1
_geom_bond_atom_site_label_2
_geom_bond_distance
_geom_bond_site_symmetry_2
_ccdc_geom_bond_type
Mg0 O1 2.028 . S
Mg0 O7 1.986 . S
Mg0 O9 2.114 . S
Mg0 O10 2.251 . S
Mg0 O13 2.010 . S
O1 Mg0 2.028 . S
O1 C4 1.250 . S
O2 Mg3 2.028 . S
O2 C4 1.248 . S
Mg3 O2 2.028 . S
Mg3 O8 2.032 . S
Mg3 O10 2.079 . S
C4 O1 1.250 . S
C4 O2 1.248 . S
C5 O6 1.264 . S
C5 O13 1.249 . S
O6 C5 1.264 . S
O7 Mg0 1.986 . S
O7 C11 1.246 . S
O8 Mg3 2.032 . S
O8 C11 1.259 . S
O9 Mg0 2.114 . S
O9 C12 1.252 . S
O10 Mg0 2.251 . S
O10 Mg3 2.079 . S
O10 C12 1.273 . S
C11 O7 1.246 . S
C11 O8 1.259 . S
C12 O9 1.252 . S
C12 O10 1.273 . S
O13 Mg0 2.010 . S
O13 C5 1.249 . S
Mg14 O15 2.028 . S
Mg14 O21 1.986 . S
Mg14 O23 2.114 . S
Mg14 O24 2.251 . S
Mg14 O27 2.010 . S
O15 Mg14 2.028 . S
O15 C18 1.250 . S
O16 Mg17 2.028 . S
O16 C18 1.248 . S
Mg17 O16 2.028 . S
Mg17 O22 2.032 . S
Mg17 O24 2.079 . S
C18 O15 1.250 . S
C18 O16 1.248 . S
C19 O20 1.264 . S
C19 O27 1.249 . S
O20 C19 1.264 . S
O21 Mg14 1.986 . S
O21 C25 1.246 . S
O22 Mg17 2.032 . S
O22 C25 1.259 . S
O23 Mg14 2.114 . S
O23 C26 1.252 . S
O24 Mg14 2.251 . S
O24 Mg17 2.079 . S
O24 C26 1.273 . S
C25 O21 1.246 . S
C25 O22 1.259 . S
C26 O23 1.252 . S
C26 O24 1.273 . S
O27 Mg14 2.010 . S
O27 C19 1.249 . S
Mg28 O29 2.028 . S
Mg28 O35 1.986 . S
Mg28 O37 2.114 . S
Mg28 O38 2.251 . S
Mg28 O41 2.010 . S
O29 Mg28 2.028 . S
O29 C32 1.250 . S
O30 Mg31 2.028 . S
O30 C32 1.248 . S
Mg31 O30 2.028 . S
Mg31 O36 2.032 . S
Mg31 O38 2.079 . S
C32 O29 1.250 . S
C32 O30 1.248 . S
C33 O34 1.264 . S
C33 O41 1.249 . S
O34 C33 1.264 . S
O35 Mg28 1.986 . S
O35 C39 1.246 . S
O36 Mg31 2.032 . S
O36 C39 1.259 . S
O37 Mg28 2.114 . S
O37 C40 1.252 . S
O38 Mg28 2.251 . S
O38 Mg31 2.079 . S
O38 C40 1.273 . S
C39 O35 1.246 . S
C39 O36 1.259 . S
C40 O37 1.252 . S
C40 O38 1.273 . S
O41 Mg28 2.010 . S
O41 C33 1.249 . S
Mg42 O43 2.028 . S
Mg42 O49 1.986 . S
Mg42 O51 2.114 . S
Mg42 O52 2.251 . S
Mg42 O55 2.010 . S
O43 Mg42 2.028 . S
O43 C46 1.250 . S
O44 Mg45 2.028 . S
O44 C46 1.248 . S
Mg45 O44 2.028 . S
Mg45 O50 2.032 . S
Mg45 O52 2.079 . S
C46 O43 1.250 . S
C46 O44 1.248 . S
C47 O48 1.264 . S
C47 O55 1.249 . S
O48 C47 1.264 . S
O49 Mg42 1.986 . S
O49 C53 1.246 . S
O50 Mg45 2.032 . S
O50 C53 1.259 . S
O51 Mg42 2.114 . S
O51 C54 1.252 . S
O52 Mg42 2.251 . S
O52 Mg45 2.079 . S
O52 C54 1.273 . S
C53 O49 1.246 . S
C53 O50 1.259 . S
C54 O51 1.252 . S
C54 O52 1.273 . S
O55 Mg42 2.010 . S
O55 C47 1.249 . S
Mg56 O57 2.028 . S
Mg56 O63 1.986 . S
Mg56 O65 2.114 . S
Mg56 O66 2.251 . S
Mg56 O69 2.010 . S
O57 Mg56 2.028 . S
O57 C60 1.250 . S
O58 Mg59 2.028 . S
O58 C60 1.248 . S
Mg59 O58 2.028 . S
Mg59 O64 2.032 . S
Mg59 O66 2.079 . S
C60 O57 1.250 . S
C60 O58 1.248 . S
C61 O62 1.264 . S
C61 O69 1.249 . S
O62 C61 1.264 . S
O63 Mg56 1.986 . S
O63 C67 1.246 . S
O64 Mg59 2.032 . S
O64 C67 1.259 . S
O65 Mg56 2.114 . S
O65 C68 1.252 . S
O66 Mg56 2.251 . S
O66 Mg59 2.079 . S
O66 C68 1.273 . S
C67 O63 1.246 . S
C67 O64 1.259 . S
C68 O65 1.252 . S
C68 O66 1.273 . S
O69 Mg56 2.010 . S
O69 C61 1.249 . S
Mg70 O71 2.028 . S
Mg70 O77 1.986 . S
Mg70 O79 2.114 . S
Mg70 O80 2.251 . S
Mg70 O83 2.010 . S
O71 Mg70 2.028 . S
O71 C74 1.250 . S
O72 Mg73 2.028 . S
O72 C74 1.248 . S
Mg73 O72 2.028 . S
Mg73 O78 2.032 . S
Mg73 O80 2.079 . S
C74 O71 1.250 . S
C74 O72 1.248 . S
C75 O76 1.264 . S
C75 O83 1.249 . S
O76 C75 1.264 . S
O77 Mg70 1.986 . S
O77 C81 1.246 . S
O78 Mg73 2.032 . S
O78 C81 1.259 . S
O79 Mg70 2.114 . S
O79 C82 1.252 . S
O80 Mg70 2.251 . S
O80 Mg73 2.079 . S
O80 C82 1.273 . S
C81 O77 1.246 . S
C81 O78 1.259 . S
C82 O79 1.252 . S
C82 O80 1.273 . S
O83 Mg70 2.010 . S
O83 C75 1.249 . S
Mg84 O85 2.028 . S
Mg84 O91 1.986 . S
Mg84 O93 2.114 . S
Mg84 O94 2.251 . S
Mg84 O97 2.010 . S
O85 Mg84 2.028 . S
O85 C88 1.250 . S
O86 Mg87 2.028 . S
O86 C88 1.248 . S
Mg87 O86 2.028 . S
Mg87 O92 2.032 . S
Mg87 O94 2.079 . S
C88 O85 1.250 . S
C88 O86 1.248 . S
C89 O90 1.264 . S
C89 O97 1.249 . S
O90 C89 1.264 . S
O91 Mg84 1.986 . S
O91 C95 1.246 . S
O92 Mg87 2.032 . S
O92 C95 1.259 . S
O93 Mg84 2.114 . S
O93 C96 1.252 . S
O94 Mg84 2.251 . S
O94 Mg87 2.079 . S
O94 C96 1.273 . S
C95 O91 1.246 . S
C95 O92 1.259 . S
C96 O93 1.252 . S
C96 O94 1.273 . S
O97 Mg84 2.010 . S
O97 C89 1.249 . S
Mg98 O99 2.028 . S
Mg98 O105 1.986 . S
Mg98 O107 2.114 . S
Mg98 O108 2.251 . S
Mg98 O111 2.010 . S
O99 Mg98 2.028 . S
O99 C102 1.250 . S
O100 Mg101 2.028 . S
O100 C102 1.248 . S
Mg101 O100 2.028 . S
Mg101 O106 2.032 . S
Mg101 O108 2.079 . S
C102 O99 1.250 . S
C102 O100 1.248 . S
C103 O104 1.264 . S
C103 O111 1.249 . S
O104 C103 1.264 . S
O105 Mg98 1.986 . S
O105 C109 1.246 . S
O106 Mg101 2.032 . S
O106 C109 1.259 . S
O107 Mg98 2.114 . S
O107 C110 1.252 . S
O108 Mg98 2.251 . S
O108 Mg101 2.079 . S
O108 C110 1.273 . S
C109 O105 1.246 . S
C109 O106 1.259 . S
C110 O107 1.252 . S
C110 O108 1.273 . S
O111 Mg98 2.010 . S
O111 C103 1.249 . S
Mg112 O113 2.028 . S
Mg112 O119 1.986 . S
Mg112 O121 2.114 . S
Mg112 O122 2.251 . S
Mg112 O125 2.010 . S
O113 Mg112 2.028 . S
O113 C116 1.250 . S
O114 Mg115 2.028 . S
O114 C116 1.248 . S
Mg115 O114 2.028 . S
Mg115 O120 2.032 . S
Mg115 O122 2.079 . S
C116 O113 1.250 . S
C116 O114 1.248 . S
C117 O118 1.264 . S
C117 O125 1.249 . S
O118 C117 1.264 . S
O119 Mg112 1.986 . S
O119 C123 1.246 . S
O120 Mg115 2.032 . S
O120 C123 1.259 . S
O121 Mg112 2.114 . S
O121 C124 1.252 . S
O122 Mg112 2.251 . S
O122 Mg115 2.079 . S
O122 C124 1.273 . S
C123 O119 1.246 . S
C123 O120 1.259 . S
C124 O121 1.252 . S
C124 O122 1.273 . S
O125 Mg112 2.010 . S
O125 C117 1.249 . S
Mg126 O127 2.028 . S
Mg126 O133 1.986 . S
Mg126 O135 2.114 . S
Mg126 O136 2.251 . S
Mg126 O139 2.010 . S
O127 Mg126 2.028 . S
O127 C130 1.250 . S
O128 Mg129 2.028 . S
O128 C130 1.248 . S
Mg129 O128 2.028 . S
Mg129 O134 2.032 . S
Mg129 O136 2.079 . S
C130 O127 1.250 . S
C130 O128 1.248 . S
C131 O132 1.264 . S
C131 O139 1.249 . S
O132 C131 1.264 . S
O133 Mg126 1.986 . S
O133 C137 1.246 . S
O134 Mg129 2.032 . S
O134 C137 1.259 . S
O135 Mg126 2.114 . S
O135 C138 1.252 . S
O136 Mg126 2.251 . S
O136 Mg129 2.079 . S
O136 C138 1.273 . S
C137 O133 1.246 . S
C137 O134 1.259 . S
C138 O135 1.252 . S
C138 O136 1.273 . S
O139 Mg126 2.010 . S
O139 C131 1.249 . S
Mg140 O141 2.028 . S
Mg140 O147 1.986 . S
Mg140 O149 2.114 . S
Mg140 O150 2.251 . S
Mg140 O153 2.010 . S
O141 Mg140 2.028 . S
O141 C144 1.250 . S
O142 Mg143 2.028 . S
O142 C144 1.248 . S
Mg143 O142 2.028 . S
Mg143 O148 2.032 . S
Mg143 O150 2.079 . S
C144 O141 1.250 . S
C144 O142 1.248 . S
C145 O146 1.264 . S
C145 O153 1.249 . S
O146 C145 1.264 . S
O147 Mg140 1.986 . S
O147 C151 1.246 . S
O148 Mg143 2.032 . S
O148 C151 1.259 . S
O149 Mg140 2.114 . S
O149 C152 1.252 . S
O150 Mg140 2.251 . S
O150 Mg143 2.079 . S
O150 C152 1.273 . S
C151 O147 1.246 . S
C151 O148 1.259 . S
C152 O149 1.252 . S
C152 O150 1.273 . S
O153 Mg140 2.010 . S
O153 C145 1.249 . S
Mg154 O155 2.028 . S
Mg154 O161 1.986 . S
Mg154 O163 2.114 . S
Mg154 O164 2.251 . S
Mg154 O167 2.010 . S
O155 Mg154 2.028 . S
O155 C158 1.250 . S
O156 Mg157 2.028 . S
O156 C158 1.248 . S
Mg157 O156 2.028 . S
Mg157 O162 2.032 . S
Mg157 O164 2.079 . S
C158 O155 1.250 . S
C158 O156 1.248 . S
C159 O160 1.264 . S
C159 O167 1.249 . S
O160 C159 1.264 . S
O161 Mg154 1.986 . S
O161 C165 1.246 . S
O162 Mg157 2.032 . S
O162 C165 1.259 . S
O163 Mg154 2.114 . S
O163 C166 1.252 . S
O164 Mg154 2.251 . S
O164 Mg157 2.079 . S
O164 C166 1.273 . S
C165 O161 1.246 . S
C165 O162 1.259 . S
C166 O163 1.252 . S
C166 O164 1.273 . S
O167 Mg154 2.010 . S
O167 C159 1.249 . S
H168 C180 0.930 . S
H169 C182 0.930 . S
H170 C183 0.930 . S
H171 C187 0.959 . S
H172 C187 0.968 . S
H173 C187 0.961 1_554 S
H174 C188 0.960 . S
H175 C188 0.961 . S
H176 C188 0.959 . S
H177 C191 0.929 . S
H178 C192 0.931 . S
H179 C194 0.930 . S
C180 H168 0.930 . S
C180 C181 1.399 . S
C180 C185 1.399 . S
C181 C180 1.399 . S
C181 C182 1.376 . S
C182 H169 0.930 . S
C182 C181 1.376 . S
C182 C183 1.388 . S
C183 H170 0.930 . S
C183 C182 1.388 . S
C183 C184 1.390 . S
C184 C183 1.390 . S
C184 C185 1.394 . S
C184 C190 1.465 1_454 S
C185 C180 1.399 . S
C185 C184 1.394 . S
C185 C186 1.516 1_455 S
C186 C185 1.516 1_655 S
C186 C187 1.502 1_654 S
C186 C188 1.561 . S
C186 C189 1.526 1_554 S
C187 H171 0.959 . S
C187 H172 0.968 . S
C187 H173 0.961 1_556 S
C187 C186 1.502 1_456 S
C188 H174 0.960 . S
C188 H175 0.961 . S
C188 H176 0.959 . S
C188 C186 1.561 . S
C189 C186 1.526 1_556 S
C189 C190 1.396 . S
C189 C194 1.390 . S
C190 C184 1.465 1_656 S
C190 C189 1.396 . S
C190 C191 1.399 . S
C191 H177 0.929 . S
C191 C190 1.399 . S
C191 C192 1.385 . S
C192 H178 0.931 . S
C192 C191 1.385 . S
C192 C193 1.389 . S
C193 C192 1.389 . S
C193 C194 1.387 . S
C194 H179 0.930 . S
C194 C189 1.390 . S
C194 C193 1.387 . S
H195 C207 0.930 1_545 S
H196 C209 0.930 . S
H197 C210 0.930 . S
H198 C214 0.959 . S
H199 C214 0.959 . S
H200 C214 0.961 . S
H201 C215 0.960 . S
H202 C215 0.961 . S
H203 C215 0.959 . S
H204 C218 0.929 . S
H205 C219 0.931 1_565 S
H206 C221 0.930 . S
C207 H195 0.930 1_565 S
C207 C208 1.399 . S
C207 C212 1.399 . S
C208 C207 1.399 . S
C208 C209 1.376 . S
C209 H196 0.930 . S
C209 C208 1.376 . S
C209 C210 1.388 . S
C210 H197 0.930 . S
C210 C209 1.388 . S
C210 C211 1.390 . S
C211 C210 1.390 . S
C211 C212 1.394 . S
C211 C217 1.465 . S
C212 C207 1.399 . S
C212 C211 1.394 . S
C212 C213 1.515 1_565 S
C213 C212 1.515 1_545 S
C213 C214 1.502 . S
C213 C215 1.561 . S
C213 C216 1.526 . S
C214 H198 0.959 . S
C214 H199 0.959 . S
C214 H200 0.961 . S
C214 C213 1.502 . S
C215 H201 0.960 . S
C215 H202 0.961 . S
C215 H203 0.959 . S
C215 C213 1.561 . S
C216 C213 1.526 . S
C216 C217 1.396 1_545 S
C216 C221 1.390 . S
C217 C211 1.465 . S
C217 C216 1.396 1_565 S
C217 C218 1.399 . S
C218 H204 0.929 . S
C218 C217 1.399 . S
C218 C219 1.385 1_565 S
C219 H205 0.931 1_545 S
C219 C218 1.385 1_545 S
C219 C220 1.389 . S
C220 C219 1.389 . S
C220 C221 1.387 . S
C221 H206 0.930 . S
C221 C216 1.390 . S
C221 C220 1.387 . S
H222 C234 0.930 . S
H223 C236 0.930 . S
H224 C237 0.930 . S
H225 C241 0.959 . S
H226 C241 0.959 . S
H227 C241 0.961 . S
H228 C242 0.960 . S
H229 C242 0.961 1_556 S
H230 C242 0.959 . S
H231 C245 0.929 . S
H232 C246 0.931 . S
H233 C248 0.930 . S
C234 H222 0.930 . S
C234 C235 1.399 . S
C234 C239 1.399 . S
C235 C234 1.399 . S
C235 C236 1.376 . S
C236 H223 0.930 . S
C236 C235 1.376 . S
C236 C237 1.388 . S
C237 H224 0.930 . S
C237 C236 1.388 . S
C237 C238 1.390 . S
C238 C237 1.390 . S
C238 C239 1.394 . S
C238 C244 1.465 1_554 S
C239 C234 1.399 . S
C239 C238 1.394 . S
C239 C240 1.516 1_554 S
C240 C239 1.516 1_556 S
C240 C241 1.502 . S
C240 C242 1.561 1_556 S
C240 C243 1.526 . S
C241 H225 0.959 . S
C241 H226 0.959 . S
C241 H227 0.961 . S
C241 C240 1.502 . S
C242 H228 0.960 . S
C242 H229 0.961 1_554 S
C242 H230 0.959 . S
C242 C240 1.561 1_554 S
C243 C240 1.526 . S
C243 C244 1.396 . S
C243 C248 1.390 . S
C244 C238 1.465 1_556 S
C244 C243 1.396 . S
C244 C245 1.399 . S
C245 H231 0.929 . S
C245 C244 1.399 . S
C245 C246 1.385 . S
C246 H232 0.931 . S
C246 C245 1.385 . S
C246 C247 1.389 . S
C247 C246 1.389 . S
C247 C248 1.387 . S
C248 H233 0.930 . S
C248 C243 1.390 . S
C248 C247 1.387 . S
H249 C261 0.930 . S
H250 C263 0.930 . S
H251 C264 0.930 . S
H252 C268 0.959 . S
H253 C268 0.959 . S
H254 C268 0.961 . S
H255 C269 0.960 . S
H256 C269 0.961 . S
H257 C269 0.959 1_655 S
H258 C272 0.929 . S
H259 C273 0.931 . S
H260 C275 0.930 . S
C261 H249 0.930 . S
C261 C262 1.399 . S
C261 C266 1.399 . S
C262 C261 1.399 . S
C262 C263 1.376 . S
C263 H250 0.930 . S
C263 C262 1.376 . S
C263 C264 1.388 1_455 S
C264 H251 0.930 . S
C264 C263 1.388 1_655 S
C264 C265 1.390 . S
C265 C264 1.390 . S
C265 C266 1.394 1_655 S
C265 C271 1.465 . S
C266 C261 1.399 . S
C266 C265 1.394 1_455 S
C266 C267 1.516 . S
C267 C266 1.516 . S
C267 C268 1.502 . S
C267 C269 1.561 . S
C267 C270 1.526 1_455 S
C268 H252 0.959 . S
C268 H253 0.959 . S
C268 H254 0.961 . S
C268 C267 1.502 . S
C269 H255 0.960 . S
C269 H256 0.961 . S
C269 H257 0.959 1_455 S
C269 C267 1.561 . S
C270 C267 1.526 1_655 S
C270 C271 1.396 . S
C270 C275 1.390 . S
C271 C265 1.465 . S
C271 C270 1.396 . S
C271 C272 1.399 . S
C272 H258 0.929 . S
C272 C271 1.399 . S
C272 C273 1.385 . S
C273 H259 0.931 . S
C273 C272 1.385 . S
C273 C274 1.389 . S
C274 C273 1.389 . S
C274 C275 1.387 . S
C275 H260 0.930 . S
C275 C270 1.390 . S
C275 C274 1.387 . S
H276 C288 0.930 1_565 S
H277 C290 0.930 . S
H278 C291 0.930 1_554 S
H279 C295 0.959 . S
H280 C295 0.959 . S
H281 C295 0.961 . S
H282 C296 0.960 . S
H283 C296 0.961 . S
H284 C296 0.959 . S
H285 C299 0.929 . S
H286 C300 0.931 1_545 S
H287 C302 0.930 . S
C288 H276 0.930 1_545 S
C288 C289 1.399 . S
C288 C293 1.400 . S
C289 C288 1.399 . S
C289 C290 1.376 . S
C290 H277 0.930 . S
C290 C289 1.376 . S
C290 C291 1.388 . S
C291 H278 0.930 1_556 S
C291 C290 1.388 . S
C291 C292 1.390 . S
C292 C291 1.390 . S
C292 C293 1.395 . S
C292 C298 1.465 1_556 S
C293 C288 1.400 . S
C293 C292 1.395 . S
C293 C294 1.515 1_545 S
C294 C293 1.515 1_565 S
C294 C295 1.502 . S
C294 C296 1.561 . S
C294 C297 1.526 1_556 S
C295 H279 0.959 . S
C295 H280 0.959 . S
C295 H281 0.961 . S
C295 C294 1.502 . S
C296 H282 0.960 . S
C296 H283 0.961 . S
C296 H284 0.959 . S
C296 C294 1.561 . S
C297 C294 1.526 1_554 S
C297 C298 1.396 1_565 S
C297 C302 1.390 . S
C298 C292 1.465 1_554 S
C298 C297 1.396 1_545 S
C298 C299 1.399 . S
C299 H285 0.929 . S
C299 C298 1.399 . S
C299 C300 1.385 1_545 S
C300 H286 0.931 1_565 S
C300 C299 1.385 1_565 S
C300 C301 1.389 . S
C301 C300 1.389 . S
C301 C302 1.387 . S
C302 H287 0.930 . S
C302 C297 1.390 . S
C302 C301 1.387 . S
H303 C315 0.930 . S
H304 C317 0.930 . S
H305 C318 0.930 . S
H306 C322 0.959 . S
H307 C322 0.959 . S
H308 C322 0.961 . S
H309 C323 0.960 . S
H310 C323 0.961 . S
H311 C323 0.959 . S
H312 C326 0.929 . S
H313 C327 0.931 . S
H314 C329 0.930 . S
C315 H303 0.930 . S
C315 C316 1.399 . S
C315 C320 1.399 . S
C316 C315 1.399 . S
C316 C317 1.376 . S
C317 H304 0.930 . S
C317 C316 1.376 . S
C317 C318 1.388 . S
C318 H305 0.930 . S
C318 C317 1.388 . S
C318 C319 1.390 . S
C319 C318 1.390 . S
C319 C320 1.394 . S
C319 C325 1.465 . S
C320 C315 1.399 . S
C320 C319 1.394 . S
C320 C321 1.516 . S
C321 C320 1.516 . S
C321 C322 1.502 . S
C321 C323 1.561 . S
C321 C324 1.526 . S
C322 H306 0.959 . S
C322 H307 0.959 . S
C322 H308 0.961 . S
C322 C321 1.502 . S
C323 H309 0.960 . S
C323 H310 0.961 . S
C323 H311 0.959 . S
C323 C321 1.561 . S
C324 C321 1.526 . S
C324 C325 1.396 . S
C324 C329 1.390 . S
C325 C319 1.465 . S
C325 C324 1.396 . S
C325 C326 1.399 . S
C326 H312 0.929 . S
C326 C325 1.399 . S
C326 C327 1.385 . S
C327 H313 0.931 . S
C327 C326 1.385 . S
C327 C328 1.389 . S
C328 C327 1.389 . S
C328 C329 1.387 . S
C329 H314 0.930 . S
C329 C324 1.390 . S
C329 C328 1.387 . S
H330 C342 0.930 . S
H331 C344 0.930 . S
H332 C345 0.930 . S
H333 C349 0.959 . S
H334 C349 0.959 . S
H335 C349 0.961 . S
H336 C350 0.960 . S
H337 C350 0.961 . S
H338 C350 0.959 . S
H339 C353 0.929 1_556 S
H340 C354 0.931 . S
H341 C356 0.930 1_655 S
C342 H330 0.930 . S
C342 C343 1.399 . S
C342 C347 1.399 . S
C343 C342 1.399 . S
C343 C344 1.376 . S
C344 H331 0.930 . S
C344 C343 1.376 . S
C344 C345 1.388 1_655 S
C345 H332 0.930 . S
C345 C344 1.388 1_455 S
C345 C346 1.390 . S
C346 C345 1.390 . S
C346 C347 1.394 1_455 S
C346 C352 1.465 1_556 S
C347 C342 1.399 . S
C347 C346 1.394 1_655 S
C347 C348 1.516 1_556 S
C348 C347 1.516 1_554 S
C348 C349 1.502 . S
C348 C350 1.561 . S
C348 C351 1.526 1_655 S
C349 H333 0.959 . S
C349 H334 0.959 . S
C349 H335 0.961 . S
C349 C348 1.502 . S
C350 H336 0.960 . S
C350 H337 0.961 . S
C350 H338 0.959 . S
C350 C348 1.561 . S
C351 C348 1.526 1_455 S
C351 C352 1.396 . S
C351 C356 1.390 . S
C352 C346 1.465 1_554 S
C352 C351 1.396 . S
C352 C353 1.399 . S
C353 H339 0.929 1_554 S
C353 C352 1.399 . S
C353 C354 1.385 . S
C354 H340 0.931 . S
C354 C353 1.385 . S
C354 C355 1.389 . S
C355 C354 1.389 . S
C355 C356 1.387 . S
C356 H341 0.930 1_455 S
C356 C351 1.390 . S
C356 C355 1.387 . S
H357 C369 0.930 . S
H358 C371 0.930 . S
H359 C372 0.930 . S
H360 C376 0.959 . S
H361 C376 0.959 . S
H362 C376 0.961 . S
H363 C377 0.960 . S
H364 C377 0.961 . S
H365 C377 0.959 1_545 S
H366 C380 0.929 . S
H367 C381 0.931 . S
H368 C383 0.930 . S
C369 H357 0.930 . S
C369 C370 1.399 . S
C369 C374 1.399 . S
C370 C369 1.399 . S
C370 C371 1.376 . S
C371 H358 0.930 . S
C371 C370 1.376 . S
C371 C372 1.388 1_565 S
C372 H359 0.930 . S
C372 C371 1.388 1_545 S
C372 C373 1.390 . S
C373 C372 1.390 . S
C373 C374 1.394 1_545 S
C373 C379 1.465 . S
C374 C369 1.399 . S
C374 C373 1.394 1_565 S
C374 C375 1.516 . S
C375 C374 1.516 . S
C375 C376 1.502 . S
C375 C377 1.561 . S
C375 C378 1.526 1_565 S
C376 H360 0.959 . S
C376 H361 0.959 . S
C376 H362 0.961 . S
C376 C375 1.502 . S
C377 H363 0.960 . S
C377 H364 0.961 . S
C377 H365 0.959 1_565 S
C377 C375 1.561 . S
C378 C375 1.526 1_545 S
C378 C379 1.396 . S
C378 C383 1.390 . S
C379 C373 1.465 . S
C379 C378 1.396 . S
C379 C380 1.399 . S
C380 H366 0.929 . S
C380 C379 1.399 . S
C380 C381 1.385 . S
C381 H367 0.931 . S
C381 C380 1.385 . S
C381 C382 1.389 . S
C382 C381 1.389 . S
C382 C383 1.387 . S
C383 H368 0.930 . S
C383 C378 1.390 . S
C383 C382 1.387 . S
H384 C396 0.930 . S
H385 C398 0.930 . S
H386 C399 0.930 . S
H387 C403 0.959 . S
H388 C403 0.959 . S
H389 C403 0.961 1_556 S
H390 C404 0.960 . S
H391 C404 0.961 . S
H392 C404 0.959 . S
H393 C407 0.929 . S
H394 C408 0.931 . S
H395 C410 0.930 . S
C396 H384 0.930 . S
C396 C397 1.399 . S
C396 C401 1.399 . S
C397 C396 1.399 . S
C397 C398 1.376 . S
C398 H385 0.930 . S
C398 C397 1.376 . S
C398 C399 1.388 . S
C399 H386 0.930 . S
C399 C398 1.388 . S
C399 C400 1.390 . S
C400 C399 1.390 . S
C400 C401 1.394 . S
C400 C406 1.465 1_556 S
C401 C396 1.399 . S
C401 C400 1.394 . S
C401 C402 1.516 . S
C402 C401 1.516 . S
C402 C403 1.502 1_556 S
C402 C404 1.561 . S
C402 C405 1.526 1_556 S
C403 H387 0.959 . S
C403 H388 0.959 . S
C403 H389 0.961 1_554 S
C403 C402 1.502 1_554 S
C404 H390 0.960 . S
C404 H391 0.961 . S
C404 H392 0.959 . S
C404 C402 1.561 . S
C405 C402 1.526 1_554 S
C405 C406 1.396 . S
C405 C410 1.390 . S
C406 C400 1.465 1_554 S
C406 C405 1.396 . S
C406 C407 1.399 . S
C407 H393 0.929 . S
C407 C406 1.399 . S
C407 C408 1.385 . S
C408 H394 0.931 . S
C408 C407 1.385 . S
C408 C409 1.389 . S
C409 C408 1.389 . S
C409 C410 1.387 . S
C410 H395 0.930 . S
C410 C405 1.390 . S
C410 C409 1.387 . S
H411 C423 0.930 . S
H412 C425 0.930 . S
H413 C426 0.930 . S
H414 C430 0.959 . S
H415 C430 0.959 . S
H416 C430 0.961 . S
H417 C431 0.960 . S
H418 C431 0.961 1_455 S
H419 C431 0.959 . S
H420 C434 0.929 1_655 S
H421 C435 0.931 . S
H422 C437 0.930 . S
C423 H411 0.930 . S
C423 C424 1.399 . S
C423 C428 1.399 . S
C424 C423 1.399 . S
C424 C425 1.376 . S
C425 H412 0.930 . S
C425 C424 1.376 . S
C425 C426 1.388 . S
C426 H413 0.930 . S
C426 C425 1.388 . S
C426 C427 1.390 . S
C427 C426 1.390 . S
C427 C428 1.394 . S
C427 C433 1.446 1_655 S
C428 C423 1.399 . S
C428 C427 1.394 . S
C428 C429 1.516 1_655 S
C429 C428 1.516 1_455 S
C429 C430 1.502 . S
C429 C431 1.561 1_455 S
C429 C432 1.526 . S
C430 H414 0.959 . S
C430 H415 0.959 . S
C430 H416 0.961 . S
C430 C429 1.502 . S
C431 H417 0.960 . S
C431 H418 0.961 1_655 S
C431 H419 0.959 . S
C431 C429 1.561 1_655 S
C432 C429 1.526 . S
C432 C433 1.433 . S
C432 C437 1.390 . S
C433 C427 1.446 1_455 S
C433 C432 1.433 . S
C433 C434 1.388 . S
C434 H420 0.929 1_455 S
C434 C433 1.388 . S
C434 C435 1.385 . S
C435 H421 0.931 . S
C435 C434 1.385 . S
C435 C436 1.389 . S
C436 C435 1.389 . S
C436 C437 1.387 . S
C437 H422 0.930 . S
C437 C432 1.390 . S
C437 C436 1.387 . S
H438 C450 0.938 . S
H439 C452 0.930 . S
H440 C453 0.930 1_554 S
H441 C457 0.959 . S
H442 C457 0.959 . S
H443 C457 0.961 . S
H444 C458 0.960 . S
H445 C458 0.961 . S
H446 C458 0.959 . S
H447 C461 0.929 . S
H448 C462 0.931 . S
H449 C464 0.930 . S
C450 H438 0.938 . S
C450 C451 1.399 . S
C450 C455 1.399 . S
C451 C450 1.399 . S
C451 C452 1.376 . S
C452 H439 0.930 . S
C452 C451 1.376 . S
C452 C453 1.388 . S
C453 H440 0.930 1_556 S
C453 C452 1.388 . S
C453 C454 1.390 . S
C454 C453 1.390 . S
C454 C455 1.394 . S
C454 C460 1.465 1_556 S
C455 C450 1.399 . S
C455 C454 1.394 . S
C455 C456 1.516 1_545 S
C456 C455 1.516 1_565 S
C456 C457 1.502 . S
C456 C458 1.561 . S
C456 C459 1.526 1_556 S
C457 H441 0.959 . S
C457 H442 0.959 . S
C457 H443 0.961 . S
C457 C456 1.502 . S
C458 H444 0.960 . S
C458 H445 0.961 . S
C458 H446 0.959 . S
C458 C456 1.561 . S
C459 C456 1.526 1_554 S
C459 C460 1.396 1_565 S
C459 C464 1.390 . S
C460 C454 1.465 1_554 S
C460 C459 1.396 1_545 S
C460 C461 1.399 . S
C461 H447 0.929 . S
C461 C460 1.399 . S
C461 C462 1.385 1_545 S
C462 H448 0.931 . S
C462 C461 1.385 1_565 S
C462 C463 1.389 . S
C463 C462 1.389 . S
C463 C464 1.387 . S
C464 H449 0.930 . S
C464 C459 1.390 . S
C464 C463 1.387 . S
H465 C477 0.930 . S
H466 C479 0.930 . S
H467 C480 0.930 . S
H468 C484 0.959 . S
H469 C484 0.959 . S
H470 C484 0.961 . S
H471 C485 0.960 . S
H472 C485 0.961 . S
H473 C485 0.959 . S
H474 C488 0.929 . S
H475 C489 0.931 . S
H476 C491 0.930 . S
C477 H465 0.930 . S
C477 C478 1.399 . S
C477 C482 1.399 . S
C478 C477 1.399 . S
C478 C479 1.376 . S
C479 H466 0.930 . S
C479 C478 1.376 . S
C479 C480 1.388 . S
C480 H467 0.930 . S
C480 C479 1.388 . S
C480 C481 1.390 . S
C481 C480 1.390 . S
C481 C482 1.394 . S
C481 C487 1.465 . S
C482 C477 1.399 . S
C482 C481 1.394 . S
C482 C483 1.516 . S
C483 C482 1.516 . S
C483 C484 1.502 . S
C483 C485 1.561 . S
C483 C486 1.526 . S
C484 H468 0.959 . S
C484 H469 0.959 . S
C484 H470 0.961 . S
C484 C483 1.502 . S
C485 H471 0.960 . S
C485 H472 0.961 . S
C485 H473 0.959 . S
C485 C483 1.561 . S
C486 C483 1.526 . S
C486 C487 1.396 . S
C486 C491 1.390 . S
C487 C481 1.465 . S
C487 C486 1.396 . S
C487 C488 1.399 . S
C488 H474 0.929 . S
C488 C487 1.399 . S
C488 C489 1.385 . S
C489 H475 0.931 . S
C489 C488 1.385 . S
C489 C490 1.389 . S
C490 C489 1.389 . S
C490 C491 1.387 . S
C491 H476 0.930 . S
C491 C486 1.390 . S
C491 C490 1.387 . S
H492 C504 0.930 . S
H493 C506 0.930 . S
H494 C507 0.930 . S
H495 C511 0.959 . S
H496 C511 0.959 . S
H497 C511 0.961 . S
H498 C512 0.960 . S
H499 C512 0.961 . S
H500 C512 0.959 . S
H501 C515 0.929 . S
H502 C516 0.931 . S
H503 C518 0.930 . S
C504 H492 0.930 . S
C504 C505 1.399 . S
C504 C509 1.399 . S
C505 C504 1.399 . S
C505 C506 1.376 . S
C506 H493 0.930 . S
C506 C505 1.376 . S
C506 C507 1.388 . S
C507 H494 0.930 . S
C507 C506 1.388 . S
C507 C508 1.390 . S
C508 C507 1.390 . S
C508 C509 1.394 . S
C508 C514 1.465 . S
C509 C504 1.399 . S
C509 C508 1.394 . S
C509 C510 1.516 . S
C510 C509 1.516 . S
C510 C511 1.502 . S
C510 C512 1.561 . S
C510 C513 1.526 . S
C511 H495 0.959 . S
C511 H496 0.959 . S
C511 H497 0.961 . S
C511 C510 1.502 . S
C512 H498 0.960 . S
C512 H499 0.961 . S
C512 H500 0.959 . S
C512 C510 1.561 . S
C513 C510 1.526 . S
C513 C514 1.396 . S
C513 C518 1.390 . S
C514 C508 1.465 . S
C514 C513 1.396 . S
C514 C515 1.399 . S
C515 H501 0.929 . S
C515 C514 1.399 . S
C515 C516 1.385 . S
C516 H502 0.931 . S
C516 C515 1.385 . S
C516 C517 1.389 . S
C517 C516 1.389 . S
C517 C518 1.387 . S
C518 H503 0.930 . S
C518 C513 1.390 . S
C518 C517 1.387 . S
H519 C531 0.930 . S
H520 C533 0.930 . S
H521 C534 0.930 . S
H522 C538 0.959 . S
H523 C538 0.959 . S
H524 C538 0.961 . S
H525 C539 0.960 . S
H526 C539 0.961 . S
H527 C539 0.959 . S
H528 C542 0.929 . S
H529 C543 0.931 . S
H530 C545 0.930 . S
C531 H519 0.930 . S
C531 C532 1.399 . S
C531 C536 1.399 . S
C532 C531 1.399 . S
C532 C533 1.376 . S
C533 H520 0.930 . S
C533 C532 1.376 . S
C533 C534 1.388 . S
C534 H521 0.930 . S
C534 C533 1.388 . S
C534 C535 1.390 . S
C535 C534 1.390 . S
C535 C536 1.394 . S
C535 C541 1.465 . S
C536 C531 1.399 . S
C536 C535 1.394 . S
C536 C537 1.516 . S
C537 C536 1.516 . S
C537 C538 1.502 . S
C537 C539 1.561 . S
C537 C540 1.526 . S
C538 H522 0.959 . S
C538 H523 0.959 . S
C538 H524 0.961 . S
C538 C537 1.502 . S
C539 H525 0.960 . S
C539 H526 0.961 . S
C539 H527 0.959 . S
C539 C537 1.561 . S
C540 C537 1.526 . S
C540 C541 1.396 . S
C540 C545 1.390 . S
C541 C535 1.465 . S
C541 C540 1.396 . S
C541 C542 1.399 . S
C542 H528 0.929 . S
C542 C541 1.399 . S
C542 C543 1.385 . S
C543 H529 0.931 . S
C543 C542 1.385 . S
C543 C544 1.389 . S
C544 C543 1.389 . S
C544 C545 1.387 . S
C545 H530 0.930 . S
C545 C540 1.390 . S
C545 C544 1.387 . S
H546 C558 0.930 . S
H547 C560 0.930 . S
H548 C561 0.930 . S
H549 C565 0.959 . S
H550 C565 0.959 . S
H551 C565 0.961 . S
H552 C566 0.960 . S
H553 C566 0.961 . S
H554 C566 0.959 . S
H555 C569 0.929 . S
H556 C570 0.931 . S
H557 C572 0.930 . S
C558 H546 0.930 . S
C558 C559 1.399 . S
C558 C563 1.399 . S
C559 C558 1.399 . S
C559 C560 1.376 . S
C560 H547 0.930 . S
C560 C559 1.376 . S
C560 C561 1.388 . S
C561 H548 0.930 . S
C561 C560 1.388 . S
C561 C562 1.390 . S
C562 C561 1.390 . S
C562 C563 1.394 . S
C562 C568 1.465 . S
C563 C558 1.399 . S
C563 C562 1.394 . S
C563 C564 1.516 . S
C564 C563 1.516 . S
C564 C565 1.502 . S
C564 C566 1.561 . S
C564 C567 1.526 . S
C565 H549 0.959 . S
C565 H550 0.959 . S
C565 H551 0.961 . S
C565 C564 1.502 . S
C566 H552 0.960 . S
C566 H553 0.961 . S
C566 H554 0.959 . S
C566 C564 1.561 . S
C567 C564 1.526 . S
C567 C568 1.396 . S
C567 C572 1.390 . S
C568 C562 1.465 . S
C568 C567 1.396 . S
C568 C569 1.399 . S
C569 H555 0.929 . S
C569 C568 1.399 . S
C569 C570 1.385 . S
C570 H556 0.931 . S
C570 C569 1.385 . S
C570 C571 1.389 . S
C571 C570 1.389 . S
C571 C572 1.387 . S
C572 H557 0.930 . S
C572 C567 1.390 . S
C572 C571 1.387 . S
H573 C585 0.930 . S
H574 C587 0.930 . S
H575 C588 0.930 . S
H576 C592 0.959 . S
H577 C592 0.959 . S
H578 C592 0.961 . S
H579 C593 0.960 . S
H580 C593 0.961 . S
H581 C593 0.959 . S
H582 C596 0.929 . S
H583 C597 0.931 . S
H584 C599 0.930 . S
C585 H573 0.930 . S
C585 C586 1.399 . S
C585 C590 1.399 . S
C586 C585 1.399 . S
C586 C587 1.376 . S
C587 H574 0.930 . S
C587 C586 1.376 . S
C587 C588 1.388 . S
C588 H575 0.930 . S
C588 C587 1.388 . S
C588 C589 1.390 . S
C589 C588 1.390 . S
C589 C590 1.394 . S
C589 C595 1.465 . S
C590 C585 1.399 . S
C590 C589 1.394 . S
C590 C591 1.516 . S
C591 C590 1.516 . S
C591 C592 1.502 . S
C591 C593 1.561 . S
C591 C594 1.526 . S
C592 H576 0.959 . S
C592 H577 0.959 . S
C592 H578 0.961 . S
C592 C591 1.502 . S
C593 H579 0.960 . S
C593 H580 0.961 . S
C593 H581 0.959 . S
C593 C591 1.561 . S
C594 C591 1.526 . S
C594 C595 1.396 . S
C594 C599 1.390 . S
C595 C589 1.465 . S
C595 C594 1.396 . S
C595 C596 1.399 . S
C596 H582 0.929 . S
C596 C595 1.399 . S
C596 C597 1.385 . S
C597 H583 0.931 . S
C597 C596 1.385 . S
C597 C598 1.389 . S
C598 C597 1.389 . S
C598 C599 1.387 . S
C599 H584 0.930 . S
C599 C594 1.390 . S
C599 C598 1.387 . S
H600 C612 0.930 . S
H601 C614 0.930 . S
H602 C615 0.930 . S
H603 C619 0.959 . S
H604 C619 0.959 . S
H605 C619 0.961 . S
H606 C620 0.960 . S
H607 C620 0.961 . S
H608 C620 0.959 . S
H609 C623 0.929 . S
H610 C624 0.931 . S
H611 C626 0.930 . S
C612 H600 0.930 . S
C612 C613 1.399 . S
C612 C617 1.399 . S
C613 C612 1.399 . S
C613 C614 1.376 . S
C614 H601 0.930 . S
C614 C613 1.376 . S
C614 C615 1.388 . S
C615 H602 0.930 . S
C615 C614 1.388 . S
C615 C616 1.390 . S
C616 C615 1.390 . S
C616 C617 1.394 . S
C616 C622 1.465 . S
C617 C612 1.399 . S
C617 C616 1.394 . S
C617 C618 1.516 . S
C618 C617 1.516 . S
C618 C619 1.502 . S
C618 C620 1.561 . S
C618 C621 1.526 . S
C619 H603 0.959 . S
C619 H604 0.959 . S
C619 H605 0.961 . S
C619 C618 1.502 . S
C620 H606 0.960 . S
C620 H607 0.961 . S
C620 H608 0.959 . S
C620 C618 1.561 . S
C621 C618 1.526 . S
C621 C622 1.396 . S
C621 C626 1.390 . S
C622 C616 1.465 . S
C622 C621 1.396 . S
C622 C623 1.399 . S
C623 H609 0.929 . S
C623 C622 1.399 . S
C623 C624 1.385 . S
C624 H610 0.931 . S
C624 C623 1.385 . S
C624 C625 1.389 . S
C625 C624 1.389 . S
C625 C626 1.387 . S
C626 H611 0.930 . S
C626 C621 1.390 . S
C626 C625 1.387 . S
H627 C639 0.930 . S
H628 C641 0.930 . S
H629 C642 0.930 . S
H630 C646 0.959 . S
H631 C646 0.959 . S
H632 C646 0.961 . S
H633 C647 0.960 . S
H634 C647 0.961 . S
H635 C647 0.959 . S
H636 C650 0.929 . S
H637 C651 0.931 . S
H638 C653 0.930 . S
C639 H627 0.930 . S
C639 C640 1.399 . S
C639 C644 1.399 . S
C640 C639 1.399 . S
C640 C641 1.376 . S
C641 H628 0.930 . S
C641 C640 1.376 . S
C641 C642 1.388 . S
C642 H629 0.930 . S
C642 C641 1.388 . S
C642 C643 1.390 . S
C643 C642 1.390 . S
C643 C644 1.394 . S
C643 C649 1.465 . S
C644 C639 1.399 . S
C644 C643 1.394 . S
C644 C645 1.516 . S
C645 C644 1.516 . S
C645 C646 1.502 . S
C645 C647 1.561 . S
C645 C648 1.526 . S
C646 H630 0.959 . S
C646 H631 0.959 . S
C646 H632 0.961 . S
C646 C645 1.502 . S
C647 H633 0.960 . S
C647 H634 0.961 . S
C647 H635 0.959 . S
C647 C645 1.561 . S
C648 C645 1.526 . S
C648 C649 1.396 . S
C648 C653 1.390 . S
C649 C643 1.465 . S
C649 C648 1.396 . S
C649 C650 1.399 . S
C650 H636 0.929 . S
C650 C649 1.399 . S
C650 C651 1.385 . S
C651 H637 0.931 . S
C651 C650 1.385 . S
C651 C652 1.389 . S
C652 C651 1.389 . S
C652 C653 1.387 . S
C653 H638 0.930 . S
C653 C648 1.390 . S
C653 C652 1.387 . S
H654 C666 0.930 . S
H655 C668 0.930 . S
H656 C669 0.930 . S
H657 C673 0.959 . S
H658 C673 0.959 . S
H659 C673 0.961 . S
H660 C674 0.960 . S
H661 C674 0.961 . S
H662 C674 0.959 . S
H663 C677 0.929 . S
H664 C678 0.931 . S
H665 C680 0.930 . S
C666 H654 0.930 . S
C666 C667 1.399 . S
C666 C671 1.399 . S
C667 C666 1.399 . S
C667 C668 1.376 . S
C668 H655 0.930 . S
C668 C667 1.376 . S
C668 C669 1.388 . S
C669 H656 0.930 . S
C669 C668 1.388 . S
C669 C670 1.390 . S
C670 C669 1.390 . S
C670 C671 1.394 . S
C670 C676 1.465 . S
C671 C666 1.399 . S
C671 C670 1.394 . S
C671 C672 1.516 . S
C672 C671 1.516 . S
C672 C673 1.502 . S
C672 C674 1.561 . S
C672 C675 1.526 . S
C673 H657 0.959 . S
C673 H658 0.959 . S
C673 H659 0.961 . S
C673 C672 1.502 . S
C674 H660 0.960 . S
C674 H661 0.961 . S
C674 H662 0.959 . S
C674 C672 1.561 . S
C675 C672 1.526 . S
C675 C676 1.396 . S
C675 C680 1.390 . S
C676 C670 1.465 . S
C676 C675 1.396 . S
C676 C677 1.399 . S
C677 H663 0.929 . S
C677 C676 1.399 . S
C677 C678 1.385 . S
C678 H664 0.931 . S
C678 C677 1.385 . S
C678 C679 1.389 . S
C679 C678 1.389 . S
C679 C680 1.387 . S
C680 H665 0.930 . S
C680 C675 1.390 . S
C680 C679 1.387 . S
H681 C693 0.930 . S
H682 C695 0.930 . S
H683 C696 0.930 . S
H684 C700 0.959 . S
H685 C700 0.959 . S
H686 C700 0.961 . S
H687 C701 0.960 . S
H688 C701 0.961 . S
H689 C701 0.959 . S
H690 C704 0.929 . S
H691 C705 0.931 . S
H692 C707 0.930 . S
C693 H681 0.930 . S
C693 C694 1.399 . S
C693 C698 1.399 . S
C694 C693 1.399 . S
C694 C695 1.376 . S
C695 H682 0.930 . S
C695 C694 1.376 . S
C695 C696 1.388 . S
C696 H683 0.930 . S
C696 C695 1.388 . S
C696 C697 1.390 . S
C697 C696 1.390 . S
C697 C698 1.394 . S
C697 C703 1.465 . S
C698 C693 1.399 . S
C698 C697 1.394 . S
C698 C699 1.516 . S
C699 C698 1.516 . S
C699 C700 1.502 . S
C699 C701 1.561 . S
C699 C702 1.526 . S
C700 H684 0.959 . S
C700 H685 0.959 . S
C700 H686 0.961 . S
C700 C699 1.502 . S
C701 H687 0.960 . S
C701 H688 0.961 . S
C701 H689 0.959 . S
C701 C699 1.561 . S
C702 C699 1.526 . S
C702 C703 1.396 . S
C702 C707 1.390 . S
C703 C697 1.465 . S
C703 C702 1.396 . S
C703 C704 1.399 . S
C704 H690 0.929 . S
C704 C703 1.399 . S
C704 C705 1.385 . S
C705 H691 0.931 . S
C705 C704 1.385 . S
C705 C706 1.389 . S
C706 C705 1.389 . S
C706 C707 1.387 . S
C707 H692 0.930 . S
C707 C702 1.390 . S
C707 C706 1.387 . S
H708 C720 0.930 . S
H709 C722 0.930 . S
H710 C723 0.930 . S
H711 C727 0.959 . S
H712 C727 0.959 . S
H713 C727 0.961 . S
H714 C728 0.960 . S
H715 C728 0.961 . S
H716 C728 0.959 . S
H717 C731 0.929 . S
H718 C732 0.931 . S
H719 C734 0.930 . S
C720 H708 0.930 . S
C720 C721 1.399 . S
C720 C725 1.399 . S
C721 C720 1.399 . S
C721 C722 1.376 . S
C722 H709 0.930 . S
C722 C721 1.376 . S
C722 C723 1.388 . S
C723 H710 0.930 . S
C723 C722 1.388 . S
C723 C724 1.390 . S
C724 C723 1.390 . S
C724 C725 1.394 . S
C724 C730 1.465 . S
C725 C720 1.399 . S
C725 C724 1.394 . S
C725 C726 1.516 . S
C726 C725 1.516 . S
C726 C727 1.502 . S
C726 C728 1.561 . S
C726 C729 1.526 . S
C727 H711 0.959 . S
C727 H712 0.959 . S
C727 H713 0.961 . S
C727 C726 1.502 . S
C728 H714 0.960 . S
C728 H715 0.961 . S
C728 H716 0.959 . S
C728 C726 1.561 . S
C729 C726 1.526 . S
C729 C730 1.396 . S
C729 C734 1.390 . S
C730 C724 1.465 . S
C730 C729 1.396 . S
C730 C731 1.399 . S
C731 H717 0.929 . S
C731 C730 1.399 . S
C731 C732 1.385 . S
C732 H718 0.931 . S
C732 C731 1.385 . S
C732 C733 1.389 . S
C733 C732 1.389 . S
C733 C734 1.387 . S
C734 H719 0.930 . S
C734 C729 1.390 . S
C734 C733 1.387 . S
H735 C747 0.930 . S
H736 C749 0.930 . S
H737 C750 0.930 . S
H738 C754 0.959 . S
H739 C754 0.959 . S
H740 C754 0.961 . S
H741 C755 0.960 . S
H742 C755 0.961 . S
H743 C755 0.959 . S
H744 C758 0.929 . S
H745 C759 0.931 . S
H746 C761 0.930 . S
C747 H735 0.930 . S
C747 C748 1.399 . S
C747 C752 1.399 . S
C748 C747 1.399 . S
C748 C749 1.376 . S
C749 H736 0.930 . S
C749 C748 1.376 . S
C749 C750 1.388 . S
C750 H737 0.930 . S
C750 C749 1.388 . S
C750 C751 1.390 . S
C751 C750 1.390 . S
C751 C752 1.394 . S
C751 C757 1.465 . S
C752 C747 1.399 . S
C752 C751 1.394 . S
C752 C753 1.516 . S
C753 C752 1.516 . S
C753 C754 1.502 . S
C753 C755 1.561 . S
C753 C756 1.526 . S
C754 H738 0.959 . S
C754 H739 0.959 . S
C754 H740 0.961 . S
C754 C753 1.502 . S
C755 H741 0.960 . S
C755 H742 0.961 . S
C755 H743 0.959 . S
C755 C753 1.561 . S
C756 C753 1.526 . S
C756 C757 1.396 . S
C756 C761 1.390 . S
C757 C751 1.465 . S
C757 C756 1.396 . S
C757 C758 1.399 . S
C758 H744 0.929 . S
C758 C757 1.399 . S
C758 C759 1.385 . S
C759 H745 0.931 . S
C759 C758 1.385 . S
C759 C760 1.389 . S
C760 C759 1.389 . S
C760 C761 1.387 . S
C761 H746 0.930 . S
C761 C756 1.390 . S
C761 C760 1.387 . S
H762 C774 0.930 . S
H763 C776 0.930 . S
H764 C777 0.930 . S
H765 C781 0.959 . S
H766 C781 0.959 . S
H767 C781 0.961 . S
H768 C782 0.960 . S
H769 C782 0.961 . S
H770 C782 0.959 . S
H771 C785 0.929 . S
H772 C786 0.931 . S
H773 C788 0.930 . S
C774 H762 0.930 . S
C774 C775 1.399 . S
C774 C779 1.399 . S
C775 C774 1.399 . S
C775 C776 1.376 . S
C776 H763 0.930 . S
C776 C775 1.376 . S
C776 C777 1.388 . S
C777 H764 0.930 . S
C777 C776 1.388 . S
C777 C778 1.390 . S
C778 C777 1.390 . S
C778 C779 1.394 . S
C778 C784 1.465 . S
C779 C774 1.399 . S
C779 C778 1.394 . S
C779 C780 1.516 . S
C780 C779 1.516 . S
C780 C781 1.502 . S
C780 C782 1.561 . S
C780 C783 1.526 . S
C781 H765 0.959 . S
C781 H766 0.959 . S
C781 H767 0.961 . S
C781 C780 1.502 . S
C782 H768 0.960 . S
C782 H769 0.961 . S
C782 H770 0.959 . S
C782 C780 1.561 . S
C783 C780 1.526 . S
C783 C784 1.396 . S
C783 C788 1.390 . S
C784 C778 1.465 . S
C784 C783 1.396 . S
C784 C785 1.399 . S
C785 H771 0.929 . S
C785 C784 1.399 . S
C785 C786 1.385 . S
C786 H772 0.931 . S
C786 C785 1.385 . S
C786 C787 1.389 . S
C787 C786 1.389 . S
C787 C788 1.387 . S
C788 H773 0.930 . S
C788 C783 1.390 . S
C788 C787 1.387 . S
H789 C801 0.930 . S
H790 C803 0.930 . S
H791 C804 0.930 . S
H792 C808 0.959 . S
H793 C808 0.959 . S
H794 C808 0.961 . S
H795 C809 0.960 . S
H796 C809 0.961 . S
H797 C809 0.959 . S
H798 C812 0.929 . S
H799 C813 0.931 . S
H800 C815 0.930 . S
C801 H789 0.930 . S
C801 C802 1.399 . S
C801 C806 1.399 . S
C802 C801 1.399 . S
C802 C803 1.376 . S
C803 H790 0.930 . S
C803 C802 1.376 . S
C803 C804 1.388 . S
C804 H791 0.930 . S
C804 C803 1.388 . S
C804 C805 1.390 . S
C805 C804 1.390 . S
C805 C806 1.394 . S
C805 C811 1.465 . S
C806 C801 1.399 . S
C806 C805 1.394 . S
C806 C807 1.516 . S
C807 C806 1.516 . S
C807 C808 1.502 . S
C807 C809 1.561 . S
C807 C810 1.526 . S
C808 H792 0.959 . S
C808 H793 0.959 . S
C808 H794 0.961 . S
C808 C807 1.502 . S
C809 H795 0.960 . S
C809 H796 0.961 . S
C809 H797 0.959 . S
C809 C807 1.561 . S
C810 C807 1.526 . S
C810 C811 1.396 . S
C810 C815 1.390 . S
C811 C805 1.465 . S
C811 C810 1.396 . S
C811 C812 1.399 . S
C812 H798 0.929 . S
C812 C811 1.399 . S
C812 C813 1.385 . S
C813 H799 0.931 . S
C813 C812 1.385 . S
C813 C814 1.389 . S
C814 C813 1.389 . S
C814 C815 1.387 . S
C815 H800 0.930 . S
C815 C810 1.390 . S
C815 C814 1.387 . S
C181 C5 1.230 . S
C193 C159 1.238 . S
C208 C89 1.216 . S
C220 C19 1.166 . S
C235 C33 1.210 . S
C247 C103 1.238 . S
C262 C117 1.167 . S
C274 C47 1.216 . S
C289 C131 1.215 . S
C301 C61 1.165 . S
C316 C145 1.225 . S
C328 C75 1.239 . S
C343 C54 1.590 . S
C355 C124 1.597 . S
C370 C68 1.600 . S
C382 C138 1.607 . S
C397 C82 1.608 . S
C409 C152 1.610 . S
C424 C166 1.594 . S
C436 C12 1.589 . S
C451 C26 1.608 . S
C463 C96 1.602 . S
C478 C40 1.609 . S
C490 C110 1.606 . S
C505 C116 1.323 . S
C517 C4 1.372 . S
C532 C130 1.321 . S
C544 C18 1.355 . S
C559 C32 1.323 . S
C571 C144 1.372 . S
C586 C46 1.315 . S
C598 C158 1.364 . S
C613 C60 1.329 . S
C625 C88 1.369 . S
C640 C102 1.327 . S
C652 C74 1.370 . S
C667 C11 1.258 . S
C679 C151 1.233 . S
C694 C165 1.278 . S
C706 C25 1.239 . S
C721 C39 1.230 . S
C733 C95 1.264 . S
C748 C53 1.250 . S
C760 C109 1.275 . S
C775 C67 1.229 . S
C787 C123 1.267 . S
C802 C81 1.275 . S
C814 C137 1.231 . S
