# Generated by pormake.
# Topology sxi, (6)-cn, num edge types: 1
# Building blocks:
#     Node 0, Type 0, BuildingBlock: IZENUY_clean_sbu_0, # of connection points: 6
#     Node 1, Type 0, BuildingBlock: IZENUY_clean_sbu_0, # of connection points: 6
#     Node 2, Type 0, BuildingBlock: IZENUY_clean_sbu_0, # of connection points: 6
#     Node 3, Type 0, BuildingBlock: IZENUY_clean_sbu_0, # of connection points: 6
#     Node 4, Type 0, BuildingBlock: IZENUY_clean_sbu_0, # of connection points: 6
#     Node 5, Type 0, BuildingBlock: IZENUY_clean_sbu_0, # of connection points: 6
#     Node 6, Type 0, BuildingBlock: IZENUY_clean_sbu_0, # of connection points: 6
#     Node 7, Type 0, BuildingBlock: IZENUY_clean_sbu_0, # of connection points: 6
#     Node 8, Type 0, BuildingBlock: IZENUY_clean_sbu_0, # of connection points: 6
#     Node 9, Type 0, BuildingBlock: IZENUY_clean_sbu_0, # of connection points: 6
#     Node 10, Type 0, BuildingBlock: IZENUY_clean_sbu_0, # of connection points: 6
#     Node 11, Type 0, BuildingBlock: IZENUY_clean_sbu_0, # of connection points: 6
#     Node 12, Type 0, BuildingBlock: IZENUY_clean_sbu_0, # of connection points: 6
#     Node 13, Type 0, BuildingBlock: IZENUY_clean_sbu_0, # of connection points: 6
#     Node 14, Type 0, BuildingBlock: IZENUY_clean_sbu_0, # of connection points: 6
#     Node 15, Type 0, BuildingBlock: IZENUY_clean_sbu_0, # of connection points: 6
#     Node 16, Type 0, BuildingBlock: IZENUY_clean_sbu_0, # of connection points: 6
#     Node 17, Type 0, BuildingBlock: IZENUY_clean_sbu_0, # of connection points: 6
#     Node 18, Type 0, BuildingBlock: IZENUY_clean_sbu_0, # of connection points: 6
#     Node 19, Type 0, BuildingBlock: IZENUY_clean_sbu_0, # of connection points: 6
#     Node 20, Type 0, BuildingBlock: IZENUY_clean_sbu_0, # of connection points: 6
#     Node 21, Type 0, BuildingBlock: IZENUY_clean_sbu_0, # of connection points: 6
#     Node 22, Type 0, BuildingBlock: IZENUY_clean_sbu_0, # of connection points: 6
#     Node 23, Type 0, BuildingBlock: IZENUY_clean_sbu_0, # of connection points: 6
#     Edge 24, Type (0, 0), BuildingBlock: XIVTED_clean_linker_0, # of connection points: 2
#     Edge 25, Type (0, 0), BuildingBlock: XIVTED_clean_linker_0, # of connection points: 2
#     Edge 26, Type (0, 0), BuildingBlock: XIVTED_clean_linker_0, # of connection points: 2
#     Edge 27, Type (0, 0), BuildingBlock: XIVTED_clean_linker_0, # of connection points: 2
#     Edge 28, Type (0, 0), BuildingBlock: XIVTED_clean_linker_0, # of connection points: 2
#     Edge 29, Type (0, 0), BuildingBlock: XIVTED_clean_linker_0, # of connection points: 2
#     Edge 30, Type (0, 0), BuildingBlock: XIVTED_clean_linker_0, # of connection points: 2
#     Edge 31, Type (0, 0), BuildingBlock: XIVTED_clean_linker_0, # of connection points: 2
#     Edge 32, Type (0, 0), BuildingBlock: XIVTED_clean_linker_0, # of connection points: 2
#     Edge 33, Type (0, 0), BuildingBlock: XIVTED_clean_linker_0, # of connection points: 2
#     Edge 34, Type (0, 0), BuildingBlock: XIVTED_clean_linker_0, # of connection points: 2
#     Edge 35, Type (0, 0), BuildingBlock: XIVTED_clean_linker_0, # of connection points: 2
#     Edge 36, Type (0, 0), BuildingBlock: XIVTED_clean_linker_0, # of connection points: 2
#     Edge 37, Type (0, 0), BuildingBlock: XIVTED_clean_linker_0, # of connection points: 2
#     Edge 38, Type (0, 0), BuildingBlock: XIVTED_clean_linker_0, # of connection points: 2
#     Edge 39, Type (0, 0), BuildingBlock: XIVTED_clean_linker_0, # of connection points: 2
#     Edge 40, Type (0, 0), BuildingBlock: XIVTED_clean_linker_0, # of connection points: 2
#     Edge 41, Type (0, 0), BuildingBlock: XIVTED_clean_linker_0, # of connection points: 2
#     Edge 42, Type (0, 0), BuildingBlock: XIVTED_clean_linker_0, # of connection points: 2
#     Edge 43, Type (0, 0), BuildingBlock: XIVTED_clean_linker_0, # of connection points: 2
#     Edge 44, Type (0, 0), BuildingBlock: XIVTED_clean_linker_0, # of connection points: 2
#     Edge 45, Type (0, 0), BuildingBlock: XIVTED_clean_linker_0, # of connection points: 2
#     Edge 46, Type (0, 0), BuildingBlock: XIVTED_clean_linker_0, # of connection points: 2
#     Edge 47, Type (0, 0), BuildingBlock: XIVTED_clean_linker_0, # of connection points: 2
#     Edge 48, Type (0, 0), BuildingBlock: XIVTED_clean_linker_0, # of connection points: 2
#     Edge 49, Type (0, 0), BuildingBlock: XIVTED_clean_linker_0, # of connection points: 2
#     Edge 50, Type (0, 0), BuildingBlock: XIVTED_clean_linker_0, # of connection points: 2
#     Edge 51, Type (0, 0), BuildingBlock: XIVTED_clean_linker_0, # of connection points: 2
#     Edge 52, Type (0, 0), BuildingBlock: XIVTED_clean_linker_0, # of connection points: 2
#     Edge 53, Type (0, 0), BuildingBlock: XIVTED_clean_linker_0, # of connection points: 2
#     Edge 54, Type (0, 0), BuildingBlock: XIVTED_clean_linker_0, # of connection points: 2
#     Edge 55, Type (0, 0), BuildingBlock: XIVTED_clean_linker_0, # of connection points: 2
#     Edge 56, Type (0, 0), BuildingBlock: XIVTED_clean_linker_0, # of connection points: 2
#     Edge 57, Type (0, 0), BuildingBlock: XIVTED_clean_linker_0, # of connection points: 2
#     Edge 58, Type (0, 0), BuildingBlock: XIVTED_clean_linker_0, # of connection points: 2
#     Edge 59, Type (0, 0), BuildingBlock: XIVTED_clean_linker_0, # of connection points: 2
#     Edge 60, Type (0, 0), BuildingBlock: XIVTED_clean_linker_0, # of connection points: 2
#     Edge 61, Type (0, 0), BuildingBlock: XIVTED_clean_linker_0, # of connection points: 2
#     Edge 62, Type (0, 0), BuildingBlock: XIVTED_clean_linker_0, # of connection points: 2
#     Edge 63, Type (0, 0), BuildingBlock: XIVTED_clean_linker_0, # of connection points: 2
#     Edge 64, Type (0, 0), BuildingBlock: XIVTED_clean_linker_0, # of connection points: 2
#     Edge 65, Type (0, 0), BuildingBlock: XIVTED_clean_linker_0, # of connection points: 2
#     Edge 66, Type (0, 0), BuildingBlock: XIVTED_clean_linker_0, # of connection points: 2
#     Edge 67, Type (0, 0), BuildingBlock: XIVTED_clean_linker_0, # of connection points: 2
#     Edge 68, Type (0, 0), BuildingBlock: XIVTED_clean_linker_0, # of connection points: 2
#     Edge 69, Type (0, 0), BuildingBlock: XIVTED_clean_linker_0, # of connection points: 2
#     Edge 70, Type (0, 0), BuildingBlock: XIVTED_clean_linker_0, # of connection points: 2
#     Edge 71, Type (0, 0), BuildingBlock: XIVTED_clean_linker_0, # of connection points: 2
#     Edge 72, Type (0, 0), BuildingBlock: XIVTED_clean_linker_0, # of connection points: 2
#     Edge 73, Type (0, 0), BuildingBlock: XIVTED_clean_linker_0, # of connection points: 2
#     Edge 74, Type (0, 0), BuildingBlock: XIVTED_clean_linker_0, # of connection points: 2
#     Edge 75, Type (0, 0), BuildingBlock: XIVTED_clean_linker_0, # of connection points: 2
#     Edge 76, Type (0, 0), BuildingBlock: XIVTED_clean_linker_0, # of connection points: 2
#     Edge 77, Type (0, 0), BuildingBlock: XIVTED_clean_linker_0, # of connection points: 2
#     Edge 78, Type (0, 0), BuildingBlock: XIVTED_clean_linker_0, # of connection points: 2
#     Edge 79, Type (0, 0), BuildingBlock: XIVTED_clean_linker_0, # of connection points: 2
#     Edge 80, Type (0, 0), BuildingBlock: XIVTED_clean_linker_0, # of connection points: 2
#     Edge 81, Type (0, 0), BuildingBlock: XIVTED_clean_linker_0, # of connection points: 2
#     Edge 82, Type (0, 0), BuildingBlock: XIVTED_clean_linker_0, # of connection points: 2
#     Edge 83, Type (0, 0), BuildingBlock: XIVTED_clean_linker_0, # of connection points: 2
#     Edge 84, Type (0, 0), BuildingBlock: XIVTED_clean_linker_0, # of connection points: 2
#     Edge 85, Type (0, 0), BuildingBlock: XIVTED_clean_linker_0, # of connection points: 2
#     Edge 86, Type (0, 0), BuildingBlock: XIVTED_clean_linker_0, # of connection points: 2
#     Edge 87, Type (0, 0), BuildingBlock: XIVTED_clean_linker_0, # of connection points: 2
#     Edge 88, Type (0, 0), BuildingBlock: XIVTED_clean_linker_0, # of connection points: 2
#     Edge 89, Type (0, 0), BuildingBlock: XIVTED_clean_linker_0, # of connection points: 2
#     Edge 90, Type (0, 0), BuildingBlock: XIVTED_clean_linker_0, # of connection points: 2
#     Edge 91, Type (0, 0), BuildingBlock: XIVTED_clean_linker_0, # of connection points: 2
#     Edge 92, Type (0, 0), BuildingBlock: XIVTED_clean_linker_0, # of connection points: 2
#     Edge 93, Type (0, 0), BuildingBlock: XIVTED_clean_linker_0, # of connection points: 2
#     Edge 94, Type (0, 0), BuildingBlock: XIVTED_clean_linker_0, # of connection points: 2
#     Edge 95, Type (0, 0), BuildingBlock: XIVTED_clean_linker_0, # of connection points: 2
# Relax obj value: 0.411
# Max RMSD: 0.249
# Mean RMSD: 0.249
data_MOF--net-sxi--node1-IZENUY_clean_sbu_0--edge1-XIVTED_clean_linker_0
_symmetry_space_group_name_H-M    P1
_symmetry_Int_Tables_number       1
_symmetry_cell_setting            triclinic
loop_
_symmetry_equiv_pos_as_xyz
'x, y, z'
_cell_length_a     46.94415
_cell_length_b     46.895924
_cell_length_c     46.945088
_cell_angle_alpha  90.008587
_cell_angle_beta   90.001205
_cell_angle_gamma 90.032479
loop_
_atom_site_label
_atom_site_type_symbol
_atom_site_fract_x
_atom_site_fract_y
_atom_site_fract_z
_atom_type_partial_charge
Fe0 Fe 0.01908 0.3175 0.40382 0.0
Fe1 Fe 0.07141 0.34376 0.37534 0.0
O2 O 0.03636 0.34756 0.38873 0.0
Fe3 Fe 0.01873 0.38091 0.3871 0.0
O4 O 0.01238 0.38142 0.42534 0.0
O5 O 0.99741 0.33734 0.42918 0.0
O6 O 0.04605 0.31447 0.43129 0.0
C7 C 0.07186 0.30953 0.42556 0.0
C8 C 0.97727 0.3408 0.37047 0.0
O9 O 0.08172 0.31558 0.40104 0.0
C10 C 0.04721 0.38468 0.33658 0.0
O11 O 0.03728 0.29155 0.38157 0.0
O12 O 0.05866 0.31708 0.34877 0.0
O13 O 0.98405 0.36523 0.37976 0.0
O14 O 0.99139 0.31886 0.37702 0.0
C15 C 0.07352 0.39399 0.40657 0.0
O16 O 0.06832 0.37183 0.34759 0.0
O17 O 0.02335 0.38406 0.34882 0.0
C18 C 0.04577 0.29434 0.35632 0.0
O19 O 0.08477 0.36981 0.40164 0.0
O20 O 0.05089 0.40143 0.39403 0.0
C21 C 1.00052 0.36193 0.43947 0.0
Fe22 Fe 0.92314 0.82931 0.62567 0.0
Fe23 Fe 0.88181 0.78245 0.6466 0.0
O24 O 0.9166 0.79659 0.64348 0.0
Fe25 Fe 0.9457 0.7776 0.65829 0.0
O26 O 0.95256 0.80631 0.68302 0.0
O27 O 0.95303 0.83948 0.64969 0.0
O28 O 0.89984 0.8487 0.65028 0.0
C29 C 0.87493 0.84133 0.65766 0.0
C30 C 0.96931 0.79774 0.60787 0.0
O31 O 0.86489 0.81702 0.65174 0.0
C32 C 0.91637 0.73564 0.63096 0.0
O33 O 0.89369 0.82562 0.5994 0.0
O34 O 0.87568 0.7834 0.60848 0.0
O35 O 0.97226 0.79139 0.63368 0.0
O36 O 0.94727 0.81129 0.59985 0.0
C37 C 0.90279 0.76604 0.69857 0.0
O38 O 0.89358 0.74558 0.6416 0.0
O39 O 0.93988 0.74842 0.63389 0.0
C40 C 0.87727 0.8051 0.59274 0.0
O41 O 0.88418 0.7802 0.68541 0.0
O42 O 0.92563 0.7594 0.68624 0.0
C43 C 0.959 0.83121 0.67492 0.0
Fe44 Fe 0.48516 0.69404 0.91306 0.0
Fe45 Fe 0.43407 0.67271 0.87871 0.0
O46 O 0.46627 0.6655 0.89705 0.0
Fe47 Fe 0.47973 0.63046 0.89987 0.0
O48 O 0.48043 0.63202 0.93888 0.0
O49 O 0.50204 0.67314 0.94095 0.0
O50 O 0.45586 0.70035 0.93712 0.0
C51 C 0.43117 0.70671 0.92866 0.0
C52 C 0.52792 0.66469 0.88773 0.0
O53 O 0.42366 0.70223 0.90296 0.0
C54 C 0.45902 0.62757 0.84539 0.0
O55 O 0.47246 0.72136 0.88857 0.0
O56 O 0.45279 0.69714 0.85394 0.0
O57 O 0.51669 0.64189 0.89692 0.0
O58 O 0.51538 0.68845 0.88979 0.0
C59 C 0.42039 0.62337 0.90794 0.0
O60 O 0.43839 0.64385 0.85198 0.0
O61 O 0.48029 0.62541 0.86161 0.0
C62 C 0.4662 0.71899 0.86264 0.0
O63 O 0.4137 0.64891 0.9022 0.0
O64 O 0.44494 0.61367 0.90275 0.0
C65 C 0.49471 0.65019 0.95265 0.0
Fe66 Fe 0.59372 0.18785 0.13247 0.0
Fe67 Fe 0.63513 0.23272 0.15482 0.0
O68 O 0.59995 0.22189 0.14753 0.0
Fe69 Fe 0.57167 0.2452 0.15566 0.0
O70 O 0.54668 0.21663 0.16615 0.0
O71 O 0.57223 0.17735 0.16259 0.0
O72 O 0.62445 0.17087 0.15157 0.0
C73 C 0.63656 0.17887 0.17466 0.0
C74 C 0.55162 0.22378 0.10586 0.0
O75 O 0.63845 0.20493 0.18071 0.0
C76 C 0.61422 0.28008 0.13051 0.0
O77 O 0.61555 0.19626 0.10102 0.0
O78 O 0.65156 0.21106 0.12669 0.0
O79 O 0.55973 0.2453 0.1194 0.0
O80 O 0.56114 0.19907 0.11208 0.0
C81 C 0.60516 0.25692 0.20112 0.0
O82 O 0.63268 0.26075 0.12919 0.0
O83 O 0.59214 0.27739 0.14603 0.0
C84 C 0.64156 0.20334 0.10288 0.0
O85 O 0.62618 0.25706 0.18431 0.0
O86 O 0.58162 0.24713 0.193 0.0
C87 C 0.55122 0.19074 0.17268 0.0
Fe88 Fe 0.52295 0.19571 0.60107 0.0
Fe89 Fe 0.57551 0.17427 0.63301 0.0
O90 O 0.54297 0.16699 0.61524 0.0
Fe91 Fe 0.52995 0.13179 0.61148 0.0
O92 O 0.52774 0.13486 0.57269 0.0
O93 O 0.50528 0.17547 0.57293 0.0
O94 O 0.55117 0.20394 0.57627 0.0
C95 C 0.57598 0.21081 0.58426 0.0
C96 C 0.48225 0.16443 0.62805 0.0
O97 O 0.58466 0.20466 0.6093 0.0
C98 C 0.5525 0.12751 0.66542 0.0
O99 O 0.53602 0.22238 0.62594 0.0
O100 O 0.55711 0.19758 0.65918 0.0
O101 O 0.49277 0.14231 0.61659 0.0
O102 O 0.49422 0.18845 0.62563 0.0
C103 C 0.58895 0.12672 0.6006 0.0
O104 O 0.57257 0.14452 0.65893 0.0
O105 O 0.53104 0.1251 0.64948 0.0
C106 C 0.54299 0.21938 0.65157 0.0
O107 O 0.5955 0.15181 0.60813 0.0
O108 O 0.56493 0.11594 0.60621 0.0
C109 C 0.51295 0.1533 0.55995 0.0
Fe110 Fe 0.0865 0.32558 0.88724 0.0
Fe111 Fe 0.1282 0.27868 0.86775 0.0
O112 O 0.0932 0.29204 0.87123 0.0
Fe113 Fe 0.0642 0.27137 0.85848 0.0
O114 O 0.05572 0.29836 0.83232 0.0
O115 O 0.05584 0.33358 0.86356 0.0
O116 O 0.10868 0.34397 0.8608 0.0
C117 C 0.13352 0.33668 0.85317 0.0
C118 C 0.04162 0.29405 0.90824 0.0
O119 O 0.14431 0.3132 0.86062 0.0
C120 C 0.09572 0.23238 0.88757 0.0
O121 O 0.11671 0.32388 0.91285 0.0
O122 O 0.13532 0.28156 0.90554 0.0
O123 O 0.03806 0.28588 0.88303 0.0
O124 O 0.06342 0.30878 0.91472 0.0
C125 C 0.10592 0.25948 0.81741 0.0
O126 O 0.11749 0.24193 0.87475 0.0
O127 O 0.07163 0.24396 0.8845 0.0
C128 C 0.13358 0.30398 0.92022 0.0
O129 O 0.12448 0.27481 0.82926 0.0
O130 O 0.08401 0.25211 0.83098 0.0
C131 C 0.04936 0.3237 0.83906 0.0
Fe132 Fe 0.98641 0.88219 0.11543 0.0
Fe133 Fe 0.99335 0.81819 0.10545 0.0
O134 O 0.97304 0.84715 0.1189 0.0
Fe135 Fe 0.93975 0.84038 0.13535 0.0
O136 O 0.92105 0.86317 0.10961 0.0
O137 O 0.95199 0.89862 0.10908 0.0
O138 O 0.98979 0.87878 0.07672 0.0
C139 C 1.00522 0.86037 0.0647 0.0
C140 C 0.9624 0.88688 0.16864 0.0
O141 O 0.01231 0.83818 0.07795 0.0
C142 C 0.97091 0.79461 0.15503 0.0
O143 O 0.02294 0.87113 0.1216 0.0
O144 O 0.02143 0.82504 0.13088 0.0
O145 O 0.94231 0.87006 0.16156 0.0
O146 O 0.98429 0.88911 0.1533 0.0
C147 C 0.94077 0.80413 0.08649 0.0
O148 O 0.97902 0.79168 0.12972 0.0
O149 O 0.95673 0.81658 0.16215 0.0
C150 C 0.03343 0.84905 0.13307 0.0
O151 O 0.96605 0.81033 0.07964 0.0
O152 O 0.93106 0.8103 0.11113 0.0
C153 C 0.92837 0.88801 0.10195 0.0
Fe154 Fe 0.37558 0.72124 0.35429 0.0
Fe155 Fe 0.43843 0.73276 0.34058 0.0
O156 O 0.41209 0.71218 0.3581 0.0
Fe157 Fe 0.42239 0.68233 0.37892 0.0
O158 O 0.40157 0.65833 0.35601 0.0
O159 O 0.36281 0.68471 0.35557 0.0
O160 O 0.37693 0.71807 0.31552 0.0
C161 C 0.39394 0.73191 0.29988 0.0
C162 C 0.3748 0.7055 0.41025 0.0
O163 O 0.41628 0.74267 0.31024 0.0
C164 C 0.46459 0.7206 0.39332 0.0
O165 O 0.38206 0.7593 0.35235 0.0
O166 O 0.42806 0.76462 0.36 0.0
O167 O 0.39258 0.68571 0.40485 0.0
O168 O 0.37088 0.7253 0.39248 0.0
C169 C 0.4591 0.6794 0.33076 0.0
O170 O 0.46604 0.72687 0.36725 0.0
O171 O 0.4445 0.70492 0.40261 0.0
C172 C 0.40306 0.77456 0.35935 0.0
O173 O 0.45 0.70232 0.32009 0.0
O174 O 0.45351 0.67305 0.35649 0.0
C175 C 0.37558 0.66184 0.34977 0.0
Fe176 Fe 0.39959 0.03435 0.38436 0.0
Fe177 Fe 0.40819 0.02527 0.32051 0.0
O178 O 0.39454 0.04609 0.34887 0.0
Fe179 Fe 0.37649 0.0785 0.34134 0.0
O180 O 0.40219 0.09902 0.36261 0.0
O181 O 0.40375 0.06977 0.39931 0.0
O182 O 0.43841 0.03326 0.38032 0.0
C183 C 0.45092 0.01814 0.36193 0.0
C184 C 0.34542 0.05581 0.38925 0.0
O185 O 0.43757 0.00953 0.34035 0.0
C186 C 0.3567 0.04483 0.29744 0.0
O187 O 0.39604 0.99681 0.37536 0.0
O188 O 0.38501 0.99573 0.32977 0.0
O189 O 0.35142 0.0758 0.37191 0.0
O190 O 0.36164 0.03449 0.3916 0.0
C191 C 0.42384 0.07849 0.30344 0.0
O192 O 0.38197 0.03654 0.29444 0.0
O193 O 0.34974 0.05987 0.31887 0.0
C194 C 0.38544 0.9841 0.35408 0.0
O195 O 0.43198 0.05374 0.31026 0.0
O196 O 0.39904 0.08724 0.31011 0.0
C197 C 0.41011 0.09311 0.3877 0.0
Fe198 Fe 0.23866 0.16886 0.57281 0.0
Fe199 Fe 0.18602 0.13591 0.59431 0.0
O200 O 0.21679 0.15697 0.6011 0.0
Fe201 Fe 0.22548 0.16667 0.63624 0.0
O202 O 0.24171 0.20115 0.62696 0.0
O203 O 0.23307 0.20621 0.58133 0.0
O204 O 0.20933 0.1722 0.54704 0.0
C205 C 0.18297 0.17593 0.55151 0.0
C206 C 0.27803 0.15532 0.61667 0.0
O207 O 0.17085 0.16412 0.57244 0.0
C208 C 0.20558 0.10956 0.64272 0.0
O209 O 0.24621 0.13264 0.5625 0.0
O210 O 0.20177 0.11781 0.56229 0.0
O211 O 0.25922 0.14833 0.6344 0.0
O212 O 0.27156 0.16796 0.59373 0.0
C213 C 0.16837 0.17462 0.63753 0.0
O214 O 0.19896 0.10637 0.61667 0.0
O215 O 0.21078 0.13423 0.65247 0.0
C216 C 0.2276 0.11531 0.55412 0.0
O217 O 0.16506 0.15093 0.62464 0.0
O218 O 0.19262 0.18571 0.63961 0.0
C219 C 0.23914 0.21688 0.6052 0.0
Fe220 Fe 0.10048 0.99516 0.82499 0.0
Fe221 Fe 0.13388 0.94204 0.84425 0.0
O222 O 0.11292 0.97246 0.85235 0.0
Fe223 Fe 0.10397 0.9801 0.88794 0.0
O224 O 0.06933 0.99664 0.87977 0.0
O225 O 0.06343 0.98905 0.83404 0.0
O226 O 0.09671 0.96659 0.79831 0.0
C227 C 0.09336 0.94002 0.802 0.0
C228 C 0.11464 0.03321 0.86997 0.0
O229 O 0.10546 0.9274 0.82245 0.0
C230 C 0.16114 0.96024 0.89269 0.0
O231 O 0.13639 1.00321 0.81425 0.0
O232 O 0.15141 0.95883 0.81235 0.0
O233 O 0.12242 0.01376 0.88662 0.0
O234 O 0.10166 0.02742 0.84701 0.0
C235 C 0.09582 0.92303 0.88759 0.0
O236 O 0.16367 0.95457 0.86637 0.0
O237 O 0.13671 0.96488 0.90322 0.0
C238 C 0.15356 0.98495 0.80486 0.0
O239 O 0.11932 0.92008 0.87427 0.0
O240 O 0.08492 0.94724 0.8907 0.0
C241 C 0.05321 0.99465 0.85821 0.0
Fe242 Fe 0.32439 0.88817 0.09323 0.0
Fe243 Fe 0.27566 0.87129 0.13325 0.0
O244 O 0.29105 0.87168 0.09902 0.0
Fe245 Fe 0.27325 0.85512 0.07017 0.0
O246 O 0.30216 0.83003 0.06597 0.0
O247 O 0.33509 0.86335 0.06438 0.0
O248 O 0.34168 0.86322 0.11826 0.0
C249 C 0.33296 0.85852 0.14345 0.0
C250 C 0.29456 0.9048 0.04555 0.0
O251 O 0.30941 0.86838 0.15185 0.0
C252 C 0.23017 0.88352 0.09614 0.0
O253 O 0.3202 0.91561 0.12158 0.0
O254 O 0.27621 0.90987 0.1361 0.0
O255 O 0.28803 0.87885 0.0431 0.0
O256 O 0.3078 0.91341 0.06763 0.0
C257 C 0.26066 0.81758 0.11533 0.0
O258 O 0.23965 0.87459 0.11974 0.0
O259 O 0.24352 0.8794 0.07319 0.0
C260 C 0.29872 0.9245 0.13553 0.0
O261 O 0.27379 0.83229 0.13365 0.0
O262 O 0.25474 0.82814 0.09135 0.0
C263 C 0.32712 0.83782 0.05984 0.0
Fe264 Fe 0.91666 0.47752 0.62416 0.0
Fe265 Fe 0.91714 0.49254 0.68733 0.0
O266 O 0.90536 0.47047 0.65918 0.0
Fe267 Fe 0.88271 0.44088 0.66603 0.0
O268 O 0.89665 0.41896 0.63608 0.0
O269 O 0.93402 0.44332 0.62243 0.0
O270 O 0.95151 0.49251 0.63404 0.0
C271 C 0.9662 0.49098 0.65659 0.0
C272 C 0.85863 0.46054 0.61679 0.0
O273 O 0.95449 0.48571 0.68015 0.0
C274 C 0.86305 0.48358 0.70519 0.0
O275 O 0.90013 0.51224 0.62428 0.0
O276 O 0.91789 0.52505 0.66574 0.0
O277 O 0.85442 0.4551 0.64299 0.0
O278 O 0.8838 0.46415 0.60753 0.0
C279 C 0.92147 0.4368 0.70961 0.0
O280 O 0.88089 0.50152 0.69647 0.0
O281 O 0.86499 0.45756 0.69761 0.0
C282 C 0.90668 0.53126 0.642 0.0
O283 O 0.9188 0.46343 0.71357 0.0
O284 O 0.90979 0.42476 0.68852 0.0
C285 C 0.92054 0.42021 0.62339 0.0
Fe286 Fe 0.77359 0.66156 0.94131 0.0
Fe287 Fe 0.82683 0.6312 0.91869 0.0
O288 O 0.79362 0.64802 0.91226 0.0
Fe289 Fe 0.78026 0.65175 0.87727 0.0
O290 O 0.77796 0.69051 0.88064 0.0
O291 O 0.75591 0.68996 0.92158 0.0
O292 O 0.80148 0.68652 0.94984 0.0
C293 C 0.82654 0.6791 0.9561 0.0
C294 C 0.73218 0.63614 0.91016 0.0
O295 O 0.83587 0.65451 0.94931 0.0
C296 C 0.8036 0.59852 0.87223 0.0
O297 O 0.78702 0.63617 0.9673 0.0
O298 O 0.80965 0.60418 0.94188 0.0
O299 O 0.74335 0.64678 0.88804 0.0
O300 O 0.74458 0.63723 0.93401 0.0
C301 C 0.83849 0.66445 0.87135 0.0
O302 O 0.82404 0.60565 0.88854 0.0
O303 O 0.78151 0.61373 0.87078 0.0
C304 C 0.79534 0.61094 0.96384 0.0
O305 O 0.84562 0.65724 0.89635 0.0
O306 O 0.81491 0.65714 0.86079 0.0
C307 C 0.76335 0.70303 0.89939 0.0
Fe308 Fe 0.61064 0.51482 0.18714 0.0
Fe309 Fe 0.63703 0.57112 0.16578 0.0
O310 O 0.61989 0.53812 0.15918 0.0
Fe311 Fe 0.61146 0.52839 0.12392 0.0
O312 O 0.58084 0.50551 0.13282 0.0
O313 O 0.57311 0.51524 0.17757 0.0
O314 O 0.60203 0.54345 0.21278 0.0
C315 C 0.597 0.56974 0.2087 0.0
C316 C 0.63317 0.47935 0.14354 0.0
O317 O 0.60796 0.58292 0.188 0.0
C318 C 0.66484 0.555 0.11707 0.0
O319 O 0.64693 0.51235 0.19869 0.0
O320 O 0.65737 0.55804 0.19769 0.0
O321 O 0.63547 0.49891 0.12541 0.0
O322 O 0.61821 0.48254 0.16595 0.0
C323 C 0.59455 0.58324 0.12412 0.0
O324 O 0.66759 0.56144 0.14316 0.0
O325 O 0.64044 0.54882 0.10743 0.0
C326 C 0.66215 0.53279 0.20667 0.0
O327 O 0.61833 0.58976 0.13576 0.0
O328 O 0.58713 0.55759 0.12166 0.0
C329 C 0.56423 0.5063 0.15396 0.0
Fe330 Fe 0.72388 0.34933 0.37214 0.0
Fe331 Fe 0.74244 0.3464 0.43435 0.0
O332 O 0.71946 0.36002 0.40782 0.0
Fe333 Fe 0.69158 0.38394 0.41696 0.0
O334 O 0.66712 0.37165 0.38818 0.0
O335 O 0.68889 0.33368 0.37195 0.0
O336 O 0.73758 0.31343 0.38031 0.0
C337 C 0.73701 0.29824 0.40261 0.0
C338 C 0.70986 0.40843 0.36731 0.0
O339 O 0.73322 0.30959 0.42665 0.0
C340 C 0.7375 0.40066 0.45372 0.0
O341 O 0.75938 0.36399 0.37063 0.0
O342 O 0.77347 0.34444 0.41082 0.0
O343 O 0.70595 0.41203 0.39384 0.0
O344 O 0.71129 0.38338 0.35705 0.0
C345 C 0.68807 0.34418 0.45971 0.0
O346 O 0.75386 0.38191 0.44382 0.0
O347 O 0.71102 0.40025 0.44776 0.0
C348 C 0.77894 0.35525 0.38671 0.0
O349 O 0.71493 0.34556 0.46226 0.0
O350 O 0.67547 0.35714 0.43976 0.0
C351 C 0.66644 0.3478 0.3753 0.0
Fe352 Fe 0.34431 0.37767 0.07565 0.0
Fe353 Fe 0.3903 0.40415 0.03786 0.0
O354 O 0.35405 0.39671 0.04444 0.0
Fe355 Fe 0.32792 0.40886 0.02026 0.0
O356 O 0.30125 0.41665 0.04794 0.0
O357 O 0.32356 0.40775 0.08833 0.0
O358 O 0.37448 0.39177 0.09734 0.0
C359 C 0.38834 0.41493 0.09428 0.0
C360 C 0.3042 0.35779 0.03378 0.0
O361 O 0.3921 0.42528 0.06986 0.0
C362 C 0.37286 0.38808 0.98548 0.0
O363 O 0.36532 0.34634 0.06478 0.0
O364 O 0.40352 0.37193 0.05575 0.0
O365 O 0.31477 0.37317 0.01465 0.0
O366 O 0.31181 0.36094 0.05964 0.0
C367 C 0.36359 0.45443 0.01708 0.0
O368 O 0.39006 0.38372 1.00553 0.0
O369 O 0.35044 0.40283 0.98883 0.0
C370 C 0.39185 0.34784 0.05961 0.0
O371 O 0.38437 0.43733 0.018 0.0
O372 O 0.339 0.44595 0.02352 0.0
C373 C 0.30424 0.42048 0.07454 0.0
Fe374 Fe 0.81898 0.09688 0.98624 0.0
Fe375 Fe 0.83914 0.13239 0.93543 0.0
O376 O 0.84715 0.11295 0.96687 0.0
Fe377 Fe 0.88272 0.10907 0.97888 0.0
O378 O 0.88053 0.07007 0.97899 0.0
O379 O 0.83974 0.06765 1.0011 0.0
O380 O 0.81052 0.0742 0.95634 0.0
C381 C 0.80315 0.08364 0.93226 0.0
C382 C 0.85061 0.12008 0.02883 0.0
O383 O 0.80862 0.10932 0.9253 0.0
C384 C 0.88578 0.16426 0.9595 0.0
O385 O 0.79202 0.12271 0.9757 0.0
O386 O 0.81608 0.15731 0.95556 0.0
O387 O 0.87294 0.11143 0.01639 0.0
O388 O 0.82641 0.11872 0.0171 0.0
C389 C 0.88642 0.10093 0.91955 0.0
O390 O 0.86879 0.15837 0.93925 0.0
O391 O 0.88873 0.14726 0.98006 0.0
C392 C 0.79466 0.14873 0.96971 0.0
O393 O 0.86114 0.10842 0.91398 0.0
O394 O 0.89792 0.10634 0.94326 0.0
C395 C 0.86255 0.05602 0.9932 0.0
Fe396 Fe 0.12949 0.59183 0.18564 0.0
Fe397 Fe 0.14901 0.62983 0.23567 0.0
O398 O 0.14621 0.59605 0.21924 0.0
Fe399 Fe 0.16053 0.56569 0.23664 0.0
O400 O 0.18599 0.56095 0.20829 0.0
O401 O 0.15378 0.56262 0.17415 0.0
O402 O 0.15473 0.61657 0.16865 0.0
C403 C 0.16191 0.64089 0.17812 0.0
C404 C 0.11067 0.54364 0.21363 0.0
O405 O 0.15475 0.64918 0.20267 0.0
C406 C 0.13263 0.59216 0.27971 0.0
O407 O 0.10312 0.62093 0.19074 0.0
O408 O 0.11088 0.63611 0.23432 0.0
O409 O 0.13631 0.54018 0.22039 0.0
O410 O 0.10312 0.56653 0.2012 0.0
C411 C 0.20065 0.60747 0.25151 0.0
O412 O 0.14334 0.61551 0.27128 0.0
O413 O 0.13556 0.56939 0.26567 0.0
C414 C 0.09571 0.63578 0.21217 0.0
O415 O 0.18783 0.62712 0.23844 0.0
O416 O 0.18795 0.58447 0.25679 0.0
C417 C 0.17874 0.55614 0.18283 0.0
Fe418 Fe 0.68699 0.90644 0.49725 0.0
Fe419 Fe 0.66733 0.88163 0.43962 0.0
O420 O 0.65961 0.89786 0.47287 0.0
Fe421 Fe 0.62397 0.90589 0.48156 0.0
O422 O 0.63192 0.93671 0.5043 0.0
O423 O 0.67752 0.94399 0.4981 0.0
O424 O 0.71323 0.91609 0.46945 0.0
C425 C 0.70966 0.9221 0.44329 0.0
C426 C 0.64256 0.88317 0.53091 0.0
O427 O 0.68924 0.91158 0.42928 0.0
C428 C 0.61866 0.85257 0.45386 0.0
O429 O 0.69858 0.86993 0.49881 0.0
O430 O 0.69952 0.86184 0.45283 0.0
O431 O 0.62457 0.88185 0.51114 0.0
O432 O 0.66512 0.898 0.52864 0.0
C433 C 0.62523 0.92335 0.42689 0.0
O434 O 0.64498 0.85036 0.44794 0.0
O435 O 0.6085 0.87663 0.46068 0.0
C436 C 0.70812 0.85623 0.478 0.0
O437 O 0.6374 0.89986 0.42045 0.0
O438 O 0.62218 0.93042 0.45249 0.0
C439 C 0.65322 0.95317 0.50464 0.0
Fe440 Fe 0.34905 0.43817 0.74643 0.0
Fe441 Fe 0.38108 0.42247 0.69178 0.0
O442 O 0.36242 0.41188 0.72291 0.0
Fe443 Fe 0.35644 0.37544 0.73094 0.0
O444 O 0.3177 0.38022 0.73216 0.0
O445 O 0.3196 0.41701 0.76043 0.0
O446 O 0.3252 0.45122 0.71911 0.0
C447 C 0.33365 0.46008 0.69511 0.0
C448 C 0.37306 0.40015 0.78291 0.0
O449 O 0.35859 0.45442 0.68601 0.0
C450 C 0.41136 0.37232 0.71044 0.0
O451 O 0.3753 0.46529 0.73768 0.0
O452 O 0.40761 0.44303 0.7125 0.0
O453 O 0.36021 0.38073 0.76921 0.0
O454 O 0.37265 0.42575 0.7744 0.0
C455 C 0.34747 0.37812 0.67173 0.0
O456 O 0.40614 0.39174 0.69218 0.0
O457 O 0.39411 0.36728 0.7304 0.0
C458 C 0.40051 0.46331 0.7289 0.0
O459 O 0.35582 0.40356 0.66887 0.0
O460 O 0.35223 0.36412 0.69412 0.0
C461 C 0.30553 0.39711 0.74918 0.0
Fe462 Fe 0.12506 0.61125 0.53662 0.0
Fe463 Fe 0.1877 0.59589 0.52612 0.0
O464 O 0.16153 0.61449 0.54589 0.0
Fe465 Fe 0.17235 0.63565 0.57532 0.0
O466 O 0.15131 0.61344 0.59951 0.0
O467 O 0.11228 0.61193 0.57336 0.0
O468 O 0.12554 0.57226 0.53914 0.0
C469 C 0.14215 0.5564 0.52511 0.0
C470 C 0.12502 0.66743 0.55242 0.0
O471 O 0.16502 0.56631 0.51523 0.0
C472 C 0.215 0.64821 0.53731 0.0
O473 O 0.13225 0.61023 0.49855 0.0
O474 O 0.17886 0.61543 0.49419 0.0
O475 O 0.14304 0.66216 0.57197 0.0
O476 O 0.1207 0.64948 0.53294 0.0
C477 C 0.2064 0.58616 0.57986 0.0
O478 O 0.21609 0.62173 0.53264 0.0
O479 O 0.19482 0.65853 0.55219 0.0
C480 C 0.15401 0.61647 0.48388 0.0
O481 O 0.1973 0.57518 0.55712 0.0
O482 O 0.20299 0.61259 0.58477 0.0
C483 C 0.12537 0.60686 0.59631 0.0
Fe484 Fe 0.65385 0.87506 0.78025 0.0
Fe485 Fe 0.65575 0.93797 0.76378 0.0
O486 O 0.64585 0.91094 0.7881 0.0
Fe487 Fe 0.62828 0.9192 0.82057 0.0
O488 O 0.64519 0.8893 0.84078 0.0
O489 O 0.67707 0.8735 0.8104 0.0
O490 O 0.68559 0.88226 0.75865 0.0
C491 C 0.70221 0.90342 0.75818 0.0
C492 C 0.59935 0.87084 0.80536 0.0
O493 O 0.69315 0.92792 0.76418 0.0
C494 C 0.60487 0.95968 0.78096 0.0
O495 O 0.63115 0.87544 0.74967 0.0
O496 O 0.648 0.91587 0.73233 0.0
O497 O 0.59722 0.89722 0.81101 0.0
O498 O 0.62357 0.86023 0.80006 0.0
C499 C 0.66961 0.9608 0.81819 0.0
O500 O 0.61959 0.95027 0.76079 0.0
O501 O 0.60943 0.95136 0.80637 0.0
C502 C 0.63328 0.89323 0.72978 0.0
O503 O 0.66487 0.96424 0.79174 0.0
O504 O 0.65796 0.94084 0.83197 0.0
C505 C 0.66887 0.877 0.83562 0.0
Fe506 Fe 0.88648 0.08942 0.32919 0.0
Fe507 Fe 0.86351 0.13252 0.28512 0.0
O508 O 0.86747 0.09706 0.29743 0.0
Fe509 Fe 0.85168 0.06876 0.27809 0.0
O510 O 0.82869 0.06051 0.30774 0.0
O511 O 0.86324 0.05893 0.33941 0.0
O512 O 0.86205 0.11165 0.35 0.0
C513 C 0.85469 0.13693 0.34415 0.0
C514 C 0.90323 0.04438 0.29558 0.0
O515 O 0.86092 0.14827 0.32058 0.0
C516 C 0.87466 0.10006 0.23535 0.0
O517 O 0.91249 0.11927 0.32516 0.0
O518 O 0.90161 0.13833 0.28381 0.0
O519 O 0.87734 0.04191 0.28911 0.0
O520 O 0.91169 0.0659 0.30976 0.0
C521 C 0.8107 0.11198 0.27112 0.0
O522 O 0.86571 0.12241 0.24763 0.0
O523 O 0.87387 0.07603 0.24749 0.0
C524 C 0.91844 0.13599 0.30459 0.0
O525 O 0.82459 0.13013 0.28528 0.0
O526 O 0.82261 0.08944 0.26284 0.0
C527 C 0.83769 0.05339 0.33205 0.0
H528 H 0.94744 0.38159 0.34227 0.0
H529 H 0.81077 0.30811 0.39433 0.0
H530 H 0.94391 0.29302 0.367 0.0
H531 H 0.80916 0.38825 0.34924 0.0
H532 H 0.85772 0.29845 0.37504 0.0
H533 H 0.89645 0.38062 0.33301 0.0
C534 C 0.93596 0.36173 0.34511 0.0
C535 C 0.94944 0.33772 0.35672 0.0
C536 C 0.84713 0.31805 0.36901 0.0
C537 C 0.89132 0.33657 0.3466 0.0
C538 C 0.82053 0.32379 0.38044 0.0
C539 C 0.80684 0.34956 0.37421 0.0
C540 C 0.86048 0.33861 0.3519 0.0
C541 C 0.81962 0.36853 0.35511 0.0
C542 C 0.90688 0.36115 0.33971 0.0
C543 C 0.93404 0.31227 0.35899 0.0
N544 N 0.84619 0.363 0.34511 0.0
N545 N 0.90548 0.31258 0.35481 0.0
H546 H 0.86824 0.56062 0.60947 0.0
H547 H 0.96223 0.70171 0.61902 0.0
H548 H 0.94983 0.56788 0.6512 0.0
H549 H 0.87019 0.70302 0.61729 0.0
H550 H 0.96096 0.65029 0.61115 0.0
H551 H 0.8721 0.61099 0.59485 0.0
C552 C 0.88694 0.57282 0.61533 0.0
C553 C 0.90836 0.56071 0.63218 0.0
C554 C 0.9411 0.66203 0.61193 0.0
C555 C 0.91341 0.617 0.61479 0.0
C556 C 0.94178 0.6913 0.61643 0.0
C557 C 0.91623 0.70635 0.61995 0.0
C558 C 0.91476 0.64794 0.61086 0.0
C559 C 0.89036 0.69194 0.61568 0.0
C560 C 0.88922 0.60126 0.60687 0.0
C561 C 0.93249 0.57689 0.63892 0.0
N562 N 0.89023 0.6633 0.61188 0.0
N563 N 0.93433 0.60431 0.63026 0.0
H564 H 0.70197 0.61008 0.86853 0.0
H565 H 0.56716 0.70205 0.90778 0.0
H566 H 0.69328 0.65501 0.94825 0.0
H567 H 0.55775 0.62427 0.85956 0.0
H568 H 0.61777 0.69131 0.91412 0.0
H569 H 0.65125 0.61819 0.85903 0.0
C570 C 0.68907 0.62077 0.88442 0.0
C571 C 0.70149 0.63183 0.9092 0.0
C572 C 0.60464 0.67689 0.90176 0.0
C573 C 0.64464 0.6424 0.89787 0.0
C574 C 0.57604 0.6833 0.89762 0.0
C575 C 0.55858 0.66391 0.88319 0.0
C576 C 0.61558 0.65122 0.89101 0.0
C577 C 0.5708 0.63962 0.87085 0.0
C578 C 0.66041 0.6257 0.87883 0.0
C579 C 0.68428 0.64591 0.92905 0.0
N580 N 0.59871 0.63377 0.87521 0.0
N581 N 0.65669 0.65137 0.92265 0.0
H582 H 0.57959 0.32228 0.11102 0.0
H583 H 0.65543 0.43685 0.1759 0.0
H584 H 0.66765 0.30169 0.12802 0.0
H585 H 0.62722 0.45725 0.09077 0.0
H586 H 0.6592 0.38658 0.16175 0.0
H587 H 0.59349 0.37228 0.10414 0.0
C588 C 0.60185 0.32823 0.11259 0.0
C589 C 0.62247 0.30827 0.12047 0.0
C590 C 0.6531 0.40236 0.14604 0.0
C591 C 0.63812 0.36449 0.11328 0.0
C592 C 0.65073 0.43074 0.15413 0.0
C593 C 0.64082 0.45074 0.13448 0.0
C594 C 0.64441 0.39426 0.11863 0.0
C595 C 0.63493 0.44217 0.10645 0.0
C596 C 0.60976 0.35647 0.10844 0.0
C597 C 0.65113 0.31668 0.12213 0.0
N598 N 0.63588 0.4142 0.09951 0.0
N599 N 0.65807 0.34455 0.11956 0.0
H600 H 0.45074 0.11676 0.63911 0.0
H601 H 0.31301 0.20027 0.61092 0.0
H602 H 0.44748 0.20875 0.64305 0.0
H603 H 0.30892 0.11522 0.64572 0.0
H604 H 0.36233 0.20388 0.6261 0.0
H605 H 0.3994 0.1151 0.64688 0.0
C606 C 0.4393 0.13659 0.64212 0.0
C607 C 0.45309 0.163 0.63924 0.0
C608 C 0.35067 0.1845 0.63078 0.0
C609 C 0.39469 0.16116 0.64806 0.0
C610 C 0.3227 0.18228 0.62171 0.0
C611 C 0.30745 0.15709 0.62644 0.0
C612 C 0.36368 0.16108 0.644 0.0
C613 C 0.32043 0.13474 0.6413 0.0
C614 C 0.41006 0.13559 0.64676 0.0
C615 C 0.4375 0.18797 0.64421 0.0
N616 N 0.34823 0.13698 0.64906 0.0
N617 N 0.40891 0.18646 0.64768 0.0
H618 H 0.1438 0.20404 0.90332 0.0
H619 H 0.06735 0.06526 0.86768 0.0
H620 H 0.05208 0.19682 0.90296 0.0
H621 H 0.15296 0.06427 0.90107 0.0
H622 H 0.06037 0.11245 0.88761 0.0
H623 H 0.14731 0.15302 0.91211 0.0
C624 C 0.12437 0.19177 0.9057 0.0
C625 C 0.09763 0.20421 0.9009 0.0
C626 C 0.08064 0.10194 0.89094 0.0
C627 C 0.10153 0.14616 0.91078 0.0
C628 C 0.08479 0.07526 0.87906 0.0
C629 C 0.11114 0.06164 0.88188 0.0
C630 C 0.10329 0.11544 0.90501 0.0
C631 C 0.13264 0.07471 0.89786 0.0
C632 C 0.1264 0.1627 0.91093 0.0
C633 C 0.07315 0.18776 0.90539 0.0
N634 N 0.1285 0.10139 0.90832 0.0
N635 N 0.07569 0.15927 0.90927 0.0
H636 H 0.0617 0.8898 0.16222 0.0
H637 H 0.19173 0.8615 0.05934 0.0
H638 H 0.07338 0.81273 0.11344 0.0
H639 H 0.20032 0.91641 0.13258 0.0
H640 H 0.14248 0.85191 0.07295 0.0
H641 H 0.11024 0.90437 0.15003 0.0
C642 C 0.07505 0.87539 0.15007 0.0
C643 C 0.06379 0.85025 0.13853 0.0
C644 C 0.15502 0.86653 0.08568 0.0
C645 C 0.11788 0.86732 0.12334 0.0
C646 C 0.18277 0.8726 0.0775 0.0
C647 C 0.19987 0.88932 0.09526 0.0
C648 C 0.14471 0.87759 0.11147 0.0
C649 C 0.18755 0.90312 0.11866 0.0
C650 C 0.10235 0.88396 0.14262 0.0
C651 C 0.08148 0.83228 0.1227 0.0
N652 N 0.16066 0.89647 0.12656 0.0
N653 N 0.10759 0.84157 0.11485 0.0
H654 H 0.43308 0.81432 0.38985 0.0
H655 H 0.36598 0.94669 0.31339 0.0
H656 H 0.36243 0.8044 0.33169 0.0
H657 H 0.39479 0.95121 0.40081 0.0
H658 H 0.36767 0.89454 0.31647 0.0
H659 H 0.42407 0.86597 0.39062 0.0
C660 C 0.41573 0.82304 0.37738 0.0
C661 C 0.39838 0.80532 0.36086 0.0
C662 C 0.37323 0.90715 0.335 0.0
C663 C 0.38826 0.86354 0.36133 0.0
C664 C 0.37221 0.93678 0.33328 0.0
C665 C 0.38073 0.95326 0.35667 0.0
C666 C 0.38331 0.89427 0.36004 0.0
C667 C 0.38844 0.93935 0.38206 0.0
C668 C 0.41048 0.85227 0.37794 0.0
C669 C 0.3761 0.81743 0.34497 0.0
N670 N 0.39008 0.9106 0.3829 0.0
N671 N 0.37183 0.84592 0.34537 0.0
H672 H 0.41978 0.40887 0.9596 0.0
H673 H 0.37128 0.34859 0.80942 0.0
H674 H 0.34653 0.35498 0.94641 0.0
H675 H 0.40004 0.43542 0.82113 0.0
H676 H 0.38116 0.33907 0.8594 0.0
H677 H 0.43019 0.40647 0.90829 0.0
C678 C 0.40652 0.39581 0.94591 0.0
C679 C 0.38227 0.38214 0.95667 0.0
C680 C 0.38585 0.35998 0.85076 0.0
C681 C 0.39415 0.37903 0.89909 0.0
C682 C 0.38011 0.36557 0.82234 0.0
C683 C 0.38386 0.39321 0.81142 0.0
C684 C 0.39567 0.38205 0.86819 0.0
C685 C 0.39609 0.41407 0.82897 0.0
C686 C 0.41239 0.39454 0.91689 0.0
C687 C 0.36533 0.36581 0.93853 0.0
N688 N 0.40117 0.40818 0.85681 0.0
N689 N 0.37154 0.36477 0.91039 0.0
H690 H 0.89225 0.14732 0.05815 0.0
H691 H 0.8585 0.06007 0.19678 0.0
H692 H 0.81426 0.09976 0.06875 0.0
H693 H 0.89642 0.14365 0.20415 0.0
H694 H 0.85205 0.06816 0.14572 0.0
H695 H 0.90157 0.14239 0.10939 0.0
C696 C 0.87679 0.13652 0.07148 0.0
C697 C 0.85242 0.12404 0.05956 0.0
C698 C 0.86213 0.0845 0.15856 0.0
C699 C 0.86356 0.11722 0.11705 0.0
C700 C 0.86627 0.07973 0.18746 0.0
C701 C 0.8779 0.10133 0.20446 0.0
C702 C 0.87018 0.11075 0.14676 0.0
C703 C 0.88726 0.12661 0.19154 0.0
C704 C 0.88222 0.13353 0.10045 0.0
C705 C 0.8331 0.10994 0.07735 0.0
N706 N 0.88311 0.13074 0.16327 0.0
N707 N 0.83938 0.1064 0.10528 0.0
H708 H 0.10165 0.63059 0.30937 0.0
H709 H 0.19001 0.59477 0.44427 0.0
H710 H 0.1476 0.55138 0.31765 0.0
H711 H 0.10893 0.63706 0.45422 0.0
H712 H 0.17805 0.58475 0.39463 0.0
H713 H 0.10408 0.63687 0.36111 0.0
C714 C 0.11128 0.61405 0.3223 0.0
C715 C 0.12468 0.59061 0.30959 0.0
C716 C 0.16299 0.59634 0.40773 0.0
C717 C 0.1286 0.59821 0.36774 0.0
C718 C 0.17004 0.60259 0.43575 0.0
C719 C 0.15039 0.61679 0.45307 0.0
C720 C 0.13641 0.60482 0.39709 0.0
C721 C 0.12456 0.62606 0.44129 0.0
C722 C 0.11286 0.61774 0.35161 0.0
C723 C 0.13705 0.56973 0.32687 0.0
N724 N 0.11824 0.61994 0.41381 0.0
N725 N 0.13945 0.57442 0.35521 0.0
H726 H 0.67605 0.85808 0.57072 0.0
H727 H 0.60863 0.92635 0.68937 0.0
H728 H 0.58988 0.88556 0.55426 0.0
H729 H 0.63668 0.84046 0.70673 0.0
H730 H 0.60066 0.9129 0.63953 0.0
H731 H 0.66324 0.85012 0.62072 0.0
C732 C 0.65432 0.86175 0.5776 0.0
C733 C 0.63406 0.87287 0.55887 0.0
C734 C 0.60767 0.89683 0.65456 0.0
C735 C 0.61962 0.86449 0.61523 0.0
C736 C 0.61249 0.90456 0.6827 0.0
C737 C 0.62367 0.88453 0.70165 0.0
C738 C 0.61521 0.86936 0.64548 0.0
C739 C 0.62821 0.85646 0.69242 0.0
C740 C 0.64696 0.85696 0.60585 0.0
C741 C 0.60607 0.87716 0.56838 0.0
N742 N 0.62488 0.84985 0.66455 0.0
N743 N 0.59983 0.87391 0.59634 0.0
H744 H 0.17559 0.51442 0.50257 0.0
H745 H 0.04317 0.43209 0.43707 0.0
H746 H 0.08814 0.53318 0.52367 0.0
H747 H 0.12927 0.40183 0.42606 0.0
H748 H 0.05993 0.46727 0.47085 0.0
H749 H 0.15998 0.47147 0.47755 0.0
C750 C 0.15309 0.50928 0.50235 0.0
C751 C 0.13309 0.52773 0.51502 0.0
C752 C 0.07529 0.45297 0.46127 0.0
C753 C 0.11509 0.47853 0.48599 0.0
C754 C 0.06577 0.43285 0.44171 0.0
C755 C 0.08492 0.41417 0.4282 0.0
C756 C 0.10441 0.455 0.46741 0.0
C757 C 0.1138 0.41593 0.43574 0.0
C758 C 0.14423 0.48471 0.488 0.0
C759 C 0.10432 0.51975 0.5142 0.0
N760 N 0.12276 0.43631 0.45458 0.0
N761 N 0.09618 0.49601 0.49957 0.0
H762 H 0.84526 0.8902 0.64423 0.0
H763 H 0.73624 0.85768 0.76719 0.0
H764 H 0.8627 0.83142 0.71249 0.0
H765 H 0.7348 0.93933 0.72504 0.0
H766 H 0.7829 0.8482 0.74637 0.0
H767 H 0.80575 0.91032 0.67254 0.0
C768 C 0.8414 0.88231 0.66557 0.0
C769 C 0.85727 0.85937 0.67627 0.0
C770 C 0.77263 0.86838 0.74188 0.0
C771 C 0.81184 0.88127 0.70807 0.0
C772 C 0.74593 0.87372 0.75368 0.0
C773 C 0.73166 0.89926 0.74776 0.0
C774 C 0.785 0.8884 0.72333 0.0
C775 C 0.74522 0.9194 0.7302 0.0
C776 C 0.81878 0.89357 0.6816 0.0
C777 C 0.85101 0.84924 0.70364 0.0
N778 N 0.77098 0.91334 0.71815 0.0
N779 N 0.82858 0.85994 0.71839 0.0
H780 H 0.40684 0.57216 0.88624 0.0
H781 H 0.33362 0.50492 0.02344 0.0
H782 H 0.38969 0.62704 0.95782 0.0
H783 H 0.40137 0.4659 0.97508 0.0
H784 H 0.33991 0.54904 0.9951 0.0
H785 H 0.38752 0.53185 0.91288 0.0
C786 C 0.39796 0.57588 0.90723 0.0
C787 C 0.39978 0.60288 0.91987 0.0
C788 C 0.35328 0.5307 0.9909 0.0
C789 C 0.37843 0.5567 0.95079 0.0
C790 C 0.34978 0.50566 0.00698 0.0
C791 C 0.36723 0.48184 1.0018 0.0
C792 C 0.37362 0.53133 0.96897 0.0
C793 C 0.38772 0.48381 0.98014 0.0
C794 C 0.38727 0.55285 0.92252 0.0
C795 C 0.38832 0.60654 0.94728 0.0
N796 N 0.39013 0.50793 0.96443 0.0
N797 N 0.37848 0.5835 0.96215 0.0
H798 H 0.6688 0.13293 0.1571 0.0
H799 H 0.77343 0.15421 0.28805 0.0
H800 H 0.64707 0.18295 0.23106 0.0
H801 H 0.78176 0.08382 0.22931 0.0
H802 H 0.72652 0.16467 0.26753 0.0
H803 H 0.70907 0.11256 0.18367 0.0
C804 C 0.67191 0.13886 0.17919 0.0
C805 C 0.65479 0.1598 0.19184 0.0
C806 C 0.73856 0.14676 0.25935 0.0
C807 C 0.70114 0.13752 0.22193 0.0
C808 C 0.76539 0.14091 0.27098 0.0
C809 C 0.78167 0.11825 0.26033 0.0
C810 C 0.72815 0.1301 0.23664 0.0
C811 C 0.77004 0.10157 0.23823 0.0
C812 C 0.69507 0.12753 0.19426 0.0
C813 C 0.66001 0.16706 0.22043 0.0
N814 N 0.7442 0.10802 0.22694 0.0
N815 N 0.68298 0.15638 0.23431 0.0
H816 H 0.68995 0.98521 0.53731 0.0
H817 H 0.58164 0.11654 0.54494 0.0
H818 H 0.60793 0.98794 0.49606 0.0
H819 H 0.6366 0.09609 0.61548 0.0
H820 H 0.60237 0.07718 0.5178 0.0
H821 H 0.68044 0.03268 0.55795 0.0
C822 C 0.67018 0.99599 0.53227 0.0
C823 C 0.64955 0.98264 0.51518 0.0
C824 C 0.61045 0.08171 0.53894 0.0
C825 C 0.63892 0.03673 0.53806 0.0
C826 C 0.59888 0.10433 0.55427 0.0
C827 C 0.60772 0.10963 0.58227 0.0
C828 C 0.63091 0.06409 0.55175 0.0
C829 C 0.62962 0.09286 0.59374 0.0
C830 C 0.66477 0.02292 0.5441 0.0
C831 C 0.62424 0.99738 0.50938 0.0
N832 N 0.64035 0.07052 0.5785 0.0
N833 N 0.61968 0.02361 0.52073 0.0
H834 H 0.26747 0.35468 0.73367 0.0
H835 H 0.1639 0.3853 0.86452 0.0
H836 H 0.27635 0.42764 0.78911 0.0
H837 H 0.144 0.32527 0.79812 0.0
H838 H 0.20319 0.40381 0.83524 0.0
H839 H 0.22075 0.34507 0.75519 0.0
C840 C 0.25958 0.36877 0.75017 0.0
C841 C 0.27614 0.39176 0.7598 0.0
C842 C 0.18981 0.38704 0.82672 0.0
C843 C 0.22275 0.38089 0.78458 0.0
C844 C 0.16719 0.37679 0.84332 0.0
C845 C 0.15062 0.35404 0.83345 0.0
C846 C 0.19614 0.37394 0.80043 0.0
C847 C 0.15629 0.34301 0.80625 0.0
C848 C 0.23286 0.36334 0.76241 0.0
C849 C 0.26461 0.40944 0.78114 0.0
N850 N 0.17879 0.35274 0.79085 0.0
N851 N 0.23889 0.40346 0.79296 0.0
H852 H 0.87778 0.91615 0.1112 0.0
H853 H 0.90885 0.02142 0.98161 0.0
H854 H 0.94208 0.90012 0.04788 0.0
H855 H 0.83161 0.02494 0.03145 0.0
H856 H 0.92055 0.97589 1.00457 0.0
H857 H 0.85856 0.95452 0.08099 0.0
C858 C 0.88718 0.9201 0.09051 0.0
C859 C 0.91131 0.90492 0.08177 0.0
C860 C 0.9009 0.98654 0.01024 0.0
C861 C 0.89046 0.94928 0.04775 0.0
C862 C 0.89427 0.01258 0.99717 0.0
C863 C 0.86935 0.02726 1.00472 0.0
C864 C 0.88264 0.97525 0.03125 0.0
C865 C 0.85117 0.01459 0.02498 0.0
C866 C 0.8765 0.94217 0.07339 0.0
C867 C 0.92334 0.91136 0.05518 0.0
N868 N 0.85832 0.98958 0.03771 0.0
N869 N 0.91308 0.93325 0.03929 0.0
H870 H 0.3399 0.6203 0.36887 0.0
H871 H 0.24087 0.64796 0.23714 0.0
H872 H 0.37139 0.66054 0.29272 0.0
H873 H 0.22658 0.57645 0.29325 0.0
H874 H 0.28847 0.65385 0.25797 0.0
H875 H 0.29871 0.60266 0.34193 0.0
C876 C 0.33884 0.62414 0.34614 0.0
C877 C 0.35932 0.64125 0.33278 0.0
C878 C 0.27496 0.6367 0.26547 0.0
C879 C 0.31146 0.62304 0.30235 0.0
C880 C 0.24771 0.6335 0.25374 0.0
C881 C 0.22962 0.61176 0.26346 0.0
C882 C 0.28394 0.61841 0.28746 0.0
C883 C 0.23975 0.59354 0.28503 0.0
C884 C 0.31511 0.61454 0.33086 0.0
C885 C 0.35632 0.64682 0.30356 0.0
N886 N 0.26603 0.59747 0.29651 0.0
N887 N 0.33249 0.63832 0.28945 0.0
H888 H 0.39585 0.13969 0.41969 0.0
H889 H 0.52754 0.11109 0.52161 0.0
H890 H 0.4663 0.08607 0.39579 0.0
H891 H 0.47171 0.18347 0.5321 0.0
H892 H 0.50596 0.10222 0.47481 0.0
H893 H 0.42423 0.15824 0.4596 0.0
C894 C 0.41774 0.13281 0.42215 0.0
C895 C 0.42904 0.11183 0.40421 0.0
C896 C 0.49865 0.12021 0.48729 0.0
C897 C 0.461 0.13151 0.45055 0.0
C898 C 0.51086 0.12516 0.51408 0.0
C899 C 0.50132 0.1479 0.53099 0.0
C900 C 0.47647 0.13788 0.4775 0.0
C901 C 0.47974 0.16558 0.51995 0.0
C902 C 0.43381 0.14301 0.44515 0.0
C903 C 0.45708 0.10264 0.40896 0.0
N904 N 0.46788 0.16002 0.49413 0.0
N905 N 0.47194 0.11216 0.43192 0.0
H906 H 0.13273 0.14686 0.67485 0.0
H907 H 0.14236 0.27908 0.7762 0.0
H908 H 0.15693 0.23036 0.64508 0.0
H909 H 0.08012 0.21334 0.79255 0.0
H910 H 0.1494 0.25963 0.72843 0.0
H911 H 0.11212 0.16896 0.71773 0.0
C912 C 0.13254 0.16988 0.67673 0.0
C913 C 0.14659 0.18686 0.65653 0.0
C914 C 0.13399 0.24961 0.7424 0.0
C915 C 0.12443 0.21197 0.70572 0.0
C916 C 0.13013 0.26062 0.76974 0.0
C917 C 0.11061 0.24791 0.78841 0.0
C918 C 0.11874 0.22527 0.73381 0.0
C919 C 0.09535 0.22389 0.77881 0.0
C920 C 0.12118 0.18245 0.70135 0.0
C921 C 0.14637 0.21656 0.66028 0.0
N922 N 0.09999 0.21311 0.75229 0.0
N923 N 0.13613 0.22811 0.68469 0.0
H924 H 0.12292 0.88852 0.92634 0.0
H925 H 0.9862 0.89609 0.02229 0.0
H926 H 0.04028 0.90981 0.89257 0.0
H927 H 0.05326 0.83643 0.04219 0.0
H928 H 0.00754 0.90332 0.97523 0.0
H929 H 0.09959 0.86845 0.96882 0.0
C930 C 0.09987 0.88771 0.92724 0.0
C931 C 0.08346 0.90074 0.90596 0.0
C932 C 0.01743 0.88845 0.98985 0.0
C933 C 0.05686 0.8794 0.9548 0.0
C934 C 1.00535 0.88452 0.01679 0.0
C935 C 0.01784 0.86559 0.03619 0.0
C936 C 0.04257 0.87388 0.98247 0.0
C937 C 0.04278 0.85113 0.02783 0.0
C938 C 0.08657 0.87673 0.95167 0.0
C939 C 0.05366 0.89988 0.90855 0.0
N940 N 0.05451 0.8558 1.00174 0.0
N941 N 0.04135 0.89011 0.9328 0.0
H942 H 0.37421 0.81698 0.13343 0.0
H943 H 0.34002 0.74381 0.28139 0.0
H944 H 0.3254 0.85682 0.20052 0.0
H945 H 0.42785 0.74477 0.25439 0.0
H946 H 0.32769 0.7729 0.23979 0.0
H947 H 0.38992 0.78035 0.16811 0.0
C948 C 0.36727 0.8184 0.15539 0.0
C949 C 0.34831 0.83995 0.16397 0.0
C950 C 0.34955 0.76609 0.24268 0.0
C951 C 0.36482 0.79772 0.2028 0.0
C952 C 0.35653 0.74927 0.26621 0.0
C953 C 0.38501 0.74211 0.27144 0.0
C954 C 0.37109 0.77535 0.22405 0.0
C955 C 0.40565 0.75011 0.25117 0.0
C956 C 0.37591 0.79736 0.17496 0.0
C957 C 0.3397 0.84049 0.19268 0.0
N958 N 0.39836 0.76658 0.22841 0.0
N959 N 0.34759 0.81951 0.2108 0.0
H960 H 0.96993 0.40872 0.45583 0.0
H961 H 0.96835 0.38789 0.61784 0.0
H962 H 1.00235 0.3284 0.4866 0.0
H963 H 0.89004 0.41057 0.57572 0.0
H964 H 0.98687 0.36961 0.5723 0.0
H965 H 0.94661 0.41628 0.50221 0.0
C966 C 0.97232 0.39287 0.47245 0.0
C967 C 0.98799 0.36795 0.46758 0.0
C968 C 0.96532 0.3778 0.57333 0.0
C969 C 0.96186 0.37652 0.52024 0.0
C970 C 0.95466 0.38784 0.59926 0.0
C971 C 0.92746 0.40008 0.60051 0.0
C972 C 0.94907 0.38131 0.54851 0.0
C973 C 0.91087 0.40065 0.57567 0.0
C974 C 0.95883 0.39702 0.49865 0.0
C975 C 0.99031 0.34786 0.48966 0.0
N976 N 0.92224 0.39213 0.55044 0.0
N977 N 0.97769 0.35275 0.51527 0.0
H978 H 0.82911 0.72006 0.86157 0.0
H979 H 0.93357 0.72567 0.72714 0.0
H980 H 0.88534 0.65118 0.83912 0.0
H981 H 0.85889 0.77868 0.73567 0.0
H982 H 0.92299 0.70403 0.77321 0.0
H983 H 0.84759 0.74792 0.82149 0.0
C984 C 0.84613 0.71126 0.84872 0.0
C985 C 0.85611 0.68355 0.85382 0.0
C986 C 0.90902 0.7205 0.76509 0.0
C987 C 0.87673 0.71484 0.80744 0.0
C988 C 0.91501 0.73296 0.73875 0.0
C989 C 0.89694 0.75396 0.72728 0.0
C990 C 0.88494 0.72925 0.78041 0.0
C991 C 0.87328 0.76245 0.74349 0.0
C992 C 0.85639 0.72699 0.82566 0.0
C993 C 0.87761 0.67273 0.83621 0.0
N994 N 0.86796 0.75004 0.76921 0.0
N995 N 0.8871 0.68834 0.81361 0.0
H996 H 0.61388 0.62667 0.08967 0.0
H997 H 0.47836 0.60882 0.99119 0.0
H998 H 0.53751 0.58389 0.1176 0.0
H999 H 0.53887 0.67712 0.97891 0.0
H1000 H 0.50033 0.59891 0.03765 0.0
H1001 H 0.58691 0.64712 0.04971 0.0
C1002 C 0.59124 0.6225 0.08803 0.0
C1003 C 0.57791 0.60347 0.10677 0.0
C1004 C 0.50857 0.61624 0.02482 0.0
C1005 C 0.54735 0.62561 0.06075 0.0
C1006 C 0.49615 0.62173 0.99826 0.0
C1007 C 0.50679 0.64373 0.9811 0.0
C1008 C 0.53206 0.63255 0.03399 0.0
C1009 C 0.52987 0.65994 0.99142 0.0
C1010 C 0.57592 0.63381 0.06503 0.0
C1011 C 0.5486 0.59832 0.1034 0.0
N1012 N 0.54189 0.65384 0.01699 0.0
N1013 N 0.53445 0.60879 0.08049 0.0
H1014 H 0.6464 0.37935 0.33133 0.0
H1015 H 0.57882 0.24453 0.2518 0.0
H1016 H 0.63681 0.29812 0.37307 0.0
H1017 H 0.63521 0.3053 0.21206 0.0
H1018 H 0.58408 0.27048 0.29722 0.0
H1019 H 0.62415 0.35924 0.28847 0.0
C1020 C 0.63819 0.35775 0.33197 0.0
C1021 C 0.64315 0.34036 0.35573 0.0
C1022 C 0.59495 0.27821 0.27839 0.0
C1023 C 0.61845 0.31717 0.30685 0.0
C1024 C 0.59205 0.26346 0.25261 0.0
C1025 C 0.60697 0.27259 0.22837 0.0
C1026 C 0.61216 0.30269 0.27955 0.0
C1027 C 0.62374 0.29729 0.23041 0.0
C1028 C 0.62599 0.34616 0.3074 0.0
C1029 C 0.63303 0.31221 0.35519 0.0
N1030 N 0.62583 0.31151 0.25553 0.0
N1031 N 0.62141 0.30132 0.33097 0.0
H1032 H 0.51306 0.52298 0.17674 0.0
H1033 H 0.43047 0.38508 0.12018 0.0
H1034 H 0.5526 0.45611 0.12768 0.0
H1035 H 0.39274 0.46866 0.11547 0.0
H1036 H 0.47317 0.40629 0.14182 0.0
H1037 H 0.46672 0.49861 0.17118 0.0
C1038 C 0.51198 0.50305 0.16511 0.0
C1039 C 0.53645 0.49166 0.15227 0.0
C1040 C 0.4551 0.41979 0.13694 0.0
C1041 C 0.48426 0.46343 0.14685 0.0
C1042 C 0.43064 0.40767 0.12503 0.0
C1043 C 0.40809 0.42519 0.11634 0.0
C1044 C 0.45672 0.44949 0.14051 0.0
C1045 C 0.40967 0.4545 0.1222 0.0
C1046 C 0.4857 0.48922 0.16201 0.0
C1047 C 0.53409 0.46577 0.13749 0.0
N1048 N 0.43373 0.46583 0.13373 0.0
N1049 N 0.50848 0.45247 0.13526 0.0
H1050 H 0.02386 0.02823 0.82069 0.0
H1051 H 0.88974 0.04408 0.92413 0.0
H1052 H 0.01599 0.98567 0.90171 0.0
H1053 H 0.92096 0.11468 0.87445 0.0
H1054 H 0.9269 0.01368 0.90372 0.0
H1055 H 0.97764 0.05155 0.82907 0.0
C1056 C 0.01204 0.02324 0.83987 0.0
C1057 C 0.02364 1.00503 0.86059 0.0
C1058 C 0.92512 0.0356 0.89666 0.0
C1059 C 0.971 0.03124 0.87004 0.0
C1060 C 0.90379 0.05283 0.90802 0.0
C1061 C 0.90221 0.08172 0.9006 0.0
C1062 C 0.94499 0.04737 0.8777 0.0
C1063 C 0.9213 0.09234 0.88025 0.0
C1064 C 0.98586 0.03667 0.84468 0.0
C1065 C 0.00776 0.99962 0.88527 0.0
N1066 N 0.94217 0.07517 0.8696 0.0
N1067 N 0.98223 0.01266 0.88931 0.0
H1068 H 0.1528 0.66747 0.12636 0.0
H1069 H 0.27228 0.78402 0.16211 0.0
H1070 H 0.21283 0.66005 0.19529 0.0
H1071 H 0.22289 0.78546 0.08455 0.0
H1072 H 0.2517 0.73739 0.17345 0.0
H1073 H 0.17973 0.70893 0.1084 0.0
C1074 C 0.17215 0.674 0.13712 0.0
C1075 C 0.18081 0.66032 0.16219 0.0
C1076 C 0.24548 0.74784 0.15384 0.0
C1077 C 0.21104 0.708 0.14259 0.0
C1078 C 0.25718 0.77455 0.14745 0.0
C1079 C 0.24924 0.78885 0.12245 0.0
C1080 C 0.22546 0.73537 0.13526 0.0
C1081 C 0.22966 0.77533 0.10413 0.0
C1082 C 0.18733 0.69783 0.12714 0.0
C1083 C 0.20557 0.67004 0.17583 0.0
N1084 N 0.2183 0.74953 0.111 0.0
N1085 N 0.21961 0.69337 0.16608 0.0
H1086 H 0.47668 0.97438 0.33371 0.0
H1087 H 0.61931 0.98047 0.4256 0.0
H1088 H 0.49148 0.03534 0.40108 0.0
H1089 H 0.5902 0.90383 0.38405 0.0
H1090 H 0.57894 0.00641 0.40552 0.0
H1091 H 0.52347 0.95376 0.34251 0.0
C1092 C 0.48983 0.98365 0.35026 0.0
C1093 C 0.47994 0.00662 0.36686 0.0
C1094 C 0.5817 0.98409 0.40025 0.0
C1095 C 0.5339 0.98307 0.37667 0.0
C1096 C 0.60492 0.96935 0.41134 0.0
C1097 C 0.60798 0.93993 0.40654 0.0
C1098 C 0.56139 0.96936 0.38411 0.0
C1099 C 0.58872 0.92652 0.38809 0.0
C1100 C 0.51657 0.97176 0.35521 0.0
C1101 C 0.49807 0.01757 0.38793 0.0
N1102 N 0.5659 0.94128 0.37785 0.0
N1103 N 0.5242 1.00567 0.39225 0.0
H1104 H 0.29031 0.3793 0.67206 0.0
H1105 H 0.27488 0.24478 0.56862 0.0
H1106 H 0.3618 0.34395 0.62676 0.0
H1107 H 0.22779 0.25565 0.64669 0.0
H1108 H 0.29876 0.29075 0.57731 0.0
H1109 H 0.25902 0.34422 0.6492 0.0
C1110 C 0.29913 0.36495 0.65625 0.0
C1111 C 0.32848 0.36468 0.65083 0.0
C1112 C 0.28271 0.2833 0.59212 0.0
C1113 C 0.29312 0.3242 0.62528 0.0
C1114 C 0.26897 0.25727 0.58712 0.0
C1115 C 0.24938 0.24656 0.60702 0.0
C1116 C 0.27624 0.29887 0.61683 0.0
C1117 C 0.24281 0.26323 0.6309 0.0
C1118 C 0.28138 0.34476 0.64354 0.0
C1119 C 0.33915 0.34508 0.63099 0.0
N1120 N 0.25624 0.28855 0.63517 0.0
N1121 N 0.32148 0.32536 0.61905 0.0
H1122 H 0.98965 0.5293 0.69342 0.0
H1123 H 0.13189 0.55023 0.60269 0.0
H1124 H 0.00813 0.4808 0.61764 0.0
H1125 H 0.08329 0.62165 0.63367 0.0
H1126 H 0.09676 0.51767 0.62389 0.0
H1127 H 0.03413 0.55619 0.68644 0.0
C1128 C 1.00355 0.52368 0.67588 0.0
C1129 C 0.99537 0.50276 0.65609 0.0
C1130 C 0.09438 0.54045 0.62688 0.0
C1131 C 0.04607 0.53309 0.64828 0.0
C1132 C 0.11453 0.55898 0.61516 0.0
C1133 C 0.11061 0.58855 0.61697 0.0
C1134 C 0.07044 0.55166 0.6408 0.0
C1135 C 0.08724 0.59894 0.63236 0.0
C1136 C 0.02871 0.53915 0.67183 0.0
C1137 C 0.01378 0.49673 0.63337 0.0
N1138 N 0.06788 0.58048 0.64364 0.0
N1139 N 0.03831 0.51184 0.63005 0.0
H1140 H 0.78116 0.74345 0.86085 0.0
H1141 H 0.64678 0.84195 0.877 0.0
H1142 H 0.71887 0.72844 0.92684 0.0
H1143 H 0.72572 0.87152 0.84054 0.0
H1144 H 0.67242 0.80132 0.89787 0.0
H1145 H 0.7605 0.79076 0.85312 0.0
C1146 C 0.76325 0.75012 0.87375 0.0
C1147 C 0.75174 0.73194 0.89444 0.0
C1148 C 0.68424 0.81719 0.88599 0.0
C1149 C 0.72786 0.78589 0.88567 0.0
C1150 C 0.66967 0.84056 0.87446 0.0
C1151 C 0.68419 0.85991 0.85696 0.0
C1152 C 0.71325 0.81319 0.87948 0.0
C1153 C 0.71378 0.85687 0.85381 0.0
C1154 C 0.75157 0.77719 0.86951 0.0
C1155 C 0.72849 0.74176 0.91065 0.0
N1156 N 0.72723 0.83358 0.86437 0.0
N1157 N 0.7171 0.76791 0.90569 0.0
H1158 H 0.77263 0.27155 0.44019 0.0
H1159 H 0.79769 0.13648 0.33939 0.0
H1160 H 0.72902 0.25901 0.36033 0.0
H1161 H 0.86589 0.17478 0.38737 0.0
H1162 H 0.76468 0.17212 0.35863 0.0
H1163 H 0.79922 0.22716 0.43198 0.0
C1164 C 0.768 0.259 0.42137 0.0
C1165 C 0.7485 0.26889 0.40092 0.0
C1166 C 0.78669 0.17225 0.36556 0.0
C1167 C 0.77873 0.21824 0.39156 0.0
C1168 C 0.80544 0.15181 0.35484 0.0
C1169 C 0.83437 0.15256 0.36219 0.0
C1170 C 0.79694 0.19353 0.3839 0.0
C1171 C 0.84359 0.17326 0.38166 0.0
C1172 C 0.78338 0.23388 0.41661 0.0
C1173 C 0.74381 0.25211 0.37663 0.0
N1174 N 0.82492 0.19309 0.3918 0.0
N1175 N 0.75882 0.22762 0.37261 0.0
H1176 H 0.06091 0.54474 0.24511 0.0
H1177 H 0.09161 0.38692 0.29822 0.0
H1178 H 0.11874 0.48773 0.20245 0.0
H1179 H 0.01369 0.43018 0.32052 0.0
H1180 H 0.10126 0.42402 0.26275 0.0
H1181 H 0.04136 0.50375 0.27168 0.0
C1182 C 0.06857 0.52349 0.24034 0.0
C1183 C 0.09122 0.51968 0.22115 0.0
C1184 C 0.08184 0.42525 0.27514 0.0
C1185 C 0.07007 0.47287 0.25256 0.0
C1186 C 0.07633 0.404 0.29546 0.0
C1187 C 0.05175 0.40519 0.31248 0.0
C1188 C 0.063 0.44843 0.27203 0.0
C1189 C 0.03284 0.42813 0.30785 0.0
C1190 C 0.05777 0.50011 0.25588 0.0
C1191 C 0.10108 0.49167 0.21676 0.0
N1192 N 0.03904 0.44896 0.28845 0.0
N1193 N 0.09087 0.46959 0.2326 0.0
H1194 H 0.83414 0.76831 0.57816 0.0
H1195 H 0.76195 0.8702 0.46113 0.0
H1196 H 0.87076 0.84903 0.55344 0.0
H1197 H 0.71539 0.80936 0.51156 0.0
H1198 H 0.80625 0.85522 0.48493 0.0
H1199 H 0.79529 0.77613 0.54453 0.0
C1200 C 0.83438 0.78753 0.56538 0.0
C1201 C 0.85596 0.80812 0.56902 0.0
C1202 C 0.78646 0.84457 0.49019 0.0
C1203 C 0.81097 0.81713 0.52997 0.0
C1204 C 0.76125 0.8527 0.47619 0.0
C1205 C 0.73497 0.84044 0.48377 0.0
C1206 C 0.7855 0.82381 0.5118 0.0
C1207 C 0.7352 0.81884 0.5045 0.0
C1208 C 0.81198 0.792 0.54618 0.0
C1209 C 0.85471 0.83255 0.55159 0.0
N1210 N 0.75993 0.8113 0.51778 0.0
N1211 N 0.8326 0.83642 0.53297 0.0
H1212 H 0.44975 0.4646 0.76077 0.0
H1213 H 0.41821 0.62572 0.80309 0.0
H1214 H 0.39119 0.51827 0.71494 0.0
H1215 H 0.4924 0.58081 0.83357 0.0
H1216 H 0.40999 0.58732 0.7687 0.0
H1217 H 0.4687 0.5072 0.785 0.0
C1218 C 0.4418 0.48546 0.75486 0.0
C1219 C 0.41923 0.48795 0.73543 0.0
C1220 C 0.42832 0.58603 0.78264 0.0
C1221 C 0.43967 0.53662 0.76407 0.0
C1222 C 0.43303 0.60804 0.80232 0.0
C1223 C 0.45599 0.60667 0.82146 0.0
C1224 C 0.44638 0.56204 0.78225 0.0
C1225 C 0.47439 0.58298 0.81933 0.0
C1226 C 0.45227 0.50977 0.76902 0.0
C1227 C 0.4089 0.51545 0.72946 0.0
N1228 N 0.46897 0.56152 0.80047 0.0
N1229 N 0.41883 0.53853 0.74397 0.0
H1230 H 0.63378 0.17632 0.05072 0.0
H1231 H 0.79789 0.19523 1.00506 0.0
H1232 H 0.69587 0.22386 0.09911 0.0
H1233 H 0.73822 0.14226 0.95975 0.0
H1234 H 0.75853 0.21323 0.03456 0.0
H1235 H 0.66953 0.1697 0.01296 0.0
C1236 C 0.65477 0.18554 0.05336 0.0
C1237 C 0.6618 0.20034 0.07842 0.0
C1238 C 0.75388 0.19823 0.01765 0.0
C1239 C 0.7029 0.19302 0.03513 0.0
C1240 C 0.77633 0.18839 1.00045 0.0
C1241 C 0.77128 0.16755 0.97963 0.0
C1242 C 0.72621 0.187 0.01412 0.0
C1243 C 0.74298 0.15861 0.97534 0.0
C1244 C 0.67522 0.18178 0.03178 0.0
C1245 C 0.68944 0.21192 0.08045 0.0
N1246 N 0.72166 0.16806 0.99259 0.0
N1247 N 0.70888 0.20789 0.05931 0.0
H1248 H 0.55818 0.96441 0.74696 0.0
H1249 H 0.59574 0.12356 0.70549 0.0
H1250 H 0.61694 0.01429 0.79667 0.0
H1251 H 0.51742 0.08286 0.67964 0.0
H1252 H 0.60357 0.08481 0.73986 0.0
H1253 H 0.54175 0.00807 0.72345 0.0
C1254 C 0.56676 0.98476 0.75376 0.0
C1255 C 0.58833 0.9858 0.77442 0.0
C1256 C 0.58447 0.08463 0.72694 0.0
C1257 C 0.57095 0.03588 0.74626 0.0
C1258 C 0.57997 0.10679 0.70726 0.0
C1259 C 0.55594 0.10661 0.68935 0.0
C1260 C 0.56506 0.06179 0.72849 0.0
C1261 C 0.53634 0.08408 0.69276 0.0
C1262 C 0.55767 0.00969 0.74007 0.0
C1263 C 0.59963 0.01265 0.7815 0.0
N1264 N 0.54153 0.06253 0.71151 0.0
N1265 N 0.59122 0.03652 0.7671 0.0
H1266 H 0.29899 0.31298 0.99723 0.0
H1267 H 0.13896 0.34907 0.95823 0.0
H1268 H 0.24953 0.3701 0.04918 0.0
H1269 H 0.17859 0.26952 0.93448 0.0
H1270 H 0.17872 0.35811 0.99123 0.0
H1271 H 0.2551 0.29696 0.97377 0.0
C1272 C 0.27872 0.32138 1.0044 0.0
C1273 C 0.27783 0.34223 0.0258 0.0
C1274 C 0.17843 0.33851 0.97904 0.0
C1275 C 0.22749 0.32531 0.99781 0.0
C1276 C 0.15571 0.33332 0.96017 0.0
C1277 C 0.15524 0.30851 0.9433 0.0
C1278 C 0.2012 0.31904 0.98075 0.0
C1279 C 0.1778 0.28899 0.94684 0.0
C1280 C 0.25367 0.31249 0.99079 0.0
C1281 C 0.25105 0.35332 0.0334 0.0
N1282 N 0.19989 0.29485 0.96473 0.0
N1283 N 0.22703 0.34511 0.01913 0.0
H1284 H 0.89415 0.98877 0.30726 0.0
H1285 H 0.99607 0.93292 0.1822 0.0
H1286 H 0.95156 0.04422 0.262 0.0
H1287 H 0.92031 0.88885 0.21005 0.0
H1288 H 0.98738 0.96974 0.21805 0.0
H1289 H 0.91197 0.94823 0.27982 0.0
C1290 C 0.91141 0.99222 0.29231 0.0
C1291 C 0.92167 0.01996 0.28729 0.0
C1292 C 0.97283 0.95188 0.21652 0.0
C1293 C 0.94154 0.97348 0.25481 0.0
C1294 C 0.97778 0.93066 0.19607 0.0
C1295 C 0.95883 0.90753 0.19281 0.0
C1296 C 0.94891 0.95003 0.23434 0.0
C1297 C 0.93551 0.90615 0.21156 0.0
C1298 C 0.92124 0.96908 0.27629 0.0
C1299 C 0.94349 0.02319 0.26708 0.0
N1300 N 0.93122 0.92705 0.23139 0.0
N1301 N 0.95248 1.00031 0.25135 0.0
H1302 H 0.21578 0.69817 0.50569 0.0
H1303 H 0.3756 0.66639 0.45412 0.0
H1304 H 0.27072 0.63503 0.5433 0.0
H1305 H 0.32634 0.73689 0.42165 0.0
H1306 H 0.33854 0.65768 0.48968 0.0
H1307 H 0.25676 0.71633 0.47811 0.0
C1308 C 0.23662 0.68882 0.50893 0.0
C1309 C 0.23983 0.6652 0.52704 0.0
C1310 C 0.3359 0.67528 0.475 0.0
C1311 C 0.28664 0.68513 0.49487 0.0
C1312 C 0.35721 0.68031 0.45464 0.0
C1313 C 0.35429 0.70238 0.43461 0.0
C1314 C 0.31109 0.69218 0.47538 0.0
C1315 C 0.32971 0.71961 0.43655 0.0
C1316 C 0.25997 0.69891 0.49289 0.0
C1317 C 0.26725 0.65337 0.52971 0.0
N1318 N 0.30902 0.71396 0.45623 0.0
N1319 N 0.28933 0.66319 0.51369 0.0
H1320 H 0.20982 0.12185 0.49919 0.0
H1321 H 0.33423 0.02282 0.43626 0.0
H1322 H 0.26665 0.07241 0.55147 0.0
H1323 H 0.3035 0.09747 0.39216 0.0
H1324 H 0.30065 0.03235 0.47481 0.0
H1325 H 0.23472 0.10428 0.45645 0.0
C1326 C 0.22671 0.10629 0.5016 0.0
C1327 C 0.23571 0.09799 0.52891 0.0
C1328 C 0.30101 0.04647 0.45655 0.0
C1329 C 0.26479 0.07839 0.48018 0.0
C1330 C 0.32015 0.04101 0.43434 0.0
C1331 C 0.32203 0.05946 0.41074 0.0
C1332 C 0.28309 0.07039 0.45528 0.0
C1333 C 0.30303 0.08268 0.40985 0.0
C1334 C 0.24123 0.09668 0.47724 0.0
C1335 C 0.25858 0.0788 0.53082 0.0
N1336 N 0.28447 0.08752 0.43178 0.0
N1337 N 0.2723 0.0697 0.50688 0.0
H1338 H 0.15032 0.9665 0.74947 0.0
H1339 H 0.23128 0.10698 0.6945 0.0
H1340 H 0.193 0.02723 0.80337 0.0
H1341 H 0.17657 0.05751 0.63966 0.0
H1342 H 0.22465 0.07202 0.73213 0.0
H1343 H 0.167 0.99312 0.7073 0.0
C1344 C 0.16426 0.98469 0.75239 0.0
C1345 C 0.17086 0.99428 0.78001 0.0
C1346 C 0.21419 0.06853 0.71187 0.0
C1347 C 0.18922 0.02541 0.73192 0.0
C1348 C 0.21799 0.08858 0.69021 0.0
C1349 C 0.20422 0.08554 0.66377 0.0
C1350 C 0.1963 0.04493 0.70751 0.0
C1351 C 0.18759 0.06087 0.65963 0.0
C1352 C 0.17336 1.00017 0.72833 0.0
C1353 C 0.18792 0.01872 0.78253 0.0
N1354 N 0.18383 0.04169 0.68136 0.0
N1355 N 0.19634 0.03341 0.75895 0.0
H1356 H 0.21437 0.93576 0.8842 0.0
H1357 H 0.25994 0.95184 0.04885 0.0
H1358 H 0.16444 0.97986 0.9475 0.0
H1359 H 0.30377 0.89804 0.9889 0.0
H1360 H 0.23043 0.97034 0.0097 0.0
H1361 H 0.25209 0.92886 0.91992 0.0
C1362 C 0.21143 0.94431 0.90543 0.0
C1363 C 0.18592 0.95818 0.91276 0.0
C1364 C 0.24703 0.95505 1.00493 0.0
C1365 C 0.2292 0.9504 0.95394 0.0
C1366 C 0.26427 0.94492 0.02727 0.0
C1367 C 0.28473 0.92373 0.02211 0.0
C1368 C 0.2502 0.94386 0.97721 0.0
C1369 C 0.28855 0.91468 0.99377 0.0
C1370 C 0.23297 0.9403 0.92589 0.0
C1371 C 0.18349 0.96874 0.94078 0.0
N1372 N 0.27134 0.92451 0.97255 0.0
N1373 N 0.20463 0.96452 0.96023 0.0
H1374 H 0.3406 0.96576 0.13798 0.0
H1375 H 0.30823 0.01164 0.29745 0.0
H1376 H 0.26466 0.93766 0.18145 0.0
H1377 H 0.36407 0.05904 0.24224 0.0
H1378 H 0.28966 0.98596 0.25555 0.0
H1379 H 0.34851 1.00086 0.17586 0.0
C1380 C 0.32537 0.96718 0.15524 0.0
C1381 C 0.30191 0.94859 0.15631 0.0
C1382 C 0.30536 1.00261 0.2525 0.0
C1383 C 0.31118 0.98859 0.2004 0.0
C1384 C 0.31557 0.01764 0.27641 0.0
C1385 C 0.33733 0.03797 0.27333 0.0
C1386 C 0.31744 0.00754 0.22543 0.0
C1387 C 0.34695 0.04389 0.24556 0.0
C1388 C 0.32988 0.98728 0.17695 0.0
C1389 C 0.283 0.95152 0.17949 0.0
N1390 N 0.33738 0.0285 0.2229 0.0
N1391 N 0.28825 0.97074 0.20072 0.0
H1392 H 0.7854 0.4329 0.45252 0.0
H1393 H 0.80479 0.43563 0.62128 0.0
H1394 H 0.71787 0.40645 0.50867 0.0
H1395 H 0.85968 0.47965 0.56211 0.0
H1396 H 0.77108 0.42656 0.58194 0.0
H1397 H 0.81125 0.45233 0.49328 0.0
C1398 C 0.77565 0.43194 0.47342 0.0
C1399 C 0.74922 0.41853 0.4771 0.0
C1400 C 0.79035 0.43855 0.57775 0.0
C1401 C 0.77941 0.43961 0.52448 0.0
C1402 C 0.80957 0.44381 0.60024 0.0
C1403 C 0.83538 0.45818 0.59508 0.0
C1404 C 0.79704 0.44763 0.54992 0.0
C1405 C 0.84035 0.46815 0.56723 0.0
C1406 C 0.79053 0.44283 0.49682 0.0
C1407 C 0.73791 0.41721 0.50483 0.0
N1408 N 0.82166 0.46245 0.54587 0.0
N1409 N 0.75326 0.42718 0.52753 0.0
H1410 H 0.86836 0.46426 0.75969 0.0
H1411 H 0.77003 0.58707 0.82582 0.0
H1412 H 0.82239 0.52494 0.70851 0.0
H1413 H 0.84625 0.55778 0.86809 0.0
H1414 H 0.77988 0.55449 0.7865 0.0
H1415 H 0.85096 0.48841 0.80295 0.0
C1416 C 0.85364 0.48193 0.7576 0.0
C1417 C 0.84624 0.49224 0.73049 0.0
C1418 C 0.79425 0.55493 0.80454 0.0
C1419 C 0.82674 0.52022 0.77977 0.0
C1420 C 0.78862 0.57347 0.82719 0.0
C1421 C 0.80744 0.57548 0.85047 0.0
C1422 C 0.81866 0.53771 0.80512 0.0
C1423 C 0.83118 0.55715 0.85066 0.0
C1424 C 0.84412 0.49596 0.78225 0.0
C1425 C 0.8281 0.51596 0.72898 0.0
N1426 N 0.83615 0.5391 0.82833 0.0
N1427 N 0.81895 0.5291 0.75321 0.0
H1428 H 0.66684 0.53356 0.06315 0.0
H1429 H 0.81018 0.61377 0.0195 0.0
H1430 H 0.71798 0.58087 0.12314 0.0
H1431 H 0.75874 0.56568 0.96077 0.0
H1432 H 0.78172 0.59527 0.05911 0.0
H1433 H 0.70385 0.5395 0.02735 0.0
C1434 C 0.68594 0.54517 0.06892 0.0
C1435 C 0.68896 0.55706 0.0963 0.0
C1436 C 0.77711 0.58801 0.0377 0.0
C1437 C 0.73195 0.56394 0.05482 0.0
C1438 C 0.79373 0.59816 0.01508 0.0
C1439 C 0.78727 0.59077 0.98677 0.0
C1440 C 0.75341 0.57063 0.03206 0.0
C1441 C 0.76498 0.57135 0.98224 0.0
C1442 C 0.70721 0.54844 0.04835 0.0
C1443 C 0.71453 0.57146 0.10237 0.0
N1444 N 0.7486 0.56235 1.00454 0.0
N1445 N 0.73486 0.57476 0.08173 0.0
H1446 H 0.69238 0.46446 0.3762 0.0
H1447 H 0.65837 0.55419 0.26084 0.0
H1448 H 0.72538 0.40841 0.31129 0.0
H1449 H 0.70437 0.4936 0.20971 0.0
H1450 H 0.67383 0.52903 0.3038 0.0
H1451 H 0.68721 0.50203 0.34026 0.0
C1452 C 0.69876 0.4601 0.35446 0.0
C1453 C 0.709 0.43295 0.34686 0.0
C1454 C 0.68149 0.52161 0.28341 0.0
C1455 C 0.70287 0.476 0.30508 0.0
C1456 C 0.673 0.53646 0.25875 0.0
C1457 C 0.68053 0.52636 0.2316 0.0
C1458 C 0.69752 0.49627 0.28084 0.0
C1459 C 0.69849 0.50247 0.23018 0.0
C1460 C 0.69563 0.48162 0.33373 0.0
C1461 C 0.71701 0.42874 0.31829 0.0
N1462 N 0.70596 0.48813 0.25427 0.0
N1463 N 0.71364 0.44981 0.29865 0.0
H1464 H 0.54746 0.25278 0.05611 0.0
H1465 H 0.38595 0.29701 0.08997 0.0
H1466 H 0.49686 0.20957 0.11916 0.0
H1467 H 0.44194 0.34081 0.03178 0.0
H1468 H 0.42222 0.25919 0.09514 0.0
H1469 H 0.50499 0.27816 0.03993 0.0
C1470 C 0.52707 0.24759 0.06561 0.0
C1471 C 0.52565 0.22846 0.08852 0.0
C1472 C 0.42633 0.27691 0.08094 0.0
C1473 C 0.47686 0.259 0.0714 0.0
C1474 C 0.40557 0.29845 0.07792 0.0
C1475 C 0.41097 0.32236 0.06066 0.0
C1476 C 0.45252 0.27918 0.06637 0.0
C1477 C 0.4369 0.32307 0.04565 0.0
C1478 C 0.50282 0.26254 0.05678 0.0
C1479 C 0.49877 0.22353 0.10088 0.0
N1480 N 0.45658 0.30206 0.04898 0.0
N1481 N 0.47557 0.23906 0.09256 0.0
H1482 H 0.98752 0.31398 0.90977 0.0
H1483 H 0.88472 0.20907 0.9213 0.0
H1484 H 0.04287 0.25211 0.9486 0.0
H1485 H 0.93331 0.17593 0.9919 0.0
H1486 H 0.9206 0.24633 0.91492 0.0
H1487 H 0.94618 0.2866 0.92591 0.0
C1488 C 0.99093 0.29526 0.92286 0.0
C1489 C 0.01877 0.28577 0.92843 0.0
C1490 C 0.92315 0.23141 0.9323 0.0
C1491 C 0.97135 0.25282 0.9452 0.0
C1492 C 0.90264 0.20988 0.93581 0.0
C1493 C 0.90572 0.1892 0.95724 0.0
C1494 C 0.94729 0.2323 0.95017 0.0
C1495 C 0.92976 0.19139 0.97516 0.0
C1496 C 0.96728 0.27912 0.93137 0.0
C1497 C 0.02185 0.2607 0.94454 0.0
N1498 N 0.9497 0.21217 0.97096 0.0
N1499 N 0.9985 0.24496 0.95207 0.0
H1500 H 1.00198 0.79647 0.20477 0.0
H1501 H 0.07908 0.67672 0.25088 0.0
H1502 H 0.96082 0.73851 0.14679 0.0
H1503 H 0.05735 0.64333 0.16804 0.0
H1504 H 0.04378 0.71443 0.2445 0.0
H1505 H 0.02968 0.75647 0.22401 0.0
C1506 C 0.99766 0.77509 0.19716 0.0
C1507 C 0.97857 0.77082 0.17453 0.0
C1508 C 0.04671 0.69898 0.22764 0.0
C1509 C 0.01106 0.72476 0.19563 0.0
C1510 C 0.06676 0.6771 0.23138 0.0
C1511 C 0.07159 0.65669 0.20986 0.0
C1512 C 0.03107 0.70065 0.20215 0.0
C1513 C 0.05466 0.6585 0.1852 0.0
C1514 C 0.0138 0.75215 0.20788 0.0
C1515 C 0.97493 0.74273 0.16456 0.0
N1516 N 0.03533 0.68004 0.18205 0.0
N1517 N 0.99131 0.72104 0.17472 0.0
H1518 H 0.52086 0.71133 0.38475 0.0
H1519 H 0.565 0.84839 0.47562 0.0
H1520 H 0.46302 0.75604 0.4401 0.0
H1521 H 0.62475 0.8015 0.42391 0.0
H1522 H 0.52917 0.81187 0.46681 0.0
H1523 H 0.56034 0.73995 0.40334 0.0
C1524 C 0.51665 0.72651 0.40165 0.0
C1525 C 0.48861 0.73087 0.41127 0.0
C1526 C 0.55012 0.80932 0.45752 0.0
C1527 C 0.53377 0.76484 0.43187 0.0
C1528 C 0.57073 0.8303 0.46246 0.0
C1529 C 0.59808 0.82836 0.45025 0.0
C1530 C 0.5565 0.78597 0.43997 0.0
C1531 C 0.60406 0.80407 0.43373 0.0
C1532 C 0.5392 0.74312 0.41201 0.0
C1533 C 0.48433 0.75143 0.43257 0.0
N1534 N 0.58338 0.78405 0.42884 0.0
N1535 N 0.50655 0.76787 0.44184 0.0
H1536 H 0.50917 0.21621 0.69932 0.0
H1537 H 0.45563 0.37522 0.67158 0.0
H1538 H 0.55315 0.27569 0.64506 0.0
H1539 H 0.42355 0.32353 0.74055 0.0
H1540 H 0.49314 0.33976 0.66351 0.0
H1541 H 0.48016 0.25576 0.71794 0.0
C1542 C 0.51367 0.23776 0.69235 0.0
C1543 C 0.53399 0.2427 0.67098 0.0
C1544 C 0.47807 0.33631 0.68063 0.0
C1545 C 0.49986 0.28791 0.69097 0.0
C1546 C 0.45657 0.35662 0.68522 0.0
C1547 C 0.43615 0.35251 0.70671 0.0
C1548 C 0.4791 0.31138 0.69737 0.0
C1549 C 0.43866 0.32778 0.72366 0.0
C1550 C 0.49674 0.26032 0.70256 0.0
C1551 C 0.53801 0.27099 0.66183 0.0
N1552 N 0.45941 0.30812 0.71843 0.0
N1553 N 0.52089 0.29232 0.67148 0.0
H1554 H 0.96709 0.76277 0.56073 0.0
H1555 H 0.12693 0.71281 0.59003 0.0
H1556 H 0.02544 0.80874 0.61456 0.0
H1557 H 0.07665 0.67859 0.52109 0.0
H1558 H 0.09071 0.74973 0.59722 0.0
H1559 H 0.00727 0.73417 0.54273 0.0
C1560 C 0.98851 0.76779 0.56774 0.0
C1561 C 0.99293 0.78861 0.58878 0.0
C1562 C 0.08773 0.73436 0.58027 0.0
C1563 C 0.0389 0.75495 0.56946 0.0
C1564 C 0.10851 0.71321 0.57615 0.0
C1565 C 0.10505 0.69233 0.55494 0.0
C1566 C 0.06289 0.73459 0.56339 0.0
C1567 C 0.08046 0.69412 0.53772 0.0
C1568 C 0.01143 0.75109 0.55786 0.0
C1569 C 0.02109 0.79324 0.59801 0.0
N1570 N 0.06028 0.71452 0.54254 0.0
N1571 N 0.04278 0.77637 0.58869 0.0
H1572 H 0.45554 0.77527 0.86983 0.0
H1573 H 0.59516 0.81742 0.78303 0.0
H1574 H 0.50094 0.71683 0.81565 0.0
H1575 H 0.54724 0.87801 0.83283 0.0
H1576 H 0.55761 0.78227 0.79005 0.0
H1577 H 0.48424 0.81461 0.85112 0.0
C1578 C 0.47082 0.77092 0.85308 0.0
C1579 C 0.4755 0.74274 0.84394 0.0
C1580 C 0.55506 0.80328 0.79928 0.0
C1581 C 0.50956 0.78768 0.82331 0.0
C1582 C 0.57662 0.82347 0.79537 0.0
C1583 C 0.57467 0.85079 0.80766 0.0
C1584 C 0.53115 0.81009 0.81586 0.0
C1585 C 0.54982 0.85727 0.82305 0.0
C1586 C 0.4875 0.79337 0.84268 0.0
C1587 C 0.49615 0.73825 0.82282 0.0
N1588 N 0.52924 0.83698 0.827 0.0
N1589 N 0.5127 0.76036 0.81358 0.0
H1590 H 0.93004 0.18172 0.2698 0.0
H1591 H 0.06084 0.23919 0.36351 0.0
H1592 H 0.96246 0.13835 0.34409 0.0
H1593 H 0.01114 0.29373 0.30911 0.0
H1594 H 0.03306 0.1981 0.3473 0.0
H1595 H 0.96637 0.21858 0.27594 0.0
C1596 C 0.94501 0.1796 0.28723 0.0
C1597 C 0.94288 0.15665 0.30654 0.0
C1598 C 0.02871 0.21888 0.33822 0.0
C1599 C 0.98504 0.19925 0.3135 0.0
C1600 C 0.045 0.24232 0.34701 0.0
C1601 C 0.03883 0.27 0.33721 0.0
C1602 C 0.00584 0.2229 0.31939 0.0
C1603 C 0.01726 0.27278 0.31663 0.0
C1604 C 0.96575 0.20086 0.29072 0.0
C1605 C 0.96305 0.1555 0.32868 0.0
N1606 N 1.00134 0.24965 0.30868 0.0
N1607 N 0.98315 0.17644 0.33155 0.0
H1608 H 0.05566 0.28767 0.47739 0.0
H1609 H 0.20091 0.20124 0.50195 0.0
H1610 H 0.12661 0.28988 0.4189 0.0
H1611 H 0.12743 0.19372 0.55674 0.0
H1612 H 0.17448 0.23451 0.47192 0.0
H1613 H 0.08237 0.25487 0.50771 0.0
C1614 C 0.07693 0.28144 0.47097 0.0
C1615 C 0.08881 0.29155 0.4454 0.0
C1616 C 0.16408 0.22551 0.49044 0.0
C1617 C 0.11953 0.25371 0.48012 0.0
C1618 C 0.17915 0.20641 0.5076 0.0
C1619 C 0.16639 0.19452 0.53195 0.0
C1620 C 0.13602 0.23301 0.49765 0.0
C1621 C 0.13813 0.20219 0.53814 0.0
C1622 C 0.09214 0.26257 0.48828 0.0
C1623 C 0.11651 0.28266 0.43833 0.0
N1624 N 0.12396 0.22099 0.52119 0.0
N1625 N 0.13085 0.26423 0.45553 0.0
H1626 H 0.07697 0.8841 0.80609 0.0
H1627 H 0.98064 0.88502 0.66505 0.0
H1628 H 0.06725 0.95856 0.75288 0.0
H1629 H 0.98081 0.81706 0.72711 0.0
H1630 H 0.01401 0.91172 0.69518 0.0
H1631 H 0.04415 0.85829 0.77514 0.0
C1632 C 0.06813 0.895 0.78777 0.0
C1633 C 0.07498 0.92359 0.78213 0.0
C1634 C 0.00664 0.89099 0.70218 0.0
C1635 C 0.03702 0.89408 0.74657 0.0
C1636 C 0.98755 0.87574 0.68501 0.0
C1637 C 0.97789 0.84866 0.69344 0.0
C1638 C 0.01628 0.87901 0.72788 0.0
C1639 C 0.98763 0.83778 0.71959 0.0
C1640 C 0.04922 0.88026 0.77016 0.0
C1641 C 0.06263 0.93655 0.7581 0.0
N1642 N 0.00631 0.8529 0.73573 0.0
N1643 N 0.04426 0.92171 0.74122 0.0
H1644 H 0.42229 0.69872 0.98515 0.0
H1645 H 0.36069 0.85226 0.01456 0.0
H1646 H 0.40104 0.75481 0.91557 0.0
H1647 H 0.33164 0.78012 0.0636 0.0
H1648 H 0.38477 0.81935 0.98166 0.0
H1649 H 0.39699 0.73068 0.01796 0.0
C1650 C 0.41203 0.71766 0.97682 0.0
C1651 C 0.41342 0.72413 0.94771 0.0
C1652 C 0.37322 0.81085 0.99974 0.0
C1653 C 0.38556 0.76103 0.98502 0.0
C1654 C 0.35981 0.82954 0.01863 0.0
C1655 C 0.34433 0.81878 0.0418 0.0
C1656 C 0.37167 0.78137 1.00456 0.0
C1657 C 0.34342 0.78917 0.04594 0.0
C1658 C 0.39771 0.73581 0.99548 0.0
C1659 C 0.40005 0.74898 0.93787 0.0
N1660 N 0.35711 0.77144 0.0276 0.0
N1661 N 0.38696 0.76682 0.9566 0.0
H1662 H 0.50048 0.2095 0.19586 0.0
H1663 H 0.47679 0.06492 0.28361 0.0
H1664 H 0.55672 0.13668 0.19338 0.0
H1665 H 0.41369 0.13185 0.28076 0.0
H1666 H 0.50702 0.09271 0.25217 0.0
H1667 H 0.46895 0.18304 0.22821 0.0
C1668 C 0.50619 0.18799 0.20203 0.0
C1669 C 0.5313 0.17531 0.19178 0.0
C1670 C 0.48657 0.1014 0.25834 0.0
C1671 C 0.49546 0.14507 0.22883 0.0
C1672 C 0.46922 0.0855 0.27639 0.0
C1673 C 0.44249 0.09594 0.28481 0.0
C1674 C 0.47733 0.12812 0.24851 0.0
C1675 C 0.43407 0.1229 0.27477 0.0
C1676 C 0.48819 0.17292 0.22048 0.0
C1677 C 0.5376 0.14739 0.20056 0.0
N1678 N 0.45143 0.13807 0.25711 0.0
N1679 N 0.51988 0.13332 0.21853 0.0
H1680 H 0.56071 0.2337 0.53286 0.0
H1681 H 0.70681 0.31783 0.50848 0.0
H1682 H 0.62979 0.2323 0.59361 0.0
H1683 H 0.6315 0.33 0.4571 0.0
H1684 H 0.67988 0.28552 0.53927 0.0
H1685 H 0.58756 0.26726 0.50381 0.0
C1686 C 0.58159 0.24035 0.5401 0.0
C1687 C 0.59293 0.23014 0.56585 0.0
C1688 C 0.66922 0.29543 0.52138 0.0
C1689 C 0.62389 0.26883 0.53248 0.0
C1690 C 0.68456 0.31393 0.50379 0.0
C1691 C 0.67142 0.32672 0.48012 0.0
C1692 C 0.64058 0.28942 0.51514 0.0
C1693 C 0.64253 0.32077 0.47512 0.0
C1694 C 0.59688 0.25967 0.5235 0.0
C1695 C 0.62015 0.23962 0.57398 0.0
N1696 N 0.62817 0.30244 0.49236 0.0
N1697 N 0.63471 0.25841 0.55734 0.0
H1698 H 0.94501 0.45434 0.76013 0.0
H1699 H 0.02705 0.30728 0.78761 0.0
H1700 H 0.93711 0.38053 0.70571 0.0
H1701 H 0.02865 0.37802 0.8465 0.0
H1702 H 0.9949 0.33422 0.75696 0.0
H1703 H 0.97585 0.42696 0.79185 0.0
C1704 C 0.94959 0.43232 0.75492 0.0
C1705 C 0.93839 0.41975 0.73015 0.0
C1706 C 1.00225 0.34387 0.77659 0.0
C1707 C 0.974 0.38831 0.76637 0.0
C1708 C 0.02071 0.32851 0.79412 0.0
C1709 C 0.0306 0.34034 0.8198 0.0
C1710 C 0.99359 0.37137 0.78462 0.0
C1711 C 0.02159 0.36799 0.82697 0.0
C1712 C 0.96726 0.4167 0.77305 0.0
C1713 C 0.94514 0.39111 0.72457 0.0
N1714 N 1.00362 0.38254 0.80949 0.0
N1715 N 0.96259 0.37643 0.74244 0.0
H1716 H 0.96035 0.77276 0.04151 0.0
H1717 H 0.80731 0.72365 0.9883 0.0
H1718 H 0.88319 0.79396 0.08686 0.0
H1719 H 0.88396 0.6774 0.96713 0.0
H1720 H 0.83497 0.7541 0.0201 0.0
H1721 H 0.93273 0.74223 0.0097 0.0
C1722 C 0.93756 0.77109 0.04474 0.0
C1723 C 0.92403 0.78594 0.06694 0.0
C1724 C 0.84571 0.73726 0.00853 0.0
C1725 C 0.89236 0.75111 0.03041 0.0
C1726 C 0.83 0.71993 0.99024 0.0
C1727 C 0.84337 0.69788 0.97502 0.0
C1728 C 0.8751 0.73286 0.01134 0.0
C1729 C 0.8728 0.69405 0.97853 0.0
C1730 C 0.92188 0.75352 0.02664 0.0
C1731 C 0.89448 0.78281 0.07012 0.0
N1732 N 0.88774 0.7115 0.99623 0.0
N1733 N 0.87958 0.76585 0.05194 0.0
H1734 H 0.48364 0.62769 0.34472 0.0
H1735 H 0.57925 0.62486 0.20363 0.0
H1736 H 0.48058 0.69099 0.27798 0.0
H1737 H 0.57083 0.55117 0.25817 0.0
H1738 H 0.54616 0.65058 0.23387 0.0
H1739 H 0.51792 0.60026 0.31613 0.0
C1740 C 0.4901 0.63582 0.32412 0.0
C1741 C 0.4792 0.66177 0.31383 0.0
C1742 C 0.5515 0.6288 0.23934 0.0
C1743 C 0.51848 0.63065 0.28122 0.0
C1744 C 0.57058 0.61405 0.22209 0.0
C1745 C 0.57792 0.5857 0.22828 0.0
C1746 C 0.53953 0.6153 0.26319 0.0
C1747 C 0.56579 0.57298 0.25255 0.0
C1748 C 0.50963 0.62014 0.30783 0.0
C1749 C 0.48832 0.67118 0.28693 0.0
N1750 N 0.54716 0.58788 0.26916 0.0
N1751 N 0.50743 0.65573 0.27172 0.0
H1752 H 0.25577 0.44644 0.05419 0.0
H1753 H 0.23227 0.53776 0.19613 0.0
H1754 H 0.30819 0.43964 0.12947 0.0
H1755 H 0.16905 0.53323 0.12944 0.0
H1756 H 0.26219 0.50505 0.16944 0.0
H1757 H 0.22526 0.4806 0.07928 0.0
C1758 C 0.26082 0.452 0.07601 0.0
C1759 C 0.2846 0.44004 0.08975 0.0
C1760 C 0.24181 0.51118 0.16055 0.0
C1761 C 0.24992 0.47936 0.11841 0.0
C1762 C 0.22466 0.53001 0.17577 0.0
C1763 C 0.19789 0.53818 0.16517 0.0
C1764 C 0.23235 0.50036 0.13434 0.0
C1765 C 0.18946 0.52748 0.1385 0.0
C1766 C 0.24338 0.47152 0.09029 0.0
C1767 C 0.29006 0.44813 0.11801 0.0
N1768 N 0.20661 0.50904 0.12402 0.0
N1769 N 0.27296 0.46732 0.13131 0.0
H1770 H 0.78431 0.02971 0.94326 0.0
H1771 H 0.69518 0.01047 0.79917 0.0
H1772 H 0.77959 0.09619 0.87978 0.0
H1773 H 0.68855 0.95565 0.8728 0.0
H1774 H 0.72848 0.04098 0.82583 0.0
H1775 H 0.75224 1.00077 0.91483 0.0
C1776 C 0.77658 0.03828 0.92328 0.0
C1777 C 0.78459 0.06561 0.91406 0.0
C1778 C 0.71959 0.0223 0.83606 0.0
C1779 C 0.74752 0.03226 0.88115 0.0
C1780 C 0.7006 1.00488 0.82089 0.0
C1781 C 0.68894 0.98044 0.83374 0.0
C1782 C 0.72712 0.01501 0.86412 0.0
C1783 C 0.6968 0.97426 0.86194 0.0
C1784 C 0.75813 0.02169 0.90703 0.0
C1785 C 0.7739 0.07531 0.8878 0.0
N1786 N 0.71538 0.99132 0.87604 0.0
N1787 N 0.75586 0.05866 0.87224 0.0
H1788 H 0.78296 0.03734 0.32121 0.0
H1789 H 0.76073 0.94447 0.46257 0.0
H1790 H 0.84952 0.02801 0.38403 0.0
H1791 H 0.70456 0.9439 0.38973 0.0
H1792 H 0.79257 0.97724 0.43681 0.0
H1793 H 0.75279 1.00599 0.34902 0.0
C1794 C 0.79131 0.02873 0.34092 0.0
C1795 C 0.81903 0.03524 0.3501 0.0
C1796 C 0.77329 0.96981 0.42655 0.0
C1797 C 0.78417 0.99893 0.38236 0.0
C1798 C 0.7551 0.95114 0.44122 0.0
C1799 C 0.7299 0.9413 0.42832 0.0
C1800 C 0.76604 0.97887 0.39894 0.0
C1801 C 0.72373 0.95071 0.4006 0.0
C1802 C 0.77398 0.01069 0.35683 0.0
C1803 C 0.82836 0.02349 0.37605 0.0
N1804 N 0.74156 0.96893 0.38698 0.0
N1805 N 0.81097 1.00583 0.39128 0.0
H1806 H 0.34952 0.50487 0.66124 0.0
H1807 H 0.19839 0.53053 0.59346 0.0
H1808 H 0.27575 0.45953 0.69214 0.0
H1809 H 0.2547 0.60159 0.60879 0.0
H1810 H 0.22924 0.50032 0.62291 0.0
H1811 H 0.31786 0.53712 0.63472 0.0
C1812 C 0.32669 0.50167 0.66232 0.0
C1813 C 0.31514 0.47957 0.67884 0.0
C1814 C 0.23471 0.52257 0.61993 0.0
C1815 C 0.27915 0.51589 0.64844 0.0
C1816 C 0.21724 0.53973 0.60313 0.0
C1817 C 0.22407 0.56852 0.59886 0.0
C1818 C 0.25959 0.53409 0.63182 0.0
C1819 C 0.24866 0.57951 0.61183 0.0
C1820 C 0.30872 0.52014 0.64741 0.0
C1821 C 0.28544 0.47642 0.67973 0.0
N1822 N 0.26583 0.56214 0.62746 0.0
N1823 N 0.26843 0.49418 0.66445 0.0
loop_
_geom_bond_atom_site_label_1
_geom_bond_atom_site_label_2
_geom_bond_distance
_geom_bond_site_symmetry_2
_ccdc_geom_bond_type
Fe0 O2 1.918 . S
Fe0 O5 1.997 . S
Fe0 O6 2.002 . S
Fe0 O11 1.976 . S
Fe0 O14 1.996 1_455 S
Fe1 O2 1.918 . S
Fe1 O9 1.997 . S
Fe1 O12 1.996 . S
Fe1 O16 1.976 . S
Fe1 O19 2.002 . S
O2 Fe0 1.918 . S
O2 Fe1 1.918 . S
O2 Fe3 1.918 . S
Fe3 O2 1.918 . S
Fe3 O4 2.002 . S
Fe3 O13 1.976 1_455 S
Fe3 O17 1.996 . S
Fe3 O20 1.997 . S
O4 Fe3 2.002 . S
O4 C21 1.295 . S
O5 Fe0 1.997 . S
O5 C21 1.235 . S
O6 Fe0 2.002 . S
O6 C7 1.295 . S
C7 O6 1.295 . S
C7 O9 1.235 . S
C8 O13 1.287 . S
C8 O14 1.255 . S
O9 Fe1 1.997 . S
O9 C7 1.235 . S
C10 O16 1.287 . S
C10 O17 1.255 . S
O11 Fe0 1.976 . S
O11 C18 1.287 . S
O12 Fe1 1.996 . S
O12 C18 1.255 . S
O13 Fe3 1.976 1_655 S
O13 C8 1.287 . S
O14 Fe0 1.996 1_655 S
O14 C8 1.255 . S
C15 O19 1.295 . S
C15 O20 1.235 . S
O16 Fe1 1.976 . S
O16 C10 1.287 . S
O17 Fe3 1.996 . S
O17 C10 1.255 . S
C18 O11 1.287 . S
C18 O12 1.255 . S
O19 Fe1 2.002 . S
O19 C15 1.295 . S
O20 Fe3 1.997 . S
O20 C15 1.235 . S
C21 O4 1.295 . S
C21 O5 1.235 . S
Fe22 O24 1.918 . S
Fe22 O27 1.997 . S
Fe22 O28 2.002 . S
Fe22 O33 1.976 . S
Fe22 O36 1.996 . S
Fe23 O24 1.918 . S
Fe23 O31 1.997 . S
Fe23 O34 1.996 . S
Fe23 O38 1.976 . S
Fe23 O41 2.002 . S
O24 Fe22 1.918 . S
O24 Fe23 1.918 . S
O24 Fe25 1.918 . S
Fe25 O24 1.918 . S
Fe25 O26 2.002 . S
Fe25 O35 1.976 . S
Fe25 O39 1.996 . S
Fe25 O42 1.997 . S
O26 Fe25 2.002 . S
O26 C43 1.295 . S
O27 Fe22 1.997 . S
O27 C43 1.235 . S
O28 Fe22 2.002 . S
O28 C29 1.295 . S
C29 O28 1.295 . S
C29 O31 1.235 . S
C30 O35 1.287 . S
C30 O36 1.255 . S
O31 Fe23 1.997 . S
O31 C29 1.235 . S
C32 O38 1.287 . S
C32 O39 1.255 . S
O33 Fe22 1.976 . S
O33 C40 1.287 . S
O34 Fe23 1.996 . S
O34 C40 1.255 . S
O35 Fe25 1.976 . S
O35 C30 1.287 . S
O36 Fe22 1.996 . S
O36 C30 1.255 . S
C37 O41 1.295 . S
C37 O42 1.235 . S
O38 Fe23 1.976 . S
O38 C32 1.287 . S
O39 Fe25 1.996 . S
O39 C32 1.255 . S
C40 O33 1.287 . S
C40 O34 1.255 . S
O41 Fe23 2.002 . S
O41 C37 1.295 . S
O42 Fe25 1.997 . S
O42 C37 1.235 . S
C43 O26 1.295 . S
C43 O27 1.235 . S
Fe44 O46 1.918 . S
Fe44 O49 1.997 . S
Fe44 O50 2.002 . S
Fe44 O55 1.976 . S
Fe44 O58 1.996 . S
Fe45 O46 1.918 . S
Fe45 O53 1.997 . S
Fe45 O56 1.996 . S
Fe45 O60 1.976 . S
Fe45 O63 2.002 . S
O46 Fe44 1.918 . S
O46 Fe45 1.918 . S
O46 Fe47 1.918 . S
Fe47 O46 1.918 . S
Fe47 O48 2.002 . S
Fe47 O57 1.976 . S
Fe47 O61 1.996 . S
Fe47 O64 1.997 . S
O48 Fe47 2.002 . S
O48 C65 1.295 . S
O49 Fe44 1.997 . S
O49 C65 1.235 . S
O50 Fe44 2.002 . S
O50 C51 1.295 . S
C51 O50 1.295 . S
C51 O53 1.235 . S
C52 O57 1.287 . S
C52 O58 1.255 . S
O53 Fe45 1.997 . S
O53 C51 1.235 . S
C54 O60 1.287 . S
C54 O61 1.255 . S
O55 Fe44 1.976 . S
O55 C62 1.287 . S
O56 Fe45 1.996 . S
O56 C62 1.255 . S
O57 Fe47 1.976 . S
O57 C52 1.287 . S
O58 Fe44 1.996 . S
O58 C52 1.255 . S
C59 O63 1.295 . S
C59 O64 1.235 . S
O60 Fe45 1.976 . S
O60 C54 1.287 . S
O61 Fe47 1.996 . S
O61 C54 1.255 . S
C62 O55 1.287 . S
C62 O56 1.255 . S
O63 Fe45 2.002 . S
O63 C59 1.295 . S
O64 Fe47 1.997 . S
O64 C59 1.235 . S
C65 O48 1.295 . S
C65 O49 1.235 . S
Fe66 O68 1.918 . S
Fe66 O71 1.997 . S
Fe66 O72 2.002 . S
Fe66 O77 1.976 . S
Fe66 O80 1.996 . S
Fe67 O68 1.918 . S
Fe67 O75 1.997 . S
Fe67 O78 1.996 . S
Fe67 O82 1.976 . S
Fe67 O85 2.002 . S
O68 Fe66 1.918 . S
O68 Fe67 1.918 . S
O68 Fe69 1.918 . S
Fe69 O68 1.918 . S
Fe69 O70 2.002 . S
Fe69 O79 1.976 . S
Fe69 O83 1.996 . S
Fe69 O86 1.997 . S
O70 Fe69 2.002 . S
O70 C87 1.295 . S
O71 Fe66 1.997 . S
O71 C87 1.235 . S
O72 Fe66 2.002 . S
O72 C73 1.295 . S
C73 O72 1.295 . S
C73 O75 1.235 . S
C74 O79 1.287 . S
C74 O80 1.255 . S
O75 Fe67 1.997 . S
O75 C73 1.235 . S
C76 O82 1.287 . S
C76 O83 1.255 . S
O77 Fe66 1.976 . S
O77 C84 1.287 . S
O78 Fe67 1.996 . S
O78 C84 1.255 . S
O79 Fe69 1.976 . S
O79 C74 1.287 . S
O80 Fe66 1.996 . S
O80 C74 1.255 . S
C81 O85 1.295 . S
C81 O86 1.235 . S
O82 Fe67 1.976 . S
O82 C76 1.287 . S
O83 Fe69 1.996 . S
O83 C76 1.255 . S
C84 O77 1.287 . S
C84 O78 1.255 . S
O85 Fe67 2.002 . S
O85 C81 1.295 . S
O86 Fe69 1.997 . S
O86 C81 1.235 . S
C87 O70 1.295 . S
C87 O71 1.235 . S
Fe88 O90 1.918 . S
Fe88 O93 1.997 . S
Fe88 O94 2.002 . S
Fe88 O99 1.976 . S
Fe88 O102 1.996 . S
Fe89 O90 1.918 . S
Fe89 O97 1.997 . S
Fe89 O100 1.996 . S
Fe89 O104 1.976 . S
Fe89 O107 2.002 . S
O90 Fe88 1.918 . S
O90 Fe89 1.918 . S
O90 Fe91 1.918 . S
Fe91 O90 1.918 . S
Fe91 O92 2.002 . S
Fe91 O101 1.976 . S
Fe91 O105 1.996 . S
Fe91 O108 1.997 . S
O92 Fe91 2.002 . S
O92 C109 1.295 . S
O93 Fe88 1.997 . S
O93 C109 1.235 . S
O94 Fe88 2.002 . S
O94 C95 1.295 . S
C95 O94 1.295 . S
C95 O97 1.235 . S
C96 O101 1.287 . S
C96 O102 1.255 . S
O97 Fe89 1.997 . S
O97 C95 1.235 . S
C98 O104 1.287 . S
C98 O105 1.255 . S
O99 Fe88 1.976 . S
O99 C106 1.287 . S
O100 Fe89 1.996 . S
O100 C106 1.255 . S
O101 Fe91 1.976 . S
O101 C96 1.287 . S
O102 Fe88 1.996 . S
O102 C96 1.255 . S
C103 O107 1.295 . S
C103 O108 1.235 . S
O104 Fe89 1.976 . S
O104 C98 1.287 . S
O105 Fe91 1.996 . S
O105 C98 1.255 . S
C106 O99 1.287 . S
C106 O100 1.255 . S
O107 Fe89 2.002 . S
O107 C103 1.295 . S
O108 Fe91 1.997 . S
O108 C103 1.235 . S
C109 O92 1.295 . S
C109 O93 1.235 . S
Fe110 O112 1.918 . S
Fe110 O115 1.997 . S
Fe110 O116 2.002 . S
Fe110 O121 1.976 . S
Fe110 O124 1.996 . S
Fe111 O112 1.918 . S
Fe111 O119 1.997 . S
Fe111 O122 1.996 . S
Fe111 O126 1.976 . S
Fe111 O129 2.002 . S
O112 Fe110 1.918 . S
O112 Fe111 1.918 . S
O112 Fe113 1.918 . S
Fe113 O112 1.918 . S
Fe113 O114 2.002 . S
Fe113 O123 1.976 . S
Fe113 O127 1.996 . S
Fe113 O130 1.997 . S
O114 Fe113 2.002 . S
O114 C131 1.295 . S
O115 Fe110 1.997 . S
O115 C131 1.235 . S
O116 Fe110 2.002 . S
O116 C117 1.295 . S
C117 O116 1.295 . S
C117 O119 1.235 . S
C118 O123 1.287 . S
C118 O124 1.255 . S
O119 Fe111 1.997 . S
O119 C117 1.235 . S
C120 O126 1.287 . S
C120 O127 1.255 . S
O121 Fe110 1.976 . S
O121 C128 1.287 . S
O122 Fe111 1.996 . S
O122 C128 1.255 . S
O123 Fe113 1.976 . S
O123 C118 1.287 . S
O124 Fe110 1.996 . S
O124 C118 1.255 . S
C125 O129 1.295 . S
C125 O130 1.235 . S
O126 Fe111 1.976 . S
O126 C120 1.287 . S
O127 Fe113 1.996 . S
O127 C120 1.255 . S
C128 O121 1.287 . S
C128 O122 1.255 . S
O129 Fe111 2.002 . S
O129 C125 1.295 . S
O130 Fe113 1.997 . S
O130 C125 1.235 . S
C131 O114 1.295 . S
C131 O115 1.235 . S
Fe132 O134 1.918 . S
Fe132 O137 1.997 . S
Fe132 O138 2.002 . S
Fe132 O143 1.976 1_655 S
Fe132 O146 1.996 . S
Fe133 O134 1.918 . S
Fe133 O141 1.997 . S
Fe133 O144 1.996 1_655 S
Fe133 O148 1.976 . S
Fe133 O151 2.002 . S
O134 Fe132 1.918 . S
O134 Fe133 1.918 . S
O134 Fe135 1.918 . S
Fe135 O134 1.918 . S
Fe135 O136 2.002 . S
Fe135 O145 1.976 . S
Fe135 O149 1.996 . S
Fe135 O152 1.997 . S
O136 Fe135 2.002 . S
O136 C153 1.295 . S
O137 Fe132 1.997 . S
O137 C153 1.235 . S
O138 Fe132 2.002 . S
O138 C139 1.295 . S
C139 O138 1.295 . S
C139 O141 1.235 . S
C140 O145 1.287 . S
C140 O146 1.255 . S
O141 Fe133 1.997 . S
O141 C139 1.235 . S
C142 O148 1.287 . S
C142 O149 1.255 . S
O143 Fe132 1.976 1_455 S
O143 C150 1.287 . S
O144 Fe133 1.996 1_455 S
O144 C150 1.255 . S
O145 Fe135 1.976 . S
O145 C140 1.287 . S
O146 Fe132 1.996 . S
O146 C140 1.255 . S
C147 O151 1.295 . S
C147 O152 1.235 . S
O148 Fe133 1.976 . S
O148 C142 1.287 . S
O149 Fe135 1.996 . S
O149 C142 1.255 . S
C150 O143 1.287 . S
C150 O144 1.255 . S
O151 Fe133 2.002 . S
O151 C147 1.295 . S
O152 Fe135 1.997 . S
O152 C147 1.235 . S
C153 O136 1.295 . S
C153 O137 1.235 . S
Fe154 O156 1.918 . S
Fe154 O159 1.997 . S
Fe154 O160 2.002 . S
Fe154 O165 1.976 . S
Fe154 O168 1.996 . S
Fe155 O156 1.918 . S
Fe155 O163 1.997 . S
Fe155 O166 1.996 . S
Fe155 O170 1.976 . S
Fe155 O173 2.002 . S
O156 Fe154 1.918 . S
O156 Fe155 1.918 . S
O156 Fe157 1.918 . S
Fe157 O156 1.918 . S
Fe157 O158 2.002 . S
Fe157 O167 1.976 . S
Fe157 O171 1.996 . S
Fe157 O174 1.997 . S
O158 Fe157 2.002 . S
O158 C175 1.295 . S
O159 Fe154 1.997 . S
O159 C175 1.235 . S
O160 Fe154 2.002 . S
O160 C161 1.295 . S
C161 O160 1.295 . S
C161 O163 1.235 . S
C162 O167 1.287 . S
C162 O168 1.255 . S
O163 Fe155 1.997 . S
O163 C161 1.235 . S
C164 O170 1.287 . S
C164 O171 1.255 . S
O165 Fe154 1.976 . S
O165 C172 1.287 . S
O166 Fe155 1.996 . S
O166 C172 1.255 . S
O167 Fe157 1.976 . S
O167 C162 1.287 . S
O168 Fe154 1.996 . S
O168 C162 1.255 . S
C169 O173 1.295 . S
C169 O174 1.235 . S
O170 Fe155 1.976 . S
O170 C164 1.287 . S
O171 Fe157 1.996 . S
O171 C164 1.255 . S
C172 O165 1.287 . S
C172 O166 1.255 . S
O173 Fe155 2.002 . S
O173 C169 1.295 . S
O174 Fe157 1.997 . S
O174 C169 1.235 . S
C175 O158 1.295 . S
C175 O159 1.235 . S
Fe176 O178 1.918 . S
Fe176 O181 1.997 . S
Fe176 O182 2.002 . S
Fe176 O187 1.976 1_545 S
Fe176 O190 1.996 . S
Fe177 O178 1.918 . S
Fe177 O185 1.997 . S
Fe177 O188 1.996 1_545 S
Fe177 O192 1.976 . S
Fe177 O195 2.002 . S
O178 Fe176 1.918 . S
O178 Fe177 1.918 . S
O178 Fe179 1.918 . S
Fe179 O178 1.918 . S
Fe179 O180 2.002 . S
Fe179 O189 1.976 . S
Fe179 O193 1.996 . S
Fe179 O196 1.997 . S
O180 Fe179 2.002 . S
O180 C197 1.295 . S
O181 Fe176 1.997 . S
O181 C197 1.235 . S
O182 Fe176 2.002 . S
O182 C183 1.295 . S
C183 O182 1.295 . S
C183 O185 1.235 . S
C184 O189 1.287 . S
C184 O190 1.255 . S
O185 Fe177 1.997 . S
O185 C183 1.235 . S
C186 O192 1.287 . S
C186 O193 1.255 . S
O187 Fe176 1.976 1_565 S
O187 C194 1.287 . S
O188 Fe177 1.996 1_565 S
O188 C194 1.255 . S
O189 Fe179 1.976 . S
O189 C184 1.287 . S
O190 Fe176 1.996 . S
O190 C184 1.255 . S
C191 O195 1.295 . S
C191 O196 1.235 . S
O192 Fe177 1.976 . S
O192 C186 1.287 . S
O193 Fe179 1.996 . S
O193 C186 1.255 . S
C194 O187 1.287 . S
C194 O188 1.255 . S
O195 Fe177 2.002 . S
O195 C191 1.295 . S
O196 Fe179 1.997 . S
O196 C191 1.235 . S
C197 O180 1.295 . S
C197 O181 1.235 . S
Fe198 O200 1.918 . S
Fe198 O203 1.997 . S
Fe198 O204 2.002 . S
Fe198 O209 1.976 . S
Fe198 O212 1.996 . S
Fe199 O200 1.918 . S
Fe199 O207 1.997 . S
Fe199 O210 1.996 . S
Fe199 O214 1.976 . S
Fe199 O217 2.002 . S
O200 Fe198 1.918 . S
O200 Fe199 1.918 . S
O200 Fe201 1.918 . S
Fe201 O200 1.918 . S
Fe201 O202 2.002 . S
Fe201 O211 1.976 . S
Fe201 O215 1.996 . S
Fe201 O218 1.997 . S
O202 Fe201 2.002 . S
O202 C219 1.295 . S
O203 Fe198 1.997 . S
O203 C219 1.235 . S
O204 Fe198 2.002 . S
O204 C205 1.295 . S
C205 O204 1.295 . S
C205 O207 1.235 . S
C206 O211 1.287 . S
C206 O212 1.255 . S
O207 Fe199 1.997 . S
O207 C205 1.235 . S
C208 O214 1.287 . S
C208 O215 1.255 . S
O209 Fe198 1.976 . S
O209 C216 1.287 . S
O210 Fe199 1.996 . S
O210 C216 1.255 . S
O211 Fe201 1.976 . S
O211 C206 1.287 . S
O212 Fe198 1.996 . S
O212 C206 1.255 . S
C213 O217 1.295 . S
C213 O218 1.235 . S
O214 Fe199 1.976 . S
O214 C208 1.287 . S
O215 Fe201 1.996 . S
O215 C208 1.255 . S
C216 O209 1.287 . S
C216 O210 1.255 . S
O217 Fe199 2.002 . S
O217 C213 1.295 . S
O218 Fe201 1.997 . S
O218 C213 1.235 . S
C219 O202 1.295 . S
C219 O203 1.235 . S
Fe220 O222 1.918 . S
Fe220 O225 1.997 . S
Fe220 O226 2.002 . S
Fe220 O231 1.976 . S
Fe220 O234 1.996 1_565 S
Fe221 O222 1.918 . S
Fe221 O229 1.997 . S
Fe221 O232 1.996 . S
Fe221 O236 1.976 . S
Fe221 O239 2.002 . S
O222 Fe220 1.918 . S
O222 Fe221 1.918 . S
O222 Fe223 1.918 . S
Fe223 O222 1.918 . S
Fe223 O224 2.002 . S
Fe223 O233 1.976 1_565 S
Fe223 O237 1.996 . S
Fe223 O240 1.997 . S
O224 Fe223 2.002 . S
O224 C241 1.295 . S
O225 Fe220 1.997 . S
O225 C241 1.235 . S
O226 Fe220 2.002 . S
O226 C227 1.295 . S
C227 O226 1.295 . S
C227 O229 1.235 . S
C228 O233 1.287 . S
C228 O234 1.255 . S
O229 Fe221 1.997 . S
O229 C227 1.235 . S
C230 O236 1.287 . S
C230 O237 1.255 . S
O231 Fe220 1.976 . S
O231 C238 1.287 . S
O232 Fe221 1.996 . S
O232 C238 1.255 . S
O233 Fe223 1.976 1_545 S
O233 C228 1.287 . S
O234 Fe220 1.996 1_545 S
O234 C228 1.255 . S
C235 O239 1.295 . S
C235 O240 1.235 . S
O236 Fe221 1.976 . S
O236 C230 1.287 . S
O237 Fe223 1.996 . S
O237 C230 1.255 . S
C238 O231 1.287 . S
C238 O232 1.255 . S
O239 Fe221 2.002 . S
O239 C235 1.295 . S
O240 Fe223 1.997 . S
O240 C235 1.235 . S
C241 O224 1.295 . S
C241 O225 1.235 . S
Fe242 O244 1.918 . S
Fe242 O247 1.997 . S
Fe242 O248 2.002 . S
Fe242 O253 1.976 . S
Fe242 O256 1.996 . S
Fe243 O244 1.918 . S
Fe243 O251 1.997 . S
Fe243 O254 1.996 . S
Fe243 O258 1.976 . S
Fe243 O261 2.002 . S
O244 Fe242 1.918 . S
O244 Fe243 1.918 . S
O244 Fe245 1.918 . S
Fe245 O244 1.918 . S
Fe245 O246 2.002 . S
Fe245 O255 1.976 . S
Fe245 O259 1.996 . S
Fe245 O262 1.997 . S
O246 Fe245 2.002 . S
O246 C263 1.295 . S
O247 Fe242 1.997 . S
O247 C263 1.235 . S
O248 Fe242 2.002 . S
O248 C249 1.295 . S
C249 O248 1.295 . S
C249 O251 1.235 . S
C250 O255 1.287 . S
C250 O256 1.255 . S
O251 Fe243 1.997 . S
O251 C249 1.235 . S
C252 O258 1.287 . S
C252 O259 1.255 . S
O253 Fe242 1.976 . S
O253 C260 1.287 . S
O254 Fe243 1.996 . S
O254 C260 1.255 . S
O255 Fe245 1.976 . S
O255 C250 1.287 . S
O256 Fe242 1.996 . S
O256 C250 1.255 . S
C257 O261 1.295 . S
C257 O262 1.235 . S
O258 Fe243 1.976 . S
O258 C252 1.287 . S
O259 Fe245 1.996 . S
O259 C252 1.255 . S
C260 O253 1.287 . S
C260 O254 1.255 . S
O261 Fe243 2.002 . S
O261 C257 1.295 . S
O262 Fe245 1.997 . S
O262 C257 1.235 . S
C263 O246 1.295 . S
C263 O247 1.235 . S
Fe264 O266 1.918 . S
Fe264 O269 1.997 . S
Fe264 O270 2.002 . S
Fe264 O275 1.976 . S
Fe264 O278 1.996 . S
Fe265 O266 1.918 . S
Fe265 O273 1.997 . S
Fe265 O276 1.996 . S
Fe265 O280 1.976 . S
Fe265 O283 2.002 . S
O266 Fe264 1.918 . S
O266 Fe265 1.918 . S
O266 Fe267 1.918 . S
Fe267 O266 1.918 . S
Fe267 O268 2.002 . S
Fe267 O277 1.976 . S
Fe267 O281 1.996 . S
Fe267 O284 1.997 . S
O268 Fe267 2.002 . S
O268 C285 1.295 . S
O269 Fe264 1.997 . S
O269 C285 1.235 . S
O270 Fe264 2.002 . S
O270 C271 1.295 . S
C271 O270 1.295 . S
C271 O273 1.235 . S
C272 O277 1.287 . S
C272 O278 1.255 . S
O273 Fe265 1.997 . S
O273 C271 1.235 . S
C274 O280 1.287 . S
C274 O281 1.255 . S
O275 Fe264 1.976 . S
O275 C282 1.287 . S
O276 Fe265 1.996 . S
O276 C282 1.255 . S
O277 Fe267 1.976 . S
O277 C272 1.287 . S
O278 Fe264 1.996 . S
O278 C272 1.255 . S
C279 O283 1.295 . S
C279 O284 1.235 . S
O280 Fe265 1.976 . S
O280 C274 1.287 . S
O281 Fe267 1.996 . S
O281 C274 1.255 . S
C282 O275 1.287 . S
C282 O276 1.255 . S
O283 Fe265 2.002 . S
O283 C279 1.295 . S
O284 Fe267 1.997 . S
O284 C279 1.235 . S
C285 O268 1.295 . S
C285 O269 1.235 . S
Fe286 O288 1.918 . S
Fe286 O291 1.997 . S
Fe286 O292 2.002 . S
Fe286 O297 1.976 . S
Fe286 O300 1.996 . S
Fe287 O288 1.918 . S
Fe287 O295 1.997 . S
Fe287 O298 1.996 . S
Fe287 O302 1.976 . S
Fe287 O305 2.002 . S
O288 Fe286 1.918 . S
O288 Fe287 1.918 . S
O288 Fe289 1.918 . S
Fe289 O288 1.918 . S
Fe289 O290 2.002 . S
Fe289 O299 1.976 . S
Fe289 O303 1.996 . S
Fe289 O306 1.997 . S
O290 Fe289 2.002 . S
O290 C307 1.295 . S
O291 Fe286 1.997 . S
O291 C307 1.235 . S
O292 Fe286 2.002 . S
O292 C293 1.295 . S
C293 O292 1.295 . S
C293 O295 1.235 . S
C294 O299 1.287 . S
C294 O300 1.255 . S
O295 Fe287 1.997 . S
O295 C293 1.235 . S
C296 O302 1.287 . S
C296 O303 1.255 . S
O297 Fe286 1.976 . S
O297 C304 1.287 . S
O298 Fe287 1.996 . S
O298 C304 1.255 . S
O299 Fe289 1.976 . S
O299 C294 1.287 . S
O300 Fe286 1.996 . S
O300 C294 1.255 . S
C301 O305 1.295 . S
C301 O306 1.235 . S
O302 Fe287 1.976 . S
O302 C296 1.287 . S
O303 Fe289 1.996 . S
O303 C296 1.255 . S
C304 O297 1.287 . S
C304 O298 1.255 . S
O305 Fe287 2.002 . S
O305 C301 1.295 . S
O306 Fe289 1.997 . S
O306 C301 1.235 . S
C307 O290 1.295 . S
C307 O291 1.235 . S
Fe308 O310 1.918 . S
Fe308 O313 1.997 . S
Fe308 O314 2.002 . S
Fe308 O319 1.976 . S
Fe308 O322 1.996 . S
Fe309 O310 1.918 . S
Fe309 O317 1.997 . S
Fe309 O320 1.996 . S
Fe309 O324 1.976 . S
Fe309 O327 2.002 . S
O310 Fe308 1.918 . S
O310 Fe309 1.918 . S
O310 Fe311 1.918 . S
Fe311 O310 1.918 . S
Fe311 O312 2.002 . S
Fe311 O321 1.976 . S
Fe311 O325 1.996 . S
Fe311 O328 1.997 . S
O312 Fe311 2.002 . S
O312 C329 1.295 . S
O313 Fe308 1.997 . S
O313 C329 1.235 . S
O314 Fe308 2.002 . S
O314 C315 1.295 . S
C315 O314 1.295 . S
C315 O317 1.235 . S
C316 O321 1.287 . S
C316 O322 1.255 . S
O317 Fe309 1.997 . S
O317 C315 1.235 . S
C318 O324 1.287 . S
C318 O325 1.255 . S
O319 Fe308 1.976 . S
O319 C326 1.287 . S
O320 Fe309 1.996 . S
O320 C326 1.255 . S
O321 Fe311 1.976 . S
O321 C316 1.287 . S
O322 Fe308 1.996 . S
O322 C316 1.255 . S
C323 O327 1.295 . S
C323 O328 1.235 . S
O324 Fe309 1.976 . S
O324 C318 1.287 . S
O325 Fe311 1.996 . S
O325 C318 1.255 . S
C326 O319 1.287 . S
C326 O320 1.255 . S
O327 Fe309 2.002 . S
O327 C323 1.295 . S
O328 Fe311 1.997 . S
O328 C323 1.235 . S
C329 O312 1.295 . S
C329 O313 1.235 . S
Fe330 O332 1.918 . S
Fe330 O335 1.997 . S
Fe330 O336 2.002 . S
Fe330 O341 1.976 . S
Fe330 O344 1.996 . S
Fe331 O332 1.918 . S
Fe331 O339 1.997 . S
Fe331 O342 1.996 . S
Fe331 O346 1.976 . S
Fe331 O349 2.002 . S
O332 Fe330 1.918 . S
O332 Fe331 1.918 . S
O332 Fe333 1.918 . S
Fe333 O332 1.918 . S
Fe333 O334 2.002 . S
Fe333 O343 1.976 . S
Fe333 O347 1.996 . S
Fe333 O350 1.997 . S
O334 Fe333 2.002 . S
O334 C351 1.295 . S
O335 Fe330 1.997 . S
O335 C351 1.235 . S
O336 Fe330 2.002 . S
O336 C337 1.295 . S
C337 O336 1.295 . S
C337 O339 1.235 . S
C338 O343 1.287 . S
C338 O344 1.255 . S
O339 Fe331 1.997 . S
O339 C337 1.235 . S
C340 O346 1.287 . S
C340 O347 1.255 . S
O341 Fe330 1.976 . S
O341 C348 1.287 . S
O342 Fe331 1.996 . S
O342 C348 1.255 . S
O343 Fe333 1.976 . S
O343 C338 1.287 . S
O344 Fe330 1.996 . S
O344 C338 1.255 . S
C345 O349 1.295 . S
C345 O350 1.235 . S
O346 Fe331 1.976 . S
O346 C340 1.287 . S
O347 Fe333 1.996 . S
O347 C340 1.255 . S
C348 O341 1.287 . S
C348 O342 1.255 . S
O349 Fe331 2.002 . S
O349 C345 1.295 . S
O350 Fe333 1.997 . S
O350 C345 1.235 . S
C351 O334 1.295 . S
C351 O335 1.235 . S
Fe352 O354 1.918 . S
Fe352 O357 1.997 . S
Fe352 O358 2.002 . S
Fe352 O363 1.976 . S
Fe352 O366 1.996 . S
Fe353 O354 1.918 . S
Fe353 O361 1.997 . S
Fe353 O364 1.996 . S
Fe353 O368 1.976 1_554 S
Fe353 O371 2.002 . S
O354 Fe352 1.918 . S
O354 Fe353 1.918 . S
O354 Fe355 1.918 . S
Fe355 O354 1.918 . S
Fe355 O356 2.002 . S
Fe355 O365 1.976 . S
Fe355 O369 1.996 1_554 S
Fe355 O372 1.997 . S
O356 Fe355 2.002 . S
O356 C373 1.295 . S
O357 Fe352 1.997 . S
O357 C373 1.235 . S
O358 Fe352 2.002 . S
O358 C359 1.295 . S
C359 O358 1.295 . S
C359 O361 1.235 . S
C360 O365 1.287 . S
C360 O366 1.255 . S
O361 Fe353 1.997 . S
O361 C359 1.235 . S
C362 O368 1.287 . S
C362 O369 1.255 . S
O363 Fe352 1.976 . S
O363 C370 1.287 . S
O364 Fe353 1.996 . S
O364 C370 1.255 . S
O365 Fe355 1.976 . S
O365 C360 1.287 . S
O366 Fe352 1.996 . S
O366 C360 1.255 . S
C367 O371 1.295 . S
C367 O372 1.235 . S
O368 Fe353 1.976 1_556 S
O368 C362 1.287 . S
O369 Fe355 1.996 1_556 S
O369 C362 1.255 . S
C370 O363 1.287 . S
C370 O364 1.255 . S
O371 Fe353 2.002 . S
O371 C367 1.295 . S
O372 Fe355 1.997 . S
O372 C367 1.235 . S
C373 O356 1.295 . S
C373 O357 1.235 . S
Fe374 O376 1.918 . S
Fe374 O379 1.997 . S
Fe374 O380 2.002 . S
Fe374 O385 1.976 . S
Fe374 O388 1.996 1_556 S
Fe375 O376 1.918 . S
Fe375 O383 1.997 . S
Fe375 O386 1.996 . S
Fe375 O390 1.976 . S
Fe375 O393 2.002 . S
O376 Fe374 1.918 . S
O376 Fe375 1.918 . S
O376 Fe377 1.918 . S
Fe377 O376 1.918 . S
Fe377 O378 2.002 . S
Fe377 O387 1.976 1_556 S
Fe377 O391 1.996 . S
Fe377 O394 1.997 . S
O378 Fe377 2.002 . S
O378 C395 1.295 . S
O379 Fe374 1.997 . S
O379 C395 1.235 . S
O380 Fe374 2.002 . S
O380 C381 1.295 . S
C381 O380 1.295 . S
C381 O383 1.235 . S
C382 O387 1.287 . S
C382 O388 1.255 . S
O383 Fe375 1.997 . S
O383 C381 1.235 . S
C384 O390 1.287 . S
C384 O391 1.255 . S
O385 Fe374 1.976 . S
O385 C392 1.287 . S
O386 Fe375 1.996 . S
O386 C392 1.255 . S
O387 Fe377 1.976 1_554 S
O387 C382 1.287 . S
O388 Fe374 1.996 1_554 S
O388 C382 1.255 . S
C389 O393 1.295 . S
C389 O394 1.235 . S
O390 Fe375 1.976 . S
O390 C384 1.287 . S
O391 Fe377 1.996 . S
O391 C384 1.255 . S
C392 O385 1.287 . S
C392 O386 1.255 . S
O393 Fe375 2.002 . S
O393 C389 1.295 . S
O394 Fe377 1.997 . S
O394 C389 1.235 . S
C395 O378 1.295 . S
C395 O379 1.235 . S
Fe396 O398 1.918 . S
Fe396 O401 1.997 . S
Fe396 O402 2.002 . S
Fe396 O407 1.976 . S
Fe396 O410 1.996 . S
Fe397 O398 1.918 . S
Fe397 O405 1.997 . S
Fe397 O408 1.996 . S
Fe397 O412 1.976 . S
Fe397 O415 2.002 . S
O398 Fe396 1.918 . S
O398 Fe397 1.918 . S
O398 Fe399 1.918 . S
Fe399 O398 1.918 . S
Fe399 O400 2.002 . S
Fe399 O409 1.976 . S
Fe399 O413 1.996 . S
Fe399 O416 1.997 . S
O400 Fe399 2.002 . S
O400 C417 1.295 . S
O401 Fe396 1.997 . S
O401 C417 1.235 . S
O402 Fe396 2.002 . S
O402 C403 1.295 . S
C403 O402 1.295 . S
C403 O405 1.235 . S
C404 O409 1.287 . S
C404 O410 1.255 . S
O405 Fe397 1.997 . S
O405 C403 1.235 . S
C406 O412 1.287 . S
C406 O413 1.255 . S
O407 Fe396 1.976 . S
O407 C414 1.287 . S
O408 Fe397 1.996 . S
O408 C414 1.255 . S
O409 Fe399 1.976 . S
O409 C404 1.287 . S
O410 Fe396 1.996 . S
O410 C404 1.255 . S
C411 O415 1.295 . S
C411 O416 1.235 . S
O412 Fe397 1.976 . S
O412 C406 1.287 . S
O413 Fe399 1.996 . S
O413 C406 1.255 . S
C414 O407 1.287 . S
C414 O408 1.255 . S
O415 Fe397 2.002 . S
O415 C411 1.295 . S
O416 Fe399 1.997 . S
O416 C411 1.235 . S
C417 O400 1.295 . S
C417 O401 1.235 . S
Fe418 O420 1.918 . S
Fe418 O423 1.997 . S
Fe418 O424 2.002 . S
Fe418 O429 1.976 . S
Fe418 O432 1.996 . S
Fe419 O420 1.918 . S
Fe419 O427 1.997 . S
Fe419 O430 1.996 . S
Fe419 O434 1.976 . S
Fe419 O437 2.002 . S
O420 Fe418 1.918 . S
O420 Fe419 1.918 . S
O420 Fe421 1.918 . S
Fe421 O420 1.918 . S
Fe421 O422 2.002 . S
Fe421 O431 1.976 . S
Fe421 O435 1.996 . S
Fe421 O438 1.997 . S
O422 Fe421 2.002 . S
O422 C439 1.295 . S
O423 Fe418 1.997 . S
O423 C439 1.235 . S
O424 Fe418 2.002 . S
O424 C425 1.295 . S
C425 O424 1.295 . S
C425 O427 1.235 . S
C426 O431 1.287 . S
C426 O432 1.255 . S
O427 Fe419 1.997 . S
O427 C425 1.235 . S
C428 O434 1.287 . S
C428 O435 1.255 . S
O429 Fe418 1.976 . S
O429 C436 1.287 . S
O430 Fe419 1.996 . S
O430 C436 1.255 . S
O431 Fe421 1.976 . S
O431 C426 1.287 . S
O432 Fe418 1.996 . S
O432 C426 1.255 . S
C433 O437 1.295 . S
C433 O438 1.235 . S
O434 Fe419 1.976 . S
O434 C428 1.287 . S
O435 Fe421 1.996 . S
O435 C428 1.255 . S
C436 O429 1.287 . S
C436 O430 1.255 . S
O437 Fe419 2.002 . S
O437 C433 1.295 . S
O438 Fe421 1.997 . S
O438 C433 1.235 . S
C439 O422 1.295 . S
C439 O423 1.235 . S
Fe440 O442 1.918 . S
Fe440 O445 1.997 . S
Fe440 O446 2.002 . S
Fe440 O451 1.976 . S
Fe440 O454 1.996 . S
Fe441 O442 1.918 . S
Fe441 O449 1.997 . S
Fe441 O452 1.996 . S
Fe441 O456 1.976 . S
Fe441 O459 2.002 . S
O442 Fe440 1.918 . S
O442 Fe441 1.918 . S
O442 Fe443 1.918 . S
Fe443 O442 1.918 . S
Fe443 O444 2.002 . S
Fe443 O453 1.976 . S
Fe443 O457 1.996 . S
Fe443 O460 1.997 . S
O444 Fe443 2.002 . S
O444 C461 1.295 . S
O445 Fe440 1.997 . S
O445 C461 1.235 . S
O446 Fe440 2.002 . S
O446 C447 1.295 . S
C447 O446 1.295 . S
C447 O449 1.235 . S
C448 O453 1.287 . S
C448 O454 1.255 . S
O449 Fe441 1.997 . S
O449 C447 1.235 . S
C450 O456 1.287 . S
C450 O457 1.255 . S
O451 Fe440 1.976 . S
O451 C458 1.287 . S
O452 Fe441 1.996 . S
O452 C458 1.255 . S
O453 Fe443 1.976 . S
O453 C448 1.287 . S
O454 Fe440 1.996 . S
O454 C448 1.255 . S
C455 O459 1.295 . S
C455 O460 1.235 . S
O456 Fe441 1.976 . S
O456 C450 1.287 . S
O457 Fe443 1.996 . S
O457 C450 1.255 . S
C458 O451 1.287 . S
C458 O452 1.255 . S
O459 Fe441 2.002 . S
O459 C455 1.295 . S
O460 Fe443 1.997 . S
O460 C455 1.235 . S
C461 O444 1.295 . S
C461 O445 1.235 . S
Fe462 O464 1.918 . S
Fe462 O467 1.997 . S
Fe462 O468 2.002 . S
Fe462 O473 1.976 . S
Fe462 O476 1.996 . S
Fe463 O464 1.918 . S
Fe463 O471 1.997 . S
Fe463 O474 1.996 . S
Fe463 O478 1.976 . S
Fe463 O481 2.002 . S
O464 Fe462 1.918 . S
O464 Fe463 1.918 . S
O464 Fe465 1.918 . S
Fe465 O464 1.918 . S
Fe465 O466 2.002 . S
Fe465 O475 1.976 . S
Fe465 O479 1.996 . S
Fe465 O482 1.997 . S
O466 Fe465 2.002 . S
O466 C483 1.295 . S
O467 Fe462 1.997 . S
O467 C483 1.235 . S
O468 Fe462 2.002 . S
O468 C469 1.295 . S
C469 O468 1.295 . S
C469 O471 1.235 . S
C470 O475 1.287 . S
C470 O476 1.255 . S
O471 Fe463 1.997 . S
O471 C469 1.235 . S
C472 O478 1.287 . S
C472 O479 1.255 . S
O473 Fe462 1.976 . S
O473 C480 1.287 . S
O474 Fe463 1.996 . S
O474 C480 1.255 . S
O475 Fe465 1.976 . S
O475 C470 1.287 . S
O476 Fe462 1.996 . S
O476 C470 1.255 . S
C477 O481 1.295 . S
C477 O482 1.235 . S
O478 Fe463 1.976 . S
O478 C472 1.287 . S
O479 Fe465 1.996 . S
O479 C472 1.255 . S
C480 O473 1.287 . S
C480 O474 1.255 . S
O481 Fe463 2.002 . S
O481 C477 1.295 . S
O482 Fe465 1.997 . S
O482 C477 1.235 . S
C483 O466 1.295 . S
C483 O467 1.235 . S
Fe484 O486 1.918 . S
Fe484 O489 1.997 . S
Fe484 O490 2.002 . S
Fe484 O495 1.976 . S
Fe484 O498 1.996 . S
Fe485 O486 1.918 . S
Fe485 O493 1.997 . S
Fe485 O496 1.996 . S
Fe485 O500 1.976 . S
Fe485 O503 2.002 . S
O486 Fe484 1.918 . S
O486 Fe485 1.918 . S
O486 Fe487 1.918 . S
Fe487 O486 1.918 . S
Fe487 O488 2.002 . S
Fe487 O497 1.976 . S
Fe487 O501 1.996 . S
Fe487 O504 1.997 . S
O488 Fe487 2.002 . S
O488 C505 1.295 . S
O489 Fe484 1.997 . S
O489 C505 1.235 . S
O490 Fe484 2.002 . S
O490 C491 1.295 . S
C491 O490 1.295 . S
C491 O493 1.235 . S
C492 O497 1.287 . S
C492 O498 1.255 . S
O493 Fe485 1.997 . S
O493 C491 1.235 . S
C494 O500 1.287 . S
C494 O501 1.255 . S
O495 Fe484 1.976 . S
O495 C502 1.287 . S
O496 Fe485 1.996 . S
O496 C502 1.255 . S
O497 Fe487 1.976 . S
O497 C492 1.287 . S
O498 Fe484 1.996 . S
O498 C492 1.255 . S
C499 O503 1.295 . S
C499 O504 1.235 . S
O500 Fe485 1.976 . S
O500 C494 1.287 . S
O501 Fe487 1.996 . S
O501 C494 1.255 . S
C502 O495 1.287 . S
C502 O496 1.255 . S
O503 Fe485 2.002 . S
O503 C499 1.295 . S
O504 Fe487 1.997 . S
O504 C499 1.235 . S
C505 O488 1.295 . S
C505 O489 1.235 . S
Fe506 O508 1.918 . S
Fe506 O511 1.997 . S
Fe506 O512 2.002 . S
Fe506 O517 1.976 . S
Fe506 O520 1.996 . S
Fe507 O508 1.918 . S
Fe507 O515 1.997 . S
Fe507 O518 1.996 . S
Fe507 O522 1.976 . S
Fe507 O525 2.002 . S
O508 Fe506 1.918 . S
O508 Fe507 1.918 . S
O508 Fe509 1.918 . S
Fe509 O508 1.918 . S
Fe509 O510 2.002 . S
Fe509 O519 1.976 . S
Fe509 O523 1.996 . S
Fe509 O526 1.997 . S
O510 Fe509 2.002 . S
O510 C527 1.295 . S
O511 Fe506 1.997 . S
O511 C527 1.235 . S
O512 Fe506 2.002 . S
O512 C513 1.295 . S
C513 O512 1.295 . S
C513 O515 1.235 . S
C514 O519 1.287 . S
C514 O520 1.255 . S
O515 Fe507 1.997 . S
O515 C513 1.235 . S
C516 O522 1.287 . S
C516 O523 1.255 . S
O517 Fe506 1.976 . S
O517 C524 1.287 . S
O518 Fe507 1.996 . S
O518 C524 1.255 . S
O519 Fe509 1.976 . S
O519 C514 1.287 . S
O520 Fe506 1.996 . S
O520 C514 1.255 . S
C521 O525 1.295 . S
C521 O526 1.235 . S
O522 Fe507 1.976 . S
O522 C516 1.287 . S
O523 Fe509 1.996 . S
O523 C516 1.255 . S
C524 O517 1.287 . S
C524 O518 1.255 . S
O525 Fe507 2.002 . S
O525 C521 1.295 . S
O526 Fe509 1.997 . S
O526 C521 1.235 . S
C527 O510 1.295 . S
C527 O511 1.235 . S
H528 C534 0.930 . S
H529 C538 0.930 . S
H530 C543 0.929 . S
H531 C541 0.929 . S
H532 C536 0.929 . S
H533 C542 0.929 . S
C534 H528 0.930 . S
C534 C535 1.367 . S
C534 C542 1.378 . S
C535 C534 1.367 . S
C535 C543 1.433 . S
C536 H532 0.929 . S
C536 C538 1.378 . S
C536 C540 1.350 . S
C537 C540 1.463 . S
C537 C542 1.350 . S
C537 N545 1.427 . S
C538 H529 0.930 . S
C538 C536 1.378 . S
C538 C539 1.367 . S
C539 C538 1.367 . S
C539 C541 1.433 . S
C540 C536 1.350 . S
C540 C537 1.463 . S
C540 N544 1.427 . S
C541 H531 0.929 . S
C541 C539 1.433 . S
C541 N544 1.384 . S
C542 H533 0.929 . S
C542 C534 1.378 . S
C542 C537 1.350 . S
C543 H530 0.929 . S
C543 C535 1.433 . S
C543 N545 1.384 . S
N544 C540 1.427 . S
N544 C541 1.384 . S
N545 C537 1.427 . S
N545 C543 1.384 . S
H546 C552 0.930 . S
H547 C556 0.930 . S
H548 C561 0.929 . S
H549 C559 0.929 . S
H550 C554 0.929 . S
H551 C560 0.929 . S
C552 H546 0.930 . S
C552 C553 1.367 . S
C552 C560 1.378 . S
C553 C552 1.367 . S
C553 C561 1.433 . S
C554 H550 0.929 . S
C554 C556 1.378 . S
C554 C558 1.350 . S
C555 C558 1.463 . S
C555 C560 1.350 . S
C555 N563 1.427 . S
C556 H547 0.930 . S
C556 C554 1.378 . S
C556 C557 1.367 . S
C557 C556 1.367 . S
C557 C559 1.433 . S
C558 C554 1.350 . S
C558 C555 1.463 . S
C558 N562 1.427 . S
C559 H549 0.929 . S
C559 C557 1.433 . S
C559 N562 1.384 . S
C560 H551 0.929 . S
C560 C552 1.378 . S
C560 C555 1.350 . S
C561 H548 0.929 . S
C561 C553 1.433 . S
C561 N563 1.384 . S
N562 C558 1.427 . S
N562 C559 1.384 . S
N563 C555 1.427 . S
N563 C561 1.384 . S
H564 C570 0.930 . S
H565 C574 0.930 . S
H566 C579 0.929 . S
H567 C577 0.929 . S
H568 C572 0.929 . S
H569 C578 0.929 . S
C570 H564 0.930 . S
C570 C571 1.367 . S
C570 C578 1.378 . S
C571 C570 1.367 . S
C571 C579 1.433 . S
C572 H568 0.929 . S
C572 C574 1.378 . S
C572 C576 1.350 . S
C573 C576 1.463 . S
C573 C578 1.350 . S
C573 N581 1.427 . S
C574 H565 0.930 . S
C574 C572 1.378 . S
C574 C575 1.367 . S
C575 C574 1.367 . S
C575 C577 1.433 . S
C576 C572 1.350 . S
C576 C573 1.463 . S
C576 N580 1.427 . S
C577 H567 0.929 . S
C577 C575 1.433 . S
C577 N580 1.384 . S
C578 H569 0.929 . S
C578 C570 1.378 . S
C578 C573 1.350 . S
C579 H566 0.929 . S
C579 C571 1.433 . S
C579 N581 1.384 . S
N580 C576 1.427 . S
N580 C577 1.384 . S
N581 C573 1.427 . S
N581 C579 1.384 . S
H582 C588 0.930 . S
H583 C592 0.930 . S
H584 C597 0.929 . S
H585 C595 0.929 . S
H586 C590 0.929 . S
H587 C596 0.929 . S
C588 H582 0.930 . S
C588 C589 1.367 . S
C588 C596 1.378 . S
C589 C588 1.367 . S
C589 C597 1.433 . S
C590 H586 0.929 . S
C590 C592 1.378 . S
C590 C594 1.350 . S
C591 C594 1.463 . S
C591 C596 1.350 . S
C591 N599 1.427 . S
C592 H583 0.930 . S
C592 C590 1.378 . S
C592 C593 1.367 . S
C593 C592 1.367 . S
C593 C595 1.433 . S
C594 C590 1.350 . S
C594 C591 1.463 . S
C594 N598 1.427 . S
C595 H585 0.929 . S
C595 C593 1.433 . S
C595 N598 1.384 . S
C596 H587 0.929 . S
C596 C588 1.378 . S
C596 C591 1.350 . S
C597 H584 0.929 . S
C597 C589 1.433 . S
C597 N599 1.384 . S
N598 C594 1.427 . S
N598 C595 1.384 . S
N599 C591 1.427 . S
N599 C597 1.384 . S
H600 C606 0.930 . S
H601 C610 0.930 . S
H602 C615 0.929 . S
H603 C613 0.929 . S
H604 C608 0.929 . S
H605 C614 0.929 . S
C606 H600 0.930 . S
C606 C607 1.367 . S
C606 C614 1.378 . S
C607 C606 1.367 . S
C607 C615 1.433 . S
C608 H604 0.929 . S
C608 C610 1.378 . S
C608 C612 1.350 . S
C609 C612 1.463 . S
C609 C614 1.350 . S
C609 N617 1.427 . S
C610 H601 0.930 . S
C610 C608 1.378 . S
C610 C611 1.367 . S
C611 C610 1.367 . S
C611 C613 1.433 . S
C612 C608 1.350 . S
C612 C609 1.463 . S
C612 N616 1.427 . S
C613 H603 0.929 . S
C613 C611 1.433 . S
C613 N616 1.384 . S
C614 H605 0.929 . S
C614 C606 1.378 . S
C614 C609 1.350 . S
C615 H602 0.929 . S
C615 C607 1.433 . S
C615 N617 1.384 . S
N616 C612 1.427 . S
N616 C613 1.384 . S
N617 C609 1.427 . S
N617 C615 1.384 . S
H618 C624 0.930 . S
H619 C628 0.930 . S
H620 C633 0.929 . S
H621 C631 0.929 . S
H622 C626 0.929 . S
H623 C632 0.929 . S
C624 H618 0.930 . S
C624 C625 1.367 . S
C624 C632 1.378 . S
C625 C624 1.367 . S
C625 C633 1.433 . S
C626 H622 0.929 . S
C626 C628 1.378 . S
C626 C630 1.350 . S
C627 C630 1.463 . S
C627 C632 1.350 . S
C627 N635 1.427 . S
C628 H619 0.930 . S
C628 C626 1.378 . S
C628 C629 1.367 . S
C629 C628 1.367 . S
C629 C631 1.433 . S
C630 C626 1.350 . S
C630 C627 1.463 . S
C630 N634 1.427 . S
C631 H621 0.929 . S
C631 C629 1.433 . S
C631 N634 1.384 . S
C632 H623 0.929 . S
C632 C624 1.378 . S
C632 C627 1.350 . S
C633 H620 0.929 . S
C633 C625 1.433 . S
C633 N635 1.384 . S
N634 C630 1.427 . S
N634 C631 1.384 . S
N635 C627 1.427 . S
N635 C633 1.384 . S
H636 C642 0.930 . S
H637 C646 0.930 . S
H638 C651 0.929 . S
H639 C649 0.929 . S
H640 C644 0.929 . S
H641 C650 0.929 . S
C642 H636 0.930 . S
C642 C643 1.367 . S
C642 C650 1.378 . S
C643 C642 1.367 . S
C643 C651 1.433 . S
C644 H640 0.929 . S
C644 C646 1.378 . S
C644 C648 1.350 . S
C645 C648 1.463 . S
C645 C650 1.350 . S
C645 N653 1.427 . S
C646 H637 0.930 . S
C646 C644 1.378 . S
C646 C647 1.367 . S
C647 C646 1.367 . S
C647 C649 1.433 . S
C648 C644 1.350 . S
C648 C645 1.463 . S
C648 N652 1.427 . S
C649 H639 0.929 . S
C649 C647 1.433 . S
C649 N652 1.384 . S
C650 H641 0.929 . S
C650 C642 1.378 . S
C650 C645 1.350 . S
C651 H638 0.929 . S
C651 C643 1.433 . S
C651 N653 1.384 . S
N652 C648 1.427 . S
N652 C649 1.384 . S
N653 C645 1.427 . S
N653 C651 1.384 . S
H654 C660 0.930 . S
H655 C664 0.930 . S
H656 C669 0.929 . S
H657 C667 0.929 . S
H658 C662 0.929 . S
H659 C668 0.929 . S
C660 H654 0.930 . S
C660 C661 1.367 . S
C660 C668 1.378 . S
C661 C660 1.367 . S
C661 C669 1.433 . S
C662 H658 0.929 . S
C662 C664 1.378 . S
C662 C666 1.350 . S
C663 C666 1.463 . S
C663 C668 1.350 . S
C663 N671 1.427 . S
C664 H655 0.930 . S
C664 C662 1.378 . S
C664 C665 1.367 . S
C665 C664 1.367 . S
C665 C667 1.433 . S
C666 C662 1.350 . S
C666 C663 1.463 . S
C666 N670 1.427 . S
C667 H657 0.929 . S
C667 C665 1.433 . S
C667 N670 1.384 . S
C668 H659 0.929 . S
C668 C660 1.378 . S
C668 C663 1.350 . S
C669 H656 0.929 . S
C669 C661 1.433 . S
C669 N671 1.384 . S
N670 C666 1.427 . S
N670 C667 1.384 . S
N671 C663 1.427 . S
N671 C669 1.384 . S
H672 C678 0.930 . S
H673 C682 0.930 . S
H674 C687 0.929 . S
H675 C685 0.929 . S
H676 C680 0.929 . S
H677 C686 0.929 . S
C678 H672 0.930 . S
C678 C679 1.367 . S
C678 C686 1.378 . S
C679 C678 1.367 . S
C679 C687 1.433 . S
C680 H676 0.929 . S
C680 C682 1.378 . S
C680 C684 1.350 . S
C681 C684 1.463 . S
C681 C686 1.350 . S
C681 N689 1.427 . S
C682 H673 0.930 . S
C682 C680 1.378 . S
C682 C683 1.367 . S
C683 C682 1.367 . S
C683 C685 1.433 . S
C684 C680 1.350 . S
C684 C681 1.463 . S
C684 N688 1.427 . S
C685 H675 0.929 . S
C685 C683 1.433 . S
C685 N688 1.384 . S
C686 H677 0.929 . S
C686 C678 1.378 . S
C686 C681 1.350 . S
C687 H674 0.929 . S
C687 C679 1.433 . S
C687 N689 1.384 . S
N688 C684 1.427 . S
N688 C685 1.384 . S
N689 C681 1.427 . S
N689 C687 1.384 . S
H690 C696 0.930 . S
H691 C700 0.930 . S
H692 C705 0.929 . S
H693 C703 0.929 . S
H694 C698 0.929 . S
H695 C704 0.929 . S
C696 H690 0.930 . S
C696 C697 1.367 . S
C696 C704 1.378 . S
C697 C696 1.367 . S
C697 C705 1.433 . S
C698 H694 0.929 . S
C698 C700 1.378 . S
C698 C702 1.350 . S
C699 C702 1.463 . S
C699 C704 1.350 . S
C699 N707 1.427 . S
C700 H691 0.930 . S
C700 C698 1.378 . S
C700 C701 1.367 . S
C701 C700 1.367 . S
C701 C703 1.433 . S
C702 C698 1.350 . S
C702 C699 1.463 . S
C702 N706 1.427 . S
C703 H693 0.929 . S
C703 C701 1.433 . S
C703 N706 1.384 . S
C704 H695 0.929 . S
C704 C696 1.378 . S
C704 C699 1.350 . S
C705 H692 0.929 . S
C705 C697 1.433 . S
C705 N707 1.384 . S
N706 C702 1.427 . S
N706 C703 1.384 . S
N707 C699 1.427 . S
N707 C705 1.384 . S
H708 C714 0.930 . S
H709 C718 0.930 . S
H710 C723 0.929 . S
H711 C721 0.929 . S
H712 C716 0.929 . S
H713 C722 0.929 . S
C714 H708 0.930 . S
C714 C715 1.367 . S
C714 C722 1.378 . S
C715 C714 1.367 . S
C715 C723 1.433 . S
C716 H712 0.929 . S
C716 C718 1.378 . S
C716 C720 1.350 . S
C717 C720 1.463 . S
C717 C722 1.350 . S
C717 N725 1.427 . S
C718 H709 0.930 . S
C718 C716 1.378 . S
C718 C719 1.367 . S
C719 C718 1.367 . S
C719 C721 1.433 . S
C720 C716 1.350 . S
C720 C717 1.463 . S
C720 N724 1.427 . S
C721 H711 0.929 . S
C721 C719 1.433 . S
C721 N724 1.384 . S
C722 H713 0.929 . S
C722 C714 1.378 . S
C722 C717 1.350 . S
C723 H710 0.929 . S
C723 C715 1.433 . S
C723 N725 1.384 . S
N724 C720 1.427 . S
N724 C721 1.384 . S
N725 C717 1.427 . S
N725 C723 1.384 . S
H726 C732 0.930 . S
H727 C736 0.930 . S
H728 C741 0.929 . S
H729 C739 0.929 . S
H730 C734 0.929 . S
H731 C740 0.929 . S
C732 H726 0.930 . S
C732 C733 1.367 . S
C732 C740 1.378 . S
C733 C732 1.367 . S
C733 C741 1.433 . S
C734 H730 0.929 . S
C734 C736 1.378 . S
C734 C738 1.350 . S
C735 C738 1.463 . S
C735 C740 1.350 . S
C735 N743 1.427 . S
C736 H727 0.930 . S
C736 C734 1.378 . S
C736 C737 1.367 . S
C737 C736 1.367 . S
C737 C739 1.433 . S
C738 C734 1.350 . S
C738 C735 1.463 . S
C738 N742 1.427 . S
C739 H729 0.929 . S
C739 C737 1.433 . S
C739 N742 1.384 . S
C740 H731 0.929 . S
C740 C732 1.378 . S
C740 C735 1.350 . S
C741 H728 0.929 . S
C741 C733 1.433 . S
C741 N743 1.384 . S
N742 C738 1.427 . S
N742 C739 1.384 . S
N743 C735 1.427 . S
N743 C741 1.384 . S
H744 C750 0.930 . S
H745 C754 0.930 . S
H746 C759 0.929 . S
H747 C757 0.929 . S
H748 C752 0.929 . S
H749 C758 0.929 . S
C750 H744 0.930 . S
C750 C751 1.367 . S
C750 C758 1.378 . S
C751 C750 1.367 . S
C751 C759 1.433 . S
C752 H748 0.929 . S
C752 C754 1.378 . S
C752 C756 1.350 . S
C753 C756 1.463 . S
C753 C758 1.350 . S
C753 N761 1.427 . S
C754 H745 0.930 . S
C754 C752 1.378 . S
C754 C755 1.367 . S
C755 C754 1.367 . S
C755 C757 1.433 . S
C756 C752 1.350 . S
C756 C753 1.463 . S
C756 N760 1.427 . S
C757 H747 0.929 . S
C757 C755 1.433 . S
C757 N760 1.384 . S
C758 H749 0.929 . S
C758 C750 1.378 . S
C758 C753 1.350 . S
C759 H746 0.929 . S
C759 C751 1.433 . S
C759 N761 1.384 . S
N760 C756 1.427 . S
N760 C757 1.384 . S
N761 C753 1.427 . S
N761 C759 1.384 . S
H762 C768 0.930 . S
H763 C772 0.930 . S
H764 C777 0.929 . S
H765 C775 0.929 . S
H766 C770 0.929 . S
H767 C776 0.929 . S
C768 H762 0.930 . S
C768 C769 1.367 . S
C768 C776 1.378 . S
C769 C768 1.367 . S
C769 C777 1.433 . S
C770 H766 0.929 . S
C770 C772 1.378 . S
C770 C774 1.350 . S
C771 C774 1.463 . S
C771 C776 1.350 . S
C771 N779 1.427 . S
C772 H763 0.930 . S
C772 C770 1.378 . S
C772 C773 1.367 . S
C773 C772 1.367 . S
C773 C775 1.433 . S
C774 C770 1.350 . S
C774 C771 1.463 . S
C774 N778 1.427 . S
C775 H765 0.929 . S
C775 C773 1.433 . S
C775 N778 1.384 . S
C776 H767 0.929 . S
C776 C768 1.378 . S
C776 C771 1.350 . S
C777 H764 0.929 . S
C777 C769 1.433 . S
C777 N779 1.384 . S
N778 C774 1.427 . S
N778 C775 1.384 . S
N779 C771 1.427 . S
N779 C777 1.384 . S
H780 C786 0.930 . S
H781 C790 0.930 . S
H782 C795 0.929 . S
H783 C793 0.929 . S
H784 C788 0.924 1_554 S
H785 C794 0.929 . S
C786 H780 0.930 . S
C786 C787 1.367 . S
C786 C794 1.378 . S
C787 C786 1.367 . S
C787 C795 1.433 . S
C788 H784 0.924 1_556 S
C788 C790 1.378 1_556 S
C788 C792 1.350 . S
C789 C792 1.463 . S
C789 C794 1.350 . S
C789 N797 1.427 . S
C790 H781 0.930 . S
C790 C788 1.378 1_554 S
C790 C791 1.367 1_554 S
C791 C790 1.367 1_556 S
C791 C793 1.433 . S
C792 C788 1.350 . S
C792 C789 1.463 . S
C792 N796 1.427 . S
C793 H783 0.929 . S
C793 C791 1.433 . S
C793 N796 1.384 . S
C794 H785 0.929 . S
C794 C786 1.378 . S
C794 C789 1.350 . S
C795 H782 0.929 . S
C795 C787 1.433 . S
C795 N797 1.384 . S
N796 C792 1.427 . S
N796 C793 1.384 . S
N797 C789 1.427 . S
N797 C795 1.384 . S
H798 C804 0.930 . S
H799 C808 0.930 . S
H800 C813 0.929 . S
H801 C811 0.929 . S
H802 C806 0.929 . S
H803 C812 0.929 . S
C804 H798 0.930 . S
C804 C805 1.367 . S
C804 C812 1.378 . S
C805 C804 1.367 . S
C805 C813 1.433 . S
C806 H802 0.929 . S
C806 C808 1.378 . S
C806 C810 1.350 . S
C807 C810 1.463 . S
C807 C812 1.350 . S
C807 N815 1.427 . S
C808 H799 0.930 . S
C808 C806 1.378 . S
C808 C809 1.367 . S
C809 C808 1.367 . S
C809 C811 1.433 . S
C810 C806 1.350 . S
C810 C807 1.463 . S
C810 N814 1.427 . S
C811 H801 0.929 . S
C811 C809 1.433 . S
C811 N814 1.384 . S
C812 H803 0.929 . S
C812 C804 1.378 . S
C812 C807 1.350 . S
C813 H800 0.929 . S
C813 C805 1.433 . S
C813 N815 1.384 . S
N814 C810 1.427 . S
N814 C811 1.384 . S
N815 C807 1.427 . S
N815 C813 1.384 . S
H816 C822 0.930 . S
H817 C826 0.930 . S
H818 C831 0.929 . S
H819 C829 0.929 . S
H820 C824 0.929 . S
H821 C830 0.937 . S
C822 H816 0.930 . S
C822 C823 1.367 . S
C822 C830 1.344 1_565 S
C823 C822 1.367 . S
C823 C831 1.433 . S
C824 H820 0.929 . S
C824 C826 1.378 . S
C824 C828 1.350 . S
C825 C828 1.463 . S
C825 C830 1.377 . S
C825 N833 1.427 . S
C826 H817 0.930 . S
C826 C824 1.378 . S
C826 C827 1.367 . S
C827 C826 1.367 . S
C827 C829 1.433 . S
C828 C824 1.350 . S
C828 C825 1.463 . S
C828 N832 1.427 . S
C829 H819 0.929 . S
C829 C827 1.433 . S
C829 N832 1.384 . S
C830 H821 0.937 . S
C830 C822 1.344 1_545 S
C830 C825 1.377 . S
C831 H818 0.929 . S
C831 C823 1.433 . S
C831 N833 1.384 1_565 S
N832 C828 1.427 . S
N832 C829 1.384 . S
N833 C825 1.427 . S
N833 C831 1.384 1_545 S
H834 C840 0.930 . S
H835 C844 0.930 . S
H836 C849 0.929 . S
H837 C847 0.929 . S
H838 C842 0.929 . S
H839 C848 0.929 . S
C840 H834 0.930 . S
C840 C841 1.367 . S
C840 C848 1.378 . S
C841 C840 1.367 . S
C841 C849 1.433 . S
C842 H838 0.929 . S
C842 C844 1.378 . S
C842 C846 1.350 . S
C843 C846 1.463 . S
C843 C848 1.350 . S
C843 N851 1.427 . S
C844 H835 0.930 . S
C844 C842 1.378 . S
C844 C845 1.367 . S
C845 C844 1.367 . S
C845 C847 1.433 . S
C846 C842 1.350 . S
C846 C843 1.463 . S
C846 N850 1.427 . S
C847 H837 0.929 . S
C847 C845 1.433 . S
C847 N850 1.384 . S
C848 H839 0.929 . S
C848 C840 1.378 . S
C848 C843 1.350 . S
C849 H836 0.929 . S
C849 C841 1.433 . S
C849 N851 1.384 . S
N850 C846 1.427 . S
N850 C847 1.384 . S
N851 C843 1.427 . S
N851 C849 1.384 . S
H852 C858 0.930 . S
H853 C862 0.923 1_556 S
H854 C867 0.929 . S
H855 C865 0.929 . S
H856 C860 0.929 . S
H857 C866 0.929 . S
C858 H852 0.930 . S
C858 C859 1.367 . S
C858 C866 1.378 . S
C859 C858 1.367 . S
C859 C867 1.433 . S
C860 H856 0.929 . S
C860 C862 1.378 1_565 S
C860 C864 1.350 . S
C861 C864 1.463 . S
C861 C866 1.350 . S
C861 N869 1.427 . S
C862 H853 0.923 1_554 S
C862 C860 1.378 1_545 S
C862 C863 1.367 . S
C863 C862 1.367 . S
C863 C865 1.433 . S
C864 C860 1.350 . S
C864 C861 1.463 . S
C864 N868 1.427 . S
C865 H855 0.929 . S
C865 C863 1.433 . S
C865 N868 1.384 1_545 S
C866 H857 0.929 . S
C866 C858 1.378 . S
C866 C861 1.350 . S
C867 H854 0.929 . S
C867 C859 1.433 . S
C867 N869 1.384 . S
N868 C864 1.427 . S
N868 C865 1.384 1_565 S
N869 C861 1.427 . S
N869 C867 1.384 . S
H870 C876 0.930 . S
H871 C880 0.930 . S
H872 C885 0.929 . S
H873 C883 0.929 . S
H874 C878 0.929 . S
H875 C884 0.929 . S
C876 H870 0.930 . S
C876 C877 1.367 . S
C876 C884 1.378 . S
C877 C876 1.367 . S
C877 C885 1.433 . S
C878 H874 0.929 . S
C878 C880 1.378 . S
C878 C882 1.350 . S
C879 C882 1.463 . S
C879 C884 1.350 . S
C879 N887 1.427 . S
C880 H871 0.930 . S
C880 C878 1.378 . S
C880 C881 1.367 . S
C881 C880 1.367 . S
C881 C883 1.433 . S
C882 C878 1.350 . S
C882 C879 1.463 . S
C882 N886 1.427 . S
C883 H873 0.929 . S
C883 C881 1.433 . S
C883 N886 1.384 . S
C884 H875 0.929 . S
C884 C876 1.378 . S
C884 C879 1.350 . S
C885 H872 0.929 . S
C885 C877 1.433 . S
C885 N887 1.384 . S
N886 C882 1.427 . S
N886 C883 1.384 . S
N887 C879 1.427 . S
N887 C885 1.384 . S
H888 C894 0.930 . S
H889 C898 0.930 . S
H890 C903 0.929 . S
H891 C901 0.929 . S
H892 C896 0.929 . S
H893 C902 0.929 . S
C894 H888 0.930 . S
C894 C895 1.367 . S
C894 C902 1.378 . S
C895 C894 1.367 . S
C895 C903 1.433 . S
C896 H892 0.929 . S
C896 C898 1.378 . S
C896 C900 1.350 . S
C897 C900 1.463 . S
C897 C902 1.350 . S
C897 N905 1.427 . S
C898 H889 0.930 . S
C898 C896 1.378 . S
C898 C899 1.367 . S
C899 C898 1.367 . S
C899 C901 1.433 . S
C900 C896 1.350 . S
C900 C897 1.463 . S
C900 N904 1.427 . S
C901 H891 0.929 . S
C901 C899 1.433 . S
C901 N904 1.384 . S
C902 H893 0.929 . S
C902 C894 1.378 . S
C902 C897 1.350 . S
C903 H890 0.929 . S
C903 C895 1.433 . S
C903 N905 1.384 . S
N904 C900 1.427 . S
N904 C901 1.384 . S
N905 C897 1.427 . S
N905 C903 1.384 . S
H906 C912 0.930 . S
H907 C916 0.930 . S
H908 C921 0.929 . S
H909 C919 0.929 . S
H910 C914 0.929 . S
H911 C920 0.929 . S
C912 H906 0.930 . S
C912 C913 1.367 . S
C912 C920 1.378 . S
C913 C912 1.367 . S
C913 C921 1.433 . S
C914 H910 0.929 . S
C914 C916 1.378 . S
C914 C918 1.350 . S
C915 C918 1.463 . S
C915 C920 1.350 . S
C915 N923 1.427 . S
C916 H907 0.930 . S
C916 C914 1.378 . S
C916 C917 1.367 . S
C917 C916 1.367 . S
C917 C919 1.433 . S
C918 C914 1.350 . S
C918 C915 1.463 . S
C918 N922 1.427 . S
C919 H909 0.929 . S
C919 C917 1.433 . S
C919 N922 1.384 . S
C920 H911 0.929 . S
C920 C912 1.378 . S
C920 C915 1.350 . S
C921 H908 0.929 . S
C921 C913 1.433 . S
C921 N923 1.384 . S
N922 C918 1.427 . S
N922 C919 1.384 . S
N923 C915 1.427 . S
N923 C921 1.384 . S
H924 C930 0.930 . S
H925 C934 0.930 . S
H926 C939 0.929 . S
H927 C937 0.929 . S
H928 C932 0.929 1_655 S
H929 C938 0.929 . S
C930 H924 0.930 . S
C930 C931 1.367 . S
C930 C938 1.378 . S
C931 C930 1.367 . S
C931 C939 1.433 . S
C932 H928 0.929 1_455 S
C932 C934 1.378 1_456 S
C932 C936 1.350 . S
C933 C936 1.463 . S
C933 C938 1.350 . S
C933 N941 1.427 . S
C934 H925 0.930 . S
C934 C932 1.378 1_654 S
C934 C935 1.367 1_655 S
C935 C934 1.367 1_455 S
C935 C937 1.433 . S
C936 C932 1.350 . S
C936 C933 1.463 . S
C936 N940 1.427 1_556 S
C937 H927 0.929 . S
C937 C935 1.433 . S
C937 N940 1.384 . S
C938 H929 0.929 . S
C938 C930 1.378 . S
C938 C933 1.350 . S
C939 H926 0.929 . S
C939 C931 1.433 . S
C939 N941 1.384 . S
N940 C936 1.427 1_554 S
N940 C937 1.384 . S
N941 C933 1.427 . S
N941 C939 1.384 . S
H942 C948 0.930 . S
H943 C952 0.930 . S
H944 C957 0.929 . S
H945 C955 0.929 . S
H946 C950 0.929 . S
H947 C956 0.929 . S
C948 H942 0.930 . S
C948 C949 1.367 . S
C948 C956 1.378 . S
C949 C948 1.367 . S
C949 C957 1.433 . S
C950 H946 0.929 . S
C950 C952 1.378 . S
C950 C954 1.350 . S
C951 C954 1.463 . S
C951 C956 1.350 . S
C951 N959 1.427 . S
C952 H943 0.930 . S
C952 C950 1.378 . S
C952 C953 1.367 . S
C953 C952 1.367 . S
C953 C955 1.433 . S
C954 C950 1.350 . S
C954 C951 1.463 . S
C954 N958 1.427 . S
C955 H945 0.929 . S
C955 C953 1.433 . S
C955 N958 1.384 . S
C956 H947 0.929 . S
C956 C948 1.378 . S
C956 C951 1.350 . S
C957 H944 0.929 . S
C957 C949 1.433 . S
C957 N959 1.384 . S
N958 C954 1.427 . S
N958 C955 1.384 . S
N959 C951 1.427 . S
N959 C957 1.384 . S
H960 C966 0.930 . S
H961 C970 0.930 . S
H962 C975 0.929 1_455 S
H963 C973 0.929 . S
H964 C968 0.929 . S
H965 C974 0.929 . S
C966 H960 0.930 . S
C966 C967 1.367 . S
C966 C974 1.378 . S
C967 C966 1.367 . S
C967 C975 1.433 . S
C968 H964 0.929 . S
C968 C970 1.378 . S
C968 C972 1.350 . S
C969 C972 1.463 . S
C969 C974 1.350 . S
C969 N977 1.427 . S
C970 H961 0.930 . S
C970 C968 1.378 . S
C970 C971 1.367 . S
C971 C970 1.367 . S
C971 C973 1.433 . S
C972 C968 1.350 . S
C972 C969 1.463 . S
C972 N976 1.427 . S
C973 H963 0.929 . S
C973 C971 1.433 . S
C973 N976 1.384 . S
C974 H965 0.929 . S
C974 C966 1.378 . S
C974 C969 1.350 . S
C975 H962 0.929 1_655 S
C975 C967 1.433 . S
C975 N977 1.384 . S
N976 C972 1.427 . S
N976 C973 1.384 . S
N977 C969 1.427 . S
N977 C975 1.384 . S
H978 C984 0.930 . S
H979 C988 0.930 . S
H980 C993 0.929 . S
H981 C991 0.929 . S
H982 C986 0.929 . S
H983 C992 0.929 . S
C984 H978 0.930 . S
C984 C985 1.367 . S
C984 C992 1.378 . S
C985 C984 1.367 . S
C985 C993 1.433 . S
C986 H982 0.929 . S
C986 C988 1.378 . S
C986 C990 1.350 . S
C987 C990 1.463 . S
C987 C992 1.350 . S
C987 N995 1.427 . S
C988 H979 0.930 . S
C988 C986 1.378 . S
C988 C989 1.367 . S
C989 C988 1.367 . S
C989 C991 1.433 . S
C990 C986 1.350 . S
C990 C987 1.463 . S
C990 N994 1.427 . S
C991 H981 0.929 . S
C991 C989 1.433 . S
C991 N994 1.384 . S
C992 H983 0.929 . S
C992 C984 1.378 . S
C992 C987 1.350 . S
C993 H980 0.929 . S
C993 C985 1.433 . S
C993 N995 1.384 . S
N994 C990 1.427 . S
N994 C991 1.384 . S
N995 C987 1.427 . S
N995 C993 1.384 . S
H996 C1002 0.930 . S
H997 C1006 0.930 1_554 S
H998 C1011 0.929 . S
H999 C1009 0.929 . S
H1000 C1004 0.929 . S
H1001 C1010 0.929 . S
C1002 H996 0.930 . S
C1002 C1003 1.367 . S
C1002 C1010 1.378 . S
C1003 C1002 1.367 . S
C1003 C1011 1.433 . S
C1004 H1000 0.929 . S
C1004 C1006 1.378 1_554 S
C1004 C1008 1.350 . S
C1005 C1008 1.463 . S
C1005 C1010 1.350 . S
C1005 N1013 1.427 . S
C1006 H997 0.930 1_556 S
C1006 C1004 1.378 1_556 S
C1006 C1007 1.367 . S
C1007 C1006 1.367 . S
C1007 C1009 1.433 . S
C1008 C1004 1.350 . S
C1008 C1005 1.463 . S
C1008 N1012 1.427 1_554 S
C1009 H999 0.929 . S
C1009 C1007 1.433 . S
C1009 N1012 1.384 . S
C1010 H1001 0.929 . S
C1010 C1002 1.378 . S
C1010 C1005 1.350 . S
C1011 H998 0.929 . S
C1011 C1003 1.433 . S
C1011 N1013 1.384 . S
N1012 C1008 1.427 1_556 S
N1012 C1009 1.384 . S
N1013 C1005 1.427 . S
N1013 C1011 1.384 . S
H1014 C1020 0.930 . S
H1015 C1024 0.930 . S
H1016 C1029 0.929 . S
H1017 C1027 0.929 . S
H1018 C1022 0.929 . S
H1019 C1028 0.929 . S
C1020 H1014 0.930 . S
C1020 C1021 1.367 . S
C1020 C1028 1.378 . S
C1021 C1020 1.367 . S
C1021 C1029 1.433 . S
C1022 H1018 0.929 . S
C1022 C1024 1.378 . S
C1022 C1026 1.350 . S
C1023 C1026 1.463 . S
C1023 C1028 1.350 . S
C1023 N1031 1.427 . S
C1024 H1015 0.930 . S
C1024 C1022 1.378 . S
C1024 C1025 1.367 . S
C1025 C1024 1.367 . S
C1025 C1027 1.433 . S
C1026 C1022 1.350 . S
C1026 C1023 1.463 . S
C1026 N1030 1.427 . S
C1027 H1017 0.929 . S
C1027 C1025 1.433 . S
C1027 N1030 1.384 . S
C1028 H1019 0.929 . S
C1028 C1020 1.378 . S
C1028 C1023 1.350 . S
C1029 H1016 0.929 . S
C1029 C1021 1.433 . S
C1029 N1031 1.384 . S
N1030 C1026 1.427 . S
N1030 C1027 1.384 . S
N1031 C1023 1.427 . S
N1031 C1029 1.384 . S
H1032 C1038 0.930 . S
H1033 C1042 0.930 . S
H1034 C1047 0.929 . S
H1035 C1045 0.929 . S
H1036 C1040 0.929 . S
H1037 C1046 0.929 . S
C1038 H1032 0.930 . S
C1038 C1039 1.367 . S
C1038 C1046 1.378 . S
C1039 C1038 1.367 . S
C1039 C1047 1.433 . S
C1040 H1036 0.929 . S
C1040 C1042 1.378 . S
C1040 C1044 1.350 . S
C1041 C1044 1.463 . S
C1041 C1046 1.350 . S
C1041 N1049 1.427 . S
C1042 H1033 0.930 . S
C1042 C1040 1.378 . S
C1042 C1043 1.367 . S
C1043 C1042 1.367 . S
C1043 C1045 1.433 . S
C1044 C1040 1.350 . S
C1044 C1041 1.463 . S
C1044 N1048 1.427 . S
C1045 H1035 0.929 . S
C1045 C1043 1.433 . S
C1045 N1048 1.384 . S
C1046 H1037 0.929 . S
C1046 C1038 1.378 . S
C1046 C1041 1.350 . S
C1047 H1034 0.929 . S
C1047 C1039 1.433 . S
C1047 N1049 1.384 . S
N1048 C1044 1.427 . S
N1048 C1045 1.384 . S
N1049 C1041 1.427 . S
N1049 C1047 1.384 . S
H1050 C1056 0.930 . S
H1051 C1060 0.930 . S
H1052 C1065 0.929 . S
H1053 C1063 0.929 . S
H1054 C1058 0.929 . S
H1055 C1064 0.931 . S
C1056 H1050 0.930 . S
C1056 C1057 1.367 . S
C1056 C1064 1.365 1_455 S
C1057 C1056 1.367 . S
C1057 C1065 1.433 1_545 S
C1058 H1054 0.929 . S
C1058 C1060 1.378 . S
C1058 C1062 1.350 . S
C1059 C1062 1.463 . S
C1059 C1064 1.360 . S
C1059 N1067 1.427 . S
C1060 H1051 0.930 . S
C1060 C1058 1.378 . S
C1060 C1061 1.367 . S
C1061 C1060 1.367 . S
C1061 C1063 1.433 . S
C1062 C1058 1.350 . S
C1062 C1059 1.463 . S
C1062 N1066 1.427 . S
C1063 H1053 0.929 . S
C1063 C1061 1.433 . S
C1063 N1066 1.384 . S
C1064 H1055 0.931 . S
C1064 C1056 1.365 1_655 S
C1064 C1059 1.360 . S
C1065 H1052 0.929 . S
C1065 C1057 1.433 1_565 S
C1065 N1067 1.384 1_465 S
N1066 C1062 1.427 . S
N1066 C1063 1.384 . S
N1067 C1059 1.427 . S
N1067 C1065 1.384 1_645 S
H1068 C1074 0.930 . S
H1069 C1078 0.930 . S
H1070 C1083 0.929 . S
H1071 C1081 0.929 . S
H1072 C1076 0.929 . S
H1073 C1082 0.929 . S
C1074 H1068 0.930 . S
C1074 C1075 1.367 . S
C1074 C1082 1.378 . S
C1075 C1074 1.367 . S
C1075 C1083 1.433 . S
C1076 H1072 0.929 . S
C1076 C1078 1.378 . S
C1076 C1080 1.350 . S
C1077 C1080 1.463 . S
C1077 C1082 1.350 . S
C1077 N1085 1.427 . S
C1078 H1069 0.930 . S
C1078 C1076 1.378 . S
C1078 C1079 1.367 . S
C1079 C1078 1.367 . S
C1079 C1081 1.433 . S
C1080 C1076 1.350 . S
C1080 C1077 1.463 . S
C1080 N1084 1.427 . S
C1081 H1071 0.929 . S
C1081 C1079 1.433 . S
C1081 N1084 1.384 . S
C1082 H1073 0.929 . S
C1082 C1074 1.378 . S
C1082 C1077 1.350 . S
C1083 H1070 0.929 . S
C1083 C1075 1.433 . S
C1083 N1085 1.384 . S
N1084 C1080 1.427 . S
N1084 C1081 1.384 . S
N1085 C1077 1.427 . S
N1085 C1083 1.384 . S
H1086 C1092 0.930 . S
H1087 C1096 0.930 . S
H1088 C1101 0.929 . S
H1089 C1099 0.929 . S
H1090 C1094 0.929 . S
H1091 C1100 0.929 . S
C1092 H1086 0.930 . S
C1092 C1093 1.367 . S
C1092 C1100 1.378 . S
C1093 C1092 1.367 . S
C1093 C1101 1.433 1_565 S
C1094 H1090 0.929 . S
C1094 C1096 1.378 . S
C1094 C1098 1.350 . S
C1095 C1098 1.463 . S
C1095 C1100 1.350 . S
C1095 N1103 1.427 . S
C1096 H1087 0.930 . S
C1096 C1094 1.378 . S
C1096 C1097 1.367 . S
C1097 C1096 1.367 . S
C1097 C1099 1.433 . S
C1098 C1094 1.350 . S
C1098 C1095 1.463 . S
C1098 N1102 1.427 . S
C1099 H1089 0.929 . S
C1099 C1097 1.433 . S
C1099 N1102 1.384 . S
C1100 H1091 0.929 . S
C1100 C1092 1.378 . S
C1100 C1095 1.350 . S
C1101 H1088 0.929 . S
C1101 C1093 1.433 1_545 S
C1101 N1103 1.384 1_545 S
N1102 C1098 1.427 . S
N1102 C1099 1.384 . S
N1103 C1095 1.427 . S
N1103 C1101 1.384 1_565 S
H1104 C1110 0.930 . S
H1105 C1114 0.930 . S
H1106 C1119 0.929 . S
H1107 C1117 0.929 . S
H1108 C1112 0.929 . S
H1109 C1118 0.929 . S
C1110 H1104 0.930 . S
C1110 C1111 1.367 . S
C1110 C1118 1.378 . S
C1111 C1110 1.367 . S
C1111 C1119 1.433 . S
C1112 H1108 0.929 . S
C1112 C1114 1.378 . S
C1112 C1116 1.350 . S
C1113 C1116 1.463 . S
C1113 C1118 1.350 . S
C1113 N1121 1.427 . S
C1114 H1105 0.930 . S
C1114 C1112 1.378 . S
C1114 C1115 1.367 . S
C1115 C1114 1.367 . S
C1115 C1117 1.433 . S
C1116 C1112 1.350 . S
C1116 C1113 1.463 . S
C1116 N1120 1.427 . S
C1117 H1107 0.929 . S
C1117 C1115 1.433 . S
C1117 N1120 1.384 . S
C1118 H1109 0.929 . S
C1118 C1110 1.378 . S
C1118 C1113 1.350 . S
C1119 H1106 0.929 . S
C1119 C1111 1.433 . S
C1119 N1121 1.384 . S
N1120 C1116 1.427 . S
N1120 C1117 1.384 . S
N1121 C1113 1.427 . S
N1121 C1119 1.384 . S
H1122 C1128 0.930 . S
H1123 C1132 0.930 . S
H1124 C1137 0.929 . S
H1125 C1135 0.929 . S
H1126 C1130 0.929 . S
H1127 C1136 0.930 . S
C1128 H1122 0.930 . S
C1128 C1129 1.367 . S
C1128 C1136 1.370 1_655 S
C1129 C1128 1.367 . S
C1129 C1137 1.433 . S
C1130 H1126 0.929 . S
C1130 C1132 1.378 . S
C1130 C1134 1.350 . S
C1131 C1134 1.463 . S
C1131 C1136 1.356 . S
C1131 N1139 1.427 . S
C1132 H1123 0.930 . S
C1132 C1130 1.378 . S
C1132 C1133 1.367 . S
C1133 C1132 1.367 . S
C1133 C1135 1.433 . S
C1134 C1130 1.350 . S
C1134 C1131 1.463 . S
C1134 N1138 1.427 . S
C1135 H1125 0.929 . S
C1135 C1133 1.433 . S
C1135 N1138 1.384 . S
C1136 H1127 0.930 . S
C1136 C1128 1.370 1_455 S
C1136 C1131 1.356 . S
C1137 H1124 0.929 . S
C1137 C1129 1.433 . S
C1137 N1139 1.384 1_655 S
N1138 C1134 1.427 . S
N1138 C1135 1.384 . S
N1139 C1131 1.427 . S
N1139 C1137 1.384 1_455 S
H1140 C1146 0.930 . S
H1141 C1150 0.930 . S
H1142 C1155 0.929 . S
H1143 C1153 0.929 . S
H1144 C1148 0.929 . S
H1145 C1154 0.929 . S
C1146 H1140 0.930 . S
C1146 C1147 1.367 . S
C1146 C1154 1.378 . S
C1147 C1146 1.367 . S
C1147 C1155 1.433 . S
C1148 H1144 0.929 . S
C1148 C1150 1.378 . S
C1148 C1152 1.350 . S
C1149 C1152 1.463 . S
C1149 C1154 1.350 . S
C1149 N1157 1.427 . S
C1150 H1141 0.930 . S
C1150 C1148 1.378 . S
C1150 C1151 1.367 . S
C1151 C1150 1.367 . S
C1151 C1153 1.433 . S
C1152 C1148 1.350 . S
C1152 C1149 1.463 . S
C1152 N1156 1.427 . S
C1153 H1143 0.929 . S
C1153 C1151 1.433 . S
C1153 N1156 1.384 . S
C1154 H1145 0.929 . S
C1154 C1146 1.378 . S
C1154 C1149 1.350 . S
C1155 H1142 0.929 . S
C1155 C1147 1.433 . S
C1155 N1157 1.384 . S
N1156 C1152 1.427 . S
N1156 C1153 1.384 . S
N1157 C1149 1.427 . S
N1157 C1155 1.384 . S
H1158 C1164 0.930 . S
H1159 C1168 0.930 . S
H1160 C1173 0.929 . S
H1161 C1171 0.929 . S
H1162 C1166 0.929 . S
H1163 C1172 0.929 . S
C1164 H1158 0.930 . S
C1164 C1165 1.367 . S
C1164 C1172 1.378 . S
C1165 C1164 1.367 . S
C1165 C1173 1.433 . S
C1166 H1162 0.929 . S
C1166 C1168 1.378 . S
C1166 C1170 1.350 . S
C1167 C1170 1.463 . S
C1167 C1172 1.350 . S
C1167 N1175 1.427 . S
C1168 H1159 0.930 . S
C1168 C1166 1.378 . S
C1168 C1169 1.367 . S
C1169 C1168 1.367 . S
C1169 C1171 1.433 . S
C1170 C1166 1.350 . S
C1170 C1167 1.463 . S
C1170 N1174 1.427 . S
C1171 H1161 0.929 . S
C1171 C1169 1.433 . S
C1171 N1174 1.384 . S
C1172 H1163 0.929 . S
C1172 C1164 1.378 . S
C1172 C1167 1.350 . S
C1173 H1160 0.929 . S
C1173 C1165 1.433 . S
C1173 N1175 1.384 . S
N1174 C1170 1.427 . S
N1174 C1171 1.384 . S
N1175 C1167 1.427 . S
N1175 C1173 1.384 . S
H1176 C1182 0.930 . S
H1177 C1186 0.930 . S
H1178 C1191 0.929 . S
H1179 C1189 0.929 . S
H1180 C1184 0.929 . S
H1181 C1190 0.929 . S
C1182 H1176 0.930 . S
C1182 C1183 1.367 . S
C1182 C1190 1.378 . S
C1183 C1182 1.367 . S
C1183 C1191 1.433 . S
C1184 H1180 0.929 . S
C1184 C1186 1.378 . S
C1184 C1188 1.350 . S
C1185 C1188 1.463 . S
C1185 C1190 1.350 . S
C1185 N1193 1.427 . S
C1186 H1177 0.930 . S
C1186 C1184 1.378 . S
C1186 C1187 1.367 . S
C1187 C1186 1.367 . S
C1187 C1189 1.433 . S
C1188 C1184 1.350 . S
C1188 C1185 1.463 . S
C1188 N1192 1.427 . S
C1189 H1179 0.929 . S
C1189 C1187 1.433 . S
C1189 N1192 1.384 . S
C1190 H1181 0.929 . S
C1190 C1182 1.378 . S
C1190 C1185 1.350 . S
C1191 H1178 0.929 . S
C1191 C1183 1.433 . S
C1191 N1193 1.384 . S
N1192 C1188 1.427 . S
N1192 C1189 1.384 . S
N1193 C1185 1.427 . S
N1193 C1191 1.384 . S
H1194 C1200 0.930 . S
H1195 C1204 0.930 . S
H1196 C1209 0.929 . S
H1197 C1207 0.929 . S
H1198 C1202 0.929 . S
H1199 C1208 0.929 . S
C1200 H1194 0.930 . S
C1200 C1201 1.367 . S
C1200 C1208 1.378 . S
C1201 C1200 1.367 . S
C1201 C1209 1.433 . S
C1202 H1198 0.929 . S
C1202 C1204 1.378 . S
C1202 C1206 1.350 . S
C1203 C1206 1.463 . S
C1203 C1208 1.350 . S
C1203 N1211 1.427 . S
C1204 H1195 0.930 . S
C1204 C1202 1.378 . S
C1204 C1205 1.367 . S
C1205 C1204 1.367 . S
C1205 C1207 1.433 . S
C1206 C1202 1.350 . S
C1206 C1203 1.463 . S
C1206 N1210 1.427 . S
C1207 H1197 0.929 . S
C1207 C1205 1.433 . S
C1207 N1210 1.384 . S
C1208 H1199 0.929 . S
C1208 C1200 1.378 . S
C1208 C1203 1.350 . S
C1209 H1196 0.929 . S
C1209 C1201 1.433 . S
C1209 N1211 1.384 . S
N1210 C1206 1.427 . S
N1210 C1207 1.384 . S
N1211 C1203 1.427 . S
N1211 C1209 1.384 . S
H1212 C1218 0.930 . S
H1213 C1222 0.930 . S
H1214 C1227 0.929 . S
H1215 C1225 0.929 . S
H1216 C1220 0.929 . S
H1217 C1226 0.929 . S
C1218 H1212 0.930 . S
C1218 C1219 1.367 . S
C1218 C1226 1.378 . S
C1219 C1218 1.367 . S
C1219 C1227 1.433 . S
C1220 H1216 0.929 . S
C1220 C1222 1.378 . S
C1220 C1224 1.350 . S
C1221 C1224 1.463 . S
C1221 C1226 1.350 . S
C1221 N1229 1.427 . S
C1222 H1213 0.930 . S
C1222 C1220 1.378 . S
C1222 C1223 1.367 . S
C1223 C1222 1.367 . S
C1223 C1225 1.433 . S
C1224 C1220 1.350 . S
C1224 C1221 1.463 . S
C1224 N1228 1.427 . S
C1225 H1215 0.929 . S
C1225 C1223 1.433 . S
C1225 N1228 1.384 . S
C1226 H1217 0.929 . S
C1226 C1218 1.378 . S
C1226 C1221 1.350 . S
C1227 H1214 0.929 . S
C1227 C1219 1.433 . S
C1227 N1229 1.384 . S
N1228 C1224 1.427 . S
N1228 C1225 1.384 . S
N1229 C1221 1.427 . S
N1229 C1227 1.384 . S
H1230 C1236 0.930 . S
H1231 C1240 0.930 . S
H1232 C1245 0.929 . S
H1233 C1243 0.929 . S
H1234 C1238 0.929 . S
H1235 C1244 0.929 1_556 S
C1236 H1230 0.930 . S
C1236 C1237 1.367 . S
C1236 C1244 1.378 . S
C1237 C1236 1.367 . S
C1237 C1245 1.433 . S
C1238 H1234 0.929 . S
C1238 C1240 1.378 . S
C1238 C1242 1.350 . S
C1239 C1242 1.463 . S
C1239 C1244 1.350 . S
C1239 N1247 1.427 . S
C1240 H1231 0.930 . S
C1240 C1238 1.378 . S
C1240 C1241 1.367 1_554 S
C1241 C1240 1.367 1_556 S
C1241 C1243 1.433 . S
C1242 C1238 1.350 . S
C1242 C1239 1.463 . S
C1242 N1246 1.427 1_554 S
C1243 H1233 0.929 . S
C1243 C1241 1.433 . S
C1243 N1246 1.384 . S
C1244 H1235 0.929 1_554 S
C1244 C1236 1.378 . S
C1244 C1239 1.350 . S
C1245 H1232 0.929 . S
C1245 C1237 1.433 . S
C1245 N1247 1.384 . S
N1246 C1242 1.427 1_556 S
N1246 C1243 1.384 . S
N1247 C1239 1.427 . S
N1247 C1245 1.384 . S
H1248 C1254 0.930 . S
H1249 C1258 0.930 . S
H1250 C1263 0.929 . S
H1251 C1261 0.929 . S
H1252 C1256 0.929 . S
H1253 C1262 0.929 1_565 S
C1254 H1248 0.930 . S
C1254 C1255 1.367 . S
C1254 C1262 1.378 1_565 S
C1255 C1254 1.367 . S
C1255 C1263 1.433 1_565 S
C1256 H1252 0.929 . S
C1256 C1258 1.378 . S
C1256 C1260 1.350 . S
C1257 C1260 1.463 . S
C1257 C1262 1.350 . S
C1257 N1265 1.427 . S
C1258 H1249 0.930 . S
C1258 C1256 1.378 . S
C1258 C1259 1.367 . S
C1259 C1258 1.367 . S
C1259 C1261 1.433 . S
C1260 C1256 1.350 . S
C1260 C1257 1.463 . S
C1260 N1264 1.427 . S
C1261 H1251 0.929 . S
C1261 C1259 1.433 . S
C1261 N1264 1.384 . S
C1262 H1253 0.929 1_545 S
C1262 C1254 1.378 1_545 S
C1262 C1257 1.350 . S
C1263 H1250 0.929 . S
C1263 C1255 1.433 1_545 S
C1263 N1265 1.384 . S
N1264 C1260 1.427 . S
N1264 C1261 1.384 . S
N1265 C1257 1.427 . S
N1265 C1263 1.384 . S
H1266 C1272 0.930 . S
H1267 C1276 0.930 . S
H1268 C1281 0.929 . S
H1269 C1279 0.929 . S
H1270 C1274 0.929 . S
H1271 C1280 0.929 . S
C1272 H1266 0.930 . S
C1272 C1273 1.367 . S
C1272 C1280 1.378 . S
C1273 C1272 1.367 . S
C1273 C1281 1.433 . S
C1274 H1270 0.929 . S
C1274 C1276 1.378 . S
C1274 C1278 1.350 . S
C1275 C1278 1.463 . S
C1275 C1280 1.350 1_556 S
C1275 N1283 1.427 . S
C1276 H1267 0.930 . S
C1276 C1274 1.378 . S
C1276 C1277 1.367 . S
C1277 C1276 1.367 . S
C1277 C1279 1.433 . S
C1278 C1274 1.350 . S
C1278 C1275 1.463 . S
C1278 N1282 1.427 . S
C1279 H1269 0.929 . S
C1279 C1277 1.433 . S
C1279 N1282 1.384 . S
C1280 H1271 0.929 . S
C1280 C1272 1.378 . S
C1280 C1275 1.350 1_554 S
C1281 H1268 0.929 . S
C1281 C1273 1.433 . S
C1281 N1283 1.384 1_554 S
N1282 C1278 1.427 . S
N1282 C1279 1.384 . S
N1283 C1275 1.427 . S
N1283 C1281 1.384 1_556 S
H1284 C1290 0.930 . S
H1285 C1294 0.930 . S
H1286 C1299 0.929 . S
H1287 C1297 0.929 . S
H1288 C1292 0.929 . S
H1289 C1298 0.929 . S
C1290 H1284 0.930 . S
C1290 C1291 1.367 1_565 S
C1290 C1298 1.378 . S
C1291 C1290 1.367 1_545 S
C1291 C1299 1.433 . S
C1292 H1288 0.929 . S
C1292 C1294 1.378 . S
C1292 C1296 1.350 . S
C1293 C1296 1.463 . S
C1293 C1298 1.350 . S
C1293 N1301 1.427 . S
C1294 H1285 0.930 . S
C1294 C1292 1.378 . S
C1294 C1295 1.367 . S
C1295 C1294 1.367 . S
C1295 C1297 1.433 . S
C1296 C1292 1.350 . S
C1296 C1293 1.463 . S
C1296 N1300 1.427 . S
C1297 H1287 0.929 . S
C1297 C1295 1.433 . S
C1297 N1300 1.384 . S
C1298 H1289 0.929 . S
C1298 C1290 1.378 . S
C1298 C1293 1.350 . S
C1299 H1286 0.929 . S
C1299 C1291 1.433 . S
C1299 N1301 1.384 1_545 S
N1300 C1296 1.427 . S
N1300 C1297 1.384 . S
N1301 C1293 1.427 . S
N1301 C1299 1.384 1_565 S
H1302 C1308 0.930 . S
H1303 C1312 0.930 . S
H1304 C1317 0.929 . S
H1305 C1315 0.929 . S
H1306 C1310 0.929 . S
H1307 C1316 0.929 . S
C1308 H1302 0.930 . S
C1308 C1309 1.367 . S
C1308 C1316 1.378 . S
C1309 C1308 1.367 . S
C1309 C1317 1.433 . S
C1310 H1306 0.929 . S
C1310 C1312 1.378 . S
C1310 C1314 1.350 . S
C1311 C1314 1.463 . S
C1311 C1316 1.350 . S
C1311 N1319 1.427 . S
C1312 H1303 0.930 . S
C1312 C1310 1.378 . S
C1312 C1313 1.367 . S
C1313 C1312 1.367 . S
C1313 C1315 1.433 . S
C1314 C1310 1.350 . S
C1314 C1311 1.463 . S
C1314 N1318 1.427 . S
C1315 H1305 0.929 . S
C1315 C1313 1.433 . S
C1315 N1318 1.384 . S
C1316 H1307 0.929 . S
C1316 C1308 1.378 . S
C1316 C1311 1.350 . S
C1317 H1304 0.929 . S
C1317 C1309 1.433 . S
C1317 N1319 1.384 . S
N1318 C1314 1.427 . S
N1318 C1315 1.384 . S
N1319 C1311 1.427 . S
N1319 C1317 1.384 . S
H1320 C1326 0.930 . S
H1321 C1330 0.930 . S
H1322 C1335 0.929 . S
H1323 C1333 0.929 . S
H1324 C1328 0.929 . S
H1325 C1334 0.929 . S
C1326 H1320 0.930 . S
C1326 C1327 1.367 . S
C1326 C1334 1.378 . S
C1327 C1326 1.367 . S
C1327 C1335 1.433 . S
C1328 H1324 0.929 . S
C1328 C1330 1.378 . S
C1328 C1332 1.350 . S
C1329 C1332 1.463 . S
C1329 C1334 1.350 . S
C1329 N1337 1.427 . S
C1330 H1321 0.930 . S
C1330 C1328 1.378 . S
C1330 C1331 1.367 . S
C1331 C1330 1.367 . S
C1331 C1333 1.433 . S
C1332 C1328 1.350 . S
C1332 C1329 1.463 . S
C1332 N1336 1.427 . S
C1333 H1323 0.929 . S
C1333 C1331 1.433 . S
C1333 N1336 1.384 . S
C1334 H1325 0.929 . S
C1334 C1326 1.378 . S
C1334 C1329 1.350 . S
C1335 H1322 0.929 . S
C1335 C1327 1.433 . S
C1335 N1337 1.384 . S
N1336 C1332 1.427 . S
N1336 C1333 1.384 . S
N1337 C1329 1.427 . S
N1337 C1335 1.384 . S
H1338 C1344 0.930 . S
H1339 C1348 0.930 . S
H1340 C1353 0.929 . S
H1341 C1351 0.929 . S
H1342 C1346 0.929 . S
H1343 C1352 0.929 . S
C1344 H1338 0.930 . S
C1344 C1345 1.367 . S
C1344 C1352 1.378 . S
C1345 C1344 1.367 . S
C1345 C1353 1.433 1_565 S
C1346 H1342 0.929 . S
C1346 C1348 1.378 . S
C1346 C1350 1.350 . S
C1347 C1350 1.463 . S
C1347 C1352 1.350 1_545 S
C1347 N1355 1.427 . S
C1348 H1339 0.930 . S
C1348 C1346 1.378 . S
C1348 C1349 1.367 . S
C1349 C1348 1.367 . S
C1349 C1351 1.433 . S
C1350 C1346 1.350 . S
C1350 C1347 1.463 . S
C1350 N1354 1.427 . S
C1351 H1341 0.929 . S
C1351 C1349 1.433 . S
C1351 N1354 1.384 . S
C1352 H1343 0.929 . S
C1352 C1344 1.378 . S
C1352 C1347 1.350 1_565 S
C1353 H1340 0.929 . S
C1353 C1345 1.433 1_545 S
C1353 N1355 1.384 . S
N1354 C1350 1.427 . S
N1354 C1351 1.384 . S
N1355 C1347 1.427 . S
N1355 C1353 1.384 . S
H1356 C1362 0.930 . S
H1357 C1366 0.930 . S
H1358 C1371 0.929 . S
H1359 C1369 0.929 . S
H1360 C1364 0.929 . S
H1361 C1370 0.929 . S
C1362 H1356 0.930 . S
C1362 C1363 1.367 . S
C1362 C1370 1.378 . S
C1363 C1362 1.367 . S
C1363 C1371 1.433 . S
C1364 H1360 0.929 . S
C1364 C1366 1.378 1_556 S
C1364 C1368 1.350 . S
C1365 C1368 1.463 . S
C1365 C1370 1.350 . S
C1365 N1373 1.427 . S
C1366 H1357 0.930 . S
C1366 C1364 1.378 1_554 S
C1366 C1367 1.367 . S
C1367 C1366 1.367 . S
C1367 C1369 1.433 1_554 S
C1368 C1364 1.350 . S
C1368 C1365 1.463 . S
C1368 N1372 1.427 . S
C1369 H1359 0.929 . S
C1369 C1367 1.433 1_556 S
C1369 N1372 1.384 . S
C1370 H1361 0.929 . S
C1370 C1362 1.378 . S
C1370 C1365 1.350 . S
C1371 H1358 0.929 . S
C1371 C1363 1.433 . S
C1371 N1373 1.384 . S
N1372 C1368 1.427 . S
N1372 C1369 1.384 . S
N1373 C1365 1.427 . S
N1373 C1371 1.384 . S
H1374 C1380 0.930 . S
H1375 C1384 0.930 . S
H1376 C1389 0.929 . S
H1377 C1387 0.929 . S
H1378 C1382 0.929 . S
H1379 C1388 0.929 1_545 S
C1380 H1374 0.930 . S
C1380 C1381 1.367 . S
C1380 C1388 1.378 . S
C1381 C1380 1.367 . S
C1381 C1389 1.433 . S
C1382 H1378 0.929 . S
C1382 C1384 1.378 . S
C1382 C1386 1.350 . S
C1383 C1386 1.463 . S
C1383 C1388 1.350 . S
C1383 N1391 1.427 . S
C1384 H1375 0.930 . S
C1384 C1382 1.378 . S
C1384 C1385 1.367 1_565 S
C1385 C1384 1.367 1_545 S
C1385 C1387 1.433 . S
C1386 C1382 1.350 . S
C1386 C1383 1.463 . S
C1386 N1390 1.427 1_565 S
C1387 H1377 0.929 . S
C1387 C1385 1.433 . S
C1387 N1390 1.384 . S
C1388 H1379 0.929 1_565 S
C1388 C1380 1.378 . S
C1388 C1383 1.350 . S
C1389 H1376 0.929 . S
C1389 C1381 1.433 . S
C1389 N1391 1.384 . S
N1390 C1386 1.427 1_545 S
N1390 C1387 1.384 . S
N1391 C1383 1.427 . S
N1391 C1389 1.384 . S
H1392 C1398 0.930 . S
H1393 C1402 0.930 . S
H1394 C1407 0.929 . S
H1395 C1405 0.929 . S
H1396 C1400 0.929 . S
H1397 C1406 0.929 . S
C1398 H1392 0.930 . S
C1398 C1399 1.367 . S
C1398 C1406 1.378 . S
C1399 C1398 1.367 . S
C1399 C1407 1.433 . S
C1400 H1396 0.929 . S
C1400 C1402 1.378 . S
C1400 C1404 1.350 . S
C1401 C1404 1.463 . S
C1401 C1406 1.350 . S
C1401 N1409 1.427 . S
C1402 H1393 0.930 . S
C1402 C1400 1.378 . S
C1402 C1403 1.367 . S
C1403 C1402 1.367 . S
C1403 C1405 1.433 . S
C1404 C1400 1.350 . S
C1404 C1401 1.463 . S
C1404 N1408 1.427 . S
C1405 H1395 0.929 . S
C1405 C1403 1.433 . S
C1405 N1408 1.384 . S
C1406 H1397 0.929 . S
C1406 C1398 1.378 . S
C1406 C1401 1.350 . S
C1407 H1394 0.929 . S
C1407 C1399 1.433 . S
C1407 N1409 1.384 . S
N1408 C1404 1.427 . S
N1408 C1405 1.384 . S
N1409 C1401 1.427 . S
N1409 C1407 1.384 . S
H1410 C1416 0.930 . S
H1411 C1420 0.930 . S
H1412 C1425 0.929 . S
H1413 C1423 0.929 . S
H1414 C1418 0.929 . S
H1415 C1424 0.929 . S
C1416 H1410 0.930 . S
C1416 C1417 1.367 . S
C1416 C1424 1.378 . S
C1417 C1416 1.367 . S
C1417 C1425 1.433 . S
C1418 H1414 0.929 . S
C1418 C1420 1.378 . S
C1418 C1422 1.350 . S
C1419 C1422 1.463 . S
C1419 C1424 1.350 . S
C1419 N1427 1.427 . S
C1420 H1411 0.930 . S
C1420 C1418 1.378 . S
C1420 C1421 1.367 . S
C1421 C1420 1.367 . S
C1421 C1423 1.433 . S
C1422 C1418 1.350 . S
C1422 C1419 1.463 . S
C1422 N1426 1.427 . S
C1423 H1413 0.929 . S
C1423 C1421 1.433 . S
C1423 N1426 1.384 . S
C1424 H1415 0.929 . S
C1424 C1416 1.378 . S
C1424 C1419 1.350 . S
C1425 H1412 0.929 . S
C1425 C1417 1.433 . S
C1425 N1427 1.384 . S
N1426 C1422 1.427 . S
N1426 C1423 1.384 . S
N1427 C1419 1.427 . S
N1427 C1425 1.384 . S
H1428 C1434 0.930 . S
H1429 C1438 0.930 . S
H1430 C1443 0.929 . S
H1431 C1441 0.929 . S
H1432 C1436 0.929 . S
H1433 C1442 0.929 . S
C1434 H1428 0.930 . S
C1434 C1435 1.367 . S
C1434 C1442 1.378 . S
C1435 C1434 1.367 . S
C1435 C1443 1.433 . S
C1436 H1432 0.929 . S
C1436 C1438 1.378 . S
C1436 C1440 1.350 . S
C1437 C1440 1.463 . S
C1437 C1442 1.350 . S
C1437 N1445 1.427 . S
C1438 H1429 0.930 . S
C1438 C1436 1.378 . S
C1438 C1439 1.367 1_554 S
C1439 C1438 1.367 1_556 S
C1439 C1441 1.433 . S
C1440 C1436 1.350 . S
C1440 C1437 1.463 . S
C1440 N1444 1.427 . S
C1441 H1431 0.929 . S
C1441 C1439 1.433 . S
C1441 N1444 1.384 1_556 S
C1442 H1433 0.929 . S
C1442 C1434 1.378 . S
C1442 C1437 1.350 . S
C1443 H1430 0.929 . S
C1443 C1435 1.433 . S
C1443 N1445 1.384 . S
N1444 C1440 1.427 . S
N1444 C1441 1.384 1_554 S
N1445 C1437 1.427 . S
N1445 C1443 1.384 . S
H1446 C1452 0.930 . S
H1447 C1456 0.930 . S
H1448 C1461 0.929 . S
H1449 C1459 0.929 . S
H1450 C1454 0.929 . S
H1451 C1460 0.929 . S
C1452 H1446 0.930 . S
C1452 C1453 1.367 . S
C1452 C1460 1.378 . S
C1453 C1452 1.367 . S
C1453 C1461 1.433 . S
C1454 H1450 0.929 . S
C1454 C1456 1.378 . S
C1454 C1458 1.350 . S
C1455 C1458 1.463 . S
C1455 C1460 1.350 . S
C1455 N1463 1.427 . S
C1456 H1447 0.930 . S
C1456 C1454 1.378 . S
C1456 C1457 1.367 . S
C1457 C1456 1.367 . S
C1457 C1459 1.433 . S
C1458 C1454 1.350 . S
C1458 C1455 1.463 . S
C1458 N1462 1.427 . S
C1459 H1449 0.929 . S
C1459 C1457 1.433 . S
C1459 N1462 1.384 . S
C1460 H1451 0.929 . S
C1460 C1452 1.378 . S
C1460 C1455 1.350 . S
C1461 H1448 0.929 . S
C1461 C1453 1.433 . S
C1461 N1463 1.384 . S
N1462 C1458 1.427 . S
N1462 C1459 1.384 . S
N1463 C1455 1.427 . S
N1463 C1461 1.384 . S
H1464 C1470 0.930 . S
H1465 C1474 0.930 . S
H1466 C1479 0.929 . S
H1467 C1477 0.929 . S
H1468 C1472 0.929 . S
H1469 C1478 0.929 . S
C1470 H1464 0.930 . S
C1470 C1471 1.367 . S
C1470 C1478 1.378 . S
C1471 C1470 1.367 . S
C1471 C1479 1.433 . S
C1472 H1468 0.929 . S
C1472 C1474 1.378 . S
C1472 C1476 1.350 . S
C1473 C1476 1.463 . S
C1473 C1478 1.350 . S
C1473 N1481 1.427 . S
C1474 H1465 0.930 . S
C1474 C1472 1.378 . S
C1474 C1475 1.367 . S
C1475 C1474 1.367 . S
C1475 C1477 1.433 . S
C1476 C1472 1.350 . S
C1476 C1473 1.463 . S
C1476 N1480 1.427 . S
C1477 H1467 0.929 . S
C1477 C1475 1.433 . S
C1477 N1480 1.384 . S
C1478 H1469 0.929 . S
C1478 C1470 1.378 . S
C1478 C1473 1.350 . S
C1479 H1466 0.929 . S
C1479 C1471 1.433 . S
C1479 N1481 1.384 . S
N1480 C1476 1.427 . S
N1480 C1477 1.384 . S
N1481 C1473 1.427 . S
N1481 C1479 1.384 . S
H1482 C1488 0.930 . S
H1483 C1492 0.930 . S
H1484 C1497 0.929 . S
H1485 C1495 0.929 . S
H1486 C1490 0.929 . S
H1487 C1496 0.929 . S
C1488 H1482 0.930 . S
C1488 C1489 1.367 1_655 S
C1488 C1496 1.378 . S
C1489 C1488 1.367 1_455 S
C1489 C1497 1.433 . S
C1490 H1486 0.929 . S
C1490 C1492 1.378 . S
C1490 C1494 1.350 . S
C1491 C1494 1.463 . S
C1491 C1496 1.350 . S
C1491 N1499 1.427 . S
C1492 H1483 0.930 . S
C1492 C1490 1.378 . S
C1492 C1493 1.367 . S
C1493 C1492 1.367 . S
C1493 C1495 1.433 . S
C1494 C1490 1.350 . S
C1494 C1491 1.463 . S
C1494 N1498 1.427 . S
C1495 H1485 0.929 . S
C1495 C1493 1.433 . S
C1495 N1498 1.384 . S
C1496 H1487 0.929 . S
C1496 C1488 1.378 . S
C1496 C1491 1.350 . S
C1497 H1484 0.929 . S
C1497 C1489 1.433 . S
C1497 N1499 1.384 1_455 S
N1498 C1494 1.427 . S
N1498 C1495 1.384 . S
N1499 C1491 1.427 . S
N1499 C1497 1.384 1_655 S
H1500 C1506 0.930 . S
H1501 C1510 0.930 . S
H1502 C1515 0.929 . S
H1503 C1513 0.929 . S
H1504 C1508 0.933 . S
H1505 C1514 0.929 . S
C1506 H1500 0.930 . S
C1506 C1507 1.367 1_455 S
C1506 C1514 1.378 . S
C1507 C1506 1.367 1_655 S
C1507 C1515 1.433 . S
C1508 H1504 0.933 . S
C1508 C1510 1.378 . S
C1508 C1512 1.350 . S
C1509 C1512 1.463 . S
C1509 C1514 1.350 . S
C1509 N1517 1.427 1_455 S
C1510 H1501 0.930 . S
C1510 C1508 1.378 . S
C1510 C1511 1.367 . S
C1511 C1510 1.367 . S
C1511 C1513 1.433 . S
C1512 C1508 1.350 . S
C1512 C1509 1.463 . S
C1512 N1516 1.427 . S
C1513 H1503 0.929 . S
C1513 C1511 1.433 . S
C1513 N1516 1.384 . S
C1514 H1505 0.929 . S
C1514 C1506 1.378 . S
C1514 C1509 1.350 . S
C1515 H1502 0.929 . S
C1515 C1507 1.433 . S
C1515 N1517 1.384 . S
N1516 C1512 1.427 . S
N1516 C1513 1.384 . S
N1517 C1509 1.427 1_655 S
N1517 C1515 1.384 . S
H1518 C1524 0.930 . S
H1519 C1528 0.930 . S
H1520 C1533 0.929 . S
H1521 C1531 0.929 . S
H1522 C1526 0.929 . S
H1523 C1532 0.929 . S
C1524 H1518 0.930 . S
C1524 C1525 1.367 . S
C1524 C1532 1.378 . S
C1525 C1524 1.367 . S
C1525 C1533 1.433 . S
C1526 H1522 0.929 . S
C1526 C1528 1.378 . S
C1526 C1530 1.350 . S
C1527 C1530 1.463 . S
C1527 C1532 1.350 . S
C1527 N1535 1.427 . S
C1528 H1519 0.930 . S
C1528 C1526 1.378 . S
C1528 C1529 1.367 . S
C1529 C1528 1.367 . S
C1529 C1531 1.433 . S
C1530 C1526 1.350 . S
C1530 C1527 1.463 . S
C1530 N1534 1.427 . S
C1531 H1521 0.929 . S
C1531 C1529 1.433 . S
C1531 N1534 1.384 . S
C1532 H1523 0.929 . S
C1532 C1524 1.378 . S
C1532 C1527 1.350 . S
C1533 H1520 0.929 . S
C1533 C1525 1.433 . S
C1533 N1535 1.384 . S
N1534 C1530 1.427 . S
N1534 C1531 1.384 . S
N1535 C1527 1.427 . S
N1535 C1533 1.384 . S
H1536 C1542 0.930 . S
H1537 C1546 0.930 . S
H1538 C1551 0.929 . S
H1539 C1549 0.929 . S
H1540 C1544 0.929 . S
H1541 C1550 0.929 . S
C1542 H1536 0.930 . S
C1542 C1543 1.367 . S
C1542 C1550 1.378 . S
C1543 C1542 1.367 . S
C1543 C1551 1.433 . S
C1544 H1540 0.929 . S
C1544 C1546 1.378 . S
C1544 C1548 1.350 . S
C1545 C1548 1.463 . S
C1545 C1550 1.350 . S
C1545 N1553 1.427 . S
C1546 H1537 0.930 . S
C1546 C1544 1.378 . S
C1546 C1547 1.367 . S
C1547 C1546 1.367 . S
C1547 C1549 1.433 . S
C1548 C1544 1.350 . S
C1548 C1545 1.463 . S
C1548 N1552 1.427 . S
C1549 H1539 0.929 . S
C1549 C1547 1.433 . S
C1549 N1552 1.384 . S
C1550 H1541 0.929 . S
C1550 C1542 1.378 . S
C1550 C1545 1.350 . S
C1551 H1538 0.929 . S
C1551 C1543 1.433 . S
C1551 N1553 1.384 . S
N1552 C1548 1.427 . S
N1552 C1549 1.384 . S
N1553 C1545 1.427 . S
N1553 C1551 1.384 . S
H1554 C1560 0.930 . S
H1555 C1564 0.930 . S
H1556 C1569 0.929 . S
H1557 C1567 0.929 . S
H1558 C1562 0.929 . S
H1559 C1568 0.929 . S
C1560 H1554 0.930 . S
C1560 C1561 1.367 . S
C1560 C1568 1.378 1_655 S
C1561 C1560 1.367 . S
C1561 C1569 1.433 1_655 S
C1562 H1558 0.929 . S
C1562 C1564 1.378 . S
C1562 C1566 1.350 . S
C1563 C1566 1.463 . S
C1563 C1568 1.350 . S
C1563 N1571 1.427 . S
C1564 H1555 0.930 . S
C1564 C1562 1.378 . S
C1564 C1565 1.367 . S
C1565 C1564 1.367 . S
C1565 C1567 1.433 . S
C1566 C1562 1.350 . S
C1566 C1563 1.463 . S
C1566 N1570 1.427 . S
C1567 H1557 0.929 . S
C1567 C1565 1.433 . S
C1567 N1570 1.384 . S
C1568 H1559 0.929 . S
C1568 C1560 1.378 1_455 S
C1568 C1563 1.350 . S
C1569 H1556 0.929 . S
C1569 C1561 1.433 1_455 S
C1569 N1571 1.384 . S
N1570 C1566 1.427 . S
N1570 C1567 1.384 . S
N1571 C1563 1.427 . S
N1571 C1569 1.384 . S
H1572 C1578 0.930 . S
H1573 C1582 0.930 . S
H1574 C1587 0.929 . S
H1575 C1585 0.929 . S
H1576 C1580 0.929 . S
H1577 C1586 0.929 . S
C1578 H1572 0.930 . S
C1578 C1579 1.367 . S
C1578 C1586 1.378 . S
C1579 C1578 1.367 . S
C1579 C1587 1.433 . S
C1580 H1576 0.929 . S
C1580 C1582 1.378 . S
C1580 C1584 1.350 . S
C1581 C1584 1.463 . S
C1581 C1586 1.350 . S
C1581 N1589 1.427 . S
C1582 H1573 0.930 . S
C1582 C1580 1.378 . S
C1582 C1583 1.367 . S
C1583 C1582 1.367 . S
C1583 C1585 1.433 . S
C1584 C1580 1.350 . S
C1584 C1581 1.463 . S
C1584 N1588 1.427 . S
C1585 H1575 0.929 . S
C1585 C1583 1.433 . S
C1585 N1588 1.384 . S
C1586 H1577 0.929 . S
C1586 C1578 1.378 . S
C1586 C1581 1.350 . S
C1587 H1574 0.929 . S
C1587 C1579 1.433 . S
C1587 N1589 1.384 . S
N1588 C1584 1.427 . S
N1588 C1585 1.384 . S
N1589 C1581 1.427 . S
N1589 C1587 1.384 . S
H1590 C1596 0.930 . S
H1591 C1600 0.930 . S
H1592 C1605 0.929 . S
H1593 C1603 0.929 . S
H1594 C1598 0.929 . S
H1595 C1604 0.929 . S
C1596 H1590 0.930 . S
C1596 C1597 1.367 . S
C1596 C1604 1.378 . S
C1597 C1596 1.367 . S
C1597 C1605 1.433 . S
C1598 H1594 0.929 . S
C1598 C1600 1.378 . S
C1598 C1602 1.350 1_455 S
C1599 C1602 1.463 . S
C1599 C1604 1.350 . S
C1599 N1607 1.427 . S
C1600 H1591 0.930 . S
C1600 C1598 1.378 . S
C1600 C1601 1.367 . S
C1601 C1600 1.367 . S
C1601 C1603 1.433 1_455 S
C1602 C1598 1.350 1_655 S
C1602 C1599 1.463 . S
C1602 N1606 1.427 . S
C1603 H1593 0.929 . S
C1603 C1601 1.433 1_655 S
C1603 N1606 1.384 . S
C1604 H1595 0.929 . S
C1604 C1596 1.378 . S
C1604 C1599 1.350 . S
C1605 H1592 0.929 . S
C1605 C1597 1.433 . S
C1605 N1607 1.384 . S
N1606 C1602 1.427 . S
N1606 C1603 1.384 . S
N1607 C1599 1.427 . S
N1607 C1605 1.384 . S
H1608 C1614 0.930 . S
H1609 C1618 0.930 . S
H1610 C1623 0.929 . S
H1611 C1621 0.929 . S
H1612 C1616 0.929 . S
H1613 C1622 0.929 . S
C1614 H1608 0.930 . S
C1614 C1615 1.367 . S
C1614 C1622 1.378 . S
C1615 C1614 1.367 . S
C1615 C1623 1.433 . S
C1616 H1612 0.929 . S
C1616 C1618 1.378 . S
C1616 C1620 1.350 . S
C1617 C1620 1.463 . S
C1617 C1622 1.350 . S
C1617 N1625 1.427 . S
C1618 H1609 0.930 . S
C1618 C1616 1.378 . S
C1618 C1619 1.367 . S
C1619 C1618 1.367 . S
C1619 C1621 1.433 . S
C1620 C1616 1.350 . S
C1620 C1617 1.463 . S
C1620 N1624 1.427 . S
C1621 H1611 0.929 . S
C1621 C1619 1.433 . S
C1621 N1624 1.384 . S
C1622 H1613 0.929 . S
C1622 C1614 1.378 . S
C1622 C1617 1.350 . S
C1623 H1610 0.929 . S
C1623 C1615 1.433 . S
C1623 N1625 1.384 . S
N1624 C1620 1.427 . S
N1624 C1621 1.384 . S
N1625 C1617 1.427 . S
N1625 C1623 1.384 . S
H1626 C1632 0.930 . S
H1627 C1636 0.930 . S
H1628 C1641 0.929 . S
H1629 C1639 0.929 1_455 S
H1630 C1634 0.929 . S
H1631 C1640 0.929 . S
C1632 H1626 0.930 . S
C1632 C1633 1.367 . S
C1632 C1640 1.378 . S
C1633 C1632 1.367 . S
C1633 C1641 1.433 . S
C1634 H1630 0.929 . S
C1634 C1636 1.378 . S
C1634 C1638 1.350 1_655 S
C1635 C1638 1.463 . S
C1635 C1640 1.350 . S
C1635 N1643 1.427 . S
C1636 H1627 0.930 . S
C1636 C1634 1.378 . S
C1636 C1637 1.367 . S
C1637 C1636 1.367 . S
C1637 C1639 1.433 . S
C1638 C1634 1.350 1_455 S
C1638 C1635 1.463 . S
C1638 N1642 1.427 . S
C1639 H1629 0.929 1_655 S
C1639 C1637 1.433 . S
C1639 N1642 1.384 1_655 S
C1640 H1631 0.929 . S
C1640 C1632 1.378 . S
C1640 C1635 1.350 . S
C1641 H1628 0.929 . S
C1641 C1633 1.433 . S
C1641 N1643 1.384 . S
N1642 C1638 1.427 . S
N1642 C1639 1.384 1_455 S
N1643 C1635 1.427 . S
N1643 C1641 1.384 . S
H1644 C1650 0.930 . S
H1645 C1654 0.930 1_556 S
H1646 C1659 0.929 . S
H1647 C1657 0.929 . S
H1648 C1652 0.929 . S
H1649 C1658 0.929 1_554 S
C1650 H1644 0.930 . S
C1650 C1651 1.367 . S
C1650 C1658 1.378 . S
C1651 C1650 1.367 . S
C1651 C1659 1.433 . S
C1652 H1648 0.929 . S
C1652 C1654 1.378 1_556 S
C1652 C1656 1.350 . S
C1653 C1656 1.463 . S
C1653 C1658 1.350 . S
C1653 N1661 1.427 . S
C1654 H1645 0.930 1_554 S
C1654 C1652 1.378 1_554 S
C1654 C1655 1.367 . S
C1655 C1654 1.367 . S
C1655 C1657 1.433 . S
C1656 C1652 1.350 . S
C1656 C1653 1.463 . S
C1656 N1660 1.427 1_556 S
C1657 H1647 0.929 . S
C1657 C1655 1.433 . S
C1657 N1660 1.384 . S
C1658 H1649 0.929 1_556 S
C1658 C1650 1.378 . S
C1658 C1653 1.350 . S
C1659 H1646 0.929 . S
C1659 C1651 1.433 . S
C1659 N1661 1.384 . S
N1660 C1656 1.427 1_554 S
N1660 C1657 1.384 . S
N1661 C1653 1.427 . S
N1661 C1659 1.384 . S
H1662 C1668 0.930 . S
H1663 C1672 0.930 . S
H1664 C1677 0.929 . S
H1665 C1675 0.929 . S
H1666 C1670 0.929 . S
H1667 C1676 0.929 . S
C1668 H1662 0.930 . S
C1668 C1669 1.367 . S
C1668 C1676 1.378 . S
C1669 C1668 1.367 . S
C1669 C1677 1.433 . S
C1670 H1666 0.929 . S
C1670 C1672 1.378 . S
C1670 C1674 1.350 . S
C1671 C1674 1.463 . S
C1671 C1676 1.350 . S
C1671 N1679 1.427 . S
C1672 H1663 0.930 . S
C1672 C1670 1.378 . S
C1672 C1673 1.367 . S
C1673 C1672 1.367 . S
C1673 C1675 1.433 . S
C1674 C1670 1.350 . S
C1674 C1671 1.463 . S
C1674 N1678 1.427 . S
C1675 H1665 0.929 . S
C1675 C1673 1.433 . S
C1675 N1678 1.384 . S
C1676 H1667 0.929 . S
C1676 C1668 1.378 . S
C1676 C1671 1.350 . S
C1677 H1664 0.929 . S
C1677 C1669 1.433 . S
C1677 N1679 1.384 . S
N1678 C1674 1.427 . S
N1678 C1675 1.384 . S
N1679 C1671 1.427 . S
N1679 C1677 1.384 . S
H1680 C1686 0.930 . S
H1681 C1690 0.930 . S
H1682 C1695 0.929 . S
H1683 C1693 0.929 . S
H1684 C1688 0.929 . S
H1685 C1694 0.929 . S
C1686 H1680 0.930 . S
C1686 C1687 1.367 . S
C1686 C1694 1.378 . S
C1687 C1686 1.367 . S
C1687 C1695 1.433 . S
C1688 H1684 0.929 . S
C1688 C1690 1.378 . S
C1688 C1692 1.350 . S
C1689 C1692 1.463 . S
C1689 C1694 1.350 . S
C1689 N1697 1.427 . S
C1690 H1681 0.930 . S
C1690 C1688 1.378 . S
C1690 C1691 1.367 . S
C1691 C1690 1.367 . S
C1691 C1693 1.433 . S
C1692 C1688 1.350 . S
C1692 C1689 1.463 . S
C1692 N1696 1.427 . S
C1693 H1683 0.929 . S
C1693 C1691 1.433 . S
C1693 N1696 1.384 . S
C1694 H1685 0.929 . S
C1694 C1686 1.378 . S
C1694 C1689 1.350 . S
C1695 H1682 0.929 . S
C1695 C1687 1.433 . S
C1695 N1697 1.384 . S
N1696 C1692 1.427 . S
N1696 C1693 1.384 . S
N1697 C1689 1.427 . S
N1697 C1695 1.384 . S
H1698 C1704 0.930 . S
H1699 C1708 0.930 . S
H1700 C1713 0.929 . S
H1701 C1711 0.929 . S
H1702 C1706 0.929 1_655 S
H1703 C1712 0.929 . S
C1704 H1698 0.930 . S
C1704 C1705 1.367 . S
C1704 C1712 1.378 . S
C1705 C1704 1.367 . S
C1705 C1713 1.433 . S
C1706 H1702 0.929 1_455 S
C1706 C1708 1.378 . S
C1706 C1710 1.350 1_455 S
C1707 C1710 1.463 . S
C1707 C1712 1.350 . S
C1707 N1715 1.427 . S
C1708 H1699 0.930 . S
C1708 C1706 1.378 . S
C1708 C1709 1.367 . S
C1709 C1708 1.367 . S
C1709 C1711 1.433 . S
C1710 C1706 1.350 1_655 S
C1710 C1707 1.463 . S
C1710 N1714 1.427 1_655 S
C1711 H1701 0.929 . S
C1711 C1709 1.433 . S
C1711 N1714 1.384 . S
C1712 H1703 0.929 . S
C1712 C1704 1.378 . S
C1712 C1707 1.350 . S
C1713 H1700 0.929 . S
C1713 C1705 1.433 . S
C1713 N1715 1.384 . S
N1714 C1710 1.427 1_455 S
N1714 C1711 1.384 . S
N1715 C1707 1.427 . S
N1715 C1713 1.384 . S
H1716 C1722 0.930 . S
H1717 C1726 0.930 . S
H1718 C1731 0.929 . S
H1719 C1729 0.929 . S
H1720 C1724 0.929 . S
H1721 C1730 0.929 . S
C1722 H1716 0.930 . S
C1722 C1723 1.367 . S
C1722 C1730 1.378 . S
C1723 C1722 1.367 . S
C1723 C1731 1.433 . S
C1724 H1720 0.929 . S
C1724 C1726 1.378 . S
C1724 C1728 1.350 1_556 S
C1725 C1728 1.463 . S
C1725 C1730 1.350 . S
C1725 N1733 1.427 . S
C1726 H1717 0.930 . S
C1726 C1724 1.378 . S
C1726 C1727 1.367 . S
C1727 C1726 1.367 . S
C1727 C1729 1.433 . S
C1728 C1724 1.350 1_554 S
C1728 C1725 1.463 . S
C1728 N1732 1.425 1_554 S
C1729 H1719 0.929 . S
C1729 C1727 1.433 . S
C1729 N1732 1.396 . S
C1730 H1721 0.929 . S
C1730 C1722 1.378 . S
C1730 C1725 1.350 . S
C1731 H1718 0.929 . S
C1731 C1723 1.433 . S
C1731 N1733 1.384 . S
N1732 C1728 1.425 1_556 S
N1732 C1729 1.396 . S
N1733 C1725 1.427 . S
N1733 C1731 1.384 . S
H1734 C1740 0.930 . S
H1735 C1744 0.930 . S
H1736 C1749 0.929 . S
H1737 C1747 0.929 . S
H1738 C1742 0.929 . S
H1739 C1748 0.929 . S
C1740 H1734 0.930 . S
C1740 C1741 1.367 . S
C1740 C1748 1.378 . S
C1741 C1740 1.367 . S
C1741 C1749 1.433 . S
C1742 H1738 0.929 . S
C1742 C1744 1.378 . S
C1742 C1746 1.350 . S
C1743 C1746 1.463 . S
C1743 C1748 1.350 . S
C1743 N1751 1.427 . S
C1744 H1735 0.930 . S
C1744 C1742 1.378 . S
C1744 C1745 1.367 . S
C1745 C1744 1.367 . S
C1745 C1747 1.433 . S
C1746 C1742 1.350 . S
C1746 C1743 1.463 . S
C1746 N1750 1.427 . S
C1747 H1737 0.929 . S
C1747 C1745 1.433 . S
C1747 N1750 1.384 . S
C1748 H1739 0.929 . S
C1748 C1740 1.378 . S
C1748 C1743 1.350 . S
C1749 H1736 0.929 . S
C1749 C1741 1.433 . S
C1749 N1751 1.384 . S
N1750 C1746 1.427 . S
N1750 C1747 1.384 . S
N1751 C1743 1.427 . S
N1751 C1749 1.384 . S
H1752 C1758 0.930 . S
H1753 C1762 0.930 . S
H1754 C1767 0.929 . S
H1755 C1765 0.929 . S
H1756 C1760 0.929 . S
H1757 C1766 0.929 . S
C1758 H1752 0.930 . S
C1758 C1759 1.367 . S
C1758 C1766 1.378 . S
C1759 C1758 1.367 . S
C1759 C1767 1.433 . S
C1760 H1756 0.929 . S
C1760 C1762 1.378 . S
C1760 C1764 1.350 . S
C1761 C1764 1.463 . S
C1761 C1766 1.350 . S
C1761 N1769 1.427 . S
C1762 H1753 0.930 . S
C1762 C1760 1.378 . S
C1762 C1763 1.367 . S
C1763 C1762 1.367 . S
C1763 C1765 1.433 . S
C1764 C1760 1.350 . S
C1764 C1761 1.463 . S
C1764 N1768 1.427 . S
C1765 H1755 0.929 . S
C1765 C1763 1.433 . S
C1765 N1768 1.384 . S
C1766 H1757 0.929 . S
C1766 C1758 1.378 . S
C1766 C1761 1.350 . S
C1767 H1754 0.929 . S
C1767 C1759 1.433 . S
C1767 N1769 1.384 . S
N1768 C1764 1.427 . S
N1768 C1765 1.384 . S
N1769 C1761 1.427 . S
N1769 C1767 1.384 . S
H1770 C1776 0.930 . S
H1771 C1780 0.930 1_545 S
H1772 C1785 0.929 . S
H1773 C1783 0.929 . S
H1774 C1778 0.929 . S
H1775 C1784 0.929 1_565 S
C1776 H1770 0.930 . S
C1776 C1777 1.367 . S
C1776 C1784 1.378 . S
C1777 C1776 1.367 . S
C1777 C1785 1.433 . S
C1778 H1774 0.929 . S
C1778 C1780 1.378 1_545 S
C1778 C1782 1.350 . S
C1779 C1782 1.463 . S
C1779 C1784 1.350 . S
C1779 N1787 1.427 . S
C1780 H1771 0.930 1_565 S
C1780 C1778 1.378 1_565 S
C1780 C1781 1.367 . S
C1781 C1780 1.367 . S
C1781 C1783 1.433 . S
C1782 C1778 1.350 . S
C1782 C1779 1.463 . S
C1782 N1786 1.427 1_545 S
C1783 H1773 0.929 . S
C1783 C1781 1.433 . S
C1783 N1786 1.384 . S
C1784 H1775 0.929 1_545 S
C1784 C1776 1.378 . S
C1784 C1779 1.350 . S
C1785 H1772 0.929 . S
C1785 C1777 1.433 . S
C1785 N1787 1.384 . S
N1786 C1782 1.427 1_565 S
N1786 C1783 1.384 . S
N1787 C1779 1.427 . S
N1787 C1785 1.384 . S
H1788 C1794 0.930 . S
H1789 C1798 0.930 . S
H1790 C1803 0.929 . S
H1791 C1801 0.929 . S
H1792 C1796 0.929 . S
H1793 C1802 0.929 . S
C1794 H1788 0.930 . S
C1794 C1795 1.367 . S
C1794 C1802 1.378 . S
C1795 C1794 1.367 . S
C1795 C1803 1.433 . S
C1796 H1792 0.929 . S
C1796 C1798 1.378 . S
C1796 C1800 1.350 . S
C1797 C1800 1.463 . S
C1797 C1802 1.350 1_565 S
C1797 N1805 1.427 1_565 S
C1798 H1789 0.930 . S
C1798 C1796 1.378 . S
C1798 C1799 1.367 . S
C1799 C1798 1.367 . S
C1799 C1801 1.433 . S
C1800 C1796 1.350 . S
C1800 C1797 1.463 . S
C1800 N1804 1.427 . S
C1801 H1791 0.929 . S
C1801 C1799 1.433 . S
C1801 N1804 1.384 . S
C1802 H1793 0.929 . S
C1802 C1794 1.378 . S
C1802 C1797 1.350 1_545 S
C1803 H1790 0.929 . S
C1803 C1795 1.433 . S
C1803 N1805 1.384 . S
N1804 C1800 1.427 . S
N1804 C1801 1.384 . S
N1805 C1797 1.427 1_545 S
N1805 C1803 1.384 . S
H1806 C1812 0.930 . S
H1807 C1816 0.930 . S
H1808 C1821 0.929 . S
H1809 C1819 0.929 . S
H1810 C1814 0.929 . S
H1811 C1820 0.929 . S
C1812 H1806 0.930 . S
C1812 C1813 1.367 . S
C1812 C1820 1.378 . S
C1813 C1812 1.367 . S
C1813 C1821 1.433 . S
C1814 H1810 0.929 . S
C1814 C1816 1.378 . S
C1814 C1818 1.350 . S
C1815 C1818 1.463 . S
C1815 C1820 1.350 . S
C1815 N1823 1.427 . S
C1816 H1807 0.930 . S
C1816 C1814 1.378 . S
C1816 C1817 1.367 . S
C1817 C1816 1.367 . S
C1817 C1819 1.433 . S
C1818 C1814 1.350 . S
C1818 C1815 1.463 . S
C1818 N1822 1.427 . S
C1819 H1809 0.929 . S
C1819 C1817 1.433 . S
C1819 N1822 1.384 . S
C1820 H1811 0.929 . S
C1820 C1812 1.378 . S
C1820 C1815 1.350 . S
C1821 H1808 0.929 . S
C1821 C1813 1.433 . S
C1821 N1823 1.384 . S
N1822 C1818 1.427 . S
N1822 C1819 1.384 . S
N1823 C1815 1.427 . S
N1823 C1821 1.384 . S
C535 C8 0.943 . S
C539 C348 0.933 . S
C553 C282 0.943 . S
C557 C32 0.936 . S
C571 C294 0.932 . S
C575 C52 0.924 . S
C589 C76 0.942 . S
C593 C316 0.938 . S
C607 C96 0.932 . S
C611 C206 0.924 . S
C625 C120 0.925 . S
C629 C228 0.929 . S
C643 C150 0.932 . S
C647 C252 0.924 . S
C661 C172 0.941 . S
C665 C194 0.940 . S
C679 C362 0.926 . S
C683 C448 0.928 . S
C697 C382 0.936 . S
C701 C516 0.925 . S
C715 C406 0.935 . S
C719 C480 0.924 . S
C733 C426 0.942 . S
C737 C502 0.939 . S
C751 C469 1.249 . S
C755 C15 1.235 . S
C769 C29 1.240 . S
C773 C491 1.259 . S
C787 C59 1.233 . S
C791 C367 1.261 1_556 S
C805 C73 1.235 . S
C809 C521 1.261 . S
C823 C439 1.251 . S
C827 C103 1.231 . S
C841 C461 1.257 . S
C845 C117 1.242 . S
C859 C153 1.243 . S
C863 C395 1.255 1_554 S
C877 C175 1.242 . S
C881 C411 1.257 . S
C895 C197 1.241 . S
C899 C109 1.258 . S
C913 C213 1.230 . S
C917 C125 1.261 . S
C931 C235 1.234 . S
C935 C139 1.261 1_455 S
C949 C249 1.242 . S
C953 C161 1.250 . S
C967 C21 1.251 1_655 S
C971 C285 1.243 . S
C985 C301 1.227 . S
C989 C37 1.257 . S
C1003 C323 1.232 . S
C1007 C65 1.261 . S
C1021 C351 1.228 . S
C1025 C81 1.259 . S
C1039 C329 1.261 . S
C1043 C359 1.230 . S
C1057 C241 1.251 1_545 S
C1061 C389 1.231 . S
C1075 C403 1.241 . S
C1079 C257 1.258 . S
C1093 C183 1.249 1_565 S
C1097 C433 1.240 . S
C1111 C455 1.228 . S
C1115 C219 1.254 . S
C1129 C271 1.251 . S
C1133 C483 1.231 . S
C1147 C307 1.261 . S
C1151 C505 1.231 . S
C1165 C337 1.253 . S
C1169 C513 1.229 . S
C1183 C404 1.413 . S
C1187 C10 1.448 . S
C1201 C40 1.442 . S
C1205 C436 1.412 . S
C1219 C458 1.423 . S
C1223 C54 1.440 . S
C1237 C84 1.449 . S
C1241 C392 1.412 . S
C1255 C494 1.412 . S
C1259 C98 1.449 . S
C1273 C360 1.424 . S
C1277 C128 1.439 . S
C1291 C514 1.415 . S
C1295 C140 1.440 . S
C1309 C472 1.409 . S
C1313 C162 1.449 . S
C1327 C216 1.411 . S
C1331 C184 1.443 . S
C1345 C238 1.419 . S
C1349 C208 1.437 . S
C1363 C230 1.449 . S
C1367 C250 1.408 . S
C1381 C260 1.449 . S
C1385 C186 1.409 . S
C1399 C340 1.420 . S
C1403 C272 1.443 . S
C1417 C274 1.419 . S
C1421 C296 1.437 . S
C1435 C318 1.441 . S
C1439 C304 1.413 . S
C1453 C338 1.437 . S
C1457 C326 1.425 . S
C1471 C74 1.424 . S
C1475 C370 1.439 . S
C1489 C118 1.424 . S
C1493 C384 1.437 . S
C1507 C142 1.408 . S
C1511 C414 1.449 . S
C1525 C164 1.412 . S
C1529 C428 1.442 . S
C1543 C106 1.424 . S
C1547 C450 1.438 . S
C1561 C30 1.408 . S
C1565 C470 1.449 . S
C1579 C62 1.424 . S
C1583 C492 1.436 . S
C1597 C524 1.436 . S
C1601 C18 1.423 . S
C1615 C7 1.624 . S
C1619 C205 1.625 . S
C1633 C227 1.624 . S
C1637 C43 1.627 . S
C1651 C51 1.626 . S
C1655 C263 1.623 . S
C1669 C87 1.623 . S
C1673 C191 1.625 . S
C1687 C95 1.625 . S
C1691 C345 1.624 . S
C1705 C279 1.624 . S
C1709 C131 1.625 . S
C1723 C147 1.623 . S
C1727 C293 1.625 . S
C1741 C169 1.625 . S
C1745 C315 1.626 . S
C1759 C373 1.623 . S
C1763 C417 1.625 . S
C1777 C381 1.626 . S
C1781 C499 1.623 . S
C1795 C527 1.625 . S
C1799 C425 1.623 . S
C1813 C447 1.623 . S
C1817 C477 1.626 . S
