# Generated by pormake.
# Topology uog, (4)-cn, num edge types: 1
# Building blocks:
#     Node 0, Type 0, BuildingBlock: QUQFOY_clean_sbu_1, # of connection points: 4
#     Node 1, Type 0, BuildingBlock: QUQFOY_clean_sbu_1, # of connection points: 4
#     Node 2, Type 0, BuildingBlock: QUQFOY_clean_sbu_1, # of connection points: 4
#     Node 3, Type 0, BuildingBlock: QUQFOY_clean_sbu_1, # of connection points: 4
#     Node 4, Type 0, BuildingBlock: QUQFOY_clean_sbu_1, # of connection points: 4
#     Node 5, Type 0, BuildingBlock: QUQFOY_clean_sbu_1, # of connection points: 4
#     Edge 6, Type (0, 0), BuildingBlock: ZUJKAS_clean_linker_0, # of connection points: 2
#     Edge 7, Type (0, 0), BuildingBlock: ZUJKAS_clean_linker_0, # of connection points: 2
#     Edge 8, Type (0, 0), BuildingBlock: ZUJKAS_clean_linker_0, # of connection points: 2
#     Edge 9, Type (0, 0), BuildingBlock: ZUJKAS_clean_linker_0, # of connection points: 2
#     Edge 10, Type (0, 0), BuildingBlock: ZUJKAS_clean_linker_0, # of connection points: 2
#     Edge 11, Type (0, 0), BuildingBlock: ZUJKAS_clean_linker_0, # of connection points: 2
#     Edge 12, Type (0, 0), BuildingBlock: ZUJKAS_clean_linker_0, # of connection points: 2
#     Edge 13, Type (0, 0), BuildingBlock: ZUJKAS_clean_linker_0, # of connection points: 2
#     Edge 14, Type (0, 0), BuildingBlock: ZUJKAS_clean_linker_0, # of connection points: 2
#     Edge 15, Type (0, 0), BuildingBlock: ZUJKAS_clean_linker_0, # of connection points: 2
#     Edge 16, Type (0, 0), BuildingBlock: ZUJKAS_clean_linker_0, # of connection points: 2
#     Edge 17, Type (0, 0), BuildingBlock: ZUJKAS_clean_linker_0, # of connection points: 2
# Relax obj value: 0.088
# Max RMSD: 0.155
# Mean RMSD: 0.155
data_MOF--net-uog--node1-QUQFOY_clean_sbu_1--edge1-ZUJKAS_clean_linker_0
_symmetry_space_group_name_H-M    P1
_symmetry_Int_Tables_number       1
_symmetry_cell_setting            triclinic
loop_
_symmetry_equiv_pos_as_xyz
'x, y, z'
_cell_length_a     37.624423
_cell_length_b     37.692301
_cell_length_c     57.007294
_cell_angle_alpha  90.052815
_cell_angle_beta   90.035733
_cell_angle_gamma 119.86706
loop_
_atom_site_label
_atom_site_type_symbol
_atom_site_fract_x
_atom_site_fract_y
_atom_site_fract_z
_atom_type_partial_charge
O0 O 0.61017 0.36703 0.17146 0.0
Cd1 Cd 0.64088 0.33495 0.17029 0.0
Cd2 Cd 0.56524 0.27467 0.15545 0.0
O3 O 0.54685 0.31557 0.16721 0.0
O4 O 0.68442 0.35672 0.1954 0.0
O5 O 0.62795 0.29622 0.19664 0.0
C6 C 0.66078 0.3236 0.20686 0.0
C7 C 0.53761 0.20601 0.16653 0.0
C8 C 0.57172 0.35341 0.17116 0.0
C9 C 0.63578 0.31043 0.12064 0.0
O10 O 0.59742 0.28957 0.12443 0.0
O11 O 0.66065 0.32896 0.1374 0.0
O12 O 0.51877 0.21654 0.15155 0.0
O13 O 0.57037 0.23465 0.17613 0.0
O14 O 0.24818 0.6135 0.50672 0.0
Cd15 Cd 0.31076 0.64623 0.50548 0.0
Cd16 Cd 0.29913 0.57253 0.48924 0.0
O17 O 0.23834 0.55169 0.49922 0.0
O18 O 0.33004 0.6882 0.53126 0.0
O19 O 0.34012 0.63517 0.53084 0.0
C20 C 0.34295 0.66639 0.54181 0.0
C21 C 0.33923 0.54354 0.50026 0.0
C22 C 0.2242 0.57522 0.50451 0.0
C23 C 0.33315 0.64562 0.45597 0.0
O24 O 0.31905 0.60752 0.45915 0.0
O25 O 0.33524 0.66878 0.47281 0.0
O26 O 0.31141 0.52667 0.48425 0.0
O27 O 0.34224 0.57506 0.51094 0.0
O28 O 0.63966 0.24274 0.83879 0.0
Cd29 Cd 0.67053 0.30532 0.83742 0.0
Cd30 Cd 0.73176 0.29113 0.8229 0.0
O31 O 0.69211 0.23211 0.83526 0.0
O32 O 0.64671 0.32532 0.86231 0.0
O33 O 0.70908 0.33349 0.86369 0.0
C34 C 0.68045 0.33715 0.87377 0.0
C35 C 0.80018 0.33436 0.834 0.0
C36 C 0.65402 0.21853 0.8389 0.0
C37 C 0.6945 0.32391 0.7877 0.0
O38 O 0.71581 0.30684 0.79161 0.0
O39 O 0.67589 0.33031 0.8044 0.0
O40 O 0.79063 0.30415 0.81981 0.0
O41 O 0.77073 0.33804 0.84287 0.0
O42 O 0.40092 0.63714 0.17187 0.0
Cd43 Cd 0.37008 0.6691 0.17076 0.0
Cd44 Cd 0.4457 0.72978 0.15612 0.0
O45 O 0.46412 0.68897 0.16799 0.0
O46 O 0.32707 0.64802 0.19613 0.0
O47 O 0.38382 0.70832 0.19697 0.0
C48 C 0.35113 0.6813 0.20741 0.0
C49 C 0.47371 0.79863 0.16703 0.0
C50 C 0.43942 0.65105 0.17177 0.0
C51 C 0.37515 0.69381 0.12117 0.0
O52 O 0.4135 0.71472 0.12505 0.0
O53 O 0.35028 0.67521 0.13788 0.0
O54 O 0.49234 0.78779 0.1521 0.0
O55 O 0.44094 0.77022 0.17667 0.0
O56 O 0.76867 0.40017 0.50585 0.0
Cd57 Cd 0.70609 0.36716 0.50456 0.0
Cd58 Cd 0.71731 0.44037 0.48805 0.0
O59 O 0.77823 0.46173 0.49801 0.0
O60 O 0.68745 0.32514 0.53017 0.0
O61 O 0.67638 0.37754 0.53002 0.0
C62 C 0.67409 0.34647 0.54085 0.0
C63 C 0.67683 0.46883 0.49922 0.0
C64 C 0.79253 0.43842 0.50349 0.0
C65 C 0.68342 0.36686 0.45501 0.0
O66 O 0.69734 0.40499 0.45804 0.0
O67 O 0.68158 0.34406 0.47196 0.0
O68 O 0.70442 0.4858 0.48314 0.0
O69 O 0.67423 0.43748 0.50985 0.0
O70 O 0.3708 0.76505 0.84029 0.0
Cd71 Cd 0.33996 0.70252 0.83812 0.0
Cd72 Cd 0.27956 0.71732 0.82249 0.0
O73 O 0.3191 0.77635 0.83495 0.0
O74 O 0.36361 0.68219 0.86293 0.0
O75 O 0.30099 0.67337 0.86406 0.0
C76 C 0.32966 0.66984 0.87421 0.0
C77 C 0.21116 0.67432 0.83355 0.0
C78 C 0.35679 0.78953 0.83971 0.0
C79 C 0.31771 0.68458 0.78793 0.0
O80 O 0.29593 0.70126 0.79146 0.0
O81 O 0.33609 0.67849 0.80491 0.0
O82 O 0.22074 0.70429 0.81921 0.0
O83 O 0.2406 0.67069 0.84252 0.0
H84 H 0.48559 0.13902 0.14039 0.0
H85 H 0.47436 0.06953 0.14408 0.0
H86 H 0.55034 0.10536 0.20605 0.0
H87 H 0.56274 0.17515 0.20201 0.0
H88 H 0.57316 0.06648 0.17651 0.0
H89 H 0.40474 0.97581 0.18661 0.0
H90 H 0.41937 0.00684 0.1607 0.0
H91 H 0.43267 0.03083 0.18915 0.0
C92 C 0.49915 0.13186 0.1551 0.0
C93 C 0.525 0.16258 0.17092 0.0
C94 C 0.49262 0.09203 0.15723 0.0
C95 C 0.51117 0.08197 0.17549 0.0
C96 C 0.5357 0.11231 0.19182 0.0
H97 H 0.44931 0.83013 0.20253 0.0
H98 H 0.46194 0.90004 0.20641 0.0
C99 C 0.54262 0.15218 0.18954 0.0
C100 C 0.50759 0.04085 0.1766 0.0
H101 H 0.4387 0.93842 0.17684 0.0
C102 C 0.54372 0.03848 0.17681 0.0
C103 C 0.46927 0.00425 0.17728 0.0
C104 C 0.42934 0.0045 0.17867 0.0
C105 C 0.54261 1.00066 0.17719 0.0
C106 C 0.50427 0.96406 0.1767 0.0
C107 C 0.46815 0.96643 0.177 0.0
C108 C 0.50066 0.92291 0.17571 0.0
C109 C 0.58255 1.00043 0.17848 0.0
C110 C 0.5189 0.91252 0.15743 0.0
C111 C 0.51224 0.87262 0.15538 0.0
C112 C 0.48655 0.84216 0.17132 0.0
C113 C 0.46928 0.8529 0.18997 0.0
C114 C 0.47634 0.89284 0.19216 0.0
H115 H 0.60728 0.02924 0.18628 0.0
H116 H 0.57939 0.97426 0.18902 0.0
H117 H 0.59224 0.9978 0.16048 0.0
H118 H 0.53699 0.93481 0.14418 0.0
H119 H 0.52553 0.86519 0.14065 0.0
H120 H 0.35356 0.49119 0.47394 0.0
H121 H 0.41061 0.47793 0.47788 0.0
H122 H 0.45111 0.55271 0.54026 0.0
H123 H 0.39484 0.56709 0.53602 0.0
H124 H 0.51311 0.57411 0.51092 0.0
H125 H 0.43152 0.40578 0.52052 0.0
H126 H 0.41589 0.42137 0.49463 0.0
H127 H 0.40572 0.43512 0.52309 0.0
C128 C 0.3741 0.50411 0.48878 0.0
C129 C 0.3696 0.53014 0.50468 0.0
C130 C 0.40669 0.49639 0.49107 0.0
C131 C 0.43502 0.51394 0.50953 0.0
C132 C 0.42969 0.53878 0.52588 0.0
H133 H 0.62154 0.44496 0.53509 0.0
H134 H 0.56518 0.45911 0.53967 0.0
C135 C 0.39737 0.54684 0.52348 0.0
C136 C 0.47184 0.50895 0.51079 0.0
H137 H 0.50272 0.43773 0.51057 0.0
C138 C 0.51079 0.54426 0.51108 0.0
C139 C 0.46899 0.47007 0.51132 0.0
C140 C 0.42827 0.43096 0.51263 0.0
C141 C 0.54685 0.54177 0.51128 0.0
C142 C 0.54398 0.5029 0.51055 0.0
C143 C 0.50504 0.46759 0.51089 0.0
C144 C 0.58079 0.49793 0.50904 0.0
C145 C 0.58758 0.58088 0.51256 0.0
C146 C 0.60886 0.51555 0.49051 0.0
C147 C 0.6415 0.50795 0.48803 0.0
C148 C 0.64631 0.48197 0.5038 0.0
C149 C 0.61877 0.46517 0.52265 0.0
C150 C 0.5864 0.4731 0.52525 0.0
H151 H 0.58444 0.60604 0.52061 0.0
H152 H 0.61028 0.5767 0.52287 0.0
H153 H 0.59971 0.59052 0.49454 0.0
H154 H 0.60472 0.534 0.47744 0.0
H155 H 0.66185 0.52095 0.47316 0.0
H156 H 0.82781 0.40392 0.86004 0.0
H157 H 0.89757 0.46154 0.86239 0.0
H158 H 0.94054 0.39536 0.82032 0.0
H159 H 0.87031 0.3378 0.81725 0.0
H160 H 0.9692 0.47269 0.87872 0.0
H161 H 0.98024 0.49891 0.78264 0.0
H162 H 0.93273 0.46392 0.79691 0.0
H163 H 0.97004 0.44864 0.79056 0.0
C164 C 0.85209 0.40135 0.85143 0.0
C165 C 0.84338 0.36636 0.83822 0.0
C166 C 0.89204 0.43442 0.85281 0.0
C167 C 0.9242 0.43327 0.84106 0.0
C168 C 0.91604 0.39744 0.82898 0.0
H169 H 0.18339 0.60473 0.85946 0.0
H170 H 0.11336 0.54803 0.8625 0.0
C171 C 0.87593 0.36438 0.82743 0.0
C172 C 0.96584 0.47008 0.84099 0.0
H173 H 0.04082 0.53871 0.80473 0.0
C174 C 0.98485 0.48717 0.86254 0.0
C175 C 0.98589 0.48959 0.81989 0.0
C176 C 0.96606 0.47463 0.79619 0.0
C177 C 0.02356 0.52272 0.86357 0.0
C178 C 0.04435 0.5412 0.84245 0.0
C179 C 0.02505 0.52447 0.82093 0.0
C180 C 0.08651 0.57723 0.84216 0.0
C181 C 0.04135 0.54053 0.88729 0.0
C182 C 0.09508 0.6126 0.82947 0.0
C183 C 0.1354 0.64505 0.82741 0.0
C184 C 0.16793 0.64271 0.83799 0.0
C185 C 0.15908 0.60776 0.85123 0.0
C186 C 0.1189 0.57529 0.85312 0.0
H187 H 0.01695 0.53138 0.90073 0.0
H188 H 0.06183 0.52886 0.89301 0.0
H189 H 0.05949 0.57446 0.88667 0.0
H190 H 0.07063 0.61476 0.82077 0.0
H191 H 0.14118 0.67142 0.81701 0.0
H192 H 0.18599 0.61923 0.51282 0.0
H193 H 0.11278 0.59496 0.51428 0.0
H194 H 0.08694 0.47125 0.5032 0.0
H195 H 0.16085 0.49532 0.50145 0.0
H196 H 0.05382 0.54347 0.47456 0.0
H197 H 0.01866 0.47454 0.5639 0.0
H198 H 0.06935 0.51481 0.55591 0.0
H199 H 0.05049 0.46408 0.54476 0.0
C200 C 0.16496 0.58674 0.51084 0.0
C201 C 0.17946 0.55921 0.50697 0.0
C202 C 0.12306 0.57301 0.51166 0.0
C203 C 0.09461 0.53143 0.50889 0.0
C204 C 0.10861 0.50352 0.50549 0.0
H205 H 0.83104 0.39483 0.51215 0.0
H206 H 0.90413 0.41922 0.51353 0.0
C207 C 0.15078 0.51731 0.50449 0.0
C208 C 0.05034 0.51791 0.50876 0.0
H209 H 0.9638 0.47112 0.54217 0.0
C210 C 0.03399 0.52758 0.48929 0.0
C211 C 0.02486 0.49736 0.52804 0.0
C212 C 0.04148 0.48709 0.54947 0.0
C213 C 0.99243 0.51656 0.48839 0.0
C214 C 0.96687 0.4964 0.50784 0.0
C215 C 0.98343 0.48684 0.52735 0.0
C216 C 0.92237 0.48274 0.50776 0.0
C217 C 0.97611 0.52556 0.46635 0.0
C218 C 0.90805 0.51048 0.50449 0.0
C219 C 0.86585 0.49652 0.50346 0.0
C220 C 0.83731 0.45464 0.50599 0.0
C221 C 0.85196 0.42731 0.51005 0.0
C222 C 0.8939 0.44118 0.51089 0.0
H223 H 0.99668 0.53118 0.45113 0.0
H224 H 0.94516 0.49989 0.46193 0.0
H225 H 0.97376 0.55346 0.46911 0.0
H226 H 0.92947 0.54287 0.5026 0.0
H227 H 0.85564 0.51841 0.50047 0.0
H228 H 0.43801 0.82552 0.85045 0.0
H229 H 0.48776 0.89819 0.85318 0.0
H230 H 0.3924 0.9273 0.83981 0.0
H231 H 0.34183 0.85403 0.83694 0.0
H232 H 0.50285 0.95584 0.8152 0.0
H233 H 0.45663 0.99723 0.89898 0.0
H234 H 0.44282 0.94521 0.8918 0.0
H235 H 0.4166 0.96843 0.87802 0.0
C236 C 0.42728 0.84718 0.84829 0.0
C237 C 0.38578 0.83381 0.84338 0.0
C238 C 0.4559 0.88878 0.84986 0.0
C239 C 0.44375 0.91804 0.84679 0.0
C240 C 0.40227 0.90507 0.84248 0.0
H241 H 0.57094 0.18088 0.84279 0.0
H242 H 0.52215 0.10809 0.8453 0.0
C243 C 0.37345 0.86323 0.8408 0.0
C244 C 0.47518 0.96202 0.84681 0.0
H245 H 0.50955 0.05106 0.8774 0.0
C246 C 0.50446 0.97674 0.82881 0.0
C247 C 0.47706 0.989 0.86459 0.0
C248 C 0.44684 0.97434 0.88459 0.0
C249 C 0.53517 0.01805 0.8278 0.0
C250 C 0.53733 0.04514 0.84569 0.0
C251 C 0.50808 0.03026 0.86379 0.0
C252 C 0.56805 0.08952 0.84518 0.0
C253 C 0.5641 0.03248 0.80716 0.0
C254 C 0.6104 0.10357 0.84471 0.0
C255 C 0.6387 0.14553 0.84302 0.0
C256 C 0.62509 0.17414 0.8421 0.0
C257 C 0.58269 0.15986 0.8434 0.0
C258 C 0.55459 0.11812 0.84488 0.0
H259 H 0.55182 0.01067 0.79222 0.0
H260 H 0.57016 0.06293 0.801 0.0
H261 H 0.59369 0.03515 0.81252 0.0
H262 H 0.62156 0.0821 0.8455 0.0
H263 H 0.67109 0.15548 0.84225 0.0
H264 H 0.39391 0.56885 0.17915 0.0
H265 H 0.41741 0.51952 0.18196 0.0
H266 H 0.54267 0.61667 0.17497 0.0
H267 H 0.51924 0.6667 0.17157 0.0
H268 H 0.52416 0.55224 0.14571 0.0
H269 H 0.47119 0.49404 0.2355 0.0
H270 H 0.43092 0.49127 0.21736 0.0
H271 H 0.47405 0.54039 0.22469 0.0
C272 C 0.42657 0.58003 0.17844 0.0
C273 C 0.45471 0.62191 0.17515 0.0
C274 C 0.43995 0.55166 0.18025 0.0
C275 C 0.48182 0.56441 0.17913 0.0
C276 C 0.51018 0.60621 0.17607 0.0
H277 H 0.6177 0.43528 0.17959 0.0
H278 H 0.59491 0.48533 0.18204 0.0
C279 C 0.49677 0.63476 0.17417 0.0
C280 C 0.49545 0.53361 0.17958 0.0
H281 H 0.48931 0.45366 0.21118 0.0
C282 C 0.51689 0.53097 0.16013 0.0
C283 C 0.48572 0.50566 0.19836 0.0
C284 C 0.46456 0.50818 0.22026 0.0
C285 C 0.52814 0.50069 0.15875 0.0
C286 C 0.51791 0.47249 0.17735 0.0
C287 C 0.49669 0.47513 0.19686 0.0
C288 C 0.53076 0.44122 0.17718 0.0
C289 C 0.55038 0.4986 0.13724 0.0
C290 C 0.50197 0.39957 0.17423 0.0
C291 C 0.51488 0.37056 0.17275 0.0
C292 C 0.55678 0.38287 0.17437 0.0
C293 C 0.58521 0.42458 0.17811 0.0
C294 C 0.57232 0.45338 0.17948 0.0
H295 H 0.54883 0.51717 0.12257 0.0
H296 H 0.58312 0.51044 0.14164 0.0
H297 H 0.53736 0.46645 0.13122 0.0
H298 H 0.46967 0.38968 0.17253 0.0
H299 H 0.4922 0.33874 0.16992 0.0
H300 H 0.74833 0.36482 0.90147 0.0
H301 H 0.75112 0.37006 0.94423 0.0
H302 H 0.62478 0.3406 0.94574 0.0
H303 H 0.62161 0.33535 0.90287 0.0
H304 H 0.68087 0.40367 0.97968 0.0
H305 H 0.68681 0.25896 0.9807 0.0
H306 H 0.72475 0.30001 0.96318 0.0
H307 H 0.67168 0.27621 0.95503 0.0
C308 C 0.72135 0.36035 0.91082 0.0
C309 C 0.68455 0.34916 0.89878 0.0
C310 C 0.72302 0.36324 0.93526 0.0
C311 C 0.68798 0.35499 0.94809 0.0
C312 C 0.65211 0.3469 0.93609 0.0
H313 H 0.595 0.26284 0.08312 0.0
H314 H 0.6137 0.27651 0.04182 0.0
C315 C 0.65038 0.34398 0.9116 0.0
C316 C 0.68742 0.35081 0.97392 0.0
H317 H 0.6864 0.28773 0.01722 0.0
C318 C 0.68255 0.37865 0.98797 0.0
C319 C 0.68924 0.31783 0.98456 0.0
C320 C 0.69312 0.28628 0.97018 0.0
C321 C 0.67888 0.37403 0.01246 0.0
C322 C 0.68031 0.34082 0.02305 0.0
C323 C 0.68582 0.31339 0.00902 0.0
C324 C 0.6716 0.33147 0.0483 0.0
C325 C 0.6718 0.40362 0.02679 0.0
C326 C 0.69867 0.3572 0.06567 0.0
C327 C 0.68819 0.34928 0.08944 0.0
C328 C 0.65035 0.31568 0.09609 0.0
C329 C 0.62425 0.28911 0.0786 0.0
C330 C 0.63487 0.29685 0.05498 0.0
H331 H 0.66615 0.42443 0.0156 0.0
H332 H 0.64522 0.38673 0.03869 0.0
H333 H 0.69917 0.4225 0.03783 0.0
H334 H 0.72742 0.38381 0.06082 0.0
H335 H 0.70887 0.37036 0.10249 0.0
H336 H 0.40763 0.73463 0.23817 0.0
H337 H 0.40236 0.73461 0.28067 0.0
H338 H 0.27504 0.6409 0.27635 0.0
H339 H 0.28098 0.63889 0.23359 0.0
H340 H 0.36287 0.74859 0.31257 0.0
H341 H 0.31564 0.58395 0.31712 0.0
H342 H 0.33087 0.61212 0.29004 0.0
H343 H 0.27977 0.59299 0.30129 0.0
C344 C 0.3783 0.71427 0.24619 0.0
C345 C 0.34485 0.68626 0.23254 0.0
C346 C 0.37533 0.71433 0.27058 0.0
C347 C 0.33866 0.68688 0.28187 0.0
C348 C 0.30414 0.66128 0.26813 0.0
H349 H 0.31255 0.69735 0.43453 0.0
H350 H 0.31462 0.71062 0.39239 0.0
C351 C 0.30739 0.66045 0.24368 0.0
C352 C 0.33785 0.6837 0.30793 0.0
H353 H 0.31765 0.61641 0.35278 0.0
C354 C 0.35303 0.71967 0.32137 0.0
C355 C 0.32579 0.64612 0.31947 0.0
C356 C 0.31252 0.60671 0.30625 0.0
C357 C 0.357 0.71922 0.34589 0.0
C358 C 0.34374 0.68144 0.35744 0.0
C359 C 0.32787 0.64543 0.34401 0.0
C360 C 0.34661 0.678 0.38332 0.0
C361 C 0.37687 0.75946 0.3589 0.0
C362 C 0.3637 0.65514 0.39244 0.0
C363 C 0.36129 0.64647 0.41638 0.0
C364 C 0.34273 0.66138 0.4318 0.0
C365 C 0.32779 0.68625 0.42301 0.0
C366 C 0.3291 0.69394 0.39891 0.0
H367 H 0.39712 0.78526 0.34721 0.0
H368 H 0.3527 0.76551 0.36559 0.0
H369 H 0.39533 0.75904 0.37399 0.0
H370 H 0.37754 0.64261 0.38088 0.0
H371 H 0.37281 0.62702 0.42275 0.0
H372 H 0.63496 0.338 0.76951 0.0
H373 H 0.62222 0.34445 0.72786 0.0
H374 H 0.72891 0.33642 0.70894 0.0
H375 H 0.74187 0.32999 0.7502 0.0
H376 H 0.71892 0.39999 0.68524 0.0
H377 H 0.58152 0.24403 0.68124 0.0
H378 H 0.58367 0.27812 0.70406 0.0
H379 H 0.61903 0.25929 0.70445 0.0
C380 C 0.65602 0.33824 0.75648 0.0
C381 C 0.68928 0.33322 0.76314 0.0
C382 C 0.64852 0.34162 0.73273 0.0
C383 C 0.67434 0.34034 0.71539 0.0
C384 C 0.70853 0.33725 0.72208 0.0
H385 H 0.67435 0.28938 0.57042 0.0
H386 H 0.66764 0.28728 0.61317 0.0
C387 C 0.71584 0.33355 0.74568 0.0
C388 C 0.66555 0.34084 0.69013 0.0
H389 H 0.60393 0.28043 0.64578 0.0
C390 C 0.69343 0.3742 0.67661 0.0
C391 C 0.63255 0.30681 0.67901 0.0
C392 C 0.60246 0.2698 0.69279 0.0
C393 C 0.68976 0.37407 0.65211 0.0
C394 C 0.6571 0.33978 0.64092 0.0
C395 C 0.62869 0.30675 0.65448 0.0
C396 C 0.65412 0.33667 0.61503 0.0
C397 C 0.72189 0.40983 0.63829 0.0
C398 C 0.64692 0.36392 0.60192 0.0
C399 C 0.65067 0.36518 0.5775 0.0
C400 C 0.66167 0.33915 0.5658 0.0
C401 C 0.66593 0.30988 0.57888 0.0
C402 C 0.66214 0.30865 0.60332 0.0
H403 H 0.74883 0.43045 0.64924 0.0
H404 H 0.7326 0.39894 0.62322 0.0
H405 H 0.70838 0.42791 0.63121 0.0
H406 H 0.64014 0.3854 0.61065 0.0
H407 H 0.64693 0.38793 0.56794 0.0
H408 H 0.26196 0.64289 0.90192 0.0
H409 H 0.25921 0.6372 0.94466 0.0
H410 H 0.38485 0.66439 0.94602 0.0
H411 H 0.38801 0.67016 0.90317 0.0
H412 H 0.32701 0.60081 0.97975 0.0
H413 H 0.32655 0.74834 0.98159 0.0
H414 H 0.28822 0.70816 0.96368 0.0
H415 H 0.34131 0.73077 0.9559 0.0
C416 C 0.28878 0.64675 0.91122 0.0
C417 C 0.32541 0.65748 0.89916 0.0
C418 C 0.28713 0.64359 0.93565 0.0
C419 C 0.322 0.65105 0.94844 0.0
C420 C 0.35765 0.65868 0.9364 0.0
H421 H 0.4165 0.74096 0.08372 0.0
H422 H 0.39759 0.72772 0.04241 0.0
C423 C 0.35938 0.66191 0.91192 0.0
C424 C 0.32271 0.655 0.97429 0.0
H425 H 0.32626 0.71885 0.01793 0.0
C426 C 0.32637 0.62629 0.98818 0.0
C427 C 0.32225 0.68857 0.98512 0.0
C428 C 0.31965 0.72098 0.9709 0.0
C429 C 0.33018 0.63063 0.01269 0.0
C430 C 0.33013 0.66444 0.02347 0.0
C431 C 0.3258 0.69274 0.00959 0.0
C432 C 0.33911 0.67345 0.04876 0.0
C433 C 0.33594 0.60005 0.02683 0.0
C434 C 0.31183 0.64798 0.06608 0.0
C435 C 0.32245 0.65563 0.08987 0.0
C436 C 0.36062 0.68874 0.09659 0.0
C437 C 0.38698 0.71506 0.07916 0.0
C438 C 0.37624 0.70756 0.05552 0.0
H439 H 0.34086 0.57887 0.01552 0.0
H440 H 0.36252 0.61607 0.03888 0.0
H441 H 0.30828 0.58161 0.0377 0.0
H442 H 0.28275 0.62179 0.06118 0.0
H443 H 0.30153 0.63476 0.10288 0.0
H444 H 0.64351 0.38473 0.42157 0.0
H445 H 0.63813 0.36788 0.37983 0.0
H446 H 0.70118 0.30018 0.39197 0.0
H447 H 0.70388 0.31468 0.43399 0.0
H448 H 0.69741 0.39305 0.35148 0.0
H449 H 0.61785 0.22404 0.34754 0.0
H450 H 0.62018 0.25116 0.37407 0.0
H451 H 0.66263 0.2444 0.36571 0.0
C452 C 0.65495 0.36511 0.41536 0.0
C453 C 0.6737 0.35062 0.43092 0.0
C454 C 0.65216 0.3557 0.39151 0.0
C455 C 0.66906 0.33252 0.38261 0.0
C456 C 0.68683 0.31707 0.39833 0.0
H457 H 0.73156 0.36669 0.23253 0.0
H458 H 0.73847 0.36596 0.27528 0.0
C459 C 0.68851 0.32548 0.42237 0.0
C460 C 0.67143 0.3282 0.35677 0.0
H461 H 0.65145 0.25951 0.31255 0.0
C462 C 0.68703 0.36373 0.34299 0.0
C463 C 0.65796 0.29002 0.34558 0.0
C464 C 0.63834 0.25023 0.35898 0.0
C465 C 0.68861 0.3622 0.31846 0.0
C466 C 0.67634 0.32422 0.30729 0.0
C467 C 0.66146 0.28872 0.32108 0.0
C468 C 0.67498 0.32015 0.28128 0.0
C469 C 0.70156 0.40114 0.30486 0.0
C470 C 0.63808 0.29232 0.27027 0.0
C471 C 0.63455 0.29163 0.24589 0.0
C472 C 0.66767 0.31927 0.23198 0.0
C473 C 0.70539 0.34541 0.24283 0.0
C474 C 0.7092 0.34531 0.26728 0.0
H475 H 0.69865 0.42425 0.31553 0.0
H476 H 0.73422 0.4147 0.29976 0.0
H477 H 0.68287 0.39515 0.28873 0.0
H478 H 0.61128 0.27235 0.28058 0.0
H479 H 0.60504 0.27103 0.23809 0.0
H480 H 0.26954 0.67504 0.75015 0.0
H481 H 0.28342 0.66854 0.70904 0.0
H482 H 0.39386 0.66822 0.72884 0.0
H483 H 0.38005 0.67452 0.77032 0.0
H484 H 0.40125 0.72817 0.69234 0.0
H485 H 0.2793 0.56877 0.67361 0.0
H486 H 0.26235 0.59907 0.68926 0.0
H487 H 0.29792 0.58681 0.70293 0.0
C488 C 0.29649 0.67297 0.74585 0.0
C489 C 0.32371 0.67529 0.7635 0.0
C490 C 0.3043 0.66914 0.72235 0.0
C491 C 0.33953 0.66773 0.71596 0.0
C492 C 0.3664 0.6691 0.73349 0.0
H493 H 0.36802 0.62308 0.56877 0.0
H494 H 0.3755 0.62565 0.6114 0.0
C495 C 0.35835 0.67247 0.75715 0.0
C496 C 0.34905 0.66732 0.69082 0.0
H497 H 0.31032 0.61215 0.64055 0.0
C498 C 0.38185 0.70259 0.68101 0.0
C499 C 0.32381 0.63384 0.67618 0.0
C500 C 0.28904 0.59478 0.68599 0.0
C501 C 0.38884 0.70595 0.65669 0.0
C502 C 0.36217 0.67329 0.64191 0.0
C503 C 0.33063 0.63728 0.65189 0.0
C504 C 0.36462 0.67641 0.61598 0.0
C505 C 0.42427 0.74458 0.64697 0.0
C506 C 0.35702 0.7048 0.60435 0.0
C507 C 0.35266 0.70342 0.57994 0.0
C508 C 0.35562 0.67345 0.56676 0.0
C509 C 0.36553 0.64656 0.57837 0.0
C510 C 0.36976 0.6479 0.60276 0.0
H511 H 0.44808 0.76133 0.66055 0.0
H512 H 0.43857 0.73775 0.63189 0.0
H513 H 0.41291 0.76503 0.64074 0.0
H514 H 0.35226 0.72663 0.61425 0.0
H515 H 0.34485 0.72442 0.57157 0.0
loop_
_geom_bond_atom_site_label_1
_geom_bond_atom_site_label_2
_geom_bond_distance
_geom_bond_site_symmetry_2
_ccdc_geom_bond_type
O0 Cd1 2.223 . S
O0 C8 1.315 . S
Cd1 O0 2.223 . S
Cd1 O4 2.297 . S
Cd1 O5 2.439 . S
Cd1 O11 2.240 . S
Cd2 O3 2.240 . S
Cd2 O10 2.223 . S
Cd2 O12 2.297 . S
Cd2 O13 2.439 . S
O3 Cd2 2.240 . S
O3 C8 1.279 . S
O4 Cd1 2.297 . S
O4 C6 1.247 . S
O5 Cd1 2.439 . S
O5 C6 1.208 . S
C6 O4 1.247 . S
C6 O5 1.208 . S
C7 O12 1.247 . S
C7 O13 1.208 . S
C8 O0 1.315 . S
C8 O3 1.279 . S
C9 O10 1.315 . S
C9 O11 1.279 . S
O10 Cd2 2.223 . S
O10 C9 1.315 . S
O11 Cd1 2.240 . S
O11 C9 1.279 . S
O12 Cd2 2.297 . S
O12 C7 1.247 . S
O13 Cd2 2.439 . S
O13 C7 1.208 . S
O14 Cd15 2.223 . S
O14 C22 1.315 . S
Cd15 O14 2.223 . S
Cd15 O18 2.297 . S
Cd15 O19 2.439 . S
Cd15 O25 2.240 . S
Cd16 O17 2.240 . S
Cd16 O24 2.223 . S
Cd16 O26 2.297 . S
Cd16 O27 2.439 . S
O17 Cd16 2.240 . S
O17 C22 1.279 . S
O18 Cd15 2.297 . S
O18 C20 1.247 . S
O19 Cd15 2.439 . S
O19 C20 1.208 . S
C20 O18 1.247 . S
C20 O19 1.208 . S
C21 O26 1.247 . S
C21 O27 1.208 . S
C22 O14 1.315 . S
C22 O17 1.279 . S
C23 O24 1.315 . S
C23 O25 1.279 . S
O24 Cd16 2.223 . S
O24 C23 1.315 . S
O25 Cd15 2.240 . S
O25 C23 1.279 . S
O26 Cd16 2.297 . S
O26 C21 1.247 . S
O27 Cd16 2.439 . S
O27 C21 1.208 . S
O28 Cd29 2.223 . S
O28 C36 1.315 . S
Cd29 O28 2.223 . S
Cd29 O32 2.297 . S
Cd29 O33 2.439 . S
Cd29 O39 2.240 . S
Cd30 O31 2.240 . S
Cd30 O38 2.223 . S
Cd30 O40 2.297 . S
Cd30 O41 2.439 . S
O31 Cd30 2.240 . S
O31 C36 1.279 . S
O32 Cd29 2.297 . S
O32 C34 1.247 . S
O33 Cd29 2.439 . S
O33 C34 1.208 . S
C34 O32 1.247 . S
C34 O33 1.208 . S
C35 O40 1.247 . S
C35 O41 1.208 . S
C36 O28 1.315 . S
C36 O31 1.279 . S
C37 O38 1.315 . S
C37 O39 1.279 . S
O38 Cd30 2.223 . S
O38 C37 1.315 . S
O39 Cd29 2.240 . S
O39 C37 1.279 . S
O40 Cd30 2.297 . S
O40 C35 1.247 . S
O41 Cd30 2.439 . S
O41 C35 1.208 . S
O42 Cd43 2.223 . S
O42 C50 1.315 . S
Cd43 O42 2.223 . S
Cd43 O46 2.297 . S
Cd43 O47 2.439 . S
Cd43 O53 2.240 . S
Cd44 O45 2.240 . S
Cd44 O52 2.223 . S
Cd44 O54 2.297 . S
Cd44 O55 2.439 . S
O45 Cd44 2.240 . S
O45 C50 1.279 . S
O46 Cd43 2.297 . S
O46 C48 1.247 . S
O47 Cd43 2.439 . S
O47 C48 1.208 . S
C48 O46 1.247 . S
C48 O47 1.208 . S
C49 O54 1.247 . S
C49 O55 1.208 . S
C50 O42 1.315 . S
C50 O45 1.279 . S
C51 O52 1.315 . S
C51 O53 1.279 . S
O52 Cd44 2.223 . S
O52 C51 1.315 . S
O53 Cd43 2.240 . S
O53 C51 1.279 . S
O54 Cd44 2.297 . S
O54 C49 1.247 . S
O55 Cd44 2.439 . S
O55 C49 1.208 . S
O56 Cd57 2.223 . S
O56 C64 1.315 . S
Cd57 O56 2.223 . S
Cd57 O60 2.297 . S
Cd57 O61 2.439 . S
Cd57 O67 2.240 . S
Cd58 O59 2.240 . S
Cd58 O66 2.223 . S
Cd58 O68 2.297 . S
Cd58 O69 2.439 . S
O59 Cd58 2.240 . S
O59 C64 1.279 . S
O60 Cd57 2.297 . S
O60 C62 1.247 . S
O61 Cd57 2.439 . S
O61 C62 1.208 . S
C62 O60 1.247 . S
C62 O61 1.208 . S
C63 O68 1.247 . S
C63 O69 1.208 . S
C64 O56 1.315 . S
C64 O59 1.279 . S
C65 O66 1.315 . S
C65 O67 1.279 . S
O66 Cd58 2.223 . S
O66 C65 1.315 . S
O67 Cd57 2.240 . S
O67 C65 1.279 . S
O68 Cd58 2.297 . S
O68 C63 1.247 . S
O69 Cd58 2.439 . S
O69 C63 1.208 . S
O70 Cd71 2.223 . S
O70 C78 1.315 . S
Cd71 O70 2.223 . S
Cd71 O74 2.297 . S
Cd71 O75 2.439 . S
Cd71 O81 2.240 . S
Cd72 O73 2.240 . S
Cd72 O80 2.223 . S
Cd72 O82 2.297 . S
Cd72 O83 2.439 . S
O73 Cd72 2.240 . S
O73 C78 1.279 . S
O74 Cd71 2.297 . S
O74 C76 1.247 . S
O75 Cd71 2.439 . S
O75 C76 1.208 . S
C76 O74 1.247 . S
C76 O75 1.208 . S
C77 O82 1.247 . S
C77 O83 1.208 . S
C78 O70 1.315 . S
C78 O73 1.279 . S
C79 O80 1.315 . S
C79 O81 1.279 . S
O80 Cd72 2.223 . S
O80 C79 1.315 . S
O81 Cd71 2.240 . S
O81 C79 1.279 . S
O82 Cd72 2.297 . S
O82 C77 1.247 . S
O83 Cd72 2.439 . S
O83 C77 1.208 . S
H84 C92 0.929 . S
H85 C94 0.930 . S
H86 C96 0.930 . S
H87 C99 0.929 . S
H88 C102 0.930 . S
H89 C104 0.960 1_565 S
H90 C104 0.960 . S
H91 C104 0.960 . S
C92 H84 0.929 . S
C92 C93 1.377 . S
C92 C94 1.384 . S
C93 C92 1.377 . S
C93 C99 1.390 . S
C94 H85 0.930 . S
C94 C92 1.384 . S
C94 C95 1.372 . S
C95 C94 1.372 . S
C95 C96 1.400 . S
C95 C100 1.490 . S
C96 H86 0.930 . S
C96 C95 1.400 . S
C96 C99 1.386 . S
H97 C113 0.930 . S
H98 C114 0.931 . S
C99 H87 0.929 . S
C99 C93 1.390 . S
C99 C96 1.386 . S
C100 C95 1.490 . S
C100 C102 1.395 . S
C100 C103 1.403 . S
H101 C107 0.930 . S
C102 H88 0.930 . S
C102 C100 1.395 . S
C102 C105 1.403 1_545 S
C103 C100 1.403 . S
C103 C104 1.524 . S
C103 C107 1.400 1_545 S
C104 H89 0.960 1_545 S
C104 H90 0.960 . S
C104 H91 0.960 . S
C104 C103 1.524 . S
C105 C102 1.403 1_565 S
C105 C106 1.392 . S
C105 C109 1.495 . S
C106 C105 1.392 . S
C106 C107 1.385 . S
C106 C108 1.478 . S
C107 H101 0.930 . S
C107 C103 1.400 1_565 S
C107 C106 1.385 . S
C108 C106 1.478 . S
C108 C110 1.381 . S
C108 C114 1.383 . S
C109 C105 1.495 . S
C109 H115 0.959 1_565 S
C109 H116 0.961 . S
C109 H117 0.960 . S
C110 C108 1.381 . S
C110 C111 1.394 . S
C110 H118 0.930 . S
C111 C110 1.394 . S
C111 C112 1.383 . S
C111 H119 0.929 . S
C112 C111 1.383 . S
C112 C113 1.377 . S
C113 H97 0.930 . S
C113 C112 1.377 . S
C113 C114 1.379 . S
C114 H98 0.931 . S
C114 C108 1.383 . S
C114 C113 1.379 . S
H115 C109 0.959 1_545 S
H116 C109 0.961 . S
H117 C109 0.960 . S
H118 C110 0.930 . S
H119 C111 0.929 . S
H120 C128 0.929 . S
H121 C130 0.930 . S
H122 C132 0.930 . S
H123 C135 0.929 . S
H124 C138 0.930 . S
H125 C140 0.960 . S
H126 C140 0.960 . S
H127 C140 0.960 . S
C128 H120 0.929 . S
C128 C129 1.377 . S
C128 C130 1.384 . S
C129 C128 1.377 . S
C129 C135 1.390 . S
C130 H121 0.930 . S
C130 C128 1.384 . S
C130 C131 1.372 . S
C131 C130 1.372 . S
C131 C132 1.400 . S
C131 C136 1.490 . S
C132 H122 0.930 . S
C132 C131 1.400 . S
C132 C135 1.386 . S
H133 C149 0.930 . S
H134 C150 0.931 . S
C135 H123 0.929 . S
C135 C129 1.390 . S
C135 C132 1.386 . S
C136 C131 1.490 . S
C136 C138 1.395 . S
C136 C139 1.403 . S
H137 C143 0.930 . S
C138 H124 0.930 . S
C138 C136 1.395 . S
C138 C141 1.403 . S
C139 C136 1.403 . S
C139 C140 1.524 . S
C139 C143 1.400 . S
C140 H125 0.960 . S
C140 H126 0.960 . S
C140 H127 0.960 . S
C140 C139 1.524 . S
C141 C138 1.403 . S
C141 C142 1.392 . S
C141 C145 1.495 . S
C142 C141 1.392 . S
C142 C143 1.385 . S
C142 C144 1.478 . S
C143 H137 0.930 . S
C143 C139 1.400 . S
C143 C142 1.385 . S
C144 C142 1.478 . S
C144 C146 1.381 . S
C144 C150 1.383 . S
C145 C141 1.495 . S
C145 H151 0.959 . S
C145 H152 0.961 . S
C145 H153 0.960 . S
C146 C144 1.381 . S
C146 C147 1.394 . S
C146 H154 0.930 . S
C147 C146 1.394 . S
C147 C148 1.383 . S
C147 H155 0.929 . S
C148 C147 1.383 . S
C148 C149 1.377 . S
C149 H133 0.930 . S
C149 C148 1.377 . S
C149 C150 1.379 . S
C150 H134 0.931 . S
C150 C144 1.383 . S
C150 C149 1.379 . S
H151 C145 0.959 . S
H152 C145 0.961 . S
H153 C145 0.960 . S
H154 C146 0.930 . S
H155 C147 0.929 . S
H156 C164 0.929 . S
H157 C166 0.930 . S
H158 C168 0.930 . S
H159 C171 0.929 . S
H160 C174 0.930 . S
H161 C176 0.960 . S
H162 C176 0.960 . S
H163 C176 0.960 . S
C164 H156 0.929 . S
C164 C165 1.377 . S
C164 C166 1.384 . S
C165 C164 1.377 . S
C165 C171 1.390 . S
C166 H157 0.930 . S
C166 C164 1.384 . S
C166 C167 1.372 . S
C167 C166 1.372 . S
C167 C168 1.400 . S
C167 C172 1.490 . S
C168 H158 0.930 . S
C168 C167 1.400 . S
C168 C171 1.386 . S
H169 C185 0.930 . S
H170 C186 0.931 . S
C171 H159 0.929 . S
C171 C165 1.390 . S
C171 C168 1.386 . S
C172 C167 1.490 . S
C172 C174 1.395 . S
C172 C175 1.403 . S
H173 C179 0.930 . S
C174 H160 0.930 . S
C174 C172 1.395 . S
C174 C177 1.403 1_655 S
C175 C172 1.403 . S
C175 C176 1.524 . S
C175 C179 1.400 1_655 S
C176 H161 0.960 . S
C176 H162 0.960 . S
C176 H163 0.960 . S
C176 C175 1.524 . S
C177 C174 1.403 1_455 S
C177 C178 1.392 . S
C177 C181 1.495 . S
C178 C177 1.392 . S
C178 C179 1.385 . S
C178 C180 1.478 . S
C179 H173 0.930 . S
C179 C175 1.400 1_455 S
C179 C178 1.385 . S
C180 C178 1.478 . S
C180 C182 1.381 . S
C180 C186 1.383 . S
C181 C177 1.495 . S
C181 H187 0.959 . S
C181 H188 0.961 . S
C181 H189 0.960 . S
C182 C180 1.381 . S
C182 C183 1.394 . S
C182 H190 0.930 . S
C183 C182 1.394 . S
C183 C184 1.383 . S
C183 H191 0.929 . S
C184 C183 1.383 . S
C184 C185 1.377 . S
C185 H169 0.930 . S
C185 C184 1.377 . S
C185 C186 1.379 . S
C186 H170 0.931 . S
C186 C180 1.383 . S
C186 C185 1.379 . S
H187 C181 0.959 . S
H188 C181 0.961 . S
H189 C181 0.960 . S
H190 C182 0.930 . S
H191 C183 0.929 . S
H192 C200 0.929 . S
H193 C202 0.930 . S
H194 C204 0.930 . S
H195 C207 0.929 . S
H196 C210 0.930 . S
H197 C212 0.960 . S
H198 C212 0.960 . S
H199 C212 0.960 . S
C200 H192 0.929 . S
C200 C201 1.377 . S
C200 C202 1.384 . S
C201 C200 1.377 . S
C201 C207 1.390 . S
C202 H193 0.930 . S
C202 C200 1.384 . S
C202 C203 1.372 . S
C203 C202 1.372 . S
C203 C204 1.400 . S
C203 C208 1.490 . S
C204 H194 0.930 . S
C204 C203 1.400 . S
C204 C207 1.386 . S
H205 C221 0.930 . S
H206 C222 0.931 . S
C207 H195 0.929 . S
C207 C201 1.390 . S
C207 C204 1.386 . S
C208 C203 1.490 . S
C208 C210 1.395 . S
C208 C211 1.403 . S
H209 C215 0.930 . S
C210 H196 0.930 . S
C210 C208 1.395 . S
C210 C213 1.403 1_455 S
C211 C208 1.403 . S
C211 C212 1.524 . S
C211 C215 1.400 1_455 S
C212 H197 0.960 . S
C212 H198 0.960 . S
C212 H199 0.960 . S
C212 C211 1.524 . S
C213 C210 1.403 1_655 S
C213 C214 1.392 . S
C213 C217 1.495 . S
C214 C213 1.392 . S
C214 C215 1.385 . S
C214 C216 1.478 . S
C215 H209 0.930 . S
C215 C211 1.400 1_655 S
C215 C214 1.385 . S
C216 C214 1.478 . S
C216 C218 1.381 . S
C216 C222 1.383 . S
C217 C213 1.495 . S
C217 H223 0.959 . S
C217 H224 0.961 . S
C217 H225 0.960 . S
C218 C216 1.381 . S
C218 C219 1.394 . S
C218 H226 0.930 . S
C219 C218 1.394 . S
C219 C220 1.383 . S
C219 H227 0.929 . S
C220 C219 1.383 . S
C220 C221 1.377 . S
C221 H205 0.930 . S
C221 C220 1.377 . S
C221 C222 1.379 . S
C222 H206 0.931 . S
C222 C216 1.383 . S
C222 C221 1.379 . S
H223 C217 0.959 . S
H224 C217 0.961 . S
H225 C217 0.960 . S
H226 C218 0.930 . S
H227 C219 0.929 . S
H228 C236 0.929 . S
H229 C238 0.930 . S
H230 C240 0.930 . S
H231 C243 0.929 . S
H232 C246 0.930 . S
H233 C248 0.971 . S
H234 C248 0.960 . S
H235 C248 0.960 . S
C236 H228 0.929 . S
C236 C237 1.377 . S
C236 C238 1.384 . S
C237 C236 1.377 . S
C237 C243 1.390 . S
C238 H229 0.930 . S
C238 C236 1.384 . S
C238 C239 1.372 . S
C239 C238 1.372 . S
C239 C240 1.400 . S
C239 C244 1.490 . S
C240 H230 0.930 . S
C240 C239 1.400 . S
C240 C243 1.386 . S
H241 C257 0.930 . S
H242 C258 0.931 . S
C243 H231 0.929 . S
C243 C237 1.390 . S
C243 C240 1.386 . S
C244 C239 1.490 . S
C244 C246 1.395 . S
C244 C247 1.403 . S
H245 C251 0.930 . S
C246 H232 0.930 . S
C246 C244 1.395 . S
C246 C249 1.403 1_565 S
C247 C244 1.403 . S
C247 C248 1.524 . S
C247 C251 1.400 1_565 S
C248 H233 0.971 . S
C248 H234 0.960 . S
C248 H235 0.960 . S
C248 C247 1.524 . S
C249 C246 1.403 1_545 S
C249 C250 1.392 . S
C249 C253 1.495 . S
C250 C249 1.392 . S
C250 C251 1.385 . S
C250 C252 1.478 . S
C251 H245 0.930 . S
C251 C247 1.400 1_545 S
C251 C250 1.385 . S
C252 C250 1.478 . S
C252 C254 1.381 . S
C252 C258 1.383 . S
C253 C249 1.495 . S
C253 H259 0.959 . S
C253 H260 0.961 . S
C253 H261 0.960 . S
C254 C252 1.381 . S
C254 C255 1.394 . S
C254 H262 0.930 . S
C255 C254 1.394 . S
C255 C256 1.383 . S
C255 H263 0.929 . S
C256 C255 1.383 . S
C256 C257 1.377 . S
C257 H241 0.930 . S
C257 C256 1.377 . S
C257 C258 1.379 . S
C258 H242 0.931 . S
C258 C252 1.383 . S
C258 C257 1.379 . S
H259 C253 0.959 . S
H260 C253 0.961 . S
H261 C253 0.960 . S
H262 C254 0.930 . S
H263 C255 0.929 . S
H264 C272 0.929 . S
H265 C274 0.930 . S
H266 C276 0.930 . S
H267 C279 0.929 . S
H268 C282 0.930 . S
H269 C284 0.960 . S
H270 C284 0.960 . S
H271 C284 0.960 . S
C272 H264 0.929 . S
C272 C273 1.377 . S
C272 C274 1.384 . S
C273 C272 1.377 . S
C273 C279 1.390 . S
C274 H265 0.930 . S
C274 C272 1.384 . S
C274 C275 1.372 . S
C275 C274 1.372 . S
C275 C276 1.400 . S
C275 C280 1.490 . S
C276 H266 0.930 . S
C276 C275 1.400 . S
C276 C279 1.386 . S
H277 C293 0.930 . S
H278 C294 0.931 . S
C279 H267 0.929 . S
C279 C273 1.390 . S
C279 C276 1.386 . S
C280 C275 1.490 . S
C280 C282 1.395 . S
C280 C283 1.403 . S
H281 C287 0.930 . S
C282 H268 0.930 . S
C282 C280 1.395 . S
C282 C285 1.403 . S
C283 C280 1.403 . S
C283 C284 1.524 . S
C283 C287 1.400 . S
C284 H269 0.960 . S
C284 H270 0.960 . S
C284 H271 0.960 . S
C284 C283 1.524 . S
C285 C282 1.403 . S
C285 C286 1.392 . S
C285 C289 1.495 . S
C286 C285 1.392 . S
C286 C287 1.385 . S
C286 C288 1.478 . S
C287 H281 0.930 . S
C287 C283 1.400 . S
C287 C286 1.385 . S
C288 C286 1.478 . S
C288 C290 1.381 . S
C288 C294 1.383 . S
C289 C285 1.495 . S
C289 H295 0.959 . S
C289 H296 0.961 . S
C289 H297 0.960 . S
C290 C288 1.381 . S
C290 C291 1.394 . S
C290 H298 0.930 . S
C291 C290 1.394 . S
C291 C292 1.383 . S
C291 H299 0.929 . S
C292 C291 1.383 . S
C292 C293 1.377 . S
C293 H277 0.930 . S
C293 C292 1.377 . S
C293 C294 1.379 . S
C294 H278 0.931 . S
C294 C288 1.383 . S
C294 C293 1.379 . S
H295 C289 0.959 . S
H296 C289 0.961 . S
H297 C289 0.960 . S
H298 C290 0.930 . S
H299 C291 0.929 . S
H300 C308 0.929 . S
H301 C310 0.930 . S
H302 C312 0.930 . S
H303 C315 0.929 . S
H304 C318 0.930 . S
H305 C320 0.960 1_554 S
H306 C320 0.960 . S
H307 C320 0.960 . S
C308 H300 0.929 . S
C308 C309 1.377 . S
C308 C310 1.384 . S
C309 C308 1.377 . S
C309 C315 1.390 . S
C310 H301 0.930 . S
C310 C308 1.384 . S
C310 C311 1.372 . S
C311 C310 1.372 . S
C311 C312 1.400 . S
C311 C316 1.490 . S
C312 H302 0.930 . S
C312 C311 1.400 . S
C312 C315 1.386 . S
H313 C329 0.930 . S
H314 C330 0.931 . S
C315 H303 0.929 . S
C315 C309 1.390 . S
C315 C312 1.386 . S
C316 C311 1.490 . S
C316 C318 1.395 . S
C316 C319 1.403 . S
H317 C323 0.930 . S
C318 H304 0.930 . S
C318 C316 1.395 . S
C318 C321 1.403 1_556 S
C319 C316 1.403 . S
C319 C320 1.524 . S
C319 C323 1.400 1_556 S
C320 H305 0.960 1_556 S
C320 H306 0.960 . S
C320 H307 0.960 . S
C320 C319 1.524 . S
C321 C318 1.403 1_554 S
C321 C322 1.392 . S
C321 C325 1.495 . S
C322 C321 1.392 . S
C322 C323 1.385 . S
C322 C324 1.478 . S
C323 H317 0.930 . S
C323 C319 1.400 1_554 S
C323 C322 1.385 . S
C324 C322 1.478 . S
C324 C326 1.381 . S
C324 C330 1.383 . S
C325 C321 1.495 . S
C325 H331 0.959 . S
C325 H332 0.961 . S
C325 H333 0.960 . S
C326 C324 1.381 . S
C326 C327 1.394 . S
C326 H334 0.930 . S
C327 C326 1.394 . S
C327 C328 1.383 . S
C327 H335 0.929 . S
C328 C327 1.383 . S
C328 C329 1.377 . S
C329 H313 0.930 . S
C329 C328 1.377 . S
C329 C330 1.379 . S
C330 H314 0.931 . S
C330 C324 1.383 . S
C330 C329 1.379 . S
H331 C325 0.959 . S
H332 C325 0.961 . S
H333 C325 0.960 . S
H334 C326 0.930 . S
H335 C327 0.929 . S
H336 C344 0.929 . S
H337 C346 0.930 . S
H338 C348 0.930 . S
H339 C351 0.929 . S
H340 C354 0.930 . S
H341 C356 0.960 . S
H342 C356 0.960 . S
H343 C356 0.960 . S
C344 H336 0.929 . S
C344 C345 1.377 . S
C344 C346 1.384 . S
C345 C344 1.377 . S
C345 C351 1.390 . S
C346 H337 0.930 . S
C346 C344 1.384 . S
C346 C347 1.372 . S
C347 C346 1.372 . S
C347 C348 1.400 . S
C347 C352 1.490 . S
C348 H338 0.930 . S
C348 C347 1.400 . S
C348 C351 1.386 . S
H349 C365 0.930 . S
H350 C366 0.931 . S
C351 H339 0.929 . S
C351 C345 1.390 . S
C351 C348 1.386 . S
C352 C347 1.490 . S
C352 C354 1.395 . S
C352 C355 1.403 . S
H353 C359 0.930 . S
C354 H340 0.930 . S
C354 C352 1.395 . S
C354 C357 1.403 . S
C355 C352 1.403 . S
C355 C356 1.524 . S
C355 C359 1.400 . S
C356 H341 0.960 . S
C356 H342 0.960 . S
C356 H343 0.960 . S
C356 C355 1.524 . S
C357 C354 1.403 . S
C357 C358 1.392 . S
C357 C361 1.495 . S
C358 C357 1.392 . S
C358 C359 1.385 . S
C358 C360 1.478 . S
C359 H353 0.930 . S
C359 C355 1.400 . S
C359 C358 1.385 . S
C360 C358 1.478 . S
C360 C362 1.381 . S
C360 C366 1.383 . S
C361 C357 1.495 . S
C361 H367 0.959 . S
C361 H368 0.961 . S
C361 H369 0.960 . S
C362 C360 1.381 . S
C362 C363 1.394 . S
C362 H370 0.930 . S
C363 C362 1.394 . S
C363 C364 1.383 . S
C363 H371 0.929 . S
C364 C363 1.383 . S
C364 C365 1.377 . S
C365 H349 0.930 . S
C365 C364 1.377 . S
C365 C366 1.379 . S
C366 H350 0.931 . S
C366 C360 1.383 . S
C366 C365 1.379 . S
H367 C361 0.959 . S
H368 C361 0.961 . S
H369 C361 0.960 . S
H370 C362 0.930 . S
H371 C363 0.929 . S
H372 C380 0.929 . S
H373 C382 0.930 . S
H374 C384 0.930 . S
H375 C387 0.929 . S
H376 C390 0.930 . S
H377 C392 0.960 . S
H378 C392 0.960 . S
H379 C392 0.960 . S
C380 H372 0.929 . S
C380 C381 1.377 . S
C380 C382 1.384 . S
C381 C380 1.377 . S
C381 C387 1.390 . S
C382 H373 0.930 . S
C382 C380 1.384 . S
C382 C383 1.372 . S
C383 C382 1.372 . S
C383 C384 1.400 . S
C383 C388 1.490 . S
C384 H374 0.930 . S
C384 C383 1.400 . S
C384 C387 1.386 . S
H385 C401 0.930 . S
H386 C402 0.931 . S
C387 H375 0.929 . S
C387 C381 1.390 . S
C387 C384 1.386 . S
C388 C383 1.490 . S
C388 C390 1.395 . S
C388 C391 1.403 . S
H389 C395 0.930 . S
C390 H376 0.930 . S
C390 C388 1.395 . S
C390 C393 1.403 . S
C391 C388 1.403 . S
C391 C392 1.524 . S
C391 C395 1.400 . S
C392 H377 0.960 . S
C392 H378 0.960 . S
C392 H379 0.960 . S
C392 C391 1.524 . S
C393 C390 1.403 . S
C393 C394 1.392 . S
C393 C397 1.495 . S
C394 C393 1.392 . S
C394 C395 1.385 . S
C394 C396 1.478 . S
C395 H389 0.930 . S
C395 C391 1.400 . S
C395 C394 1.385 . S
C396 C394 1.478 . S
C396 C398 1.381 . S
C396 C402 1.383 . S
C397 C393 1.495 . S
C397 H403 0.959 . S
C397 H404 0.961 . S
C397 H405 0.960 . S
C398 C396 1.381 . S
C398 C399 1.394 . S
C398 H406 0.930 . S
C399 C398 1.394 . S
C399 C400 1.383 . S
C399 H407 0.929 . S
C400 C399 1.383 . S
C400 C401 1.377 . S
C401 H385 0.930 . S
C401 C400 1.377 . S
C401 C402 1.379 . S
C402 H386 0.931 . S
C402 C396 1.383 . S
C402 C401 1.379 . S
H403 C397 0.959 . S
H404 C397 0.961 . S
H405 C397 0.960 . S
H406 C398 0.930 . S
H407 C399 0.929 . S
H408 C416 0.929 . S
H409 C418 0.930 . S
H410 C420 0.930 . S
H411 C423 0.929 . S
H412 C426 0.930 . S
H413 C428 0.956 1_554 S
H414 C428 0.960 . S
H415 C428 0.960 . S
C416 H408 0.929 . S
C416 C417 1.377 . S
C416 C418 1.384 . S
C417 C416 1.377 . S
C417 C423 1.390 . S
C418 H409 0.930 . S
C418 C416 1.384 . S
C418 C419 1.372 . S
C419 C418 1.372 . S
C419 C420 1.400 . S
C419 C424 1.490 . S
C420 H410 0.930 . S
C420 C419 1.400 . S
C420 C423 1.386 . S
H421 C437 0.930 . S
H422 C438 0.931 . S
C423 H411 0.929 . S
C423 C417 1.390 . S
C423 C420 1.386 . S
C424 C419 1.490 . S
C424 C426 1.395 . S
C424 C427 1.403 . S
H425 C431 0.930 . S
C426 H412 0.930 . S
C426 C424 1.395 . S
C426 C429 1.403 1_556 S
C427 C424 1.403 . S
C427 C428 1.524 . S
C427 C431 1.400 1_556 S
C428 H413 0.956 1_556 S
C428 H414 0.960 . S
C428 H415 0.960 . S
C428 C427 1.524 . S
C429 C426 1.403 1_554 S
C429 C430 1.392 . S
C429 C433 1.495 . S
C430 C429 1.392 . S
C430 C431 1.385 . S
C430 C432 1.478 . S
C431 H425 0.930 . S
C431 C427 1.400 1_554 S
C431 C430 1.385 . S
C432 C430 1.478 . S
C432 C434 1.381 . S
C432 C438 1.383 . S
C433 C429 1.495 . S
C433 H439 0.959 . S
C433 H440 0.961 . S
C433 H441 0.960 . S
C434 C432 1.381 . S
C434 C435 1.394 . S
C434 H442 0.930 . S
C435 C434 1.394 . S
C435 C436 1.383 . S
C435 H443 0.929 . S
C436 C435 1.383 . S
C436 C437 1.377 . S
C437 H421 0.930 . S
C437 C436 1.377 . S
C437 C438 1.379 . S
C438 H422 0.931 . S
C438 C432 1.383 . S
C438 C437 1.379 . S
H439 C433 0.959 . S
H440 C433 0.961 . S
H441 C433 0.960 . S
H442 C434 0.930 . S
H443 C435 0.929 . S
H444 C452 0.929 . S
H445 C454 0.930 . S
H446 C456 0.930 . S
H447 C459 0.929 . S
H448 C462 0.930 . S
H449 C464 0.960 . S
H450 C464 0.960 . S
H451 C464 0.960 . S
C452 H444 0.929 . S
C452 C453 1.377 . S
C452 C454 1.384 . S
C453 C452 1.377 . S
C453 C459 1.390 . S
C454 H445 0.930 . S
C454 C452 1.384 . S
C454 C455 1.372 . S
C455 C454 1.372 . S
C455 C456 1.400 . S
C455 C460 1.490 . S
C456 H446 0.930 . S
C456 C455 1.400 . S
C456 C459 1.386 . S
H457 C473 0.930 . S
H458 C474 0.931 . S
C459 H447 0.929 . S
C459 C453 1.390 . S
C459 C456 1.386 . S
C460 C455 1.490 . S
C460 C462 1.395 . S
C460 C463 1.403 . S
H461 C467 0.930 . S
C462 H448 0.930 . S
C462 C460 1.395 . S
C462 C465 1.403 . S
C463 C460 1.403 . S
C463 C464 1.524 . S
C463 C467 1.400 . S
C464 H449 0.960 . S
C464 H450 0.960 . S
C464 H451 0.960 . S
C464 C463 1.524 . S
C465 C462 1.403 . S
C465 C466 1.392 . S
C465 C469 1.495 . S
C466 C465 1.392 . S
C466 C467 1.385 . S
C466 C468 1.478 . S
C467 H461 0.930 . S
C467 C463 1.400 . S
C467 C466 1.385 . S
C468 C466 1.478 . S
C468 C470 1.381 . S
C468 C474 1.383 . S
C469 C465 1.495 . S
C469 H475 0.959 . S
C469 H476 0.961 . S
C469 H477 0.960 . S
C470 C468 1.381 . S
C470 C471 1.394 . S
C470 H478 0.930 . S
C471 C470 1.394 . S
C471 C472 1.383 . S
C471 H479 0.929 . S
C472 C471 1.383 . S
C472 C473 1.377 . S
C473 H457 0.930 . S
C473 C472 1.377 . S
C473 C474 1.379 . S
C474 H458 0.931 . S
C474 C468 1.383 . S
C474 C473 1.379 . S
H475 C469 0.959 . S
H476 C469 0.961 . S
H477 C469 0.960 . S
H478 C470 0.930 . S
H479 C471 0.929 . S
H480 C488 0.929 . S
H481 C490 0.930 . S
H482 C492 0.930 . S
H483 C495 0.929 . S
H484 C498 0.930 . S
H485 C500 0.960 . S
H486 C500 0.960 . S
H487 C500 0.960 . S
C488 H480 0.929 . S
C488 C489 1.377 . S
C488 C490 1.384 . S
C489 C488 1.377 . S
C489 C495 1.390 . S
C490 H481 0.930 . S
C490 C488 1.384 . S
C490 C491 1.372 . S
C491 C490 1.372 . S
C491 C492 1.400 . S
C491 C496 1.490 . S
C492 H482 0.930 . S
C492 C491 1.400 . S
C492 C495 1.386 . S
H493 C509 0.930 . S
H494 C510 0.931 . S
C495 H483 0.929 . S
C495 C489 1.390 . S
C495 C492 1.386 . S
C496 C491 1.490 . S
C496 C498 1.395 . S
C496 C499 1.403 . S
H497 C503 0.930 . S
C498 H484 0.930 . S
C498 C496 1.395 . S
C498 C501 1.403 . S
C499 C496 1.403 . S
C499 C500 1.524 . S
C499 C503 1.400 . S
C500 H485 0.960 . S
C500 H486 0.960 . S
C500 H487 0.960 . S
C500 C499 1.524 . S
C501 C498 1.403 . S
C501 C502 1.392 . S
C501 C505 1.495 . S
C502 C501 1.392 . S
C502 C503 1.385 . S
C502 C504 1.478 . S
C503 H497 0.930 . S
C503 C499 1.400 . S
C503 C502 1.385 . S
C504 C502 1.478 . S
C504 C506 1.381 . S
C504 C510 1.383 . S
C505 C501 1.495 . S
C505 H511 0.959 . S
C505 H512 0.961 . S
C505 H513 0.960 . S
C506 C504 1.381 . S
C506 C507 1.394 . S
C506 H514 0.930 . S
C507 C506 1.394 . S
C507 C508 1.383 . S
C507 H515 0.929 . S
C508 C507 1.383 . S
C508 C509 1.377 . S
C509 H493 0.930 . S
C509 C508 1.377 . S
C509 C510 1.379 . S
C510 H494 0.931 . S
C510 C504 1.383 . S
C510 C509 1.379 . S
H511 C505 0.959 . S
H512 C505 0.961 . S
H513 C505 0.960 . S
H514 C506 0.930 . S
H515 C507 0.929 . S
C93 C7 1.128 . S
C112 C49 1.112 . S
C129 C21 1.129 . S
C148 C63 1.115 . S
C165 C35 1.134 . S
C184 C77 1.136 . S
C201 C22 1.797 . S
C220 C64 1.807 . S
C237 C78 1.800 . S
C256 C36 1.807 . S
C273 C50 1.798 . S
C292 C8 1.795 . S
C309 C34 1.262 . S
C328 C9 1.215 . S
C345 C48 1.261 . S
C364 C23 1.221 . S
C381 C37 1.200 . S
C400 C62 1.259 . S
C417 C76 1.262 . S
C436 C51 1.224 . S
C453 C65 1.194 . S
C472 C6 1.257 . S
C489 C79 1.184 . S
C508 C20 1.258 . S
