# Generated by pormake.
# Topology fcp, (5)-cn, num edge types: 1
# Building blocks:
#     Node 0, Type 0, BuildingBlock: XOMCOT_clean_sbu_1, # of connection points: 5
#     Node 1, Type 0, BuildingBlock: XOMCOT_clean_sbu_1, # of connection points: 5
#     Node 2, Type 0, BuildingBlock: XOMCOT_clean_sbu_1, # of connection points: 5
#     Node 3, Type 0, BuildingBlock: XOMCOT_clean_sbu_1, # of connection points: 5
#     Node 4, Type 0, BuildingBlock: XOMCOT_clean_sbu_1, # of connection points: 5
#     Node 5, Type 0, BuildingBlock: XOMCOT_clean_sbu_1, # of connection points: 5
#     Node 6, Type 0, BuildingBlock: XOMCOT_clean_sbu_1, # of connection points: 5
#     Node 7, Type 0, BuildingBlock: XOMCOT_clean_sbu_1, # of connection points: 5
#     Node 8, Type 0, BuildingBlock: XOMCOT_clean_sbu_1, # of connection points: 5
#     Node 9, Type 0, BuildingBlock: XOMCOT_clean_sbu_1, # of connection points: 5
#     Node 10, Type 0, BuildingBlock: XOMCOT_clean_sbu_1, # of connection points: 5
#     Node 11, Type 0, BuildingBlock: XOMCOT_clean_sbu_1, # of connection points: 5
#     Node 12, Type 0, BuildingBlock: XOMCOT_clean_sbu_1, # of connection points: 5
#     Node 13, Type 0, BuildingBlock: XOMCOT_clean_sbu_1, # of connection points: 5
#     Node 14, Type 0, BuildingBlock: XOMCOT_clean_sbu_1, # of connection points: 5
#     Node 15, Type 0, BuildingBlock: XOMCOT_clean_sbu_1, # of connection points: 5
#     Node 16, Type 0, BuildingBlock: XOMCOT_clean_sbu_1, # of connection points: 5
#     Node 17, Type 0, BuildingBlock: XOMCOT_clean_sbu_1, # of connection points: 5
#     Node 18, Type 0, BuildingBlock: XOMCOT_clean_sbu_1, # of connection points: 5
#     Node 19, Type 0, BuildingBlock: XOMCOT_clean_sbu_1, # of connection points: 5
#     Node 20, Type 0, BuildingBlock: XOMCOT_clean_sbu_1, # of connection points: 5
#     Node 21, Type 0, BuildingBlock: XOMCOT_clean_sbu_1, # of connection points: 5
#     Node 22, Type 0, BuildingBlock: XOMCOT_clean_sbu_1, # of connection points: 5
#     Node 23, Type 0, BuildingBlock: XOMCOT_clean_sbu_1, # of connection points: 5
#     Edge 24, Type (0, 0), BuildingBlock: KIFKEQ_clean_linker_1, # of connection points: 2
#     Edge 25, Type (0, 0), BuildingBlock: KIFKEQ_clean_linker_1, # of connection points: 2
#     Edge 26, Type (0, 0), BuildingBlock: KIFKEQ_clean_linker_1, # of connection points: 2
#     Edge 27, Type (0, 0), BuildingBlock: KIFKEQ_clean_linker_1, # of connection points: 2
#     Edge 28, Type (0, 0), BuildingBlock: KIFKEQ_clean_linker_1, # of connection points: 2
#     Edge 29, Type (0, 0), BuildingBlock: KIFKEQ_clean_linker_1, # of connection points: 2
#     Edge 30, Type (0, 0), BuildingBlock: KIFKEQ_clean_linker_1, # of connection points: 2
#     Edge 31, Type (0, 0), BuildingBlock: KIFKEQ_clean_linker_1, # of connection points: 2
#     Edge 32, Type (0, 0), BuildingBlock: KIFKEQ_clean_linker_1, # of connection points: 2
#     Edge 33, Type (0, 0), BuildingBlock: KIFKEQ_clean_linker_1, # of connection points: 2
#     Edge 34, Type (0, 0), BuildingBlock: KIFKEQ_clean_linker_1, # of connection points: 2
#     Edge 35, Type (0, 0), BuildingBlock: KIFKEQ_clean_linker_1, # of connection points: 2
#     Edge 36, Type (0, 0), BuildingBlock: KIFKEQ_clean_linker_1, # of connection points: 2
#     Edge 37, Type (0, 0), BuildingBlock: KIFKEQ_clean_linker_1, # of connection points: 2
#     Edge 38, Type (0, 0), BuildingBlock: KIFKEQ_clean_linker_1, # of connection points: 2
#     Edge 39, Type (0, 0), BuildingBlock: KIFKEQ_clean_linker_1, # of connection points: 2
#     Edge 40, Type (0, 0), BuildingBlock: KIFKEQ_clean_linker_1, # of connection points: 2
#     Edge 41, Type (0, 0), BuildingBlock: KIFKEQ_clean_linker_1, # of connection points: 2
#     Edge 42, Type (0, 0), BuildingBlock: KIFKEQ_clean_linker_1, # of connection points: 2
#     Edge 43, Type (0, 0), BuildingBlock: KIFKEQ_clean_linker_1, # of connection points: 2
#     Edge 44, Type (0, 0), BuildingBlock: KIFKEQ_clean_linker_1, # of connection points: 2
#     Edge 45, Type (0, 0), BuildingBlock: KIFKEQ_clean_linker_1, # of connection points: 2
#     Edge 46, Type (0, 0), BuildingBlock: KIFKEQ_clean_linker_1, # of connection points: 2
#     Edge 47, Type (0, 0), BuildingBlock: KIFKEQ_clean_linker_1, # of connection points: 2
#     Edge 48, Type (0, 0), BuildingBlock: KIFKEQ_clean_linker_1, # of connection points: 2
#     Edge 49, Type (0, 0), BuildingBlock: KIFKEQ_clean_linker_1, # of connection points: 2
#     Edge 50, Type (0, 0), BuildingBlock: KIFKEQ_clean_linker_1, # of connection points: 2
#     Edge 51, Type (0, 0), BuildingBlock: KIFKEQ_clean_linker_1, # of connection points: 2
#     Edge 52, Type (0, 0), BuildingBlock: KIFKEQ_clean_linker_1, # of connection points: 2
#     Edge 53, Type (0, 0), BuildingBlock: KIFKEQ_clean_linker_1, # of connection points: 2
#     Edge 54, Type (0, 0), BuildingBlock: KIFKEQ_clean_linker_1, # of connection points: 2
#     Edge 55, Type (0, 0), BuildingBlock: KIFKEQ_clean_linker_1, # of connection points: 2
#     Edge 56, Type (0, 0), BuildingBlock: KIFKEQ_clean_linker_1, # of connection points: 2
#     Edge 57, Type (0, 0), BuildingBlock: KIFKEQ_clean_linker_1, # of connection points: 2
#     Edge 58, Type (0, 0), BuildingBlock: KIFKEQ_clean_linker_1, # of connection points: 2
#     Edge 59, Type (0, 0), BuildingBlock: KIFKEQ_clean_linker_1, # of connection points: 2
#     Edge 60, Type (0, 0), BuildingBlock: KIFKEQ_clean_linker_1, # of connection points: 2
#     Edge 61, Type (0, 0), BuildingBlock: KIFKEQ_clean_linker_1, # of connection points: 2
#     Edge 62, Type (0, 0), BuildingBlock: KIFKEQ_clean_linker_1, # of connection points: 2
#     Edge 63, Type (0, 0), BuildingBlock: KIFKEQ_clean_linker_1, # of connection points: 2
#     Edge 64, Type (0, 0), BuildingBlock: KIFKEQ_clean_linker_1, # of connection points: 2
#     Edge 65, Type (0, 0), BuildingBlock: KIFKEQ_clean_linker_1, # of connection points: 2
#     Edge 66, Type (0, 0), BuildingBlock: KIFKEQ_clean_linker_1, # of connection points: 2
#     Edge 67, Type (0, 0), BuildingBlock: KIFKEQ_clean_linker_1, # of connection points: 2
#     Edge 68, Type (0, 0), BuildingBlock: KIFKEQ_clean_linker_1, # of connection points: 2
#     Edge 69, Type (0, 0), BuildingBlock: KIFKEQ_clean_linker_1, # of connection points: 2
#     Edge 70, Type (0, 0), BuildingBlock: KIFKEQ_clean_linker_1, # of connection points: 2
#     Edge 71, Type (0, 0), BuildingBlock: KIFKEQ_clean_linker_1, # of connection points: 2
#     Edge 72, Type (0, 0), BuildingBlock: KIFKEQ_clean_linker_1, # of connection points: 2
#     Edge 73, Type (0, 0), BuildingBlock: KIFKEQ_clean_linker_1, # of connection points: 2
#     Edge 74, Type (0, 0), BuildingBlock: KIFKEQ_clean_linker_1, # of connection points: 2
#     Edge 75, Type (0, 0), BuildingBlock: KIFKEQ_clean_linker_1, # of connection points: 2
#     Edge 76, Type (0, 0), BuildingBlock: KIFKEQ_clean_linker_1, # of connection points: 2
#     Edge 77, Type (0, 0), BuildingBlock: KIFKEQ_clean_linker_1, # of connection points: 2
#     Edge 78, Type (0, 0), BuildingBlock: KIFKEQ_clean_linker_1, # of connection points: 2
#     Edge 79, Type (0, 0), BuildingBlock: KIFKEQ_clean_linker_1, # of connection points: 2
#     Edge 80, Type (0, 0), BuildingBlock: KIFKEQ_clean_linker_1, # of connection points: 2
#     Edge 81, Type (0, 0), BuildingBlock: KIFKEQ_clean_linker_1, # of connection points: 2
#     Edge 82, Type (0, 0), BuildingBlock: KIFKEQ_clean_linker_1, # of connection points: 2
#     Edge 83, Type (0, 0), BuildingBlock: KIFKEQ_clean_linker_1, # of connection points: 2
# Relax obj value: 0.100
# Max RMSD: 0.138
# Mean RMSD: 0.138
data_MOF--net-fcp--node1-XOMCOT_clean_sbu_1--edge1-KIFKEQ_clean_linker_1
_symmetry_space_group_name_H-M    P1
_symmetry_Int_Tables_number       1
_symmetry_cell_setting            triclinic
loop_
_symmetry_equiv_pos_as_xyz
'x, y, z'
_cell_length_a     52.156579
_cell_length_b     52.162027
_cell_length_c     52.154389
_cell_angle_alpha  89.848054
_cell_angle_beta   89.951526
_cell_angle_gamma 90.072144
loop_
_atom_site_label
_atom_site_type_symbol
_atom_site_fract_x
_atom_site_fract_y
_atom_site_fract_z
_atom_type_partial_charge
C0 C 0.03859 0.32803 0.16564 0.0
C1 C 0.01598 0.33258 0.17854 0.0
N2 N 0.02145 0.34585 0.19999 0.0
N3 N 0.05812 0.33877 0.17871 0.0
C4 C 0.04712 0.34911 0.19974 0.0
H5 H 0.04064 0.31815 0.14755 0.0
Co6 Co 0.09241 0.34005 0.16865 0.0
C7 C 0.10177 0.39546 0.18259 0.0
O8 O 0.10614 0.40215 0.15868 0.0
N9 N 0.12756 0.34035 0.15907 0.0
C10 C 0.16979 0.3471 0.15762 0.0
C11 C 0.14659 0.357 0.16498 0.0
C12 C 0.14008 0.32024 0.14845 0.0
N13 N 0.16573 0.32387 0.14734 0.0
O14 O 0.10148 0.32054 0.19852 0.0
H15 H 0.14464 0.37451 0.17557 0.0
H16 H 0.13067 0.30263 0.14288 0.0
O17 O 0.09685 0.37204 0.1881 0.0
C18 C 0.09997 0.29648 0.19456 0.0
O19 O 0.09206 0.28855 0.17202 0.0
N20 N 0.08254 0.35721 0.13791 0.0
C21 C 0.06121 0.37252 0.09083 0.0
C22 C 0.05399 0.3845 0.11383 0.0
C23 C 0.06457 0.37632 0.13715 0.0
C24 C 0.08971 0.34543 0.11572 0.0
C25 C 0.07959 0.35293 0.0921 0.0
H26 H 0.05751 0.38467 0.15474 0.0
H27 H 0.10208 0.32893 0.11625 0.0
H28 H 0.05762 0.35955 0.21425 0.0
H29 H 0.997 0.32669 0.17256 0.0
H30 H 0.18832 0.35598 0.16049 0.0
H31 H 0.03976 0.39958 0.11396 0.0
H32 H 0.08509 0.34232 0.07516 0.0
C33 C 0.82783 0.47401 0.34641 0.0
C34 C 0.83202 0.49634 0.33292 0.0
N35 N 0.84813 0.49128 0.31331 0.0
N36 N 0.84134 0.45492 0.33555 0.0
C37 C 0.85326 0.46592 0.31528 0.0
H38 H 0.81622 0.4719 0.36349 0.0
Co39 Co 0.8431 0.42125 0.3478 0.0
C40 C 0.89932 0.4148 0.33283 0.0
O41 O 0.90873 0.41934 0.35569 0.0
N42 N 0.84445 0.38708 0.35959 0.0
C43 C 0.85673 0.35031 0.3775 0.0
C44 C 0.86459 0.37422 0.36959 0.0
C45 C 0.82461 0.37044 0.3615 0.0
N46 N 0.83159 0.34797 0.37233 0.0
O47 O 0.82433 0.41001 0.31824 0.0
H48 H 0.88358 0.38195 0.37213 0.0
H49 H 0.80514 0.37505 0.35613 0.0
O50 O 0.87512 0.41545 0.32899 0.0
C51 C 0.80036 0.41423 0.32055 0.0
O52 O 0.79217 0.42512 0.34173 0.0
N53 N 0.85915 0.43327 0.37837 0.0
C54 C 0.86949 0.45726 0.42543 0.0
C55 C 0.88127 0.46577 0.4027 0.0
C56 C 0.87574 0.45362 0.37937 0.0
C57 C 0.84798 0.42461 0.40045 0.0
C58 C 0.85347 0.43569 0.42406 0.0
H59 H 0.88365 0.46158 0.36191 0.0
H60 H 0.83341 0.4099 0.39984 0.0
H61 H 0.86552 0.45547 0.30226 0.0
H62 H 0.82431 0.51495 0.33774 0.0
H63 H 0.8685 0.33591 0.38673 0.0
H64 H 0.8934 0.48263 0.40259 0.0
H65 H 0.84411 0.42808 0.44099 0.0
C66 C 0.97787 0.68413 0.16743 0.0
C67 C 0.99991 0.67936 0.18108 0.0
N68 N 0.99398 0.66412 0.20116 0.0
N69 N 0.95813 0.6718 0.17868 0.0
C70 C 0.96844 0.66002 0.19936 0.0
H71 H 0.97629 0.6957 0.15026 0.0
Co72 Co 0.92434 0.67235 0.16698 0.0
C73 C 0.91328 0.61676 0.18103 0.0
O74 O 0.91427 0.60861 0.15726 0.0
N75 N 0.88999 0.67412 0.15576 0.0
C76 C 0.84923 0.66686 0.14527 0.0
C77 C 0.87236 0.65567 0.1512 0.0
C78 C 0.8771 0.69632 0.15202 0.0
N79 N 0.85225 0.69245 0.14583 0.0
O80 O 0.91497 0.69172 0.19669 0.0
H81 H 0.87562 0.63536 0.15219 0.0
H82 H 0.88565 0.71506 0.15441 0.0
O83 O 0.91673 0.64054 0.18604 0.0
C84 C 0.92127 0.71533 0.19576 0.0
O85 O 0.93327 0.72387 0.17527 0.0
N86 N 0.93467 0.65507 0.13645 0.0
C87 C 0.95776 0.64051 0.09022 0.0
C88 C 0.96558 0.62959 0.11348 0.0
C89 C 0.95378 0.63707 0.13636 0.0
C90 C 0.92669 0.66558 0.1138 0.0
C91 C 0.93759 0.65819 0.09047 0.0
H92 H 0.96087 0.62917 0.15417 0.0
H93 H 0.9129 0.681 0.11367 0.0
H94 H 0.95751 0.64831 0.21258 0.0
H95 H 0.01879 0.68681 0.17668 0.0
H96 H 0.83157 0.65691 0.14078 0.0
H97 H 0.98124 0.61598 0.11406 0.0
H98 H 0.93144 0.66752 0.07294 0.0
C99 C 0.18477 0.53802 0.34758 0.0
C100 C 0.17816 0.51529 0.33596 0.0
N101 N 0.164 0.52063 0.31497 0.0
N102 N 0.17469 0.55765 0.33413 0.0
C103 C 0.16237 0.5465 0.3143 0.0
H104 H 0.19607 0.5401 0.36483 0.0
Co105 Co 0.17747 0.5925 0.34158 0.0
C106 C 0.12396 0.61093 0.33296 0.0
O107 O 0.1239 0.62271 0.35521 0.0
N108 N 0.18087 0.62806 0.34817 0.0
C109 C 0.18116 0.66988 0.33912 0.0
C110 C 0.17149 0.64644 0.33241 0.0
C111 C 0.19714 0.64104 0.36377 0.0
N112 N 0.19752 0.66653 0.35873 0.0
O113 O 0.19357 0.59842 0.30913 0.0
H114 H 0.15987 0.643 0.31564 0.0
H115 H 0.21023 0.63195 0.37695 0.0
O116 O 0.14373 0.59822 0.32602 0.0
C117 C 0.21693 0.59139 0.30832 0.0
O118 O 0.22677 0.57974 0.32839 0.0
N119 N 0.16372 0.58569 0.37449 0.0
C120 C 0.15422 0.56336 0.42245 0.0
C121 C 0.13531 0.56322 0.40335 0.0
C122 C 0.14066 0.57398 0.37923 0.0
C123 C 0.18199 0.58629 0.39313 0.0
C124 C 0.17756 0.5756 0.41725 0.0
H125 H 0.12709 0.5709 0.36394 0.0
H126 H 0.2011 0.5927 0.38855 0.0
H127 H 0.15274 0.55726 0.29943 0.0
H128 H 0.18317 0.49634 0.34275 0.0
H129 H 0.17736 0.68782 0.3294 0.0
H130 H 0.11738 0.55316 0.40635 0.0
H131 H 0.19289 0.57558 0.43126 0.0
C132 C 0.03827 0.68713 0.84769 0.0
C133 C 0.01587 0.68253 0.83453 0.0
N134 N 0.02141 0.66777 0.81411 0.0
N135 N 0.05773 0.67493 0.83586 0.0
C136 C 0.04694 0.66368 0.81518 0.0
H137 H 0.0402 0.69796 0.86524 0.0
Co138 Co 0.0914 0.67341 0.84778 0.0
C139 C 0.09965 0.61773 0.83265 0.0
O140 O 0.09788 0.60899 0.85621 0.0
N141 N 0.1257 0.67297 0.85935 0.0
C142 C 0.16555 0.66322 0.87121 0.0
C143 C 0.14199 0.65348 0.86443 0.0
C144 C 0.13986 0.69429 0.86355 0.0
N145 N 0.16424 0.68898 0.87052 0.0
O146 O 0.10205 0.69318 0.81849 0.0
H147 H 0.13749 0.63341 0.86329 0.0
H148 H 0.13228 0.71346 0.86182 0.0
O149 O 0.09749 0.64178 0.82812 0.0
C150 C 0.09863 0.71722 0.82114 0.0
O151 O 0.08813 0.72558 0.84246 0.0
N152 N 0.07987 0.65586 0.87786 0.0
C153 C 0.0559 0.64105 0.92366 0.0
C154 C 0.04767 0.63116 0.90013 0.0
C155 C 0.05991 0.63875 0.87747 0.0
C156 C 0.08818 0.66541 0.90078 0.0
C157 C 0.07685 0.65785 0.92389 0.0
H158 H 0.05255 0.63167 0.85946 0.0
H159 H 0.10268 0.68019 0.9013 0.0
H160 H 0.05737 0.65191 0.80169 0.0
H161 H 0.99695 0.68932 0.83967 0.0
H162 H 0.18244 0.65208 0.87577 0.0
H163 H 0.03139 0.61828 0.89918 0.0
H164 H 0.08334 0.6664 0.94165 0.0
C165 C 0.18521 0.47757 0.66647 0.0
C166 C 0.18037 0.49975 0.67981 0.0
N167 N 0.16446 0.49417 0.69947 0.0
N168 N 0.17233 0.45804 0.67749 0.0
C169 C 0.16004 0.46866 0.69766 0.0
H170 H 0.19698 0.47581 0.64948 0.0
Co171 Co 0.17226 0.42432 0.66553 0.0
C172 C 0.11551 0.41559 0.67832 0.0
O173 O 0.10688 0.41814 0.65482 0.0
N174 N 0.17292 0.39024 0.65386 0.0
C175 C 0.16347 0.3514 0.63915 0.0
C176 C 0.15369 0.3749 0.64589 0.0
C177 C 0.19421 0.37566 0.65153 0.0
N178 N 0.18908 0.35181 0.64266 0.0
O179 O 0.18995 0.4136 0.69605 0.0
H180 H 0.13382 0.38026 0.6446 0.0
H181 H 0.21321 0.38275 0.65577 0.0
O182 O 0.1395 0.41766 0.68305 0.0
C183 C 0.21353 0.42003 0.69659 0.0
O184 O 0.22303 0.433 0.67714 0.0
N185 N 0.15722 0.43576 0.63436 0.0
C186 C 0.14887 0.4611 0.58769 0.0
C187 C 0.13422 0.46719 0.60938 0.0
C188 C 0.13903 0.45462 0.6327 0.0
C189 C 0.17096 0.42916 0.61309 0.0
C190 C 0.16692 0.44135 0.58962 0.0
H191 H 0.12937 0.46129 0.64976 0.0
H192 H 0.18658 0.41567 0.61457 0.0
H193 H 0.14816 0.45782 0.71081 0.0
H194 H 0.18758 0.51859 0.67494 0.0
H195 H 0.15238 0.33531 0.63227 0.0
H196 H 0.12051 0.48276 0.60879 0.0
H197 H 0.17881 0.43623 0.57338 0.0
C198 C 0.97866 0.33187 0.84834 0.0
C199 C 1.00019 0.33819 0.83447 0.0
N200 N 0.99298 0.35275 0.81439 0.0
N201 N 0.95795 0.34267 0.83728 0.0
C202 C 0.96723 0.35503 0.81638 0.0
H203 H 0.97813 0.32048 0.86569 0.0
Co204 Co 0.92492 0.34065 0.85086 0.0
C205 C 0.90528 0.39395 0.83878 0.0
O206 O 0.89997 0.3992 0.86277 0.0
N207 N 0.89109 0.33792 0.86501 0.0
C208 C 0.85675 0.3422 0.89027 0.0
C209 C 0.88064 0.35162 0.88439 0.0
C210 C 0.8729 0.32003 0.85977 0.0
N211 N 0.85188 0.3222 0.87484 0.0
O212 O 0.91443 0.32167 0.82127 0.0
H213 H 0.89016 0.36665 0.89492 0.0
H214 H 0.8751 0.30518 0.8456 0.0
O215 O 0.91539 0.37242 0.83292 0.0
C216 C 0.91972 0.29787 0.82295 0.0
O217 O 0.93068 0.28942 0.84401 0.0
N218 N 0.93696 0.35704 0.88059 0.0
C219 C 0.96346 0.37006 0.92519 0.0
C220 C 0.96269 0.38707 0.9043 0.0
C221 C 0.94972 0.37992 0.88182 0.0
C222 C 0.93734 0.34057 0.90092 0.0
C223 C 0.95031 0.34674 0.92341 0.0
H224 H 0.95123 0.39202 0.86504 0.0
H225 H 0.92845 0.3219 0.89918 0.0
H226 H 0.9555 0.36601 0.80326 0.0
H227 H 0.01967 0.33245 0.83876 0.0
H228 H 0.84462 0.34866 0.90581 0.0
H229 H 0.97325 0.40495 0.90481 0.0
H230 H 0.95078 0.33299 0.93901 0.0
C231 C 0.82722 0.53706 0.67016 0.0
C232 C 0.83167 0.51474 0.68359 0.0
N233 N 0.84787 0.51991 0.70308 0.0
N234 N 0.84067 0.55626 0.68095 0.0
C235 C 0.85284 0.54531 0.70107 0.0
H236 H 0.81498 0.53922 0.65357 0.0
Co237 Co 0.84074 0.59051 0.67013 0.0
C238 C 0.89679 0.59847 0.68407 0.0
O239 O 0.90541 0.59592 0.66057 0.0
N240 N 0.83998 0.62533 0.66012 0.0
C241 C 0.84921 0.6659 0.65029 0.0
C242 C 0.85927 0.64226 0.65631 0.0
C243 C 0.81844 0.63916 0.65595 0.0
N244 N 0.82352 0.66387 0.65003 0.0
O245 O 0.82186 0.59934 0.70035 0.0
H246 H 0.87942 0.63801 0.65757 0.0
H247 H 0.79931 0.63129 0.6574 0.0
O248 O 0.87278 0.59681 0.68877 0.0
C249 C 0.79794 0.59474 0.69821 0.0
O250 O 0.78959 0.58461 0.67672 0.0
N251 N 0.85723 0.58085 0.63877 0.0
C252 C 0.86887 0.55974 0.59057 0.0
C253 C 0.87992 0.54982 0.61306 0.0
C254 C 0.87384 0.56061 0.63691 0.0
C255 C 0.847 0.59108 0.61692 0.0
C256 C 0.85314 0.5814 0.59281 0.0
H257 H 0.88155 0.55175 0.654 0.0
H258 H 0.83262 0.60587 0.61785 0.0
H259 H 0.8653 0.55578 0.71388 0.0
H260 H 0.82321 0.49626 0.67948 0.0
H261 H 0.85999 0.68314 0.64601 0.0
H262 H 0.89192 0.53292 0.61254 0.0
H263 H 0.84444 0.59019 0.57613 0.0
C264 C 0.1687 0.03291 0.32674 0.0
C265 C 0.18287 0.01118 0.33142 0.0
N266 N 0.20161 0.01702 0.34826 0.0
N267 N 0.17829 0.05243 0.3406 0.0
C268 C 0.19845 0.04226 0.35335 0.0
H269 H 0.15232 0.03444 0.31412 0.0
Co270 Co 0.16511 0.08571 0.34067 0.0
C271 C 0.1778 0.09527 0.39718 0.0
O272 O 0.15419 0.09284 0.40559 0.0
N273 N 0.1522 0.1196 0.33986 0.0
C274 C 0.139 0.15915 0.34911 0.0
C275 C 0.14607 0.13578 0.35912 0.0
C276 C 0.14816 0.13357 0.31832 0.0
N277 N 0.14034 0.15772 0.32341 0.0
O278 O 0.19507 0.09728 0.32253 0.0
H279 H 0.1466 0.13131 0.37923 0.0
H280 H 0.15134 0.12635 0.29917 0.0
O281 O 0.18273 0.09291 0.37325 0.0
C282 C 0.19381 0.09302 0.2985 0.0
O283 O 0.17338 0.08131 0.28954 0.0
N284 N 0.13452 0.07328 0.35619 0.0
C285 C 0.08864 0.0472 0.36664 0.0
C286 C 0.11094 0.04177 0.38063 0.0
C287 C 0.13384 0.05464 0.37471 0.0
C288 C 0.11274 0.07908 0.34288 0.0
C289 C 0.08966 0.06645 0.3479 0.0
H290 H 0.15131 0.0486 0.38409 0.0
H291 H 0.11348 0.09237 0.32698 0.0
H292 H 0.21035 0.05308 0.3664 0.0
H293 H 0.17974 0.99261 0.32277 0.0
H294 H 0.13311 0.17584 0.35989 0.0
H295 H 0.11108 0.02658 0.39482 0.0
H296 H 0.07294 0.071 0.33645 0.0
C297 C 0.53661 0.35123 0.17969 0.0
C298 C 0.51459 0.33801 0.17371 0.0
N299 N 0.5212 0.31691 0.16044 0.0
N300 N 0.55699 0.33872 0.16993 0.0
C301 C 0.54704 0.31767 0.15857 0.0
H302 H 0.53773 0.36909 0.19013 0.0
Co303 Co 0.5908 0.35017 0.17189 0.0
C304 C 0.60588 0.33662 0.11698 0.0
O305 O 0.60782 0.36044 0.10908 0.0
N306 N 0.62522 0.36171 0.17447 0.0
C307 C 0.66256 0.38152 0.16802 0.0
C308 C 0.63889 0.37618 0.15783 0.0
C309 C 0.64111 0.35882 0.19481 0.0
N310 N 0.66401 0.37059 0.19138 0.0
O311 O 0.59949 0.31998 0.19111 0.0
H312 H 0.63175 0.38401 0.14011 0.0
H313 H 0.63581 0.34871 0.2121 0.0
O314 O 0.59936 0.33166 0.14014 0.0
C315 C 0.59231 0.32062 0.21449 0.0
O316 O 0.57996 0.341 0.22261 0.0
N317 N 0.58098 0.38081 0.15521 0.0
C318 C 0.55999 0.4281 0.14055 0.0
C319 C 0.55547 0.40585 0.12603 0.0
C320 C 0.56567 0.38229 0.13401 0.0
C321 C 0.58533 0.40213 0.16964 0.0
C322 C 0.57529 0.42586 0.16259 0.0
H323 H 0.56042 0.36509 0.12374 0.0
H324 H 0.59574 0.40051 0.18749 0.0
H325 H 0.55843 0.30348 0.14865 0.0
H326 H 0.49522 0.3434 0.17885 0.0
H327 H 0.67698 0.39373 0.15941 0.0
H328 H 0.54361 0.4064 0.10902 0.0
H329 H 0.57851 0.44202 0.17516 0.0
C330 C 0.84732 0.97313 0.33664 0.0
C331 C 0.83472 0.99564 0.34214 0.0
N332 N 0.81368 0.99003 0.35616 0.0
N333 N 0.83444 0.95341 0.34731 0.0
C334 C 0.81399 0.96425 0.3589 0.0
H335 H 0.86454 0.9712 0.32524 0.0
Co336 Co 0.84214 0.9187 0.34462 0.0
C337 C 0.83411 0.89944 0.39771 0.0
O338 O 0.8564 0.88773 0.39676 0.0
N339 N 0.84885 0.88314 0.34113 0.0
C340 C 0.83957 0.8414 0.34045 0.0
C341 C 0.83296 0.86475 0.3503 0.0
C342 C 0.86438 0.87028 0.32471 0.0
N343 N 0.85919 0.84483 0.32409 0.0
O344 O 0.80991 0.91292 0.32814 0.0
H345 H 0.81611 0.86815 0.36185 0.0
H346 H 0.87754 0.87948 0.31162 0.0
O347 O 0.82655 0.9127 0.37848 0.0
C348 C 0.81228 0.91749 0.30425 0.0
O349 O 0.83461 0.92562 0.29576 0.0
N350 N 0.875 0.92552 0.35849 0.0
C351 C 0.9239 0.94549 0.36923 0.0
C352 C 0.90408 0.94664 0.3875 0.0
C353 C 0.87964 0.93706 0.38156 0.0
C354 C 0.89392 0.92458 0.3405 0.0
C355 C 0.91843 0.93404 0.34553 0.0
H356 H 0.86421 0.94041 0.39494 0.0
H357 H 0.88947 0.91854 0.32127 0.0
H358 H 0.79951 0.95334 0.36902 0.0
H359 H 0.84029 0.01456 0.33564 0.0
H360 H 0.82969 0.8235 0.34407 0.0
H361 H 0.9071 0.95568 0.40591 0.0
H362 H 0.93245 0.93383 0.33021 0.0
C363 C 0.47568 0.67649 0.19137 0.0
C364 C 0.49736 0.6913 0.18883 0.0
N365 N 0.4931 0.70891 0.17039 0.0
N366 N 0.45773 0.68479 0.17476 0.0
C367 C 0.46891 0.70458 0.16215 0.0
H368 H 0.47312 0.66057 0.20446 0.0
Co369 Co 0.42509 0.6703 0.17228 0.0
C370 C 0.41671 0.68482 0.11609 0.0
O371 O 0.4206 0.66177 0.10689 0.0
N372 N 0.39182 0.65573 0.17036 0.0
C373 C 0.35743 0.6335 0.15811 0.0
C374 C 0.38116 0.64243 0.15086 0.0
C375 C 0.374 0.65456 0.18925 0.0
N376 N 0.35294 0.6412 0.18227 0.0
O377 O 0.41146 0.69886 0.19112 0.0
H378 H 0.39042 0.63811 0.13294 0.0
H379 H 0.37676 0.66226 0.20824 0.0
O380 O 0.41839 0.68907 0.14019 0.0
C381 C 0.41452 0.69611 0.21523 0.0
O382 O 0.42549 0.67499 0.22354 0.0
N383 N 0.43964 0.64118 0.15633 0.0
C384 C 0.46463 0.59575 0.14214 0.0
C385 C 0.47056 0.61919 0.1301 0.0
C386 C 0.45832 0.64177 0.13793 0.0
C387 C 0.43431 0.61877 0.16876 0.0
C388 C 0.44627 0.59593 0.16183 0.0
H389 H 0.46419 0.6598 0.12949 0.0
H390 H 0.42129 0.61868 0.18491 0.0
H391 H 0.45948 0.71583 0.14748 0.0
H392 H 0.51503 0.68909 0.19948 0.0
H393 H 0.3447 0.62178 0.14667 0.0
H394 H 0.48481 0.62025 0.11503 0.0
H395 H 0.44183 0.57877 0.17269 0.0
C396 C 0.16917 0.97904 0.68715 0.0
C397 C 0.18286 1.0011 0.68235 0.0
N398 N 0.20192 0.99561 0.66573 0.0
N399 N 0.1794 0.95963 0.6736 0.0
C400 C 0.19944 0.97023 0.66093 0.0
H401 H 0.1527 0.9772 0.69965 0.0
Co402 Co 0.1674 0.92577 0.67368 0.0
C403 C 0.18019 0.91737 0.61727 0.0
O404 O 0.15661 0.91989 0.60887 0.0
N405 N 0.1561 0.89151 0.67466 0.0
C406 C 0.14452 0.85135 0.66603 0.0
C407 C 0.15095 0.87477 0.65561 0.0
C408 C 0.15233 0.87786 0.69643 0.0
N409 N 0.14536 0.85337 0.69172 0.0
O410 O 0.19778 0.91538 0.69161 0.0
H411 H 0.15164 0.87899 0.63541 0.0
H412 H 0.15498 0.8857 0.71544 0.0
O413 O 0.18511 0.91918 0.64122 0.0
C414 C 0.19876 0.92184 0.71513 0.0
O415 O 0.17969 0.93504 0.72492 0.0
N416 N 0.13621 0.93678 0.65789 0.0
C417 C 0.0888 0.95952 0.64588 0.0
C418 C 0.11165 0.96827 0.63451 0.0
C419 C 0.13507 0.95667 0.64074 0.0
C420 C 0.11409 0.92783 0.66873 0.0
C421 C 0.09033 0.93834 0.66247 0.0
H422 H 0.15244 0.96455 0.63259 0.0
H423 H 0.11465 0.91327 0.68345 0.0
H424 H 0.21173 0.95957 0.64813 0.0
H425 H 0.17913 0.01966 0.69077 0.0
H426 H 0.13924 0.83427 0.65552 0.0
H427 H 0.1118 0.98478 0.62191 0.0
H428 H 0.07338 0.93036 0.67146 0.0
C429 C 0.47171 0.34461 0.8272 0.0
C430 C 0.49386 0.33115 0.83183 0.0
N431 N 0.48849 0.31177 0.84817 0.0
N432 N 0.45236 0.33397 0.84063 0.0
C433 C 0.46307 0.31389 0.85308 0.0
H434 H 0.46988 0.36153 0.81531 0.0
Co435 Co 0.4191 0.34706 0.84135 0.0
C436 C 0.40847 0.33341 0.89741 0.0
O437 O 0.41002 0.35698 0.90598 0.0
N438 N 0.38525 0.3603 0.84144 0.0
C439 C 0.34977 0.38195 0.85125 0.0
C440 C 0.3734 0.37413 0.85985 0.0
C441 C 0.36825 0.3601 0.82179 0.0
N442 N 0.34655 0.37311 0.82728 0.0
O443 O 0.4074 0.31756 0.82267 0.0
H444 H 0.3818 0.37973 0.87781 0.0
H445 H 0.37214 0.35177 0.80326 0.0
O446 O 0.41193 0.32867 0.87359 0.0
C447 C 0.41215 0.31962 0.79876 0.0
O448 O 0.42362 0.34057 0.79061 0.0
N449 N 0.43184 0.3771 0.85719 0.0
C450 C 0.45817 0.42256 0.86786 0.0
C451 C 0.46267 0.40042 0.88246 0.0
C452 C 0.44969 0.37764 0.87641 0.0
C453 C 0.42713 0.39868 0.84314 0.0
C454 C 0.43987 0.42159 0.84829 0.0
H455 H 0.45508 0.36014 0.88616 0.0
H456 H 0.41451 0.39781 0.82673 0.0
H457 H 0.45241 0.30116 0.86555 0.0
H458 H 0.5126 0.33584 0.82423 0.0
H459 H 0.33632 0.39386 0.8616 0.0
H460 H 0.47726 0.40029 0.89723 0.0
H461 H 0.43624 0.43818 0.83629 0.0
C462 C 0.84812 0.04177 0.68802 0.0
C463 C 0.83478 0.01933 0.68415 0.0
N464 N 0.81455 0.02436 0.66884 0.0
N465 N 0.83653 0.06088 0.67506 0.0
C466 C 0.81597 0.0498 0.66387 0.0
H467 H 0.86555 0.04397 0.69902 0.0
Co468 Co 0.84815 0.09469 0.6733 0.0
C469 C 0.83258 0.10305 0.61789 0.0
O470 O 0.85628 0.10319 0.60937 0.0
N471 N 0.85939 0.12912 0.6728 0.0
C472 C 0.86648 0.17049 0.6646 0.0
C473 C 0.85892 0.1474 0.65437 0.0
C474 C 0.86749 0.14168 0.69397 0.0
N475 N 0.87184 0.16683 0.68954 0.0
O476 O 0.81911 0.10512 0.69322 0.0
H477 H 0.85277 0.14486 0.63487 0.0
H478 H 0.86936 0.13269 0.71258 0.0
O479 O 0.82806 0.10036 0.64187 0.0
C480 C 0.82174 0.10156 0.71725 0.0
O481 O 0.8431 0.09112 0.72558 0.0
N482 N 0.87804 0.08345 0.65544 0.0
C483 C 0.92351 0.05917 0.64036 0.0
C484 C 0.89983 0.05143 0.63032 0.0
C485 C 0.87735 0.06378 0.63809 0.0
C486 C 0.9011 0.09146 0.66494 0.0
C487 C 0.92403 0.07994 0.65729 0.0
H488 H 0.85922 0.05666 0.63103 0.0
H489 H 0.90189 0.10571 0.67986 0.0
H490 H 0.80233 0.06021 0.65223 0.0
H491 H 0.84006 1.00066 0.69151 0.0
H492 H 0.86763 0.18863 0.65453 0.0
H493 H 0.8986 0.03533 0.6173 0.0
H494 H 0.94185 0.08607 0.66602 0.0
C495 C 0.53922 0.66402 0.83297 0.0
C496 C 0.51649 0.67671 0.83735 0.0
N497 N 0.52134 0.6972 0.85233 0.0
N498 N 0.55829 0.67633 0.84525 0.0
C499 C 0.54689 0.69658 0.8566 0.0
H500 H 0.54168 0.6467 0.82188 0.0
Co501 Co 0.59272 0.66693 0.84618 0.0
C502 C 0.60304 0.67737 0.90196 0.0
O503 O 0.61011 0.65357 0.90629 0.0
N504 N 0.62805 0.65815 0.84615 0.0
C505 C 0.67047 0.66015 0.85141 0.0
C506 C 0.64713 0.66718 0.86125 0.0
C507 C 0.64068 0.64643 0.82671 0.0
N508 N 0.66644 0.64719 0.82957 0.0
O509 O 0.6015 0.69803 0.82879 0.0
H510 H 0.64493 0.68006 0.87718 0.0
H511 H 0.6313 0.63931 0.80966 0.0
O512 O 0.59632 0.68419 0.87938 0.0
C513 C 0.59993 0.69502 0.80461 0.0
O514 O 0.59229 0.67264 0.79593 0.0
N515 N 0.5831 0.63511 0.86109 0.0
C516 C 0.55929 0.58794 0.8708 0.0
C517 C 0.55446 0.60909 0.88659 0.0
C518 C 0.56619 0.63271 0.88108 0.0
C519 C 0.58836 0.61439 0.8461 0.0
C520 C 0.57692 0.59067 0.85075 0.0
H521 H 0.5602 0.64942 0.89172 0.0
H522 H 0.59971 0.61654 0.82901 0.0
H523 H 0.55724 0.71077 0.86758 0.0
H524 H 0.49781 0.67095 0.83042 0.0
H525 H 0.68902 0.66534 0.85913 0.0
H526 H 0.54036 0.60788 0.9018 0.0
H527 H 0.58073 0.57491 0.83781 0.0
C528 C 0.32872 0.16467 0.0398 0.0
C529 C 0.33297 0.17779 0.01725 0.0
N530 N 0.34814 0.19816 0.02225 0.0
N531 N 0.34131 0.1765 0.05895 0.0
C532 C 0.35269 0.19698 0.04777 0.0
H533 H 0.31754 0.14733 0.04207 0.0
Co534 Co 0.34194 0.16595 0.09325 0.0
C535 C 0.39782 0.18086 0.10083 0.0
O536 O 0.40658 0.15734 0.09925 0.0
N537 N 0.34162 0.15605 0.12812 0.0
C538 C 0.35105 0.14517 0.16833 0.0
C539 C 0.36098 0.15159 0.14471 0.0
C540 C 0.32016 0.15204 0.14217 0.0
N541 N 0.32527 0.14548 0.16676 0.0
O542 O 0.32261 0.19582 0.1021 0.0
H543 H 0.3811 0.15266 0.14024 0.0
H544 H 0.30107 0.15332 0.13426 0.0
O545 O 0.37377 0.1853 0.09896 0.0
C546 C 0.29871 0.1931 0.09777 0.0
O547 O 0.29069 0.17138 0.08785 0.0
N548 N 0.3589 0.135 0.08356 0.0
C549 C 0.37066 0.08733 0.06153 0.0
C550 C 0.38179 0.11003 0.05213 0.0
C551 C 0.37567 0.13361 0.06338 0.0
C552 C 0.34875 0.11294 0.09345 0.0
C553 C 0.35493 0.08905 0.08328 0.0
H554 H 0.38329 0.15091 0.05481 0.0
H555 H 0.33433 0.1136 0.10827 0.0
H556 H 0.36391 0.21088 0.05825 0.0
H557 H 0.32581 0.17236 0.99858 0.0
H558 H 0.36209 0.14086 0.18535 0.0
H559 H 0.39381 0.1099 0.03519 0.0
H560 H 0.3462 0.07217 0.09168 0.0
C561 C 0.32802 0.84799 0.97329 0.0
C562 C 0.33261 0.83513 0.99591 0.0
N563 N 0.34765 0.8148 0.99075 0.0
N564 N 0.34046 0.83606 0.95405 0.0
C565 C 0.35191 0.81566 0.96521 0.0
H566 H 0.31694 0.86537 0.97106 0.0
Co567 Co 0.34193 0.84743 0.92009 0.0
C568 C 0.39798 0.8327 0.91266 0.0
O569 O 0.40702 0.85605 0.91513 0.0
N570 N 0.34275 0.85846 0.88557 0.0
C571 C 0.35399 0.8757 0.84808 0.0
C572 C 0.3625 0.8683 0.87191 0.0
C573 C 0.32247 0.86002 0.86946 0.0
N574 N 0.32881 0.87042 0.84657 0.0
O575 O 0.32304 0.81762 0.90994 0.0
H576 H 0.38165 0.87122 0.87899 0.0
H577 H 0.30312 0.8548 0.87475 0.0
O578 O 0.3739 0.82842 0.9145 0.0
C579 C 0.29908 0.81996 0.91409 0.0
O580 O 0.29078 0.84144 0.92427 0.0
N581 N 0.35835 0.87813 0.93113 0.0
C582 C 0.36954 0.9252 0.95462 0.0
C583 C 0.38136 0.90247 0.96294 0.0
C584 C 0.37544 0.87915 0.95102 0.0
C585 C 0.34725 0.9002 0.92249 0.0
C586 C 0.35312 0.92385 0.93337 0.0
H587 H 0.38343 0.8617 0.95887 0.0
H588 H 0.33246 0.89955 0.90803 0.0
H589 H 0.36385 0.80214 0.95501 0.0
H590 H 0.32554 0.84036 0.0147 0.0
H591 H 0.36534 0.88475 0.8332 0.0
H592 H 0.3938 0.90233 0.97954 0.0
H593 H 0.34375 0.94079 0.92588 0.0
C594 C 0.34387 0.18698 0.5338 0.0
C595 C 0.32992 0.18144 0.51217 0.0
N596 N 0.31066 0.16539 0.51868 0.0
N597 N 0.33367 0.17442 0.55395 0.0
C598 C 0.31338 0.16153 0.54424 0.0
H599 H 0.36071 0.19907 0.53476 0.0
Co600 Co 0.34712 0.17564 0.58703 0.0
C601 C 0.33613 0.12113 0.60403 0.0
O602 O 0.36035 0.11543 0.60756 0.0
N603 N 0.36097 0.1775 0.62094 0.0
C604 C 0.38541 0.17226 0.65569 0.0
C605 C 0.37969 0.1631 0.6317 0.0
C606 C 0.35592 0.19545 0.63903 0.0
N607 N 0.3705 0.19274 0.66031 0.0
O608 O 0.31716 0.19394 0.59805 0.0
H609 H 0.39 0.1479 0.62226 0.0
H610 H 0.34225 0.21072 0.63656 0.0
O611 O 0.32982 0.14333 0.59573 0.0
C612 C 0.31854 0.2178 0.59277 0.0
O613 O 0.33923 0.22633 0.58113 0.0
N614 N 0.37726 0.16017 0.57462 0.0
C615 C 0.42229 0.14983 0.54748 0.0
C616 C 0.40148 0.13274 0.54654 0.0
C617 C 0.37881 0.13854 0.55992 0.0
C618 C 0.39753 0.17661 0.57599 0.0
C619 C 0.42024 0.17167 0.56289 0.0
H620 H 0.3621 0.12658 0.55719 0.0
H621 H 0.39559 0.19444 0.58635 0.0
H622 H 0.3008 0.14967 0.55574 0.0
H623 H 0.33413 0.18832 0.49304 0.0
H624 H 0.40053 0.16529 0.66807 0.0
H625 H 0.40214 0.11599 0.53433 0.0
H626 H 0.43577 0.18544 0.56401 0.0
C627 C 0.68224 0.16605 0.97643 0.0
C628 C 0.67778 0.1793 0.99875 0.0
N629 N 0.66319 0.19996 0.99329 0.0
N630 N 0.67034 0.17805 0.95691 0.0
C631 C 0.65913 0.19877 0.96766 0.0
H632 H 0.6931 0.1485 0.97455 0.0
Co633 Co 0.67041 0.16698 0.92289 0.0
C634 C 0.61442 0.18067 0.91328 0.0
O635 O 0.60631 0.15685 0.91406 0.0
N636 N 0.67147 0.15627 0.88834 0.0
C637 C 0.66314 0.14439 0.84822 0.0
C638 C 0.65259 0.15086 0.87149 0.0
C639 C 0.69331 0.1527 0.87478 0.0
N640 N 0.68885 0.1456 0.85026 0.0
O641 O 0.68954 0.19711 0.91335 0.0
H642 H 0.63237 0.1514 0.87542 0.0
H643 H 0.7122 0.15485 0.88297 0.0
O644 O 0.63826 0.18576 0.91629 0.0
C645 C 0.71341 0.19516 0.91831 0.0
O646 O 0.7215 0.1742 0.92977 0.0
N647 N 0.65377 0.13602 0.9331 0.0
C648 C 0.63886 0.08831 0.95333 0.0
C649 C 0.62746 0.11109 0.96195 0.0
C650 C 0.6354 0.13473 0.95184 0.0
C651 C 0.66518 0.11401 0.92479 0.0
C652 C 0.65779 0.09008 0.9343 0.0
H653 H 0.62722 0.1521 0.9596 0.0
H654 H 0.68116 0.11487 0.91164 0.0
H655 H 0.64838 0.21277 0.95679 0.0
H656 H 0.68445 0.17373 0.01759 0.0
H657 H 0.65256 0.13955 0.83107 0.0
H658 H 0.61291 0.11075 0.97677 0.0
H659 H 0.6679 0.07321 0.92772 0.0
C660 C 0.66991 0.82705 0.54582 0.0
C661 C 0.6844 0.83004 0.52396 0.0
N662 N 0.70311 0.84716 0.52887 0.0
N663 N 0.67948 0.84215 0.56443 0.0
C664 C 0.69976 0.85417 0.55355 0.0
H665 H 0.65351 0.81454 0.54815 0.0
Co666 Co 0.66704 0.84322 0.59788 0.0
C667 C 0.68127 0.8992 0.6067 0.0
O668 O 0.65771 0.90779 0.60467 0.0
N669 N 0.65484 0.8433 0.63206 0.0
C670 C 0.64083 0.853 0.67123 0.0
C671 C 0.64786 0.86271 0.64769 0.0
C672 C 0.6515 0.82203 0.64658 0.0
N673 N 0.64325 0.82733 0.67056 0.0
O674 O 0.69656 0.82411 0.60887 0.0
H675 H 0.64761 0.88269 0.64266 0.0
H676 H 0.65459 0.80285 0.63954 0.0
O677 O 0.68596 0.87524 0.60436 0.0
C678 C 0.6941 0.80004 0.6054 0.0
O679 O 0.67283 0.79148 0.59496 0.0
N680 N 0.63687 0.85984 0.58599 0.0
C681 C 0.59039 0.87457 0.56319 0.0
C682 C 0.61368 0.88577 0.55554 0.0
C683 C 0.63671 0.87784 0.56685 0.0
C684 C 0.6144 0.84863 0.59344 0.0
C685 C 0.59106 0.85589 0.5826 0.0
H686 H 0.65452 0.88577 0.55975 0.0
H687 H 0.61452 0.8329 0.60695 0.0
H688 H 0.71222 0.86733 0.56362 0.0
H689 H 0.68136 0.82047 0.50582 0.0
H690 H 0.63475 0.86411 0.68764 0.0
H691 H 0.61425 0.90015 0.54054 0.0
H692 H 0.57384 0.84586 0.5885 0.0
C693 C 0.69561 0.8333 0.04451 0.0
C694 C 0.69 0.81832 0.02363 0.0
N695 N 0.66696 0.80725 0.02751 0.0
N696 N 0.67627 0.83174 0.06156 0.0
C697 C 0.65903 0.8157 0.05069 0.0
H698 H 0.71259 0.84494 0.04699 0.0
Co699 Co 0.6758 0.8506 0.09169 0.0
C700 C 0.62456 0.83965 0.11613 0.0
O701 O 0.62281 0.86294 0.12536 0.0
N702 N 0.67634 0.87071 0.12254 0.0
C703 C 0.67267 0.90369 0.14952 0.0
C704 C 0.6658 0.89418 0.12608 0.0
C705 C 0.68967 0.86666 0.14458 0.0
N706 N 0.688 0.88655 0.16113 0.0
O707 O 0.695 0.82373 0.10799 0.0
H708 H 0.65379 0.90425 0.11256 0.0
H709 H 0.70142 0.85004 0.14814 0.0
O710 O 0.64381 0.83342 0.10227 0.0
C711 C 0.71924 0.82682 0.10689 0.0
O712 O 0.72828 0.84831 0.09723 0.0
N713 N 0.65944 0.87702 0.07379 0.0
C714 C 0.64508 0.91913 0.04403 0.0
C715 C 0.62671 0.90106 0.05203 0.0
C716 C 0.6344 0.87968 0.06657 0.0
C717 C 0.67744 0.89423 0.06586 0.0
C718 C 0.67071 0.91541 0.05108 0.0
H719 H 0.62037 0.8653 0.0716 0.0
H720 H 0.69727 0.89141 0.07122 0.0
H721 H 0.64073 0.81088 0.05915 0.0
H722 H 0.70205 0.81566 1.00694 0.0
H723 H 0.66714 0.92216 0.15714 0.0
H724 H 0.60679 0.9031 0.04654 0.0
H725 H 0.68546 0.9289 0.04538 0.0
C726 C 0.34968 0.83319 0.4812 0.0
C727 C 0.33594 0.83971 0.50271 0.0
N728 N 0.31554 0.85367 0.4953 0.0
N729 N 0.33819 0.84326 0.46034 0.0
C730 C 0.31721 0.85539 0.4695 0.0
H731 H 0.36723 0.82218 0.48079 0.0
Co732 Co 0.35134 0.84096 0.4272 0.0
C733 C 0.33877 0.89382 0.40677 0.0
O734 O 0.36264 0.89905 0.40078 0.0
N735 N 0.36499 0.83801 0.39332 0.0
C736 C 0.38947 0.84205 0.35841 0.0
C737 C 0.38436 0.85148 0.38241 0.0
C738 C 0.35897 0.82026 0.37531 0.0
N739 N 0.37353 0.8223 0.3539 0.0
O740 O 0.32177 0.82158 0.41729 0.0
H741 H 0.39525 0.86647 0.3916 0.0
H742 H 0.34453 0.80566 0.37794 0.0
O743 O 0.33314 0.87244 0.41743 0.0
C744 C 0.32233 0.79819 0.42446 0.0
O745 O 0.34234 0.79009 0.43745 0.0
N746 N 0.38104 0.85782 0.4386 0.0
C747 C 0.42559 0.87168 0.46465 0.0
C748 C 0.4046 0.88845 0.46369 0.0
C749 C 0.38215 0.88089 0.45094 0.0
C750 C 0.40149 0.84159 0.43913 0.0
C751 C 0.42397 0.84818 0.45189 0.0
H752 H 0.36528 0.8928 0.45235 0.0
H753 H 0.39984 0.82278 0.43059 0.0
H754 H 0.30378 0.86584 0.45762 0.0
H755 H 0.34054 0.83454 0.52229 0.0
H756 H 0.40478 0.84841 0.34588 0.0
H757 H 0.40502 0.90644 0.474 0.0
H758 H 0.43967 0.83461 0.4526 0.0
C759 C 0.66338 0.18021 0.4758 0.0
C760 C 0.67542 0.1742 0.49854 0.0
N761 N 0.6977 0.1624 0.49302 0.0
N762 N 0.67784 0.17186 0.45607 0.0
C763 C 0.69876 0.16137 0.46717 0.0
H764 H 0.64517 0.1899 0.47379 0.0
Co765 Co 0.67053 0.17413 0.42107 0.0
C766 C 0.67983 0.12015 0.40428 0.0
O767 O 0.65745 0.11922 0.39275 0.0
N768 N 0.66414 0.17707 0.38533 0.0
C769 C 0.67264 0.17636 0.34339 0.0
C770 C 0.679 0.16651 0.36689 0.0
C771 C 0.64959 0.1943 0.37229 0.0
N772 N 0.65422 0.19401 0.34674 0.0
O773 O 0.70282 0.19045 0.41512 0.0
H774 H 0.69513 0.154 0.37024 0.0
H775 H 0.63767 0.20853 0.38135 0.0
O776 O 0.68654 0.14052 0.41611 0.0
C777 C 0.70407 0.21364 0.4226 0.0
O778 O 0.68443 0.2235 0.43488 0.0
N779 N 0.63767 0.16002 0.42773 0.0
C780 C 0.58924 0.15036 0.44907 0.0
C781 C 0.60887 0.13206 0.45089 0.0
C782 C 0.63314 0.13746 0.44048 0.0
C783 C 0.61855 0.17765 0.42551 0.0
C784 C 0.5942 0.17304 0.4355 0.0
H785 H 0.64869 0.12446 0.44463 0.0
H786 H 0.62273 0.19652 0.41824 0.0
H787 H 0.71435 0.15284 0.45649 0.0
H788 H 0.66849 0.17847 0.51763 0.0
H789 H 0.68185 0.17176 0.32538 0.0
H790 H 0.60609 0.11463 0.46188 0.0
H791 H 0.57977 0.18789 0.43393 0.0
H792 H 0.12436 0.52869 0.28194 0.0
H793 H 0.17849 0.47117 0.30703 0.0
H794 H 0.10672 0.49852 0.25106 0.0
H795 H 0.16048 0.441 0.27647 0.0
H796 H 0.10747 0.38603 0.23404 0.0
H797 H 0.12053 0.41638 0.2672 0.0
H798 H 0.12146 0.47737 0.21106 0.0
H799 H 0.10834 0.44718 0.17798 0.0
C800 C 0.13263 0.50973 0.28089 0.0
C801 C 0.15304 0.50255 0.29704 0.0
C802 C 0.1224 0.49238 0.2632 0.0
C803 C 0.13216 0.46735 0.26134 0.0
C804 C 0.15225 0.46001 0.27771 0.0
C805 C 0.16261 0.47739 0.29526 0.0
C806 C 0.11016 0.40597 0.22883 0.0
C807 C 0.10703 0.41415 0.20331 0.0
C808 C 0.11781 0.42332 0.2478 0.0
C809 C 0.1222 0.44925 0.24172 0.0
C810 C 0.11808 0.45757 0.21641 0.0
C811 C 0.11068 0.44022 0.19742 0.0
H812 H 0.02914 0.35109 0.25091 0.0
H813 H 0.97343 0.36328 0.19109 0.0
H814 H 0.9993 0.36833 0.28239 0.0
H815 H 0.94377 0.38153 0.22224 0.0
H816 H 0.88709 0.38905 0.28883 0.0
H817 H 0.91638 0.37225 0.2566 0.0
H818 H 0.98031 0.40597 0.29717 0.0
H819 H 0.95109 0.4216 0.32995 0.0
C820 C 0.01055 0.35772 0.24449 0.0
C821 C 1.0036 0.35579 0.21858 0.0
C822 C 0.99344 0.36777 0.26249 0.0
C823 C 0.96903 0.37655 0.25497 0.0
C824 C 0.96215 0.37461 0.22894 0.0
C825 C 0.97916 0.36419 0.21101 0.0
C826 C 0.9074 0.39298 0.29076 0.0
C827 C 0.91679 0.40651 0.31204 0.0
C828 C 0.92425 0.38343 0.27219 0.0
C829 C 0.95088 0.38751 0.27424 0.0
C830 C 0.96007 0.40181 0.29518 0.0
C831 C 0.94328 0.411 0.31392 0.0
H832 H 0.82892 0.53817 0.30068 0.0
H833 H 0.891 0.48599 0.28384 0.0
H834 H 0.84645 0.5688 0.27007 0.0
H835 H 0.90814 0.51653 0.25289 0.0
H836 H 0.91041 0.56463 0.17803 0.0
H837 H 0.89566 0.53459 0.21068 0.0
H838 H 0.88448 0.59726 0.26343 0.0
H839 H 0.89921 0.62752 0.23062 0.0
C840 C 0.84638 0.53321 0.29068 0.0
C841 C 0.85842 0.5094 0.29487 0.0
C842 C 0.85645 0.55086 0.2731 0.0
C843 C 0.87871 0.54513 0.25906 0.0
C844 C 0.89079 0.5214 0.26319 0.0
C845 C 0.88084 0.50381 0.28092 0.0
C846 C 0.90496 0.57206 0.19662 0.0
C847 C 0.90589 0.59853 0.20165 0.0
C848 C 0.89663 0.55478 0.2154 0.0
C849 C 0.88881 0.56353 0.23963 0.0
C850 C 0.89011 0.58996 0.24484 0.0
C851 C 0.8987 0.60726 0.2261 0.0
H852 H 0.08063 0.6396 0.33995 0.0
H853 H 0.11916 0.59204 0.28424 0.0
H854 H 0.04807 0.65036 0.30823 0.0
H855 H 0.08632 0.60245 0.25268 0.0
H856 H 0.04487 0.6554 0.19555 0.0
H857 H 0.07473 0.64025 0.22798 0.0
H858 H 0.0126 0.63398 0.28247 0.0
H859 H 0.98278 0.65004 0.25014 0.0
C860 C 0.08198 0.63114 0.32106 0.0
C861 C 0.10266 0.61514 0.3146 0.0
C862 C 0.06321 0.63722 0.30289 0.0
C863 C 0.06468 0.62745 0.27783 0.0
C864 C 0.08485 0.61067 0.27168 0.0
C865 C 0.1036 0.60456 0.28984 0.0
C866 C 0.03755 0.65097 0.21446 0.0
C867 C 0.01141 0.65415 0.22023 0.0
C868 C 0.05464 0.64192 0.233 0.0
C869 C 0.04608 0.63583 0.25784 0.0
C870 C 0.01987 0.63869 0.26358 0.0
C871 C 1.00273 0.64768 0.24497 0.0
H872 H 0.18353 0.54086 0.71266 0.0
H873 H 0.12142 0.4882 0.72855 0.0
H874 H 0.16579 0.57098 0.74339 0.0
H875 H 0.10394 0.5183 0.75962 0.0
H876 H 0.10125 0.56549 0.83488 0.0
H877 H 0.11569 0.53585 0.80194 0.0
H878 H 0.12823 0.59933 0.75009 0.0
H879 H 0.11393 0.62917 0.78322 0.0
C880 C 0.16599 0.53572 0.72247 0.0
C881 C 0.15399 0.51195 0.71798 0.0
C882 C 0.15579 0.55307 0.74013 0.0
C883 C 0.13341 0.5471 0.75391 0.0
C884 C 0.12137 0.52338 0.7495 0.0
C885 C 0.13149 0.50605 0.73171 0.0
C886 C 0.10692 0.57318 0.81642 0.0
C887 C 0.10658 0.59976 0.81177 0.0
C888 C 0.11506 0.55613 0.79747 0.0
C889 C 0.12321 0.56522 0.77342 0.0
C890 C 0.12236 0.59175 0.76854 0.0
C891 C 0.11402 0.60884 0.78747 0.0
H892 H 0.04012 0.37251 0.82207 0.0
H893 H 0.98358 0.35808 0.76366 0.0
H894 H 0.06927 0.38986 0.78993 0.0
H895 H 0.0131 0.37416 0.73099 0.0
H896 H 0.0636 0.42214 0.67925 0.0
H897 H 0.03356 0.40916 0.7126 0.0
H898 H 0.09648 0.37836 0.757 0.0
H899 H 0.12649 0.39273 0.72425 0.0
C900 C 0.03407 0.37288 0.80222 0.0
C901 C 0.00966 0.36386 0.79531 0.0
C902 C 0.05083 0.38269 0.78369 0.0
C903 C 0.04384 0.38328 0.75762 0.0
C904 C 0.01917 0.37448 0.75082 0.0
C905 C 1.00221 0.36512 0.7695 0.0
C906 C 0.07099 0.41275 0.69625 0.0
C907 C 0.09743 0.40847 0.6991 0.0
C908 C 0.05371 0.40508 0.71535 0.0
C909 C 0.06237 0.39249 0.73764 0.0
C910 C 0.08895 0.3884 0.74046 0.0
C911 C 0.10625 0.3965 0.72156 0.0
H912 H 0.91457 0.39099 0.78694 0.0
H913 H 0.8809 0.43986 0.8446 0.0
H914 H 0.90242 0.42182 0.7538 0.0
H915 H 0.86815 0.47015 0.81158 0.0
H916 H 0.86775 0.53112 0.75005 0.0
H917 H 0.88382 0.50118 0.78193 0.0
H918 H 0.86528 0.43789 0.732 0.0
H919 H 0.85042 0.46789 0.69954 0.0
C920 C 0.9046 0.40829 0.79258 0.0
C921 C 0.89876 0.41291 0.81848 0.0
C922 C 0.89746 0.42591 0.77354 0.0
C923 C 0.88424 0.44855 0.77993 0.0
C924 C 0.87865 0.4532 0.80589 0.0
C925 C 0.88585 0.43567 0.82488 0.0
C926 C 0.86738 0.51089 0.74562 0.0
C927 C 0.85762 0.50209 0.72207 0.0
C928 C 0.87636 0.49362 0.76412 0.0
C929 C 0.87576 0.46702 0.75969 0.0
C930 C 0.86631 0.45822 0.73605 0.0
C931 C 0.85741 0.47549 0.7175 0.0
H932 H 0.02904 0.66068 0.76344 0.0
H933 H 0.97352 0.65066 0.82389 0.0
H934 H 0.99869 0.64317 0.73254 0.0
H935 H 0.94345 0.6319 0.79351 0.0
H936 H 0.88572 0.62409 0.72835 0.0
H937 H 0.91581 0.6407 0.75987 0.0
H938 H 0.97856 0.60642 0.7179 0.0
H939 H 0.94847 0.59116 0.68572 0.0
C940 C 0.01039 0.65442 0.7701 0.0
C941 C 1.00355 0.65715 0.79597 0.0
C942 C 0.99298 0.64419 0.75247 0.0
C943 C 0.96845 0.63596 0.76039 0.0
C944 C 0.96185 0.63847 0.78645 0.0
C945 C 0.9791 0.64914 0.80396 0.0
C946 C 0.90594 0.61999 0.726 0.0
C947 C 0.91475 0.60644 0.7045 0.0
C948 C 0.92327 0.62942 0.74415 0.0
C949 C 0.94982 0.62512 0.74151 0.0
C950 C 0.95842 0.61076 0.72036 0.0
C951 C 0.94113 0.60177 0.70198 0.0
H952 H 0.17487 0.09879 0.44941 0.0
H953 H 0.22713 0.10982 0.38598 0.0
H954 H 0.20741 0.11461 0.47895 0.0
H955 H 0.25973 0.12552 0.41565 0.0
H956 H 0.29643 0.18306 0.47169 0.0
H957 H 0.2655 0.16422 0.44252 0.0
H958 H 0.25004 0.10408 0.4974 0.0
H959 H 0.28144 0.12265 0.52663 0.0
C960 C 0.19336 0.1044 0.44176 0.0
C961 C 0.19829 0.10318 0.41526 0.0
C962 C 0.21206 0.11335 0.45875 0.0
C963 C 0.23612 0.12146 0.44966 0.0
C964 C 0.24127 0.11973 0.42323 0.0
C965 C 0.22262 0.11059 0.40624 0.0
C966 C 0.28678 0.16566 0.47756 0.0
C967 C 0.2917 0.15441 0.50164 0.0
C968 C 0.26898 0.15483 0.46073 0.0
C969 C 0.2554 0.13256 0.46754 0.0
C970 C 0.26005 0.12138 0.49166 0.0
C971 C 0.27803 0.13211 0.50847 0.0
H972 H 0.61351 0.28563 0.1278 0.0
H973 H 0.61232 0.34002 0.06517 0.0
H974 H 0.62605 0.25175 0.09792 0.0
H975 H 0.62482 0.30628 0.03551 0.0
H976 H 0.62378 0.23362 0.98621 0.0
H977 H 0.60834 0.26576 0.01625 0.0
H978 H 0.66496 0.24158 0.07149 0.0
H979 H 0.68088 0.20985 0.04143 0.0
C980 C 0.61575 0.29033 0.10768 0.0
C981 C 0.61203 0.31557 0.09891 0.0
C982 C 0.62306 0.27096 0.0906 0.0
C983 C 0.62649 0.27635 0.06436 0.0
C984 C 0.62213 0.30144 0.05555 0.0
C985 C 0.61511 0.32082 0.07262 0.0
C986 C 0.63319 0.2352 1.0046 0.0
C987 C 0.65374 0.21897 0.01116 0.0
C988 C 0.62421 0.25363 0.0219 0.0
C989 C 0.63537 0.25617 0.04629 0.0
C990 C 0.65568 0.23984 0.053 0.0
C991 C 0.66482 0.22159 0.03566 0.0
H992 H 0.72722 0.81871 0.49314 0.0
H993 H 0.72347 0.8948 0.52512 0.0
H994 H 0.76009 0.83304 0.46287 0.0
H995 H 0.75632 0.90931 0.49453 0.0
H996 H 0.78998 0.92504 0.41047 0.0
H997 H 0.75898 0.9135 0.44393 0.0
H998 H 0.80684 0.84997 0.46661 0.0
H999 H 0.83793 0.86155 0.43359 0.0
C1000 C 0.73341 0.83852 0.49361 0.0
C1001 C 0.72282 0.85565 0.51143 0.0
C1002 C 0.75231 0.84668 0.47644 0.0
C1003 C 0.76075 0.87227 0.47642 0.0
C1004 C 0.75009 0.8895 0.49413 0.0
C1005 C 0.73147 0.88118 0.51168 0.0
C1006 C 0.79401 0.9088 0.4228 0.0
C1007 C 0.81638 0.89416 0.41931 0.0
C1008 C 0.77633 0.90228 0.44198 0.0
C1009 C 0.78047 0.88075 0.45771 0.0
C1010 C 0.80309 0.86653 0.4546 0.0
C1011 C 0.82094 0.87327 0.43576 0.0
H1012 H 0.36321 0.8246 0.03916 0.0
H1013 H 0.35578 0.76426 0.98335 0.0
H1014 H 0.38166 0.79435 0.06969 0.0
H1015 H 0.37306 0.73356 0.01407 0.0
H1016 H 0.4253 0.68768 0.0647 0.0
H1017 H 0.40995 0.7199 0.0347 0.0
H1018 H 0.37309 0.76007 0.09711 0.0
H1019 H 0.38977 0.72842 0.12725 0.0
C1020 C 0.36524 0.80473 0.03358 0.0
C1021 C 0.35808 0.79676 0.0089 0.0
C1022 C 0.37574 0.78731 0.0511 0.0
C1023 C 0.37898 0.76135 0.04451 0.0
C1024 C 0.37151 0.75343 0.01978 0.0
C1025 C 0.36143 0.77096 1.00214 0.0
C1026 C 0.41408 0.70353 0.07202 0.0
C1027 C 0.40868 0.70547 0.09833 0.0
C1028 C 0.40504 0.72194 0.05476 0.0
C1029 C 0.38989 0.74257 0.06326 0.0
C1030 C 0.38493 0.74473 0.08975 0.0
C1031 C 0.3944 0.72651 0.1071 0.0
H1032 H 0.32344 0.8747 0.54176 0.0
H1033 H 0.2647 0.85796 0.4862 0.0
H1034 H 0.29137 0.89233 0.57067 0.0
H1035 H 0.23212 0.87437 0.51551 0.0
H1036 H 0.1806 0.92317 0.56522 0.0
H1037 H 0.21379 0.90994 0.53516 0.0
H1038 H 0.25873 0.88038 0.59832 0.0
H1039 H 0.22616 0.8949 0.62829 0.0
C1040 C 0.30354 0.87462 0.53588 0.0
C1041 C 0.2965 0.86486 0.51184 0.0
C1042 C 0.28506 0.88459 0.5525 0.0
C1043 C 0.25894 0.88461 0.5457 0.0
C1044 C 0.25201 0.87511 0.52138 0.0
C1045 C 0.27062 0.86556 0.50456 0.0
C1046 C 0.19769 0.91399 0.57264 0.0
C1047 C 0.20076 0.91009 0.59912 0.0
C1048 C 0.21668 0.9062 0.55538 0.0
C1049 C 0.23906 0.89392 0.56414 0.0
C1050 C 0.24209 0.89019 0.59074 0.0
C1051 C 0.22331 0.89839 0.60801 0.0
H1052 H 0.396 0.28346 0.8863 0.0
H1053 H 0.40513 0.33599 0.94958 0.0
H1054 H 0.38249 0.24991 0.91629 0.0
H1055 H 0.39153 0.30262 0.97935 0.0
H1056 H 0.38965 0.22943 0.02773 0.0
H1057 H 0.40555 0.26114 0.9973 0.0
H1058 H 0.34506 0.24108 0.94459 0.0
H1059 H 0.32882 0.20963 0.9751 0.0
C1060 C 0.39526 0.28783 0.90657 0.0
C1061 C 0.40156 0.31247 0.91549 0.0
C1062 C 0.38737 0.26865 0.92374 0.0
C1063 C 0.38586 0.27361 0.95021 0.0
C1064 C 0.39271 0.29808 0.95913 0.0
C1065 C 0.40037 0.31727 0.942 0.0
C1066 C 0.37951 0.23186 0.00982 0.0
C1067 C 0.35779 0.21689 1.00408 0.0
C1068 C 0.38873 0.25004 0.99229 0.0
C1069 C 0.3766 0.25364 0.96849 0.0
C1070 C 0.35508 0.23853 0.96259 0.0
C1071 C 0.34575 0.22046 0.98017 0.0
H1072 H 0.83248 0.09773 0.56599 0.0
H1073 H 0.78513 0.12244 0.62916 0.0
H1074 H 0.79917 0.11029 0.5359 0.0
H1075 H 0.7522 0.13633 0.59905 0.0
H1076 H 0.68868 0.14132 0.5396 0.0
H1077 H 0.72033 0.12481 0.56982 0.0
H1078 H 0.78098 0.14653 0.51744 0.0
H1079 H 0.74913 0.16192 0.487 0.0
C1080 C 0.81493 0.10595 0.57343 0.0
C1081 C 0.81148 0.10918 0.59993 0.0
C1082 C 0.79586 0.11339 0.55615 0.0
C1083 C 0.77298 0.12472 0.56486 0.0
C1084 C 0.76935 0.12743 0.5915 0.0
C1085 C 0.78829 0.11956 0.60883 0.0
C1086 C 0.7088 0.14255 0.53466 0.0
C1087 C 0.71645 0.15285 0.51094 0.0
C1088 C 0.72701 0.13317 0.552 0.0
C1089 C 0.75338 0.13422 0.54621 0.0
C1090 C 0.76092 0.14476 0.52246 0.0
C1091 C 0.74268 0.15374 0.50498 0.0
H1092 H 0.66973 0.80712 0.97576 0.0
H1093 H 0.63438 0.76856 0.04005 0.0
H1094 H 0.65036 0.77637 0.94657 0.0
H1095 H 0.61446 0.73788 0.01066 0.0
H1096 H 0.61826 0.67003 0.95164 0.0
H1097 H 0.63013 0.70263 0.98288 0.0
H1098 H 0.60898 0.76199 0.92907 0.0
H1099 H 0.59732 0.72942 0.89767 0.0
C1100 C 0.65771 0.79212 0.98365 0.0
C1101 C 0.65381 0.79014 0.01025 0.0
C1102 C 0.64634 0.77466 0.96688 0.0
C1103 C 0.63086 0.75466 0.97627 0.0
C1104 C 0.62644 0.75298 1.00285 0.0
C1105 C 0.63768 0.77064 0.01965 0.0
C1106 C 0.61583 0.69002 0.94655 0.0
C1107 C 0.60712 0.69708 0.92201 0.0
C1108 C 0.6225 0.70872 0.96454 0.0
C1109 C 0.62072 0.73491 0.95838 0.0
C1110 C 0.61093 0.74196 0.93426 0.0
C1111 C 0.60413 0.72328 0.91631 0.0
H1112 H 0.4742 0.32499 0.1404 0.0
H1113 H 0.52939 0.26587 0.15721 0.0
H1114 H 0.44461 0.29294 0.12377 0.0
H1115 H 0.49949 0.23343 0.14175 0.0
H1116 H 0.44961 0.18178 0.09394 0.0
H1117 H 0.47967 0.21525 0.10628 0.0
H1118 H 0.41677 0.26031 0.13598 0.0
H1119 H 0.3867 0.22734 0.12231 0.0
C1120 C 0.47986 0.30503 0.14073 0.0
C1121 C 0.50405 0.29789 0.15015 0.0
C1122 C 0.46286 0.28658 0.13132 0.0
C1123 C 0.46943 0.26041 0.13147 0.0
C1124 C 0.4938 0.25336 0.14081 0.0
C1125 C 0.51097 0.27191 0.14981 0.0
C1126 C 0.44222 0.19895 0.10294 0.0
C1127 C 0.41579 0.20189 0.1072 0.0
C1128 C 0.4595 0.21811 0.11023 0.0
C1129 C 0.45084 0.24055 0.12241 0.0
C1130 C 0.42426 0.24357 0.12632 0.0
C1131 C 0.40695 0.22458 0.1186 0.0
H1132 H 0.38603 0.78324 0.89928 0.0
H1133 H 0.45024 0.83446 0.91037 0.0
H1134 H 0.4155 0.74944 0.88578 0.0
H1135 H 0.4795 0.80087 0.8967 0.0
H1136 H 0.52653 0.72739 0.89443 0.0
H1137 H 0.49632 0.75908 0.91037 0.0
H1138 H 0.44415 0.74053 0.8489 0.0
H1139 H 0.47449 0.70897 0.83271 0.0
C1140 C 0.4064 0.78727 0.89896 0.0
C1141 C 0.41575 0.8116 0.90584 0.0
C1142 C 0.42327 0.76795 0.89107 0.0
C1143 C 0.44985 0.77248 0.89009 0.0
C1144 C 0.45918 0.79665 0.89748 0.0
C1145 C 0.44235 0.81597 0.9052 0.0
C1146 C 0.50877 0.73016 0.88411 0.0
C1147 C 0.50314 0.71565 0.8621 0.0
C1148 C 0.49138 0.74832 0.89333 0.0
C1149 C 0.46784 0.75238 0.88089 0.0
C1150 C 0.46198 0.73763 0.85914 0.0
C1151 C 0.47943 0.71953 0.84983 0.0
H1152 H 0.24795 0.98392 0.64388 0.0
H1153 H 0.19891 0.04769 0.66344 0.0
H1154 H 0.27949 0.0136 0.62654 0.0
H1155 H 0.23105 0.07734 0.64741 0.0
H1156 H 0.28406 0.12445 0.59675 0.0
H1157 H 0.25131 0.09356 0.6097 0.0
H1158 H 0.31014 0.04415 0.64068 0.0
H1159 H 0.34279 0.07452 0.62704 0.0
C1160 C 0.24377 1.0042 0.6445 0.0
C1161 C 0.22073 0.01323 0.65526 0.0
C1162 C 0.26208 0.02132 0.63478 0.0
C1163 C 0.25797 0.04797 0.63563 0.0
C1164 C 0.23484 0.05698 0.64612 0.0
C1165 C 0.21648 0.03988 0.65572 0.0
C1166 C 0.29001 0.1069 0.60615 0.0
C1167 C 0.31609 0.10202 0.61085 0.0
C1168 C 0.27119 0.08923 0.61375 0.0
C1169 C 0.27799 0.06631 0.62636 0.0
C1170 C 0.30413 0.06134 0.6307 0.0
C1171 C 0.32291 0.07891 0.62299 0.0
H1172 H 0.53528 0.29883 0.82907 0.0
H1173 H 0.48293 0.28273 0.89142 0.0
H1174 H 0.56587 0.26871 0.84708 0.0
H1175 H 0.51352 0.25215 0.90909 0.0
H1176 H 0.56224 0.17742 0.91161 0.0
H1177 H 0.53191 0.20987 0.89726 0.0
H1178 H 0.5943 0.26303 0.8851 0.0
H1179 H 0.62483 0.23044 0.89941 0.0
C1180 C 0.53028 0.28912 0.84672 0.0
C1181 C 0.50647 0.29342 0.85872 0.0
C1182 C 0.54792 0.2718 0.85706 0.0
C1183 C 0.5422 0.25811 0.87958 0.0
C1184 C 0.51842 0.26225 0.89158 0.0
C1185 C 0.50081 0.27975 0.88135 0.0
C1186 C 0.56954 0.19607 0.90606 0.0
C1187 C 0.59601 0.20125 0.9065 0.0
C1188 C 0.55209 0.21473 0.89797 0.0
C1189 C 0.56068 0.23898 0.88992 0.0
C1190 C 0.58711 0.24441 0.89091 0.0
C1191 C 0.60458 0.22579 0.89924 0.0
H1192 H 0.80213 0.97776 0.68884 0.0
H1193 H 0.78484 0.02936 0.62623 0.0
H1194 H 0.77119 0.94708 0.67211 0.0
H1195 H 0.75367 0.99879 0.60981 0.0
H1196 H 0.67875 0.9514 0.60857 0.0
H1197 H 0.71166 0.98128 0.62269 0.0
H1198 H 0.76384 0.91822 0.63493 0.0
H1199 H 0.73073 0.88811 0.62093 0.0
C1200 C 0.79194 0.98255 0.67142 0.0
C1201 C 0.79604 1.0062 0.65901 0.0
C1202 C 0.77419 0.96489 0.66182 0.0
C1203 C 0.75997 0.97048 0.63963 0.0
C1204 C 0.76409 0.99404 0.62714 0.0
C1205 C 0.78193 0.01164 0.63665 0.0
C1206 C 0.69726 0.94384 0.61413 0.0
C1207 C 0.70204 0.91732 0.61373 0.0
C1208 C 0.7162 0.96103 0.6221 0.0
C1209 C 0.74035 0.95214 0.63001 0.0
C1210 C 0.74531 0.92564 0.62923 0.0
C1211 C 0.7264 0.90841 0.62105 0.0
H1212 H 0.52663 0.73536 0.1994 0.0
H1213 H 0.49999 0.72597 0.12172 0.0
H1214 H 0.55788 0.76719 0.18488 0.0
H1215 H 0.53163 0.75779 0.10701 0.0
H1216 H 0.6158 0.79234 0.09435 0.0
H1217 H 0.58271 0.76104 0.10624 0.0
H1218 H 0.5548 0.81253 0.1645 0.0
H1219 H 0.58731 0.8439 0.15249 0.0
C1220 C 0.52754 0.7401 0.1792 0.0
C1221 C 0.51089 0.72823 0.16169 0.0
C1222 C 0.54531 0.75839 0.1709 0.0
C1223 C 0.54718 0.76493 0.14482 0.0
C1224 C 0.53065 0.75299 0.12721 0.0
C1225 C 0.51246 0.73499 0.13562 0.0
C1226 C 0.60248 0.79707 0.10953 0.0
C1227 C 0.60424 0.82067 0.12244 0.0
C1228 C 0.58349 0.77919 0.11626 0.0
C1229 C 0.56626 0.78436 0.13633 0.0
C1230 C 0.56793 0.80798 0.14906 0.0
C1231 C 0.58654 0.82597 0.14209 0.0
H1232 H 0.24795 0.02964 0.36874 0.0
H1233 H 0.19905 0.96503 0.35147 0.0
H1234 H 0.28039 1.00052 0.38537 0.0
H1235 H 0.23194 0.93593 0.36694 0.0
H1236 H 0.28711 0.89036 0.41663 0.0
H1237 H 0.25364 0.92077 0.4046 0.0
H1238 H 0.31073 0.96986 0.36979 0.0
H1239 H 0.34412 0.93993 0.38238 0.0
C1240 C 0.244 0.00928 0.36853 0.0
C1241 C 0.22079 0.99981 0.35857 0.0
C1242 C 0.26279 0.9925 0.37784 0.0
C1243 C 0.25891 0.96579 0.37742 0.0
C1244 C 0.23555 0.95636 0.36784 0.0
C1245 C 0.21677 0.97311 0.35858 0.0
C1246 C 0.29253 0.90774 0.40658 0.0
C1247 C 0.31834 0.91264 0.40046 0.0
C1248 C 0.27331 0.92512 0.39952 0.0
C1249 C 0.27941 0.94781 0.38613 0.0
C1250 C 0.30529 0.95283 0.38039 0.0
C1251 C 0.32448 0.93551 0.38749 0.0
H1252 H 0.76399 0.9795 0.36834 0.0
H1253 H 0.81948 0.041 0.36496 0.0
H1254 H 0.73152 0.00956 0.38298 0.0
H1255 H 0.78672 0.07122 0.37849 0.0
H1256 H 0.72845 0.11647 0.4238 0.0
H1257 H 0.76062 0.08394 0.41443 0.0
H1258 H 0.70635 0.04437 0.36604 0.0
H1259 H 0.67403 0.07651 0.37588 0.0
C1260 C 0.76938 0.99937 0.37082 0.0
C1261 C 0.79446 0.00774 0.36535 0.0
C1262 C 0.75062 0.0167 0.37897 0.0
C1263 C 0.75643 0.04287 0.38187 0.0
C1264 C 0.78159 0.05118 0.37677 0.0
C1265 C 0.80034 0.03386 0.36864 0.0
C1266 C 0.72328 0.10068 0.41138 0.0
C1267 C 0.69866 0.09919 0.4005 0.0
C1268 C 0.74181 0.08211 0.40586 0.0
C1269 C 0.73619 0.06161 0.3893 0.0
C1270 C 0.71131 0.05972 0.37907 0.0
C1271 C 0.69277 0.07826 0.38463 0.0
H1272 H 0.96025 0.40971 0.95952 0.0
H1273 H 1.00302 0.34122 0.94216 0.0
H1274 H 0.98505 0.41493 0.99935 0.0
H1275 H 0.0279 0.34649 0.98143 0.0
H1276 H 0.08235 0.37381 0.04256 0.0
H1277 H 0.06002 0.377 1.00162 0.0
H1278 H 0.98841 0.3885 0.04138 0.0
H1279 H 0.01048 0.38452 0.08245 0.0
C1280 C 0.97521 0.39606 0.96407 0.0
C1281 C 0.97975 0.37505 0.94791 0.0
C1282 C 0.98927 0.39893 0.98685 0.0
C1283 C 0.00846 0.38114 0.99347 0.0
C1284 C 0.01347 0.36067 0.97675 0.0
C1285 C 0.99916 0.35756 0.95435 0.0
C1286 C 0.06185 0.37708 0.04268 0.0
C1287 C 0.04824 0.37852 0.06596 0.0
C1288 C 0.04909 0.37902 0.01917 0.0
C1289 C 0.02244 0.38279 0.01829 0.0
C1290 C 0.009 0.3858 0.04145 0.0
C1291 C 0.02172 0.38357 0.06502 0.0
H1292 H 0.91121 0.4835 0.44523 0.0
H1293 H 0.83184 0.4653 0.46098 0.0
H1294 H 0.91275 0.50933 0.48437 0.0
H1295 H 0.83395 0.48922 0.50037 0.0
H1296 H 0.83244 0.55506 0.55312 0.0
H1297 H 0.83489 0.53218 0.51314 0.0
H1298 H 0.91202 0.50811 0.5312 0.0
H1299 H 0.91033 0.53297 0.5709 0.0
C1300 C 0.89418 0.4848 0.45703 0.0
C1301 C 0.87146 0.47208 0.44985 0.0
C1302 C 0.89515 0.49938 0.47963 0.0
C1303 C 0.87341 0.5016 0.4955 0.0
C1304 C 0.85095 0.48847 0.48847 0.0
C1305 C 0.84991 0.47421 0.46595 0.0
C1306 C 0.85029 0.54558 0.54848 0.0
C1307 C 0.87127 0.54618 0.56543 0.0
C1308 C 0.85149 0.53192 0.52559 0.0
C1309 C 0.87349 0.51785 0.51903 0.0
C1310 C 0.89477 0.51877 0.53559 0.0
C1311 C 0.89368 0.53279 0.55853 0.0
H1312 H 1.00487 0.64799 0.93141 0.0
H1313 H 0.07391 0.62379 0.96978 0.0
H1314 H 0.98127 0.64499 0.97153 0.0
H1315 H 0.05015 0.61907 0.00986 0.0
H1316 H 0.00905 0.64545 0.0826 0.0
H1317 H 0.03249 0.64272 0.0424 0.0
H1318 H 0.9625 0.6211 1.00345 0.0
H1319 H 0.93896 0.62555 0.04366 0.0
C1320 C 0.01481 0.64136 0.94841 0.0
C1321 C 0.04119 0.63614 0.94754 0.0
C1322 C 1.00127 0.63948 0.97149 0.0
C1323 C 0.01365 0.63184 0.99428 0.0
C1324 C 0.03994 0.62562 0.99302 0.0
C1325 C 0.05359 0.62806 0.97001 0.0
C1326 C 0.99881 0.63981 0.06544 0.0
C1327 C 0.97222 0.63572 0.0662 0.0
C1328 C 0.01227 0.6381 0.0423 0.0
C1329 C 0.99955 0.63175 0.01933 0.0
C1330 C 0.973 0.62665 0.02045 0.0
C1331 C 0.95946 0.62893 0.04353 0.0
H1332 H 0.18879 0.48369 0.56332 0.0
H1333 H 0.10667 0.47494 0.5591 0.0
H1334 H 0.18848 0.50882 0.52412 0.0
H1335 H 0.10627 0.49945 0.51883 0.0
H1336 H 0.11485 0.56429 0.45767 0.0
H1337 H 0.11209 0.54025 0.49814 0.0
H1338 H 0.18374 0.50274 0.48013 0.0
H1339 H 0.1868 0.52737 0.44072 0.0
C1340 C 0.17065 0.48693 0.55375 0.0
C1341 C 0.14781 0.47702 0.56403 0.0
C1342 C 0.17044 0.50127 0.53114 0.0
C1343 C 0.14741 0.50581 0.51784 0.0
C1344 C 0.12437 0.49644 0.52852 0.0
C1345 C 0.12456 0.48231 0.5515 0.0
C1346 C 0.12992 0.55087 0.46253 0.0
C1347 C 0.15128 0.54805 0.44635 0.0
C1348 C 0.12832 0.537 0.48562 0.0
C1349 C 0.14793 0.51981 0.49276 0.0
C1350 C 0.16869 0.51637 0.47586 0.0
C1351 C 0.17042 0.53041 0.45313 0.0
H1352 H 0.93443 0.99021 0.39542 0.0
H1353 H 0.97131 0.92976 0.3525 0.0
H1354 H 0.97517 0.01327 0.39761 0.0
H1355 H 0.01159 0.95345 0.35387 0.0
H1356 H 0.06235 0.02294 0.32891 0.0
H1357 H 0.02367 0.9968 0.33271 0.0
H1358 H 0.02293 0.00917 0.41449 0.0
H1359 H 0.06216 0.03522 0.4107 0.0
C1360 C 0.95122 0.98153 0.38687 0.0
C1361 C 0.94933 0.95813 0.37352 0.0
C1362 C 0.97456 0.99487 0.38805 0.0
C1363 C 0.99646 0.9853 0.37565 0.0
C1364 C 0.99491 0.96147 0.36327 0.0
C1365 C 0.97174 0.94797 0.36241 0.0
C1366 C 0.05393 0.02011 0.34771 0.0
C1367 C 0.06517 0.03123 0.3695 0.0
C1368 C 0.03191 1.00498 0.34991 0.0
C1369 C 0.02033 1.00087 0.3739 0.0
C1370 C 0.03145 0.01207 0.39576 0.0
C1371 C 0.05388 0.02686 0.39361 0.0
H1372 H 0.57882 0.47685 0.14751 0.0
H1373 H 0.51221 0.43631 0.11947 0.0
H1374 H 0.55587 0.51699 0.1441 0.0
H1375 H 0.49007 0.47678 0.11369 0.0
H1376 H 0.44576 0.54655 0.14244 0.0
H1377 H 0.46936 0.50691 0.13824 0.0
H1378 H 0.53815 0.54981 0.12044 0.0
H1379 H 0.51499 0.58959 0.1271 0.0
C1380 C 0.55937 0.47646 0.14028 0.0
C1381 C 0.54732 0.45306 0.13431 0.0
C1382 C 0.54627 0.4997 0.13785 0.0
C1383 C 0.52084 0.50038 0.12886 0.0
C1384 C 0.50936 0.47713 0.12131 0.0
C1385 C 0.52231 0.4538 0.1242 0.0
C1386 C 0.46598 0.54763 0.13787 0.0
C1387 C 0.47845 0.57149 0.13567 0.0
C1388 C 0.47952 0.52472 0.13495 0.0
C1389 C 0.50589 0.52488 0.12918 0.0
C1390 C 0.51804 0.54875 0.12548 0.0
C1391 C 0.50457 0.57172 0.12887 0.0
H1392 H 0.04942 0.96532 0.68048 0.0
H1393 H 0.07153 0.98609 0.60313 0.0
H1394 H 0.00918 0.98783 0.67496 0.0
H1395 H 0.03152 0.01017 0.59852 0.0
H1396 H 0.97132 0.07636 0.62663 0.0
H1397 H 0.01113 0.05132 0.6247 0.0
H1398 H 0.96873 0.98269 0.64335 0.0
H1399 H 0.929 0.0075 0.64487 0.0
C1400 C 0.04572 0.97427 0.66212 0.0
C1401 C 0.06391 0.97337 0.64213 0.0
C1402 C 0.02262 0.98742 0.65912 0.0
C1403 C 0.01722 1.00058 0.63629 0.0
C1404 C 0.03531 1.00016 0.61634 0.0
C1405 C 0.0583 0.98648 0.61911 0.0
C1406 C 0.9705 0.05585 0.62984 0.0
C1407 C 0.94708 0.04386 0.63584 0.0
C1408 C 0.99321 0.04155 0.62863 0.0
C1409 C 0.99293 0.01513 0.63395 0.0
C1410 C 0.96942 1.00305 0.6392 0.0
C1411 C 0.9467 0.01722 0.63991 0.0
H1412 H 0.5531 0.55562 0.91215 0.0
H1413 H 0.53013 0.56707 0.83357 0.0
H1414 H 0.52956 0.51479 0.91316 0.0
H1415 H 0.5058 0.52739 0.8347 0.0
H1416 H 0.48809 0.44417 0.8315 0.0
H1417 H 0.51301 0.48346 0.83403 0.0
H1418 H 0.48891 0.49338 0.91276 0.0
H1419 H 0.46485 0.45294 0.91032 0.0
C1420 C 0.54276 0.54948 0.89524 0.0
C1421 C 0.54374 0.56419 0.87266 0.0
C1422 C 0.52919 0.52619 0.89579 0.0
C1423 C 0.51609 0.5174 0.87384 0.0
C1424 C 0.51631 0.53291 0.85171 0.0
C1425 C 0.53011 0.55581 0.85107 0.0
C1426 C 0.48826 0.45472 0.84938 0.0
C1427 C 0.47438 0.44575 0.87062 0.0
C1428 C 0.50236 0.4774 0.85083 0.0
C1429 C 0.50259 0.49208 0.87344 0.0
C1430 C 0.48929 0.48262 0.89505 0.0
C1431 C 0.47543 0.45954 0.89368 0.0
H1432 H 0.33394 0.05027 0.05583 0.0
H1433 H 0.41197 0.0683 0.03408 0.0
H1434 H 0.33597 0.01118 0.03141 0.0
H1435 H 0.41323 0.02959 0.00773 0.0
H1436 H 0.41166 0.94446 0.98057 0.0
H1437 H 0.41358 0.98288 1.00734 0.0
H1438 H 0.3349 0.99994 0.98797 0.0
H1439 H 0.33237 0.96114 0.9631 0.0
C1440 C 0.35173 0.04586 0.0461 0.0
C1441 C 0.37287 0.06261 0.04724 0.0
C1442 C 0.35269 0.02352 0.03156 0.0
C1443 C 0.37459 0.01735 0.01715 0.0
C1444 C 0.39604 0.03369 0.01862 0.0
C1445 C 0.3952 0.05606 0.03352 0.0
C1446 C 0.39473 0.95633 0.9822 0.0
C1447 C 0.37189 0.94955 0.9695 0.0
C1448 C 0.39593 0.97853 0.99734 0.0
C1449 C 0.37431 0.99443 1.00009 0.0
C1450 C 0.35179 0.98795 0.98682 0.0
C1451 C 0.35051 0.96579 0.97202 0.0
H1452 H 0.45395 0.10787 0.54223 0.0
H1453 H 0.44208 0.18503 0.51483 0.0
H1454 H 0.49443 0.10575 0.51804 0.0
H1455 H 0.48168 0.18285 0.4904 0.0
H1456 H 0.56665 0.1861 0.47923 0.0
H1457 H 0.5261 0.18354 0.50183 0.0
H1458 H 0.5157 0.10584 0.47529 0.0
H1459 H 0.55705 0.10838 0.45268 0.0
C1460 C 0.45982 0.12417 0.53073 0.0
C1461 C 0.44518 0.14678 0.53077 0.0
C1462 C 0.48293 0.12298 0.51686 0.0
C1463 C 0.49162 0.14434 0.50269 0.0
C1464 C 0.47605 0.16632 0.50169 0.0
C1465 C 0.45327 0.16756 0.51561 0.0
C1466 C 0.55567 0.16849 0.47798 0.0
C1467 C 0.56482 0.14764 0.46367 0.0
C1468 C 0.53235 0.16702 0.49095 0.0
C1469 C 0.51728 0.14468 0.48995 0.0
C1470 C 0.5268 0.12336 0.47642 0.0
C1471 C 0.55041 0.12481 0.46344 0.0
H1472 H 0.63029 0.07755 1.00423 0.0
H1473 H 0.63424 0.04155 0.92983 0.0
H1474 H 0.62655 0.03549 0.02444 0.0
H1475 H 0.63079 0.99951 0.95012 0.0
H1476 H 0.66763 0.93488 0.99973 0.0
H1477 H 0.66105 0.97506 0.97679 0.0
H1478 H 0.60078 0.99534 0.02982 0.0
H1479 H 0.60761 0.95485 0.05299 0.0
C1480 C 0.62975 0.06074 0.9921 0.0
C1481 C 0.63287 0.063 0.96538 0.0
C1482 C 0.62762 0.03659 1.00373 0.0
C1483 C 0.62864 0.01411 0.98892 0.0
C1484 C 0.63038 0.01642 0.96211 0.0
C1485 C 0.63241 0.04054 0.95049 0.0
C1486 C 0.65273 0.94776 1.00627 0.0
C1487 C 0.63822 0.94182 0.02821 0.0
C1488 C 0.64882 0.97073 0.99303 0.0
C1489 C 0.63042 0.98848 1.00149 0.0
C1490 C 0.61523 0.98214 0.02293 0.0
C1491 C 0.61896 0.95892 0.03606 0.0
H1492 H 0.44121 0.84451 0.50588 0.0
H1493 H 0.46092 0.91034 0.45971 0.0
H1494 H 0.4804 0.85003 0.53085 0.0
H1495 H 0.50066 0.91581 0.4846 0.0
H1496 H 0.58256 0.8843 0.51189 0.0
H1497 H 0.54171 0.88841 0.48949 0.0
H1498 H 0.5014 0.88144 0.56145 0.0
H1499 H 0.54217 0.87811 0.58407 0.0
C1500 C 0.45389 0.86035 0.50133 0.0
C1501 C 0.44817 0.87701 0.48096 0.0
C1502 C 0.47623 0.86361 0.51566 0.0
C1503 C 0.49359 0.88338 0.50971 0.0
C1504 C 0.48765 0.90037 0.48955 0.0
C1505 C 0.46494 0.89736 0.47544 0.0
C1506 C 0.56508 0.88437 0.5231 0.0
C1507 C 0.56576 0.88054 0.54984 0.0
C1508 C 0.54164 0.88668 0.51019 0.0
C1509 C 0.51837 0.885 0.52369 0.0
C1510 C 0.51904 0.88244 0.5505 0.0
C1511 C 0.54243 0.8804 0.56343 0.0
H1512 H 0.10072 0.30156 0.24706 0.0
H1513 H 0.11626 0.248 0.18611 0.0
H1514 H 0.11021 0.26817 0.27872 0.0
H1515 H 0.12706 0.21523 0.21728 0.0
H1516 H 0.11863 0.15293 0.27667 0.0
H1517 H 0.10889 0.18709 0.24631 0.0
H1518 H 0.14131 0.24263 0.29857 0.0
H1519 H 0.14985 0.20835 0.32929 0.0
C1520 C 0.10652 0.28276 0.24047 0.0
C1521 C 0.10749 0.27732 0.21415 0.0
C1522 C 0.11209 0.2636 0.25858 0.0
C1523 C 0.11917 0.23871 0.25071 0.0
C1524 C 0.12095 0.23377 0.22426 0.0
C1525 C 0.11495 0.2527 0.20629 0.0
C1526 C 0.12371 0.17244 0.28155 0.0
C1527 C 0.13499 0.17796 0.30531 0.0
C1528 C 0.11826 0.19212 0.26412 0.0
C1529 C 0.12443 0.21783 0.26975 0.0
C1530 C 0.13583 0.22325 0.2936 0.0
C1531 C 0.14086 0.20358 0.31121 0.0
H1532 H 0.80859 0.38676 0.27616 0.0
H1533 H 0.74926 0.42391 0.32035 0.0
H1534 H 0.77634 0.37323 0.24475 0.0
H1535 H 0.71752 0.41101 0.28908 0.0
H1536 H 0.66139 0.36584 0.24332 0.0
H1537 H 0.69548 0.37363 0.27403 0.0
H1538 H 0.74778 0.3906 0.212 0.0
H1539 H 0.71396 0.38159 0.18114 0.0
C1540 C 0.78876 0.39212 0.27912 0.0
C1541 C 0.78152 0.40634 0.3008 0.0
C1542 C 0.77028 0.38443 0.26112 0.0
C1543 C 0.74425 0.3908 0.26451 0.0
C1544 C 0.73723 0.40522 0.28611 0.0
C1545 C 0.75556 0.41282 0.30398 0.0
C1546 C 0.68021 0.37074 0.2361 0.0
C1547 C 0.68471 0.37334 0.20963 0.0
C1548 C 0.69976 0.37552 0.25379 0.0
C1549 C 0.72433 0.38313 0.24553 0.0
C1550 C 0.72914 0.38472 0.21907 0.0
C1551 C 0.7096 0.37987 0.20135 0.0
H1552 H 0.90684 0.84361 0.30315 0.0
H1553 H 0.83471 0.80294 0.3055 0.0
H1554 H 0.92393 0.81128 0.27382 0.0
H1555 H 0.85155 0.77098 0.27641 0.0
H1556 H 0.89492 0.70538 0.24033 0.0
H1557 H 0.88183 0.73618 0.27304 0.0
H1558 H 0.91816 0.79716 0.23007 0.0
H1559 H 0.9317 0.76645 0.19787 0.0
C1560 C 0.89464 0.82785 0.29738 0.0
C1561 C 0.86949 0.82583 0.30685 0.0
C1562 C 0.90439 0.80931 0.28061 0.0
C1563 C 0.88916 0.78839 0.27288 0.0
C1564 C 0.86404 0.78644 0.28239 0.0
C1565 C 0.85435 0.80488 0.29912 0.0
C1566 C 0.90027 0.72532 0.238 0.0
C1567 C 0.91423 0.73345 0.21642 0.0
C1568 C 0.89267 0.74301 0.25667 0.0
C1569 C 0.89885 0.7692 0.25414 0.0
C1570 C 0.91333 0.77714 0.23284 0.0
C1571 C 0.92093 0.7595 0.21424 0.0
H1572 H 0.33059 0.67053 0.2187 0.0
H1573 H 0.32629 0.59674 0.18174 0.0
H1574 H 0.2947 0.65842 0.24672 0.0
H1575 H 0.29067 0.58461 0.20976 0.0
H1576 H 0.25842 0.56483 0.29206 0.0
H1577 H 0.28944 0.57732 0.25925 0.0
H1578 H 0.24536 0.64543 0.24308 0.0
H1579 H 0.21381 0.6326 0.27577 0.0
C1580 C 0.32191 0.6518 0.21654 0.0
C1581 C 0.33124 0.63457 0.19808 0.0
C1582 C 0.30127 0.64497 0.23236 0.0
C1583 C 0.28992 0.62061 0.23033 0.0
C1584 C 0.29909 0.6035 0.21171 0.0
C1585 C 0.31938 0.61049 0.19562 0.0
C1586 C 0.25512 0.58226 0.28123 0.0
C1587 C 0.2337 0.59771 0.28637 0.0
C1588 C 0.27284 0.58937 0.26243 0.0
C1589 C 0.26981 0.61236 0.24871 0.0
C1590 C 0.24814 0.62765 0.25349 0.0
C1591 C 0.23004 0.62023 0.27198 0.0
H1592 H 0.11439 0.76586 0.82972 0.0
H1593 H 0.10306 0.71097 0.76904 0.0
H1594 H 0.12731 0.79803 0.79862 0.0
H1595 H 0.11458 0.74371 0.73736 0.0
H1596 H 0.15604 0.80283 0.68761 0.0
H1597 H 0.14645 0.76914 0.71873 0.0
H1598 H 0.11088 0.82541 0.76806 0.0
H1599 H 0.12171 0.85898 0.7374 0.0
C1600 C 0.11446 0.76077 0.80959 0.0
C1601 C 0.10753 0.73598 0.80177 0.0
C1602 C 0.12168 0.77932 0.79165 0.0
C1603 C 0.12163 0.77382 0.76525 0.0
C1604 C 0.11514 0.74873 0.75747 0.0
C1605 C 0.1084 0.72994 0.77558 0.0
C1606 C 0.1462 0.80787 0.70516 0.0
C1607 C 0.13971 0.83352 0.71016 0.0
C1608 C 0.14055 0.78855 0.72299 0.0
C1609 C 0.12789 0.79435 0.74612 0.0
C1610 C 0.12121 0.8201 0.75087 0.0
C1611 C 0.12728 0.83943 0.73325 0.0
H1612 H 0.32669 0.34241 0.7904 0.0
H1613 H 0.31897 0.41689 0.82539 0.0
H1614 H 0.29192 0.35304 0.76044 0.0
H1615 H 0.28453 0.42748 0.79555 0.0
H1616 H 0.25538 0.44598 0.71276 0.0
H1617 H 0.28589 0.43366 0.74593 0.0
H1618 H 0.24173 0.36538 0.76164 0.0
H1619 H 0.2106 0.37805 0.72848 0.0
C1620 C 0.31751 0.36097 0.79172 0.0
C1621 C 0.32555 0.37882 0.81022 0.0
C1622 C 0.2975 0.36695 0.77479 0.0
C1623 C 0.28555 0.39106 0.77574 0.0
C1624 C 0.29343 0.40876 0.79439 0.0
C1625 C 0.31306 0.40264 0.81155 0.0
C1626 C 0.252 0.42844 0.72343 0.0
C1627 C 0.23059 0.413 0.71811 0.0
C1628 C 0.26944 0.42145 0.74246 0.0
C1629 C 0.26617 0.39858 0.75632 0.0
C1630 C 0.2447 0.38308 0.75114 0.0
C1631 C 0.22684 0.3904 0.73237 0.0
H1632 H 0.9096 0.3073 0.77212 0.0
H1633 H 0.91243 0.24669 0.82855 0.0
H1634 H 0.89886 0.2759 0.73906 0.0
H1635 H 0.90048 0.21564 0.79617 0.0
H1636 H 0.90394 0.16096 0.72969 0.0
H1637 H 0.91606 0.19328 0.76109 0.0
H1638 H 0.86714 0.24838 0.72298 0.0
H1639 H 0.85606 0.21617 0.69105 0.0
C1640 C 0.90765 0.28731 0.77748 0.0
C1641 C 0.91207 0.27943 0.80285 0.0
C1642 C 0.90137 0.26928 0.75859 0.0
C1643 C 0.89897 0.24304 0.76478 0.0
C1644 C 0.90283 0.23544 0.79038 0.0
C1645 C 0.90951 0.25334 0.80907 0.0
C1646 C 0.89582 0.18 0.72812 0.0
C1647 C 0.87908 0.18604 0.70797 0.0
C1648 C 0.90264 0.19856 0.74617 0.0
C1649 C 0.89247 0.22357 0.74482 0.0
C1650 C 0.87574 0.22956 0.72451 0.0
C1651 C 0.86928 0.21107 0.70622 0.0
H1652 H 0.7129 0.66887 0.82084 0.0
H1653 H 0.66366 0.60668 0.79741 0.0
H1654 H 0.74518 0.6553 0.7901 0.0
H1655 H 0.69623 0.59259 0.7669 0.0
H1656 H 0.74596 0.59316 0.69516 0.0
H1657 H 0.71478 0.60519 0.7274 0.0
H1658 H 0.77617 0.62322 0.78001 0.0
H1659 H 0.80763 0.6119 0.74712 0.0
C1660 C 0.70912 0.65203 0.80937 0.0
C1661 C 0.68569 0.63881 0.81158 0.0
C1662 C 0.72771 0.64418 0.79175 0.0
C1663 C 0.72343 0.6228 0.77596 0.0
C1664 C 0.70007 0.6094 0.77841 0.0
C1665 C 0.68138 0.61741 0.79591 0.0
C1666 C 0.7529 0.59961 0.71362 0.0
C1667 C 0.77933 0.60158 0.71855 0.0
C1668 C 0.73493 0.60636 0.73224 0.0
C1669 C 0.74284 0.61508 0.75644 0.0
C1670 C 0.76934 0.61688 0.76148 0.0
C1671 C 0.7874 0.61027 0.7427 0.0
H1672 H 0.19099 0.094 0.24655 0.0
H1673 H 0.24188 0.11234 0.30923 0.0
H1674 H 0.2232 0.10814 0.21601 0.0
H1675 H 0.27443 0.12668 0.27827 0.0
H1676 H 0.33372 0.1182 0.21059 0.0
H1677 H 0.30259 0.1074 0.24379 0.0
H1678 H 0.24409 0.14853 0.20217 0.0
H1679 H 0.27518 0.15977 0.16919 0.0
C1680 C 0.20908 0.10109 0.25386 0.0
C1681 C 0.21386 0.10199 0.28038 0.0
C1682 C 0.2275 0.10939 0.23629 0.0
C1683 C 0.25132 0.11868 0.24469 0.0
C1684 C 0.25627 0.11951 0.27122 0.0
C1685 C 0.23763 0.11141 0.28893 0.0
C1686 C 0.31435 0.12529 0.2086 0.0
C1687 C 0.30704 0.13971 0.18692 0.0
C1688 C 0.29649 0.11909 0.22772 0.0
C1689 C 0.27085 0.12697 0.22555 0.0
C1690 C 0.26364 0.14181 0.2042 0.0
C1691 C 0.28149 0.14816 0.18519 0.0
H1692 H 0.6074 0.2165 0.34575 0.0
H1693 H 0.67857 0.21073 0.30387 0.0
H1694 H 0.59061 0.24539 0.31282 0.0
H1695 H 0.66211 0.23966 0.27131 0.0
H1696 H 0.61861 0.27589 0.20541 0.0
H1697 H 0.63199 0.2438 0.23692 0.0
H1698 H 0.5964 0.28805 0.29714 0.0
H1699 H 0.58246 0.31948 0.26575 0.0
C1700 C 0.61948 0.2215 0.3296 0.0
C1701 C 0.64425 0.21118 0.32742 0.0
C1702 C 0.6099 0.23805 0.3107 0.0
C1703 C 0.62496 0.24482 0.28927 0.0
C1704 C 0.64973 0.23447 0.28718 0.0
C1705 C 0.65922 0.21787 0.30596 0.0
C1706 C 0.61348 0.2786 0.22535 0.0
C1707 C 0.59953 0.30028 0.23303 0.0
C1708 C 0.62128 0.2603 0.24346 0.0
C1709 C 0.61536 0.26334 0.26966 0.0
C1710 C 0.601 0.28482 0.27715 0.0
C1711 C 0.59315 0.30299 0.2591 0.0
H1712 H 0.76944 0.88679 0.30921 0.0
H1713 H 0.80786 0.93872 0.25717 0.0
H1714 H 0.73664 0.87848 0.27629 0.0
H1715 H 0.7755 0.93055 0.22479 0.0
H1716 H 0.70187 0.93214 0.1818 0.0
H1717 H 0.72872 0.93933 0.21896 0.0
H1718 H 0.73533 0.85768 0.23059 0.0
H1719 H 0.70758 0.85026 0.19336 0.0
C1720 C 0.77071 0.89661 0.29092 0.0
C1721 C 0.79116 0.91345 0.28577 0.0
C1722 C 0.75211 0.8917 0.27207 0.0
C1723 C 0.75348 0.90395 0.24802 0.0
C1724 C 0.77373 0.92106 0.24321 0.0
C1725 C 0.79235 0.92565 0.26176 0.0
C1726 C 0.70846 0.9156 0.19245 0.0
C1727 C 0.70253 0.89056 0.1844 0.0
C1728 C 0.7241 0.91978 0.21369 0.0
C1729 C 0.73429 0.89909 0.22757 0.0
C1730 C 0.72764 0.87401 0.2203 0.0
C1731 C 0.71199 0.86977 0.19883 0.0
H1732 H 0.41508 0.69175 0.26707 0.0
H1733 H 0.3929 0.7436 0.20629 0.0
H1734 H 0.40145 0.72266 0.29877 0.0
H1735 H 0.37871 0.7748 0.23847 0.0
H1736 H 0.39095 0.83314 0.30599 0.0
H1737 H 0.39777 0.80297 0.27106 0.0
H1738 H 0.36388 0.74265 0.31679 0.0
H1739 H 0.35807 0.77248 0.35207 0.0
C1740 C 0.40709 0.70973 0.26041 0.0
C1741 C 0.40518 0.71521 0.23407 0.0
C1742 C 0.39902 0.72741 0.27869 0.0
C1743 C 0.38878 0.75117 0.27124 0.0
C1744 C 0.38664 0.7567 0.24486 0.0
C1745 C 0.39468 0.73883 0.22643 0.0
C1746 C 0.38492 0.81345 0.30862 0.0
C1747 C 0.37436 0.80523 0.33211 0.0
C1748 C 0.38854 0.79621 0.28842 0.0
C1749 C 0.38167 0.7703 0.2912 0.0
C1750 C 0.36982 0.76239 0.31416 0.0
C1751 C 0.36623 0.77961 0.33436 0.0
H1752 H 0.28824 0.84283 0.82975 0.0
H1753 H 0.33084 0.91259 0.81656 0.0
H1754 H 0.25849 0.85462 0.79516 0.0
H1755 H 0.30099 0.92452 0.78239 0.0
H1756 H 0.21733 0.94807 0.75576 0.0
H1757 H 0.25062 0.93474 0.78586 0.0
H1758 H 0.26136 0.86475 0.74329 0.0
H1759 H 0.2283 0.87847 0.71252 0.0
C1760 C 0.29124 0.86061 0.8194 0.0
C1761 C 0.3118 0.87681 0.82579 0.0
C1762 C 0.27441 0.86723 0.79953 0.0
C1763 C 0.27757 0.89042 0.78614 0.0
C1764 C 0.29821 0.90652 0.79242 0.0
C1765 C 0.3153 0.89966 0.81188 0.0
C1766 C 0.227 0.92997 0.75264 0.0
C1767 C 0.22033 0.91432 0.73181 0.0
C1768 C 0.24605 0.9224 0.76982 0.0
C1769 C 0.25845 0.89873 0.76687 0.0
C1770 C 0.25198 0.88307 0.74595 0.0
C1771 C 0.23327 0.89097 0.72832 0.0
H1772 H 0.41655 0.32241 0.74699 0.0
H1773 H 0.38906 0.27271 0.8075 0.0
H1774 H 0.40358 0.29124 0.71522 0.0
H1775 H 0.37567 0.24121 0.77521 0.0
H1776 H 0.38745 0.18154 0.7083 0.0
H1777 H 0.39526 0.21169 0.74317 0.0
H1778 H 0.36485 0.2731 0.69665 0.0
H1779 H 0.35793 0.24332 0.66159 0.0
C1780 C 0.40761 0.30483 0.75357 0.0
C1781 C 0.40386 0.30009 0.77986 0.0
C1782 C 0.39995 0.287 0.73525 0.0
C1783 C 0.38834 0.26382 0.7426 0.0
C1784 C 0.38464 0.25889 0.76892 0.0
C1785 C 0.39223 0.27692 0.7874 0.0
C1786 C 0.3824 0.20146 0.70551 0.0
C1787 C 0.37235 0.20997 0.68192 0.0
C1788 C 0.38661 0.21869 0.72564 0.0
C1789 C 0.38095 0.24485 0.72262 0.0
C1790 C 0.36981 0.25313 0.69947 0.0
C1791 C 0.36558 0.23594 0.6794 0.0
H1792 H 0.77243 0.11771 0.70769 0.0
H1793 H 0.82591 0.10285 0.76918 0.0
H1794 H 0.73977 0.12971 0.73931 0.0
H1795 H 0.79349 0.11462 0.80045 0.0
H1796 H 0.73825 0.16229 0.8481 0.0
H1797 H 0.7699 0.15292 0.81512 0.0
H1798 H 0.71374 0.10843 0.77379 0.0
H1799 H 0.68211 0.11739 0.80694 0.0
C1800 C 0.77723 0.11705 0.72788 0.0
C1801 C 0.80175 0.10928 0.7359 0.0
C1802 C 0.75852 0.1238 0.74598 0.0
C1803 C 0.76408 0.12319 0.77239 0.0
C1804 C 0.78867 0.11563 0.78028 0.0
C1805 C 0.80722 0.1087 0.76229 0.0
C1806 C 0.73262 0.15031 0.83217 0.0
C1807 C 0.70754 0.14048 0.83042 0.0
C1808 C 0.75078 0.14503 0.81317 0.0
C1809 C 0.74434 0.1299 0.79185 0.0
C1810 C 0.71921 0.12042 0.78981 0.0
C1811 C 0.70107 0.12557 0.80889 0.0
H1812 H 0.60437 0.69055 0.75299 0.0
H1813 H 0.61164 0.74566 0.81429 0.0
H1814 H 0.61581 0.7233 0.72193 0.0
H1815 H 0.62336 0.77875 0.78279 0.0
H1816 H 0.61229 0.83401 0.71206 0.0
H1817 H 0.60316 0.80296 0.74596 0.0
H1818 H 0.65385 0.74862 0.70971 0.0
H1819 H 0.66326 0.7796 0.67608 0.0
C1820 C 0.60846 0.70969 0.7599 0.0
C1821 C 0.60708 0.71548 0.78618 0.0
C1822 C 0.61521 0.72844 0.74203 0.0
C1823 C 0.62066 0.75358 0.74989 0.0
C1824 C 0.61914 0.75955 0.77616 0.0
C1825 C 0.61255 0.74061 0.79418 0.0
C1826 C 0.62175 0.81558 0.71145 0.0
C1827 C 0.63832 0.80929 0.69108 0.0
C1828 C 0.61652 0.79779 0.73094 0.0
C1829 C 0.62764 0.77328 0.73043 0.0
C1830 C 0.64462 0.76721 0.71041 0.0
C1831 C 0.64993 0.78497 0.69103 0.0
H1832 H 0.30746 0.24347 0.1105 0.0
H1833 H 0.24702 0.18765 0.10082 0.0
H1834 H 0.27546 0.27597 0.12124 0.0
H1835 H 0.21533 0.21956 0.1124 0.0
H1836 H 0.16159 0.28752 0.11063 0.0
H1837 H 0.19434 0.25681 0.09754 0.0
H1838 H 0.24622 0.28812 0.15402 0.0
H1839 H 0.21372 0.31902 0.16652 0.0
C1840 C 0.28739 0.23812 0.11082 0.0
C1841 C 0.27979 0.21305 0.1047 0.0
C1842 C 0.26902 0.25669 0.11708 0.0
C1843 C 0.24271 0.25047 0.1176 0.0
C1844 C 0.23528 0.22527 0.11166 0.0
C1845 C 0.25355 0.20688 0.10518 0.0
C1846 C 0.17999 0.28775 0.12022 0.0
C1847 C 0.18506 0.30575 0.13952 0.0
C1848 C 0.19878 0.27014 0.11279 0.0
C1849 C 0.22302 0.26991 0.12473 0.0
C1850 C 0.22803 0.28799 0.14403 0.0
C1851 C 0.20933 0.30571 0.15126 0.0
H1852 H 0.24721 0.82406 0.91357 0.0
H1853 H 0.30845 0.77058 0.89797 0.0
H1854 H 0.21578 0.7918 0.90198 0.0
H1855 H 0.27659 0.73799 0.88616 0.0
H1856 H 0.20754 0.68101 0.89854 0.0
H1857 H 0.24148 0.71194 0.90754 0.0
H1858 H 0.20139 0.76901 0.86295 0.0
H1859 H 0.16773 0.73817 0.85356 0.0
C1860 C 0.25401 0.80539 0.90761 0.0
C1861 C 0.28038 0.7999 0.9067 0.0
C1862 C 0.23593 0.78693 0.90079 0.0
C1863 C 0.24368 0.7624 0.89301 0.0
C1864 C 0.27005 0.75673 0.89221 0.0
C1865 C 0.28827 0.77538 0.89884 0.0
C1866 C 0.20606 0.70003 0.89037 0.0
C1867 C 0.18465 0.70707 0.87552 0.0
C1868 C 0.22557 0.71775 0.89553 0.0
C1869 C 0.22404 0.74294 0.88609 0.0
C1870 C 0.20292 0.74985 0.87086 0.0
C1871 C 0.18352 0.73215 0.86558 0.0
H1872 H 0.32305 0.26961 0.59493 0.0
H1873 H 0.26975 0.20805 0.61063 0.0
H1874 H 0.2914 0.30076 0.60883 0.0
H1875 H 0.23775 0.23961 0.62457 0.0
H1876 H 0.18115 0.3091 0.61356 0.0
H1877 H 0.21179 0.27546 0.60375 0.0
H1878 H 0.26902 0.31401 0.64926 0.0
H1879 H 0.23831 0.34746 0.65975 0.0
C1880 C 0.30454 0.26268 0.60136 0.0
C1881 C 0.29889 0.23631 0.60158 0.0
C1882 C 0.28647 0.28059 0.60953 0.0
C1883 C 0.26213 0.27266 0.6179 0.0
C1884 C 0.25635 0.24628 0.61811 0.0
C1885 C 0.27465 0.22823 0.61022 0.0
C1886 C 0.20006 0.31038 0.62189 0.0
C1887 C 0.2071 0.33136 0.63738 0.0
C1888 C 0.21766 0.29097 0.61622 0.0
C1889 C 0.24282 0.29212 0.62565 0.0
C1890 C 0.24982 0.31276 0.64145 0.0
C1891 C 0.23217 0.33205 0.64735 0.0
H1892 H 0.85054 0.27165 0.86227 0.0
H1893 H 0.80401 0.33326 0.89196 0.0
H1894 H 0.81552 0.24165 0.86981 0.0
H1895 H 0.76921 0.30301 0.90027 0.0
H1896 H 0.70474 0.24205 0.89518 0.0
H1897 H 0.73705 0.27341 0.88122 0.0
H1898 H 0.79706 0.22353 0.90885 0.0
H1899 H 0.76523 0.19247 0.92246 0.0
C1900 C 0.83275 0.27892 0.87006 0.0
C1901 C 0.83026 0.3049 0.87674 0.0
C1902 C 0.81273 0.26163 0.87465 0.0
C1903 C 0.78966 0.26985 0.88597 0.0
C1904 C 0.78667 0.29603 0.89148 0.0
C1905 C 0.80675 0.31333 0.88696 0.0
C1906 C 0.72485 0.23785 0.89822 0.0
C1907 C 0.73235 0.21476 0.90997 0.0
C1908 C 0.74334 0.25581 0.89027 0.0
C1909 C 0.76967 0.25088 0.8937 0.0
C1910 C 0.77702 0.22777 0.90544 0.0
C1911 C 0.75866 0.21002 0.91348 0.0
H1912 H 0.68586 0.75112 0.62048 0.0
H1913 H 0.74617 0.80689 0.61009 0.0
H1914 H 0.71717 0.71903 0.63267 0.0
H1915 H 0.77808 0.77423 0.62102 0.0
H1916 H 0.82755 0.71418 0.66197 0.0
H1917 H 0.79656 0.74802 0.65277 0.0
H1918 H 0.74798 0.69263 0.61479 0.0
H1919 H 0.77849 0.6589 0.62507 0.0
C1920 C 0.70595 0.75644 0.62063 0.0
C1921 C 0.71361 0.78144 0.61413 0.0
C1922 C 0.724 0.73794 0.62743 0.0
C1923 C 0.75035 0.74372 0.62742 0.0
C1924 C 0.75799 0.76902 0.62147 0.0
C1925 C 0.73976 0.78776 0.6151 0.0
C1926 C 0.81021 0.70936 0.65164 0.0
C1927 C 0.80533 0.68388 0.64437 0.0
C1928 C 0.79246 0.72876 0.64625 0.0
C1929 C 0.76955 0.72321 0.63312 0.0
C1930 C 0.76499 0.69768 0.62553 0.0
C1931 C 0.78253 0.67827 0.6313 0.0
H1932 H 0.8019 0.68923 0.158 0.0
H1933 H 0.85852 0.739 0.12382 0.0
H1934 H 0.76898 0.72165 0.15099 0.0
H1935 H 0.82563 0.7711 0.11574 0.0
H1936 H 0.76797 0.83392 0.12355 0.0
H1937 H 0.79949 0.80155 0.13481 0.0
H1938 H 0.74349 0.74213 0.12019 0.0
H1939 H 0.71154 0.77491 0.11021 0.0
C1940 C 0.80722 0.70704 0.14872 0.0
C1941 C 0.8328 0.7116 0.14149 0.0
C1942 C 0.78833 0.72565 0.1446 0.0
C1943 C 0.79447 0.74918 0.13282 0.0
C1944 C 0.82013 0.75355 0.12542 0.0
C1945 C 0.83905 0.7351 0.12991 0.0
C1946 C 0.76233 0.81393 0.123 0.0
C1947 C 0.73733 0.80693 0.11591 0.0
C1948 C 0.78051 0.79529 0.12922 0.0
C1949 C 0.77434 0.76904 0.12804 0.0
C1950 C 0.749 0.76209 0.1216 0.0
C1951 C 0.73064 0.78085 0.1158 0.0
H1952 H 0.21608 0.7088 0.33469 0.0
H1953 H 0.21753 0.66784 0.40672 0.0
H1954 H 0.24446 0.74118 0.35217 0.0
H1955 H 0.24599 0.70061 0.42449 0.0
H1956 H 0.32048 0.74704 0.43502 0.0
H1957 H 0.28932 0.71574 0.42032 0.0
H1958 H 0.24696 0.7759 0.3822 0.0
H1959 H 0.27872 0.80728 0.39639 0.0
C1960 C 0.22213 0.70688 0.35444 0.0
C1961 C 0.21436 0.68574 0.36937 0.0
C1962 C 0.23842 0.72556 0.3645 0.0
C1963 C 0.24742 0.72368 0.38981 0.0
C1964 C 0.23964 0.70255 0.40482 0.0
C1965 C 0.22335 0.68376 0.39468 0.0
C1966 C 0.30446 0.75369 0.42361 0.0
C1967 C 0.30219 0.77969 0.41675 0.0
C1968 C 0.28645 0.7357 0.41533 0.0
C1969 C 0.26561 0.74321 0.40002 0.0
C1970 C 0.26298 0.76936 0.39365 0.0
C1971 C 0.28109 0.78739 0.4019 0.0
H1972 H 0.72234 0.2537 0.45005 0.0
H1973 H 0.73468 0.2115 0.38002 0.0
H1974 H 0.75538 0.28449 0.43735 0.0
H1975 H 0.76745 0.24287 0.36697 0.0
H1976 H 0.7918 0.32943 0.34483 0.0
H1977 H 0.76319 0.29393 0.35687 0.0
H1978 H 0.80555 0.28352 0.42715 0.0
H1979 H 0.8343 0.31863 0.41495 0.0
C1980 C 0.73234 0.25089 0.43206 0.0
C1981 C 0.72607 0.23022 0.41605 0.0
C1982 C 0.75124 0.26846 0.42483 0.0
C1983 C 0.76383 0.26605 0.40117 0.0
C1984 C 0.75791 0.24514 0.38528 0.0
C1985 C 0.73937 0.22714 0.39282 0.0
C1986 C 0.795 0.31941 0.36275 0.0
C1987 C 0.81521 0.32673 0.37897 0.0
C1988 C 0.77884 0.29904 0.36952 0.0
C1989 C 0.78229 0.28601 0.39288 0.0
C1990 C 0.80255 0.29325 0.40902 0.0
C1991 C 0.81901 0.31324 0.40201 0.0
loop_
_geom_bond_atom_site_label_1
_geom_bond_atom_site_label_2
_geom_bond_distance
_geom_bond_site_symmetry_2
_ccdc_geom_bond_type
C0 C1 1.351 . S
C0 N3 1.368 . S
C0 H5 0.931 . S
C1 C0 1.351 . S
C1 N2 1.373 . S
C1 H29 0.930 1_455 S
N2 C1 1.373 . S
N2 C4 1.340 . S
N3 C0 1.368 . S
N3 C4 1.321 . S
N3 Co6 2.135 . S
C4 N2 1.340 . S
C4 N3 1.321 . S
C4 H28 0.930 . S
H5 C0 0.931 . S
Co6 N3 2.135 . S
Co6 N9 2.121 . S
Co6 O14 2.055 . S
Co6 O17 2.039 . S
Co6 N20 2.140 . S
C7 O8 1.227 . S
C7 O17 1.265 . S
O8 C7 1.227 . S
N9 Co6 2.121 . S
N9 C11 1.375 . S
N9 C12 1.313 . S
C10 C11 1.338 . S
C10 N13 1.377 . S
C10 H30 0.930 . S
C11 N9 1.375 . S
C11 C10 1.338 . S
C11 H15 0.931 . S
C12 N9 1.313 . S
C12 N13 1.344 . S
C12 H16 0.930 . S
N13 C10 1.377 . S
N13 C12 1.344 . S
O14 Co6 2.055 . S
O14 C18 1.253 . S
H15 C11 0.931 . S
H16 C12 0.930 . S
O17 Co6 2.039 . S
O17 C7 1.265 . S
C18 O14 1.253 . S
C18 O19 1.227 . S
O19 C18 1.227 . S
N20 Co6 2.140 . S
N20 C23 1.346 . S
N20 C24 1.345 . S
C21 C22 1.387 . S
C21 C25 1.391 . S
C22 C21 1.387 . S
C22 C23 1.369 . S
C22 H31 0.929 . S
C23 N20 1.346 . S
C23 C22 1.369 . S
C23 H26 0.928 . S
C24 N20 1.345 . S
C24 C25 1.371 . S
C24 H27 0.931 . S
C25 C21 1.391 . S
C25 C24 1.371 . S
C25 H32 0.930 . S
H26 C23 0.928 . S
H27 C24 0.931 . S
H28 C4 0.930 . S
H29 C1 0.930 1_655 S
H30 C10 0.930 . S
H31 C22 0.929 . S
H32 C25 0.930 . S
C33 C34 1.351 . S
C33 N36 1.368 . S
C33 H38 0.931 . S
C34 C33 1.351 . S
C34 N35 1.373 . S
C34 H62 0.930 . S
N35 C34 1.373 . S
N35 C37 1.340 . S
N36 C33 1.368 . S
N36 C37 1.321 . S
N36 Co39 2.135 . S
C37 N35 1.340 . S
C37 N36 1.321 . S
C37 H61 0.930 . S
H38 C33 0.931 . S
Co39 N36 2.135 . S
Co39 N42 2.121 . S
Co39 O47 2.055 . S
Co39 O50 2.039 . S
Co39 N53 2.140 . S
C40 O41 1.227 . S
C40 O50 1.265 . S
O41 C40 1.227 . S
N42 Co39 2.121 . S
N42 C44 1.375 . S
N42 C45 1.313 . S
C43 C44 1.338 . S
C43 N46 1.377 . S
C43 H63 0.930 . S
C44 N42 1.375 . S
C44 C43 1.338 . S
C44 H48 0.931 . S
C45 N42 1.313 . S
C45 N46 1.344 . S
C45 H49 0.930 . S
N46 C43 1.377 . S
N46 C45 1.344 . S
O47 Co39 2.055 . S
O47 C51 1.253 . S
H48 C44 0.931 . S
H49 C45 0.930 . S
O50 Co39 2.039 . S
O50 C40 1.265 . S
C51 O47 1.253 . S
C51 O52 1.227 . S
O52 C51 1.227 . S
N53 Co39 2.140 . S
N53 C56 1.346 . S
N53 C57 1.345 . S
C54 C55 1.387 . S
C54 C58 1.391 . S
C55 C54 1.387 . S
C55 C56 1.369 . S
C55 H64 0.929 . S
C56 N53 1.346 . S
C56 C55 1.369 . S
C56 H59 0.928 . S
C57 N53 1.345 . S
C57 C58 1.371 . S
C57 H60 0.931 . S
C58 C54 1.391 . S
C58 C57 1.371 . S
C58 H65 0.930 . S
H59 C56 0.928 . S
H60 C57 0.931 . S
H61 C37 0.930 . S
H62 C34 0.930 . S
H63 C43 0.930 . S
H64 C55 0.929 . S
H65 C58 0.930 . S
C66 C67 1.351 . S
C66 N69 1.368 . S
C66 H71 0.931 . S
C67 C66 1.351 . S
C67 N68 1.373 . S
C67 H95 0.930 1_655 S
N68 C67 1.373 . S
N68 C70 1.340 . S
N69 C66 1.368 . S
N69 C70 1.321 . S
N69 Co72 2.135 . S
C70 N68 1.340 . S
C70 N69 1.321 . S
C70 H94 0.930 . S
H71 C66 0.931 . S
Co72 N69 2.135 . S
Co72 N75 2.121 . S
Co72 O80 2.055 . S
Co72 O83 2.039 . S
Co72 N86 2.140 . S
C73 O74 1.227 . S
C73 O83 1.265 . S
O74 C73 1.227 . S
N75 Co72 2.121 . S
N75 C77 1.375 . S
N75 C78 1.313 . S
C76 C77 1.338 . S
C76 N79 1.377 . S
C76 H96 0.930 . S
C77 N75 1.375 . S
C77 C76 1.338 . S
C77 H81 0.931 . S
C78 N75 1.313 . S
C78 N79 1.344 . S
C78 H82 0.930 . S
N79 C76 1.377 . S
N79 C78 1.344 . S
O80 Co72 2.055 . S
O80 C84 1.253 . S
H81 C77 0.931 . S
H82 C78 0.930 . S
O83 Co72 2.039 . S
O83 C73 1.265 . S
C84 O80 1.253 . S
C84 O85 1.227 . S
O85 C84 1.227 . S
N86 Co72 2.140 . S
N86 C89 1.346 . S
N86 C90 1.345 . S
C87 C88 1.387 . S
C87 C91 1.391 . S
C88 C87 1.387 . S
C88 C89 1.369 . S
C88 H97 0.929 . S
C89 N86 1.346 . S
C89 C88 1.369 . S
C89 H92 0.928 . S
C90 N86 1.345 . S
C90 C91 1.371 . S
C90 H93 0.931 . S
C91 C87 1.391 . S
C91 C90 1.371 . S
C91 H98 0.930 . S
H92 C89 0.928 . S
H93 C90 0.931 . S
H94 C70 0.930 . S
H95 C67 0.930 1_455 S
H96 C76 0.930 . S
H97 C88 0.929 . S
H98 C91 0.930 . S
C99 C100 1.351 . S
C99 N102 1.368 . S
C99 H104 0.931 . S
C100 C99 1.351 . S
C100 N101 1.373 . S
C100 H128 0.930 . S
N101 C100 1.373 . S
N101 C103 1.340 . S
N102 C99 1.368 . S
N102 C103 1.321 . S
N102 Co105 2.135 . S
C103 N101 1.340 . S
C103 N102 1.321 . S
C103 H127 0.930 . S
H104 C99 0.931 . S
Co105 N102 2.135 . S
Co105 N108 2.121 . S
Co105 O113 2.055 . S
Co105 O116 2.039 . S
Co105 N119 2.140 . S
C106 O107 1.227 . S
C106 O116 1.265 . S
O107 C106 1.227 . S
N108 Co105 2.121 . S
N108 C110 1.375 . S
N108 C111 1.313 . S
C109 C110 1.338 . S
C109 N112 1.377 . S
C109 H129 0.930 . S
C110 N108 1.375 . S
C110 C109 1.338 . S
C110 H114 0.931 . S
C111 N108 1.313 . S
C111 N112 1.344 . S
C111 H115 0.930 . S
N112 C109 1.377 . S
N112 C111 1.344 . S
O113 Co105 2.055 . S
O113 C117 1.253 . S
H114 C110 0.931 . S
H115 C111 0.930 . S
O116 Co105 2.039 . S
O116 C106 1.265 . S
C117 O113 1.253 . S
C117 O118 1.227 . S
O118 C117 1.227 . S
N119 Co105 2.140 . S
N119 C122 1.346 . S
N119 C123 1.345 . S
C120 C121 1.387 . S
C120 C124 1.391 . S
C121 C120 1.387 . S
C121 C122 1.369 . S
C121 H130 0.929 . S
C122 N119 1.346 . S
C122 C121 1.369 . S
C122 H125 0.928 . S
C123 N119 1.345 . S
C123 C124 1.371 . S
C123 H126 0.931 . S
C124 C120 1.391 . S
C124 C123 1.371 . S
C124 H131 0.930 . S
H125 C122 0.928 . S
H126 C123 0.931 . S
H127 C103 0.930 . S
H128 C100 0.930 . S
H129 C109 0.930 . S
H130 C121 0.929 . S
H131 C124 0.930 . S
C132 C133 1.351 . S
C132 N135 1.368 . S
C132 H137 0.931 . S
C133 C132 1.351 . S
C133 N134 1.373 . S
C133 H161 0.930 1_455 S
N134 C133 1.373 . S
N134 C136 1.340 . S
N135 C132 1.368 . S
N135 C136 1.321 . S
N135 Co138 2.135 . S
C136 N134 1.340 . S
C136 N135 1.321 . S
C136 H160 0.930 . S
H137 C132 0.931 . S
Co138 N135 2.135 . S
Co138 N141 2.121 . S
Co138 O146 2.055 . S
Co138 O149 2.039 . S
Co138 N152 2.140 . S
C139 O140 1.227 . S
C139 O149 1.265 . S
O140 C139 1.227 . S
N141 Co138 2.121 . S
N141 C143 1.375 . S
N141 C144 1.313 . S
C142 C143 1.338 . S
C142 N145 1.377 . S
C142 H162 0.930 . S
C143 N141 1.375 . S
C143 C142 1.338 . S
C143 H147 0.931 . S
C144 N141 1.313 . S
C144 N145 1.344 . S
C144 H148 0.930 . S
N145 C142 1.377 . S
N145 C144 1.344 . S
O146 Co138 2.055 . S
O146 C150 1.253 . S
H147 C143 0.931 . S
H148 C144 0.930 . S
O149 Co138 2.039 . S
O149 C139 1.265 . S
C150 O146 1.253 . S
C150 O151 1.227 . S
O151 C150 1.227 . S
N152 Co138 2.140 . S
N152 C155 1.346 . S
N152 C156 1.345 . S
C153 C154 1.387 . S
C153 C157 1.391 . S
C154 C153 1.387 . S
C154 C155 1.369 . S
C154 H163 0.929 . S
C155 N152 1.346 . S
C155 C154 1.369 . S
C155 H158 0.928 . S
C156 N152 1.345 . S
C156 C157 1.371 . S
C156 H159 0.931 . S
C157 C153 1.391 . S
C157 C156 1.371 . S
C157 H164 0.930 . S
H158 C155 0.928 . S
H159 C156 0.931 . S
H160 C136 0.930 . S
H161 C133 0.930 1_655 S
H162 C142 0.930 . S
H163 C154 0.929 . S
H164 C157 0.930 . S
C165 C166 1.351 . S
C165 N168 1.368 . S
C165 H170 0.931 . S
C166 C165 1.351 . S
C166 N167 1.373 . S
C166 H194 0.930 . S
N167 C166 1.373 . S
N167 C169 1.340 . S
N168 C165 1.368 . S
N168 C169 1.321 . S
N168 Co171 2.135 . S
C169 N167 1.340 . S
C169 N168 1.321 . S
C169 H193 0.930 . S
H170 C165 0.931 . S
Co171 N168 2.135 . S
Co171 N174 2.121 . S
Co171 O179 2.055 . S
Co171 O182 2.039 . S
Co171 N185 2.140 . S
C172 O173 1.227 . S
C172 O182 1.265 . S
O173 C172 1.227 . S
N174 Co171 2.121 . S
N174 C176 1.375 . S
N174 C177 1.313 . S
C175 C176 1.338 . S
C175 N178 1.377 . S
C175 H195 0.930 . S
C176 N174 1.375 . S
C176 C175 1.338 . S
C176 H180 0.931 . S
C177 N174 1.313 . S
C177 N178 1.344 . S
C177 H181 0.930 . S
N178 C175 1.377 . S
N178 C177 1.344 . S
O179 Co171 2.055 . S
O179 C183 1.253 . S
H180 C176 0.931 . S
H181 C177 0.930 . S
O182 Co171 2.039 . S
O182 C172 1.265 . S
C183 O179 1.253 . S
C183 O184 1.227 . S
O184 C183 1.227 . S
N185 Co171 2.140 . S
N185 C188 1.346 . S
N185 C189 1.345 . S
C186 C187 1.387 . S
C186 C190 1.391 . S
C187 C186 1.387 . S
C187 C188 1.369 . S
C187 H196 0.929 . S
C188 N185 1.346 . S
C188 C187 1.369 . S
C188 H191 0.928 . S
C189 N185 1.345 . S
C189 C190 1.371 . S
C189 H192 0.931 . S
C190 C186 1.391 . S
C190 C189 1.371 . S
C190 H197 0.930 . S
H191 C188 0.928 . S
H192 C189 0.931 . S
H193 C169 0.930 . S
H194 C166 0.930 . S
H195 C175 0.930 . S
H196 C187 0.929 . S
H197 C190 0.930 . S
C198 C199 1.351 . S
C198 N201 1.368 . S
C198 H203 0.931 . S
C199 C198 1.351 . S
C199 N200 1.373 . S
C199 H227 0.930 1_655 S
N200 C199 1.373 . S
N200 C202 1.340 . S
N201 C198 1.368 . S
N201 C202 1.321 . S
N201 Co204 2.135 . S
C202 N200 1.340 . S
C202 N201 1.321 . S
C202 H226 0.930 . S
H203 C198 0.931 . S
Co204 N201 2.135 . S
Co204 N207 2.121 . S
Co204 O212 2.055 . S
Co204 O215 2.039 . S
Co204 N218 2.140 . S
C205 O206 1.227 . S
C205 O215 1.265 . S
O206 C205 1.227 . S
N207 Co204 2.121 . S
N207 C209 1.375 . S
N207 C210 1.313 . S
C208 C209 1.338 . S
C208 N211 1.377 . S
C208 H228 0.930 . S
C209 N207 1.375 . S
C209 C208 1.338 . S
C209 H213 0.931 . S
C210 N207 1.313 . S
C210 N211 1.344 . S
C210 H214 0.930 . S
N211 C208 1.377 . S
N211 C210 1.344 . S
O212 Co204 2.055 . S
O212 C216 1.253 . S
H213 C209 0.931 . S
H214 C210 0.930 . S
O215 Co204 2.039 . S
O215 C205 1.265 . S
C216 O212 1.253 . S
C216 O217 1.227 . S
O217 C216 1.227 . S
N218 Co204 2.140 . S
N218 C221 1.346 . S
N218 C222 1.345 . S
C219 C220 1.387 . S
C219 C223 1.391 . S
C220 C219 1.387 . S
C220 C221 1.369 . S
C220 H229 0.929 . S
C221 N218 1.346 . S
C221 C220 1.369 . S
C221 H224 0.928 . S
C222 N218 1.345 . S
C222 C223 1.371 . S
C222 H225 0.931 . S
C223 C219 1.391 . S
C223 C222 1.371 . S
C223 H230 0.930 . S
H224 C221 0.928 . S
H225 C222 0.931 . S
H226 C202 0.930 . S
H227 C199 0.930 1_455 S
H228 C208 0.930 . S
H229 C220 0.929 . S
H230 C223 0.930 . S
C231 C232 1.351 . S
C231 N234 1.368 . S
C231 H236 0.931 . S
C232 C231 1.351 . S
C232 N233 1.373 . S
C232 H260 0.930 . S
N233 C232 1.373 . S
N233 C235 1.340 . S
N234 C231 1.368 . S
N234 C235 1.321 . S
N234 Co237 2.135 . S
C235 N233 1.340 . S
C235 N234 1.321 . S
C235 H259 0.930 . S
H236 C231 0.931 . S
Co237 N234 2.135 . S
Co237 N240 2.121 . S
Co237 O245 2.055 . S
Co237 O248 2.039 . S
Co237 N251 2.140 . S
C238 O239 1.227 . S
C238 O248 1.265 . S
O239 C238 1.227 . S
N240 Co237 2.121 . S
N240 C242 1.375 . S
N240 C243 1.313 . S
C241 C242 1.338 . S
C241 N244 1.377 . S
C241 H261 0.930 . S
C242 N240 1.375 . S
C242 C241 1.338 . S
C242 H246 0.931 . S
C243 N240 1.313 . S
C243 N244 1.344 . S
C243 H247 0.930 . S
N244 C241 1.377 . S
N244 C243 1.344 . S
O245 Co237 2.055 . S
O245 C249 1.253 . S
H246 C242 0.931 . S
H247 C243 0.930 . S
O248 Co237 2.039 . S
O248 C238 1.265 . S
C249 O245 1.253 . S
C249 O250 1.227 . S
O250 C249 1.227 . S
N251 Co237 2.140 . S
N251 C254 1.346 . S
N251 C255 1.345 . S
C252 C253 1.387 . S
C252 C256 1.391 . S
C253 C252 1.387 . S
C253 C254 1.369 . S
C253 H262 0.929 . S
C254 N251 1.346 . S
C254 C253 1.369 . S
C254 H257 0.928 . S
C255 N251 1.345 . S
C255 C256 1.371 . S
C255 H258 0.931 . S
C256 C252 1.391 . S
C256 C255 1.371 . S
C256 H263 0.930 . S
H257 C254 0.928 . S
H258 C255 0.931 . S
H259 C235 0.930 . S
H260 C232 0.930 . S
H261 C241 0.930 . S
H262 C253 0.929 . S
H263 C256 0.930 . S
C264 C265 1.351 . S
C264 N267 1.368 . S
C264 H269 0.931 . S
C265 C264 1.351 . S
C265 N266 1.373 . S
C265 H293 0.930 1_545 S
N266 C265 1.373 . S
N266 C268 1.340 . S
N267 C264 1.368 . S
N267 C268 1.321 . S
N267 Co270 2.135 . S
C268 N266 1.340 . S
C268 N267 1.321 . S
C268 H292 0.930 . S
H269 C264 0.931 . S
Co270 N267 2.135 . S
Co270 N273 2.121 . S
Co270 O278 2.055 . S
Co270 O281 2.039 . S
Co270 N284 2.140 . S
C271 O272 1.227 . S
C271 O281 1.265 . S
O272 C271 1.227 . S
N273 Co270 2.121 . S
N273 C275 1.375 . S
N273 C276 1.313 . S
C274 C275 1.338 . S
C274 N277 1.377 . S
C274 H294 0.930 . S
C275 N273 1.375 . S
C275 C274 1.338 . S
C275 H279 0.931 . S
C276 N273 1.313 . S
C276 N277 1.344 . S
C276 H280 0.930 . S
N277 C274 1.377 . S
N277 C276 1.344 . S
O278 Co270 2.055 . S
O278 C282 1.253 . S
H279 C275 0.931 . S
H280 C276 0.930 . S
O281 Co270 2.039 . S
O281 C271 1.265 . S
C282 O278 1.253 . S
C282 O283 1.227 . S
O283 C282 1.227 . S
N284 Co270 2.140 . S
N284 C287 1.346 . S
N284 C288 1.345 . S
C285 C286 1.387 . S
C285 C289 1.391 . S
C286 C285 1.387 . S
C286 C287 1.369 . S
C286 H295 0.929 . S
C287 N284 1.346 . S
C287 C286 1.369 . S
C287 H290 0.928 . S
C288 N284 1.345 . S
C288 C289 1.371 . S
C288 H291 0.931 . S
C289 C285 1.391 . S
C289 C288 1.371 . S
C289 H296 0.930 . S
H290 C287 0.928 . S
H291 C288 0.931 . S
H292 C268 0.930 . S
H293 C265 0.930 1_565 S
H294 C274 0.930 . S
H295 C286 0.929 . S
H296 C289 0.930 . S
C297 C298 1.351 . S
C297 N300 1.368 . S
C297 H302 0.931 . S
C298 C297 1.351 . S
C298 N299 1.373 . S
C298 H326 0.930 . S
N299 C298 1.373 . S
N299 C301 1.340 . S
N300 C297 1.368 . S
N300 C301 1.321 . S
N300 Co303 2.135 . S
C301 N299 1.340 . S
C301 N300 1.321 . S
C301 H325 0.930 . S
H302 C297 0.931 . S
Co303 N300 2.135 . S
Co303 N306 2.121 . S
Co303 O311 2.055 . S
Co303 O314 2.039 . S
Co303 N317 2.140 . S
C304 O305 1.227 . S
C304 O314 1.265 . S
O305 C304 1.227 . S
N306 Co303 2.121 . S
N306 C308 1.375 . S
N306 C309 1.313 . S
C307 C308 1.338 . S
C307 N310 1.377 . S
C307 H327 0.930 . S
C308 N306 1.375 . S
C308 C307 1.338 . S
C308 H312 0.931 . S
C309 N306 1.313 . S
C309 N310 1.344 . S
C309 H313 0.930 . S
N310 C307 1.377 . S
N310 C309 1.344 . S
O311 Co303 2.055 . S
O311 C315 1.253 . S
H312 C308 0.931 . S
H313 C309 0.930 . S
O314 Co303 2.039 . S
O314 C304 1.265 . S
C315 O311 1.253 . S
C315 O316 1.227 . S
O316 C315 1.227 . S
N317 Co303 2.140 . S
N317 C320 1.346 . S
N317 C321 1.345 . S
C318 C319 1.387 . S
C318 C322 1.391 . S
C319 C318 1.387 . S
C319 C320 1.369 . S
C319 H328 0.929 . S
C320 N317 1.346 . S
C320 C319 1.369 . S
C320 H323 0.928 . S
C321 N317 1.345 . S
C321 C322 1.371 . S
C321 H324 0.931 . S
C322 C318 1.391 . S
C322 C321 1.371 . S
C322 H329 0.930 . S
H323 C320 0.928 . S
H324 C321 0.931 . S
H325 C301 0.930 . S
H326 C298 0.930 . S
H327 C307 0.930 . S
H328 C319 0.929 . S
H329 C322 0.930 . S
C330 C331 1.351 . S
C330 N333 1.368 . S
C330 H335 0.931 . S
C331 C330 1.351 . S
C331 N332 1.373 . S
C331 H359 0.930 1_565 S
N332 C331 1.373 . S
N332 C334 1.340 . S
N333 C330 1.368 . S
N333 C334 1.321 . S
N333 Co336 2.135 . S
C334 N332 1.340 . S
C334 N333 1.321 . S
C334 H358 0.930 . S
H335 C330 0.931 . S
Co336 N333 2.135 . S
Co336 N339 2.121 . S
Co336 O344 2.055 . S
Co336 O347 2.039 . S
Co336 N350 2.140 . S
C337 O338 1.227 . S
C337 O347 1.265 . S
O338 C337 1.227 . S
N339 Co336 2.121 . S
N339 C341 1.375 . S
N339 C342 1.313 . S
C340 C341 1.338 . S
C340 N343 1.377 . S
C340 H360 0.930 . S
C341 N339 1.375 . S
C341 C340 1.338 . S
C341 H345 0.931 . S
C342 N339 1.313 . S
C342 N343 1.344 . S
C342 H346 0.930 . S
N343 C340 1.377 . S
N343 C342 1.344 . S
O344 Co336 2.055 . S
O344 C348 1.253 . S
H345 C341 0.931 . S
H346 C342 0.930 . S
O347 Co336 2.039 . S
O347 C337 1.265 . S
C348 O344 1.253 . S
C348 O349 1.227 . S
O349 C348 1.227 . S
N350 Co336 2.140 . S
N350 C353 1.346 . S
N350 C354 1.345 . S
C351 C352 1.387 . S
C351 C355 1.391 . S
C352 C351 1.387 . S
C352 C353 1.369 . S
C352 H361 0.929 . S
C353 N350 1.346 . S
C353 C352 1.369 . S
C353 H356 0.928 . S
C354 N350 1.345 . S
C354 C355 1.371 . S
C354 H357 0.931 . S
C355 C351 1.391 . S
C355 C354 1.371 . S
C355 H362 0.930 . S
H356 C353 0.928 . S
H357 C354 0.931 . S
H358 C334 0.930 . S
H359 C331 0.930 1_545 S
H360 C340 0.930 . S
H361 C352 0.929 . S
H362 C355 0.930 . S
C363 C364 1.351 . S
C363 N366 1.368 . S
C363 H368 0.931 . S
C364 C363 1.351 . S
C364 N365 1.373 . S
C364 H392 0.930 . S
N365 C364 1.373 . S
N365 C367 1.340 . S
N366 C363 1.368 . S
N366 C367 1.321 . S
N366 Co369 2.135 . S
C367 N365 1.340 . S
C367 N366 1.321 . S
C367 H391 0.930 . S
H368 C363 0.931 . S
Co369 N366 2.135 . S
Co369 N372 2.121 . S
Co369 O377 2.055 . S
Co369 O380 2.039 . S
Co369 N383 2.140 . S
C370 O371 1.227 . S
C370 O380 1.265 . S
O371 C370 1.227 . S
N372 Co369 2.121 . S
N372 C374 1.375 . S
N372 C375 1.313 . S
C373 C374 1.338 . S
C373 N376 1.377 . S
C373 H393 0.930 . S
C374 N372 1.375 . S
C374 C373 1.338 . S
C374 H378 0.931 . S
C375 N372 1.313 . S
C375 N376 1.344 . S
C375 H379 0.930 . S
N376 C373 1.377 . S
N376 C375 1.344 . S
O377 Co369 2.055 . S
O377 C381 1.253 . S
H378 C374 0.931 . S
H379 C375 0.930 . S
O380 Co369 2.039 . S
O380 C370 1.265 . S
C381 O377 1.253 . S
C381 O382 1.227 . S
O382 C381 1.227 . S
N383 Co369 2.140 . S
N383 C386 1.346 . S
N383 C387 1.345 . S
C384 C385 1.387 . S
C384 C388 1.391 . S
C385 C384 1.387 . S
C385 C386 1.369 . S
C385 H394 0.929 . S
C386 N383 1.346 . S
C386 C385 1.369 . S
C386 H389 0.928 . S
C387 N383 1.345 . S
C387 C388 1.371 . S
C387 H390 0.931 . S
C388 C384 1.391 . S
C388 C387 1.371 . S
C388 H395 0.930 . S
H389 C386 0.928 . S
H390 C387 0.931 . S
H391 C367 0.930 . S
H392 C364 0.930 . S
H393 C373 0.930 . S
H394 C385 0.929 . S
H395 C388 0.930 . S
C396 C397 1.351 . S
C396 N399 1.368 . S
C396 H401 0.931 . S
C397 C396 1.351 . S
C397 N398 1.373 . S
C397 H425 0.930 1_565 S
N398 C397 1.373 . S
N398 C400 1.340 . S
N399 C396 1.368 . S
N399 C400 1.321 . S
N399 Co402 2.135 . S
C400 N398 1.340 . S
C400 N399 1.321 . S
C400 H424 0.930 . S
H401 C396 0.931 . S
Co402 N399 2.135 . S
Co402 N405 2.121 . S
Co402 O410 2.055 . S
Co402 O413 2.039 . S
Co402 N416 2.140 . S
C403 O404 1.227 . S
C403 O413 1.265 . S
O404 C403 1.227 . S
N405 Co402 2.121 . S
N405 C407 1.375 . S
N405 C408 1.313 . S
C406 C407 1.338 . S
C406 N409 1.377 . S
C406 H426 0.930 . S
C407 N405 1.375 . S
C407 C406 1.338 . S
C407 H411 0.931 . S
C408 N405 1.313 . S
C408 N409 1.344 . S
C408 H412 0.930 . S
N409 C406 1.377 . S
N409 C408 1.344 . S
O410 Co402 2.055 . S
O410 C414 1.253 . S
H411 C407 0.931 . S
H412 C408 0.930 . S
O413 Co402 2.039 . S
O413 C403 1.265 . S
C414 O410 1.253 . S
C414 O415 1.227 . S
O415 C414 1.227 . S
N416 Co402 2.140 . S
N416 C419 1.346 . S
N416 C420 1.345 . S
C417 C418 1.387 . S
C417 C421 1.391 . S
C418 C417 1.387 . S
C418 C419 1.369 . S
C418 H427 0.929 . S
C419 N416 1.346 . S
C419 C418 1.369 . S
C419 H422 0.928 . S
C420 N416 1.345 . S
C420 C421 1.371 . S
C420 H423 0.931 . S
C421 C417 1.391 . S
C421 C420 1.371 . S
C421 H428 0.930 . S
H422 C419 0.928 . S
H423 C420 0.931 . S
H424 C400 0.930 . S
H425 C397 0.930 1_545 S
H426 C406 0.930 . S
H427 C418 0.929 . S
H428 C421 0.930 . S
C429 C430 1.351 . S
C429 N432 1.368 . S
C429 H434 0.931 . S
C430 C429 1.351 . S
C430 N431 1.373 . S
C430 H458 0.930 . S
N431 C430 1.373 . S
N431 C433 1.340 . S
N432 C429 1.368 . S
N432 C433 1.321 . S
N432 Co435 2.135 . S
C433 N431 1.340 . S
C433 N432 1.321 . S
C433 H457 0.930 . S
H434 C429 0.931 . S
Co435 N432 2.135 . S
Co435 N438 2.121 . S
Co435 O443 2.055 . S
Co435 O446 2.039 . S
Co435 N449 2.140 . S
C436 O437 1.227 . S
C436 O446 1.265 . S
O437 C436 1.227 . S
N438 Co435 2.121 . S
N438 C440 1.375 . S
N438 C441 1.313 . S
C439 C440 1.338 . S
C439 N442 1.377 . S
C439 H459 0.930 . S
C440 N438 1.375 . S
C440 C439 1.338 . S
C440 H444 0.931 . S
C441 N438 1.313 . S
C441 N442 1.344 . S
C441 H445 0.930 . S
N442 C439 1.377 . S
N442 C441 1.344 . S
O443 Co435 2.055 . S
O443 C447 1.253 . S
H444 C440 0.931 . S
H445 C441 0.930 . S
O446 Co435 2.039 . S
O446 C436 1.265 . S
C447 O443 1.253 . S
C447 O448 1.227 . S
O448 C447 1.227 . S
N449 Co435 2.140 . S
N449 C452 1.346 . S
N449 C453 1.345 . S
C450 C451 1.387 . S
C450 C454 1.391 . S
C451 C450 1.387 . S
C451 C452 1.369 . S
C451 H460 0.929 . S
C452 N449 1.346 . S
C452 C451 1.369 . S
C452 H455 0.928 . S
C453 N449 1.345 . S
C453 C454 1.371 . S
C453 H456 0.931 . S
C454 C450 1.391 . S
C454 C453 1.371 . S
C454 H461 0.930 . S
H455 C452 0.928 . S
H456 C453 0.931 . S
H457 C433 0.930 . S
H458 C430 0.930 . S
H459 C439 0.930 . S
H460 C451 0.929 . S
H461 C454 0.930 . S
C462 C463 1.351 . S
C462 N465 1.368 . S
C462 H467 0.931 . S
C463 C462 1.351 . S
C463 N464 1.373 . S
C463 H491 0.930 1_545 S
N464 C463 1.373 . S
N464 C466 1.340 . S
N465 C462 1.368 . S
N465 C466 1.321 . S
N465 Co468 2.135 . S
C466 N464 1.340 . S
C466 N465 1.321 . S
C466 H490 0.930 . S
H467 C462 0.931 . S
Co468 N465 2.135 . S
Co468 N471 2.121 . S
Co468 O476 2.055 . S
Co468 O479 2.039 . S
Co468 N482 2.140 . S
C469 O470 1.227 . S
C469 O479 1.265 . S
O470 C469 1.227 . S
N471 Co468 2.121 . S
N471 C473 1.375 . S
N471 C474 1.313 . S
C472 C473 1.338 . S
C472 N475 1.377 . S
C472 H492 0.930 . S
C473 N471 1.375 . S
C473 C472 1.338 . S
C473 H477 0.931 . S
C474 N471 1.313 . S
C474 N475 1.344 . S
C474 H478 0.930 . S
N475 C472 1.377 . S
N475 C474 1.344 . S
O476 Co468 2.055 . S
O476 C480 1.253 . S
H477 C473 0.931 . S
H478 C474 0.930 . S
O479 Co468 2.039 . S
O479 C469 1.265 . S
C480 O476 1.253 . S
C480 O481 1.227 . S
O481 C480 1.227 . S
N482 Co468 2.140 . S
N482 C485 1.346 . S
N482 C486 1.345 . S
C483 C484 1.387 . S
C483 C487 1.391 . S
C484 C483 1.387 . S
C484 C485 1.369 . S
C484 H493 0.929 . S
C485 N482 1.346 . S
C485 C484 1.369 . S
C485 H488 0.928 . S
C486 N482 1.345 . S
C486 C487 1.371 . S
C486 H489 0.931 . S
C487 C483 1.391 . S
C487 C486 1.371 . S
C487 H494 0.930 . S
H488 C485 0.928 . S
H489 C486 0.931 . S
H490 C466 0.930 . S
H491 C463 0.930 1_565 S
H492 C472 0.930 . S
H493 C484 0.929 . S
H494 C487 0.930 . S
C495 C496 1.351 . S
C495 N498 1.368 . S
C495 H500 0.931 . S
C496 C495 1.351 . S
C496 N497 1.373 . S
C496 H524 0.930 . S
N497 C496 1.373 . S
N497 C499 1.340 . S
N498 C495 1.368 . S
N498 C499 1.321 . S
N498 Co501 2.135 . S
C499 N497 1.340 . S
C499 N498 1.321 . S
C499 H523 0.930 . S
H500 C495 0.931 . S
Co501 N498 2.135 . S
Co501 N504 2.121 . S
Co501 O509 2.055 . S
Co501 O512 2.039 . S
Co501 N515 2.140 . S
C502 O503 1.227 . S
C502 O512 1.265 . S
O503 C502 1.227 . S
N504 Co501 2.121 . S
N504 C506 1.375 . S
N504 C507 1.313 . S
C505 C506 1.338 . S
C505 N508 1.377 . S
C505 H525 0.930 . S
C506 N504 1.375 . S
C506 C505 1.338 . S
C506 H510 0.931 . S
C507 N504 1.313 . S
C507 N508 1.344 . S
C507 H511 0.930 . S
N508 C505 1.377 . S
N508 C507 1.344 . S
O509 Co501 2.055 . S
O509 C513 1.253 . S
H510 C506 0.931 . S
H511 C507 0.930 . S
O512 Co501 2.039 . S
O512 C502 1.265 . S
C513 O509 1.253 . S
C513 O514 1.227 . S
O514 C513 1.227 . S
N515 Co501 2.140 . S
N515 C518 1.346 . S
N515 C519 1.345 . S
C516 C517 1.387 . S
C516 C520 1.391 . S
C517 C516 1.387 . S
C517 C518 1.369 . S
C517 H526 0.929 . S
C518 N515 1.346 . S
C518 C517 1.369 . S
C518 H521 0.928 . S
C519 N515 1.345 . S
C519 C520 1.371 . S
C519 H522 0.931 . S
C520 C516 1.391 . S
C520 C519 1.371 . S
C520 H527 0.930 . S
H521 C518 0.928 . S
H522 C519 0.931 . S
H523 C499 0.930 . S
H524 C496 0.930 . S
H525 C505 0.930 . S
H526 C517 0.929 . S
H527 C520 0.930 . S
C528 C529 1.351 . S
C528 N531 1.368 . S
C528 H533 0.931 . S
C529 C528 1.351 . S
C529 N530 1.373 . S
C529 H557 0.930 1_554 S
N530 C529 1.373 . S
N530 C532 1.340 . S
N531 C528 1.368 . S
N531 C532 1.321 . S
N531 Co534 2.135 . S
C532 N530 1.340 . S
C532 N531 1.321 . S
C532 H556 0.930 . S
H533 C528 0.931 . S
Co534 N531 2.135 . S
Co534 N537 2.121 . S
Co534 O542 2.055 . S
Co534 O545 2.039 . S
Co534 N548 2.140 . S
C535 O536 1.227 . S
C535 O545 1.265 . S
O536 C535 1.227 . S
N537 Co534 2.121 . S
N537 C539 1.375 . S
N537 C540 1.313 . S
C538 C539 1.338 . S
C538 N541 1.377 . S
C538 H558 0.930 . S
C539 N537 1.375 . S
C539 C538 1.338 . S
C539 H543 0.931 . S
C540 N537 1.313 . S
C540 N541 1.344 . S
C540 H544 0.930 . S
N541 C538 1.377 . S
N541 C540 1.344 . S
O542 Co534 2.055 . S
O542 C546 1.253 . S
H543 C539 0.931 . S
H544 C540 0.930 . S
O545 Co534 2.039 . S
O545 C535 1.265 . S
C546 O542 1.253 . S
C546 O547 1.227 . S
O547 C546 1.227 . S
N548 Co534 2.140 . S
N548 C551 1.346 . S
N548 C552 1.345 . S
C549 C550 1.387 . S
C549 C553 1.391 . S
C550 C549 1.387 . S
C550 C551 1.369 . S
C550 H559 0.929 . S
C551 N548 1.346 . S
C551 C550 1.369 . S
C551 H554 0.928 . S
C552 N548 1.345 . S
C552 C553 1.371 . S
C552 H555 0.931 . S
C553 C549 1.391 . S
C553 C552 1.371 . S
C553 H560 0.930 . S
H554 C551 0.928 . S
H555 C552 0.931 . S
H556 C532 0.930 . S
H557 C529 0.930 1_556 S
H558 C538 0.930 . S
H559 C550 0.929 . S
H560 C553 0.930 . S
C561 C562 1.351 . S
C561 N564 1.368 . S
C561 H566 0.931 . S
C562 C561 1.351 . S
C562 N563 1.373 . S
C562 H590 0.930 1_556 S
N563 C562 1.373 . S
N563 C565 1.340 . S
N564 C561 1.368 . S
N564 C565 1.321 . S
N564 Co567 2.135 . S
C565 N563 1.340 . S
C565 N564 1.321 . S
C565 H589 0.930 . S
H566 C561 0.931 . S
Co567 N564 2.135 . S
Co567 N570 2.121 . S
Co567 O575 2.055 . S
Co567 O578 2.039 . S
Co567 N581 2.140 . S
C568 O569 1.227 . S
C568 O578 1.265 . S
O569 C568 1.227 . S
N570 Co567 2.121 . S
N570 C572 1.375 . S
N570 C573 1.313 . S
C571 C572 1.338 . S
C571 N574 1.377 . S
C571 H591 0.930 . S
C572 N570 1.375 . S
C572 C571 1.338 . S
C572 H576 0.931 . S
C573 N570 1.313 . S
C573 N574 1.344 . S
C573 H577 0.930 . S
N574 C571 1.377 . S
N574 C573 1.344 . S
O575 Co567 2.055 . S
O575 C579 1.253 . S
H576 C572 0.931 . S
H577 C573 0.930 . S
O578 Co567 2.039 . S
O578 C568 1.265 . S
C579 O575 1.253 . S
C579 O580 1.227 . S
O580 C579 1.227 . S
N581 Co567 2.140 . S
N581 C584 1.346 . S
N581 C585 1.345 . S
C582 C583 1.387 . S
C582 C586 1.391 . S
C583 C582 1.387 . S
C583 C584 1.369 . S
C583 H592 0.929 . S
C584 N581 1.346 . S
C584 C583 1.369 . S
C584 H587 0.928 . S
C585 N581 1.345 . S
C585 C586 1.371 . S
C585 H588 0.931 . S
C586 C582 1.391 . S
C586 C585 1.371 . S
C586 H593 0.930 . S
H587 C584 0.928 . S
H588 C585 0.931 . S
H589 C565 0.930 . S
H590 C562 0.930 1_554 S
H591 C571 0.930 . S
H592 C583 0.929 . S
H593 C586 0.930 . S
C594 C595 1.351 . S
C594 N597 1.368 . S
C594 H599 0.931 . S
C595 C594 1.351 . S
C595 N596 1.373 . S
C595 H623 0.930 . S
N596 C595 1.373 . S
N596 C598 1.340 . S
N597 C594 1.368 . S
N597 C598 1.321 . S
N597 Co600 2.135 . S
C598 N596 1.340 . S
C598 N597 1.321 . S
C598 H622 0.930 . S
H599 C594 0.931 . S
Co600 N597 2.135 . S
Co600 N603 2.121 . S
Co600 O608 2.055 . S
Co600 O611 2.039 . S
Co600 N614 2.140 . S
C601 O602 1.227 . S
C601 O611 1.265 . S
O602 C601 1.227 . S
N603 Co600 2.121 . S
N603 C605 1.375 . S
N603 C606 1.313 . S
C604 C605 1.338 . S
C604 N607 1.377 . S
C604 H624 0.930 . S
C605 N603 1.375 . S
C605 C604 1.338 . S
C605 H609 0.931 . S
C606 N603 1.313 . S
C606 N607 1.344 . S
C606 H610 0.930 . S
N607 C604 1.377 . S
N607 C606 1.344 . S
O608 Co600 2.055 . S
O608 C612 1.253 . S
H609 C605 0.931 . S
H610 C606 0.930 . S
O611 Co600 2.039 . S
O611 C601 1.265 . S
C612 O608 1.253 . S
C612 O613 1.227 . S
O613 C612 1.227 . S
N614 Co600 2.140 . S
N614 C617 1.346 . S
N614 C618 1.345 . S
C615 C616 1.387 . S
C615 C619 1.391 . S
C616 C615 1.387 . S
C616 C617 1.369 . S
C616 H625 0.929 . S
C617 N614 1.346 . S
C617 C616 1.369 . S
C617 H620 0.928 . S
C618 N614 1.345 . S
C618 C619 1.371 . S
C618 H621 0.931 . S
C619 C615 1.391 . S
C619 C618 1.371 . S
C619 H626 0.930 . S
H620 C617 0.928 . S
H621 C618 0.931 . S
H622 C598 0.930 . S
H623 C595 0.930 . S
H624 C604 0.930 . S
H625 C616 0.929 . S
H626 C619 0.930 . S
C627 C628 1.351 . S
C627 N630 1.368 . S
C627 H632 0.931 . S
C628 C627 1.351 . S
C628 N629 1.373 . S
C628 H656 0.930 1_556 S
N629 C628 1.373 . S
N629 C631 1.340 . S
N630 C627 1.368 . S
N630 C631 1.321 . S
N630 Co633 2.135 . S
C631 N629 1.340 . S
C631 N630 1.321 . S
C631 H655 0.930 . S
H632 C627 0.931 . S
Co633 N630 2.135 . S
Co633 N636 2.121 . S
Co633 O641 2.055 . S
Co633 O644 2.039 . S
Co633 N647 2.140 . S
C634 O635 1.227 . S
C634 O644 1.265 . S
O635 C634 1.227 . S
N636 Co633 2.121 . S
N636 C638 1.375 . S
N636 C639 1.313 . S
C637 C638 1.338 . S
C637 N640 1.377 . S
C637 H657 0.930 . S
C638 N636 1.375 . S
C638 C637 1.338 . S
C638 H642 0.931 . S
C639 N636 1.313 . S
C639 N640 1.344 . S
C639 H643 0.930 . S
N640 C637 1.377 . S
N640 C639 1.344 . S
O641 Co633 2.055 . S
O641 C645 1.253 . S
H642 C638 0.931 . S
H643 C639 0.930 . S
O644 Co633 2.039 . S
O644 C634 1.265 . S
C645 O641 1.253 . S
C645 O646 1.227 . S
O646 C645 1.227 . S
N647 Co633 2.140 . S
N647 C650 1.346 . S
N647 C651 1.345 . S
C648 C649 1.387 . S
C648 C652 1.391 . S
C649 C648 1.387 . S
C649 C650 1.369 . S
C649 H658 0.929 . S
C650 N647 1.346 . S
C650 C649 1.369 . S
C650 H653 0.928 . S
C651 N647 1.345 . S
C651 C652 1.371 . S
C651 H654 0.931 . S
C652 C648 1.391 . S
C652 C651 1.371 . S
C652 H659 0.930 . S
H653 C650 0.928 . S
H654 C651 0.931 . S
H655 C631 0.930 . S
H656 C628 0.930 1_554 S
H657 C637 0.930 . S
H658 C649 0.929 . S
H659 C652 0.930 . S
C660 C661 1.351 . S
C660 N663 1.368 . S
C660 H665 0.931 . S
C661 C660 1.351 . S
C661 N662 1.373 . S
C661 H689 0.930 . S
N662 C661 1.373 . S
N662 C664 1.340 . S
N663 C660 1.368 . S
N663 C664 1.321 . S
N663 Co666 2.135 . S
C664 N662 1.340 . S
C664 N663 1.321 . S
C664 H688 0.930 . S
H665 C660 0.931 . S
Co666 N663 2.135 . S
Co666 N669 2.121 . S
Co666 O674 2.055 . S
Co666 O677 2.039 . S
Co666 N680 2.140 . S
C667 O668 1.227 . S
C667 O677 1.265 . S
O668 C667 1.227 . S
N669 Co666 2.121 . S
N669 C671 1.375 . S
N669 C672 1.313 . S
C670 C671 1.338 . S
C670 N673 1.377 . S
C670 H690 0.930 . S
C671 N669 1.375 . S
C671 C670 1.338 . S
C671 H675 0.931 . S
C672 N669 1.313 . S
C672 N673 1.344 . S
C672 H676 0.930 . S
N673 C670 1.377 . S
N673 C672 1.344 . S
O674 Co666 2.055 . S
O674 C678 1.253 . S
H675 C671 0.931 . S
H676 C672 0.930 . S
O677 Co666 2.039 . S
O677 C667 1.265 . S
C678 O674 1.253 . S
C678 O679 1.227 . S
O679 C678 1.227 . S
N680 Co666 2.140 . S
N680 C683 1.346 . S
N680 C684 1.345 . S
C681 C682 1.387 . S
C681 C685 1.391 . S
C682 C681 1.387 . S
C682 C683 1.369 . S
C682 H691 0.929 . S
C683 N680 1.346 . S
C683 C682 1.369 . S
C683 H686 0.928 . S
C684 N680 1.345 . S
C684 C685 1.371 . S
C684 H687 0.931 . S
C685 C681 1.391 . S
C685 C684 1.371 . S
C685 H692 0.930 . S
H686 C683 0.928 . S
H687 C684 0.931 . S
H688 C664 0.930 . S
H689 C661 0.930 . S
H690 C670 0.930 . S
H691 C682 0.929 . S
H692 C685 0.930 . S
C693 C694 1.351 . S
C693 N696 1.368 . S
C693 H698 0.931 . S
C694 C693 1.351 . S
C694 N695 1.373 . S
C694 H722 0.930 1_554 S
N695 C694 1.373 . S
N695 C697 1.340 . S
N696 C693 1.368 . S
N696 C697 1.321 . S
N696 Co699 2.135 . S
C697 N695 1.340 . S
C697 N696 1.321 . S
C697 H721 0.930 . S
H698 C693 0.931 . S
Co699 N696 2.135 . S
Co699 N702 2.121 . S
Co699 O707 2.055 . S
Co699 O710 2.039 . S
Co699 N713 2.140 . S
C700 O701 1.227 . S
C700 O710 1.265 . S
O701 C700 1.227 . S
N702 Co699 2.121 . S
N702 C704 1.375 . S
N702 C705 1.313 . S
C703 C704 1.338 . S
C703 N706 1.377 . S
C703 H723 0.930 . S
C704 N702 1.375 . S
C704 C703 1.338 . S
C704 H708 0.931 . S
C705 N702 1.313 . S
C705 N706 1.344 . S
C705 H709 0.930 . S
N706 C703 1.377 . S
N706 C705 1.344 . S
O707 Co699 2.055 . S
O707 C711 1.253 . S
H708 C704 0.931 . S
H709 C705 0.930 . S
O710 Co699 2.039 . S
O710 C700 1.265 . S
C711 O707 1.253 . S
C711 O712 1.227 . S
O712 C711 1.227 . S
N713 Co699 2.140 . S
N713 C716 1.346 . S
N713 C717 1.345 . S
C714 C715 1.387 . S
C714 C718 1.391 . S
C715 C714 1.387 . S
C715 C716 1.369 . S
C715 H724 0.929 . S
C716 N713 1.346 . S
C716 C715 1.369 . S
C716 H719 0.928 . S
C717 N713 1.345 . S
C717 C718 1.371 . S
C717 H720 0.931 . S
C718 C714 1.391 . S
C718 C717 1.371 . S
C718 H725 0.930 . S
H719 C716 0.928 . S
H720 C717 0.931 . S
H721 C697 0.930 . S
H722 C694 0.930 1_556 S
H723 C703 0.930 . S
H724 C715 0.929 . S
H725 C718 0.930 . S
C726 C727 1.351 . S
C726 N729 1.368 . S
C726 H731 0.931 . S
C727 C726 1.351 . S
C727 N728 1.373 . S
C727 H755 0.930 . S
N728 C727 1.373 . S
N728 C730 1.340 . S
N729 C726 1.368 . S
N729 C730 1.321 . S
N729 Co732 2.135 . S
C730 N728 1.340 . S
C730 N729 1.321 . S
C730 H754 0.930 . S
H731 C726 0.931 . S
Co732 N729 2.135 . S
Co732 N735 2.121 . S
Co732 O740 2.055 . S
Co732 O743 2.039 . S
Co732 N746 2.140 . S
C733 O734 1.227 . S
C733 O743 1.265 . S
O734 C733 1.227 . S
N735 Co732 2.121 . S
N735 C737 1.375 . S
N735 C738 1.313 . S
C736 C737 1.338 . S
C736 N739 1.377 . S
C736 H756 0.930 . S
C737 N735 1.375 . S
C737 C736 1.338 . S
C737 H741 0.931 . S
C738 N735 1.313 . S
C738 N739 1.344 . S
C738 H742 0.930 . S
N739 C736 1.377 . S
N739 C738 1.344 . S
O740 Co732 2.055 . S
O740 C744 1.253 . S
H741 C737 0.931 . S
H742 C738 0.930 . S
O743 Co732 2.039 . S
O743 C733 1.265 . S
C744 O740 1.253 . S
C744 O745 1.227 . S
O745 C744 1.227 . S
N746 Co732 2.140 . S
N746 C749 1.346 . S
N746 C750 1.345 . S
C747 C748 1.387 . S
C747 C751 1.391 . S
C748 C747 1.387 . S
C748 C749 1.369 . S
C748 H757 0.929 . S
C749 N746 1.346 . S
C749 C748 1.369 . S
C749 H752 0.928 . S
C750 N746 1.345 . S
C750 C751 1.371 . S
C750 H753 0.931 . S
C751 C747 1.391 . S
C751 C750 1.371 . S
C751 H758 0.930 . S
H752 C749 0.928 . S
H753 C750 0.931 . S
H754 C730 0.930 . S
H755 C727 0.930 . S
H756 C736 0.930 . S
H757 C748 0.929 . S
H758 C751 0.930 . S
C759 C760 1.351 . S
C759 N762 1.368 . S
C759 H764 0.931 . S
C760 C759 1.351 . S
C760 N761 1.373 . S
C760 H788 0.930 . S
N761 C760 1.373 . S
N761 C763 1.340 . S
N762 C759 1.368 . S
N762 C763 1.321 . S
N762 Co765 2.135 . S
C763 N761 1.340 . S
C763 N762 1.321 . S
C763 H787 0.930 . S
H764 C759 0.931 . S
Co765 N762 2.135 . S
Co765 N768 2.121 . S
Co765 O773 2.055 . S
Co765 O776 2.039 . S
Co765 N779 2.140 . S
C766 O767 1.227 . S
C766 O776 1.265 . S
O767 C766 1.227 . S
N768 Co765 2.121 . S
N768 C770 1.375 . S
N768 C771 1.313 . S
C769 C770 1.338 . S
C769 N772 1.377 . S
C769 H789 0.930 . S
C770 N768 1.375 . S
C770 C769 1.338 . S
C770 H774 0.931 . S
C771 N768 1.313 . S
C771 N772 1.344 . S
C771 H775 0.930 . S
N772 C769 1.377 . S
N772 C771 1.344 . S
O773 Co765 2.055 . S
O773 C777 1.253 . S
H774 C770 0.931 . S
H775 C771 0.930 . S
O776 Co765 2.039 . S
O776 C766 1.265 . S
C777 O773 1.253 . S
C777 O778 1.227 . S
O778 C777 1.227 . S
N779 Co765 2.140 . S
N779 C782 1.346 . S
N779 C783 1.345 . S
C780 C781 1.387 . S
C780 C784 1.391 . S
C781 C780 1.387 . S
C781 C782 1.369 . S
C781 H790 0.929 . S
C782 N779 1.346 . S
C782 C781 1.369 . S
C782 H785 0.928 . S
C783 N779 1.345 . S
C783 C784 1.371 . S
C783 H786 0.931 . S
C784 C780 1.391 . S
C784 C783 1.371 . S
C784 H791 0.930 . S
H785 C782 0.928 . S
H786 C783 0.931 . S
H787 C763 0.930 . S
H788 C760 0.930 . S
H789 C769 0.930 . S
H790 C781 0.929 . S
H791 C784 0.930 . S
H792 C800 0.950 . S
H793 C805 0.950 . S
H794 C802 0.950 . S
H795 C804 0.950 . S
H796 C806 0.950 . S
H797 C808 0.950 . S
H798 C810 0.950 . S
H799 C811 0.950 . S
C800 H792 0.950 . S
C800 C801 1.386 . S
C800 C802 1.391 . S
C801 C800 1.386 . S
C801 C805 1.393 . S
C802 H794 0.950 . S
C802 C800 1.391 . S
C802 C803 1.400 . S
C803 C802 1.400 . S
C803 C804 1.398 . S
C803 C809 1.491 . S
C804 H795 0.950 . S
C804 C803 1.398 . S
C804 C805 1.391 . S
C805 H793 0.950 . S
C805 C801 1.393 . S
C805 C804 1.391 . S
C806 H796 0.950 . S
C806 C807 1.386 . S
C806 C808 1.391 . S
C807 C806 1.386 . S
C807 C811 1.393 . S
C808 H797 0.950 . S
C808 C806 1.391 . S
C808 C809 1.400 . S
C809 C803 1.491 . S
C809 C808 1.400 . S
C809 C810 1.398 . S
C810 H798 0.950 . S
C810 C809 1.398 . S
C810 C811 1.391 . S
C811 H799 0.950 . S
C811 C807 1.393 . S
C811 C810 1.391 . S
H812 C820 0.950 1_455 S
H813 C825 0.950 . S
H814 C822 0.950 . S
H815 C824 0.950 . S
H816 C826 0.950 . S
H817 C828 0.950 . S
H818 C830 0.950 . S
H819 C831 0.950 . S
C820 H812 0.950 1_655 S
C820 C821 1.386 . S
C820 C822 1.391 . S
C821 C820 1.386 . S
C821 C825 1.393 . S
C822 H814 0.950 . S
C822 C820 1.391 . S
C822 C823 1.400 . S
C823 C822 1.400 . S
C823 C824 1.398 . S
C823 C829 1.491 . S
C824 H815 0.950 . S
C824 C823 1.398 . S
C824 C825 1.391 . S
C825 H813 0.950 . S
C825 C821 1.393 . S
C825 C824 1.391 . S
C826 H816 0.950 . S
C826 C827 1.386 . S
C826 C828 1.391 . S
C827 C826 1.386 . S
C827 C831 1.393 . S
C828 H817 0.950 . S
C828 C826 1.391 . S
C828 C829 1.400 . S
C829 C823 1.491 . S
C829 C828 1.400 . S
C829 C830 1.398 . S
C830 H818 0.950 . S
C830 C829 1.398 . S
C830 C831 1.391 . S
C831 H819 0.950 . S
C831 C827 1.393 . S
C831 C830 1.391 . S
H832 C840 0.950 . S
H833 C845 0.950 . S
H834 C842 0.950 . S
H835 C844 0.950 . S
H836 C846 0.950 . S
H837 C848 0.950 . S
H838 C850 0.950 . S
H839 C851 0.950 . S
C840 H832 0.950 . S
C840 C841 1.386 . S
C840 C842 1.391 . S
C841 C840 1.386 . S
C841 C845 1.393 . S
C842 H834 0.950 . S
C842 C840 1.391 . S
C842 C843 1.400 . S
C843 C842 1.400 . S
C843 C844 1.398 . S
C843 C849 1.491 . S
C844 H835 0.950 . S
C844 C843 1.398 . S
C844 C845 1.391 . S
C845 H833 0.950 . S
C845 C841 1.393 . S
C845 C844 1.391 . S
C846 H836 0.950 . S
C846 C847 1.386 . S
C846 C848 1.391 . S
C847 C846 1.386 . S
C847 C851 1.393 . S
C848 H837 0.950 . S
C848 C846 1.391 . S
C848 C849 1.400 . S
C849 C843 1.491 . S
C849 C848 1.400 . S
C849 C850 1.398 . S
C850 H838 0.950 . S
C850 C849 1.398 . S
C850 C851 1.391 . S
C851 H839 0.950 . S
C851 C847 1.393 . S
C851 C850 1.391 . S
H852 C860 0.950 . S
H853 C865 0.950 . S
H854 C862 0.950 . S
H855 C864 0.950 . S
H856 C866 0.950 . S
H857 C868 0.950 . S
H858 C870 0.950 . S
H859 C871 0.950 1_655 S
C860 H852 0.950 . S
C860 C861 1.386 . S
C860 C862 1.391 . S
C861 C860 1.386 . S
C861 C865 1.393 . S
C862 H854 0.950 . S
C862 C860 1.391 . S
C862 C863 1.400 . S
C863 C862 1.400 . S
C863 C864 1.398 . S
C863 C869 1.491 . S
C864 H855 0.950 . S
C864 C863 1.398 . S
C864 C865 1.391 . S
C865 H853 0.950 . S
C865 C861 1.393 . S
C865 C864 1.391 . S
C866 H856 0.950 . S
C866 C867 1.386 . S
C866 C868 1.391 . S
C867 C866 1.386 . S
C867 C871 1.393 . S
C868 H857 0.950 . S
C868 C866 1.391 . S
C868 C869 1.400 . S
C869 C863 1.491 . S
C869 C868 1.400 . S
C869 C870 1.398 . S
C870 H858 0.950 . S
C870 C869 1.398 . S
C870 C871 1.391 . S
C871 H859 0.950 1_455 S
C871 C867 1.393 . S
C871 C870 1.391 . S
H872 C880 0.950 . S
H873 C885 0.950 . S
H874 C882 0.950 . S
H875 C884 0.950 . S
H876 C886 0.950 . S
H877 C888 0.950 . S
H878 C890 0.950 . S
H879 C891 0.950 . S
C880 H872 0.950 . S
C880 C881 1.386 . S
C880 C882 1.391 . S
C881 C880 1.386 . S
C881 C885 1.393 . S
C882 H874 0.950 . S
C882 C880 1.391 . S
C882 C883 1.400 . S
C883 C882 1.400 . S
C883 C884 1.398 . S
C883 C889 1.491 . S
C884 H875 0.950 . S
C884 C883 1.398 . S
C884 C885 1.391 . S
C885 H873 0.950 . S
C885 C881 1.393 . S
C885 C884 1.391 . S
C886 H876 0.950 . S
C886 C887 1.386 . S
C886 C888 1.391 . S
C887 C886 1.386 . S
C887 C891 1.393 . S
C888 H877 0.950 . S
C888 C886 1.391 . S
C888 C889 1.400 . S
C889 C883 1.491 . S
C889 C888 1.400 . S
C889 C890 1.398 . S
C890 H878 0.950 . S
C890 C889 1.398 . S
C890 C891 1.391 . S
C891 H879 0.950 . S
C891 C887 1.393 . S
C891 C890 1.391 . S
H892 C900 0.950 . S
H893 C905 0.950 1_655 S
H894 C902 0.950 . S
H895 C904 0.950 . S
H896 C906 0.950 . S
H897 C908 0.950 . S
H898 C910 0.950 . S
H899 C911 0.950 . S
C900 H892 0.950 . S
C900 C901 1.386 . S
C900 C902 1.391 . S
C901 C900 1.386 . S
C901 C905 1.393 . S
C902 H894 0.950 . S
C902 C900 1.391 . S
C902 C903 1.400 . S
C903 C902 1.400 . S
C903 C904 1.398 . S
C903 C909 1.491 . S
C904 H895 0.950 . S
C904 C903 1.398 . S
C904 C905 1.391 . S
C905 H893 0.950 1_455 S
C905 C901 1.393 . S
C905 C904 1.391 . S
C906 H896 0.950 . S
C906 C907 1.386 . S
C906 C908 1.391 . S
C907 C906 1.386 . S
C907 C911 1.393 . S
C908 H897 0.950 . S
C908 C906 1.391 . S
C908 C909 1.400 . S
C909 C903 1.491 . S
C909 C908 1.400 . S
C909 C910 1.398 . S
C910 H898 0.950 . S
C910 C909 1.398 . S
C910 C911 1.391 . S
C911 H899 0.950 . S
C911 C907 1.393 . S
C911 C910 1.391 . S
H912 C920 0.950 . S
H913 C925 0.950 . S
H914 C922 0.950 . S
H915 C924 0.950 . S
H916 C926 0.950 . S
H917 C928 0.950 . S
H918 C930 0.950 . S
H919 C931 0.950 . S
C920 H912 0.950 . S
C920 C921 1.386 . S
C920 C922 1.391 . S
C921 C920 1.386 . S
C921 C925 1.393 . S
C922 H914 0.950 . S
C922 C920 1.391 . S
C922 C923 1.400 . S
C923 C922 1.400 . S
C923 C924 1.398 . S
C923 C929 1.491 . S
C924 H915 0.950 . S
C924 C923 1.398 . S
C924 C925 1.391 . S
C925 H913 0.950 . S
C925 C921 1.393 . S
C925 C924 1.391 . S
C926 H916 0.950 . S
C926 C927 1.386 . S
C926 C928 1.391 . S
C927 C926 1.386 . S
C927 C931 1.393 . S
C928 H917 0.950 . S
C928 C926 1.391 . S
C928 C929 1.400 . S
C929 C923 1.491 . S
C929 C928 1.400 . S
C929 C930 1.398 . S
C930 H918 0.950 . S
C930 C929 1.398 . S
C930 C931 1.391 . S
C931 H919 0.950 . S
C931 C927 1.393 . S
C931 C930 1.391 . S
H932 C940 0.950 1_455 S
H933 C945 0.950 . S
H934 C942 0.950 . S
H935 C944 0.950 . S
H936 C946 0.950 . S
H937 C948 0.950 . S
H938 C950 0.950 . S
H939 C951 0.950 . S
C940 H932 0.950 1_655 S
C940 C941 1.386 . S
C940 C942 1.391 . S
C941 C940 1.386 . S
C941 C945 1.393 . S
C942 H934 0.950 . S
C942 C940 1.391 . S
C942 C943 1.400 . S
C943 C942 1.400 . S
C943 C944 1.398 . S
C943 C949 1.491 . S
C944 H935 0.950 . S
C944 C943 1.398 . S
C944 C945 1.391 . S
C945 H933 0.950 . S
C945 C941 1.393 . S
C945 C944 1.391 . S
C946 H936 0.950 . S
C946 C947 1.386 . S
C946 C948 1.391 . S
C947 C946 1.386 . S
C947 C951 1.393 . S
C948 H937 0.950 . S
C948 C946 1.391 . S
C948 C949 1.400 . S
C949 C943 1.491 . S
C949 C948 1.400 . S
C949 C950 1.398 . S
C950 H938 0.950 . S
C950 C949 1.398 . S
C950 C951 1.391 . S
C951 H939 0.950 . S
C951 C947 1.393 . S
C951 C950 1.391 . S
H952 C960 0.950 . S
H953 C965 0.950 . S
H954 C962 0.950 . S
H955 C964 0.950 . S
H956 C966 0.950 . S
H957 C968 0.950 . S
H958 C970 0.950 . S
H959 C971 0.950 . S
C960 H952 0.950 . S
C960 C961 1.386 . S
C960 C962 1.391 . S
C961 C960 1.386 . S
C961 C965 1.393 . S
C962 H954 0.950 . S
C962 C960 1.391 . S
C962 C963 1.400 . S
C963 C962 1.400 . S
C963 C964 1.398 . S
C963 C969 1.491 . S
C964 H955 0.950 . S
C964 C963 1.398 . S
C964 C965 1.391 . S
C965 H953 0.950 . S
C965 C961 1.393 . S
C965 C964 1.391 . S
C966 H956 0.950 . S
C966 C967 1.386 . S
C966 C968 1.391 . S
C967 C966 1.386 . S
C967 C971 1.393 . S
C968 H957 0.950 . S
C968 C966 1.391 . S
C968 C969 1.400 . S
C969 C963 1.491 . S
C969 C968 1.400 . S
C969 C970 1.398 . S
C970 H958 0.950 . S
C970 C969 1.398 . S
C970 C971 1.391 . S
C971 H959 0.950 . S
C971 C967 1.393 . S
C971 C970 1.391 . S
H972 C980 0.950 . S
H973 C985 0.950 . S
H974 C982 0.950 . S
H975 C984 0.950 . S
H976 C986 0.950 1_556 S
H977 C988 0.950 . S
H978 C990 0.950 . S
H979 C991 0.950 . S
C980 H972 0.950 . S
C980 C981 1.386 . S
C980 C982 1.391 . S
C981 C980 1.386 . S
C981 C985 1.393 . S
C982 H974 0.950 . S
C982 C980 1.391 . S
C982 C983 1.400 . S
C983 C982 1.400 . S
C983 C984 1.398 . S
C983 C989 1.491 . S
C984 H975 0.950 . S
C984 C983 1.398 . S
C984 C985 1.391 . S
C985 H973 0.950 . S
C985 C981 1.393 . S
C985 C984 1.391 . S
C986 H976 0.950 1_554 S
C986 C987 1.386 . S
C986 C988 1.391 . S
C987 C986 1.386 . S
C987 C991 1.393 . S
C988 H977 0.950 . S
C988 C986 1.391 . S
C988 C989 1.400 . S
C989 C983 1.491 . S
C989 C988 1.400 . S
C989 C990 1.398 . S
C990 H978 0.950 . S
C990 C989 1.398 . S
C990 C991 1.391 . S
C991 H979 0.950 . S
C991 C987 1.393 . S
C991 C990 1.391 . S
H992 C1000 0.950 . S
H993 C1005 0.950 . S
H994 C1002 0.950 . S
H995 C1004 0.950 . S
H996 C1006 0.950 . S
H997 C1008 0.950 . S
H998 C1010 0.950 . S
H999 C1011 0.950 . S
C1000 H992 0.950 . S
C1000 C1001 1.386 . S
C1000 C1002 1.391 . S
C1001 C1000 1.386 . S
C1001 C1005 1.393 . S
C1002 H994 0.950 . S
C1002 C1000 1.391 . S
C1002 C1003 1.400 . S
C1003 C1002 1.400 . S
C1003 C1004 1.398 . S
C1003 C1009 1.491 . S
C1004 H995 0.950 . S
C1004 C1003 1.398 . S
C1004 C1005 1.391 . S
C1005 H993 0.950 . S
C1005 C1001 1.393 . S
C1005 C1004 1.391 . S
C1006 H996 0.950 . S
C1006 C1007 1.386 . S
C1006 C1008 1.391 . S
C1007 C1006 1.386 . S
C1007 C1011 1.393 . S
C1008 H997 0.950 . S
C1008 C1006 1.391 . S
C1008 C1009 1.400 . S
C1009 C1003 1.491 . S
C1009 C1008 1.400 . S
C1009 C1010 1.398 . S
C1010 H998 0.950 . S
C1010 C1009 1.398 . S
C1010 C1011 1.391 . S
C1011 H999 0.950 . S
C1011 C1007 1.393 . S
C1011 C1010 1.391 . S
H1012 C1020 0.950 . S
H1013 C1025 0.950 1_556 S
H1014 C1022 0.950 . S
H1015 C1024 0.950 . S
H1016 C1026 0.950 . S
H1017 C1028 0.950 . S
H1018 C1030 0.950 . S
H1019 C1031 0.950 . S
C1020 H1012 0.950 . S
C1020 C1021 1.386 . S
C1020 C1022 1.391 . S
C1021 C1020 1.386 . S
C1021 C1025 1.393 . S
C1022 H1014 0.950 . S
C1022 C1020 1.391 . S
C1022 C1023 1.400 . S
C1023 C1022 1.400 . S
C1023 C1024 1.398 . S
C1023 C1029 1.491 . S
C1024 H1015 0.950 . S
C1024 C1023 1.398 . S
C1024 C1025 1.391 . S
C1025 H1013 0.950 1_554 S
C1025 C1021 1.393 . S
C1025 C1024 1.391 . S
C1026 H1016 0.950 . S
C1026 C1027 1.386 . S
C1026 C1028 1.391 . S
C1027 C1026 1.386 . S
C1027 C1031 1.393 . S
C1028 H1017 0.950 . S
C1028 C1026 1.391 . S
C1028 C1029 1.400 . S
C1029 C1023 1.491 . S
C1029 C1028 1.400 . S
C1029 C1030 1.398 . S
C1030 H1018 0.950 . S
C1030 C1029 1.398 . S
C1030 C1031 1.391 . S
C1031 H1019 0.950 . S
C1031 C1027 1.393 . S
C1031 C1030 1.391 . S
H1032 C1040 0.950 . S
H1033 C1045 0.950 . S
H1034 C1042 0.950 . S
H1035 C1044 0.950 . S
H1036 C1046 0.950 . S
H1037 C1048 0.950 . S
H1038 C1050 0.950 . S
H1039 C1051 0.950 . S
C1040 H1032 0.950 . S
C1040 C1041 1.386 . S
C1040 C1042 1.391 . S
C1041 C1040 1.386 . S
C1041 C1045 1.393 . S
C1042 H1034 0.950 . S
C1042 C1040 1.391 . S
C1042 C1043 1.400 . S
C1043 C1042 1.400 . S
C1043 C1044 1.398 . S
C1043 C1049 1.491 . S
C1044 H1035 0.950 . S
C1044 C1043 1.398 . S
C1044 C1045 1.391 . S
C1045 H1033 0.950 . S
C1045 C1041 1.393 . S
C1045 C1044 1.391 . S
C1046 H1036 0.950 . S
C1046 C1047 1.386 . S
C1046 C1048 1.391 . S
C1047 C1046 1.386 . S
C1047 C1051 1.393 . S
C1048 H1037 0.950 . S
C1048 C1046 1.391 . S
C1048 C1049 1.400 . S
C1049 C1043 1.491 . S
C1049 C1048 1.400 . S
C1049 C1050 1.398 . S
C1050 H1038 0.950 . S
C1050 C1049 1.398 . S
C1050 C1051 1.391 . S
C1051 H1039 0.950 . S
C1051 C1047 1.393 . S
C1051 C1050 1.391 . S
H1052 C1060 0.950 . S
H1053 C1065 0.950 . S
H1054 C1062 0.950 . S
H1055 C1064 0.950 . S
H1056 C1066 0.950 1_554 S
H1057 C1068 0.950 . S
H1058 C1070 0.950 . S
H1059 C1071 0.950 . S
C1060 H1052 0.950 . S
C1060 C1061 1.386 . S
C1060 C1062 1.391 . S
C1061 C1060 1.386 . S
C1061 C1065 1.393 . S
C1062 H1054 0.950 . S
C1062 C1060 1.391 . S
C1062 C1063 1.400 . S
C1063 C1062 1.400 . S
C1063 C1064 1.398 . S
C1063 C1069 1.491 . S
C1064 H1055 0.950 . S
C1064 C1063 1.398 . S
C1064 C1065 1.391 . S
C1065 H1053 0.950 . S
C1065 C1061 1.393 . S
C1065 C1064 1.391 . S
C1066 H1056 0.950 1_556 S
C1066 C1067 1.386 . S
C1066 C1068 1.391 . S
C1067 C1066 1.386 . S
C1067 C1071 1.393 . S
C1068 H1057 0.950 . S
C1068 C1066 1.391 . S
C1068 C1069 1.400 . S
C1069 C1063 1.491 . S
C1069 C1068 1.400 . S
C1069 C1070 1.398 . S
C1070 H1058 0.950 . S
C1070 C1069 1.398 . S
C1070 C1071 1.391 . S
C1071 H1059 0.950 . S
C1071 C1067 1.393 . S
C1071 C1070 1.391 . S
H1072 C1080 0.950 . S
H1073 C1085 0.950 . S
H1074 C1082 0.950 . S
H1075 C1084 0.950 . S
H1076 C1086 0.950 . S
H1077 C1088 0.950 . S
H1078 C1090 0.950 . S
H1079 C1091 0.950 . S
C1080 H1072 0.950 . S
C1080 C1081 1.386 . S
C1080 C1082 1.391 . S
C1081 C1080 1.386 . S
C1081 C1085 1.393 . S
C1082 H1074 0.950 . S
C1082 C1080 1.391 . S
C1082 C1083 1.400 . S
C1083 C1082 1.400 . S
C1083 C1084 1.398 . S
C1083 C1089 1.491 . S
C1084 H1075 0.950 . S
C1084 C1083 1.398 . S
C1084 C1085 1.391 . S
C1085 H1073 0.950 . S
C1085 C1081 1.393 . S
C1085 C1084 1.391 . S
C1086 H1076 0.950 . S
C1086 C1087 1.386 . S
C1086 C1088 1.391 . S
C1087 C1086 1.386 . S
C1087 C1091 1.393 . S
C1088 H1077 0.950 . S
C1088 C1086 1.391 . S
C1088 C1089 1.400 . S
C1089 C1083 1.491 . S
C1089 C1088 1.400 . S
C1089 C1090 1.398 . S
C1090 H1078 0.950 . S
C1090 C1089 1.398 . S
C1090 C1091 1.391 . S
C1091 H1079 0.950 . S
C1091 C1087 1.393 . S
C1091 C1090 1.391 . S
H1092 C1100 0.950 . S
H1093 C1105 0.905 1_554 S
H1094 C1102 0.950 . S
H1095 C1104 0.950 . S
H1096 C1106 0.950 . S
H1097 C1108 0.950 . S
H1098 C1110 0.950 . S
H1099 C1111 0.950 . S
C1100 H1092 0.950 . S
C1100 C1101 1.386 . S
C1100 C1102 1.391 . S
C1101 C1100 1.386 . S
C1101 C1105 1.404 . S
C1102 H1094 0.950 . S
C1102 C1100 1.391 . S
C1102 C1103 1.400 . S
C1103 C1102 1.400 . S
C1103 C1104 1.398 . S
C1103 C1109 1.491 . S
C1104 H1095 0.950 . S
C1104 C1103 1.398 . S
C1104 C1105 1.425 . S
C1105 H1093 0.905 1_556 S
C1105 C1101 1.404 . S
C1105 C1104 1.425 . S
C1106 H1096 0.950 . S
C1106 C1107 1.386 . S
C1106 C1108 1.391 . S
C1107 C1106 1.386 . S
C1107 C1111 1.393 . S
C1108 H1097 0.950 . S
C1108 C1106 1.391 . S
C1108 C1109 1.400 . S
C1109 C1103 1.491 . S
C1109 C1108 1.400 . S
C1109 C1110 1.398 . S
C1110 H1098 0.950 . S
C1110 C1109 1.398 . S
C1110 C1111 1.391 . S
C1111 H1099 0.950 . S
C1111 C1107 1.393 . S
C1111 C1110 1.391 . S
H1112 C1120 0.950 . S
H1113 C1125 0.950 . S
H1114 C1122 0.950 . S
H1115 C1124 0.950 . S
H1116 C1126 0.950 . S
H1117 C1128 0.950 . S
H1118 C1130 0.950 . S
H1119 C1131 0.950 . S
C1120 H1112 0.950 . S
C1120 C1121 1.386 . S
C1120 C1122 1.391 . S
C1121 C1120 1.386 . S
C1121 C1125 1.393 . S
C1122 H1114 0.950 . S
C1122 C1120 1.391 . S
C1122 C1123 1.400 . S
C1123 C1122 1.400 . S
C1123 C1124 1.398 . S
C1123 C1129 1.491 . S
C1124 H1115 0.950 . S
C1124 C1123 1.398 . S
C1124 C1125 1.391 . S
C1125 H1113 0.950 . S
C1125 C1121 1.393 . S
C1125 C1124 1.391 . S
C1126 H1116 0.950 . S
C1126 C1127 1.386 . S
C1126 C1128 1.391 . S
C1127 C1126 1.386 . S
C1127 C1131 1.393 . S
C1128 H1117 0.950 . S
C1128 C1126 1.391 . S
C1128 C1129 1.400 . S
C1129 C1123 1.491 . S
C1129 C1128 1.400 . S
C1129 C1130 1.398 . S
C1130 H1118 0.950 . S
C1130 C1129 1.398 . S
C1130 C1131 1.391 . S
C1131 H1119 0.950 . S
C1131 C1127 1.393 . S
C1131 C1130 1.391 . S
H1132 C1140 0.950 . S
H1133 C1145 0.950 . S
H1134 C1142 0.950 . S
H1135 C1144 0.950 . S
H1136 C1146 0.950 . S
H1137 C1148 0.950 . S
H1138 C1150 0.950 . S
H1139 C1151 0.950 . S
C1140 H1132 0.950 . S
C1140 C1141 1.386 . S
C1140 C1142 1.391 . S
C1141 C1140 1.386 . S
C1141 C1145 1.393 . S
C1142 H1134 0.950 . S
C1142 C1140 1.391 . S
C1142 C1143 1.400 . S
C1143 C1142 1.400 . S
C1143 C1144 1.398 . S
C1143 C1149 1.491 . S
C1144 H1135 0.950 . S
C1144 C1143 1.398 . S
C1144 C1145 1.391 . S
C1145 H1133 0.950 . S
C1145 C1141 1.393 . S
C1145 C1144 1.391 . S
C1146 H1136 0.950 . S
C1146 C1147 1.386 . S
C1146 C1148 1.391 . S
C1147 C1146 1.386 . S
C1147 C1151 1.393 . S
C1148 H1137 0.950 . S
C1148 C1146 1.391 . S
C1148 C1149 1.400 . S
C1149 C1143 1.491 . S
C1149 C1148 1.400 . S
C1149 C1150 1.398 . S
C1150 H1138 0.950 . S
C1150 C1149 1.398 . S
C1150 C1151 1.391 . S
C1151 H1139 0.950 . S
C1151 C1147 1.393 . S
C1151 C1150 1.391 . S
H1152 C1160 0.950 1_565 S
H1153 C1165 0.950 . S
H1154 C1162 0.950 . S
H1155 C1164 0.950 . S
H1156 C1166 0.950 . S
H1157 C1168 0.950 . S
H1158 C1170 0.950 . S
H1159 C1171 0.950 . S
C1160 H1152 0.950 1_545 S
C1160 C1161 1.386 . S
C1160 C1162 1.391 . S
C1161 C1160 1.386 . S
C1161 C1165 1.393 . S
C1162 H1154 0.950 . S
C1162 C1160 1.391 . S
C1162 C1163 1.400 . S
C1163 C1162 1.400 . S
C1163 C1164 1.398 . S
C1163 C1169 1.491 . S
C1164 H1155 0.950 . S
C1164 C1163 1.398 . S
C1164 C1165 1.391 . S
C1165 H1153 0.950 . S
C1165 C1161 1.393 . S
C1165 C1164 1.391 . S
C1166 H1156 0.950 . S
C1166 C1167 1.386 . S
C1166 C1168 1.391 . S
C1167 C1166 1.386 . S
C1167 C1171 1.393 . S
C1168 H1157 0.950 . S
C1168 C1166 1.391 . S
C1168 C1169 1.400 . S
C1169 C1163 1.491 . S
C1169 C1168 1.400 . S
C1169 C1170 1.398 . S
C1170 H1158 0.950 . S
C1170 C1169 1.398 . S
C1170 C1171 1.391 . S
C1171 H1159 0.950 . S
C1171 C1167 1.393 . S
C1171 C1170 1.391 . S
H1172 C1180 0.950 . S
H1173 C1185 0.950 . S
H1174 C1182 0.950 . S
H1175 C1184 0.950 . S
H1176 C1186 0.950 . S
H1177 C1188 0.950 . S
H1178 C1190 0.950 . S
H1179 C1191 0.950 . S
C1180 H1172 0.950 . S
C1180 C1181 1.386 . S
C1180 C1182 1.391 . S
C1181 C1180 1.386 . S
C1181 C1185 1.393 . S
C1182 H1174 0.950 . S
C1182 C1180 1.391 . S
C1182 C1183 1.400 . S
C1183 C1182 1.400 . S
C1183 C1184 1.398 . S
C1183 C1189 1.491 . S
C1184 H1175 0.950 . S
C1184 C1183 1.398 . S
C1184 C1185 1.391 . S
C1185 H1173 0.950 . S
C1185 C1181 1.393 . S
C1185 C1184 1.391 . S
C1186 H1176 0.950 . S
C1186 C1187 1.386 . S
C1186 C1188 1.391 . S
C1187 C1186 1.386 . S
C1187 C1191 1.393 . S
C1188 H1177 0.950 . S
C1188 C1186 1.391 . S
C1188 C1189 1.400 . S
C1189 C1183 1.491 . S
C1189 C1188 1.400 . S
C1189 C1190 1.398 . S
C1190 H1178 0.950 . S
C1190 C1189 1.398 . S
C1190 C1191 1.391 . S
C1191 H1179 0.950 . S
C1191 C1187 1.393 . S
C1191 C1190 1.391 . S
H1192 C1200 0.950 . S
H1193 C1205 0.906 1_545 S
H1194 C1202 0.950 . S
H1195 C1204 0.950 . S
H1196 C1206 0.950 . S
H1197 C1208 0.950 . S
H1198 C1210 0.950 . S
H1199 C1211 0.950 . S
C1200 H1192 0.950 . S
C1200 C1201 1.386 . S
C1200 C1202 1.391 . S
C1201 C1200 1.386 . S
C1201 C1205 1.403 . S
C1202 H1194 0.950 . S
C1202 C1200 1.391 . S
C1202 C1203 1.400 . S
C1203 C1202 1.400 . S
C1203 C1204 1.398 . S
C1203 C1209 1.491 . S
C1204 H1195 0.950 . S
C1204 C1203 1.398 . S
C1204 C1205 1.425 . S
C1205 H1193 0.906 1_565 S
C1205 C1201 1.403 . S
C1205 C1204 1.425 . S
C1206 H1196 0.950 . S
C1206 C1207 1.386 . S
C1206 C1208 1.391 . S
C1207 C1206 1.386 . S
C1207 C1211 1.393 . S
C1208 H1197 0.950 . S
C1208 C1206 1.391 . S
C1208 C1209 1.400 . S
C1209 C1203 1.491 . S
C1209 C1208 1.400 . S
C1209 C1210 1.398 . S
C1210 H1198 0.950 . S
C1210 C1209 1.398 . S
C1210 C1211 1.391 . S
C1211 H1199 0.950 . S
C1211 C1207 1.393 . S
C1211 C1210 1.391 . S
H1212 C1220 0.950 . S
H1213 C1225 0.950 . S
H1214 C1222 0.950 . S
H1215 C1224 0.950 . S
H1216 C1226 0.950 . S
H1217 C1228 0.950 . S
H1218 C1230 0.950 . S
H1219 C1231 0.950 . S
C1220 H1212 0.950 . S
C1220 C1221 1.386 . S
C1220 C1222 1.391 . S
C1221 C1220 1.386 . S
C1221 C1225 1.393 . S
C1222 H1214 0.950 . S
C1222 C1220 1.391 . S
C1222 C1223 1.400 . S
C1223 C1222 1.400 . S
C1223 C1224 1.398 . S
C1223 C1229 1.491 . S
C1224 H1215 0.950 . S
C1224 C1223 1.398 . S
C1224 C1225 1.391 . S
C1225 H1213 0.950 . S
C1225 C1221 1.393 . S
C1225 C1224 1.391 . S
C1226 H1216 0.950 . S
C1226 C1227 1.386 . S
C1226 C1228 1.391 . S
C1227 C1226 1.386 . S
C1227 C1231 1.393 . S
C1228 H1217 0.950 . S
C1228 C1226 1.391 . S
C1228 C1229 1.400 . S
C1229 C1223 1.491 . S
C1229 C1228 1.400 . S
C1229 C1230 1.398 . S
C1230 H1218 0.950 . S
C1230 C1229 1.398 . S
C1230 C1231 1.391 . S
C1231 H1219 0.950 . S
C1231 C1227 1.393 . S
C1231 C1230 1.391 . S
H1232 C1240 0.950 1_545 S
H1233 C1245 0.950 . S
H1234 C1242 0.950 . S
H1235 C1244 0.950 . S
H1236 C1246 0.950 . S
H1237 C1248 0.950 . S
H1238 C1250 0.950 . S
H1239 C1251 0.950 . S
C1240 H1232 0.950 1_565 S
C1240 C1241 1.386 . S
C1240 C1242 1.391 . S
C1241 C1240 1.386 . S
C1241 C1245 1.393 . S
C1242 H1234 0.950 . S
C1242 C1240 1.391 . S
C1242 C1243 1.400 . S
C1243 C1242 1.400 . S
C1243 C1244 1.398 . S
C1243 C1249 1.491 . S
C1244 H1235 0.950 . S
C1244 C1243 1.398 . S
C1244 C1245 1.391 . S
C1245 H1233 0.950 . S
C1245 C1241 1.393 . S
C1245 C1244 1.391 . S
C1246 H1236 0.950 . S
C1246 C1247 1.386 . S
C1246 C1248 1.391 . S
C1247 C1246 1.386 . S
C1247 C1251 1.393 . S
C1248 H1237 0.950 . S
C1248 C1246 1.391 . S
C1248 C1249 1.400 . S
C1249 C1243 1.491 . S
C1249 C1248 1.400 . S
C1249 C1250 1.398 . S
C1250 H1238 0.950 . S
C1250 C1249 1.398 . S
C1250 C1251 1.391 . S
C1251 H1239 0.950 . S
C1251 C1247 1.393 . S
C1251 C1250 1.391 . S
H1252 C1260 0.950 1_565 S
H1253 C1265 0.950 . S
H1254 C1262 0.950 . S
H1255 C1264 0.950 . S
H1256 C1266 0.950 . S
H1257 C1268 0.950 . S
H1258 C1270 0.950 . S
H1259 C1271 0.950 . S
C1260 H1252 0.950 1_545 S
C1260 C1261 1.386 . S
C1260 C1262 1.391 . S
C1261 C1260 1.386 . S
C1261 C1265 1.393 . S
C1262 H1254 0.950 . S
C1262 C1260 1.391 . S
C1262 C1263 1.400 . S
C1263 C1262 1.400 . S
C1263 C1264 1.398 . S
C1263 C1269 1.491 . S
C1264 H1255 0.950 . S
C1264 C1263 1.398 . S
C1264 C1265 1.391 . S
C1265 H1253 0.950 . S
C1265 C1261 1.393 . S
C1265 C1264 1.391 . S
C1266 H1256 0.950 . S
C1266 C1267 1.386 . S
C1266 C1268 1.391 . S
C1267 C1266 1.386 . S
C1267 C1271 1.393 . S
C1268 H1257 0.950 . S
C1268 C1266 1.391 . S
C1268 C1269 1.400 . S
C1269 C1263 1.491 . S
C1269 C1268 1.400 . S
C1269 C1270 1.398 . S
C1270 H1258 0.950 . S
C1270 C1269 1.398 . S
C1270 C1271 1.391 . S
C1271 H1259 0.950 . S
C1271 C1267 1.393 . S
C1271 C1270 1.391 . S
H1272 C1280 0.950 . S
H1273 C1285 0.950 1_455 S
H1274 C1282 0.950 . S
H1275 C1284 0.950 . S
H1276 C1286 0.950 . S
H1277 C1288 0.950 . S
H1278 C1290 0.950 . S
H1279 C1291 0.950 1_655 S
C1280 H1272 0.950 . S
C1280 C1281 1.386 . S
C1280 C1282 1.391 . S
C1281 C1280 1.386 . S
C1281 C1285 1.393 . S
C1282 H1274 0.950 . S
C1282 C1280 1.391 . S
C1282 C1283 1.400 . S
C1283 C1282 1.400 . S
C1283 C1284 1.398 1_655 S
C1283 C1289 1.491 1_656 S
C1284 H1275 0.950 . S
C1284 C1283 1.398 1_455 S
C1284 C1285 1.391 1_455 S
C1285 H1273 0.950 1_655 S
C1285 C1281 1.393 . S
C1285 C1284 1.391 1_655 S
C1286 H1276 0.950 . S
C1286 C1287 1.386 . S
C1286 C1288 1.391 . S
C1287 C1286 1.386 . S
C1287 C1291 1.393 . S
C1288 H1277 0.950 . S
C1288 C1286 1.391 . S
C1288 C1289 1.400 . S
C1289 C1283 1.491 1_454 S
C1289 C1288 1.400 . S
C1289 C1290 1.398 1_455 S
C1290 H1278 0.950 . S
C1290 C1289 1.398 1_655 S
C1290 C1291 1.391 1_655 S
C1291 H1279 0.950 1_455 S
C1291 C1287 1.393 . S
C1291 C1290 1.391 1_455 S
H1292 C1300 0.950 . S
H1293 C1305 0.950 . S
H1294 C1302 0.950 . S
H1295 C1304 0.950 . S
H1296 C1306 0.950 . S
H1297 C1308 0.950 . S
H1298 C1310 0.950 . S
H1299 C1311 0.950 . S
C1300 H1292 0.950 . S
C1300 C1301 1.386 . S
C1300 C1302 1.391 . S
C1301 C1300 1.386 . S
C1301 C1305 1.393 . S
C1302 H1294 0.950 . S
C1302 C1300 1.391 . S
C1302 C1303 1.400 . S
C1303 C1302 1.400 . S
C1303 C1304 1.398 . S
C1303 C1309 1.491 . S
C1304 H1295 0.950 . S
C1304 C1303 1.398 . S
C1304 C1305 1.391 . S
C1305 H1293 0.950 . S
C1305 C1301 1.393 . S
C1305 C1304 1.391 . S
C1306 H1296 0.950 . S
C1306 C1307 1.386 . S
C1306 C1308 1.391 . S
C1307 C1306 1.386 . S
C1307 C1311 1.393 . S
C1308 H1297 0.950 . S
C1308 C1306 1.391 . S
C1308 C1309 1.400 . S
C1309 C1303 1.491 . S
C1309 C1308 1.400 . S
C1309 C1310 1.398 . S
C1310 H1298 0.950 . S
C1310 C1309 1.398 . S
C1310 C1311 1.391 . S
C1311 H1299 0.950 . S
C1311 C1307 1.393 . S
C1311 C1310 1.391 . S
H1312 C1320 0.950 1_655 S
H1313 C1325 0.950 . S
H1314 C1322 0.950 . S
H1315 C1324 0.950 . S
H1316 C1326 0.950 1_455 S
H1317 C1328 0.950 . S
H1318 C1330 0.950 . S
H1319 C1331 0.950 . S
C1320 H1312 0.950 1_455 S
C1320 C1321 1.386 . S
C1320 C1322 1.391 1_455 S
C1321 C1320 1.386 . S
C1321 C1325 1.393 . S
C1322 H1314 0.950 . S
C1322 C1320 1.391 1_655 S
C1322 C1323 1.400 1_655 S
C1323 C1322 1.400 1_455 S
C1323 C1324 1.398 . S
C1323 C1329 1.491 1_456 S
C1324 H1315 0.950 . S
C1324 C1323 1.398 . S
C1324 C1325 1.391 . S
C1325 H1313 0.950 . S
C1325 C1321 1.393 . S
C1325 C1324 1.391 . S
C1326 H1316 0.950 1_655 S
C1326 C1327 1.386 . S
C1326 C1328 1.391 1_655 S
C1327 C1326 1.386 . S
C1327 C1331 1.393 . S
C1328 H1317 0.950 . S
C1328 C1326 1.391 1_455 S
C1328 C1329 1.400 1_455 S
C1329 C1323 1.491 1_654 S
C1329 C1328 1.400 1_655 S
C1329 C1330 1.398 . S
C1330 H1318 0.950 . S
C1330 C1329 1.398 . S
C1330 C1331 1.391 . S
C1331 H1319 0.950 . S
C1331 C1327 1.393 . S
C1331 C1330 1.391 . S
H1332 C1340 0.950 . S
H1333 C1345 0.950 . S
H1334 C1342 0.950 . S
H1335 C1344 0.950 . S
H1336 C1346 0.950 . S
H1337 C1348 0.950 . S
H1338 C1350 0.950 . S
H1339 C1351 0.950 . S
C1340 H1332 0.950 . S
C1340 C1341 1.386 . S
C1340 C1342 1.391 . S
C1341 C1340 1.386 . S
C1341 C1345 1.393 . S
C1342 H1334 0.950 . S
C1342 C1340 1.391 . S
C1342 C1343 1.400 . S
C1343 C1342 1.400 . S
C1343 C1344 1.398 . S
C1343 C1349 1.491 . S
C1344 H1335 0.950 . S
C1344 C1343 1.398 . S
C1344 C1345 1.391 . S
C1345 H1333 0.950 . S
C1345 C1341 1.393 . S
C1345 C1344 1.391 . S
C1346 H1336 0.950 . S
C1346 C1347 1.386 . S
C1346 C1348 1.391 . S
C1347 C1346 1.386 . S
C1347 C1351 1.393 . S
C1348 H1337 0.950 . S
C1348 C1346 1.391 . S
C1348 C1349 1.400 . S
C1349 C1343 1.491 . S
C1349 C1348 1.400 . S
C1349 C1350 1.398 . S
C1350 H1338 0.950 . S
C1350 C1349 1.398 . S
C1350 C1351 1.391 . S
C1351 H1339 0.950 . S
C1351 C1347 1.393 . S
C1351 C1350 1.391 . S
H1352 C1360 0.950 1_545 S
H1353 C1365 0.950 . S
H1354 C1362 0.950 . S
H1355 C1364 0.950 . S
H1356 C1366 0.950 1_565 S
H1357 C1368 0.950 . S
H1358 C1370 0.950 . S
H1359 C1371 0.950 . S
C1360 H1352 0.950 1_565 S
C1360 C1361 1.386 . S
C1360 C1362 1.391 1_565 S
C1361 C1360 1.386 . S
C1361 C1365 1.393 . S
C1362 H1354 0.950 . S
C1362 C1360 1.391 1_545 S
C1362 C1363 1.400 1_545 S
C1363 C1362 1.400 1_565 S
C1363 C1364 1.398 . S
C1363 C1369 1.491 1_665 S
C1364 H1355 0.950 . S
C1364 C1363 1.398 . S
C1364 C1365 1.391 . S
C1365 H1353 0.950 . S
C1365 C1361 1.393 . S
C1365 C1364 1.391 . S
C1366 H1356 0.950 1_545 S
C1366 C1367 1.386 . S
C1366 C1368 1.391 1_545 S
C1367 C1366 1.386 . S
C1367 C1371 1.393 . S
C1368 H1357 0.950 . S
C1368 C1366 1.391 1_565 S
C1368 C1369 1.400 1_565 S
C1369 C1363 1.491 1_445 S
C1369 C1368 1.400 1_545 S
C1369 C1370 1.398 . S
C1370 H1358 0.950 . S
C1370 C1369 1.398 . S
C1370 C1371 1.391 . S
C1371 H1359 0.950 . S
C1371 C1367 1.393 . S
C1371 C1370 1.391 . S
H1372 C1380 0.950 . S
H1373 C1385 0.950 . S
H1374 C1382 0.950 . S
H1375 C1384 0.950 . S
H1376 C1386 0.950 . S
H1377 C1388 0.950 . S
H1378 C1390 0.950 . S
H1379 C1391 0.950 . S
C1380 H1372 0.950 . S
C1380 C1381 1.386 . S
C1380 C1382 1.391 . S
C1381 C1380 1.386 . S
C1381 C1385 1.393 . S
C1382 H1374 0.950 . S
C1382 C1380 1.391 . S
C1382 C1383 1.400 . S
C1383 C1382 1.400 . S
C1383 C1384 1.398 . S
C1383 C1389 1.491 . S
C1384 H1375 0.950 . S
C1384 C1383 1.398 . S
C1384 C1385 1.391 . S
C1385 H1373 0.950 . S
C1385 C1381 1.393 . S
C1385 C1384 1.391 . S
C1386 H1376 0.950 . S
C1386 C1387 1.386 . S
C1386 C1388 1.391 . S
C1387 C1386 1.386 . S
C1387 C1391 1.393 . S
C1388 H1377 0.950 . S
C1388 C1386 1.391 . S
C1388 C1389 1.400 . S
C1389 C1383 1.491 . S
C1389 C1388 1.400 . S
C1389 C1390 1.398 . S
C1390 H1378 0.950 . S
C1390 C1389 1.398 . S
C1390 C1391 1.391 . S
C1391 H1379 0.950 . S
C1391 C1387 1.393 . S
C1391 C1390 1.391 . S
H1392 C1400 0.950 . S
H1393 C1405 0.950 . S
H1394 C1402 0.950 . S
H1395 C1404 0.950 1_545 S
H1396 C1406 0.950 . S
H1397 C1408 0.950 . S
H1398 C1410 0.950 1_565 S
H1399 C1411 0.950 . S
C1400 H1392 0.950 . S
C1400 C1401 1.386 . S
C1400 C1402 1.391 . S
C1401 C1400 1.386 . S
C1401 C1405 1.393 . S
C1402 H1394 0.950 . S
C1402 C1400 1.391 . S
C1402 C1403 1.400 . S
C1403 C1402 1.400 . S
C1403 C1404 1.398 . S
C1403 C1409 1.491 1_465 S
C1404 H1395 0.950 1_565 S
C1404 C1403 1.398 . S
C1404 C1405 1.391 . S
C1405 H1393 0.950 . S
C1405 C1401 1.393 . S
C1405 C1404 1.391 . S
C1406 H1396 0.950 . S
C1406 C1407 1.386 . S
C1406 C1408 1.391 . S
C1407 C1406 1.386 . S
C1407 C1411 1.393 . S
C1408 H1397 0.950 . S
C1408 C1406 1.391 . S
C1408 C1409 1.400 . S
C1409 C1403 1.491 1_645 S
C1409 C1408 1.400 . S
C1409 C1410 1.398 . S
C1410 H1398 0.950 1_545 S
C1410 C1409 1.398 . S
C1410 C1411 1.391 . S
C1411 H1399 0.950 . S
C1411 C1407 1.393 . S
C1411 C1410 1.391 . S
H1412 C1420 0.950 . S
H1413 C1425 0.950 . S
H1414 C1422 0.950 . S
H1415 C1424 0.950 . S
H1416 C1426 0.950 . S
H1417 C1428 0.950 . S
H1418 C1430 0.950 . S
H1419 C1431 0.950 . S
C1420 H1412 0.950 . S
C1420 C1421 1.386 . S
C1420 C1422 1.391 . S
C1421 C1420 1.386 . S
C1421 C1425 1.393 . S
C1422 H1414 0.950 . S
C1422 C1420 1.391 . S
C1422 C1423 1.400 . S
C1423 C1422 1.400 . S
C1423 C1424 1.398 . S
C1423 C1429 1.491 . S
C1424 H1415 0.950 . S
C1424 C1423 1.398 . S
C1424 C1425 1.391 . S
C1425 H1413 0.950 . S
C1425 C1421 1.393 . S
C1425 C1424 1.391 . S
C1426 H1416 0.950 . S
C1426 C1427 1.386 . S
C1426 C1428 1.391 . S
C1427 C1426 1.386 . S
C1427 C1431 1.393 . S
C1428 H1417 0.950 . S
C1428 C1426 1.391 . S
C1428 C1429 1.400 . S
C1429 C1423 1.491 . S
C1429 C1428 1.400 . S
C1429 C1430 1.398 . S
C1430 H1418 0.950 . S
C1430 C1429 1.398 . S
C1430 C1431 1.391 . S
C1431 H1419 0.950 . S
C1431 C1427 1.393 . S
C1431 C1430 1.391 . S
H1432 C1440 0.950 . S
H1433 C1445 0.950 . S
H1434 C1442 0.950 . S
H1435 C1444 0.950 1_556 S
H1436 C1446 0.950 . S
H1437 C1448 0.950 . S
H1438 C1450 0.950 1_554 S
H1439 C1451 0.950 . S
C1440 H1432 0.950 . S
C1440 C1441 1.386 . S
C1440 C1442 1.391 . S
C1441 C1440 1.386 . S
C1441 C1445 1.393 . S
C1442 H1434 0.950 . S
C1442 C1440 1.391 . S
C1442 C1443 1.400 . S
C1443 C1442 1.400 . S
C1443 C1444 1.398 . S
C1443 C1449 1.491 1_544 S
C1444 H1435 0.950 1_554 S
C1444 C1443 1.398 . S
C1444 C1445 1.391 . S
C1445 H1433 0.950 . S
C1445 C1441 1.393 . S
C1445 C1444 1.391 . S
C1446 H1436 0.950 . S
C1446 C1447 1.386 . S
C1446 C1448 1.391 . S
C1447 C1446 1.386 . S
C1447 C1451 1.393 . S
C1448 H1437 0.950 . S
C1448 C1446 1.391 . S
C1448 C1449 1.400 . S
C1449 C1443 1.491 1_566 S
C1449 C1448 1.400 . S
C1449 C1450 1.398 . S
C1450 H1438 0.950 1_556 S
C1450 C1449 1.398 . S
C1450 C1451 1.391 . S
C1451 H1439 0.950 . S
C1451 C1447 1.393 . S
C1451 C1450 1.391 . S
H1452 C1460 0.950 . S
H1453 C1465 0.950 . S
H1454 C1462 0.950 . S
H1455 C1464 0.950 . S
H1456 C1466 0.950 . S
H1457 C1468 0.950 . S
H1458 C1470 0.950 . S
H1459 C1471 0.950 . S
C1460 H1452 0.950 . S
C1460 C1461 1.386 . S
C1460 C1462 1.391 . S
C1461 C1460 1.386 . S
C1461 C1465 1.393 . S
C1462 H1454 0.950 . S
C1462 C1460 1.391 . S
C1462 C1463 1.400 . S
C1463 C1462 1.400 . S
C1463 C1464 1.398 . S
C1463 C1469 1.491 . S
C1464 H1455 0.950 . S
C1464 C1463 1.398 . S
C1464 C1465 1.391 . S
C1465 H1453 0.950 . S
C1465 C1461 1.393 . S
C1465 C1464 1.391 . S
C1466 H1456 0.950 . S
C1466 C1467 1.386 . S
C1466 C1468 1.391 . S
C1467 C1466 1.386 . S
C1467 C1471 1.393 . S
C1468 H1457 0.950 . S
C1468 C1466 1.391 . S
C1468 C1469 1.400 . S
C1469 C1463 1.491 . S
C1469 C1468 1.400 . S
C1469 C1470 1.398 . S
C1470 H1458 0.950 . S
C1470 C1469 1.398 . S
C1470 C1471 1.391 . S
C1471 H1459 0.950 . S
C1471 C1467 1.393 . S
C1471 C1470 1.391 . S
H1472 C1480 0.950 1_554 S
H1473 C1485 0.950 . S
H1474 C1482 0.950 . S
H1475 C1484 0.950 . S
H1476 C1486 0.950 1_556 S
H1477 C1488 0.950 . S
H1478 C1490 0.950 . S
H1479 C1491 0.950 . S
C1480 H1472 0.950 1_556 S
C1480 C1481 1.386 . S
C1480 C1482 1.391 1_556 S
C1481 C1480 1.386 . S
C1481 C1485 1.393 . S
C1482 H1474 0.950 . S
C1482 C1480 1.391 1_554 S
C1482 C1483 1.400 1_554 S
C1483 C1482 1.400 1_556 S
C1483 C1484 1.398 . S
C1483 C1489 1.491 1_546 S
C1484 H1475 0.950 . S
C1484 C1483 1.398 . S
C1484 C1485 1.391 . S
C1485 H1473 0.950 . S
C1485 C1481 1.393 . S
C1485 C1484 1.391 . S
C1486 H1476 0.950 1_554 S
C1486 C1487 1.386 . S
C1486 C1488 1.391 1_554 S
C1487 C1486 1.386 . S
C1487 C1491 1.393 . S
C1488 H1477 0.950 . S
C1488 C1486 1.391 1_556 S
C1488 C1489 1.400 1_556 S
C1489 C1483 1.491 1_564 S
C1489 C1488 1.400 1_554 S
C1489 C1490 1.398 . S
C1490 H1478 0.950 . S
C1490 C1489 1.398 . S
C1490 C1491 1.391 . S
C1491 H1479 0.950 . S
C1491 C1487 1.393 . S
C1491 C1490 1.391 . S
H1492 C1500 0.950 . S
H1493 C1505 0.950 . S
H1494 C1502 0.950 . S
H1495 C1504 0.950 . S
H1496 C1506 0.950 . S
H1497 C1508 0.950 . S
H1498 C1510 0.950 . S
H1499 C1511 0.950 . S
C1500 H1492 0.950 . S
C1500 C1501 1.386 . S
C1500 C1502 1.391 . S
C1501 C1500 1.386 . S
C1501 C1505 1.393 . S
C1502 H1494 0.950 . S
C1502 C1500 1.391 . S
C1502 C1503 1.400 . S
C1503 C1502 1.400 . S
C1503 C1504 1.398 . S
C1503 C1509 1.491 . S
C1504 H1495 0.950 . S
C1504 C1503 1.398 . S
C1504 C1505 1.391 . S
C1505 H1493 0.950 . S
C1505 C1501 1.393 . S
C1505 C1504 1.391 . S
C1506 H1496 0.950 . S
C1506 C1507 1.386 . S
C1506 C1508 1.391 . S
C1507 C1506 1.386 . S
C1507 C1511 1.393 . S
C1508 H1497 0.950 . S
C1508 C1506 1.391 . S
C1508 C1509 1.400 . S
C1509 C1503 1.491 . S
C1509 C1508 1.400 . S
C1509 C1510 1.398 . S
C1510 H1498 0.950 . S
C1510 C1509 1.398 . S
C1510 C1511 1.391 . S
C1511 H1499 0.950 . S
C1511 C1507 1.393 . S
C1511 C1510 1.391 . S
H1512 C1520 0.950 . S
H1513 C1525 0.950 . S
H1514 C1522 0.950 . S
H1515 C1524 0.950 . S
H1516 C1526 0.950 . S
H1517 C1528 0.950 . S
H1518 C1530 0.950 . S
H1519 C1531 0.950 . S
C1520 H1512 0.950 . S
C1520 C1521 1.386 . S
C1520 C1522 1.391 . S
C1521 C1520 1.386 . S
C1521 C1525 1.393 . S
C1522 H1514 0.950 . S
C1522 C1520 1.391 . S
C1522 C1523 1.400 . S
C1523 C1522 1.400 . S
C1523 C1524 1.398 . S
C1523 C1529 1.491 . S
C1524 H1515 0.950 . S
C1524 C1523 1.398 . S
C1524 C1525 1.391 . S
C1525 H1513 0.950 . S
C1525 C1521 1.393 . S
C1525 C1524 1.391 . S
C1526 H1516 0.950 . S
C1526 C1527 1.386 . S
C1526 C1528 1.391 . S
C1527 C1526 1.386 . S
C1527 C1531 1.393 . S
C1528 H1517 0.950 . S
C1528 C1526 1.391 . S
C1528 C1529 1.400 . S
C1529 C1523 1.491 . S
C1529 C1528 1.400 . S
C1529 C1530 1.398 . S
C1530 H1518 0.950 . S
C1530 C1529 1.398 . S
C1530 C1531 1.391 . S
C1531 H1519 0.950 . S
C1531 C1527 1.393 . S
C1531 C1530 1.391 . S
H1532 C1540 0.950 . S
H1533 C1545 0.950 . S
H1534 C1542 0.950 . S
H1535 C1544 0.950 . S
H1536 C1546 0.950 . S
H1537 C1548 0.950 . S
H1538 C1550 0.950 . S
H1539 C1551 0.950 . S
C1540 H1532 0.950 . S
C1540 C1541 1.386 . S
C1540 C1542 1.391 . S
C1541 C1540 1.386 . S
C1541 C1545 1.393 . S
C1542 H1534 0.950 . S
C1542 C1540 1.391 . S
C1542 C1543 1.400 . S
C1543 C1542 1.400 . S
C1543 C1544 1.398 . S
C1543 C1549 1.491 . S
C1544 H1535 0.950 . S
C1544 C1543 1.398 . S
C1544 C1545 1.391 . S
C1545 H1533 0.950 . S
C1545 C1541 1.393 . S
C1545 C1544 1.391 . S
C1546 H1536 0.950 . S
C1546 C1547 1.386 . S
C1546 C1548 1.391 . S
C1547 C1546 1.386 . S
C1547 C1551 1.393 . S
C1548 H1537 0.950 . S
C1548 C1546 1.391 . S
C1548 C1549 1.400 . S
C1549 C1543 1.491 . S
C1549 C1548 1.400 . S
C1549 C1550 1.398 . S
C1550 H1538 0.950 . S
C1550 C1549 1.398 . S
C1550 C1551 1.391 . S
C1551 H1539 0.950 . S
C1551 C1547 1.393 . S
C1551 C1550 1.391 . S
H1552 C1560 0.950 . S
H1553 C1565 0.950 . S
H1554 C1562 0.950 . S
H1555 C1564 0.950 . S
H1556 C1566 0.950 . S
H1557 C1568 0.950 . S
H1558 C1570 0.950 . S
H1559 C1571 0.950 . S
C1560 H1552 0.950 . S
C1560 C1561 1.386 . S
C1560 C1562 1.391 . S
C1561 C1560 1.386 . S
C1561 C1565 1.393 . S
C1562 H1554 0.950 . S
C1562 C1560 1.391 . S
C1562 C1563 1.400 . S
C1563 C1562 1.400 . S
C1563 C1564 1.398 . S
C1563 C1569 1.491 . S
C1564 H1555 0.950 . S
C1564 C1563 1.398 . S
C1564 C1565 1.391 . S
C1565 H1553 0.950 . S
C1565 C1561 1.393 . S
C1565 C1564 1.391 . S
C1566 H1556 0.950 . S
C1566 C1567 1.386 . S
C1566 C1568 1.391 . S
C1567 C1566 1.386 . S
C1567 C1571 1.393 . S
C1568 H1557 0.950 . S
C1568 C1566 1.391 . S
C1568 C1569 1.400 . S
C1569 C1563 1.491 . S
C1569 C1568 1.400 . S
C1569 C1570 1.398 . S
C1570 H1558 0.950 . S
C1570 C1569 1.398 . S
C1570 C1571 1.391 . S
C1571 H1559 0.950 . S
C1571 C1567 1.393 . S
C1571 C1570 1.391 . S
H1572 C1580 0.950 . S
H1573 C1585 0.950 . S
H1574 C1582 0.950 . S
H1575 C1584 0.950 . S
H1576 C1586 0.950 . S
H1577 C1588 0.950 . S
H1578 C1590 0.950 . S
H1579 C1591 0.950 . S
C1580 H1572 0.950 . S
C1580 C1581 1.386 . S
C1580 C1582 1.391 . S
C1581 C1580 1.386 . S
C1581 C1585 1.393 . S
C1582 H1574 0.950 . S
C1582 C1580 1.391 . S
C1582 C1583 1.400 . S
C1583 C1582 1.400 . S
C1583 C1584 1.398 . S
C1583 C1589 1.491 . S
C1584 H1575 0.950 . S
C1584 C1583 1.398 . S
C1584 C1585 1.391 . S
C1585 H1573 0.950 . S
C1585 C1581 1.393 . S
C1585 C1584 1.391 . S
C1586 H1576 0.950 . S
C1586 C1587 1.386 . S
C1586 C1588 1.391 . S
C1587 C1586 1.386 . S
C1587 C1591 1.393 . S
C1588 H1577 0.950 . S
C1588 C1586 1.391 . S
C1588 C1589 1.400 . S
C1589 C1583 1.491 . S
C1589 C1588 1.400 . S
C1589 C1590 1.398 . S
C1590 H1578 0.950 . S
C1590 C1589 1.398 . S
C1590 C1591 1.391 . S
C1591 H1579 0.950 . S
C1591 C1587 1.393 . S
C1591 C1590 1.391 . S
H1592 C1600 0.950 . S
H1593 C1605 0.950 . S
H1594 C1602 0.950 . S
H1595 C1604 0.950 . S
H1596 C1606 0.950 . S
H1597 C1608 0.950 . S
H1598 C1610 0.950 . S
H1599 C1611 0.950 . S
C1600 H1592 0.950 . S
C1600 C1601 1.386 . S
C1600 C1602 1.391 . S
C1601 C1600 1.386 . S
C1601 C1605 1.393 . S
C1602 H1594 0.950 . S
C1602 C1600 1.391 . S
C1602 C1603 1.400 . S
C1603 C1602 1.400 . S
C1603 C1604 1.398 . S
C1603 C1609 1.491 . S
C1604 H1595 0.950 . S
C1604 C1603 1.398 . S
C1604 C1605 1.391 . S
C1605 H1593 0.950 . S
C1605 C1601 1.393 . S
C1605 C1604 1.391 . S
C1606 H1596 0.950 . S
C1606 C1607 1.386 . S
C1606 C1608 1.391 . S
C1607 C1606 1.386 . S
C1607 C1611 1.393 . S
C1608 H1597 0.950 . S
C1608 C1606 1.391 . S
C1608 C1609 1.400 . S
C1609 C1603 1.491 . S
C1609 C1608 1.400 . S
C1609 C1610 1.398 . S
C1610 H1598 0.950 . S
C1610 C1609 1.398 . S
C1610 C1611 1.391 . S
C1611 H1599 0.950 . S
C1611 C1607 1.393 . S
C1611 C1610 1.391 . S
H1612 C1620 0.950 . S
H1613 C1625 0.950 . S
H1614 C1622 0.950 . S
H1615 C1624 0.950 . S
H1616 C1626 0.950 . S
H1617 C1628 0.950 . S
H1618 C1630 0.950 . S
H1619 C1631 0.950 . S
C1620 H1612 0.950 . S
C1620 C1621 1.386 . S
C1620 C1622 1.391 . S
C1621 C1620 1.386 . S
C1621 C1625 1.393 . S
C1622 H1614 0.950 . S
C1622 C1620 1.391 . S
C1622 C1623 1.400 . S
C1623 C1622 1.400 . S
C1623 C1624 1.398 . S
C1623 C1629 1.491 . S
C1624 H1615 0.950 . S
C1624 C1623 1.398 . S
C1624 C1625 1.391 . S
C1625 H1613 0.950 . S
C1625 C1621 1.393 . S
C1625 C1624 1.391 . S
C1626 H1616 0.950 . S
C1626 C1627 1.386 . S
C1626 C1628 1.391 . S
C1627 C1626 1.386 . S
C1627 C1631 1.393 . S
C1628 H1617 0.950 . S
C1628 C1626 1.391 . S
C1628 C1629 1.400 . S
C1629 C1623 1.491 . S
C1629 C1628 1.400 . S
C1629 C1630 1.398 . S
C1630 H1618 0.950 . S
C1630 C1629 1.398 . S
C1630 C1631 1.391 . S
C1631 H1619 0.950 . S
C1631 C1627 1.393 . S
C1631 C1630 1.391 . S
H1632 C1640 0.950 . S
H1633 C1645 0.950 . S
H1634 C1642 0.950 . S
H1635 C1644 0.950 . S
H1636 C1646 0.950 . S
H1637 C1648 0.950 . S
H1638 C1650 0.950 . S
H1639 C1651 0.950 . S
C1640 H1632 0.950 . S
C1640 C1641 1.386 . S
C1640 C1642 1.391 . S
C1641 C1640 1.386 . S
C1641 C1645 1.393 . S
C1642 H1634 0.950 . S
C1642 C1640 1.391 . S
C1642 C1643 1.400 . S
C1643 C1642 1.400 . S
C1643 C1644 1.398 . S
C1643 C1649 1.491 . S
C1644 H1635 0.950 . S
C1644 C1643 1.398 . S
C1644 C1645 1.391 . S
C1645 H1633 0.950 . S
C1645 C1641 1.393 . S
C1645 C1644 1.391 . S
C1646 H1636 0.950 . S
C1646 C1647 1.386 . S
C1646 C1648 1.391 . S
C1647 C1646 1.386 . S
C1647 C1651 1.393 . S
C1648 H1637 0.950 . S
C1648 C1646 1.391 . S
C1648 C1649 1.400 . S
C1649 C1643 1.491 . S
C1649 C1648 1.400 . S
C1649 C1650 1.398 . S
C1650 H1638 0.950 . S
C1650 C1649 1.398 . S
C1650 C1651 1.391 . S
C1651 H1639 0.950 . S
C1651 C1647 1.393 . S
C1651 C1650 1.391 . S
H1652 C1660 0.950 . S
H1653 C1665 0.950 . S
H1654 C1662 0.950 . S
H1655 C1664 0.950 . S
H1656 C1666 0.950 . S
H1657 C1668 0.950 . S
H1658 C1670 0.950 . S
H1659 C1671 0.950 . S
C1660 H1652 0.950 . S
C1660 C1661 1.386 . S
C1660 C1662 1.391 . S
C1661 C1660 1.386 . S
C1661 C1665 1.393 . S
C1662 H1654 0.950 . S
C1662 C1660 1.391 . S
C1662 C1663 1.400 . S
C1663 C1662 1.400 . S
C1663 C1664 1.398 . S
C1663 C1669 1.491 . S
C1664 H1655 0.950 . S
C1664 C1663 1.398 . S
C1664 C1665 1.391 . S
C1665 H1653 0.950 . S
C1665 C1661 1.393 . S
C1665 C1664 1.391 . S
C1666 H1656 0.950 . S
C1666 C1667 1.386 . S
C1666 C1668 1.391 . S
C1667 C1666 1.386 . S
C1667 C1671 1.393 . S
C1668 H1657 0.950 . S
C1668 C1666 1.391 . S
C1668 C1669 1.400 . S
C1669 C1663 1.491 . S
C1669 C1668 1.400 . S
C1669 C1670 1.398 . S
C1670 H1658 0.950 . S
C1670 C1669 1.398 . S
C1670 C1671 1.391 . S
C1671 H1659 0.950 . S
C1671 C1667 1.393 . S
C1671 C1670 1.391 . S
H1672 C1680 0.950 . S
H1673 C1685 0.950 . S
H1674 C1682 0.950 . S
H1675 C1684 0.950 . S
H1676 C1686 0.950 . S
H1677 C1688 0.950 . S
H1678 C1690 0.950 . S
H1679 C1691 0.950 . S
C1680 H1672 0.950 . S
C1680 C1681 1.386 . S
C1680 C1682 1.391 . S
C1681 C1680 1.386 . S
C1681 C1685 1.393 . S
C1682 H1674 0.950 . S
C1682 C1680 1.391 . S
C1682 C1683 1.400 . S
C1683 C1682 1.400 . S
C1683 C1684 1.398 . S
C1683 C1689 1.491 . S
C1684 H1675 0.950 . S
C1684 C1683 1.398 . S
C1684 C1685 1.391 . S
C1685 H1673 0.950 . S
C1685 C1681 1.393 . S
C1685 C1684 1.391 . S
C1686 H1676 0.950 . S
C1686 C1687 1.386 . S
C1686 C1688 1.391 . S
C1687 C1686 1.386 . S
C1687 C1691 1.393 . S
C1688 H1677 0.950 . S
C1688 C1686 1.391 . S
C1688 C1689 1.400 . S
C1689 C1683 1.491 . S
C1689 C1688 1.400 . S
C1689 C1690 1.398 . S
C1690 H1678 0.950 . S
C1690 C1689 1.398 . S
C1690 C1691 1.391 . S
C1691 H1679 0.950 . S
C1691 C1687 1.393 . S
C1691 C1690 1.391 . S
H1692 C1700 0.950 . S
H1693 C1705 0.950 . S
H1694 C1702 0.950 . S
H1695 C1704 0.950 . S
H1696 C1706 0.950 . S
H1697 C1708 0.950 . S
H1698 C1710 0.950 . S
H1699 C1711 0.950 . S
C1700 H1692 0.950 . S
C1700 C1701 1.386 . S
C1700 C1702 1.391 . S
C1701 C1700 1.386 . S
C1701 C1705 1.393 . S
C1702 H1694 0.950 . S
C1702 C1700 1.391 . S
C1702 C1703 1.400 . S
C1703 C1702 1.400 . S
C1703 C1704 1.398 . S
C1703 C1709 1.491 . S
C1704 H1695 0.950 . S
C1704 C1703 1.398 . S
C1704 C1705 1.391 . S
C1705 H1693 0.950 . S
C1705 C1701 1.393 . S
C1705 C1704 1.391 . S
C1706 H1696 0.950 . S
C1706 C1707 1.386 . S
C1706 C1708 1.391 . S
C1707 C1706 1.386 . S
C1707 C1711 1.393 . S
C1708 H1697 0.950 . S
C1708 C1706 1.391 . S
C1708 C1709 1.400 . S
C1709 C1703 1.491 . S
C1709 C1708 1.400 . S
C1709 C1710 1.398 . S
C1710 H1698 0.950 . S
C1710 C1709 1.398 . S
C1710 C1711 1.391 . S
C1711 H1699 0.950 . S
C1711 C1707 1.393 . S
C1711 C1710 1.391 . S
H1712 C1720 0.950 . S
H1713 C1725 0.950 . S
H1714 C1722 0.950 . S
H1715 C1724 0.950 . S
H1716 C1726 0.950 . S
H1717 C1728 0.950 . S
H1718 C1730 0.950 . S
H1719 C1731 0.950 . S
C1720 H1712 0.950 . S
C1720 C1721 1.386 . S
C1720 C1722 1.391 . S
C1721 C1720 1.386 . S
C1721 C1725 1.393 . S
C1722 H1714 0.950 . S
C1722 C1720 1.391 . S
C1722 C1723 1.400 . S
C1723 C1722 1.400 . S
C1723 C1724 1.398 . S
C1723 C1729 1.491 . S
C1724 H1715 0.950 . S
C1724 C1723 1.398 . S
C1724 C1725 1.391 . S
C1725 H1713 0.950 . S
C1725 C1721 1.393 . S
C1725 C1724 1.391 . S
C1726 H1716 0.950 . S
C1726 C1727 1.386 . S
C1726 C1728 1.391 . S
C1727 C1726 1.386 . S
C1727 C1731 1.393 . S
C1728 H1717 0.950 . S
C1728 C1726 1.391 . S
C1728 C1729 1.400 . S
C1729 C1723 1.491 . S
C1729 C1728 1.400 . S
C1729 C1730 1.398 . S
C1730 H1718 0.950 . S
C1730 C1729 1.398 . S
C1730 C1731 1.391 . S
C1731 H1719 0.950 . S
C1731 C1727 1.393 . S
C1731 C1730 1.391 . S
H1732 C1740 0.950 . S
H1733 C1745 0.950 . S
H1734 C1742 0.950 . S
H1735 C1744 0.950 . S
H1736 C1746 0.950 . S
H1737 C1748 0.950 . S
H1738 C1750 0.950 . S
H1739 C1751 0.950 . S
C1740 H1732 0.950 . S
C1740 C1741 1.386 . S
C1740 C1742 1.391 . S
C1741 C1740 1.386 . S
C1741 C1745 1.393 . S
C1742 H1734 0.950 . S
C1742 C1740 1.391 . S
C1742 C1743 1.400 . S
C1743 C1742 1.400 . S
C1743 C1744 1.398 . S
C1743 C1749 1.491 . S
C1744 H1735 0.950 . S
C1744 C1743 1.398 . S
C1744 C1745 1.391 . S
C1745 H1733 0.950 . S
C1745 C1741 1.393 . S
C1745 C1744 1.391 . S
C1746 H1736 0.950 . S
C1746 C1747 1.386 . S
C1746 C1748 1.391 . S
C1747 C1746 1.386 . S
C1747 C1751 1.393 . S
C1748 H1737 0.950 . S
C1748 C1746 1.391 . S
C1748 C1749 1.400 . S
C1749 C1743 1.491 . S
C1749 C1748 1.400 . S
C1749 C1750 1.398 . S
C1750 H1738 0.950 . S
C1750 C1749 1.398 . S
C1750 C1751 1.391 . S
C1751 H1739 0.950 . S
C1751 C1747 1.393 . S
C1751 C1750 1.391 . S
H1752 C1760 0.950 . S
H1753 C1765 0.950 . S
H1754 C1762 0.950 . S
H1755 C1764 0.950 . S
H1756 C1766 0.950 . S
H1757 C1768 0.950 . S
H1758 C1770 0.950 . S
H1759 C1771 0.950 . S
C1760 H1752 0.950 . S
C1760 C1761 1.386 . S
C1760 C1762 1.391 . S
C1761 C1760 1.386 . S
C1761 C1765 1.393 . S
C1762 H1754 0.950 . S
C1762 C1760 1.391 . S
C1762 C1763 1.400 . S
C1763 C1762 1.400 . S
C1763 C1764 1.398 . S
C1763 C1769 1.491 . S
C1764 H1755 0.950 . S
C1764 C1763 1.398 . S
C1764 C1765 1.391 . S
C1765 H1753 0.950 . S
C1765 C1761 1.393 . S
C1765 C1764 1.391 . S
C1766 H1756 0.950 . S
C1766 C1767 1.386 . S
C1766 C1768 1.391 . S
C1767 C1766 1.386 . S
C1767 C1771 1.393 . S
C1768 H1757 0.950 . S
C1768 C1766 1.391 . S
C1768 C1769 1.400 . S
C1769 C1763 1.491 . S
C1769 C1768 1.400 . S
C1769 C1770 1.398 . S
C1770 H1758 0.950 . S
C1770 C1769 1.398 . S
C1770 C1771 1.391 . S
C1771 H1759 0.950 . S
C1771 C1767 1.393 . S
C1771 C1770 1.391 . S
H1772 C1780 0.950 . S
H1773 C1785 0.950 . S
H1774 C1782 0.950 . S
H1775 C1784 0.950 . S
H1776 C1786 0.950 . S
H1777 C1788 0.950 . S
H1778 C1790 0.950 . S
H1779 C1791 0.950 . S
C1780 H1772 0.950 . S
C1780 C1781 1.386 . S
C1780 C1782 1.391 . S
C1781 C1780 1.386 . S
C1781 C1785 1.393 . S
C1782 H1774 0.950 . S
C1782 C1780 1.391 . S
C1782 C1783 1.400 . S
C1783 C1782 1.400 . S
C1783 C1784 1.398 . S
C1783 C1789 1.491 . S
C1784 H1775 0.950 . S
C1784 C1783 1.398 . S
C1784 C1785 1.391 . S
C1785 H1773 0.950 . S
C1785 C1781 1.393 . S
C1785 C1784 1.391 . S
C1786 H1776 0.950 . S
C1786 C1787 1.386 . S
C1786 C1788 1.391 . S
C1787 C1786 1.386 . S
C1787 C1791 1.393 . S
C1788 H1777 0.950 . S
C1788 C1786 1.391 . S
C1788 C1789 1.400 . S
C1789 C1783 1.491 . S
C1789 C1788 1.400 . S
C1789 C1790 1.398 . S
C1790 H1778 0.950 . S
C1790 C1789 1.398 . S
C1790 C1791 1.391 . S
C1791 H1779 0.950 . S
C1791 C1787 1.393 . S
C1791 C1790 1.391 . S
H1792 C1800 0.950 . S
H1793 C1805 0.950 . S
H1794 C1802 0.950 . S
H1795 C1804 0.950 . S
H1796 C1806 0.950 . S
H1797 C1808 0.950 . S
H1798 C1810 0.950 . S
H1799 C1811 0.950 . S
C1800 H1792 0.950 . S
C1800 C1801 1.386 . S
C1800 C1802 1.391 . S
C1801 C1800 1.386 . S
C1801 C1805 1.393 . S
C1802 H1794 0.950 . S
C1802 C1800 1.391 . S
C1802 C1803 1.400 . S
C1803 C1802 1.400 . S
C1803 C1804 1.398 . S
C1803 C1809 1.491 . S
C1804 H1795 0.950 . S
C1804 C1803 1.398 . S
C1804 C1805 1.391 . S
C1805 H1793 0.950 . S
C1805 C1801 1.393 . S
C1805 C1804 1.391 . S
C1806 H1796 0.950 . S
C1806 C1807 1.386 . S
C1806 C1808 1.391 . S
C1807 C1806 1.386 . S
C1807 C1811 1.393 . S
C1808 H1797 0.950 . S
C1808 C1806 1.391 . S
C1808 C1809 1.400 . S
C1809 C1803 1.491 . S
C1809 C1808 1.400 . S
C1809 C1810 1.398 . S
C1810 H1798 0.950 . S
C1810 C1809 1.398 . S
C1810 C1811 1.391 . S
C1811 H1799 0.950 . S
C1811 C1807 1.393 . S
C1811 C1810 1.391 . S
H1812 C1820 0.950 . S
H1813 C1825 0.950 . S
H1814 C1822 0.950 . S
H1815 C1824 0.950 . S
H1816 C1826 0.950 . S
H1817 C1828 0.950 . S
H1818 C1830 0.950 . S
H1819 C1831 0.950 . S
C1820 H1812 0.950 . S
C1820 C1821 1.386 . S
C1820 C1822 1.391 . S
C1821 C1820 1.386 . S
C1821 C1825 1.393 . S
C1822 H1814 0.950 . S
C1822 C1820 1.391 . S
C1822 C1823 1.400 . S
C1823 C1822 1.400 . S
C1823 C1824 1.398 . S
C1823 C1829 1.491 . S
C1824 H1815 0.950 . S
C1824 C1823 1.398 . S
C1824 C1825 1.391 . S
C1825 H1813 0.950 . S
C1825 C1821 1.393 . S
C1825 C1824 1.391 . S
C1826 H1816 0.950 . S
C1826 C1827 1.386 . S
C1826 C1828 1.391 . S
C1827 C1826 1.386 . S
C1827 C1831 1.393 . S
C1828 H1817 0.950 . S
C1828 C1826 1.391 . S
C1828 C1829 1.400 . S
C1829 C1823 1.491 . S
C1829 C1828 1.400 . S
C1829 C1830 1.398 . S
C1830 H1818 0.950 . S
C1830 C1829 1.398 . S
C1830 C1831 1.391 . S
C1831 H1819 0.950 . S
C1831 C1827 1.393 . S
C1831 C1830 1.391 . S
H1832 C1840 0.950 . S
H1833 C1845 0.950 . S
H1834 C1842 0.950 . S
H1835 C1844 0.950 . S
H1836 C1846 0.950 . S
H1837 C1848 0.950 . S
H1838 C1850 0.950 . S
H1839 C1851 0.950 . S
C1840 H1832 0.950 . S
C1840 C1841 1.386 . S
C1840 C1842 1.391 . S
C1841 C1840 1.386 . S
C1841 C1845 1.393 . S
C1842 H1834 0.950 . S
C1842 C1840 1.391 . S
C1842 C1843 1.400 . S
C1843 C1842 1.400 . S
C1843 C1844 1.398 . S
C1843 C1849 1.491 . S
C1844 H1835 0.950 . S
C1844 C1843 1.398 . S
C1844 C1845 1.391 . S
C1845 H1833 0.950 . S
C1845 C1841 1.393 . S
C1845 C1844 1.391 . S
C1846 H1836 0.950 . S
C1846 C1847 1.386 . S
C1846 C1848 1.391 . S
C1847 C1846 1.386 . S
C1847 C1851 1.393 . S
C1848 H1837 0.950 . S
C1848 C1846 1.391 . S
C1848 C1849 1.400 . S
C1849 C1843 1.491 . S
C1849 C1848 1.400 . S
C1849 C1850 1.398 . S
C1850 H1838 0.950 . S
C1850 C1849 1.398 . S
C1850 C1851 1.391 . S
C1851 H1839 0.950 . S
C1851 C1847 1.393 . S
C1851 C1850 1.391 . S
H1852 C1860 0.950 . S
H1853 C1865 0.950 . S
H1854 C1862 0.950 . S
H1855 C1864 0.950 . S
H1856 C1866 0.950 . S
H1857 C1868 0.950 . S
H1858 C1870 0.950 . S
H1859 C1871 0.950 . S
C1860 H1852 0.950 . S
C1860 C1861 1.386 . S
C1860 C1862 1.391 . S
C1861 C1860 1.386 . S
C1861 C1865 1.393 . S
C1862 H1854 0.950 . S
C1862 C1860 1.391 . S
C1862 C1863 1.400 . S
C1863 C1862 1.400 . S
C1863 C1864 1.398 . S
C1863 C1869 1.491 . S
C1864 H1855 0.950 . S
C1864 C1863 1.398 . S
C1864 C1865 1.391 . S
C1865 H1853 0.950 . S
C1865 C1861 1.393 . S
C1865 C1864 1.391 . S
C1866 H1856 0.950 . S
C1866 C1867 1.386 . S
C1866 C1868 1.391 . S
C1867 C1866 1.386 . S
C1867 C1871 1.393 . S
C1868 H1857 0.950 . S
C1868 C1866 1.391 . S
C1868 C1869 1.400 . S
C1869 C1863 1.491 . S
C1869 C1868 1.400 . S
C1869 C1870 1.398 . S
C1870 H1858 0.950 . S
C1870 C1869 1.398 . S
C1870 C1871 1.391 . S
C1871 H1859 0.950 . S
C1871 C1867 1.393 . S
C1871 C1870 1.391 . S
H1872 C1880 0.950 . S
H1873 C1885 0.950 . S
H1874 C1882 0.950 . S
H1875 C1884 0.950 . S
H1876 C1886 0.950 . S
H1877 C1888 0.950 . S
H1878 C1890 0.950 . S
H1879 C1891 0.950 . S
C1880 H1872 0.950 . S
C1880 C1881 1.386 . S
C1880 C1882 1.391 . S
C1881 C1880 1.386 . S
C1881 C1885 1.393 . S
C1882 H1874 0.950 . S
C1882 C1880 1.391 . S
C1882 C1883 1.400 . S
C1883 C1882 1.400 . S
C1883 C1884 1.398 . S
C1883 C1889 1.491 . S
C1884 H1875 0.950 . S
C1884 C1883 1.398 . S
C1884 C1885 1.391 . S
C1885 H1873 0.950 . S
C1885 C1881 1.393 . S
C1885 C1884 1.391 . S
C1886 H1876 0.950 . S
C1886 C1887 1.386 . S
C1886 C1888 1.391 . S
C1887 C1886 1.386 . S
C1887 C1891 1.393 . S
C1888 H1877 0.950 . S
C1888 C1886 1.391 . S
C1888 C1889 1.400 . S
C1889 C1883 1.491 . S
C1889 C1888 1.400 . S
C1889 C1890 1.398 . S
C1890 H1878 0.950 . S
C1890 C1889 1.398 . S
C1890 C1891 1.391 . S
C1891 H1879 0.950 . S
C1891 C1887 1.393 . S
C1891 C1890 1.391 . S
H1892 C1900 0.950 . S
H1893 C1905 0.950 . S
H1894 C1902 0.950 . S
H1895 C1904 0.950 . S
H1896 C1906 0.950 . S
H1897 C1908 0.950 . S
H1898 C1910 0.950 . S
H1899 C1911 0.950 . S
C1900 H1892 0.950 . S
C1900 C1901 1.386 . S
C1900 C1902 1.391 . S
C1901 C1900 1.386 . S
C1901 C1905 1.393 . S
C1902 H1894 0.950 . S
C1902 C1900 1.391 . S
C1902 C1903 1.400 . S
C1903 C1902 1.400 . S
C1903 C1904 1.398 . S
C1903 C1909 1.491 . S
C1904 H1895 0.950 . S
C1904 C1903 1.398 . S
C1904 C1905 1.391 . S
C1905 H1893 0.950 . S
C1905 C1901 1.393 . S
C1905 C1904 1.391 . S
C1906 H1896 0.950 . S
C1906 C1907 1.386 . S
C1906 C1908 1.391 . S
C1907 C1906 1.386 . S
C1907 C1911 1.393 . S
C1908 H1897 0.950 . S
C1908 C1906 1.391 . S
C1908 C1909 1.400 . S
C1909 C1903 1.491 . S
C1909 C1908 1.400 . S
C1909 C1910 1.398 . S
C1910 H1898 0.950 . S
C1910 C1909 1.398 . S
C1910 C1911 1.391 . S
C1911 H1899 0.950 . S
C1911 C1907 1.393 . S
C1911 C1910 1.391 . S
H1912 C1920 0.950 . S
H1913 C1925 0.950 . S
H1914 C1922 0.950 . S
H1915 C1924 0.950 . S
H1916 C1926 0.950 . S
H1917 C1928 0.950 . S
H1918 C1930 0.950 . S
H1919 C1931 0.950 . S
C1920 H1912 0.950 . S
C1920 C1921 1.386 . S
C1920 C1922 1.391 . S
C1921 C1920 1.386 . S
C1921 C1925 1.393 . S
C1922 H1914 0.950 . S
C1922 C1920 1.391 . S
C1922 C1923 1.400 . S
C1923 C1922 1.400 . S
C1923 C1924 1.398 . S
C1923 C1929 1.491 . S
C1924 H1915 0.950 . S
C1924 C1923 1.398 . S
C1924 C1925 1.391 . S
C1925 H1913 0.950 . S
C1925 C1921 1.393 . S
C1925 C1924 1.391 . S
C1926 H1916 0.950 . S
C1926 C1927 1.386 . S
C1926 C1928 1.391 . S
C1927 C1926 1.386 . S
C1927 C1931 1.393 . S
C1928 H1917 0.950 . S
C1928 C1926 1.391 . S
C1928 C1929 1.400 . S
C1929 C1923 1.491 . S
C1929 C1928 1.400 . S
C1929 C1930 1.398 . S
C1930 H1918 0.950 . S
C1930 C1929 1.398 . S
C1930 C1931 1.391 . S
C1931 H1919 0.950 . S
C1931 C1927 1.393 . S
C1931 C1930 1.391 . S
H1932 C1940 0.950 . S
H1933 C1945 0.950 . S
H1934 C1942 0.950 . S
H1935 C1944 0.950 . S
H1936 C1946 0.950 . S
H1937 C1948 0.950 . S
H1938 C1950 0.950 . S
H1939 C1951 0.950 . S
C1940 H1932 0.950 . S
C1940 C1941 1.386 . S
C1940 C1942 1.391 . S
C1941 C1940 1.386 . S
C1941 C1945 1.393 . S
C1942 H1934 0.950 . S
C1942 C1940 1.391 . S
C1942 C1943 1.400 . S
C1943 C1942 1.400 . S
C1943 C1944 1.398 . S
C1943 C1949 1.491 . S
C1944 H1935 0.950 . S
C1944 C1943 1.398 . S
C1944 C1945 1.391 . S
C1945 H1933 0.950 . S
C1945 C1941 1.393 . S
C1945 C1944 1.391 . S
C1946 H1936 0.950 . S
C1946 C1947 1.386 . S
C1946 C1948 1.391 . S
C1947 C1946 1.386 . S
C1947 C1951 1.393 . S
C1948 H1937 0.950 . S
C1948 C1946 1.391 . S
C1948 C1949 1.400 . S
C1949 C1943 1.491 . S
C1949 C1948 1.400 . S
C1949 C1950 1.398 . S
C1950 H1938 0.950 . S
C1950 C1949 1.398 . S
C1950 C1951 1.391 . S
C1951 H1939 0.950 . S
C1951 C1947 1.393 . S
C1951 C1950 1.391 . S
H1952 C1960 0.950 . S
H1953 C1965 0.950 . S
H1954 C1962 0.950 . S
H1955 C1964 0.950 . S
H1956 C1966 0.950 . S
H1957 C1968 0.950 . S
H1958 C1970 0.950 . S
H1959 C1971 0.950 . S
C1960 H1952 0.950 . S
C1960 C1961 1.386 . S
C1960 C1962 1.391 . S
C1961 C1960 1.386 . S
C1961 C1965 1.393 . S
C1962 H1954 0.950 . S
C1962 C1960 1.391 . S
C1962 C1963 1.400 . S
C1963 C1962 1.400 . S
C1963 C1964 1.398 . S
C1963 C1969 1.491 . S
C1964 H1955 0.950 . S
C1964 C1963 1.398 . S
C1964 C1965 1.391 . S
C1965 H1953 0.950 . S
C1965 C1961 1.393 . S
C1965 C1964 1.391 . S
C1966 H1956 0.950 . S
C1966 C1967 1.386 . S
C1966 C1968 1.391 . S
C1967 C1966 1.386 . S
C1967 C1971 1.393 . S
C1968 H1957 0.950 . S
C1968 C1966 1.391 . S
C1968 C1969 1.400 . S
C1969 C1963 1.491 . S
C1969 C1968 1.400 . S
C1969 C1970 1.398 . S
C1970 H1958 0.950 . S
C1970 C1969 1.398 . S
C1970 C1971 1.391 . S
C1971 H1959 0.950 . S
C1971 C1967 1.393 . S
C1971 C1970 1.391 . S
H1972 C1980 0.950 . S
H1973 C1985 0.950 . S
H1974 C1982 0.950 . S
H1975 C1984 0.950 . S
H1976 C1986 0.950 . S
H1977 C1988 0.950 . S
H1978 C1990 0.950 . S
H1979 C1991 0.950 . S
C1980 H1972 0.950 . S
C1980 C1981 1.386 . S
C1980 C1982 1.391 . S
C1981 C1980 1.386 . S
C1981 C1985 1.393 . S
C1982 H1974 0.950 . S
C1982 C1980 1.391 . S
C1982 C1983 1.400 . S
C1983 C1982 1.400 . S
C1983 C1984 1.398 . S
C1983 C1989 1.491 . S
C1984 H1975 0.950 . S
C1984 C1983 1.398 . S
C1984 C1985 1.391 . S
C1985 H1973 0.950 . S
C1985 C1981 1.393 . S
C1985 C1984 1.391 . S
C1986 H1976 0.950 . S
C1986 C1987 1.386 . S
C1986 C1988 1.391 . S
C1987 C1986 1.386 . S
C1987 C1991 1.393 . S
C1988 H1977 0.950 . S
C1988 C1986 1.391 . S
C1988 C1989 1.400 . S
C1989 C1983 1.491 . S
C1989 C1988 1.400 . S
C1989 C1990 1.398 . S
C1990 H1978 0.950 . S
C1990 C1989 1.398 . S
C1990 C1991 1.391 . S
C1991 H1979 0.950 . S
C1991 C1987 1.393 . S
C1991 C1990 1.391 . S
C801 N101 1.271 . S
C807 C7 1.300 . S
C821 N2 1.290 1_655 S
C827 C40 1.315 . S
C841 N35 1.289 . S
C847 C73 1.315 . S
C861 C106 1.310 . S
C867 N68 1.287 1_455 S
C881 N167 1.293 . S
C887 C139 1.314 . S
C901 N200 1.269 1_455 S
C907 C172 1.303 . S
C921 C205 1.315 . S
C927 N233 1.293 . S
C941 N134 1.293 1_655 S
C947 C238 1.316 . S
C961 C271 1.300 . S
C967 N596 1.273 . S
C981 C304 1.299 . S
C987 N629 1.270 1_554 S
C1001 N662 1.275 . S
C1007 C337 1.307 . S
C1021 N563 1.267 1_554 S
C1027 C370 1.298 . S
C1041 N728 1.285 . S
C1047 C403 1.308 . S
C1061 C436 1.298 . S
C1067 N530 1.268 1_556 S
C1081 C469 1.297 . S
C1087 N761 1.264 . S
C1101 N695 1.264 1_556 S
C1107 C502 1.298 . S
C1121 N299 1.285 . S
C1127 C535 1.308 . S
C1141 C568 1.316 . S
C1147 N497 1.293 . S
C1161 N398 1.292 1_545 S
C1167 C601 1.314 . S
C1181 N431 1.284 . S
C1187 C634 1.312 . S
C1201 N464 1.264 1_565 S
C1207 C667 1.298 . S
C1221 N365 1.274 . S
C1227 C700 1.307 . S
C1241 N266 1.293 1_565 S
C1247 C733 1.316 . S
C1261 N332 1.293 1_545 S
C1267 C766 1.315 . S
C1281 C219 1.820 . S
C1287 C21 1.822 . S
C1301 C54 1.824 . S
C1307 C252 1.824 . S
C1321 C153 1.824 . S
C1327 C87 1.822 . S
C1341 C186 1.821 . S
C1347 C120 1.820 . S
C1361 C351 1.821 . S
C1367 C285 1.820 . S
C1381 C318 1.823 . S
C1387 C384 1.822 . S
C1401 C417 1.823 . S
C1407 C483 1.824 . S
C1421 C516 1.824 . S
C1427 C450 1.824 . S
C1441 C549 1.824 . S
C1447 C582 1.824 . S
C1461 C615 1.823 . S
C1467 C780 1.824 . S
C1481 C648 1.821 . S
C1487 C714 1.820 . S
C1501 C747 1.820 . S
C1507 C681 1.821 . S
C1521 C18 1.148 . S
C1527 N277 1.160 . S
C1541 C51 1.138 . S
C1547 N310 1.154 . S
C1561 N343 1.154 . S
C1567 C84 1.134 . S
C1581 N376 1.155 . S
C1587 C117 1.145 . S
C1601 C150 1.130 . S
C1607 N409 1.155 . S
C1621 N442 1.155 . S
C1627 C183 1.146 . S
C1641 C216 1.151 . S
C1647 N475 1.159 . S
C1661 N508 1.155 . S
C1667 C249 1.131 . S
C1681 C282 1.130 . S
C1687 N541 1.155 . S
C1701 N772 1.160 . S
C1707 C315 1.148 . S
C1721 C348 1.139 . S
C1727 N706 1.159 . S
C1741 C381 1.142 . S
C1747 N739 1.159 . S
C1761 N574 1.159 . S
C1767 C414 1.139 . S
C1781 C447 1.143 . S
C1787 N607 1.159 . S
C1801 C480 1.152 . S
C1807 N640 1.158 . S
C1821 C513 1.152 . S
C1827 N673 1.158 . S
C1841 C546 1.152 . S
C1847 N13 1.158 . S
C1861 C579 1.130 . S
C1867 N145 1.156 . S
C1881 C612 1.152 . S
C1887 N178 1.158 . S
C1901 N211 1.154 . S
C1907 C645 1.139 . S
C1921 C678 1.145 . S
C1927 N244 1.159 . S
C1941 N79 1.159 . S
C1947 C711 1.150 . S
C1961 N112 1.155 . S
C1967 C744 1.130 . S
C1981 C777 1.133 . S
C1987 N46 1.157 . S
