# Generated by pormake.
# Topology lcy-e, (6)-cn, num edge types: 1
# Building blocks:
#     Node 0, Type 0, BuildingBlock: JUFBIX_clean_sbu_0, # of connection points: 6
#     Node 1, Type 0, BuildingBlock: JUFBIX_clean_sbu_0, # of connection points: 6
#     Node 2, Type 0, BuildingBlock: JUFBIX_clean_sbu_0, # of connection points: 6
#     Node 3, Type 0, BuildingBlock: JUFBIX_clean_sbu_0, # of connection points: 6
#     Node 4, Type 0, BuildingBlock: JUFBIX_clean_sbu_0, # of connection points: 6
#     Node 5, Type 0, BuildingBlock: JUFBIX_clean_sbu_0, # of connection points: 6
#     Node 6, Type 0, BuildingBlock: JUFBIX_clean_sbu_0, # of connection points: 6
#     Node 7, Type 0, BuildingBlock: JUFBIX_clean_sbu_0, # of connection points: 6
#     Node 8, Type 0, BuildingBlock: JUFBIX_clean_sbu_0, # of connection points: 6
#     Node 9, Type 0, BuildingBlock: JUFBIX_clean_sbu_0, # of connection points: 6
#     Node 10, Type 0, BuildingBlock: JUFBIX_clean_sbu_0, # of connection points: 6
#     Node 11, Type 0, BuildingBlock: JUFBIX_clean_sbu_0, # of connection points: 6
#     Edge 12, Type (0, 0), BuildingBlock: KIFKEQ_clean_linker_1, # of connection points: 2
#     Edge 13, Type (0, 0), BuildingBlock: KIFKEQ_clean_linker_1, # of connection points: 2
#     Edge 14, Type (0, 0), BuildingBlock: KIFKEQ_clean_linker_1, # of connection points: 2
#     Edge 15, Type (0, 0), BuildingBlock: KIFKEQ_clean_linker_1, # of connection points: 2
#     Edge 16, Type (0, 0), BuildingBlock: KIFKEQ_clean_linker_1, # of connection points: 2
#     Edge 17, Type (0, 0), BuildingBlock: KIFKEQ_clean_linker_1, # of connection points: 2
#     Edge 18, Type (0, 0), BuildingBlock: KIFKEQ_clean_linker_1, # of connection points: 2
#     Edge 19, Type (0, 0), BuildingBlock: KIFKEQ_clean_linker_1, # of connection points: 2
#     Edge 20, Type (0, 0), BuildingBlock: KIFKEQ_clean_linker_1, # of connection points: 2
#     Edge 21, Type (0, 0), BuildingBlock: KIFKEQ_clean_linker_1, # of connection points: 2
#     Edge 22, Type (0, 0), BuildingBlock: KIFKEQ_clean_linker_1, # of connection points: 2
#     Edge 23, Type (0, 0), BuildingBlock: KIFKEQ_clean_linker_1, # of connection points: 2
#     Edge 24, Type (0, 0), BuildingBlock: KIFKEQ_clean_linker_1, # of connection points: 2
#     Edge 25, Type (0, 0), BuildingBlock: KIFKEQ_clean_linker_1, # of connection points: 2
#     Edge 26, Type (0, 0), BuildingBlock: KIFKEQ_clean_linker_1, # of connection points: 2
#     Edge 27, Type (0, 0), BuildingBlock: KIFKEQ_clean_linker_1, # of connection points: 2
#     Edge 28, Type (0, 0), BuildingBlock: KIFKEQ_clean_linker_1, # of connection points: 2
#     Edge 29, Type (0, 0), BuildingBlock: KIFKEQ_clean_linker_1, # of connection points: 2
#     Edge 30, Type (0, 0), BuildingBlock: KIFKEQ_clean_linker_1, # of connection points: 2
#     Edge 31, Type (0, 0), BuildingBlock: KIFKEQ_clean_linker_1, # of connection points: 2
#     Edge 32, Type (0, 0), BuildingBlock: KIFKEQ_clean_linker_1, # of connection points: 2
#     Edge 33, Type (0, 0), BuildingBlock: KIFKEQ_clean_linker_1, # of connection points: 2
#     Edge 34, Type (0, 0), BuildingBlock: KIFKEQ_clean_linker_1, # of connection points: 2
#     Edge 35, Type (0, 0), BuildingBlock: KIFKEQ_clean_linker_1, # of connection points: 2
#     Edge 36, Type (0, 0), BuildingBlock: KIFKEQ_clean_linker_1, # of connection points: 2
#     Edge 37, Type (0, 0), BuildingBlock: KIFKEQ_clean_linker_1, # of connection points: 2
#     Edge 38, Type (0, 0), BuildingBlock: KIFKEQ_clean_linker_1, # of connection points: 2
#     Edge 39, Type (0, 0), BuildingBlock: KIFKEQ_clean_linker_1, # of connection points: 2
#     Edge 40, Type (0, 0), BuildingBlock: KIFKEQ_clean_linker_1, # of connection points: 2
#     Edge 41, Type (0, 0), BuildingBlock: KIFKEQ_clean_linker_1, # of connection points: 2
#     Edge 42, Type (0, 0), BuildingBlock: KIFKEQ_clean_linker_1, # of connection points: 2
#     Edge 43, Type (0, 0), BuildingBlock: KIFKEQ_clean_linker_1, # of connection points: 2
#     Edge 44, Type (0, 0), BuildingBlock: KIFKEQ_clean_linker_1, # of connection points: 2
#     Edge 45, Type (0, 0), BuildingBlock: KIFKEQ_clean_linker_1, # of connection points: 2
#     Edge 46, Type (0, 0), BuildingBlock: KIFKEQ_clean_linker_1, # of connection points: 2
#     Edge 47, Type (0, 0), BuildingBlock: KIFKEQ_clean_linker_1, # of connection points: 2
# Relax obj value: 0.477
# Max RMSD: 0.345
# Mean RMSD: 0.290
data_MOF--net-lcy-e--node1-JUFBIX_clean_sbu_0--edge1-KIFKEQ_clean_linker_1
_symmetry_space_group_name_H-M    P1
_symmetry_Int_Tables_number       1
_symmetry_cell_setting            triclinic
loop_
_symmetry_equiv_pos_as_xyz
'x, y, z'
_cell_length_a     37.290822
_cell_length_b     39.787425
_cell_length_c     37.17301
_cell_angle_alpha  88.130787
_cell_angle_beta   89.85779
_cell_angle_gamma 83.341795
loop_
_atom_site_label
_atom_site_type_symbol
_atom_site_fract_x
_atom_site_fract_y
_atom_site_fract_z
_atom_type_partial_charge
Co0 Co 0.16921 0.21642 0.45079 0.0
C1 C 0.09743 0.22004 0.47378 0.0
Co2 Co 0.13818 0.18054 0.42388 0.0
C3 C 0.20748 0.27387 0.4588 0.0
C4 C 0.19486 0.25203 0.50995 0.0
N5 N 0.19355 0.24716 0.47427 0.0
N6 N 0.21608 0.29596 0.48313 0.0
C7 C 0.20874 0.28205 0.51548 0.0
H8 H 0.20912 0.27822 0.43 0.0
H9 H 0.18369 0.23633 0.5304 0.0
C10 C 0.21225 0.17726 0.4045 0.0
N11 N 0.11347 0.15094 0.39788 0.0
C12 C 0.08492 0.13364 0.40528 0.0
C13 C 0.12026 0.14595 0.36269 0.0
N14 N 0.07393 0.11805 0.37591 0.0
C15 C 0.09634 0.12604 0.34928 0.0
C16 C 0.13854 0.24152 0.38591 0.0
O17 O 0.21242 0.19951 0.4281 0.0
O18 O 0.18248 0.16599 0.39736 0.0
O19 O 0.12475 0.21394 0.3876 0.0
O20 O 0.15878 0.2483 0.41143 0.0
O21 O 0.09507 0.19552 0.45273 0.0
H22 H 0.1404 0.15742 0.34708 0.0
H23 H 0.07209 0.13316 0.43139 0.0
O24 O 0.12653 0.23363 0.47433 0.0
O25 O 0.179 0.18376 0.48927 0.0
O26 O 0.15166 0.14723 0.45925 0.0
C27 C 0.16914 0.15435 0.48673 0.0
H28 H 0.21008 0.29414 0.54103 0.0
H29 H 0.09479 0.1194 0.3214 0.0
Co30 Co 0.03673 0.85702 0.70065 0.0
C31 C 0.98687 0.90372 0.73229 0.0
Co32 Co 0.0507 0.90899 0.69363 0.0
C33 C 0.04817 0.78689 0.72091 0.0
C34 C 0.99707 0.79899 0.69488 0.0
N35 N 0.02659 0.81272 0.70526 0.0
N36 N 0.0332 0.75759 0.72165 0.0
C37 C 1.00099 0.76514 0.705 0.0
H38 H 0.07368 0.79002 0.73335 0.0
H39 H 0.97374 0.81287 0.68183 0.0
C40 C 0.09786 0.86232 0.65979 0.0
N41 N 0.06183 0.95271 0.68948 0.0
C42 C 0.0762 0.96764 0.66078 0.0
C43 C 0.0614 0.97531 0.71581 0.0
N44 N 0.08526 0.99849 0.6682 0.0
C45 C 0.07593 1.00353 0.7028 0.0
C46 C 0.08429 0.87434 0.75349 0.0
O47 O 0.0776 0.84211 0.67381 0.0
O48 O 0.09163 0.89379 0.66498 0.0
O49 O 0.08061 0.90237 0.7358 0.0
O50 O 0.06551 0.85134 0.74414 0.0
O51 O 0.00894 0.92399 0.7215 0.0
H52 H 0.05231 0.97101 0.74305 0.0
H53 H 0.0815 0.95538 0.63543 0.0
O54 O 0.99449 0.87224 0.72714 0.0
O55 O 0.00946 0.86286 0.6571 0.0
O56 O 0.02181 0.91526 0.65081 0.0
C57 C 0.00666 0.89071 0.63901 0.0
H58 H 0.98091 0.74792 0.70169 0.0
H59 H 0.07979 0.02575 0.71771 0.0
Co60 Co 0.33618 0.77311 0.97519 0.0
C61 C 0.40483 0.7665 1.0043 0.0
Co62 Co 0.37335 0.8037 0.94515 0.0
C63 C 0.30957 0.71046 0.99947 0.0
C64 C 0.2771 0.75341 0.02007 0.0
N65 N 0.30642 0.7448 0.99961 0.0
N66 N 0.28345 0.69735 0.0188 0.0
C67 C 0.26309 0.72437 0.03204 0.0
H68 H 0.33097 0.69515 0.98582 0.0
H69 H 0.26636 0.77913 0.0257 0.0
C70 C 0.30114 0.81104 0.91912 0.0
N71 N 0.40428 0.83041 0.91973 0.0
C72 C 0.43341 0.84495 0.93089 0.0
C73 C 0.40131 0.83903 0.88438 0.0
N74 N 0.4482 0.86255 0.9039 0.0
C75 C 0.42789 0.8588 0.87472 0.0
C76 C 0.37109 0.74128 0.91667 0.0
O77 O 0.29688 0.79174 0.94632 0.0
O78 O 0.33275 0.81932 0.91252 0.0
O79 O 0.38745 0.76752 0.91488 0.0
O80 O 0.3473 0.73885 0.94082 0.0
O81 O 0.41179 0.78784 0.97956 0.0
H82 H 0.3812 0.83125 0.86651 0.0
H83 H 0.44328 0.84308 0.95832 0.0
O84 O 0.37457 0.75492 1.00423 0.0
O85 O 0.32651 0.80907 0.00943 0.0
O86 O 0.35949 0.83941 0.9749 0.0
C87 C 0.34037 0.8366 1.00287 0.0
H88 H 0.23938 0.72329 0.04871 0.0
H89 H 0.43233 0.86916 0.848 0.0
Co90 Co 0.49709 0.13042 0.22012 0.0
C91 C 0.52902 0.06428 0.2343 0.0
Co92 Co 0.46727 0.0914 0.19671 0.0
C93 C 0.52612 0.16899 0.27493 0.0
C94 C 0.53771 0.18792 0.2222 0.0
N95 N 0.52325 0.1625 0.23967 0.0
N96 N 0.54095 0.19783 0.28025 0.0
C97 C 0.5486 0.20965 0.24703 0.0
H98 H 0.51548 0.15392 0.29629 0.0
H99 H 0.5385 0.19145 0.19324 0.0
C100 C 0.43837 0.15908 0.18244 0.0
N101 N 0.43759 0.06057 0.17924 0.0
C102 C 0.44297 0.03073 0.16225 0.0
C103 C 0.40156 0.06547 0.18487 0.0
N104 N 0.41163 0.01698 0.15799 0.0
C105 C 0.38576 0.03896 0.17212 0.0
C106 C 0.44226 0.11229 0.2647 0.0
O107 O 0.46596 0.16538 0.19942 0.0
O108 O 0.43297 0.12848 0.17805 0.0
O109 O 0.4406 0.0907 0.24066 0.0
O110 O 0.46636 0.13227 0.26185 0.0
O111 O 0.50343 0.05541 0.21511 0.0
H112 H 0.38744 0.08701 0.19795 0.0
H113 H 0.4692 0.01907 0.15386 0.0
O114 O 0.52905 0.09535 0.24126 0.0
O115 O 0.52649 0.12841 0.17693 0.0
O116 O 0.49338 0.09242 0.15315 0.0
C117 C 0.51942 0.11045 0.15048 0.0
H118 H 0.5603 0.23282 0.24095 0.0
H119 H 0.35719 0.03628 0.17266 0.0
Co120 Co 0.66849 0.33166 0.52692 0.0
C121 C 0.60462 0.3133 0.4997 0.0
Co122 Co 0.62007 0.35236 0.55643 0.0
C123 C 0.73329 0.2884 0.51345 0.0
C124 C 0.71195 0.31365 0.46519 0.0
N125 N 0.70802 0.31303 0.5012 0.0
N126 N 0.75124 0.27176 0.48655 0.0
C127 C 0.73842 0.28836 0.45611 0.0
H128 H 0.73596 0.2807 0.54154 0.0
H129 H 0.69399 0.32873 0.44656 0.0
C130 C 0.68592 0.36961 0.58227 0.0
N131 N 0.58068 0.37 0.58271 0.0
C132 C 0.54795 0.3843 0.57121 0.0
C133 C 0.57911 0.37077 0.61892 0.0
N134 N 0.52616 0.39416 0.59892 0.0
C135 C 0.54571 0.38571 0.62895 0.0
C136 C 0.6489 0.28965 0.5836 0.0
O137 O 0.69849 0.35295 0.55574 0.0
O138 O 0.65216 0.37199 0.58879 0.0
O139 O 0.62291 0.31292 0.58603 0.0
O140 O 0.67282 0.2927 0.5597 0.0
O141 O 0.58902 0.33227 0.52342 0.0
H142 H 0.6009 0.36104 0.63691 0.0
H143 H 0.54053 0.388 0.5431 0.0
O144 O 0.6387 0.3099 0.49757 0.0
O145 O 0.66328 0.37087 0.49516 0.0
O146 O 0.61695 0.39206 0.52701 0.0
C147 C 0.63872 0.39507 0.50111 0.0
H148 H 0.74422 0.28026 0.42899 0.0
H149 H 0.53644 0.38986 0.65624 0.0
Co150 Co 0.98058 0.38435 0.7324 0.0
C151 C 0.99201 0.32108 0.70059 0.0
Co152 Co 0.96064 0.34322 0.76601 0.0
C153 C 0.02012 0.44028 0.71407 0.0
C154 C 0.99256 0.4245 0.66824 0.0
N155 N 0.99773 0.41799 0.70375 0.0
N156 N 0.02951 0.46029 0.6864 0.0
C157 C 0.01203 0.45046 0.6575 0.0
H158 H 0.02959 0.44152 0.74142 0.0
H159 H 0.97646 0.41066 0.65112 0.0
C160 C 0.95102 0.40926 0.79531 0.0
N161 N 0.94408 0.30925 0.79678 0.0
C162 C 0.9238 0.28346 0.79157 0.0
C163 C 0.95149 0.30709 0.8323 0.0
N164 N 0.91867 0.26531 0.82254 0.0
C165 C 0.93614 0.28053 0.848 0.0
C166 C 0.03124 0.35396 0.78102 0.0
O167 O 0.96464 0.41659 0.76531 0.0
O168 O 0.94645 0.37827 0.8024 0.0
O169 O 0.00696 0.33476 0.7877 0.0
O170 O 0.02564 0.3772 0.75682 0.0
O171 O 0.97555 0.31015 0.72821 0.0
H172 H 0.96701 0.32405 0.84616 0.0
H173 H 0.9132 0.27806 0.76557 0.0
O174 O 0.99706 0.35209 0.69865 0.0
O175 O 0.93461 0.39154 0.70921 0.0
O176 O 0.91477 0.35232 0.74459 0.0
C177 C 0.90898 0.37505 0.71977 0.0
H178 H 0.01416 0.46037 0.63022 0.0
H179 H 0.9372 0.27358 0.87639 0.0
Co180 Co 0.93402 0.6622 1.00245 0.0
C181 C 0.87016 0.69713 0.97784 0.0
Co182 Co 0.88646 0.6408 0.02325 0.0
C183 C 1.00098 0.66309 0.9654 0.0
C184 C 0.98036 0.71257 0.98197 0.0
N185 N 0.97427 0.6799 0.98449 0.0
N186 N 0.02262 0.68401 0.94933 0.0
C187 C 0.00998 0.71519 0.96038 0.0
H188 H 1.00284 0.6362 0.96117 0.0
H189 H 0.96264 0.73342 0.9925 0.0
C190 C 0.95095 0.60935 0.05047 0.0
N191 N 0.84745 0.62128 0.04079 0.0
C192 C 0.82109 0.63406 0.06294 0.0
C193 C 0.84208 0.58856 0.03728 0.0
N194 N 0.7998 0.61047 0.07366 0.0
C195 C 0.81272 0.58191 0.05727 0.0
C196 C 0.91359 0.60916 0.9616 0.0
O197 O 0.96379 0.63232 0.03187 0.0
O198 O 0.91735 0.60695 0.04921 0.0
O199 O 0.88718 0.61215 0.98314 0.0
O200 O 0.93769 0.62903 0.96467 0.0
O201 O 0.85569 0.67593 0.99801 0.0
H202 H 0.8594 0.57016 0.02253 0.0
H203 H 0.81885 0.65956 0.07266 0.0
O204 O 0.90414 0.69316 0.97339 0.0
O205 O 0.92984 0.69456 0.04032 0.0
O206 O 0.88572 0.66916 0.06361 0.0
C207 C 0.9065 0.69221 0.06509 0.0
H208 H 0.01888 0.73873 0.95047 0.0
H209 H 0.80239 0.55765 0.06035 0.0
Co210 Co 0.5313 0.61486 0.27388 0.0
C211 C 0.51138 0.67668 0.23906 0.0
Co212 Co 0.55119 0.65718 0.30109 0.0
C213 C 0.50237 0.55307 0.26911 0.0
C214 C 0.51316 0.57216 0.21626 0.0
N215 N 0.51565 0.57887 0.25133 0.0
N216 N 0.49084 0.53051 0.24687 0.0
C217 C 0.49774 0.54248 0.21339 0.0
H218 H 0.50036 0.55174 0.29809 0.0
H219 H 0.52092 0.5883 0.1943 0.0
C220 C 0.57225 0.59378 0.33364 0.0
N221 N 0.56661 0.6918 0.32694 0.0
C222 C 0.58938 0.71489 0.31853 0.0
C223 C 0.56001 0.69524 0.36248 0.0
N224 N 0.59731 0.73207 0.34766 0.0
C225 C 0.57882 0.71987 0.37523 0.0
C226 C 0.48461 0.6414 0.32553 0.0
O227 O 0.55582 0.58425 0.30686 0.0
O228 O 0.57274 0.6253 0.33779 0.0
O229 O 0.50759 0.6623 0.3272 0.0
O230 O 0.48962 0.61774 0.30345 0.0
O231 O 0.53009 0.68837 0.26351 0.0
H232 H 0.54405 0.67951 0.37871 0.0
H233 H 0.60167 0.71753 0.29233 0.0
O234 O 0.5071 0.64545 0.24015 0.0
O235 O 0.57262 0.61205 0.24496 0.0
O236 O 0.59455 0.65194 0.27473 0.0
C237 C 0.59771 0.63039 0.2501 0.0
H238 H 0.49062 0.53173 0.18841 0.0
H239 H 0.57999 0.72738 0.4029 0.0
Co240 Co 0.22544 0.42391 0.14735 0.0
C241 C 0.24466 0.45763 0.08474 0.0
Co242 Co 0.20847 0.40077 0.09823 0.0
C243 C 0.26159 0.42883 0.21385 0.0
C244 C 0.2352 0.47698 0.19574 0.0
N245 N 0.23956 0.44396 0.188 0.0
N246 N 0.27297 0.45117 0.2365 0.0
C247 C 0.25574 0.48151 0.22548 0.0
H248 H 0.27127 0.40214 0.2143 0.0
H249 H 0.22056 0.49678 0.17912 0.0
C250 C 0.18787 0.37071 0.16344 0.0
N251 N 0.19479 0.37863 0.05816 0.0
C252 C 0.17894 0.38979 0.0266 0.0
C253 C 0.19849 0.34453 0.05665 0.0
N254 N 0.17234 0.36377 0.00601 0.0
C255 C 0.18462 0.33539 0.02486 0.0
C256 C 0.27535 0.37233 0.12328 0.0
O257 O 0.20345 0.39409 0.17637 0.0
O258 O 0.18783 0.36725 0.12948 0.0
O259 O 0.25289 0.37306 0.09776 0.0
O260 O 0.26927 0.39331 0.14821 0.0
O261 O 0.22848 0.43589 0.06833 0.0
H262 H 0.21016 0.32727 0.07769 0.0
H263 H 0.17136 0.41624 0.01941 0.0
O264 O 0.24743 0.45502 0.11872 0.0
O265 O 0.1814 0.45327 0.1461 0.0
O266 O 0.16408 0.42766 0.09877 0.0
C267 C 0.15745 0.44952 0.12273 0.0
H268 H 0.26065 0.50579 0.23552 0.0
H269 H 0.18336 0.3098 0.01627 0.0
Co270 Co 0.72916 0.02167 0.90414 0.0
C271 C 0.74996 1.00326 0.83463 0.0
Co272 Co 0.69695 0.04975 0.86146 0.0
C273 C 0.75803 0.95948 0.93704 0.0
C274 C 0.78018 0.99966 0.96286 0.0
N275 N 0.75637 0.99356 0.93732 0.0
N276 N 0.78176 0.94387 0.96109 0.0
C277 C 0.79606 0.96903 0.97743 0.0
H278 H 0.7435 0.94615 0.91795 0.0
H279 H 0.78645 0.02457 0.96961 0.0
C280 C 0.67762 0.06692 0.93305 0.0
N281 N 0.6694 0.07566 0.82708 0.0
C282 C 0.68097 0.09279 0.79815 0.0
C283 C 0.63312 0.08179 0.82592 0.0
N284 N 0.65332 0.10938 0.77889 0.0
C285 C 0.62316 0.10245 0.79638 0.0
C286 C 0.66594 0.99317 0.88454 0.0
O287 O 0.70575 0.04687 0.94086 0.0
O288 O 0.66819 0.07159 0.90003 0.0
O289 O 0.66449 0.01616 0.85995 0.0
O290 O 0.69163 0.9913 0.90727 0.0
O291 O 0.72664 0.02748 0.824 0.0
H292 H 0.61509 0.07212 0.84553 0.0
H293 H 0.70919 0.09295 0.79136 0.0
O294 O 0.75288 0.99619 0.86794 0.0
O295 O 0.76595 0.05346 0.90019 0.0
O296 O 0.72876 0.08332 0.86266 0.0
C297 C 0.75842 0.07992 0.87978 0.0
H298 H 0.81684 0.96555 0.99792 0.0
H299 H 0.59581 0.11227 0.78894 0.0
Co300 Co 0.80233 0.95922 0.3739 0.0
C301 C 0.77603 0.96399 0.30468 0.0
Co302 Co 0.83468 0.92413 0.33845 0.0
C303 C 0.79121 0.01043 0.42507 0.0
C304 C 0.74055 0.99772 0.40604 0.0
N305 N 0.77645 0.98886 0.40394 0.0
N306 N 0.76626 0.03337 0.43931 0.0
C307 C 0.73418 0.02519 0.42778 0.0
H308 H 0.82004 0.01038 0.4283 0.0
H309 H 0.72058 0.98645 0.39085 0.0
C310 C 0.8583 0.92093 0.41022 0.0
N311 N 0.8622 0.89426 0.30839 0.0
C312 C 0.85229 0.87576 0.28085 0.0
C313 C 0.89819 0.88574 0.31153 0.0
N314 N 0.88069 0.8558 0.26729 0.0
C315 C 0.90951 0.86202 0.28662 0.0
C316 C 0.86189 0.98561 0.34374 0.0
O317 O 0.83027 0.94182 0.4131 0.0
O318 O 0.8663 0.90895 0.3794 0.0
O319 O 0.86541 0.95807 0.32699 0.0
O320 O 0.83536 0.99151 0.36491 0.0
O321 O 0.80115 0.94001 0.29881 0.0
H322 H 0.91521 0.89595 0.33093 0.0
H323 H 0.82475 0.87625 0.27155 0.0
O324 O 0.77393 0.9771 0.33527 0.0
O325 O 0.76972 0.9265 0.38232 0.0
O326 O 0.80481 0.89062 0.35028 0.0
C327 C 0.77658 0.89737 0.36908 0.0
H328 H 0.70821 0.03959 0.43228 0.0
H329 H 0.93689 0.85032 0.28284 0.0
Co330 Co 0.24926 0.60077 0.55834 0.0
C331 C 0.22338 0.59554 0.62797 0.0
Co332 Co 0.28583 0.61652 0.59951 0.0
C333 C 0.23303 0.56034 0.5015 0.0
C334 C 0.18419 0.58263 0.52544 0.0
N335 N 0.22011 0.58376 0.525 0.0
N336 N 0.20724 0.54257 0.48908 0.0
C337 C 0.17619 0.55726 0.50346 0.0
H338 H 0.2616 0.55414 0.49687 0.0
H339 H 0.1657 0.5964 0.5437 0.0
C340 C 0.31024 0.62097 0.52838 0.0
N341 N 0.31652 0.63289 0.63221 0.0
C342 C 0.32013 0.62586 0.6679 0.0
C343 C 0.34059 0.655 0.62472 0.0
N344 N 0.34568 0.64248 0.68273 0.0
C345 C 0.35864 0.66078 0.65563 0.0
C346 C 0.30116 0.54982 0.58755 0.0
O347 O 0.27985 0.61158 0.52151 0.0
O348 O 0.31915 0.62407 0.56101 0.0
O349 O 0.30921 0.57303 0.60746 0.0
O350 O 0.27643 0.55644 0.56406 0.0
O351 O 0.25175 0.60813 0.63715 0.0
H352 H 0.34438 0.66681 0.59859 0.0
H353 H 0.30426 0.60905 0.68283 0.0
O354 O 0.21804 0.58996 0.59521 0.0
O355 O 0.22341 0.64491 0.55313 0.0
O356 O 0.26265 0.66044 0.59153 0.0
C357 C 0.23602 0.66804 0.57044 0.0
H358 H 0.15018 0.54784 0.50191 0.0
H359 H 0.37865 0.67821 0.65831 0.0
H360 H 0.2527 0.33491 0.52445 0.0
H361 H 0.19161 0.33596 0.42576 0.0
H362 H 0.2547 0.39579 0.51688 0.0
H363 H 0.1944 0.39652 0.41771 0.0
H364 H 0.27083 0.50032 0.4886 0.0
H365 H 0.27779 0.44049 0.4789 0.0
H366 H 0.16508 0.4457 0.45053 0.0
H367 H 0.15792 0.50659 0.45896 0.0
C368 C 0.24033 0.34804 0.50085 0.0
C369 C 0.22197 0.33063 0.47587 0.0
C370 C 0.2417 0.38281 0.49628 0.0
C371 C 0.22458 0.40089 0.46669 0.0
C372 C 0.2076 0.38325 0.44086 0.0
C373 C 0.20639 0.34845 0.44533 0.0
C374 C 0.24746 0.48946 0.4793 0.0
C375 C 0.21332 0.5087 0.47556 0.0
C376 C 0.2516 0.45475 0.47405 0.0
C377 C 0.22186 0.43831 0.46485 0.0
C378 C 0.18852 0.45773 0.45781 0.0
C379 C 0.18433 0.49261 0.463 0.0
H380 H 0.7813 0.93887 0.84279 0.0
H381 H 0.78246 0.02859 0.77464 0.0
H382 H 0.8373 0.91432 0.81615 0.0
H383 H 0.83871 1.00353 0.74688 0.0
H384 H 0.96188 0.96942 0.74703 0.0
H385 H 0.90124 0.99189 0.76561 0.0
H386 H 0.86883 0.89109 0.76579 0.0
H387 H 0.92962 0.86857 0.74824 0.0
C388 C 0.79298 0.95289 0.82112 0.0
C389 C 0.77738 0.98564 0.81074 0.0
C390 C 0.82524 0.93877 0.80579 0.0
C391 C 0.84299 0.95701 0.77959 0.0
C392 C 0.82614 0.98897 0.76745 0.0
C393 C 0.79356 1.00313 0.78283 0.0
C394 C 0.9419 0.952 0.75138 0.0
C395 C 0.95085 0.91709 0.74652 0.0
C396 C 0.90691 0.96497 0.76153 0.0
C397 C 0.87985 0.94342 0.76699 0.0
C398 C 0.88893 0.90849 0.76222 0.0
C399 C 0.92392 0.89551 0.75222 0.0
H400 H 0.25879 0.66757 0.07892 0.0
H401 H 0.29697 0.64667 0.97142 0.0
H402 H 0.25202 0.60765 0.08943 0.0
H403 H 0.2896 0.58642 0.98183 0.0
H404 H 0.22267 0.48987 0.01959 0.0
H405 H 0.23312 0.54774 0.99967 0.0
H406 H 0.3023 0.55386 0.09139 0.0
H407 H 0.29286 0.49667 0.11067 0.0
C408 C 0.26539 0.65024 0.05741 0.0
C409 C 0.27858 0.66194 0.02443 0.0
C410 C 0.26165 0.61587 0.06345 0.0
C411 C 0.27031 0.59229 0.03645 0.0
C412 C 0.2826 0.604 1.00307 0.0
C413 C 0.28708 0.6384 0.99725 0.0
C414 C 0.24102 0.50319 0.03477 0.0
C415 C 0.25669 0.48858 0.06688 0.0
C416 C 0.2468 0.53639 0.02352 0.0
C417 C 0.268 0.55554 0.04441 0.0
C418 C 0.28537 0.54002 0.07507 0.0
C419 C 0.28003 0.50706 0.08597 0.0
H420 H 0.57284 0.06955 0.2912 0.0
H421 H 0.56079 0.00756 0.19988 0.0
H422 H 0.63391 0.04223 0.30058 0.0
H423 H 0.62284 0.97976 0.20948 0.0
H424 H 0.72949 0.92389 0.27522 0.0
H425 H 0.66717 0.94343 0.25603 0.0
H426 H 0.68954 0.04699 0.26319 0.0
H427 H 0.75103 0.02753 0.2825 0.0
C428 C 0.58297 0.04948 0.27353 0.0
C429 C 0.56181 0.04089 0.24471 0.0
C430 C 0.61825 0.03405 0.27868 0.0
C431 C 0.63374 0.00945 0.25518 0.0
C432 C 0.61182 0.99882 0.2279 0.0
C433 C 0.57616 0.0145 0.22261 0.0
C434 C 0.72154 0.95077 0.27083 0.0
C435 C 0.74538 0.9742 0.2798 0.0
C436 C 0.68568 0.96198 0.26033 0.0
C437 C 0.67308 0.99679 0.2589 0.0
C438 C 0.69805 0.02001 0.26472 0.0
C439 C 0.73356 0.00888 0.27518 0.0
H440 H 0.74793 0.22539 0.54222 0.0
H441 H 0.79297 0.23847 0.43596 0.0
H442 H 0.76115 0.16484 0.53859 0.0
H443 H 0.80476 0.17734 0.4319 0.0
H444 H 0.82625 0.06597 0.43213 0.0
H445 H 0.83382 0.12204 0.45235 0.0
H446 H 0.72852 0.12851 0.50214 0.0
H447 H 0.72148 0.07169 0.48308 0.0
C448 C 0.76145 0.21573 0.51834 0.0
C449 C 0.76816 0.23719 0.48872 0.0
C450 C 0.76874 0.1807 0.51625 0.0
C451 C 0.78293 0.16629 0.4846 0.0
C452 C 0.79354 0.18766 0.45665 0.0
C453 C 0.78641 0.22278 0.4588 0.0
C454 C 0.8051 0.07876 0.44834 0.0
C455 C 0.77296 0.06436 0.4557 0.0
C456 C 0.8094 0.11113 0.45964 0.0
C457 C 0.78171 0.12982 0.47854 0.0
C458 C 0.75056 0.11465 0.48787 0.0
C459 C 0.74626 0.08225 0.47657 0.0
H460 H 0.03329 0.51343 0.63963 0.0
H461 H 0.08423 0.46326 0.73425 0.0
H462 H 0.07973 0.55133 0.63651 0.0
H463 H 0.12996 0.50234 0.73212 0.0
H464 H 0.23095 0.53988 0.67217 0.0
H465 H 0.18108 0.51044 0.69459 0.0
H466 H 0.10569 0.59689 0.66214 0.0
H467 H 0.15571 0.62542 0.63845 0.0
C468 C 0.05416 0.51068 0.66003 0.0
C469 C 0.05509 0.48494 0.68689 0.0
C470 C 0.08059 0.53286 0.65862 0.0
C471 C 0.10869 0.53006 0.68416 0.0
C472 C 0.10891 0.50511 0.71186 0.0
C473 C 0.08242 0.48284 0.71324 0.0
C474 C 0.20385 0.55312 0.67155 0.0
C475 C 0.19704 0.58497 0.65409 0.0
C476 C 0.17515 0.53621 0.68415 0.0
C477 C 0.13919 0.55098 0.67946 0.0
C478 C 0.13293 0.58442 0.6654 0.0
C479 C 0.16157 0.60108 0.65245 0.0
H480 H 0.73786 0.89496 0.95422 0.0
H481 H 0.8481 0.91099 0.97588 0.0
H482 H 0.75544 0.83378 0.95416 0.0
H483 H 0.86572 0.84978 0.97612 0.0
H484 H 0.89312 0.74563 0.93284 0.0
H485 H 0.86959 0.80528 0.92905 0.0
H486 H 0.77957 0.78492 0.99627 0.0
H487 H 0.80323 0.72491 1.00035 0.0
C488 C 0.76583 0.88535 0.95916 0.0
C489 C 0.79166 0.90778 0.96488 0.0
C490 C 0.77584 0.85034 0.95928 0.0
C491 C 0.81201 0.83699 0.96466 0.0
C492 C 0.8377 0.85936 0.9713 0.0
C493 C 0.82759 0.89437 0.97163 0.0
C494 C 0.8678 0.7536 0.94612 0.0
C495 C 0.85021 0.73041 0.96711 0.0
C496 C 0.85459 0.78791 0.94429 0.0
C497 C 0.82325 0.79993 0.96309 0.0
C498 C 0.80391 0.77642 0.98162 0.0
C499 C 0.81732 0.74197 0.98371 0.0
H500 H 0.46419 0.51545 0.31375 0.0
H501 H 0.46887 0.48278 0.20362 0.0
H502 H 0.41676 0.48057 0.32644 0.0
H503 H 0.42055 0.44869 0.21643 0.0
H504 H 0.3286 0.40029 0.23123 0.0
H505 H 0.39035 0.40496 0.24776 0.0
H506 H 0.3553 0.49598 0.3045 0.0
H507 H 0.29312 0.49069 0.2891 0.0
C508 C 0.45589 0.50056 0.29219 0.0
C509 C 0.46943 0.50362 0.25686 0.0
C510 C 0.42856 0.48031 0.29977 0.0
C511 C 0.41422 0.46262 0.27232 0.0
C512 C 0.43086 0.46214 0.2383 0.0
C513 C 0.45827 0.48233 0.2307 0.0
C514 C 0.33352 0.42054 0.24857 0.0
C515 C 0.30591 0.44631 0.25722 0.0
C516 C 0.36921 0.42318 0.25794 0.0
C517 C 0.37782 0.45155 0.27604 0.0
C518 C 0.34967 0.47399 0.29002 0.0
C519 C 0.31394 0.47125 0.2808 0.0
H520 H 0.5463 0.16777 0.34691 0.0
H521 H 0.5425 0.26499 0.2909 0.0
H522 H 0.55205 0.19492 0.40398 0.0
H523 H 0.54975 0.29196 0.34796 0.0
H524 H 0.54444 0.3357 0.45909 0.0
H525 H 0.52241 0.30694 0.40727 0.0
H526 H 0.60086 0.22033 0.4309 0.0
H527 H 0.62225 0.24876 0.48202 0.0
C528 C 0.54645 0.19495 0.3467 0.0
C529 C 0.54427 0.21407 0.31412 0.0
C530 C 0.54993 0.21052 0.37947 0.0
C531 C 0.55142 0.24563 0.38058 0.0
C532 C 0.54827 0.26493 0.34815 0.0
C533 C 0.54477 0.24934 0.31532 0.0
C534 C 0.55596 0.3101 0.45371 0.0
C535 C 0.58491 0.29434 0.47443 0.0
C536 C 0.54375 0.2938 0.42388 0.0
C537 C 0.56006 0.26141 0.41479 0.0
C538 C 0.58738 0.24503 0.43721 0.0
C539 C 0.59973 0.26136 0.4665 0.0
H540 H 0.07005 0.28427 0.48715 0.0
H541 H 0.06561 0.18135 0.52494 0.0
H542 H 0.04116 0.30491 0.54223 0.0
H543 H 0.03718 0.20205 0.58122 0.0
H544 H 0.96665 0.26347 0.67275 0.0
H545 H 0.98542 0.23636 0.61565 0.0
H546 H 0.06692 0.30433 0.60196 0.0
H547 H 0.0484 0.33096 0.65757 0.0
C548 C 0.06173 0.26601 0.5068 0.0
C549 C 0.06969 0.23118 0.50126 0.0
C550 C 0.04564 0.27782 0.5388 0.0
C551 C 0.03753 0.25523 0.56687 0.0
C552 C 0.04296 0.22026 0.56034 0.0
C553 C 0.05895 0.20836 0.52788 0.0
C554 C 0.98894 0.27211 0.65774 0.0
C555 C 0.00571 0.2997 0.66978 0.0
C556 C 0.99961 0.25671 0.62489 0.0
C557 C 0.0271 0.26872 0.60341 0.0
C558 C 0.04488 0.29499 0.61681 0.0
C559 C 0.03438 0.31016 0.64914 0.0
H560 H 0.99201 0.71108 0.74968 0.0
H561 H 0.10146 0.73683 0.74561 0.0
H562 H 0.00666 0.67588 0.80273 0.0
H563 H 0.11591 0.70197 0.79991 0.0
H564 H 0.07376 0.72056 0.92153 0.0
H565 H 0.09129 0.72176 0.85864 0.0
H566 H 0.03957 0.63189 0.84187 0.0
H567 H 0.02096 0.63126 0.90418 0.0
C568 C 0.0196 0.70834 0.75916 0.0
C569 C 0.04498 0.72831 0.74437 0.0
C570 C 0.02816 0.68783 0.78975 0.0
C571 C 0.06221 0.68699 0.8062 0.0
C572 C 0.08919 0.70283 0.7883 0.0
C573 C 0.08072 0.72307 0.75739 0.0
C574 C 0.06702 0.70048 0.90473 0.0
C575 C 0.04427 0.67701 0.91761 0.0
C576 C 0.07755 0.70083 0.86868 0.0
C577 C 0.06565 0.67754 0.84503 0.0
C578 C 0.04832 0.65064 0.85934 0.0
C579 C 0.03766 0.65037 0.89533 0.0
H580 H 0.4492 0.6709 0.20432 0.0
H581 H 0.54093 0.72782 0.20168 0.0
H582 H 0.42786 0.69787 0.14751 0.0
H583 H 0.51946 0.75498 0.14373 0.0
H584 H 0.47864 0.74821 0.01628 0.0
H585 H 0.50717 0.73217 0.07545 0.0
H586 H 0.40491 0.75915 0.12773 0.0
H587 H 0.37689 0.77429 0.06983 0.0
C588 C 0.46451 0.68966 0.19181 0.0
C589 C 0.49643 0.6976 0.20771 0.0
C590 C 0.45238 0.70503 0.15916 0.0
C591 C 0.47203 0.72849 0.1411 0.0
C592 C 0.5039 0.73686 0.15701 0.0
C593 C 0.51584 0.72175 0.19033 0.0
C594 C 0.46269 0.75126 0.04058 0.0
C595 C 0.42545 0.76185 0.03847 0.0
C596 C 0.47893 0.74224 0.07436 0.0
C597 C 0.45804 0.74396 0.10613 0.0
C598 C 0.42156 0.75702 0.10379 0.0
C599 C 0.40554 0.76568 0.07054 0.0
H600 H 0.11281 0.22496 0.32087 0.0
H601 H 0.15932 0.30463 0.37417 0.0
H602 H 0.11707 0.25527 0.26305 0.0
H603 H 0.16328 0.3349 0.31645 0.0
H604 H 0.14309 0.39486 0.21514 0.0
H605 H 0.12337 0.36398 0.26775 0.0
H606 H 0.1705 0.26997 0.22348 0.0
H607 H 0.19022 0.30132 0.17017 0.0
C608 C 0.12325 0.24927 0.32039 0.0
C609 C 0.13569 0.26247 0.35218 0.0
C610 C 0.12595 0.2664 0.28721 0.0
C611 C 0.14055 0.29734 0.28522 0.0
C612 C 0.15156 0.31122 0.31719 0.0
C613 C 0.14933 0.2939 0.35027 0.0
C614 C 0.14833 0.36747 0.21617 0.0
C615 C 0.16829 0.35037 0.18883 0.0
C616 C 0.13727 0.34986 0.24639 0.0
C617 C 0.14603 0.31471 0.25004 0.0
C618 C 0.16337 0.29713 0.22128 0.0
C619 C 0.1745 0.31493 0.19075 0.0
H620 H 0.98833 0.94816 0.59741 0.0
H621 H 0.98115 0.84049 0.60106 0.0
H622 H 0.95549 0.95354 0.54038 0.0
H623 H 0.94835 0.846 0.54381 0.0
H624 H 0.91705 0.87188 0.42138 0.0
H625 H 0.95544 0.86322 0.47562 0.0
H626 H 0.89103 0.9462 0.52532 0.0
H627 H 0.85312 0.95464 0.47244 0.0
C628 C 0.97984 0.92563 0.58605 0.0
C629 C 0.98702 0.89398 0.60408 0.0
C630 C 0.96104 0.9287 0.55334 0.0
C631 C 0.94928 0.90017 0.53762 0.0
C632 C 0.95731 0.86837 0.55509 0.0
C633 C 0.97578 0.86533 0.58807 0.0
C634 C 0.91114 0.8881 0.44399 0.0
C635 C 0.88189 0.91383 0.44246 0.0
C636 C 0.93303 0.88314 0.475 0.0
C637 C 0.92642 0.90429 0.5046 0.0
C638 C 0.8972 0.92982 0.50287 0.0
C639 C 0.87524 0.93442 0.47245 0.0
H640 H 0.41131 0.64625 0.7113 0.0
H641 H 0.29919 0.64383 0.73851 0.0
H642 H 0.42432 0.65979 0.77316 0.0
H643 H 0.31149 0.65872 0.79992 0.0
H644 H 0.33928 0.68294 0.91067 0.0
H645 H 0.33869 0.64847 0.8576 0.0
H646 H 0.41193 0.71041 0.80408 0.0
H647 H 0.41354 0.74373 0.85719 0.0
C648 C 0.38958 0.64823 0.73077 0.0
C649 C 0.35422 0.64447 0.72019 0.0
C650 C 0.39692 0.6561 0.76612 0.0
C651 C 0.36886 0.66101 0.79145 0.0
C652 C 0.3339 0.65484 0.78136 0.0
C653 C 0.32672 0.64643 0.7461 0.0
C654 C 0.35595 0.68859 0.88785 0.0
C655 C 0.37606 0.71637 0.88793 0.0
C656 C 0.35542 0.66898 0.85734 0.0
C657 C 0.37482 0.6769 0.82629 0.0
C658 C 0.39692 0.7032 0.82751 0.0
C659 C 0.39766 0.72258 0.858 0.0
H660 H 0.5829 0.13786 0.13794 0.0
H661 H 0.50607 0.08123 0.08709 0.0
H662 H 0.62045 0.13358 0.08381 0.0
H663 H 0.54355 0.07685 0.03335 0.0
H664 H 0.69709 0.07246 1.00301 0.0
H665 H 0.65818 0.0878 0.05395 0.0
H666 H 0.56694 0.10902 0.98215 0.0
H667 H 0.6061 0.09337 0.93085 0.0
C668 C 0.57387 0.12472 0.11518 0.0
C669 C 0.54153 0.10973 0.11703 0.0
C670 C 0.59545 0.12217 0.08418 0.0
C671 C 0.58506 0.10486 0.05414 0.0
C672 C 0.55221 0.09073 0.0557 0.0
C673 C 0.53083 0.09302 0.08673 0.0
C674 C 0.66884 0.08093 0.99792 0.0
C675 C 0.65471 0.08154 0.96279 0.0
C676 C 0.64652 0.0899 0.0272 0.0
C677 C 0.60934 0.09945 0.02228 0.0
C678 C 0.5954 0.10141 0.98695 0.0
C679 C 0.61788 0.09274 0.9575 0.0
H680 H 0.70583 0.24 0.59579 0.0
H681 H 0.59661 0.27255 0.6293 0.0
H682 H 0.70892 0.19285 0.64038 0.0
H683 H 0.59981 0.22611 0.67351 0.0
H684 H 0.60248 0.1235 0.727 0.0
H685 H 0.60317 0.16404 0.67663 0.0
H686 H 0.70937 0.1854 0.70807 0.0
H687 H 0.70864 0.14487 0.75879 0.0
C688 C 0.68246 0.23696 0.61241 0.0
C689 C 0.65099 0.26001 0.60899 0.0
C690 C 0.6843 0.21013 0.63805 0.0
C691 C 0.65454 0.20568 0.66035 0.0
C692 C 0.62301 0.22848 0.65641 0.0
C693 C 0.62128 0.25529 0.63116 0.0
C694 C 0.62599 0.13682 0.72328 0.0
C695 C 0.65526 0.13122 0.74732 0.0
C696 C 0.62643 0.15999 0.69431 0.0
C697 C 0.65618 0.17818 0.68857 0.0
C698 C 0.68618 0.17158 0.71161 0.0
C699 C 0.68572 0.14836 0.74072 0.0
H700 H 0.12 0.32658 0.98887 0.0
H701 H 0.18345 0.4027 0.94683 0.0
H702 H 0.09159 0.32369 0.93057 0.0
H703 H 0.15632 0.39892 0.88715 0.0
H704 H 0.06612 0.40741 0.79913 0.0
H705 H 0.10326 0.41081 0.85235 0.0
H706 H 0.10256 0.3033 0.87326 0.0
H707 H 0.06348 0.30056 0.82132 0.0
C708 C 0.12793 0.34258 0.96682 0.0
C709 C 0.15385 0.36477 0.97211 0.0
C710 C 0.11206 0.34066 0.93321 0.0
C711 C 0.12224 0.36043 0.90366 0.0
C712 C 0.14773 0.38333 0.90921 0.0
C713 C 0.16323 0.38563 0.94328 0.0
C714 C 0.07473 0.38435 0.81461 0.0
C715 C 0.06164 0.35375 0.80636 0.0
C716 C 0.09603 0.3863 0.84523 0.0
C717 C 0.10515 0.35753 0.86783 0.0
C718 C 0.09494 0.32627 0.85733 0.0
C719 C 0.07299 0.32451 0.82724 0.0
H720 H 0.91434 0.79223 0.26838 0.0
H721 H 0.8488 0.86577 0.20177 0.0
H722 H 0.91938 0.75269 0.21894 0.0
H723 H 0.85472 0.82646 0.15158 0.0
H724 H 0.9243 0.75724 0.06536 0.0
H725 H 0.91498 0.79753 0.11418 0.0
H726 H 0.87067 0.72185 0.18091 0.0
H727 H 0.87887 0.68197 0.13198 0.0
C728 C 0.90093 0.7998 0.24311 0.0
C729 C 0.88109 0.83194 0.23886 0.0
C730 C 0.90377 0.77723 0.21489 0.0
C731 C 0.88761 0.7866 0.18141 0.0
C732 C 0.86759 0.81871 0.17709 0.0
C733 C 0.86395 0.84103 0.20576 0.0
C734 C 0.91264 0.74922 0.09048 0.0
C735 C 0.9025 0.71636 0.09488 0.0
C736 C 0.90704 0.77235 0.11825 0.0
C737 C 0.89202 0.76279 0.15124 0.0
C738 C 0.8823 0.72985 0.15576 0.0
C739 C 0.88704 0.70706 0.12776 0.0
H740 H 0.37912 0.63889 0.53123 0.0
H741 H 0.29602 0.61748 0.45717 0.0
H742 H 0.41944 0.64654 0.48026 0.0
H743 H 0.33584 0.62559 0.40679 0.0
H744 H 0.43424 0.59715 0.33395 0.0
H745 H 0.39118 0.59449 0.38307 0.0
H746 H 0.42583 0.68479 0.42667 0.0
H747 H 0.46918 0.68735 0.3778 0.0
C748 C 0.3694 0.63609 0.50417 0.0
C749 C 0.33455 0.62737 0.49825 0.0
C750 C 0.39235 0.64063 0.47504 0.0
C751 C 0.38074 0.63646 0.43963 0.0
C752 C 0.34566 0.62845 0.4338 0.0
C753 C 0.32284 0.62396 0.46274 0.0
C754 C 0.43228 0.61673 0.35367 0.0
C755 C 0.45512 0.6424 0.35205 0.0
C756 C 0.40764 0.61522 0.3818 0.0
C757 C 0.40543 0.63931 0.40881 0.0
C758 C 0.42741 0.66561 0.40651 0.0
C759 C 0.45196 0.66721 0.37834 0.0
H760 H 0.28042 0.1883 0.42323 0.0
H761 H 0.22233 0.13852 0.34426 0.0
H762 H 0.33702 0.16986 0.39359 0.0
H763 H 0.27918 0.12098 0.3135 0.0
H764 H 0.38921 0.07179 0.2799 0.0
H765 H 0.33466 0.08533 0.3153 0.0
H766 H 0.37119 0.18054 0.34246 0.0
H767 H 0.42623 0.16637 0.30813 0.0
C768 C 0.27967 0.17351 0.39933 0.0
C769 C 0.24665 0.16501 0.3861 0.0
C770 C 0.3123 0.16306 0.38213 0.0
C771 C 0.31304 0.14402 0.35085 0.0
C772 C 0.27997 0.13519 0.33778 0.0
C773 C 0.24722 0.14542 0.35527 0.0
C774 C 0.38597 0.0953 0.29408 0.0
C775 C 0.41235 0.11787 0.29127 0.0
C776 C 0.35434 0.10331 0.31404 0.0
C777 C 0.34798 0.13427 0.33159 0.0
C778 C 0.37506 0.15627 0.32981 0.0
C779 C 0.40682 0.14813 0.31007 0.0
H780 H 0.18136 0.08623 0.48371 0.0
H781 H 0.16314 0.16776 0.5578 0.0
H782 H 0.16924 0.04576 0.53152 0.0
H783 H 0.14942 0.12751 0.60545 0.0
H784 H 0.13262 0.04187 0.68658 0.0
H785 H 0.16435 0.07759 0.64547 0.0
H786 H 0.11002 0.03954 0.55537 0.0
H787 H 0.07887 1.00403 0.59617 0.0
C788 C 0.17573 0.09527 0.51056 0.0
C789 C 0.17273 0.12995 0.51719 0.0
C790 C 0.16849 0.07223 0.53782 0.0
C791 C 0.15732 0.08365 0.57188 0.0
C792 C 0.15794 0.11797 0.57946 0.0
C793 C 0.16583 0.14101 0.55224 0.0
C794 C 0.12747 0.04135 0.65798 0.0
C795 C 0.10337 0.02015 0.64448 0.0
C796 C 0.14575 0.06159 0.6345 0.0
C797 C 0.14015 0.06093 0.59719 0.0
C798 C 0.11583 0.03986 0.58388 0.0
C799 C 0.09776 0.01965 0.60724 0.0
H800 H 0.10263 0.81571 0.79384 0.0
H801 H 0.13368 0.91596 0.77467 0.0
H802 H 0.1548 0.80166 0.8332 0.0
H803 H 0.18568 0.90204 0.81446 0.0
H804 H 0.29734 0.85147 0.85662 0.0
H805 H 0.24437 0.86778 0.81811 0.0
H806 H 0.1795 0.81293 0.89036 0.0
H807 H 0.23192 0.79641 0.92814 0.0
C808 C 0.12021 0.835 0.79845 0.0
C809 C 0.11358 0.86709 0.78111 0.0
C810 C 0.15029 0.82693 0.82112 0.0
C811 C 0.17483 0.85063 0.82711 0.0
C812 C 0.16784 0.88291 0.81022 0.0
C813 C 0.13766 0.89104 0.78766 0.0
C814 C 0.27174 0.843 0.86428 0.0
C815 C 0.26919 0.8225 0.89555 0.0
C816 C 0.24124 0.85247 0.84227 0.0
C817 C 0.20742 0.84157 0.85086 0.0
C818 C 0.205 0.8214 0.88235 0.0
C819 C 0.23525 0.81207 0.90426 0.0
H820 H 0.36511 0.97345 0.17955 0.0
H821 H 0.44204 0.9922 0.09667 0.0
H822 H 0.34405 0.92876 0.1444 0.0
H823 H 0.42137 0.94704 0.06143 0.0
H824 H 0.34409 0.90298 0.98825 0.0
H825 H 0.3637 0.94388 0.02888 0.0
H826 H 0.36021 0.87185 0.11789 0.0
H827 H 0.34019 0.83061 0.07683 0.0
C828 C 0.37796 0.96749 0.15402 0.0
C829 C 0.40496 0.98647 0.1406 0.0
C830 C 0.36597 0.94184 0.13398 0.0
C831 C 0.38053 0.93479 0.09986 0.0
C832 C 0.40912 0.95238 0.08738 0.0
C833 C 0.42134 0.97789 0.10766 0.0
C834 C 0.34656 0.89612 0.01667 0.0
C835 C 0.3407 0.86352 0.02933 0.0
C836 C 0.35841 0.91938 0.03984 0.0
C837 C 0.36464 0.91074 0.07637 0.0
C838 C 0.35597 0.87912 0.08976 0.0
C839 C 0.3441 0.85564 0.06637 0.0
H840 H 0.85045 0.34137 0.73316 0.0
H841 H 0.8849 0.4254 0.67073 0.0
H842 H 0.79165 0.35064 0.70422 0.0
H843 H 0.82548 0.43529 0.64241 0.0
H844 H 0.74687 0.39446 0.56109 0.0
H845 H 0.79746 0.40398 0.59858 0.0
H846 H 0.73463 0.3862 0.69379 0.0
H847 H 0.68365 0.37595 0.65557 0.0
C848 C 0.84531 0.36215 0.7136 0.0
C849 C 0.87257 0.38227 0.70374 0.0
C850 C 0.81136 0.36776 0.69735 0.0
C851 C 0.80383 0.3937 0.67097 0.0
C852 C 0.83058 0.41485 0.66236 0.0
C853 C 0.86464 0.40913 0.6785 0.0
C854 C 0.7435 0.39349 0.59006 0.0
C855 C 0.71164 0.38403 0.60553 0.0
C856 C 0.77247 0.3992 0.61162 0.0
C857 C 0.7703 0.39543 0.64921 0.0
C858 C 0.73725 0.38879 0.66484 0.0
C859 C 0.70798 0.38326 0.64308 0.0
H860 H 0.95761 0.47573 0.78218 0.0
H861 H 0.92596 0.40766 0.8663 0.0
H862 H 0.94822 0.52256 0.822 0.0
H863 H 0.9165 0.45564 0.90696 0.0
H864 H 0.86926 0.5594 0.95431 0.0
H865 H 0.87754 0.51023 0.91632 0.0
H866 H 0.97592 0.54367 0.87432 0.0
H867 H 0.96758 0.59299 0.91227 0.0
C868 C 0.94857 0.47056 0.8093 0.0
C869 C 0.94268 0.43749 0.82086 0.0
C870 C 0.94344 0.4977 0.83234 0.0
C871 C 0.93205 0.49307 0.86795 0.0
C872 C 0.92526 0.46021 0.87962 0.0
C873 C 0.93068 0.43265 0.85637 0.0
C874 C 0.8926 0.55647 0.93683 0.0
C875 C 0.91761 0.58053 0.93624 0.0
C876 C 0.89751 0.52795 0.91528 0.0
C877 C 0.92741 0.52274 0.8922 0.0
C878 C 0.95232 0.54692 0.89145 0.0
C879 C 0.94755 0.57532 0.91321 0.0
H880 H 0.78087 0.56119 0.11901 0.0
H881 H 0.75676 0.66744 0.08975 0.0
H882 H 0.73359 0.56646 0.16423 0.0
H883 H 0.70946 0.67276 0.13554 0.0
H884 H 0.61571 0.58179 0.20169 0.0
H885 H 0.66632 0.57779 0.16024 0.0
H886 H 0.70219 0.66761 0.20372 0.0
H887 H 0.65105 0.67196 0.24534 0.0
C888 C 0.76526 0.5856 0.122 0.0
C889 C 0.77213 0.61383 0.10053 0.0
C890 C 0.7384 0.58863 0.14803 0.0
C891 C 0.71797 0.61996 0.15312 0.0
C892 C 0.72522 0.64841 0.13227 0.0
C893 C 0.75212 0.64535 0.10609 0.0
C894 C 0.63445 0.60062 0.2026 0.0
C895 C 0.62951 0.6272 0.22668 0.0
C896 C 0.66347 0.59821 0.179 0.0
C897 C 0.688 0.62237 0.17897 0.0
C898 C 0.68336 0.64884 0.2032 0.0
C899 C 0.65434 0.65117 0.22707 0.0
H900 H 0.67566 0.40858 0.43942 0.0
H901 H 0.59377 0.45299 0.5117 0.0
H902 H 0.66678 0.45964 0.40057 0.0
H903 H 0.58476 0.50364 0.47279 0.0
H904 H 0.58993 0.59989 0.40487 0.0
H905 H 0.61244 0.55367 0.44741 0.0
H906 H 0.61604 0.48285 0.36146 0.0
H907 H 0.59401 0.52844 0.3195 0.0
C908 C 0.656 0.42928 0.44715 0.0
C909 C 0.63514 0.42655 0.4784 0.0
C910 C 0.65091 0.45851 0.42493 0.0
C911 C 0.62503 0.48566 0.43362 0.0
C912 C 0.60521 0.48339 0.46558 0.0
C913 C 0.61013 0.45415 0.48766 0.0
C914 C 0.5962 0.57452 0.39513 0.0
C915 C 0.58992 0.5677 0.35902 0.0
C916 C 0.60886 0.54808 0.41941 0.0
C917 C 0.61595 0.51461 0.40776 0.0
C918 C 0.61129 0.50833 0.37126 0.0
C919 C 0.59832 0.53448 0.34726 0.0
H920 H 0.28437 0.31621 0.08275 0.0
H921 H 0.33086 0.36274 0.17223 0.0
H922 H 0.32309 0.26405 0.09548 0.0
H923 H 0.37141 0.31092 0.1838 0.0
H924 H 0.4042 0.20464 0.22589 0.0
H925 H 0.36733 0.25719 0.20889 0.0
H926 H 0.37983 0.23252 0.09665 0.0
H927 H 0.41518 0.17874 0.11443 0.0
C928 C 0.30363 0.31564 0.1046 0.0
C929 C 0.30425 0.34359 0.12675 0.0
C930 C 0.32602 0.28558 0.11185 0.0
C931 C 0.35006 0.28283 0.14111 0.0
C932 C 0.35244 0.31166 0.16172 0.0
C933 C 0.32955 0.34159 0.15483 0.0
C934 C 0.39834 0.21031 0.19764 0.0
C935 C 0.41194 0.18773 0.17142 0.0
C936 C 0.37778 0.24069 0.18777 0.0
C937 C 0.37107 0.24966 0.15129 0.0
C938 C 0.38413 0.22646 0.12502 0.0
C939 C 0.40423 0.19561 0.13507 0.0
H940 H 0.8643 0.24582 0.7815 0.0
H941 H 0.92662 0.21833 0.87788 0.0
H942 H 0.82785 0.19973 0.7948 0.0
H943 H 0.88927 0.17379 0.89215 0.0
H944 H 0.83142 0.07766 0.89631 0.0
H945 H 0.87193 0.1202 0.88034 0.0
H946 H 0.78203 0.18494 0.83327 0.0
H947 H 0.7424 0.14247 0.8481 0.0
C948 C 0.87039 0.23001 0.80545 0.0
C949 C 0.89831 0.23648 0.82872 0.0
C950 C 0.84911 0.20367 0.81344 0.0
C951 C 0.855 0.18292 0.845 0.0
C952 C 0.88371 0.18879 0.86755 0.0
C953 C 0.90499 0.21493 0.85952 0.0
C954 C 0.82036 0.10109 0.8828 0.0
C955 C 0.78352 0.10641 0.8736 0.0
C956 C 0.8436 0.12564 0.87355 0.0
C957 C 0.83062 0.15626 0.85499 0.0
C958 C 0.79359 0.1616 0.8466 0.0
C959 C 0.7706 0.13717 0.85558 0.0
H960 H 0.13677 0.50486 0.16287 0.0
H961 H 0.09826 0.4404 0.08352 0.0
H962 H 0.08013 0.54239 0.15766 0.0
H963 H 0.0423 0.47789 0.07813 0.0
H964 H 0.9405 0.5461 0.07659 0.0
H965 H 0.98579 0.50497 0.10646 0.0
H966 H 0.06124 0.57968 0.10456 0.0
H967 H 0.01642 0.62038 0.07522 0.0
C968 C 0.11605 0.49846 0.14478 0.0
C969 C 0.12217 0.47021 0.12299 0.0
C970 C 0.08368 0.51981 0.14193 0.0
C971 C 0.05699 0.51305 0.11741 0.0
C972 C 0.0622 0.48351 0.09756 0.0
C973 C 0.09451 0.46232 0.10026 0.0
C974 C 0.96653 0.55378 0.08335 0.0
C975 C 0.97539 0.58601 0.07297 0.0
C976 C 0.99233 0.53037 0.10041 0.0
C977 C 0.02699 0.53917 0.10762 0.0
C978 C 0.03466 0.57229 0.0997 0.0
C979 C 0.00915 0.59544 0.08242 0.0
H980 H 0.79042 0.82897 0.36836 0.0
H981 H 0.70352 0.91057 0.37321 0.0
H982 H 0.74636 0.78832 0.36346 0.0
H983 H 0.65947 0.86981 0.36741 0.0
H984 H 0.60586 0.78578 0.30372 0.0
H985 H 0.64933 0.82709 0.31176 0.0
H986 H 0.69201 0.77045 0.40627 0.0
H987 H 0.64831 0.72986 0.39861 0.0
C988 C 0.76189 0.83808 0.36886 0.0
C989 C 0.75022 0.87274 0.37145 0.0
C990 C 0.73682 0.81492 0.36594 0.0
C991 C 0.69979 0.8262 0.36474 0.0
C992 C 0.68801 0.86075 0.36802 0.0
C993 C 0.7131 0.88388 0.37177 0.0
C994 C 0.62473 0.78231 0.326 0.0
C995 C 0.6239 0.75501 0.35066 0.0
C996 C 0.64921 0.80588 0.33077 0.0
C997 C 0.6736 0.80182 0.35976 0.0
C998 C 0.67333 0.77402 0.38382 0.0
C999 C 0.64842 0.75098 0.37949 0.0
H1000 H 0.49727 0.44175 0.64353 0.0
H1001 H 0.47398 0.38632 0.55024 0.0
H1002 H 0.43732 0.47241 0.64079 0.0
H1003 H 0.41278 0.41634 0.54793 0.0
H1004 H 0.32942 0.51391 0.53115 0.0
H1005 H 0.38146 0.47058 0.53386 0.0
H1006 H 0.37603 0.46888 0.65017 0.0
H1007 H 0.32572 0.51373 0.64711 0.0
C1008 C 0.47894 0.43569 0.6228 0.0
C1009 C 0.4902 0.41162 0.59719 0.0
C1010 C 0.44434 0.45309 0.62132 0.0
C1011 C 0.41978 0.44654 0.59445 0.0
C1012 C 0.43099 0.42219 0.56886 0.0
C1013 C 0.46598 0.40502 0.57012 0.0
C1014 C 0.33881 0.50342 0.55718 0.0
C1015 C 0.32408 0.51724 0.58894 0.0
C1016 C 0.36866 0.4786 0.55881 0.0
C1017 C 0.3837 0.46691 0.59229 0.0
C1018 C 0.36606 0.4782 0.62394 0.0
C1019 C 0.33694 0.50354 0.62228 0.0
H1020 H 0.26984 0.72354 0.58036 0.0
H1021 H 0.16573 0.69236 0.55586 0.0
H1022 H 0.24172 0.78081 0.59027 0.0
H1023 H 0.1373 0.74958 0.56669 0.0
H1024 H 0.16659 0.83873 0.67671 0.0
H1025 H 0.20491 0.79761 0.64235 0.0
H1026 H 0.12843 0.81111 0.55434 0.0
H1027 H 0.09002 0.85212 0.58935 0.0
C1028 C 0.24096 0.72919 0.57639 0.0
C1029 C 0.21973 0.7035 0.56811 0.0
C1030 C 0.22492 0.76195 0.58205 0.0
C1031 C 0.1873 0.76956 0.57991 0.0
C1032 C 0.16644 0.74458 0.56832 0.0
C1033 C 0.18261 0.71176 0.56229 0.0
C1034 C 0.15907 0.83411 0.64932 0.0
C1035 C 0.12593 0.84862 0.63526 0.0
C1036 C 0.18086 0.81052 0.62958 0.0
C1037 C 0.16945 0.80087 0.59571 0.0
C1038 C 0.1377 0.81784 0.58045 0.0
C1039 C 0.116 0.84153 0.60021 0.0
H1040 H 0.51097 0.84675 0.94134 0.0
H1041 H 0.45566 0.92138 0.86816 0.0
H1042 H 0.56523 0.87613 0.93719 0.0
H1043 H 0.50862 0.95156 0.86502 0.0
H1044 H 0.61631 0.98196 0.83373 0.0
H1045 H 0.56524 0.94954 0.83992 0.0
H1046 H 0.59575 0.92291 0.95021 0.0
H1047 H 0.64818 0.95421 0.94317 0.0
C1048 C 0.51025 0.86976 0.92486 0.0
C1049 C 0.47912 0.88151 0.90478 0.0
C1050 C 0.54137 0.88672 0.92243 0.0
C1051 C 0.54199 0.91615 0.90019 0.0
C1052 C 0.51008 0.92847 0.88145 0.0
C1053 C 0.47939 0.9113 0.88346 0.0
C1054 C 0.61238 0.96893 0.85923 0.0
C1055 C 0.63644 0.97085 0.88794 0.0
C1056 C 0.58266 0.95053 0.863 0.0
C1057 C 0.57547 0.93387 0.89587 0.0
C1058 C 0.60019 0.93507 0.92438 0.0
C1059 C 0.63034 0.95315 0.92039 0.0
H1060 H 0.86014 0.04954 0.36946 0.0
H1061 H 0.93085 0.97056 0.31994 0.0
H1062 H 0.91102 0.08204 0.37733 0.0
H1063 H 0.98183 1.00189 0.3294 0.0
H1064 H 0.06272 0.07593 0.32195 0.0
H1065 H 0.01036 0.04767 0.31153 0.0
H1066 H 0.96388 0.08446 0.41148 0.0
H1067 H 0.01565 0.11556 0.42051 0.0
C1068 C 0.8865 0.03928 0.35992 0.0
C1069 C 0.89135 0.00762 0.3437 0.0
C1070 C 0.91583 0.05769 0.36492 0.0
C1071 C 0.95083 0.04468 0.35425 0.0
C1072 C 0.95536 0.01324 0.3374 0.0
C1073 C 0.926 0.99514 0.33191 0.0
C1074 C 0.04129 0.0787 0.34162 0.0
C1075 C 0.04358 0.09875 0.3719 0.0
C1076 C 0.01121 0.0618 0.33585 0.0
C1077 C 0.9826 0.06352 0.36061 0.0
C1078 C 0.98504 0.08293 0.39141 0.0
C1079 C 0.01509 0.10042 0.39693 0.0
loop_
_geom_bond_atom_site_label_1
_geom_bond_atom_site_label_2
_geom_bond_distance
_geom_bond_site_symmetry_2
_ccdc_geom_bond_type
Co0 N5 2.057 . S
Co0 O17 2.021 . S
Co0 O20 2.062 . S
Co0 O24 2.117 . S
Co0 O25 2.020 . S
C1 O21 1.259 . S
C1 O24 1.258 . S
Co2 N11 2.057 . S
Co2 O18 2.117 . S
Co2 O19 2.020 . S
Co2 O21 2.021 . S
Co2 O26 2.062 . S
C3 N5 1.316 . S
C3 N6 1.347 . S
C3 H8 0.931 . S
C4 N5 1.375 . S
C4 C7 1.350 . S
C4 H9 0.930 . S
N5 Co0 2.057 . S
N5 C3 1.316 . S
N5 C4 1.375 . S
N6 C3 1.347 . S
N6 C7 1.373 . S
C7 C4 1.350 . S
C7 N6 1.373 . S
C7 H28 0.931 . S
H8 C3 0.931 . S
H9 C4 0.930 . S
C10 O17 1.259 . S
C10 O18 1.258 . S
N11 Co2 2.057 . S
N11 C12 1.316 . S
N11 C13 1.375 . S
C12 N11 1.316 . S
C12 N14 1.347 . S
C12 H23 0.931 . S
C13 N11 1.375 . S
C13 C15 1.350 . S
C13 H22 0.930 . S
N14 C12 1.347 . S
N14 C15 1.373 . S
C15 C13 1.350 . S
C15 N14 1.373 . S
C15 H29 0.931 . S
C16 O19 1.256 . S
C16 O20 1.255 . S
O17 Co0 2.021 . S
O17 C10 1.259 . S
O18 Co2 2.117 . S
O18 C10 1.258 . S
O19 Co2 2.020 . S
O19 C16 1.256 . S
O20 Co0 2.062 . S
O20 C16 1.255 . S
O21 C1 1.259 . S
O21 Co2 2.021 . S
H22 C13 0.930 . S
H23 C12 0.931 . S
O24 Co0 2.117 . S
O24 C1 1.258 . S
O25 Co0 2.020 . S
O25 C27 1.256 . S
O26 Co2 2.062 . S
O26 C27 1.255 . S
C27 O25 1.256 . S
C27 O26 1.255 . S
H28 C7 0.931 . S
H29 C15 0.931 . S
Co30 N35 2.057 . S
Co30 O47 2.021 . S
Co30 O50 2.062 . S
Co30 O54 2.117 . S
Co30 O55 2.020 . S
C31 O51 1.259 . S
C31 O54 1.258 . S
Co32 N41 2.057 . S
Co32 O48 2.117 . S
Co32 O49 2.020 . S
Co32 O51 2.021 . S
Co32 O56 2.062 . S
C33 N35 1.316 . S
C33 N36 1.347 . S
C33 H38 0.931 . S
C34 N35 1.393 . S
C34 C37 1.343 1_455 S
C34 H39 0.921 1_455 S
N35 Co30 2.057 . S
N35 C33 1.316 . S
N35 C34 1.393 . S
N36 C33 1.347 . S
N36 C37 1.373 1_455 S
C37 C34 1.343 1_655 S
C37 N36 1.373 1_655 S
C37 H58 0.931 . S
H38 C33 0.931 . S
H39 C34 0.921 1_655 S
C40 O47 1.259 . S
C40 O48 1.258 . S
N41 Co32 2.057 . S
N41 C42 1.316 . S
N41 C43 1.375 . S
C42 N41 1.316 . S
C42 N44 1.347 . S
C42 H53 0.931 . S
C43 N41 1.375 . S
C43 C45 1.350 . S
C43 H52 0.930 . S
N44 C42 1.347 . S
N44 C45 1.373 . S
C45 C43 1.350 . S
C45 N44 1.373 . S
C45 H59 0.931 . S
C46 O49 1.256 . S
C46 O50 1.255 . S
O47 Co30 2.021 . S
O47 C40 1.259 . S
O48 Co32 2.117 . S
O48 C40 1.258 . S
O49 Co32 2.020 . S
O49 C46 1.256 . S
O50 Co30 2.062 . S
O50 C46 1.255 . S
O51 C31 1.259 . S
O51 Co32 2.021 . S
H52 C43 0.930 . S
H53 C42 0.931 . S
O54 Co30 2.117 . S
O54 C31 1.258 . S
O55 Co30 2.020 . S
O55 C57 1.256 . S
O56 Co32 2.062 . S
O56 C57 1.255 . S
C57 O55 1.256 . S
C57 O56 1.255 . S
H58 C37 0.931 . S
H59 C45 0.931 . S
Co60 N65 2.057 . S
Co60 O77 2.021 . S
Co60 O80 2.062 . S
Co60 O84 2.117 . S
Co60 O85 2.009 1_556 S
C61 O81 1.259 . S
C61 O84 1.258 . S
Co62 N71 2.057 . S
Co62 O78 2.117 . S
Co62 O79 2.020 . S
Co62 O81 2.021 . S
Co62 O86 2.062 . S
C63 N65 1.316 . S
C63 N66 1.347 1_556 S
C63 H68 0.931 . S
C64 N65 1.375 1_554 S
C64 C67 1.350 . S
C64 H69 0.930 . S
N65 Co60 2.057 . S
N65 C63 1.316 . S
N65 C64 1.375 1_556 S
N66 C63 1.347 1_554 S
N66 C67 1.373 . S
C67 C64 1.350 . S
C67 N66 1.373 . S
C67 H88 0.931 . S
H68 C63 0.931 . S
H69 C64 0.930 . S
C70 O77 1.259 . S
C70 O78 1.258 . S
N71 Co62 2.057 . S
N71 C72 1.316 . S
N71 C73 1.375 . S
C72 N71 1.316 . S
C72 N74 1.347 . S
C72 H83 0.931 . S
C73 N71 1.375 . S
C73 C75 1.350 . S
C73 H82 0.930 . S
N74 C72 1.347 . S
N74 C75 1.373 . S
C75 C73 1.350 . S
C75 N74 1.373 . S
C75 H89 0.931 . S
C76 O79 1.256 . S
C76 O80 1.255 . S
O77 Co60 2.021 . S
O77 C70 1.259 . S
O78 Co62 2.117 . S
O78 C70 1.258 . S
O79 Co62 2.020 . S
O79 C76 1.256 . S
O80 Co60 2.062 . S
O80 C76 1.255 . S
O81 C61 1.259 . S
O81 Co62 2.021 . S
H82 C73 0.930 . S
H83 C72 0.931 . S
O84 Co60 2.117 . S
O84 C61 1.258 . S
O85 Co60 2.009 1_554 S
O85 C87 1.255 1_554 S
O86 Co62 2.062 . S
O86 C87 1.255 . S
C87 O85 1.255 1_556 S
C87 O86 1.255 . S
H88 C67 0.931 . S
H89 C75 0.931 . S
Co90 N95 2.057 . S
Co90 O107 2.021 . S
Co90 O110 2.062 . S
Co90 O114 2.117 . S
Co90 O115 2.020 . S
C91 O111 1.259 . S
C91 O114 1.258 . S
Co92 N101 2.057 . S
Co92 O108 2.117 . S
Co92 O109 2.020 . S
Co92 O111 2.021 . S
Co92 O116 2.062 . S
C93 N95 1.316 . S
C93 N96 1.347 . S
C93 H98 0.931 . S
C94 N95 1.375 . S
C94 C97 1.350 . S
C94 H99 0.930 . S
N95 Co90 2.057 . S
N95 C93 1.316 . S
N95 C94 1.375 . S
N96 C93 1.347 . S
N96 C97 1.373 . S
C97 C94 1.350 . S
C97 N96 1.373 . S
C97 H118 0.931 . S
H98 C93 0.931 . S
H99 C94 0.930 . S
C100 O107 1.259 . S
C100 O108 1.258 . S
N101 Co92 2.057 . S
N101 C102 1.316 . S
N101 C103 1.375 . S
C102 N101 1.316 . S
C102 N104 1.347 . S
C102 H113 0.931 . S
C103 N101 1.375 . S
C103 C105 1.350 . S
C103 H112 0.930 . S
N104 C102 1.347 . S
N104 C105 1.373 . S
C105 C103 1.350 . S
C105 N104 1.373 . S
C105 H119 0.931 . S
C106 O109 1.256 . S
C106 O110 1.255 . S
O107 Co90 2.021 . S
O107 C100 1.259 . S
O108 Co92 2.117 . S
O108 C100 1.258 . S
O109 Co92 2.020 . S
O109 C106 1.256 . S
O110 Co90 2.062 . S
O110 C106 1.255 . S
O111 C91 1.259 . S
O111 Co92 2.021 . S
H112 C103 0.930 . S
H113 C102 0.931 . S
O114 Co90 2.117 . S
O114 C91 1.258 . S
O115 Co90 2.020 . S
O115 C117 1.256 . S
O116 Co92 2.062 . S
O116 C117 1.255 . S
C117 O115 1.256 . S
C117 O116 1.255 . S
H118 C97 0.931 . S
H119 C105 0.931 . S
Co120 N125 2.057 . S
Co120 O137 2.021 . S
Co120 O140 2.062 . S
Co120 O144 2.117 . S
Co120 O145 2.020 . S
C121 O141 1.259 . S
C121 O144 1.258 . S
Co122 N131 2.057 . S
Co122 O138 2.117 . S
Co122 O139 2.020 . S
Co122 O141 2.021 . S
Co122 O146 2.062 . S
C123 N125 1.316 . S
C123 N126 1.347 . S
C123 H128 0.931 . S
C124 N125 1.375 . S
C124 C127 1.350 . S
C124 H129 0.930 . S
N125 Co120 2.057 . S
N125 C123 1.316 . S
N125 C124 1.375 . S
N126 C123 1.347 . S
N126 C127 1.373 . S
C127 C124 1.350 . S
C127 N126 1.373 . S
C127 H148 0.931 . S
H128 C123 0.931 . S
H129 C124 0.930 . S
C130 O137 1.259 . S
C130 O138 1.258 . S
N131 Co122 2.057 . S
N131 C132 1.316 . S
N131 C133 1.375 . S
C132 N131 1.316 . S
C132 N134 1.347 . S
C132 H143 0.931 . S
C133 N131 1.375 . S
C133 C135 1.350 . S
C133 H142 0.930 . S
N134 C132 1.347 . S
N134 C135 1.373 . S
C135 C133 1.350 . S
C135 N134 1.373 . S
C135 H149 0.931 . S
C136 O139 1.256 . S
C136 O140 1.255 . S
O137 Co120 2.021 . S
O137 C130 1.259 . S
O138 Co122 2.117 . S
O138 C130 1.258 . S
O139 Co122 2.020 . S
O139 C136 1.256 . S
O140 Co120 2.062 . S
O140 C136 1.255 . S
O141 C121 1.259 . S
O141 Co122 2.021 . S
H142 C133 0.930 . S
H143 C132 0.931 . S
O144 Co120 2.117 . S
O144 C121 1.258 . S
O145 Co120 2.020 . S
O145 C147 1.256 . S
O146 Co122 2.062 . S
O146 C147 1.255 . S
C147 O145 1.256 . S
C147 O146 1.255 . S
H148 C127 0.931 . S
H149 C135 0.931 . S
Co150 N155 2.057 . S
Co150 O167 2.021 . S
Co150 O170 2.062 . S
Co150 O174 2.117 . S
Co150 O175 2.020 . S
C151 O171 1.259 . S
C151 O174 1.258 . S
Co152 N161 2.057 . S
Co152 O168 2.117 . S
Co152 O169 2.020 . S
Co152 O171 2.021 . S
Co152 O176 2.062 . S
C153 N155 1.316 . S
C153 N156 1.347 1_655 S
C153 H158 0.931 . S
C154 N155 1.375 1_455 S
C154 C157 1.350 . S
C154 H159 0.930 . S
N155 Co150 2.057 . S
N155 C153 1.316 . S
N155 C154 1.375 1_655 S
N156 C153 1.347 1_455 S
N156 C157 1.373 . S
C157 C154 1.350 . S
C157 N156 1.373 . S
C157 H178 0.931 . S
H158 C153 0.931 . S
H159 C154 0.930 . S
C160 O167 1.259 . S
C160 O168 1.258 . S
N161 Co152 2.057 . S
N161 C162 1.316 . S
N161 C163 1.375 . S
C162 N161 1.316 . S
C162 N164 1.347 . S
C162 H173 0.931 . S
C163 N161 1.375 . S
C163 C165 1.350 . S
C163 H172 0.930 . S
N164 C162 1.347 . S
N164 C165 1.373 . S
C165 C163 1.350 . S
C165 N164 1.373 . S
C165 H179 0.931 . S
C166 O169 1.256 . S
C166 O170 1.255 . S
O167 Co150 2.021 . S
O167 C160 1.259 . S
O168 Co152 2.117 . S
O168 C160 1.258 . S
O169 Co152 2.020 . S
O169 C166 1.256 . S
O170 Co150 2.062 . S
O170 C166 1.255 . S
O171 C151 1.259 . S
O171 Co152 2.021 . S
H172 C163 0.930 . S
H173 C162 0.931 . S
O174 Co150 2.117 . S
O174 C151 1.258 . S
O175 Co150 2.020 . S
O175 C177 1.256 . S
O176 Co152 2.062 . S
O176 C177 1.255 . S
C177 O175 1.256 . S
C177 O176 1.255 . S
H178 C157 0.931 . S
H179 C165 0.931 . S
Co180 N185 2.057 1_554 S
Co180 O197 2.021 . S
Co180 O200 2.062 1_554 S
Co180 O204 2.117 . S
Co180 O205 2.020 . S
C181 O201 1.259 . S
C181 O204 1.258 . S
Co182 N191 2.057 . S
Co182 O198 2.117 . S
Co182 O199 2.020 . S
Co182 O201 2.021 . S
Co182 O206 2.062 . S
C183 N185 1.316 . S
C183 N186 1.347 . S
C183 H188 0.931 . S
C184 N185 1.375 . S
C184 C187 1.350 . S
C184 H189 0.930 . S
N185 Co180 2.057 1_556 S
N185 C183 1.316 . S
N185 C184 1.375 . S
N186 C183 1.347 . S
N186 C187 1.373 . S
C187 C184 1.350 . S
C187 N186 1.373 . S
C187 H208 0.931 . S
H188 C183 0.931 . S
H189 C184 0.930 . S
C190 O197 1.259 . S
C190 O198 1.258 . S
N191 Co182 2.057 . S
N191 C192 1.316 . S
N191 C193 1.375 . S
C192 N191 1.316 . S
C192 N194 1.347 . S
C192 H203 0.931 . S
C193 N191 1.375 . S
C193 C195 1.350 . S
C193 H202 0.930 . S
N194 C192 1.347 . S
N194 C195 1.373 . S
C195 C193 1.350 . S
C195 N194 1.373 . S
C195 H209 0.931 . S
C196 O199 1.256 1_556 S
C196 O200 1.255 . S
O197 Co180 2.021 . S
O197 C190 1.259 . S
O198 Co182 2.117 . S
O198 C190 1.258 . S
O199 Co182 2.020 . S
O199 C196 1.256 1_554 S
O200 Co180 2.062 1_556 S
O200 C196 1.255 . S
O201 C181 1.259 . S
O201 Co182 2.021 . S
H202 C193 0.930 . S
H203 C192 0.931 . S
O204 Co180 2.117 . S
O204 C181 1.258 . S
O205 Co180 2.020 . S
O205 C207 1.256 . S
O206 Co182 2.062 . S
O206 C207 1.255 . S
C207 O205 1.256 . S
C207 O206 1.255 . S
H208 C187 0.931 . S
H209 C195 0.931 . S
Co210 N215 2.057 . S
Co210 O227 2.021 . S
Co210 O230 2.062 . S
Co210 O234 2.117 . S
Co210 O235 2.020 . S
C211 O231 1.259 . S
C211 O234 1.258 . S
Co212 N221 2.057 . S
Co212 O228 2.117 . S
Co212 O229 2.020 . S
Co212 O231 2.021 . S
Co212 O236 2.062 . S
C213 N215 1.316 . S
C213 N216 1.347 . S
C213 H218 0.931 . S
C214 N215 1.375 . S
C214 C217 1.350 . S
C214 H219 0.930 . S
N215 Co210 2.057 . S
N215 C213 1.316 . S
N215 C214 1.375 . S
N216 C213 1.347 . S
N216 C217 1.373 . S
C217 C214 1.350 . S
C217 N216 1.373 . S
C217 H238 0.931 . S
H218 C213 0.931 . S
H219 C214 0.930 . S
C220 O227 1.259 . S
C220 O228 1.258 . S
N221 Co212 2.057 . S
N221 C222 1.316 . S
N221 C223 1.375 . S
C222 N221 1.316 . S
C222 N224 1.347 . S
C222 H233 0.931 . S
C223 N221 1.375 . S
C223 C225 1.350 . S
C223 H232 0.930 . S
N224 C222 1.347 . S
N224 C225 1.373 . S
C225 C223 1.350 . S
C225 N224 1.373 . S
C225 H239 0.931 . S
C226 O229 1.256 . S
C226 O230 1.255 . S
O227 Co210 2.021 . S
O227 C220 1.259 . S
O228 Co212 2.117 . S
O228 C220 1.258 . S
O229 Co212 2.020 . S
O229 C226 1.256 . S
O230 Co210 2.062 . S
O230 C226 1.255 . S
O231 C211 1.259 . S
O231 Co212 2.021 . S
H232 C223 0.930 . S
H233 C222 0.931 . S
O234 Co210 2.117 . S
O234 C211 1.258 . S
O235 Co210 2.020 . S
O235 C237 1.256 . S
O236 Co212 2.062 . S
O236 C237 1.255 . S
C237 O235 1.256 . S
C237 O236 1.255 . S
H238 C217 0.931 . S
H239 C225 0.931 . S
Co240 N245 2.057 . S
Co240 O257 2.021 . S
Co240 O260 2.062 . S
Co240 O264 2.117 . S
Co240 O265 2.020 . S
C241 O261 1.259 . S
C241 O264 1.258 . S
Co242 N251 2.057 . S
Co242 O258 2.117 . S
Co242 O259 2.020 . S
Co242 O261 2.021 . S
Co242 O266 2.062 . S
C243 N245 1.316 . S
C243 N246 1.347 . S
C243 H248 0.931 . S
C244 N245 1.375 . S
C244 C247 1.350 . S
C244 H249 0.930 . S
N245 Co240 2.057 . S
N245 C243 1.316 . S
N245 C244 1.375 . S
N246 C243 1.347 . S
N246 C247 1.373 . S
C247 C244 1.350 . S
C247 N246 1.373 . S
C247 H268 0.931 . S
H248 C243 0.931 . S
H249 C244 0.930 . S
C250 O257 1.259 . S
C250 O258 1.258 . S
N251 Co242 2.057 . S
N251 C252 1.316 . S
N251 C253 1.375 . S
C252 N251 1.316 . S
C252 N254 1.347 1_554 S
C252 H263 0.931 1_554 S
C253 N251 1.375 . S
C253 C255 1.350 . S
C253 H262 0.930 . S
N254 C252 1.347 1_556 S
N254 C255 1.373 1_556 S
C255 C253 1.350 . S
C255 N254 1.373 1_554 S
C255 H269 0.931 . S
C256 O259 1.256 . S
C256 O260 1.255 . S
O257 Co240 2.021 . S
O257 C250 1.259 . S
O258 Co242 2.117 . S
O258 C250 1.258 . S
O259 Co242 2.020 . S
O259 C256 1.256 . S
O260 Co240 2.062 . S
O260 C256 1.255 . S
O261 C241 1.259 . S
O261 Co242 2.021 . S
H262 C253 0.930 . S
H263 C252 0.931 1_556 S
O264 Co240 2.117 . S
O264 C241 1.258 . S
O265 Co240 2.020 . S
O265 C267 1.256 . S
O266 Co242 2.062 . S
O266 C267 1.255 . S
C267 O265 1.256 . S
C267 O266 1.255 . S
H268 C247 0.931 . S
H269 C255 0.931 . S
Co270 N275 2.057 1_545 S
Co270 O287 2.021 . S
Co270 O290 2.062 1_545 S
Co270 O294 2.117 1_545 S
Co270 O295 2.020 . S
C271 O291 1.259 . S
C271 O294 1.258 1_545 S
Co272 N281 2.057 . S
Co272 O288 2.117 . S
Co272 O289 2.020 . S
Co272 O291 2.021 . S
Co272 O296 2.062 . S
C273 N275 1.316 . S
C273 N276 1.347 . S
C273 H278 0.931 . S
C274 N275 1.375 . S
C274 C277 1.350 . S
C274 H279 0.930 . S
N275 Co270 2.057 1_565 S
N275 C273 1.316 . S
N275 C274 1.375 . S
N276 C273 1.347 . S
N276 C277 1.373 . S
C277 C274 1.350 . S
C277 N276 1.373 . S
C277 H298 0.931 . S
H278 C273 0.931 . S
H279 C274 0.930 . S
C280 O287 1.259 . S
C280 O288 1.258 . S
N281 Co272 2.057 . S
N281 C282 1.316 . S
N281 C283 1.375 . S
C282 N281 1.316 . S
C282 N284 1.347 . S
C282 H293 0.931 . S
C283 N281 1.375 . S
C283 C285 1.350 . S
C283 H292 0.930 . S
N284 C282 1.347 . S
N284 C285 1.373 . S
C285 C283 1.350 . S
C285 N284 1.373 . S
C285 H299 0.931 . S
C286 O289 1.256 1_565 S
C286 O290 1.255 . S
O287 Co270 2.021 . S
O287 C280 1.259 . S
O288 Co272 2.117 . S
O288 C280 1.258 . S
O289 Co272 2.020 . S
O289 C286 1.256 1_545 S
O290 Co270 2.062 1_565 S
O290 C286 1.255 . S
O291 C271 1.259 . S
O291 Co272 2.021 . S
H292 C283 0.930 . S
H293 C282 0.931 . S
O294 Co270 2.117 1_565 S
O294 C271 1.258 1_565 S
O295 Co270 2.020 . S
O295 C297 1.256 . S
O296 Co272 2.062 . S
O296 C297 1.255 . S
C297 O295 1.256 . S
C297 O296 1.255 . S
H298 C277 0.931 . S
H299 C285 0.931 . S
Co300 N305 2.057 . S
Co300 O317 2.021 . S
Co300 O320 2.062 . S
Co300 O324 2.117 . S
Co300 O325 2.020 . S
C301 O321 1.259 . S
C301 O324 1.258 . S
Co302 N311 2.057 . S
Co302 O318 2.117 . S
Co302 O319 2.020 . S
Co302 O321 2.021 . S
Co302 O326 2.062 . S
C303 N305 1.316 . S
C303 N306 1.347 1_565 S
C303 H308 0.931 . S
C304 N305 1.375 1_545 S
C304 C307 1.350 . S
C304 H309 0.930 . S
N305 Co300 2.057 . S
N305 C303 1.316 . S
N305 C304 1.375 1_565 S
N306 C303 1.347 1_545 S
N306 C307 1.373 . S
C307 C304 1.350 . S
C307 N306 1.373 . S
C307 H328 0.931 . S
H308 C303 0.931 . S
H309 C304 0.930 . S
C310 O317 1.259 . S
C310 O318 1.258 . S
N311 Co302 2.057 . S
N311 C312 1.316 . S
N311 C313 1.375 . S
C312 N311 1.316 . S
C312 N314 1.347 . S
C312 H323 0.931 . S
C313 N311 1.375 . S
C313 C315 1.350 . S
C313 H322 0.930 . S
N314 C312 1.347 . S
N314 C315 1.373 . S
C315 C313 1.350 . S
C315 N314 1.373 . S
C315 H329 0.931 . S
C316 O319 1.256 . S
C316 O320 1.255 . S
O317 Co300 2.021 . S
O317 C310 1.259 . S
O318 Co302 2.117 . S
O318 C310 1.258 . S
O319 Co302 2.020 . S
O319 C316 1.256 . S
O320 Co300 2.062 . S
O320 C316 1.255 . S
O321 C301 1.259 . S
O321 Co302 2.021 . S
H322 C313 0.930 . S
H323 C312 0.931 . S
O324 Co300 2.117 . S
O324 C301 1.258 . S
O325 Co300 2.020 . S
O325 C327 1.256 . S
O326 Co302 2.062 . S
O326 C327 1.255 . S
C327 O325 1.256 . S
C327 O326 1.255 . S
H328 C307 0.931 . S
H329 C315 0.931 . S
Co330 N335 2.057 . S
Co330 O347 2.021 . S
Co330 O350 2.062 . S
Co330 O354 2.117 . S
Co330 O355 2.020 . S
C331 O351 1.259 . S
C331 O354 1.258 . S
Co332 N341 2.057 . S
Co332 O348 2.117 . S
Co332 O349 2.020 . S
Co332 O351 2.021 . S
Co332 O356 2.062 . S
C333 N335 1.316 . S
C333 N336 1.347 . S
C333 H338 0.931 . S
C334 N335 1.375 . S
C334 C337 1.350 . S
C334 H339 0.930 . S
N335 Co330 2.057 . S
N335 C333 1.316 . S
N335 C334 1.375 . S
N336 C333 1.347 . S
N336 C337 1.373 . S
C337 C334 1.350 . S
C337 N336 1.373 . S
C337 H358 0.931 . S
H338 C333 0.931 . S
H339 C334 0.930 . S
C340 O347 1.259 . S
C340 O348 1.258 . S
N341 Co332 2.057 . S
N341 C342 1.316 . S
N341 C343 1.375 . S
C342 N341 1.316 . S
C342 N344 1.347 . S
C342 H353 0.931 . S
C343 N341 1.375 . S
C343 C345 1.350 . S
C343 H352 0.930 . S
N344 C342 1.347 . S
N344 C345 1.373 . S
C345 C343 1.350 . S
C345 N344 1.373 . S
C345 H359 0.931 . S
C346 O349 1.256 . S
C346 O350 1.255 . S
O347 Co330 2.021 . S
O347 C340 1.259 . S
O348 Co332 2.117 . S
O348 C340 1.258 . S
O349 Co332 2.020 . S
O349 C346 1.256 . S
O350 Co330 2.062 . S
O350 C346 1.255 . S
O351 C331 1.259 . S
O351 Co332 2.021 . S
H352 C343 0.930 . S
H353 C342 0.931 . S
O354 Co330 2.117 . S
O354 C331 1.258 . S
O355 Co330 2.020 . S
O355 C357 1.256 . S
O356 Co332 2.062 . S
O356 C357 1.255 . S
C357 O355 1.256 . S
C357 O356 1.255 . S
H358 C337 0.931 . S
H359 C345 0.931 . S
H360 C368 0.950 . S
H361 C373 0.950 . S
H362 C370 0.950 . S
H363 C372 0.950 . S
H364 C374 0.950 . S
H365 C376 0.950 . S
H366 C378 0.950 . S
H367 C379 0.950 . S
C368 H360 0.950 . S
C368 C369 1.386 . S
C368 C370 1.391 . S
C369 C368 1.386 . S
C369 C373 1.393 . S
C370 H362 0.950 . S
C370 C368 1.391 . S
C370 C371 1.400 . S
C371 C370 1.400 . S
C371 C372 1.398 . S
C371 C377 1.491 . S
C372 H363 0.950 . S
C372 C371 1.398 . S
C372 C373 1.391 . S
C373 H361 0.950 . S
C373 C369 1.393 . S
C373 C372 1.391 . S
C374 H364 0.950 . S
C374 C375 1.386 . S
C374 C376 1.391 . S
C375 C374 1.386 . S
C375 C379 1.393 . S
C376 H365 0.950 . S
C376 C374 1.391 . S
C376 C377 1.400 . S
C377 C371 1.491 . S
C377 C376 1.400 . S
C377 C378 1.398 . S
C378 H366 0.950 . S
C378 C377 1.398 . S
C378 C379 1.391 . S
C379 H367 0.950 . S
C379 C375 1.393 . S
C379 C378 1.391 . S
H380 C388 0.950 . S
H381 C393 0.950 . S
H382 C390 0.950 . S
H383 C392 0.950 1_545 S
H384 C394 0.950 . S
H385 C396 0.950 . S
H386 C398 0.950 . S
H387 C399 0.950 . S
C388 H380 0.950 . S
C388 C389 1.386 . S
C388 C390 1.391 . S
C389 C388 1.386 . S
C389 C393 1.393 1_565 S
C390 H382 0.950 . S
C390 C388 1.391 . S
C390 C391 1.400 . S
C391 C390 1.400 . S
C391 C392 1.398 . S
C391 C397 1.491 . S
C392 H383 0.950 1_565 S
C392 C391 1.398 . S
C392 C393 1.391 1_565 S
C393 H381 0.950 . S
C393 C389 1.393 1_545 S
C393 C392 1.391 1_545 S
C394 H384 0.950 . S
C394 C395 1.386 . S
C394 C396 1.391 . S
C395 C394 1.386 . S
C395 C399 1.393 . S
C396 H385 0.950 . S
C396 C394 1.391 . S
C396 C397 1.400 . S
C397 C391 1.491 . S
C397 C396 1.400 . S
C397 C398 1.398 . S
C398 H386 0.950 . S
C398 C397 1.398 . S
C398 C399 1.391 . S
C399 H387 0.950 . S
C399 C395 1.393 . S
C399 C398 1.391 . S
H400 C408 0.950 . S
H401 C413 0.950 . S
H402 C410 0.950 . S
H403 C412 0.950 . S
H404 C414 0.950 1_556 S
H405 C416 0.933 1_556 S
H406 C418 0.950 . S
H407 C419 0.950 . S
C408 H400 0.950 . S
C408 C409 1.386 . S
C408 C410 1.391 . S
C409 C408 1.386 . S
C409 C413 1.393 1_554 S
C410 H402 0.950 . S
C410 C408 1.391 . S
C410 C411 1.400 . S
C411 C410 1.400 . S
C411 C412 1.398 1_554 S
C411 C417 1.491 . S
C412 H403 0.950 . S
C412 C411 1.398 1_556 S
C412 C413 1.391 . S
C413 H401 0.950 . S
C413 C409 1.393 1_556 S
C413 C412 1.391 . S
C414 H404 0.950 1_554 S
C414 C415 1.386 . S
C414 C416 1.393 . S
C415 C414 1.386 . S
C415 C419 1.393 . S
C416 H405 0.933 1_554 S
C416 C414 1.393 . S
C416 C417 1.415 . S
C417 C411 1.491 . S
C417 C416 1.415 . S
C417 C418 1.398 . S
C418 H406 0.950 . S
C418 C417 1.398 . S
C418 C419 1.391 . S
C419 H407 0.950 . S
C419 C415 1.393 . S
C419 C418 1.391 . S
H420 C428 0.950 . S
H421 C433 0.952 1_565 S
H422 C430 0.950 . S
H423 C432 0.950 . S
H424 C434 0.950 . S
H425 C436 0.950 . S
H426 C438 0.950 . S
H427 C439 0.950 . S
C428 H420 0.950 . S
C428 C429 1.386 . S
C428 C430 1.391 . S
C429 C428 1.386 . S
C429 C433 1.393 . S
C430 H422 0.950 . S
C430 C428 1.391 . S
C430 C431 1.400 . S
C431 C430 1.400 . S
C431 C432 1.398 1_545 S
C431 C437 1.491 . S
C432 H423 0.950 . S
C432 C431 1.398 1_565 S
C432 C433 1.391 1_565 S
C433 H421 0.952 1_545 S
C433 C429 1.393 . S
C433 C432 1.391 1_545 S
C434 H424 0.950 . S
C434 C435 1.386 . S
C434 C436 1.391 . S
C435 C434 1.386 . S
C435 C439 1.393 1_565 S
C436 H425 0.950 . S
C436 C434 1.391 . S
C436 C437 1.400 1_565 S
C437 C431 1.491 . S
C437 C436 1.400 1_545 S
C437 C438 1.398 . S
C438 H426 0.950 . S
C438 C437 1.398 . S
C438 C439 1.391 . S
C439 H427 0.950 . S
C439 C435 1.393 1_545 S
C439 C438 1.391 . S
H440 C448 0.950 . S
H441 C453 0.950 . S
H442 C450 0.950 . S
H443 C452 0.950 . S
H444 C454 0.950 . S
H445 C456 0.950 . S
H446 C458 0.950 . S
H447 C459 0.950 . S
C448 H440 0.950 . S
C448 C449 1.386 . S
C448 C450 1.391 . S
C449 C448 1.386 . S
C449 C453 1.393 . S
C450 H442 0.950 . S
C450 C448 1.391 . S
C450 C451 1.400 . S
C451 C450 1.400 . S
C451 C452 1.398 . S
C451 C457 1.491 . S
C452 H443 0.950 . S
C452 C451 1.398 . S
C452 C453 1.391 . S
C453 H441 0.950 . S
C453 C449 1.393 . S
C453 C452 1.391 . S
C454 H444 0.950 . S
C454 C455 1.386 . S
C454 C456 1.391 . S
C455 C454 1.386 . S
C455 C459 1.393 . S
C456 H445 0.950 . S
C456 C454 1.391 . S
C456 C457 1.400 . S
C457 C451 1.491 . S
C457 C456 1.400 . S
C457 C458 1.398 . S
C458 H446 0.950 . S
C458 C457 1.398 . S
C458 C459 1.391 . S
C459 H447 0.950 . S
C459 C455 1.393 . S
C459 C458 1.391 . S
H460 C468 0.950 . S
H461 C473 0.950 . S
H462 C470 0.950 . S
H463 C472 0.950 . S
H464 C474 0.950 . S
H465 C476 0.950 . S
H466 C478 0.950 . S
H467 C479 0.950 . S
C468 H460 0.950 . S
C468 C469 1.386 . S
C468 C470 1.391 . S
C469 C468 1.386 . S
C469 C473 1.393 . S
C470 H462 0.950 . S
C470 C468 1.391 . S
C470 C471 1.400 . S
C471 C470 1.400 . S
C471 C472 1.398 . S
C471 C477 1.491 . S
C472 H463 0.950 . S
C472 C471 1.398 . S
C472 C473 1.391 . S
C473 H461 0.950 . S
C473 C469 1.393 . S
C473 C472 1.391 . S
C474 H464 0.950 . S
C474 C475 1.386 . S
C474 C476 1.391 . S
C475 C474 1.386 . S
C475 C479 1.393 . S
C476 H465 0.950 . S
C476 C474 1.391 . S
C476 C477 1.400 . S
C477 C471 1.491 . S
C477 C476 1.400 . S
C477 C478 1.398 . S
C478 H466 0.950 . S
C478 C477 1.398 . S
C478 C479 1.391 . S
C479 H467 0.950 . S
C479 C475 1.393 . S
C479 C478 1.391 . S
H480 C488 0.950 . S
H481 C493 0.950 . S
H482 C490 0.950 . S
H483 C492 0.950 . S
H484 C494 0.950 . S
H485 C496 0.950 . S
H486 C498 0.950 . S
H487 C499 0.950 . S
C488 H480 0.950 . S
C488 C489 1.386 1_554 S
C488 C490 1.391 . S
C489 C488 1.386 1_556 S
C489 C493 1.393 . S
C490 H482 0.950 . S
C490 C488 1.391 . S
C490 C491 1.400 1_554 S
C491 C490 1.400 1_556 S
C491 C492 1.398 . S
C491 C497 1.491 . S
C492 H483 0.950 . S
C492 C491 1.398 . S
C492 C493 1.391 . S
C493 H481 0.950 . S
C493 C489 1.393 . S
C493 C492 1.391 . S
C494 H484 0.950 . S
C494 C495 1.367 1_556 S
C494 C496 1.391 . S
C495 C494 1.367 1_554 S
C495 C499 1.410 . S
C496 H485 0.950 . S
C496 C494 1.391 . S
C496 C497 1.400 . S
C497 C491 1.491 . S
C497 C496 1.400 . S
C497 C498 1.398 1_556 S
C498 H486 0.950 . S
C498 C497 1.398 1_554 S
C498 C499 1.391 . S
C499 H487 0.950 . S
C499 C495 1.410 . S
C499 C498 1.391 . S
H500 C508 0.950 . S
H501 C513 0.950 . S
H502 C510 0.950 . S
H503 C512 0.950 . S
H504 C514 0.950 . S
H505 C516 0.950 . S
H506 C518 0.950 . S
H507 C519 0.950 . S
C508 H500 0.950 . S
C508 C509 1.386 . S
C508 C510 1.391 . S
C509 C508 1.386 . S
C509 C513 1.393 . S
C510 H502 0.950 . S
C510 C508 1.391 . S
C510 C511 1.400 . S
C511 C510 1.400 . S
C511 C512 1.398 . S
C511 C517 1.491 . S
C512 H503 0.950 . S
C512 C511 1.398 . S
C512 C513 1.391 . S
C513 H501 0.950 . S
C513 C509 1.393 . S
C513 C512 1.391 . S
C514 H504 0.950 . S
C514 C515 1.386 . S
C514 C516 1.391 . S
C515 C514 1.386 . S
C515 C519 1.393 . S
C516 H505 0.950 . S
C516 C514 1.391 . S
C516 C517 1.400 . S
C517 C511 1.491 . S
C517 C516 1.400 . S
C517 C518 1.398 . S
C518 H506 0.950 . S
C518 C517 1.398 . S
C518 C519 1.391 . S
C519 H507 0.950 . S
C519 C515 1.393 . S
C519 C518 1.391 . S
H520 C528 0.950 . S
H521 C533 0.950 . S
H522 C530 0.950 . S
H523 C532 0.950 . S
H524 C534 0.950 . S
H525 C536 0.950 . S
H526 C538 0.950 . S
H527 C539 0.950 . S
C528 H520 0.950 . S
C528 C529 1.386 . S
C528 C530 1.391 . S
C529 C528 1.386 . S
C529 C533 1.393 . S
C530 H522 0.950 . S
C530 C528 1.391 . S
C530 C531 1.400 . S
C531 C530 1.400 . S
C531 C532 1.398 . S
C531 C537 1.491 . S
C532 H523 0.950 . S
C532 C531 1.398 . S
C532 C533 1.391 . S
C533 H521 0.950 . S
C533 C529 1.393 . S
C533 C532 1.391 . S
C534 H524 0.950 . S
C534 C535 1.386 . S
C534 C536 1.391 . S
C535 C534 1.386 . S
C535 C539 1.393 . S
C536 H525 0.950 . S
C536 C534 1.391 . S
C536 C537 1.400 . S
C537 C531 1.491 . S
C537 C536 1.400 . S
C537 C538 1.398 . S
C538 H526 0.950 . S
C538 C537 1.398 . S
C538 C539 1.391 . S
C539 H527 0.950 . S
C539 C535 1.393 . S
C539 C538 1.391 . S
H540 C548 0.950 . S
H541 C553 0.950 . S
H542 C550 0.950 . S
H543 C552 0.950 1_655 S
H544 C554 0.950 . S
H545 C556 0.950 . S
H546 C558 0.950 . S
H547 C559 0.950 . S
C548 H540 0.950 . S
C548 C549 1.386 . S
C548 C550 1.391 . S
C549 C548 1.386 . S
C549 C553 1.393 . S
C550 H542 0.950 . S
C550 C548 1.391 . S
C550 C551 1.400 . S
C551 C550 1.400 . S
C551 C552 1.398 . S
C551 C557 1.491 . S
C552 H543 0.950 1_455 S
C552 C551 1.398 . S
C552 C553 1.391 . S
C553 H541 0.950 . S
C553 C549 1.393 . S
C553 C552 1.391 . S
C554 H544 0.950 . S
C554 C555 1.386 . S
C554 C556 1.391 . S
C555 C554 1.386 . S
C555 C559 1.393 1_655 S
C556 H545 0.950 . S
C556 C554 1.391 . S
C556 C557 1.400 1_655 S
C557 C551 1.491 . S
C557 C556 1.400 1_455 S
C557 C558 1.398 . S
C558 H546 0.950 . S
C558 C557 1.398 . S
C558 C559 1.391 . S
C559 H547 0.950 . S
C559 C555 1.393 1_455 S
C559 C558 1.391 . S
H560 C568 0.950 1_655 S
H561 C573 0.950 . S
H562 C570 0.950 . S
H563 C572 0.950 . S
H564 C574 0.950 . S
H565 C576 0.950 . S
H566 C578 0.950 . S
H567 C579 0.950 . S
C568 H560 0.950 1_455 S
C568 C569 1.386 . S
C568 C570 1.391 1_455 S
C569 C568 1.386 . S
C569 C573 1.393 . S
C570 H562 0.950 . S
C570 C568 1.391 1_655 S
C570 C571 1.400 1_655 S
C571 C570 1.400 1_455 S
C571 C572 1.398 . S
C571 C577 1.491 . S
C572 H563 0.950 . S
C572 C571 1.398 . S
C572 C573 1.391 . S
C573 H561 0.950 . S
C573 C569 1.393 . S
C573 C572 1.391 . S
C574 H564 0.950 . S
C574 C575 1.369 1_455 S
C574 C576 1.391 . S
C575 C574 1.369 1_655 S
C575 C579 1.406 . S
C576 H565 0.950 . S
C576 C574 1.391 . S
C576 C577 1.400 . S
C577 C571 1.491 . S
C577 C576 1.400 . S
C577 C578 1.398 1_455 S
C578 H566 0.950 . S
C578 C577 1.398 1_655 S
C578 C579 1.391 . S
C579 H567 0.950 . S
C579 C575 1.406 . S
C579 C578 1.391 . S
H580 C588 0.950 . S
H581 C593 0.950 . S
H582 C590 0.950 . S
H583 C592 0.950 . S
H584 C594 0.950 . S
H585 C596 0.950 . S
H586 C598 0.950 . S
H587 C599 0.950 . S
C588 H580 0.950 . S
C588 C589 1.386 . S
C588 C590 1.391 . S
C589 C588 1.386 . S
C589 C593 1.393 . S
C590 H582 0.950 . S
C590 C588 1.391 . S
C590 C591 1.400 . S
C591 C590 1.400 . S
C591 C592 1.398 . S
C591 C597 1.491 . S
C592 H583 0.950 . S
C592 C591 1.398 . S
C592 C593 1.391 . S
C593 H581 0.950 . S
C593 C589 1.393 . S
C593 C592 1.391 . S
C594 H584 0.950 . S
C594 C595 1.386 . S
C594 C596 1.391 . S
C595 C594 1.386 . S
C595 C599 1.393 . S
C596 H585 0.950 . S
C596 C594 1.391 . S
C596 C597 1.400 . S
C597 C591 1.491 . S
C597 C596 1.400 . S
C597 C598 1.398 . S
C598 H586 0.950 . S
C598 C597 1.398 . S
C598 C599 1.391 . S
C599 H587 0.950 . S
C599 C595 1.393 . S
C599 C598 1.391 . S
H600 C608 0.950 . S
H601 C613 0.950 . S
H602 C610 0.950 . S
H603 C612 0.950 . S
H604 C614 0.950 . S
H605 C616 0.950 . S
H606 C618 0.950 . S
H607 C619 0.950 . S
C608 H600 0.950 . S
C608 C609 1.386 . S
C608 C610 1.391 . S
C609 C608 1.386 . S
C609 C613 1.393 . S
C610 H602 0.950 . S
C610 C608 1.391 . S
C610 C611 1.400 . S
C611 C610 1.400 . S
C611 C612 1.398 . S
C611 C617 1.491 . S
C612 H603 0.950 . S
C612 C611 1.398 . S
C612 C613 1.391 . S
C613 H601 0.950 . S
C613 C609 1.393 . S
C613 C612 1.391 . S
C614 H604 0.950 . S
C614 C615 1.386 . S
C614 C616 1.391 . S
C615 C614 1.386 . S
C615 C619 1.393 . S
C616 H605 0.950 . S
C616 C614 1.391 . S
C616 C617 1.400 . S
C617 C611 1.491 . S
C617 C616 1.400 . S
C617 C618 1.398 . S
C618 H606 0.950 . S
C618 C617 1.398 . S
C618 C619 1.391 . S
C619 H607 0.950 . S
C619 C615 1.393 . S
C619 C618 1.391 . S
H620 C628 0.950 . S
H621 C633 0.940 1_455 S
H622 C630 0.950 . S
H623 C632 0.950 . S
H624 C634 0.950 . S
H625 C636 0.950 . S
H626 C638 0.950 . S
H627 C639 0.950 . S
C628 H620 0.950 . S
C628 C629 1.386 1_655 S
C628 C630 1.391 . S
C629 C628 1.386 1_455 S
C629 C633 1.386 1_455 S
C630 H622 0.950 . S
C630 C628 1.391 . S
C630 C631 1.400 . S
C631 C630 1.400 . S
C631 C632 1.398 . S
C631 C637 1.491 . S
C632 H623 0.950 . S
C632 C631 1.398 . S
C632 C633 1.409 . S
C633 H621 0.940 1_655 S
C633 C629 1.386 1_655 S
C633 C632 1.409 . S
C634 H624 0.950 . S
C634 C635 1.386 . S
C634 C636 1.391 . S
C635 C634 1.386 . S
C635 C639 1.393 . S
C636 H625 0.950 . S
C636 C634 1.391 . S
C636 C637 1.400 . S
C637 C631 1.491 . S
C637 C636 1.400 . S
C637 C638 1.398 . S
C638 H626 0.950 . S
C638 C637 1.398 . S
C638 C639 1.391 . S
C639 H627 0.950 . S
C639 C635 1.393 . S
C639 C638 1.391 . S
H640 C648 0.950 . S
H641 C653 0.950 . S
H642 C650 0.950 . S
H643 C652 0.950 . S
H644 C654 0.950 . S
H645 C656 0.950 . S
H646 C658 0.950 . S
H647 C659 0.950 . S
C648 H640 0.950 . S
C648 C649 1.386 . S
C648 C650 1.391 . S
C649 C648 1.386 . S
C649 C653 1.393 . S
C650 H642 0.950 . S
C650 C648 1.391 . S
C650 C651 1.400 . S
C651 C650 1.400 . S
C651 C652 1.398 . S
C651 C657 1.491 . S
C652 H643 0.950 . S
C652 C651 1.398 . S
C652 C653 1.391 . S
C653 H641 0.950 . S
C653 C649 1.393 . S
C653 C652 1.391 . S
C654 H644 0.950 . S
C654 C655 1.386 . S
C654 C656 1.391 . S
C655 C654 1.386 . S
C655 C659 1.393 . S
C656 H645 0.950 . S
C656 C654 1.391 . S
C656 C657 1.400 . S
C657 C651 1.491 . S
C657 C656 1.400 . S
C657 C658 1.398 . S
C658 H646 0.950 . S
C658 C657 1.398 . S
C658 C659 1.391 . S
C659 H647 0.950 . S
C659 C655 1.393 . S
C659 C658 1.391 . S
H660 C668 0.950 . S
H661 C673 0.950 . S
H662 C670 0.950 . S
H663 C672 0.950 . S
H664 C674 0.950 . S
H665 C676 0.950 1_554 S
H666 C678 0.950 . S
H667 C679 0.950 . S
C668 H660 0.950 . S
C668 C669 1.386 . S
C668 C670 1.391 . S
C669 C668 1.386 . S
C669 C673 1.393 . S
C670 H662 0.950 . S
C670 C668 1.391 . S
C670 C671 1.400 . S
C671 C670 1.400 . S
C671 C672 1.398 . S
C671 C677 1.491 . S
C672 H663 0.950 . S
C672 C671 1.398 . S
C672 C673 1.391 . S
C673 H661 0.950 . S
C673 C669 1.393 . S
C673 C672 1.391 . S
C674 H664 0.950 . S
C674 C675 1.386 . S
C674 C676 1.391 . S
C675 C674 1.386 . S
C675 C679 1.393 . S
C676 H665 0.950 1_556 S
C676 C674 1.391 . S
C676 C677 1.400 1_556 S
C677 C671 1.491 . S
C677 C676 1.400 1_554 S
C677 C678 1.398 1_554 S
C678 H666 0.950 . S
C678 C677 1.398 1_556 S
C678 C679 1.391 . S
C679 H667 0.950 . S
C679 C675 1.393 . S
C679 C678 1.391 . S
H680 C688 0.950 . S
H681 C693 0.950 . S
H682 C690 0.950 . S
H683 C692 0.950 . S
H684 C694 0.950 . S
H685 C696 0.950 . S
H686 C698 0.950 . S
H687 C699 0.950 . S
C688 H680 0.950 . S
C688 C689 1.386 . S
C688 C690 1.391 . S
C689 C688 1.386 . S
C689 C693 1.393 . S
C690 H682 0.950 . S
C690 C688 1.391 . S
C690 C691 1.400 . S
C691 C690 1.400 . S
C691 C692 1.398 . S
C691 C697 1.491 . S
C692 H683 0.950 . S
C692 C691 1.398 . S
C692 C693 1.391 . S
C693 H681 0.950 . S
C693 C689 1.393 . S
C693 C692 1.391 . S
C694 H684 0.950 . S
C694 C695 1.386 . S
C694 C696 1.391 . S
C695 C694 1.386 . S
C695 C699 1.393 . S
C696 H685 0.950 . S
C696 C694 1.391 . S
C696 C697 1.400 . S
C697 C691 1.491 . S
C697 C696 1.400 . S
C697 C698 1.398 . S
C698 H686 0.950 . S
C698 C697 1.398 . S
C698 C699 1.391 . S
C699 H687 0.950 . S
C699 C695 1.393 . S
C699 C698 1.391 . S
H700 C708 0.950 . S
H701 C713 0.950 . S
H702 C710 0.950 . S
H703 C712 0.950 . S
H704 C714 0.950 . S
H705 C716 0.950 . S
H706 C718 0.950 . S
H707 C719 0.950 . S
C708 H700 0.950 . S
C708 C709 1.386 . S
C708 C710 1.391 . S
C709 C708 1.386 . S
C709 C713 1.393 . S
C710 H702 0.950 . S
C710 C708 1.391 . S
C710 C711 1.400 . S
C711 C710 1.400 . S
C711 C712 1.398 . S
C711 C717 1.491 . S
C712 H703 0.950 . S
C712 C711 1.398 . S
C712 C713 1.391 . S
C713 H701 0.950 . S
C713 C709 1.393 . S
C713 C712 1.391 . S
C714 H704 0.950 . S
C714 C715 1.386 . S
C714 C716 1.391 . S
C715 C714 1.386 . S
C715 C719 1.393 1_455 S
C716 H705 0.950 . S
C716 C714 1.391 . S
C716 C717 1.400 . S
C717 C711 1.491 . S
C717 C716 1.400 . S
C717 C718 1.398 . S
C718 H706 0.950 . S
C718 C717 1.398 . S
C718 C719 1.391 1_455 S
C719 H707 0.950 . S
C719 C715 1.393 1_655 S
C719 C718 1.391 1_655 S
H720 C728 0.950 . S
H721 C733 0.950 . S
H722 C730 0.950 . S
H723 C732 0.950 . S
H724 C734 0.950 . S
H725 C736 0.950 . S
H726 C738 0.950 . S
H727 C739 0.950 . S
C728 H720 0.950 . S
C728 C729 1.386 . S
C728 C730 1.391 . S
C729 C728 1.386 . S
C729 C733 1.393 . S
C730 H722 0.950 . S
C730 C728 1.391 . S
C730 C731 1.400 . S
C731 C730 1.400 . S
C731 C732 1.398 . S
C731 C737 1.491 . S
C732 H723 0.950 . S
C732 C731 1.398 . S
C732 C733 1.391 . S
C733 H721 0.950 . S
C733 C729 1.393 . S
C733 C732 1.391 . S
C734 H724 0.950 . S
C734 C735 1.386 . S
C734 C736 1.391 . S
C735 C734 1.386 . S
C735 C739 1.393 . S
C736 H725 0.950 . S
C736 C734 1.391 . S
C736 C737 1.400 . S
C737 C731 1.491 . S
C737 C736 1.400 . S
C737 C738 1.398 . S
C738 H726 0.950 . S
C738 C737 1.398 . S
C738 C739 1.391 . S
C739 H727 0.950 . S
C739 C735 1.393 . S
C739 C738 1.391 . S
H740 C748 0.950 . S
H741 C753 0.950 . S
H742 C750 0.950 . S
H743 C752 0.950 . S
H744 C754 0.950 . S
H745 C756 0.950 . S
H746 C758 0.950 . S
H747 C759 0.950 . S
C748 H740 0.950 . S
C748 C749 1.386 . S
C748 C750 1.391 . S
C749 C748 1.386 . S
C749 C753 1.393 . S
C750 H742 0.950 . S
C750 C748 1.391 . S
C750 C751 1.400 . S
C751 C750 1.400 . S
C751 C752 1.398 . S
C751 C757 1.491 . S
C752 H743 0.950 . S
C752 C751 1.398 . S
C752 C753 1.391 . S
C753 H741 0.950 . S
C753 C749 1.393 . S
C753 C752 1.391 . S
C754 H744 0.950 . S
C754 C755 1.386 . S
C754 C756 1.391 . S
C755 C754 1.386 . S
C755 C759 1.393 . S
C756 H745 0.950 . S
C756 C754 1.391 . S
C756 C757 1.400 . S
C757 C751 1.491 . S
C757 C756 1.400 . S
C757 C758 1.398 . S
C758 H746 0.950 . S
C758 C757 1.398 . S
C758 C759 1.391 . S
C759 H747 0.950 . S
C759 C755 1.393 . S
C759 C758 1.391 . S
H760 C768 0.950 . S
H761 C773 0.950 . S
H762 C770 0.950 . S
H763 C772 0.950 . S
H764 C774 0.950 . S
H765 C776 0.950 . S
H766 C778 0.950 . S
H767 C779 0.950 . S
C768 H760 0.950 . S
C768 C769 1.386 . S
C768 C770 1.391 . S
C769 C768 1.386 . S
C769 C773 1.393 . S
C770 H762 0.950 . S
C770 C768 1.391 . S
C770 C771 1.400 . S
C771 C770 1.400 . S
C771 C772 1.398 . S
C771 C777 1.491 . S
C772 H763 0.950 . S
C772 C771 1.398 . S
C772 C773 1.391 . S
C773 H761 0.950 . S
C773 C769 1.393 . S
C773 C772 1.391 . S
C774 H764 0.950 . S
C774 C775 1.386 . S
C774 C776 1.391 . S
C775 C774 1.386 . S
C775 C779 1.393 . S
C776 H765 0.950 . S
C776 C774 1.391 . S
C776 C777 1.400 . S
C777 C771 1.491 . S
C777 C776 1.400 . S
C777 C778 1.398 . S
C778 H766 0.950 . S
C778 C777 1.398 . S
C778 C779 1.391 . S
C779 H767 0.950 . S
C779 C775 1.393 . S
C779 C778 1.391 . S
H780 C788 0.950 . S
H781 C793 0.950 . S
H782 C790 0.950 . S
H783 C792 0.950 . S
H784 C794 0.950 . S
H785 C796 0.950 . S
H786 C798 0.950 . S
H787 C799 0.949 1_565 S
C788 H780 0.950 . S
C788 C789 1.386 . S
C788 C790 1.391 . S
C789 C788 1.386 . S
C789 C793 1.393 . S
C790 H782 0.950 . S
C790 C788 1.391 . S
C790 C791 1.400 . S
C791 C790 1.400 . S
C791 C792 1.398 . S
C791 C797 1.491 . S
C792 H783 0.950 . S
C792 C791 1.398 . S
C792 C793 1.391 . S
C793 H781 0.950 . S
C793 C789 1.393 . S
C793 C792 1.391 . S
C794 H784 0.950 . S
C794 C795 1.386 1_545 S
C794 C796 1.391 . S
C795 C794 1.386 1_565 S
C795 C799 1.393 1_565 S
C796 H785 0.950 . S
C796 C794 1.391 . S
C796 C797 1.400 . S
C797 C791 1.491 . S
C797 C796 1.400 . S
C797 C798 1.398 . S
C798 H786 0.950 . S
C798 C797 1.398 . S
C798 C799 1.391 . S
C799 H787 0.949 1_545 S
C799 C795 1.393 1_545 S
C799 C798 1.391 . S
H800 C808 0.950 . S
H801 C813 0.950 . S
H802 C810 0.950 . S
H803 C812 0.950 . S
H804 C814 0.950 . S
H805 C816 0.950 . S
H806 C818 0.950 . S
H807 C819 0.950 . S
C808 H800 0.950 . S
C808 C809 1.386 . S
C808 C810 1.391 . S
C809 C808 1.386 . S
C809 C813 1.393 . S
C810 H802 0.950 . S
C810 C808 1.391 . S
C810 C811 1.400 . S
C811 C810 1.400 . S
C811 C812 1.398 . S
C811 C817 1.491 . S
C812 H803 0.950 . S
C812 C811 1.398 . S
C812 C813 1.391 . S
C813 H801 0.950 . S
C813 C809 1.393 . S
C813 C812 1.391 . S
C814 H804 0.950 . S
C814 C815 1.386 . S
C814 C816 1.391 . S
C815 C814 1.386 . S
C815 C819 1.393 . S
C816 H805 0.950 . S
C816 C814 1.391 . S
C816 C817 1.400 . S
C817 C811 1.491 . S
C817 C816 1.400 . S
C817 C818 1.398 . S
C818 H806 0.950 . S
C818 C817 1.398 . S
C818 C819 1.391 . S
C819 H807 0.950 . S
C819 C815 1.393 . S
C819 C818 1.391 . S
H820 C828 0.950 . S
H821 C833 0.950 . S
H822 C830 0.950 . S
H823 C832 0.950 . S
H824 C834 0.950 . S
H825 C836 0.950 . S
H826 C838 0.950 . S
H827 C839 0.950 . S
C828 H820 0.950 . S
C828 C829 1.386 1_565 S
C828 C830 1.391 . S
C829 C828 1.386 1_545 S
C829 C833 1.393 . S
C830 H822 0.950 . S
C830 C828 1.391 . S
C830 C831 1.400 . S
C831 C830 1.400 . S
C831 C832 1.398 . S
C831 C837 1.491 . S
C832 H823 0.950 . S
C832 C831 1.398 . S
C832 C833 1.391 1_565 S
C833 H821 0.950 . S
C833 C829 1.393 . S
C833 C832 1.391 1_545 S
C834 H824 0.950 . S
C834 C835 1.386 1_556 S
C834 C836 1.391 1_556 S
C835 C834 1.386 1_554 S
C835 C839 1.393 . S
C836 H825 0.950 . S
C836 C834 1.391 1_554 S
C836 C837 1.400 . S
C837 C831 1.491 . S
C837 C836 1.400 . S
C837 C838 1.398 . S
C838 H826 0.950 . S
C838 C837 1.398 . S
C838 C839 1.391 . S
C839 H827 0.950 . S
C839 C835 1.393 . S
C839 C838 1.391 . S
H840 C848 0.950 . S
H841 C853 0.950 . S
H842 C850 0.950 . S
H843 C852 0.950 . S
H844 C854 0.950 . S
H845 C856 0.950 . S
H846 C858 0.950 . S
H847 C859 0.950 . S
C848 H840 0.950 . S
C848 C849 1.386 . S
C848 C850 1.391 . S
C849 C848 1.386 . S
C849 C853 1.393 . S
C850 H842 0.950 . S
C850 C848 1.391 . S
C850 C851 1.400 . S
C851 C850 1.400 . S
C851 C852 1.398 . S
C851 C857 1.491 . S
C852 H843 0.950 . S
C852 C851 1.398 . S
C852 C853 1.391 . S
C853 H841 0.950 . S
C853 C849 1.393 . S
C853 C852 1.391 . S
C854 H844 0.950 . S
C854 C855 1.386 . S
C854 C856 1.391 . S
C855 C854 1.386 . S
C855 C859 1.393 . S
C856 H845 0.950 . S
C856 C854 1.391 . S
C856 C857 1.400 . S
C857 C851 1.491 . S
C857 C856 1.400 . S
C857 C858 1.398 . S
C858 H846 0.950 . S
C858 C857 1.398 . S
C858 C859 1.391 . S
C859 H847 0.950 . S
C859 C855 1.393 . S
C859 C858 1.391 . S
H860 C868 0.950 . S
H861 C873 0.950 . S
H862 C870 0.950 . S
H863 C872 0.950 . S
H864 C874 0.950 . S
H865 C876 0.950 . S
H866 C878 0.950 . S
H867 C879 0.950 . S
C868 H860 0.950 . S
C868 C869 1.386 . S
C868 C870 1.391 . S
C869 C868 1.386 . S
C869 C873 1.393 . S
C870 H862 0.950 . S
C870 C868 1.391 . S
C870 C871 1.400 . S
C871 C870 1.400 . S
C871 C872 1.398 . S
C871 C877 1.491 . S
C872 H863 0.950 . S
C872 C871 1.398 . S
C872 C873 1.391 . S
C873 H861 0.950 . S
C873 C869 1.393 . S
C873 C872 1.391 . S
C874 H864 0.950 . S
C874 C875 1.386 . S
C874 C876 1.391 . S
C875 C874 1.386 . S
C875 C879 1.393 . S
C876 H865 0.950 . S
C876 C874 1.391 . S
C876 C877 1.400 . S
C877 C871 1.491 . S
C877 C876 1.400 . S
C877 C878 1.398 . S
C878 H866 0.950 . S
C878 C877 1.398 . S
C878 C879 1.391 . S
C879 H867 0.950 . S
C879 C875 1.393 . S
C879 C878 1.391 . S
H880 C888 0.950 . S
H881 C893 0.950 . S
H882 C890 0.950 . S
H883 C892 0.950 . S
H884 C894 0.950 . S
H885 C896 0.950 . S
H886 C898 0.950 . S
H887 C899 0.950 . S
C888 H880 0.950 . S
C888 C889 1.386 . S
C888 C890 1.391 . S
C889 C888 1.386 . S
C889 C893 1.393 . S
C890 H882 0.950 . S
C890 C888 1.391 . S
C890 C891 1.400 . S
C891 C890 1.400 . S
C891 C892 1.398 . S
C891 C897 1.491 . S
C892 H883 0.950 . S
C892 C891 1.398 . S
C892 C893 1.391 . S
C893 H881 0.950 . S
C893 C889 1.393 . S
C893 C892 1.391 . S
C894 H884 0.950 . S
C894 C895 1.386 . S
C894 C896 1.391 . S
C895 C894 1.386 . S
C895 C899 1.393 . S
C896 H885 0.950 . S
C896 C894 1.391 . S
C896 C897 1.400 . S
C897 C891 1.491 . S
C897 C896 1.400 . S
C897 C898 1.398 . S
C898 H886 0.950 . S
C898 C897 1.398 . S
C898 C899 1.391 . S
C899 H887 0.950 . S
C899 C895 1.393 . S
C899 C898 1.391 . S
H900 C908 0.950 . S
H901 C913 0.950 . S
H902 C910 0.950 . S
H903 C912 0.950 . S
H904 C914 0.950 . S
H905 C916 0.950 . S
H906 C918 0.950 . S
H907 C919 0.950 . S
C908 H900 0.950 . S
C908 C909 1.386 . S
C908 C910 1.391 . S
C909 C908 1.386 . S
C909 C913 1.393 . S
C910 H902 0.950 . S
C910 C908 1.391 . S
C910 C911 1.400 . S
C911 C910 1.400 . S
C911 C912 1.398 . S
C911 C917 1.491 . S
C912 H903 0.950 . S
C912 C911 1.398 . S
C912 C913 1.391 . S
C913 H901 0.950 . S
C913 C909 1.393 . S
C913 C912 1.391 . S
C914 H904 0.950 . S
C914 C915 1.386 . S
C914 C916 1.391 . S
C915 C914 1.386 . S
C915 C919 1.393 . S
C916 H905 0.950 . S
C916 C914 1.391 . S
C916 C917 1.400 . S
C917 C911 1.491 . S
C917 C916 1.400 . S
C917 C918 1.398 . S
C918 H906 0.950 . S
C918 C917 1.398 . S
C918 C919 1.391 . S
C919 H907 0.950 . S
C919 C915 1.393 . S
C919 C918 1.391 . S
H920 C928 0.950 . S
H921 C933 0.950 . S
H922 C930 0.950 . S
H923 C932 0.950 . S
H924 C934 0.950 . S
H925 C936 0.950 . S
H926 C938 0.950 . S
H927 C939 0.950 . S
C928 H920 0.950 . S
C928 C929 1.386 . S
C928 C930 1.391 . S
C929 C928 1.386 . S
C929 C933 1.393 . S
C930 H922 0.950 . S
C930 C928 1.391 . S
C930 C931 1.400 . S
C931 C930 1.400 . S
C931 C932 1.398 . S
C931 C937 1.491 . S
C932 H923 0.950 . S
C932 C931 1.398 . S
C932 C933 1.391 . S
C933 H921 0.950 . S
C933 C929 1.393 . S
C933 C932 1.391 . S
C934 H924 0.950 . S
C934 C935 1.386 . S
C934 C936 1.391 . S
C935 C934 1.386 . S
C935 C939 1.393 . S
C936 H925 0.950 . S
C936 C934 1.391 . S
C936 C937 1.400 . S
C937 C931 1.491 . S
C937 C936 1.400 . S
C937 C938 1.398 . S
C938 H926 0.950 . S
C938 C937 1.398 . S
C938 C939 1.391 . S
C939 H927 0.950 . S
C939 C935 1.393 . S
C939 C938 1.391 . S
H940 C948 0.950 . S
H941 C953 0.950 . S
H942 C950 0.950 . S
H943 C952 0.950 . S
H944 C954 0.950 . S
H945 C956 0.950 . S
H946 C958 0.950 . S
H947 C959 0.950 . S
C948 H940 0.950 . S
C948 C949 1.386 . S
C948 C950 1.391 . S
C949 C948 1.386 . S
C949 C953 1.393 . S
C950 H942 0.950 . S
C950 C948 1.391 . S
C950 C951 1.400 . S
C951 C950 1.400 . S
C951 C952 1.398 . S
C951 C957 1.491 . S
C952 H943 0.950 . S
C952 C951 1.398 . S
C952 C953 1.391 . S
C953 H941 0.950 . S
C953 C949 1.393 . S
C953 C952 1.391 . S
C954 H944 0.950 . S
C954 C955 1.386 . S
C954 C956 1.391 . S
C955 C954 1.386 . S
C955 C959 1.393 . S
C956 H945 0.950 . S
C956 C954 1.391 . S
C956 C957 1.400 . S
C957 C951 1.491 . S
C957 C956 1.400 . S
C957 C958 1.398 . S
C958 H946 0.950 . S
C958 C957 1.398 . S
C958 C959 1.391 . S
C959 H947 0.950 . S
C959 C955 1.393 . S
C959 C958 1.391 . S
H960 C968 0.950 . S
H961 C973 0.950 . S
H962 C970 0.950 . S
H963 C972 0.950 . S
H964 C974 0.950 . S
H965 C976 0.950 1_455 S
H966 C978 0.950 . S
H967 C979 0.950 . S
C968 H960 0.950 . S
C968 C969 1.386 . S
C968 C970 1.391 . S
C969 C968 1.386 . S
C969 C973 1.393 . S
C970 H962 0.950 . S
C970 C968 1.391 . S
C970 C971 1.400 . S
C971 C970 1.400 . S
C971 C972 1.398 . S
C971 C977 1.491 . S
C972 H963 0.950 . S
C972 C971 1.398 . S
C972 C973 1.391 . S
C973 H961 0.950 . S
C973 C969 1.393 . S
C973 C972 1.391 . S
C974 H964 0.950 . S
C974 C975 1.386 . S
C974 C976 1.391 . S
C975 C974 1.386 . S
C975 C979 1.393 . S
C976 H965 0.950 1_655 S
C976 C974 1.391 . S
C976 C977 1.400 1_655 S
C977 C971 1.491 . S
C977 C976 1.400 1_455 S
C977 C978 1.398 . S
C978 H966 0.950 . S
C978 C977 1.398 . S
C978 C979 1.391 1_455 S
C979 H967 0.950 . S
C979 C975 1.393 . S
C979 C978 1.391 1_655 S
H980 C988 0.950 . S
H981 C993 0.950 . S
H982 C990 0.950 . S
H983 C992 0.950 . S
H984 C994 0.950 . S
H985 C996 0.950 . S
H986 C998 0.950 . S
H987 C999 0.950 . S
C988 H980 0.950 . S
C988 C989 1.386 . S
C988 C990 1.391 . S
C989 C988 1.386 . S
C989 C993 1.393 . S
C990 H982 0.950 . S
C990 C988 1.391 . S
C990 C991 1.400 . S
C991 C990 1.400 . S
C991 C992 1.398 . S
C991 C997 1.491 . S
C992 H983 0.950 . S
C992 C991 1.398 . S
C992 C993 1.391 . S
C993 H981 0.950 . S
C993 C989 1.393 . S
C993 C992 1.391 . S
C994 H984 0.950 . S
C994 C995 1.386 . S
C994 C996 1.391 . S
C995 C994 1.386 . S
C995 C999 1.393 . S
C996 H985 0.950 . S
C996 C994 1.391 . S
C996 C997 1.400 . S
C997 C991 1.491 . S
C997 C996 1.400 . S
C997 C998 1.398 . S
C998 H986 0.950 . S
C998 C997 1.398 . S
C998 C999 1.391 . S
C999 H987 0.950 . S
C999 C995 1.393 . S
C999 C998 1.391 . S
H1000 C1008 0.950 . S
H1001 C1013 0.950 . S
H1002 C1010 0.950 . S
H1003 C1012 0.950 . S
H1004 C1014 0.950 . S
H1005 C1016 0.950 . S
H1006 C1018 0.950 . S
H1007 C1019 0.950 . S
C1008 H1000 0.950 . S
C1008 C1009 1.386 . S
C1008 C1010 1.391 . S
C1009 C1008 1.386 . S
C1009 C1013 1.393 . S
C1010 H1002 0.950 . S
C1010 C1008 1.391 . S
C1010 C1011 1.400 . S
C1011 C1010 1.400 . S
C1011 C1012 1.398 . S
C1011 C1017 1.491 . S
C1012 H1003 0.950 . S
C1012 C1011 1.398 . S
C1012 C1013 1.391 . S
C1013 H1001 0.950 . S
C1013 C1009 1.393 . S
C1013 C1012 1.391 . S
C1014 H1004 0.950 . S
C1014 C1015 1.386 . S
C1014 C1016 1.391 . S
C1015 C1014 1.386 . S
C1015 C1019 1.393 . S
C1016 H1005 0.950 . S
C1016 C1014 1.391 . S
C1016 C1017 1.400 . S
C1017 C1011 1.491 . S
C1017 C1016 1.400 . S
C1017 C1018 1.398 . S
C1018 H1006 0.950 . S
C1018 C1017 1.398 . S
C1018 C1019 1.391 . S
C1019 H1007 0.950 . S
C1019 C1015 1.393 . S
C1019 C1018 1.391 . S
H1020 C1028 0.950 . S
H1021 C1033 0.950 . S
H1022 C1030 0.950 . S
H1023 C1032 0.950 . S
H1024 C1034 0.950 . S
H1025 C1036 0.950 . S
H1026 C1038 0.950 . S
H1027 C1039 0.950 . S
C1028 H1020 0.950 . S
C1028 C1029 1.386 . S
C1028 C1030 1.391 . S
C1029 C1028 1.386 . S
C1029 C1033 1.393 . S
C1030 H1022 0.950 . S
C1030 C1028 1.391 . S
C1030 C1031 1.400 . S
C1031 C1030 1.400 . S
C1031 C1032 1.398 . S
C1031 C1037 1.491 . S
C1032 H1023 0.950 . S
C1032 C1031 1.398 . S
C1032 C1033 1.391 . S
C1033 H1021 0.950 . S
C1033 C1029 1.393 . S
C1033 C1032 1.391 . S
C1034 H1024 0.950 . S
C1034 C1035 1.386 . S
C1034 C1036 1.391 . S
C1035 C1034 1.386 . S
C1035 C1039 1.393 . S
C1036 H1025 0.950 . S
C1036 C1034 1.391 . S
C1036 C1037 1.400 . S
C1037 C1031 1.491 . S
C1037 C1036 1.400 . S
C1037 C1038 1.398 . S
C1038 H1026 0.950 . S
C1038 C1037 1.398 . S
C1038 C1039 1.391 . S
C1039 H1027 0.950 . S
C1039 C1035 1.393 . S
C1039 C1038 1.391 . S
H1040 C1048 0.950 . S
H1041 C1053 0.950 . S
H1042 C1050 0.950 . S
H1043 C1052 0.950 . S
H1044 C1054 0.948 1_545 S
H1045 C1056 0.950 . S
H1046 C1058 0.950 . S
H1047 C1059 0.950 . S
C1048 H1040 0.950 . S
C1048 C1049 1.386 . S
C1048 C1050 1.391 . S
C1049 C1048 1.386 . S
C1049 C1053 1.393 . S
C1050 H1042 0.950 . S
C1050 C1048 1.391 . S
C1050 C1051 1.400 . S
C1051 C1050 1.400 . S
C1051 C1052 1.398 . S
C1051 C1057 1.491 . S
C1052 H1043 0.950 . S
C1052 C1051 1.398 . S
C1052 C1053 1.391 . S
C1053 H1041 0.950 . S
C1053 C1049 1.393 . S
C1053 C1052 1.391 . S
C1054 H1044 0.948 1_565 S
C1054 C1055 1.386 . S
C1054 C1056 1.391 . S
C1055 C1054 1.386 . S
C1055 C1059 1.393 . S
C1056 H1045 0.950 . S
C1056 C1054 1.391 . S
C1056 C1057 1.400 . S
C1057 C1051 1.491 . S
C1057 C1056 1.400 . S
C1057 C1058 1.398 . S
C1058 H1046 0.950 . S
C1058 C1057 1.398 . S
C1058 C1059 1.391 . S
C1059 H1047 0.950 . S
C1059 C1055 1.393 . S
C1059 C1058 1.391 . S
H1060 C1068 0.950 . S
H1061 C1073 0.950 . S
H1062 C1070 0.950 . S
H1063 C1072 0.950 . S
H1064 C1074 0.950 . S
H1065 C1076 0.950 . S
H1066 C1078 0.950 . S
H1067 C1079 0.950 . S
C1068 H1060 0.950 . S
C1068 C1069 1.386 1_545 S
C1068 C1070 1.391 . S
C1069 C1068 1.386 1_565 S
C1069 C1073 1.393 . S
C1070 H1062 0.950 . S
C1070 C1068 1.391 . S
C1070 C1071 1.400 . S
C1071 C1070 1.400 . S
C1071 C1072 1.398 . S
C1071 C1077 1.491 . S
C1072 H1063 0.950 . S
C1072 C1071 1.398 . S
C1072 C1073 1.391 1_545 S
C1073 H1061 0.950 . S
C1073 C1069 1.393 . S
C1073 C1072 1.391 1_565 S
C1074 H1064 0.950 . S
C1074 C1075 1.386 . S
C1074 C1076 1.391 1_455 S
C1075 C1074 1.386 . S
C1075 C1079 1.393 1_455 S
C1076 H1065 0.950 . S
C1076 C1074 1.391 1_655 S
C1076 C1077 1.400 . S
C1077 C1071 1.491 . S
C1077 C1076 1.400 . S
C1077 C1078 1.398 . S
C1078 H1066 0.950 . S
C1078 C1077 1.398 . S
C1078 C1079 1.391 . S
C1079 H1067 0.950 . S
C1079 C1075 1.393 1_655 S
C1079 C1078 1.391 . S
C369 N6 1.281 . S
C375 N336 1.248 . S
C389 C271 2.147 1_565 S
C395 C31 2.149 1_655 S
C409 N66 1.861 . S
C415 C241 1.955 . S
C429 C91 2.144 . S
C435 C301 2.138 . S
C449 N126 0.983 . S
C455 N306 1.060 . S
C469 N156 1.487 . S
C475 C331 1.545 . S
C489 N276 1.582 . S
C495 C181 1.676 . S
C509 N216 0.689 . S
C515 N246 0.734 . S
C529 N96 1.417 . S
C535 C121 1.503 . S
C549 C1 2.299 . S
C555 C151 2.324 . S
C569 N36 0.643 . S
C575 N186 0.644 . S
C589 C211 2.216 . S
C595 C61 2.209 1_554 S
C609 C16 1.076 . S
C615 C250 1.060 . S
C629 C57 1.382 . S
C635 C310 1.345 . S
C649 N344 0.823 . S
C655 C76 0.830 . S
C669 C117 1.690 . S
C675 C280 1.701 . S
C689 C136 0.830 . S
C695 N284 0.840 . S
C709 N254 0.892 . S
C715 C166 0.891 1_455 S
C729 N314 1.047 . S
C735 C207 1.049 . S
C749 C340 1.096 . S
C755 C226 1.128 . S
C769 C10 1.549 . S
C775 C106 1.534 . S
C789 C27 0.918 . S
C795 N44 0.927 . S
C809 C46 1.624 . S
C815 C70 1.618 . S
C829 N104 1.115 . S
C835 C87 1.098 1_554 S
C849 C177 1.180 . S
C855 C130 1.176 . S
C869 C160 1.577 . S
C875 C196 1.588 . S
C889 N194 0.850 . S
C895 C237 0.851 . S
C909 C147 1.124 . S
C915 C220 1.122 . S
C929 C256 1.367 . S
C935 C100 1.360 . S
C949 N164 1.321 . S
C955 C297 1.300 . S
C969 C267 0.992 . S
C975 C190 0.999 . S
C989 C327 1.097 . S
C995 N224 1.095 . S
C1009 N134 0.460 . S
C1015 C346 0.486 . S
C1029 C357 0.835 . S
C1035 C40 0.820 . S
C1049 N74 1.149 . S
C1055 C286 1.133 . S
C1069 C316 1.107 . S
C1075 N14 1.116 . S
