# Generated by pormake.
# Topology sod, (4)-cn, num edge types: 1
# Building blocks:
#     Node 0, Type 0, BuildingBlock: UXUYUI_clean_sbu_0, # of connection points: 4
#     Node 1, Type 0, BuildingBlock: UXUYUI_clean_sbu_0, # of connection points: 4
#     Node 2, Type 0, BuildingBlock: UXUYUI_clean_sbu_0, # of connection points: 4
#     Node 3, Type 0, BuildingBlock: UXUYUI_clean_sbu_0, # of connection points: 4
#     Node 4, Type 0, BuildingBlock: UXUYUI_clean_sbu_0, # of connection points: 4
#     Node 5, Type 0, BuildingBlock: UXUYUI_clean_sbu_0, # of connection points: 4
#     Node 6, Type 0, BuildingBlock: UXUYUI_clean_sbu_0, # of connection points: 4
#     Node 7, Type 0, BuildingBlock: UXUYUI_clean_sbu_0, # of connection points: 4
#     Node 8, Type 0, BuildingBlock: UXUYUI_clean_sbu_0, # of connection points: 4
#     Node 9, Type 0, BuildingBlock: UXUYUI_clean_sbu_0, # of connection points: 4
#     Node 10, Type 0, BuildingBlock: UXUYUI_clean_sbu_0, # of connection points: 4
#     Node 11, Type 0, BuildingBlock: UXUYUI_clean_sbu_0, # of connection points: 4
#     Edge 12, Type (0, 0), BuildingBlock: EZIPEK_clean_linker_0, # of connection points: 2
#     Edge 13, Type (0, 0), BuildingBlock: EZIPEK_clean_linker_0, # of connection points: 2
#     Edge 14, Type (0, 0), BuildingBlock: EZIPEK_clean_linker_0, # of connection points: 2
#     Edge 15, Type (0, 0), BuildingBlock: EZIPEK_clean_linker_0, # of connection points: 2
#     Edge 16, Type (0, 0), BuildingBlock: EZIPEK_clean_linker_0, # of connection points: 2
#     Edge 17, Type (0, 0), BuildingBlock: EZIPEK_clean_linker_0, # of connection points: 2
#     Edge 18, Type (0, 0), BuildingBlock: EZIPEK_clean_linker_0, # of connection points: 2
#     Edge 19, Type (0, 0), BuildingBlock: EZIPEK_clean_linker_0, # of connection points: 2
#     Edge 20, Type (0, 0), BuildingBlock: EZIPEK_clean_linker_0, # of connection points: 2
#     Edge 21, Type (0, 0), BuildingBlock: EZIPEK_clean_linker_0, # of connection points: 2
#     Edge 22, Type (0, 0), BuildingBlock: EZIPEK_clean_linker_0, # of connection points: 2
#     Edge 23, Type (0, 0), BuildingBlock: EZIPEK_clean_linker_0, # of connection points: 2
#     Edge 24, Type (0, 0), BuildingBlock: EZIPEK_clean_linker_0, # of connection points: 2
#     Edge 25, Type (0, 0), BuildingBlock: EZIPEK_clean_linker_0, # of connection points: 2
#     Edge 26, Type (0, 0), BuildingBlock: EZIPEK_clean_linker_0, # of connection points: 2
#     Edge 27, Type (0, 0), BuildingBlock: EZIPEK_clean_linker_0, # of connection points: 2
#     Edge 28, Type (0, 0), BuildingBlock: EZIPEK_clean_linker_0, # of connection points: 2
#     Edge 29, Type (0, 0), BuildingBlock: EZIPEK_clean_linker_0, # of connection points: 2
#     Edge 30, Type (0, 0), BuildingBlock: EZIPEK_clean_linker_0, # of connection points: 2
#     Edge 31, Type (0, 0), BuildingBlock: EZIPEK_clean_linker_0, # of connection points: 2
#     Edge 32, Type (0, 0), BuildingBlock: EZIPEK_clean_linker_0, # of connection points: 2
#     Edge 33, Type (0, 0), BuildingBlock: EZIPEK_clean_linker_0, # of connection points: 2
#     Edge 34, Type (0, 0), BuildingBlock: EZIPEK_clean_linker_0, # of connection points: 2
#     Edge 35, Type (0, 0), BuildingBlock: EZIPEK_clean_linker_0, # of connection points: 2
# Relax obj value: 0.150
# Max RMSD: 0.167
# Mean RMSD: 0.167
data_MOF--net-sod--node1-UXUYUI_clean_sbu_0--edge1-EZIPEK_clean_linker_0
_symmetry_space_group_name_H-M    P1
_symmetry_Int_Tables_number       1
_symmetry_cell_setting            triclinic
loop_
_symmetry_equiv_pos_as_xyz
'x, y, z'
_cell_length_a     51.028477
_cell_length_b     51.012871
_cell_length_c     51.023527
_cell_angle_alpha  89.996126
_cell_angle_beta   90.015119
_cell_angle_gamma 89.99687
loop_
_atom_site_label
_atom_site_type_symbol
_atom_site_fract_x
_atom_site_fract_y
_atom_site_fract_z
_atom_type_partial_charge
Li0 Li 0.97747 0.23348 0.50311 0.0
Li1 Li 0.00102 0.26574 0.52717 0.0
Li2 Li 0.99858 0.26836 0.48016 0.0
Li3 Li 0.02677 0.23395 0.50189 0.0
C4 C 0.94303 0.26872 0.50868 0.0
N5 N 0.88983 0.26085 0.51542 0.0
C6 C 0.93196 0.26994 0.53372 0.0
C7 C 0.92698 0.2635 0.48707 0.0
C8 C 0.90503 0.26596 0.53671 0.0
C9 C 0.90016 0.25954 0.49089 0.0
C10 C 0.00754 0.22438 0.55832 0.0
C11 C 0.03633 0.21338 0.59421 0.0
N12 N 0.01683 0.21911 0.61145 0.0
C13 C 0.98778 0.23009 0.57642 0.0
C14 C 0.03204 0.21594 0.56729 0.0
C15 C 0.99287 0.22736 0.60318 0.0
C16 C 0.94195 0.19765 0.47975 0.0
N17 N 0.94876 0.20919 0.50281 0.0
C18 C 0.91533 0.18542 0.5255 0.0
C19 C 0.93597 0.20339 0.52547 0.0
C20 C 0.90803 0.17326 0.502 0.0
C21 C 0.92144 0.17954 0.47888 0.0
H22 H 0.95258 0.20234 0.46207 0.0
H23 H 0.94177 0.21267 0.54354 0.0
C24 C 0.98588 0.3093 0.55724 0.0
N25 N 0.00269 0.28859 0.55728 0.0
C26 C 0.98662 0.32781 0.57735 0.0
C27 C 0.02247 0.30389 0.59701 0.0
C28 C 0.02106 0.28582 0.57646 0.0
C29 C 0.00506 0.32511 0.59749 0.0
H30 H 0.97222 0.31177 0.54124 0.0
H31 H 0.03507 0.27 0.57553 0.0
C32 C 0.00516 0.23198 0.44573 0.0
N33 N 0.01377 0.23783 0.39258 0.0
C34 C 0.03033 0.22877 0.43543 0.0
C35 C 0.98434 0.23803 0.42896 0.0
C36 C 0.03429 0.23182 0.40851 0.0
C37 C 0.98911 0.24097 0.40216 0.0
C38 C 0.04363 0.29253 0.513 0.0
C39 C 0.03471 0.31816 0.50923 0.0
C40 C 0.06568 0.28794 0.52857 0.0
C41 C 0.04802 0.33885 0.52126 0.0
C42 C 0.07844 0.30917 0.54026 0.0
N43 N 0.06941 0.33396 0.5364 0.0
C44 C 0.97546 0.30578 0.44613 0.0
C45 C 0.02086 0.29969 0.44005 0.0
C46 C 0.9755 0.32679 0.42861 0.0
N47 N 0.99811 0.29331 0.45222 0.0
C48 C 0.02173 0.32077 0.42254 0.0
C49 C 0.99937 0.33676 0.41856 0.0
H50 H 0.95736 0.29984 0.45528 0.0
H51 H 0.03851 0.28876 0.44439 0.0
C52 C 0.05313 0.18638 0.50486 0.0
N53 N 0.05697 0.21227 0.49985 0.0
C54 C 0.07414 0.16891 0.50404 0.0
C55 C 0.10262 0.20494 0.49219 0.0
C56 C 0.08104 0.22182 0.4935 0.0
C57 C 0.09916 0.1782 0.49767 0.0
H58 H 0.03372 0.17939 0.50972 0.0
H59 H 0.08342 0.24247 0.48933 0.0
O60 O 0.9695 0.27188 0.50541 0.0
O61 O 0.00293 0.22685 0.532 0.0
O62 O 0.00101 0.2297 0.47213 0.0
O63 O 0.0306 0.272 0.50177 0.0
H64 H 0.94401 0.27357 0.55075 0.0
H65 H 0.93518 0.26187 0.46763 0.0
H66 H 0.89626 0.26676 0.55599 0.0
H67 H 0.88758 0.25524 0.47437 0.0
H68 H 0.05521 0.20694 0.6014 0.0
H69 H 0.96888 0.23707 0.56995 0.0
H70 H 0.04767 0.21164 0.55368 0.0
H71 H 0.97781 0.23191 0.61739 0.0
H72 H 0.90532 0.18086 0.54366 0.0
H73 H 0.91626 0.17031 0.46048 0.0
H74 H 0.97323 0.34428 0.57702 0.0
H75 H 0.03723 0.30162 0.6121 0.0
H76 H 0.04668 0.22415 0.44806 0.0
H77 H 0.96477 0.24083 0.43659 0.0
H78 H 0.05369 0.22948 0.40029 0.0
H79 H 0.97321 0.24583 0.389 0.0
H80 H 0.01754 0.322 0.49738 0.0
H81 H 0.07266 0.26818 0.53186 0.0
H82 H 0.04127 0.35878 0.51865 0.0
H83 H 0.09545 0.30592 0.55249 0.0
H84 H 0.95666 0.33475 0.42334 0.0
H85 H 0.04001 0.32413 0.41247 0.0
H86 H 0.07093 0.14834 0.50825 0.0
H87 H 0.12175 0.21258 0.4871 0.0
Li88 Li 0.73245 0.00279 0.52217 0.0
Li89 Li 0.76626 0.97815 0.49607 0.0
Li90 Li 0.76567 0.0254 0.49601 0.0
Li91 Li 0.7331 0.00166 0.47273 0.0
C92 C 0.79308 0.01085 0.53799 0.0
N93 N 0.83859 0.0308 0.55949 0.0
C94 C 0.81743 0.00388 0.52757 0.0
C95 C 0.79186 0.02802 0.5593 0.0
C96 C 0.84022 0.01416 0.53873 0.0
C97 C 0.8151 0.0379 0.56989 0.0
C98 C 0.72702 0.94599 0.50301 0.0
C99 C 0.7324 0.90112 0.48907 0.0
N100 N 0.72776 0.89295 0.51401 0.0
C101 C 0.7222 0.93713 0.52849 0.0
C102 C 0.73201 0.92784 0.4831 0.0
C103 C 0.72267 0.91024 0.53365 0.0
C104 C 0.68389 0.00223 0.5467 0.0
N105 N 0.71003 0.00279 0.5518 0.0
C106 C 0.70196 0.00317 0.59795 0.0
C107 C 0.71936 0.00306 0.57677 0.0
C108 C 0.67488 0.00264 0.59317 0.0
C109 C 0.66584 0.00208 0.56723 0.0
H110 H 0.67713 0.00191 0.5266 0.0
H111 H 0.74025 0.00309 0.58024 0.0
C112 C 0.80347 0.94185 0.47629 0.0
N113 N 0.7887 0.94825 0.49752 0.0
C114 C 0.82114 0.92099 0.47758 0.0
C115 C 0.80818 0.91377 0.5226 0.0
C116 C 0.79078 0.93481 0.52046 0.0
C117 C 0.82367 0.90688 0.501 0.0
H118 H 0.80201 0.95329 0.45855 0.0
H119 H 0.77923 0.94073 0.53721 0.0
C120 C 0.725 0.0583 0.49988 0.0
N121 N 0.72077 0.11191 0.50641 0.0
C122 C 0.73222 0.07526 0.47961 0.0
C123 C 0.71546 0.0686 0.52341 0.0
C124 C 0.73001 0.10231 0.48332 0.0
C125 C 0.71348 0.09576 0.52633 0.0
C126 C 0.76973 0.00259 0.43914 0.0
C127 C 0.77228 0.02642 0.42584 0.0
C128 C 0.76439 0.97973 0.42499 0.0
C129 C 0.76945 0.02696 0.3986 0.0
C130 C 0.7616 0.9811 0.39779 0.0
N131 N 0.76418 0.00449 0.38527 0.0
C132 C 0.80998 0.05422 0.48014 0.0
C133 C 0.78652 0.07455 0.5147 0.0
C134 C 0.82881 0.07404 0.48064 0.0
N135 N 0.78917 0.05494 0.49679 0.0
C136 C 0.80494 0.09479 0.5159 0.0
C137 C 0.82634 0.09455 0.49871 0.0
H138 H 0.8123 0.03789 0.46685 0.0
H139 H 0.77051 0.07418 0.52852 0.0
C140 C 0.69529 0.97904 0.43895 0.0
N141 N 0.70949 0.00114 0.44348 0.0
C142 C 0.67704 0.97826 0.41855 0.0
C143 C 0.68852 0.02293 0.40764 0.0
C144 C 0.70639 0.02291 0.42838 0.0
C145 C 0.67347 1.00047 0.40278 0.0
H146 H 0.69781 0.96213 0.45144 0.0
H147 H 0.71764 0.04032 0.4325 0.0
O148 O 0.77054 0.00135 0.52702 0.0
O149 O 0.72726 0.97229 0.49769 0.0
O150 O 0.727 0.03175 0.49669 0.0
O151 O 0.77184 0.00173 0.46589 0.0
H152 H 0.81874 0.99092 0.51084 0.0
H153 H 0.77317 0.03402 0.5673 0.0
H154 H 0.8592 0.00901 0.53081 0.0
H155 H 0.81446 0.05131 0.5863 0.0
H156 H 0.73645 0.88689 0.47389 0.0
H157 H 0.71841 0.95084 0.54419 0.0
H158 H 0.73588 0.93432 0.4633 0.0
H159 H 0.7191 0.90312 0.5533 0.0
H160 H 0.70947 0.00357 0.6178 0.0
H161 H 0.64505 0.00166 0.56297 0.0
H162 H 0.83306 0.91621 0.46068 0.0
H163 H 0.80991 0.9033 0.54099 0.0
H164 H 0.73996 0.06768 0.46142 0.0
H165 H 0.70974 0.05579 0.5393 0.0
H166 H 0.73576 0.11566 0.46789 0.0
H167 H 0.70621 0.104 0.54446 0.0
H168 H 0.77597 0.04441 0.4364 0.0
H169 H 0.76201 0.96118 0.43493 0.0
H170 H 0.77125 0.04529 0.38809 0.0
H171 H 0.75728 0.96359 0.38665 0.0
H172 H 0.8454 0.07316 0.46742 0.0
H173 H 0.8028 0.11018 0.53037 0.0
H174 H 0.66558 0.96069 0.41532 0.0
H175 H 0.6861 0.04039 0.39581 0.0
Li176 Li 0.02102 0.76852 0.49665 0.0
Li177 Li 0.99719 0.73309 0.52212 0.0
Li178 Li 0.99685 0.73573 0.47229 0.0
Li179 Li 0.97378 0.76711 0.49811 0.0
C180 C 0.05346 0.72707 0.49884 0.0
N181 N 0.1072 0.72272 0.50392 0.0
C182 C 0.06443 0.71871 0.52251 0.0
C183 C 0.06982 0.7329 0.47765 0.0
C184 C 0.09165 0.71669 0.52471 0.0
C185 C 0.09694 0.7307 0.48065 0.0
C186 C 0.98618 0.78919 0.54334 0.0
C187 C 0.95626 0.80025 0.57817 0.0
N188 N 0.95938 0.8261 0.57243 0.0
C189 C 0.98925 0.81585 0.53788 0.0
C190 C 0.96967 0.78127 0.5637 0.0
C191 C 0.97546 0.83422 0.55278 0.0
C192 C 0.05122 0.81141 0.47965 0.0
N193 N 0.05052 0.79153 0.4974 0.0
C194 C 0.0904 0.80652 0.51699 0.0
C195 C 0.06937 0.78899 0.5161 0.0
C196 C 0.09152 0.8272 0.49891 0.0
C197 C 0.07167 0.82959 0.48006 0.0
H198 H 0.03564 0.81344 0.46546 0.0
H199 H 0.06791 0.77356 0.53054 0.0
C200 C 0.98929 0.68518 0.5477 0.0
N201 N 0.99835 0.70999 0.55121 0.0
C202 C 0.99005 0.66719 0.5683 0.0
C203 C 0.01012 0.70044 0.59554 0.0
C204 C 0.00862 0.71793 0.5745 0.0
C205 C 0.00065 0.67481 0.59247 0.0
H206 H 0.98147 0.6794 0.52886 0.0
H207 H 0.01591 0.73773 0.57659 0.0
C208 C 0.99596 0.77605 0.44087 0.0
N209 N 0.99526 0.77831 0.38675 0.0
C210 C 0.97232 0.77979 0.42752 0.0
C211 C 0.01927 0.77371 0.42667 0.0
C212 C 0.97237 0.78084 0.40016 0.0
C213 C 0.0185 0.77481 0.39933 0.0
C214 C 0.94093 0.72623 0.49836 0.0
C215 C 0.92545 0.73408 0.47716 0.0
C216 C 0.92898 0.71606 0.52082 0.0
C217 C 0.89822 0.73176 0.47884 0.0
C218 C 0.90169 0.71397 0.5217 0.0
N219 N 0.88701 0.72183 0.50088 0.0
C220 C 0.01786 0.69659 0.43957 0.0
C221 C 0.9773 0.71338 0.42437 0.0
C222 C 0.01872 0.67868 0.41891 0.0
N223 N 0.99735 0.71346 0.44198 0.0
C224 C 0.97746 0.69591 0.40328 0.0
C225 C 0.99824 0.67814 0.40065 0.0
H226 H 0.0333 0.69659 0.45404 0.0
H227 H 0.96097 0.72655 0.42683 0.0
C228 C 0.945 0.81213 0.48491 0.0
N229 N 0.94401 0.79029 0.50018 0.0
C230 C 0.92478 0.83052 0.48568 0.0
C231 C 0.90305 0.8041 0.51845 0.0
C232 C 0.92375 0.78621 0.51708 0.0
C233 C 0.90351 0.82646 0.50252 0.0
H234 H 0.96174 0.81549 0.47239 0.0
H235 H 0.92383 0.76937 0.52987 0.0
O236 O 0.02685 0.72941 0.49639 0.0
O237 O 0.99895 0.77091 0.52854 0.0
O238 O 0.99631 0.77466 0.46766 0.0
O239 O 0.96763 0.72835 0.49712 0.0
H240 H 0.0521 0.71393 0.53905 0.0
H241 H 0.06167 0.73911 0.45912 0.0
H242 H 0.1004 0.71037 0.54295 0.0
H243 H 0.10982 0.73531 0.46446 0.0
H244 H 0.94326 0.79442 0.59387 0.0
H245 H 0.00192 0.82224 0.5221 0.0
H246 H 0.96698 0.76067 0.56802 0.0
H247 H 0.97747 0.85493 0.54867 0.0
H248 H 0.10535 0.80432 0.5319 0.0
H249 H 0.0719 0.84548 0.46599 0.0
H250 H 0.98273 0.64748 0.56538 0.0
H251 H 0.01851 0.70676 0.61399 0.0
H252 H 0.95405 0.78151 0.43812 0.0
H253 H 0.03775 0.77107 0.43666 0.0
H254 H 0.9542 0.78356 0.38959 0.0
H255 H 0.03638 0.7729 0.38811 0.0
H256 H 0.9343 0.74235 0.45982 0.0
H257 H 0.94059 0.71009 0.53751 0.0
H258 H 0.88601 0.73797 0.46265 0.0
H259 H 0.89218 0.70621 0.53899 0.0
H260 H 0.03494 0.66505 0.41745 0.0
H261 H 0.9613 0.69583 0.38951 0.0
H262 H 0.9258 0.84784 0.47344 0.0
H263 H 0.88703 0.80072 0.53195 0.0
Li264 Li 0.2346 0.02509 0.50104 0.0
Li265 Li 0.26521 1.00025 0.52587 0.0
Li266 Li 0.26921 0.0009 0.4786 0.0
Li267 Li 0.23138 0.97709 0.50163 0.0
C268 C 0.27817 0.05303 0.51702 0.0
N269 N 0.28841 0.09788 0.54561 0.0
C270 C 0.26562 0.05726 0.54099 0.0
C271 C 0.29592 0.07163 0.50758 0.0
C272 C 0.27107 0.08003 0.55516 0.0
C273 C 0.30083 0.09418 0.52232 0.0
C274 C 0.21575 0.99591 0.55418 0.0
C275 C 0.20197 0.96416 0.5864 0.0
N276 N 0.1926 0.98391 0.60166 0.0
C277 C 0.20576 0.01587 0.57007 0.0
C278 C 0.21367 0.96982 0.56231 0.0
C279 C 0.19424 0.00942 0.59405 0.0
C280 C 0.18758 0.05229 0.50781 0.0
N281 N 0.21279 0.05544 0.49979 0.0
C282 C 0.20489 0.10054 0.48973 0.0
C283 C 0.22168 0.07891 0.49073 0.0
C284 C 0.17879 0.0977 0.49783 0.0
C285 C 0.1701 0.07329 0.50691 0.0
H286 H 0.18103 0.03332 0.51465 0.0
H287 H 0.2417 0.08077 0.48407 0.0
C288 C 0.31243 0.00793 0.55231 0.0
N289 N 0.2874 0.99972 0.5565 0.0
C290 C 0.33066 0.00785 0.57269 0.0
C291 C 0.29711 0.99103 0.60158 0.0
C292 C 0.2795 0.99137 0.58058 0.0
C293 C 0.32298 0.99931 0.59761 0.0
H294 H 0.31832 0.01427 0.53297 0.0
H295 H 0.25972 0.98472 0.5836 0.0
C296 C 0.21797 0.01711 0.45339 0.0
N297 N 0.19146 0.05162 0.42118 0.0
C298 C 0.1907 0.01581 0.45134 0.0
C299 C 0.23179 0.03586 0.43898 0.0
C300 C 0.17764 0.03348 0.43498 0.0
C301 C 0.21802 0.05315 0.42281 0.0
C302 C 0.28939 0.9563 0.51449 0.0
C303 C 0.31546 0.96018 0.50705 0.0
C304 C 0.28358 0.93935 0.53522 0.0
C305 C 0.33536 0.94723 0.52069 0.0
C306 C 0.30404 0.92679 0.54839 0.0
N307 N 0.32928 0.93095 0.54091 0.0
C308 C 0.31482 0.01437 0.45063 0.0
C309 C 0.28683 0.98436 0.42872 0.0
C310 C 0.33264 0.01361 0.42987 0.0
N311 N 0.29251 0.99983 0.44967 0.0
C312 C 0.30414 0.98298 0.40753 0.0
C313 C 0.32734 0.9977 0.40812 0.0
H314 H 0.31887 0.02632 0.46765 0.0
H315 H 0.26893 0.97301 0.42858 0.0
C316 C 0.18166 0.95399 0.50062 0.0
N317 N 0.2077 0.94841 0.50026 0.0
C318 C 0.16323 0.93378 0.5003 0.0
C319 C 0.19879 0.9024 0.49984 0.0
C320 C 0.21657 0.92327 0.49981 0.0
C321 C 0.17179 0.90766 0.5 0.0
H322 H 0.17525 0.97418 0.50145 0.0
H323 H 0.23741 0.91945 0.49969 0.0
O324 O 0.27313 0.03091 0.50268 0.0
O325 O 0.22654 0.00191 0.53038 0.0
O326 O 0.23106 0.00073 0.4701 0.0
O327 O 0.2697 0.9693 0.50176 0.0
H328 H 0.25193 0.0431 0.54864 0.0
H329 H 0.30573 0.06873 0.489 0.0
H330 H 0.26151 0.08351 0.57376 0.0
H331 H 0.3145 0.10875 0.51524 0.0
H332 H 0.20035 0.94406 0.59298 0.0
H333 H 0.20681 0.03615 0.56392 0.0
H334 H 0.2212 0.9541 0.55032 0.0
H335 H 0.18651 0.02468 0.60658 0.0
H336 H 0.21205 0.11919 0.48254 0.0
H337 H 0.15002 0.07058 0.51324 0.0
H338 H 0.35057 0.01424 0.56906 0.0
H339 H 0.29072 0.98421 0.62064 0.0
H340 H 0.1797 0.0015 0.46245 0.0
H341 H 0.25289 0.03733 0.44059 0.0
H342 H 0.15652 0.03282 0.43332 0.0
H343 H 0.22844 0.06787 0.41166 0.0
H344 H 0.3203 0.97326 0.49109 0.0
H345 H 0.26353 0.93611 0.54122 0.0
H346 H 0.35563 0.95017 0.51526 0.0
H347 H 0.29985 0.91376 0.56459 0.0
H348 H 0.35046 0.02512 0.43083 0.0
H349 H 0.29961 0.97053 0.39095 0.0
H350 H 0.14252 0.93843 0.50058 0.0
H351 H 0.20596 0.88242 0.49974 0.0
Li352 Li 0.49755 0.02055 0.23245 0.0
Li353 Li 0.47448 0.99618 0.26577 0.0
Li354 Li 0.5218 0.99638 0.26501 0.0
Li355 Li 0.49772 0.97322 0.23174 0.0
C356 C 0.51254 0.04828 0.2772 0.0
N357 N 0.54201 0.09179 0.29029 0.0
C358 C 0.50612 0.06312 0.2993 0.0
C359 C 0.53395 0.05558 0.26174 0.0
C360 C 0.52126 0.08505 0.3056 0.0
C361 C 0.5486 0.07764 0.26868 0.0
C362 C 0.44526 0.01151 0.22219 0.0
C363 C 0.40719 0.02047 0.19562 0.0
N364 N 0.40144 0.04138 0.21114 0.0
C365 C 0.43895 0.03307 0.23788 0.0
C366 C 0.42925 0.00513 0.2009 0.0
C367 C 0.41673 0.04792 0.23197 0.0
C368 C 0.50632 0.0473 0.18552 0.0
N369 N 0.49687 0.05058 0.21021 0.0
C370 C 0.48622 0.09534 0.20115 0.0
C371 C 0.48697 0.074 0.21833 0.0
C372 C 0.49585 0.09238 0.1756 0.0
C373 C 0.50607 0.06813 0.16778 0.0
H374 H 0.51389 0.02841 0.1796 0.0
H375 H 0.47955 0.07608 0.23806 0.0
C376 C 0.45069 0.00328 0.31431 0.0
N377 N 0.44551 0.99557 0.28934 0.0
C378 C 0.43088 0.00326 0.33315 0.0
C379 C 0.40068 0.9873 0.30026 0.0
C380 C 0.42114 0.98753 0.28203 0.0
C381 C 0.40559 0.99524 0.3261 0.0
H382 H 0.47031 0.00935 0.31957 0.0
H383 H 0.41759 0.98126 0.2621 0.0
C384 C 0.54974 0.98271 0.22018 0.0
N385 N 0.59332 0.95342 0.20692 0.0
C386 C 0.55676 0.96086 0.23516 0.0
C387 C 0.56492 0.98968 0.19849 0.0
C388 C 0.57885 0.94631 0.22813 0.0
C389 C 0.58687 0.97462 0.19209 0.0
C390 C 0.48389 0.94385 0.27545 0.0
C391 C 0.49143 0.92717 0.29582 0.0
C392 C 0.46141 0.9381 0.26085 0.0
C393 C 0.47633 0.905 0.3013 0.0
C394 C 0.44684 0.91574 0.26693 0.0
N395 N 0.45453 0.89979 0.28687 0.0
C396 C 0.54811 0.9861 0.31179 0.0
C397 C 0.5749 0.00719 0.28017 0.0
C398 C 0.56853 0.98637 0.32998 0.0
N399 N 0.5516 0.99649 0.28751 0.0
C400 C 0.59583 0.00804 0.29783 0.0
C401 C 0.59263 0.99761 0.32306 0.0
H402 H 0.52929 0.97792 0.31711 0.0
H403 H 0.57713 0.01537 0.26075 0.0
C404 C 0.48739 0.94772 0.18432 0.0
N405 N 0.49775 0.94389 0.20857 0.0
C406 C 0.48744 0.92745 0.16594 0.0
C407 C 0.50891 0.89965 0.1978 0.0
C408 C 0.50831 0.92042 0.21564 0.0
C409 C 0.49842 0.90319 0.17265 0.0
H410 H 0.47932 0.96665 0.17921 0.0
H411 H 0.51646 0.9179 0.23504 0.0
O412 O 0.49793 0.02666 0.271 0.0
O413 O 0.46702 0.9967 0.22736 0.0
O414 O 0.52811 0.99727 0.22649 0.0
O415 O 0.49851 0.96568 0.27006 0.0
H416 H 0.48961 0.05771 0.31147 0.0
H417 H 0.53927 0.04436 0.24458 0.0
H418 H 0.51653 0.0967 0.32267 0.0
H419 H 0.56522 0.0835 0.2569 0.0
H420 H 0.39465 0.01577 0.17919 0.0
H421 H 0.45103 0.03834 0.25447 0.0
H422 H 0.43385 0.98849 0.18856 0.0
H423 H 0.41164 0.06466 0.24395 0.0
H424 H 0.47821 0.11389 0.20765 0.0
H425 H 0.51357 0.06533 0.14812 0.0
H426 H 0.43518 0.00942 0.35301 0.0
H427 H 0.38132 0.98092 0.29435 0.0
H428 H 0.54531 0.95512 0.25203 0.0
H429 H 0.55977 0.00656 0.1867 0.0
H430 H 0.58448 0.92934 0.23954 0.0
H431 H 0.59878 0.97979 0.17533 0.0
H432 H 0.50879 0.93134 0.30729 0.0
H433 H 0.45524 0.95068 0.24498 0.0
H434 H 0.48193 0.89193 0.31703 0.0
H435 H 0.42941 0.91107 0.2558 0.0
H436 H 0.56549 0.97828 0.34937 0.0
H437 H 0.61421 0.01693 0.29202 0.0
H438 H 0.47929 0.9307 0.1466 0.0
H439 H 0.51755 0.88109 0.20344 0.0
Li440 Li 0.97682 0.49986 0.23446 0.0
Li441 Li 0.99926 0.47665 0.26905 0.0
Li442 Li 0.00194 0.52394 0.26635 0.0
Li443 Li 0.02405 0.49727 0.23457 0.0
C444 C 0.94964 0.5182 0.27862 0.0
N445 N 0.90843 0.55098 0.29119 0.0
C446 C 0.9349 0.51369 0.30124 0.0
C447 C 0.94347 0.53941 0.2624 0.0
C448 C 0.91412 0.53048 0.30726 0.0
C449 C 0.92254 0.55575 0.26909 0.0
C450 C 0.98295 0.44672 0.2263 0.0
C451 C 0.97208 0.40829 0.20103 0.0
N452 N 0.95047 0.40458 0.21619 0.0
C453 C 0.96063 0.44254 0.24164 0.0
C454 C 0.98873 0.42949 0.20582 0.0
C455 C 0.94447 0.42112 0.23621 0.0
C456 C 0.95179 0.50724 0.18648 0.0
N457 N 0.9472 0.50009 0.21173 0.0
C458 C 0.90184 0.49288 0.20239 0.0
C459 C 0.92286 0.49296 0.21998 0.0
C460 C 0.90614 0.50009 0.17622 0.0
C461 C 0.93138 0.50741 0.16827 0.0
H462 H 0.97139 0.51265 0.1805 0.0
H463 H 0.91978 0.48721 0.24014 0.0
C464 C 0.99475 0.4581 0.31933 0.0
N465 N 0.99834 0.4493 0.29446 0.0
C466 C 0.99503 0.44062 0.34031 0.0
C467 C 0.00237 0.40512 0.30974 0.0
C468 C 0.00225 0.42341 0.28926 0.0
C469 C 0.99888 0.41384 0.33559 0.0
H470 H 0.99204 0.47884 0.32283 0.0
H471 H 0.00561 0.41699 0.26935 0.0
C472 C 0.01778 0.5492 0.22091 0.0
N473 N 0.05002 0.59022 0.2064 0.0
C474 C 0.04051 0.5546 0.23525 0.0
C475 C 0.01145 0.56466 0.19922 0.0
C476 C 0.05655 0.57542 0.22758 0.0
C477 C 0.028 0.58532 0.19219 0.0
C478 C 0.05166 0.48338 0.27962 0.0
C479 C 0.06855 0.49104 0.29977 0.0
C480 C 0.05581 0.45952 0.26678 0.0
C481 C 0.0894 0.4747 0.30672 0.0
C482 C 0.07687 0.44373 0.27432 0.0
N483 N 0.09309 0.45158 0.29397 0.0
C484 C 0.01142 0.55113 0.31266 0.0
C485 C 0.99432 0.5782 0.27891 0.0
C486 C 0.0111 0.57206 0.33025 0.0
N487 N 0.00298 0.55451 0.28763 0.0
C488 C 0.9936 0.59968 0.29589 0.0
C489 C 0.00191 0.59656 0.3219 0.0
H490 H 0.01791 0.53198 0.31907 0.0
H491 H 0.98748 0.58027 0.25896 0.0
C492 C 0.04779 0.49078 0.18594 0.0
N493 N 0.05339 0.49563 0.21153 0.0
C494 C 0.06769 0.491 0.16717 0.0
C495 C 0.09888 0.50077 0.20152 0.0
C496 C 0.07831 0.50072 0.21959 0.0
C497 C 0.09356 0.49608 0.17496 0.0
H498 H 0.02773 0.48719 0.18009 0.0
H499 H 0.0822 0.50521 0.23991 0.0
O500 O 0.97031 0.50214 0.27282 0.0
O501 O 0.99894 0.46776 0.23086 0.0
O502 O 0.00188 0.52868 0.22768 0.0
O503 O 0.03092 0.49904 0.27301 0.0
H504 H 0.93953 0.49741 0.31405 0.0
H505 H 0.95474 0.54333 0.2449 0.0
H506 H 0.90255 0.52723 0.32472 0.0
H507 H 0.91756 0.57224 0.25673 0.0
H508 H 0.97631 0.3948 0.18522 0.0
H509 H 0.95579 0.45563 0.25757 0.0
H510 H 0.00589 0.43254 0.19372 0.0
H511 H 0.92714 0.41766 0.24792 0.0
H512 H 0.88252 0.48712 0.20902 0.0
H513 H 0.93523 0.51303 0.14816 0.0
H514 H 0.99239 0.44791 0.36008 0.0
H515 H 0.00554 0.38455 0.30557 0.0
H516 H 0.0458 0.54287 0.25207 0.0
H517 H 0.99395 0.56069 0.18789 0.0
H518 H 0.07421 0.57979 0.23847 0.0
H519 H 0.02334 0.59744 0.17543 0.0
H520 H 0.06553 0.50941 0.30995 0.0
H521 H 0.04297 0.45319 0.25118 0.0
H522 H 0.10263 0.48039 0.32228 0.0
H523 H 0.0803 0.42522 0.26457 0.0
H524 H 0.0175 0.5691 0.35028 0.0
H525 H 0.98626 0.61837 0.289 0.0
H526 H 0.06298 0.48743 0.14678 0.0
H527 H 0.11865 0.50488 0.20806 0.0
Li528 Li 0.47703 0.00183 0.73215 0.0
Li529 Li 0.50251 0.97757 0.76663 0.0
Li530 Li 0.50211 0.02551 0.7673 0.0
Li531 Li 0.52538 0.00178 0.73424 0.0
C532 C 0.45656 0.01234 0.78896 0.0
N533 N 0.42769 0.0382 0.82669 0.0
C534 C 0.46049 0.00673 0.81547 0.0
C535 C 0.43788 0.03096 0.78158 0.0
C536 C 0.44571 0.02007 0.83427 0.0
C537 C 0.4235 0.04386 0.80097 0.0
C538 C 0.50301 0.94522 0.72694 0.0
C539 C 0.52732 0.9051 0.7328 0.0
N540 N 0.50525 0.89111 0.72757 0.0
C541 C 0.48063 0.93046 0.72137 0.0
C542 C 0.52661 0.93247 0.73246 0.0
C543 C 0.48214 0.90311 0.72186 0.0
C544 C 0.44495 0.01982 0.6908 0.0
N545 N 0.44649 0.00216 0.7107 0.0
C546 C 0.40533 0.9834 0.69836 0.0
C547 C 0.42702 0.98447 0.71509 0.0
C548 C 0.40379 0.00083 0.67716 0.0
C549 C 0.42366 0.01945 0.67362 0.0
H550 H 0.46038 0.03403 0.68807 0.0
H551 H 0.42856 0.97095 0.73135 0.0
C552 C 0.52231 0.94268 0.80481 0.0
N553 N 0.50153 0.94753 0.78885 0.0
C554 C 0.52168 0.92164 0.82229 0.0
C555 C 0.47829 0.91085 0.80651 0.0
C556 C 0.47972 0.93221 0.7894 0.0
C557 C 0.4994 0.90561 0.82333 0.0
H558 H 0.53918 0.95545 0.80433 0.0
H559 H 0.46331 0.93679 0.77677 0.0
C560 C 0.51549 0.04821 0.71328 0.0
N561 N 0.54559 0.07908 0.68053 0.0
C562 C 0.52992 0.06912 0.72351 0.0
C563 C 0.5164 0.04296 0.6864 0.0
C564 C 0.54503 0.08451 0.70663 0.0
C565 C 0.5317 0.05883 0.67017 0.0
C566 C 0.55823 0.00622 0.77524 0.0
C567 C 0.56745 0.03138 0.78104 0.0
C568 C 0.57609 0.98565 0.77221 0.0
C569 C 0.5944 0.03557 0.78351 0.0
C570 C 0.60288 0.99066 0.77474 0.0
N571 N 0.61141 0.0153 0.7803 0.0
C572 C 0.50995 0.05151 0.81512 0.0
C573 C 0.48823 0.07735 0.78311 0.0
C574 C 0.5085 0.07191 0.83326 0.0
N575 N 0.50009 0.05465 0.79056 0.0
C576 C 0.48623 0.09826 0.80072 0.0
C577 C 0.49658 0.09558 0.82605 0.0
H578 H 0.51888 0.03307 0.82059 0.0
H579 H 0.4802 0.0791 0.76356 0.0
C580 C 0.55529 0.98411 0.69122 0.0
N581 N 0.55543 0.00181 0.71118 0.0
C582 C 0.57546 0.9839 0.67273 0.0
C583 C 0.59583 0.01997 0.69567 0.0
C584 C 0.57511 0.01969 0.71354 0.0
C585 C 0.59596 0.00205 0.67486 0.0
H586 H 0.53919 0.9705 0.68929 0.0
H587 H 0.57446 0.03424 0.72883 0.0
O588 O 0.47142 1.00015 0.77033 0.0
O589 O 0.50179 0.97201 0.72734 0.0
O590 O 0.50073 0.03282 0.72953 0.0
O591 O 0.53189 0.00166 0.77299 0.0
H592 H 0.475 0.99243 0.82144 0.0
H593 H 0.43476 0.03557 0.7611 0.0
H594 H 0.44863 0.01607 0.85489 0.0
H595 H 0.40907 0.05843 0.79559 0.0
H596 H 0.54542 0.89498 0.73725 0.0
H597 H 0.46225 0.93998 0.71687 0.0
H598 H 0.54414 0.94361 0.73656 0.0
H599 H 0.46493 0.89144 0.71774 0.0
H600 H 0.39015 0.96893 0.70163 0.0
H601 H 0.42286 0.03326 0.65751 0.0
H602 H 0.53819 0.91813 0.83517 0.0
H603 H 0.46079 0.89885 0.80701 0.0
H604 H 0.52968 0.0733 0.74429 0.0
H605 H 0.50574 0.02655 0.67821 0.0
H606 H 0.55637 0.1007 0.71429 0.0
H607 H 0.53266 0.05493 0.64935 0.0
H608 H 0.55405 0.04764 0.78316 0.0
H609 H 0.56937 0.96604 0.76789 0.0
H610 H 0.60179 0.05497 0.78783 0.0
H611 H 0.6169 0.97494 0.77232 0.0
H612 H 0.51648 0.06924 0.85276 0.0
H613 H 0.47672 0.11627 0.79472 0.0
H614 H 0.57493 0.96996 0.65673 0.0
H615 H 0.61127 0.03441 0.69766 0.0
Li616 Li 0.99969 0.52572 0.73357 0.0
Li617 Li 0.97561 0.50199 0.76578 0.0
Li618 Li 0.02515 0.50304 0.76721 0.0
Li619 Li 0.99943 0.47851 0.73295 0.0
C620 C 0.00172 0.55855 0.7751 0.0
N621 N 0.00594 0.61221 0.78128 0.0
C622 C 0.98109 0.57496 0.76762 0.0
C623 C 0.02449 0.56944 0.78579 0.0
C624 C 0.98362 0.60203 0.77086 0.0
C625 C 0.02623 0.59661 0.78876 0.0
C626 C 0.94277 0.50408 0.72816 0.0
C627 C 0.90049 0.48429 0.73573 0.0
N628 N 0.88886 0.50795 0.73181 0.0
C629 C 0.93037 0.5282 0.72418 0.0
C630 C 0.9277 0.48192 0.7339 0.0
C631 C 0.9031 0.52974 0.72609 0.0
C632 C 0.98631 0.55329 0.68785 0.0
N633 N 0.00089 0.55528 0.71009 0.0
C634 C 0.01752 0.59694 0.69631 0.0
C635 C 0.01678 0.57632 0.71431 0.0
C636 C 0.00236 0.59541 0.67346 0.0
C637 C 0.98673 0.57326 0.66917 0.0
H638 H 0.9746 0.53597 0.68445 0.0
H639 H 0.02922 0.57698 0.7314 0.0
C640 C 0.9418 0.47961 0.80361 0.0
N641 N 0.946 0.50147 0.78893 0.0
C642 C 0.92125 0.47883 0.82168 0.0
C643 C 0.90954 0.52298 0.80908 0.0
C644 C 0.93036 0.52295 0.79133 0.0
C645 C 0.90505 0.5008 0.82462 0.0
H646 H 0.95467 0.46292 0.80163 0.0
H647 H 0.93413 0.54014 0.77965 0.0
C648 C 0.04298 0.51237 0.70825 0.0
N649 N 0.06719 0.53544 0.66571 0.0
C650 C 0.03509 0.50597 0.68281 0.0
C651 C 0.06321 0.53042 0.71209 0.0
C652 C 0.04757 0.51788 0.66155 0.0
C653 C 0.0752 0.5419 0.69031 0.0
C654 C 0.00544 0.44622 0.77195 0.0
C655 C 0.03079 0.43698 0.77671 0.0
C656 C 0.98532 0.4284 0.76659 0.0
C657 C 0.03563 0.41004 0.77581 0.0
C658 C 0.99098 0.40162 0.76577 0.0
N659 N 0.01581 0.39307 0.77036 0.0
C660 C 0.04983 0.50664 0.81574 0.0
C661 C 0.07934 0.49921 0.78057 0.0
C662 C 0.07044 0.50652 0.83371 0.0
N663 N 0.05463 0.5031 0.78978 0.0
C664 C 0.10058 0.49887 0.7979 0.0
C665 C 0.09608 0.50254 0.82477 0.0
H666 H 0.02992 0.50955 0.82243 0.0
H667 H 0.0825 0.49614 0.75984 0.0
C668 C 0.9794 0.44145 0.6966 0.0
N669 N 0.00097 0.44863 0.71051 0.0
C670 C 0.98061 0.42036 0.67921 0.0
C671 C 0.02624 0.41451 0.69066 0.0
C672 C 0.02415 0.43573 0.70785 0.0
C673 C 0.00428 0.40682 0.67606 0.0
H674 H 0.96141 0.45239 0.69861 0.0
H675 H 0.04109 0.44216 0.71886 0.0
O676 O 0.99964 0.53197 0.77222 0.0
O677 O 0.96952 0.50225 0.72691 0.0
O678 O 0.0306 0.50137 0.7293 0.0
O679 O 1.00047 0.47258 0.77202 0.0
H680 H 0.96356 0.56697 0.75885 0.0
H681 H 0.0407 0.5571 0.79159 0.0
H682 H 0.96789 0.61496 0.76495 0.0
H683 H 0.04375 0.60531 0.79695 0.0
H684 H 0.88864 0.46734 0.74039 0.0
H685 H 0.94165 0.54564 0.72003 0.0
H686 H 0.93694 0.46317 0.73737 0.0
H687 H 0.89328 0.54831 0.72318 0.0
H688 H 0.03007 0.61368 0.69991 0.0
H689 H 0.97505 0.57147 0.65153 0.0
H690 H 0.91829 0.46147 0.83355 0.0
H691 H 0.89735 0.54026 0.81102 0.0
H692 H 0.01932 0.49217 0.67954 0.0
H693 H 0.06934 0.53577 0.73169 0.0
H694 H 0.0416 0.51323 0.64175 0.0
H695 H 0.09078 0.55603 0.69297 0.0
H696 H 0.04662 0.45045 0.78083 0.0
H697 H 0.96563 0.43519 0.76273 0.0
H698 H 0.05518 0.40263 0.77934 0.0
H699 H 0.97565 0.38764 0.76141 0.0
H700 H 0.06645 0.50935 0.85437 0.0
H701 H 0.12022 0.49567 0.79053 0.0
H702 H 0.96342 0.41493 0.66799 0.0
H703 H 0.04481 0.40447 0.68845 0.0
Li704 Li 0.23495 0.49934 0.0258 0.0
Li705 Li 0.26702 0.47472 0.00233 0.0
Li706 Li 0.26723 0.52267 0.00159 0.0
Li707 Li 0.2318 0.49852 0.9777 0.0
C708 C 0.27656 0.4978 0.05797 0.0
N709 N 0.28238 0.49512 0.11176 0.0
C710 C 0.28612 0.47493 0.06968 0.0
C711 C 0.2701 0.51935 0.07362 0.0
C712 C 0.2889 0.47397 0.09691 0.0
C713 C 0.27312 0.51759 0.10078 0.0
C714 C 0.21568 0.45142 0.01842 0.0
C715 C 0.175 0.43428 0.03535 0.0
N716 N 0.18868 0.41859 0.05201 0.0
C717 C 0.22932 0.43513 0.03573 0.0
C718 C 0.18829 0.451 0.01821 0.0
C719 C 0.21532 0.41866 0.05254 0.0
C720 C 0.19032 0.51526 0.05365 0.0
N721 N 0.21198 0.49984 0.05577 0.0
C722 C 0.19751 0.48405 0.09752 0.0
C723 C 0.21576 0.48428 0.07713 0.0
C724 C 0.17488 0.49949 0.09557 0.0
C725 C 0.17136 0.51532 0.07339 0.0
H726 H 0.18747 0.52708 0.03629 0.0
H727 H 0.23259 0.47155 0.07819 0.0
C728 C 0.31504 0.44873 0.00839 0.0
N729 N 0.28974 0.4451 0.00086 0.0
C730 C 0.33281 0.42798 0.00738 0.0
C731 C 0.29826 0.40018 0.99056 0.0
C732 C 0.28111 0.42152 0.99187 0.0
C733 C 0.32437 0.40341 0.99848 0.0
H734 H 0.32137 0.46781 0.01511 0.0
H735 H 0.26096 0.41934 0.98566 0.0
C736 C 0.22827 0.55529 0.99811 0.0
N737 N 0.23028 0.60883 0.99037 0.0
C738 C 0.22579 0.56563 0.97287 0.0
C739 C 0.23151 0.57216 0.01945 0.0
C740 C 0.2269 0.59277 0.96936 0.0
C741 C 0.23257 0.59918 0.01511 0.0
C742 C 0.28655 0.48495 0.95551 0.0
C743 C 0.31332 0.49066 0.95539 0.0
C744 C 0.277 0.46413 0.94049 0.0
C745 C 0.33018 0.47533 0.94019 0.0
C746 C 0.29448 0.44927 0.92557 0.0
N747 N 0.32048 0.45513 0.92573 0.0
C748 C 0.30274 0.56099 0.02075 0.0
C749 C 0.29319 0.56406 0.97535 0.0
C750 C 0.32025 0.58194 0.01895 0.0
N751 N 0.28969 0.55248 0.99912 0.0
C752 C 0.31051 0.58512 0.97267 0.0
C753 C 0.32439 0.59403 0.99465 0.0
H754 H 0.29996 0.55123 0.03929 0.0
H755 H 0.28279 0.55666 0.95842 0.0
C756 C 0.18295 0.4969 0.95244 0.0
N757 N 0.20915 0.499 0.94812 0.0
C758 C 0.16542 0.49739 0.93145 0.0
C759 C 0.20211 0.50294 0.90194 0.0
C760 C 0.21897 0.50221 0.92353 0.0
C761 C 0.17505 0.5004 0.90592 0.0
H762 H 0.17568 0.49513 0.97223 0.0
H763 H 0.23985 0.50441 0.92071 0.0
O764 O 0.27393 0.49918 0.03133 0.0
O765 O 0.22907 0.468 0.0021 0.0
O766 O 0.22812 0.52877 0.00187 0.0
O767 O 0.26985 0.49919 0.97087 0.0
H768 H 0.29117 0.45804 0.05793 0.0
H769 H 0.26254 0.53713 0.06492 0.0
H770 H 0.29618 0.45637 0.10623 0.0
H771 H 0.26804 0.53406 0.11312 0.0
H772 H 0.15381 0.43384 0.03546 0.0
H773 H 0.25047 0.43552 0.03659 0.0
H774 H 0.17738 0.46355 0.00512 0.0
H775 H 0.22564 0.40608 0.06612 0.0
H776 H 0.20067 0.47147 0.11433 0.0
H777 H 0.15399 0.52733 0.07126 0.0
H778 H 0.35292 0.43102 0.01345 0.0
H779 H 0.29131 0.38143 0.98343 0.0
H780 H 0.22338 0.55282 0.95614 0.0
H781 H 0.23335 0.56444 0.03911 0.0
H782 H 0.22519 0.60105 0.94992 0.0
H783 H 0.23525 0.61247 0.03141 0.0
H784 H 0.32101 0.50662 0.96708 0.0
H785 H 0.25635 0.45925 0.94069 0.0
H786 H 0.35097 0.47943 0.93996 0.0
H787 H 0.2874 0.433 0.91397 0.0
H788 H 0.33083 0.58834 0.03621 0.0
H789 H 0.31344 0.59405 0.95363 0.0
H790 H 0.14458 0.49562 0.93505 0.0
H791 H 0.21001 0.5055 0.8824 0.0
Li792 Li 0.52439 0.26447 0.00125 0.0
Li793 Li 0.50052 0.23192 0.0262 0.0
Li794 Li 0.5005 0.23271 0.97789 0.0
Li795 Li 0.47639 0.2668 0.00107 0.0
C796 C 0.55614 0.22318 0.00763 0.0
N797 N 0.60881 0.21787 0.01922 0.0
C798 C 0.56416 0.21772 0.03327 0.0
C799 C 0.57494 0.22571 0.98786 0.0
C800 C 0.59086 0.21512 0.03873 0.0
C801 C 0.60146 0.22307 0.99413 0.0
C802 C 0.51381 0.28827 0.04614 0.0
C803 C 0.52794 0.33288 0.05287 0.0
N804 N 0.54189 0.3251 0.07421 0.0
C805 C 0.52833 0.2807 0.06811 0.0
C806 C 0.51371 0.31454 0.03835 0.0
C807 C 0.5424 0.29962 0.08204 0.0
C808 C 0.55618 0.30553 0.98204 0.0
N809 N 0.55501 0.2868 0.00101 0.0
C810 C 0.59467 0.3029 0.02027 0.0
C811 C 0.57378 0.28521 0.01993 0.0
C812 C 0.59612 0.3224 0.00101 0.0
C813 C 0.57675 0.32357 0.98161 0.0
H814 H 0.54079 0.30691 0.96757 0.0
H815 H 0.57222 0.27073 0.03523 0.0
C816 C 0.50354 0.18323 0.0507 0.0
N817 N 0.4984 0.20895 0.05547 0.0
C818 C 0.50247 0.16496 0.07102 0.0
C819 C 0.49048 0.19991 0.10076 0.0
C820 C 0.49168 0.21753 0.0798 0.0
C821 C 0.49601 0.17335 0.09634 0.0
H822 H 0.5086 0.17701 0.03108 0.0
H823 H 0.48721 0.23802 0.08291 0.0
C824 C 0.50247 0.27075 0.94463 0.0
N825 N 0.50545 0.26768 0.89064 0.0
C826 C 0.48057 0.27663 0.92927 0.0
C827 C 0.526 0.26373 0.93251 0.0
C828 C 0.48245 0.27488 0.90201 0.0
C829 C 0.52708 0.26215 0.9052 0.0
C830 C 0.44774 0.22215 0.01498 0.0
C831 C 0.4317 0.20168 0.00642 0.0
C832 C 0.44104 0.2361 0.03759 0.0
C833 C 0.40917 0.19546 0.02068 0.0
C834 C 0.41836 0.22928 0.0513 0.0
N835 N 0.40303 0.20927 0.04264 0.0
C836 C 0.51985 0.19454 0.94273 0.0
C837 C 0.47664 0.20911 0.93362 0.0
C838 C 0.51883 0.17697 0.92178 0.0
N839 N 0.49894 0.21011 0.94821 0.0
C840 C 0.47482 0.19191 0.91237 0.0
C841 C 0.49605 0.17547 0.90651 0.0
H842 H 0.53718 0.1955 0.95485 0.0
H843 H 0.46021 0.22154 0.93866 0.0
C844 C 0.44392 0.30785 0.01935 0.0
N845 N 0.44602 0.28858 0.00106 0.0
C846 C 0.42279 0.32521 0.01874 0.0
C847 C 0.40562 0.30178 0.98128 0.0
C848 C 0.42715 0.28487 0.98259 0.0
C849 C 0.40363 0.32246 0.99928 0.0
H850 H 0.45873 0.3099 0.03431 0.0
H851 H 0.42899 0.26896 0.96871 0.0
O852 O 0.53006 0.22567 0.00186 0.0
O853 O 0.49994 0.27003 0.03222 0.0
O854 O 0.50087 0.27159 0.9714 0.0
O855 O 0.46993 0.22828 0.00126 0.0
H856 H 0.55001 0.21587 0.04891 0.0
H857 H 0.56917 0.22976 0.96789 0.0
H858 H 0.59733 0.21105 0.05851 0.0
H859 H 0.6162 0.22513 0.97904 0.0
H860 H 0.52802 0.35327 0.04706 0.0
H861 H 0.52905 0.26039 0.07414 0.0
H862 H 0.50301 0.32066 0.02109 0.0
H863 H 0.5538 0.29402 0.09902 0.0
H864 H 0.60926 0.30173 0.03565 0.0
H865 H 0.57728 0.33862 0.96664 0.0
H866 H 0.50676 0.14454 0.0671 0.0
H867 H 0.48529 0.20683 0.12014 0.0
H868 H 0.4623 0.28239 0.93827 0.0
H869 H 0.54318 0.25934 0.94409 0.0
H870 H 0.4656 0.27922 0.88989 0.0
H871 H 0.54511 0.25649 0.89558 0.0
H872 H 0.43665 0.1907 0.98895 0.0
H873 H 0.45322 0.25198 0.04456 0.0
H874 H 0.39657 0.17964 0.01429 0.0
H875 H 0.41296 0.23989 0.06885 0.0
H876 H 0.53548 0.16444 0.91773 0.0
H877 H 0.45698 0.19111 0.90091 0.0
H878 H 0.42157 0.34083 0.03307 0.0
H879 H 0.39092 0.29907 0.9662 0.0
Li880 Li 0.73239 0.52103 0.99851 0.0
Li881 Li 0.76913 0.49715 0.02426 0.0
Li882 Li 0.7673 0.49699 0.97618 0.0
Li883 Li 0.73545 0.4733 1.00021 0.0
C884 C 0.78713 0.54345 0.98527 0.0
N885 N 0.82015 0.57296 0.95416 0.0
C886 C 0.81427 0.54128 0.98813 0.0
C887 C 0.77675 0.56069 0.96669 0.0
C888 C 0.83065 0.55635 0.97219 0.0
C889 C 0.79378 0.57543 0.95112 0.0
C890 C 0.71234 0.48449 0.04462 0.0
C891 C 0.70153 0.45185 0.07703 0.0
N892 N 0.67562 0.45582 0.07216 0.0
C893 C 0.68563 0.48835 0.04001 0.0
C894 C 0.7204 0.46619 0.06334 0.0
C895 C 0.66736 0.47361 0.0541 0.0
C896 C 0.68496 0.54635 0.98752 0.0
N897 N 0.70925 0.55011 0.99781 0.0
C898 C 0.69932 0.59492 0.00728 0.0
C899 C 0.71675 0.57376 0.00755 0.0
C900 C 0.67402 0.59145 0.99707 0.0
C901 C 0.66687 0.56689 0.98703 0.0
H902 H 0.6796 0.5273 0.97989 0.0
H903 H 0.73623 0.57614 0.01559 0.0
C904 C 0.81753 0.49227 0.04937 0.0
N905 N 0.79199 0.4986 0.05355 0.0
C906 C 0.83538 0.49258 0.07008 0.0
C907 C 0.80031 0.50592 0.09908 0.0
C908 C 0.7831 0.5054 0.07774 0.0
C909 C 0.82675 0.49947 0.09523 0.0
H910 H 0.82395 0.48677 0.02993 0.0
H911 H 0.76265 0.51031 0.08045 0.0
C912 C 0.72455 0.4855 0.94534 0.0
N913 N 0.71576 0.4642 0.89637 0.0
C914 C 0.73286 0.46002 0.93973 0.0
C915 C 0.71168 0.50014 0.92611 0.0
C916 C 0.72825 0.4496 0.91485 0.0
C917 C 0.70744 0.48902 0.90144 0.0
C918 C 0.78187 0.44262 0.00506 0.0
C919 C 0.78713 0.4255 0.98432 0.0
C920 C 0.78572 0.43419 0.03086 0.0
C921 C 0.7956 0.40003 0.98977 0.0
C922 C 0.79425 0.40859 0.03548 0.0
N923 N 0.79894 0.39217 0.01502 0.0
C924 C 0.81317 0.48457 0.94885 0.0
C925 C 0.78349 0.51039 0.92404 0.0
C926 C 0.83129 0.48489 0.92838 0.0
N927 N 0.78985 0.49721 0.94635 0.0
C928 C 0.80109 0.51127 0.90307 0.0
C929 C 0.8253 0.49846 0.90527 0.0
H930 H 0.81788 0.47462 0.96696 0.0
H931 H 0.76502 0.52068 0.92275 0.0
C932 C 0.68899 0.44654 0.98835 0.0
N933 N 0.71243 0.44329 0.00068 0.0
C934 C 0.67047 0.42641 0.98821 0.0
C935 C 0.70027 0.39988 0.01375 0.0
C936 C 0.71821 0.42058 0.01345 0.0
C937 C 0.67614 0.40281 0.001 0.0
H938 H 0.68449 0.46498 0.97894 0.0
H939 H 0.7364 0.41858 0.02392 0.0
O940 O 0.77077 0.52836 1.00018 0.0
O941 O 0.73053 0.49825 0.03057 0.0
O942 O 0.72913 0.49624 0.96946 0.0
O943 O 0.77412 0.46781 1.00006 0.0
H944 H 0.8226 0.52793 0.00234 0.0
H945 H 0.75577 0.5624 0.96407 0.0
H946 H 0.85171 0.55477 0.97407 0.0
H947 H 0.78604 0.58874 0.93655 0.0
H948 H 0.70747 0.43752 0.09148 0.0
H949 H 0.67909 0.50238 0.02551 0.0
H950 H 0.74101 0.46296 0.06712 0.0
H951 H 0.64661 0.47624 0.05061 0.0
H952 H 0.70537 0.6137 0.01513 0.0
H953 H 0.64748 0.56366 0.97902 0.0
H954 H 0.85568 0.48745 0.06659 0.0
H955 H 0.79314 0.51126 0.11833 0.0
H956 H 0.74267 0.44843 0.95447 0.0
H957 H 0.70517 0.51992 0.93017 0.0
H958 H 0.7346 0.4299 0.91024 0.0
H959 H 0.69757 0.50014 0.88632 0.0
H960 H 0.78492 0.43185 0.96421 0.0
H961 H 0.78186 0.44711 0.04717 0.0
H962 H 0.79965 0.38656 0.9739 0.0
H963 H 0.79711 0.40176 0.05535 0.0
H964 H 0.84994 0.47501 0.93066 0.0
H965 H 0.79608 0.5221 0.88551 0.0
H966 H 0.65183 0.42928 0.97848 0.0
H967 H 0.70497 0.38195 0.0241 0.0
Li968 Li 0.50025 0.76459 0.02164 0.0
Li969 Li 0.47606 0.73182 0.99657 0.0
Li970 Li 0.52443 0.73162 0.99706 0.0
Li971 Li 0.50074 0.76579 0.97303 0.0
C972 C 0.49428 0.71956 0.05183 0.0
N973 N 0.48275 0.70707 0.10323 0.0
C974 C 0.46967 0.7255 0.06223 0.0
C975 C 0.51295 0.707 0.06746 0.0
C976 C 0.46423 0.7191 0.08828 0.0
C977 C 0.50677 0.70092 0.09343 0.0
C978 C 0.44516 0.77726 0.9966 0.0
C979 C 0.40641 0.78943 0.97242 0.0
N980 N 0.39293 0.79146 0.99532 0.0
C981 C 0.43103 0.77982 0.01992 0.0
C982 C 0.43288 0.78243 0.97267 0.0
C983 C 0.4046 0.78688 0.01885 0.0
C984 C 0.48958 0.81144 0.04756 0.0
N985 N 0.49988 0.78718 0.05157 0.0
C986 C 0.51009 0.79802 0.09605 0.0
C987 C 0.5102 0.78026 0.07519 0.0
C988 C 0.49962 0.82313 0.0923 0.0
C989 C 0.48924 0.82986 0.0678 0.0
H990 H 0.48185 0.81656 0.02849 0.0
H991 H 0.51887 0.76116 0.07784 0.0
C992 C 0.44599 0.68794 0.01142 0.0
N993 N 0.44608 0.70924 0.99537 0.0
C994 C 0.42526 0.67012 0.0107 0.0
C995 C 0.40523 0.69598 0.97642 0.0
C996 C 0.4264 0.71336 0.97782 0.0
C997 C 0.40463 0.67411 0.99305 0.0
H998 H 0.46229 0.68442 0.02445 0.0
H999 H 0.4274 0.72976 0.96449 0.0
C1000 C 0.5525 0.77659 0.01233 0.0
N1001 N 0.59564 0.78997 0.04221 0.0
C1002 C 0.56762 0.79843 0.00566 0.0
C1003 C 0.55936 0.76153 0.03415 0.0
C1004 C 0.58936 0.80488 0.02103 0.0
C1005 C 0.58122 0.76861 0.04902 0.0
C1006 C 0.51493 0.72143 0.94453 0.0
C1007 C 0.53732 0.73605 0.93853 0.0
C1008 C 0.50767 0.70052 0.92841 0.0
C1009 C 0.55207 0.72949 0.91643 0.0
C1010 C 0.52295 0.69458 0.90648 0.0
N1011 N 0.54465 0.70906 0.901 0.0
C1012 C 0.54887 0.68329 0.00391 0.0
C1013 C 0.57812 0.71639 0.98936 0.0
C1014 C 0.56903 0.66481 0.00398 0.0
N1015 N 0.55373 0.70848 0.99674 0.0
C1016 C 0.59893 0.69855 0.9893 0.0
C1017 C 0.59437 0.67244 0.99663 0.0
H1018 H 0.52923 0.67758 0.00952 0.0
H1019 H 0.5814 0.73648 0.98348 0.0
C1020 C 0.51104 0.81309 0.94729 0.0
N1021 N 0.50051 0.78887 0.94375 0.0
C1022 C 0.51075 0.83137 0.92694 0.0
C1023 C 0.4887 0.79948 0.89963 0.0
C1024 C 0.48951 0.78173 0.92052 0.0
C1025 C 0.49938 0.82461 0.90286 0.0
H1026 H 0.51938 0.81827 0.96607 0.0
H1027 H 0.48106 0.76241 0.91836 0.0
O1028 O 0.50009 0.72585 0.02643 0.0
O1029 O 0.47111 0.7706 0.99723 0.0
O1030 O 0.531 0.77022 0.99761 0.0
O1031 O 0.50025 0.72727 0.96618 0.0
H1032 H 0.45489 0.73478 0.05025 0.0
H1033 H 0.53206 0.7021 0.05965 0.0
H1034 H 0.44527 0.72365 0.09661 0.0
H1035 H 0.52106 0.69132 0.1058 0.0
H1036 H 0.3966 0.79327 0.95402 0.0
H1037 H 0.44041 0.77666 0.03866 0.0
H1038 H 0.4436 0.7808 0.95446 0.0
H1039 H 0.39339 0.78884 0.03674 0.0
H1040 H 0.51842 0.79241 0.11476 0.0
H1041 H 0.48113 0.84918 0.06437 0.0
H1042 H 0.42549 0.65317 0.02348 0.0
H1043 H 0.38974 0.69929 0.96228 0.0
H1044 H 0.56261 0.81029 0.9888 0.0
H1045 H 0.54796 0.74455 0.03956 0.0
H1046 H 0.60122 0.82175 0.01611 0.0
H1047 H 0.58672 0.75712 0.06598 0.0
H1048 H 0.54329 0.75228 0.95077 0.0
H1049 H 0.49042 0.68899 0.93284 0.0
H1050 H 0.56944 0.74063 0.91156 0.0
H1051 H 0.51757 0.67844 0.89382 0.0
H1052 H 0.56495 0.64477 0.0097 0.0
H1053 H 0.61831 0.70496 0.9835 0.0
H1054 H 0.51902 0.85068 0.93001 0.0
H1055 H 0.47967 0.7938 0.88128 0.0
C1056 C 0.02434 0.37171 0.39179 0.0
C1057 C 1.00047 0.36186 0.4022 0.0
C1058 C 0.97616 0.39032 0.37226 0.0
C1059 C 0.99952 0.39538 0.35811 0.0
N1060 N 0.04667 0.39187 0.35511 0.0
N1061 N 0.95959 0.38144 0.4154 0.0
C1062 C 0.02391 0.38635 0.36806 0.0
C1063 C 0.9776 0.37653 0.39629 0.0
N1064 N 0.04643 0.37135 0.40686 0.0
N1065 N 0.95248 0.39844 0.36279 0.0
H1066 H 0.96304 0.3762 0.43489 0.0
H1067 H 0.94369 0.39401 0.41273 0.0
H1068 H 0.95045 0.40847 0.34508 0.0
H1069 H 0.93481 0.3931 0.37158 0.0
H1070 H 0.06391 0.38038 0.4014 0.0
H1071 H 0.04589 0.3655 0.42646 0.0
H1072 H 0.06453 0.38327 0.36008 0.0
H1073 H 0.04744 0.40367 0.33844 0.0
C1074 C 0.65726 0.98543 0.35873 0.0
C1075 C 0.65328 1.00047 0.38178 0.0
C1076 C 0.61156 0.0166 0.36426 0.0
C1077 C 0.61409 0.99923 0.34269 0.0
N1078 N 0.63751 0.96435 0.32099 0.0
N1079 N 0.62481 0.02711 0.40859 0.0
C1080 C 0.63649 0.98291 0.34029 0.0
C1081 C 0.62994 0.01523 0.38512 0.0
N1082 N 0.68112 0.97414 0.35414 0.0
N1083 N 0.59198 0.03491 0.36446 0.0
H1084 H 0.63766 0.02642 0.42448 0.0
H1085 H 0.60685 0.03566 0.41312 0.0
H1086 H 0.57826 0.03668 0.3494 0.0
H1087 H 0.59081 0.04989 0.37828 0.0
H1088 H 0.6861 0.96525 0.33645 0.0
H1089 H 0.69681 0.97566 0.36716 0.0
H1090 H 0.65197 0.94998 0.32 0.0
H1091 H 0.62269 0.96191 0.30712 0.0
C1092 C 0.01845 0.63929 0.3402 0.0
C1093 C 0.99994 0.61854 0.34088 0.0
C1094 C 0.98073 0.63649 0.38106 0.0
C1095 C 0.99812 0.65815 0.37947 0.0
N1096 N 0.03013 0.68292 0.35511 0.0
N1097 N 0.96013 0.60014 0.35847 0.0
C1098 C 0.01599 0.66038 0.35828 0.0
C1099 C 0.98004 0.61799 0.36027 0.0
N1100 N 0.0389 0.63837 0.32293 0.0
N1101 N 0.96566 0.63296 0.40294 0.0
H1102 H 0.95892 0.5863 0.34345 0.0
H1103 H 0.94358 0.60056 0.3704 0.0
H1104 H 0.96564 0.64597 0.4187 0.0
H1105 H 0.95486 0.61601 0.40649 0.0
H1106 H 0.05464 0.65135 0.32345 0.0
H1107 H 0.04122 0.62335 0.30924 0.0
H1108 H 0.04145 0.68685 0.3386 0.0
H1109 H 0.02875 0.69877 0.36796 0.0
C1110 C 0.36446 0.97517 0.38495 0.0
C1111 C 0.34636 0.99626 0.38614 0.0
C1112 C 0.36712 0.01681 0.34795 0.0
C1113 C 0.38437 0.99508 0.34599 0.0
N1114 N 0.39695 0.95158 0.35944 0.0
N1115 N 0.32729 0.03486 0.3667 0.0
C1116 C 0.38226 0.97362 0.36356 0.0
C1117 C 0.34675 0.01642 0.36699 0.0
N1118 N 0.36522 0.95712 0.40476 0.0
N1119 N 0.37077 0.03817 0.33217 0.0
H1120 H 0.31224 0.03533 0.38054 0.0
H1121 H 0.3248 0.04842 0.35166 0.0
H1122 H 0.38508 0.03892 0.31759 0.0
H1123 H 0.36088 0.05585 0.33461 0.0
H1124 H 0.37985 0.94304 0.40665 0.0
H1125 H 0.35221 0.95734 0.42053 0.0
H1126 H 0.39435 0.93418 0.36978 0.0
H1127 H 0.41044 0.94992 0.34416 0.0
C1128 C 0.98238 0.63564 0.6534 0.0
C1129 C 0.00292 0.61686 0.65379 0.0
C1130 C 0.02251 0.63665 0.61454 0.0
C1131 C 0.00214 0.65564 0.61434 0.0
N1132 N 0.9645 0.67565 0.63468 0.0
N1133 N 0.0441 0.60073 0.63721 0.0
C1134 C 0.98263 0.65588 0.63417 0.0
C1135 C 0.0235 0.61779 0.63509 0.0
N1136 N 0.96233 0.63367 0.6711 0.0
N1137 N 0.04053 0.63638 0.59468 0.0
H1138 H 0.04492 0.58593 0.65127 0.0
H1139 H 0.06116 0.60198 0.62613 0.0
H1140 H 0.04132 0.65075 0.58015 0.0
H1141 H 0.05403 0.62141 0.5917 0.0
H1142 H 0.94517 0.64462 0.6702 0.0
H1143 H 0.9622 0.62 0.68631 0.0
H1144 H 0.95148 0.6788 0.65003 0.0
H1145 H 0.96334 0.6901 0.62027 0.0
C1146 C 0.36163 0.01833 0.65872 0.0
C1147 C 0.38184 0.99924 0.65807 0.0
C1148 C 0.3608 0.97787 0.62049 0.0
C1149 C 0.34235 0.99863 0.61932 0.0
N1150 N 0.32642 0.04014 0.63533 0.0
N1151 N 0.40276 0.9626 0.6367 0.0
C1152 C 0.343 0.01925 0.63798 0.0
C1153 C 0.38194 0.97937 0.63859 0.0
N1154 N 0.35997 0.03521 0.67946 0.0
N1155 N 0.3578 0.9565 0.6046 0.0
H1156 H 0.41853 0.96288 0.64971 0.0
H1157 H 0.40545 0.9497 0.62112 0.0
H1158 H 0.34262 0.95484 0.59101 0.0
H1159 H 0.36892 0.93948 0.60639 0.0
H1160 H 0.3442 0.04779 0.68252 0.0
H1161 H 0.37336 0.03512 0.69492 0.0
H1162 H 0.3279 0.05718 0.64645 0.0
H1163 H 0.31222 0.04128 0.62066 0.0
C1164 C 0.99482 0.34051 0.64317 0.0
C1165 C 0.00665 0.34524 0.61845 0.0
C1166 C 0.01693 0.39035 0.63148 0.0
C1167 C 0.0062 0.38525 0.65663 0.0
N1168 N 0.9891 0.35465 0.68826 0.0
N1169 N 0.03326 0.37253 0.59055 0.0
C1170 C 0.9964 0.36003 0.66304 0.0
C1171 C 0.01903 0.36955 0.61306 0.0
N1172 N 0.9813 0.31774 0.64731 0.0
N1173 N 0.02422 0.41529 0.62488 0.0
H1174 H 0.03505 0.35775 0.57654 0.0
H1175 H 0.04507 0.38872 0.58672 0.0
H1176 H 0.02337 0.431 0.63794 0.0
H1177 H 0.0293 0.4209 0.60593 0.0
H1178 H 0.96973 0.31432 0.66375 0.0
H1179 H 0.98015 0.3028 0.63339 0.0
H1180 H 0.98438 0.33594 0.69489 0.0
H1181 H 0.98979 0.36858 0.70321 0.0
C1182 C 0.61872 0.02421 0.63713 0.0
C1183 C 0.61708 0.00275 0.65479 0.0
C1184 C 0.6528 0.98062 0.63145 0.0
C1185 C 0.6558 0.003 0.61518 0.0
N1186 N 0.64545 0.04824 0.60613 0.0
N1187 N 0.63589 0.96302 0.67221 0.0
C1188 C 0.6399 0.02547 0.61912 0.0
C1189 C 0.63514 0.98167 0.65298 0.0
N1190 N 0.59946 0.04283 0.63678 0.0
N1191 N 0.66601 0.95802 0.62574 0.0
H1192 H 0.62343 0.9633 0.68841 0.0
H1193 H 0.6504 0.94871 0.67337 0.0
H1194 H 0.679 0.95638 0.61005 0.0
H1195 H 0.66241 0.94026 0.63516 0.0
H1196 H 0.59813 0.0573 0.62244 0.0
H1197 H 0.5834 0.04245 0.64938 0.0
H1198 H 0.63624 0.06599 0.61023 0.0
H1199 H 0.661 0.05 0.59297 0.0
C1200 C 0.38269 0.36177 0.97823 0.0
C1201 C 0.3819 0.34175 0.99755 0.0
C1202 C 0.34305 0.36193 0.01739 0.0
C1203 C 0.34314 0.38121 0.99734 0.0
N1204 N 0.35952 0.39677 0.95588 0.0
N1205 N 0.35886 0.31961 0.03232 0.0
C1206 C 0.3619 0.38026 0.97686 0.0
C1207 C 0.36127 0.34086 0.01617 0.0
N1208 N 0.40386 0.36379 0.96193 0.0
N1209 N 0.32623 0.36431 0.03812 0.0
H1210 H 0.37192 0.30387 0.03195 0.0
H1211 H 0.34277 0.31647 0.04446 0.0
H1212 H 0.31236 0.37926 0.03953 0.0
H1213 H 0.32725 0.35265 0.05483 0.0
H1214 H 0.40704 0.37968 0.94953 0.0
H1215 H 0.41942 0.35053 0.96216 0.0
H1216 H 0.3709 0.39524 0.93901 0.0
H1217 H 0.34459 0.41066 0.95432 0.0
C1218 C 0.36914 0.60968 0.9814 0.0
C1219 C 0.34413 0.6153 0.9922 0.0
C1220 C 0.35853 0.65983 0.00328 0.0
C1221 C 0.38309 0.65458 0.99134 0.0
N1222 N 0.41006 0.62675 0.96432 0.0
N1223 N 0.31313 0.64675 0.00892 0.0
C1224 C 0.38785 0.63016 0.97893 0.0
C1225 C 0.33824 0.64074 0.00177 0.0
N1226 N 0.3754 0.58454 0.97451 0.0
N1227 N 0.35494 0.68263 0.0169 0.0
H1228 H 0.29784 0.63317 0.00814 0.0
H1229 H 0.30694 0.66564 0.01351 0.0
H1230 H 0.3692 0.69723 0.01811 0.0
H1231 H 0.3386 0.68634 0.02854 0.0
H1232 H 0.39426 0.57865 0.96941 0.0
H1233 H 0.36221 0.56898 0.97583 0.0
H1234 H 0.41336 0.61043 0.95253 0.0
H1235 H 0.42423 0.64133 0.96212 0.0
C1236 C 0.61502 0.36412 0.01897 0.0
C1237 C 0.61727 0.34238 0.00175 0.0
C1238 C 0.65783 0.36059 0.98346 0.0
C1239 C 0.65635 0.38151 0.00173 0.0
N1240 N 0.63631 0.40124 0.03968 0.0
N1241 N 0.64244 0.31744 0.97054 0.0
C1242 C 0.63574 0.38268 0.02034 0.0
C1243 C 0.63918 0.33989 0.98482 0.0
N1244 N 0.59266 0.36748 0.03334 0.0
N1245 N 0.67658 0.36096 0.96432 0.0
H1246 H 0.62901 0.30202 0.97088 0.0
H1247 H 0.65934 0.31314 0.95996 0.0
H1248 H 0.69088 0.37553 0.96305 0.0
H1249 H 0.67695 0.34794 0.94862 0.0
H1250 H 0.58848 0.38439 0.04396 0.0
H1251 H 0.57721 0.35411 0.03311 0.0
H1252 H 0.62349 0.40141 0.05554 0.0
H1253 H 0.65099 0.4154 0.04106 0.0
C1254 C 0.64326 0.62166 0.02103 0.0
C1255 C 0.65479 0.61336 0.99711 0.0
C1256 C 0.62619 0.64331 0.97267 0.0
C1257 C 0.61602 0.65293 0.99671 0.0
N1258 N 0.61858 0.65523 0.04384 0.0
N1259 N 0.66116 0.61979 0.95072 0.0
C1260 C 0.62569 0.64329 0.02094 0.0
C1261 C 0.64742 0.62526 0.97306 0.0
N1262 N 0.64822 0.60821 0.04367 0.0
N1263 N 0.61487 0.65058 0.94948 0.0
H1264 H 0.67692 0.60677 0.95031 0.0
H1265 H 0.6585 0.62988 0.93318 0.0
H1266 H 0.59924 0.66371 0.94834 0.0
H1267 H 0.6195 0.64198 0.93157 0.0
H1268 H 0.63813 0.61151 0.0611 0.0
H1269 H 0.66085 0.59216 0.04457 0.0
H1270 H 0.6271 0.65087 0.06187 0.0
H1271 H 0.60586 0.67124 0.04453 0.0
C1272 C 0.51499 0.84216 0.85944 0.0
C1273 C 0.49805 0.84428 0.8814 0.0
C1274 C 0.48225 0.88681 0.86551 0.0
C1275 C 0.49798 0.88394 0.84275 0.0
N1276 N 0.52544 0.8569 0.81544 0.0
N1277 N 0.46168 0.86563 0.90273 0.0
C1278 C 0.51319 0.86097 0.83892 0.0
C1279 C 0.48048 0.86573 0.88363 0.0
N1280 N 0.53349 0.82279 0.85868 0.0
N1281 N 0.46986 0.91007 0.87039 0.0
H1282 H 0.45972 0.85045 0.9163 0.0
H1283 H 0.44657 0.87932 0.90366 0.0
H1284 H 0.47063 0.92603 0.85763 0.0
H1285 H 0.4606 0.91435 0.88806 0.0
H1286 H 0.54831 0.82196 0.84468 0.0
H1287 H 0.53534 0.80858 0.87326 0.0
H1288 H 0.53457 0.83935 0.81043 0.0
H1289 H 0.52451 0.87027 0.79999 0.0
C1290 C 0.14655 0.52546 0.8746 0.0
C1291 C 0.15657 0.50108 0.88347 0.0
C1292 C 0.12744 0.47756 0.85332 0.0
C1293 C 0.11807 0.50197 0.84381 0.0
N1294 N 0.12156 0.54901 0.84164 0.0
N1295 N 0.16037 0.45426 0.87856 0.0
C1296 C 0.12853 0.52591 0.85332 0.0
C1297 C 0.14819 0.4772 0.87193 0.0
N1298 N 0.15364 0.5481 0.88709 0.0
N1299 N 0.1158 0.45478 0.84529 0.0
H1300 H 0.1753 0.45323 0.8925 0.0
H1301 H 0.15719 0.43658 0.86889 0.0
H1302 H 0.10093 0.45421 0.83127 0.0
H1303 H 0.11957 0.43658 0.8537 0.0
H1304 H 0.14476 0.56615 0.88369 0.0
H1305 H 0.16739 0.54862 0.90221 0.0
H1306 H 0.13045 0.5669 0.84575 0.0
H1307 H 0.1082 0.55004 0.82618 0.0
C1308 C 0.47734 0.11488 0.86693 0.0
C1309 C 0.49471 0.11729 0.84536 0.0
C1310 C 0.50918 0.16015 0.86164 0.0
C1311 C 0.49438 0.1561 0.88482 0.0
N1312 N 0.46694 0.1281 0.91131 0.0
N1313 N 0.52958 0.14057 0.82347 0.0
C1314 C 0.47901 0.13311 0.88792 0.0
C1315 C 0.51121 0.13957 0.84295 0.0
N1316 N 0.45889 0.09545 0.86706 0.0
N1317 N 0.52084 0.18389 0.85727 0.0
H1318 H 0.53165 0.12593 0.80936 0.0
H1319 H 0.54412 0.15485 0.82248 0.0
H1320 H 0.51968 0.19941 0.87054 0.0
H1321 H 0.52963 0.18898 0.83958 0.0
H1322 H 0.44392 0.09428 0.88089 0.0
H1323 H 0.45704 0.08181 0.85194 0.0
H1324 H 0.45798 0.1103 0.91572 0.0
H1325 H 0.46769 0.14092 0.92722 0.0
C1326 C 0.86062 0.48662 0.84045 0.0
C1327 C 0.88406 0.50095 0.84478 0.0
C1328 C 0.8671 0.51654 0.88692 0.0
C1329 C 0.84494 0.50002 0.88387 0.0
N1330 N 0.82182 0.4668 0.85947 0.0
N1331 N 0.91155 0.52649 0.87358 0.0
C1332 C 0.84197 0.4844 0.86105 0.0
C1333 C 0.88782 0.51515 0.8684 0.0
N1334 N 0.85592 0.47573 0.81641 0.0
N1335 N 0.868 0.53405 0.9072 0.0
H1336 H 0.92725 0.52595 0.86051 0.0
H1337 H 0.91644 0.53454 0.89168 0.0
H1338 H 0.85316 0.53563 0.92116 0.0
H1339 H 0.88224 0.54857 0.9089 0.0
H1340 H 0.83805 0.46743 0.81112 0.0
H1341 H 0.86921 0.4769 0.80091 0.0
H1342 H 0.82024 0.45279 0.84471 0.0
H1343 H 0.80763 0.46481 0.87406 0.0
C1344 C 0.47254 0.11838 0.14093 0.0
C1345 C 0.49509 0.11454 0.15677 0.0
C1346 C 0.51808 0.14972 0.13343 0.0
C1347 C 0.49524 0.15413 0.11817 0.0
N1348 N 0.44948 0.14608 0.10982 0.0
N1349 N 0.53761 0.12885 0.17149 0.0
C1350 C 0.47205 0.13948 0.1227 0.0
C1351 C 0.51736 0.13096 0.15405 0.0
N1352 N 0.45195 0.1013 0.14278 0.0
N1353 N 0.5407 0.16288 0.12759 0.0
H1354 H 0.53793 0.11497 0.18651 0.0
H1355 H 0.55317 0.142 0.17241 0.0
H1356 H 0.54177 0.17733 0.11316 0.0
H1357 H 0.55882 0.15844 0.13582 0.0
H1358 H 0.43625 0.10105 0.12977 0.0
H1359 H 0.45127 0.08612 0.15647 0.0
H1360 H 0.43122 0.13809 0.11416 0.0
H1361 H 0.44856 0.16111 0.09598 0.0
C1362 C 0.87556 0.47565 0.14631 0.0
C1363 C 0.88435 0.49982 0.15692 0.0
C1364 C 0.85542 0.5239 0.12702 0.0
C1365 C 0.84558 0.4997 0.11744 0.0
N1366 N 0.84231 0.45272 0.12123 0.0
N1367 N 0.87935 0.54659 0.16127 0.0
C1368 C 0.85446 0.4756 0.12811 0.0
C1369 C 0.87325 0.52387 0.14844 0.0
N1370 N 0.88806 0.45285 0.15285 0.0
N1371 N 0.84854 0.54684 0.11497 0.0
H1372 H 0.89239 0.54729 0.17701 0.0
H1373 H 0.86985 0.56433 0.15786 0.0
H1374 H 0.83539 0.5477 0.09935 0.0
H1375 H 0.85736 0.56478 0.11908 0.0
H1376 H 0.88456 0.43503 0.14352 0.0
H1377 H 0.90346 0.45202 0.16627 0.0
H1378 H 0.84601 0.43484 0.13035 0.0
H1379 H 0.82681 0.45195 0.10791 0.0
C1380 C 0.47775 0.84513 0.1305 0.0
C1381 C 0.4999 0.84268 0.11386 0.0
C1382 C 0.52111 0.87988 0.13577 0.0
C1383 C 0.49938 0.88172 0.15304 0.0
N1384 N 0.45879 0.86432 0.16974 0.0
N1385 N 0.54411 0.8548 0.1025 0.0
C1386 C 0.4782 0.86377 0.15126 0.0
C1387 C 0.52205 0.8592 0.11708 0.0
N1388 N 0.45604 0.83006 0.12599 0.0
N1389 N 0.54048 0.8984 0.13682 0.0
H1390 H 0.54523 0.84038 0.08805 0.0
H1391 H 0.56194 0.86413 0.10581 0.0
H1392 H 0.54095 0.91327 0.15085 0.0
H1393 H 0.55528 0.90013 0.12291 0.0
H1394 H 0.43813 0.83287 0.13532 0.0
H1395 H 0.45537 0.81552 0.11162 0.0
H1396 H 0.44427 0.8501 0.17136 0.0
H1397 H 0.45816 0.87814 0.1848 0.0
C1398 C 0.14936 0.521 0.13189 0.0
C1399 C 0.15445 0.49849 0.11636 0.0
C1400 C 0.12217 0.47358 0.14176 0.0
C1401 C 0.11493 0.49685 0.15515 0.0
N1402 N 0.1183 0.54387 0.15953 0.0
N1403 N 0.14216 0.45473 0.10312 0.0
C1404 C 0.12762 0.52092 0.1493 0.0
C1405 C 0.13989 0.47511 0.12036 0.0
N1406 N 0.16575 0.54215 0.13062 0.0
N1407 N 0.11274 0.44988 0.14998 0.0
H1408 H 0.1545 0.45525 0.08684 0.0
H1409 H 0.13 0.43833 0.10352 0.0
H1410 H 0.10002 0.4479 0.16586 0.0
H1411 H 0.11947 0.43204 0.14268 0.0
H1412 H 0.16455 0.55799 0.14346 0.0
H1413 H 0.18211 0.5428 0.11839 0.0
H1414 H 0.12506 0.56224 0.15372 0.0
H1415 H 0.10213 0.54476 0.17199 0.0
C1416 C 0.83809 0.86084 0.49141 0.0
C1417 C 0.84334 0.88554 0.50305 0.0
C1418 C 0.88619 0.86972 0.51801 0.0
C1419 C 0.88214 0.84614 0.50385 0.0
N1420 N 0.85566 0.81986 0.47484 0.0
N1421 N 0.87332 0.91495 0.5248 0.0
C1422 C 0.8584 0.84178 0.49002 0.0
C1423 C 0.86761 0.89036 0.51577 0.0
N1424 N 0.8135 0.85545 0.4822 0.0
N1425 N 0.90756 0.87213 0.534 0.0
H1426 H 0.86016 0.93056 0.52375 0.0
H1427 H 0.89178 0.92047 0.53152 0.0
H1428 H 0.92166 0.85745 0.53597 0.0
H1429 H 0.91022 0.88764 0.54699 0.0
H1430 H 0.8076 0.83694 0.47597 0.0
H1431 H 0.79822 0.86903 0.4828 0.0
H1432 H 0.84013 0.81697 0.46193 0.0
H1433 H 0.86991 0.80524 0.47372 0.0
C1434 C 0.86159 0.16017 0.49223 0.0
C1435 C 0.88682 0.15335 0.50172 0.0
C1436 C 0.87131 0.10908 0.51216 0.0
C1437 C 0.84687 0.11511 0.50033 0.0
N1438 N 0.81948 0.14504 0.47609 0.0
N1439 N 0.91712 0.12055 0.5173 0.0
C1440 C 0.84216 0.14033 0.48958 0.0
C1441 C 0.89208 0.12758 0.5108 0.0
N1442 N 0.85603 0.18574 0.4864 0.0
N1443 N 0.87442 0.08594 0.52533 0.0
H1444 H 0.93284 0.1336 0.51676 0.0
H1445 H 0.92275 0.10133 0.52119 0.0
H1446 H 0.85967 0.07185 0.52666 0.0
H1447 H 0.89073 0.08161 0.5368 0.0
H1448 H 0.83726 0.19248 0.4821 0.0
H1449 H 0.86985 0.20073 0.4879 0.0
H1450 H 0.81611 0.16203 0.46531 0.0
H1451 H 0.8047 0.13107 0.47399 0.0
C1452 C 0.13144 0.8482 0.47907 0.0
C1453 C 0.1131 0.8468 0.49993 0.0
C1454 C 0.13623 0.88225 0.52267 0.0
C1455 C 0.15234 0.88593 0.50029 0.0
N1456 N 0.16255 0.87508 0.45538 0.0
N1457 N 0.09526 0.86543 0.53962 0.0
C1458 C 0.14928 0.86957 0.47799 0.0
C1459 C 0.11476 0.86458 0.52127 0.0
N1460 N 0.13226 0.82875 0.46066 0.0
N1461 N 0.14187 0.89511 0.54549 0.0
H1462 H 0.07893 0.85315 0.53912 0.0
H1463 H 0.09406 0.87991 0.55397 0.0
H1464 H 0.15771 0.90789 0.54741 0.0
H1465 H 0.13243 0.89116 0.56315 0.0
H1466 H 0.14694 0.82734 0.44655 0.0
H1467 H 0.11971 0.81261 0.46102 0.0
H1468 H 0.15893 0.86554 0.4377 0.0
H1469 H 0.17554 0.89076 0.45362 0.0
C1470 C 0.13739 0.15608 0.51931 0.0
C1471 C 0.12157 0.15964 0.4967 0.0
C1472 C 0.14628 0.12546 0.4735 0.0
C1473 C 0.16035 0.1202 0.49692 0.0
N1474 N 0.1691 0.12912 0.54246 0.0
N1475 N 0.10966 0.14762 0.45262 0.0
C1476 C 0.15598 0.13528 0.51989 0.0
C1477 C 0.1258 0.14441 0.47379 0.0
N1478 N 0.1347 0.17279 0.54012 0.0
N1479 N 0.15273 0.11243 0.45097 0.0
H1480 H 0.0953 0.16215 0.45167 0.0
H1481 H 0.10946 0.13519 0.43646 0.0
H1482 H 0.16702 0.09783 0.45025 0.0
H1483 H 0.14528 0.11711 0.43258 0.0
H1484 H 0.14735 0.17317 0.55611 0.0
H1485 H 0.12072 0.18768 0.54071 0.0
H1486 H 0.16472 0.13708 0.56071 0.0
H1487 H 0.1837 0.11483 0.54331 0.0
loop_
_geom_bond_atom_site_label_1
_geom_bond_atom_site_label_2
_geom_bond_distance
_geom_bond_site_symmetry_2
_ccdc_geom_bond_type
Li0 N17 1.990 . S
Li0 O60 1.956 . S
Li0 O61 1.974 . S
Li0 O62 1.950 1_655 S
Li1 N25 1.991 . S
Li1 O60 1.955 1_455 S
Li1 O61 1.956 1_455 S
Li1 O63 1.976 . S
Li2 N47 1.991 . S
Li2 O60 1.969 . S
Li2 O62 1.956 1_655 S
Li2 O63 1.962 1_655 S
Li3 N53 1.990 . S
Li3 O61 1.957 1_455 S
Li3 O62 1.981 . S
Li3 O63 1.956 . S
C4 C6 1.348 . S
C4 C7 1.356 . S
C4 O60 1.325 . S
N5 C8 1.314 . S
N5 C9 1.279 . S
C6 C4 1.348 . S
C6 C8 1.353 . S
C6 H64 0.929 . S
C7 C4 1.356 . S
C7 C9 1.358 . S
C7 H65 0.930 . S
C8 N5 1.314 . S
C8 C6 1.353 . S
C8 H66 0.930 . S
C9 N5 1.279 . S
C9 C7 1.358 . S
C9 H67 0.930 . S
C10 C13 1.345 1_455 S
C10 C14 1.359 . S
C10 O61 1.325 1_455 S
C11 N12 1.279 . S
C11 C14 1.358 . S
C11 H68 0.930 . S
N12 C11 1.279 . S
N12 C15 1.314 1_455 S
C13 C10 1.345 1_655 S
C13 C15 1.353 . S
C13 H69 0.929 . S
C14 C10 1.359 . S
C14 C11 1.358 . S
C14 H70 0.930 . S
C15 N12 1.314 1_655 S
C15 C13 1.353 . S
C15 H71 0.930 . S
C16 N17 1.314 . S
C16 C21 1.353 . S
C16 H22 0.930 . S
N17 Li0 1.990 . S
N17 C16 1.314 . S
N17 C19 1.279 . S
C18 C19 1.358 . S
C18 C20 1.356 . S
C18 H72 0.930 . S
C19 N17 1.279 . S
C19 C18 1.358 . S
C19 H23 0.930 . S
C20 C18 1.356 . S
C20 C21 1.348 . S
C21 C16 1.353 . S
C21 C20 1.348 . S
C21 H73 0.929 . S
H22 C16 0.930 . S
H23 C19 0.930 . S
C24 N25 1.314 . S
C24 C26 1.353 . S
C24 H30 0.930 . S
N25 Li1 1.991 . S
N25 C24 1.314 . S
N25 C28 1.279 1_455 S
C26 C24 1.353 . S
C26 C29 1.346 . S
C26 H74 0.929 . S
C27 C28 1.358 . S
C27 C29 1.357 1_655 S
C27 H75 0.930 . S
C28 N25 1.279 1_655 S
C28 C27 1.358 . S
C28 H31 0.930 . S
C29 C26 1.346 . S
C29 C27 1.357 1_455 S
H30 C24 0.930 . S
H31 C28 0.930 . S
C32 C34 1.345 . S
C32 C35 1.359 1_455 S
C32 O62 1.325 . S
N33 C36 1.314 1_655 S
N33 C37 1.279 . S
C34 C32 1.345 . S
C34 C36 1.353 . S
C34 H76 0.929 . S
C35 C32 1.359 1_655 S
C35 C37 1.358 . S
C35 H77 0.930 . S
C36 N33 1.314 1_455 S
C36 C34 1.353 . S
C36 H78 0.930 . S
C37 N33 1.279 . S
C37 C35 1.358 . S
C37 H79 0.930 . S
C38 C39 1.348 . S
C38 C40 1.356 . S
C38 O63 1.325 . S
C39 C38 1.348 . S
C39 C41 1.353 . S
C39 H80 0.929 . S
C40 C38 1.356 . S
C40 C42 1.358 . S
C40 H81 0.930 . S
C41 C39 1.353 . S
C41 N43 1.314 . S
C41 H82 0.930 . S
C42 C40 1.358 . S
C42 N43 1.279 . S
C42 H83 0.930 . S
N43 C41 1.314 . S
N43 C42 1.279 . S
C44 C46 1.353 . S
C44 N47 1.314 . S
C44 H50 0.930 . S
C45 N47 1.279 1_455 S
C45 C48 1.358 . S
C45 H51 0.930 . S
C46 C44 1.353 . S
C46 C49 1.346 1_655 S
C46 H84 0.929 . S
N47 Li2 1.991 . S
N47 C44 1.314 . S
N47 C45 1.279 1_655 S
C48 C45 1.358 . S
C48 C49 1.357 . S
C48 H85 0.930 . S
C49 C46 1.346 1_455 S
C49 C48 1.357 . S
H50 C44 0.930 . S
H51 C45 0.930 . S
C52 N53 1.314 . S
C52 C54 1.353 . S
C52 H58 0.930 . S
N53 Li3 1.990 . S
N53 C52 1.314 . S
N53 C56 1.279 . S
C54 C52 1.353 . S
C54 C57 1.348 . S
C54 H86 0.929 . S
C55 C56 1.358 . S
C55 C57 1.356 . S
C55 H87 0.930 . S
C56 N53 1.279 . S
C56 C55 1.358 . S
C56 H59 0.930 . S
C57 C54 1.348 . S
C57 C55 1.356 . S
H58 C52 0.930 . S
H59 C56 0.930 . S
O60 Li0 1.956 . S
O60 Li1 1.955 1_655 S
O60 Li2 1.969 . S
O60 C4 1.325 . S
O61 Li0 1.974 . S
O61 Li1 1.956 1_655 S
O61 Li3 1.957 1_655 S
O61 C10 1.325 1_655 S
O62 Li0 1.950 1_455 S
O62 Li2 1.956 1_455 S
O62 Li3 1.981 . S
O62 C32 1.325 . S
O63 Li1 1.976 . S
O63 Li2 1.962 1_455 S
O63 Li3 1.956 . S
O63 C38 1.325 . S
H64 C6 0.929 . S
H65 C7 0.930 . S
H66 C8 0.930 . S
H67 C9 0.930 . S
H68 C11 0.930 . S
H69 C13 0.929 . S
H70 C14 0.930 . S
H71 C15 0.930 . S
H72 C18 0.930 . S
H73 C21 0.929 . S
H74 C26 0.929 . S
H75 C27 0.930 . S
H76 C34 0.929 . S
H77 C35 0.930 . S
H78 C36 0.930 . S
H79 C37 0.930 . S
H80 C39 0.929 . S
H81 C40 0.930 . S
H82 C41 0.930 . S
H83 C42 0.930 . S
H84 C46 0.929 . S
H85 C48 0.930 . S
H86 C54 0.929 . S
H87 C55 0.930 . S
Li88 N105 1.991 . S
Li88 O148 1.956 1_545 S
Li88 O149 1.955 1_545 S
Li88 O150 1.976 . S
Li89 N113 1.990 . S
Li89 O148 1.974 . S
Li89 O149 1.956 . S
Li89 O151 1.950 1_565 S
Li90 N135 1.990 . S
Li90 O148 1.957 1_545 S
Li90 O150 1.956 . S
Li90 O151 1.981 . S
Li91 N141 1.991 . S
Li91 O149 1.969 . S
Li91 O150 1.962 1_565 S
Li91 O151 1.956 1_565 S
C92 C94 1.345 1_545 S
C92 C95 1.359 . S
C92 O148 1.325 1_545 S
N93 C96 1.314 1_545 S
N93 C97 1.279 . S
C94 C92 1.345 1_565 S
C94 C96 1.353 . S
C94 H152 0.929 . S
C95 C92 1.359 . S
C95 C97 1.358 . S
C95 H153 0.930 . S
C96 N93 1.314 1_565 S
C96 C94 1.353 . S
C96 H154 0.930 . S
C97 N93 1.279 . S
C97 C95 1.358 . S
C97 H155 0.930 . S
C98 C101 1.348 . S
C98 C102 1.356 . S
C98 O149 1.325 . S
C99 N100 1.279 . S
C99 C102 1.358 . S
C99 H156 0.930 . S
N100 C99 1.279 . S
N100 C103 1.314 . S
C101 C98 1.348 . S
C101 C103 1.353 . S
C101 H157 0.929 . S
C102 C98 1.356 . S
C102 C99 1.358 . S
C102 H158 0.930 . S
C103 N100 1.314 . S
C103 C101 1.353 . S
C103 H159 0.930 . S
C104 N105 1.314 . S
C104 C109 1.353 . S
C104 H110 0.930 . S
N105 Li88 1.991 . S
N105 C104 1.314 . S
N105 C107 1.279 1_545 S
C106 C107 1.358 . S
C106 C108 1.357 1_565 S
C106 H160 0.930 . S
C107 N105 1.279 1_565 S
C107 C106 1.358 . S
C107 H111 0.930 . S
C108 C106 1.357 1_545 S
C108 C109 1.346 . S
C109 C104 1.353 . S
C109 C108 1.346 . S
C109 H161 0.929 . S
H110 C104 0.930 . S
H111 C107 0.930 . S
C112 N113 1.314 . S
C112 C114 1.353 . S
C112 H118 0.930 . S
N113 Li89 1.990 . S
N113 C112 1.314 . S
N113 C116 1.279 . S
C114 C112 1.353 . S
C114 C117 1.348 . S
C114 H162 0.929 . S
C115 C116 1.358 . S
C115 C117 1.356 . S
C115 H163 0.930 . S
C116 N113 1.279 . S
C116 C115 1.358 . S
C116 H119 0.930 . S
C117 C114 1.348 . S
C117 C115 1.356 . S
H118 C112 0.930 . S
H119 C116 0.930 . S
C120 C122 1.348 . S
C120 C123 1.356 . S
C120 O150 1.325 . S
N121 C124 1.314 . S
N121 C125 1.279 . S
C122 C120 1.348 . S
C122 C124 1.353 . S
C122 H164 0.929 . S
C123 C120 1.356 . S
C123 C125 1.358 . S
C123 H165 0.930 . S
C124 N121 1.314 . S
C124 C122 1.353 . S
C124 H166 0.930 . S
C125 N121 1.279 . S
C125 C123 1.358 . S
C125 H167 0.930 . S
C126 C127 1.345 . S
C126 C128 1.359 1_545 S
C126 O151 1.325 . S
C127 C126 1.345 . S
C127 C129 1.353 . S
C127 H168 0.929 . S
C128 C126 1.359 1_565 S
C128 C130 1.358 . S
C128 H169 0.930 . S
C129 C127 1.353 . S
C129 N131 1.314 1_545 S
C129 H170 0.930 . S
C130 C128 1.358 . S
C130 N131 1.279 . S
C130 H171 0.930 . S
N131 C129 1.314 1_565 S
N131 C130 1.279 . S
C132 C134 1.353 . S
C132 N135 1.314 . S
C132 H138 0.930 . S
C133 N135 1.279 . S
C133 C136 1.358 . S
C133 H139 0.930 . S
C134 C132 1.353 . S
C134 C137 1.348 . S
C134 H172 0.929 . S
N135 Li90 1.990 . S
N135 C132 1.314 . S
N135 C133 1.279 . S
C136 C133 1.358 . S
C136 C137 1.356 . S
C136 H173 0.930 . S
C137 C134 1.348 . S
C137 C136 1.356 . S
H138 C132 0.930 . S
H139 C133 0.930 . S
C140 N141 1.314 . S
C140 C142 1.353 . S
C140 H146 0.930 . S
N141 Li91 1.991 . S
N141 C140 1.314 . S
N141 C144 1.279 1_565 S
C142 C140 1.353 . S
C142 C145 1.346 1_565 S
C142 H174 0.929 . S
C143 C144 1.358 . S
C143 C145 1.357 . S
C143 H175 0.930 . S
C144 N141 1.279 1_545 S
C144 C143 1.358 . S
C144 H147 0.930 . S
C145 C142 1.346 1_545 S
C145 C143 1.357 . S
H146 C140 0.930 . S
H147 C144 0.930 . S
O148 Li88 1.956 1_565 S
O148 Li89 1.974 . S
O148 Li90 1.957 1_565 S
O148 C92 1.325 1_565 S
O149 Li88 1.955 1_565 S
O149 Li89 1.956 . S
O149 Li91 1.969 . S
O149 C98 1.325 . S
O150 Li88 1.976 . S
O150 Li90 1.956 . S
O150 Li91 1.962 1_545 S
O150 C120 1.325 . S
O151 Li89 1.950 1_545 S
O151 Li90 1.981 . S
O151 Li91 1.956 1_545 S
O151 C126 1.325 . S
H152 C94 0.929 . S
H153 C95 0.930 . S
H154 C96 0.930 . S
H155 C97 0.930 . S
H156 C99 0.930 . S
H157 C101 0.929 . S
H158 C102 0.930 . S
H159 C103 0.930 . S
H160 C106 0.930 . S
H161 C109 0.929 . S
H162 C114 0.929 . S
H163 C115 0.930 . S
H164 C122 0.929 . S
H165 C123 0.930 . S
H166 C124 0.930 . S
H167 C125 0.930 . S
H168 C127 0.929 . S
H169 C128 0.930 . S
H170 C129 0.930 . S
H171 C130 0.930 . S
H172 C134 0.929 . S
H173 C136 0.930 . S
H174 C142 0.929 . S
H175 C143 0.930 . S
Li176 N193 1.990 . S
Li176 O236 1.956 . S
Li176 O237 1.981 . S
Li176 O238 1.957 1_455 S
Li177 N201 1.991 . S
Li177 O236 1.962 1_655 S
Li177 O237 1.956 1_655 S
Li177 O239 1.969 . S
Li178 N223 1.991 . S
Li178 O236 1.976 . S
Li178 O238 1.956 1_455 S
Li178 O239 1.955 1_455 S
Li179 N229 1.990 . S
Li179 O237 1.950 1_655 S
Li179 O238 1.974 . S
Li179 O239 1.956 . S
C180 C182 1.348 . S
C180 C183 1.356 . S
C180 O236 1.325 . S
N181 C184 1.314 . S
N181 C185 1.279 . S
C182 C180 1.348 . S
C182 C184 1.353 . S
C182 H240 0.929 . S
C183 C180 1.356 . S
C183 C185 1.358 . S
C183 H241 0.930 . S
C184 N181 1.314 . S
C184 C182 1.353 . S
C184 H242 0.930 . S
C185 N181 1.279 . S
C185 C183 1.358 . S
C185 H243 0.930 . S
C186 C189 1.345 . S
C186 C190 1.359 1_455 S
C186 O237 1.325 . S
C187 N188 1.279 . S
C187 C190 1.358 . S
C187 H244 0.930 . S
N188 C187 1.279 . S
N188 C191 1.314 1_655 S
C189 C186 1.345 . S
C189 C191 1.353 . S
C189 H245 0.929 . S
C190 C186 1.359 1_655 S
C190 C187 1.358 . S
C190 H246 0.930 . S
C191 N188 1.314 1_455 S
C191 C189 1.353 . S
C191 H247 0.930 . S
C192 N193 1.314 . S
C192 C197 1.353 . S
C192 H198 0.930 . S
N193 Li176 1.990 . S
N193 C192 1.314 . S
N193 C195 1.279 . S
C194 C195 1.358 . S
C194 C196 1.356 . S
C194 H248 0.930 . S
C195 N193 1.279 . S
C195 C194 1.358 . S
C195 H199 0.930 . S
C196 C194 1.356 . S
C196 C197 1.348 . S
C197 C192 1.353 . S
C197 C196 1.348 . S
C197 H249 0.929 . S
H198 C192 0.930 . S
H199 C195 0.930 . S
C200 N201 1.314 . S
C200 C202 1.353 . S
C200 H206 0.930 . S
N201 Li177 1.991 . S
N201 C200 1.314 . S
N201 C204 1.279 1_655 S
C202 C200 1.353 . S
C202 C205 1.346 1_655 S
C202 H250 0.929 . S
C203 C204 1.358 . S
C203 C205 1.357 . S
C203 H251 0.930 . S
C204 N201 1.279 1_455 S
C204 C203 1.358 . S
C204 H207 0.930 . S
C205 C202 1.346 1_455 S
C205 C203 1.357 . S
H206 C200 0.930 . S
H207 C204 0.930 . S
C208 C210 1.345 1_455 S
C208 C211 1.359 . S
C208 O238 1.325 1_455 S
N209 C212 1.314 1_455 S
N209 C213 1.279 . S
C210 C208 1.345 1_655 S
C210 C212 1.353 . S
C210 H252 0.929 . S
C211 C208 1.359 . S
C211 C213 1.358 . S
C211 H253 0.930 . S
C212 N209 1.314 1_655 S
C212 C210 1.353 . S
C212 H254 0.930 . S
C213 N209 1.279 . S
C213 C211 1.358 . S
C213 H255 0.930 . S
C214 C215 1.348 . S
C214 C216 1.356 . S
C214 O239 1.325 . S
C215 C214 1.348 . S
C215 C217 1.353 . S
C215 H256 0.929 . S
C216 C214 1.356 . S
C216 C218 1.358 . S
C216 H257 0.930 . S
C217 C215 1.353 . S
C217 N219 1.314 . S
C217 H258 0.930 . S
C218 C216 1.358 . S
C218 N219 1.279 . S
C218 H259 0.930 . S
N219 C217 1.314 . S
N219 C218 1.279 . S
C220 C222 1.353 . S
C220 N223 1.314 . S
C220 H226 0.930 . S
C221 N223 1.279 1_655 S
C221 C224 1.358 . S
C221 H227 0.930 . S
C222 C220 1.353 . S
C222 C225 1.346 . S
C222 H260 0.929 . S
N223 Li178 1.991 . S
N223 C220 1.314 . S
N223 C221 1.279 1_455 S
C224 C221 1.358 . S
C224 C225 1.357 1_655 S
C224 H261 0.930 . S
C225 C222 1.346 . S
C225 C224 1.357 1_455 S
H226 C220 0.930 . S
H227 C221 0.930 . S
C228 N229 1.314 . S
C228 C230 1.353 . S
C228 H234 0.930 . S
N229 Li179 1.990 . S
N229 C228 1.314 . S
N229 C232 1.279 . S
C230 C228 1.353 . S
C230 C233 1.348 . S
C230 H262 0.929 . S
C231 C232 1.358 . S
C231 C233 1.356 . S
C231 H263 0.930 . S
C232 N229 1.279 . S
C232 C231 1.358 . S
C232 H235 0.930 . S
C233 C230 1.348 . S
C233 C231 1.356 . S
H234 C228 0.930 . S
H235 C232 0.930 . S
O236 Li176 1.956 . S
O236 Li177 1.962 1_455 S
O236 Li178 1.976 . S
O236 C180 1.325 . S
O237 Li176 1.981 . S
O237 Li177 1.956 1_455 S
O237 Li179 1.950 1_455 S
O237 C186 1.325 . S
O238 Li176 1.957 1_655 S
O238 Li178 1.956 1_655 S
O238 Li179 1.974 . S
O238 C208 1.325 1_655 S
O239 Li177 1.969 . S
O239 Li178 1.955 1_655 S
O239 Li179 1.956 . S
O239 C214 1.325 . S
H240 C182 0.929 . S
H241 C183 0.930 . S
H242 C184 0.930 . S
H243 C185 0.930 . S
H244 C187 0.930 . S
H245 C189 0.929 . S
H246 C190 0.930 . S
H247 C191 0.930 . S
H248 C194 0.930 . S
H249 C197 0.929 . S
H250 C202 0.929 . S
H251 C203 0.930 . S
H252 C210 0.929 . S
H253 C211 0.930 . S
H254 C212 0.930 . S
H255 C213 0.930 . S
H256 C215 0.929 . S
H257 C216 0.930 . S
H258 C217 0.930 . S
H259 C218 0.930 . S
H260 C222 0.929 . S
H261 C224 0.930 . S
H262 C230 0.929 . S
H263 C231 0.930 . S
Li264 N281 1.990 . S
Li264 O324 1.956 . S
Li264 O325 1.981 . S
Li264 O326 1.957 1_545 S
Li265 N289 1.991 . S
Li265 O324 1.962 1_565 S
Li265 O325 1.956 1_565 S
Li265 O327 1.969 . S
Li266 N311 1.991 . S
Li266 O324 1.976 . S
Li266 O326 1.956 1_545 S
Li266 O327 1.955 1_545 S
Li267 N317 1.990 . S
Li267 O325 1.950 1_565 S
Li267 O326 1.974 . S
Li267 O327 1.956 . S
C268 C270 1.348 . S
C268 C271 1.356 . S
C268 O324 1.325 . S
N269 C272 1.314 . S
N269 C273 1.279 . S
C270 C268 1.348 . S
C270 C272 1.353 . S
C270 H328 0.929 . S
C271 C268 1.356 . S
C271 C273 1.358 . S
C271 H329 0.930 . S
C272 N269 1.314 . S
C272 C270 1.353 . S
C272 H330 0.930 . S
C273 N269 1.279 . S
C273 C271 1.358 . S
C273 H331 0.930 . S
C274 C277 1.345 . S
C274 C278 1.359 1_545 S
C274 O325 1.325 . S
C275 N276 1.279 . S
C275 C278 1.358 . S
C275 H332 0.930 . S
N276 C275 1.279 . S
N276 C279 1.314 1_565 S
C277 C274 1.345 . S
C277 C279 1.353 . S
C277 H333 0.929 . S
C278 C274 1.359 1_565 S
C278 C275 1.358 . S
C278 H334 0.930 . S
C279 N276 1.314 1_545 S
C279 C277 1.353 . S
C279 H335 0.930 . S
C280 N281 1.314 . S
C280 C285 1.353 . S
C280 H286 0.930 . S
N281 Li264 1.990 . S
N281 C280 1.314 . S
N281 C283 1.279 . S
C282 C283 1.358 . S
C282 C284 1.356 . S
C282 H336 0.930 . S
C283 N281 1.279 . S
C283 C282 1.358 . S
C283 H287 0.930 . S
C284 C282 1.356 . S
C284 C285 1.348 . S
C285 C280 1.353 . S
C285 C284 1.348 . S
C285 H337 0.929 . S
H286 C280 0.930 . S
H287 C283 0.930 . S
C288 N289 1.314 . S
C288 C290 1.353 . S
C288 H294 0.930 . S
N289 Li265 1.991 . S
N289 C288 1.314 . S
N289 C292 1.279 1_565 S
C290 C288 1.353 . S
C290 C293 1.346 1_565 S
C290 H338 0.929 . S
C291 C292 1.358 . S
C291 C293 1.357 . S
C291 H339 0.930 . S
C292 N289 1.279 1_545 S
C292 C291 1.358 . S
C292 H295 0.930 . S
C293 C290 1.346 1_545 S
C293 C291 1.357 . S
H294 C288 0.930 . S
H295 C292 0.930 . S
C296 C298 1.345 1_545 S
C296 C299 1.359 . S
C296 O326 1.325 1_545 S
N297 C300 1.314 1_545 S
N297 C301 1.279 . S
C298 C296 1.345 1_565 S
C298 C300 1.353 . S
C298 H340 0.929 . S
C299 C296 1.359 . S
C299 C301 1.358 . S
C299 H341 0.930 . S
C300 N297 1.314 1_565 S
C300 C298 1.353 . S
C300 H342 0.930 . S
C301 N297 1.279 . S
C301 C299 1.358 . S
C301 H343 0.930 . S
C302 C303 1.348 . S
C302 C304 1.356 . S
C302 O327 1.325 . S
C303 C302 1.348 . S
C303 C305 1.353 . S
C303 H344 0.929 . S
C304 C302 1.356 . S
C304 C306 1.358 . S
C304 H345 0.930 . S
C305 C303 1.353 . S
C305 N307 1.314 . S
C305 H346 0.930 . S
C306 C304 1.358 . S
C306 N307 1.279 . S
C306 H347 0.930 . S
N307 C305 1.314 . S
N307 C306 1.279 . S
C308 C310 1.353 . S
C308 N311 1.314 . S
C308 H314 0.930 . S
C309 N311 1.279 1_565 S
C309 C312 1.358 . S
C309 H315 0.930 . S
C310 C308 1.353 . S
C310 C313 1.346 . S
C310 H348 0.929 . S
N311 Li266 1.991 . S
N311 C308 1.314 . S
N311 C309 1.279 1_545 S
C312 C309 1.358 . S
C312 C313 1.357 1_565 S
C312 H349 0.930 . S
C313 C310 1.346 . S
C313 C312 1.357 1_545 S
H314 C308 0.930 . S
H315 C309 0.930 . S
C316 N317 1.314 . S
C316 C318 1.353 . S
C316 H322 0.930 . S
N317 Li267 1.990 . S
N317 C316 1.314 . S
N317 C320 1.279 . S
C318 C316 1.353 . S
C318 C321 1.348 . S
C318 H350 0.929 . S
C319 C320 1.358 . S
C319 C321 1.356 . S
C319 H351 0.930 . S
C320 N317 1.279 . S
C320 C319 1.358 . S
C320 H323 0.930 . S
C321 C318 1.348 . S
C321 C319 1.356 . S
H322 C316 0.930 . S
H323 C320 0.930 . S
O324 Li264 1.956 . S
O324 Li265 1.962 1_545 S
O324 Li266 1.976 . S
O324 C268 1.325 . S
O325 Li264 1.981 . S
O325 Li265 1.956 1_545 S
O325 Li267 1.950 1_545 S
O325 C274 1.325 . S
O326 Li264 1.957 1_565 S
O326 Li266 1.956 1_565 S
O326 Li267 1.974 . S
O326 C296 1.325 1_565 S
O327 Li265 1.969 . S
O327 Li266 1.955 1_565 S
O327 Li267 1.956 . S
O327 C302 1.325 . S
H328 C270 0.929 . S
H329 C271 0.930 . S
H330 C272 0.930 . S
H331 C273 0.930 . S
H332 C275 0.930 . S
H333 C277 0.929 . S
H334 C278 0.930 . S
H335 C279 0.930 . S
H336 C282 0.930 . S
H337 C285 0.929 . S
H338 C290 0.929 . S
H339 C291 0.930 . S
H340 C298 0.929 . S
H341 C299 0.930 . S
H342 C300 0.930 . S
H343 C301 0.930 . S
H344 C303 0.929 . S
H345 C304 0.930 . S
H346 C305 0.930 . S
H347 C306 0.930 . S
H348 C310 0.929 . S
H349 C312 0.930 . S
H350 C318 0.929 . S
H351 C319 0.930 . S
Li352 N369 1.990 . S
Li352 O412 1.956 . S
Li352 O413 1.981 . S
Li352 O414 1.957 1_545 S
Li353 N377 1.991 . S
Li353 O412 1.962 1_565 S
Li353 O413 1.956 1_565 S
Li353 O415 1.969 . S
Li354 N399 1.991 . S
Li354 O412 1.976 . S
Li354 O414 1.956 1_545 S
Li354 O415 1.955 1_545 S
Li355 N405 1.990 . S
Li355 O413 1.950 1_565 S
Li355 O414 1.974 . S
Li355 O415 1.956 . S
C356 C358 1.348 . S
C356 C359 1.356 . S
C356 O412 1.325 . S
N357 C360 1.314 . S
N357 C361 1.279 . S
C358 C356 1.348 . S
C358 C360 1.353 . S
C358 H416 0.929 . S
C359 C356 1.356 . S
C359 C361 1.358 . S
C359 H417 0.930 . S
C360 N357 1.314 . S
C360 C358 1.353 . S
C360 H418 0.930 . S
C361 N357 1.279 . S
C361 C359 1.358 . S
C361 H419 0.930 . S
C362 C365 1.345 . S
C362 C366 1.359 1_545 S
C362 O413 1.325 . S
C363 N364 1.279 . S
C363 C366 1.358 . S
C363 H420 0.930 . S
N364 C363 1.279 . S
N364 C367 1.314 1_565 S
C365 C362 1.345 . S
C365 C367 1.353 . S
C365 H421 0.929 . S
C366 C362 1.359 1_565 S
C366 C363 1.358 . S
C366 H422 0.930 . S
C367 N364 1.314 1_545 S
C367 C365 1.353 . S
C367 H423 0.930 . S
C368 N369 1.314 . S
C368 C373 1.353 . S
C368 H374 0.930 . S
N369 Li352 1.990 . S
N369 C368 1.314 . S
N369 C371 1.279 . S
C370 C371 1.358 . S
C370 C372 1.356 . S
C370 H424 0.930 . S
C371 N369 1.279 . S
C371 C370 1.358 . S
C371 H375 0.930 . S
C372 C370 1.356 . S
C372 C373 1.348 . S
C373 C368 1.353 . S
C373 C372 1.348 . S
C373 H425 0.929 . S
H374 C368 0.930 . S
H375 C371 0.930 . S
C376 N377 1.314 . S
C376 C378 1.353 . S
C376 H382 0.930 . S
N377 Li353 1.991 . S
N377 C376 1.314 . S
N377 C380 1.279 1_565 S
C378 C376 1.353 . S
C378 C381 1.346 1_565 S
C378 H426 0.929 . S
C379 C380 1.358 . S
C379 C381 1.357 . S
C379 H427 0.930 . S
C380 N377 1.279 1_545 S
C380 C379 1.358 . S
C380 H383 0.930 . S
C381 C378 1.346 1_545 S
C381 C379 1.357 . S
H382 C376 0.930 . S
H383 C380 0.930 . S
C384 C386 1.345 1_545 S
C384 C387 1.359 . S
C384 O414 1.325 1_545 S
N385 C388 1.314 1_545 S
N385 C389 1.279 . S
C386 C384 1.345 1_565 S
C386 C388 1.353 . S
C386 H428 0.929 . S
C387 C384 1.359 . S
C387 C389 1.358 . S
C387 H429 0.930 . S
C388 N385 1.314 1_565 S
C388 C386 1.353 . S
C388 H430 0.930 . S
C389 N385 1.279 . S
C389 C387 1.358 . S
C389 H431 0.930 . S
C390 C391 1.348 . S
C390 C392 1.356 . S
C390 O415 1.325 . S
C391 C390 1.348 . S
C391 C393 1.353 . S
C391 H432 0.929 . S
C392 C390 1.356 . S
C392 C394 1.358 . S
C392 H433 0.930 . S
C393 C391 1.353 . S
C393 N395 1.314 . S
C393 H434 0.930 . S
C394 C392 1.358 . S
C394 N395 1.279 . S
C394 H435 0.930 . S
N395 C393 1.314 . S
N395 C394 1.279 . S
C396 C398 1.353 . S
C396 N399 1.314 . S
C396 H402 0.930 . S
C397 N399 1.279 1_565 S
C397 C400 1.358 . S
C397 H403 0.930 . S
C398 C396 1.353 . S
C398 C401 1.346 . S
C398 H436 0.929 . S
N399 Li354 1.991 . S
N399 C396 1.314 . S
N399 C397 1.279 1_545 S
C400 C397 1.358 . S
C400 C401 1.357 1_565 S
C400 H437 0.930 . S
C401 C398 1.346 . S
C401 C400 1.357 1_545 S
H402 C396 0.930 . S
H403 C397 0.930 . S
C404 N405 1.314 . S
C404 C406 1.353 . S
C404 H410 0.930 . S
N405 Li355 1.990 . S
N405 C404 1.314 . S
N405 C408 1.279 . S
C406 C404 1.353 . S
C406 C409 1.348 . S
C406 H438 0.929 . S
C407 C408 1.358 . S
C407 C409 1.356 . S
C407 H439 0.930 . S
C408 N405 1.279 . S
C408 C407 1.358 . S
C408 H411 0.930 . S
C409 C406 1.348 . S
C409 C407 1.356 . S
H410 C404 0.930 . S
H411 C408 0.930 . S
O412 Li352 1.956 . S
O412 Li353 1.962 1_545 S
O412 Li354 1.976 . S
O412 C356 1.325 . S
O413 Li352 1.981 . S
O413 Li353 1.956 1_545 S
O413 Li355 1.950 1_545 S
O413 C362 1.325 . S
O414 Li352 1.957 1_565 S
O414 Li354 1.956 1_565 S
O414 Li355 1.974 . S
O414 C384 1.325 1_565 S
O415 Li353 1.969 . S
O415 Li354 1.955 1_565 S
O415 Li355 1.956 . S
O415 C390 1.325 . S
H416 C358 0.929 . S
H417 C359 0.930 . S
H418 C360 0.930 . S
H419 C361 0.930 . S
H420 C363 0.930 . S
H421 C365 0.929 . S
H422 C366 0.930 . S
H423 C367 0.930 . S
H424 C370 0.930 . S
H425 C373 0.929 . S
H426 C378 0.929 . S
H427 C379 0.930 . S
H428 C386 0.929 . S
H429 C387 0.930 . S
H430 C388 0.930 . S
H431 C389 0.930 . S
H432 C391 0.929 . S
H433 C392 0.930 . S
H434 C393 0.930 . S
H435 C394 0.930 . S
H436 C398 0.929 . S
H437 C400 0.930 . S
H438 C406 0.929 . S
H439 C407 0.930 . S
Li440 N457 1.990 . S
Li440 O500 1.956 . S
Li440 O501 1.974 . S
Li440 O502 1.950 1_655 S
Li441 N465 1.991 . S
Li441 O500 1.955 1_455 S
Li441 O501 1.956 1_455 S
Li441 O503 1.976 . S
Li442 N487 1.991 . S
Li442 O500 1.969 . S
Li442 O502 1.956 1_655 S
Li442 O503 1.962 1_655 S
Li443 N493 1.990 . S
Li443 O501 1.957 1_455 S
Li443 O502 1.981 . S
Li443 O503 1.956 . S
C444 C446 1.348 . S
C444 C447 1.356 . S
C444 O500 1.325 . S
N445 C448 1.314 . S
N445 C449 1.279 . S
C446 C444 1.348 . S
C446 C448 1.353 . S
C446 H504 0.929 . S
C447 C444 1.356 . S
C447 C449 1.358 . S
C447 H505 0.930 . S
C448 N445 1.314 . S
C448 C446 1.353 . S
C448 H506 0.930 . S
C449 N445 1.279 . S
C449 C447 1.358 . S
C449 H507 0.930 . S
C450 C453 1.345 1_455 S
C450 C454 1.359 . S
C450 O501 1.325 1_455 S
C451 N452 1.279 . S
C451 C454 1.358 . S
C451 H508 0.930 . S
N452 C451 1.279 . S
N452 C455 1.314 1_455 S
C453 C450 1.345 1_655 S
C453 C455 1.353 . S
C453 H509 0.929 . S
C454 C450 1.359 . S
C454 C451 1.358 . S
C454 H510 0.930 . S
C455 N452 1.314 1_655 S
C455 C453 1.353 . S
C455 H511 0.930 . S
C456 N457 1.314 . S
C456 C461 1.353 . S
C456 H462 0.930 . S
N457 Li440 1.990 . S
N457 C456 1.314 . S
N457 C459 1.279 . S
C458 C459 1.358 . S
C458 C460 1.356 . S
C458 H512 0.930 . S
C459 N457 1.279 . S
C459 C458 1.358 . S
C459 H463 0.930 . S
C460 C458 1.356 . S
C460 C461 1.348 . S
C461 C456 1.353 . S
C461 C460 1.348 . S
C461 H513 0.929 . S
H462 C456 0.930 . S
H463 C459 0.930 . S
C464 N465 1.314 . S
C464 C466 1.353 . S
C464 H470 0.930 . S
N465 Li441 1.991 . S
N465 C464 1.314 . S
N465 C468 1.279 1_455 S
C466 C464 1.353 . S
C466 C469 1.346 . S
C466 H514 0.929 . S
C467 C468 1.358 . S
C467 C469 1.357 1_655 S
C467 H515 0.930 . S
C468 N465 1.279 1_655 S
C468 C467 1.358 . S
C468 H471 0.930 . S
C469 C466 1.346 . S
C469 C467 1.357 1_455 S
H470 C464 0.930 . S
H471 C468 0.930 . S
C472 C474 1.345 . S
C472 C475 1.359 1_455 S
C472 O502 1.325 . S
N473 C476 1.314 1_655 S
N473 C477 1.279 . S
C474 C472 1.345 . S
C474 C476 1.353 . S
C474 H516 0.929 . S
C475 C472 1.359 1_655 S
C475 C477 1.358 . S
C475 H517 0.930 . S
C476 N473 1.314 1_455 S
C476 C474 1.353 . S
C476 H518 0.930 . S
C477 N473 1.279 . S
C477 C475 1.358 . S
C477 H519 0.930 . S
C478 C479 1.348 . S
C478 C480 1.356 . S
C478 O503 1.325 . S
C479 C478 1.348 . S
C479 C481 1.353 . S
C479 H520 0.929 . S
C480 C478 1.356 . S
C480 C482 1.358 . S
C480 H521 0.930 . S
C481 C479 1.353 . S
C481 N483 1.314 . S
C481 H522 0.930 . S
C482 C480 1.358 . S
C482 N483 1.279 . S
C482 H523 0.930 . S
N483 C481 1.314 . S
N483 C482 1.279 . S
C484 C486 1.353 . S
C484 N487 1.314 . S
C484 H490 0.930 . S
C485 N487 1.279 1_455 S
C485 C488 1.358 . S
C485 H491 0.930 . S
C486 C484 1.353 . S
C486 C489 1.346 1_655 S
C486 H524 0.929 . S
N487 Li442 1.991 . S
N487 C484 1.314 . S
N487 C485 1.279 1_655 S
C488 C485 1.358 . S
C488 C489 1.357 . S
C488 H525 0.930 . S
C489 C486 1.346 1_455 S
C489 C488 1.357 . S
H490 C484 0.930 . S
H491 C485 0.930 . S
C492 N493 1.314 . S
C492 C494 1.353 . S
C492 H498 0.930 . S
N493 Li443 1.990 . S
N493 C492 1.314 . S
N493 C496 1.279 . S
C494 C492 1.353 . S
C494 C497 1.348 . S
C494 H526 0.929 . S
C495 C496 1.358 . S
C495 C497 1.356 . S
C495 H527 0.930 . S
C496 N493 1.279 . S
C496 C495 1.358 . S
C496 H499 0.930 . S
C497 C494 1.348 . S
C497 C495 1.356 . S
H498 C492 0.930 . S
H499 C496 0.930 . S
O500 Li440 1.956 . S
O500 Li441 1.955 1_655 S
O500 Li442 1.969 . S
O500 C444 1.325 . S
O501 Li440 1.974 . S
O501 Li441 1.956 1_655 S
O501 Li443 1.957 1_655 S
O501 C450 1.325 1_655 S
O502 Li440 1.950 1_455 S
O502 Li442 1.956 1_455 S
O502 Li443 1.981 . S
O502 C472 1.325 . S
O503 Li441 1.976 . S
O503 Li442 1.962 1_455 S
O503 Li443 1.956 . S
O503 C478 1.325 . S
H504 C446 0.929 . S
H505 C447 0.930 . S
H506 C448 0.930 . S
H507 C449 0.930 . S
H508 C451 0.930 . S
H509 C453 0.929 . S
H510 C454 0.930 . S
H511 C455 0.930 . S
H512 C458 0.930 . S
H513 C461 0.929 . S
H514 C466 0.929 . S
H515 C467 0.930 . S
H516 C474 0.929 . S
H517 C475 0.930 . S
H518 C476 0.930 . S
H519 C477 0.930 . S
H520 C479 0.929 . S
H521 C480 0.930 . S
H522 C481 0.930 . S
H523 C482 0.930 . S
H524 C486 0.929 . S
H525 C488 0.930 . S
H526 C494 0.929 . S
H527 C495 0.930 . S
Li528 N545 1.991 . S
Li528 O588 1.956 1_545 S
Li528 O589 1.955 1_545 S
Li528 O590 1.976 . S
Li529 N553 1.990 . S
Li529 O588 1.974 . S
Li529 O589 1.956 . S
Li529 O591 1.950 1_565 S
Li530 N575 1.990 . S
Li530 O588 1.957 1_545 S
Li530 O590 1.956 . S
Li530 O591 1.981 . S
Li531 N581 1.991 . S
Li531 O589 1.969 . S
Li531 O590 1.962 1_565 S
Li531 O591 1.956 1_565 S
C532 C534 1.345 1_545 S
C532 C535 1.359 . S
C532 O588 1.325 1_545 S
N533 C536 1.314 1_545 S
N533 C537 1.279 . S
C534 C532 1.345 1_565 S
C534 C536 1.353 . S
C534 H592 0.929 . S
C535 C532 1.359 . S
C535 C537 1.358 . S
C535 H593 0.930 . S
C536 N533 1.314 1_565 S
C536 C534 1.353 . S
C536 H594 0.930 . S
C537 N533 1.279 . S
C537 C535 1.358 . S
C537 H595 0.930 . S
C538 C541 1.348 . S
C538 C542 1.356 . S
C538 O589 1.325 . S
C539 N540 1.279 . S
C539 C542 1.358 . S
C539 H596 0.930 . S
N540 C539 1.279 . S
N540 C543 1.314 . S
C541 C538 1.348 . S
C541 C543 1.353 . S
C541 H597 0.929 . S
C542 C538 1.356 . S
C542 C539 1.358 . S
C542 H598 0.930 . S
C543 N540 1.314 . S
C543 C541 1.353 . S
C543 H599 0.930 . S
C544 N545 1.314 . S
C544 C549 1.353 . S
C544 H550 0.930 . S
N545 Li528 1.991 . S
N545 C544 1.314 . S
N545 C547 1.279 1_545 S
C546 C547 1.358 . S
C546 C548 1.357 1_565 S
C546 H600 0.930 . S
C547 N545 1.279 1_565 S
C547 C546 1.358 . S
C547 H551 0.930 . S
C548 C546 1.357 1_545 S
C548 C549 1.346 . S
C549 C544 1.353 . S
C549 C548 1.346 . S
C549 H601 0.929 . S
H550 C544 0.930 . S
H551 C547 0.930 . S
C552 N553 1.314 . S
C552 C554 1.353 . S
C552 H558 0.930 . S
N553 Li529 1.990 . S
N553 C552 1.314 . S
N553 C556 1.279 . S
C554 C552 1.353 . S
C554 C557 1.348 . S
C554 H602 0.929 . S
C555 C556 1.358 . S
C555 C557 1.356 . S
C555 H603 0.930 . S
C556 N553 1.279 . S
C556 C555 1.358 . S
C556 H559 0.930 . S
C557 C554 1.348 . S
C557 C555 1.356 . S
H558 C552 0.930 . S
H559 C556 0.930 . S
C560 C562 1.348 . S
C560 C563 1.356 . S
C560 O590 1.325 . S
N561 C564 1.314 . S
N561 C565 1.279 . S
C562 C560 1.348 . S
C562 C564 1.353 . S
C562 H604 0.929 . S
C563 C560 1.356 . S
C563 C565 1.358 . S
C563 H605 0.930 . S
C564 N561 1.314 . S
C564 C562 1.353 . S
C564 H606 0.930 . S
C565 N561 1.279 . S
C565 C563 1.358 . S
C565 H607 0.930 . S
C566 C567 1.345 . S
C566 C568 1.359 1_545 S
C566 O591 1.325 . S
C567 C566 1.345 . S
C567 C569 1.353 . S
C567 H608 0.929 . S
C568 C566 1.359 1_565 S
C568 C570 1.358 . S
C568 H609 0.930 . S
C569 C567 1.353 . S
C569 N571 1.314 1_545 S
C569 H610 0.930 . S
C570 C568 1.358 . S
C570 N571 1.279 . S
C570 H611 0.930 . S
N571 C569 1.314 1_565 S
N571 C570 1.279 . S
C572 C574 1.353 . S
C572 N575 1.314 . S
C572 H578 0.930 . S
C573 N575 1.279 . S
C573 C576 1.358 . S
C573 H579 0.930 . S
C574 C572 1.353 . S
C574 C577 1.348 . S
C574 H612 0.929 . S
N575 Li530 1.990 . S
N575 C572 1.314 . S
N575 C573 1.279 . S
C576 C573 1.358 . S
C576 C577 1.356 . S
C576 H613 0.930 . S
C577 C574 1.348 . S
C577 C576 1.356 . S
H578 C572 0.930 . S
H579 C573 0.930 . S
C580 N581 1.314 . S
C580 C582 1.353 . S
C580 H586 0.930 . S
N581 Li531 1.991 . S
N581 C580 1.314 . S
N581 C584 1.279 1_565 S
C582 C580 1.353 . S
C582 C585 1.346 1_565 S
C582 H614 0.929 . S
C583 C584 1.358 . S
C583 C585 1.357 . S
C583 H615 0.930 . S
C584 N581 1.279 1_545 S
C584 C583 1.358 . S
C584 H587 0.930 . S
C585 C582 1.346 1_545 S
C585 C583 1.357 . S
H586 C580 0.930 . S
H587 C584 0.930 . S
O588 Li528 1.956 1_565 S
O588 Li529 1.974 . S
O588 Li530 1.957 1_565 S
O588 C532 1.325 1_565 S
O589 Li528 1.955 1_565 S
O589 Li529 1.956 . S
O589 Li531 1.969 . S
O589 C538 1.325 . S
O590 Li528 1.976 . S
O590 Li530 1.956 . S
O590 Li531 1.962 1_545 S
O590 C560 1.325 . S
O591 Li529 1.950 1_545 S
O591 Li530 1.981 . S
O591 Li531 1.956 1_545 S
O591 C566 1.325 . S
H592 C534 0.929 . S
H593 C535 0.930 . S
H594 C536 0.930 . S
H595 C537 0.930 . S
H596 C539 0.930 . S
H597 C541 0.929 . S
H598 C542 0.930 . S
H599 C543 0.930 . S
H600 C546 0.930 . S
H601 C549 0.929 . S
H602 C554 0.929 . S
H603 C555 0.930 . S
H604 C562 0.929 . S
H605 C563 0.930 . S
H606 C564 0.930 . S
H607 C565 0.930 . S
H608 C567 0.929 . S
H609 C568 0.930 . S
H610 C569 0.930 . S
H611 C570 0.930 . S
H612 C574 0.929 . S
H613 C576 0.930 . S
H614 C582 0.929 . S
H615 C583 0.930 . S
Li616 N633 1.991 . S
Li616 O676 1.956 1_455 S
Li616 O677 1.955 1_455 S
Li616 O678 1.976 . S
Li617 N641 1.990 . S
Li617 O676 1.974 . S
Li617 O677 1.956 . S
Li617 O679 1.950 1_655 S
Li618 N663 1.990 . S
Li618 O676 1.957 1_455 S
Li618 O678 1.956 . S
Li618 O679 1.981 . S
Li619 N669 1.991 . S
Li619 O677 1.969 . S
Li619 O678 1.962 1_655 S
Li619 O679 1.956 1_655 S
C620 C622 1.345 1_455 S
C620 C623 1.359 . S
C620 O676 1.325 1_455 S
N621 C624 1.314 1_455 S
N621 C625 1.279 . S
C622 C620 1.345 1_655 S
C622 C624 1.353 . S
C622 H680 0.929 . S
C623 C620 1.359 . S
C623 C625 1.358 . S
C623 H681 0.930 . S
C624 N621 1.314 1_655 S
C624 C622 1.353 . S
C624 H682 0.930 . S
C625 N621 1.279 . S
C625 C623 1.358 . S
C625 H683 0.930 . S
C626 C629 1.348 . S
C626 C630 1.356 . S
C626 O677 1.325 . S
C627 N628 1.279 . S
C627 C630 1.358 . S
C627 H684 0.930 . S
N628 C627 1.279 . S
N628 C631 1.314 . S
C629 C626 1.348 . S
C629 C631 1.353 . S
C629 H685 0.929 . S
C630 C626 1.356 . S
C630 C627 1.358 . S
C630 H686 0.930 . S
C631 N628 1.314 . S
C631 C629 1.353 . S
C631 H687 0.930 . S
C632 N633 1.314 . S
C632 C637 1.353 . S
C632 H638 0.930 . S
N633 Li616 1.991 . S
N633 C632 1.314 . S
N633 C635 1.279 1_455 S
C634 C635 1.358 . S
C634 C636 1.357 1_655 S
C634 H688 0.930 . S
C635 N633 1.279 1_655 S
C635 C634 1.358 . S
C635 H639 0.930 . S
C636 C634 1.357 1_455 S
C636 C637 1.346 . S
C637 C632 1.353 . S
C637 C636 1.346 . S
C637 H689 0.929 . S
H638 C632 0.930 . S
H639 C635 0.930 . S
C640 N641 1.314 . S
C640 C642 1.353 . S
C640 H646 0.930 . S
N641 Li617 1.990 . S
N641 C640 1.314 . S
N641 C644 1.279 . S
C642 C640 1.353 . S
C642 C645 1.348 . S
C642 H690 0.929 . S
C643 C644 1.358 . S
C643 C645 1.356 . S
C643 H691 0.930 . S
C644 N641 1.279 . S
C644 C643 1.358 . S
C644 H647 0.930 . S
C645 C642 1.348 . S
C645 C643 1.356 . S
H646 C640 0.930 . S
H647 C644 0.930 . S
C648 C650 1.348 . S
C648 C651 1.356 . S
C648 O678 1.325 . S
N649 C652 1.314 . S
N649 C653 1.279 . S
C650 C648 1.348 . S
C650 C652 1.353 . S
C650 H692 0.929 . S
C651 C648 1.356 . S
C651 C653 1.358 . S
C651 H693 0.930 . S
C652 N649 1.314 . S
C652 C650 1.353 . S
C652 H694 0.930 . S
C653 N649 1.279 . S
C653 C651 1.358 . S
C653 H695 0.930 . S
C654 C655 1.345 . S
C654 C656 1.359 1_455 S
C654 O679 1.325 . S
C655 C654 1.345 . S
C655 C657 1.353 . S
C655 H696 0.929 . S
C656 C654 1.359 1_655 S
C656 C658 1.358 . S
C656 H697 0.930 . S
C657 C655 1.353 . S
C657 N659 1.314 1_455 S
C657 H698 0.930 . S
C658 C656 1.358 . S
C658 N659 1.279 . S
C658 H699 0.930 . S
N659 C657 1.314 1_655 S
N659 C658 1.279 . S
C660 C662 1.353 . S
C660 N663 1.314 . S
C660 H666 0.930 . S
C661 N663 1.279 . S
C661 C664 1.358 . S
C661 H667 0.930 . S
C662 C660 1.353 . S
C662 C665 1.348 . S
C662 H700 0.929 . S
N663 Li618 1.990 . S
N663 C660 1.314 . S
N663 C661 1.279 . S
C664 C661 1.358 . S
C664 C665 1.356 . S
C664 H701 0.930 . S
C665 C662 1.348 . S
C665 C664 1.356 . S
H666 C660 0.930 . S
H667 C661 0.930 . S
C668 N669 1.314 . S
C668 C670 1.353 . S
C668 H674 0.930 . S
N669 Li619 1.991 . S
N669 C668 1.314 . S
N669 C672 1.279 1_655 S
C670 C668 1.353 . S
C670 C673 1.346 1_655 S
C670 H702 0.929 . S
C671 C672 1.358 . S
C671 C673 1.357 . S
C671 H703 0.930 . S
C672 N669 1.279 1_455 S
C672 C671 1.358 . S
C672 H675 0.930 . S
C673 C670 1.346 1_455 S
C673 C671 1.357 . S
H674 C668 0.930 . S
H675 C672 0.930 . S
O676 Li616 1.956 1_655 S
O676 Li617 1.974 . S
O676 Li618 1.957 1_655 S
O676 C620 1.325 1_655 S
O677 Li616 1.955 1_655 S
O677 Li617 1.956 . S
O677 Li619 1.969 . S
O677 C626 1.325 . S
O678 Li616 1.976 . S
O678 Li618 1.956 . S
O678 Li619 1.962 1_455 S
O678 C648 1.325 . S
O679 Li617 1.950 1_455 S
O679 Li618 1.981 . S
O679 Li619 1.956 1_455 S
O679 C654 1.325 . S
H680 C622 0.929 . S
H681 C623 0.930 . S
H682 C624 0.930 . S
H683 C625 0.930 . S
H684 C627 0.930 . S
H685 C629 0.929 . S
H686 C630 0.930 . S
H687 C631 0.930 . S
H688 C634 0.930 . S
H689 C637 0.929 . S
H690 C642 0.929 . S
H691 C643 0.930 . S
H692 C650 0.929 . S
H693 C651 0.930 . S
H694 C652 0.930 . S
H695 C653 0.930 . S
H696 C655 0.929 . S
H697 C656 0.930 . S
H698 C657 0.930 . S
H699 C658 0.930 . S
H700 C662 0.929 . S
H701 C664 0.930 . S
H702 C670 0.929 . S
H703 C671 0.930 . S
Li704 N721 1.990 . S
Li704 O764 1.956 . S
Li704 O765 1.981 . S
Li704 O766 1.957 1_554 S
Li705 N729 1.991 . S
Li705 O764 1.962 1_556 S
Li705 O765 1.956 1_556 S
Li705 O767 1.969 . S
Li706 N751 1.991 . S
Li706 O764 1.976 . S
Li706 O766 1.956 1_554 S
Li706 O767 1.955 1_554 S
Li707 N757 1.990 . S
Li707 O765 1.950 1_556 S
Li707 O766 1.974 . S
Li707 O767 1.956 . S
C708 C710 1.348 . S
C708 C711 1.356 . S
C708 O764 1.325 . S
N709 C712 1.314 . S
N709 C713 1.279 . S
C710 C708 1.348 . S
C710 C712 1.353 . S
C710 H768 0.929 . S
C711 C708 1.356 . S
C711 C713 1.358 . S
C711 H769 0.930 . S
C712 N709 1.314 . S
C712 C710 1.353 . S
C712 H770 0.930 . S
C713 N709 1.279 . S
C713 C711 1.358 . S
C713 H771 0.930 . S
C714 C717 1.345 . S
C714 C718 1.359 1_554 S
C714 O765 1.325 . S
C715 N716 1.279 . S
C715 C718 1.358 . S
C715 H772 0.930 . S
N716 C715 1.279 . S
N716 C719 1.314 1_556 S
C717 C714 1.345 . S
C717 C719 1.353 . S
C717 H773 0.929 . S
C718 C714 1.359 1_556 S
C718 C715 1.358 . S
C718 H774 0.930 . S
C719 N716 1.314 1_554 S
C719 C717 1.353 . S
C719 H775 0.930 . S
C720 N721 1.314 . S
C720 C725 1.353 . S
C720 H726 0.930 . S
N721 Li704 1.990 . S
N721 C720 1.314 . S
N721 C723 1.279 . S
C722 C723 1.358 . S
C722 C724 1.356 . S
C722 H776 0.930 . S
C723 N721 1.279 . S
C723 C722 1.358 . S
C723 H727 0.930 . S
C724 C722 1.356 . S
C724 C725 1.348 . S
C725 C720 1.353 . S
C725 C724 1.348 . S
C725 H777 0.929 . S
H726 C720 0.930 . S
H727 C723 0.930 . S
C728 N729 1.314 . S
C728 C730 1.353 . S
C728 H734 0.930 . S
N729 Li705 1.991 . S
N729 C728 1.314 . S
N729 C732 1.279 1_556 S
C730 C728 1.353 . S
C730 C733 1.346 1_556 S
C730 H778 0.929 . S
C731 C732 1.358 . S
C731 C733 1.357 . S
C731 H779 0.930 . S
C732 N729 1.279 1_554 S
C732 C731 1.358 . S
C732 H735 0.930 . S
C733 C730 1.346 1_554 S
C733 C731 1.357 . S
H734 C728 0.930 . S
H735 C732 0.930 . S
C736 C738 1.345 1_554 S
C736 C739 1.359 . S
C736 O766 1.325 1_554 S
N737 C740 1.314 1_554 S
N737 C741 1.279 . S
C738 C736 1.345 1_556 S
C738 C740 1.353 . S
C738 H780 0.929 . S
C739 C736 1.359 . S
C739 C741 1.358 . S
C739 H781 0.930 . S
C740 N737 1.314 1_556 S
C740 C738 1.353 . S
C740 H782 0.930 . S
C741 N737 1.279 . S
C741 C739 1.358 . S
C741 H783 0.930 . S
C742 C743 1.348 . S
C742 C744 1.356 . S
C742 O767 1.325 . S
C743 C742 1.348 . S
C743 C745 1.353 . S
C743 H784 0.929 . S
C744 C742 1.356 . S
C744 C746 1.358 . S
C744 H785 0.930 . S
C745 C743 1.353 . S
C745 N747 1.314 . S
C745 H786 0.930 . S
C746 C744 1.358 . S
C746 N747 1.279 . S
C746 H787 0.930 . S
N747 C745 1.314 . S
N747 C746 1.279 . S
C748 C750 1.353 . S
C748 N751 1.314 . S
C748 H754 0.930 . S
C749 N751 1.279 1_556 S
C749 C752 1.358 . S
C749 H755 0.930 . S
C750 C748 1.353 . S
C750 C753 1.346 . S
C750 H788 0.929 . S
N751 Li706 1.991 . S
N751 C748 1.314 . S
N751 C749 1.279 1_554 S
C752 C749 1.358 . S
C752 C753 1.357 1_556 S
C752 H789 0.930 . S
C753 C750 1.346 . S
C753 C752 1.357 1_554 S
H754 C748 0.930 . S
H755 C749 0.930 . S
C756 N757 1.314 . S
C756 C758 1.353 . S
C756 H762 0.930 . S
N757 Li707 1.990 . S
N757 C756 1.314 . S
N757 C760 1.279 . S
C758 C756 1.353 . S
C758 C761 1.348 . S
C758 H790 0.929 . S
C759 C760 1.358 . S
C759 C761 1.356 . S
C759 H791 0.930 . S
C760 N757 1.279 . S
C760 C759 1.358 . S
C760 H763 0.930 . S
C761 C758 1.348 . S
C761 C759 1.356 . S
H762 C756 0.930 . S
H763 C760 0.930 . S
O764 Li704 1.956 . S
O764 Li705 1.962 1_554 S
O764 Li706 1.976 . S
O764 C708 1.325 . S
O765 Li704 1.981 . S
O765 Li705 1.956 1_554 S
O765 Li707 1.950 1_554 S
O765 C714 1.325 . S
O766 Li704 1.957 1_556 S
O766 Li706 1.956 1_556 S
O766 Li707 1.974 . S
O766 C736 1.325 1_556 S
O767 Li705 1.969 . S
O767 Li706 1.955 1_556 S
O767 Li707 1.956 . S
O767 C742 1.325 . S
H768 C710 0.929 . S
H769 C711 0.930 . S
H770 C712 0.930 . S
H771 C713 0.930 . S
H772 C715 0.930 . S
H773 C717 0.929 . S
H774 C718 0.930 . S
H775 C719 0.930 . S
H776 C722 0.930 . S
H777 C725 0.929 . S
H778 C730 0.929 . S
H779 C731 0.930 . S
H780 C738 0.929 . S
H781 C739 0.930 . S
H782 C740 0.930 . S
H783 C741 0.930 . S
H784 C743 0.929 . S
H785 C744 0.930 . S
H786 C745 0.930 . S
H787 C746 0.930 . S
H788 C750 0.929 . S
H789 C752 0.930 . S
H790 C758 0.929 . S
H791 C759 0.930 . S
Li792 N809 1.991 . S
Li792 O852 1.956 1_556 S
Li792 O853 1.962 1_556 S
Li792 O854 1.969 . S
Li793 N817 1.990 . S
Li793 O852 1.981 . S
Li793 O853 1.956 . S
Li793 O855 1.957 1_554 S
Li794 N839 1.990 . S
Li794 O852 1.950 1_556 S
Li794 O854 1.956 . S
Li794 O855 1.974 . S
Li795 N845 1.991 . S
Li795 O853 1.976 . S
Li795 O854 1.955 1_554 S
Li795 O855 1.956 1_554 S
C796 C798 1.345 . S
C796 C799 1.359 1_554 S
C796 O852 1.325 . S
N797 C800 1.314 1_556 S
N797 C801 1.279 . S
C798 C796 1.345 . S
C798 C800 1.353 . S
C798 H856 0.929 . S
C799 C796 1.359 1_556 S
C799 C801 1.358 . S
C799 H857 0.930 . S
C800 N797 1.314 1_554 S
C800 C798 1.353 . S
C800 H858 0.930 . S
C801 N797 1.279 . S
C801 C799 1.358 . S
C801 H859 0.930 . S
C802 C805 1.348 . S
C802 C806 1.356 . S
C802 O853 1.325 . S
C803 N804 1.279 . S
C803 C806 1.358 . S
C803 H860 0.930 . S
N804 C803 1.279 . S
N804 C807 1.314 . S
C805 C802 1.348 . S
C805 C807 1.353 . S
C805 H861 0.929 . S
C806 C802 1.356 . S
C806 C803 1.358 . S
C806 H862 0.930 . S
C807 N804 1.314 . S
C807 C805 1.353 . S
C807 H863 0.930 . S
C808 N809 1.314 . S
C808 C813 1.353 . S
C808 H814 0.930 . S
N809 Li792 1.991 . S
N809 C808 1.314 . S
N809 C811 1.279 1_556 S
C810 C811 1.358 . S
C810 C812 1.357 . S
C810 H864 0.930 . S
C811 N809 1.279 1_554 S
C811 C810 1.358 . S
C811 H815 0.930 . S
C812 C810 1.357 . S
C812 C813 1.346 1_554 S
C813 C808 1.353 . S
C813 C812 1.346 1_556 S
C813 H865 0.929 . S
H814 C808 0.930 . S
H815 C811 0.930 . S
C816 N817 1.314 . S
C816 C818 1.353 . S
C816 H822 0.930 . S
N817 Li793 1.990 . S
N817 C816 1.314 . S
N817 C820 1.279 . S
C818 C816 1.353 . S
C818 C821 1.348 . S
C818 H866 0.929 . S
C819 C820 1.358 . S
C819 C821 1.356 . S
C819 H867 0.930 . S
C820 N817 1.279 . S
C820 C819 1.358 . S
C820 H823 0.930 . S
C821 C818 1.348 . S
C821 C819 1.356 . S
H822 C816 0.930 . S
H823 C820 0.930 . S
C824 C826 1.348 . S
C824 C827 1.356 . S
C824 O854 1.325 . S
N825 C828 1.314 . S
N825 C829 1.279 . S
C826 C824 1.348 . S
C826 C828 1.353 . S
C826 H868 0.929 . S
C827 C824 1.356 . S
C827 C829 1.358 . S
C827 H869 0.930 . S
C828 N825 1.314 . S
C828 C826 1.353 . S
C828 H870 0.930 . S
C829 N825 1.279 . S
C829 C827 1.358 . S
C829 H871 0.930 . S
C830 C831 1.345 1_554 S
C830 C832 1.359 . S
C830 O855 1.325 1_554 S
C831 C830 1.345 1_556 S
C831 C833 1.353 . S
C831 H872 0.929 . S
C832 C830 1.359 . S
C832 C834 1.358 . S
C832 H873 0.930 . S
C833 C831 1.353 . S
C833 N835 1.314 1_556 S
C833 H874 0.930 . S
C834 C832 1.358 . S
C834 N835 1.279 . S
C834 H875 0.930 . S
N835 C833 1.314 1_554 S
N835 C834 1.279 . S
C836 C838 1.353 . S
C836 N839 1.314 . S
C836 H842 0.930 . S
C837 N839 1.279 . S
C837 C840 1.358 . S
C837 H843 0.930 . S
C838 C836 1.353 . S
C838 C841 1.348 . S
C838 H876 0.929 . S
N839 Li794 1.990 . S
N839 C836 1.314 . S
N839 C837 1.279 . S
C840 C837 1.358 . S
C840 C841 1.356 . S
C840 H877 0.930 . S
C841 C838 1.348 . S
C841 C840 1.356 . S
H842 C836 0.930 . S
H843 C837 0.930 . S
C844 N845 1.314 . S
C844 C846 1.353 . S
C844 H850 0.930 . S
N845 Li795 1.991 . S
N845 C844 1.314 . S
N845 C848 1.279 1_554 S
C846 C844 1.353 . S
C846 C849 1.346 . S
C846 H878 0.929 . S
C847 C848 1.358 . S
C847 C849 1.357 1_556 S
C847 H879 0.930 . S
C848 N845 1.279 1_556 S
C848 C847 1.358 . S
C848 H851 0.930 . S
C849 C846 1.346 . S
C849 C847 1.357 1_554 S
H850 C844 0.930 . S
H851 C848 0.930 . S
O852 Li792 1.956 1_554 S
O852 Li793 1.981 . S
O852 Li794 1.950 1_554 S
O852 C796 1.325 . S
O853 Li792 1.962 1_554 S
O853 Li793 1.956 . S
O853 Li795 1.976 . S
O853 C802 1.325 . S
O854 Li792 1.969 . S
O854 Li794 1.956 . S
O854 Li795 1.955 1_556 S
O854 C824 1.325 . S
O855 Li793 1.957 1_556 S
O855 Li794 1.974 . S
O855 Li795 1.956 1_556 S
O855 C830 1.325 1_556 S
H856 C798 0.929 . S
H857 C799 0.930 . S
H858 C800 0.930 . S
H859 C801 0.930 . S
H860 C803 0.930 . S
H861 C805 0.929 . S
H862 C806 0.930 . S
H863 C807 0.930 . S
H864 C810 0.930 . S
H865 C813 0.929 . S
H866 C818 0.929 . S
H867 C819 0.930 . S
H868 C826 0.929 . S
H869 C827 0.930 . S
H870 C828 0.930 . S
H871 C829 0.930 . S
H872 C831 0.929 . S
H873 C832 0.930 . S
H874 C833 0.930 . S
H875 C834 0.930 . S
H876 C838 0.929 . S
H877 C840 0.930 . S
H878 C846 0.929 . S
H879 C847 0.930 . S
Li880 N897 1.991 . S
Li880 O940 1.956 1_556 S
Li880 O941 1.962 1_556 S
Li880 O942 1.969 . S
Li881 N905 1.990 . S
Li881 O940 1.981 . S
Li881 O941 1.956 . S
Li881 O943 1.957 1_554 S
Li882 N927 1.990 . S
Li882 O940 1.950 1_556 S
Li882 O942 1.956 . S
Li882 O943 1.974 . S
Li883 N933 1.991 . S
Li883 O941 1.976 . S
Li883 O942 1.955 1_554 S
Li883 O943 1.956 1_554 S
C884 C886 1.345 . S
C884 C887 1.359 1_554 S
C884 O940 1.325 . S
N885 C888 1.314 1_556 S
N885 C889 1.279 . S
C886 C884 1.345 . S
C886 C888 1.353 . S
C886 H944 0.929 . S
C887 C884 1.359 1_556 S
C887 C889 1.358 . S
C887 H945 0.930 . S
C888 N885 1.314 1_554 S
C888 C886 1.353 . S
C888 H946 0.930 . S
C889 N885 1.279 . S
C889 C887 1.358 . S
C889 H947 0.930 . S
C890 C893 1.348 . S
C890 C894 1.356 . S
C890 O941 1.325 . S
C891 N892 1.279 . S
C891 C894 1.358 . S
C891 H948 0.930 . S
N892 C891 1.279 . S
N892 C895 1.314 . S
C893 C890 1.348 . S
C893 C895 1.353 . S
C893 H949 0.929 . S
C894 C890 1.356 . S
C894 C891 1.358 . S
C894 H950 0.930 . S
C895 N892 1.314 . S
C895 C893 1.353 . S
C895 H951 0.930 . S
C896 N897 1.314 . S
C896 C901 1.353 . S
C896 H902 0.930 . S
N897 Li880 1.991 . S
N897 C896 1.314 . S
N897 C899 1.279 1_556 S
C898 C899 1.358 . S
C898 C900 1.357 . S
C898 H952 0.930 . S
C899 N897 1.279 1_554 S
C899 C898 1.358 . S
C899 H903 0.930 . S
C900 C898 1.357 . S
C900 C901 1.346 1_554 S
C901 C896 1.353 . S
C901 C900 1.346 1_556 S
C901 H953 0.929 . S
H902 C896 0.930 . S
H903 C899 0.930 . S
C904 N905 1.314 . S
C904 C906 1.353 . S
C904 H910 0.930 . S
N905 Li881 1.990 . S
N905 C904 1.314 . S
N905 C908 1.279 . S
C906 C904 1.353 . S
C906 C909 1.348 . S
C906 H954 0.929 . S
C907 C908 1.358 . S
C907 C909 1.356 . S
C907 H955 0.930 . S
C908 N905 1.279 . S
C908 C907 1.358 . S
C908 H911 0.930 . S
C909 C906 1.348 . S
C909 C907 1.356 . S
H910 C904 0.930 . S
H911 C908 0.930 . S
C912 C914 1.348 . S
C912 C915 1.356 . S
C912 O942 1.325 . S
N913 C916 1.314 . S
N913 C917 1.279 . S
C914 C912 1.348 . S
C914 C916 1.353 . S
C914 H956 0.929 . S
C915 C912 1.356 . S
C915 C917 1.358 . S
C915 H957 0.930 . S
C916 N913 1.314 . S
C916 C914 1.353 . S
C916 H958 0.930 . S
C917 N913 1.279 . S
C917 C915 1.358 . S
C917 H959 0.930 . S
C918 C919 1.345 1_554 S
C918 C920 1.359 . S
C918 O943 1.325 1_554 S
C919 C918 1.345 1_556 S
C919 C921 1.353 . S
C919 H960 0.929 . S
C920 C918 1.359 . S
C920 C922 1.358 . S
C920 H961 0.930 . S
C921 C919 1.353 . S
C921 N923 1.314 1_556 S
C921 H962 0.930 . S
C922 C920 1.358 . S
C922 N923 1.279 . S
C922 H963 0.930 . S
N923 C921 1.314 1_554 S
N923 C922 1.279 . S
C924 C926 1.353 . S
C924 N927 1.314 . S
C924 H930 0.930 . S
C925 N927 1.279 . S
C925 C928 1.358 . S
C925 H931 0.930 . S
C926 C924 1.353 . S
C926 C929 1.348 . S
C926 H964 0.929 . S
N927 Li882 1.990 . S
N927 C924 1.314 . S
N927 C925 1.279 . S
C928 C925 1.358 . S
C928 C929 1.356 . S
C928 H965 0.930 . S
C929 C926 1.348 . S
C929 C928 1.356 . S
H930 C924 0.930 . S
H931 C925 0.930 . S
C932 N933 1.314 . S
C932 C934 1.353 . S
C932 H938 0.930 . S
N933 Li883 1.991 . S
N933 C932 1.314 . S
N933 C936 1.279 1_554 S
C934 C932 1.353 . S
C934 C937 1.346 . S
C934 H966 0.929 . S
C935 C936 1.358 . S
C935 C937 1.357 1_556 S
C935 H967 0.930 . S
C936 N933 1.279 1_556 S
C936 C935 1.358 . S
C936 H939 0.930 . S
C937 C934 1.346 . S
C937 C935 1.357 1_554 S
H938 C932 0.930 . S
H939 C936 0.930 . S
O940 Li880 1.956 1_554 S
O940 Li881 1.981 . S
O940 Li882 1.950 1_554 S
O940 C884 1.325 . S
O941 Li880 1.962 1_554 S
O941 Li881 1.956 . S
O941 Li883 1.976 . S
O941 C890 1.325 . S
O942 Li880 1.969 . S
O942 Li882 1.956 . S
O942 Li883 1.955 1_556 S
O942 C912 1.325 . S
O943 Li881 1.957 1_556 S
O943 Li882 1.974 . S
O943 Li883 1.956 1_556 S
O943 C918 1.325 1_556 S
H944 C886 0.929 . S
H945 C887 0.930 . S
H946 C888 0.930 . S
H947 C889 0.930 . S
H948 C891 0.930 . S
H949 C893 0.929 . S
H950 C894 0.930 . S
H951 C895 0.930 . S
H952 C898 0.930 . S
H953 C901 0.929 . S
H954 C906 0.929 . S
H955 C907 0.930 . S
H956 C914 0.929 . S
H957 C915 0.930 . S
H958 C916 0.930 . S
H959 C917 0.930 . S
H960 C919 0.929 . S
H961 C920 0.930 . S
H962 C921 0.930 . S
H963 C922 0.930 . S
H964 C926 0.929 . S
H965 C928 0.930 . S
H966 C934 0.929 . S
H967 C935 0.930 . S
Li968 N985 1.990 . S
Li968 O1028 1.956 . S
Li968 O1029 1.981 . S
Li968 O1030 1.957 1_554 S
Li969 N993 1.991 . S
Li969 O1028 1.962 1_556 S
Li969 O1029 1.956 1_556 S
Li969 O1031 1.969 . S
Li970 N1015 1.991 . S
Li970 O1028 1.976 . S
Li970 O1030 1.956 1_554 S
Li970 O1031 1.955 1_554 S
Li971 N1021 1.990 . S
Li971 O1029 1.950 1_556 S
Li971 O1030 1.974 . S
Li971 O1031 1.956 . S
C972 C974 1.348 . S
C972 C975 1.356 . S
C972 O1028 1.325 . S
N973 C976 1.314 . S
N973 C977 1.279 . S
C974 C972 1.348 . S
C974 C976 1.353 . S
C974 H1032 0.929 . S
C975 C972 1.356 . S
C975 C977 1.358 . S
C975 H1033 0.930 . S
C976 N973 1.314 . S
C976 C974 1.353 . S
C976 H1034 0.930 . S
C977 N973 1.279 . S
C977 C975 1.358 . S
C977 H1035 0.930 . S
C978 C981 1.345 . S
C978 C982 1.359 1_554 S
C978 O1029 1.325 . S
C979 N980 1.279 . S
C979 C982 1.358 . S
C979 H1036 0.930 . S
N980 C979 1.279 . S
N980 C983 1.314 1_556 S
C981 C978 1.345 . S
C981 C983 1.353 . S
C981 H1037 0.929 . S
C982 C978 1.359 1_556 S
C982 C979 1.358 . S
C982 H1038 0.930 . S
C983 N980 1.314 1_554 S
C983 C981 1.353 . S
C983 H1039 0.930 . S
C984 N985 1.314 . S
C984 C989 1.353 . S
C984 H990 0.930 . S
N985 Li968 1.990 . S
N985 C984 1.314 . S
N985 C987 1.279 . S
C986 C987 1.358 . S
C986 C988 1.356 . S
C986 H1040 0.930 . S
C987 N985 1.279 . S
C987 C986 1.358 . S
C987 H991 0.930 . S
C988 C986 1.356 . S
C988 C989 1.348 . S
C989 C984 1.353 . S
C989 C988 1.348 . S
C989 H1041 0.929 . S
H990 C984 0.930 . S
H991 C987 0.930 . S
C992 N993 1.314 . S
C992 C994 1.353 . S
C992 H998 0.930 . S
N993 Li969 1.991 . S
N993 C992 1.314 . S
N993 C996 1.279 1_556 S
C994 C992 1.353 . S
C994 C997 1.346 1_556 S
C994 H1042 0.929 . S
C995 C996 1.358 . S
C995 C997 1.357 . S
C995 H1043 0.930 . S
C996 N993 1.279 1_554 S
C996 C995 1.358 . S
C996 H999 0.930 . S
C997 C994 1.346 1_554 S
C997 C995 1.357 . S
H998 C992 0.930 . S
H999 C996 0.930 . S
C1000 C1002 1.345 1_554 S
C1000 C1003 1.359 . S
C1000 O1030 1.325 1_554 S
N1001 C1004 1.314 1_554 S
N1001 C1005 1.279 . S
C1002 C1000 1.345 1_556 S
C1002 C1004 1.353 . S
C1002 H1044 0.929 . S
C1003 C1000 1.359 . S
C1003 C1005 1.358 . S
C1003 H1045 0.930 . S
C1004 N1001 1.314 1_556 S
C1004 C1002 1.353 . S
C1004 H1046 0.930 . S
C1005 N1001 1.279 . S
C1005 C1003 1.358 . S
C1005 H1047 0.930 . S
C1006 C1007 1.348 . S
C1006 C1008 1.356 . S
C1006 O1031 1.325 . S
C1007 C1006 1.348 . S
C1007 C1009 1.353 . S
C1007 H1048 0.929 . S
C1008 C1006 1.356 . S
C1008 C1010 1.358 . S
C1008 H1049 0.930 . S
C1009 C1007 1.353 . S
C1009 N1011 1.314 . S
C1009 H1050 0.930 . S
C1010 C1008 1.358 . S
C1010 N1011 1.279 . S
C1010 H1051 0.930 . S
N1011 C1009 1.314 . S
N1011 C1010 1.279 . S
C1012 C1014 1.353 . S
C1012 N1015 1.314 . S
C1012 H1018 0.930 . S
C1013 N1015 1.279 1_556 S
C1013 C1016 1.358 . S
C1013 H1019 0.930 . S
C1014 C1012 1.353 . S
C1014 C1017 1.346 . S
C1014 H1052 0.929 . S
N1015 Li970 1.991 . S
N1015 C1012 1.314 . S
N1015 C1013 1.279 1_554 S
C1016 C1013 1.358 . S
C1016 C1017 1.357 1_556 S
C1016 H1053 0.930 . S
C1017 C1014 1.346 . S
C1017 C1016 1.357 1_554 S
H1018 C1012 0.930 . S
H1019 C1013 0.930 . S
C1020 N1021 1.314 . S
C1020 C1022 1.353 . S
C1020 H1026 0.930 . S
N1021 Li971 1.990 . S
N1021 C1020 1.314 . S
N1021 C1024 1.279 . S
C1022 C1020 1.353 . S
C1022 C1025 1.348 . S
C1022 H1054 0.929 . S
C1023 C1024 1.358 . S
C1023 C1025 1.356 . S
C1023 H1055 0.930 . S
C1024 N1021 1.279 . S
C1024 C1023 1.358 . S
C1024 H1027 0.930 . S
C1025 C1022 1.348 . S
C1025 C1023 1.356 . S
H1026 C1020 0.930 . S
H1027 C1024 0.930 . S
O1028 Li968 1.956 . S
O1028 Li969 1.962 1_554 S
O1028 Li970 1.976 . S
O1028 C972 1.325 . S
O1029 Li968 1.981 . S
O1029 Li969 1.956 1_554 S
O1029 Li971 1.950 1_554 S
O1029 C978 1.325 . S
O1030 Li968 1.957 1_556 S
O1030 Li970 1.956 1_556 S
O1030 Li971 1.974 . S
O1030 C1000 1.325 1_556 S
O1031 Li969 1.969 . S
O1031 Li970 1.955 1_556 S
O1031 Li971 1.956 . S
O1031 C1006 1.325 . S
H1032 C974 0.929 . S
H1033 C975 0.930 . S
H1034 C976 0.930 . S
H1035 C977 0.930 . S
H1036 C979 0.930 . S
H1037 C981 0.929 . S
H1038 C982 0.930 . S
H1039 C983 0.930 . S
H1040 C986 0.930 . S
H1041 C989 0.929 . S
H1042 C994 0.929 . S
H1043 C995 0.930 . S
H1044 C1002 0.929 . S
H1045 C1003 0.930 . S
H1046 C1004 0.930 . S
H1047 C1005 0.930 . S
H1048 C1007 0.929 . S
H1049 C1008 0.930 . S
H1050 C1009 0.930 . S
H1051 C1010 0.930 . S
H1052 C1014 0.929 . S
H1053 C1016 0.930 . S
H1054 C1022 0.929 . S
H1055 C1023 0.930 . S
C1056 C1057 1.367 . S
C1056 C1062 1.379 . S
C1056 N1064 1.356 . S
C1057 C1056 1.367 . S
C1057 C1063 1.359 1_455 S
C1058 C1059 1.365 . S
C1058 C1063 1.379 . S
C1058 N1065 1.356 . S
C1059 C1058 1.365 . S
C1059 C1062 1.361 1_655 S
N1060 C1062 1.356 . S
N1060 H1072 0.984 . S
N1060 H1073 0.985 . S
N1061 C1063 1.356 . S
N1061 H1066 0.984 . S
N1061 H1067 0.985 . S
C1062 C1056 1.379 . S
C1062 C1059 1.361 1_455 S
C1062 N1060 1.356 . S
C1063 C1057 1.359 1_655 S
C1063 C1058 1.379 . S
C1063 N1061 1.356 . S
N1064 C1056 1.356 . S
N1064 H1070 0.984 . S
N1064 H1071 0.984 . S
N1065 C1058 1.356 . S
N1065 H1068 0.984 . S
N1065 H1069 0.985 . S
H1066 N1061 0.984 . S
H1067 N1061 0.985 . S
H1068 N1065 0.984 . S
H1069 N1065 0.985 . S
H1070 N1064 0.984 . S
H1071 N1064 0.984 . S
H1072 N1060 0.984 . S
H1073 N1060 0.985 . S
C1074 C1075 1.351 1_565 S
C1074 C1080 1.379 . S
C1074 N1082 1.356 . S
C1075 C1074 1.351 1_545 S
C1075 C1081 1.375 . S
C1076 C1077 1.358 1_545 S
C1076 C1081 1.379 . S
C1076 N1083 1.356 . S
C1077 C1076 1.358 1_565 S
C1077 C1080 1.368 . S
N1078 C1080 1.356 . S
N1078 H1090 0.984 . S
N1078 H1091 0.985 . S
N1079 C1081 1.356 . S
N1079 H1084 0.984 . S
N1079 H1085 0.985 . S
C1080 C1074 1.379 . S
C1080 C1077 1.368 . S
C1080 N1078 1.356 . S
C1081 C1075 1.375 . S
C1081 C1076 1.379 . S
C1081 N1079 1.356 . S
N1082 C1074 1.356 . S
N1082 H1088 0.984 . S
N1082 H1089 0.984 . S
N1083 C1076 1.356 . S
N1083 H1086 0.984 . S
N1083 H1087 0.985 . S
H1084 N1079 0.984 . S
H1085 N1079 0.985 . S
H1086 N1083 0.984 . S
H1087 N1083 0.985 . S
H1088 N1082 0.984 . S
H1089 N1082 0.984 . S
H1090 N1078 0.984 . S
H1091 N1078 0.985 . S
C1092 C1093 1.370 . S
C1092 C1098 1.379 . S
C1092 N1100 1.356 . S
C1093 C1092 1.370 . S
C1093 C1099 1.356 1_455 S
C1094 C1095 1.365 . S
C1094 C1099 1.379 . S
C1094 N1101 1.356 . S
C1095 C1094 1.365 . S
C1095 C1098 1.361 1_655 S
N1096 C1098 1.356 . S
N1096 H1108 0.984 . S
N1096 H1109 0.985 . S
N1097 C1099 1.356 . S
N1097 H1102 0.984 . S
N1097 H1103 0.985 . S
C1098 C1092 1.379 . S
C1098 C1095 1.361 1_455 S
C1098 N1096 1.356 . S
C1099 C1093 1.356 1_655 S
C1099 C1094 1.379 . S
C1099 N1097 1.356 . S
N1100 C1092 1.356 . S
N1100 H1106 0.984 . S
N1100 H1107 0.984 . S
N1101 C1094 1.356 . S
N1101 H1104 0.984 . S
N1101 H1105 0.985 . S
H1102 N1097 0.984 . S
H1103 N1097 0.985 . S
H1104 N1101 0.984 . S
H1105 N1101 0.985 . S
H1106 N1100 0.984 . S
H1107 N1100 0.984 . S
H1108 N1096 0.984 . S
H1109 N1096 0.985 . S
C1110 C1111 1.368 . S
C1110 C1116 1.379 . S
C1110 N1118 1.356 . S
C1111 C1110 1.368 . S
C1111 C1117 1.358 1_565 S
C1112 C1113 1.376 . S
C1112 C1117 1.379 . S
C1112 N1119 1.356 . S
C1113 C1112 1.376 . S
C1113 C1116 1.350 1_545 S
N1114 C1116 1.356 . S
N1114 H1126 0.984 . S
N1114 H1127 0.985 . S
N1115 C1117 1.356 . S
N1115 H1120 0.984 . S
N1115 H1121 0.985 . S
C1116 C1110 1.379 . S
C1116 C1113 1.350 1_565 S
C1116 N1114 1.356 . S
C1117 C1111 1.358 1_545 S
C1117 C1112 1.379 . S
C1117 N1115 1.356 . S
N1118 C1110 1.356 . S
N1118 H1124 0.984 . S
N1118 H1125 0.984 . S
N1119 C1112 1.356 . S
N1119 H1122 0.984 . S
N1119 H1123 0.985 . S
H1120 N1115 0.984 . S
H1121 N1115 0.985 . S
H1122 N1119 0.984 . S
H1123 N1119 0.985 . S
H1124 N1118 0.984 . S
H1125 N1118 0.984 . S
H1126 N1114 0.984 . S
H1127 N1114 0.985 . S
C1128 C1129 1.365 . S
C1128 C1134 1.379 . S
C1128 N1136 1.356 . S
C1129 C1128 1.365 . S
C1129 C1135 1.361 1_655 S
C1130 C1131 1.368 . S
C1130 C1135 1.379 . S
C1130 N1137 1.356 . S
C1131 C1130 1.368 . S
C1131 C1134 1.358 1_455 S
N1132 C1134 1.356 . S
N1132 H1144 0.984 . S
N1132 H1145 0.985 . S
N1133 C1135 1.356 . S
N1133 H1138 0.984 . S
N1133 H1139 0.985 . S
C1134 C1128 1.379 . S
C1134 C1131 1.358 1_655 S
C1134 N1132 1.356 . S
C1135 C1129 1.361 1_455 S
C1135 C1130 1.379 . S
C1135 N1133 1.356 . S
N1136 C1128 1.356 . S
N1136 H1142 0.984 . S
N1136 H1143 0.984 . S
N1137 C1130 1.356 . S
N1137 H1140 0.984 . S
N1137 H1141 0.985 . S
H1138 N1133 0.984 . S
H1139 N1133 0.985 . S
H1140 N1137 0.984 . S
H1141 N1137 0.985 . S
H1142 N1136 0.984 . S
H1143 N1136 0.984 . S
H1144 N1132 0.984 . S
H1145 N1132 0.985 . S
C1146 C1147 1.358 1_545 S
C1146 C1152 1.379 . S
C1146 N1154 1.356 . S
C1147 C1146 1.358 1_565 S
C1147 C1153 1.368 . S
C1148 C1149 1.351 1_565 S
C1148 C1153 1.379 . S
C1148 N1155 1.356 . S
C1149 C1148 1.351 1_545 S
C1149 C1152 1.375 . S
N1150 C1152 1.356 . S
N1150 H1162 0.984 . S
N1150 H1163 0.985 . S
N1151 C1153 1.356 . S
N1151 H1156 0.984 . S
N1151 H1157 0.985 . S
C1152 C1146 1.379 . S
C1152 C1149 1.375 . S
C1152 N1150 1.356 . S
C1153 C1147 1.368 . S
C1153 C1148 1.379 . S
C1153 N1151 1.356 . S
N1154 C1146 1.356 . S
N1154 H1160 0.984 . S
N1154 H1161 0.984 . S
N1155 C1148 1.356 . S
N1155 H1158 0.984 . S
N1155 H1159 0.985 . S
H1156 N1151 0.984 . S
H1157 N1151 0.985 . S
H1158 N1155 0.984 . S
H1159 N1155 0.985 . S
H1160 N1154 0.984 . S
H1161 N1154 0.984 . S
H1162 N1150 0.984 . S
H1163 N1150 0.985 . S
C1164 C1165 1.367 . S
C1164 C1170 1.379 . S
C1164 N1172 1.356 . S
C1165 C1164 1.367 . S
C1165 C1171 1.359 1_655 S
C1166 C1167 1.372 . S
C1166 C1171 1.379 . S
C1166 N1173 1.356 . S
C1167 C1166 1.372 . S
C1167 C1170 1.354 1_455 S
N1168 C1170 1.356 . S
N1168 H1180 0.984 . S
N1168 H1181 0.985 . S
N1169 C1171 1.356 . S
N1169 H1174 0.984 . S
N1169 H1175 0.985 . S
C1170 C1164 1.379 . S
C1170 C1167 1.354 1_655 S
C1170 N1168 1.356 . S
C1171 C1165 1.359 1_455 S
C1171 C1166 1.379 . S
C1171 N1169 1.356 . S
N1172 C1164 1.356 . S
N1172 H1178 0.984 . S
N1172 H1179 0.984 . S
N1173 C1166 1.356 . S
N1173 H1176 0.984 . S
N1173 H1177 0.985 . S
H1174 N1169 0.984 . S
H1175 N1169 0.985 . S
H1176 N1173 0.984 . S
H1177 N1173 0.985 . S
H1178 N1172 0.984 . S
H1179 N1172 0.984 . S
H1180 N1168 0.984 . S
H1181 N1168 0.985 . S
C1182 C1183 1.375 . S
C1182 C1188 1.379 . S
C1182 N1190 1.356 . S
C1183 C1182 1.375 . S
C1183 C1189 1.351 1_545 S
C1184 C1185 1.367 . S
C1184 C1189 1.379 . S
C1184 N1191 1.356 . S
C1185 C1184 1.367 . S
C1185 C1188 1.359 1_565 S
N1186 C1188 1.356 . S
N1186 H1198 0.984 . S
N1186 H1199 0.985 . S
N1187 C1189 1.356 . S
N1187 H1192 0.984 . S
N1187 H1193 0.985 . S
C1188 C1182 1.379 . S
C1188 C1185 1.359 1_545 S
C1188 N1186 1.356 . S
C1189 C1183 1.351 1_565 S
C1189 C1184 1.379 . S
C1189 N1187 1.356 . S
N1190 C1182 1.356 . S
N1190 H1196 0.984 . S
N1190 H1197 0.984 . S
N1191 C1184 1.356 . S
N1191 H1194 0.984 . S
N1191 H1195 0.985 . S
H1192 N1187 0.984 . S
H1193 N1187 0.985 . S
H1194 N1191 0.984 . S
H1195 N1191 0.985 . S
H1196 N1190 0.984 . S
H1197 N1190 0.984 . S
H1198 N1186 0.984 . S
H1199 N1186 0.985 . S
C1200 C1201 1.368 . S
C1200 C1206 1.379 . S
C1200 N1208 1.356 . S
C1201 C1200 1.368 . S
C1201 C1207 1.358 1_556 S
C1202 C1203 1.375 . S
C1202 C1207 1.379 . S
C1202 N1209 1.356 . S
C1203 C1202 1.375 . S
C1203 C1206 1.351 1_554 S
N1204 C1206 1.356 . S
N1204 H1216 0.984 . S
N1204 H1217 0.985 . S
N1205 C1207 1.356 . S
N1205 H1210 0.984 . S
N1205 H1211 0.985 . S
C1206 C1200 1.379 . S
C1206 C1203 1.351 1_556 S
C1206 N1204 1.356 . S
C1207 C1201 1.358 1_554 S
C1207 C1202 1.379 . S
C1207 N1205 1.356 . S
N1208 C1200 1.356 . S
N1208 H1214 0.984 . S
N1208 H1215 0.984 . S
N1209 C1202 1.356 . S
N1209 H1212 0.984 . S
N1209 H1213 0.985 . S
H1210 N1205 0.984 . S
H1211 N1205 0.985 . S
H1212 N1209 0.984 . S
H1213 N1209 0.985 . S
H1214 N1208 0.984 . S
H1215 N1208 0.984 . S
H1216 N1204 0.984 . S
H1217 N1204 0.985 . S
C1218 C1219 1.367 . S
C1218 C1224 1.379 . S
C1218 N1226 1.356 . S
C1219 C1218 1.367 . S
C1219 C1225 1.359 1_556 S
C1220 C1221 1.373 . S
C1220 C1225 1.379 . S
C1220 N1227 1.356 . S
C1221 C1220 1.373 . S
C1221 C1224 1.353 1_554 S
N1222 C1224 1.356 . S
N1222 H1234 0.984 . S
N1222 H1235 0.985 . S
N1223 C1225 1.356 . S
N1223 H1228 0.984 . S
N1223 H1229 0.985 . S
C1224 C1218 1.379 . S
C1224 C1221 1.353 1_556 S
C1224 N1222 1.356 . S
C1225 C1219 1.359 1_554 S
C1225 C1220 1.379 . S
C1225 N1223 1.356 . S
N1226 C1218 1.356 . S
N1226 H1232 0.984 . S
N1226 H1233 0.984 . S
N1227 C1220 1.356 . S
N1227 H1230 0.984 . S
N1227 H1231 0.985 . S
H1228 N1223 0.984 . S
H1229 N1223 0.985 . S
H1230 N1227 0.984 . S
H1231 N1227 0.985 . S
H1232 N1226 0.984 . S
H1233 N1226 0.984 . S
H1234 N1222 0.984 . S
H1235 N1222 0.985 . S
C1236 C1237 1.375 . S
C1236 C1242 1.379 . S
C1236 N1244 1.356 . S
C1237 C1236 1.375 . S
C1237 C1243 1.351 1_554 S
C1238 C1239 1.368 . S
C1238 C1243 1.379 . S
C1238 N1245 1.356 . S
C1239 C1238 1.368 . S
C1239 C1242 1.358 1_556 S
N1240 C1242 1.356 . S
N1240 H1252 0.984 . S
N1240 H1253 0.985 . S
N1241 C1243 1.356 . S
N1241 H1246 0.984 . S
N1241 H1247 0.985 . S
C1242 C1236 1.379 . S
C1242 C1239 1.358 1_554 S
C1242 N1240 1.356 . S
C1243 C1237 1.351 1_556 S
C1243 C1238 1.379 . S
C1243 N1241 1.356 . S
N1244 C1236 1.356 . S
N1244 H1250 0.984 . S
N1244 H1251 0.984 . S
N1245 C1238 1.356 . S
N1245 H1248 0.984 . S
N1245 H1249 0.985 . S
H1246 N1241 0.984 . S
H1247 N1241 0.985 . S
H1248 N1245 0.984 . S
H1249 N1245 0.985 . S
H1250 N1244 0.984 . S
H1251 N1244 0.984 . S
H1252 N1240 0.984 . S
H1253 N1240 0.985 . S
C1254 C1255 1.375 . S
C1254 C1260 1.379 . S
C1254 N1262 1.356 . S
C1255 C1254 1.375 . S
C1255 C1261 1.351 1_554 S
C1256 C1257 1.368 . S
C1256 C1261 1.379 . S
C1256 N1263 1.356 . S
C1257 C1256 1.368 . S
C1257 C1260 1.358 1_556 S
N1258 C1260 1.356 . S
N1258 H1270 0.984 . S
N1258 H1271 0.985 . S
N1259 C1261 1.356 . S
N1259 H1264 0.984 . S
N1259 H1265 0.985 . S
C1260 C1254 1.379 . S
C1260 C1257 1.358 1_554 S
C1260 N1258 1.356 . S
C1261 C1255 1.351 1_556 S
C1261 C1256 1.379 . S
C1261 N1259 1.356 . S
N1262 C1254 1.356 . S
N1262 H1268 0.984 . S
N1262 H1269 0.984 . S
N1263 C1256 1.356 . S
N1263 H1266 0.984 . S
N1263 H1267 0.985 . S
H1264 N1259 0.984 . S
H1265 N1259 0.985 . S
H1266 N1263 0.984 . S
H1267 N1263 0.985 . S
H1268 N1262 0.984 . S
H1269 N1262 0.984 . S
H1270 N1258 0.984 . S
H1271 N1258 0.985 . S
C1272 C1273 1.363 . S
C1272 C1278 1.379 . S
C1272 N1280 1.356 . S
C1273 C1272 1.363 . S
C1273 C1279 1.363 . S
C1274 C1275 1.363 . S
C1274 C1279 1.379 . S
C1274 N1281 1.356 . S
C1275 C1274 1.363 . S
C1275 C1278 1.363 . S
N1276 C1278 1.356 . S
N1276 H1288 0.984 . S
N1276 H1289 0.985 . S
N1277 C1279 1.356 . S
N1277 H1282 0.984 . S
N1277 H1283 0.985 . S
C1278 C1272 1.379 . S
C1278 C1275 1.363 . S
C1278 N1276 1.356 . S
C1279 C1273 1.363 . S
C1279 C1274 1.379 . S
C1279 N1277 1.356 . S
N1280 C1272 1.356 . S
N1280 H1286 0.984 . S
N1280 H1287 0.984 . S
N1281 C1274 1.356 . S
N1281 H1284 0.984 . S
N1281 H1285 0.985 . S
H1282 N1277 0.984 . S
H1283 N1277 0.985 . S
H1284 N1281 0.984 . S
H1285 N1281 0.985 . S
H1286 N1280 0.984 . S
H1287 N1280 0.984 . S
H1288 N1276 0.984 . S
H1289 N1276 0.985 . S
C1290 C1291 1.363 . S
C1290 C1296 1.379 . S
C1290 N1298 1.356 . S
C1291 C1290 1.363 . S
C1291 C1297 1.363 . S
C1292 C1293 1.363 . S
C1292 C1297 1.379 . S
C1292 N1299 1.356 . S
C1293 C1292 1.363 . S
C1293 C1296 1.363 . S
N1294 C1296 1.356 . S
N1294 H1306 0.984 . S
N1294 H1307 0.985 . S
N1295 C1297 1.356 . S
N1295 H1300 0.984 . S
N1295 H1301 0.985 . S
C1296 C1290 1.379 . S
C1296 C1293 1.363 . S
C1296 N1294 1.356 . S
C1297 C1291 1.363 . S
C1297 C1292 1.379 . S
C1297 N1295 1.356 . S
N1298 C1290 1.356 . S
N1298 H1304 0.984 . S
N1298 H1305 0.984 . S
N1299 C1292 1.356 . S
N1299 H1302 0.984 . S
N1299 H1303 0.985 . S
H1300 N1295 0.984 . S
H1301 N1295 0.985 . S
H1302 N1299 0.984 . S
H1303 N1299 0.985 . S
H1304 N1298 0.984 . S
H1305 N1298 0.984 . S
H1306 N1294 0.984 . S
H1307 N1294 0.985 . S
C1308 C1309 1.363 . S
C1308 C1314 1.379 . S
C1308 N1316 1.356 . S
C1309 C1308 1.363 . S
C1309 C1315 1.363 . S
C1310 C1311 1.363 . S
C1310 C1315 1.379 . S
C1310 N1317 1.356 . S
C1311 C1310 1.363 . S
C1311 C1314 1.363 . S
N1312 C1314 1.356 . S
N1312 H1324 0.984 . S
N1312 H1325 0.985 . S
N1313 C1315 1.356 . S
N1313 H1318 0.984 . S
N1313 H1319 0.985 . S
C1314 C1308 1.379 . S
C1314 C1311 1.363 . S
C1314 N1312 1.356 . S
C1315 C1309 1.363 . S
C1315 C1310 1.379 . S
C1315 N1313 1.356 . S
N1316 C1308 1.356 . S
N1316 H1322 0.984 . S
N1316 H1323 0.984 . S
N1317 C1310 1.356 . S
N1317 H1320 0.984 . S
N1317 H1321 0.985 . S
H1318 N1313 0.984 . S
H1319 N1313 0.985 . S
H1320 N1317 0.984 . S
H1321 N1317 0.985 . S
H1322 N1316 0.984 . S
H1323 N1316 0.984 . S
H1324 N1312 0.984 . S
H1325 N1312 0.985 . S
C1326 C1327 1.363 . S
C1326 C1332 1.379 . S
C1326 N1334 1.356 . S
C1327 C1326 1.363 . S
C1327 C1333 1.363 . S
C1328 C1329 1.363 . S
C1328 C1333 1.379 . S
C1328 N1335 1.356 . S
C1329 C1328 1.363 . S
C1329 C1332 1.363 . S
N1330 C1332 1.356 . S
N1330 H1342 0.984 . S
N1330 H1343 0.985 . S
N1331 C1333 1.356 . S
N1331 H1336 0.984 . S
N1331 H1337 0.985 . S
C1332 C1326 1.379 . S
C1332 C1329 1.363 . S
C1332 N1330 1.356 . S
C1333 C1327 1.363 . S
C1333 C1328 1.379 . S
C1333 N1331 1.356 . S
N1334 C1326 1.356 . S
N1334 H1340 0.984 . S
N1334 H1341 0.984 . S
N1335 C1328 1.356 . S
N1335 H1338 0.984 . S
N1335 H1339 0.985 . S
H1336 N1331 0.984 . S
H1337 N1331 0.985 . S
H1338 N1335 0.984 . S
H1339 N1335 0.985 . S
H1340 N1334 0.984 . S
H1341 N1334 0.984 . S
H1342 N1330 0.984 . S
H1343 N1330 0.985 . S
C1344 C1345 1.363 . S
C1344 C1350 1.379 . S
C1344 N1352 1.356 . S
C1345 C1344 1.363 . S
C1345 C1351 1.363 . S
C1346 C1347 1.363 . S
C1346 C1351 1.379 . S
C1346 N1353 1.356 . S
C1347 C1346 1.363 . S
C1347 C1350 1.363 . S
N1348 C1350 1.356 . S
N1348 H1360 0.984 . S
N1348 H1361 0.985 . S
N1349 C1351 1.356 . S
N1349 H1354 0.984 . S
N1349 H1355 0.985 . S
C1350 C1344 1.379 . S
C1350 C1347 1.363 . S
C1350 N1348 1.356 . S
C1351 C1345 1.363 . S
C1351 C1346 1.379 . S
C1351 N1349 1.356 . S
N1352 C1344 1.356 . S
N1352 H1358 0.984 . S
N1352 H1359 0.984 . S
N1353 C1346 1.356 . S
N1353 H1356 0.984 . S
N1353 H1357 0.985 . S
H1354 N1349 0.984 . S
H1355 N1349 0.985 . S
H1356 N1353 0.984 . S
H1357 N1353 0.985 . S
H1358 N1352 0.984 . S
H1359 N1352 0.984 . S
H1360 N1348 0.984 . S
H1361 N1348 0.985 . S
C1362 C1363 1.363 . S
C1362 C1368 1.379 . S
C1362 N1370 1.356 . S
C1363 C1362 1.363 . S
C1363 C1369 1.363 . S
C1364 C1365 1.363 . S
C1364 C1369 1.379 . S
C1364 N1371 1.356 . S
C1365 C1364 1.363 . S
C1365 C1368 1.363 . S
N1366 C1368 1.356 . S
N1366 H1378 0.984 . S
N1366 H1379 0.985 . S
N1367 C1369 1.356 . S
N1367 H1372 0.984 . S
N1367 H1373 0.985 . S
C1368 C1362 1.379 . S
C1368 C1365 1.363 . S
C1368 N1366 1.356 . S
C1369 C1363 1.363 . S
C1369 C1364 1.379 . S
C1369 N1367 1.356 . S
N1370 C1362 1.356 . S
N1370 H1376 0.984 . S
N1370 H1377 0.984 . S
N1371 C1364 1.356 . S
N1371 H1374 0.984 . S
N1371 H1375 0.985 . S
H1372 N1367 0.984 . S
H1373 N1367 0.985 . S
H1374 N1371 0.984 . S
H1375 N1371 0.985 . S
H1376 N1370 0.984 . S
H1377 N1370 0.984 . S
H1378 N1366 0.984 . S
H1379 N1366 0.985 . S
C1380 C1381 1.363 . S
C1380 C1386 1.379 . S
C1380 N1388 1.356 . S
C1381 C1380 1.363 . S
C1381 C1387 1.363 . S
C1382 C1383 1.363 . S
C1382 C1387 1.379 . S
C1382 N1389 1.356 . S
C1383 C1382 1.363 . S
C1383 C1386 1.363 . S
N1384 C1386 1.356 . S
N1384 H1396 0.984 . S
N1384 H1397 0.985 . S
N1385 C1387 1.356 . S
N1385 H1390 0.984 . S
N1385 H1391 0.985 . S
C1386 C1380 1.379 . S
C1386 C1383 1.363 . S
C1386 N1384 1.356 . S
C1387 C1381 1.363 . S
C1387 C1382 1.379 . S
C1387 N1385 1.356 . S
N1388 C1380 1.356 . S
N1388 H1394 0.984 . S
N1388 H1395 0.984 . S
N1389 C1382 1.356 . S
N1389 H1392 0.984 . S
N1389 H1393 0.985 . S
H1390 N1385 0.984 . S
H1391 N1385 0.985 . S
H1392 N1389 0.984 . S
H1393 N1389 0.985 . S
H1394 N1388 0.984 . S
H1395 N1388 0.984 . S
H1396 N1384 0.984 . S
H1397 N1384 0.985 . S
C1398 C1399 1.363 . S
C1398 C1404 1.379 . S
C1398 N1406 1.356 . S
C1399 C1398 1.363 . S
C1399 C1405 1.363 . S
C1400 C1401 1.363 . S
C1400 C1405 1.379 . S
C1400 N1407 1.356 . S
C1401 C1400 1.363 . S
C1401 C1404 1.363 . S
N1402 C1404 1.356 . S
N1402 H1414 0.984 . S
N1402 H1415 0.985 . S
N1403 C1405 1.356 . S
N1403 H1408 0.984 . S
N1403 H1409 0.985 . S
C1404 C1398 1.379 . S
C1404 C1401 1.363 . S
C1404 N1402 1.356 . S
C1405 C1399 1.363 . S
C1405 C1400 1.379 . S
C1405 N1403 1.356 . S
N1406 C1398 1.356 . S
N1406 H1412 0.984 . S
N1406 H1413 0.984 . S
N1407 C1400 1.356 . S
N1407 H1410 0.984 . S
N1407 H1411 0.985 . S
H1408 N1403 0.984 . S
H1409 N1403 0.985 . S
H1410 N1407 0.984 . S
H1411 N1407 0.985 . S
H1412 N1406 0.984 . S
H1413 N1406 0.984 . S
H1414 N1402 0.984 . S
H1415 N1402 0.985 . S
C1416 C1417 1.363 . S
C1416 C1422 1.379 . S
C1416 N1424 1.356 . S
C1417 C1416 1.363 . S
C1417 C1423 1.363 . S
C1418 C1419 1.363 . S
C1418 C1423 1.379 . S
C1418 N1425 1.356 . S
C1419 C1418 1.363 . S
C1419 C1422 1.363 . S
N1420 C1422 1.356 . S
N1420 H1432 0.984 . S
N1420 H1433 0.985 . S
N1421 C1423 1.356 . S
N1421 H1426 0.984 . S
N1421 H1427 0.985 . S
C1422 C1416 1.379 . S
C1422 C1419 1.363 . S
C1422 N1420 1.356 . S
C1423 C1417 1.363 . S
C1423 C1418 1.379 . S
C1423 N1421 1.356 . S
N1424 C1416 1.356 . S
N1424 H1430 0.984 . S
N1424 H1431 0.984 . S
N1425 C1418 1.356 . S
N1425 H1428 0.984 . S
N1425 H1429 0.985 . S
H1426 N1421 0.984 . S
H1427 N1421 0.985 . S
H1428 N1425 0.984 . S
H1429 N1425 0.985 . S
H1430 N1424 0.984 . S
H1431 N1424 0.984 . S
H1432 N1420 0.984 . S
H1433 N1420 0.985 . S
C1434 C1435 1.363 . S
C1434 C1440 1.379 . S
C1434 N1442 1.356 . S
C1435 C1434 1.363 . S
C1435 C1441 1.363 . S
C1436 C1437 1.363 . S
C1436 C1441 1.379 . S
C1436 N1443 1.356 . S
C1437 C1436 1.363 . S
C1437 C1440 1.363 . S
N1438 C1440 1.356 . S
N1438 H1450 0.984 . S
N1438 H1451 0.985 . S
N1439 C1441 1.356 . S
N1439 H1444 0.984 . S
N1439 H1445 0.985 . S
C1440 C1434 1.379 . S
C1440 C1437 1.363 . S
C1440 N1438 1.356 . S
C1441 C1435 1.363 . S
C1441 C1436 1.379 . S
C1441 N1439 1.356 . S
N1442 C1434 1.356 . S
N1442 H1448 0.984 . S
N1442 H1449 0.984 . S
N1443 C1436 1.356 . S
N1443 H1446 0.984 . S
N1443 H1447 0.985 . S
H1444 N1439 0.984 . S
H1445 N1439 0.985 . S
H1446 N1443 0.984 . S
H1447 N1443 0.985 . S
H1448 N1442 0.984 . S
H1449 N1442 0.984 . S
H1450 N1438 0.984 . S
H1451 N1438 0.985 . S
C1452 C1453 1.363 . S
C1452 C1458 1.379 . S
C1452 N1460 1.356 . S
C1453 C1452 1.363 . S
C1453 C1459 1.363 . S
C1454 C1455 1.363 . S
C1454 C1459 1.379 . S
C1454 N1461 1.356 . S
C1455 C1454 1.363 . S
C1455 C1458 1.363 . S
N1456 C1458 1.356 . S
N1456 H1468 0.984 . S
N1456 H1469 0.985 . S
N1457 C1459 1.356 . S
N1457 H1462 0.984 . S
N1457 H1463 0.985 . S
C1458 C1452 1.379 . S
C1458 C1455 1.363 . S
C1458 N1456 1.356 . S
C1459 C1453 1.363 . S
C1459 C1454 1.379 . S
C1459 N1457 1.356 . S
N1460 C1452 1.356 . S
N1460 H1466 0.984 . S
N1460 H1467 0.984 . S
N1461 C1454 1.356 . S
N1461 H1464 0.984 . S
N1461 H1465 0.985 . S
H1462 N1457 0.984 . S
H1463 N1457 0.985 . S
H1464 N1461 0.984 . S
H1465 N1461 0.985 . S
H1466 N1460 0.984 . S
H1467 N1460 0.984 . S
H1468 N1456 0.984 . S
H1469 N1456 0.985 . S
C1470 C1471 1.363 . S
C1470 C1476 1.379 . S
C1470 N1478 1.356 . S
C1471 C1470 1.363 . S
C1471 C1477 1.363 . S
C1472 C1473 1.363 . S
C1472 C1477 1.379 . S
C1472 N1479 1.356 . S
C1473 C1472 1.363 . S
C1473 C1476 1.363 . S
N1474 C1476 1.356 . S
N1474 H1486 0.984 . S
N1474 H1487 0.985 . S
N1475 C1477 1.356 . S
N1475 H1480 0.984 . S
N1475 H1481 0.985 . S
C1476 C1470 1.379 . S
C1476 C1473 1.363 . S
C1476 N1474 1.356 . S
C1477 C1471 1.363 . S
C1477 C1472 1.379 . S
C1477 N1475 1.356 . S
N1478 C1470 1.356 . S
N1478 H1484 0.984 . S
N1478 H1485 0.984 . S
N1479 C1472 1.356 . S
N1479 H1482 0.984 . S
N1479 H1483 0.985 . S
H1480 N1475 0.984 . S
H1481 N1475 0.985 . S
H1482 N1479 0.984 . S
H1483 N1479 0.985 . S
H1484 N1478 0.984 . S
H1485 N1478 0.984 . S
H1486 N1474 0.984 . S
H1487 N1474 0.985 . S
C1057 C49 1.285 . S
C1059 C469 1.286 1_655 S
C1075 C145 1.286 . S
C1077 C401 1.286 1_565 S
C1093 C489 1.286 . S
C1095 C225 1.286 1_655 S
C1111 C313 1.286 1_565 S
C1113 C381 1.285 . S
C1129 C636 1.286 1_655 S
C1131 C205 1.285 . S
C1147 C548 1.286 1_565 S
C1149 C293 1.286 . S
C1165 C29 1.286 1_655 S
C1167 C673 1.286 . S
C1183 C585 1.285 . S
C1185 C108 1.286 1_565 S
C1201 C849 1.286 1_556 S
C1203 C733 1.285 . S
C1219 C753 1.286 1_556 S
C1221 C997 1.286 . S
C1237 C812 1.286 . S
C1239 C937 1.286 1_556 S
C1255 C900 1.285 . S
C1257 C1017 1.286 1_556 S
C1273 C1025 1.286 . S
C1275 C557 1.289 . S
C1291 C761 1.286 . S
C1293 C665 1.286 . S
C1309 C577 1.286 . S
C1311 C841 1.286 . S
C1327 C645 1.286 . S
C1329 C929 1.289 . S
C1345 C372 1.286 . S
C1347 C821 1.282 . S
C1363 C460 1.286 . S
C1365 C909 1.285 . S
C1381 C988 1.286 . S
C1383 C409 1.285 . S
C1399 C724 1.286 . S
C1401 C497 1.282 . S
C1417 C117 1.286 . S
C1419 C233 1.288 . S
C1435 C20 1.286 . S
C1437 C137 1.285 . S
C1453 C196 1.286 . S
C1455 C321 1.286 . S
C1471 C57 1.286 . S
C1473 C284 1.283 . S
