# Generated by pormake.
# Topology uon, (4)-cn, num edge types: 1
# Building blocks:
#     Node 0, Type 0, BuildingBlock: ESEHIV_clean_sbu_0, # of connection points: 4
#     Node 1, Type 0, BuildingBlock: ESEHIV_clean_sbu_0, # of connection points: 4
#     Node 2, Type 0, BuildingBlock: ESEHIV_clean_sbu_0, # of connection points: 4
#     Node 3, Type 0, BuildingBlock: ESEHIV_clean_sbu_0, # of connection points: 4
#     Node 4, Type 0, BuildingBlock: ESEHIV_clean_sbu_0, # of connection points: 4
#     Node 5, Type 0, BuildingBlock: ESEHIV_clean_sbu_0, # of connection points: 4
#     Edge 6, Type (0, 0), BuildingBlock: CIFDUS_clean_linker_0, # of connection points: 2
#     Edge 7, Type (0, 0), BuildingBlock: CIFDUS_clean_linker_0, # of connection points: 2
#     Edge 8, Type (0, 0), BuildingBlock: CIFDUS_clean_linker_0, # of connection points: 2
#     Edge 9, Type (0, 0), BuildingBlock: CIFDUS_clean_linker_0, # of connection points: 2
#     Edge 10, Type (0, 0), BuildingBlock: CIFDUS_clean_linker_0, # of connection points: 2
#     Edge 11, Type (0, 0), BuildingBlock: CIFDUS_clean_linker_0, # of connection points: 2
#     Edge 12, Type (0, 0), BuildingBlock: CIFDUS_clean_linker_0, # of connection points: 2
#     Edge 13, Type (0, 0), BuildingBlock: CIFDUS_clean_linker_0, # of connection points: 2
#     Edge 14, Type (0, 0), BuildingBlock: CIFDUS_clean_linker_0, # of connection points: 2
#     Edge 15, Type (0, 0), BuildingBlock: CIFDUS_clean_linker_0, # of connection points: 2
#     Edge 16, Type (0, 0), BuildingBlock: CIFDUS_clean_linker_0, # of connection points: 2
#     Edge 17, Type (0, 0), BuildingBlock: CIFDUS_clean_linker_0, # of connection points: 2
# Relax obj value: 0.074
# Max RMSD: 0.074
# Mean RMSD: 0.074
data_MOF--net-uon--node1-ESEHIV_clean_sbu_0--edge1-CIFDUS_clean_linker_0
_symmetry_space_group_name_H-M    P1
_symmetry_Int_Tables_number       1
_symmetry_cell_setting            triclinic
loop_
_symmetry_equiv_pos_as_xyz
'x, y, z'
_cell_length_a     30.415845
_cell_length_b     30.608511
_cell_length_c     23.700165
_cell_angle_alpha  90.431035
_cell_angle_beta   88.141614
_cell_angle_gamma 119.71236
loop_
_atom_site_label
_atom_site_type_symbol
_atom_site_fract_x
_atom_site_fract_y
_atom_site_fract_z
_atom_type_partial_charge
Cu0 Cu 0.26804 0.4604 0.08792 0.0
N1 N 0.33383 0.51176 0.06856 0.0
N2 N 0.39603 0.57036 1.01304 0.0
C3 C 0.34639 0.53532 1.01797 0.0
C4 C 0.41538 0.56876 0.06307 0.0
C5 C 0.37695 0.53253 0.09718 0.0
O6 O 0.25323 0.40609 1.03431 0.0
C7 C 0.2377 0.52353 0.12756 0.0
O8 O 0.27993 0.53645 0.15345 0.0
H9 H 0.31914 0.52684 0.98554 0.0
H10 H 0.38036 0.52201 0.13956 0.0
N11 N 0.25764 0.43437 0.16185 0.0
N12 N 0.21232 0.40037 0.24181 0.0
C13 C 0.21236 0.41643 0.18909 0.0
C14 C 0.28768 0.42948 0.19889 0.0
C15 C 0.2595 0.40789 0.24823 0.0
C16 C 0.27547 0.3808 0.0432 0.0
O17 O 0.30339 0.39133 0.08777 0.0
H18 H 0.17964 0.41474 0.17015 0.0
H19 H 0.32704 0.44056 0.19073 0.0
O20 O 0.22433 0.49043 0.08897 0.0
H21 H 0.45466 0.59131 0.074 0.0
H22 H 0.27275 0.39899 0.28594 0.0
Cu23 Cu 0.83559 0.25106 0.38678 0.0
N24 N 0.81598 0.2699 0.32121 0.0
N25 N 0.81014 0.32011 0.2571 0.0
C26 C 0.82682 0.31711 0.30835 0.0
C27 C 0.78786 0.2728 0.23695 0.0
C28 C 0.79139 0.2419 0.27663 0.0
O29 O 0.9087 0.29642 0.38901 0.0
C30 C 0.8026 0.25289 0.50175 0.0
O31 O 0.84174 0.24892 0.51658 0.0
H32 H 0.84746 0.34882 0.33577 0.0
H33 H 0.77711 0.2019 0.27304 0.0
N34 N 0.82088 0.18395 0.38292 0.0
N35 N 0.79961 0.10527 0.40809 0.0
C36 C 0.80266 0.14904 0.42475 0.0
C37 C 0.82945 0.16152 0.3383 0.0
C38 C 0.81627 0.11312 0.35354 0.0
C39 C 0.9416 0.28253 0.39405 0.0
O40 O 0.92659 0.23567 0.40808 0.0
H41 H 0.79325 0.1561 0.46695 0.0
H42 H 0.84509 0.17948 0.29779 0.0
O43 O 0.79608 0.25687 0.44966 0.0
H44 H 0.76967 0.26119 0.19681 0.0
H45 H 0.81887 0.08591 0.3263 0.0
Cu46 Cu 0.59774 0.77081 0.65234 0.0
N47 N 0.55302 0.75059 0.59283 0.0
N48 N 0.49336 0.749 0.53851 0.0
C49 C 0.51305 0.75805 0.59044 0.0
C50 C 0.52214 0.73518 0.50702 0.0
C51 C 0.55901 0.73641 0.54055 0.0
O52 O 0.64043 0.84336 0.64136 0.0
C53 C 0.57736 0.76155 0.77168 0.0
O54 O 0.62582 0.7943 0.77503 0.0
H55 H 0.50081 0.77304 0.62521 0.0
H56 H 0.58968 0.73013 0.52688 0.0
N57 N 0.63731 0.73939 0.65007 0.0
N58 N 0.69522 0.71893 0.67554 0.0
C59 C 0.67874 0.75258 0.68035 0.0
C60 C 0.62716 0.69593 0.62504 0.0
C61 C 0.66284 0.6833 0.64048 0.0
C62 C 0.67146 0.85721 0.59898 0.0
O63 O 0.67629 0.82267 0.57067 0.0
H64 H 0.69475 0.78487 0.70776 0.0
H65 H 0.59485 0.6738 0.59933 0.0
O66 O 0.55795 0.74981 0.72325 0.0
H67 H 0.51776 0.72613 0.4626 0.0
H68 H 0.66394 0.64978 0.62793 0.0
Cu69 Cu 0.83335 0.61139 0.98732 0.0
N70 N 0.7655 0.5947 0.98822 0.0
N71 N 0.68646 0.5466 0.95963 0.0
C72 C 0.72716 0.54746 0.98181 0.0
C73 C 0.69933 0.59508 0.95188 0.0
C74 C 0.74811 0.62473 0.96978 0.0
O75 O 0.8508 0.62545 0.9074 0.0
C76 C 0.82834 0.54405 0.06899 0.0
O77 O 0.81808 0.5735 0.10067 0.0
H78 H 0.73128 0.5145 0.98643 0.0
H79 H 0.77122 0.66493 0.96345 0.0
N80 N 0.87188 0.66793 1.03159 0.0
N81 N 0.93682 0.72977 0.07655 0.0
C82 C 0.92175 0.68988 0.0418 0.0
C83 C 0.85474 0.69447 0.06103 0.0
C84 C 0.89454 0.73253 0.08867 0.0
C85 C 0.85952 0.66789 0.88816 0.0
O86 O 0.87525 0.70591 0.92302 0.0
H87 H 0.94634 0.67686 1.0239 0.0
H88 H 0.81582 0.68628 0.06287 0.0
O89 O 0.83728 0.55384 1.01628 0.0
H90 H 0.67661 0.60792 0.93097 0.0
H91 H 0.89206 0.7593 0.11678 0.0
Cu92 Cu 0.22601 0.81778 0.33097 0.0
N93 N 0.17274 0.75196 0.34024 0.0
N94 N 0.14151 0.67187 0.31378 0.0
C95 C 0.18083 0.71259 0.33611 0.0
C96 C 0.10673 0.6857 0.30392 0.0
C97 C 0.12593 0.73503 0.3207 0.0
O98 O 0.21887 0.83074 0.25242 0.0
C99 C 0.29164 0.80428 0.39633 0.0
O100 O 0.25503 0.79563 0.43335 0.0
H101 H 0.2178 0.71615 0.34032 0.0
H102 H 0.11017 0.75888 0.31118 0.0
N103 N 0.22197 0.86391 0.38065 0.0
N104 N 0.24837 0.92957 0.43891 0.0
C105 C 0.2621 0.90288 0.40419 0.0
C106 C 0.18119 0.86584 0.40132 0.0
C107 C 0.19743 0.90656 0.43706 0.0
C108 C 0.19285 0.85125 0.23968 0.0
O109 O 0.18785 0.88081 0.27659 0.0
H110 H 0.30075 0.91113 0.39642 0.0
H111 H 0.14243 0.83926 0.39149 0.0
O112 O 0.28799 0.81626 0.34596 0.0
H113 H 0.0725 0.66368 0.28089 0.0
H114 H 0.17355 0.91722 0.46141 0.0
Cu115 Cu 0.44067 0.22737 0.72799 0.0
N116 N 0.49239 0.21069 0.72498 0.0
N117 N 0.55992 0.20895 0.68699 0.0
C118 C 0.52433 0.22236 0.67986 0.0
C119 C 0.55 0.18801 0.73915 0.0
C120 C 0.50817 0.18903 0.7625 0.0
O121 O 0.40187 0.19791 0.66007 0.0
C122 C 0.49711 0.30998 0.78724 0.0
O123 O 0.49267 0.27221 0.81767 0.0
H124 H 0.52196 0.24149 0.64286 0.0
H125 H 0.491 0.17553 0.80399 0.0
N126 N 0.39506 0.20194 0.79023 0.0
N127 N 0.34716 0.20533 0.86212 0.0
C128 C 0.37301 0.22692 0.81351 0.0
C129 C 0.38215 0.16246 0.82476 0.0
C130 C 0.35269 0.16454 0.86929 0.0
C131 C 0.38816 0.15123 0.65622 0.0
O132 O 0.39928 0.13 0.69714 0.0
H133 H 0.37899 0.26241 0.79704 0.0
H134 H 0.39503 0.13545 0.8194 0.0
O135 O 0.47642 0.3003 0.73921 0.0
H136 H 0.57114 0.17275 0.7589 0.0
H137 H 0.33804 0.13898 0.90511 0.0
H138 H 0.29412 0.30521 0.06483 0.0
H139 H 0.25899 0.37475 0.92917 0.0
H140 H 0.27476 0.32325 0.86047 0.0
H141 H 0.30648 0.26413 0.8389 0.0
H142 H 0.34205 0.19613 0.97597 0.0
H143 H 0.3175 0.24079 0.04414 0.0
C144 C 0.28923 0.30868 1.02025 0.0
C145 C 0.27585 0.34413 1.00209 0.0
C146 C 0.29876 0.27937 0.98123 0.0
C147 C 0.2691 0.34769 0.94429 0.0
C148 C 0.27851 0.3185 0.905 0.0
C149 C 0.30855 0.25888 0.8837 0.0
C150 C 0.32661 0.22703 0.90211 0.0
C151 C 0.29466 0.28515 0.92291 0.0
C152 C 0.32809 0.21997 0.96041 0.0
C153 C 0.31437 0.24586 0.99952 0.0
H154 H 1.02153 0.26515 0.39652 0.0
H155 H 0.98118 0.37503 0.34352 0.0
H156 H 0.06345 0.42327 0.29492 0.0
H157 H 0.14341 0.42989 0.25935 0.0
H158 H 0.18487 0.32128 0.31229 0.0
H159 H 0.10596 0.27715 0.36944 0.0
C160 C 1.03096 0.30004 0.3751 0.0
C161 C 0.99472 0.31596 0.37327 0.0
C162 C 0.07843 0.3276 0.34673 0.0
C163 C 1.008 0.36158 0.34559 0.0
C164 C 0.05505 0.38916 0.31744 0.0
C165 C 0.13525 0.39679 0.28383 0.0
C166 C 0.16948 0.3784 0.28112 0.0
C167 C 0.08993 0.37178 0.3164 0.0
C168 C 0.15908 0.33608 0.31382 0.0
C169 C 0.11385 0.31075 0.34618 0.0
H170 H 0.7375 0.0741 0.50206 0.0
H171 H 0.82692 0.03436 0.39032 0.0
H172 H 0.79765 0.95613 0.4422 0.0
H173 H 0.74398 0.8969 0.51596 0.0
H174 H 0.654 0.93463 0.62896 0.0
H175 H 0.68732 1.01621 0.58099 0.0
C176 C 0.75107 0.04866 0.48942 0.0
C177 C 0.7839 0.06015 0.44148 0.0
C178 C 0.73417 1.00335 0.51987 0.0
C179 C 0.80077 0.02632 0.42589 0.0
C180 C 0.78435 0.98156 0.45592 0.0
C181 C 0.73188 0.92305 0.53061 0.0
C182 C 0.69625 0.90939 0.57587 0.0
C183 C 0.75056 0.96937 0.50241 0.0
C184 C 0.68144 0.9441 0.59435 0.0
C185 C 0.70026 0.99067 0.56665 0.0
H186 H 0.86758 0.75078 0.83705 0.0
H187 H 0.79359 0.58914 0.8234 0.0
H188 H 0.73805 0.59113 0.75263 0.0
H189 H 0.7038 0.63772 0.70347 0.0
H190 H 0.77709 0.79921 0.71857 0.0
H191 H 0.83911 0.79811 0.7803 0.0
C192 C 0.84005 0.71602 0.81775 0.0
C193 C 0.83475 0.66989 0.83595 0.0
C194 C 0.80733 0.71728 0.77807 0.0
C195 C 0.79887 0.62528 0.81021 0.0
C196 C 0.76665 0.62632 0.77004 0.0
C197 C 0.73385 0.67284 0.71923 0.0
C198 C 0.73507 0.71845 0.70684 0.0
C199 C 0.7695 0.67196 0.75496 0.0
C200 C 0.77434 0.76344 0.72828 0.0
C201 C 0.81011 0.76289 0.76337 0.0
H202 H 1.01175 0.70704 0.08886 0.0
H203 H 0.97493 0.82523 0.11388 0.0
H204 H 0.05451 0.87611 0.16056 0.0
H205 H 0.13076 0.8841 0.2021 0.0
H206 H 0.16807 0.76617 0.17815 0.0
H207 H 0.09324 0.71921 0.12172 0.0
C208 C 1.02144 0.74424 0.10356 0.0
C209 C 0.98658 0.76164 0.09865 0.0
C210 C 0.06764 0.77362 0.1305 0.0
C211 C 1.00011 0.81008 0.11828 0.0
C212 C 0.04593 0.8395 0.14469 0.0
C213 C 0.12318 0.84861 0.1836 0.0
C214 C 0.15501 0.82874 0.19481 0.0
C215 C 0.07942 0.82119 0.15223 0.0
C216 C 0.14453 0.78269 0.17017 0.0
C217 C 0.10133 0.75546 0.13828 0.0
H218 H 0.40198 0.07834 0.61154 0.0
H219 H 0.31506 0.15317 0.59177 0.0
H220 H 0.26362 0.0908 0.52099 0.0
H221 H 0.24006 1.01084 0.46975 0.0
H222 H 0.33011 0.9392 0.49048 0.0
H223 H 0.38367 1.0044 0.55583 0.0
C224 C 0.37208 0.08136 0.5913 0.0
C225 C 0.36198 0.11997 0.60708 0.0
C226 C 0.34301 0.0456 0.55117 0.0
C227 C 0.32365 0.12388 0.58006 0.0
C228 C 0.29404 0.08796 0.54001 0.0
C229 C 0.27152 1.00977 0.48858 0.0
C230 C 0.28095 0.97003 0.47539 0.0
C231 C 0.30271 0.04796 0.52609 0.0
C232 C 0.32226 0.96945 0.49946 0.0
C233 C 0.3528 1.00663 0.53706 0.0
H234 H 0.12703 0.64213 0.20518 0.0
H235 H 0.16767 0.61196 0.36678 0.0
H236 H 0.19401 0.55572 0.32262 0.0
H237 H 0.21759 0.52635 0.23725 0.0
H238 H 0.18225 0.55898 0.07382 0.0
H239 H 0.14084 0.60254 0.11908 0.0
C240 C 0.14011 0.62182 0.23067 0.0
C241 C 0.14534 0.63076 0.2892 0.0
C242 C 0.15686 0.59091 0.20447 0.0
C243 C 0.16326 0.60524 0.32184 0.0
C244 C 0.17859 0.5735 0.29653 0.0
C245 C 0.20001 0.54229 0.21155 0.0
C246 C 0.20345 0.54028 0.15241 0.0
C247 C 0.17747 0.56777 0.23775 0.0
C248 C 0.17999 0.56022 0.11946 0.0
C249 C 0.15672 0.58537 0.14538 0.0
H250 H 0.65193 0.22016 0.70926 0.0
H251 H 0.55802 0.21394 0.57331 0.0
H252 H 0.6256 0.22948 0.50476 0.0
H253 H 0.71087 0.24405 0.48264 0.0
H254 H 0.80506 0.24802 0.61712 0.0
H255 H 0.73802 0.23411 0.68669 0.0
C256 C 0.64612 0.22179 0.66464 0.0
C257 C 0.59985 0.21623 0.64676 0.0
C258 C 0.68533 0.23055 0.62502 0.0
C259 C 0.59334 0.21895 0.58862 0.0
C260 C 0.63197 0.22761 0.54919 0.0
C261 C 0.71703 0.24223 0.52718 0.0
C262 C 0.76318 0.24731 0.54448 0.0
C263 C 0.67815 0.23364 0.56687 0.0
C264 C 0.77006 0.2444 0.60247 0.0
C265 C 0.73163 0.2363 0.64233 0.0
H266 H 0.48406 0.67727 0.77746 0.0
H267 H 0.60354 0.78293 0.88201 0.0
H268 H 0.55772 0.73369 0.96615 0.0
H269 H 0.48475 0.65908 1.00999 0.0
H270 H 0.36747 0.55193 0.90405 0.0
H271 H 0.4111 0.60342 0.82119 0.0
C272 C 0.49991 0.6899 0.81867 0.0
C273 C 0.54725 0.73393 0.82317 0.0
C274 C 0.47375 0.66093 0.86692 0.0
C275 C 0.56723 0.74928 0.87708 0.0
C276 C 0.54108 0.72102 0.92532 0.0
C277 C 0.46879 0.64674 0.96884 0.0
C278 C 0.42249 0.60145 0.96392 0.0
C279 C 0.49455 0.67641 0.92074 0.0
C280 C 0.40241 0.58675 0.90987 0.0
C281 C 0.42758 0.61614 0.8621 0.0
H282 H 0.8238 0.52258 0.18058 0.0
H283 H 0.83097 0.46519 1.01576 0.0
H284 H 0.82578 0.39039 0.05945 0.0
H285 H 0.81792 0.34064 0.14501 0.0
H286 H 0.81184 0.39973 0.30907 0.0
H287 H 0.81815 0.47452 0.26516 0.0
C288 C 0.82431 0.49381 0.15404 0.0
C289 C 0.82756 0.49953 0.09486 0.0
C290 C 0.82149 0.4511 0.17942 0.0
C291 C 0.82856 0.46189 0.06137 0.0
C292 C 0.82545 0.41901 0.08636 0.0
C293 C 0.81772 0.36978 0.17107 0.0
C294 C 0.81435 0.36442 0.23039 0.0
C295 C 0.82159 0.41304 0.1454 0.0
C296 C 0.81493 0.403 0.2635 0.0
C297 C 0.81829 0.44573 0.23837 0.0
H298 H 0.30678 0.77872 0.50011 0.0
H299 H 0.37207 0.81299 0.33081 0.0
H300 H 0.4402 0.79805 0.35968 0.0
H301 H 0.48111 0.77521 0.43353 0.0
H302 H 0.41422 0.74053 0.60207 0.0
H303 H 0.34687 0.75587 0.5729 0.0
C304 C 0.33588 0.78306 0.46934 0.0
C305 C 0.3342 0.797 0.41328 0.0
C306 C 0.37467 0.77426 0.48616 0.0
C307 C 0.37241 0.80241 0.37423 0.0
C308 C 0.41133 0.79375 0.39072 0.0
C309 C 0.45153 0.7705 0.46372 0.0
C310 C 0.45286 0.75671 0.52006 0.0
C311 C 0.41275 0.77948 0.44658 0.0
C312 C 0.41455 0.75162 0.55874 0.0
C313 C 0.37587 0.76021 0.54201 0.0
H314 H 0.51797 0.33238 0.89589 0.0
H315 H 0.54166 0.4025 0.7321 0.0
H316 H 0.59941 0.48479 0.77322 0.0
H317 H 0.64996 0.53454 0.85478 0.0
H318 H 0.62871 0.46023 1.01517 0.0
H319 H 0.56293 0.38131 0.97639 0.0
C320 C 0.53545 0.36561 0.86891 0.0
C321 C 0.52614 0.36123 0.81078 0.0
C322 C 0.56919 0.41187 0.89242 0.0
C323 C 0.54833 0.40488 0.77692 0.0
C324 C 0.58153 0.45178 0.80042 0.0
C325 C 0.62996 0.50117 0.88123 0.0
C326 C 0.64364 0.5028 0.93784 0.0
C327 C 0.59321 0.45548 0.85793 0.0
C328 C 0.61848 0.45942 0.97167 0.0
C329 C 0.58111 0.41449 0.94945 0.0
loop_
_geom_bond_atom_site_label_1
_geom_bond_atom_site_label_2
_geom_bond_distance
_geom_bond_site_symmetry_2
_ccdc_geom_bond_type
Cu0 N1 1.999 . S
Cu0 O6 1.974 . S
Cu0 N11 1.985 1_556 S
Cu0 O20 1.959 1_556 S
N1 Cu0 1.999 . S
N1 C3 1.263 . S
N1 C5 1.389 . S
N2 C3 1.358 . S
N2 C4 1.400 . S
C3 N1 1.263 . S
C3 N2 1.358 . S
C3 H9 0.930 . S
C4 N2 1.400 . S
C4 C5 1.351 . S
C4 H21 0.930 . S
C5 N1 1.389 . S
C5 C4 1.351 . S
C5 H10 0.930 . S
O6 Cu0 1.974 . S
O6 C16 1.282 . S
C7 O8 1.261 . S
C7 O20 1.251 . S
O8 C7 1.261 . S
H9 C3 0.930 . S
H10 C5 0.930 . S
N11 Cu0 1.985 1_554 S
N11 C13 1.335 . S
N11 C14 1.390 . S
N12 C13 1.345 . S
N12 C15 1.336 . S
C13 N11 1.335 . S
C13 N12 1.345 . S
C13 H18 0.930 . S
C14 N11 1.390 . S
C14 C15 1.346 . S
C14 H19 0.930 . S
C15 N12 1.336 . S
C15 C14 1.346 . S
C15 H22 0.929 . S
C16 O6 1.282 . S
C16 O17 1.216 . S
O17 C16 1.216 . S
H18 C13 0.930 . S
H19 C14 0.930 . S
O20 Cu0 1.959 1_554 S
O20 C7 1.251 . S
H21 C4 0.930 . S
H22 C15 0.929 . S
Cu23 N24 1.999 . S
Cu23 O29 1.974 . S
Cu23 N34 1.985 . S
Cu23 O43 1.959 . S
N24 Cu23 1.999 . S
N24 C26 1.263 . S
N24 C28 1.389 . S
N25 C26 1.358 . S
N25 C27 1.400 . S
C26 N24 1.263 . S
C26 N25 1.358 . S
C26 H32 0.930 . S
C27 N25 1.400 . S
C27 C28 1.351 . S
C27 H44 0.930 . S
C28 N24 1.389 . S
C28 C27 1.351 . S
C28 H33 0.930 . S
O29 Cu23 1.974 . S
O29 C39 1.282 . S
C30 O31 1.261 . S
C30 O43 1.251 . S
O31 C30 1.261 . S
H32 C26 0.930 . S
H33 C28 0.930 . S
N34 Cu23 1.985 . S
N34 C36 1.335 . S
N34 C37 1.390 . S
N35 C36 1.345 . S
N35 C38 1.336 . S
C36 N34 1.335 . S
C36 N35 1.345 . S
C36 H41 0.930 . S
C37 N34 1.390 . S
C37 C38 1.346 . S
C37 H42 0.930 . S
C38 N35 1.336 . S
C38 C37 1.346 . S
C38 H45 0.929 . S
C39 O29 1.282 . S
C39 O40 1.216 . S
O40 C39 1.216 . S
H41 C36 0.930 . S
H42 C37 0.930 . S
O43 Cu23 1.959 . S
O43 C30 1.251 . S
H44 C27 0.930 . S
H45 C38 0.929 . S
Cu46 N47 1.999 . S
Cu46 O52 1.974 . S
Cu46 N57 1.985 . S
Cu46 O66 1.959 . S
N47 Cu46 1.999 . S
N47 C49 1.263 . S
N47 C51 1.389 . S
N48 C49 1.358 . S
N48 C50 1.400 . S
C49 N47 1.263 . S
C49 N48 1.358 . S
C49 H55 0.930 . S
C50 N48 1.400 . S
C50 C51 1.351 . S
C50 H67 0.930 . S
C51 N47 1.389 . S
C51 C50 1.351 . S
C51 H56 0.930 . S
O52 Cu46 1.974 . S
O52 C62 1.282 . S
C53 O54 1.261 . S
C53 O66 1.251 . S
O54 C53 1.261 . S
H55 C49 0.930 . S
H56 C51 0.930 . S
N57 Cu46 1.985 . S
N57 C59 1.335 . S
N57 C60 1.390 . S
N58 C59 1.345 . S
N58 C61 1.336 . S
C59 N57 1.335 . S
C59 N58 1.345 . S
C59 H64 0.930 . S
C60 N57 1.390 . S
C60 C61 1.346 . S
C60 H65 0.930 . S
C61 N58 1.336 . S
C61 C60 1.346 . S
C61 H68 0.929 . S
C62 O52 1.282 . S
C62 O63 1.216 . S
O63 C62 1.216 . S
H64 C59 0.930 . S
H65 C60 0.930 . S
O66 Cu46 1.959 . S
O66 C53 1.251 . S
H67 C50 0.930 . S
H68 C61 0.929 . S
Cu69 N70 1.999 . S
Cu69 O75 1.974 . S
Cu69 N80 1.985 1_556 S
Cu69 O89 1.959 1_556 S
N70 Cu69 1.999 . S
N70 C72 1.263 . S
N70 C74 1.389 . S
N71 C72 1.358 . S
N71 C73 1.400 . S
C72 N70 1.263 . S
C72 N71 1.358 . S
C72 H78 0.930 . S
C73 N71 1.400 . S
C73 C74 1.351 . S
C73 H90 0.930 . S
C74 N70 1.389 . S
C74 C73 1.351 . S
C74 H79 0.930 . S
O75 Cu69 1.974 . S
O75 C85 1.282 . S
C76 O77 1.261 . S
C76 O89 1.251 . S
O77 C76 1.261 . S
H78 C72 0.930 . S
H79 C74 0.930 . S
N80 Cu69 1.985 1_554 S
N80 C82 1.335 . S
N80 C83 1.390 . S
N81 C82 1.345 . S
N81 C84 1.336 . S
C82 N80 1.335 . S
C82 N81 1.345 . S
C82 H87 0.930 . S
C83 N80 1.390 . S
C83 C84 1.346 . S
C83 H88 0.930 . S
C84 N81 1.336 . S
C84 C83 1.346 . S
C84 H91 0.929 . S
C85 O75 1.282 . S
C85 O86 1.216 . S
O86 C85 1.216 . S
H87 C82 0.930 . S
H88 C83 0.930 . S
O89 Cu69 1.959 1_554 S
O89 C76 1.251 . S
H90 C73 0.930 . S
H91 C84 0.929 . S
Cu92 N93 1.999 . S
Cu92 O98 1.974 . S
Cu92 N103 1.985 . S
Cu92 O112 1.959 . S
N93 Cu92 1.999 . S
N93 C95 1.263 . S
N93 C97 1.389 . S
N94 C95 1.358 . S
N94 C96 1.400 . S
C95 N93 1.263 . S
C95 N94 1.358 . S
C95 H101 0.930 . S
C96 N94 1.400 . S
C96 C97 1.351 . S
C96 H113 0.930 . S
C97 N93 1.389 . S
C97 C96 1.351 . S
C97 H102 0.930 . S
O98 Cu92 1.974 . S
O98 C108 1.282 . S
C99 O100 1.261 . S
C99 O112 1.251 . S
O100 C99 1.261 . S
H101 C95 0.930 . S
H102 C97 0.930 . S
N103 Cu92 1.985 . S
N103 C105 1.335 . S
N103 C106 1.390 . S
N104 C105 1.345 . S
N104 C107 1.336 . S
C105 N103 1.335 . S
C105 N104 1.345 . S
C105 H110 0.930 . S
C106 N103 1.390 . S
C106 C107 1.346 . S
C106 H111 0.930 . S
C107 N104 1.336 . S
C107 C106 1.346 . S
C107 H114 0.929 . S
C108 O98 1.282 . S
C108 O109 1.216 . S
O109 C108 1.216 . S
H110 C105 0.930 . S
H111 C106 0.930 . S
O112 Cu92 1.959 . S
O112 C99 1.251 . S
H113 C96 0.930 . S
H114 C107 0.929 . S
Cu115 N116 1.999 . S
Cu115 O121 1.974 . S
Cu115 N126 1.985 . S
Cu115 O135 1.959 . S
N116 Cu115 1.999 . S
N116 C118 1.263 . S
N116 C120 1.389 . S
N117 C118 1.358 . S
N117 C119 1.400 . S
C118 N116 1.263 . S
C118 N117 1.358 . S
C118 H124 0.930 . S
C119 N117 1.400 . S
C119 C120 1.351 . S
C119 H136 0.930 . S
C120 N116 1.389 . S
C120 C119 1.351 . S
C120 H125 0.930 . S
O121 Cu115 1.974 . S
O121 C131 1.282 . S
C122 O123 1.261 . S
C122 O135 1.251 . S
O123 C122 1.261 . S
H124 C118 0.930 . S
H125 C120 0.930 . S
N126 Cu115 1.985 . S
N126 C128 1.335 . S
N126 C129 1.390 . S
N127 C128 1.345 . S
N127 C130 1.336 . S
C128 N126 1.335 . S
C128 N127 1.345 . S
C128 H133 0.930 . S
C129 N126 1.390 . S
C129 C130 1.346 . S
C129 H134 0.930 . S
C130 N127 1.336 . S
C130 C129 1.346 . S
C130 H137 0.929 . S
C131 O121 1.282 . S
C131 O132 1.216 . S
O132 C131 1.216 . S
H133 C128 0.930 . S
H134 C129 0.930 . S
O135 Cu115 1.959 . S
O135 C122 1.251 . S
H136 C119 0.930 . S
H137 C130 0.929 . S
H138 C144 0.930 . S
H139 C147 0.930 . S
H140 C148 0.930 . S
H141 C149 0.930 . S
H142 C152 0.930 . S
H143 C153 0.930 . S
C144 H138 0.930 . S
C144 C145 1.355 . S
C144 C146 1.415 . S
C145 C144 1.355 . S
C145 C147 1.419 . S
C146 C144 1.415 . S
C146 C151 1.425 . S
C146 C153 1.409 . S
C147 H139 0.930 . S
C147 C145 1.419 . S
C147 C148 1.362 . S
C148 H140 0.930 . S
C148 C147 1.362 . S
C148 C151 1.409 . S
C149 H141 0.930 . S
C149 C150 1.355 . S
C149 C151 1.415 . S
C150 C149 1.355 . S
C150 C152 1.419 . S
C151 C146 1.425 . S
C151 C148 1.409 . S
C151 C149 1.415 . S
C152 H142 0.930 . S
C152 C150 1.419 . S
C152 C153 1.362 . S
C153 H143 0.930 . S
C153 C146 1.409 . S
C153 C152 1.362 . S
H154 C160 0.930 . S
H155 C163 0.930 . S
H156 C164 0.930 . S
H157 C165 0.930 . S
H158 C168 0.930 . S
H159 C169 0.930 . S
C160 H154 0.930 . S
C160 C161 1.355 . S
C160 C162 1.415 . S
C161 C160 1.355 . S
C161 C163 1.419 . S
C162 C160 1.415 . S
C162 C167 1.425 . S
C162 C169 1.409 1_655 S
C163 H155 0.930 . S
C163 C161 1.419 . S
C163 C164 1.362 . S
C164 H156 0.930 . S
C164 C163 1.362 . S
C164 C167 1.409 . S
C165 H157 0.930 . S
C165 C166 1.355 . S
C165 C167 1.415 1_455 S
C166 C165 1.355 . S
C166 C168 1.419 . S
C167 C162 1.425 . S
C167 C164 1.409 . S
C167 C165 1.415 1_655 S
C168 H158 0.930 . S
C168 C166 1.419 . S
C168 C169 1.362 . S
C169 H159 0.930 . S
C169 C162 1.409 1_455 S
C169 C168 1.362 . S
H170 C176 0.930 . S
H171 C179 0.930 . S
H172 C180 0.930 . S
H173 C181 0.930 . S
H174 C184 0.930 . S
H175 C185 0.930 . S
C176 H170 0.930 . S
C176 C177 1.355 . S
C176 C178 1.415 1_545 S
C177 C176 1.355 . S
C177 C179 1.419 . S
C178 C176 1.415 1_565 S
C178 C183 1.425 . S
C178 C185 1.409 . S
C179 H171 0.930 . S
C179 C177 1.419 . S
C179 C180 1.362 . S
C180 H172 0.930 . S
C180 C179 1.362 . S
C180 C183 1.409 1_545 S
C181 H173 0.930 . S
C181 C182 1.355 . S
C181 C183 1.415 . S
C182 C181 1.355 . S
C182 C184 1.419 . S
C183 C178 1.425 . S
C183 C180 1.409 1_565 S
C183 C181 1.415 . S
C184 H174 0.930 . S
C184 C182 1.419 . S
C184 C185 1.362 . S
C185 H175 0.930 . S
C185 C178 1.409 . S
C185 C184 1.362 . S
H186 C192 0.930 . S
H187 C195 0.930 . S
H188 C196 0.930 . S
H189 C197 0.930 . S
H190 C200 0.930 . S
H191 C201 0.930 . S
C192 H186 0.930 . S
C192 C193 1.355 . S
C192 C194 1.415 . S
C193 C192 1.355 . S
C193 C195 1.419 . S
C194 C192 1.415 . S
C194 C199 1.425 . S
C194 C201 1.409 . S
C195 H187 0.930 . S
C195 C193 1.419 . S
C195 C196 1.362 . S
C196 H188 0.930 . S
C196 C195 1.362 . S
C196 C199 1.409 . S
C197 H189 0.930 . S
C197 C198 1.355 . S
C197 C199 1.415 . S
C198 C197 1.355 . S
C198 C200 1.419 . S
C199 C194 1.425 . S
C199 C196 1.409 . S
C199 C197 1.415 . S
C200 H190 0.930 . S
C200 C198 1.419 . S
C200 C201 1.362 . S
C201 H191 0.930 . S
C201 C194 1.409 . S
C201 C200 1.362 . S
H202 C208 0.930 . S
H203 C211 0.930 . S
H204 C212 0.930 . S
H205 C213 0.930 . S
H206 C216 0.930 . S
H207 C217 0.930 . S
C208 H202 0.930 . S
C208 C209 1.355 . S
C208 C210 1.415 1_655 S
C209 C208 1.355 . S
C209 C211 1.419 . S
C210 C208 1.415 1_455 S
C210 C215 1.425 . S
C210 C217 1.409 . S
C211 H203 0.930 . S
C211 C209 1.419 . S
C211 C212 1.362 . S
C212 H204 0.930 . S
C212 C211 1.362 . S
C212 C215 1.409 1_655 S
C213 H205 0.930 . S
C213 C214 1.355 . S
C213 C215 1.415 . S
C214 C213 1.355 . S
C214 C216 1.419 . S
C215 C210 1.425 . S
C215 C212 1.409 1_455 S
C215 C213 1.415 . S
C216 H206 0.930 . S
C216 C214 1.419 . S
C216 C217 1.362 . S
C217 H207 0.930 . S
C217 C210 1.409 . S
C217 C216 1.362 . S
H218 C224 0.930 . S
H219 C227 0.930 . S
H220 C228 0.930 . S
H221 C229 0.930 . S
H222 C232 0.930 . S
H223 C233 0.930 . S
C224 H218 0.930 . S
C224 C225 1.355 . S
C224 C226 1.415 . S
C225 C224 1.355 . S
C225 C227 1.419 . S
C226 C224 1.415 . S
C226 C231 1.425 . S
C226 C233 1.409 1_545 S
C227 H219 0.930 . S
C227 C225 1.419 . S
C227 C228 1.362 . S
C228 H220 0.930 . S
C228 C227 1.362 . S
C228 C231 1.409 . S
C229 H221 0.930 . S
C229 C230 1.355 . S
C229 C231 1.415 1_565 S
C230 C229 1.355 . S
C230 C232 1.419 . S
C231 C226 1.425 . S
C231 C228 1.409 . S
C231 C229 1.415 1_545 S
C232 H222 0.930 . S
C232 C230 1.419 . S
C232 C233 1.362 . S
C233 H223 0.930 . S
C233 C226 1.409 1_565 S
C233 C232 1.362 . S
H234 C240 0.930 . S
H235 C243 0.930 . S
H236 C244 0.930 . S
H237 C245 0.930 . S
H238 C248 0.930 . S
H239 C249 0.930 . S
C240 H234 0.930 . S
C240 C241 1.355 . S
C240 C242 1.415 . S
C241 C240 1.355 . S
C241 C243 1.419 . S
C242 C240 1.415 . S
C242 C247 1.425 . S
C242 C249 1.409 . S
C243 H235 0.930 . S
C243 C241 1.419 . S
C243 C244 1.362 . S
C244 H236 0.930 . S
C244 C243 1.362 . S
C244 C247 1.409 . S
C245 H237 0.930 . S
C245 C246 1.355 . S
C245 C247 1.415 . S
C246 C245 1.355 . S
C246 C248 1.419 . S
C247 C242 1.425 . S
C247 C244 1.409 . S
C247 C245 1.415 . S
C248 H238 0.930 . S
C248 C246 1.419 . S
C248 C249 1.362 . S
C249 H239 0.930 . S
C249 C242 1.409 . S
C249 C248 1.362 . S
H250 C256 0.930 . S
H251 C259 0.930 . S
H252 C260 0.930 . S
H253 C261 0.930 . S
H254 C264 0.930 . S
H255 C265 0.930 . S
C256 H250 0.930 . S
C256 C257 1.355 . S
C256 C258 1.415 . S
C257 C256 1.355 . S
C257 C259 1.419 . S
C258 C256 1.415 . S
C258 C263 1.425 . S
C258 C265 1.409 . S
C259 H251 0.930 . S
C259 C257 1.419 . S
C259 C260 1.362 . S
C260 H252 0.930 . S
C260 C259 1.362 . S
C260 C263 1.409 . S
C261 H253 0.930 . S
C261 C262 1.355 . S
C261 C263 1.415 . S
C262 C261 1.355 . S
C262 C264 1.419 . S
C263 C258 1.425 . S
C263 C260 1.409 . S
C263 C261 1.415 . S
C264 H254 0.930 . S
C264 C262 1.419 . S
C264 C265 1.362 . S
C265 H255 0.930 . S
C265 C258 1.409 . S
C265 C264 1.362 . S
H266 C272 0.930 . S
H267 C275 0.930 . S
H268 C276 0.930 . S
H269 C277 0.930 . S
H270 C280 0.930 . S
H271 C281 0.930 . S
C272 H266 0.930 . S
C272 C273 1.355 . S
C272 C274 1.415 . S
C273 C272 1.355 . S
C273 C275 1.419 . S
C274 C272 1.415 . S
C274 C279 1.425 . S
C274 C281 1.409 . S
C275 H267 0.930 . S
C275 C273 1.419 . S
C275 C276 1.362 . S
C276 H268 0.930 . S
C276 C275 1.362 . S
C276 C279 1.409 . S
C277 H269 0.930 . S
C277 C278 1.355 . S
C277 C279 1.415 . S
C278 C277 1.355 . S
C278 C280 1.419 . S
C279 C274 1.425 . S
C279 C276 1.409 . S
C279 C277 1.415 . S
C280 H270 0.930 . S
C280 C278 1.419 . S
C280 C281 1.362 . S
C281 H271 0.930 . S
C281 C274 1.409 . S
C281 C280 1.362 . S
H282 C288 0.930 . S
H283 C291 0.930 . S
H284 C292 0.930 . S
H285 C293 0.930 . S
H286 C296 0.930 . S
H287 C297 0.930 . S
C288 H282 0.930 . S
C288 C289 1.355 . S
C288 C290 1.415 . S
C289 C288 1.355 . S
C289 C291 1.419 . S
C290 C288 1.415 . S
C290 C295 1.425 . S
C290 C297 1.409 . S
C291 H283 0.930 . S
C291 C289 1.419 . S
C291 C292 1.362 . S
C292 H284 0.930 . S
C292 C291 1.362 . S
C292 C295 1.409 . S
C293 H285 0.930 . S
C293 C294 1.355 . S
C293 C295 1.415 . S
C294 C293 1.355 . S
C294 C296 1.419 . S
C295 C290 1.425 . S
C295 C292 1.409 . S
C295 C293 1.415 . S
C296 H286 0.930 . S
C296 C294 1.419 . S
C296 C297 1.362 . S
C297 H287 0.930 . S
C297 C290 1.409 . S
C297 C296 1.362 . S
H298 C304 0.930 . S
H299 C307 0.930 . S
H300 C308 0.930 . S
H301 C309 0.930 . S
H302 C312 0.930 . S
H303 C313 0.930 . S
C304 H298 0.930 . S
C304 C305 1.355 . S
C304 C306 1.415 . S
C305 C304 1.355 . S
C305 C307 1.419 . S
C306 C304 1.415 . S
C306 C311 1.425 . S
C306 C313 1.409 . S
C307 H299 0.930 . S
C307 C305 1.419 . S
C307 C308 1.362 . S
C308 H300 0.930 . S
C308 C307 1.362 . S
C308 C311 1.409 . S
C309 H301 0.930 . S
C309 C310 1.355 . S
C309 C311 1.415 . S
C310 C309 1.355 . S
C310 C312 1.419 . S
C311 C306 1.425 . S
C311 C308 1.409 . S
C311 C309 1.415 . S
C312 H302 0.930 . S
C312 C310 1.419 . S
C312 C313 1.362 . S
C313 H303 0.930 . S
C313 C306 1.409 . S
C313 C312 1.362 . S
H314 C320 0.930 . S
H315 C323 0.930 . S
H316 C324 0.930 . S
H317 C325 0.930 . S
H318 C328 0.930 . S
H319 C329 0.930 . S
C320 H314 0.930 . S
C320 C321 1.355 . S
C320 C322 1.415 . S
C321 C320 1.355 . S
C321 C323 1.419 . S
C322 C320 1.415 . S
C322 C327 1.425 . S
C322 C329 1.409 . S
C323 H315 0.930 . S
C323 C321 1.419 . S
C323 C324 1.362 . S
C324 H316 0.930 . S
C324 C323 1.362 . S
C324 C327 1.409 . S
C325 H317 0.930 . S
C325 C326 1.355 . S
C325 C327 1.415 . S
C326 C325 1.355 . S
C326 C328 1.419 . S
C327 C322 1.425 . S
C327 C324 1.409 . S
C327 C325 1.415 . S
C328 H318 0.930 . S
C328 C326 1.419 . S
C328 C329 1.362 . S
C329 H319 0.930 . S
C329 C322 1.409 . S
C329 C328 1.362 . S
C145 C16 1.410 . S
C150 N127 1.429 . S
C161 C39 1.415 . S
C166 N12 1.425 . S
C177 N35 1.427 . S
C182 C62 1.427 . S
C193 C85 1.424 . S
C198 N58 1.426 . S
C209 N81 1.428 . S
C214 C108 1.429 . S
C225 C131 1.441 . S
C230 N104 1.436 . S
C241 N94 1.382 . S
C246 C7 1.490 . S
C257 N117 1.395 . S
C262 C30 1.488 . S
C273 C53 1.488 . S
C278 N2 1.370 . S
C289 C76 1.460 . S
C294 N25 1.452 . S
C305 C99 1.482 . S
C310 N48 1.369 . S
C321 C122 1.489 . S
C326 N71 1.381 . S
