# Generated by pormake.
# Topology qdl, (4)-cn, num edge types: 1
# Building blocks:
#     Node 0, Type 0, BuildingBlock: MUDLON_clean_sbu_0, # of connection points: 4
#     Node 1, Type 0, BuildingBlock: MUDLON_clean_sbu_0, # of connection points: 4
#     Node 2, Type 0, BuildingBlock: MUDLON_clean_sbu_0, # of connection points: 4
#     Node 3, Type 0, BuildingBlock: MUDLON_clean_sbu_0, # of connection points: 4
#     Node 4, Type 0, BuildingBlock: MUDLON_clean_sbu_0, # of connection points: 4
#     Node 5, Type 0, BuildingBlock: MUDLON_clean_sbu_0, # of connection points: 4
#     Edge 6, Type (0, 0), BuildingBlock: FUNLAD_clean_linker_1, # of connection points: 2
#     Edge 7, Type (0, 0), BuildingBlock: FUNLAD_clean_linker_1, # of connection points: 2
#     Edge 8, Type (0, 0), BuildingBlock: FUNLAD_clean_linker_1, # of connection points: 2
#     Edge 9, Type (0, 0), BuildingBlock: FUNLAD_clean_linker_1, # of connection points: 2
#     Edge 10, Type (0, 0), BuildingBlock: FUNLAD_clean_linker_1, # of connection points: 2
#     Edge 11, Type (0, 0), BuildingBlock: FUNLAD_clean_linker_1, # of connection points: 2
#     Edge 12, Type (0, 0), BuildingBlock: FUNLAD_clean_linker_1, # of connection points: 2
#     Edge 13, Type (0, 0), BuildingBlock: FUNLAD_clean_linker_1, # of connection points: 2
#     Edge 14, Type (0, 0), BuildingBlock: FUNLAD_clean_linker_1, # of connection points: 2
#     Edge 15, Type (0, 0), BuildingBlock: FUNLAD_clean_linker_1, # of connection points: 2
#     Edge 16, Type (0, 0), BuildingBlock: FUNLAD_clean_linker_1, # of connection points: 2
#     Edge 17, Type (0, 0), BuildingBlock: FUNLAD_clean_linker_1, # of connection points: 2
# Relax obj value: 0.001
# Max RMSD: 0.016
# Mean RMSD: 0.013
data_MOF--net-qdl--node1-MUDLON_clean_sbu_0--edge1-FUNLAD_clean_linker_1
_symmetry_space_group_name_H-M    P1
_symmetry_Int_Tables_number       1
_symmetry_cell_setting            triclinic
loop_
_symmetry_equiv_pos_as_xyz
'x, y, z'
_cell_length_a     15.757123
_cell_length_b     15.820611
_cell_length_c     94.318801
_cell_angle_alpha  90.091042
_cell_angle_beta   91.08888
_cell_angle_gamma 119.96118
loop_
_atom_site_label
_atom_site_type_symbol
_atom_site_fract_x
_atom_site_fract_y
_atom_site_fract_z
_atom_type_partial_charge
Mg0 Mg 0.21786 0.06865 0.10516 0.0
C1 C 0.22323 0.88846 0.10018 0.0
O2 O 0.135 0.86774 0.09595 0.0
C3 C 0.26705 0.27119 0.10731 0.0
O4 O 0.17138 0.2191 0.10842 0.0
C5 C 0.18394 0.05481 0.13609 0.0
O6 O 0.2794 0.09282 0.13545 0.0
O7 O 0.13377 0.03419 0.12457 0.0
O8 O 0.28282 0.97438 0.10475 0.0
O9 O 0.13207 0.04141 0.08545 0.0
C10 C 0.17619 0.04711 0.07401 0.0
O11 O 0.2674 0.06597 0.07478 0.0
O12 O 0.31498 0.22665 0.10584 0.0
Mg13 Mg 1.02407 0.90086 0.43234 0.0
C14 C 0.82117 0.85064 0.43494 0.0
O15 O 0.8731 0.94607 0.43636 0.0
C16 C 0.20356 0.89347 0.42804 0.0
O17 O 0.22525 0.9815 0.42414 0.0
C18 C 0.03489 0.93976 0.46321 0.0
O19 O 0.98474 0.844 0.46231 0.0
O20 O 0.06372 0.98847 0.45184 0.0
O21 O 0.86605 0.80349 0.43306 0.0
O22 O 0.04716 0.98081 0.4125 0.0
C23 C 0.04694 0.93575 0.40129 0.0
O24 O 0.03637 0.84823 0.40244 0.0
O25 O 0.11721 0.83488 0.43213 0.0
Mg26 Mg 1.01766 0.06647 0.76749 0.0
C27 C 0.81384 0.9096 0.76577 0.0
O28 O 0.86626 0.86607 0.76528 0.0
C29 C 0.1878 0.25887 0.77595 0.0
O30 O 0.20675 0.19692 0.78252 0.0
C31 C 1.02052 0.03421 0.79806 0.0
O32 O 0.98006 0.08912 0.79669 0.0
O33 O 0.04671 1.00856 0.78692 0.0
O34 O 0.85843 1.00235 0.76666 0.0
O35 O 0.05538 0.0262 0.74736 0.0
C36 C 0.14368 0.06625 0.74337 0.0
O37 O 0.21451 0.12409 0.75222 0.0
O38 O 0.10765 0.2263 0.76886 0.0
Mg39 Mg 0.18661 0.15838 0.60271 0.0
C40 C 0.41984 0.27992 0.60574 0.0
O41 O 0.41331 0.34293 0.61408 0.0
C42 C 0.04236 0.22137 0.60388 0.0
O43 O 0.9926 0.12548 0.60391 0.0
C44 C 0.14275 0.11899 0.57199 0.0
O45 O 0.20107 0.21408 0.57264 0.0
O46 O 0.11957 0.07118 0.58347 0.0
O47 O 0.3428 0.20831 0.60034 0.0
O48 O 0.13594 0.07709 0.62252 0.0
C49 C 0.19442 0.10347 0.63322 0.0
O50 O 0.28534 0.17377 0.63178 0.0
O51 O 0.13541 0.26389 0.60329 0.0
Mg52 Mg 0.99917 0.08279 0.93501 0.0
C53 C 0.1509 0.28754 0.9403 0.0
O54 O 0.19465 0.2374 0.94336 0.0
C55 C 0.81254 0.90179 0.93182 0.0
O56 O 0.87951 0.88015 0.92818 0.0
C57 C 0.08341 0.12045 0.90556 0.0
O58 O 0.10726 0.20941 0.90942 0.0
O59 O 0.04222 0.05161 0.91443 0.0
O60 O 0.06058 0.2412 0.93659 0.0
O61 O 0.05457 0.04498 0.95397 0.0
C62 C 1.01343 0.0457 0.96542 0.0
O63 O 0.94087 0.06419 0.96481 0.0
O64 O 0.83956 0.9895 0.9354 0.0
Mg65 Mg 0.88187 0.9761 0.26646 0.0
C66 C 0.87994 0.15851 0.26401 0.0
O67 O 0.97233 0.18186 0.26351 0.0
C68 C 0.81734 0.766 0.27073 0.0
O69 O 0.89894 0.81074 0.27834 0.0
C70 C 1.01778 0.96872 0.24399 0.0
O71 O 1.01608 0.90064 0.25211 0.0
O72 O 0.97516 1.01481 0.24794 0.0
O73 O 0.81507 0.06885 0.26514 0.0
O74 O 0.95257 1.00738 0.28755 0.0
C75 C 0.03459 1.0155 0.29115 0.0
O76 O 0.0896 1.0088 0.28144 0.0
O77 O 0.78557 0.81709 0.26468 0.0
H78 H 0.19237 0.7403 0.09525 0.0
C79 C 0.24726 0.80941 0.1 0.0
H80 H 0.38145 0.88161 0.11158 0.0
H81 H 0.28811 0.46608 0.13546 0.0
H82 H 0.29073 0.55239 0.15696 0.0
H83 H 0.31501 0.71888 0.15587 0.0
H84 H 0.33714 0.80028 0.13332 0.0
C85 C 0.32772 0.81514 0.10612 0.0
C86 C 0.33614 0.72522 0.10711 0.0
C87 C 0.32609 0.6799 0.12041 0.0
C88 C 0.31112 0.58348 0.12103 0.0
C89 C 0.29857 0.5388 0.13441 0.0
C90 C 0.30027 0.58761 0.14682 0.0
C91 C 0.31405 0.6814 0.1462 0.0
C92 C 0.3266 0.72729 0.13318 0.0
H93 H 0.39446 0.4215 0.10552 0.0
C94 C 0.3161 0.37919 0.1072 0.0
H95 H 0.18599 0.38239 0.11089 0.0
H96 H 0.37629 0.79981 0.08044 0.0
H97 H 0.37684 0.71477 0.05897 0.0
H98 H 0.34396 0.54516 0.05989 0.0
H99 H 0.31193 0.46008 0.08224 0.0
C100 C 0.26383 0.4247 0.1088 0.0
C101 C 0.30647 0.53258 0.1084 0.0
C102 C 0.32544 0.58121 0.09523 0.0
C103 C 0.34157 0.6781 0.09462 0.0
C104 C 0.36096 0.72533 0.08138 0.0
C105 C 0.362 0.67758 0.06902 0.0
C106 C 0.34369 0.58214 0.06954 0.0
C107 C 0.3254 0.53409 0.08246 0.0
H108 H 0.35093 0.92132 0.42342 0.0
C109 C 0.28173 0.86803 0.42796 0.0
H110 H 0.20882 0.73608 0.43925 0.0
H111 H 0.62406 0.79475 0.41028 0.0
H112 H 0.53228 0.7547 0.38799 0.0
H113 H 0.36166 0.7214 0.38707 0.0
H114 H 0.28226 0.72936 0.4085 0.0
C115 C 0.27517 0.78811 0.43397 0.0
C116 C 0.36456 0.77831 0.43508 0.0
C117 C 0.40839 0.76864 0.42264 0.0
C118 C 0.50589 0.78514 0.42326 0.0
C119 C 0.54971 0.78104 0.41051 0.0
C120 C 0.49781 0.75821 0.39762 0.0
C121 C 0.4018 0.73964 0.3971 0.0
C122 C 0.3573 0.74489 0.40943 0.0
H123 H 0.6705 0.72253 0.43304 0.0
C124 C 0.71279 0.80081 0.43493 0.0
H125 H 0.70917 0.93006 0.43912 0.0
H126 H 0.29556 0.785 0.46121 0.0
H127 H 0.38325 0.81467 0.48378 0.0
H128 H 0.55099 0.83993 0.48493 0.0
H129 H 0.63225 0.83596 0.46349 0.0
C130 C 0.66677 0.85227 0.4368 0.0
C131 C 0.55831 0.80883 0.43642 0.0
C132 C 0.51047 0.80801 0.44904 0.0
C133 C 0.41342 0.79256 0.44838 0.0
C134 C 0.369 0.79588 0.46112 0.0
C135 C 0.41847 0.81272 0.47414 0.0
C136 C 0.51296 0.82704 0.47479 0.0
C137 C 0.55886 0.82495 0.46242 0.0
H138 H 0.66287 0.88746 0.7664 0.0
C139 C 0.70531 0.85071 0.76565 0.0
H140 H 0.70195 0.71618 0.76369 0.0
H141 H 0.27228 0.51592 0.79153 0.0
H142 H 0.35193 0.61708 0.81244 0.0
H143 H 0.52393 0.75018 0.81182 0.0
H144 H 0.61669 0.78428 0.7903 0.0
C145 C 0.65936 0.75251 0.76488 0.0
C146 C 0.55074 0.68767 0.76478 0.0
C147 C 0.49791 0.66864 0.7775 0.0
C148 C 0.39975 0.58949 0.77802 0.0
C149 C 0.34796 0.57304 0.79076 0.0
C150 C 0.39259 0.63087 0.80277 0.0
C151 C 0.48936 0.70598 0.80241 0.0
C152 C 0.54181 0.72487 0.78997 0.0
H153 H 0.33113 0.38189 0.78223 0.0
C154 C 0.2655 0.3625 0.77586 0.0
H155 H 0.20155 0.41166 0.7605 0.0
H156 H 0.62523 0.7149 0.73824 0.0
H157 H 0.54464 0.61515 0.71727 0.0
H158 H 0.37701 0.47441 0.71838 0.0
H159 H 0.28843 0.43283 0.74036 0.0
C160 C 0.26436 0.43053 0.76746 0.0
C161 C 0.35582 0.52732 0.76601 0.0
C162 C 0.40558 0.55174 0.75298 0.0
C163 C 0.50296 0.63207 0.75237 0.0
C164 C 0.55175 0.65377 0.73929 0.0
C165 C 0.50625 0.5974 0.72719 0.0
C166 C 0.41177 0.51823 0.72781 0.0
C167 C 0.36175 0.49516 0.74052 0.0
H168 H 0.51344 0.22741 0.59681 0.0
C169 C 0.51446 0.28368 0.60357 0.0
H170 H 0.60031 0.40131 0.61761 0.0
H171 H 0.879 0.22971 0.63289 0.0
H172 H 0.80446 0.22277 0.65548 0.0
H173 H 0.67567 0.26729 0.65733 0.0
H174 H 0.62072 0.31921 0.63666 0.0
C175 C 0.59867 0.3472 0.61033 0.0
C176 C 0.68677 0.33495 0.60958 0.0
C177 C 0.71931 0.30647 0.62184 0.0
C178 C 0.79283 0.27964 0.62076 0.0
C179 C 0.8226 0.24969 0.63311 0.0
C180 C 0.78069 0.24571 0.64614 0.0
C181 C 0.70826 0.2709 0.64719 0.0
C182 C 0.67746 0.30072 0.63522 0.0
H183 H 0.03165 0.35649 0.60467 0.0
C184 C 0.98997 0.27728 0.60476 0.0
H185 H 0.85039 0.15151 0.60634 0.0
H186 H 0.6565 0.40561 0.58474 0.0
H187 H 0.73294 0.41465 0.56223 0.0
H188 H 0.85536 0.36171 0.56016 0.0
H189 H 0.90323 0.30075 0.5806 0.0
C190 C 0.89166 0.23064 0.60584 0.0
C191 C 0.83388 0.28122 0.60745 0.0
C192 C 0.80657 0.31643 0.5954 0.0
C193 C 0.73382 0.34441 0.59651 0.0
C194 C 0.70911 0.38073 0.58437 0.0
C195 C 0.75285 0.38683 0.57142 0.0
C196 C 0.82194 0.35719 0.57026 0.0
C197 C 0.84872 0.32226 0.58207 0.0
H198 H 0.17387 0.43565 0.9359 0.0
C199 C 0.20913 0.39548 0.93961 0.0
H200 H 0.34085 0.40319 0.94664 0.0
H201 H 0.57414 0.79731 0.91053 0.0
H202 H 0.49289 0.69708 0.88961 0.0
H203 H 0.35659 0.52817 0.89194 0.0
H204 H 0.29965 0.45896 0.91509 0.0
C205 C 0.30614 0.44316 0.94262 0.0
C206 C 0.37192 0.55025 0.94084 0.0
C207 C 0.40424 0.58931 0.92719 0.0
C208 C 0.48512 0.68565 0.92583 0.0
C209 C 0.51513 0.7235 0.9121 0.0
C210 C 0.46878 0.66702 0.90004 0.0
C211 C 0.3919 0.57199 0.90135 0.0
C212 C 0.35982 0.53314 0.91472 0.0
H213 H 0.69541 0.75049 0.92859 0.0
C214 C 0.70955 0.82205 0.93208 0.0
H215 H 0.64702 0.90034 0.94103 0.0
H216 H 0.31816 0.50357 0.9683 0.0
H217 H 0.39765 0.6053 0.98916 0.0
H218 H 0.54056 0.77045 0.98685 0.0
H219 H 0.60477 0.83521 0.96371 0.0
C220 C 0.63453 0.83081 0.9369 0.0
C221 C 0.53567 0.74157 0.93811 0.0
C222 C 0.4977 0.70587 0.95168 0.0
C223 C 0.41584 0.61015 0.95303 0.0
C224 C 0.38085 0.57531 0.96673 0.0
C225 C 0.42554 0.63301 0.97876 0.0
C226 C 0.50596 0.72606 0.97746 0.0
C227 C 0.54212 0.76235 0.96411 0.0
H228 H 0.91873 0.31178 0.26261 0.0
C229 C 0.85682 0.23832 0.26365 0.0
H230 H 0.70417 0.15503 0.26667 0.0
H231 H 0.71795 0.52738 0.2958 0.0
H232 H 0.65914 0.40948 0.31483 0.0
H233 H 0.64327 0.24733 0.31164 0.0
H234 H 0.68566 0.20174 0.28942 0.0
C235 C 0.76695 0.227 0.26505 0.0
C236 C 0.75536 0.31533 0.26591 0.0
C237 C 0.72819 0.33995 0.27885 0.0
C238 C 0.73837 0.43397 0.28075 0.0
C239 C 0.71275 0.45742 0.29389 0.0
C240 C 0.67861 0.39038 0.30487 0.0
C241 C 0.66958 0.29903 0.30306 0.0
C242 C 0.69422 0.2738 0.29025 0.0
H243 H 0.70659 0.6241 0.26093 0.0
C244 C 0.77066 0.65948 0.26796 0.0
H245 H 0.87403 0.64324 0.28046 0.0
H246 H 0.78867 0.28214 0.23873 0.0
H247 H 0.84478 0.39867 0.21952 0.0
H248 H 0.87218 0.56501 0.22318 0.0
H249 H 0.84203 0.61532 0.2459 0.0
C250 C 0.81128 0.60818 0.27319 0.0
C251 C 0.77566 0.5034 0.26975 0.0
C252 C 0.79462 0.47569 0.25637 0.0
C253 C 0.78257 0.38092 0.2544 0.0
C254 C 0.8 0.35431 0.24089 0.0
C255 C 0.83159 0.42021 0.22977 0.0
C256 C 0.84676 0.51378 0.23182 0.0
C257 C 0.82889 0.54168 0.24494 0.0
H258 H 0.10517 0.95107 0.22741 0.0
C259 C 0.0602 0.9835 0.22973 0.0
H260 H 0.9924 0.0597 0.22148 0.0
H261 H 0.25795 0.24023 0.16842 0.0
H262 H 0.30311 0.38472 0.18272 0.0
H263 H 0.24492 0.37079 0.20716 0.0
H264 H 0.14069 0.21235 0.21744 0.0
C265 C 0.03736 0.02711 0.21927 0.0
C266 C 0.07336 0.03435 0.20452 0.0
C267 C 0.13501 0.12754 0.19868 0.0
C268 C 0.17001 0.13555 0.18466 0.0
C269 C 0.23053 0.22974 0.17909 0.0
C270 C 0.25681 0.31339 0.18716 0.0
C271 C 0.22392 0.30554 0.20091 0.0
C272 C 0.16386 0.21401 0.20667 0.0
H273 H 0.05752 1.00871 0.15022 0.0
C274 C 0.13631 0.03831 0.15001 0.0
H275 H 0.26782 0.09292 0.16209 0.0
H276 H 0.94302 0.84469 0.21134 0.0
H277 H 0.90153 0.70037 0.1973 0.0
H278 H 0.9731 0.71394 0.17381 0.0
H279 H 0.08497 0.8721 0.1641 0.0
C280 C 0.18864 0.06033 0.16228 0.0
C281 C 0.14414 0.05043 0.17646 0.0
C282 C 0.08164 0.95713 0.18222 0.0
C283 C 0.04428 0.94914 0.19611 0.0
C284 C 0.97741 0.85518 0.20119 0.0
C285 C 0.9522 0.77157 0.19318 0.0
C286 C 0.99221 0.77922 0.17993 0.0
C287 C 0.05611 0.87064 0.17446 0.0
H288 H 0.06375 0.98929 0.55781 0.0
C289 C 0.10894 0.06833 0.55806 0.0
H290 H 0.1785 0.19694 0.54598 0.0
H291 H 0.14881 0.88323 0.49724 0.0
H292 H 0.26209 0.86124 0.5124 0.0
H293 H 0.30699 0.93555 0.53634 0.0
H294 H 0.23847 0.03163 0.54531 0.0
C295 C 0.1356 0.11773 0.5458 0.0
C296 C 0.10564 0.06865 0.53158 0.0
C297 C 0.14693 1.01298 0.52647 0.0
C298 C 0.12201 0.97114 0.51256 0.0
C299 C 0.16465 0.91622 0.50772 0.0
C300 C 0.23013 0.9033 0.51629 0.0
C301 C 0.25536 0.94509 0.52977 0.0
C302 C 0.21491 0.99969 0.53483 0.0
H303 H 0.10184 0.06865 0.47769 0.0
C304 C 0.05862 0.98948 0.47724 0.0
H305 H 0.98842 0.85942 0.48897 0.0
H306 H 1.01391 0.1714 0.53803 0.0
H307 H 0.90062 0.19344 0.52285 0.0
H308 H 0.8559 0.11925 0.49889 0.0
H309 H 0.92473 0.02329 0.48991 0.0
C310 C 1.02905 0.93869 0.48935 0.0
C311 C 0.05718 0.98622 0.50368 0.0
C312 C 1.01576 0.04171 0.5088 0.0
C313 C 0.04062 0.08351 0.52271 0.0
C314 C 0.99802 0.13843 0.52755 0.0
C315 C 0.93257 0.15137 0.51896 0.0
C316 C 0.90744 0.10965 0.50547 0.0
C317 C 0.94797 0.0551 0.50042 0.0
H318 H 0.06828 0.95808 0.8133 0.0
C319 C 0.03739 1.0058 0.81236 0.0
H320 H 0.98268 0.08508 0.82307 0.0
H321 H 0.86837 0.89622 0.88141 0.0
H322 H 0.70889 0.81879 0.86963 0.0
H323 H 0.6935 0.82697 0.84365 0.0
H324 H 0.838 0.91348 0.82931 0.0
C325 C 1.01603 0.03954 0.8241 0.0
C326 C 1.02816 1.01267 0.83886 0.0
C327 C 0.94357 0.95904 0.8471 0.0
C328 C 0.95263 0.95298 0.86206 0.0
C329 C 0.86626 0.9024 0.87001 0.0
C330 C 0.77402 0.85753 0.86338 0.0
C331 C 0.76534 0.86225 0.84876 0.0
C332 C 0.8488 0.91244 0.84066 0.0
H333 H 0.12485 0.16501 0.8836 0.0
C334 C 0.09301 0.10188 0.89047 0.0
H335 H 1.01926 0.94824 0.89122 0.0
H336 H 0.20651 0.11445 0.82622 0.0
H337 H 0.36617 0.17977 0.83774 0.0
H338 H 0.38149 0.15964 0.86343 0.0
H339 H 0.23664 0.07549 0.87782 0.0
C340 C 0.05505 1.01233 0.8846 0.0
C341 C 0.04666 1.00016 0.86879 0.0
C342 C 0.13147 0.04461 0.86036 0.0
C343 C 0.12241 0.05267 0.84542 0.0
C344 C 0.20871 0.10364 0.8375 0.0
C345 C 0.30098 0.14175 0.84399 0.0
C346 C 0.30963 0.13066 0.85847 0.0
C347 C 0.22611 0.08284 0.86661 0.0
H348 H 0.055 0.02998 0.05973 0.0
C349 C 0.12759 0.03783 0.06004 0.0
H350 H 0.24387 0.04734 0.04801 0.0
H351 H 0.98585 0.86044 0.99215 0.0
H352 H 0.99493 0.72137 1.001 0.0
H353 H 0.06522 0.7261 0.02477 0.0
H354 H 0.12599 0.86979 0.03992 0.0
C355 C 0.17251 0.0423 0.04782 0.0
C356 C 0.12735 0.03897 0.03363 0.0
C357 C 0.09407 0.9554 0.02475 0.0
C358 C 0.05515 0.95337 1.0109 0.0
C359 C 1.01869 0.8672 1.00256 0.0
C360 C 1.02287 0.7865 1.00755 0.0
C361 C 0.06235 0.78912 0.02095 0.0
C362 C 0.09727 0.87218 0.02951 0.0
H363 H 0.11672 0.02732 0.97965 0.0
C364 C 0.05106 0.03353 0.97933 0.0
H365 H 0.94426 0.04358 0.99123 0.0
H366 H 0.19034 0.2133 0.04752 0.0
H367 H 0.18293 0.35304 0.03863 0.0
H368 H 0.11582 0.34988 1.01467 0.0
H369 H 0.05611 0.20709 0.99944 0.0
C370 C 1.00828 0.03456 0.99153 0.0
C371 C 0.0516 0.03598 1.00582 0.0
C372 C 0.08515 0.11971 1.01471 0.0
C373 C 0.12337 0.12138 0.02858 0.0
C374 C 0.15891 0.20715 0.03702 0.0
C375 C 0.15556 0.28824 0.03202 0.0
C376 C 0.11779 0.28646 1.01853 0.0
C377 C 0.0833 0.20367 1.00992 0.0
H378 H 0.12266 1.00754 0.30911 0.0
C379 C 0.0612 1.01791 0.30636 0.0
H380 H 0.94409 0.0323 0.31398 0.0
H381 H 0.87752 0.7974 0.36993 0.0
H382 H 0.73085 0.69111 0.35609 0.0
H383 H 0.71483 0.72556 0.33099 0.0
H384 H 0.84482 0.86677 0.31963 0.0
C385 C 1.00703 0.02437 0.31673 0.0
C386 C 1.01945 1.00419 0.33189 0.0
C387 C 0.94289 0.92059 0.33837 0.0
C388 C 0.95301 0.89943 0.35276 0.0
C389 C 0.87468 0.81606 0.35897 0.0
C390 C 0.7898 0.7545 0.35116 0.0
C391 C 0.7807 0.77401 0.33705 0.0
C392 C 0.85599 0.85576 0.33067 0.0
H393 H 0.04834 0.04463 0.38631 0.0
C394 C 0.05112 0.97753 0.38709 0.0
H395 H 0.05289 0.86256 0.376 0.0
H396 H 0.17533 0.17615 0.32336 0.0
H397 H 0.32396 0.28016 0.33705 0.0
H398 H 0.34551 0.2381 0.36151 0.0
H399 H 0.21794 0.09262 0.37254 0.0
C400 C 0.05291 0.9311 0.3752 0.0
C401 C 0.04013 0.96099 0.36067 0.0
C402 C 0.11635 0.04518 0.35426 0.0
C403 C 0.10537 0.06761 0.33993 0.0
C404 C 0.18111 0.15398 0.334 0.0
C405 C 0.26659 0.21461 0.34177 0.0
C406 C 0.27862 0.19105 0.35557 0.0
C407 C 0.20467 0.10743 0.36179 0.0
H408 H 0.07958 1.01495 0.64863 0.0
C409 C 0.15767 0.06425 0.64746 0.0
H410 H 0.29499 0.14636 0.65791 0.0
H411 H 0.1431 0.20306 0.71592 0.0
H412 H 0.20679 0.36336 0.70578 0.0
H413 H 0.25929 0.39328 0.68094 0.0
H414 H 0.2472 0.26262 0.66605 0.0
C415 C 0.21743 0.09449 0.65903 0.0
C416 C 0.18007 0.07311 0.67378 0.0
C417 C 0.18883 0.15065 0.68245 0.0
C418 C 0.16 0.13379 0.69685 0.0
C419 C 0.16651 0.21207 0.70505 0.0
C420 C 0.20237 0.30454 0.69933 0.0
C421 C 0.23177 0.32133 0.68535 0.0
C422 C 0.22484 0.2456 0.67694 0.0
H423 H 0.24357 0.10165 0.72549 0.0
C424 C 0.16687 0.06215 0.72835 0.0
H425 H 1.02045 0.98329 0.72053 0.0
H426 H 0.15489 0.90848 0.6603 0.0
H427 H 0.08794 0.74714 0.67037 0.0
H428 H 0.03617 0.71769 0.69525 0.0
H429 H 0.05163 0.84975 0.71028 0.0
C430 C 0.09763 0.0231 0.71798 0.0
C431 C 0.12412 0.03965 0.7027 0.0
C432 C 0.1126 0.96151 0.69395 0.0
C433 C 0.14128 0.97829 0.67951 0.0
C434 C 0.13243 0.89953 0.67122 0.0
C435 C 0.09451 0.8066 0.67689 0.0
C436 C 0.06543 0.79003 0.6909 0.0
C437 C 0.07455 0.86636 0.6994 0.0
loop_
_geom_bond_atom_site_label_1
_geom_bond_atom_site_label_2
_geom_bond_distance
_geom_bond_site_symmetry_2
_ccdc_geom_bond_type
Mg0 O7 2.141 . S
Mg0 O8 2.048 1_545 S
Mg0 O9 2.048 . S
Mg0 O12 2.141 . S
C1 O2 1.313 . S
C1 O8 1.195 1_455 S
O2 C1 1.313 . S
C3 O4 1.245 . S
C3 O12 1.289 1_455 S
O4 C3 1.245 . S
C5 O6 1.245 . S
C5 O7 1.289 1_455 S
O6 C5 1.245 . S
O7 Mg0 2.141 . S
O7 C5 1.289 1_655 S
O8 Mg0 2.048 1_565 S
O8 C1 1.195 1_655 S
O9 Mg0 2.048 . S
O9 C10 1.195 1_655 S
C10 O9 1.195 1_455 S
C10 O11 1.313 . S
O11 C10 1.313 . S
O12 Mg0 2.141 . S
O12 C3 1.289 1_655 S
Mg13 O20 2.141 . S
Mg13 O21 2.048 1_455 S
Mg13 O22 2.048 . S
Mg13 O25 2.141 . S
C14 O15 1.313 1_545 S
C14 O21 1.195 . S
O15 C14 1.313 1_565 S
C16 O17 1.245 1_545 S
C16 O25 1.289 . S
O17 C16 1.245 1_565 S
C18 O19 1.245 1_445 S
C18 O20 1.289 . S
O19 C18 1.245 1_665 S
O20 Mg13 2.141 . S
O20 C18 1.289 . S
O21 Mg13 2.048 1_655 S
O21 C14 1.195 . S
O22 Mg13 2.048 . S
O22 C23 1.195 . S
C23 O22 1.195 . S
C23 O24 1.313 1_445 S
O24 C23 1.313 1_665 S
O25 Mg13 2.141 . S
O25 C16 1.289 . S
Mg26 O33 2.141 . S
Mg26 O34 2.048 1_445 S
Mg26 O35 2.048 . S
Mg26 O38 2.141 . S
C27 O28 1.313 . S
C27 O34 1.195 . S
O28 C27 1.313 . S
C29 O30 1.245 . S
C29 O38 1.289 . S
O30 C29 1.245 . S
C31 O32 1.245 1_545 S
C31 O33 1.289 . S
O32 C31 1.245 1_565 S
O33 Mg26 2.141 . S
O33 C31 1.289 . S
O34 Mg26 2.048 1_665 S
O34 C27 1.195 . S
O35 Mg26 2.048 . S
O35 C36 1.195 . S
C36 O35 1.195 . S
C36 O37 1.313 1_545 S
O37 C36 1.313 1_565 S
O38 Mg26 2.141 . S
O38 C29 1.289 . S
Mg39 O46 2.141 . S
Mg39 O47 2.048 . S
Mg39 O48 2.048 . S
Mg39 O51 2.141 1_455 S
C40 O41 1.313 1_545 S
C40 O47 1.195 . S
O41 C40 1.313 1_565 S
C42 O43 1.245 1_545 S
C42 O51 1.289 . S
O43 C42 1.245 1_565 S
C44 O45 1.245 1_445 S
C44 O46 1.289 . S
O45 C44 1.245 1_665 S
O46 Mg39 2.141 . S
O46 C44 1.289 . S
O47 Mg39 2.048 . S
O47 C40 1.195 . S
O48 Mg39 2.048 . S
O48 C49 1.195 . S
C49 O48 1.195 . S
C49 O50 1.313 1_545 S
O50 C49 1.313 1_565 S
O51 Mg39 2.141 1_655 S
O51 C42 1.289 . S
Mg52 O59 2.141 . S
Mg52 O60 2.048 1_655 S
Mg52 O61 2.048 . S
Mg52 O64 2.141 1_545 S
C53 O54 1.313 . S
C53 O60 1.195 . S
O54 C53 1.313 . S
C55 O56 1.245 . S
C55 O64 1.289 . S
O56 C55 1.245 . S
C57 O58 1.245 1_545 S
C57 O59 1.289 1_455 S
O58 C57 1.245 1_565 S
O59 Mg52 2.141 . S
O59 C57 1.289 1_655 S
O60 Mg52 2.048 1_455 S
O60 C53 1.195 . S
O61 Mg52 2.048 . S
O61 C62 1.195 1_655 S
C62 O61 1.195 1_455 S
C62 O63 1.313 . S
O63 C62 1.313 . S
O64 Mg52 2.141 1_565 S
O64 C55 1.289 . S
Mg65 O72 2.141 . S
Mg65 O73 2.048 1_565 S
Mg65 O74 2.048 . S
Mg65 O77 2.141 . S
C66 O67 1.313 . S
C66 O73 1.195 1_455 S
O67 C66 1.313 . S
C68 O69 1.245 . S
C68 O77 1.289 1_455 S
O69 C68 1.245 . S
C70 O71 1.245 . S
C70 O72 1.289 1_445 S
O71 C70 1.245 . S
O72 Mg65 2.141 . S
O72 C70 1.289 1_665 S
O73 Mg65 2.048 1_545 S
O73 C66 1.195 1_655 S
O74 Mg65 2.048 . S
O74 C75 1.195 1_665 S
C75 O74 1.195 1_445 S
C75 O76 1.313 . S
O76 C75 1.313 . S
O77 Mg65 2.141 . S
O77 C68 1.289 1_655 S
H78 C79 0.951 . S
C79 H78 0.951 . S
C79 C85 1.265 1_455 S
H80 C85 0.950 . S
H81 C89 0.949 . S
H82 C90 0.950 . S
H83 C91 0.951 . S
H84 C92 0.951 . S
C85 C79 1.265 1_655 S
C85 H80 0.950 . S
C85 C86 1.478 1_655 S
C86 C85 1.478 1_455 S
C86 C87 1.397 1_455 S
C86 C103 1.394 . S
C87 C86 1.397 1_655 S
C87 C88 1.438 . S
C87 C92 1.429 . S
C88 C87 1.438 . S
C88 C89 1.428 . S
C88 C101 1.394 1_655 S
C89 H81 0.949 . S
C89 C88 1.428 . S
C89 C90 1.345 . S
C90 H82 0.950 . S
C90 C89 1.345 . S
C90 C91 1.424 . S
C91 H83 0.951 . S
C91 C90 1.424 . S
C91 C92 1.347 . S
C92 H84 0.951 . S
C92 C87 1.429 . S
C92 C91 1.347 . S
H93 C94 0.951 1_655 S
C94 H93 0.951 1_455 S
C94 C100 1.265 . S
H95 C100 0.950 . S
H96 C104 0.949 . S
H97 C105 0.950 . S
H98 C106 0.951 . S
H99 C107 0.951 . S
C100 C94 1.265 . S
C100 H95 0.950 . S
C100 C101 1.478 . S
C101 C88 1.394 1_455 S
C101 C100 1.478 . S
C101 C102 1.397 . S
C102 C101 1.397 . S
C102 C103 1.438 . S
C102 C107 1.429 . S
C103 C86 1.394 . S
C103 C102 1.438 . S
C103 C104 1.428 . S
C104 H96 0.949 . S
C104 C103 1.428 . S
C104 C105 1.345 . S
C105 H97 0.950 . S
C105 C104 1.345 . S
C105 C106 1.424 . S
C106 H98 0.951 . S
C106 C105 1.424 . S
C106 C107 1.347 . S
C107 H99 0.951 . S
C107 C102 1.429 . S
C107 C106 1.347 . S
H108 C109 0.951 . S
C109 H108 0.951 . S
C109 C115 1.265 . S
H110 C115 0.950 . S
H111 C119 0.949 . S
H112 C120 0.950 . S
H113 C121 0.951 . S
H114 C122 0.951 . S
C115 C109 1.265 . S
C115 H110 0.950 . S
C115 C116 1.478 . S
C116 C115 1.478 . S
C116 C117 1.397 1_545 S
C116 C133 1.394 . S
C117 C116 1.397 1_565 S
C117 C118 1.438 . S
C117 C122 1.429 . S
C118 C117 1.438 . S
C118 C119 1.428 . S
C118 C131 1.394 1_565 S
C119 H111 0.949 . S
C119 C118 1.428 . S
C119 C120 1.345 . S
C120 H112 0.950 . S
C120 C119 1.345 . S
C120 C121 1.424 . S
C121 H113 0.951 . S
C121 C120 1.424 . S
C121 C122 1.347 . S
C122 H114 0.951 . S
C122 C117 1.429 . S
C122 C121 1.347 . S
H123 C124 0.951 . S
C124 H123 0.951 . S
C124 C130 1.265 . S
H125 C130 0.950 . S
H126 C134 0.949 . S
H127 C135 0.950 . S
H128 C136 0.951 . S
H129 C137 0.951 . S
C130 C124 1.265 . S
C130 H125 0.950 . S
C130 C131 1.478 . S
C131 C118 1.394 1_545 S
C131 C130 1.478 . S
C131 C132 1.397 . S
C132 C131 1.397 . S
C132 C133 1.438 . S
C132 C137 1.429 . S
C133 C116 1.394 . S
C133 C132 1.438 . S
C133 C134 1.428 . S
C134 H126 0.949 . S
C134 C133 1.428 . S
C134 C135 1.345 . S
C135 H127 0.950 . S
C135 C134 1.345 . S
C135 C136 1.424 . S
C136 H128 0.951 . S
C136 C135 1.424 . S
C136 C137 1.347 . S
C137 H129 0.951 . S
C137 C132 1.429 . S
C137 C136 1.347 . S
H138 C139 0.951 . S
C139 H138 0.951 . S
C139 C145 1.265 . S
H140 C145 0.950 . S
H141 C149 0.949 . S
H142 C150 0.950 . S
H143 C151 0.951 . S
H144 C152 0.951 . S
C145 C139 1.265 . S
C145 H140 0.950 . S
C145 C146 1.478 . S
C146 C145 1.478 . S
C146 C147 1.397 . S
C146 C163 1.394 . S
C147 C146 1.397 . S
C147 C148 1.438 . S
C147 C152 1.429 . S
C148 C147 1.438 . S
C148 C149 1.428 . S
C148 C161 1.394 . S
C149 H141 0.949 . S
C149 C148 1.428 . S
C149 C150 1.345 . S
C150 H142 0.950 . S
C150 C149 1.345 . S
C150 C151 1.424 . S
C151 H143 0.951 . S
C151 C150 1.424 . S
C151 C152 1.347 . S
C152 H144 0.951 . S
C152 C147 1.429 . S
C152 C151 1.347 . S
H153 C154 0.951 . S
C154 H153 0.951 . S
C154 C160 1.265 . S
H155 C160 0.950 . S
H156 C164 0.949 . S
H157 C165 0.950 . S
H158 C166 0.951 . S
H159 C167 0.951 . S
C160 C154 1.265 . S
C160 H155 0.950 . S
C160 C161 1.478 . S
C161 C148 1.394 . S
C161 C160 1.478 . S
C161 C162 1.397 . S
C162 C161 1.397 . S
C162 C163 1.438 . S
C162 C167 1.429 . S
C163 C146 1.394 . S
C163 C162 1.438 . S
C163 C164 1.428 . S
C164 H156 0.949 . S
C164 C163 1.428 . S
C164 C165 1.345 . S
C165 H157 0.950 . S
C165 C164 1.345 . S
C165 C166 1.424 . S
C166 H158 0.951 . S
C166 C165 1.424 . S
C166 C167 1.347 . S
C167 H159 0.951 . S
C167 C162 1.429 . S
C167 C166 1.347 . S
H168 C169 0.951 . S
C169 H168 0.951 . S
C169 C175 1.265 . S
H170 C175 0.950 . S
H171 C179 0.949 . S
H172 C180 0.950 . S
H173 C181 0.951 . S
H174 C182 0.951 . S
C175 C169 1.265 . S
C175 H170 0.950 . S
C175 C176 1.478 . S
C176 C175 1.478 . S
C176 C177 1.397 1_545 S
C176 C193 1.394 . S
C177 C176 1.397 1_565 S
C177 C178 1.438 . S
C177 C182 1.429 . S
C178 C177 1.438 . S
C178 C179 1.428 . S
C178 C191 1.394 1_565 S
C179 H171 0.949 . S
C179 C178 1.428 . S
C179 C180 1.345 . S
C180 H172 0.950 . S
C180 C179 1.345 . S
C180 C181 1.424 . S
C181 H173 0.951 . S
C181 C180 1.424 . S
C181 C182 1.347 . S
C182 H174 0.951 . S
C182 C177 1.429 . S
C182 C181 1.347 . S
H183 C184 0.951 . S
C184 H183 0.951 . S
C184 C190 1.265 . S
H185 C190 0.950 . S
H186 C194 0.949 . S
H187 C195 0.950 . S
H188 C196 0.951 . S
H189 C197 0.951 . S
C190 C184 1.265 . S
C190 H185 0.950 . S
C190 C191 1.478 . S
C191 C178 1.394 1_545 S
C191 C190 1.478 . S
C191 C192 1.397 . S
C192 C191 1.397 . S
C192 C193 1.438 . S
C192 C197 1.429 . S
C193 C176 1.394 . S
C193 C192 1.438 . S
C193 C194 1.428 . S
C194 H186 0.949 . S
C194 C193 1.428 . S
C194 C195 1.345 . S
C195 H187 0.950 . S
C195 C194 1.345 . S
C195 C196 1.424 . S
C196 H188 0.951 . S
C196 C195 1.424 . S
C196 C197 1.347 . S
C197 H189 0.951 . S
C197 C192 1.429 . S
C197 C196 1.347 . S
H198 C199 0.951 . S
C199 H198 0.951 . S
C199 C205 1.265 . S
H200 C205 0.950 . S
H201 C209 0.949 . S
H202 C210 0.950 . S
H203 C211 0.951 . S
H204 C212 0.951 . S
C205 C199 1.265 . S
C205 H200 0.950 . S
C205 C206 1.478 . S
C206 C205 1.478 . S
C206 C207 1.397 . S
C206 C223 1.394 . S
C207 C206 1.397 . S
C207 C208 1.438 . S
C207 C212 1.429 . S
C208 C207 1.438 . S
C208 C209 1.428 . S
C208 C221 1.394 . S
C209 H201 0.949 . S
C209 C208 1.428 . S
C209 C210 1.345 . S
C210 H202 0.950 . S
C210 C209 1.345 . S
C210 C211 1.424 . S
C211 H203 0.951 . S
C211 C210 1.424 . S
C211 C212 1.347 . S
C212 H204 0.951 . S
C212 C207 1.429 . S
C212 C211 1.347 . S
H213 C214 0.951 . S
C214 H213 0.951 . S
C214 C220 1.265 . S
H215 C220 0.950 . S
H216 C224 0.949 . S
H217 C225 0.950 . S
H218 C226 0.951 . S
H219 C227 0.951 . S
C220 C214 1.265 . S
C220 H215 0.950 . S
C220 C221 1.478 . S
C221 C208 1.394 . S
C221 C220 1.478 . S
C221 C222 1.397 . S
C222 C221 1.397 . S
C222 C223 1.438 . S
C222 C227 1.429 . S
C223 C206 1.394 . S
C223 C222 1.438 . S
C223 C224 1.428 . S
C224 H216 0.949 . S
C224 C223 1.428 . S
C224 C225 1.345 . S
C225 H217 0.950 . S
C225 C224 1.345 . S
C225 C226 1.424 . S
C226 H218 0.951 . S
C226 C225 1.424 . S
C226 C227 1.347 . S
C227 H219 0.951 . S
C227 C222 1.429 . S
C227 C226 1.347 . S
H228 C229 0.951 . S
C229 H228 0.951 . S
C229 C235 1.265 . S
H230 C235 0.950 1_655 S
H231 C239 0.949 . S
H232 C240 0.950 . S
H233 C241 0.951 . S
H234 C242 0.951 . S
C235 C229 1.265 . S
C235 H230 0.950 1_455 S
C235 C236 1.478 . S
C236 C235 1.478 . S
C236 C237 1.397 1_455 S
C236 C253 1.394 . S
C237 C236 1.397 1_655 S
C237 C238 1.438 . S
C237 C242 1.429 . S
C238 C237 1.438 . S
C238 C239 1.428 . S
C238 C251 1.394 1_655 S
C239 H231 0.949 . S
C239 C238 1.428 . S
C239 C240 1.345 . S
C240 H232 0.950 . S
C240 C239 1.345 . S
C240 C241 1.424 . S
C241 H233 0.951 . S
C241 C240 1.424 . S
C241 C242 1.347 . S
C242 H234 0.951 . S
C242 C237 1.429 . S
C242 C241 1.347 . S
H243 C244 0.951 1_655 S
C244 H243 0.951 1_455 S
C244 C250 1.265 . S
H245 C250 0.950 . S
H246 C254 0.949 . S
H247 C255 0.950 . S
H248 C256 0.951 . S
H249 C257 0.951 . S
C250 C244 1.265 . S
C250 H245 0.950 . S
C250 C251 1.478 . S
C251 C238 1.394 1_455 S
C251 C250 1.478 . S
C251 C252 1.397 . S
C252 C251 1.397 . S
C252 C253 1.438 . S
C252 C257 1.429 . S
C253 C236 1.394 . S
C253 C252 1.438 . S
C253 C254 1.428 . S
C254 H246 0.949 . S
C254 C253 1.428 . S
C254 C255 1.345 . S
C255 H247 0.950 . S
C255 C254 1.345 . S
C255 C256 1.424 . S
C256 H248 0.951 . S
C256 C255 1.424 . S
C256 C257 1.347 . S
C257 H249 0.951 . S
C257 C252 1.429 . S
C257 C256 1.347 . S
H258 C259 0.951 . S
C259 H258 0.951 . S
C259 C265 1.256 1_455 S
H260 C265 0.962 . S
H261 C269 0.949 . S
H262 C270 0.950 . S
H263 C271 0.951 . S
H264 C272 0.951 . S
C265 C259 1.256 1_655 S
C265 H260 0.962 . S
C265 C266 1.475 1_655 S
C266 C265 1.475 1_455 S
C266 C267 1.397 . S
C266 C283 1.394 1_545 S
C267 C266 1.397 . S
C267 C268 1.438 . S
C267 C272 1.429 . S
C268 C267 1.438 . S
C268 C269 1.428 . S
C268 C281 1.394 . S
C269 H261 0.949 . S
C269 C268 1.428 . S
C269 C270 1.345 . S
C270 H262 0.950 . S
C270 C269 1.345 . S
C270 C271 1.424 . S
C271 H263 0.951 . S
C271 C270 1.424 . S
C271 C272 1.347 . S
C272 H264 0.951 . S
C272 C267 1.429 . S
C272 C271 1.347 . S
H273 C274 0.951 1_655 S
C274 H273 0.951 1_455 S
C274 C280 1.265 . S
H275 C280 0.950 . S
H276 C284 0.949 . S
H277 C285 0.950 . S
H278 C286 0.951 1_655 S
H279 C287 0.951 . S
C280 C274 1.265 . S
C280 H275 0.950 . S
C280 C281 1.478 . S
C281 C268 1.394 . S
C281 C280 1.478 . S
C281 C282 1.397 1_545 S
C282 C281 1.397 1_565 S
C282 C283 1.438 . S
C282 C287 1.429 . S
C283 C266 1.394 1_565 S
C283 C282 1.438 . S
C283 C284 1.428 1_455 S
C284 H276 0.949 . S
C284 C283 1.428 1_655 S
C284 C285 1.345 . S
C285 H277 0.950 . S
C285 C284 1.345 . S
C285 C286 1.424 1_655 S
C286 H278 0.951 1_455 S
C286 C285 1.424 1_455 S
C286 C287 1.347 . S
C287 H279 0.951 . S
C287 C282 1.429 . S
C287 C286 1.347 . S
H288 C289 0.961 . S
C289 H288 0.961 . S
C289 C295 1.265 1_545 S
H290 C295 0.950 . S
H291 C299 0.949 . S
H292 C300 0.950 . S
H293 C301 0.951 . S
H294 C302 0.951 . S
C295 C289 1.265 1_565 S
C295 H290 0.950 . S
C295 C296 1.478 1_565 S
C296 C295 1.478 1_545 S
C296 C297 1.397 1_445 S
C296 C313 1.394 . S
C297 C296 1.397 1_665 S
C297 C298 1.438 . S
C297 C302 1.429 . S
C298 C297 1.438 . S
C298 C299 1.428 . S
C298 C311 1.394 1_665 S
C299 H291 0.949 . S
C299 C298 1.428 . S
C299 C300 1.345 . S
C300 H292 0.950 . S
C300 C299 1.345 . S
C300 C301 1.424 . S
C301 H293 0.951 . S
C301 C300 1.424 . S
C301 C302 1.347 . S
C302 H294 0.951 . S
C302 C297 1.429 . S
C302 C301 1.347 . S
H303 C304 0.951 1_565 S
C304 H303 0.951 1_545 S
C304 C310 1.265 . S
H305 C310 0.950 . S
H306 C314 0.949 . S
H307 C315 0.950 . S
H308 C316 0.951 . S
H309 C317 0.951 . S
C310 C304 1.265 . S
C310 H305 0.950 . S
C310 C311 1.478 . S
C311 C298 1.394 1_445 S
C311 C310 1.478 . S
C311 C312 1.397 . S
C312 C311 1.397 . S
C312 C313 1.438 . S
C312 C317 1.429 . S
C313 C296 1.394 . S
C313 C312 1.438 . S
C313 C314 1.428 . S
C314 H306 0.949 . S
C314 C313 1.428 . S
C314 C315 1.345 . S
C315 H307 0.950 . S
C315 C314 1.345 . S
C315 C316 1.424 . S
C316 H308 0.951 . S
C316 C315 1.424 . S
C316 C317 1.347 . S
C317 H309 0.951 . S
C317 C312 1.429 . S
C317 C316 1.347 . S
H318 C319 0.951 1_655 S
C319 H318 0.951 1_455 S
C319 C325 1.265 . S
H320 C325 0.950 . S
H321 C329 0.949 . S
H322 C330 0.950 . S
H323 C331 0.951 . S
H324 C332 0.951 . S
C325 C319 1.265 . S
C325 H320 0.950 . S
C325 C326 1.478 . S
C326 C325 1.478 . S
C326 C327 1.397 . S
C326 C343 1.394 1_445 S
C327 C326 1.397 . S
C327 C328 1.438 . S
C327 C332 1.429 . S
C328 C327 1.438 . S
C328 C329 1.428 . S
C328 C341 1.389 1_455 S
C329 H321 0.949 . S
C329 C328 1.428 . S
C329 C330 1.345 . S
C330 H322 0.950 . S
C330 C329 1.345 . S
C330 C331 1.424 . S
C331 H323 0.951 . S
C331 C330 1.424 . S
C331 C332 1.347 . S
C332 H324 0.951 . S
C332 C327 1.429 . S
C332 C331 1.347 . S
H333 C334 0.951 . S
C334 H333 0.951 . S
C334 C340 1.265 1_455 S
H335 C340 0.950 . S
H336 C344 0.949 . S
H337 C345 0.950 . S
H338 C346 0.951 . S
H339 C347 0.951 . S
C340 C334 1.265 1_655 S
C340 H335 0.950 . S
C340 C341 1.482 . S
C341 C328 1.389 1_655 S
C341 C340 1.482 . S
C341 C342 1.398 1_545 S
C342 C341 1.398 1_565 S
C342 C343 1.438 . S
C342 C347 1.429 . S
C343 C326 1.394 1_665 S
C343 C342 1.438 . S
C343 C344 1.428 . S
C344 H336 0.949 . S
C344 C343 1.428 . S
C344 C345 1.345 . S
C345 H337 0.950 . S
C345 C344 1.345 . S
C345 C346 1.424 . S
C346 H338 0.951 . S
C346 C345 1.424 . S
C346 C347 1.347 . S
C347 H339 0.951 . S
C347 C342 1.429 . S
C347 C346 1.347 . S
H348 C349 0.951 1_655 S
C349 H348 0.951 1_455 S
C349 C355 1.265 . S
H350 C355 0.950 . S
H351 C359 0.949 1_655 S
H352 C360 0.950 . S
H353 C361 0.951 . S
H354 C362 0.951 . S
C355 C349 1.265 . S
C355 H350 0.950 . S
C355 C356 1.478 . S
C356 C355 1.478 . S
C356 C357 1.397 1_545 S
C356 C373 1.394 . S
C357 C356 1.397 1_565 S
C357 C358 1.438 1_554 S
C357 C362 1.429 . S
C358 C357 1.438 1_556 S
C358 C359 1.428 . S
C358 C371 1.394 1_465 S
C359 H351 0.949 1_455 S
C359 C358 1.428 . S
C359 C360 1.345 . S
C360 H352 0.950 . S
C360 C359 1.345 . S
C360 C361 1.424 1_556 S
C361 H353 0.951 . S
C361 C360 1.424 1_554 S
C361 C362 1.347 . S
C362 H354 0.951 . S
C362 C357 1.429 . S
C362 C361 1.347 . S
H363 C364 0.951 . S
C364 H363 0.951 . S
C364 C370 1.265 1_455 S
H365 C370 0.950 . S
H366 C374 0.949 . S
H367 C375 0.950 . S
H368 C376 0.951 . S
H369 C377 0.951 . S
C370 C364 1.265 1_655 S
C370 H365 0.950 . S
C370 C371 1.478 . S
C371 C358 1.394 1_645 S
C371 C370 1.478 . S
C371 C372 1.397 . S
C372 C371 1.397 . S
C372 C373 1.438 1_656 S
C372 C377 1.429 . S
C373 C356 1.394 . S
C373 C372 1.438 1_454 S
C373 C374 1.428 . S
C374 H366 0.949 . S
C374 C373 1.428 . S
C374 C375 1.345 1_455 S
C375 H367 0.950 . S
C375 C374 1.345 1_655 S
C375 C376 1.424 1_554 S
C376 H368 0.951 . S
C376 C375 1.424 1_556 S
C376 C377 1.347 . S
C377 H369 0.951 . S
C377 C372 1.429 . S
C377 C376 1.347 . S
H378 C379 0.951 . S
C379 H378 0.951 . S
C379 C385 1.265 . S
H380 C385 0.950 1_655 S
H381 C389 0.949 . S
H382 C390 0.950 . S
H383 C391 0.951 . S
H384 C392 0.951 . S
C385 C379 1.265 . S
C385 H380 0.950 1_455 S
C385 C386 1.478 . S
C386 C385 1.478 . S
C386 C387 1.397 1_445 S
C386 C403 1.394 . S
C387 C386 1.397 1_665 S
C387 C388 1.438 . S
C387 C392 1.429 . S
C388 C387 1.438 . S
C388 C389 1.428 . S
C388 C401 1.394 1_665 S
C389 H381 0.949 . S
C389 C388 1.428 . S
C389 C390 1.345 . S
C390 H382 0.950 . S
C390 C389 1.345 . S
C390 C391 1.424 . S
C391 H383 0.951 . S
C391 C390 1.424 . S
C391 C392 1.347 . S
C392 H384 0.951 . S
C392 C387 1.429 . S
C392 C391 1.347 . S
H393 C394 0.951 1_655 S
C394 H393 0.951 1_455 S
C394 C400 1.265 . S
H395 C400 0.950 . S
H396 C404 0.949 . S
H397 C405 0.950 . S
H398 C406 0.951 . S
H399 C407 0.951 . S
C400 C394 1.265 . S
C400 H395 0.950 . S
C400 C401 1.478 . S
C401 C388 1.394 1_445 S
C401 C400 1.478 . S
C401 C402 1.397 . S
C402 C401 1.397 . S
C402 C403 1.438 . S
C402 C407 1.429 . S
C403 C386 1.394 . S
C403 C402 1.438 . S
C403 C404 1.428 . S
C404 H396 0.949 . S
C404 C403 1.428 . S
C404 C405 1.345 . S
C405 H397 0.950 . S
C405 C404 1.345 . S
C405 C406 1.424 . S
C406 H398 0.951 . S
C406 C405 1.424 . S
C406 C407 1.347 . S
C407 H399 0.951 . S
C407 C402 1.429 . S
C407 C406 1.347 . S
H408 C409 0.951 1_655 S
C409 H408 0.951 1_455 S
C409 C415 1.265 . S
H410 C415 0.950 . S
H411 C419 0.949 . S
H412 C420 0.950 . S
H413 C421 0.951 . S
H414 C422 0.951 . S
C415 C409 1.265 . S
C415 H410 0.950 . S
C415 C416 1.478 . S
C416 C415 1.478 . S
C416 C417 1.397 . S
C416 C433 1.394 1_445 S
C417 C416 1.397 . S
C417 C418 1.438 . S
C417 C422 1.429 . S
C418 C417 1.438 . S
C418 C419 1.428 . S
C418 C431 1.394 . S
C419 H411 0.949 . S
C419 C418 1.428 . S
C419 C420 1.345 . S
C420 H412 0.950 . S
C420 C419 1.345 . S
C420 C421 1.424 . S
C421 H413 0.951 . S
C421 C420 1.424 . S
C421 C422 1.347 . S
C422 H414 0.951 . S
C422 C417 1.429 . S
C422 C421 1.347 . S
H423 C424 0.951 . S
C424 H423 0.951 . S
C424 C430 1.265 1_455 S
H425 C430 0.950 . S
H426 C434 0.949 . S
H427 C435 0.950 . S
H428 C436 0.951 . S
H429 C437 0.951 . S
C430 C424 1.265 1_655 S
C430 H425 0.950 . S
C430 C431 1.478 1_655 S
C431 C418 1.394 . S
C431 C430 1.478 1_455 S
C431 C432 1.397 1_445 S
C432 C431 1.397 1_665 S
C432 C433 1.438 . S
C432 C437 1.429 . S
C433 C416 1.394 1_665 S
C433 C432 1.438 . S
C433 C434 1.428 . S
C434 H426 0.949 . S
C434 C433 1.428 . S
C434 C435 1.345 . S
C435 H427 0.950 . S
C435 C434 1.345 . S
C435 C436 1.424 . S
C436 H428 0.951 . S
C436 C435 1.424 . S
C436 C437 1.347 . S
C437 H429 0.951 . S
C437 C432 1.429 . S
C437 C436 1.347 . S
C79 C1 1.466 . S
C94 C3 1.499 . S
C109 C16 1.476 . S
C124 C14 1.492 . S
C139 C27 1.499 . S
C154 C29 1.457 . S
C169 C40 1.488 . S
C184 C42 1.482 . S
C199 C53 1.497 . S
C214 C55 1.457 . S
C229 C66 1.467 . S
C244 C68 1.490 . S
C259 C70 1.459 . S
C274 C5 1.495 . S
C289 C44 1.489 . S
C304 C18 1.463 . S
C319 C31 1.500 . S
C334 C57 1.459 . S
C349 C10 1.500 . S
C364 C62 1.463 . S
C379 C75 1.471 . S
C394 C23 1.474 . S
C409 C49 1.491 . S
C424 C36 1.476 . S
