# Generated by pormake.
# Topology ske, (6)-cn, num edge types: 1
# Building blocks:
#     Node 0, Type 0, BuildingBlock: BETGAK_clean_sbu_0, # of connection points: 6
#     Node 1, Type 0, BuildingBlock: BETGAK_clean_sbu_0, # of connection points: 6
#     Node 2, Type 0, BuildingBlock: BETGAK_clean_sbu_0, # of connection points: 6
#     Node 3, Type 0, BuildingBlock: BETGAK_clean_sbu_0, # of connection points: 6
#     Node 4, Type 0, BuildingBlock: BETGAK_clean_sbu_0, # of connection points: 6
#     Node 5, Type 0, BuildingBlock: BETGAK_clean_sbu_0, # of connection points: 6
#     Node 6, Type 0, BuildingBlock: BETGAK_clean_sbu_0, # of connection points: 6
#     Node 7, Type 0, BuildingBlock: BETGAK_clean_sbu_0, # of connection points: 6
#     Edge 8, Type (0, 0), BuildingBlock: KIFKEQ_clean_linker_1, # of connection points: 2
#     Edge 9, Type (0, 0), BuildingBlock: KIFKEQ_clean_linker_1, # of connection points: 2
#     Edge 10, Type (0, 0), BuildingBlock: KIFKEQ_clean_linker_1, # of connection points: 2
#     Edge 11, Type (0, 0), BuildingBlock: KIFKEQ_clean_linker_1, # of connection points: 2
#     Edge 12, Type (0, 0), BuildingBlock: KIFKEQ_clean_linker_1, # of connection points: 2
#     Edge 13, Type (0, 0), BuildingBlock: KIFKEQ_clean_linker_1, # of connection points: 2
#     Edge 14, Type (0, 0), BuildingBlock: KIFKEQ_clean_linker_1, # of connection points: 2
#     Edge 15, Type (0, 0), BuildingBlock: KIFKEQ_clean_linker_1, # of connection points: 2
#     Edge 16, Type (0, 0), BuildingBlock: KIFKEQ_clean_linker_1, # of connection points: 2
#     Edge 17, Type (0, 0), BuildingBlock: KIFKEQ_clean_linker_1, # of connection points: 2
#     Edge 18, Type (0, 0), BuildingBlock: KIFKEQ_clean_linker_1, # of connection points: 2
#     Edge 19, Type (0, 0), BuildingBlock: KIFKEQ_clean_linker_1, # of connection points: 2
#     Edge 20, Type (0, 0), BuildingBlock: KIFKEQ_clean_linker_1, # of connection points: 2
#     Edge 21, Type (0, 0), BuildingBlock: KIFKEQ_clean_linker_1, # of connection points: 2
#     Edge 22, Type (0, 0), BuildingBlock: KIFKEQ_clean_linker_1, # of connection points: 2
#     Edge 23, Type (0, 0), BuildingBlock: KIFKEQ_clean_linker_1, # of connection points: 2
#     Edge 24, Type (0, 0), BuildingBlock: KIFKEQ_clean_linker_1, # of connection points: 2
#     Edge 25, Type (0, 0), BuildingBlock: KIFKEQ_clean_linker_1, # of connection points: 2
#     Edge 26, Type (0, 0), BuildingBlock: KIFKEQ_clean_linker_1, # of connection points: 2
#     Edge 27, Type (0, 0), BuildingBlock: KIFKEQ_clean_linker_1, # of connection points: 2
#     Edge 28, Type (0, 0), BuildingBlock: KIFKEQ_clean_linker_1, # of connection points: 2
#     Edge 29, Type (0, 0), BuildingBlock: KIFKEQ_clean_linker_1, # of connection points: 2
#     Edge 30, Type (0, 0), BuildingBlock: KIFKEQ_clean_linker_1, # of connection points: 2
#     Edge 31, Type (0, 0), BuildingBlock: KIFKEQ_clean_linker_1, # of connection points: 2
# Relax obj value: 0.199
# Max RMSD: 0.203
# Mean RMSD: 0.196
data_MOF--net-ske--node1-BETGAK_clean_sbu_0--edge1-KIFKEQ_clean_linker_1
_symmetry_space_group_name_H-M    P1
_symmetry_Int_Tables_number       1
_symmetry_cell_setting            triclinic
loop_
_symmetry_equiv_pos_as_xyz
'x, y, z'
_cell_length_a     102.83684
_cell_length_b     29.224049
_cell_length_c     15.641519
_cell_angle_alpha  90.02767
_cell_angle_beta   90.098305
_cell_angle_gamma 84.150969
loop_
_atom_site_label
_atom_site_type_symbol
_atom_site_fract_x
_atom_site_fract_y
_atom_site_fract_z
_atom_type_partial_charge
La0 La 0.1711 0.28306 0.53192 0.0
La1 La 0.14246 0.27927 0.53855 0.0
C2 C 0.19425 0.30445 0.54634 0.0
C3 C 0.2067 0.29343 0.59388 0.0
C4 C 0.21491 0.25295 0.57684 0.0
C5 C 0.22749 0.24626 0.61205 0.0
C6 C 0.2322 0.27985 0.66506 0.0
C7 C 0.2238 0.31953 0.68462 0.0
C8 C 0.21123 0.32631 0.64911 0.0
C9 C 0.16395 0.19917 0.51305 0.0
C10 C 0.15678 0.27529 0.71359 0.0
C11 C 0.11876 0.26748 0.52001 0.0
C12 C 0.10465 0.26255 0.5081 0.0
C13 C 0.09609 0.30066 0.48252 0.0
C14 C 0.0827 0.29724 0.47409 0.0
C15 C 0.07745 0.25552 0.49066 0.0
C16 C 0.08605 0.21718 0.51566 0.0
C17 C 0.0995 0.22068 0.52434 0.0
C18 C 0.15035 0.36193 0.56122 0.0
C19 C 0.15663 0.28334 0.36102 0.0
O20 O 0.19068 0.27348 0.49327 0.0
O21 O 0.18427 0.32554 0.58722 0.0
O22 O 0.17411 0.21377 0.47785 0.0
O23 O 0.15885 0.22975 0.56281 0.0
O24 O 0.16749 0.28315 0.671 0.0
O25 O 0.14582 0.2682 0.67383 0.0
O26 O 0.12372 0.30522 0.49837 0.0
O27 O 0.12729 0.23535 0.55115 0.0
O28 O 0.14088 0.34624 0.60266 0.0
O29 O 0.1548 0.33225 0.50764 0.0
O30 O 0.14756 0.26425 0.4043 0.0
O31 O 0.16576 0.30325 0.40201 0.0
H32 H 0.21181 0.22694 0.53421 0.0
H33 H 0.23362 0.21498 0.59666 0.0
H34 H 0.22713 0.34631 0.72452 0.0
H35 H 0.20521 0.35813 0.66246 0.0
H36 H 0.09971 0.33355 0.47013 0.0
H37 H 0.07641 0.32776 0.45637 0.0
H38 H 0.0824 0.18436 0.52811 0.0
H39 H 0.10585 0.19069 0.54411 0.0
La40 La 0.88592 0.26517 0.54916 0.0
La41 La 0.91464 0.27398 0.55661 0.0
C42 C 0.86317 0.2397 0.56094 0.0
C43 C 0.8505 0.24981 0.60599 0.0
C44 C 0.84224 0.29019 0.58907 0.0
C45 C 0.82956 0.29619 0.62268 0.0
C46 C 0.82482 0.26202 0.67401 0.0
C47 C 0.83326 0.22237 0.69326 0.0
C48 C 0.84592 0.21627 0.65931 0.0
C49 C 0.89197 0.35149 0.53868 0.0
C50 C 0.89958 0.27471 0.72879 0.0
C51 C 0.93761 0.29793 0.54944 0.0
C52 C 0.95126 0.28291 0.5232 0.0
C53 C 0.95914 0.25004 0.57112 0.0
C54 C 0.9726 0.24221 0.5559 0.0
C55 C 0.97855 0.26704 0.4924 0.0
C56 C 0.97054 0.29831 0.44181 0.0
C57 C 0.95708 0.3063 0.45735 0.0
C58 C 0.90848 0.18743 0.56328 0.0
C59 C 0.90064 0.26833 0.37675 0.0
O60 O 0.86652 0.2702 0.50625 0.0
O61 O 0.87322 0.22125 0.60489 0.0
O62 O 0.88154 0.33682 0.50726 0.0
O63 O 0.89766 0.31981 0.58366 0.0
O64 O 0.89007 0.2574 0.68652 0.0
O65 O 0.909 0.29279 0.68734 0.0
O66 O 0.93292 0.2767 0.61411 0.0
O67 O 0.92877 0.30803 0.49025 0.0
O68 O 0.91885 0.20166 0.59625 0.0
O69 O 0.90293 0.2199 0.51982 0.0
O70 O 0.91024 0.28477 0.4199 0.0
O71 O 0.89117 0.24972 0.41696 0.0
H72 H 0.8454 0.31672 0.54797 0.0
H73 H 0.82341 0.32746 0.60759 0.0
H74 H 0.82991 0.19515 0.73187 0.0
H75 H 0.85199 0.18454 0.67253 0.0
H76 H 0.95505 0.23166 0.62305 0.0
H77 H 0.9784 0.21827 0.59693 0.0
H78 H 0.9747 0.31749 0.39131 0.0
H79 H 0.9513 0.33212 0.41987 0.0
La80 La 0.14235 0.77904 0.52925 0.0
La81 La 0.17095 0.78355 0.53691 0.0
C82 C 0.11871 0.76621 0.54629 0.0
C83 C 0.10462 0.76094 0.55671 0.0
C84 C 0.0957 0.79999 0.56988 0.0
C85 C 0.08233 0.79597 0.57748 0.0
C86 C 0.07748 0.75272 0.57273 0.0
C87 C 0.08645 0.71351 0.55993 0.0
C88 C 0.09987 0.71761 0.55181 0.0
C89 C 0.15002 0.86198 0.50744 0.0
C90 C 0.15644 0.78383 0.70747 0.0
C91 C 0.19408 0.80528 0.52363 0.0
C92 C 0.20651 0.79496 0.47588 0.0
C93 C 0.21595 0.75996 0.50408 0.0
C94 C 0.22843 0.75457 0.46766 0.0
C95 C 0.23185 0.78416 0.40237 0.0
C96 C 0.22227 0.81818 0.3721 0.0
C97 C 0.20978 0.82365 0.40873 0.0
C98 C 0.16388 0.69949 0.55545 0.0
C99 C 0.15672 0.77553 0.35475 0.0
O100 O 0.12344 0.80478 0.56553 0.0
O101 O 0.12745 0.73381 0.51858 0.0
O102 O 0.14062 0.84605 0.46549 0.0
O103 O 0.15457 0.83235 0.5609 0.0
O104 O 0.14736 0.76477 0.664 0.0
O105 O 0.16559 0.80364 0.66673 0.0
O106 O 0.19057 0.77355 0.57518 0.0
O107 O 0.18403 0.82679 0.48373 0.0
O108 O 0.17395 0.71434 0.59154 0.0
O109 O 0.15884 0.72998 0.50525 0.0
O110 O 0.16739 0.78376 0.39769 0.0
O111 O 0.14579 0.76796 0.39415 0.0
H112 H 0.09902 0.83395 0.57311 0.0
H113 H 0.07576 0.82708 0.58538 0.0
H114 H 0.08312 0.67958 0.55683 0.0
H115 H 0.10652 0.6869 0.54179 0.0
H116 H 0.21386 0.73751 0.55627 0.0
H117 H 0.23548 0.72756 0.49168 0.0
H118 H 0.22459 0.84185 0.32249 0.0
H119 H 0.20282 0.85143 0.38641 0.0
La120 La 0.91487 0.77451 0.52022 0.0
La121 La 0.8862 0.76415 0.52649 0.0
C122 C 0.93769 0.79969 0.52916 0.0
C123 C 0.95137 0.78352 0.55219 0.0
C124 C 0.95805 0.7446 0.51315 0.0
C125 C 0.97155 0.73456 0.52435 0.0
C126 C 0.97867 0.76303 0.57511 0.0
C127 C 0.97185 0.8006 0.61748 0.0
C128 C 0.95836 0.81081 0.60579 0.0
C129 C 0.90912 0.68755 0.51478 0.0
C130 C 0.90068 0.77 0.69927 0.0
C131 C 0.8638 0.73593 0.51565 0.0
C132 C 0.85137 0.74185 0.46762 0.0
C133 C 0.84589 0.78514 0.43888 0.0
C134 C 0.83332 0.79029 0.40303 0.0
C135 C 0.82598 0.75229 0.39558 0.0
C136 C 0.83175 0.70879 0.4216 0.0
C137 C 0.84429 0.7037 0.45725 0.0
C138 C 0.89193 0.85084 0.53732 0.0
C139 C 0.89981 0.77471 0.34717 0.0
O140 O 0.93283 0.78137 0.46164 0.0
O141 O 0.92907 0.80644 0.59045 0.0
O142 O 0.91947 0.70207 0.48213 0.0
O143 O 0.90337 0.72001 0.55721 0.0
O144 O 0.91015 0.78702 0.656 0.0
O145 O 0.89139 0.75027 0.65928 0.0
O146 O 0.86655 0.77021 0.56388 0.0
O147 O 0.87413 0.71637 0.47629 0.0
O148 O 0.88156 0.8357 0.56865 0.0
O149 O 0.89771 0.8193 0.49252 0.0
O150 O 0.89027 0.75746 0.38897 0.0
O151 O 0.90927 0.79259 0.38895 0.0
H152 H 0.95295 0.7228 0.47145 0.0
H153 H 0.97648 0.705 0.4918 0.0
H154 H 0.97703 0.82347 0.65643 0.0
H155 H 0.95348 0.84124 0.6359 0.0
H156 H 0.85117 0.81515 0.44638 0.0
H157 H 0.82916 0.82432 0.38409 0.0
H158 H 0.82651 0.67865 0.41534 0.0
H159 H 0.84833 0.66999 0.47899 0.0
La160 La 0.67185 0.78795 0.03751 0.0
La161 La 0.64324 0.78317 0.04419 0.0
C162 C 0.69488 0.81041 0.0528 0.0
C163 C 0.70715 0.80046 0.10258 0.0
C164 C 0.71553 0.76004 0.08845 0.0
C165 C 0.72792 0.75406 0.1265 0.0
C166 C 0.73227 0.78836 0.17948 0.0
C167 C 0.7237 0.8281 0.19573 0.0
C168 C 0.71132 0.83413 0.15748 0.0
C169 C 0.66507 0.70311 1.02492 0.0
C170 C 0.6578 0.77921 0.2173 0.0
C171 C 0.61956 0.7696 0.03333 0.0
C172 C 0.60543 0.76379 1.03156 0.0
C173 C 0.59696 0.78927 0.0884 0.0
C174 C 0.58346 0.78801 0.08271 0.0
C175 C 0.57801 0.76145 1.01959 0.0
C176 C 0.58652 0.73457 0.96449 0.0
C177 C 0.60012 0.73571 0.97049 0.0
C178 C 0.65071 0.86744 0.0563 0.0
C179 C 0.65717 0.78872 0.86399 0.0
O180 O 0.69154 0.77842 1.00121 0.0
O181 O 0.68474 0.83188 0.09134 0.0
O182 O 0.67541 0.71728 0.99164 0.0
O183 O 0.65966 0.73455 0.07184 0.0
O184 O 0.66771 0.79407 0.17525 0.0
O185 O 0.64787 0.76403 0.17591 0.0
O186 O 0.62378 0.80454 0.07273 0.0
O187 O 0.62881 0.74112 0.99942 0.0
O188 O 0.64097 0.85304 0.09624 0.0
O189 O 0.6555 0.83584 1.00775 0.0
O190 O 0.64711 0.77534 0.90655 0.0
O191 O 0.66717 0.80384 0.90462 0.0
H192 H 0.71273 0.73356 0.04572 0.0
H193 H 0.73428 0.72326 0.11156 0.0
H194 H 0.72662 0.85494 0.23719 0.0
H195 H 0.70514 0.86582 0.16897 0.0
H196 H 0.60075 0.81091 0.13679 0.0
H197 H 0.57727 0.80822 0.12765 0.0
H198 H 0.58267 0.71384 0.91492 0.0
H199 H 0.60642 0.71584 0.92569 0.0
La200 La 0.38471 0.76092 1.02764 0.0
La201 La 0.41345 0.76106 0.03307 0.0
C202 C 0.36159 0.73967 0.04246 0.0
C203 C 0.34957 0.74734 0.09461 0.0
C204 C 0.34339 0.79166 0.11068 0.0
C205 C 0.33112 0.79739 0.1505 0.0
C206 C 0.32478 0.75895 0.1751 0.0
C207 C 0.33123 0.71474 0.16131 0.0
C208 C 0.34345 0.70907 0.12144 0.0
C209 C 0.39243 0.84417 1.0102 0.0
C210 C 0.3993 0.76673 0.20869 0.0
C211 C 0.43743 0.76836 1.01605 0.0
C212 C 0.45165 0.77071 1.0052 0.0
C213 C 0.45978 0.73109 0.98186 0.0
C214 C 0.47333 0.73182 0.97729 0.0
C215 C 0.47913 0.77227 0.99562 0.0
C216 C 0.47095 0.81223 1.0173 0.0
C217 C 0.45736 0.81142 1.02222 0.0
C218 C 0.40469 0.67951 0.05314 0.0
C219 C 0.399 0.76157 0.85581 0.0
O220 O 0.36486 0.77397 0.99623 0.0
O221 O 0.37177 0.71593 0.07666 0.0
O222 O 0.38192 0.83083 0.97711 0.0
O223 O 0.3976 0.81266 0.0583 0.0
O224 O 0.38842 0.76046 0.16641 0.0
O225 O 0.41035 0.77209 0.16867 0.0
O226 O 0.43184 0.7324 0.99128 0.0
O227 O 0.42937 0.8014 0.04868 0.0
O228 O 0.41426 0.6938 0.09579 0.0
O229 O 0.40052 0.71018 1.00057 0.0
O230 O 0.40844 0.77836 0.89958 0.0
O231 O 0.38955 0.74314 0.896 0.0
H232 H 0.34787 0.82188 0.09071 0.0
H233 H 0.32654 0.83194 0.16123 0.0
H234 H 0.32661 0.68434 0.17834 0.0
H235 H 0.34794 0.67455 0.10897 0.0
H236 H 0.4557 0.69904 0.96901 0.0
H237 H 0.47927 0.70019 0.96176 0.0
H238 H 0.47504 0.84419 1.03063 0.0
H239 H 0.45134 0.8425 0.04026 0.0
La240 La 0.64212 0.28318 1.02212 0.0
La241 La 0.67096 0.28987 1.02536 0.0
C242 C 0.61861 0.26871 0.04064 0.0
C243 C 0.60458 0.26253 0.05227 0.0
C244 C 0.59565 0.30061 0.07249 0.0
C245 C 0.58229 0.29609 0.07922 0.0
C246 C 0.57744 0.25325 0.06652 0.0
C247 C 0.58644 0.21493 0.0473 0.0
C248 C 0.59985 0.21957 0.04001 0.0
C249 C 0.64927 0.36732 1.00549 0.0
C250 C 0.65689 0.28516 0.19799 0.0
C251 C 0.69354 0.31615 1.01055 0.0
C252 C 0.70579 0.30891 0.96085 0.0
C253 C 0.71092 0.26508 0.93279 0.0
C254 C 0.72332 0.25879 0.8946 0.0
C255 C 0.7308 0.29618 0.88366 0.0
C256 C 0.7254 0.34016 0.90974 0.0
C257 C 0.71305 0.34637 0.94785 0.0
C258 C 0.66469 0.20461 0.03972 0.0
C259 C 0.65609 0.28319 0.84537 0.0
O260 O 0.62339 0.30613 0.06631 0.0
O261 O 0.62725 0.23818 1.00604 0.0
O262 O 0.63949 0.35222 0.96621 0.0
O263 O 0.65433 0.33634 0.05456 0.0
O264 O 0.64777 0.26619 0.15468 0.0
O265 O 0.66584 0.30612 0.15743 0.0
O266 O 0.69074 0.28256 0.06027 0.0
O267 O 0.68316 0.33625 0.97214 0.0
O268 O 0.6751 0.21942 0.07147 0.0
O269 O 0.65892 0.23598 0.99397 0.0
O270 O 0.66689 0.29104 0.8872 0.0
O271 O 0.64524 0.27526 0.88561 0.0
H272 H 0.59895 0.33433 0.08145 0.0
H273 H 0.57572 0.32664 0.09231 0.0
H274 H 0.58314 0.18126 0.0381 0.0
H275 H 0.6065 0.18959 1.02438 0.0
H276 H 0.7055 0.23559 0.94205 0.0
H277 H 0.72708 0.22456 0.87423 0.0
H278 H 0.73089 0.36967 0.90356 0.0
H279 H 0.70932 0.38041 0.96964 0.0
La280 La 0.41461 0.26707 1.00534 0.0
La281 La 0.38615 0.25467 1.01371 0.0
C282 C 0.43731 0.29349 1.01396 0.0
C283 C 0.4511 0.27811 0.03625 0.0
C284 C 0.45818 0.24152 0.99263 0.0
C285 C 0.47173 0.23266 1.0037 0.0
C286 C 0.47852 0.25999 0.05883 0.0
C287 C 0.47132 0.29513 0.10549 0.0
C288 C 0.45778 0.3042 0.09396 0.0
C289 C 0.40936 0.17971 0.99768 0.0
C290 C 0.40081 0.25942 0.18543 0.0
C291 C 0.36366 0.22702 1.00253 0.0
C292 C 0.35132 0.23363 0.9534 0.0
C293 C 0.34605 0.27723 0.92492 0.0
C294 C 0.33359 0.28306 0.88736 0.0
C295 C 0.32617 0.24542 0.87739 0.0
C296 C 0.33171 0.20165 0.90378 0.0
C297 C 0.34412 0.1959 0.94136 0.0
C298 C 0.39154 0.34134 1.02816 0.0
C299 C 0.39937 0.26739 0.83346 0.0
O300 O 0.43247 0.27516 0.94638 0.0
O301 O 0.42872 0.29955 0.07555 0.0
O302 O 0.41952 0.19522 0.96452 0.0
O303 O 0.40355 0.21133 0.04167 0.0
O304 O 0.41004 0.27783 0.14204 0.0
O305 O 0.39167 0.23895 0.14528 0.0
O306 O 0.36648 0.26119 0.05072 0.0
O307 O 0.37399 0.20697 0.96397 0.0
O308 O 0.38171 0.32469 0.06343 0.0
O309 O 0.39716 0.31117 0.97975 0.0
O310 O 0.39002 0.24921 0.87567 0.0
O311 O 0.40875 0.28582 0.87491 0.0
H312 H 0.45336 0.22069 0.94758 0.0
H313 H 0.47694 0.20491 0.96772 0.0
H314 H 0.47624 0.3171 0.14794 0.0
H315 H 0.45261 0.33291 0.12764 0.0
H316 H 0.35142 0.30692 0.9334 0.0
H317 H 0.32974 0.31713 0.86667 0.0
H318 H 0.32626 0.17196 0.89823 0.0
H319 H 0.34795 0.16203 0.96346 0.0
H320 H 0.2415 0.30016 0.82407 0.0
H321 H 0.25423 0.24805 0.57641 0.0
H322 H 0.26415 0.2926 0.87359 0.0
H323 H 0.27683 0.24087 0.62543 0.0
H324 H 0.31431 0.18889 0.76805 0.0
H325 H 0.29172 0.19673 0.71877 0.0
H326 H 0.2846 0.32498 0.8565 0.0
H327 H 0.30707 0.31609 0.90883 0.0
C328 C 0.24913 0.28734 0.78001 0.0
C329 C 0.246 0.2745 0.69636 0.0
C330 C 0.26214 0.28312 0.80831 0.0
C331 C 0.27238 0.2661 0.75361 0.0
C332 C 0.26923 0.25334 0.66993 0.0
C333 C 0.25623 0.25743 0.64177 0.0
C334 C 0.30792 0.21865 0.78832 0.0
C335 C 0.31256 0.25177 0.84272 0.0
C336 C 0.29497 0.22341 0.75924 0.0
C337 C 0.28627 0.26147 0.78364 0.0
C338 C 0.29095 0.2949 0.83721 0.0
C339 C 0.30391 0.29013 0.8663 0.0
H340 H 0.74266 0.35227 0.77378 0.0
H341 H 0.74982 0.225 0.91437 0.0
H342 H 0.76523 0.34417 0.7247 0.0
H343 H 0.77225 0.21577 0.86201 0.0
H344 H 0.81539 0.24053 0.8317 0.0
H345 H 0.79271 0.24766 0.87989 0.0
H346 H 0.7802 0.30061 0.632 0.0
H347 H 0.80285 0.29394 0.5844 0.0
C348 C 0.74903 0.32242 0.79401 0.0
C349 C 0.74437 0.28942 0.84846 0.0
C350 C 0.76197 0.31749 0.765 0.0
C351 C 0.77065 0.27934 0.78941 0.0
C352 C 0.76594 0.24593 0.84275 0.0
C353 C 0.75299 0.2509 0.87185 0.0
C354 C 0.80778 0.2535 0.7874 0.0
C355 C 0.81098 0.26688 0.70428 0.0
C356 C 0.79475 0.25747 0.81493 0.0
C357 C 0.78455 0.27473 0.75996 0.0
C358 C 0.78777 0.28794 0.67674 0.0
C359 C 0.80079 0.28414 0.64937 0.0
H360 H 0.30405 0.82015 0.1267 0.0
H361 H 0.31487 0.7102 0.30554 0.0
H362 H 0.2818 0.82731 0.18236 0.0
H363 H 0.29251 0.71607 0.35874 0.0
H364 H 0.25465 0.76969 0.49341 0.0
H365 H 0.27699 0.76505 0.4404 0.0
H366 H 0.26244 0.78683 0.18284 0.0
H367 H 0.24003 0.79176 0.23618 0.0
C368 C 0.30172 0.79769 0.17829 0.0
C369 C 0.3113 0.76462 0.21162 0.0
C370 C 0.2889 0.80137 0.20943 0.0
C371 C 0.2853 0.77214 0.27486 0.0
C372 C 0.29493 0.73947 0.3089 0.0
C373 C 0.30774 0.73577 0.27773 0.0
C374 C 0.2562 0.773 0.42531 0.0
C375 C 0.24551 0.78083 0.36905 0.0
C376 C 0.26904 0.77037 0.39487 0.0
C377 C 0.27157 0.77546 0.30723 0.0
C378 C 0.26088 0.78343 0.2509 0.0
C379 C 0.24802 0.78615 0.28143 0.0
H380 H 0.74907 0.8551 0.19558 0.0
H381 H 0.74644 0.71058 0.24159 0.0
H382 H 0.77143 0.84703 0.24929 0.0
H383 H 0.76901 0.70207 0.29149 0.0
H384 H 0.80502 0.71253 0.45858 0.0
H385 H 0.78249 0.72164 0.40842 0.0
H386 H 0.79308 0.81435 0.21119 0.0
H387 H 0.81567 0.80542 0.26199 0.0
C388 C 0.75322 0.82162 0.21757 0.0
C389 C 0.74588 0.78353 0.21439 0.0
C390 C 0.76614 0.81685 0.24725 0.0
C391 C 0.7721 0.77386 0.27452 0.0
C392 C 0.76473 0.73583 0.27189 0.0
C393 C 0.7518 0.7406 0.24231 0.0
C394 C 0.80259 0.73452 0.40394 0.0
C395 C 0.8122 0.75804 0.36406 0.0
C396 C 0.78964 0.73976 0.37512 0.0
C397 C 0.78592 0.76863 0.30549 0.0
C398 C 0.79553 0.79232 0.26575 0.0
C399 C 0.8085 0.78716 0.29476 0.0
H400 H 0.14393 0.92494 0.38227 0.0
H401 H 0.16147 0.90966 0.63283 0.0
H402 H 0.14698 1.00701 0.38354 0.0
H403 H 0.16419 0.99219 0.63501 0.0
H404 H 0.15069 0.15257 0.63142 0.0
H405 H 0.14759 0.07023 0.63091 0.0
H406 H 0.16775 0.0542 0.38939 0.0
H407 H 0.17115 0.13588 0.39101 0.0
C408 C 0.14845 0.93918 0.43754 0.0
C409 C 0.15249 0.91099 0.50734 0.0
C410 C 0.15019 0.98607 0.43824 0.0
C411 C 0.15574 1.00597 0.5096 0.0
C412 C 0.15978 0.97778 0.57954 0.0
C413 C 0.15831 0.93059 0.57802 0.0
C414 C 0.1544 0.1314 0.57821 0.0
C415 C 0.16119 0.15047 0.51132 0.0
C416 C 0.1527 0.08434 0.57817 0.0
C417 C 0.15747 0.05587 0.51022 0.0
C418 C 0.16395 0.07534 0.44242 0.0
C419 C 0.16591 0.12202 0.44344 0.0
H420 H 0.91431 0.38822 0.58979 0.0
H421 H 0.87576 0.4257 0.48668 0.0
H422 H 0.91861 0.46944 0.5862 0.0
H423 H 0.87993 0.50651 0.48453 0.0
H424 H 0.88778 0.65141 0.58209 0.0
H425 H 0.88377 0.57024 0.5904 0.0
H426 H 0.92111 0.53113 0.47191 0.0
H427 H 0.92498 0.61224 0.46193 0.0
C428 C 0.90675 0.4138 0.5668 0.0
C429 C 0.8947 0.40054 0.53862 0.0
C430 C 0.90921 0.46026 0.56443 0.0
C431 C 0.89959 0.49457 0.53535 0.0
C432 C 0.88751 0.48115 0.50812 0.0
C433 C 0.88514 0.43475 0.509 0.0
C434 C 0.8951 0.62549 0.5575 0.0
C435 C 0.90666 0.63833 0.52092 0.0
C436 C 0.8928 0.57898 0.56222 0.0
C437 C 0.90214 0.54409 0.53196 0.0
C438 C 0.91378 0.557 0.49652 0.0
C439 C 0.91596 0.60353 0.49039 0.0
H440 H 0.91406 0.88843 0.48572 0.0
H441 H 0.87556 0.92453 0.58979 0.0
H442 H 0.91813 0.96986 0.4893 0.0
H443 H 0.8795 1.00556 0.59212 0.0
H444 H 0.88693 0.15142 0.49775 0.0
H445 H 0.88301 0.07011 0.48833 0.0
H446 H 0.92071 0.03104 0.60303 0.0
H447 H 0.9245 0.11212 0.61376 0.0
C448 C 0.90646 0.91375 0.50891 0.0
C449 C 0.89449 0.90004 0.53739 0.0
C450 C 0.90879 0.96035 0.51128 0.0
C451 C 0.89912 0.99435 0.54074 0.0
C452 C 0.88711 0.98047 0.5682 0.0
C453 C 0.88488 0.93394 0.56726 0.0
C454 C 0.89435 0.12543 0.52106 0.0
C455 C 0.90601 0.13824 0.55669 0.0
C456 C 0.89211 0.07886 0.51582 0.0
C457 C 0.90157 0.04395 0.54469 0.0
C458 C 0.91328 0.0569 0.57938 0.0
C459 C 0.91542 0.10343 0.58598 0.0
H460 H 0.17106 0.63644 0.67786 0.0
H461 H 0.15083 0.65247 0.43612 0.0
H462 H 0.16781 0.55464 0.67927 0.0
H463 H 0.14786 0.57 0.43648 0.0
H464 H 0.16176 0.40952 0.4357 0.0
H465 H 0.16441 0.49212 0.43322 0.0
H466 H 0.14725 0.50711 0.68449 0.0
H467 H 0.14429 0.42501 0.68608 0.0
C468 C 0.1659 0.6224 0.62509 0.0
C469 C 0.16119 0.65071 0.55691 0.0
C470 C 0.16403 0.57566 0.62598 0.0
C471 C 0.15765 0.55596 0.5578 0.0
C472 C 0.1529 0.58428 0.48952 0.0
C473 C 0.15452 0.63141 0.48957 0.0
C474 C 0.1586 0.4305 0.49041 0.0
C475 C 0.15282 0.41095 0.56113 0.0
C476 C 0.16003 0.47773 0.48871 0.0
C477 C 0.15598 0.506 0.55851 0.0
C478 C 0.15047 0.48613 0.6299 0.0
C479 C 0.14878 0.43921 0.63079 0.0
H480 H 0.64311 0.66572 0.0806 0.0
H481 H 0.68133 0.62974 0.97173 0.0
H482 H 0.63909 0.58416 0.0777 0.0
H483 H 0.67748 0.54871 0.97117 0.0
H484 H 0.67 0.40453 0.07813 0.0
H485 H 0.67365 0.48608 0.08626 0.0
H486 H 0.63719 0.52261 0.95435 0.0
H487 H 0.63371 0.44114 0.94407 0.0
C488 C 0.65065 0.64044 0.0565 0.0
C489 C 0.66251 0.65411 1.0262 0.0
C490 C 0.64836 0.59387 0.05471 0.0
C491 C 0.658 0.5601 1.02446 0.0
C492 C 0.66992 0.57386 0.99549 0.0
C493 C 0.67209 0.62032 0.99553 0.0
C494 C 0.66282 0.42998 0.05047 0.0
C495 C 0.65162 0.41646 1.00996 0.0
C496 C 0.66489 0.4766 0.05524 0.0
C497 C 0.65566 0.51069 1.02128 0.0
C498 C 0.64439 0.49714 0.98176 0.0
C499 C 0.64246 0.4505 0.97539 0.0
H500 H 0.41423 0.88067 0.07242 0.0
H501 H 0.37706 0.91824 0.94966 0.0
H502 H 0.41866 0.96177 0.07098 0.0
H503 H 0.3813 0.99893 0.95064 0.0
H504 H 0.38814 0.14244 0.0628 0.0
H505 H 0.38429 0.06107 0.06777 0.0
H506 H 0.42189 0.02398 0.95132 0.0
H507 H 0.42557 0.10546 0.94392 0.0
C508 C 0.40702 0.90615 0.04526 0.0
C509 C 0.39533 0.89297 1.01089 0.0
C510 C 0.40955 0.95253 0.04439 0.0
C511 C 0.40029 0.98674 1.01098 0.0
C512 C 0.38857 0.97348 0.97748 0.0
C513 C 0.38617 0.92718 0.97666 0.0
C514 C 0.39554 0.11694 0.03783 0.0
C515 C 0.4071 0.13039 1.00231 0.0
C516 C 0.39335 0.07037 0.04078 0.0
C517 C 0.4028 0.03612 1.01004 0.0
C518 C 0.41448 0.04954 0.97606 0.0
C519 C 0.41654 0.09619 0.97144 0.0
H520 H 0.38324 0.40338 0.15003 0.0
H521 H 0.40485 0.39046 0.91353 0.0
H522 H 0.3862 0.48537 0.15575 0.0
H523 H 0.4075 0.47317 0.9181 0.0
H524 H 0.39368 0.63397 0.92248 0.0
H525 H 0.3909 0.55151 0.91472 0.0
H526 H 0.40681 0.53271 0.16915 0.0
H527 H 0.40992 0.61463 0.17598 0.0
C528 C 0.38862 0.41815 0.0992 0.0
C529 C 0.39383 0.39058 1.03139 0.0
C530 C 0.39032 0.46504 0.10258 0.0
C531 C 0.39702 0.48569 0.0372 0.0
C532 C 0.4022 0.45818 0.96901 0.0
C533 C 0.40076 0.4109 0.96666 0.0
C534 C 0.39652 0.61219 0.97679 0.0
C535 C 0.40201 0.63065 0.0499 0.0
C536 C 0.39502 0.56502 0.97209 0.0
C537 C 0.39869 0.53569 0.0412 0.0
C538 C 0.40388 0.55449 0.115 0.0
C539 C 0.40565 0.60133 0.1189 0.0
H540 H 0.64359 0.16496 0.97573 0.0
H541 H 0.6811 0.13246 0.09719 0.0
H542 H 0.6402 0.08297 0.97602 0.0
H543 H 0.67792 0.05079 0.09472 0.0
H544 H 0.67166 0.90481 0.98615 0.0
H545 H 0.67508 0.98674 0.97755 0.0
H546 H 0.63791 0.02254 0.10053 0.0
H547 H 0.63466 0.94108 0.11135 0.0
C548 C 0.65109 0.1404 1.00231 0.0
C549 C 0.66254 0.15523 0.03713 0.0
C550 C 0.64918 0.09352 1.00228 0.0
C551 C 0.65883 0.06054 0.03514 0.0
C552 C 0.67037 0.07536 0.06831 0.0
C553 C 0.67215 0.12218 0.07007 0.0
C554 C 0.66426 0.93025 1.01142 0.0
C555 C 0.65293 0.91659 0.04969 0.0
C556 C 0.6662 0.97703 1.00651 0.0
C557 C 0.65671 1.01097 0.03796 0.0
C558 C 0.64531 0.9972 0.07502 0.0
C559 C 0.64351 0.95054 0.08164 0.0
H560 H 0.17149 0.32898 0.25131 0.0
H561 H 0.14193 0.23409 0.25621 0.0
H562 H 0.17163 0.3263 0.09564 0.0
H563 H 0.14236 0.23014 0.10073 0.0
H564 H 0.1361 0.27174 0.82196 0.0
H565 H 0.13614 0.27388 0.97718 0.0
H566 H 0.17801 0.27852 0.97634 0.0
H567 H 0.1779 0.27794 0.82041 0.0
C568 C 0.16507 0.30734 0.21918 0.0
C569 C 0.15666 0.28191 0.26626 0.0
C570 C 0.16521 0.30552 0.12978 0.0
C571 C 0.15702 0.27795 0.08518 0.0
C572 C 0.14866 0.25235 0.13257 0.0
C573 C 0.14844 0.25446 0.22192 0.0
C574 C 0.14534 0.27304 0.85471 0.0
C575 C 0.157 0.27465 0.80848 0.0
C576 C 0.14537 0.27402 0.94405 0.0
C577 C 0.15708 0.27632 0.98977 0.0
C578 C 0.16877 0.27747 0.94346 0.0
C579 C 0.16873 0.27681 0.85391 0.0
H580 H 0.88014 0.25818 0.27011 0.0
H581 H 0.92091 0.28175 0.26896 0.0
H582 H 0.87966 0.26168 0.11497 0.0
H583 H 0.92067 0.28301 0.11309 0.0
H584 H 0.91336 0.32575 0.83645 0.0
H585 H 0.91347 0.32537 0.99214 0.0
H586 H 0.88622 0.22197 0.991 0.0
H587 H 0.88566 0.2242 0.83559 0.0
C588 C 0.88906 0.26357 0.23658 0.0
C589 C 0.90057 0.26957 0.28197 0.0
C590 C 0.88882 0.26531 0.14726 0.0
C591 C 0.90014 0.27242 0.10062 0.0
C592 C 0.91168 0.27825 0.14634 0.0
C593 C 0.91187 0.2772 0.23591 0.0
C594 C 0.90734 0.30312 0.86957 0.0
C595 C 0.89946 0.27514 0.82358 0.0
C596 C 0.90748 0.30259 0.95907 0.0
C597 C 0.89988 0.27354 1.00497 0.0
C598 C 0.89202 0.24549 0.95851 0.0
C599 C 0.89174 0.24655 0.86908 0.0
H600 H 0.13605 0.77157 0.24605 0.0
H601 H 0.17781 0.77885 0.24834 0.0
H602 H 0.13606 0.77384 0.09088 0.0
H603 H 0.17789 0.77953 0.09238 0.0
H604 H 0.17122 0.82989 0.81743 0.0
H605 H 0.1714 0.82718 0.97309 0.0
H606 H 0.14233 0.73028 0.9674 0.0
H607 H 0.14184 0.73428 0.81193 0.0
C608 C 0.14528 0.77313 0.21346 0.0
C609 C 0.15693 0.775 0.25988 0.0
C610 C 0.14529 0.77419 0.12415 0.0
C611 C 0.15697 0.77679 0.07863 0.0
C612 C 0.16867 0.77822 0.12512 0.0
C613 C 0.16864 0.77751 0.21466 0.0
C614 C 0.16484 0.80809 0.84944 0.0
C615 C 0.15647 0.78247 0.8022 0.0
C616 C 0.16501 0.80625 0.93883 0.0
C617 C 0.15689 0.77846 0.98324 0.0
C618 C 0.14856 0.75267 0.9357 0.0
C619 C 0.14832 0.7548 0.84636 0.0
H620 H 0.92089 0.78445 0.80732 0.0
H621 H 0.8802 0.75984 0.80545 0.0
H622 H 0.92068 0.78553 0.96321 0.0
H623 H 0.87974 0.76319 0.9606 0.0
H624 H 0.88593 0.72448 0.2393 0.0
H625 H 0.88641 0.72309 0.08386 0.0
H626 H 0.91349 0.82703 0.08493 0.0
H627 H 0.91347 0.82655 0.24062 0.0
C628 C 0.91186 0.7797 0.84024 0.0
C629 C 0.90059 0.77175 0.79399 0.0
C630 C 0.9117 0.78063 0.9298 0.0
C631 C 0.90019 0.77436 0.97532 0.0
C632 C 0.88888 0.76712 0.92847 0.0
C633 C 0.88911 0.76548 0.83916 0.0
C634 C 0.89195 0.74713 0.20628 0.0
C635 C 0.89966 0.77561 0.25239 0.0
C636 C 0.89218 0.74656 0.11685 0.0
C637 C 0.89997 0.77502 0.07099 0.0
C638 C 0.90755 0.80396 0.1175 0.0
C639 C 0.90747 0.80399 0.20701 0.0
H640 H 0.64288 0.73287 0.32561 0.0
H641 H 0.67293 0.82584 0.32293 0.0
H642 H 0.64286 0.7342 0.48138 0.0
H643 H 0.67251 0.82906 0.47817 0.0
H644 H 0.67799 0.79244 0.75763 0.0
H645 H 0.67832 0.78801 0.60251 0.0
H646 H 0.63656 0.77982 0.60071 0.0
H647 H 0.6364 0.782 0.75648 0.0
C648 C 0.64944 0.75379 0.35834 0.0
C649 C 0.65794 0.77909 0.31194 0.0
C650 C 0.64936 0.75488 0.44778 0.0
C651 C 0.65766 0.78185 0.49298 0.0
C652 C 0.66615 0.80718 0.4461 0.0
C653 C 0.66636 0.80554 0.35681 0.0
C654 C 0.66887 0.78982 0.72409 0.0
C655 C 0.65717 0.78771 0.76937 0.0
C656 C 0.66904 0.78751 0.63486 0.0
C657 C 0.65746 0.78371 0.5884 0.0
C658 C 0.64572 0.78192 0.63399 0.0
C659 C 0.6456 0.78355 0.72343 0.0
H660 H 0.41458 0.80769 0.75166 0.0
H661 H 0.3834 0.71924 0.74558 0.0
H662 H 0.41435 0.81117 0.596 0.0
H663 H 0.38345 0.72141 0.59005 0.0
H664 H 0.37805 0.76916 0.3148 0.0
H665 H 0.37787 0.7698 0.47058 0.0
H666 H 0.42 0.76588 0.47291 0.0
H667 H 0.42013 0.7668 0.3175 0.0
C668 C 0.40774 0.78871 0.7171 0.0
C669 C 0.39902 0.76318 0.76112 0.0
C670 C 0.40765 0.79051 0.6277 0.0
C671 C 0.39889 0.76655 0.58007 0.0
C672 C 0.39018 0.74095 0.62437 0.0
C673 C 0.39022 0.73943 0.71373 0.0
C674 C 0.38727 0.76862 0.34855 0.0
C675 C 0.3991 0.76798 0.30349 0.0
C676 C 0.38718 0.76869 0.43803 0.0
C677 C 0.39892 0.76776 0.4847 0.0
C678 C 0.41074 0.76735 0.4394 0.0
C679 C 0.41082 0.76762 0.35003 0.0
H680 H 0.67174 0.33093 0.30778 0.0
H681 H 0.64199 0.2367 0.30282 0.0
H682 H 0.67148 0.33008 0.46333 0.0
H683 H 0.64203 0.23461 0.45855 0.0
H684 H 0.63539 0.27983 0.73611 0.0
H685 H 0.63563 0.28013 0.58051 0.0
H686 H 0.67756 0.28327 0.58401 0.0
H687 H 0.67725 0.28448 0.73961 0.0
C688 C 0.66521 0.30973 0.33987 0.0
C689 C 0.65686 0.28397 0.29275 0.0
C690 C 0.66512 0.30901 0.42926 0.0
C691 C 0.65675 0.28222 0.47391 0.0
C692 C 0.64846 0.25622 0.42657 0.0
C693 C 0.64848 0.2572 0.33712 0.0
C694 C 0.64467 0.28051 0.70374 0.0
C695 C 0.6563 0.28223 0.75053 0.0
C696 C 0.64482 0.28042 0.61431 0.0
C697 C 0.65661 0.28173 0.5693 0.0
C698 C 0.66826 0.28302 0.61628 0.0
C699 C 0.66809 0.28344 0.7057 0.0
H700 H 0.38046 0.24695 0.29124 0.0
H701 H 0.42074 0.27647 0.29398 0.0
H702 H 0.3798 0.25124 0.44621 0.0
H703 H 0.42036 0.27848 0.44989 0.0
H704 H 0.41255 0.32046 0.72624 0.0
H705 H 0.41272 0.31996 0.57052 0.0
H706 H 0.38657 0.21301 0.57084 0.0
H707 H 0.38593 0.21538 0.72619 0.0
C708 C 0.38925 0.25379 0.32512 0.0
C709 C 0.40067 0.26119 0.2802 0.0
C710 C 0.38891 0.25601 0.41439 0.0
C711 C 0.40005 0.26495 0.46153 0.0
C712 C 0.4115 0.27226 0.41626 0.0
C713 C 0.41177 0.27076 0.32669 0.0
C714 C 0.40677 0.29706 0.6929 0.0
C715 C 0.39918 0.26809 0.73865 0.0
C716 C 0.40695 0.29645 0.60337 0.0
C717 C 0.3997 0.26633 0.55721 0.0
C718 C 0.3921 0.23737 0.60347 0.0
C719 C 0.39177 0.23852 0.69289 0.0
H720 H 0.06042 0.29607 0.37099 0.0
H721 H 0.06171 0.20884 0.59443 0.0
H722 H 0.03673 0.29661 0.36579 0.0
H723 H 0.03799 0.20888 0.58824 0.0
H724 H 0.99593 0.18908 0.5072 0.0
H725 H 1.01978 0.18345 0.50228 0.0
H726 H 1.01806 0.32916 0.4519 0.0
H727 H 0.99432 0.33509 0.4583 0.0
C728 C 0.05567 0.27704 0.41918 0.0
C729 C 0.06304 0.25276 0.48365 0.0
C730 C 0.04207 0.2773 0.41603 0.0
C731 C 0.03543 0.25304 0.4769 0.0
C732 C 0.0428 0.22757 0.53981 0.0
C733 C 0.05642 0.22749 0.54325 0.0
C734 C 1.00062 0.21999 0.49533 0.0
C735 C 0.99311 0.26256 0.48313 0.0
C736 C 1.01431 0.21671 0.49246 0.0
C737 C 1.02085 0.25584 0.47671 0.0
C738 C 1.01335 0.29817 0.46287 0.0
C739 C 0.99969 0.30152 0.46626 0.0
H740 H 0.99455 0.76759 0.71552 0.0
H741 H 0.99574 0.74237 0.44359 0.0
H742 H 1.0184 0.76027 0.71983 0.0
H743 H 1.01951 0.73608 0.44717 0.0
H744 H 0.06262 0.69524 0.48435 0.0
H745 H 0.03905 0.69232 0.49063 0.0
H746 H 0.03607 0.80111 0.67895 0.0
H747 H 0.05965 0.80203 0.6765 0.0
C748 C 0.99991 0.7605 0.65664 0.0
C749 C 0.99322 0.75555 0.57926 0.0
C750 C 1.0136 0.75645 0.65895 0.0
C751 C 1.02097 0.74777 0.58377 0.0
C752 C 1.01424 0.74197 0.50669 0.0
C753 C 1.00057 0.74566 0.50455 0.0
C754 C 0.05698 0.71792 0.52836 0.0
C755 C 0.06311 0.74908 0.5795 0.0
C756 C 0.0434 0.7167 0.53112 0.0
C757 C 0.03555 0.74672 0.58482 0.0
C758 C 0.04173 0.7771 0.63737 0.0
C759 C 0.0553 0.77811 0.63501 0.0
H760 H 0.55997 0.83664 0.03321 0.0
H761 H 0.56316 0.69038 0.98478 0.0
H762 H 0.53628 0.83971 1.02473 0.0
H763 H 0.53934 0.69362 0.97548 0.0
H764 H 0.49676 0.72762 0.88393 0.0
H765 H 0.52056 0.72465 0.88686 0.0
H766 H 0.51828 0.81363 0.10791 0.0
H767 H 0.49454 0.81614 0.10593 0.0
C768 C 0.55562 0.80501 1.02137 0.0
C769 C 0.56352 0.76314 1.01063 0.0
C770 C 0.54201 0.80683 1.01638 0.0
C771 C 0.53588 0.76688 1.00004 0.0
C772 C 0.54375 0.72512 0.98741 0.0
C773 C 0.55741 0.72326 0.9927 0.0
C774 C 0.50132 0.74633 0.93359 0.0
C775 C 0.49367 0.77213 0.99474 0.0
C776 C 0.51498 0.7446 0.93519 0.0
C777 C 0.52134 0.76886 0.99762 0.0
C778 C 0.5137 0.79505 0.05816 0.0
C779 C 0.50005 0.7966 0.05684 0.0
H780 H 0.4942 0.26098 0.20115 0.0
H781 H 0.49586 0.24587 0.92679 0.0
H782 H 0.51803 0.25481 0.20716 0.0
H783 H 0.51961 0.24083 0.93216 0.0
H784 H 0.56271 0.19976 0.96793 0.0
H785 H 0.53916 0.1964 0.97101 0.0
H786 H 0.53581 0.29671 0.17491 0.0
H787 H 0.55939 0.29781 0.17554 0.0
C788 C 0.49966 0.25644 0.14208 0.0
C789 C 0.4931 0.25384 0.06354 0.0
C790 C 0.51335 0.25306 0.14538 0.0
C791 C 0.52086 0.24744 0.07011 0.0
C792 C 0.51425 0.24426 0.99173 0.0
C793 C 0.50059 0.24725 0.98856 0.0
C794 C 0.557 0.22043 1.01465 0.0
C795 C 0.56305 0.24927 0.07114 0.0
C796 C 0.54342 0.21902 1.01558 0.0
C797 C 0.53545 0.24658 0.0727 0.0
C798 C 0.54154 0.2746 0.13047 0.0
C799 C 0.55512 0.27576 0.12994 0.0
loop_
_geom_bond_atom_site_label_1
_geom_bond_atom_site_label_2
_geom_bond_distance
_geom_bond_site_symmetry_2
_ccdc_geom_bond_type
La0 C2 2.928 . S
La0 O20 2.521 . S
La0 O21 2.628 . S
La0 O22 2.554 . S
La0 O23 2.757 . S
La0 O24 2.470 . S
La0 O29 2.482 . S
La0 O31 2.503 . S
La1 C11 2.928 . S
La1 O23 2.482 . S
La1 O25 2.503 . S
La1 O26 2.521 . S
La1 O27 2.628 . S
La1 O28 2.554 . S
La1 O29 2.757 . S
La1 O30 2.470 . S
C2 La0 2.928 . S
C2 C3 1.503 . S
C2 O20 1.261 . S
C2 O21 1.243 . S
C3 C2 1.503 . S
C3 C4 1.394 . S
C3 C8 1.373 . S
C4 C3 1.394 . S
C4 C5 1.380 . S
C4 H32 0.930 . S
C5 C4 1.380 . S
C5 C6 1.376 . S
C5 H33 0.930 . S
C6 C5 1.376 . S
C6 C7 1.370 . S
C7 C6 1.370 . S
C7 C8 1.396 . S
C7 H34 0.929 . S
C8 C3 1.373 . S
C8 C7 1.396 . S
C8 H35 0.929 . S
C9 O22 1.240 . S
C9 O23 1.289 . S
C10 O24 1.258 . S
C10 O25 1.256 . S
C11 La1 2.928 . S
C11 C12 1.503 . S
C11 O26 1.261 . S
C11 O27 1.243 . S
C12 C11 1.503 . S
C12 C13 1.394 . S
C12 C17 1.373 . S
C13 C12 1.394 . S
C13 C14 1.380 . S
C13 H36 0.930 . S
C14 C13 1.380 . S
C14 C15 1.376 . S
C14 H37 0.930 . S
C15 C14 1.376 . S
C15 C16 1.370 . S
C16 C15 1.370 . S
C16 C17 1.396 . S
C16 H38 0.929 . S
C17 C12 1.373 . S
C17 C16 1.396 . S
C17 H39 0.929 . S
C18 O28 1.240 . S
C18 O29 1.289 . S
C19 O30 1.258 . S
C19 O31 1.256 . S
O20 La0 2.521 . S
O20 C2 1.261 . S
O21 La0 2.628 . S
O21 C2 1.243 . S
O22 La0 2.554 . S
O22 C9 1.240 . S
O23 La0 2.757 . S
O23 La1 2.482 . S
O23 C9 1.289 . S
O24 La0 2.470 . S
O24 C10 1.258 . S
O25 La1 2.503 . S
O25 C10 1.256 . S
O26 La1 2.521 . S
O26 C11 1.261 . S
O27 La1 2.628 . S
O27 C11 1.243 . S
O28 La1 2.554 . S
O28 C18 1.240 . S
O29 La0 2.482 . S
O29 La1 2.757 . S
O29 C18 1.289 . S
O30 La1 2.470 . S
O30 C19 1.258 . S
O31 La0 2.503 . S
O31 C19 1.256 . S
H32 C4 0.930 . S
H33 C5 0.930 . S
H34 C7 0.929 . S
H35 C8 0.929 . S
H36 C13 0.930 . S
H37 C14 0.930 . S
H38 C16 0.929 . S
H39 C17 0.929 . S
La40 C42 2.928 . S
La40 O60 2.521 . S
La40 O61 2.628 . S
La40 O62 2.554 . S
La40 O63 2.757 . S
La40 O64 2.470 . S
La40 O69 2.482 . S
La40 O71 2.503 . S
La41 C51 2.928 . S
La41 O63 2.482 . S
La41 O65 2.503 . S
La41 O66 2.521 . S
La41 O67 2.628 . S
La41 O68 2.554 . S
La41 O69 2.757 . S
La41 O70 2.470 . S
C42 La40 2.928 . S
C42 C43 1.503 . S
C42 O60 1.261 . S
C42 O61 1.243 . S
C43 C42 1.503 . S
C43 C44 1.394 . S
C43 C48 1.373 . S
C44 C43 1.394 . S
C44 C45 1.380 . S
C44 H72 0.930 . S
C45 C44 1.380 . S
C45 C46 1.376 . S
C45 H73 0.930 . S
C46 C45 1.376 . S
C46 C47 1.370 . S
C47 C46 1.370 . S
C47 C48 1.396 . S
C47 H74 0.929 . S
C48 C43 1.373 . S
C48 C47 1.396 . S
C48 H75 0.929 . S
C49 O62 1.240 . S
C49 O63 1.289 . S
C50 O64 1.258 . S
C50 O65 1.256 . S
C51 La41 2.928 . S
C51 C52 1.503 . S
C51 O66 1.261 . S
C51 O67 1.243 . S
C52 C51 1.503 . S
C52 C53 1.394 . S
C52 C57 1.373 . S
C53 C52 1.394 . S
C53 C54 1.380 . S
C53 H76 0.930 . S
C54 C53 1.380 . S
C54 C55 1.376 . S
C54 H77 0.930 . S
C55 C54 1.376 . S
C55 C56 1.370 . S
C56 C55 1.370 . S
C56 C57 1.396 . S
C56 H78 0.929 . S
C57 C52 1.373 . S
C57 C56 1.396 . S
C57 H79 0.929 . S
C58 O68 1.240 . S
C58 O69 1.289 . S
C59 O70 1.258 . S
C59 O71 1.256 . S
O60 La40 2.521 . S
O60 C42 1.261 . S
O61 La40 2.628 . S
O61 C42 1.243 . S
O62 La40 2.554 . S
O62 C49 1.240 . S
O63 La40 2.757 . S
O63 La41 2.482 . S
O63 C49 1.289 . S
O64 La40 2.470 . S
O64 C50 1.258 . S
O65 La41 2.503 . S
O65 C50 1.256 . S
O66 La41 2.521 . S
O66 C51 1.261 . S
O67 La41 2.628 . S
O67 C51 1.243 . S
O68 La41 2.554 . S
O68 C58 1.240 . S
O69 La40 2.482 . S
O69 La41 2.757 . S
O69 C58 1.289 . S
O70 La41 2.470 . S
O70 C59 1.258 . S
O71 La40 2.503 . S
O71 C59 1.256 . S
H72 C44 0.930 . S
H73 C45 0.930 . S
H74 C47 0.929 . S
H75 C48 0.929 . S
H76 C53 0.930 . S
H77 C54 0.930 . S
H78 C56 0.929 . S
H79 C57 0.929 . S
La80 C82 2.928 . S
La80 O100 2.521 . S
La80 O101 2.628 . S
La80 O102 2.554 . S
La80 O103 2.757 . S
La80 O104 2.470 . S
La80 O109 2.482 . S
La80 O111 2.503 . S
La81 C91 2.928 . S
La81 O103 2.482 . S
La81 O105 2.503 . S
La81 O106 2.521 . S
La81 O107 2.628 . S
La81 O108 2.554 . S
La81 O109 2.757 . S
La81 O110 2.470 . S
C82 La80 2.928 . S
C82 C83 1.503 . S
C82 O100 1.261 . S
C82 O101 1.243 . S
C83 C82 1.503 . S
C83 C84 1.394 . S
C83 C88 1.373 . S
C84 C83 1.394 . S
C84 C85 1.380 . S
C84 H112 0.930 . S
C85 C84 1.380 . S
C85 C86 1.376 . S
C85 H113 0.930 . S
C86 C85 1.376 . S
C86 C87 1.370 . S
C87 C86 1.370 . S
C87 C88 1.396 . S
C87 H114 0.929 . S
C88 C83 1.373 . S
C88 C87 1.396 . S
C88 H115 0.929 . S
C89 O102 1.240 . S
C89 O103 1.289 . S
C90 O104 1.258 . S
C90 O105 1.256 . S
C91 La81 2.928 . S
C91 C92 1.503 . S
C91 O106 1.261 . S
C91 O107 1.243 . S
C92 C91 1.503 . S
C92 C93 1.394 . S
C92 C97 1.373 . S
C93 C92 1.394 . S
C93 C94 1.380 . S
C93 H116 0.930 . S
C94 C93 1.380 . S
C94 C95 1.376 . S
C94 H117 0.930 . S
C95 C94 1.376 . S
C95 C96 1.370 . S
C96 C95 1.370 . S
C96 C97 1.396 . S
C96 H118 0.929 . S
C97 C92 1.373 . S
C97 C96 1.396 . S
C97 H119 0.929 . S
C98 O108 1.240 . S
C98 O109 1.289 . S
C99 O110 1.258 . S
C99 O111 1.256 . S
O100 La80 2.521 . S
O100 C82 1.261 . S
O101 La80 2.628 . S
O101 C82 1.243 . S
O102 La80 2.554 . S
O102 C89 1.240 . S
O103 La80 2.757 . S
O103 La81 2.482 . S
O103 C89 1.289 . S
O104 La80 2.470 . S
O104 C90 1.258 . S
O105 La81 2.503 . S
O105 C90 1.256 . S
O106 La81 2.521 . S
O106 C91 1.261 . S
O107 La81 2.628 . S
O107 C91 1.243 . S
O108 La81 2.554 . S
O108 C98 1.240 . S
O109 La80 2.482 . S
O109 La81 2.757 . S
O109 C98 1.289 . S
O110 La81 2.470 . S
O110 C99 1.258 . S
O111 La80 2.503 . S
O111 C99 1.256 . S
H112 C84 0.930 . S
H113 C85 0.930 . S
H114 C87 0.929 . S
H115 C88 0.929 . S
H116 C93 0.930 . S
H117 C94 0.930 . S
H118 C96 0.929 . S
H119 C97 0.929 . S
La120 C122 2.928 . S
La120 O140 2.521 . S
La120 O141 2.628 . S
La120 O142 2.554 . S
La120 O143 2.757 . S
La120 O144 2.470 . S
La120 O149 2.482 . S
La120 O151 2.503 . S
La121 C131 2.928 . S
La121 O143 2.482 . S
La121 O145 2.503 . S
La121 O146 2.521 . S
La121 O147 2.628 . S
La121 O148 2.554 . S
La121 O149 2.757 . S
La121 O150 2.470 . S
C122 La120 2.928 . S
C122 C123 1.503 . S
C122 O140 1.261 . S
C122 O141 1.243 . S
C123 C122 1.503 . S
C123 C124 1.394 . S
C123 C128 1.373 . S
C124 C123 1.394 . S
C124 C125 1.380 . S
C124 H152 0.930 . S
C125 C124 1.380 . S
C125 C126 1.376 . S
C125 H153 0.930 . S
C126 C125 1.376 . S
C126 C127 1.370 . S
C127 C126 1.370 . S
C127 C128 1.396 . S
C127 H154 0.929 . S
C128 C123 1.373 . S
C128 C127 1.396 . S
C128 H155 0.929 . S
C129 O142 1.240 . S
C129 O143 1.289 . S
C130 O144 1.258 . S
C130 O145 1.256 . S
C131 La121 2.928 . S
C131 C132 1.503 . S
C131 O146 1.261 . S
C131 O147 1.243 . S
C132 C131 1.503 . S
C132 C133 1.394 . S
C132 C137 1.373 . S
C133 C132 1.394 . S
C133 C134 1.380 . S
C133 H156 0.930 . S
C134 C133 1.380 . S
C134 C135 1.376 . S
C134 H157 0.930 . S
C135 C134 1.376 . S
C135 C136 1.370 . S
C136 C135 1.370 . S
C136 C137 1.396 . S
C136 H158 0.929 . S
C137 C132 1.373 . S
C137 C136 1.396 . S
C137 H159 0.929 . S
C138 O148 1.240 . S
C138 O149 1.289 . S
C139 O150 1.258 . S
C139 O151 1.256 . S
O140 La120 2.521 . S
O140 C122 1.261 . S
O141 La120 2.628 . S
O141 C122 1.243 . S
O142 La120 2.554 . S
O142 C129 1.240 . S
O143 La120 2.757 . S
O143 La121 2.482 . S
O143 C129 1.289 . S
O144 La120 2.470 . S
O144 C130 1.258 . S
O145 La121 2.503 . S
O145 C130 1.256 . S
O146 La121 2.521 . S
O146 C131 1.261 . S
O147 La121 2.628 . S
O147 C131 1.243 . S
O148 La121 2.554 . S
O148 C138 1.240 . S
O149 La120 2.482 . S
O149 La121 2.757 . S
O149 C138 1.289 . S
O150 La121 2.470 . S
O150 C139 1.258 . S
O151 La120 2.503 . S
O151 C139 1.256 . S
H152 C124 0.930 . S
H153 C125 0.930 . S
H154 C127 0.929 . S
H155 C128 0.929 . S
H156 C133 0.930 . S
H157 C134 0.930 . S
H158 C136 0.929 . S
H159 C137 0.929 . S
La160 C162 2.928 1_556 S
La160 O180 2.521 1_556 S
La160 O181 2.628 1_556 S
La160 O182 2.554 . S
La160 O183 2.757 . S
La160 O184 2.470 1_556 S
La160 O189 2.482 1_556 S
La160 O191 2.503 . S
La161 C171 2.928 1_554 S
La161 O183 2.482 1_554 S
La161 O185 2.503 . S
La161 O186 2.521 1_554 S
La161 O187 2.628 1_554 S
La161 O188 2.554 . S
La161 O189 2.757 . S
La161 O190 2.470 1_554 S
C162 La160 2.928 1_554 S
C162 C163 1.503 . S
C162 O180 1.261 . S
C162 O181 1.243 . S
C163 C162 1.503 . S
C163 C164 1.394 . S
C163 C168 1.373 . S
C164 C163 1.394 . S
C164 C165 1.380 . S
C164 H192 0.930 . S
C165 C164 1.380 . S
C165 C166 1.376 . S
C165 H193 0.930 . S
C166 C165 1.376 . S
C166 C167 1.370 . S
C167 C166 1.370 . S
C167 C168 1.396 . S
C167 H194 0.929 . S
C168 C163 1.373 . S
C168 C167 1.396 . S
C168 H195 0.929 . S
C169 O182 1.240 . S
C169 O183 1.289 . S
C170 O184 1.258 . S
C170 O185 1.256 . S
C171 La161 2.928 1_556 S
C171 C172 1.503 . S
C171 O186 1.261 . S
C171 O187 1.243 . S
C172 C171 1.503 . S
C172 C173 1.394 . S
C172 C177 1.373 . S
C173 C172 1.394 . S
C173 C174 1.380 . S
C173 H196 0.930 . S
C174 C173 1.380 . S
C174 C175 1.376 . S
C174 H197 0.930 . S
C175 C174 1.376 . S
C175 C176 1.370 . S
C176 C175 1.370 . S
C176 C177 1.396 . S
C176 H198 0.929 . S
C177 C172 1.373 . S
C177 C176 1.396 . S
C177 H199 0.929 . S
C178 O188 1.240 . S
C178 O189 1.289 . S
C179 O190 1.258 . S
C179 O191 1.256 . S
O180 La160 2.521 1_554 S
O180 C162 1.261 . S
O181 La160 2.628 1_554 S
O181 C162 1.243 . S
O182 La160 2.554 . S
O182 C169 1.240 . S
O183 La160 2.757 . S
O183 La161 2.482 1_556 S
O183 C169 1.289 . S
O184 La160 2.470 1_554 S
O184 C170 1.258 . S
O185 La161 2.503 . S
O185 C170 1.256 . S
O186 La161 2.521 1_556 S
O186 C171 1.261 . S
O187 La161 2.628 1_556 S
O187 C171 1.243 . S
O188 La161 2.554 . S
O188 C178 1.240 . S
O189 La160 2.482 1_554 S
O189 La161 2.757 . S
O189 C178 1.289 . S
O190 La161 2.470 1_556 S
O190 C179 1.258 . S
O191 La160 2.503 . S
O191 C179 1.256 . S
H192 C164 0.930 . S
H193 C165 0.930 . S
H194 C167 0.929 . S
H195 C168 0.929 . S
H196 C173 0.930 . S
H197 C174 0.930 . S
H198 C176 0.929 . S
H199 C177 0.929 . S
La200 C202 2.928 1_556 S
La200 O220 2.521 1_556 S
La200 O221 2.628 1_556 S
La200 O222 2.554 . S
La200 O223 2.757 . S
La200 O224 2.470 1_556 S
La200 O229 2.482 1_556 S
La200 O231 2.503 . S
La201 C211 2.928 1_554 S
La201 O223 2.482 1_554 S
La201 O225 2.503 . S
La201 O226 2.521 1_554 S
La201 O227 2.628 1_554 S
La201 O228 2.554 . S
La201 O229 2.757 . S
La201 O230 2.470 1_554 S
C202 La200 2.928 1_554 S
C202 C203 1.503 . S
C202 O220 1.261 . S
C202 O221 1.243 . S
C203 C202 1.503 . S
C203 C204 1.394 . S
C203 C208 1.373 . S
C204 C203 1.394 . S
C204 C205 1.380 . S
C204 H232 0.930 . S
C205 C204 1.380 . S
C205 C206 1.376 . S
C205 H233 0.930 . S
C206 C205 1.376 . S
C206 C207 1.370 . S
C207 C206 1.370 . S
C207 C208 1.396 . S
C207 H234 0.929 . S
C208 C203 1.373 . S
C208 C207 1.396 . S
C208 H235 0.929 . S
C209 O222 1.240 . S
C209 O223 1.289 . S
C210 O224 1.258 . S
C210 O225 1.256 . S
C211 La201 2.928 1_556 S
C211 C212 1.503 . S
C211 O226 1.261 . S
C211 O227 1.243 . S
C212 C211 1.503 . S
C212 C213 1.394 . S
C212 C217 1.373 . S
C213 C212 1.394 . S
C213 C214 1.380 . S
C213 H236 0.930 . S
C214 C213 1.380 . S
C214 C215 1.376 . S
C214 H237 0.930 . S
C215 C214 1.376 . S
C215 C216 1.370 . S
C216 C215 1.370 . S
C216 C217 1.396 . S
C216 H238 0.929 . S
C217 C212 1.373 . S
C217 C216 1.396 . S
C217 H239 0.929 . S
C218 O228 1.240 . S
C218 O229 1.289 . S
C219 O230 1.258 . S
C219 O231 1.256 . S
O220 La200 2.521 1_554 S
O220 C202 1.261 . S
O221 La200 2.628 1_554 S
O221 C202 1.243 . S
O222 La200 2.554 . S
O222 C209 1.240 . S
O223 La200 2.757 . S
O223 La201 2.482 1_556 S
O223 C209 1.289 . S
O224 La200 2.470 1_554 S
O224 C210 1.258 . S
O225 La201 2.503 . S
O225 C210 1.256 . S
O226 La201 2.521 1_556 S
O226 C211 1.261 . S
O227 La201 2.628 1_556 S
O227 C211 1.243 . S
O228 La201 2.554 . S
O228 C218 1.240 . S
O229 La200 2.482 1_554 S
O229 La201 2.757 . S
O229 C218 1.289 . S
O230 La201 2.470 1_556 S
O230 C219 1.258 . S
O231 La200 2.503 . S
O231 C219 1.256 . S
H232 C204 0.930 . S
H233 C205 0.930 . S
H234 C207 0.929 . S
H235 C208 0.929 . S
H236 C213 0.930 . S
H237 C214 0.930 . S
H238 C216 0.929 . S
H239 C217 0.929 . S
La240 C242 2.928 1_556 S
La240 O260 2.521 1_556 S
La240 O261 2.628 1_556 S
La240 O262 2.554 . S
La240 O263 2.757 . S
La240 O264 2.470 1_556 S
La240 O269 2.482 1_556 S
La240 O271 2.503 . S
La241 C251 2.928 1_554 S
La241 O263 2.482 1_554 S
La241 O265 2.503 . S
La241 O266 2.521 1_554 S
La241 O267 2.628 1_554 S
La241 O268 2.554 . S
La241 O269 2.757 . S
La241 O270 2.470 1_554 S
C242 La240 2.928 1_554 S
C242 C243 1.503 . S
C242 O260 1.261 . S
C242 O261 1.243 . S
C243 C242 1.503 . S
C243 C244 1.394 . S
C243 C248 1.373 . S
C244 C243 1.394 . S
C244 C245 1.380 . S
C244 H272 0.930 . S
C245 C244 1.380 . S
C245 C246 1.376 . S
C245 H273 0.930 . S
C246 C245 1.376 . S
C246 C247 1.370 . S
C247 C246 1.370 . S
C247 C248 1.396 . S
C247 H274 0.929 . S
C248 C243 1.373 . S
C248 C247 1.396 . S
C248 H275 0.929 . S
C249 O262 1.240 . S
C249 O263 1.289 . S
C250 O264 1.258 . S
C250 O265 1.256 . S
C251 La241 2.928 1_556 S
C251 C252 1.503 . S
C251 O266 1.261 . S
C251 O267 1.243 . S
C252 C251 1.503 . S
C252 C253 1.394 . S
C252 C257 1.373 . S
C253 C252 1.394 . S
C253 C254 1.380 . S
C253 H276 0.930 . S
C254 C253 1.380 . S
C254 C255 1.376 . S
C254 H277 0.930 . S
C255 C254 1.376 . S
C255 C256 1.370 . S
C256 C255 1.370 . S
C256 C257 1.396 . S
C256 H278 0.929 . S
C257 C252 1.373 . S
C257 C256 1.396 . S
C257 H279 0.929 . S
C258 O268 1.240 . S
C258 O269 1.289 . S
C259 O270 1.258 . S
C259 O271 1.256 . S
O260 La240 2.521 1_554 S
O260 C242 1.261 . S
O261 La240 2.628 1_554 S
O261 C242 1.243 . S
O262 La240 2.554 . S
O262 C249 1.240 . S
O263 La240 2.757 . S
O263 La241 2.482 1_556 S
O263 C249 1.289 . S
O264 La240 2.470 1_554 S
O264 C250 1.258 . S
O265 La241 2.503 . S
O265 C250 1.256 . S
O266 La241 2.521 1_556 S
O266 C251 1.261 . S
O267 La241 2.628 1_556 S
O267 C251 1.243 . S
O268 La241 2.554 . S
O268 C258 1.240 . S
O269 La240 2.482 1_554 S
O269 La241 2.757 . S
O269 C258 1.289 . S
O270 La241 2.470 1_556 S
O270 C259 1.258 . S
O271 La240 2.503 . S
O271 C259 1.256 . S
H272 C244 0.930 . S
H273 C245 0.930 . S
H274 C247 0.929 . S
H275 C248 0.929 . S
H276 C253 0.930 . S
H277 C254 0.930 . S
H278 C256 0.929 . S
H279 C257 0.929 . S
La280 C282 2.928 1_556 S
La280 O300 2.521 1_556 S
La280 O301 2.628 1_556 S
La280 O302 2.554 . S
La280 O303 2.757 . S
La280 O304 2.470 1_556 S
La280 O309 2.482 1_556 S
La280 O311 2.503 . S
La281 C291 2.928 1_554 S
La281 O303 2.482 1_554 S
La281 O305 2.503 . S
La281 O306 2.521 1_554 S
La281 O307 2.628 1_554 S
La281 O308 2.554 . S
La281 O309 2.757 . S
La281 O310 2.470 1_554 S
C282 La280 2.928 1_554 S
C282 C283 1.503 . S
C282 O300 1.261 . S
C282 O301 1.243 . S
C283 C282 1.503 . S
C283 C284 1.394 . S
C283 C288 1.373 . S
C284 C283 1.394 . S
C284 C285 1.380 . S
C284 H312 0.930 . S
C285 C284 1.380 . S
C285 C286 1.376 . S
C285 H313 0.930 . S
C286 C285 1.376 . S
C286 C287 1.370 . S
C287 C286 1.370 . S
C287 C288 1.396 . S
C287 H314 0.929 . S
C288 C283 1.373 . S
C288 C287 1.396 . S
C288 H315 0.929 . S
C289 O302 1.240 . S
C289 O303 1.289 . S
C290 O304 1.258 . S
C290 O305 1.256 . S
C291 La281 2.928 1_556 S
C291 C292 1.503 . S
C291 O306 1.261 . S
C291 O307 1.243 . S
C292 C291 1.503 . S
C292 C293 1.394 . S
C292 C297 1.373 . S
C293 C292 1.394 . S
C293 C294 1.380 . S
C293 H316 0.930 . S
C294 C293 1.380 . S
C294 C295 1.376 . S
C294 H317 0.930 . S
C295 C294 1.376 . S
C295 C296 1.370 . S
C296 C295 1.370 . S
C296 C297 1.396 . S
C296 H318 0.929 . S
C297 C292 1.373 . S
C297 C296 1.396 . S
C297 H319 0.929 . S
C298 O308 1.240 . S
C298 O309 1.289 . S
C299 O310 1.258 . S
C299 O311 1.256 . S
O300 La280 2.521 1_554 S
O300 C282 1.261 . S
O301 La280 2.628 1_554 S
O301 C282 1.243 . S
O302 La280 2.554 . S
O302 C289 1.240 . S
O303 La280 2.757 . S
O303 La281 2.482 1_556 S
O303 C289 1.289 . S
O304 La280 2.470 1_554 S
O304 C290 1.258 . S
O305 La281 2.503 . S
O305 C290 1.256 . S
O306 La281 2.521 1_556 S
O306 C291 1.261 . S
O307 La281 2.628 1_556 S
O307 C291 1.243 . S
O308 La281 2.554 . S
O308 C298 1.240 . S
O309 La280 2.482 1_554 S
O309 La281 2.757 . S
O309 C298 1.289 . S
O310 La281 2.470 1_556 S
O310 C299 1.258 . S
O311 La280 2.503 . S
O311 C299 1.256 . S
H312 C284 0.930 . S
H313 C285 0.930 . S
H314 C287 0.929 . S
H315 C288 0.929 . S
H316 C293 0.930 . S
H317 C294 0.930 . S
H318 C296 0.929 . S
H319 C297 0.929 . S
H320 C328 0.950 . S
H321 C333 0.950 . S
H322 C330 0.950 . S
H323 C332 0.950 . S
H324 C334 0.950 . S
H325 C336 0.950 . S
H326 C338 0.950 . S
H327 C339 0.950 . S
C328 H320 0.950 . S
C328 C329 1.386 . S
C328 C330 1.391 . S
C329 C328 1.386 . S
C329 C333 1.393 . S
C330 H322 0.950 . S
C330 C328 1.391 . S
C330 C331 1.400 . S
C331 C330 1.400 . S
C331 C332 1.398 . S
C331 C337 1.491 . S
C332 H323 0.950 . S
C332 C331 1.398 . S
C332 C333 1.391 . S
C333 H321 0.950 . S
C333 C329 1.393 . S
C333 C332 1.391 . S
C334 H324 0.950 . S
C334 C335 1.386 . S
C334 C336 1.391 . S
C335 C334 1.386 . S
C335 C339 1.393 . S
C336 H325 0.950 . S
C336 C334 1.391 . S
C336 C337 1.400 . S
C337 C331 1.491 . S
C337 C336 1.400 . S
C337 C338 1.398 . S
C338 H326 0.950 . S
C338 C337 1.398 . S
C338 C339 1.391 . S
C339 H327 0.950 . S
C339 C335 1.393 . S
C339 C338 1.391 . S
H340 C348 0.950 . S
H341 C353 0.950 . S
H342 C350 0.950 . S
H343 C352 0.950 . S
H344 C354 0.950 . S
H345 C356 0.950 . S
H346 C358 0.950 . S
H347 C359 0.950 . S
C348 H340 0.950 . S
C348 C349 1.386 . S
C348 C350 1.391 . S
C349 C348 1.386 . S
C349 C353 1.393 . S
C350 H342 0.950 . S
C350 C348 1.391 . S
C350 C351 1.400 . S
C351 C350 1.400 . S
C351 C352 1.398 . S
C351 C357 1.491 . S
C352 H343 0.950 . S
C352 C351 1.398 . S
C352 C353 1.391 . S
C353 H341 0.950 . S
C353 C349 1.393 . S
C353 C352 1.391 . S
C354 H344 0.950 . S
C354 C355 1.386 . S
C354 C356 1.391 . S
C355 C354 1.386 . S
C355 C359 1.393 . S
C356 H345 0.950 . S
C356 C354 1.391 . S
C356 C357 1.400 . S
C357 C351 1.491 . S
C357 C356 1.400 . S
C357 C358 1.398 . S
C358 H346 0.950 . S
C358 C357 1.398 . S
C358 C359 1.391 . S
C359 H347 0.950 . S
C359 C355 1.393 . S
C359 C358 1.391 . S
H360 C368 0.950 . S
H361 C373 0.950 . S
H362 C370 0.950 . S
H363 C372 0.950 . S
H364 C374 0.950 . S
H365 C376 0.950 . S
H366 C378 0.950 . S
H367 C379 0.950 . S
C368 H360 0.950 . S
C368 C369 1.386 . S
C368 C370 1.391 . S
C369 C368 1.386 . S
C369 C373 1.393 . S
C370 H362 0.950 . S
C370 C368 1.391 . S
C370 C371 1.400 . S
C371 C370 1.400 . S
C371 C372 1.398 . S
C371 C377 1.491 . S
C372 H363 0.950 . S
C372 C371 1.398 . S
C372 C373 1.391 . S
C373 H361 0.950 . S
C373 C369 1.393 . S
C373 C372 1.391 . S
C374 H364 0.950 . S
C374 C375 1.386 . S
C374 C376 1.391 . S
C375 C374 1.386 . S
C375 C379 1.393 . S
C376 H365 0.950 . S
C376 C374 1.391 . S
C376 C377 1.400 . S
C377 C371 1.491 . S
C377 C376 1.400 . S
C377 C378 1.398 . S
C378 H366 0.950 . S
C378 C377 1.398 . S
C378 C379 1.391 . S
C379 H367 0.950 . S
C379 C375 1.393 . S
C379 C378 1.391 . S
H380 C388 0.950 . S
H381 C393 0.950 . S
H382 C390 0.950 . S
H383 C392 0.950 . S
H384 C394 0.950 . S
H385 C396 0.950 . S
H386 C398 0.950 . S
H387 C399 0.950 . S
C388 H380 0.950 . S
C388 C389 1.386 . S
C388 C390 1.391 . S
C389 C388 1.386 . S
C389 C393 1.393 . S
C390 H382 0.950 . S
C390 C388 1.391 . S
C390 C391 1.400 . S
C391 C390 1.400 . S
C391 C392 1.398 . S
C391 C397 1.491 . S
C392 H383 0.950 . S
C392 C391 1.398 . S
C392 C393 1.391 . S
C393 H381 0.950 . S
C393 C389 1.393 . S
C393 C392 1.391 . S
C394 H384 0.950 . S
C394 C395 1.386 . S
C394 C396 1.391 . S
C395 C394 1.386 . S
C395 C399 1.393 . S
C396 H385 0.950 . S
C396 C394 1.391 . S
C396 C397 1.400 . S
C397 C391 1.491 . S
C397 C396 1.400 . S
C397 C398 1.398 . S
C398 H386 0.950 . S
C398 C397 1.398 . S
C398 C399 1.391 . S
C399 H387 0.950 . S
C399 C395 1.393 . S
C399 C398 1.391 . S
H400 C408 0.950 . S
H401 C413 0.950 . S
H402 C410 0.950 . S
H403 C412 0.950 . S
H404 C414 0.950 . S
H405 C416 0.950 . S
H406 C418 0.950 . S
H407 C419 0.950 . S
C408 H400 0.950 . S
C408 C409 1.386 . S
C408 C410 1.391 . S
C409 C408 1.386 . S
C409 C413 1.393 . S
C410 H402 0.950 . S
C410 C408 1.391 . S
C410 C411 1.400 . S
C411 C410 1.400 . S
C411 C412 1.398 . S
C411 C417 1.491 1_565 S
C412 H403 0.950 . S
C412 C411 1.398 . S
C412 C413 1.391 . S
C413 H401 0.950 . S
C413 C409 1.393 . S
C413 C412 1.391 . S
C414 H404 0.950 . S
C414 C415 1.386 . S
C414 C416 1.391 . S
C415 C414 1.386 . S
C415 C419 1.393 . S
C416 H405 0.950 . S
C416 C414 1.391 . S
C416 C417 1.400 . S
C417 C411 1.491 1_545 S
C417 C416 1.400 . S
C417 C418 1.398 . S
C418 H406 0.950 . S
C418 C417 1.398 . S
C418 C419 1.391 . S
C419 H407 0.950 . S
C419 C415 1.393 . S
C419 C418 1.391 . S
H420 C428 0.950 . S
H421 C433 0.950 . S
H422 C430 0.950 . S
H423 C432 0.950 . S
H424 C434 0.950 . S
H425 C436 0.950 . S
H426 C438 0.950 . S
H427 C439 0.950 . S
C428 H420 0.950 . S
C428 C429 1.386 . S
C428 C430 1.391 . S
C429 C428 1.386 . S
C429 C433 1.393 . S
C430 H422 0.950 . S
C430 C428 1.391 . S
C430 C431 1.400 . S
C431 C430 1.400 . S
C431 C432 1.398 . S
C431 C437 1.491 . S
C432 H423 0.950 . S
C432 C431 1.398 . S
C432 C433 1.391 . S
C433 H421 0.950 . S
C433 C429 1.393 . S
C433 C432 1.391 . S
C434 H424 0.950 . S
C434 C435 1.386 . S
C434 C436 1.391 . S
C435 C434 1.386 . S
C435 C439 1.393 . S
C436 H425 0.950 . S
C436 C434 1.391 . S
C436 C437 1.400 . S
C437 C431 1.491 . S
C437 C436 1.400 . S
C437 C438 1.398 . S
C438 H426 0.950 . S
C438 C437 1.398 . S
C438 C439 1.391 . S
C439 H427 0.950 . S
C439 C435 1.393 . S
C439 C438 1.391 . S
H440 C448 0.950 . S
H441 C453 0.950 . S
H442 C450 0.950 . S
H443 C452 0.950 . S
H444 C454 0.950 . S
H445 C456 0.950 . S
H446 C458 0.950 . S
H447 C459 0.950 . S
C448 H440 0.950 . S
C448 C449 1.386 . S
C448 C450 1.391 . S
C449 C448 1.386 . S
C449 C453 1.393 . S
C450 H442 0.950 . S
C450 C448 1.391 . S
C450 C451 1.400 . S
C451 C450 1.400 . S
C451 C452 1.398 . S
C451 C457 1.491 1_565 S
C452 H443 0.950 . S
C452 C451 1.398 . S
C452 C453 1.391 . S
C453 H441 0.950 . S
C453 C449 1.393 . S
C453 C452 1.391 . S
C454 H444 0.950 . S
C454 C455 1.386 . S
C454 C456 1.391 . S
C455 C454 1.386 . S
C455 C459 1.393 . S
C456 H445 0.950 . S
C456 C454 1.391 . S
C456 C457 1.400 . S
C457 C451 1.491 1_545 S
C457 C456 1.400 . S
C457 C458 1.398 . S
C458 H446 0.950 . S
C458 C457 1.398 . S
C458 C459 1.391 . S
C459 H447 0.950 . S
C459 C455 1.393 . S
C459 C458 1.391 . S
H460 C468 0.950 . S
H461 C473 0.950 . S
H462 C470 0.950 . S
H463 C472 0.950 . S
H464 C474 0.950 . S
H465 C476 0.950 . S
H466 C478 0.950 . S
H467 C479 0.950 . S
C468 H460 0.950 . S
C468 C469 1.386 . S
C468 C470 1.391 . S
C469 C468 1.386 . S
C469 C473 1.393 . S
C470 H462 0.950 . S
C470 C468 1.391 . S
C470 C471 1.400 . S
C471 C470 1.400 . S
C471 C472 1.398 . S
C471 C477 1.491 . S
C472 H463 0.950 . S
C472 C471 1.398 . S
C472 C473 1.391 . S
C473 H461 0.950 . S
C473 C469 1.393 . S
C473 C472 1.391 . S
C474 H464 0.950 . S
C474 C475 1.386 . S
C474 C476 1.391 . S
C475 C474 1.386 . S
C475 C479 1.393 . S
C476 H465 0.950 . S
C476 C474 1.391 . S
C476 C477 1.400 . S
C477 C471 1.491 . S
C477 C476 1.400 . S
C477 C478 1.398 . S
C478 H466 0.950 . S
C478 C477 1.398 . S
C478 C479 1.391 . S
C479 H467 0.950 . S
C479 C475 1.393 . S
C479 C478 1.391 . S
H480 C488 0.950 . S
H481 C493 0.950 . S
H482 C490 0.950 . S
H483 C492 0.950 . S
H484 C494 0.950 . S
H485 C496 0.950 . S
H486 C498 0.950 . S
H487 C499 0.950 . S
C488 H480 0.950 . S
C488 C489 1.386 . S
C488 C490 1.391 . S
C489 C488 1.386 . S
C489 C493 1.393 1_556 S
C490 H482 0.950 . S
C490 C488 1.391 . S
C490 C491 1.400 . S
C491 C490 1.400 . S
C491 C492 1.398 1_556 S
C491 C497 1.491 . S
C492 H483 0.950 . S
C492 C491 1.398 1_554 S
C492 C493 1.391 . S
C493 H481 0.950 . S
C493 C489 1.393 1_554 S
C493 C492 1.391 . S
C494 H484 0.950 . S
C494 C495 1.386 1_554 S
C494 C496 1.391 . S
C495 C494 1.386 1_556 S
C495 C499 1.393 . S
C496 H485 0.950 . S
C496 C494 1.391 . S
C496 C497 1.400 1_554 S
C497 C491 1.491 . S
C497 C496 1.400 1_556 S
C497 C498 1.398 . S
C498 H486 0.950 . S
C498 C497 1.398 . S
C498 C499 1.391 . S
C499 H487 0.950 . S
C499 C495 1.393 . S
C499 C498 1.391 . S
H500 C508 0.950 . S
H501 C513 0.950 . S
H502 C510 0.950 . S
H503 C512 0.950 . S
H504 C514 0.950 . S
H505 C516 0.950 . S
H506 C518 0.950 . S
H507 C519 0.950 . S
C508 H500 0.950 . S
C508 C509 1.386 1_554 S
C508 C510 1.391 . S
C509 C508 1.386 1_556 S
C509 C513 1.393 . S
C510 H502 0.950 . S
C510 C508 1.391 . S
C510 C511 1.400 1_554 S
C511 C510 1.400 1_556 S
C511 C512 1.398 . S
C511 C517 1.491 1_565 S
C512 H503 0.950 . S
C512 C511 1.398 . S
C512 C513 1.391 . S
C513 H501 0.950 . S
C513 C509 1.393 . S
C513 C512 1.391 . S
C514 H504 0.950 . S
C514 C515 1.386 . S
C514 C516 1.391 . S
C515 C514 1.386 . S
C515 C519 1.393 1_556 S
C516 H505 0.950 . S
C516 C514 1.391 . S
C516 C517 1.400 . S
C517 C511 1.491 1_545 S
C517 C516 1.400 . S
C517 C518 1.398 1_556 S
C518 H506 0.950 . S
C518 C517 1.398 1_554 S
C518 C519 1.391 . S
C519 H507 0.950 . S
C519 C515 1.393 1_554 S
C519 C518 1.391 . S
H520 C528 0.950 . S
H521 C533 0.950 . S
H522 C530 0.950 . S
H523 C532 0.950 . S
H524 C534 0.950 . S
H525 C536 0.950 . S
H526 C538 0.950 . S
H527 C539 0.950 . S
C528 H520 0.950 . S
C528 C529 1.386 . S
C528 C530 1.391 . S
C529 C528 1.386 . S
C529 C533 1.393 1_554 S
C530 H522 0.950 . S
C530 C528 1.391 . S
C530 C531 1.400 . S
C531 C530 1.400 . S
C531 C532 1.398 1_554 S
C531 C537 1.491 . S
C532 H523 0.950 . S
C532 C531 1.398 1_556 S
C532 C533 1.391 . S
C533 H521 0.950 . S
C533 C529 1.393 1_556 S
C533 C532 1.391 . S
C534 H524 0.950 . S
C534 C535 1.386 1_556 S
C534 C536 1.391 . S
C535 C534 1.386 1_554 S
C535 C539 1.393 . S
C536 H525 0.950 . S
C536 C534 1.391 . S
C536 C537 1.400 1_556 S
C537 C531 1.491 . S
C537 C536 1.400 1_554 S
C537 C538 1.398 . S
C538 H526 0.950 . S
C538 C537 1.398 . S
C538 C539 1.391 . S
C539 H527 0.950 . S
C539 C535 1.393 . S
C539 C538 1.391 . S
H540 C548 0.950 . S
H541 C553 0.950 . S
H542 C550 0.950 . S
H543 C552 0.950 . S
H544 C554 0.950 . S
H545 C556 0.950 . S
H546 C558 0.950 . S
H547 C559 0.950 . S
C548 H540 0.950 . S
C548 C549 1.386 . S
C548 C550 1.391 . S
C549 C548 1.386 . S
C549 C553 1.393 1_554 S
C550 H542 0.950 . S
C550 C548 1.391 . S
C550 C551 1.400 . S
C551 C550 1.400 . S
C551 C552 1.398 1_554 S
C551 C557 1.491 1_545 S
C552 H543 0.950 . S
C552 C551 1.398 1_556 S
C552 C553 1.391 . S
C553 H541 0.950 . S
C553 C549 1.393 1_556 S
C553 C552 1.391 . S
C554 H544 0.950 . S
C554 C555 1.386 1_556 S
C554 C556 1.391 . S
C555 C554 1.386 1_554 S
C555 C559 1.393 . S
C556 H545 0.950 . S
C556 C554 1.391 . S
C556 C557 1.400 1_556 S
C557 C551 1.491 1_565 S
C557 C556 1.400 1_554 S
C557 C558 1.398 . S
C558 H546 0.950 . S
C558 C557 1.398 . S
C558 C559 1.391 . S
C559 H547 0.950 . S
C559 C555 1.393 . S
C559 C558 1.391 . S
H560 C568 0.950 . S
H561 C573 0.950 . S
H562 C570 0.950 . S
H563 C572 0.950 1_556 S
H564 C574 0.950 . S
H565 C576 0.950 . S
H566 C578 0.950 . S
H567 C579 0.950 . S
C568 H560 0.950 . S
C568 C569 1.386 . S
C568 C570 1.391 . S
C569 C568 1.386 . S
C569 C573 1.393 . S
C570 H562 0.950 . S
C570 C568 1.391 . S
C570 C571 1.400 1_554 S
C571 C570 1.400 1_556 S
C571 C572 1.398 1_556 S
C571 C577 1.491 . S
C572 H563 0.950 1_554 S
C572 C571 1.398 1_554 S
C572 C573 1.391 . S
C573 H561 0.950 . S
C573 C569 1.393 . S
C573 C572 1.391 . S
C574 H564 0.950 . S
C574 C575 1.386 . S
C574 C576 1.391 . S
C575 C574 1.386 . S
C575 C579 1.393 . S
C576 H565 0.950 . S
C576 C574 1.391 . S
C576 C577 1.400 . S
C577 C571 1.491 . S
C577 C576 1.400 . S
C577 C578 1.398 . S
C578 H566 0.950 . S
C578 C577 1.398 . S
C578 C579 1.391 . S
C579 H567 0.950 . S
C579 C575 1.393 . S
C579 C578 1.391 . S
H580 C588 0.950 . S
H581 C593 0.950 . S
H582 C590 0.950 . S
H583 C592 0.950 1_556 S
H584 C594 0.950 . S
H585 C596 0.950 . S
H586 C598 0.950 . S
H587 C599 0.950 . S
C588 H580 0.950 . S
C588 C589 1.386 . S
C588 C590 1.391 . S
C589 C588 1.386 . S
C589 C593 1.393 . S
C590 H582 0.950 . S
C590 C588 1.391 . S
C590 C591 1.400 1_554 S
C591 C590 1.400 1_556 S
C591 C592 1.398 1_556 S
C591 C597 1.491 . S
C592 H583 0.950 1_554 S
C592 C591 1.398 1_554 S
C592 C593 1.391 . S
C593 H581 0.950 . S
C593 C589 1.393 . S
C593 C592 1.391 . S
C594 H584 0.950 . S
C594 C595 1.386 . S
C594 C596 1.391 . S
C595 C594 1.386 . S
C595 C599 1.393 . S
C596 H585 0.950 . S
C596 C594 1.391 . S
C596 C597 1.400 . S
C597 C591 1.491 . S
C597 C596 1.400 . S
C597 C598 1.398 . S
C598 H586 0.950 . S
C598 C597 1.398 . S
C598 C599 1.391 . S
C599 H587 0.950 . S
C599 C595 1.393 . S
C599 C598 1.391 . S
H600 C608 0.950 . S
H601 C613 0.950 . S
H602 C610 0.950 . S
H603 C612 0.950 . S
H604 C614 0.950 . S
H605 C616 0.950 1_554 S
H606 C618 0.950 1_554 S
H607 C619 0.950 . S
C608 H600 0.950 . S
C608 C609 1.386 . S
C608 C610 1.391 . S
C609 C608 1.386 . S
C609 C613 1.393 . S
C610 H602 0.950 . S
C610 C608 1.391 . S
C610 C611 1.400 . S
C611 C610 1.400 . S
C611 C612 1.398 . S
C611 C617 1.491 . S
C612 H603 0.950 . S
C612 C611 1.398 . S
C612 C613 1.391 . S
C613 H601 0.950 . S
C613 C609 1.393 . S
C613 C612 1.391 . S
C614 H604 0.950 . S
C614 C615 1.386 . S
C614 C616 1.391 . S
C615 C614 1.386 . S
C615 C619 1.393 . S
C616 H605 0.950 1_556 S
C616 C614 1.391 . S
C616 C617 1.400 1_556 S
C617 C611 1.491 . S
C617 C616 1.400 1_554 S
C617 C618 1.398 1_554 S
C618 H606 0.950 1_556 S
C618 C617 1.398 1_556 S
C618 C619 1.391 . S
C619 H607 0.950 . S
C619 C615 1.393 . S
C619 C618 1.391 . S
H620 C628 0.950 . S
H621 C633 0.950 . S
H622 C630 0.950 1_554 S
H623 C632 0.950 . S
H624 C634 0.950 . S
H625 C636 0.950 . S
H626 C638 0.950 . S
H627 C639 0.950 . S
C628 H620 0.950 . S
C628 C629 1.386 . S
C628 C630 1.391 . S
C629 C628 1.386 . S
C629 C633 1.393 . S
C630 H622 0.950 1_556 S
C630 C628 1.391 . S
C630 C631 1.400 1_556 S
C631 C630 1.400 1_554 S
C631 C632 1.398 1_554 S
C631 C637 1.491 . S
C632 H623 0.950 . S
C632 C631 1.398 1_556 S
C632 C633 1.391 . S
C633 H621 0.950 . S
C633 C629 1.393 . S
C633 C632 1.391 . S
C634 H624 0.950 . S
C634 C635 1.386 . S
C634 C636 1.391 . S
C635 C634 1.386 . S
C635 C639 1.393 . S
C636 H625 0.950 . S
C636 C634 1.391 . S
C636 C637 1.400 . S
C637 C631 1.491 . S
C637 C636 1.400 . S
C637 C638 1.398 . S
C638 H626 0.950 . S
C638 C637 1.398 . S
C638 C639 1.391 . S
C639 H627 0.950 . S
C639 C635 1.393 . S
C639 C638 1.391 . S
H640 C648 0.950 . S
H641 C653 0.950 . S
H642 C650 0.950 . S
H643 C652 0.950 . S
H644 C654 0.950 . S
H645 C656 0.950 . S
H646 C658 0.950 . S
H647 C659 0.950 . S
C648 H640 0.950 . S
C648 C649 1.386 . S
C648 C650 1.391 . S
C649 C648 1.386 . S
C649 C653 1.393 . S
C650 H642 0.950 . S
C650 C648 1.391 . S
C650 C651 1.400 . S
C651 C650 1.400 . S
C651 C652 1.398 . S
C651 C657 1.491 . S
C652 H643 0.950 . S
C652 C651 1.398 . S
C652 C653 1.391 . S
C653 H641 0.950 . S
C653 C649 1.393 . S
C653 C652 1.391 . S
C654 H644 0.950 . S
C654 C655 1.386 . S
C654 C656 1.391 . S
C655 C654 1.386 . S
C655 C659 1.393 . S
C656 H645 0.950 . S
C656 C654 1.391 . S
C656 C657 1.400 . S
C657 C651 1.491 . S
C657 C656 1.400 . S
C657 C658 1.398 . S
C658 H646 0.950 . S
C658 C657 1.398 . S
C658 C659 1.391 . S
C659 H647 0.950 . S
C659 C655 1.393 . S
C659 C658 1.391 . S
H660 C668 0.950 . S
H661 C673 0.950 . S
H662 C670 0.950 . S
H663 C672 0.950 . S
H664 C674 0.950 . S
H665 C676 0.950 . S
H666 C678 0.950 . S
H667 C679 0.950 . S
C668 H660 0.950 . S
C668 C669 1.386 . S
C668 C670 1.391 . S
C669 C668 1.386 . S
C669 C673 1.393 . S
C670 H662 0.950 . S
C670 C668 1.391 . S
C670 C671 1.400 . S
C671 C670 1.400 . S
C671 C672 1.398 . S
C671 C677 1.491 . S
C672 H663 0.950 . S
C672 C671 1.398 . S
C672 C673 1.391 . S
C673 H661 0.950 . S
C673 C669 1.393 . S
C673 C672 1.391 . S
C674 H664 0.950 . S
C674 C675 1.386 . S
C674 C676 1.391 . S
C675 C674 1.386 . S
C675 C679 1.393 . S
C676 H665 0.950 . S
C676 C674 1.391 . S
C676 C677 1.400 . S
C677 C671 1.491 . S
C677 C676 1.400 . S
C677 C678 1.398 . S
C678 H666 0.950 . S
C678 C677 1.398 . S
C678 C679 1.391 . S
C679 H667 0.950 . S
C679 C675 1.393 . S
C679 C678 1.391 . S
H680 C688 0.950 . S
H681 C693 0.950 . S
H682 C690 0.950 . S
H683 C692 0.950 . S
H684 C694 0.950 . S
H685 C696 0.950 . S
H686 C698 0.950 . S
H687 C699 0.950 . S
C688 H680 0.950 . S
C688 C689 1.386 . S
C688 C690 1.391 . S
C689 C688 1.386 . S
C689 C693 1.393 . S
C690 H682 0.950 . S
C690 C688 1.391 . S
C690 C691 1.400 . S
C691 C690 1.400 . S
C691 C692 1.398 . S
C691 C697 1.491 . S
C692 H683 0.950 . S
C692 C691 1.398 . S
C692 C693 1.391 . S
C693 H681 0.950 . S
C693 C689 1.393 . S
C693 C692 1.391 . S
C694 H684 0.950 . S
C694 C695 1.386 . S
C694 C696 1.391 . S
C695 C694 1.386 . S
C695 C699 1.393 . S
C696 H685 0.950 . S
C696 C694 1.391 . S
C696 C697 1.400 . S
C697 C691 1.491 . S
C697 C696 1.400 . S
C697 C698 1.398 . S
C698 H686 0.950 . S
C698 C697 1.398 . S
C698 C699 1.391 . S
C699 H687 0.950 . S
C699 C695 1.393 . S
C699 C698 1.391 . S
H700 C708 0.950 . S
H701 C713 0.950 . S
H702 C710 0.950 . S
H703 C712 0.950 . S
H704 C714 0.950 . S
H705 C716 0.950 . S
H706 C718 0.950 . S
H707 C719 0.950 . S
C708 H700 0.950 . S
C708 C709 1.386 . S
C708 C710 1.391 . S
C709 C708 1.386 . S
C709 C713 1.393 . S
C710 H702 0.950 . S
C710 C708 1.391 . S
C710 C711 1.400 . S
C711 C710 1.400 . S
C711 C712 1.398 . S
C711 C717 1.491 . S
C712 H703 0.950 . S
C712 C711 1.398 . S
C712 C713 1.391 . S
C713 H701 0.950 . S
C713 C709 1.393 . S
C713 C712 1.391 . S
C714 H704 0.950 . S
C714 C715 1.386 . S
C714 C716 1.391 . S
C715 C714 1.386 . S
C715 C719 1.393 . S
C716 H705 0.950 . S
C716 C714 1.391 . S
C716 C717 1.400 . S
C717 C711 1.491 . S
C717 C716 1.400 . S
C717 C718 1.398 . S
C718 H706 0.950 . S
C718 C717 1.398 . S
C718 C719 1.391 . S
C719 H707 0.950 . S
C719 C715 1.393 . S
C719 C718 1.391 . S
H720 C728 0.950 . S
H721 C733 0.950 . S
H722 C730 0.950 . S
H723 C732 0.950 . S
H724 C734 0.950 . S
H725 C736 0.950 . S
H726 C738 0.950 . S
H727 C739 0.950 . S
C728 H720 0.950 . S
C728 C729 1.386 . S
C728 C730 1.391 . S
C729 C728 1.386 . S
C729 C733 1.393 . S
C730 H722 0.950 . S
C730 C728 1.391 . S
C730 C731 1.400 . S
C731 C730 1.400 . S
C731 C732 1.398 . S
C731 C737 1.491 1_455 S
C732 H723 0.950 . S
C732 C731 1.398 . S
C732 C733 1.391 . S
C733 H721 0.950 . S
C733 C729 1.393 . S
C733 C732 1.391 . S
C734 H724 0.950 . S
C734 C735 1.386 . S
C734 C736 1.391 . S
C735 C734 1.386 . S
C735 C739 1.393 . S
C736 H725 0.950 . S
C736 C734 1.391 . S
C736 C737 1.400 . S
C737 C731 1.491 1_655 S
C737 C736 1.400 . S
C737 C738 1.398 . S
C738 H726 0.950 . S
C738 C737 1.398 . S
C738 C739 1.391 . S
C739 H727 0.950 . S
C739 C735 1.393 . S
C739 C738 1.391 . S
H740 C748 0.950 . S
H741 C753 0.950 . S
H742 C750 0.950 . S
H743 C752 0.950 . S
H744 C754 0.950 . S
H745 C756 0.950 . S
H746 C758 0.950 . S
H747 C759 0.950 . S
C748 H740 0.950 . S
C748 C749 1.386 . S
C748 C750 1.391 . S
C749 C748 1.386 . S
C749 C753 1.393 . S
C750 H742 0.950 . S
C750 C748 1.391 . S
C750 C751 1.400 . S
C751 C750 1.400 . S
C751 C752 1.398 . S
C751 C757 1.491 1_655 S
C752 H743 0.950 . S
C752 C751 1.398 . S
C752 C753 1.391 . S
C753 H741 0.950 . S
C753 C749 1.393 . S
C753 C752 1.391 . S
C754 H744 0.950 . S
C754 C755 1.386 . S
C754 C756 1.391 . S
C755 C754 1.386 . S
C755 C759 1.393 . S
C756 H745 0.950 . S
C756 C754 1.391 . S
C756 C757 1.400 . S
C757 C751 1.491 1_455 S
C757 C756 1.400 . S
C757 C758 1.398 . S
C758 H746 0.950 . S
C758 C757 1.398 . S
C758 C759 1.391 . S
C759 H747 0.950 . S
C759 C755 1.393 . S
C759 C758 1.391 . S
H760 C768 0.950 . S
H761 C773 0.950 . S
H762 C770 0.950 . S
H763 C772 0.950 . S
H764 C774 0.950 . S
H765 C776 0.950 . S
H766 C778 0.950 . S
H767 C779 0.950 . S
C768 H760 0.950 . S
C768 C769 1.386 . S
C768 C770 1.391 . S
C769 C768 1.386 . S
C769 C773 1.393 . S
C770 H762 0.950 . S
C770 C768 1.391 . S
C770 C771 1.400 . S
C771 C770 1.400 . S
C771 C772 1.398 . S
C771 C777 1.491 . S
C772 H763 0.950 . S
C772 C771 1.398 . S
C772 C773 1.391 . S
C773 H761 0.950 . S
C773 C769 1.393 . S
C773 C772 1.391 . S
C774 H764 0.950 . S
C774 C775 1.386 . S
C774 C776 1.391 . S
C775 C774 1.386 . S
C775 C779 1.393 . S
C776 H765 0.950 . S
C776 C774 1.391 . S
C776 C777 1.400 . S
C777 C771 1.491 . S
C777 C776 1.400 . S
C777 C778 1.398 . S
C778 H766 0.950 . S
C778 C777 1.398 . S
C778 C779 1.391 . S
C779 H767 0.950 . S
C779 C775 1.393 . S
C779 C778 1.391 . S
H780 C788 0.950 . S
H781 C793 0.950 . S
H782 C790 0.950 . S
H783 C792 0.950 . S
H784 C794 0.950 . S
H785 C796 0.950 . S
H786 C798 0.950 . S
H787 C799 0.950 . S
C788 H780 0.950 . S
C788 C789 1.386 . S
C788 C790 1.391 . S
C789 C788 1.386 . S
C789 C793 1.393 . S
C790 H782 0.950 . S
C790 C788 1.391 . S
C790 C791 1.400 . S
C791 C790 1.400 . S
C791 C792 1.398 . S
C791 C797 1.491 . S
C792 H783 0.950 . S
C792 C791 1.398 . S
C792 C793 1.391 . S
C793 H781 0.950 . S
C793 C789 1.393 . S
C793 C792 1.391 . S
C794 H784 0.950 . S
C794 C795 1.386 . S
C794 C796 1.391 . S
C795 C794 1.386 . S
C795 C799 1.393 . S
C796 H785 0.950 . S
C796 C794 1.391 . S
C796 C797 1.400 . S
C797 C791 1.491 . S
C797 C796 1.400 . S
C797 C798 1.398 . S
C798 H786 0.950 . S
C798 C797 1.398 . S
C798 C799 1.391 . S
C799 H787 0.950 . S
C799 C795 1.393 . S
C799 C798 1.391 . S
C329 C6 1.671 . S
C335 C295 1.671 . S
C349 C255 1.669 . S
C355 C46 1.669 . S
C369 C206 1.675 . S
C375 C95 1.674 . S
C389 C166 1.676 . S
C395 C135 1.675 . S
C409 C89 1.536 . S
C415 C9 1.555 . S
C429 C49 1.561 . S
C435 C129 1.546 . S
C449 C138 1.558 . S
C455 C58 1.536 . S
C469 C98 1.573 . S
C475 C18 1.552 . S
C489 C169 1.428 . S
C495 C249 1.431 . S
C509 C209 1.439 . S
C515 C289 1.444 . S
C529 C298 1.452 . S
C535 C218 1.451 . S
C549 C258 1.444 . S
C555 C178 1.440 . S
C569 C19 2.050 . S
C575 C10 2.050 . S
C589 C59 2.041 . S
C595 C50 2.041 . S
C609 C99 2.049 . S
C615 C90 2.049 . S
C629 C130 2.033 . S
C635 C139 2.033 . S
C649 C170 2.039 . S
C655 C179 2.039 . S
C669 C219 2.029 . S
C675 C210 2.029 . S
C689 C250 2.039 . S
C695 C259 2.039 . S
C709 C290 2.043 . S
C715 C299 2.043 . S
C729 C15 2.310 . S
C735 C55 2.297 . S
C749 C126 2.305 . S
C755 C86 2.301 . S
C769 C175 2.312 . S
C775 C215 2.298 . S
C789 C286 2.310 . S
C795 C246 2.299 . S
