# Generated by pormake.
# Topology yfd, (5)-cn, num edge types: 1
# Building blocks:
#     Node 0, Type 0, BuildingBlock: BEQFEK_clean_sbu_0, # of connection points: 5
#     Node 1, Type 0, BuildingBlock: BEQFEK_clean_sbu_0, # of connection points: 5
#     Node 2, Type 0, BuildingBlock: BEQFEK_clean_sbu_0, # of connection points: 5
#     Node 3, Type 0, BuildingBlock: BEQFEK_clean_sbu_0, # of connection points: 5
#     Node 4, Type 0, BuildingBlock: BEQFEK_clean_sbu_0, # of connection points: 5
#     Node 5, Type 0, BuildingBlock: BEQFEK_clean_sbu_0, # of connection points: 5
#     Node 6, Type 0, BuildingBlock: BEQFEK_clean_sbu_0, # of connection points: 5
#     Node 7, Type 0, BuildingBlock: BEQFEK_clean_sbu_0, # of connection points: 5
#     Node 8, Type 0, BuildingBlock: BEQFEK_clean_sbu_0, # of connection points: 5
#     Node 9, Type 0, BuildingBlock: BEQFEK_clean_sbu_0, # of connection points: 5
#     Node 10, Type 0, BuildingBlock: BEQFEK_clean_sbu_0, # of connection points: 5
#     Node 11, Type 0, BuildingBlock: BEQFEK_clean_sbu_0, # of connection points: 5
#     Node 12, Type 0, BuildingBlock: BEQFEK_clean_sbu_0, # of connection points: 5
#     Node 13, Type 0, BuildingBlock: BEQFEK_clean_sbu_0, # of connection points: 5
#     Node 14, Type 0, BuildingBlock: BEQFEK_clean_sbu_0, # of connection points: 5
#     Node 15, Type 0, BuildingBlock: BEQFEK_clean_sbu_0, # of connection points: 5
#     Edge 16, Type (0, 0), BuildingBlock: XIVTED_clean_linker_0, # of connection points: 2
#     Edge 17, Type (0, 0), BuildingBlock: XIVTED_clean_linker_0, # of connection points: 2
#     Edge 18, Type (0, 0), BuildingBlock: XIVTED_clean_linker_0, # of connection points: 2
#     Edge 19, Type (0, 0), BuildingBlock: XIVTED_clean_linker_0, # of connection points: 2
#     Edge 20, Type (0, 0), BuildingBlock: XIVTED_clean_linker_0, # of connection points: 2
#     Edge 21, Type (0, 0), BuildingBlock: XIVTED_clean_linker_0, # of connection points: 2
#     Edge 22, Type (0, 0), BuildingBlock: XIVTED_clean_linker_0, # of connection points: 2
#     Edge 23, Type (0, 0), BuildingBlock: XIVTED_clean_linker_0, # of connection points: 2
#     Edge 24, Type (0, 0), BuildingBlock: XIVTED_clean_linker_0, # of connection points: 2
#     Edge 25, Type (0, 0), BuildingBlock: XIVTED_clean_linker_0, # of connection points: 2
#     Edge 26, Type (0, 0), BuildingBlock: XIVTED_clean_linker_0, # of connection points: 2
#     Edge 27, Type (0, 0), BuildingBlock: XIVTED_clean_linker_0, # of connection points: 2
#     Edge 28, Type (0, 0), BuildingBlock: XIVTED_clean_linker_0, # of connection points: 2
#     Edge 29, Type (0, 0), BuildingBlock: XIVTED_clean_linker_0, # of connection points: 2
#     Edge 30, Type (0, 0), BuildingBlock: XIVTED_clean_linker_0, # of connection points: 2
#     Edge 31, Type (0, 0), BuildingBlock: XIVTED_clean_linker_0, # of connection points: 2
#     Edge 32, Type (0, 0), BuildingBlock: XIVTED_clean_linker_0, # of connection points: 2
#     Edge 33, Type (0, 0), BuildingBlock: XIVTED_clean_linker_0, # of connection points: 2
#     Edge 34, Type (0, 0), BuildingBlock: XIVTED_clean_linker_0, # of connection points: 2
#     Edge 35, Type (0, 0), BuildingBlock: XIVTED_clean_linker_0, # of connection points: 2
#     Edge 36, Type (0, 0), BuildingBlock: XIVTED_clean_linker_0, # of connection points: 2
#     Edge 37, Type (0, 0), BuildingBlock: XIVTED_clean_linker_0, # of connection points: 2
#     Edge 38, Type (0, 0), BuildingBlock: XIVTED_clean_linker_0, # of connection points: 2
#     Edge 39, Type (0, 0), BuildingBlock: XIVTED_clean_linker_0, # of connection points: 2
#     Edge 40, Type (0, 0), BuildingBlock: XIVTED_clean_linker_0, # of connection points: 2
#     Edge 41, Type (0, 0), BuildingBlock: XIVTED_clean_linker_0, # of connection points: 2
#     Edge 42, Type (0, 0), BuildingBlock: XIVTED_clean_linker_0, # of connection points: 2
#     Edge 43, Type (0, 0), BuildingBlock: XIVTED_clean_linker_0, # of connection points: 2
#     Edge 44, Type (0, 0), BuildingBlock: XIVTED_clean_linker_0, # of connection points: 2
#     Edge 45, Type (0, 0), BuildingBlock: XIVTED_clean_linker_0, # of connection points: 2
#     Edge 46, Type (0, 0), BuildingBlock: XIVTED_clean_linker_0, # of connection points: 2
#     Edge 47, Type (0, 0), BuildingBlock: XIVTED_clean_linker_0, # of connection points: 2
#     Edge 48, Type (0, 0), BuildingBlock: XIVTED_clean_linker_0, # of connection points: 2
#     Edge 49, Type (0, 0), BuildingBlock: XIVTED_clean_linker_0, # of connection points: 2
#     Edge 50, Type (0, 0), BuildingBlock: XIVTED_clean_linker_0, # of connection points: 2
#     Edge 51, Type (0, 0), BuildingBlock: XIVTED_clean_linker_0, # of connection points: 2
#     Edge 52, Type (0, 0), BuildingBlock: XIVTED_clean_linker_0, # of connection points: 2
#     Edge 53, Type (0, 0), BuildingBlock: XIVTED_clean_linker_0, # of connection points: 2
#     Edge 54, Type (0, 0), BuildingBlock: XIVTED_clean_linker_0, # of connection points: 2
#     Edge 55, Type (0, 0), BuildingBlock: XIVTED_clean_linker_0, # of connection points: 2
# Relax obj value: 0.569
# Max RMSD: 0.253
# Mean RMSD: 0.253
data_MOF--net-yfd--node1-BEQFEK_clean_sbu_0--edge1-XIVTED_clean_linker_0
_symmetry_space_group_name_H-M    P1
_symmetry_Int_Tables_number       1
_symmetry_cell_setting            triclinic
loop_
_symmetry_equiv_pos_as_xyz
'x, y, z'
_cell_length_a     66.760192
_cell_length_b     66.773312
_cell_length_c     25.989204
_cell_angle_alpha  89.990363
_cell_angle_beta   90.025408
_cell_angle_gamma 90.00047
loop_
_atom_site_label
_atom_site_type_symbol
_atom_site_fract_x
_atom_site_fract_y
_atom_site_fract_z
_atom_type_partial_charge
Co0 Co 0.52836 0.09438 0.1574 0.0
Co1 Co 0.52882 0.14093 0.17112 0.0
C2 C 0.49125 0.11579 0.18762 0.0
O3 O 0.5009 0.10014 0.176 0.0
O4 O 0.49976 0.13295 0.18847 0.0
C5 C 0.51482 0.05432 0.14144 0.0
O6 O 0.49924 0.0598 0.16887 0.0
C7 C 0.52107 0.18018 0.12431 0.0
C8 C 0.54009 0.20053 0.16992 0.0
C9 C 0.52759 0.19997 0.12723 0.0
N10 N 0.52966 0.1696 0.16256 0.0
N11 N 0.54085 0.18193 0.19004 0.0
C12 C 0.50651 0.17134 0.08681 0.0
H13 H 0.49892 0.15817 0.10405 0.0
H14 H 0.5146 0.16617 0.05203 0.0
H15 H 0.49523 0.18266 0.07502 0.0
C16 C 0.54535 0.10405 0.05781 0.0
N17 N 0.53637 0.10994 0.10149 0.0
N18 N 0.53881 0.12932 0.10785 0.0
C19 C 0.55051 0.13617 0.06892 0.0
C20 C 0.55478 0.12033 0.03588 0.0
C21 C 0.54652 0.08279 0.03979 0.0
H22 H 0.55682 0.07432 0.06527 0.0
H23 H 0.53145 0.07585 0.04175 0.0
H24 H 0.55208 0.08177 0.99964 0.0
O25 O 0.54701 0.09907 0.21447 0.0
O26 O 0.54733 0.13201 0.22867 0.0
H27 H 0.56261 0.16204 0.1072 0.0
H28 H 0.57475 0.15576 0.04703 0.0
C29 C 0.56019 0.15638 0.0676 0.0
H30 H 0.55037 0.16699 0.04663 0.0
H31 H 0.54952 0.17753 0.2215 0.0
O32 O 0.52956 0.06618 0.13678 0.0
C33 C 0.55337 0.11427 0.23917 0.0
Co34 Co 0.41952 0.52935 0.65746 0.0
Co35 Co 0.37295 0.52935 0.67041 0.0
C36 C 0.39846 0.49206 0.68774 0.0
O37 O 0.41405 0.50187 0.67646 0.0
O38 O 0.38119 0.50036 0.68792 0.0
C39 C 0.45996 0.51644 0.6451 0.0
O40 O 0.45476 0.50159 0.67542 0.0
C41 C 0.33379 0.52147 0.62304 0.0
C42 C 0.31329 0.54022 0.6689 0.0
C43 C 0.31395 0.52787 0.62597 0.0
N44 N 0.34429 0.52999 0.66155 0.0
N45 N 0.33186 0.54101 0.68916 0.0
C46 C 0.34273 0.50707 0.58534 0.0
H47 H 0.35596 0.49953 0.6025 0.0
H48 H 0.34785 0.51527 0.55068 0.0
H49 H 0.33149 0.49574 0.57337 0.0
C50 C 0.40993 0.54613 0.5576 0.0
N51 N 0.40401 0.53709 0.60118 0.0
N52 N 0.3846 0.53941 0.60728 0.0
C53 C 0.37776 0.55111 0.56831 0.0
C54 C 0.39364 0.55549 0.5355 0.0
C55 C 0.43123 0.54742 0.53988 0.0
H56 H 0.43828 0.53241 0.54226 0.0
H57 H 0.43227 0.55287 0.49963 0.0
H58 H 0.43956 0.55786 0.56527 0.0
O59 O 0.41457 0.54807 0.7141 0.0
O60 O 0.3816 0.548 0.72794 0.0
H61 H 0.35174 0.56299 0.6064 0.0
H62 H 0.35815 0.57536 0.54665 0.0
C63 C 0.35752 0.56073 0.56685 0.0
H64 H 0.34699 0.55097 0.54543 0.0
H65 H 0.33619 0.5496 0.72082 0.0
O66 O 0.44774 0.53068 0.63731 0.0
C67 C 0.39925 0.55429 0.73853 0.0
Co68 Co 0.98598 0.41956 0.16645 0.0
Co69 Co 0.98549 0.37276 0.17415 0.0
C70 C 0.02297 0.39745 0.1948 0.0
O71 O 0.01326 0.41333 0.18584 0.0
O72 O 0.0146 0.38026 0.19228 0.0
C73 C 1.00002 0.45965 0.15283 0.0
O74 O 0.01614 0.4534 0.17696 0.0
C75 C 0.99305 0.33393 0.12433 0.0
C76 C 0.97351 0.31338 0.16786 0.0
C77 C 0.98627 0.31419 0.12576 0.0
N78 N 0.98436 0.34424 0.16289 0.0
N79 N 0.97285 0.33178 0.18909 0.0
C80 C 0.008 0.3429 0.08812 0.0
H81 H 0.01557 0.35587 0.10644 0.0
H82 H 1.00026 0.34841 0.05314 0.0
H83 H 0.01927 0.33156 0.07641 0.0
C84 C 0.96934 0.41177 0.0653 0.0
N85 N 0.97821 0.40504 0.10836 0.0
N86 N 0.97579 0.38554 0.1121 0.0
C87 C 0.96429 0.37944 0.07197 0.0
C88 C 0.96 0.39592 0.04106 0.0
C89 C 0.96855 0.43332 0.04955 0.0
H90 H 0.95809 0.44148 0.07524 0.0
H91 H 0.98366 0.44006 0.05322 0.0
H92 H 0.96341 0.43505 0.00917 0.0
O93 O 0.96694 0.41394 0.2218 0.0
O94 O 0.96681 0.38079 0.23229 0.0
H95 H 0.95206 0.35283 0.10643 0.0
H96 H 0.94031 0.36016 0.04655 0.0
C97 C 0.95473 0.35923 0.06769 0.0
H98 H 0.96474 0.34906 0.04593 0.0
H99 H 0.96407 0.33598 0.2205 0.0
O100 O 0.98495 0.44814 0.14924 0.0
C101 C 0.96056 0.39829 0.24446 0.0
Co102 Co 0.09408 0.98523 0.65879 0.0
Co103 Co 0.14074 0.9848 0.67071 0.0
C104 C 0.11566 0.02234 0.68835 0.0
O105 O 0.09995 0.01268 0.67723 0.0
O106 O 0.13283 0.01384 0.68853 0.0
C107 C 0.05391 0.99881 0.64468 0.0
O108 O 0.0595 0.01419 0.67273 0.0
C109 C 0.17974 0.99254 0.62263 0.0
C110 C 0.20029 0.97337 0.66727 0.0
C111 C 0.19953 0.98593 0.62473 0.0
N112 N 0.16936 0.98393 0.66119 0.0
N113 N 0.18181 0.97267 0.68809 0.0
C114 C 0.17074 0.00718 0.58561 0.0
H115 H 0.15773 0.01483 0.60348 0.0
H116 H 0.16527 0.99915 0.55103 0.0
H117 H 0.18204 0.0184 0.57338 0.0
C118 C 0.10318 0.96815 0.55896 0.0
N119 N 0.10933 0.9772 0.60233 0.0
N120 N 0.12876 0.97481 0.60788 0.0
C121 C 0.13539 0.96311 0.5687 0.0
C122 C 0.11933 0.9587 0.53645 0.0
C123 C 0.08183 0.96721 0.54143 0.0
H124 H 0.07339 0.95684 0.56678 0.0
H125 H 0.07501 0.98231 0.54402 0.0
H126 H 0.08064 0.96186 0.50112 0.0
O127 O 0.09909 0.96661 0.71576 0.0
O128 O 0.13213 0.96629 0.72849 0.0
H129 H 0.16153 0.95106 0.6059 0.0
H130 H 0.15496 0.93898 0.54587 0.0
C131 C 0.15564 0.95351 0.56654 0.0
H132 H 0.16609 0.9634 0.54528 0.0
H133 H 0.17756 0.96396 0.7196 0.0
O134 O 0.06576 0.98411 0.63911 0.0
C135 C 0.11446 0.96025 0.7398 0.0
Co136 Co 0.52985 0.42005 0.84239 0.0
Co137 Co 0.5297 0.37344 0.83071 0.0
C138 C 0.49247 0.39896 0.81274 0.0
O139 O 0.50234 0.41457 0.82351 0.0
O140 O 0.50072 0.38167 0.81306 0.0
C141 C 0.51701 0.46053 0.85411 0.0
O142 O 0.5021 0.45527 0.82401 0.0
C143 C 0.52164 0.33442 0.87872 0.0
C144 C 0.54036 0.31376 0.83323 0.0
C145 C 0.52796 0.31455 0.87604 0.0
N146 N 0.53026 0.34481 0.84017 0.0
N147 N 0.54127 0.33229 0.81279 0.0
C148 C 0.50722 0.34348 0.91618 0.0
H149 H 0.49982 0.35676 0.89888 0.0
H150 H 0.51538 0.34855 0.95096 0.0
H151 H 0.49579 0.33233 0.92799 0.0
C152 C 0.54664 0.4108 0.94251 0.0
N153 N 0.53755 0.40474 0.89911 0.0
N154 N 0.53977 0.38529 0.89358 0.0
C155 C 0.55142 0.37855 0.93276 0.0
C156 C 0.55592 0.39455 0.96508 0.0
C157 C 0.54799 0.43216 0.9597 0.0
H158 H 0.55845 0.44036 0.93409 0.0
H159 H 0.533 0.43923 0.95718 0.0
H160 H 0.55345 0.43334 0.99992 0.0
O161 O 0.54861 0.41481 0.78604 0.0
O162 O 0.54843 0.3818 0.77308 0.0
H163 H 0.5632 0.35234 0.89542 0.0
H164 H 0.57553 0.35888 0.95515 0.0
C165 C 0.56092 0.35827 0.93481 0.0
H166 H 0.55106 0.34788 0.95635 0.0
H167 H 0.5499 0.33652 0.78114 0.0
O168 O 0.53127 0.44833 0.86186 0.0
C169 C 0.5548 0.39937 0.76209 0.0
Co170 Co 0.09381 0.52957 0.33862 0.0
Co171 Co 0.14052 0.53001 0.32859 0.0
C172 C 0.11565 0.49239 0.31075 0.0
O173 O 0.09983 0.5021 0.32041 0.0
O174 O 0.13284 0.50085 0.3117 0.0
C175 C 0.0536 0.51595 0.35181 0.0
O176 O 0.05937 0.50039 0.3247 0.0
C177 C 0.17959 0.52231 0.37697 0.0
C178 C 0.20005 0.54156 0.33232 0.0
C179 C 0.19938 0.52889 0.37464 0.0
N180 N 0.16911 0.53102 0.33868 0.0
N181 N 0.18151 0.54235 0.31181 0.0
C182 C 0.17071 0.50752 0.41377 0.0
H183 H 0.15754 0.50006 0.39614 0.0
H184 H 0.16553 0.51537 0.44889 0.0
H185 H 0.18201 0.49616 0.42513 0.0
C186 C 0.10238 0.54654 0.43905 0.0
N187 N 0.10875 0.53765 0.39568 0.0
N188 N 0.12823 0.53999 0.39099 0.0
C189 C 0.13468 0.55147 0.4308 0.0
C190 C 0.11846 0.55575 0.46257 0.0
C191 C 0.08092 0.54765 0.45554 0.0
H192 H 0.07406 0.53256 0.45299 0.0
H193 H 0.07946 0.55316 0.49564 0.0
H194 H 0.0727 0.55793 0.4295 0.0
O195 O 0.09902 0.54824 0.28214 0.0
O196 O 0.1321 0.54844 0.2702 0.0
H197 H 0.15422 0.57537 0.4552 0.0
H198 H 0.16519 0.55089 0.45575 0.0
C199 C 0.15496 0.56091 0.43421 0.0
H200 H 0.16116 0.56347 0.39521 0.0
H201 H 0.1772 0.55109 0.28042 0.0
O202 O 0.06539 0.5307 0.35722 0.0
C203 C 0.11449 0.55455 0.25853 0.0
Co204 Co 0.98454 0.09349 0.84195 0.0
Co205 Co 0.98447 0.14013 0.83055 0.0
C206 C 0.02195 0.11482 0.8139 0.0
O207 O 0.01215 0.09916 0.8246 0.0
O208 O 0.01353 0.13203 0.81353 0.0
C209 C 0.99754 0.05308 0.85424 0.0
O210 O 0.01267 0.05848 0.82509 0.0
C211 C 0.99244 0.179 0.87914 0.0
C212 C 0.97363 0.19979 0.83424 0.0
C213 C 0.98606 0.19886 0.877 0.0
N214 N 0.98382 0.16874 0.84037 0.0
N215 N 0.97276 0.18133 0.81332 0.0
C216 C 1.00689 0.16981 0.91637 0.0
H217 H 0.01442 0.15672 0.89861 0.0
H218 H 0.99872 0.16444 0.95083 0.0
H219 H 0.01822 0.18098 0.92878 0.0
C220 C 0.96713 0.10251 0.94143 0.0
N221 N 0.97635 0.10867 0.89833 0.0
N222 N 0.97415 0.12813 0.89301 0.0
C223 C 0.96242 0.13479 0.9321 0.0
C224 C 0.95777 0.1187 0.96402 0.0
C225 C 0.96603 0.08115 0.95874 0.0
H226 H 0.9811 0.07425 0.95624 0.0
H227 H 0.96062 0.07993 0.99898 0.0
H228 H 0.95566 0.07281 0.93318 0.0
O229 O 0.96621 0.0987 0.78453 0.0
O230 O 0.96611 0.13176 0.77216 0.0
H231 H 0.95078 0.16118 0.89522 0.0
H232 H 0.93846 0.15456 0.95488 0.0
C233 C 0.95306 0.15513 0.9345 0.0
H234 H 0.963 0.1654 0.95617 0.0
H235 H 0.96411 0.1772 0.78161 0.0
O236 O 0.98312 0.06516 0.86116 0.0
C237 C 0.96002 0.11414 0.76052 0.0
Co238 Co 0.42024 0.98489 0.33725 0.0
Co239 Co 0.3735 0.98447 0.32799 0.0
C240 C 0.39838 0.0221 0.30998 0.0
O241 O 0.41419 0.0124 0.31975 0.0
O242 O 0.38121 0.0136 0.31066 0.0
C243 C 0.4605 0.99845 0.35019 0.0
O244 O 0.45461 0.0142 0.32396 0.0
C245 C 0.33474 0.99202 0.37782 0.0
C246 C 0.31396 0.97309 0.33322 0.0
C247 C 0.31491 0.98551 0.37599 0.0
N248 N 0.34495 0.98351 0.33883 0.0
N249 N 0.33237 0.97237 0.31199 0.0
C250 C 0.34391 1.00653 0.41488 0.0
H251 H 0.35699 0.01407 0.39701 0.0
H252 H 0.3493 0.99842 0.44942 0.0
H253 H 0.33273 0.01786 0.42719 0.0
C254 C 0.41203 0.96736 0.43709 0.0
N255 N 0.4055 0.97664 0.39441 0.0
N256 N 0.38602 0.97429 0.38992 0.0
C257 C 0.37972 0.96241 0.4291 0.0
C258 C 0.39606 0.95782 0.46025 0.0
C259 C 0.43354 0.96625 0.45321 0.0
H260 H 0.4417 0.95603 0.42691 0.0
H261 H 0.44038 0.98135 0.45079 0.0
H262 H 0.43511 0.96065 0.49321 0.0
O263 O 0.41477 0.9664 0.28043 0.0
O264 O 0.38164 0.96611 0.26942 0.0
H265 H 0.35331 0.95048 0.39298 0.0
H266 H 0.3603 0.93824 0.4525 0.0
C267 C 0.35949 0.95282 0.4321 0.0
H268 H 0.3492 0.96267 0.45398 0.0
H269 H 0.33647 0.96379 0.28014 0.0
O270 O 0.44874 0.98364 0.35513 0.0
C271 C 0.39921 0.96008 0.25717 0.0
Co272 Co 0.48444 0.91939 0.83826 0.0
Co273 Co 0.48482 0.87267 0.82855 0.0
C274 C 0.52207 0.89818 0.81127 0.0
O275 O 0.51207 0.91384 0.8208 0.0
O276 O 0.51388 0.88087 0.81201 0.0
C277 C 0.49714 0.95993 0.85022 0.0
O278 O 0.5127 0.95444 0.82271 0.0
C279 C 0.4929 0.83387 0.87779 0.0
C280 C 0.47406 0.81302 0.83314 0.0
C281 C 0.48653 0.814 0.87583 0.0
N282 N 0.48424 0.84408 0.83897 0.0
N283 N 0.47317 0.83145 0.81209 0.0
C284 C 0.50739 0.8431 0.91482 0.0
H285 H 0.51487 0.8562 0.89694 0.0
H286 H 0.49928 0.84846 0.94937 0.0
H287 H 0.51877 0.83196 0.92713 0.0
C288 C 0.46718 0.9107 0.93812 0.0
N289 N 0.47642 0.90439 0.89519 0.0
N290 N 0.47438 0.88489 0.89056 0.0
C291 C 0.46275 0.87833 0.92996 0.0
C292 C 0.45798 0.89454 0.96132 0.0
C293 C 0.46595 0.93214 0.95474 0.0
H294 H 0.48096 0.93916 0.9518 0.0
H295 H 0.46062 0.93351 0.99502 0.0
H296 H 0.45545 0.94027 0.92907 0.0
O297 O 0.46609 0.91376 0.78136 0.0
O298 O 0.46646 0.88067 0.76967 0.0
H299 H 0.45132 0.85163 0.89415 0.0
H300 H 0.43901 0.85845 0.95368 0.0
C301 C 0.45359 0.85791 0.9332 0.0
H302 H 0.46366 0.84786 0.95514 0.0
H303 H 0.46449 0.83554 0.78037 0.0
O304 O 0.48272 0.9478 0.85644 0.0
C305 C 0.46012 0.89816 0.75772 0.0
Co306 Co 0.59461 0.48353 0.34341 0.0
Co307 Co 0.64119 0.48387 0.33106 0.0
C308 C 0.61544 0.52102 0.31369 0.0
O309 O 0.5999 0.5111 0.32489 0.0
O310 O 0.63275 0.51281 0.31342 0.0
C311 C 0.55396 0.4959 0.35449 0.0
O312 O 0.55905 0.51072 0.32396 0.0
C313 C 0.68028 0.49201 0.37872 0.0
C314 C 0.7009 0.4733 0.33305 0.0
C315 C 0.70015 0.48568 0.37591 0.0
N316 N 0.66985 0.48341 0.3402 0.0
N317 N 0.68234 0.47242 0.31271 0.0
C318 C 0.67126 0.50641 0.41628 0.0
H319 H 0.65799 0.51385 0.39903 0.0
H320 H 0.66618 0.49823 0.45101 0.0
H321 H 0.68244 0.51781 0.42815 0.0
C322 C 0.6041 0.46681 0.44336 0.0
N323 N 0.61005 0.47586 0.39983 0.0
N324 N 0.62949 0.4737 0.39405 0.0
C325 C 0.63635 0.46211 0.43322 0.0
C326 C 0.62042 0.45761 0.46578 0.0
C327 C 0.58277 0.4654 0.46081 0.0
H328 H 0.57561 0.48034 0.45816 0.0
H329 H 0.58169 0.46001 0.50111 0.0
H330 H 0.57457 0.45484 0.43544 0.0
O331 O 0.59983 0.46493 0.2867 0.0
O332 O 0.63282 0.46519 0.27335 0.0
H333 H 0.66259 0.45046 0.39571 0.0
H334 H 0.65613 0.43808 0.45541 0.0
C335 C 0.65668 0.4527 0.43513 0.0
H336 H 0.66704 0.46258 0.45669 0.0
H337 H 0.67808 0.46378 0.28108 0.0
O338 O 0.56637 0.4819 0.363 0.0
C339 C 0.61523 0.45882 0.26247 0.0
Co340 Co 0.02737 0.59431 0.84218 0.0
Co341 Co 0.02851 0.64091 0.82867 0.0
C342 C 0.99071 0.61627 0.81083 0.0
O343 O 1.00012 0.60049 0.82257 0.0
O344 O 0.99942 0.63333 0.81048 0.0
C345 C 0.01283 0.55478 0.86134 0.0
O346 O 0.99667 0.56087 0.83717 0.0
C347 C 0.02122 0.68014 0.87595 0.0
C348 C 0.04034 0.70041 0.83041 0.0
C349 C 0.02789 0.69988 0.87316 0.0
N350 N 0.02968 0.66955 0.83755 0.0
N351 N 0.04093 0.68184 0.81012 0.0
C352 C 1.00665 0.67136 0.91346 0.0
H353 H 0.99898 0.65823 0.8962 0.0
H354 H 0.01473 0.66614 0.94821 0.0
H355 H 0.99543 0.68273 0.92529 0.0
C356 C 0.0444 0.60369 0.94192 0.0
N357 N 0.03541 0.60974 0.89836 0.0
N358 N 0.03819 0.62908 0.89199 0.0
C359 C 0.05012 0.63571 0.93071 0.0
C360 C 0.05421 0.61979 0.96367 0.0
C361 C 0.04529 0.5824 0.95984 0.0
H362 H 0.05544 0.5738 0.93428 0.0
H363 H 0.03012 0.57569 0.95799 0.0
H364 H 0.05089 0.58129 0.99996 0.0
O365 O 0.04631 0.59884 0.78558 0.0
O366 O 0.04706 0.63179 0.77154 0.0
H367 H 0.06273 0.66123 0.89198 0.0
H368 H 0.07481 0.65483 0.95218 0.0
C369 C 0.06024 0.65571 0.93169 0.0
H370 H 0.05067 0.66657 0.95253 0.0
H371 H 0.04952 0.67742 0.77856 0.0
O372 O 0.02813 0.56605 0.86281 0.0
C373 C 0.05293 0.61399 0.76109 0.0
Co374 Co 0.91973 0.02858 0.33989 0.0
Co375 Co 0.87302 0.02866 0.32992 0.0
C376 C 0.89826 0.99127 0.31161 0.0
O377 O 0.91397 1.00107 0.32182 0.0
O378 O 0.88101 0.99963 0.3122 0.0
C379 C 0.9602 0.0155 0.35156 0.0
O380 O 0.95462 1.00014 0.32341 0.0
C381 C 0.83413 0.02087 0.37901 0.0
C382 C 0.81347 0.03996 0.33446 0.0
C383 C 0.81433 0.02746 0.37708 0.0
N384 N 0.84443 0.02945 0.34024 0.0
N385 N 0.83191 0.04067 0.31341 0.0
C386 C 0.8432 1.00626 0.41597 0.0
H387 H 0.85623 0.99865 0.39803 0.0
H388 H 0.84866 0.01428 0.45057 0.0
H389 H 0.83194 0.995 0.4282 0.0
C390 C 0.91115 0.04557 0.44012 0.0
N391 N 0.90478 0.03653 0.39697 0.0
N392 N 0.8853 0.03876 0.39227 0.0
C393 C 0.87883 0.05035 0.43183 0.0
C394 C 0.89506 0.05486 0.46341 0.0
C395 C 0.93259 0.04659 0.45683 0.0
H396 H 0.94082 0.05709 0.43137 0.0
H397 H 0.93949 0.03154 0.45365 0.0
H398 H 0.934 0.05181 0.49721 0.0
O399 O 0.91427 0.04715 0.28322 0.0
O400 O 0.88117 0.04719 0.27169 0.0
H401 H 0.85229 0.06213 0.39592 0.0
H402 H 0.85925 0.07435 0.45548 0.0
C403 C 0.85853 0.05978 0.43498 0.0
H404 H 0.84833 0.04985 0.4569 0.0
H405 H 0.83608 0.04933 0.28176 0.0
O406 O 0.94816 0.02998 0.35824 0.0
C407 C 0.89872 0.05338 0.25976 0.0
Co408 Co 0.48393 0.59331 0.15942 0.0
Co409 Co 0.4843 0.63992 0.17094 0.0
C410 C 0.52141 0.6142 0.18911 0.0
O411 O 0.51149 0.59865 0.17813 0.0
O412 O 0.5132 0.63152 0.189 0.0
C413 C 0.49643 0.5527 0.14828 0.0
O414 O 0.51133 0.55788 0.17852 0.0
C415 C 0.4927 0.67879 0.12265 0.0
C416 C 0.47378 0.69962 0.16707 0.0
C417 C 0.48636 0.69867 0.12462 0.0
N418 N 0.48391 0.66854 0.16119 0.0
N419 N 0.4728 0.68116 0.18796 0.0
C420 C 0.50724 0.66956 0.08577 0.0
H421 H 0.51467 0.65644 0.10373 0.0
H422 H 0.49917 0.66422 0.05111 0.0
H423 H 0.51865 0.68069 0.07363 0.0
C424 C 0.46733 0.60255 0.05911 0.0
N425 N 0.47634 0.6086 0.10263 0.0
N426 N 0.47424 0.62806 0.10802 0.0
C427 C 0.46274 0.63484 0.06857 0.0
C428 C 0.45823 0.61884 0.03627 0.0
C429 C 0.46589 0.58119 0.04201 0.0
H430 H 0.45534 0.57306 0.06752 0.0
H431 H 0.48084 0.57403 0.04478 0.0
H432 H 0.46051 0.58 0.00172 0.0
O433 O 0.46521 0.5987 0.21576 0.0
O434 O 0.46546 0.63173 0.2285 0.0
H435 H 0.45103 0.66119 0.1054 0.0
H436 H 0.4389 0.65469 0.04536 0.0
C437 C 0.45343 0.65521 0.06612 0.0
H438 H 0.46347 0.66549 0.0448 0.0
H439 H 0.464 0.67705 0.21942 0.0
O440 O 0.48231 0.56502 0.14019 0.0
C441 C 0.45904 0.61418 0.23959 0.0
Co442 Co 0.92034 0.48449 0.66001 0.0
Co443 Co 0.87372 0.48425 0.67227 0.0
C444 C 0.89887 0.52193 0.68708 0.0
O445 O 0.91456 0.51216 0.67643 0.0
O446 O 0.88171 0.51343 0.68811 0.0
C447 C 0.96058 0.49768 0.6455 0.0
O448 O 0.95511 0.51323 0.67306 0.0
C449 C 0.83463 0.49185 0.6243 0.0
C450 C 0.81406 0.47325 0.67041 0.0
C451 C 0.81478 0.48549 0.62726 0.0
N452 N 0.84508 0.48341 0.66302 0.0
N453 N 0.83262 0.47248 0.69077 0.0
C454 C 0.84362 0.50614 0.5864 0.0
H455 H 0.85688 0.51366 0.60342 0.0
H456 H 0.8487 0.49784 0.55186 0.0
H457 H 0.83242 0.51749 0.57427 0.0
C458 C 0.9111 0.46649 0.56131 0.0
N459 N 0.90503 0.47591 0.60422 0.0
N460 N 0.88559 0.47365 0.60997 0.0
C461 C 0.87887 0.46169 0.57143 0.0
C462 C 0.89487 0.45698 0.53932 0.0
C463 C 0.93244 0.46519 0.54393 0.0
H464 H 0.93936 0.48028 0.54532 0.0
H465 H 0.93362 0.45934 0.50408 0.0
H466 H 0.94082 0.4551 0.57015 0.0
O467 O 0.91539 0.46647 0.71819 0.0
O468 O 0.88237 0.46626 0.73118 0.0
H469 H 0.85267 0.45008 0.60922 0.0
H470 H 0.85911 0.43757 0.54967 0.0
C471 C 0.85855 0.45223 0.56973 0.0
H472 H 0.84816 0.46206 0.54811 0.0
H473 H 0.83691 0.46399 0.72265 0.0
O474 O 0.94863 0.48305 0.64034 0.0
C475 C 0.90006 0.46034 0.74273 0.0
Co476 Co 0.02944 0.91983 0.15987 0.0
Co477 Co 0.02953 0.87317 0.17071 0.0
C478 C 0.99208 0.89841 0.18815 0.0
O479 O 1.00187 0.9141 0.17768 0.0
O480 O 1.00047 0.88119 0.18804 0.0
C481 C 0.0164 0.96026 0.14814 0.0
O482 O 1.00127 0.95481 0.17725 0.0
C483 C 0.02169 0.83413 0.12241 0.0
C484 C 0.0407 0.81358 0.16753 0.0
C485 C 0.02819 0.81432 0.12488 0.0
N486 N 0.03031 0.84456 0.16093 0.0
N487 N 0.04148 0.8321 0.18809 0.0
C488 C 0.00709 0.84309 0.08522 0.0
H489 H 0.9996 0.85627 0.10272 0.0
H490 H 0.01511 0.84828 0.05036 0.0
H491 H 0.99574 0.83184 0.07349 0.0
C492 C 0.04648 0.91096 0.05984 0.0
N493 N 0.03747 0.90473 0.10316 0.0
N494 N 0.03968 0.88525 0.10818 0.0
C495 C 0.05122 0.87866 0.06865 0.0
C496 C 0.0557 0.8948 0.03675 0.0
C497 C 0.04754 0.93235 0.04278 0.0
H498 H 0.05799 0.94064 0.06824 0.0
H499 H 0.03248 0.93926 0.04567 0.0
H500 H 0.05283 0.93366 0.00245 0.0
O501 O 0.04792 0.91457 0.21688 0.0
O502 O 0.04799 0.8815 0.22897 0.0
H503 H 0.06293 0.85216 0.10484 0.0
H504 H 0.07516 0.85899 0.04521 0.0
C505 C 0.06059 0.85833 0.06572 0.0
H506 H 0.05063 0.84813 0.0439 0.0
H507 H 0.05014 0.83637 0.21967 0.0
O508 O 0.0308 0.94818 0.14097 0.0
C509 C 0.05414 0.89909 0.24067 0.0
Co510 Co 0.59344 0.02904 0.66073 0.0
Co511 Co 0.64014 0.02978 0.672 0.0
C512 C 0.61535 0.9922 0.69115 0.0
O513 O 0.59953 1.00176 0.68051 0.0
O514 O 0.6325 1.00073 0.69024 0.0
C515 C 0.55357 0.01486 0.64468 0.0
O516 O 0.55951 0.99904 0.67054 0.0
C517 C 0.67911 0.02199 0.62375 0.0
C518 C 0.69967 0.0414 0.66766 0.0
C519 C 0.69889 0.02863 0.62555 0.0
N520 N 0.66874 0.03077 0.66207 0.0
N521 N 0.6812 0.04219 0.68854 0.0
C522 C 0.6701 0.00717 0.58725 0.0
H523 H 0.65708 0.99962 0.60536 0.0
H524 H 0.66465 0.01501 0.55236 0.0
H525 H 0.6814 0.99587 0.57545 0.0
C526 C 0.6023 0.0456 0.56007 0.0
N527 N 0.60856 0.03681 0.60371 0.0
N528 N 0.62798 0.03937 0.60903 0.0
C529 C 0.63449 0.05093 0.56943 0.0
C530 C 0.61838 0.05501 0.53707 0.0
C531 C 0.5809 0.04657 0.54299 0.0
H532 H 0.57253 0.05688 0.56863 0.0
H533 H 0.57411 0.03145 0.54556 0.0
H534 H 0.57957 0.05199 0.50277 0.0
O535 O 0.59844 0.0481 0.71662 0.0
O536 O 0.63149 0.04853 0.72936 0.0
H537 H 0.66054 0.06339 0.60611 0.0
H538 H 0.65383 0.0751 0.54567 0.0
C539 C 0.65464 0.06068 0.56685 0.0
H540 H 0.66517 0.05078 0.54592 0.0
H541 H 0.67696 0.05102 0.71982 0.0
O542 O 0.56507 0.02994 0.64123 0.0
C543 C 0.61381 0.05462 0.74035 0.0
H544 H 0.54444 0.03767 0.0831 0.0
H545 H 0.4674 0.9769 0.90747 0.0
H546 H 0.48099 0.03391 0.11388 0.0
H547 H 0.5308 0.98094 0.87622 0.0
H548 H 0.47188 0.99886 0.98148 0.0
H549 H 0.53986 0.01617 0.00825 0.0
C550 C 0.52959 0.03204 0.07458 0.0
C551 C 0.51303 0.03777 0.10435 0.0
C552 C 0.48479 0.99509 0.95817 0.0
C553 C 0.50763 0.01345 0.01838 0.0
C554 C 0.48221 0.9827 0.91566 0.0
C555 C 0.4988 0.97688 0.88611 0.0
C556 C 0.50409 1.0017 0.97115 0.0
C557 C 0.5176 0.98498 0.89809 0.0
C558 C 0.52696 0.01991 0.03159 0.0
C559 C 0.49417 0.02991 0.09189 0.0
N560 N 0.51979 0.99682 0.94014 0.0
N561 N 0.49194 0.0183 0.04945 0.0
H562 H 0.5321 0.52968 0.37401 0.0
H563 H 0.4813 0.48242 0.62457 0.0
H564 H 0.538 0.4676 0.41813 0.0
H565 H 0.47599 0.54465 0.58129 0.0
H566 H 0.50297 0.47689 0.55037 0.0
H567 H 0.51019 0.53512 0.4478 0.0
C568 C 0.52846 0.5171 0.39859 0.0
C569 C 0.5371 0.49823 0.39041 0.0
C570 C 0.49717 0.49179 0.55733 0.0
C571 C 0.51251 0.50445 0.47547 0.0
C572 C 0.48501 0.49502 0.60008 0.0
C573 C 0.47663 0.51397 0.60866 0.0
C574 C 0.50094 0.50764 0.52313 0.0
C575 C 0.48192 0.52973 0.57564 0.0
C576 C 0.51617 0.52027 0.4411 0.0
C577 C 0.53188 0.48247 0.4235 0.0
N578 N 0.49358 0.52616 0.53396 0.0
N579 N 0.52009 0.48598 0.46496 0.0
H580 H 0.96938 0.47798 0.1017 0.0
H581 H 0.04343 0.53718 0.91445 0.0
H582 H 0.03359 0.47963 0.12144 0.0
H583 H 0.97922 0.53537 0.8947 0.0
H584 H 0.0402 0.51556 0.98958 0.0
H585 H 0.97258 0.50026 0.02787 0.0
C586 C 0.98413 0.48333 0.09104 0.0
C587 C 1.00128 0.47674 0.11726 0.0
C588 C 0.02683 0.51977 0.9686 0.0
C589 C 1.00508 0.50192 0.03238 0.0
C590 C 0.02867 0.53197 0.92544 0.0
C591 C 0.01154 0.53826 0.89867 0.0
C592 C 0.00771 0.51382 0.98499 0.0
C593 C 0.99282 0.53094 0.9143 0.0
C594 C 0.98596 0.4959 0.04862 0.0
C595 C 0.01998 0.48427 0.10217 0.0
N596 N 0.99139 0.51924 0.95682 0.0
N597 N 0.02141 0.4963 0.06026 0.0
H598 H 0.03349 0.03288 0.61907 0.0
H599 H 0.98117 0.98161 0.37584 0.0
H600 H 0.03714 0.96969 0.58488 0.0
H601 H 0.97714 0.04472 0.41063 0.0
H602 H 1.00305 0.97721 0.45017 0.0
H603 H 0.01199 0.03738 0.54406 0.0
C604 C 0.02945 0.01988 0.5964 0.0
C605 C 0.03732 1.00092 0.60779 0.0
C606 C 0.9975 0.99205 0.44129 0.0
C607 C 0.01319 1.00604 0.52131 0.0
C608 C 0.98522 0.99462 0.39845 0.0
C609 C 0.9771 0.01352 0.38754 0.0
C610 C 1.00166 0.0085 0.47324 0.0
C611 C 0.98285 0.02984 0.41817 0.0
C612 C 0.01739 0.0225 0.55318 0.0
C613 C 0.03161 0.98462 0.57704 0.0
N614 N 0.99461 0.02691 0.46002 0.0
N615 N 0.02004 0.98759 0.53484 0.0
H616 H 0.48282 0.48139 0.87598 0.0
H617 H 0.5305 0.53155 0.1269 0.0
H618 H 0.54534 0.47685 0.91708 0.0
H619 H 0.46805 0.53648 0.0853 0.0
H620 H 0.53594 0.51023 0.05202 0.0
H621 H 0.47732 0.50262 0.95103 0.0
C622 C 0.49548 0.4852 0.90016 0.0
C623 C 0.51451 0.47712 0.89075 0.0
C624 C 0.52101 0.51585 0.05951 0.0
C625 C 0.50823 0.50092 0.97726 0.0
C626 C 0.51784 0.52781 0.10266 0.0
C627 C 0.49885 0.53602 0.11185 0.0
C628 C 0.50507 0.51211 0.02553 0.0
C629 C 0.483 0.53068 0.07914 0.0
C630 C 0.49228 0.4971 0.9434 0.0
C631 C 0.53036 0.48254 0.92339 0.0
N632 N 0.48652 0.51923 0.03704 0.0
N633 N 0.52682 0.49393 0.96557 0.0
H634 H 0.97746 0.46807 0.5876 0.0
H635 H 0.03612 0.54554 0.40857 0.0
H636 H 0.98076 0.5316 0.61758 0.0
H637 H 0.03361 0.4819 0.37961 0.0
H638 H 0.01467 0.54087 0.48345 0.0
H639 H 0.99872 0.47271 0.5123 0.0
C640 C 0.98295 0.48295 0.57883 0.0
C641 C 0.97714 0.49952 0.60846 0.0
C642 C 0.01866 0.52795 0.46048 0.0
C643 C 1.00115 0.50497 0.52198 0.0
C644 C 0.03075 0.53062 0.41745 0.0
C645 C 0.03687 0.51404 0.38828 0.0
C646 C 0.01262 0.50855 0.47432 0.0
C647 C 0.02933 0.4951 0.40117 0.0
C648 C 0.99494 0.48561 0.53558 0.0
C649 C 0.98482 0.51842 0.59569 0.0
N650 N 0.01776 0.49283 0.44368 0.0
N651 N 0.99627 0.52067 0.55298 0.0
H652 H 0.98229 0.98107 0.12494 0.0
H653 H 0.03165 0.03233 0.87772 0.0
H654 H 0.04514 0.97695 0.0871 0.0
H655 H 0.96881 0.03653 0.91561 0.0
H656 H 0.03667 0.01094 0.9527 0.0
H657 H 0.97728 1.00257 0.05015 0.0
C658 C 0.99512 0.98503 0.10155 0.0
C659 C 0.01411 0.97699 0.11177 0.0
C660 C 0.02175 0.01643 0.94439 0.0
C661 C 0.0084 1.00111 0.02555 0.0
C662 C 0.01883 0.02842 0.90118 0.0
C663 C 0.99983 0.03644 0.89088 0.0
C664 C 1.00556 0.01244 0.97733 0.0
C665 C 0.98377 0.03088 0.92262 0.0
C666 C 0.9922 0.99709 0.05845 0.0
C667 C 0.03019 0.98261 0.08014 0.0
N668 N 0.98704 0.0194 0.96479 0.0
N669 N 0.02692 0.99415 0.03806 0.0
H670 H 0.47834 0.96845 0.40481 0.0
H671 H 0.53596 0.0448 0.58925 0.0
H672 H 0.48033 0.03236 0.37974 0.0
H673 H 0.53425 0.98085 0.61369 0.0
H674 H 0.51479 0.04063 0.51355 0.0
H675 H 0.49991 0.97258 0.47974 0.0
C676 C 0.48362 0.98332 0.41454 0.0
C677 C 0.47732 1.00012 0.38648 0.0
C678 C 0.51891 0.02753 0.5357 0.0
C679 C 0.50169 1.00498 0.47258 0.0
C680 C 0.53084 0.02991 0.57918 0.0
C681 C 0.53708 0.01312 0.60739 0.0
C682 C 0.51316 0.00821 0.52044 0.0
C683 C 0.52987 0.99421 0.59295 0.0
C684 C 0.49579 0.98568 0.45759 0.0
C685 C 0.48476 0.019 0.40043 0.0
N686 N 0.51844 0.99224 0.55007 0.0
N687 N 0.49638 0.02095 0.44297 0.0
H688 H 0.52541 0.23986 0.14942 0.0
H689 H 0.52526 0.27469 0.8541 0.0
H690 H 0.52381 0.19883 0.02139 0.0
H691 H 0.52432 0.31584 0.98195 0.0
H692 H 0.52289 0.24674 0.91474 0.0
H693 H 0.5232 0.2679 0.0889 0.0
C694 C 0.5243 0.23672 0.10863 0.0
C695 C 0.52438 0.21688 0.09073 0.0
C696 C 0.52293 0.2619 0.92954 0.0
C697 C 0.52215 0.24898 0.02089 0.0
C698 C 0.52427 0.27788 0.89489 0.0
C699 C 0.52459 0.29773 0.9127 0.0
C700 C 0.52218 0.2657 0.9827 0.0
C701 C 0.52347 0.30091 0.96609 0.0
C702 C 0.52305 0.25275 0.07406 0.0
C703 C 0.52313 0.21375 0.03734 0.0
N704 N 0.52242 0.2851 0.9991 0.0
N705 N 0.52217 0.2296 0.00442 0.0
H706 H 0.27406 0.52535 0.64795 0.0
H707 H 0.23928 0.52674 0.35263 0.0
H708 H 0.31517 0.52451 0.52004 0.0
H709 H 0.19813 0.52454 0.48036 0.0
H710 H 0.26726 0.52419 0.41319 0.0
H711 H 0.24607 0.52331 0.58728 0.0
C712 C 0.27723 0.52445 0.60714 0.0
C713 C 0.29709 0.52469 0.58931 0.0
C714 C 0.2521 0.52398 0.42797 0.0
C715 C 0.26501 0.52266 0.5193 0.0
C716 C 0.2361 0.52544 0.39337 0.0
C717 C 0.21624 0.52545 0.41116 0.0
C718 C 0.2483 0.52283 0.48108 0.0
C719 C 0.21307 0.52393 0.46448 0.0
C720 C 0.26122 0.52329 0.57248 0.0
C721 C 0.30024 0.5237 0.5359 0.0
N722 N 0.2289 0.52279 0.49746 0.0
N723 N 0.28441 0.52283 0.5029 0.0
H724 H 0.99099 0.3161 0.0202 0.0
H725 H 0.98971 0.19696 0.98279 0.0
H726 H 0.98772 0.2741 0.14601 0.0
H727 H 0.98854 0.23891 0.85664 0.0
H728 H 0.99244 0.22488 0.04288 0.0
H729 H 0.99357 0.28813 0.96012 0.0
C730 C 0.99134 0.30105 0.03548 0.0
C731 C 0.98957 0.29753 0.08858 0.0
C732 C 0.99184 0.228 0.00202 0.0
C733 C 0.99184 0.26523 0.01938 0.0
C734 C 0.99056 0.21198 0.96747 0.0
C735 C 0.98935 0.21549 0.91426 0.0
C736 C 0.99178 0.24778 0.98346 0.0
C737 C 0.98956 0.23547 0.89726 0.0
C738 C 0.99254 0.28501 0.00092 0.0
C739 C 0.98918 0.27754 0.10548 0.0
N740 N 0.99075 0.25082 0.93165 0.0
N741 N 0.99029 0.26219 0.0711 0.0
H742 H 0.1977 0.98991 0.519 0.0
H743 H 0.31686 0.98941 0.48177 0.0
H744 H 0.23962 0.98775 0.64518 0.0
H745 H 0.27484 0.98767 0.35576 0.0
H746 H 0.28893 0.99211 0.5419 0.0
H747 H 0.22567 0.99241 0.45901 0.0
C748 C 0.21273 0.9905 0.53436 0.0
C749 C 0.21622 0.98909 0.58755 0.0
C750 C 0.2858 0.99139 0.50106 0.0
C751 C 0.24855 0.99123 0.51843 0.0
C752 C 0.30182 0.99013 0.46648 0.0
C753 C 0.29829 0.98877 0.4133 0.0
C754 C 0.26601 0.99116 0.48254 0.0
C755 C 0.2783 0.98881 0.39636 0.0
C756 C 0.22878 0.99164 0.49985 0.0
C757 C 0.2362 0.98895 0.60457 0.0
N758 N 0.26296 0.98998 0.43075 0.0
N759 N 0.25157 0.99 0.57023 0.0
H760 H 0.4905 0.69678 0.01891 0.0
H761 H 0.4905 0.81591 0.9816 0.0
H762 H 0.48859 0.73872 0.14498 0.0
H763 H 0.4888 0.77395 0.85554 0.0
H764 H 0.49319 0.78797 0.0417 0.0
H765 H 0.49326 0.72472 0.95887 0.0
C766 C 0.4912 0.7118 0.03424 0.0
C767 C 0.48976 0.7153 0.08741 0.0
C768 C 0.49248 0.78485 0.00086 0.0
C769 C 0.49222 0.74761 0.01824 0.0
C770 C 0.49123 0.80088 0.96629 0.0
C771 C 0.48987 0.79737 0.9131 0.0
C772 C 0.49224 0.76507 0.98233 0.0
C773 C 0.48993 0.77739 0.89614 0.0
C774 C 0.4925 0.72784 0.9997 0.0
C775 C 0.48979 0.73528 0.10439 0.0
N776 N 0.49108 0.76204 0.93054 0.0
N777 N 0.49098 0.75064 0.07002 0.0
H778 H 0.7749 0.4881 0.64932 0.0
H779 H 0.74004 0.48816 0.35395 0.0
H780 H 0.81596 0.48891 0.52131 0.0
H781 H 0.69893 0.48934 0.48184 0.0
H782 H 0.76803 0.49035 0.41456 0.0
H783 H 0.74689 0.49043 0.58874 0.0
C784 C 0.77805 0.48905 0.60851 0.0
C785 C 0.7979 0.48873 0.59064 0.0
C786 C 0.75287 0.49041 0.42938 0.0
C787 C 0.76581 0.49111 0.52073 0.0
C788 C 0.73687 0.48917 0.39474 0.0
C789 C 0.71701 0.48897 0.41256 0.0
C790 C 0.74909 0.49117 0.48254 0.0
C791 C 0.71385 0.49011 0.46596 0.0
C792 C 0.76204 0.49038 0.5739 0.0
C793 C 0.80104 0.48979 0.53723 0.0
N794 N 0.72969 0.49105 0.49895 0.0
N795 N 0.7852 0.49083 0.50428 0.0
H796 H 0.02586 0.77442 0.14663 0.0
H797 H 0.02585 0.73981 0.85117 0.0
H798 H 0.02436 0.81567 0.01902 0.0
H799 H 0.0242 0.69868 0.97901 0.0
H800 H 0.02369 0.7678 0.91183 0.0
H801 H 0.02359 0.7465 0.08587 0.0
C802 C 0.02477 0.77763 0.10587 0.0
C803 C 0.0249 0.7975 0.08816 0.0
C804 C 0.02352 0.75264 0.9266 0.0
C805 C 0.02261 0.76552 0.01802 0.0
C806 C 0.02475 0.73664 0.89195 0.0
C807 C 0.02478 0.71678 0.90976 0.0
C808 C 0.02261 0.74883 0.97975 0.0
C809 C 0.02355 0.71361 0.96313 0.0
C810 C 0.02348 0.76167 0.07115 0.0
C811 C 0.02366 0.80072 0.0348 0.0
N812 N 0.02261 0.72943 0.99612 0.0
N813 N 0.02268 0.78493 0.00171 0.0
H814 H 0.81624 0.02358 0.48287 0.0
H815 H 0.69706 0.02414 0.51997 0.0
H816 H 0.77425 0.02552 0.35681 0.0
H817 H 0.73897 0.02675 0.6461 0.0
H818 H 0.72502 0.02119 0.46009 0.0
H819 H 0.78827 0.02127 0.54301 0.0
C820 C 0.80119 0.02299 0.46758 0.0
C821 C 0.79768 0.02431 0.41438 0.0
C822 C 0.72813 0.02216 0.50091 0.0
C823 C 0.76537 0.02234 0.48362 0.0
C824 C 0.71209 0.02356 0.53536 0.0
C825 C 0.71557 0.02524 0.58849 0.0
C826 C 0.74791 0.02255 0.51949 0.0
C827 C 0.73555 0.02537 0.60553 0.0
C828 C 0.78515 0.02195 0.50216 0.0
C829 C 0.77769 0.02441 0.39742 0.0
N830 N 0.75092 0.02405 0.57124 0.0
N831 N 0.76234 0.02345 0.43181 0.0
H832 H 0.47404 0.12233 0.28168 0.0
H833 H 0.39144 0.03959 0.21649 0.0
H834 H 0.4615 0.09996 0.12971 0.0
H835 H 0.41414 0.05173 0.36835 0.0
H836 H 0.40849 0.06981 0.18489 0.0
H837 H 0.44399 0.10505 0.31361 0.0
C838 C 0.46442 0.1146 0.25461 0.0
C839 C 0.47013 0.11272 0.20292 0.0
C840 C 0.40919 0.06625 0.22551 0.0
C841 C 0.43613 0.09237 0.23926 0.0
C842 C 0.39919 0.04916 0.24365 0.0
C843 C 0.40122 0.0433 0.29519 0.0
C844 C 0.42134 0.07748 0.25919 0.0
C845 C 0.41203 0.05588 0.32843 0.0
C846 C 0.44742 0.10447 0.27292 0.0
C847 C 0.45748 0.10194 0.16976 0.0
N848 N 0.4219 0.07218 0.3098 0.0
N849 N 0.44127 0.09197 0.18854 0.0
H850 H 0.46264 0.41349 0.8724 0.0
H851 H 0.4128 0.46205 0.62833 0.0
H852 H 0.47537 0.39426 0.71783 0.0
H853 H 0.3941 0.47527 0.78307 0.0
H854 H 0.43026 0.43225 0.65961 0.0
H855 H 0.43262 0.43067 0.84142 0.0
C856 C 0.45858 0.41216 0.83217 0.0
C857 C 0.47133 0.40217 0.79775 0.0
C858 C 0.42183 0.44123 0.6867 0.0
C859 C 0.43746 0.42274 0.76128 0.0
C860 C 0.41163 0.45814 0.66868 0.0
C861 C 0.40172 0.47097 0.70304 0.0
C862 C 0.42263 0.43737 0.73982 0.0
C863 C 0.40123 0.46556 0.75517 0.0
C864 C 0.44154 0.42218 0.81432 0.0
C865 C 0.46573 0.40145 0.74577 0.0
N866 N 0.41189 0.44942 0.77212 0.0
N867 N 0.44946 0.41195 0.72895 0.0
H868 H 0.10262 0.46268 0.37295 0.0
H869 H 0.05346 0.40947 0.13362 0.0
H870 H 0.11974 0.47476 0.2164 0.0
H871 H 0.03947 0.39452 0.29057 0.0
H872 H 0.08346 0.42715 0.16295 0.0
H873 H 0.08574 0.4321 0.34466 0.0
C874 C 0.10358 0.45837 0.33282 0.0
C875 C 0.11286 0.47109 0.29707 0.0
C876 C 0.07427 0.41946 0.19102 0.0
C877 C 0.0926 0.43658 0.26372 0.0
C878 C 0.05726 0.40911 0.17415 0.0
C879 C 0.04416 0.40022 0.20965 0.0
C880 C 0.07796 0.42141 0.24404 0.0
C881 C 0.0494 0.40081 0.26187 0.0
C882 C 0.0937 0.44102 0.31651 0.0
C883 C 0.1131 0.46516 0.24531 0.0
N884 N 0.06566 0.41158 0.27759 0.0
N885 N 0.10276 0.44856 0.23004 0.0
H886 H 0.1223 0.03913 0.78279 0.0
H887 H 0.03964 0.12229 0.72085 0.0
H888 H 0.09976 0.05232 0.63134 0.0
H889 H 0.05132 0.09809 0.87143 0.0
H890 H 0.06982 0.10532 0.68864 0.0
H891 H 0.10495 0.06895 0.81577 0.0
C892 C 0.11453 0.04886 0.75605 0.0
C893 C 0.11263 0.0434 0.70419 0.0
C894 C 0.06616 0.10427 0.72914 0.0
C895 C 0.09219 0.07713 0.74174 0.0
C896 C 0.04909 0.11421 0.74764 0.0
C897 C 0.04311 0.11174 0.79896 0.0
C898 C 0.07727 0.09177 0.76226 0.0
C899 C 0.05555 0.10052 0.83169 0.0
C900 C 0.10436 0.06572 0.77497 0.0
C901 C 0.10177 0.05617 0.67149 0.0
N902 N 0.07185 0.09076 0.81273 0.0
N903 N 0.09176 0.07224 0.69085 0.0
H904 H 0.60261 0.9617 0.63103 0.0
H905 H 0.55151 0.91246 0.87262 0.0
H906 H 0.61909 0.97577 0.78695 0.0
H907 H 0.53975 0.8937 0.71713 0.0
H908 H 0.58162 0.92988 0.84322 0.0
H909 H 0.58551 0.93155 0.66145 0.0
C910 C 0.60339 0.9579 0.67152 0.0
C911 C 0.61256 0.97107 0.70644 0.0
C912 C 0.5729 0.92144 0.81558 0.0
C913 C 0.59204 0.93707 0.74215 0.0
C914 C 0.55581 0.91127 0.83253 0.0
C915 C 0.5433 0.90136 0.79737 0.0
C916 C 0.57726 0.92222 0.76272 0.0
C917 C 0.5492 0.90083 0.74562 0.0
C918 C 0.59339 0.9408 0.68903 0.0
C919 C 0.61256 0.96581 0.75868 0.0
N920 N 0.56552 0.91146 0.72968 0.0
N921 N 0.60209 0.94946 0.77507 0.0
H922 H 0.53877 0.62089 0.28298 0.0
H923 H 0.62189 0.53825 0.21961 0.0
H924 H 0.5509 0.59768 0.13166 0.0
H925 H 0.59897 0.55055 0.37114 0.0
H926 H 0.60432 0.56808 0.18728 0.0
H927 H 0.56879 0.6036 0.31519 0.0
C928 C 0.54829 0.61296 0.25608 0.0
C929 C 0.54249 0.61088 0.2045 0.0
C930 C 0.60368 0.56464 0.22796 0.0
C931 C 0.57647 0.59055 0.24117 0.0
C932 C 0.61397 0.54778 0.24652 0.0
C933 C 0.61205 0.54208 0.29821 0.0
C934 C 0.59138 0.57582 0.26138 0.0
C935 C 0.60101 0.55459 0.33111 0.0
C936 C 0.56527 0.60284 0.27457 0.0
C937 C 0.555 0.59983 0.1716 0.0
N938 N 0.5909 0.57068 0.31211 0.0
N939 N 0.57121 0.5899 0.19053 0.0
H940 H 0.97449 0.62227 0.71548 0.0
H941 H 0.89092 0.54033 0.77901 0.0
H942 H 0.96021 0.60137 0.86779 0.0
H943 H 0.91583 0.55088 0.62868 0.0
H944 H 0.90764 0.57083 0.8102 0.0
H945 H 0.94475 0.60481 0.6824 0.0
C946 C 0.96453 0.61486 0.74232 0.0
C947 C 0.96968 0.61343 0.7945 0.0
C948 C 0.9089 0.56684 0.76994 0.0
C949 C 0.93605 0.59283 0.75688 0.0
C950 C 0.89911 0.54959 0.75202 0.0
C951 C 0.90187 0.5432 0.70113 0.0
C952 C 0.92153 0.57772 0.73668 0.0
C953 C 0.91319 0.55542 0.66811 0.0
C954 C 0.94772 0.60462 0.72337 0.0
C955 C 0.95662 0.60302 0.82737 0.0
N956 N 0.9228 0.5719 0.68654 0.0
N957 N 0.94061 0.5929 0.80799 0.0
H958 H 0.89174 0.97417 0.21749 0.0
H959 H 0.97457 0.89144 0.28163 0.0
H960 H 0.91415 0.9615 0.36936 0.0
H961 H 0.96256 0.91467 0.13023 0.0
H962 H 0.9444 0.90854 0.3135 0.0
H963 H 0.90914 0.94425 0.18527 0.0
C964 C 0.8995 0.96453 0.24449 0.0
C965 C 0.90133 0.97016 0.29624 0.0
C966 C 0.94798 0.90934 0.27292 0.0
C967 C 0.92185 0.93633 0.25955 0.0
C968 C 0.96504 0.89933 0.25463 0.0
C969 C 0.97092 0.90148 0.20314 0.0
C970 C 0.93679 0.92162 0.23944 0.0
C971 C 0.9584 0.91247 0.1701 0.0
C972 C 0.9097 0.94762 0.226 0.0
C973 C 0.91218 0.95752 0.32928 0.0
N974 N 0.94212 0.92232 0.18887 0.0
N975 N 0.92223 0.94139 0.31033 0.0
H976 H 0.58617 0.08417 0.73831 0.0
H977 H 0.59186 0.10368 0.0379 0.0
H978 H 0.6332 0.05991 0.83343 0.0
H979 H 0.54972 0.13256 0.93689 0.0
H980 H 0.61095 0.09226 0.96287 0.0
H981 H 0.57631 0.10623 0.80832 0.0
C982 C 0.59459 0.08367 0.77395 0.0
C983 C 0.61035 0.06999 0.78038 0.0
C984 C 0.59787 0.10156 0.95698 0.0
C985 C 0.59888 0.09511 0.86147 0.0
C986 C 0.5871 0.10823 0.99978 0.0
C987 C 0.56932 0.11913 0.99322 0.0
C988 C 0.59058 0.10559 0.90734 0.0
C989 C 0.56346 0.12433 0.94334 0.0
C990 C 0.58897 0.09634 0.81396 0.0
C991 C 0.62091 0.07019 0.82704 0.0
N992 N 0.57388 0.11724 0.90223 0.0
N993 N 0.61473 0.08229 0.86627 0.0
H994 H 0.4107 0.59238 0.53769 0.0
H995 H 0.42871 0.58743 0.23738 0.0
H996 H 0.38092 0.55086 0.43673 0.0
H997 H 0.45459 0.63335 0.33319 0.0
H998 H 0.40668 0.57781 0.30771 0.0
H999 H 0.422 0.61157 0.46271 0.0
C1000 C 0.40595 0.58778 0.49961 0.0
C1001 C 0.39485 0.57012 0.49303 0.0
C1002 C 0.41693 0.59018 0.31344 0.0
C1003 C 0.40822 0.59151 0.40718 0.0
C1004 C 0.42956 0.59566 0.27325 0.0
C1005 C 0.44369 0.61102 0.27979 0.0
C1006 C 0.41863 0.59981 0.36121 0.0
C1007 C 0.44396 0.62137 0.32672 0.0
C1008 C 0.41253 0.59861 0.45684 0.0
C1009 C 0.38934 0.56449 0.4432 0.0
N1010 N 0.43187 0.61531 0.3661 0.0
N1011 N 0.39637 0.57496 0.40208 0.0
H1012 H 0.96388 0.38136 0.94364 0.0
H1013 H 0.87972 0.45582 0.83462 0.0
H1014 H 0.92445 0.41573 0.04045 0.0
H1015 H 0.92864 0.43164 0.74588 0.0
H1016 H 0.88999 0.43454 0.90752 0.0
H1017 H 0.94476 0.39244 0.86806 0.0
C1018 C 0.95079 0.39073 0.94895 0.0
C1019 C 0.94571 0.39776 0.99789 0.0
C1020 C 0.89824 0.4337 0.87172 0.0
C1021 C 0.9241 0.41088 0.91217 0.0
C1022 C 0.89234 0.44577 0.83018 0.0
C1023 C 0.90355 0.44571 0.78457 0.0
C1024 C 0.91526 0.42137 0.86709 0.0
C1025 C 0.91979 0.43242 0.78074 0.0
C1026 C 0.94 0.39722 0.90594 0.0
C1027 C 0.92879 0.41007 0.00303 0.0
N1028 N 0.92522 0.42093 0.82146 0.0
N1029 N 0.91873 0.41649 0.96062 0.0
H1030 H 0.0591 0.8785 0.33208 0.0
H1031 H 0.13386 0.96262 0.43908 0.0
H1032 H 0.08321 0.9273 0.24275 0.0
H1033 H 0.10043 0.92268 0.53668 0.0
H1034 H 0.12281 0.94337 0.36378 0.0
H1035 H 0.08092 0.88846 0.4042 0.0
C1036 C 0.06926 0.89102 0.32732 0.0
C1037 C 0.06913 0.90231 0.28183 0.0
C1038 C 0.11826 0.9385 0.40177 0.0
C1039 C 0.09408 0.91368 0.36346 0.0
C1040 C 0.12476 0.94937 0.44463 0.0
C1041 C 0.11797 0.94418 0.49373 0.0
C1042 C 0.10479 0.92245 0.40829 0.0
C1043 C 0.10595 0.92706 0.49915 0.0
C1044 C 0.08164 0.89675 0.36843 0.0
C1045 C 0.08256 0.91841 0.27756 0.0
N1046 N 0.09947 0.91697 0.45687 0.0
N1047 N 0.09434 0.92369 0.31788 0.0
H1048 H 0.59264 0.41199 0.96316 0.0
H1049 H 0.58832 0.42861 0.26403 0.0
H1050 H 0.55147 0.38151 0.06366 0.0
H1051 H 0.63424 0.45467 0.16859 0.0
H1052 H 0.57847 0.40696 0.19311 0.0
H1053 H 0.61193 0.42302 0.03825 0.0
C1054 C 0.58812 0.40705 0.00114 0.0
C1055 C 0.57054 0.39583 0.00758 0.0
C1056 C 0.59089 0.41716 0.18759 0.0
C1057 C 0.59206 0.40886 0.09358 0.0
C1058 C 0.59651 0.42958 0.22812 0.0
C1059 C 0.61193 0.44365 0.22187 0.0
C1060 C 0.60047 0.41903 0.13978 0.0
C1061 C 0.62221 0.44408 0.17485 0.0
C1062 C 0.59902 0.41347 0.04398 0.0
C1063 C 0.56504 0.39004 0.0573 0.0
N1064 N 0.61603 0.43221 0.13516 0.0
N1065 N 0.57557 0.39691 0.09851 0.0
H1066 H 0.10143 0.59267 0.46225 0.0
H1067 H 0.08132 0.58508 0.76114 0.0
H1068 H 0.13044 0.55 0.56154 0.0
H1069 H 0.05884 0.63386 0.66898 0.0
H1070 H 0.1031 0.57515 0.69061 0.0
H1071 H 0.08991 0.61124 0.53806 0.0
C1072 C 0.10595 0.58767 0.50018 0.0
C1073 C 0.11693 0.56991 0.50602 0.0
C1074 C 0.09365 0.58819 0.68575 0.0
C1075 C 0.10329 0.59056 0.59275 0.0
C1076 C 0.08113 0.59385 0.72604 0.0
C1077 C 0.06803 0.61015 0.7206 0.0
C1078 C 0.09287 0.59864 0.63896 0.0
C1079 C 0.06865 0.62114 0.67461 0.0
C1080 C 0.09925 0.59815 0.54341 0.0
C1081 C 0.12213 0.56374 0.55566 0.0
N1082 N 0.08059 0.61495 0.6351 0.0
N1083 N 0.11498 0.57387 0.5972 0.0
H1084 H 0.8779 0.05844 0.16873 0.0
H1085 H 0.96177 0.13332 0.06129 0.0
H1086 H 0.92684 0.08253 0.25763 0.0
H1087 H 0.9217 0.0999 0.96395 0.0
H1088 H 0.94257 0.12231 0.1367 0.0
H1089 H 0.88765 0.08037 0.09668 0.0
C1090 C 0.8904 0.06861 0.17341 0.0
C1091 C 0.9018 0.06844 0.21874 0.0
C1092 C 0.93766 0.11775 0.09876 0.0
C1093 C 0.91293 0.09353 0.1372 0.0
C1094 C 0.94849 0.12423 0.05582 0.0
C1095 C 0.94326 0.11741 0.00677 0.0
C1096 C 0.92161 0.10428 0.09234 0.0
C1097 C 0.92612 0.10542 0.00145 0.0
C1098 C 0.89601 0.08106 0.13235 0.0
C1099 C 0.91787 0.08192 0.22293 0.0
N1100 N 0.91607 0.09895 0.0438 0.0
N1101 N 0.92304 0.09376 0.18266 0.0
H1102 H 0.41508 0.92189 0.45752 0.0
H1103 H 0.42898 0.92393 0.7594 0.0
H1104 H 0.38221 0.96098 0.55852 0.0
H1105 H 0.4572 0.87969 0.66288 0.0
H1106 H 0.40758 0.93373 0.68787 0.0
H1107 H 0.42613 0.90232 0.53207 0.0
C1108 C 0.40968 0.92591 0.49545 0.0
C1109 C 0.39777 0.94301 0.50225 0.0
C1110 C 0.41819 0.92167 0.68223 0.0
C1111 C 0.41075 0.92113 0.58769 0.0
C1112 C 0.43045 0.91608 0.72312 0.0
C1113 C 0.44504 0.90116 0.71677 0.0
C1114 C 0.42076 0.9126 0.63399 0.0
C1115 C 0.44616 0.8913 0.66923 0.0
C1116 C 0.41609 0.91484 0.538 0.0
C1117 C 0.39133 0.94782 0.55189 0.0
N1118 N 0.43444 0.89748 0.62923 0.0
N1119 N 0.39818 0.93714 0.59288 0.0
H1120 H 0.46217 0.88007 0.0587 0.0
H1121 H 0.37824 0.95483 0.16641 0.0
H1122 H 0.42188 0.91331 0.96149 0.0
H1123 H 0.42749 0.9311 0.25487 0.0
H1124 H 0.38795 0.93284 0.09445 0.0
H1125 H 0.44307 0.89115 0.13422 0.0
C1126 C 0.44887 0.88914 0.0533 0.0
C1127 C 0.44356 0.8959 0.00425 0.0
C1128 C 0.39639 0.93225 0.13001 0.0
C1129 C 0.42201 0.90908 0.08991 0.0
C1130 C 0.39081 0.94473 0.17101 0.0
C1131 C 0.4023 0.94502 0.21618 0.0
C1132 C 0.41338 0.91986 0.13476 0.0
C1133 C 0.41845 0.93163 0.22029 0.0
C1134 C 0.4381 0.89565 0.09628 0.0
C1135 C 0.42638 0.90785 0.999 0.0
N1136 N 0.42358 0.91975 0.18007 0.0
N1137 N 0.41638 0.91434 0.04139 0.0
H1138 H 0.58484 0.42647 0.76396 0.0
H1139 H 0.60361 0.42061 0.4641 0.0
H1140 H 0.55958 0.37998 0.66889 0.0
H1141 H 0.63294 0.46261 0.56458 0.0
H1142 H 0.59224 0.4016 0.53932 0.0
H1143 H 0.60694 0.43603 0.69372 0.0
C1144 C 0.58412 0.41811 0.72827 0.0
C1145 C 0.57015 0.40261 0.7219 0.0
C1146 C 0.60163 0.41463 0.54505 0.0
C1147 C 0.59531 0.41372 0.64059 0.0
C1148 C 0.60826 0.42536 0.50214 0.0
C1149 C 0.61925 0.44309 0.5085 0.0
C1150 C 0.60579 0.42192 0.59461 0.0
C1151 C 0.62462 0.44891 0.55829 0.0
C1152 C 0.59681 0.42355 0.68814 0.0
C1153 C 0.57008 0.39209 0.67521 0.0
N1154 N 0.61755 0.43854 0.59952 0.0
N1155 N 0.58221 0.3981 0.63587 0.0
H1156 H 0.09067 0.60184 0.96016 0.0
H1157 H 0.08807 0.58512 0.26124 0.0
H1158 H 0.05054 0.63275 0.06252 0.0
H1159 H 0.13301 0.55845 0.16391 0.0
H1160 H 0.07805 0.6069 0.19071 0.0
H1161 H 0.11027 0.59045 0.03439 0.0
C1162 C 0.08646 0.6068 0.99835 0.0
C1163 C 0.06908 0.61828 0.00557 0.0
C1164 C 0.0903 0.59654 0.18467 0.0
C1165 C 0.09094 0.60483 0.09061 0.0
C1166 C 0.09602 0.58406 0.22499 0.0
C1167 C 0.11122 0.56979 0.21812 0.0
C1168 C 0.09953 0.59454 0.13646 0.0
C1169 C 0.12118 0.56922 0.17066 0.0
C1170 C 0.09752 0.60017 0.04071 0.0
C1171 C 0.06395 0.62405 0.05555 0.0
N1172 N 0.11488 0.58115 0.13119 0.0
N1173 N 0.07465 0.61699 0.09628 0.0
H1174 H 0.95505 0.13483 0.66926 0.0
H1175 H 0.88057 0.05071 0.56077 0.0
H1176 H 0.93119 0.08569 0.75778 0.0
H1177 H 0.91412 0.09081 0.46384 0.0
H1178 H 0.89162 0.06979 0.63638 0.0
H1179 H 0.93337 0.12487 0.59687 0.0
C1180 C 0.94499 0.12223 0.67378 0.0
C1181 C 0.94514 0.11085 0.71913 0.0
C1182 C 0.89621 0.07472 0.59848 0.0
C1183 C 0.92034 0.09949 0.63719 0.0
C1184 C 0.88971 0.06395 0.55544 0.0
C1185 C 0.89654 0.06923 0.50644 0.0
C1186 C 0.90969 0.09077 0.59222 0.0
C1187 C 0.90859 0.08634 0.50129 0.0
C1188 C 0.93269 0.11651 0.63252 0.0
C1189 C 0.93181 0.09465 0.72309 0.0
N1190 N 0.91505 0.09635 0.54373 0.0
N1191 N 0.92011 0.08938 0.68263 0.0
H1192 H 0.42127 0.60191 0.03756 0.0
H1193 H 0.42677 0.58397 0.73729 0.0
H1194 H 0.46329 0.63144 0.93753 0.0
H1195 H 0.37997 0.55902 0.83188 0.0
H1196 H 0.43665 0.60569 0.80801 0.0
H1197 H 0.4022 0.59079 0.96218 0.0
C1198 C 0.42602 0.60664 0.99959 0.0
C1199 C 0.44377 0.61762 0.9934 0.0
C1200 C 0.42404 0.59571 0.81338 0.0
C1201 C 0.42252 0.60445 0.90709 0.0
C1202 C 0.41841 0.58324 0.77297 0.0
C1203 C 0.40272 0.56946 0.77904 0.0
C1204 C 0.4142 0.59419 0.86091 0.0
C1205 C 0.39222 0.56937 0.82576 0.0
C1206 C 0.41526 0.60015 0.95659 0.0
C1207 C 0.44959 0.6231 0.94369 0.0
N1208 N 0.3984 0.58129 0.86536 0.0
N1209 N 0.43917 0.61618 0.90235 0.0
H1210 H 0.92987 0.42459 0.2418 0.0
H1211 H 0.91243 0.42032 0.54216 0.0
H1212 H 0.95624 0.37909 0.33806 0.0
H1213 H 0.88177 0.46102 0.44069 0.0
H1214 H 0.92374 0.40097 0.4675 0.0
H1215 H 0.90774 0.43408 0.31204 0.0
C1216 C 0.93079 0.4164 0.27774 0.0
C1217 C 0.94509 0.40122 0.28444 0.0
C1218 C 0.91408 0.41378 0.46146 0.0
C1219 C 0.91994 0.41229 0.36578 0.0
C1220 C 0.90749 0.42471 0.50406 0.0
C1221 C 0.89615 0.44219 0.49722 0.0
C1222 C 0.90952 0.42062 0.4117 0.0
C1223 C 0.89039 0.44753 0.44736 0.0
C1224 C 0.91811 0.42181 0.31788 0.0
C1225 C 0.94547 0.39094 0.33147 0.0
N1226 N 0.89743 0.43698 0.40639 0.0
N1227 N 0.93334 0.39693 0.37081 0.0
H1228 H 0.13555 0.95445 0.83014 0.0
H1229 H 0.05083 0.8808 0.93918 0.0
H1230 H 0.08537 0.93203 0.74286 0.0
H1231 H 0.092 0.91317 0.03584 0.0
H1232 H 0.06965 0.89197 0.86329 0.0
H1233 H 0.12565 0.93256 0.90213 0.0
C1234 C 0.12272 0.94467 0.8258 0.0
C1235 C 0.11106 0.94529 0.78093 0.0
C1236 C 0.07488 0.89625 0.90116 0.0
C1237 C 0.09976 0.92024 0.86242 0.0
C1238 C 0.06426 0.88968 0.94436 0.0
C1239 C 0.06994 0.89614 0.99341 0.0
C1240 C 0.09117 0.90945 0.90732 0.0
C1241 C 0.08725 0.9079 0.99836 0.0
C1242 C 0.11703 0.93225 0.86683 0.0
C1243 C 0.09457 0.9323 0.77719 0.0
N1244 N 0.09711 0.91445 0.95579 0.0
N1245 N 0.08935 0.92046 0.81743 0.0
H1246 H 0.58259 0.08624 0.23831 0.0
H1247 H 0.60092 0.09172 0.53846 0.0
H1248 H 0.55832 0.1335 0.33254 0.0
H1249 H 0.63077 0.05004 0.43815 0.0
H1250 H 0.58952 0.1107 0.46317 0.0
H1251 H 0.60421 0.07617 0.30909 0.0
C1252 C 0.58199 0.09465 0.27393 0.0
C1253 C 0.56844 0.11056 0.27985 0.0
C1254 C 0.59901 0.09773 0.4575 0.0
C1255 C 0.59306 0.09886 0.36179 0.0
C1256 C 0.60564 0.08702 0.50045 0.0
C1257 C 0.61682 0.06941 0.49415 0.0
C1258 C 0.60336 0.09055 0.40796 0.0
C1259 C 0.62229 0.06365 0.44439 0.0
C1260 C 0.5944 0.08892 0.31437 0.0
C1261 C 0.5685 0.12111 0.32652 0.0
N1262 N 0.61523 0.07401 0.40311 0.0
N1263 N 0.58036 0.11482 0.36614 0.0
loop_
_geom_bond_atom_site_label_1
_geom_bond_atom_site_label_2
_geom_bond_distance
_geom_bond_site_symmetry_2
_ccdc_geom_bond_type
Co0 O3 1.970 . S
Co0 N17 1.989 . S
Co0 O25 1.967 . S
Co0 O32 1.920 . S
Co1 O4 1.966 . S
Co1 N10 2.022 . S
Co1 N18 1.993 . S
Co1 O26 1.941 . S
C2 O3 1.258 . S
C2 O4 1.263 . S
O3 Co0 1.970 . S
O3 C2 1.258 . S
O4 Co1 1.966 . S
O4 C2 1.263 . S
C5 O6 1.235 . S
C5 O32 1.289 . S
O6 C5 1.235 . S
C7 C9 1.400 . S
C7 N10 1.351 . S
C7 C12 1.501 . S
C8 C9 1.387 . S
C8 N11 1.341 . S
C9 C7 1.400 . S
C9 C8 1.387 . S
N10 Co1 2.022 . S
N10 C7 1.351 . S
N10 N11 1.365 . S
N11 C8 1.341 . S
N11 N10 1.365 . S
N11 H31 0.862 . S
C12 C7 1.501 . S
C12 H13 0.961 . S
C12 H14 0.961 . S
C12 H15 0.960 . S
H13 C12 0.961 . S
H14 C12 0.961 . S
H15 C12 0.960 . S
C16 N17 1.342 1_556 S
C16 C20 1.401 . S
C16 C21 1.499 . S
N17 Co0 1.989 . S
N17 C16 1.342 1_554 S
N17 N18 1.388 . S
N18 Co1 1.993 . S
N18 N17 1.388 . S
N18 C19 1.346 1_554 S
C19 N18 1.346 1_556 S
C19 C20 1.396 . S
C19 C29 1.510 . S
C20 C16 1.401 . S
C20 C19 1.396 . S
C21 C16 1.499 . S
C21 H22 0.959 . S
C21 H23 0.960 . S
C21 H24 0.961 . S
H22 C21 0.959 . S
H23 C21 0.960 . S
H24 C21 0.961 . S
O25 Co0 1.967 . S
O25 C33 1.258 . S
O26 Co1 1.941 . S
O26 C33 1.266 . S
H27 C29 0.959 . S
H28 C29 0.961 . S
C29 C19 1.510 . S
C29 H27 0.959 . S
C29 H28 0.961 . S
C29 H30 0.960 . S
H30 C29 0.960 . S
H31 N11 0.862 . S
O32 Co0 1.920 . S
O32 C5 1.289 . S
C33 O25 1.258 . S
C33 O26 1.266 . S
Co34 O37 1.970 . S
Co34 N51 1.989 . S
Co34 O59 1.967 . S
Co34 O66 1.920 . S
Co35 O38 1.966 . S
Co35 N44 2.022 . S
Co35 N52 1.993 . S
Co35 O60 1.941 . S
C36 O37 1.258 . S
C36 O38 1.263 . S
O37 Co34 1.970 . S
O37 C36 1.258 . S
O38 Co35 1.966 . S
O38 C36 1.263 . S
C39 O40 1.235 . S
C39 O66 1.289 . S
O40 C39 1.235 . S
C41 C43 1.400 . S
C41 N44 1.351 . S
C41 C46 1.501 . S
C42 C43 1.387 . S
C42 N45 1.341 . S
C43 C41 1.400 . S
C43 C42 1.387 . S
N44 Co35 2.022 . S
N44 C41 1.351 . S
N44 N45 1.365 . S
N45 C42 1.341 . S
N45 N44 1.365 . S
N45 H65 0.862 . S
C46 C41 1.501 . S
C46 H47 0.961 . S
C46 H48 0.961 . S
C46 H49 0.960 . S
H47 C46 0.961 . S
H48 C46 0.961 . S
H49 C46 0.960 . S
C50 N51 1.342 . S
C50 C54 1.401 . S
C50 C55 1.499 . S
N51 Co34 1.989 . S
N51 C50 1.342 . S
N51 N52 1.388 . S
N52 Co35 1.993 . S
N52 N51 1.388 . S
N52 C53 1.346 . S
C53 N52 1.346 . S
C53 C54 1.396 . S
C53 C63 1.510 . S
C54 C50 1.401 . S
C54 C53 1.396 . S
C55 C50 1.499 . S
C55 H56 0.959 . S
C55 H57 0.960 . S
C55 H58 0.961 . S
H56 C55 0.959 . S
H57 C55 0.960 . S
H58 C55 0.961 . S
O59 Co34 1.967 . S
O59 C67 1.258 . S
O60 Co35 1.941 . S
O60 C67 1.266 . S
H61 C63 0.959 . S
H62 C63 0.961 . S
C63 C53 1.510 . S
C63 H61 0.959 . S
C63 H62 0.961 . S
C63 H64 0.960 . S
H64 C63 0.960 . S
H65 N45 0.862 . S
O66 Co34 1.920 . S
O66 C39 1.289 . S
C67 O59 1.258 . S
C67 O60 1.266 . S
Co68 O71 1.970 1_655 S
Co68 N85 1.989 . S
Co68 O93 1.967 . S
Co68 O100 1.920 . S
Co69 O72 1.966 1_655 S
Co69 N78 2.022 . S
Co69 N86 1.993 . S
Co69 O94 1.941 . S
C70 O71 1.258 . S
C70 O72 1.263 . S
O71 Co68 1.970 1_455 S
O71 C70 1.258 . S
O72 Co69 1.966 1_455 S
O72 C70 1.263 . S
C73 O74 1.235 1_655 S
C73 O100 1.289 . S
O74 C73 1.235 1_455 S
C75 C77 1.400 . S
C75 N78 1.351 . S
C75 C80 1.501 1_655 S
C76 C77 1.387 . S
C76 N79 1.341 . S
C77 C75 1.400 . S
C77 C76 1.387 . S
N78 Co69 2.022 . S
N78 C75 1.351 . S
N78 N79 1.365 . S
N79 C76 1.341 . S
N79 N78 1.365 . S
N79 H99 0.862 . S
C80 C75 1.501 1_455 S
C80 H81 0.961 . S
C80 H82 0.961 . S
C80 H83 0.960 . S
H81 C80 0.961 . S
H82 C80 0.961 . S
H83 C80 0.960 . S
C84 N85 1.342 1_556 S
C84 C88 1.401 . S
C84 C89 1.499 . S
N85 Co68 1.989 . S
N85 C84 1.342 1_554 S
N85 N86 1.388 . S
N86 Co69 1.993 . S
N86 N85 1.388 . S
N86 C87 1.346 1_554 S
C87 N86 1.346 1_556 S
C87 C88 1.396 . S
C87 C97 1.510 . S
C88 C84 1.401 . S
C88 C87 1.396 . S
C89 C84 1.499 . S
C89 H90 0.959 . S
C89 H91 0.960 . S
C89 H92 0.961 . S
H90 C89 0.959 . S
H91 C89 0.960 . S
H92 C89 0.961 . S
O93 Co68 1.967 . S
O93 C101 1.258 . S
O94 Co69 1.941 . S
O94 C101 1.266 . S
H95 C97 0.959 . S
H96 C97 0.961 . S
C97 C87 1.510 . S
C97 H95 0.959 . S
C97 H96 0.961 . S
C97 H98 0.960 . S
H98 C97 0.960 . S
H99 N79 0.862 . S
O100 Co68 1.920 . S
O100 C73 1.289 . S
C101 O93 1.258 . S
C101 O94 1.266 . S
Co102 O105 1.970 1_565 S
Co102 N119 1.989 . S
Co102 O127 1.967 . S
Co102 O134 1.920 . S
Co103 O106 1.966 1_565 S
Co103 N112 2.022 . S
Co103 N120 1.993 . S
Co103 O128 1.941 . S
C104 O105 1.258 . S
C104 O106 1.263 . S
O105 Co102 1.970 1_545 S
O105 C104 1.258 . S
O106 Co103 1.966 1_545 S
O106 C104 1.263 . S
C107 O108 1.235 1_565 S
C107 O134 1.289 . S
O108 C107 1.235 1_545 S
C109 C111 1.400 . S
C109 N112 1.351 . S
C109 C114 1.501 1_565 S
C110 C111 1.387 . S
C110 N113 1.341 . S
C111 C109 1.400 . S
C111 C110 1.387 . S
N112 Co103 2.022 . S
N112 C109 1.351 . S
N112 N113 1.365 . S
N113 C110 1.341 . S
N113 N112 1.365 . S
N113 H133 0.862 . S
C114 C109 1.501 1_545 S
C114 H115 0.961 . S
C114 H116 0.961 . S
C114 H117 0.960 . S
H115 C114 0.961 . S
H116 C114 0.961 . S
H117 C114 0.960 . S
C118 N119 1.342 . S
C118 C122 1.401 . S
C118 C123 1.499 . S
N119 Co102 1.989 . S
N119 C118 1.342 . S
N119 N120 1.388 . S
N120 Co103 1.993 . S
N120 N119 1.388 . S
N120 C121 1.346 . S
C121 N120 1.346 . S
C121 C122 1.396 . S
C121 C131 1.510 . S
C122 C118 1.401 . S
C122 C121 1.396 . S
C123 C118 1.499 . S
C123 H124 0.959 . S
C123 H125 0.960 . S
C123 H126 0.961 . S
H124 C123 0.959 . S
H125 C123 0.960 . S
H126 C123 0.961 . S
O127 Co102 1.967 . S
O127 C135 1.258 . S
O128 Co103 1.941 . S
O128 C135 1.266 . S
H129 C131 0.959 . S
H130 C131 0.961 . S
C131 C121 1.510 . S
C131 H129 0.959 . S
C131 H130 0.961 . S
C131 H132 0.960 . S
H132 C131 0.960 . S
H133 N113 0.862 . S
O134 Co102 1.920 . S
O134 C107 1.289 . S
C135 O127 1.258 . S
C135 O128 1.266 . S
Co136 O139 1.970 . S
Co136 N153 1.989 . S
Co136 O161 1.967 . S
Co136 O168 1.920 . S
Co137 O140 1.966 . S
Co137 N146 2.022 . S
Co137 N154 1.993 . S
Co137 O162 1.941 . S
C138 O139 1.258 . S
C138 O140 1.263 . S
O139 Co136 1.970 . S
O139 C138 1.258 . S
O140 Co137 1.966 . S
O140 C138 1.263 . S
C141 O142 1.235 . S
C141 O168 1.289 . S
O142 C141 1.235 . S
C143 C145 1.400 . S
C143 N146 1.351 . S
C143 C148 1.501 . S
C144 C145 1.387 . S
C144 N147 1.341 . S
C145 C143 1.400 . S
C145 C144 1.387 . S
N146 Co137 2.022 . S
N146 C143 1.351 . S
N146 N147 1.365 . S
N147 C144 1.341 . S
N147 N146 1.365 . S
N147 H167 0.862 . S
C148 C143 1.501 . S
C148 H149 0.961 . S
C148 H150 0.961 . S
C148 H151 0.960 . S
H149 C148 0.961 . S
H150 C148 0.961 . S
H151 C148 0.960 . S
C152 N153 1.342 1_554 S
C152 C156 1.401 . S
C152 C157 1.499 . S
N153 Co136 1.989 . S
N153 C152 1.342 1_556 S
N153 N154 1.388 . S
N154 Co137 1.993 . S
N154 N153 1.388 . S
N154 C155 1.346 1_556 S
C155 N154 1.346 1_554 S
C155 C156 1.396 . S
C155 C165 1.510 . S
C156 C152 1.401 . S
C156 C155 1.396 . S
C157 C152 1.499 . S
C157 H158 0.959 . S
C157 H159 0.960 . S
C157 H160 0.961 . S
H158 C157 0.959 . S
H159 C157 0.960 . S
H160 C157 0.961 . S
O161 Co136 1.967 . S
O161 C169 1.258 . S
O162 Co137 1.941 . S
O162 C169 1.266 . S
H163 C165 0.959 . S
H164 C165 0.961 . S
C165 C155 1.510 . S
C165 H163 0.959 . S
C165 H164 0.961 . S
C165 H166 0.960 . S
H166 C165 0.960 . S
H167 N147 0.862 . S
O168 Co136 1.920 . S
O168 C141 1.289 . S
C169 O161 1.258 . S
C169 O162 1.266 . S
Co170 O173 1.970 . S
Co170 N187 1.989 . S
Co170 O195 1.967 . S
Co170 O202 1.920 . S
Co171 O174 1.966 . S
Co171 N180 2.022 . S
Co171 N188 1.993 . S
Co171 O196 1.941 . S
C172 O173 1.258 . S
C172 O174 1.263 . S
O173 Co170 1.970 . S
O173 C172 1.258 . S
O174 Co171 1.966 . S
O174 C172 1.263 . S
C175 O176 1.235 . S
C175 O202 1.289 . S
O176 C175 1.235 . S
C177 C179 1.400 . S
C177 N180 1.351 . S
C177 C182 1.501 . S
C178 C179 1.387 . S
C178 N181 1.341 . S
C179 C177 1.400 . S
C179 C178 1.387 . S
N180 Co171 2.022 . S
N180 C177 1.351 . S
N180 N181 1.365 . S
N181 C178 1.341 . S
N181 N180 1.365 . S
N181 H201 0.862 . S
C182 C177 1.501 . S
C182 H183 0.961 . S
C182 H184 0.961 . S
C182 H185 0.960 . S
H183 C182 0.961 . S
H184 C182 0.961 . S
H185 C182 0.960 . S
C186 N187 1.342 . S
C186 C190 1.401 . S
C186 C191 1.499 . S
N187 Co170 1.989 . S
N187 C186 1.342 . S
N187 N188 1.388 . S
N188 Co171 1.993 . S
N188 N187 1.388 . S
N188 C189 1.346 . S
C189 N188 1.346 . S
C189 C190 1.396 . S
C189 C199 1.510 . S
C190 C186 1.401 . S
C190 C189 1.396 . S
C191 C186 1.499 . S
C191 H192 0.959 . S
C191 H193 0.960 . S
C191 H194 0.961 . S
H192 C191 0.959 . S
H193 C191 0.960 . S
H194 C191 0.961 . S
O195 Co170 1.967 . S
O195 C203 1.258 . S
O196 Co171 1.941 . S
O196 C203 1.266 . S
H197 C199 0.959 . S
H198 C199 0.961 . S
C199 C189 1.510 . S
C199 H197 0.959 . S
C199 H198 0.961 . S
C199 H200 0.960 . S
H200 C199 0.960 . S
H201 N181 0.862 . S
O202 Co170 1.920 . S
O202 C175 1.289 . S
C203 O195 1.258 . S
C203 O196 1.266 . S
Co204 O207 1.970 1_655 S
Co204 N221 1.989 . S
Co204 O229 1.967 . S
Co204 O236 1.920 . S
Co205 O208 1.966 1_655 S
Co205 N214 2.022 . S
Co205 N222 1.993 . S
Co205 O230 1.941 . S
C206 O207 1.258 . S
C206 O208 1.263 . S
O207 Co204 1.970 1_455 S
O207 C206 1.258 . S
O208 Co205 1.966 1_455 S
O208 C206 1.263 . S
C209 O210 1.235 1_655 S
C209 O236 1.289 . S
O210 C209 1.235 1_455 S
C211 C213 1.400 . S
C211 N214 1.351 . S
C211 C216 1.501 1_655 S
C212 C213 1.387 . S
C212 N215 1.341 . S
C213 C211 1.400 . S
C213 C212 1.387 . S
N214 Co205 2.022 . S
N214 C211 1.351 . S
N214 N215 1.365 . S
N215 C212 1.341 . S
N215 N214 1.365 . S
N215 H235 0.862 . S
C216 C211 1.501 1_455 S
C216 H217 0.961 . S
C216 H218 0.961 . S
C216 H219 0.960 . S
H217 C216 0.961 . S
H218 C216 0.961 . S
H219 C216 0.960 . S
C220 N221 1.342 1_554 S
C220 C224 1.401 . S
C220 C225 1.499 . S
N221 Co204 1.989 . S
N221 C220 1.342 1_556 S
N221 N222 1.388 . S
N222 Co205 1.993 . S
N222 N221 1.388 . S
N222 C223 1.346 1_556 S
C223 N222 1.346 1_554 S
C223 C224 1.396 . S
C223 C233 1.510 . S
C224 C220 1.401 . S
C224 C223 1.396 . S
C225 C220 1.499 . S
C225 H226 0.959 . S
C225 H227 0.960 . S
C225 H228 0.961 . S
H226 C225 0.959 . S
H227 C225 0.960 . S
H228 C225 0.961 . S
O229 Co204 1.967 . S
O229 C237 1.258 . S
O230 Co205 1.941 . S
O230 C237 1.266 . S
H231 C233 0.959 . S
H232 C233 0.961 . S
C233 C223 1.510 . S
C233 H231 0.959 . S
C233 H232 0.961 . S
C233 H234 0.960 . S
H234 C233 0.960 . S
H235 N215 0.862 . S
O236 Co204 1.920 . S
O236 C209 1.289 . S
C237 O229 1.258 . S
C237 O230 1.266 . S
Co238 O241 1.970 1_565 S
Co238 N255 1.989 . S
Co238 O263 1.967 . S
Co238 O270 1.920 . S
Co239 O242 1.966 1_565 S
Co239 N248 2.022 . S
Co239 N256 1.993 . S
Co239 O264 1.941 . S
C240 O241 1.258 . S
C240 O242 1.263 . S
O241 Co238 1.970 1_545 S
O241 C240 1.258 . S
O242 Co239 1.966 1_545 S
O242 C240 1.263 . S
C243 O244 1.235 1_565 S
C243 O270 1.289 . S
O244 C243 1.235 1_545 S
C245 C247 1.400 . S
C245 N248 1.351 . S
C245 C250 1.501 1_565 S
C246 C247 1.387 . S
C246 N249 1.341 . S
C247 C245 1.400 . S
C247 C246 1.387 . S
N248 Co239 2.022 . S
N248 C245 1.351 . S
N248 N249 1.365 . S
N249 C246 1.341 . S
N249 N248 1.365 . S
N249 H269 0.862 . S
C250 C245 1.501 1_545 S
C250 H251 0.961 . S
C250 H252 0.961 . S
C250 H253 0.960 . S
H251 C250 0.961 . S
H252 C250 0.961 . S
H253 C250 0.960 . S
C254 N255 1.342 . S
C254 C258 1.401 . S
C254 C259 1.499 . S
N255 Co238 1.989 . S
N255 C254 1.342 . S
N255 N256 1.388 . S
N256 Co239 1.993 . S
N256 N255 1.388 . S
N256 C257 1.346 . S
C257 N256 1.346 . S
C257 C258 1.396 . S
C257 C267 1.510 . S
C258 C254 1.401 . S
C258 C257 1.396 . S
C259 C254 1.499 . S
C259 H260 0.959 . S
C259 H261 0.960 . S
C259 H262 0.961 . S
H260 C259 0.959 . S
H261 C259 0.960 . S
H262 C259 0.961 . S
O263 Co238 1.967 . S
O263 C271 1.258 . S
O264 Co239 1.941 . S
O264 C271 1.266 . S
H265 C267 0.959 . S
H266 C267 0.961 . S
C267 C257 1.510 . S
C267 H265 0.959 . S
C267 H266 0.961 . S
C267 H268 0.960 . S
H268 C267 0.960 . S
H269 N249 0.862 . S
O270 Co238 1.920 . S
O270 C243 1.289 . S
C271 O263 1.258 . S
C271 O264 1.266 . S
Co272 O275 1.970 . S
Co272 N289 1.989 . S
Co272 O297 1.967 . S
Co272 O304 1.920 . S
Co273 O276 1.966 . S
Co273 N282 2.022 . S
Co273 N290 1.993 . S
Co273 O298 1.941 . S
C274 O275 1.258 . S
C274 O276 1.263 . S
O275 Co272 1.970 . S
O275 C274 1.258 . S
O276 Co273 1.966 . S
O276 C274 1.263 . S
C277 O278 1.235 . S
C277 O304 1.289 . S
O278 C277 1.235 . S
C279 C281 1.400 . S
C279 N282 1.351 . S
C279 C284 1.501 . S
C280 C281 1.387 . S
C280 N283 1.341 . S
C281 C279 1.400 . S
C281 C280 1.387 . S
N282 Co273 2.022 . S
N282 C279 1.351 . S
N282 N283 1.365 . S
N283 C280 1.341 . S
N283 N282 1.365 . S
N283 H303 0.862 . S
C284 C279 1.501 . S
C284 H285 0.961 . S
C284 H286 0.961 . S
C284 H287 0.960 . S
H285 C284 0.961 . S
H286 C284 0.961 . S
H287 C284 0.960 . S
C288 N289 1.342 1_554 S
C288 C292 1.401 . S
C288 C293 1.499 . S
N289 Co272 1.989 . S
N289 C288 1.342 1_556 S
N289 N290 1.388 . S
N290 Co273 1.993 . S
N290 N289 1.388 . S
N290 C291 1.346 1_556 S
C291 N290 1.346 1_554 S
C291 C292 1.396 . S
C291 C301 1.510 . S
C292 C288 1.401 . S
C292 C291 1.396 . S
C293 C288 1.499 . S
C293 H294 0.959 . S
C293 H295 0.960 . S
C293 H296 0.961 . S
H294 C293 0.959 . S
H295 C293 0.960 . S
H296 C293 0.961 . S
O297 Co272 1.967 . S
O297 C305 1.258 . S
O298 Co273 1.941 . S
O298 C305 1.266 . S
H299 C301 0.959 . S
H300 C301 0.961 . S
C301 C291 1.510 . S
C301 H299 0.959 . S
C301 H300 0.961 . S
C301 H302 0.960 . S
H302 C301 0.960 . S
H303 N283 0.862 . S
O304 Co272 1.920 . S
O304 C277 1.289 . S
C305 O297 1.258 . S
C305 O298 1.266 . S
Co306 O309 1.970 . S
Co306 N323 1.989 . S
Co306 O331 1.967 . S
Co306 O338 1.920 . S
Co307 O310 1.966 . S
Co307 N316 2.022 . S
Co307 N324 1.993 . S
Co307 O332 1.941 . S
C308 O309 1.258 . S
C308 O310 1.263 . S
O309 Co306 1.970 . S
O309 C308 1.258 . S
O310 Co307 1.966 . S
O310 C308 1.263 . S
C311 O312 1.235 . S
C311 O338 1.289 . S
O312 C311 1.235 . S
C313 C315 1.400 . S
C313 N316 1.351 . S
C313 C318 1.501 . S
C314 C315 1.387 . S
C314 N317 1.341 . S
C315 C313 1.400 . S
C315 C314 1.387 . S
N316 Co307 2.022 . S
N316 C313 1.351 . S
N316 N317 1.365 . S
N317 C314 1.341 . S
N317 N316 1.365 . S
N317 H337 0.862 . S
C318 C313 1.501 . S
C318 H319 0.961 . S
C318 H320 0.961 . S
C318 H321 0.960 . S
H319 C318 0.961 . S
H320 C318 0.961 . S
H321 C318 0.960 . S
C322 N323 1.342 . S
C322 C326 1.401 . S
C322 C327 1.499 . S
N323 Co306 1.989 . S
N323 C322 1.342 . S
N323 N324 1.388 . S
N324 Co307 1.993 . S
N324 N323 1.388 . S
N324 C325 1.346 . S
C325 N324 1.346 . S
C325 C326 1.396 . S
C325 C335 1.510 . S
C326 C322 1.401 . S
C326 C325 1.396 . S
C327 C322 1.499 . S
C327 H328 0.959 . S
C327 H329 0.960 . S
C327 H330 0.961 . S
H328 C327 0.959 . S
H329 C327 0.960 . S
H330 C327 0.961 . S
O331 Co306 1.967 . S
O331 C339 1.258 . S
O332 Co307 1.941 . S
O332 C339 1.266 . S
H333 C335 0.959 . S
H334 C335 0.961 . S
C335 C325 1.510 . S
C335 H333 0.959 . S
C335 H334 0.961 . S
C335 H336 0.960 . S
H336 C335 0.960 . S
H337 N317 0.862 . S
O338 Co306 1.920 . S
O338 C311 1.289 . S
C339 O331 1.258 . S
C339 O332 1.266 . S
Co340 O343 1.970 1_455 S
Co340 N357 1.989 . S
Co340 O365 1.967 . S
Co340 O372 1.920 . S
Co341 O344 1.966 1_455 S
Co341 N350 2.022 . S
Co341 N358 1.993 . S
Co341 O366 1.941 . S
C342 O343 1.258 . S
C342 O344 1.263 . S
O343 Co340 1.970 1_655 S
O343 C342 1.258 . S
O344 Co341 1.966 1_655 S
O344 C342 1.263 . S
C345 O346 1.235 1_455 S
C345 O372 1.289 . S
O346 C345 1.235 1_655 S
C347 C349 1.400 . S
C347 N350 1.351 . S
C347 C352 1.501 1_455 S
C348 C349 1.387 . S
C348 N351 1.341 . S
C349 C347 1.400 . S
C349 C348 1.387 . S
N350 Co341 2.022 . S
N350 C347 1.351 . S
N350 N351 1.365 . S
N351 C348 1.341 . S
N351 N350 1.365 . S
N351 H371 0.862 . S
C352 C347 1.501 1_655 S
C352 H353 0.961 . S
C352 H354 0.961 . S
C352 H355 0.960 . S
H353 C352 0.961 . S
H354 C352 0.961 . S
H355 C352 0.960 . S
C356 N357 1.342 1_554 S
C356 C360 1.401 . S
C356 C361 1.499 . S
N357 Co340 1.989 . S
N357 C356 1.342 1_556 S
N357 N358 1.388 . S
N358 Co341 1.993 . S
N358 N357 1.388 . S
N358 C359 1.346 1_556 S
C359 N358 1.346 1_554 S
C359 C360 1.396 . S
C359 C369 1.510 . S
C360 C356 1.401 . S
C360 C359 1.396 . S
C361 C356 1.499 . S
C361 H362 0.959 . S
C361 H363 0.960 . S
C361 H364 0.961 . S
H362 C361 0.959 . S
H363 C361 0.960 . S
H364 C361 0.961 . S
O365 Co340 1.967 . S
O365 C373 1.258 . S
O366 Co341 1.941 . S
O366 C373 1.266 . S
H367 C369 0.959 . S
H368 C369 0.961 . S
C369 C359 1.510 . S
C369 H367 0.959 . S
C369 H368 0.961 . S
C369 H370 0.960 . S
H370 C369 0.960 . S
H371 N351 0.862 . S
O372 Co340 1.920 . S
O372 C345 1.289 . S
C373 O365 1.258 . S
C373 O366 1.266 . S
Co374 O377 1.970 1_545 S
Co374 N391 1.989 . S
Co374 O399 1.967 . S
Co374 O406 1.920 . S
Co375 O378 1.966 1_545 S
Co375 N384 2.022 . S
Co375 N392 1.993 . S
Co375 O400 1.941 . S
C376 O377 1.258 . S
C376 O378 1.263 . S
O377 Co374 1.970 1_565 S
O377 C376 1.258 . S
O378 Co375 1.966 1_565 S
O378 C376 1.263 . S
C379 O380 1.235 1_545 S
C379 O406 1.289 . S
O380 C379 1.235 1_565 S
C381 C383 1.400 . S
C381 N384 1.351 . S
C381 C386 1.501 1_545 S
C382 C383 1.387 . S
C382 N385 1.341 . S
C383 C381 1.400 . S
C383 C382 1.387 . S
N384 Co375 2.022 . S
N384 C381 1.351 . S
N384 N385 1.365 . S
N385 C382 1.341 . S
N385 N384 1.365 . S
N385 H405 0.862 . S
C386 C381 1.501 1_565 S
C386 H387 0.961 . S
C386 H388 0.961 . S
C386 H389 0.960 . S
H387 C386 0.961 . S
H388 C386 0.961 . S
H389 C386 0.960 . S
C390 N391 1.342 . S
C390 C394 1.401 . S
C390 C395 1.499 . S
N391 Co374 1.989 . S
N391 C390 1.342 . S
N391 N392 1.388 . S
N392 Co375 1.993 . S
N392 N391 1.388 . S
N392 C393 1.346 . S
C393 N392 1.346 . S
C393 C394 1.396 . S
C393 C403 1.510 . S
C394 C390 1.401 . S
C394 C393 1.396 . S
C395 C390 1.499 . S
C395 H396 0.959 . S
C395 H397 0.960 . S
C395 H398 0.961 . S
H396 C395 0.959 . S
H397 C395 0.960 . S
H398 C395 0.961 . S
O399 Co374 1.967 . S
O399 C407 1.258 . S
O400 Co375 1.941 . S
O400 C407 1.266 . S
H401 C403 0.959 . S
H402 C403 0.961 . S
C403 C393 1.510 . S
C403 H401 0.959 . S
C403 H402 0.961 . S
C403 H404 0.960 . S
H404 C403 0.960 . S
H405 N385 0.862 . S
O406 Co374 1.920 . S
O406 C379 1.289 . S
C407 O399 1.258 . S
C407 O400 1.266 . S
Co408 O411 1.970 . S
Co408 N425 1.989 . S
Co408 O433 1.967 . S
Co408 O440 1.920 . S
Co409 O412 1.966 . S
Co409 N418 2.022 . S
Co409 N426 1.993 . S
Co409 O434 1.941 . S
C410 O411 1.258 . S
C410 O412 1.263 . S
O411 Co408 1.970 . S
O411 C410 1.258 . S
O412 Co409 1.966 . S
O412 C410 1.263 . S
C413 O414 1.235 . S
C413 O440 1.289 . S
O414 C413 1.235 . S
C415 C417 1.400 . S
C415 N418 1.351 . S
C415 C420 1.501 . S
C416 C417 1.387 . S
C416 N419 1.341 . S
C417 C415 1.400 . S
C417 C416 1.387 . S
N418 Co409 2.022 . S
N418 C415 1.351 . S
N418 N419 1.365 . S
N419 C416 1.341 . S
N419 N418 1.365 . S
N419 H439 0.862 . S
C420 C415 1.501 . S
C420 H421 0.961 . S
C420 H422 0.961 . S
C420 H423 0.960 . S
H421 C420 0.961 . S
H422 C420 0.961 . S
H423 C420 0.960 . S
C424 N425 1.342 1_556 S
C424 C428 1.401 . S
C424 C429 1.499 . S
N425 Co408 1.989 . S
N425 C424 1.342 1_554 S
N425 N426 1.388 . S
N426 Co409 1.993 . S
N426 N425 1.388 . S
N426 C427 1.346 1_554 S
C427 N426 1.346 1_556 S
C427 C428 1.396 . S
C427 C437 1.510 . S
C428 C424 1.401 . S
C428 C427 1.396 . S
C429 C424 1.499 . S
C429 H430 0.959 . S
C429 H431 0.960 . S
C429 H432 0.961 . S
H430 C429 0.959 . S
H431 C429 0.960 . S
H432 C429 0.961 . S
O433 Co408 1.967 . S
O433 C441 1.258 . S
O434 Co409 1.941 . S
O434 C441 1.266 . S
H435 C437 0.959 . S
H436 C437 0.961 . S
C437 C427 1.510 . S
C437 H435 0.959 . S
C437 H436 0.961 . S
C437 H438 0.960 . S
H438 C437 0.960 . S
H439 N419 0.862 . S
O440 Co408 1.920 . S
O440 C413 1.289 . S
C441 O433 1.258 . S
C441 O434 1.266 . S
Co442 O445 1.970 . S
Co442 N459 1.989 . S
Co442 O467 1.967 . S
Co442 O474 1.920 . S
Co443 O446 1.966 . S
Co443 N452 2.022 . S
Co443 N460 1.993 . S
Co443 O468 1.941 . S
C444 O445 1.258 . S
C444 O446 1.263 . S
O445 Co442 1.970 . S
O445 C444 1.258 . S
O446 Co443 1.966 . S
O446 C444 1.263 . S
C447 O448 1.235 . S
C447 O474 1.289 . S
O448 C447 1.235 . S
C449 C451 1.400 . S
C449 N452 1.351 . S
C449 C454 1.501 . S
C450 C451 1.387 . S
C450 N453 1.341 . S
C451 C449 1.400 . S
C451 C450 1.387 . S
N452 Co443 2.022 . S
N452 C449 1.351 . S
N452 N453 1.365 . S
N453 C450 1.341 . S
N453 N452 1.365 . S
N453 H473 0.862 . S
C454 C449 1.501 . S
C454 H455 0.961 . S
C454 H456 0.961 . S
C454 H457 0.960 . S
H455 C454 0.961 . S
H456 C454 0.961 . S
H457 C454 0.960 . S
C458 N459 1.342 . S
C458 C462 1.401 . S
C458 C463 1.499 . S
N459 Co442 1.989 . S
N459 C458 1.342 . S
N459 N460 1.388 . S
N460 Co443 1.993 . S
N460 N459 1.388 . S
N460 C461 1.346 . S
C461 N460 1.346 . S
C461 C462 1.396 . S
C461 C471 1.510 . S
C462 C458 1.401 . S
C462 C461 1.396 . S
C463 C458 1.499 . S
C463 H464 0.959 . S
C463 H465 0.960 . S
C463 H466 0.961 . S
H464 C463 0.959 . S
H465 C463 0.960 . S
H466 C463 0.961 . S
O467 Co442 1.967 . S
O467 C475 1.258 . S
O468 Co443 1.941 . S
O468 C475 1.266 . S
H469 C471 0.959 . S
H470 C471 0.961 . S
C471 C461 1.510 . S
C471 H469 0.959 . S
C471 H470 0.961 . S
C471 H472 0.960 . S
H472 C471 0.960 . S
H473 N453 0.862 . S
O474 Co442 1.920 . S
O474 C447 1.289 . S
C475 O467 1.258 . S
C475 O468 1.266 . S
Co476 O479 1.970 1_455 S
Co476 N493 1.989 . S
Co476 O501 1.967 . S
Co476 O508 1.920 . S
Co477 O480 1.966 1_455 S
Co477 N486 2.022 . S
Co477 N494 1.993 . S
Co477 O502 1.941 . S
C478 O479 1.258 . S
C478 O480 1.263 . S
O479 Co476 1.970 1_655 S
O479 C478 1.258 . S
O480 Co477 1.966 1_655 S
O480 C478 1.263 . S
C481 O482 1.235 1_455 S
C481 O508 1.289 . S
O482 C481 1.235 1_655 S
C483 C485 1.400 . S
C483 N486 1.351 . S
C483 C488 1.501 1_455 S
C484 C485 1.387 . S
C484 N487 1.341 . S
C485 C483 1.400 . S
C485 C484 1.387 . S
N486 Co477 2.022 . S
N486 C483 1.351 . S
N486 N487 1.365 . S
N487 C484 1.341 . S
N487 N486 1.365 . S
N487 H507 0.862 . S
C488 C483 1.501 1_655 S
C488 H489 0.961 . S
C488 H490 0.961 . S
C488 H491 0.960 . S
H489 C488 0.961 . S
H490 C488 0.961 . S
H491 C488 0.960 . S
C492 N493 1.342 1_556 S
C492 C496 1.401 . S
C492 C497 1.499 . S
N493 Co476 1.989 . S
N493 C492 1.342 1_554 S
N493 N494 1.388 . S
N494 Co477 1.993 . S
N494 N493 1.388 . S
N494 C495 1.346 1_554 S
C495 N494 1.346 1_556 S
C495 C496 1.396 . S
C495 C505 1.510 . S
C496 C492 1.401 . S
C496 C495 1.396 . S
C497 C492 1.499 . S
C497 H498 0.959 . S
C497 H499 0.960 . S
C497 H500 0.961 . S
H498 C497 0.959 . S
H499 C497 0.960 . S
H500 C497 0.961 . S
O501 Co476 1.967 . S
O501 C509 1.258 . S
O502 Co477 1.941 . S
O502 C509 1.266 . S
H503 C505 0.959 . S
H504 C505 0.961 . S
C505 C495 1.510 . S
C505 H503 0.959 . S
C505 H504 0.961 . S
C505 H506 0.960 . S
H506 C505 0.960 . S
H507 N487 0.862 . S
O508 Co476 1.920 . S
O508 C481 1.289 . S
C509 O501 1.258 . S
C509 O502 1.266 . S
Co510 O513 1.970 1_545 S
Co510 N527 1.989 . S
Co510 O535 1.967 . S
Co510 O542 1.920 . S
Co511 O514 1.966 1_545 S
Co511 N520 2.022 . S
Co511 N528 1.993 . S
Co511 O536 1.941 . S
C512 O513 1.258 . S
C512 O514 1.263 . S
O513 Co510 1.970 1_565 S
O513 C512 1.258 . S
O514 Co511 1.966 1_565 S
O514 C512 1.263 . S
C515 O516 1.235 1_545 S
C515 O542 1.289 . S
O516 C515 1.235 1_565 S
C517 C519 1.400 . S
C517 N520 1.351 . S
C517 C522 1.501 1_545 S
C518 C519 1.387 . S
C518 N521 1.341 . S
C519 C517 1.400 . S
C519 C518 1.387 . S
N520 Co511 2.022 . S
N520 C517 1.351 . S
N520 N521 1.365 . S
N521 C518 1.341 . S
N521 N520 1.365 . S
N521 H541 0.862 . S
C522 C517 1.501 1_565 S
C522 H523 0.961 . S
C522 H524 0.961 . S
C522 H525 0.960 . S
H523 C522 0.961 . S
H524 C522 0.961 . S
H525 C522 0.960 . S
C526 N527 1.342 . S
C526 C530 1.401 . S
C526 C531 1.499 . S
N527 Co510 1.989 . S
N527 C526 1.342 . S
N527 N528 1.388 . S
N528 Co511 1.993 . S
N528 N527 1.388 . S
N528 C529 1.346 . S
C529 N528 1.346 . S
C529 C530 1.396 . S
C529 C539 1.510 . S
C530 C526 1.401 . S
C530 C529 1.396 . S
C531 C526 1.499 . S
C531 H532 0.959 . S
C531 H533 0.960 . S
C531 H534 0.961 . S
H532 C531 0.959 . S
H533 C531 0.960 . S
H534 C531 0.961 . S
O535 Co510 1.967 . S
O535 C543 1.258 . S
O536 Co511 1.941 . S
O536 C543 1.266 . S
H537 C539 0.959 . S
H538 C539 0.961 . S
C539 C529 1.510 . S
C539 H537 0.959 . S
C539 H538 0.961 . S
C539 H540 0.960 . S
H540 C539 0.960 . S
H541 N521 0.862 . S
O542 Co510 1.920 . S
O542 C515 1.289 . S
C543 O535 1.258 . S
C543 O536 1.266 . S
H544 C550 0.930 . S
H545 C554 0.930 . S
H546 C559 0.929 . S
H547 C557 0.929 . S
H548 C552 0.929 1_554 S
H549 C558 0.929 1_556 S
C550 H544 0.930 . S
C550 C551 1.367 . S
C550 C558 1.378 . S
C551 C550 1.367 . S
C551 C559 1.433 . S
C552 H548 0.929 1_556 S
C552 C554 1.378 . S
C552 C556 1.350 . S
C553 C556 1.463 1_544 S
C553 C558 1.350 . S
C553 N561 1.427 . S
C554 H545 0.930 . S
C554 C552 1.378 . S
C554 C555 1.367 . S
C555 C554 1.367 . S
C555 C557 1.433 . S
C556 C552 1.350 . S
C556 C553 1.463 1_566 S
C556 N560 1.427 . S
C557 H547 0.929 . S
C557 C555 1.433 . S
C557 N560 1.384 . S
C558 H549 0.929 1_554 S
C558 C550 1.378 . S
C558 C553 1.350 . S
C559 H546 0.929 . S
C559 C551 1.433 . S
C559 N561 1.384 . S
N560 C556 1.427 . S
N560 C557 1.384 . S
N561 C553 1.427 . S
N561 C559 1.384 . S
H562 C568 0.930 . S
H563 C572 0.930 . S
H564 C577 0.929 . S
H565 C575 0.929 . S
H566 C570 0.929 . S
H567 C576 0.929 . S
C568 H562 0.930 . S
C568 C569 1.367 . S
C568 C576 1.378 . S
C569 C568 1.367 . S
C569 C577 1.433 . S
C570 H566 0.929 . S
C570 C572 1.378 . S
C570 C574 1.350 . S
C571 C574 1.463 . S
C571 C576 1.350 . S
C571 N579 1.427 . S
C572 H563 0.930 . S
C572 C570 1.378 . S
C572 C573 1.367 . S
C573 C572 1.367 . S
C573 C575 1.433 . S
C574 C570 1.350 . S
C574 C571 1.463 . S
C574 N578 1.427 . S
C575 H565 0.929 . S
C575 C573 1.433 . S
C575 N578 1.384 . S
C576 H567 0.929 . S
C576 C568 1.378 . S
C576 C571 1.350 . S
C577 H564 0.929 . S
C577 C569 1.433 . S
C577 N579 1.384 . S
N578 C574 1.427 . S
N578 C575 1.384 . S
N579 C571 1.427 . S
N579 C577 1.384 . S
H580 C586 0.930 . S
H581 C590 0.930 . S
H582 C595 0.929 . S
H583 C593 0.929 . S
H584 C588 0.929 . S
H585 C594 0.929 . S
C586 H580 0.930 . S
C586 C587 1.367 . S
C586 C594 1.378 . S
C587 C586 1.367 . S
C587 C595 1.433 1_554 S
C588 H584 0.929 . S
C588 C590 1.378 . S
C588 C592 1.350 . S
C589 C592 1.463 1_654 S
C589 C594 1.350 . S
C589 N597 1.427 1_554 S
C590 H581 0.930 . S
C590 C588 1.378 . S
C590 C591 1.367 . S
C591 C590 1.367 . S
C591 C593 1.433 1_556 S
C592 C588 1.350 . S
C592 C589 1.463 1_456 S
C592 N596 1.427 1_556 S
C593 H583 0.929 . S
C593 C591 1.433 1_554 S
C593 N596 1.384 . S
C594 H585 0.929 . S
C594 C586 1.378 . S
C594 C589 1.350 . S
C595 H582 0.929 . S
C595 C587 1.433 1_556 S
C595 N597 1.384 . S
N596 C592 1.427 1_554 S
N596 C593 1.384 . S
N597 C589 1.427 1_556 S
N597 C595 1.384 . S
H598 C604 0.930 . S
H599 C608 0.930 . S
H600 C613 0.929 . S
H601 C611 0.929 . S
H602 C606 0.929 1_565 S
H603 C612 0.929 1_545 S
C604 H598 0.930 . S
C604 C605 1.367 . S
C604 C612 1.378 . S
C605 C604 1.367 . S
C605 C613 1.433 . S
C606 H602 0.929 1_545 S
C606 C608 1.378 . S
C606 C610 1.350 . S
C607 C610 1.463 1_465 S
C607 C612 1.350 . S
C607 N615 1.427 . S
C608 H599 0.930 . S
C608 C606 1.378 . S
C608 C609 1.367 . S
C609 C608 1.367 . S
C609 C611 1.433 . S
C610 C606 1.350 . S
C610 C607 1.463 1_645 S
C610 N614 1.427 . S
C611 H601 0.929 . S
C611 C609 1.433 . S
C611 N614 1.384 . S
C612 H603 0.929 1_565 S
C612 C604 1.378 . S
C612 C607 1.350 . S
C613 H600 0.929 . S
C613 C605 1.433 . S
C613 N615 1.384 . S
N614 C610 1.427 . S
N614 C611 1.384 . S
N615 C607 1.427 . S
N615 C613 1.384 . S
H616 C622 0.930 . S
H617 C626 0.930 . S
H618 C631 0.929 1_554 S
H619 C629 0.929 1_556 S
H620 C624 0.929 . S
H621 C630 0.929 . S
C622 H616 0.930 . S
C622 C623 1.367 . S
C622 C630 1.378 . S
C623 C622 1.367 . S
C623 C631 1.433 . S
C624 H620 0.929 . S
C624 C626 1.378 . S
C624 C628 1.350 . S
C625 C628 1.463 1_556 S
C625 C630 1.350 . S
C625 N633 1.427 1_556 S
C626 H617 0.930 . S
C626 C624 1.378 . S
C626 C627 1.367 . S
C627 C626 1.367 . S
C627 C629 1.433 . S
C628 C624 1.350 . S
C628 C625 1.463 1_554 S
C628 N632 1.427 1_554 S
C629 H619 0.929 1_554 S
C629 C627 1.433 . S
C629 N632 1.384 1_554 S
C630 H621 0.929 . S
C630 C622 1.378 . S
C630 C625 1.350 . S
C631 H618 0.929 1_556 S
C631 C623 1.433 . S
C631 N633 1.384 1_556 S
N632 C628 1.427 1_556 S
N632 C629 1.384 1_556 S
N633 C625 1.427 1_554 S
N633 C631 1.384 1_554 S
H634 C640 0.930 . S
H635 C644 0.930 . S
H636 C649 0.929 . S
H637 C647 0.929 . S
H638 C642 0.929 . S
H639 C648 0.929 . S
C640 H634 0.930 . S
C640 C641 1.367 . S
C640 C648 1.378 . S
C641 C640 1.367 . S
C641 C649 1.433 . S
C642 H638 0.929 . S
C642 C644 1.378 . S
C642 C646 1.350 . S
C643 C646 1.463 1_655 S
C643 C648 1.350 . S
C643 N651 1.427 . S
C644 H635 0.930 . S
C644 C642 1.378 . S
C644 C645 1.367 . S
C645 C644 1.367 . S
C645 C647 1.433 . S
C646 C642 1.350 . S
C646 C643 1.463 1_455 S
C646 N650 1.427 . S
C647 H637 0.929 . S
C647 C645 1.433 . S
C647 N650 1.384 . S
C648 H639 0.929 . S
C648 C640 1.378 . S
C648 C643 1.350 . S
C649 H636 0.929 . S
C649 C641 1.433 . S
C649 N651 1.384 . S
N650 C646 1.427 . S
N650 C647 1.384 . S
N651 C643 1.427 . S
N651 C649 1.384 . S
H652 C658 0.930 . S
H653 C662 0.930 . S
H654 C667 0.929 1_556 S
H655 C665 0.929 1_554 S
H656 C660 0.929 . S
H657 C666 0.929 . S
C658 H652 0.930 . S
C658 C659 1.367 1_655 S
C658 C666 1.378 . S
C659 C658 1.367 1_455 S
C659 C667 1.433 . S
C660 H656 0.929 . S
C660 C662 1.378 . S
C660 C664 1.350 1_455 S
C661 C664 1.463 1_464 S
C661 C666 1.350 1_455 S
C661 N669 1.427 1_554 S
C662 H653 0.930 . S
C662 C660 1.378 . S
C662 C663 1.367 1_455 S
C663 C662 1.367 1_655 S
C663 C665 1.433 . S
C664 C660 1.350 1_655 S
C664 C661 1.463 1_646 S
C664 N668 1.427 1_556 S
C665 H655 0.929 1_556 S
C665 C663 1.433 . S
C665 N668 1.384 1_556 S
C666 H657 0.929 . S
C666 C658 1.378 . S
C666 C661 1.350 1_655 S
C667 H654 0.929 1_554 S
C667 C659 1.433 . S
C667 N669 1.384 1_554 S
N668 C664 1.427 1_554 S
N668 C665 1.384 1_554 S
N669 C661 1.427 1_556 S
N669 C667 1.384 1_556 S
H670 C676 0.930 . S
H671 C680 0.930 . S
H672 C685 0.929 . S
H673 C683 0.929 . S
H674 C678 0.929 . S
H675 C684 0.929 . S
C676 H670 0.930 . S
C676 C677 1.367 . S
C676 C684 1.378 . S
C677 C676 1.367 . S
C677 C685 1.433 1_565 S
C678 H674 0.929 . S
C678 C680 1.378 . S
C678 C682 1.350 . S
C679 C682 1.463 1_565 S
C679 C684 1.350 . S
C679 N687 1.427 1_565 S
C680 H671 0.930 . S
C680 C678 1.378 . S
C680 C681 1.367 . S
C681 C680 1.367 . S
C681 C683 1.433 1_545 S
C682 C678 1.350 . S
C682 C679 1.463 1_545 S
C682 N686 1.427 1_545 S
C683 H673 0.929 . S
C683 C681 1.433 1_565 S
C683 N686 1.384 . S
C684 H675 0.929 . S
C684 C676 1.378 . S
C684 C679 1.350 . S
C685 H672 0.929 . S
C685 C677 1.433 1_545 S
C685 N687 1.384 . S
N686 C682 1.427 1_565 S
N686 C683 1.384 . S
N687 C679 1.427 1_545 S
N687 C685 1.384 . S
H688 C694 0.930 . S
H689 C698 0.930 . S
H690 C703 0.929 . S
H691 C701 0.929 . S
H692 C696 0.929 . S
H693 C702 0.929 . S
C694 H688 0.930 . S
C694 C695 1.367 . S
C694 C702 1.378 . S
C695 C694 1.367 . S
C695 C703 1.433 1_554 S
C696 H692 0.929 . S
C696 C698 1.378 . S
C696 C700 1.350 . S
C697 C700 1.463 1_554 S
C697 C702 1.350 . S
C697 N705 1.427 1_554 S
C698 H689 0.930 . S
C698 C696 1.378 . S
C698 C699 1.367 . S
C699 C698 1.367 . S
C699 C701 1.433 1_556 S
C700 C696 1.350 . S
C700 C697 1.463 1_556 S
C700 N704 1.427 1_556 S
C701 H691 0.929 . S
C701 C699 1.433 1_554 S
C701 N704 1.384 . S
C702 H693 0.929 . S
C702 C694 1.378 . S
C702 C697 1.350 . S
C703 H690 0.929 . S
C703 C695 1.433 1_556 S
C703 N705 1.384 . S
N704 C700 1.427 1_554 S
N704 C701 1.384 . S
N705 C697 1.427 1_556 S
N705 C703 1.384 . S
H706 C712 0.930 . S
H707 C716 0.930 . S
H708 C721 0.929 . S
H709 C719 0.929 . S
H710 C714 0.929 . S
H711 C720 0.929 . S
C712 H706 0.930 . S
C712 C713 1.367 . S
C712 C720 1.378 . S
C713 C712 1.367 . S
C713 C721 1.433 . S
C714 H710 0.929 . S
C714 C716 1.378 . S
C714 C718 1.350 . S
C715 C718 1.463 . S
C715 C720 1.350 . S
C715 N723 1.427 . S
C716 H707 0.930 . S
C716 C714 1.378 . S
C716 C717 1.367 . S
C717 C716 1.367 . S
C717 C719 1.433 . S
C718 C714 1.350 . S
C718 C715 1.463 . S
C718 N722 1.427 . S
C719 H709 0.929 . S
C719 C717 1.433 . S
C719 N722 1.384 . S
C720 H711 0.929 . S
C720 C712 1.378 . S
C720 C715 1.350 . S
C721 H708 0.929 . S
C721 C713 1.433 . S
C721 N723 1.384 . S
N722 C718 1.427 . S
N722 C719 1.384 . S
N723 C715 1.427 . S
N723 C721 1.384 . S
H724 C730 0.930 1_556 S
H725 C734 0.930 1_554 S
H726 C739 0.929 . S
H727 C737 0.929 . S
H728 C732 0.929 . S
H729 C738 0.929 . S
C730 H724 0.930 1_554 S
C730 C731 1.367 1_455 S
C730 C738 1.378 1_554 S
C731 C730 1.367 1_655 S
C731 C739 1.433 . S
C732 H728 0.929 . S
C732 C734 1.378 1_554 S
C732 C736 1.350 1_554 S
C733 C736 1.463 1_554 S
C733 C738 1.350 1_654 S
C733 N741 1.427 . S
C734 H725 0.930 1_556 S
C734 C732 1.378 1_556 S
C734 C735 1.367 . S
C735 C734 1.367 . S
C735 C737 1.433 1_655 S
C736 C732 1.350 1_556 S
C736 C733 1.463 1_556 S
C736 N740 1.427 1_655 S
C737 H727 0.929 . S
C737 C735 1.433 1_455 S
C737 N740 1.384 . S
C738 H729 0.929 . S
C738 C730 1.378 1_556 S
C738 C733 1.350 1_456 S
C739 H726 0.929 . S
C739 C731 1.433 . S
C739 N741 1.384 . S
N740 C736 1.427 1_455 S
N740 C737 1.384 . S
N741 C733 1.427 . S
N741 C739 1.384 . S
H742 C748 0.930 . S
H743 C752 0.930 . S
H744 C757 0.929 . S
H745 C755 0.929 . S
H746 C750 0.929 . S
H747 C756 0.929 . S
C748 H742 0.930 . S
C748 C749 1.367 . S
C748 C756 1.378 . S
C749 C748 1.367 . S
C749 C757 1.433 . S
C750 H746 0.929 . S
C750 C752 1.378 . S
C750 C754 1.350 . S
C751 C754 1.463 . S
C751 C756 1.350 . S
C751 N759 1.427 . S
C752 H743 0.930 . S
C752 C750 1.378 . S
C752 C753 1.367 . S
C753 C752 1.367 . S
C753 C755 1.433 . S
C754 C750 1.350 . S
C754 C751 1.463 . S
C754 N758 1.427 . S
C755 H745 0.929 . S
C755 C753 1.433 . S
C755 N758 1.384 . S
C756 H747 0.929 . S
C756 C748 1.378 . S
C756 C751 1.350 . S
C757 H744 0.929 . S
C757 C749 1.433 . S
C757 N759 1.384 . S
N758 C754 1.427 . S
N758 C755 1.384 . S
N759 C751 1.427 . S
N759 C757 1.384 . S
H760 C766 0.930 1_556 S
H761 C770 0.930 1_554 S
H762 C775 0.929 . S
H763 C773 0.929 . S
H764 C768 0.929 . S
H765 C774 0.929 . S
C766 H760 0.930 1_554 S
C766 C767 1.367 . S
C766 C774 1.378 1_554 S
C767 C766 1.367 . S
C767 C775 1.433 . S
C768 H764 0.929 . S
C768 C770 1.378 1_554 S
C768 C772 1.350 1_554 S
C769 C772 1.463 1_554 S
C769 C774 1.350 1_554 S
C769 N777 1.427 . S
C770 H761 0.930 1_556 S
C770 C768 1.378 1_556 S
C770 C771 1.367 . S
C771 C770 1.367 . S
C771 C773 1.433 . S
C772 C768 1.350 1_556 S
C772 C769 1.463 1_556 S
C772 N776 1.427 . S
C773 H763 0.929 . S
C773 C771 1.433 . S
C773 N776 1.384 . S
C774 H765 0.929 . S
C774 C766 1.378 1_556 S
C774 C769 1.350 1_556 S
C775 H762 0.929 . S
C775 C767 1.433 . S
C775 N777 1.384 . S
N776 C772 1.427 . S
N776 C773 1.384 . S
N777 C769 1.427 . S
N777 C775 1.384 . S
H778 C784 0.930 . S
H779 C788 0.930 . S
H780 C793 0.929 . S
H781 C791 0.929 . S
H782 C786 0.929 . S
H783 C792 0.929 . S
C784 H778 0.930 . S
C784 C785 1.367 . S
C784 C792 1.378 . S
C785 C784 1.367 . S
C785 C793 1.433 . S
C786 H782 0.929 . S
C786 C788 1.378 . S
C786 C790 1.350 . S
C787 C790 1.463 . S
C787 C792 1.350 . S
C787 N795 1.427 . S
C788 H779 0.930 . S
C788 C786 1.378 . S
C788 C789 1.367 . S
C789 C788 1.367 . S
C789 C791 1.433 . S
C790 C786 1.350 . S
C790 C787 1.463 . S
C790 N794 1.427 . S
C791 H781 0.929 . S
C791 C789 1.433 . S
C791 N794 1.384 . S
C792 H783 0.929 . S
C792 C784 1.378 . S
C792 C787 1.350 . S
C793 H780 0.929 . S
C793 C785 1.433 . S
C793 N795 1.384 . S
N794 C790 1.427 . S
N794 C791 1.384 . S
N795 C787 1.427 . S
N795 C793 1.384 . S
H796 C802 0.930 1_655 S
H797 C806 0.930 . S
H798 C811 0.929 . S
H799 C809 0.906 1_655 S
H800 C804 0.929 . S
H801 C810 0.929 1_655 S
C802 H796 0.930 1_455 S
C802 C803 1.367 . S
C802 C810 1.378 . S
C803 C802 1.367 . S
C803 C811 1.433 1_554 S
C804 H800 0.929 . S
C804 C806 1.378 . S
C804 C808 1.350 . S
C805 C808 1.463 1_554 S
C805 C810 1.350 . S
C805 N813 1.427 1_554 S
C806 H797 0.930 . S
C806 C804 1.378 . S
C806 C807 1.367 . S
C807 C806 1.367 . S
C807 C809 1.459 1_556 S
C808 C804 1.350 . S
C808 C805 1.463 1_556 S
C808 N812 1.427 1_556 S
C809 H799 0.906 1_455 S
C809 C807 1.459 1_554 S
C809 N812 1.385 . S
C810 H801 0.929 1_455 S
C810 C802 1.378 . S
C810 C805 1.350 . S
C811 H798 0.929 . S
C811 C803 1.433 1_556 S
C811 N813 1.384 . S
N812 C808 1.427 1_554 S
N812 C809 1.385 . S
N813 C805 1.427 1_556 S
N813 C811 1.384 . S
H814 C820 0.930 1_565 S
H815 C824 0.930 . S
H816 C829 0.929 . S
H817 C827 0.929 1_565 S
H818 C822 0.929 . S
H819 C828 0.929 1_565 S
C820 H814 0.930 1_545 S
C820 C821 1.367 . S
C820 C828 1.378 . S
C821 C820 1.367 . S
C821 C829 1.433 . S
C822 H818 0.929 . S
C822 C824 1.378 . S
C822 C826 1.350 . S
C823 C826 1.463 . S
C823 C828 1.350 . S
C823 N831 1.427 . S
C824 H815 0.930 . S
C824 C822 1.378 . S
C824 C825 1.367 . S
C825 C824 1.367 . S
C825 C827 1.433 . S
C826 C822 1.350 . S
C826 C823 1.463 . S
C826 N830 1.427 . S
C827 H817 0.929 1_545 S
C827 C825 1.433 . S
C827 N830 1.384 . S
C828 H819 0.929 1_545 S
C828 C820 1.378 . S
C828 C823 1.350 . S
C829 H816 0.929 . S
C829 C821 1.433 . S
C829 N831 1.384 . S
N830 C826 1.427 . S
N830 C827 1.384 . S
N831 C823 1.427 . S
N831 C829 1.384 . S
H832 C838 0.930 . S
H833 C842 0.930 . S
H834 C847 0.929 . S
H835 C845 0.929 . S
H836 C840 0.929 . S
H837 C846 0.929 . S
C838 H832 0.930 . S
C838 C839 1.367 . S
C838 C846 1.378 . S
C839 C838 1.367 . S
C839 C847 1.433 . S
C840 H836 0.929 . S
C840 C842 1.378 . S
C840 C844 1.350 . S
C841 C844 1.463 . S
C841 C846 1.350 . S
C841 N849 1.427 . S
C842 H833 0.930 . S
C842 C840 1.378 . S
C842 C843 1.367 . S
C843 C842 1.367 . S
C843 C845 1.433 . S
C844 C840 1.350 . S
C844 C841 1.463 . S
C844 N848 1.427 . S
C845 H835 0.929 . S
C845 C843 1.433 . S
C845 N848 1.384 . S
C846 H837 0.929 . S
C846 C838 1.378 . S
C846 C841 1.350 . S
C847 H834 0.929 . S
C847 C839 1.433 . S
C847 N849 1.384 . S
N848 C844 1.427 . S
N848 C845 1.384 . S
N849 C841 1.427 . S
N849 C847 1.384 . S
H850 C856 0.930 . S
H851 C860 0.930 . S
H852 C865 0.929 . S
H853 C863 0.929 . S
H854 C858 0.929 . S
H855 C864 0.929 . S
C856 H850 0.930 . S
C856 C857 1.367 . S
C856 C864 1.378 . S
C857 C856 1.367 . S
C857 C865 1.433 . S
C858 H854 0.929 . S
C858 C860 1.378 . S
C858 C862 1.350 . S
C859 C862 1.463 . S
C859 C864 1.350 . S
C859 N867 1.427 . S
C860 H851 0.930 . S
C860 C858 1.378 . S
C860 C861 1.367 . S
C861 C860 1.367 . S
C861 C863 1.433 . S
C862 C858 1.350 . S
C862 C859 1.463 . S
C862 N866 1.427 . S
C863 H853 0.929 . S
C863 C861 1.433 . S
C863 N866 1.384 . S
C864 H855 0.929 . S
C864 C856 1.378 . S
C864 C859 1.350 . S
C865 H852 0.929 . S
C865 C857 1.433 . S
C865 N867 1.384 . S
N866 C862 1.427 . S
N866 C863 1.384 . S
N867 C859 1.427 . S
N867 C865 1.384 . S
H868 C874 0.930 . S
H869 C878 0.930 . S
H870 C883 0.929 . S
H871 C881 0.929 . S
H872 C876 0.929 . S
H873 C882 0.929 . S
C874 H868 0.930 . S
C874 C875 1.367 . S
C874 C882 1.378 . S
C875 C874 1.367 . S
C875 C883 1.433 . S
C876 H872 0.929 . S
C876 C878 1.378 . S
C876 C880 1.350 . S
C877 C880 1.463 . S
C877 C882 1.350 . S
C877 N885 1.427 . S
C878 H869 0.930 . S
C878 C876 1.378 . S
C878 C879 1.367 . S
C879 C878 1.367 . S
C879 C881 1.433 . S
C880 C876 1.350 . S
C880 C877 1.463 . S
C880 N884 1.427 . S
C881 H871 0.929 . S
C881 C879 1.433 . S
C881 N884 1.384 . S
C882 H873 0.929 . S
C882 C874 1.378 . S
C882 C877 1.350 . S
C883 H870 0.929 . S
C883 C875 1.433 . S
C883 N885 1.384 . S
N884 C880 1.427 . S
N884 C881 1.384 . S
N885 C877 1.427 . S
N885 C883 1.384 . S
H886 C892 0.930 . S
H887 C896 0.930 . S
H888 C901 0.929 . S
H889 C899 0.929 . S
H890 C894 0.929 . S
H891 C900 0.929 . S
C892 H886 0.930 . S
C892 C893 1.367 . S
C892 C900 1.378 . S
C893 C892 1.367 . S
C893 C901 1.433 . S
C894 H890 0.929 . S
C894 C896 1.378 . S
C894 C898 1.350 . S
C895 C898 1.463 . S
C895 C900 1.350 . S
C895 N903 1.427 . S
C896 H887 0.930 . S
C896 C894 1.378 . S
C896 C897 1.367 . S
C897 C896 1.367 . S
C897 C899 1.433 . S
C898 C894 1.350 . S
C898 C895 1.463 . S
C898 N902 1.427 . S
C899 H889 0.929 . S
C899 C897 1.433 . S
C899 N902 1.384 . S
C900 H891 0.929 . S
C900 C892 1.378 . S
C900 C895 1.350 . S
C901 H888 0.929 . S
C901 C893 1.433 . S
C901 N903 1.384 . S
N902 C898 1.427 . S
N902 C899 1.384 . S
N903 C895 1.427 . S
N903 C901 1.384 . S
H904 C910 0.930 . S
H905 C914 0.930 . S
H906 C919 0.929 . S
H907 C917 0.929 . S
H908 C912 0.929 . S
H909 C918 0.929 . S
C910 H904 0.930 . S
C910 C911 1.367 . S
C910 C918 1.378 . S
C911 C910 1.367 . S
C911 C919 1.433 . S
C912 H908 0.929 . S
C912 C914 1.378 . S
C912 C916 1.350 . S
C913 C916 1.463 . S
C913 C918 1.350 . S
C913 N921 1.427 . S
C914 H905 0.930 . S
C914 C912 1.378 . S
C914 C915 1.367 . S
C915 C914 1.367 . S
C915 C917 1.433 . S
C916 C912 1.350 . S
C916 C913 1.463 . S
C916 N920 1.427 . S
C917 H907 0.929 . S
C917 C915 1.433 . S
C917 N920 1.384 . S
C918 H909 0.929 . S
C918 C910 1.378 . S
C918 C913 1.350 . S
C919 H906 0.929 . S
C919 C911 1.433 . S
C919 N921 1.384 . S
N920 C916 1.427 . S
N920 C917 1.384 . S
N921 C913 1.427 . S
N921 C919 1.384 . S
H922 C928 0.930 . S
H923 C932 0.930 . S
H924 C937 0.929 . S
H925 C935 0.929 . S
H926 C930 0.929 . S
H927 C936 0.929 . S
C928 H922 0.930 . S
C928 C929 1.367 . S
C928 C936 1.378 . S
C929 C928 1.367 . S
C929 C937 1.433 . S
C930 H926 0.929 . S
C930 C932 1.378 . S
C930 C934 1.350 . S
C931 C934 1.463 . S
C931 C936 1.350 . S
C931 N939 1.427 . S
C932 H923 0.930 . S
C932 C930 1.378 . S
C932 C933 1.367 . S
C933 C932 1.367 . S
C933 C935 1.433 . S
C934 C930 1.350 . S
C934 C931 1.463 . S
C934 N938 1.427 . S
C935 H925 0.929 . S
C935 C933 1.433 . S
C935 N938 1.384 . S
C936 H927 0.929 . S
C936 C928 1.378 . S
C936 C931 1.350 . S
C937 H924 0.929 . S
C937 C929 1.433 . S
C937 N939 1.384 . S
N938 C934 1.427 . S
N938 C935 1.384 . S
N939 C931 1.427 . S
N939 C937 1.384 . S
H940 C946 0.930 . S
H941 C950 0.930 . S
H942 C955 0.929 . S
H943 C953 0.929 . S
H944 C948 0.929 . S
H945 C954 0.929 . S
C946 H940 0.930 . S
C946 C947 1.367 . S
C946 C954 1.378 . S
C947 C946 1.367 . S
C947 C955 1.433 . S
C948 H944 0.929 . S
C948 C950 1.378 . S
C948 C952 1.350 . S
C949 C952 1.463 . S
C949 C954 1.350 . S
C949 N957 1.427 . S
C950 H941 0.930 . S
C950 C948 1.378 . S
C950 C951 1.367 . S
C951 C950 1.367 . S
C951 C953 1.433 . S
C952 C948 1.350 . S
C952 C949 1.463 . S
C952 N956 1.427 . S
C953 H943 0.929 . S
C953 C951 1.433 . S
C953 N956 1.384 . S
C954 H945 0.929 . S
C954 C946 1.378 . S
C954 C949 1.350 . S
C955 H942 0.929 . S
C955 C947 1.433 . S
C955 N957 1.384 . S
N956 C952 1.427 . S
N956 C953 1.384 . S
N957 C949 1.427 . S
N957 C955 1.384 . S
H958 C964 0.930 . S
H959 C968 0.930 . S
H960 C973 0.929 . S
H961 C971 0.929 . S
H962 C966 0.929 . S
H963 C972 0.929 . S
C964 H958 0.930 . S
C964 C965 1.367 . S
C964 C972 1.378 . S
C965 C964 1.367 . S
C965 C973 1.433 . S
C966 H962 0.929 . S
C966 C968 1.378 . S
C966 C970 1.350 . S
C967 C970 1.463 . S
C967 C972 1.350 . S
C967 N975 1.427 . S
C968 H959 0.930 . S
C968 C966 1.378 . S
C968 C969 1.367 . S
C969 C968 1.367 . S
C969 C971 1.433 . S
C970 C966 1.350 . S
C970 C967 1.463 . S
C970 N974 1.427 . S
C971 H961 0.929 . S
C971 C969 1.433 . S
C971 N974 1.384 . S
C972 H963 0.929 . S
C972 C964 1.378 . S
C972 C967 1.350 . S
C973 H960 0.929 . S
C973 C965 1.433 . S
C973 N975 1.384 . S
N974 C970 1.427 . S
N974 C971 1.384 . S
N975 C967 1.427 . S
N975 C973 1.384 . S
H976 C982 0.930 . S
H977 C986 0.930 . S
H978 C991 0.929 . S
H979 C989 0.929 . S
H980 C984 0.929 . S
H981 C990 0.929 . S
C982 H976 0.930 . S
C982 C983 1.367 . S
C982 C990 1.378 . S
C983 C982 1.367 . S
C983 C991 1.433 . S
C984 H980 0.929 . S
C984 C986 1.378 . S
C984 C988 1.350 . S
C985 C988 1.463 . S
C985 C990 1.350 . S
C985 N993 1.427 . S
C986 H977 0.930 . S
C986 C984 1.378 . S
C986 C987 1.367 . S
C987 C986 1.367 . S
C987 C989 1.433 . S
C988 C984 1.350 . S
C988 C985 1.463 . S
C988 N992 1.427 . S
C989 H979 0.929 . S
C989 C987 1.433 . S
C989 N992 1.384 . S
C990 H981 0.929 . S
C990 C982 1.378 . S
C990 C985 1.350 . S
C991 H978 0.929 . S
C991 C983 1.433 . S
C991 N993 1.384 . S
N992 C988 1.427 . S
N992 C989 1.384 . S
N993 C985 1.427 . S
N993 C991 1.384 . S
H994 C1000 0.930 . S
H995 C1004 0.930 . S
H996 C1009 0.929 . S
H997 C1007 0.929 . S
H998 C1002 0.929 . S
H999 C1008 0.929 . S
C1000 H994 0.930 . S
C1000 C1001 1.367 . S
C1000 C1008 1.378 . S
C1001 C1000 1.367 . S
C1001 C1009 1.433 . S
C1002 H998 0.929 . S
C1002 C1004 1.378 . S
C1002 C1006 1.350 . S
C1003 C1006 1.463 . S
C1003 C1008 1.350 . S
C1003 N1011 1.427 . S
C1004 H995 0.930 . S
C1004 C1002 1.378 . S
C1004 C1005 1.367 . S
C1005 C1004 1.367 . S
C1005 C1007 1.433 . S
C1006 C1002 1.350 . S
C1006 C1003 1.463 . S
C1006 N1010 1.427 . S
C1007 H997 0.929 . S
C1007 C1005 1.433 . S
C1007 N1010 1.384 . S
C1008 H999 0.929 . S
C1008 C1000 1.378 . S
C1008 C1003 1.350 . S
C1009 H996 0.929 . S
C1009 C1001 1.433 . S
C1009 N1011 1.384 . S
N1010 C1006 1.427 . S
N1010 C1007 1.384 . S
N1011 C1003 1.427 . S
N1011 C1009 1.384 . S
H1012 C1018 0.930 . S
H1013 C1022 0.930 . S
H1014 C1027 0.929 . S
H1015 C1025 0.929 . S
H1016 C1020 0.929 . S
H1017 C1026 0.929 . S
C1018 H1012 0.930 . S
C1018 C1019 1.367 . S
C1018 C1026 1.378 . S
C1019 C1018 1.367 . S
C1019 C1027 1.433 . S
C1020 H1016 0.929 . S
C1020 C1022 1.378 . S
C1020 C1024 1.350 . S
C1021 C1024 1.463 . S
C1021 C1026 1.350 . S
C1021 N1029 1.427 . S
C1022 H1013 0.930 . S
C1022 C1020 1.378 . S
C1022 C1023 1.367 . S
C1023 C1022 1.367 . S
C1023 C1025 1.433 . S
C1024 C1020 1.350 . S
C1024 C1021 1.463 . S
C1024 N1028 1.427 . S
C1025 H1015 0.929 . S
C1025 C1023 1.433 . S
C1025 N1028 1.384 . S
C1026 H1017 0.929 . S
C1026 C1018 1.378 . S
C1026 C1021 1.350 . S
C1027 H1014 0.929 . S
C1027 C1019 1.433 . S
C1027 N1029 1.384 . S
N1028 C1024 1.427 . S
N1028 C1025 1.384 . S
N1029 C1021 1.427 . S
N1029 C1027 1.384 . S
H1030 C1036 0.930 . S
H1031 C1040 0.930 . S
H1032 C1045 0.929 . S
H1033 C1043 0.929 . S
H1034 C1038 0.929 . S
H1035 C1044 0.929 . S
C1036 H1030 0.930 . S
C1036 C1037 1.367 . S
C1036 C1044 1.378 . S
C1037 C1036 1.367 . S
C1037 C1045 1.433 . S
C1038 H1034 0.929 . S
C1038 C1040 1.378 . S
C1038 C1042 1.350 . S
C1039 C1042 1.463 . S
C1039 C1044 1.350 . S
C1039 N1047 1.427 . S
C1040 H1031 0.930 . S
C1040 C1038 1.378 . S
C1040 C1041 1.367 . S
C1041 C1040 1.367 . S
C1041 C1043 1.433 . S
C1042 C1038 1.350 . S
C1042 C1039 1.463 . S
C1042 N1046 1.427 . S
C1043 H1033 0.929 . S
C1043 C1041 1.433 . S
C1043 N1046 1.384 . S
C1044 H1035 0.929 . S
C1044 C1036 1.378 . S
C1044 C1039 1.350 . S
C1045 H1032 0.929 . S
C1045 C1037 1.433 . S
C1045 N1047 1.384 . S
N1046 C1042 1.427 . S
N1046 C1043 1.384 . S
N1047 C1039 1.427 . S
N1047 C1045 1.384 . S
H1048 C1054 0.930 . S
H1049 C1058 0.930 . S
H1050 C1063 0.929 . S
H1051 C1061 0.929 . S
H1052 C1056 0.929 . S
H1053 C1062 0.929 . S
C1054 H1048 0.930 . S
C1054 C1055 1.367 . S
C1054 C1062 1.378 . S
C1055 C1054 1.367 . S
C1055 C1063 1.433 . S
C1056 H1052 0.929 . S
C1056 C1058 1.378 . S
C1056 C1060 1.350 . S
C1057 C1060 1.463 . S
C1057 C1062 1.350 . S
C1057 N1065 1.427 . S
C1058 H1049 0.930 . S
C1058 C1056 1.378 . S
C1058 C1059 1.367 . S
C1059 C1058 1.367 . S
C1059 C1061 1.433 . S
C1060 C1056 1.350 . S
C1060 C1057 1.463 . S
C1060 N1064 1.427 . S
C1061 H1051 0.929 . S
C1061 C1059 1.433 . S
C1061 N1064 1.384 . S
C1062 H1053 0.929 . S
C1062 C1054 1.378 . S
C1062 C1057 1.350 . S
C1063 H1050 0.929 . S
C1063 C1055 1.433 . S
C1063 N1065 1.384 . S
N1064 C1060 1.427 . S
N1064 C1061 1.384 . S
N1065 C1057 1.427 . S
N1065 C1063 1.384 . S
H1066 C1072 0.930 . S
H1067 C1076 0.930 . S
H1068 C1081 0.929 . S
H1069 C1079 0.929 . S
H1070 C1074 0.929 . S
H1071 C1080 0.929 . S
C1072 H1066 0.930 . S
C1072 C1073 1.367 . S
C1072 C1080 1.378 . S
C1073 C1072 1.367 . S
C1073 C1081 1.433 . S
C1074 H1070 0.929 . S
C1074 C1076 1.378 . S
C1074 C1078 1.350 . S
C1075 C1078 1.463 . S
C1075 C1080 1.350 . S
C1075 N1083 1.427 . S
C1076 H1067 0.930 . S
C1076 C1074 1.378 . S
C1076 C1077 1.367 . S
C1077 C1076 1.367 . S
C1077 C1079 1.433 . S
C1078 C1074 1.350 . S
C1078 C1075 1.463 . S
C1078 N1082 1.427 . S
C1079 H1069 0.929 . S
C1079 C1077 1.433 . S
C1079 N1082 1.384 . S
C1080 H1071 0.929 . S
C1080 C1072 1.378 . S
C1080 C1075 1.350 . S
C1081 H1068 0.929 . S
C1081 C1073 1.433 . S
C1081 N1083 1.384 . S
N1082 C1078 1.427 . S
N1082 C1079 1.384 . S
N1083 C1075 1.427 . S
N1083 C1081 1.384 . S
H1084 C1090 0.930 . S
H1085 C1094 0.930 . S
H1086 C1099 0.929 . S
H1087 C1097 0.929 . S
H1088 C1092 0.929 . S
H1089 C1098 0.929 . S
C1090 H1084 0.930 . S
C1090 C1091 1.367 . S
C1090 C1098 1.378 . S
C1091 C1090 1.367 . S
C1091 C1099 1.433 . S
C1092 H1088 0.929 . S
C1092 C1094 1.378 . S
C1092 C1096 1.350 . S
C1093 C1096 1.463 . S
C1093 C1098 1.350 . S
C1093 N1101 1.427 . S
C1094 H1085 0.930 . S
C1094 C1092 1.378 . S
C1094 C1095 1.367 . S
C1095 C1094 1.367 . S
C1095 C1097 1.433 . S
C1096 C1092 1.350 . S
C1096 C1093 1.463 . S
C1096 N1100 1.427 . S
C1097 H1087 0.929 . S
C1097 C1095 1.433 . S
C1097 N1100 1.384 . S
C1098 H1089 0.929 . S
C1098 C1090 1.378 . S
C1098 C1093 1.350 . S
C1099 H1086 0.929 . S
C1099 C1091 1.433 . S
C1099 N1101 1.384 . S
N1100 C1096 1.427 . S
N1100 C1097 1.384 . S
N1101 C1093 1.427 . S
N1101 C1099 1.384 . S
H1102 C1108 0.930 . S
H1103 C1112 0.930 . S
H1104 C1117 0.929 . S
H1105 C1115 0.929 . S
H1106 C1110 0.929 . S
H1107 C1116 0.929 . S
C1108 H1102 0.930 . S
C1108 C1109 1.367 . S
C1108 C1116 1.378 . S
C1109 C1108 1.367 . S
C1109 C1117 1.433 . S
C1110 H1106 0.929 . S
C1110 C1112 1.378 . S
C1110 C1114 1.350 . S
C1111 C1114 1.463 . S
C1111 C1116 1.350 . S
C1111 N1119 1.427 . S
C1112 H1103 0.930 . S
C1112 C1110 1.378 . S
C1112 C1113 1.367 . S
C1113 C1112 1.367 . S
C1113 C1115 1.433 . S
C1114 C1110 1.350 . S
C1114 C1111 1.463 . S
C1114 N1118 1.427 . S
C1115 H1105 0.929 . S
C1115 C1113 1.433 . S
C1115 N1118 1.384 . S
C1116 H1107 0.929 . S
C1116 C1108 1.378 . S
C1116 C1111 1.350 . S
C1117 H1104 0.929 . S
C1117 C1109 1.433 . S
C1117 N1119 1.384 . S
N1118 C1114 1.427 . S
N1118 C1115 1.384 . S
N1119 C1111 1.427 . S
N1119 C1117 1.384 . S
H1120 C1126 0.930 . S
H1121 C1130 0.930 . S
H1122 C1135 0.929 . S
H1123 C1133 0.929 . S
H1124 C1128 0.929 . S
H1125 C1134 0.929 . S
C1126 H1120 0.930 . S
C1126 C1127 1.367 . S
C1126 C1134 1.378 . S
C1127 C1126 1.367 . S
C1127 C1135 1.433 . S
C1128 H1124 0.929 . S
C1128 C1130 1.378 . S
C1128 C1132 1.350 . S
C1129 C1132 1.463 . S
C1129 C1134 1.350 . S
C1129 N1137 1.427 . S
C1130 H1121 0.930 . S
C1130 C1128 1.378 . S
C1130 C1131 1.367 . S
C1131 C1130 1.367 . S
C1131 C1133 1.433 . S
C1132 C1128 1.350 . S
C1132 C1129 1.463 . S
C1132 N1136 1.427 . S
C1133 H1123 0.929 . S
C1133 C1131 1.433 . S
C1133 N1136 1.384 . S
C1134 H1125 0.929 . S
C1134 C1126 1.378 . S
C1134 C1129 1.350 . S
C1135 H1122 0.929 . S
C1135 C1127 1.433 . S
C1135 N1137 1.384 . S
N1136 C1132 1.427 . S
N1136 C1133 1.384 . S
N1137 C1129 1.427 . S
N1137 C1135 1.384 . S
H1138 C1144 0.930 . S
H1139 C1148 0.930 . S
H1140 C1153 0.929 . S
H1141 C1151 0.929 . S
H1142 C1146 0.929 . S
H1143 C1152 0.929 . S
C1144 H1138 0.930 . S
C1144 C1145 1.367 . S
C1144 C1152 1.378 . S
C1145 C1144 1.367 . S
C1145 C1153 1.433 . S
C1146 H1142 0.929 . S
C1146 C1148 1.378 . S
C1146 C1150 1.350 . S
C1147 C1150 1.463 . S
C1147 C1152 1.350 . S
C1147 N1155 1.427 . S
C1148 H1139 0.930 . S
C1148 C1146 1.378 . S
C1148 C1149 1.367 . S
C1149 C1148 1.367 . S
C1149 C1151 1.433 . S
C1150 C1146 1.350 . S
C1150 C1147 1.463 . S
C1150 N1154 1.427 . S
C1151 H1141 0.929 . S
C1151 C1149 1.433 . S
C1151 N1154 1.384 . S
C1152 H1143 0.929 . S
C1152 C1144 1.378 . S
C1152 C1147 1.350 . S
C1153 H1140 0.929 . S
C1153 C1145 1.433 . S
C1153 N1155 1.384 . S
N1154 C1150 1.427 . S
N1154 C1151 1.384 . S
N1155 C1147 1.427 . S
N1155 C1153 1.384 . S
H1156 C1162 0.930 . S
H1157 C1166 0.930 . S
H1158 C1171 0.929 . S
H1159 C1169 0.929 . S
H1160 C1164 0.929 . S
H1161 C1170 0.929 . S
C1162 H1156 0.930 . S
C1162 C1163 1.367 . S
C1162 C1170 1.378 . S
C1163 C1162 1.367 . S
C1163 C1171 1.433 . S
C1164 H1160 0.929 . S
C1164 C1166 1.378 . S
C1164 C1168 1.350 . S
C1165 C1168 1.463 . S
C1165 C1170 1.350 . S
C1165 N1173 1.427 . S
C1166 H1157 0.930 . S
C1166 C1164 1.378 . S
C1166 C1167 1.367 . S
C1167 C1166 1.367 . S
C1167 C1169 1.433 . S
C1168 C1164 1.350 . S
C1168 C1165 1.463 . S
C1168 N1172 1.427 . S
C1169 H1159 0.929 . S
C1169 C1167 1.433 . S
C1169 N1172 1.384 . S
C1170 H1161 0.929 . S
C1170 C1162 1.378 . S
C1170 C1165 1.350 . S
C1171 H1158 0.929 . S
C1171 C1163 1.433 . S
C1171 N1173 1.384 . S
N1172 C1168 1.427 . S
N1172 C1169 1.384 . S
N1173 C1165 1.427 . S
N1173 C1171 1.384 . S
H1174 C1180 0.930 . S
H1175 C1184 0.930 . S
H1176 C1189 0.929 . S
H1177 C1187 0.929 . S
H1178 C1182 0.929 . S
H1179 C1188 0.929 . S
C1180 H1174 0.930 . S
C1180 C1181 1.367 . S
C1180 C1188 1.378 . S
C1181 C1180 1.367 . S
C1181 C1189 1.433 . S
C1182 H1178 0.929 . S
C1182 C1184 1.378 . S
C1182 C1186 1.350 . S
C1183 C1186 1.463 . S
C1183 C1188 1.350 . S
C1183 N1191 1.427 . S
C1184 H1175 0.930 . S
C1184 C1182 1.378 . S
C1184 C1185 1.367 . S
C1185 C1184 1.367 . S
C1185 C1187 1.433 . S
C1186 C1182 1.350 . S
C1186 C1183 1.463 . S
C1186 N1190 1.427 . S
C1187 H1177 0.929 . S
C1187 C1185 1.433 . S
C1187 N1190 1.384 . S
C1188 H1179 0.929 . S
C1188 C1180 1.378 . S
C1188 C1183 1.350 . S
C1189 H1176 0.929 . S
C1189 C1181 1.433 . S
C1189 N1191 1.384 . S
N1190 C1186 1.427 . S
N1190 C1187 1.384 . S
N1191 C1183 1.427 . S
N1191 C1189 1.384 . S
H1192 C1198 0.930 . S
H1193 C1202 0.930 . S
H1194 C1207 0.929 . S
H1195 C1205 0.929 . S
H1196 C1200 0.929 . S
H1197 C1206 0.929 . S
C1198 H1192 0.930 . S
C1198 C1199 1.367 . S
C1198 C1206 1.378 . S
C1199 C1198 1.367 . S
C1199 C1207 1.433 . S
C1200 H1196 0.929 . S
C1200 C1202 1.378 . S
C1200 C1204 1.350 . S
C1201 C1204 1.463 . S
C1201 C1206 1.350 . S
C1201 N1209 1.427 . S
C1202 H1193 0.930 . S
C1202 C1200 1.378 . S
C1202 C1203 1.367 . S
C1203 C1202 1.367 . S
C1203 C1205 1.433 . S
C1204 C1200 1.350 . S
C1204 C1201 1.463 . S
C1204 N1208 1.427 . S
C1205 H1195 0.929 . S
C1205 C1203 1.433 . S
C1205 N1208 1.384 . S
C1206 H1197 0.929 . S
C1206 C1198 1.378 . S
C1206 C1201 1.350 . S
C1207 H1194 0.929 . S
C1207 C1199 1.433 . S
C1207 N1209 1.384 . S
N1208 C1204 1.427 . S
N1208 C1205 1.384 . S
N1209 C1201 1.427 . S
N1209 C1207 1.384 . S
H1210 C1216 0.930 . S
H1211 C1220 0.930 . S
H1212 C1225 0.929 . S
H1213 C1223 0.929 . S
H1214 C1218 0.929 . S
H1215 C1224 0.929 . S
C1216 H1210 0.930 . S
C1216 C1217 1.367 . S
C1216 C1224 1.378 . S
C1217 C1216 1.367 . S
C1217 C1225 1.433 . S
C1218 H1214 0.929 . S
C1218 C1220 1.378 . S
C1218 C1222 1.350 . S
C1219 C1222 1.463 . S
C1219 C1224 1.350 . S
C1219 N1227 1.427 . S
C1220 H1211 0.930 . S
C1220 C1218 1.378 . S
C1220 C1221 1.367 . S
C1221 C1220 1.367 . S
C1221 C1223 1.433 . S
C1222 C1218 1.350 . S
C1222 C1219 1.463 . S
C1222 N1226 1.427 . S
C1223 H1213 0.929 . S
C1223 C1221 1.433 . S
C1223 N1226 1.384 . S
C1224 H1215 0.929 . S
C1224 C1216 1.378 . S
C1224 C1219 1.350 . S
C1225 H1212 0.929 . S
C1225 C1217 1.433 . S
C1225 N1227 1.384 . S
N1226 C1222 1.427 . S
N1226 C1223 1.384 . S
N1227 C1219 1.427 . S
N1227 C1225 1.384 . S
H1228 C1234 0.930 . S
H1229 C1238 0.930 . S
H1230 C1243 0.929 . S
H1231 C1241 0.929 . S
H1232 C1236 0.929 . S
H1233 C1242 0.929 . S
C1234 H1228 0.930 . S
C1234 C1235 1.367 . S
C1234 C1242 1.378 . S
C1235 C1234 1.367 . S
C1235 C1243 1.433 . S
C1236 H1232 0.929 . S
C1236 C1238 1.378 . S
C1236 C1240 1.350 . S
C1237 C1240 1.463 . S
C1237 C1242 1.350 . S
C1237 N1245 1.427 . S
C1238 H1229 0.930 . S
C1238 C1236 1.378 . S
C1238 C1239 1.367 . S
C1239 C1238 1.367 . S
C1239 C1241 1.433 . S
C1240 C1236 1.350 . S
C1240 C1237 1.463 . S
C1240 N1244 1.427 . S
C1241 H1231 0.929 . S
C1241 C1239 1.433 . S
C1241 N1244 1.384 . S
C1242 H1233 0.929 . S
C1242 C1234 1.378 . S
C1242 C1237 1.350 . S
C1243 H1230 0.929 . S
C1243 C1235 1.433 . S
C1243 N1245 1.384 . S
N1244 C1240 1.427 . S
N1244 C1241 1.384 . S
N1245 C1237 1.427 . S
N1245 C1243 1.384 . S
H1246 C1252 0.930 . S
H1247 C1256 0.930 . S
H1248 C1261 0.929 . S
H1249 C1259 0.929 . S
H1250 C1254 0.929 . S
H1251 C1260 0.929 . S
C1252 H1246 0.930 . S
C1252 C1253 1.367 . S
C1252 C1260 1.378 . S
C1253 C1252 1.367 . S
C1253 C1261 1.433 . S
C1254 H1250 0.929 . S
C1254 C1256 1.378 . S
C1254 C1258 1.350 . S
C1255 C1258 1.463 . S
C1255 C1260 1.350 . S
C1255 N1263 1.427 . S
C1256 H1247 0.930 . S
C1256 C1254 1.378 . S
C1256 C1257 1.367 . S
C1257 C1256 1.367 . S
C1257 C1259 1.433 . S
C1258 C1254 1.350 . S
C1258 C1255 1.463 . S
C1258 N1262 1.427 . S
C1259 H1249 0.929 . S
C1259 C1257 1.433 . S
C1259 N1262 1.384 . S
C1260 H1251 0.929 . S
C1260 C1252 1.378 . S
C1260 C1255 1.350 . S
C1261 H1248 0.929 . S
C1261 C1253 1.433 . S
C1261 N1263 1.384 . S
N1262 C1258 1.427 . S
N1262 C1259 1.384 . S
N1263 C1255 1.427 . S
N1263 C1261 1.384 . S
C551 C5 0.729 . S
C555 C277 0.729 . S
C569 C311 0.719 . S
C573 C39 0.719 . S
C587 C73 0.733 . S
C591 C345 0.733 . S
C605 C107 0.709 . S
C609 C379 0.709 . S
C623 C141 0.720 . S
C627 C413 0.720 . S
C641 C447 0.723 . S
C645 C175 0.723 . S
C659 C481 0.725 . S
C663 C209 0.725 . S
C677 C243 0.736 . S
C681 C515 0.736 . S
C695 C9 1.268 . S
C699 C145 1.277 . S
C713 C43 1.264 . S
C717 C179 1.280 . S
C731 C77 1.277 . S
C735 C213 1.265 . S
C749 C111 1.268 . S
C753 C247 1.273 . S
C767 C417 1.277 . S
C771 C281 1.264 . S
C785 C451 1.264 . S
C789 C315 1.280 . S
C803 C485 1.277 . S
C807 C349 1.267 . S
C821 C383 1.275 . S
C825 C519 1.266 . S
C839 C2 2.085 . S
C843 C240 2.098 . S
C857 C138 2.086 . S
C861 C36 2.096 . S
C875 C172 2.095 . S
C879 C70 2.087 . S
C893 C104 2.090 . S
C897 C206 2.093 . S
C911 C512 2.093 . S
C915 C274 2.088 . S
C929 C410 2.088 . S
C933 C308 2.095 . S
C947 C342 2.091 . S
C951 C444 2.092 . S
C965 C376 2.086 . S
C969 C478 2.097 . S
C983 C543 1.363 . S
C987 C20 1.317 . S
C1001 C54 1.313 . S
C1005 C441 1.365 . S
C1019 C88 1.311 . S
C1023 C475 1.370 . S
C1037 C509 1.365 . S
C1041 C122 1.324 . S
C1055 C156 1.324 . S
C1059 C339 1.362 . S
C1073 C190 1.310 . S
C1077 C373 1.367 . S
C1091 C407 1.364 . S
C1095 C224 1.325 . S
C1109 C258 1.317 . S
C1113 C305 1.363 . S
C1127 C292 1.321 . S
C1131 C271 1.367 . S
C1145 C169 1.364 . S
C1149 C326 1.316 . S
C1163 C360 1.324 . S
C1167 C203 1.362 . S
C1181 C237 1.367 . S
C1185 C394 1.320 . S
C1199 C428 1.326 . S
C1203 C67 1.363 . S
C1217 C101 1.366 . S
C1221 C462 1.311 . S
C1235 C135 1.370 . S
C1239 C496 1.310 . S
C1253 C33 1.362 . S
C1257 C530 1.325 . S
