# Generated by pormake.
# Topology uoe, (4)-cn, num edge types: 1
# Building blocks:
#     Node 0, Type 0, BuildingBlock: CEKHIL_clean_sbu_0, # of connection points: 4
#     Node 1, Type 0, BuildingBlock: CEKHIL_clean_sbu_0, # of connection points: 4
#     Node 2, Type 0, BuildingBlock: CEKHIL_clean_sbu_0, # of connection points: 4
#     Node 3, Type 0, BuildingBlock: CEKHIL_clean_sbu_0, # of connection points: 4
#     Node 4, Type 0, BuildingBlock: CEKHIL_clean_sbu_0, # of connection points: 4
#     Node 5, Type 0, BuildingBlock: CEKHIL_clean_sbu_0, # of connection points: 4
#     Node 6, Type 0, BuildingBlock: CEKHIL_clean_sbu_0, # of connection points: 4
#     Node 7, Type 0, BuildingBlock: CEKHIL_clean_sbu_0, # of connection points: 4
#     Node 8, Type 0, BuildingBlock: CEKHIL_clean_sbu_0, # of connection points: 4
#     Node 9, Type 0, BuildingBlock: CEKHIL_clean_sbu_0, # of connection points: 4
#     Node 10, Type 0, BuildingBlock: CEKHIL_clean_sbu_0, # of connection points: 4
#     Node 11, Type 0, BuildingBlock: CEKHIL_clean_sbu_0, # of connection points: 4
#     Node 12, Type 0, BuildingBlock: CEKHIL_clean_sbu_0, # of connection points: 4
#     Node 13, Type 0, BuildingBlock: CEKHIL_clean_sbu_0, # of connection points: 4
#     Node 14, Type 0, BuildingBlock: CEKHIL_clean_sbu_0, # of connection points: 4
#     Node 15, Type 0, BuildingBlock: CEKHIL_clean_sbu_0, # of connection points: 4
#     Node 16, Type 0, BuildingBlock: CEKHIL_clean_sbu_0, # of connection points: 4
#     Node 17, Type 0, BuildingBlock: CEKHIL_clean_sbu_0, # of connection points: 4
#     Node 18, Type 0, BuildingBlock: CEKHIL_clean_sbu_0, # of connection points: 4
#     Node 19, Type 0, BuildingBlock: CEKHIL_clean_sbu_0, # of connection points: 4
#     Node 20, Type 0, BuildingBlock: CEKHIL_clean_sbu_0, # of connection points: 4
#     Node 21, Type 0, BuildingBlock: CEKHIL_clean_sbu_0, # of connection points: 4
#     Node 22, Type 0, BuildingBlock: CEKHIL_clean_sbu_0, # of connection points: 4
#     Node 23, Type 0, BuildingBlock: CEKHIL_clean_sbu_0, # of connection points: 4
#     Node 24, Type 0, BuildingBlock: CEKHIL_clean_sbu_0, # of connection points: 4
#     Node 25, Type 0, BuildingBlock: CEKHIL_clean_sbu_0, # of connection points: 4
#     Node 26, Type 0, BuildingBlock: CEKHIL_clean_sbu_0, # of connection points: 4
#     Node 27, Type 0, BuildingBlock: CEKHIL_clean_sbu_0, # of connection points: 4
#     Node 28, Type 0, BuildingBlock: CEKHIL_clean_sbu_0, # of connection points: 4
#     Node 29, Type 0, BuildingBlock: CEKHIL_clean_sbu_0, # of connection points: 4
#     Node 30, Type 0, BuildingBlock: CEKHIL_clean_sbu_0, # of connection points: 4
#     Node 31, Type 0, BuildingBlock: CEKHIL_clean_sbu_0, # of connection points: 4
#     Edge 32, Type (0, 0), BuildingBlock: TEMPAE_clean_linker_10, # of connection points: 2
#     Edge 33, Type (0, 0), BuildingBlock: TEMPAE_clean_linker_10, # of connection points: 2
#     Edge 34, Type (0, 0), BuildingBlock: TEMPAE_clean_linker_10, # of connection points: 2
#     Edge 35, Type (0, 0), BuildingBlock: TEMPAE_clean_linker_10, # of connection points: 2
#     Edge 36, Type (0, 0), BuildingBlock: TEMPAE_clean_linker_10, # of connection points: 2
#     Edge 37, Type (0, 0), BuildingBlock: TEMPAE_clean_linker_10, # of connection points: 2
#     Edge 38, Type (0, 0), BuildingBlock: TEMPAE_clean_linker_10, # of connection points: 2
#     Edge 39, Type (0, 0), BuildingBlock: TEMPAE_clean_linker_10, # of connection points: 2
#     Edge 40, Type (0, 0), BuildingBlock: TEMPAE_clean_linker_10, # of connection points: 2
#     Edge 41, Type (0, 0), BuildingBlock: TEMPAE_clean_linker_10, # of connection points: 2
#     Edge 42, Type (0, 0), BuildingBlock: TEMPAE_clean_linker_10, # of connection points: 2
#     Edge 43, Type (0, 0), BuildingBlock: TEMPAE_clean_linker_10, # of connection points: 2
#     Edge 44, Type (0, 0), BuildingBlock: TEMPAE_clean_linker_10, # of connection points: 2
#     Edge 45, Type (0, 0), BuildingBlock: TEMPAE_clean_linker_10, # of connection points: 2
#     Edge 46, Type (0, 0), BuildingBlock: TEMPAE_clean_linker_10, # of connection points: 2
#     Edge 47, Type (0, 0), BuildingBlock: TEMPAE_clean_linker_10, # of connection points: 2
#     Edge 48, Type (0, 0), BuildingBlock: TEMPAE_clean_linker_10, # of connection points: 2
#     Edge 49, Type (0, 0), BuildingBlock: TEMPAE_clean_linker_10, # of connection points: 2
#     Edge 50, Type (0, 0), BuildingBlock: TEMPAE_clean_linker_10, # of connection points: 2
#     Edge 51, Type (0, 0), BuildingBlock: TEMPAE_clean_linker_10, # of connection points: 2
#     Edge 52, Type (0, 0), BuildingBlock: TEMPAE_clean_linker_10, # of connection points: 2
#     Edge 53, Type (0, 0), BuildingBlock: TEMPAE_clean_linker_10, # of connection points: 2
#     Edge 54, Type (0, 0), BuildingBlock: TEMPAE_clean_linker_10, # of connection points: 2
#     Edge 55, Type (0, 0), BuildingBlock: TEMPAE_clean_linker_10, # of connection points: 2
#     Edge 56, Type (0, 0), BuildingBlock: TEMPAE_clean_linker_10, # of connection points: 2
#     Edge 57, Type (0, 0), BuildingBlock: TEMPAE_clean_linker_10, # of connection points: 2
#     Edge 58, Type (0, 0), BuildingBlock: TEMPAE_clean_linker_10, # of connection points: 2
#     Edge 59, Type (0, 0), BuildingBlock: TEMPAE_clean_linker_10, # of connection points: 2
#     Edge 60, Type (0, 0), BuildingBlock: TEMPAE_clean_linker_10, # of connection points: 2
#     Edge 61, Type (0, 0), BuildingBlock: TEMPAE_clean_linker_10, # of connection points: 2
#     Edge 62, Type (0, 0), BuildingBlock: TEMPAE_clean_linker_10, # of connection points: 2
#     Edge 63, Type (0, 0), BuildingBlock: TEMPAE_clean_linker_10, # of connection points: 2
#     Edge 64, Type (0, 0), BuildingBlock: TEMPAE_clean_linker_10, # of connection points: 2
#     Edge 65, Type (0, 0), BuildingBlock: TEMPAE_clean_linker_10, # of connection points: 2
#     Edge 66, Type (0, 0), BuildingBlock: TEMPAE_clean_linker_10, # of connection points: 2
#     Edge 67, Type (0, 0), BuildingBlock: TEMPAE_clean_linker_10, # of connection points: 2
#     Edge 68, Type (0, 0), BuildingBlock: TEMPAE_clean_linker_10, # of connection points: 2
#     Edge 69, Type (0, 0), BuildingBlock: TEMPAE_clean_linker_10, # of connection points: 2
#     Edge 70, Type (0, 0), BuildingBlock: TEMPAE_clean_linker_10, # of connection points: 2
#     Edge 71, Type (0, 0), BuildingBlock: TEMPAE_clean_linker_10, # of connection points: 2
#     Edge 72, Type (0, 0), BuildingBlock: TEMPAE_clean_linker_10, # of connection points: 2
#     Edge 73, Type (0, 0), BuildingBlock: TEMPAE_clean_linker_10, # of connection points: 2
#     Edge 74, Type (0, 0), BuildingBlock: TEMPAE_clean_linker_10, # of connection points: 2
#     Edge 75, Type (0, 0), BuildingBlock: TEMPAE_clean_linker_10, # of connection points: 2
#     Edge 76, Type (0, 0), BuildingBlock: TEMPAE_clean_linker_10, # of connection points: 2
#     Edge 77, Type (0, 0), BuildingBlock: TEMPAE_clean_linker_10, # of connection points: 2
#     Edge 78, Type (0, 0), BuildingBlock: TEMPAE_clean_linker_10, # of connection points: 2
#     Edge 79, Type (0, 0), BuildingBlock: TEMPAE_clean_linker_10, # of connection points: 2
#     Edge 80, Type (0, 0), BuildingBlock: TEMPAE_clean_linker_10, # of connection points: 2
#     Edge 81, Type (0, 0), BuildingBlock: TEMPAE_clean_linker_10, # of connection points: 2
#     Edge 82, Type (0, 0), BuildingBlock: TEMPAE_clean_linker_10, # of connection points: 2
#     Edge 83, Type (0, 0), BuildingBlock: TEMPAE_clean_linker_10, # of connection points: 2
#     Edge 84, Type (0, 0), BuildingBlock: TEMPAE_clean_linker_10, # of connection points: 2
#     Edge 85, Type (0, 0), BuildingBlock: TEMPAE_clean_linker_10, # of connection points: 2
#     Edge 86, Type (0, 0), BuildingBlock: TEMPAE_clean_linker_10, # of connection points: 2
#     Edge 87, Type (0, 0), BuildingBlock: TEMPAE_clean_linker_10, # of connection points: 2
#     Edge 88, Type (0, 0), BuildingBlock: TEMPAE_clean_linker_10, # of connection points: 2
#     Edge 89, Type (0, 0), BuildingBlock: TEMPAE_clean_linker_10, # of connection points: 2
#     Edge 90, Type (0, 0), BuildingBlock: TEMPAE_clean_linker_10, # of connection points: 2
#     Edge 91, Type (0, 0), BuildingBlock: TEMPAE_clean_linker_10, # of connection points: 2
#     Edge 92, Type (0, 0), BuildingBlock: TEMPAE_clean_linker_10, # of connection points: 2
#     Edge 93, Type (0, 0), BuildingBlock: TEMPAE_clean_linker_10, # of connection points: 2
#     Edge 94, Type (0, 0), BuildingBlock: TEMPAE_clean_linker_10, # of connection points: 2
#     Edge 95, Type (0, 0), BuildingBlock: TEMPAE_clean_linker_10, # of connection points: 2
# Relax obj value: 0.179
# Max RMSD: 0.206
# Mean RMSD: 0.206
data_MOF--net-uoe--node1-CEKHIL_clean_sbu_0--edge1-TEMPAE_clean_linker_10
_symmetry_space_group_name_H-M    P1
_symmetry_Int_Tables_number       1
_symmetry_cell_setting            triclinic
loop_
_symmetry_equiv_pos_as_xyz
'x, y, z'
_cell_length_a     75.864877
_cell_length_b     75.857659
_cell_length_c     26.686729
_cell_angle_alpha  90.072409
_cell_angle_beta   90.062709
_cell_angle_gamma 89.991506
loop_
_atom_site_label
_atom_site_type_symbol
_atom_site_fract_x
_atom_site_fract_y
_atom_site_fract_z
_atom_type_partial_charge
Co0 Co 0.09883 0.46133 0.03189 0.0
O1 O 0.11964 0.44702 0.03792 0.0
O2 O 0.09362 0.43992 0.06916 0.0
C3 C 0.10206 0.46815 0.95064 0.0
O4 O 0.07442 0.4728 0.03155 0.0
Co5 Co 0.10242 0.50121 0.00461 0.0
O6 O 0.07661 0.49907 -0.00738 0.0
C7 C 0.11182 0.48891 0.10558 0.0
C8 C 0.11025 0.43604 0.06383 0.0
C9 C 0.06747 0.48662 0.0115 0.0
O10 O 0.10504 0.47374 0.09592 0.0
O11 O 0.11357 0.50111 0.07285 0.0
O12 O 0.0948 0.45321 0.96288 0.0
O13 O 0.10842 0.47727 0.98703 0.0
Co14 Co 0.79426 0.84705 0.2854 0.0
O15 O 0.81003 0.86688 0.28653 0.0
O16 O 0.81585 0.84096 0.32059 0.0
C17 C 0.78574 0.84904 0.20501 0.0
O18 O 0.78116 0.82359 0.29013 0.0
Co19 Co 0.75423 0.85402 0.26621 0.0
O20 O 0.75264 0.82786 0.26918 0.0
C21 C 0.77028 0.86479 0.36059 0.0
C22 C 0.82065 0.85723 0.31301 0.0
C23 C 0.76541 0.81784 0.28183 0.0
O24 O 0.78374 0.85517 0.35033 0.0
O25 O 0.7579 0.86794 0.32933 0.0
O26 O 0.8006 0.84131 0.21588 0.0
O27 O 0.77804 0.85685 0.24175 0.0
Co28 Co 0.40532 0.54377 0.52547 0.0
O29 O 0.38449 0.55803 0.53255 0.0
O30 O 0.41049 0.56474 0.56485 0.0
C31 C 0.40231 0.53776 0.44352 0.0
O32 O 0.42976 0.53237 0.52445 0.0
Co33 Co 0.40184 0.50418 0.49481 0.0
O34 O 0.42769 0.5064 0.48372 0.0
C35 C 0.39242 0.51539 0.59672 0.0
C36 C 0.39387 0.56869 0.55967 0.0
C37 C 0.43678 0.51872 0.50361 0.0
O38 O 0.39908 0.53069 0.58824 0.0
O39 O 0.39074 0.50348 0.56303 0.0
O40 O 0.40942 0.55262 0.45733 0.0
O41 O 0.39586 0.52828 0.47894 0.0
Co42 Co 0.7139 0.16333 0.78526 0.0
O43 O 0.69858 0.14314 0.78414 0.0
O44 O 0.6918 0.16879 0.81858 0.0
C45 C 0.72326 0.1618 0.70553 0.0
O46 O 0.72635 0.18714 0.79194 0.0
Co47 Co 0.75427 0.15757 0.76905 0.0
O48 O 0.75514 0.18373 0.773 0.0
C49 C 0.73768 0.146 0.86202 0.0
C50 C 0.68743 0.15246 0.80977 0.0
C51 C 0.742 0.19334 0.78499 0.0
O52 O 0.72395 0.15513 0.8509 0.0
O53 O 0.75046 0.14351 0.83161 0.0
O54 O 0.70813 0.16916 0.71538 0.0
O55 O 0.73079 0.15409 0.7427 0.0
Co56 Co 0.09998 0.54447 0.54673 0.0
O57 O 0.1211 0.55852 0.54623 0.0
O58 O 0.09529 0.56733 0.51685 0.0
C59 C 0.10242 0.53392 0.62516 0.0
O60 O 0.07536 0.53356 0.54236 0.0
Co61 Co 0.10294 0.50359 0.55911 0.0
O62 O 0.0771 0.50558 0.5705 0.0
C63 C 0.11334 0.52032 0.46457 0.0
C64 C 0.11199 0.57062 0.52362 0.0
C65 C 0.06818 0.51898 0.55662 0.0
O66 O 0.10621 0.53484 0.47893 0.0
O67 O 0.11501 0.50682 0.49293 0.0
O68 O 0.09589 0.54961 0.61804 0.0
O69 O 0.10889 0.52644 0.58603 0.0
Co70 Co 0.71802 0.85294 0.78946 0.0
O71 O 0.70196 0.87256 0.78848 0.0
O72 O 0.69703 0.8469 0.75154 0.0
C73 C 0.72544 0.85411 0.87076 0.0
O74 O 0.73141 0.8296 0.78402 0.0
Co75 Co 0.75771 0.85931 0.81409 0.0
O76 O 0.75791 0.83318 0.82091 0.0
C77 C 0.74341 0.87066 0.71728 0.0
C78 C 0.69184 0.86299 0.76016 0.0
C79 C 0.74599 0.82341 0.80174 0.0
O80 O 0.72923 0.862 0.72663 0.0
O81 O 0.75589 0.87251 0.74913 0.0
O82 O 0.71083 0.84636 0.85752 0.0
O83 O 0.73358 0.86241 0.8357 0.0
Co84 Co 0.40923 0.46274 0.03695 0.0
O85 O 0.38909 0.44734 0.03823 0.0
O86 O 0.41518 0.44009 0.00753 0.0
C87 C 0.40687 0.47375 0.1149 0.0
O88 O 0.43304 0.47517 0.03079 0.0
Co89 Co 0.40313 0.50334 0.04598 0.0
O90 O 0.42931 0.50426 0.04517 0.0
C91 C 0.39275 0.48478 0.9547 0.0
C92 C 0.39876 0.43582 0.01503 0.0
C93 C 0.43911 0.49095 0.03617 0.0
O94 O 0.4018 0.47138 0.96902 0.0
O95 O 0.38986 0.49817 0.98268 0.0
O96 O 0.41426 0.45842 0.10814 0.0
O97 O 0.39948 0.48045 0.07595 0.0
Co98 Co 0.79364 0.1596 0.29338 0.0
O99 O 0.80914 0.13953 0.29259 0.0
O100 O 0.8152 0.16525 0.25766 0.0
C101 C 0.78538 0.15816 0.37398 0.0
O102 O 0.781 0.18335 0.28849 0.0
Co103 Co 0.75355 0.15373 0.31385 0.0
O104 O 0.75247 0.17988 0.31039 0.0
C105 C 0.76866 0.14274 0.21818 0.0
C106 C 0.81985 0.14898 0.26591 0.0
C107 C 0.76546 0.18951 0.29729 0.0
O108 O 0.78275 0.1514 0.22879 0.0
O109 O 0.75615 0.14034 0.24953 0.0
O110 O 0.80034 0.16554 0.36241 0.0
O111 O 0.77738 0.15027 0.33783 0.0
Co112 Co 0.90878 0.54327 0.03508 0.0
O113 O 0.88942 0.55965 0.03598 0.0
O114 O 0.91513 0.56471 -0.00025 0.0
C115 C 0.90753 0.53471 0.11549 0.0
O116 O 0.93189 0.52959 0.02812 0.0
Co117 Co 0.90127 0.50341 0.05425 0.0
O118 O 0.92734 0.50123 0.04997 0.0
C119 C 0.88987 0.51966 0.96051 0.0
C120 C 0.89912 0.57001 0.00888 0.0
C121 C 0.93746 0.51378 0.03638 0.0
O122 O 0.89954 0.53311 0.97074 0.0
O123 O 0.88718 0.50712 -0.00844 0.0
O124 O 0.91549 0.54939 0.10401 0.0
O125 O 0.89907 0.52724 0.07947 0.0
Co126 Co 0.21467 0.15563 0.79256 0.0
O127 O 0.1998 0.13512 0.79056 0.0
O128 O 0.19292 0.16088 0.75702 0.0
C129 C 0.22282 0.15364 0.87324 0.0
O130 O 0.22673 0.17973 0.789 0.0
Co131 Co 0.25488 0.15105 0.81461 0.0
O132 O 0.25365 0.17705 0.82415 0.0
C133 C 0.24043 0.14037 0.7172 0.0
C134 C 0.18876 0.14442 0.7645 0.0
C135 C 0.24111 0.18641 0.80656 0.0
O136 O 0.22586 0.14817 0.72786 0.0
O137 O 0.25308 0.13852 0.74854 0.0
O138 O 0.20773 0.16082 0.86194 0.0
O139 O 0.23109 0.14639 0.83658 0.0
Co140 Co 0.59701 0.4661 0.53257 0.0
O141 O 0.61684 0.45035 0.53664 0.0
O142 O 0.59144 0.44387 0.50017 0.0
C143 C 0.59763 0.47627 0.61156 0.0
O144 O 0.57355 0.47894 0.52272 0.0
Co145 Co 0.60334 0.50645 0.54546 0.0
O146 O 0.57724 0.50781 0.54028 0.0
C147 C 0.61601 0.48847 0.45567 0.0
C148 C 0.60759 0.43926 0.51049 0.0
C149 C 0.56751 0.49473 0.52845 0.0
O150 O 0.60632 0.47519 0.46718 0.0
O151 O 0.61821 0.50168 0.48485 0.0
O152 O 0.59019 0.46115 0.60207 0.0
O153 O 0.60604 0.48328 0.57476 0.0
Co154 Co 0.29611 0.8502 0.29245 0.0
O155 O 0.31172 0.87017 0.29176 0.0
O156 O 0.31758 0.84447 0.25626 0.0
C157 C 0.28822 0.85182 0.37335 0.0
O158 O 0.28327 0.82657 0.28725 0.0
Co159 Co 0.25616 0.85631 0.31458 0.0
O160 O 0.25495 0.83017 0.31095 0.0
C161 C 0.27089 0.86717 0.21829 0.0
C162 C 0.32236 0.86069 0.2649 0.0
C163 C 0.26774 0.82047 0.29664 0.0
O164 O 0.28505 0.85855 0.2283 0.0
O165 O 0.25851 0.86959 0.2501 0.0
O166 O 0.30299 0.84416 0.36126 0.0
O167 O 0.28011 0.85969 0.33745 0.0
Co168 Co 0.90849 0.46589 0.53024 0.0
O169 O 0.88869 0.45007 0.53069 0.0
O170 O 0.91448 0.44441 0.56592 0.0
C171 C 0.907 0.4742 0.44967 0.0
O172 O 0.93196 0.47899 0.5358 0.0
Co173 Co 0.90176 0.50587 0.5103 0.0
O174 O 0.92787 0.50753 0.51486 0.0
C175 C 0.89066 0.49022 0.60489 0.0
C176 C 0.89827 0.43953 0.55765 0.0
C177 C 0.93778 0.49471 0.5278 0.0
O178 O 0.89999 0.47654 0.59471 0.0
O179 O 0.88788 0.50265 0.57351 0.0
O180 O 0.91462 0.45936 0.46125 0.0
O181 O 0.89893 0.48202 0.48578 0.0
Co182 Co 0.2949 0.15765 0.2837 0.0
O183 O 0.31044 0.13761 0.28326 0.0
O184 O 0.31684 0.16338 0.31758 0.0
C185 C 0.28575 0.15597 0.20381 0.0
O186 O 0.28218 0.18132 0.2899 0.0
Co187 Co 0.25464 0.15145 0.26649 0.0
O188 O 0.25348 0.1776 0.27016 0.0
C189 C 0.27102 0.14042 0.36042 0.0
C190 C 0.32139 0.14708 0.30921 0.0
C191 C 0.26648 0.18736 0.28251 0.0
O192 O 0.28479 0.14944 0.34911 0.0
O193 O 0.25826 0.13782 0.32993 0.0
O194 O 0.30077 0.1635 0.21398 0.0
O195 O 0.27822 0.14817 0.24078 0.0
Co196 Co 0.60001 0.5425 0.02803 0.0
O197 O 0.62023 0.55769 0.03193 0.0
O198 O 0.59451 0.56338 0.06735 0.0
C199 C 0.60177 0.53618 0.94606 0.0
O200 O 0.57621 0.52992 0.03042 0.0
Co201 Co 0.60534 0.50293 -0.00083 0.0
O202 O 0.57921 0.50363 -0.00819 0.0
C203 C 0.61562 0.51536 0.09894 0.0
C204 C 0.61084 0.56803 0.05997 0.0
C205 C 0.56972 0.51565 0.01163 0.0
O206 O 0.60781 0.53009 0.09045 0.0
O207 O 0.61773 0.50336 0.06575 0.0
O208 O 0.59435 0.55083 0.96032 0.0
O209 O 0.60938 0.52723 0.98084 0.0
Co210 Co 0.21551 0.85046 0.78301 0.0
O211 O 0.20125 0.87143 0.78194 0.0
O212 O 0.19288 0.84598 0.81451 0.0
C213 C 0.22561 0.85177 0.70403 0.0
O214 O 0.22668 0.82599 0.78908 0.0
Co215 Co 0.25625 0.85426 0.76984 0.0
O216 O 0.25578 0.82809 0.77226 0.0
C217 C 0.23942 0.86636 0.86197 0.0
C218 C 0.1894 0.86255 0.80621 0.0
C219 C 0.24206 0.81907 0.78264 0.0
O220 O 0.22542 0.85783 0.84972 0.0
O221 O 0.25253 0.86838 0.83242 0.0
O222 O 0.21 0.84526 0.71259 0.0
O223 O 0.23321 0.85899 0.74194 0.0
Co224 Co 0.60108 0.9663 0.53391 0.0
O225 O 0.62188 0.95178 0.53248 0.0
O226 O 0.59634 0.94369 0.56507 0.0
C227 C 0.60241 0.97661 0.45513 0.0
O228 O 0.57674 0.97768 0.54054 0.0
Co229 Co 0.60516 0.00702 0.52179 0.0
O230 O 0.57899 0.00681 0.52446 0.0
C231 C 0.61754 0.98973 0.61296 0.0
C232 C 0.61287 0.94005 0.55689 0.0
C233 C 0.56989 0.99313 0.53462 0.0
O234 O 0.60872 0.97592 0.60067 0.0
O235 O 0.61952 1.00293 0.58372 0.0
O236 O 0.59576 0.96104 0.46339 0.0
O237 O 0.60973 0.98404 0.49317 0.0
Co238 Co 0.29354 0.34704 0.79242 0.0
O239 O 0.30904 0.36711 0.79187 0.0
O240 O 0.31588 0.34108 0.8237 0.0
C241 C 0.2833 0.34912 0.71366 0.0
O242 O 0.28095 0.32329 0.79799 0.0
Co243 Co 0.25308 0.35333 0.7803 0.0
O244 O 0.25203 0.32715 0.78114 0.0
C245 C 0.27082 0.36388 0.87266 0.0
C246 C 0.3203 0.35745 0.81611 0.0
C247 C 0.2652 0.31729 0.79122 0.0
O248 O 0.28429 0.35472 0.85947 0.0
O249 O 0.25769 0.36676 0.8437 0.0
O250 O 0.29855 0.34174 0.72181 0.0
O251 O 0.27626 0.35673 0.75181 0.0
Co252 Co 0.90753 0.04324 0.03486 0.0
O253 O 0.88695 0.05802 0.03767 0.0
O254 O 0.9128 0.06499 0.07046 0.0
C255 C 0.90529 0.03521 0.95411 0.0
O256 O 0.93171 0.03137 0.03775 0.0
Co257 Co 0.90281 1.00304 0.01295 0.0
O258 O 0.92899 1.00282 0.015 0.0
C259 C 0.89201 0.01754 0.1097 0.0
C260 C 0.89629 0.06908 0.06362 0.0
C261 C 0.9383 0.01605 0.02816 0.0
O262 O 0.90032 0.03188 0.09966 0.0
O263 O 0.88967 0.00518 0.07773 0.0
O264 O 0.91247 0.05029 0.96547 0.0
O265 O 0.89819 0.02683 0.99076 0.0
Co266 Co 0.21513 0.65982 0.28684 0.0
O267 O 0.20023 0.63946 0.29342 0.0
O268 O 0.19465 0.66542 0.32773 0.0
C269 C 0.22045 0.65717 0.20453 0.0
O270 O 0.22746 0.68376 0.28666 0.0
Co271 Co 0.25438 0.65478 0.25407 0.0
O272 O 0.25333 0.68087 0.24586 0.0
C273 C 0.24324 0.64486 0.35518 0.0
C274 C 0.19011 0.64898 0.32173 0.0
C275 C 0.24144 0.69032 0.26647 0.0
O276 O 0.22844 0.65272 0.34836 0.0
O277 O 0.25475 0.64254 0.32078 0.0
O278 O 0.20594 0.66473 0.2194 0.0
O279 O 0.22991 0.65014 0.23912 0.0
Co280 Co 0.60205 0.04601 0.04291 0.0
O281 O 0.62194 0.06165 0.0394 0.0
O282 O 0.59594 0.06708 0.00523 0.0
C283 C 0.60424 0.03906 0.12434 0.0
O284 O 0.57847 0.03301 0.04038 0.0
Co285 Co 0.60865 0.00636 0.0682 0.0
O286 O 0.58249 0.00496 0.06613 0.0
C287 C 0.61844 0.02001 0.96984 0.0
C288 C 0.61223 0.07198 0.01225 0.0
C289 C 0.57258 0.01753 0.05137 0.0
O290 O 0.60987 0.03425 0.9793 0.0
O291 O 0.62129 0.008 0.00247 0.0
O292 O 0.59646 0.05367 0.11133 0.0
O293 O 0.61196 0.03058 0.08882 0.0
Co294 Co 0.2134 0.34786 0.30167 0.0
O295 O 0.19805 0.368 0.29804 0.0
O296 O 0.19235 0.34213 0.26336 0.0
C297 C 0.2201 0.35014 0.38341 0.0
O298 O 0.22601 0.32404 0.299 0.0
Co299 Co 0.25308 0.35292 0.32951 0.0
O300 O 0.25236 0.32683 0.33727 0.0
C301 C 0.2403 0.36319 0.22976 0.0
C302 C 0.18762 0.35845 0.27064 0.0
C303 C 0.24027 0.31743 0.31746 0.0
O304 O 0.22548 0.3556 0.23865 0.0
O305 O 0.25246 0.36503 0.26268 0.0
O306 O 0.20548 0.34245 0.37004 0.0
O307 O 0.22889 0.35747 0.34792 0.0
Co308 Co 0.90782 0.96194 0.54496 0.0
O309 O 0.88758 0.94666 0.54426 0.0
O310 O 0.91359 0.93976 0.51243 0.0
C311 C 0.90563 0.97153 0.62437 0.0
O312 O 0.93173 0.97429 0.54043 0.0
Co313 Co 0.90211 1.00238 0.56031 0.0
O314 O 0.92829 1.00307 0.55963 0.0
C315 C 0.89152 0.98569 0.46631 0.0
C316 C 0.89717 0.93543 0.51964 0.0
C317 C 0.93795 0.98988 0.54839 0.0
O318 O 0.90036 0.97188 0.47849 0.0
O319 O 0.88882 0.99857 0.49632 0.0
O320 O 0.91292 0.95629 0.61534 0.0
O321 O 0.89824 0.97897 0.58655 0.0
Co322 Co 0.28989 0.6572 0.79137 0.0
O323 O 0.30527 0.63703 0.79308 0.0
O324 O 0.31197 0.66258 0.75806 0.0
C325 C 0.28037 0.65614 0.87085 0.0
O326 O 0.27742 0.681 0.78391 0.0
Co327 Co 0.24948 0.65204 0.80728 0.0
O328 O 0.24998 0.67812 0.81518 0.0
C329 C 0.26603 0.64005 0.71408 0.0
C330 C 0.31636 0.64628 0.76702 0.0
C331 C 0.26264 0.68758 0.79895 0.0
O332 O 0.28005 0.64857 0.72612 0.0
O333 O 0.25274 0.63853 0.74326 0.0
O334 O 0.29557 0.66336 0.86101 0.0
O335 O 0.27289 0.64819 0.8339 0.0
Co336 Co 0.40876 0.04255 0.54094 0.0
O337 O 0.38891 0.05834 0.54101 0.0
O338 O 0.41468 0.06418 0.50602 0.0
C339 C 0.40727 0.03388 0.62114 0.0
O340 O 0.43231 0.02955 0.53494 0.0
Co341 Co 0.40283 1.00243 0.5603 0.0
O342 O 0.42891 1.00251 0.56851 0.0
C343 C 0.39152 0.01814 0.46519 0.0
C344 C 0.39845 0.06899 0.51436 0.0
C345 C 0.4386 0.01482 0.55124 0.0
O346 O 0.40014 0.03218 0.47635 0.0
O347 O 0.38966 0.00521 0.49552 0.0
O348 O 0.41487 0.0488 0.61023 0.0
O349 O 0.39928 0.02619 0.58463 0.0
Co350 Co 0.71433 0.65636 0.29855 0.0
O351 O 0.69975 0.63569 0.29402 0.0
O352 O 0.69311 0.66148 0.26038 0.0
C353 C 0.72098 0.6541 0.38027 0.0
O354 O 0.72604 0.68062 0.2968 0.0
Co355 Co 0.75413 0.65271 0.32687 0.0
O356 O 0.75234 0.67871 0.33586 0.0
C357 C 0.74202 0.64264 0.22617 0.0
C358 C 0.68897 0.64498 0.26706 0.0
C359 C 0.73996 0.6877 0.31595 0.0
O360 O 0.7268 0.64936 0.23537 0.0
O361 O 0.75422 0.64119 0.2591 0.0
O362 O 0.70611 0.66127 0.3669 0.0
O363 O 0.7301 0.64717 0.34475 0.0
Co364 Co 0.10042 0.96807 0.03715 0.0
O365 O 0.12078 0.95301 0.03294 0.0
O366 O 0.09526 0.9476 -0.00418 0.0
C367 C 0.10186 0.97348 0.11958 0.0
O368 O 0.07642 0.98039 0.0346 0.0
Co369 Co 0.1044 0.00737 0.07134 0.0
O370 O 0.07836 0.00579 0.07816 0.0
C371 C 0.11551 0.99666 0.97048 0.0
C372 C 0.11155 0.9429 0.0037 0.0
C373 C 0.06935 0.994 0.05559 0.0
O374 O 0.1087 0.98132 0.97667 0.0
O375 O 0.11612 0.00861 0.00426 0.0
O376 O 0.0945 0.95897 0.1039 0.0
O377 O 0.10938 0.98292 0.08585 0.0
Co378 Co 0.79512 0.35363 0.79906 0.0
O379 O 0.81072 0.37358 0.79604 0.0
O380 O 0.81632 0.34757 0.76208 0.0
C381 C 0.78776 0.35594 0.88023 0.0
O382 O 0.78222 0.32999 0.79591 0.0
Co383 Co 0.7553 0.35935 0.82379 0.0
O384 O 0.75567 0.33329 0.83259 0.0
C385 C 0.76903 0.36924 0.7249 0.0
C386 C 0.82115 0.36387 0.7691 0.0
C387 C 0.76777 0.32365 0.81385 0.0
O388 O 0.78364 0.36145 0.73519 0.0
O389 O 0.75659 0.37127 0.75678 0.0
O390 O 0.80245 0.34816 0.8679 0.0
O391 O 0.7794 0.36347 0.8442 0.0
Co392 Co 0.41155 0.96519 0.0345 0.0
O393 O 0.39092 0.95056 0.0381 0.0
O394 O 0.41671 0.94371 0.07147 0.0
C395 C 0.4092 0.97247 0.95326 0.0
O396 O 0.4357 0.97709 0.03699 0.0
Co397 Co 0.40724 0.00521 0.00896 0.0
O398 O 0.43332 1.00386 0.00079 0.0
C399 C 0.3966 0.99183 0.10734 0.0
C400 C 0.40019 0.93964 0.06464 0.0
C401 C 0.44251 0.99137 0.01935 0.0
O402 O 0.4045 0.97718 0.09829 0.0
O403 O 0.39452 1.00404 0.07484 0.0
O404 O 0.41642 0.95749 0.9655 0.0
O405 O 0.40227 0.98121 0.9895 0.0
Co406 Co 0.79563 0.66125 0.78737 0.0
O407 O 0.81025 0.64054 0.78654 0.0
O408 O 0.81847 0.66641 0.81692 0.0
C409 C 0.78471 0.65904 0.70931 0.0
O410 O 0.78409 0.68555 0.79287 0.0
Co411 Co 0.75485 0.65663 0.77779 0.0
O412 O 0.75489 0.68282 0.77835 0.0
C413 C 0.77298 0.64539 0.86886 0.0
C414 C 0.82213 0.64982 0.80961 0.0
C415 C 0.76853 0.69216 0.78716 0.0
O416 O 0.78659 0.65426 0.85525 0.0
O417 O 0.75963 0.64289 0.84044 0.0
O418 O 0.80027 0.66592 0.71617 0.0
O419 O 0.77766 0.65204 0.7483 0.0
Co420 Co 0.09988 0.03893 0.53689 0.0
O421 O 0.12013 0.05421 0.53662 0.0
O422 O 0.09478 0.06044 0.57351 0.0
C423 C 0.10066 0.03093 0.45606 0.0
O424 O 0.07598 0.02658 0.54355 0.0
Co425 Co 0.10393 0.99876 0.51299 0.0
O426 O 0.07793 1.00018 0.5051 0.0
C427 C 0.1161 0.0128 0.60959 0.0
C428 C 0.11102 0.06495 0.56426 0.0
C429 C 0.06893 0.0125 0.52514 0.0
O430 O 0.10884 0.02772 0.59994 0.0
O431 O 0.11655 0.99986 0.57881 0.0
O432 O 0.09346 0.04592 0.46842 0.0
O433 O 0.10855 0.02265 0.49161 0.0
Co434 Co 0.71437 0.35086 0.28839 0.0
O435 O 0.69941 0.37133 0.28988 0.0
O436 O 0.69216 0.3453 0.32092 0.0
C437 C 0.72375 0.35342 0.20887 0.0
O438 O 0.72641 0.32677 0.29214 0.0
Co439 Co 0.75487 0.35565 0.27177 0.0
O440 O 0.754 0.32965 0.26183 0.0
C441 C 0.73877 0.3661 0.36708 0.0
C442 C 0.68806 0.36181 0.31414 0.0
C443 C 0.74115 0.32019 0.27692 0.0
O444 O 0.72459 0.35789 0.35484 0.0
O445 O 0.75175 0.36835 0.33718 0.0
O446 O 0.70849 0.3462 0.2178 0.0
O447 O 0.73143 0.3604 0.24701 0.0
C448 C 0.96935 0.52242 0.04032 0.0
C449 C 0.95643 0.50972 0.02987 0.0
C450 C 0.98738 0.51826 0.03698 0.0
C451 C 0.99261 0.50116 0.02143 0.0
C452 C 0.97959 0.48846 0.00951 0.0
C453 C 0.96169 0.49281 0.01457 0.0
C454 C 1.00085 0.53206 0.05108 0.0
C455 C 0.98456 0.47026 -0.00864 0.0
C456 C 0.03942 0.49664 0.97184 0.0
C457 C 0.04812 0.48891 0.01264 0.0
C458 C 0.02126 0.5002 0.97362 0.0
C459 C 0.01169 0.49651 0.01794 0.0
C460 C 0.02043 0.48858 0.05916 0.0
C461 C 0.0385 0.48461 0.05569 0.0
C462 C 0.01235 0.50806 0.92822 0.0
C463 C 0.01082 0.48481 0.10748 0.0
H464 H 0.96534 0.53545 0.05254 0.0
H465 H 0.95175 0.48299 0.006 0.0
H466 H 0.00932 0.52706 0.08188 0.0
H467 H 0.00957 0.53484 0.01872 0.0
H468 H 0.99464 0.5446 0.06333 0.0
H469 H 0.97285 0.4622 0.98138 0.0
H470 H 0.99322 0.47127 0.958 0.0
H471 H 0.99212 0.46324 0.02082 0.0
H472 H 0.04685 0.49988 0.9384 0.0
H473 H 0.04527 0.47883 0.08747 0.0
H474 H 0.00741 0.52146 0.93724 0.0
H475 H 1.00079 0.49995 0.91735 0.0
H476 H 0.02139 0.50903 0.89561 0.0
H477 H 0.00537 0.49725 0.12302 0.0
H478 H 0.01952 0.47869 0.1361 0.0
H479 H 0.99954 0.47585 0.10039 0.0
C480 C 0.7448 0.79325 0.30277 0.0
C481 C 0.76165 0.79878 0.28793 0.0
C482 C 0.74082 0.77529 0.30858 0.0
C483 C 0.75387 0.76249 0.29799 0.0
C484 C 0.77089 0.76798 0.28258 0.0
C485 C 0.77465 0.78609 0.27843 0.0
C486 C 0.72268 0.77004 0.32643 0.0
C487 C 0.78504 0.75473 0.26981 0.0
C488 C 0.75003 0.71629 0.35233 0.0
C489 C 0.74239 0.70698 0.31244 0.0
C490 C 0.75344 0.73444 0.34857 0.0
C491 C 0.74971 0.74335 0.30316 0.0
C492 C 0.742 0.73397 0.26272 0.0
C493 C 0.73816 0.71594 0.26817 0.0
C494 C 0.76108 0.74406 0.39315 0.0
C495 C 0.73824 0.74287 0.21328 0.0
H496 H 0.73473 0.80302 0.31063 0.0
H497 H 0.78765 0.7903 0.26659 0.0
H498 H 0.71604 0.76186 0.29756 0.0
H499 H 0.72378 0.76189 0.3608 0.0
H500 H 0.71422 0.78163 0.33471 0.0
H501 H 0.79741 0.76113 0.25701 0.0
H502 H 0.78806 0.74649 0.30302 0.0
H503 H 0.78028 0.74576 0.23985 0.0
H504 H 0.75323 0.70936 0.38668 0.0
H505 H 0.73246 0.70869 0.23709 0.0
H506 H 0.75263 0.75548 0.40302 0.0
H507 H 0.77431 0.74931 0.38368 0.0
H508 H 0.76234 0.73541 0.42654 0.0
H509 H 0.72894 0.75398 0.21882 0.0
H510 H 0.73251 0.73365 0.18527 0.0
H511 H 0.7506 0.74847 0.19778 0.0
C512 C 0.4659 0.52157 0.547 0.0
C513 C 0.45616 0.51654 0.50471 0.0
C514 C 0.48406 0.51797 0.55031 0.0
C515 C 0.49276 0.50962 0.5097 0.0
C516 C 0.48306 0.5051 0.46615 0.0
C517 C 0.46483 0.50836 0.46452 0.0
C518 C 0.49383 0.52265 0.59781 0.0
C519 C 0.4919 0.49674 0.42138 0.0
C520 C 0.54263 0.51456 0.50413 0.0
C521 C 0.54841 0.49808 0.52142 0.0
C522 C 0.52459 0.51834 0.49905 0.0
C523 C 0.51197 0.50551 0.51291 0.0
C524 C 0.51773 0.48881 0.53032 0.0
C525 C 0.53589 0.48521 0.53371 0.0
C526 C 0.51905 0.5361 0.47894 0.0
C527 C 0.5047 0.47489 0.54646 0.0
H528 H 0.45919 0.52772 0.57832 0.0
H529 H 0.45733 0.50456 0.43162 0.0
H530 H 0.49973 0.5106 0.61435 0.0
H531 H 0.5048 0.53183 0.58931 0.0
H532 H 0.48512 0.52891 0.62616 0.0
H533 H 0.48269 0.49495 0.38938 0.0
H534 H 0.50313 0.505 0.4089 0.0
H535 H 0.49731 0.48367 0.43186 0.0
H536 H 0.55226 0.52452 0.49417 0.0
H537 H 0.5403 0.47251 0.54748 0.0
H538 H 0.51152 0.54341 0.50791 0.0
H539 H 0.51019 0.53436 0.44618 0.0
H540 H 0.53049 0.54428 0.46739 0.0
H541 H 0.49633 0.4801 0.57718 0.0
H542 H 0.5113 0.46267 0.55965 0.0
H543 H 0.49583 0.47148 0.51487 0.0
C544 C 0.73248 0.22492 0.77776 0.0
C545 C 0.74521 0.21246 0.79163 0.0
C546 C 0.73602 0.2431 0.78117 0.0
C547 C 0.75248 0.24891 0.80033 0.0
C548 C 0.76515 0.23633 0.81574 0.0
C549 C 0.76147 0.21829 0.8105 0.0
C550 C 0.72233 0.25609 0.76325 0.0
C551 C 0.78263 0.24193 0.83776 0.0
C552 C 0.76981 0.29473 0.76902 0.0
C553 C 0.76456 0.30443 0.81113 0.0
C554 C 0.76566 0.27672 0.76458 0.0
C555 C 0.75656 0.26812 0.80394 0.0
C556 C 0.75163 0.27781 0.84713 0.0
C557 C 0.75544 0.29591 0.84982 0.0
C558 C 0.77077 0.26698 0.71741 0.0
C559 C 0.74244 0.26904 0.89063 0.0
H560 H 0.71997 0.22045 0.76277 0.0
H561 H 0.77129 0.20869 0.8217 0.0
H562 H 0.71848 0.26503 0.79428 0.0
H563 H 0.72793 0.26441 0.73302 0.0
H564 H 0.7103 0.24945 0.74877 0.0
H565 H 0.79067 0.23051 0.85028 0.0
H566 H 0.79029 0.24944 0.80958 0.0
H567 H 0.78044 0.2508 0.87026 0.0
H568 H 0.77668 0.30135 0.73883 0.0
H569 H 0.75146 0.30339 0.88257 0.0
H570 H 0.7589 0.261 0.69999 0.0
H571 H 0.77994 0.25606 0.7266 0.0
H572 H 0.77721 0.27572 0.68953 0.0
H573 H 0.72962 0.26353 0.8782 0.0
H574 H 0.74002 0.27831 0.92215 0.0
H575 H 0.75051 0.25787 0.90459 0.0
C576 C 0.04011 0.50757 0.59255 0.0
C577 C 0.0488 0.51711 0.55501 0.0
C578 C 0.02189 0.50442 0.58993 0.0
C579 C 0.01223 0.51044 0.54785 0.0
C580 C 0.02094 0.52021 0.50998 0.0
C581 C 0.0391 0.52368 0.51444 0.0
C582 C 0.01303 0.49451 0.63197 0.0
C583 C 0.01122 0.52649 0.46396 0.0
C584 C 0.96948 0.48619 0.51813 0.0
C585 C 0.9568 0.49837 0.53418 0.0
C586 C 0.98757 0.49007 0.52158 0.0
C587 C 0.99308 0.50626 0.54317 0.0
C588 C 0.98029 0.51839 0.56058 0.0
C589 C 0.96231 0.51442 0.55507 0.0
C590 C 1.00078 0.47699 0.50137 0.0
C591 C 0.98558 0.5355 0.58535 0.0
H592 H 0.0476 0.50257 0.62411 0.0
H593 H 0.04585 0.53089 0.48512 0.0
H594 H 1.00162 0.50215 0.64629 0.0
H595 H 0.00788 0.48175 0.61784 0.0
H596 H 0.02217 0.49182 0.66363 0.0
H597 H 0.01989 0.5339 0.43792 0.0
H598 H 0.00557 0.51503 0.44367 0.0
H599 H 1.00006 0.53512 0.47491 0.0
H600 H 0.96523 0.47385 0.50152 0.0
H601 H 0.9525 0.5238 0.56785 0.0
H602 H 0.00957 0.47242 0.53194 0.0
H603 H 0.00922 0.48343 0.4728 0.0
H604 H 0.99434 0.46531 0.48412 0.0
H605 H 0.99432 0.53279 0.61782 0.0
H606 H 0.97402 0.54318 0.59861 0.0
H607 H 0.99316 0.54374 0.5587 0.0
C608 C 0.75053 0.71822 0.81222 0.0
C609 C 0.76606 0.71147 0.79113 0.0
C610 C 0.74747 0.73644 0.81477 0.0
C611 C 0.75999 0.74824 0.79432 0.0
C612 C 0.7757 0.7415 0.77281 0.0
C613 C 0.77868 0.72318 0.77217 0.0
C614 C 0.73081 0.74306 0.8394 0.0
C615 C 0.78918 0.75362 0.74956 0.0
C616 C 0.74284 0.79391 0.76008 0.0
C617 C 0.74931 0.80417 0.79973 0.0
C618 C 0.74659 0.77577 0.75717 0.0
C619 C 0.75659 0.76762 0.79563 0.0
C620 C 0.7629 0.77791 0.83616 0.0
C621 C 0.75939 0.79608 0.83735 0.0
C622 C 0.73995 0.76534 0.71278 0.0
C623 C 0.77314 0.76968 0.87869 0.0
H624 H 0.74081 0.70919 0.82725 0.0
H625 H 0.79061 0.71798 0.75539 0.0
H626 H 0.73414 0.75249 0.86979 0.0
H627 H 0.72263 0.75026 0.81168 0.0
H628 H 0.7228 0.7322 0.85548 0.0
H629 H 0.80056 0.74629 0.73366 0.0
H630 H 0.78294 0.76145 0.71925 0.0
H631 H 0.79416 0.76308 0.77795 0.0
H632 H 0.73518 0.80015 0.73071 0.0
H633 H 0.7643 0.80395 0.86832 0.0
H634 H 0.73066 0.755 0.72554 0.0
H635 H 0.75111 0.75856 0.69406 0.0
H636 H 0.73311 0.77378 0.68486 0.0
H637 H 0.76515 0.75917 0.89652 0.0
H638 H 0.77688 0.77947 0.90782 0.0
H639 H 0.78531 0.7634 0.86417 0.0
C640 C 0.5419 0.50339 0.97571 0.0
C641 C 0.55048 0.51258 0.01429 0.0
C642 C 0.52377 0.49975 0.97825 0.0
C643 C 0.51409 0.50496 0.02112 0.0
C644 C 0.52273 0.51415 0.06039 0.0
C645 C 0.54078 0.51809 0.05614 0.0
C646 C 0.51497 0.49044 0.9349 0.0
C647 C 0.51297 0.51958 0.1072 0.0
C648 C 0.46436 0.51026 0.01221 0.0
C649 C 0.4583 0.49412 0.03115 0.0
C650 C 0.48245 0.51382 0.00799 0.0
C651 C 0.49484 0.50112 0.02441 0.0
C652 C 0.48881 0.48481 0.04381 0.0
C653 C 0.47059 0.48139 0.04628 0.0
C654 C 0.48829 0.53117 0.98578 0.0
C655 C 0.50159 0.47109 0.06274 0.0
H656 H 0.54936 0.49921 0.94315 0.0
H657 H 0.54744 0.52502 0.08626 0.0
H658 H 0.50927 0.47776 0.94768 0.0
H659 H 0.50394 0.49858 0.92037 0.0
H660 H 0.52427 0.48772 0.90368 0.0
H661 H 0.52174 0.52606 0.13504 0.0
H662 H 0.50216 0.52881 0.09751 0.0
H663 H 0.50685 0.50785 0.12489 0.0
H664 H 0.4549 0.52009 4e-05 0.0
H665 H 0.46596 0.46896 0.06132 0.0
H666 H 0.49715 0.52876 0.95341 0.0
H667 H 0.4959 0.5388 0.0139 0.0
H668 H 0.477 0.53933 0.97299 0.0
H669 H 0.51054 0.46692 0.03209 0.0
H670 H 0.49479 0.45924 0.07766 0.0
H671 H 0.50992 0.47681 0.09285 0.0
C672 C 0.75437 0.29271 0.24176 0.0
C673 C 0.74376 0.30085 0.27805 0.0
C674 C 0.75776 0.27452 0.24332 0.0
C675 C 0.75081 0.26429 0.28299 0.0
C676 C 0.74005 0.27245 0.31974 0.0
C677 C 0.73644 0.2906 0.31639 0.0
C678 C 0.76881 0.26626 0.2025 0.0
C679 C 0.73271 0.26209 0.36323 0.0
C680 C 0.74678 0.21455 0.26856 0.0
C681 C 0.76223 0.20862 0.29192 0.0
C682 C 0.74308 0.23263 0.26448 0.0
C683 C 0.75481 0.24506 0.28596 0.0
C684 C 0.77038 0.23909 0.31001 0.0
C685 C 0.77407 0.22092 0.31191 0.0
C686 C 0.72666 0.23843 0.23702 0.0
C687 C 0.78296 0.25187 0.3346 0.0
H688 H 0.75994 0.30058 0.21182 0.0
H689 H 0.72837 0.2969 0.34475 0.0
H690 H 0.78106 0.26069 0.21877 0.0
H691 H 0.7615 0.25522 0.1848 0.0
H692 H 0.77249 0.27588 0.17295 0.0
H693 H 0.72485 0.27044 0.38912 0.0
H694 H 0.72421 0.25125 0.34927 0.0
H695 H 0.74365 0.25595 0.38465 0.0
H696 H 0.73767 0.20501 0.25287 0.0
H697 H 0.78591 0.2163 0.3305 0.0
H698 H 0.7302 0.24771 0.20654 0.0
H699 H 0.71776 0.24557 0.26299 0.0
H700 H 0.71934 0.22715 0.22052 0.0
H701 H 0.78826 0.26116 0.30634 0.0
H702 H 0.79419 0.24508 0.35309 0.0
H703 H 0.77586 0.25982 0.36308 0.0
C704 C 0.27449 0.28587 0.77876 0.0
C705 C 0.26194 0.2981 0.79533 0.0
C706 C 0.27093 0.26767 0.77982 0.0
C707 C 0.25465 0.26157 0.79934 0.0
C708 C 0.24213 0.2739 0.81724 0.0
C709 C 0.24582 0.292 0.81432 0.0
C710 C 0.28444 0.25498 0.75927 0.0
C711 C 0.22487 0.26797 0.83974 0.0
C712 C 0.23773 0.21581 0.76489 0.0
C713 C 0.24367 0.20575 0.80553 0.0
C714 C 0.2414 0.23396 0.76202 0.0
C715 C 0.25075 0.24231 0.80151 0.0
C716 C 0.2563 0.23226 0.84333 0.0
C717 C 0.25292 0.21406 0.84445 0.0
C718 C 0.23561 0.24413 0.71629 0.0
C719 C 0.26578 0.24071 0.88696 0.0
H720 H 0.28688 0.29056 0.76359 0.0
H721 H 0.23613 0.30143 0.8275 0.0
H722 H 0.28878 0.24577 0.78909 0.0
H723 H 0.27848 0.24691 0.72895 0.0
H724 H 0.29622 0.26185 0.74414 0.0
H725 H 0.21684 0.2792 0.85365 0.0
H726 H 0.21705 0.26065 0.81141 0.0
H727 H 0.22738 0.25882 0.87137 0.0
H728 H 0.23073 0.20936 0.73453 0.0
H729 H 0.25742 0.20632 0.87612 0.0
H730 H 0.24723 0.25031 0.69815 0.0
H731 H 0.22656 0.25493 0.72733 0.0
H732 H 0.22882 0.23563 0.68837 0.0
H733 H 0.27847 0.2464 0.87418 0.0
H734 H 0.26852 0.23119 0.91759 0.0
H735 H 0.25777 0.2517 0.90229 0.0
C736 C 0.24753 0.79574 0.27409 0.0
C737 C 0.26424 0.8014 0.28994 0.0
C738 C 0.24366 0.77775 0.26849 0.0
C739 C 0.25666 0.76504 0.28045 0.0
C740 C 0.27356 0.77066 0.2966 0.0
C741 C 0.27724 0.78881 0.30042 0.0
C742 C 0.22566 0.77236 0.24973 0.0
C743 C 0.28764 0.75752 0.31083 0.0
C744 C 0.24021 0.71898 0.31267 0.0
C745 C 0.24446 0.70956 0.26915 0.0
C746 C 0.24437 0.73697 0.31717 0.0
C747 C 0.25244 0.74587 0.27652 0.0
C748 C 0.25629 0.73648 0.23193 0.0
C749 C 0.25252 0.71837 0.22912 0.0
C750 C 0.24045 0.74639 0.36578 0.0
C751 C 0.26433 0.74556 0.18714 0.0
H752 H 0.23748 0.80545 0.26546 0.0
H753 H 0.29012 0.79313 0.31304 0.0
H754 H 0.227 0.76377 0.21627 0.0
H755 H 0.21872 0.76461 0.27887 0.0
H756 H 0.21734 0.78389 0.2397 0.0
H757 H 0.3 0.76402 0.32338 0.0
H758 H 0.28277 0.74893 0.34147 0.0
H759 H 0.2907 0.74887 0.27847 0.0
H760 H 0.23418 0.71212 0.34388 0.0
H761 H 0.25574 0.71109 0.19532 0.0
H762 H 0.23114 0.7574 0.35906 0.0
H763 H 0.25275 0.75219 0.3812 0.0
H764 H 0.23467 0.73746 0.39434 0.0
H765 H 0.25598 0.75688 0.17568 0.0
H766 H 0.26585 0.73654 0.1546 0.0
H767 H 0.27748 0.75091 0.19711 0.0
C768 C 0.24664 0.21205 0.30775 0.0
C769 C 0.26303 0.20643 0.28937 0.0
C770 C 0.24282 0.23004 0.31371 0.0
C771 C 0.25549 0.24278 0.29956 0.0
C772 C 0.27205 0.23719 0.28073 0.0
C773 C 0.27573 0.21906 0.27658 0.0
C774 C 0.22522 0.23539 0.33533 0.0
C775 C 0.28575 0.25037 0.26411 0.0
C776 C 0.23823 0.28886 0.27083 0.0
C777 C 0.24335 0.29821 0.31376 0.0
C778 C 0.24237 0.27089 0.26531 0.0
C779 C 0.25134 0.26194 0.30439 0.0
C780 C 0.25609 0.27126 0.34841 0.0
C781 C 0.2523 0.28934 0.3522 0.0
C782 C 0.23745 0.26156 0.2173 0.0
C783 C 0.26513 0.26211 0.39161 0.0
H784 H 0.23684 0.20232 0.31812 0.0
H785 H 0.28835 0.21475 0.26199 0.0
H786 H 0.22723 0.24393 0.36863 0.0
H787 H 0.21769 0.24318 0.30743 0.0
H788 H 0.21713 0.22384 0.34654 0.0
H789 H 0.29782 0.24389 0.24937 0.0
H790 H 0.28019 0.25897 0.23444 0.0
H791 H 0.28953 0.259 0.29592 0.0
H792 H 0.2315 0.29575 0.24081 0.0
H793 H 0.25618 0.29654 0.38556 0.0
H794 H 0.22832 0.25051 0.22539 0.0
H795 H 0.24941 0.25581 0.19979 0.0
H796 H 0.23105 0.27052 0.18988 0.0
H797 H 0.25705 0.25078 0.40437 0.0
H798 H 0.26736 0.27109 0.42393 0.0
H799 H 0.27803 0.25679 0.37931 0.0
C800 C 0.26712 0.7171 0.75866 0.0
C801 C 0.25992 0.7069 0.79729 0.0
C802 C 0.26372 0.73531 0.75569 0.0
C803 C 0.25333 0.74358 0.79312 0.0
C804 C 0.24637 0.73336 0.8328 0.0
C805 C 0.24953 0.71513 0.83398 0.0
C806 C 0.27105 0.74567 0.71218 0.0
C807 C 0.23572 0.7417 0.87432 0.0
C808 C 0.2595 0.79297 0.81018 0.0
C809 C 0.24427 0.79977 0.7875 0.0
C810 C 0.26241 0.77473 0.81319 0.0
C811 C 0.25007 0.76298 0.79147 0.0
C812 C 0.23466 0.76978 0.76839 0.0
C813 C 0.2318 0.78812 0.7674 0.0
C814 C 0.2787 0.76805 0.83961 0.0
C815 C 0.2214 0.75772 0.74373 0.0
H816 H 0.27502 0.71076 0.73001 0.0
H817 H 0.24407 0.70729 0.86417 0.0
H818 H 0.26019 0.75247 0.6921 0.0
H819 H 0.28019 0.75599 0.72607 0.0
H820 H 0.27825 0.73717 0.68513 0.0
H821 H 0.23165 0.73198 0.90317 0.0
H822 H 0.24355 0.75223 0.89278 0.0
H823 H 0.22373 0.74799 0.85864 0.0
H824 H 0.26911 0.80198 0.82602 0.0
H825 H 0.22012 0.79338 0.74936 0.0
H826 H 0.28721 0.76082 0.81278 0.0
H827 H 0.27494 0.75863 0.86955 0.0
H828 H 0.28654 0.77888 0.85664 0.0
H829 H 0.22797 0.74982 0.71412 0.0
H830 H 0.21028 0.7651 0.72661 0.0
H831 H 0.21602 0.74833 0.77159 0.0
C832 C 0.46601 1.00177 0.58737 0.0
C833 C 0.45787 0.01174 0.54964 0.0
C834 C 0.48421 0.99839 0.58635 0.0
C835 C 0.49445 0.00467 0.54579 0.0
C836 C 0.48624 0.01459 0.50726 0.0
C837 C 0.46809 0.01825 0.51006 0.0
C838 C 0.4925 0.98827 0.62899 0.0
C839 C 0.49661 0.02118 0.46281 0.0
C840 C 0.54389 0.01093 0.56113 0.0
C841 C 0.5506 0.99542 0.53979 0.0
C842 C 0.52566 0.01389 0.56439 0.0
C843 C 0.51383 1.00128 0.54437 0.0
C844 C 0.52054 0.98555 0.52281 0.0
C845 C 0.53887 0.98269 0.52148 0.0
C846 C 0.51908 0.03055 0.58914 0.0
C847 C 0.50838 0.97198 0.50002 0.0
H848 H 0.45816 0.99684 0.61826 0.0
H849 H 0.46179 0.02581 0.48062 0.0
H850 H 0.49876 0.97606 0.61464 0.0
H851 H 0.50305 0.99631 0.64662 0.0
H852 H 0.48276 0.98462 0.65825 0.0
H853 H 0.48813 0.02797 0.43489 0.0
H854 H 0.50696 0.0305 0.4755 0.0
H855 H 0.50337 0.00999 0.44412 0.0
H856 H 0.55294 0.02075 0.57567 0.0
H857 H 0.54404 0.97077 0.50454 0.0
H858 H 0.50967 0.02724 0.6195 0.0
H859 H 0.51188 0.03874 0.56146 0.0
H860 H 0.52997 0.03855 0.60527 0.0
H861 H 0.49896 0.96713 0.52859 0.0
H862 H 0.51567 0.96053 0.48438 0.0
H863 H 0.5005 0.9781 0.46959 0.0
C864 C 0.96384 0.99734 0.0531 0.0
C865 C 0.95752 0.01328 0.0335 0.0
C866 C 0.98199 0.99413 0.05766 0.0
C867 C 0.99416 0.00694 0.04067 0.0
C868 C 0.98784 0.02303 0.02046 0.0
C869 C 0.96956 0.02614 0.01788 0.0
C870 C 0.98814 0.97706 0.08092 0.0
C871 C 1.00037 0.03684 0.0008 0.0
C872 C 0.04117 0.00586 0.0903 0.0
C873 C 0.05003 0.99664 0.0523 0.0
C874 C 0.02299 0.00916 0.0872 0.0
C875 C 0.01348 1.00349 0.04444 0.0
C876 C 0.02237 0.99422 0.00583 0.0
C877 C 0.04051 0.9907 0.01054 0.0
C878 C 0.01395 0.01863 0.12984 0.0
C879 C 0.01278 0.98825 0.95922 0.0
H880 H 0.95453 0.98743 0.06559 0.0
H881 H 0.96468 0.0384 0.00229 0.0
H882 H 0.99593 0.96938 0.05335 0.0
H883 H 0.99691 0.97986 0.11328 0.0
H884 H 0.97698 0.96877 0.094 0.0
H885 H 0.99335 0.04843 0.98502 0.0
H886 H 0.0092 0.04142 0.03128 0.0
H887 H 0.00884 0.03104 0.97117 0.0
H888 H 0.04846 0.01038 0.12285 0.0
H889 H 0.04733 0.98372 0.98087 0.0
H890 H 1.00305 0.0104 0.14467 0.0
H891 H 0.00804 0.0311 0.11621 0.0
H892 H 0.02315 0.02174 0.16105 0.0
H893 H 1.00213 0.9789 0.96931 0.0
H894 H 0.0217 0.98172 0.93192 0.0
H895 H 0.00646 0.99973 0.94071 0.0
C896 C 0.54796 0.99685 0.03143 0.0
C897 C 0.55352 0.01378 0.04562 0.0
C898 C 0.53 0.99285 0.02594 0.0
C899 C 0.51721 0.00594 0.03634 0.0
C900 C 0.52274 0.02303 0.05115 0.0
C901 C 0.54086 0.02683 0.05487 0.0
C902 C 0.52471 0.97464 0.00862 0.0
C903 C 0.50952 0.03723 0.06378 0.0
C904 C 0.47091 1.00166 0.98265 0.0
C905 C 0.46176 0.99403 0.02271 0.0
C906 C 0.48904 0.00525 0.98617 0.0
C907 C 0.49807 1.00173 0.03156 0.0
C908 C 0.48883 0.99408 0.07225 0.0
C909 C 0.47083 0.99003 0.067 0.0
C910 C 0.49851 0.0128 0.94133 0.0
C911 C 0.49785 0.99056 0.1217 0.0
H912 H 0.55772 0.98676 0.02377 0.0
H913 H 0.54511 0.03988 0.06622 0.0
H914 H 0.51665 0.96808 0.0378 0.0
H915 H 0.51645 0.9756 0.97439 0.0
H916 H 0.53629 0.96616 0.00029 0.0
H917 H 0.51595 0.04965 0.0762 0.0
H918 H 0.50119 0.04012 0.03064 0.0
H919 H 0.50063 0.03257 0.094 0.0
H920 H 0.46388 0.0047 0.94832 0.0
H921 H 0.46369 0.98435 0.09821 0.0
H922 H 0.50993 1.00434 0.93141 0.0
H923 H 0.50375 0.02606 0.9505 0.0
H924 H 0.48977 0.01394 0.90806 0.0
H925 H 0.50894 0.98123 0.11632 0.0
H926 H 0.4887 0.98499 0.15003 0.0
H927 H 0.5035 1.003 0.13668 0.0
C928 C 0.0407 1.00164 0.48861 0.0
C929 C 0.04962 0.01006 0.52799 0.0
C930 C 0.02251 0.99844 0.49112 0.0
C931 C 0.01307 1.00328 0.53477 0.0
C932 C 0.02203 0.01173 0.57479 0.0
C933 C 0.04017 0.01528 0.57057 0.0
C934 C 0.01338 0.98993 0.44695 0.0
C935 C 0.01253 0.01672 0.6224 0.0
C936 C 0.96339 0.00931 0.52706 0.0
C937 C 0.95717 0.99294 0.54388 0.0
C938 C 0.98152 0.01275 0.52333 0.0
C939 C 0.99377 0.99969 0.53815 0.0
C940 C 0.98757 0.98315 0.55554 0.0
C941 C 0.96932 0.97988 0.5575 0.0
C942 C 0.98755 0.03034 0.50315 0.0
C943 C 1.00021 0.96902 0.57273 0.0
H944 H 0.04798 0.99771 0.45547 0.0
H945 H 0.04709 0.02163 0.60125 0.0
H946 H 0.00757 0.97714 0.45833 0.0
H947 H 1.0024 0.99843 0.43387 0.0
H948 H 0.0225 0.98759 0.41508 0.0
H949 H 0.02148 0.02275 0.65056 0.0
H950 H 1.00179 0.0262 0.61398 0.0
H951 H 0.00633 0.00486 0.63913 0.0
H952 H 0.95403 0.0194 0.51608 0.0
H953 H 0.96455 0.96728 0.57093 0.0
H954 H 0.99624 0.0283 0.47022 0.0
H955 H 0.99539 0.03741 0.53194 0.0
H956 H 0.97634 0.03887 0.49177 0.0
H957 H 0.00896 0.96509 0.5414 0.0
H958 H 0.99327 0.9571 0.58668 0.0
H959 H 0.00875 0.97424 0.60311 0.0
C960 C 0.11424 0.48799 0.88633 0.0
C961 C 0.10121 0.47589 0.90025 0.0
C962 C 0.1131 0.49725 0.84124 0.0
C963 C 0.09839 0.49456 0.80957 0.0
C964 C 0.08517 0.48226 0.82325 0.0
C965 C 0.08681 0.4729 0.8685 0.0
C966 C 0.12767 0.50996 0.82759 0.0
C967 C 0.06922 0.47924 0.79052 0.0
C968 C 0.09183 0.53104 0.71396 0.0
C969 C 0.10053 0.52393 0.67233 0.0
C970 C 0.09024 0.52128 0.75851 0.0
C971 C 0.09753 0.50409 0.76112 0.0
C972 C 0.10584 0.49671 0.71866 0.0
C973 C 0.1073 0.50674 0.67496 0.0
C974 C 0.08127 0.52953 0.80321 0.0
C975 C 0.11383 0.47846 0.71992 0.0
H976 H 0.12536 0.4903 0.91107 0.0
H977 H 0.07658 0.46378 0.87987 0.0
H978 H 0.13376 0.50596 0.79154 0.0
H979 H 0.12218 0.52339 0.8224 0.0
H980 H 0.13816 0.51057 0.85661 0.0
H981 H 0.0601 0.46928 0.80659 0.0
H982 H 0.06193 0.4918 0.78552 0.0
H983 H 0.07338 0.47476 0.75277 0.0
H984 H 0.08644 0.54426 0.71193 0.0
H985 H 0.11401 0.50109 0.64291 0.0
H986 H 0.09112 0.53197 0.8332 0.0
H987 H 0.07122 0.52041 0.81869 0.0
H988 H 0.0748 0.54223 0.79369 0.0
H989 H 0.1252 0.47832 0.74612 0.0
H990 H 0.11848 0.47409 0.68245 0.0
H991 H 0.10408 0.46876 0.73394 0.0
C992 C 0.72761 0.83925 0.95455 0.0
C993 C 0.73391 0.85164 0.92003 0.0
C994 C 0.73627 0.8367 0.0006 0.0
C995 C 0.7514 0.84688 0.01217 0.0
C996 C 0.75791 0.85917 0.97701 0.0
C997 C 0.74909 0.86139 0.93145 0.0
C998 C 0.72906 0.82339 0.03722 0.0
C999 C 0.77391 0.8704 0.98805 0.0
C1000 C 0.76224 0.85842 0.14631 0.0
C1001 C 0.77706 0.84788 0.15565 0.0
C1002 C 0.75344 0.85773 0.10032 0.0
C1003 C 0.75953 0.8461 0.0627 0.0
C1004 C 0.77425 0.83509 0.07215 0.0
C1005 C 0.78296 0.83618 0.11863 0.0
C1006 C 0.73795 0.86987 0.09151 0.0
C1007 C 0.78098 0.82244 0.03289 0.0
H1008 H 0.71601 0.83154 0.94553 0.0
H1009 H 0.75407 0.87095 0.90484 0.0
H1010 H 0.73968 0.81432 0.04961 0.0
H1011 H 0.72408 0.83027 0.07106 0.0
H1012 H 0.71815 0.81547 0.02088 0.0
H1013 H 0.77786 0.87861 0.95549 0.0
H1014 H 0.77111 0.87927 0.02018 0.0
H1015 H 0.78523 0.86196 -0.00117 0.0
H1016 H 0.7576 0.86748 0.17483 0.0
H1017 H 0.79429 0.82788 0.12599 0.0
H1018 H 0.72629 0.8622 0.07905 0.0
H1019 H 0.74117 0.87935 0.06123 0.0
H1020 H 0.73432 0.87746 0.12561 0.0
H1021 H 0.77003 0.81416 0.01846 0.0
H1022 H 0.79151 0.81368 0.04763 0.0
H1023 H 0.78634 0.82993 0.00065 0.0
C1024 C 0.39968 0.50034 0.16527 0.0
C1025 C 0.4081 0.48391 0.16202 0.0
C1026 C 0.40022 0.5103 0.20939 0.0
C1027 C 0.40939 0.50367 0.25145 0.0
C1028 C 0.41841 0.48735 0.24805 0.0
C1029 C 0.41763 0.4776 0.20325 0.0
C1030 C 0.39034 0.52758 0.21157 0.0
C1031 C 0.42839 0.47993 0.29222 0.0
C1032 C 0.41748 0.53509 0.36047 0.0
C1033 C 0.40367 0.53043 0.3926 0.0
C1034 C 0.41974 0.52633 0.31441 0.0
C1035 C 0.40774 0.51287 0.30035 0.0
C1036 C 0.39358 0.50846 0.33238 0.0
C1037 C 0.3918 0.51723 0.37818 0.0
C1038 C 0.43507 0.53122 0.28126 0.0
C1039 C 0.38032 0.49441 0.31844 0.0
H1040 H 0.39235 0.50537 0.13348 0.0
H1041 H 0.42429 0.46499 0.20072 0.0
H1042 H 0.3791 0.5264 0.23795 0.0
H1043 H 0.39903 0.53821 0.22589 0.0
H1044 H 0.38513 0.53159 0.17437 0.0
H1045 H 0.43615 0.46804 0.28202 0.0
H1046 H 0.43745 0.49001 0.30791 0.0
H1047 H 0.41897 0.47631 0.32229 0.0
H1048 H 0.42682 0.54511 0.37205 0.0
H1049 H 0.3811 0.51363 0.40308 0.0
H1050 H 0.43023 0.53533 0.24381 0.0
H1051 H 0.44367 0.51957 0.27555 0.0
H1052 H 0.44311 0.54208 0.29739 0.0
H1053 H 0.37373 0.49792 0.28268 0.0
H1054 H 0.37005 0.49262 0.34764 0.0
H1055 H 0.38711 0.48163 0.31258 0.0
C1056 C 0.72601 0.17416 0.61865 0.0
C1057 C 0.73231 0.16316 0.65679 0.0
C1058 C 0.73494 0.17532 0.57259 0.0
C1059 C 0.75033 0.16509 0.56472 0.0
C1060 C 0.75686 0.15423 0.60352 0.0
C1061 C 0.7478 0.15344 0.64904 0.0
C1062 C 0.72773 0.18716 0.53206 0.0
C1063 C 0.7731 0.14295 0.59645 0.0
C1064 C 0.76214 0.14965 0.4344 0.0
C1065 C 0.77674 0.16023 0.42306 0.0
C1066 C 0.75315 0.15148 0.47981 0.0
C1067 C 0.75881 0.16434 0.51469 0.0
C1068 C 0.77336 0.17532 0.50319 0.0
C1069 C 0.78228 0.17305 0.45746 0.0
C1070 C 0.73787 0.13932 0.49095 0.0
C1071 C 0.77961 0.18929 0.53941 0.0
H1072 H 0.71415 0.18182 0.62474 0.0
H1073 H 0.75277 0.14493 0.67842 0.0
H1074 H 0.73827 0.19593 0.51766 0.0
H1075 H 0.72304 0.17905 0.5001 0.0
H1076 H 0.7166 0.19541 0.54557 0.0
H1077 H 0.77696 0.13594 0.63131 0.0
H1078 H 0.77064 0.13301 0.56673 0.0
H1079 H 0.78435 0.15118 0.58404 0.0
H1080 H 0.75779 0.13973 0.40784 0.0
H1081 H 0.79342 0.1814 0.44845 0.0
H1082 H 0.72595 0.14711 0.50037 0.0
H1083 H 0.74104 0.13103 0.52399 0.0
H1084 H 0.7347 0.13051 0.45891 0.0
H1085 H 0.76846 0.19791 0.55044 0.0
H1086 H 0.79025 0.1976 0.52331 0.0
H1087 H 0.78465 0.18297 0.57405 0.0
C1088 C 0.92106 0.53206 0.20101 0.0
C1089 C 0.90924 0.52595 0.16457 0.0
C1090 C 0.92264 0.52338 0.24733 0.0
C1091 C 0.91203 0.50841 0.25722 0.0
C1092 C 0.9003 0.50207 0.22015 0.0
C1093 C 0.89909 0.51089 0.17432 0.0
C1094 C 0.93538 0.53038 0.28598 0.0
C1095 C 0.88861 0.48628 0.22942 0.0
C1096 C 0.92083 0.47673 0.36464 0.0
C1097 C 0.90874 0.48279 0.40038 0.0
C1098 C 0.9226 0.48537 0.31832 0.0
C1099 C 0.91188 0.5002 0.30766 0.0
C1100 C 0.89982 0.50643 0.34395 0.0
C1101 C 0.89846 0.49768 0.38986 0.0
C1102 C 0.9357 0.47848 0.28053 0.0
C1103 C 0.88799 0.52206 0.33381 0.0
H1104 H 0.92905 0.54359 0.19337 0.0
H1105 H 0.88994 0.50607 0.14624 0.0
H1106 H 0.92798 0.53545 0.31881 0.0
H1107 H 0.94407 0.51964 0.29959 0.0
H1108 H 0.94372 0.54119 0.27098 0.0
H1109 H 0.88087 0.4825 0.1957 0.0
H1110 H 0.89666 0.4748 0.2412 0.0
H1111 H 0.87929 0.48923 0.26032 0.0
H1112 H 0.92894 0.46533 0.37292 0.0
H1113 H 0.8891 0.50244 0.41742 0.0
H1114 H 0.94442 0.48931 0.26765 0.0
H1115 H 0.92861 0.4734 0.24713 0.0
H1116 H 0.944 0.46772 0.29604 0.0
H1117 H 0.89598 0.53365 0.32267 0.0
H1118 H 0.8799 0.52571 0.36692 0.0
H1119 H 0.87898 0.51899 0.30219 0.0
C1120 C 0.22528 0.16743 0.95854 0.0
C1121 C 0.23153 0.1556 0.92234 0.0
C1122 C 0.23426 0.16958 0.00428 0.0
C1123 C 0.24966 0.15953 0.01381 0.0
C1124 C 0.25607 0.14776 0.97702 0.0
C1125 C 0.24695 0.14597 0.93181 0.0
C1126 C 0.22716 0.18236 0.04267 0.0
C1127 C 0.27232 0.13665 0.9859 0.0
C1128 C 0.28206 0.16957 0.11874 0.0
C1129 C 0.27668 0.15742 0.15511 0.0
C1130 C 0.27289 0.17103 0.07309 0.0
C1131 C 0.25824 0.1599 0.06376 0.0
C1132 C 0.25269 0.1478 0.10073 0.0
C1133 C 0.26193 0.14676 0.14595 0.0
C1134 C 0.27904 0.1842 0.03454 0.0
C1135 C 0.2373 0.1355 0.09196 0.0
H1136 H 0.21349 0.17506 0.95101 0.0
H1137 H 0.25187 0.13682 0.90389 0.0
H1138 H 0.22267 0.17503 0.07627 0.0
H1139 H 0.23772 0.19151 0.055 0.0
H1140 H 0.21593 0.1902 0.02796 0.0
H1141 H 0.27607 0.12882 0.95237 0.0
H1142 H 0.28362 0.14515 -0.00348 0.0
H1143 H 0.26995 0.12745 0.01746 0.0
H1144 H 0.29334 0.17797 0.12603 0.0
H1145 H 0.25769 0.13735 0.17399 0.0
H1146 H 0.26783 0.19248 0.02188 0.0
H1147 H 0.28415 0.17714 0.00115 0.0
H1148 H 0.28961 0.19293 0.04925 0.0
H1149 H 0.22541 0.14312 0.08117 0.0
H1150 H 0.23413 0.12749 0.12558 0.0
H1151 H 0.24037 0.12642 0.06052 0.0
C1152 C 0.58622 0.53409 0.86333 0.0
C1153 C 0.59974 0.52862 0.89554 0.0
C1154 C 0.58373 0.5258 0.8167 0.0
C1155 C 0.5952 0.51198 0.80208 0.0
C1156 C 0.60889 0.50653 0.83454 0.0
C1157 C 0.61093 0.51486 0.88092 0.0
C1158 C 0.56887 0.53178 0.78313 0.0
C1159 C 0.62158 0.49202 0.82007 0.0
C1160 C 0.58545 0.47901 0.6986 0.0
C1161 C 0.59579 0.48573 0.65962 0.0
C1162 C 0.5843 0.48794 0.74468 0.0
C1163 C 0.59382 0.50383 0.75167 0.0
C1164 C 0.60377 0.51094 0.71178 0.0
C1165 C 0.60461 0.50182 0.66628 0.0
C1166 C 0.57344 0.48007 0.7864 0.0
C1167 C 0.61422 0.52777 0.71782 0.0
H1168 H 0.57741 0.54457 0.87497 0.0
H1169 H 0.62139 0.51059 0.90582 0.0
H1170 H 0.57429 0.53703 0.74755 0.0
H1171 H 0.56032 0.52042 0.77336 0.0
H1172 H 0.56065 0.54216 0.80093 0.0
H1173 H 0.63128 0.48912 0.85017 0.0
H1174 H 0.61423 0.47976 0.81132 0.0
H1175 H 0.6289 0.49584 0.78578 0.0
H1176 H 0.57847 0.46667 0.69339 0.0
H1177 H 0.61256 0.50717 0.6362 0.0
H1178 H 0.56474 0.49023 0.80321 0.0
H1179 H 0.5823 0.47524 0.81649 0.0
H1180 H 0.56519 0.46889 0.77321 0.0
H1181 H 0.60572 0.53844 0.7328 0.0
H1182 H 0.62009 0.53228 0.68194 0.0
H1183 H 0.62503 0.52566 0.74522 0.0
C1184 C 0.25168 0.85757 0.65046 0.0
C1185 C 0.23504 0.84975 0.65605 0.0
C1186 C 0.26101 0.85623 0.60549 0.0
C1187 C 0.25356 0.84679 0.565 0.0
C1188 C 0.237 0.83838 0.57076 0.0
C1189 C 0.22787 0.84001 0.61635 0.0
C1190 C 0.27855 0.86552 0.60073 0.0
C1191 C 0.22874 0.82811 0.52835 0.0
C1192 C 0.26692 0.8626 0.43637 0.0
C1193 C 0.28001 0.85043 0.42313 0.0
C1194 C 0.25809 0.86137 0.48216 0.0
C1195 C 0.26227 0.84745 0.5153 0.0
C1196 C 0.27538 0.83498 0.50203 0.0
C1197 C 0.28426 0.83672 0.45606 0.0
C1198 C 0.24445 0.87514 0.49532 0.0
C1199 C 0.27998 0.81986 0.53634 0.0
H1200 H 0.25735 0.86508 0.68108 0.0
H1201 H 0.2151 0.8338 0.62073 0.0
H1202 H 0.28877 0.85626 0.5869 0.0
H1203 H 0.27745 0.87633 0.57293 0.0
H1204 H 0.28309 0.87122 0.63688 0.0
H1205 H 0.21673 0.82089 0.54039 0.0
H1206 H 0.22507 0.83725 0.49762 0.0
H1207 H 0.23832 0.81851 0.51279 0.0
H1208 H 0.26363 0.87324 0.41092 0.0
H1209 H 0.29423 0.82718 0.44548 0.0
H1210 H 0.24849 0.88224 0.52985 0.0
H1211 H 0.23159 0.86875 0.50312 0.0
H1212 H 0.24256 0.88495 0.46491 0.0
H1213 H 0.28526 0.82501 0.57226 0.0
H1214 H 0.28992 0.81087 0.51955 0.0
H1215 H 0.26796 0.81216 0.54526 0.0
C1216 C 0.61551 0.01892 0.18967 0.0
C1217 C 0.60281 0.03122 0.17454 0.0
C1218 C 0.61407 0.01017 0.23555 0.0
C1219 C 0.59938 0.01357 0.2667 0.0
C1220 C 0.58644 0.02595 0.25158 0.0
C1221 C 0.5884 0.03481 0.20566 0.0
C1222 C 0.62836 0.99737 0.2508 0.0
C1223 C 0.5705 0.02971 0.28367 0.0
C1224 C 0.59187 0.97862 0.36615 0.0
C1225 C 0.60054 0.98616 0.40727 0.0
C1226 C 0.59062 0.98775 0.32048 0.0
C1227 C 0.59826 0.00473 0.31615 0.0
C1228 C 0.60652 0.01259 0.35808 0.0
C1229 C 0.60757 1.0032 0.40303 0.0
C1230 C 0.58164 0.97904 0.27645 0.0
C1231 C 0.6149 0.03062 0.35496 0.0
H1232 H 0.62667 0.01616 0.16554 0.0
H1233 H 0.57846 0.04414 0.19351 0.0
H1234 H 0.63451 1.00174 0.28646 0.0
H1235 H 0.62261 0.98413 0.25743 0.0
H1236 H 0.63886 0.99614 0.22201 0.0
H1237 H 0.56141 0.03934 0.26592 0.0
H1238 H 0.56318 0.0173 0.29084 0.0
H1239 H 0.57471 0.03498 0.32058 0.0
H1240 H 0.58629 0.96551 0.36941 0.0
H1241 H 0.61423 0.00917 0.43472 0.0
H1242 H 0.59155 0.97591 0.2472 0.0
H1243 H 0.57187 0.98813 0.25944 0.0
H1244 H 0.57484 0.96664 0.28724 0.0
H1245 H 0.62632 0.03015 0.32905 0.0
H1246 H 0.61957 0.03541 0.39203 0.0
H1247 H 0.6054 0.04033 0.33961 0.0
C1248 C 0.24113 0.36083 0.44734 0.0
C1249 C 0.22779 0.34894 0.43398 0.0
C1250 C 0.24986 0.3595 0.49329 0.0
C1251 C 0.24526 0.3458 0.52668 0.0
C1252 C 0.23175 0.33372 0.5136 0.0
C1253 C 0.22305 0.3355 0.46728 0.0
C1254 C 0.26398 0.37282 0.50611 0.0
C1255 C 0.22664 0.31889 0.54828 0.0
C1256 C 0.27995 0.33723 0.62638 0.0
C1257 C 0.27347 0.34739 0.66615 0.0
C1258 C 0.27045 0.33582 0.5813 0.0
C1259 C 0.25419 0.34485 0.57611 0.0
C1260 C 0.24739 0.35469 0.61672 0.0
C1261 C 0.25711 0.35585 0.66116 0.0
C1262 C 0.27804 0.32514 0.53871 0.0
C1263 C 0.23018 0.36462 0.61258 0.0
H1264 H 0.2448 0.37126 0.42163 0.0
H1265 H 0.21289 0.32617 0.45666 0.0
H1266 H 0.26033 0.38005 0.54075 0.0
H1267 H 0.27665 0.366 0.51355 0.0
H1268 H 0.26607 0.38257 0.47566 0.0
H1269 H 0.21605 0.31048 0.53228 0.0
H1270 H 0.23831 0.31051 0.55623 0.0
H1271 H 0.22206 0.32431 0.58463 0.0
H1272 H 0.2925 0.33053 0.63029 0.0
H1273 H 0.25196 0.36367 0.69183 0.0
H1274 H 0.28186 0.33406 0.50767 0.0
H1275 H 0.268 0.31589 0.52373 0.0
H1276 H 0.28983 0.31748 0.55036 0.0
H1277 H 0.23156 0.37542 0.58486 0.0
H1278 H 0.22602 0.37044 0.64893 0.0
H1279 H 0.21957 0.35576 0.59897 0.0
C1280 C 0.91966 0.03165 0.87015 0.0
C1281 C 0.90653 0.02689 0.90438 0.0
C1282 C 0.92136 0.02263 0.82432 0.0
C1283 C 0.90946 0.00882 0.81257 0.0
C1284 C 0.89612 1.00412 0.84702 0.0
C1285 C 0.89491 0.01314 0.89258 0.0
C1286 C 0.93584 0.02782 0.78855 0.0
C1287 C 0.88295 0.98972 0.83553 0.0
C1288 C 0.89855 0.99716 0.67852 0.0
C1289 C 0.90729 0.981 0.67247 0.0
C1290 C 0.89979 0.00669 0.72325 0.0
C1291 C 0.91002 0.99991 0.76308 0.0
C1292 C 0.91925 0.9838 0.75694 0.0
C1293 C 0.91773 0.97447 0.71158 0.0
C1294 C 0.88961 0.02373 0.72844 0.0
C1295 C 0.93036 0.97625 0.79866 0.0
H1296 H 0.92879 0.04213 0.8796 0.0
H1297 H 0.88472 0.00945 0.91903 0.0
H1298 H 0.94406 0.01616 0.77932 0.0
H1299 H 0.93004 0.03264 0.75294 0.0
H1300 H 0.94448 0.03829 0.80422 0.0
H1301 H 0.8736 0.98747 0.86689 0.0
H1302 H 0.87526 0.99322 0.80157 0.0
H1303 H 0.88991 0.97718 0.82749 0.0
H1304 H 0.89049 1.00233 0.64839 0.0
H1305 H 0.92464 0.96207 0.70683 0.0
H1306 H 0.89846 0.03449 0.74103 0.0
H1307 H 0.87922 0.02219 0.75735 0.0
H1308 H 0.88323 0.02777 0.69276 0.0
H1309 H 0.93968 0.98636 0.81293 0.0
H1310 H 0.93798 0.96451 0.78641 0.0
H1311 H 0.92176 0.97237 0.83039 0.0
C1312 C 0.27798 0.66872 0.95762 0.0
C1313 C 0.27086 0.65864 0.91853 0.0
C1314 C 0.26882 0.67067 0.00306 0.0
C1315 C 0.25225 0.66231 0.00919 0.0
C1316 C 0.24474 0.65274 0.96907 0.0
C1317 C 0.25416 0.65097 0.92437 0.0
C1318 C 0.27716 0.68104 0.04515 0.0
C1319 C 0.22714 0.64359 0.97413 0.0
C1320 C 0.2401 0.64602 0.13813 0.0
C1321 C 0.22735 0.65828 0.15316 0.0
C1322 C 0.24835 0.64735 0.09156 0.0
C1323 C 0.24386 0.66142 0.05927 0.0
C1324 C 0.2309 0.67384 0.074 0.0
C1325 C 0.22266 0.67206 0.12093 0.0
C1326 C 0.26187 0.63364 0.07694 0.0
C1327 C 0.22592 0.68906 0.04048 0.0
H1328 H 0.29079 0.67483 0.95303 0.0
H1329 H 0.24849 0.64325 0.89422 0.0
H1330 H 0.26754 0.69046 0.06135 0.0
H1331 H 0.28119 0.67191 0.07554 0.0
H1332 H 0.28898 0.68846 0.03254 0.0
H1333 H 0.22231 0.63826 0.93782 0.0
H1334 H 0.22834 0.6325 0.00101 0.0
H1335 H 0.2171 0.65279 0.98923 0.0
H1336 H 0.24372 0.63534 0.16308 0.0
H1337 H 0.21297 0.68168 0.13295 0.0
H1338 H 0.27467 0.64007 0.0687 0.0
H1339 H 0.25758 0.62673 0.04234 0.0
H1340 H 0.26398 0.62365 0.10677 0.0
H1341 H 0.23774 0.6972 0.03249 0.0
H1342 H 0.21565 0.69761 0.05753 0.0
H1343 H 0.22096 0.68405 0.00404 0.0
C1344 C 0.42299 0.9749 0.86809 0.0
C1345 C 0.41043 0.98045 0.90313 0.0
C1346 C 0.42461 0.98355 0.82171 0.0
C1347 C 0.41324 0.99784 0.81037 0.0
C1348 C 0.40058 1.00342 0.8458 0.0
C1349 C 0.39938 0.9947 0.89171 0.0
C1350 C 0.43836 0.97739 0.7848 0.0
C1351 C 0.38802 0.01841 0.8349 0.0
C1352 C 0.42105 0.03102 0.70633 0.0
C1353 C 0.40952 0.02471 0.66943 0.0
C1354 C 0.42317 0.02189 0.75177 0.0
C1355 C 0.41343 0.00623 0.76022 0.0
C1356 C 0.40214 0.99962 0.72248 0.0
C1357 C 0.40032 0.00894 0.67766 0.0
C1358 C 0.4354 0.02923 0.79124 0.0
C1359 C 0.39141 0.98305 0.73016 0.0
H1360 H 0.4317 0.96403 0.8772 0.0
H1361 H 0.38964 0.99903 0.91876 0.0
H1362 H 0.43185 0.97236 0.7504 0.0
H1363 H 0.44684 0.98861 0.77345 0.0
H1364 H 0.44683 0.96679 0.80045 0.0
H1365 H 0.37934 0.02149 0.86726 0.0
H1366 H 0.39549 0.03047 0.82492 0.0
H1367 H 0.37958 0.015 0.80231 0.0
H1368 H 0.42835 0.04309 0.69982 0.0
H1369 H 0.39143 1.00393 0.6492 0.0
H1370 H 0.44439 0.01878 0.80515 0.0
H1371 H 0.42759 0.03395 0.82371 0.0
H1372 H 0.44343 0.04038 0.77689 0.0
H1373 H 0.40001 0.97206 0.74248 0.0
H1374 H 0.38434 0.97893 0.69559 0.0
H1375 H 0.38153 0.9853 0.76015 0.0
C1376 C 0.72397 0.66961 0.46285 0.0
C1377 C 0.72864 0.65576 0.43075 0.0
C1378 C 0.73279 0.67198 0.50877 0.0
C1379 C 0.74631 0.66005 0.52276 0.0
C1380 C 0.75081 0.64591 0.49064 0.0
C1381 C 0.74199 0.64403 0.44495 0.0
C1382 C 0.72782 0.68729 0.542 0.0
C1383 C 0.76492 0.63272 0.50453 0.0
C1384 C 0.78124 0.66983 0.62097 0.0
C1385 C 0.77476 0.66029 0.6619 0.0
C1386 C 0.77165 0.67067 0.57591 0.0
C1387 C 0.75535 0.66164 0.5719 0.0
C1388 C 0.74856 0.65244 0.61364 0.0
C1389 C 0.75833 0.65189 0.65806 0.0
C1390 C 0.77921 0.68072 0.53213 0.0
C1391 C 0.73132 0.64251 0.61077 0.0
H1392 H 0.71383 0.67884 0.45146 0.0
H1393 H 0.74561 0.6333 0.42009 0.0
H1394 H 0.72336 0.6824 0.57904 0.0
H1395 H 0.73951 0.69576 0.54868 0.0
H1396 H 0.71717 0.69549 0.52543 0.0
H1397 H 0.76686 0.62253 0.47511 0.0
H1398 H 0.77764 0.63959 0.51085 0.0
H1399 H 0.76136 0.62602 0.54004 0.0
H1400 H 0.79384 0.67649 0.62398 0.0
H1401 H 0.75319 0.64455 0.68963 0.0
H1402 H 0.76916 0.68976 0.51626 0.0
H1403 H 0.78299 0.67135 0.50205 0.0
H1404 H 0.79102 0.68852 0.54284 0.0
H1405 H 0.7207 0.65122 0.59647 0.0
H1406 H 0.72722 0.63719 0.64773 0.0
H1407 H 0.73261 0.63135 0.5841 0.0
C1408 C 0.08716 0.0294 0.37014 0.0
C1409 C 0.09806 0.02221 0.40723 0.0
C1410 C 0.08503 0.02078 0.32385 0.0
C1411 C 0.09409 0.00473 0.31488 0.0
C1412 C 0.10453 0.99715 0.35301 0.0
C1413 C 0.10642 0.006 0.39854 0.0
C1414 C 0.07372 0.02916 0.2839 0.0
C1415 C 0.11452 0.98013 0.34487 0.0
C1416 C 0.08605 0.97521 0.202 0.0
C1417 C 0.09972 0.98066 0.1704 0.0
C1418 C 0.08349 0.98342 0.24872 0.0
C1419 C 0.095 0.99716 0.26381 0.0
C1420 C 0.10876 1.00266 0.23177 0.0
C1421 C 0.11091 0.99436 0.18554 0.0
C1422 C 0.06863 0.97736 0.28205 0.0
C1423 C 0.1215 0.01708 0.24674 0.0
H1424 H 0.08049 0.04181 0.37702 0.0
H1425 H 0.11483 1.00029 0.42709 0.0
H1426 H 0.08226 0.03435 0.25359 0.0
H1427 H 0.06481 0.01923 0.26681 0.0
H1428 H 0.06567 0.04019 0.29892 0.0
H1429 H 0.12056 0.9751 0.37999 0.0
H1430 H 0.10566 0.96983 0.32951 0.0
H1431 H 0.12517 0.9823 0.31709 0.0
H1432 H 0.07723 0.9648 0.18988 0.0
H1433 H 0.1215 0.99861 0.1611 0.0
H1434 H 0.0604 0.98877 0.29341 0.0
H1435 H 0.07409 0.97148 0.31681 0.0
H1436 H 0.06009 0.96743 0.26335 0.0
H1437 H 0.11419 0.02922 0.257 0.0
H1438 H 0.13094 0.02034 0.21634 0.0
H1439 H 0.12912 0.0129 0.28019 0.0
C1440 C 0.72642 0.34195 0.1208 0.0
C1441 C 0.73315 0.35194 0.16063 0.0
C1442 C 0.73573 0.34063 0.07539 0.0
C1443 C 0.75203 0.34957 0.07 0.0
C1444 C 0.75902 0.3593 0.1106 0.0
C1445 C 0.74949 0.36038 0.15527 0.0
C1446 C 0.72796 0.33008 0.03279 0.0
C1447 C 0.77629 0.36912 0.10632 0.0
C1448 C 0.78375 0.34058 0.96263 0.0
C1449 C 0.77941 0.3543 0.9298 0.0
C1450 C 0.77455 0.33844 0.00796 0.0
C1451 C 0.76096 0.35047 0.02062 0.0
C1452 C 0.75664 0.36435 0.98752 0.0
C1453 C 0.76587 0.36604 0.94249 0.0
C1454 C 0.77936 0.3234 0.04231 0.0
C1455 C 0.74244 0.37763 -4e-05 0.0
H1456 H 0.71388 0.33527 0.12499 0.0
H1457 H 0.75483 0.3681 0.18593 0.0
H1458 H 0.72418 0.33907 0.00182 0.0
H1459 H 0.73788 0.32073 0.01769 0.0
H1460 H 0.7161 0.32254 0.04448 0.0
H1461 H 0.78049 0.37502 0.14253 0.0
H1462 H 0.78684 0.36015 0.09302 0.0
H1463 H 0.77498 0.37984 0.0783 0.0
H1464 H 0.79405 0.33133 0.95244 0.0
H1465 H 0.76247 0.37666 0.91709 0.0
H1466 H 0.7675 0.31537 0.05066 0.0
H1467 H 0.78431 0.32864 0.0785 0.0
H1468 H 0.78962 0.31469 0.02587 0.0
H1469 H 0.7298 0.37079 0.0074 0.0
H1470 H 0.74034 0.38732 0.96934 0.0
H1471 H 0.74607 0.38494 0.03452 0.0
C1472 C 0.13066 0.50589 0.39658 0.0
C1473 C 0.1181 0.5184 0.41142 0.0
C1474 C 0.1332 0.50197 0.34579 0.0
C1475 C 0.12254 0.51041 0.30952 0.0
C1476 C 0.1107 0.52388 0.32412 0.0
C1477 C 0.10879 0.52788 0.375 0.0
C1478 C 0.14643 0.488 0.33129 0.0
C1479 C 0.09892 0.53301 0.28655 0.0
C1480 C 0.12862 0.50629 0.16927 0.0
C1481 C 0.11639 0.493 0.15793 0.0
C1482 C 0.13162 0.51145 0.21902 0.0
C1483 C 0.12176 0.50346 0.25777 0.0
C1484 C 0.10988 0.4896 0.24662 0.0
C1485 C 0.10752 0.48439 0.19682 0.0
C1486 C 0.14481 0.52586 0.22988 0.0
C1487 C 0.09892 0.48093 0.28692 0.0
H1488 H 0.1381 0.49876 0.42474 0.0
H1489 H 0.09909 0.53758 0.38639 0.0
H1490 H 0.13941 0.4756 0.32186 0.0
H1491 H 0.15395 0.49209 0.29762 0.0
H1492 H 0.15585 0.4852 0.36217 0.0
H1493 H 0.09164 0.54426 0.30337 0.0
H1494 H 0.10674 0.53794 0.25443 0.0
H1495 H 0.08918 0.52344 0.27156 0.0
H1496 H 0.13566 0.51281 0.13922 0.0
H1497 H 0.09802 0.47415 0.18817 0.0
H1498 H 0.1533 0.5222 0.26213 0.0
H1499 H 0.13776 0.53814 0.24014 0.0
H1500 H 0.15333 0.52866 0.19701 0.0
H1501 H 0.10757 0.47553 0.31672 0.0
H1502 H 0.09062 0.47005 0.27201 0.0
H1503 H 0.09017 0.49086 0.30463 0.0
C1504 C 0.7619 0.88531 0.65172 0.0
C1505 C 0.74604 0.87715 0.66564 0.0
C1506 C 0.76591 0.88812 0.6011 0.0
C1507 C 0.7539 0.88236 0.56399 0.0
C1508 C 0.7371 0.87595 0.57804 0.0
C1509 C 0.73333 0.87356 0.62882 0.0
C1510 C 0.78367 0.89566 0.58739 0.0
C1511 C 0.72387 0.86966 0.53965 0.0
C1512 C 0.76012 0.88682 0.4238 0.0
C1513 C 0.76794 0.87056 0.41259 0.0
C1514 C 0.75648 0.89151 0.47362 0.0
C1515 C 0.76012 0.87928 0.51225 0.0
C1516 C 0.76844 0.86304 0.50096 0.0
C1517 C 0.77254 0.85904 0.45127 0.0
C1518 C 0.74837 0.90925 0.4848 0.0
C1519 C 0.77217 0.84942 0.54096 0.0
H1520 H 0.77164 0.88857 0.68 0.0
H1521 H 0.72083 0.86769 0.63924 0.0
H1522 H 0.79284 0.88474 0.57808 0.0
H1523 H 0.78267 0.9043 0.554 0.0
H1524 H 0.78947 0.90331 0.61886 0.0
H1525 H 0.71055 0.86783 0.55617 0.0
H1526 H 0.72282 0.87905 0.50803 0.0
H1527 H 0.72831 0.85682 0.52411 0.0
H1528 H 0.75677 0.89578 0.39363 0.0
H1529 H 0.77849 0.84641 0.44238 0.0
H1530 H 0.75588 0.91599 0.51492 0.0
H1531 H 0.73469 0.90751 0.49855 0.0
H1532 H 0.74804 0.91789 0.45123 0.0
H1533 H 0.78072 0.85512 0.57054 0.0
H1534 H 0.77875 0.83749 0.52568 0.0
H1535 H 0.75965 0.84532 0.55899 0.0
C1536 C 0.37597 0.49725 0.65935 0.0
C1537 C 0.38795 0.51083 0.64879 0.0
C1538 C 0.37301 0.4918 0.70884 0.0
C1539 C 0.38268 0.4998 0.74809 0.0
C1540 C 0.39434 0.51389 0.7377 0.0
C1541 C 0.39665 0.51939 0.6882 0.0
C1542 C 0.36005 0.47713 0.71886 0.0
C1543 C 0.40509 0.52261 0.77854 0.0
C1544 C 0.37416 0.49768 0.8868 0.0
C1545 C 0.38727 0.48577 0.9018 0.0
C1546 C 0.37119 0.50111 0.83593 0.0
C1547 C 0.3819 0.49274 0.79968 0.0
C1548 C 0.3941 0.47962 0.81444 0.0
C1549 C 0.3965 0.47614 0.86545 0.0
C1550 C 0.35757 0.51468 0.82131 0.0
C1551 C 0.40588 0.4705 0.77687 0.0
H1552 H 0.36907 0.49075 0.6289 0.0
H1553 H 0.40596 0.52985 0.68019 0.0
H1554 H 0.36731 0.46485 0.7279 0.0
H1555 H 0.35163 0.48037 0.75159 0.0
H1556 H 0.35145 0.47452 0.68596 0.0
H1557 H 0.41335 0.53358 0.76412 0.0
H1558 H 0.39629 0.52791 0.80809 0.0
H1559 H 0.41387 0.51274 0.79641 0.0
H1560 H 0.36672 0.50487 0.91484 0.0
H1561 H 0.40655 0.4668 0.87683 0.0
H1562 H 0.3502 0.51039 0.78748 0.0
H1563 H 0.36424 0.52728 0.81216 0.0
H1564 H 0.34805 0.51719 0.85209 0.0
H1565 H 0.3981 0.46561 0.74455 0.0
H1566 H 0.41312 0.45922 0.79367 0.0
H1567 H 0.41566 0.48007 0.76222 0.0
C1568 C 0.75229 0.12533 0.1535 0.0
C1569 C 0.76582 0.1372 0.1658 0.0
C1570 C 0.7475 0.12245 0.10341 0.0
C1571 C 0.75617 0.13199 0.06524 0.0
C1572 C 0.77069 0.14294 0.0772 0.0
C1573 C 0.77547 0.14524 0.12738 0.0
C1574 C 0.73243 0.11011 0.09174 0.0
C1575 C 0.78024 0.15342 0.0375 0.0
C1576 C 0.75152 0.12616 0.92544 0.0
C1577 C 0.73983 0.13991 0.91402 0.0
C1578 C 0.75583 0.12226 0.9753 0.0
C1579 C 0.74867 0.13274 0.0141 0.0
C1580 C 0.73595 0.14582 0.00291 0.0
C1581 C 0.7315 0.14908 0.95292 0.0
C1582 C 0.76886 0.10771 0.98608 0.0
C1583 C 0.72812 0.1574 0.04328 0.0
H1584 H 0.74501 0.11879 0.18305 0.0
H1585 H 0.78604 0.15431 0.13655 0.0
H1586 H 0.72032 0.11789 0.08448 0.0
H1587 H 0.73524 0.10224 0.05759 0.0
H1588 H 0.72974 0.10098 0.12334 0.0
H1589 H 0.79202 0.16032 0.05262 0.0
H1590 H 0.78449 0.1447 0.00642 0.0
H1591 H 0.77117 0.16343 0.02147 0.0
H1592 H 0.75773 0.11881 0.89537 0.0
H1593 H 0.72241 0.15968 0.94426 0.0
H1594 H 0.76499 0.10021 0.01999 0.0
H1595 H 0.78204 0.11352 -0.00673 0.0
H1596 H 0.77004 0.09843 0.95403 0.0
H1597 H 0.72257 0.14924 0.07386 0.0
H1598 H 0.71755 0.16613 0.02865 0.0
H1599 H 0.73862 0.16578 0.05985 0.0
C1600 C 0.89403 0.48467 0.69592 0.0
C1601 C 0.88468 0.4927 0.65689 0.0
C1602 C 0.89078 0.48922 0.74579 0.0
C1603 C 0.87748 0.50173 0.75685 0.0
C1604 C 0.86685 0.50863 0.71795 0.0
C1605 C 0.87079 0.50425 0.66813 0.0
C1606 C 0.90255 0.48168 0.78618 0.0
C1607 C 0.85204 0.52138 0.72849 0.0
C1608 C 0.87129 0.50421 0.89654 0.0
C1609 C 0.88334 0.51759 0.90872 0.0
C1610 C 0.86767 0.50004 0.84639 0.0
C1611 C 0.87664 0.50919 0.80802 0.0
C1612 C 0.88749 0.52377 0.82005 0.0
C1613 C 0.89056 0.52792 0.87035 0.0
C1614 C 0.85531 0.48499 0.83468 0.0
C1615 C 0.89726 0.53393 0.78011 0.0
H1616 H 0.90474 0.47568 0.68743 0.0
H1617 H 0.86331 0.51025 0.63798 0.0
H1618 H 0.91047 0.49241 0.80334 0.0
H1619 H 0.89451 0.47568 0.81634 0.0
H1620 H 0.91172 0.4715 0.77146 0.0
H1621 H 0.84219 0.5214 0.69766 0.0
H1622 H 0.84527 0.51815 0.76415 0.0
H1623 H 0.85746 0.53491 0.73191 0.0
H1624 H 0.86529 0.49647 0.92606 0.0
H1625 H 0.89965 0.53848 0.87941 0.0
H1626 H 0.86309 0.47298 0.82604 0.0
H1627 H 0.8471 0.48804 0.80134 0.0
H1628 H 0.84651 0.482 0.86682 0.0
H1629 H 0.90741 0.5253 0.76285 0.0
H1630 H 0.90391 0.54583 0.79539 0.0
H1631 H 0.88812 0.53809 0.74996 0.0
C1632 C 0.23423 0.14331 0.62624 0.0
C1633 C 0.24339 0.13486 0.66496 0.0
C1634 C 0.23887 0.14054 0.57619 0.0
C1635 C 0.25271 0.12869 0.56469 0.0
C1636 C 0.26091 0.11891 0.60327 0.0
C1637 C 0.25633 0.12231 0.65323 0.0
C1638 C 0.2299 0.15136 0.53606 0.0
C1639 C 0.27519 0.10563 0.59208 0.0
C1640 C 0.25642 0.12168 0.42517 0.0
C1641 C 0.26881 0.13468 0.41274 0.0
C1642 C 0.25212 0.11835 0.47533 0.0
C1643 C 0.26006 0.12861 0.51341 0.0
C1644 C 0.27349 0.14083 0.50123 0.0
C1645 C 0.27787 0.14354 0.45098 0.0
C1646 C 0.23826 0.1047 0.48719 0.0
C1647 C 0.28216 0.15217 0.54079 0.0
H1648 H 0.22416 0.15296 0.63511 0.0
H1649 H 0.2632 0.1155 0.68312 0.0
H1650 H 0.23956 0.16059 0.51915 0.0
H1651 H 0.22493 0.14271 0.50567 0.0
H1652 H 0.21868 0.15917 0.551 0.0
H1653 H 0.27756 0.09668 0.62431 0.0
H1654 H 0.27172 0.0976 0.55871 0.0
H1655 H 0.28768 0.11262 0.58364 0.0
H1656 H 0.24963 0.11456 0.39567 0.0
H1657 H 0.28753 0.15353 0.44161 0.0
H1658 H 0.22547 0.11135 0.49411 0.0
H1659 H 0.24177 0.09724 0.52153 0.0
H1660 H 0.23646 0.09525 0.45575 0.0
H1661 H 0.27227 0.16133 0.55699 0.0
H1662 H 0.29323 0.1601 0.52547 0.0
H1663 H 0.28728 0.1439 0.57178 0.0
C1664 C 0.63542 0.50111 0.16201 0.0
C1665 C 0.62058 0.5114 0.1509 0.0
C1666 C 0.63928 0.49643 0.21172 0.0
C1667 C 0.62766 0.5017 0.25037 0.0
C1668 C 0.61282 0.51232 0.23914 0.0
C1669 C 0.60965 0.51727 0.18962 0.0
C1670 C 0.65564 0.4858 0.22289 0.0
C1671 C 0.59983 0.5179 0.2791 0.0
C1672 C 0.618 0.47694 0.36836 0.0
C1673 C 0.62319 0.48942 0.4043 0.0
C1674 C 0.62117 0.4798 0.3174 0.0
C1675 C 0.62996 0.49537 0.30236 0.0
C1676 C 0.6373 0.50675 0.33881 0.0
C1677 C 0.63369 0.50373 0.38955 0.0
C1678 C 0.61318 0.46725 0.27972 0.0
C1679 C 0.64737 0.5231 0.32414 0.0
H1680 H 0.64396 0.49677 0.13188 0.0
H1681 H 0.59809 0.52511 0.18088 0.0
H1682 H 0.66439 0.4934 0.24831 0.0
H1683 H 0.65215 0.47342 0.24257 0.0
H1684 H 0.66311 0.48244 0.18838 0.0
H1685 H 0.58882 0.5259 0.26372 0.0
H1686 H 0.59417 0.50608 0.29757 0.0
H1687 H 0.60661 0.52577 0.30836 0.0
H1688 H 0.61027 0.46558 0.37948 0.0
H1689 H 0.63823 0.51317 0.41723 0.0
H1690 H 0.6223 0.46483 0.24804 0.0
H1691 H 0.60097 0.47319 0.26416 0.0
H1692 H 0.60971 0.45438 0.29698 0.0
H1693 H 0.65589 0.52055 0.29116 0.0
H1694 H 0.65568 0.52802 0.35548 0.0
H1695 H 0.63793 0.53366 0.31379 0.0
C1696 C 0.25391 0.88521 0.92674 0.0
C1697 C 0.24144 0.87227 0.91426 0.0
C1698 C 0.25816 0.88866 0.97692 0.0
C1699 C 0.25009 0.87856 0.015 0.0
C1700 C 0.23652 0.86648 0.00278 0.0
C1701 C 0.23221 0.86363 0.95244 0.0
C1702 C 0.27215 0.90218 0.98884 0.0
C1703 C 0.22766 0.85538 0.04239 0.0
C1704 C 0.27645 0.86389 0.12709 0.0
C1705 C 0.26776 0.87267 0.16608 0.0
C1706 C 0.27139 0.86643 0.07726 0.0
C1707 C 0.2576 0.87839 0.06617 0.0
C1708 C 0.24985 0.88847 0.10491 0.0
C1709 C 0.25486 0.88531 0.15469 0.0
C1710 C 0.2799 0.85529 0.03696 0.0
C1711 C 0.23559 0.90183 0.09423 0.0
H1712 H 0.26081 0.89219 0.89726 0.0
H1713 H 0.22248 0.8537 0.94298 0.0
H1714 H 0.26846 0.91 0.0224 0.0
H1715 H 0.28476 0.8954 -0.00273 0.0
H1716 H 0.27438 0.91131 0.95695 0.0
H1717 H 0.21635 0.84775 0.02716 0.0
H1718 H 0.23736 0.84597 0.05836 0.0
H1719 H 0.22285 0.86378 0.07352 0.0
H1720 H 0.28647 0.85414 0.13564 0.0
H1721 H 0.24829 0.89234 0.18474 0.0
H1722 H 0.28489 0.86376 0.00627 0.0
H1723 H 0.26994 0.84624 0.02052 0.0
H1724 H 0.29102 0.84727 0.05158 0.0
H1725 H 0.23862 0.90944 0.0598 0.0
H1726 H 0.23385 0.91117 0.12594 0.0
H1727 H 0.22289 0.89492 0.088 0.0
C1728 C 0.61727 0.98026 0.70232 0.0
C1729 C 0.62398 0.99135 0.66497 0.0
C1730 C 0.62024 0.98392 0.75302 0.0
C1731 C 0.6304 0.99886 0.76638 0.0
C1732 C 0.63889 0.00886 0.72885 0.0
C1733 C 0.63545 0.00509 0.6784 0.0
C1734 C 0.61095 0.9729 0.792 0.0
C1735 C 0.65033 0.0245 0.74183 0.0
C1736 C 0.61283 0.02318 0.87894 0.0
C1737 C 0.6233 0.01636 0.91752 0.0
C1738 C 0.61539 0.0179 0.82934 0.0
C1739 C 0.62912 0.00591 0.81794 0.0
C1740 C 0.64051 0.99988 0.85624 0.0
C1741 C 0.63727 0.00496 0.90596 0.0
C1742 C 0.60275 0.02443 0.78962 0.0
C1743 C 0.65568 0.98762 0.84501 0.0
H1744 H 0.60862 0.96944 0.69223 0.0
H1745 H 0.64107 0.01345 0.64963 0.0
H1746 H 0.61993 0.96972 0.82349 0.0
H1747 H 0.59971 0.98051 0.80758 0.0
H1748 H 0.60578 0.96039 0.77608 0.0
H1749 H 0.65891 0.02836 0.70997 0.0
H1750 H 0.64183 0.03591 0.75147 0.0
H1751 H 0.65873 0.02162 0.77488 0.0
H1752 H 0.60195 0.03192 0.88783 0.0
H1753 H 0.64548 0.99981 0.93583 0.0
H1754 H 0.5956 0.0131 0.77284 0.0
H1755 H 0.61011 0.03104 0.75906 0.0
H1756 H 0.5929 0.03386 0.80481 0.0
H1757 H 0.65054 0.97429 0.83608 0.0
H1758 H 0.66488 0.98647 0.87725 0.0
H1759 H 0.66313 0.99227 0.81181 0.0
C1760 C 0.25743 0.38079 0.16734 0.0
C1761 C 0.24415 0.36847 0.17782 0.0
C1762 C 0.26258 0.38417 0.11781 0.0
C1763 C 0.2546 0.37458 0.07839 0.0
C1764 C 0.24061 0.36277 0.08866 0.0
C1765 C 0.23541 0.36004 0.13824 0.0
C1766 C 0.27708 0.39734 0.10802 0.0
C1767 C 0.23188 0.35212 0.04764 0.0
C1768 C 0.25736 0.38262 0.93947 0.0
C1769 C 0.26943 0.36952 0.92538 0.0
C1770 C 0.25365 0.38577 0.99012 0.0
C1771 C 0.26187 0.37523 0.02703 0.0
C1772 C 0.27512 0.36304 0.01318 0.0
C1773 C 0.2789 0.36048 0.96241 0.0
C1774 C 0.24001 0.39943 0.00381 0.0
C1775 C 0.28413 0.35146 0.05148 0.0
H1776 H 0.26405 0.38753 0.19788 0.0
H1777 H 0.22514 0.35051 0.14612 0.0
H1778 H 0.28963 0.39025 0.10119 0.0
H1779 H 0.27415 0.40532 0.07419 0.0
H1780 H 0.27904 0.40636 0.14039 0.0
H1781 H 0.22082 0.34395 0.06186 0.0
H1782 H 0.22673 0.36096 0.01799 0.0
H1783 H 0.24173 0.34326 0.02994 0.0
H1784 H 0.2503 0.38993 0.91091 0.0
H1785 H 0.28836 0.35045 0.95175 0.0
H1786 H 0.24409 0.40688 0.03771 0.0
H1787 H 0.22734 0.3928 0.01246 0.0
H1788 H 0.2377 0.40888 0.97272 0.0
H1789 H 0.28912 0.35947 0.08322 0.0
H1790 H 0.29532 0.34396 0.03517 0.0
H1791 H 0.27446 0.34191 0.06684 0.0
C1792 C 0.89514 0.9788 0.37585 0.0
C1793 C 0.88605 0.98781 0.41368 0.0
C1794 C 0.89266 0.9832 0.32547 0.0
C1795 C 0.8805 0.99664 0.31279 0.0
C1796 C 0.87002 0.00452 0.3504 0.0
C1797 C 0.87308 1.00017 0.40067 0.0
C1798 C 0.90417 0.97454 0.28636 0.0
C1799 C 0.85644 0.0184 0.33794 0.0
C1800 C 0.89524 0.02307 0.20102 0.0
C1801 C 0.88662 0.01427 0.16188 0.0
C1802 C 0.89263 0.018 0.25081 0.0
C1803 C 0.8808 1.00408 0.26162 0.0
C1804 C 0.87094 0.99616 0.22268 0.0
C1805 C 0.87413 1.00121 0.17301 0.0
C1806 C 0.90351 0.02669 0.29138 0.0
C1807 C 0.85777 0.98171 0.23309 0.0
H1808 H 0.90511 0.96916 0.3857 0.0
H1809 H 0.86577 0.00692 0.42984 0.0
H1810 H 0.89607 0.96965 0.25468 0.0
H1811 H 0.91355 0.98439 0.27107 0.0
H1812 H 0.91186 0.96333 0.30184 0.0
H1813 H 0.84711 0.02056 0.3694 0.0
H1814 H 0.86317 0.03106 0.32989 0.0
H1815 H 0.84885 0.01465 0.304 0.0
H1816 H 0.90486 0.0332 0.19264 0.0
H1817 H 0.86723 0.99456 0.14283 0.0
H1818 H 0.91267 0.01688 0.30797 0.0
H1819 H 0.89488 0.03156 0.32191 0.0
H1820 H 0.91139 0.03794 0.27698 0.0
H1821 H 0.86486 0.96921 0.24065 0.0
H1822 H 0.84876 0.97953 0.20081 0.0
H1823 H 0.84978 0.98486 0.26675 0.0
C1824 C 0.24843 0.62731 0.64359 0.0
C1825 C 0.26465 0.63326 0.66236 0.0
C1826 C 0.24607 0.62458 0.59213 0.0
C1827 C 0.26022 0.62802 0.55909 0.0
C1828 C 0.27715 0.63182 0.57843 0.0
C1829 C 0.27918 0.63438 0.63002 0.0
C1830 C 0.22793 0.61997 0.5728 0.0
C1831 C 0.29267 0.63525 0.54444 0.0
C1832 C 0.25391 0.62322 0.41855 0.0
C1833 C 0.24792 0.64015 0.40651 0.0
C1834 C 0.25793 0.61885 0.46839 0.0
C1835 C 0.25635 0.63194 0.50599 0.0
C1836 C 0.25075 0.64918 0.49331 0.0
C1837 C 0.24632 0.65297 0.44377 0.0
C1838 C 0.26332 0.60022 0.4809 0.0
C1839 C 0.2494 0.66369 0.53204 0.0
H1840 H 0.23723 0.62596 0.66847 0.0
H1841 H 0.29193 0.6384 0.64443 0.0
H1842 H 0.22141 0.63208 0.55864 0.0
H1843 H 0.22878 0.61049 0.54122 0.0
H1844 H 0.2195 0.61423 0.60265 0.0
H1845 H 0.30539 0.63435 0.56499 0.0
H1846 H 0.29291 0.6258 0.51271 0.0
H1847 H 0.29152 0.64871 0.52854 0.0
H1848 H 0.255 0.61335 0.38929 0.0
H1849 H 0.24186 0.6661 0.43386 0.0
H1850 H 0.25235 0.59358 0.50079 0.0
H1851 H 0.27489 0.60009 0.50633 0.0
H1852 H 0.26651 0.59244 0.44679 0.0
H1853 H 0.23936 0.66019 0.56052 0.0
H1854 H 0.2457 0.67657 0.51525 0.0
H1855 H 0.26218 0.6653 0.55177 0.0
C1856 C 0.37529 1.00341 0.17033 0.0
C1857 C 0.39147 0.99547 0.15914 0.0
C1858 C 0.37088 0.00755 0.22005 0.0
C1859 C 0.3833 1.00421 0.2585 0.0
C1860 C 0.39965 0.99615 0.24702 0.0
C1861 C 0.40339 0.99159 0.1975 0.0
C1862 C 0.35306 0.01542 0.23145 0.0
C1863 C 0.41349 0.99283 0.28676 0.0
C1864 C 0.38834 0.02952 0.37809 0.0
C1865 C 0.38505 0.01619 0.41325 0.0
C1866 C 0.38596 0.02646 0.32687 0.0
C1867 C 0.37994 0.00974 0.31073 0.0
C1868 C 0.37444 0.99709 0.34628 0.0
C1869 C 0.37717 1.00041 0.39734 0.0
C1870 C 0.39187 0.0404 0.29017 0.0
C1871 C 0.36736 0.97935 0.33033 0.0
H1872 H 0.36607 0.00623 0.1403 0.0
H1873 H 0.41597 0.9856 0.18842 0.0
H1874 H 0.34559 0.00639 0.25629 0.0
H1875 H 0.35456 0.02808 0.25185 0.0
H1876 H 0.34518 0.01777 0.19699 0.0
H1877 H 0.42567 0.98687 0.2711 0.0
H1878 H 0.41706 0.00541 0.30548 0.0
H1879 H 0.4082 0.98386 0.31587 0.0
H1880 H 0.39397 0.04197 0.39011 0.0
H1881 H 0.37411 0.9902 0.42434 0.0
H1882 H 0.38269 0.04132 0.25793 0.0
H1883 H 0.40504 0.03678 0.27527 0.0
H1884 H 0.39289 0.05359 0.3081 0.0
H1885 H 0.35847 0.98066 0.29751 0.0
H1886 H 0.36009 0.97276 0.3612 0.0
H1887 H 0.37849 0.9707 0.31916 0.0
C1888 C 0.75991 0.62627 0.16267 0.0
C1889 C 0.74625 0.63808 0.17389 0.0
C1890 C 0.76533 0.62358 0.11299 0.0
C1891 C 0.75722 0.63338 0.07425 0.0
C1892 C 0.74295 0.64477 0.08525 0.0
C1893 C 0.73748 0.64678 0.1349 0.0
C1894 C 0.78016 0.61086 0.10234 0.0
C1895 C 0.73409 0.65564 0.04501 0.0
C1896 C 0.78109 0.64861 0.95869 0.0
C1897 C 0.77175 0.63956 0.92136 0.0
C1898 C 0.77744 0.64571 0.00939 0.0
C1899 C 0.76444 0.63319 0.02279 0.0
C1900 C 0.75637 0.6227 0.98545 0.0
C1901 C 0.75995 0.62618 0.93494 0.0
C1902 C 0.78626 0.65725 0.04817 0.0
C1903 C 0.74299 0.60873 -0.00141 0.0
H1904 H 0.76658 0.61936 0.19276 0.0
H1905 H 0.72694 0.65596 0.14341 0.0
H1906 H 0.77734 0.60296 0.06822 0.0
H1907 H 0.79249 0.61832 0.09547 0.0
H1908 H 0.78247 0.60175 0.13424 0.0
H1909 H 0.72292 0.66356 0.05979 0.0
H1910 H 0.74382 0.66477 0.02797 0.0
H1911 H 0.72906 0.64697 0.01473 0.0
H1912 H 0.79033 0.65888 0.94835 0.0
H1913 H 0.75299 0.61888 0.90609 0.0
H1914 H 0.79135 0.64919 0.07963 0.0
H1915 H 0.77645 0.66661 0.06387 0.0
H1916 H 0.79735 0.66497 0.03218 0.0
H1917 H 0.74731 0.6011 0.03187 0.0
H1918 H 0.74071 0.59947 0.96695 0.0
H1919 H 0.73025 0.6151 0.00804 0.0
C1920 C 0.13656 0.99567 0.89962 0.0
C1921 C 0.12062 1.0015 0.91991 0.0
C1922 C 0.14036 0.99854 0.84888 0.0
C1923 C 0.12752 0.00675 0.81823 0.0
C1924 C 0.11169 0.01324 0.83952 0.0
C1925 C 0.10854 0.01069 0.89049 0.0
C1926 C 0.15763 0.99203 0.82789 0.0
C1927 C 0.09751 0.02179 0.80796 0.0
C1928 C 0.1308 0.02383 0.68669 0.0
C1929 C 0.1228 0.00998 0.6604 0.0
C1930 C 0.13448 0.02218 0.73788 0.0
C1931 C 0.12926 0.00667 0.76316 0.0
C1932 C 0.12241 0.99218 0.73586 0.0
C1933 C 0.11953 0.99394 0.68439 0.0
C1934 C 0.14271 0.03751 0.76542 0.0
C1935 C 0.11643 0.9755 0.76165 0.0
H1936 H 0.14583 0.98856 0.92307 0.0
H1937 H 0.09621 0.01504 0.9069 0.0
H1938 H 0.15574 0.97874 0.81136 0.0
H1939 H 0.16257 1.00089 0.79796 0.0
H1940 H 0.16783 0.99095 0.85764 0.0
H1941 H 0.08615 0.02637 0.83077 0.0
H1942 H 0.10296 0.03325 0.78744 0.0
H1943 H 0.0926 0.01224 0.77965 0.0
H1944 H 0.13362 0.03613 0.66762 0.0
H1945 H 0.11337 0.98326 0.66379 0.0
H1946 H 0.15203 0.0328 0.79456 0.0
H1947 H 0.13226 0.04525 0.78443 0.0
H1948 H 0.14982 0.04645 0.73943 0.0
H1949 H 0.12699 0.97029 0.7862 0.0
H1950 H 0.11261 0.96505 0.73454 0.0
H1951 H 0.10488 0.97846 0.78576 0.0
C1952 C 0.75167 0.38558 0.66006 0.0
C1953 C 0.76578 0.37444 0.67247 0.0
C1954 C 0.74694 0.38835 0.60988 0.0
C1955 C 0.75627 0.37939 0.57173 0.0
C1956 C 0.77126 0.36913 0.58388 0.0
C1957 C 0.77595 0.36696 0.63413 0.0
C1958 C 0.73134 0.39997 0.59799 0.0
C1959 C 0.78151 0.35926 0.54422 0.0
C1960 C 0.73292 0.36185 0.45762 0.0
C1961 C 0.74094 0.37164 0.41953 0.0
C1962 C 0.73707 0.36495 0.5079 0.0
C1963 C 0.74913 0.37853 0.52022 0.0
C1964 C 0.75604 0.3895 0.48219 0.0
C1965 C 0.75209 0.38571 0.43199 0.0
C1966 C 0.72963 0.35278 0.54736 0.0
C1967 C 0.76834 0.40456 0.4942 0.0
H1968 H 0.74397 0.39169 0.68955 0.0
H1969 H 0.78697 0.35845 0.64337 0.0
H1970 H 0.73401 0.4082 0.56451 0.0
H1971 H 0.7197 0.39163 0.58945 0.0
H1972 H 0.72793 0.40873 0.62994 0.0
H1973 H 0.79348 0.3528 0.55964 0.0
H1974 H 0.77298 0.34897 0.52723 0.0
H1975 H 0.78558 0.36832 0.5138 0.0
H1976 H 0.72427 0.35097 0.44801 0.0
H1977 H 0.75806 0.39349 0.40248 0.0
H1978 H 0.72346 0.3605 0.57797 0.0
H1979 H 0.74045 0.3449 0.56414 0.0
H1980 H 0.71963 0.34357 0.53182 0.0
H1981 H 0.76392 0.41174 0.52819 0.0
H1982 H 0.7693 0.41403 0.46259 0.0
H1983 H 0.78173 0.39931 0.50186 0.0
C1984 C 0.10972 0.41093 0.12567 0.0
C1985 C 0.11881 0.421 0.08999 0.0
C1986 C 0.11862 0.39837 0.15531 0.0
C1987 C 0.13703 0.39594 0.14929 0.0
C1988 C 0.14603 0.40544 0.1115 0.0
C1989 C 0.13683 0.41777 0.08235 0.0
C1990 C 0.1085 0.38835 0.19467 0.0
C1991 C 0.16564 0.40331 0.10362 0.0
C1992 C 0.16725 0.38385 0.25721 0.0
C1993 C 0.17233 0.36662 0.24469 0.0
C1994 C 0.15491 0.39312 0.2282 0.0
C1995 C 0.14741 0.385 0.18538 0.0
C1996 C 0.15162 0.3672 0.17435 0.0
C1997 C 0.16405 0.3582 0.20415 0.0
C1998 C 0.15078 0.41203 0.24163 0.0
C1999 C 0.14381 0.358 0.12936 0.0
H2000 H 0.0958 0.4133 0.13179 0.0
H2001 H 0.14397 0.42538 0.05467 0.0
H2002 H 0.11193 0.37413 0.19349 0.0
H2003 H 0.11213 0.39335 0.23237 0.0
H2004 H 0.09402 0.38977 0.18987 0.0
H2005 H 0.17042 0.41067 0.07034 0.0
H2006 H 0.17282 0.4082 0.13713 0.0
H2007 H 0.16905 0.38919 0.09888 0.0
H2008 H 0.17346 0.39042 0.28872 0.0
H2009 H 0.16789 0.34489 0.1942 0.0
H2010 H 0.13633 0.41418 0.24248 0.0
H2011 H 0.15632 0.42092 0.21265 0.0
H2012 H 0.15636 0.41585 0.27859 0.0
H2013 H 0.12941 0.36044 0.12706 0.0
H2014 H 0.14616 0.34355 0.13035 0.0
H2015 H 0.14984 0.36334 0.0947 0.0
C2016 C 0.87112 0.916 0.50443 0.0
C2017 C 0.88892 0.91984 0.49529 0.0
C2018 C 0.862 0.90349 0.47557 0.0
C2019 C 0.87087 0.89448 0.4365 0.0
C2020 C 0.88915 0.89741 0.42928 0.0
C2021 C 0.89797 0.91009 0.45871 0.0
C2022 C 0.84255 0.90077 0.48485 0.0
C2023 C 0.89916 0.88792 0.38854 0.0
C2024 C 0.84454 0.85674 0.37856 0.0
C2025 C 0.83595 0.8654 0.339 0.0
C2026 C 0.85679 0.86571 0.40911 0.0
C2027 C 0.86045 0.88375 0.39994 0.0
C2028 C 0.85261 0.89218 0.35815 0.0
C2029 C 0.84052 0.88291 0.32826 0.0
C2030 C 0.865 0.85618 0.45287 0.0
C2031 C 0.85614 0.91136 0.34675 0.0
H2032 H 0.86403 0.92337 0.53282 0.0
H2033 H 0.91172 0.91294 0.45139 0.0
H2034 H 0.8349 0.90599 0.45264 0.0
H2035 H 0.8395 0.88652 0.48803 0.0
H2036 H 0.83798 0.90752 0.51945 0.0
H2037 H 0.91365 0.88951 0.39275 0.0
H2038 H 0.89594 0.87366 0.38859 0.0
H2039 H 0.89522 0.89327 0.35151 0.0
H2040 H 0.84108 0.84322 0.38722 0.0
H2041 H 0.83404 0.8897 0.29762 0.0
H2042 H 0.85896 0.86094 0.48824 0.0
H2043 H 0.87933 0.85897 0.45503 0.0
H2044 H 0.86303 0.84169 0.45041 0.0
H2045 H 0.85065 0.9197 0.37717 0.0
H2046 H 0.85014 0.91556 0.31069 0.0
H2047 H 0.87052 0.91389 0.34516 0.0
C2048 C 0.36764 0.5876 0.57741 0.0
C2049 C 0.38535 0.58347 0.58713 0.0
C2050 C 0.35841 0.59974 0.60721 0.0
C2051 C 0.36705 0.60802 0.64799 0.0
C2052 C 0.38518 0.60462 0.65649 0.0
C2053 C 0.39414 0.59237 0.62595 0.0
C2054 C 0.33912 0.60301 0.59649 0.0
C2055 C 0.39491 0.61328 0.69927 0.0
C2056 C 0.34119 0.64625 0.70462 0.0
C2057 C 0.33173 0.63769 0.74264 0.0
C2058 C 0.35359 0.63705 0.67525 0.0
C2059 C 0.35653 0.61886 0.68401 0.0
C2060 C 0.3478 0.61047 0.72435 0.0
C2061 C 0.33556 0.61997 0.75314 0.0
C2062 C 0.36273 0.64655 0.63298 0.0
C2063 C 0.35052 0.59112 0.7352 0.0
H2064 H 0.36076 0.58089 0.54731 0.0
H2065 H 0.40781 0.58927 0.63377 0.0
H2066 H 0.33103 0.5979 0.6279 0.0
H2067 H 0.3365 0.61735 0.59352 0.0
H2068 H 0.33468 0.59653 0.56131 0.0
H2069 H 0.40936 0.61104 0.69711 0.0
H2070 H 0.39236 0.62769 0.69966 0.0
H2071 H 0.39006 0.6079 0.73534 0.0
H2072 H 0.33832 0.65993 0.69617 0.0
H2073 H 0.3284 0.61324 0.78256 0.0
H2074 H 0.35707 0.64216 0.59668 0.0
H2075 H 0.37699 0.64332 0.63248 0.0
H2076 H 0.36117 0.66108 0.63583 0.0
H2077 H 0.34502 0.58315 0.70398 0.0
H2078 H 0.34402 0.58697 0.77056 0.0
H2079 H 0.36478 0.58804 0.73783 0.0
C2080 C 0.66747 0.12658 0.82021 0.0
C2081 C 0.67194 0.14391 0.83354 0.0
C2082 C 0.65529 0.11681 0.84837 0.0
C2083 C 0.64733 0.12451 0.8911 0.0
C2084 C 0.6508 0.14243 0.90262 0.0
C2085 C 0.66309 0.15193 0.8737 0.0
C2086 C 0.65195 0.09779 0.8344 0.0
C2087 C 0.64246 0.15123 0.94744 0.0
C2088 C 0.61072 0.09699 0.95022 0.0
C2089 C 0.62018 0.08736 0.98619 0.0
C2090 C 0.61912 0.10988 0.9206 0.0
C2091 C 0.6374 0.11308 0.92687 0.0
C2092 C 0.64675 0.10399 0.96485 0.0
C2093 C 0.63804 0.09134 -0.00596 0.0
C2094 C 0.60861 0.11945 0.88107 0.0
C2095 C 0.66626 0.10691 0.97293 0.0
H2096 H 0.67412 0.1203 0.789 0.0
H2097 H 0.66645 0.16532 0.88429 0.0
H2098 H 0.65789 0.08904 0.86314 0.0
H2099 H 0.6376 0.09503 0.83349 0.0
H2100 H 0.65766 0.09434 0.79735 0.0
H2101 H 0.64412 0.16577 0.94655 0.0
H2102 H 0.62819 0.14811 0.94937 0.0
H2103 H 0.64866 0.14615 0.98222 0.0
H2104 H 0.59692 0.09403 0.94391 0.0
H2105 H 0.64547 0.08406 0.02188 0.0
H2106 H 0.61249 0.1146 0.84343 0.0
H2107 H 0.61145 0.1338 0.88224 0.0
H2108 H 0.5942 0.11743 0.88568 0.0
H2109 H 0.67365 0.10243 0.93938 0.0
H2110 H 0.67135 0.09967 0.00609 0.0
H2111 H 0.66906 0.12115 0.97801 0.0
C2112 C 0.17029 0.62336 0.33772 0.0
C2113 C 0.1753 0.64068 0.34947 0.0
C2114 C 0.1582 0.61411 0.36747 0.0
C2115 C 0.15085 0.62233 0.4103 0.0
C2116 C 0.15515 0.64013 0.42103 0.0
C2117 C 0.16734 0.64912 0.39045 0.0
C2118 C 0.15398 0.59519 0.35437 0.0
C2119 C 0.14755 0.6494 0.46614 0.0
C2120 C 0.11227 0.59686 0.46599 0.0
C2121 C 0.12091 0.58616 0.50116 0.0
C2122 C 0.12161 0.60958 0.4382 0.0
C2123 C 0.14 0.61161 0.44573 0.0
C2124 C 0.1485 0.60164 0.48355 0.0
C2125 C 0.13887 0.58908 0.51072 0.0
C2126 C 0.11201 0.62005 0.39867 0.0
C2127 C 0.16806 0.60339 0.49313 0.0
H2128 H 0.17628 0.61675 0.30597 0.0
H2129 H 0.17117 0.66248 0.39988 0.0
H2130 H 0.15914 0.58634 0.38406 0.0
H2131 H 0.1395 0.59322 0.35251 0.0
H2132 H 0.15981 0.59112 0.31798 0.0
H2133 H 0.15029 0.66379 0.46562 0.0
H2134 H 0.13309 0.64735 0.46808 0.0
H2135 H 0.15335 0.64376 0.50076 0.0
H2136 H 0.0984 0.59472 0.45838 0.0
H2137 H 0.14565 0.58098 0.53808 0.0
H2138 H 0.11578 0.61514 0.361 0.0
H2139 H 0.11577 0.63417 0.40063 0.0
H2140 H 0.09747 0.61896 0.40252 0.0
H2141 H 0.17546 0.59815 0.46051 0.0
H2142 H 0.1723 0.5961 0.52714 0.0
H2143 H 0.17175 0.61746 0.49757 0.0
C2144 C 0.63986 0.92189 0.57147 0.0
C2145 C 0.62185 0.92471 0.58031 0.0
C2146 C 0.64952 0.90961 0.59969 0.0
C2147 C 0.64097 0.89981 0.63771 0.0
C2148 C 0.62255 0.90174 0.6446 0.0
C2149 C 0.6132 0.91421 0.61588 0.0
C2150 C 0.66912 0.90797 0.59086 0.0
C2151 C 0.6129 0.89139 0.68424 0.0
C2152 C 0.66857 0.86254 0.69293 0.0
C2153 C 0.67658 0.87103 0.73379 0.0
C2154 C 0.65619 0.87139 0.66264 0.0
C2155 C 0.65176 0.88915 0.67346 0.0
C2156 C 0.65907 0.8974 0.71636 0.0
C2157 C 0.67135 0.88826 0.74591 0.0
C2158 C 0.64862 0.86207 0.61753 0.0
C2159 C 0.65471 0.91628 0.7295 0.0
H2160 H 0.64667 0.92986 0.54391 0.0
H2161 H 0.59929 0.91628 0.62297 0.0
H2162 H 0.67637 0.91319 0.62384 0.0
H2163 H 0.67289 0.89393 0.58641 0.0
H2164 H 0.67348 0.91532 0.5571 0.0
H2165 H 0.59837 0.89245 0.68009 0.0
H2166 H 0.61669 0.87727 0.68269 0.0
H2167 H 0.61661 0.89642 0.72185 0.0
H2168 H 0.67256 0.84925 0.68319 0.0
H2169 H 0.67739 0.89491 0.77754 0.0
H2170 H 0.63417 0.86419 0.61521 0.0
H2171 H 0.65128 0.84767 0.61838 0.0
H2172 H 0.65453 0.86759 0.58294 0.0
H2173 H 0.65994 0.92519 0.70008 0.0
H2174 H 0.6604 0.92032 0.76614 0.0
H2175 H 0.64022 0.91819 0.73088 0.0
C2176 C 0.34536 0.35688 0.87795 0.0
C2177 C 0.33599 0.36564 0.84004 0.0
C2178 C 0.35802 0.36583 0.90714 0.0
C2179 C 0.36134 0.38395 0.89825 0.0
C2180 C 0.35274 0.39248 0.85785 0.0
C2181 C 0.34022 0.38325 0.82932 0.0
C2182 C 0.36704 0.35617 0.94938 0.0
C2183 C 0.35591 0.41175 0.84669 0.0
C2184 C 0.37294 0.41588 0.00268 0.0
C2185 C 0.39054 0.42002 -0.00824 0.0
C2186 C 0.36364 0.40333 0.97443 0.0
C2187 C 0.37211 0.39463 0.93408 0.0
C2188 C 0.39024 0.39784 0.92508 0.0
C2189 C 0.39925 0.41052 0.95403 0.0
C2190 C 0.34437 0.40027 0.98572 0.0
C2191 C 0.39983 0.38872 0.88288 0.0
H2192 H 0.34219 0.34329 0.88655 0.0
H2193 H 0.33315 0.39011 0.7999 0.0
H2194 H 0.38134 0.3592 0.95003 0.0
H2195 H 0.36143 0.36058 0.98566 0.0
H2196 H 0.36529 0.34166 0.94636 0.0
H2197 H 0.34941 0.41601 0.81142 0.0
H2198 H 0.35074 0.41991 0.87793 0.0
H2199 H 0.37024 0.41444 0.84368 0.0
H2200 H 0.36612 0.42306 0.03199 0.0
H2201 H 0.41285 0.41363 0.94527 0.0
H2202 H 0.34158 0.38595 0.98863 0.0
H2203 H 0.33621 0.40553 0.95459 0.0
H2204 H 0.34018 0.40677 0.02108 0.0
H2205 H 0.39666 0.37444 0.88224 0.0
H2206 H 0.41435 0.39034 0.88595 0.0
H2207 H 0.39548 0.39436 0.84658 0.0
C2208 C 0.84071 0.12378 0.25562 0.0
C2209 C 0.83523 0.14066 0.24087 0.0
C2210 C 0.85292 0.11414 0.22711 0.0
C2211 C 0.8598 0.12149 0.18245 0.0
C2212 C 0.85521 0.13898 0.16911 0.0
C2213 C 0.84299 0.14839 0.19856 0.0
C2214 C 0.85752 0.09561 0.24311 0.0
C2215 C 0.8623 0.14736 0.12202 0.0
C2216 C 0.89712 0.09513 0.12239 0.0
C2217 C 0.88776 0.08435 0.08884 0.0
C2218 C 0.88839 0.10799 0.15138 0.0
C2219 C 0.86986 0.10999 0.14704 0.0
C2220 C 0.86054 0.0997 0.11148 0.0
C2221 C 0.86959 0.08711 0.0828 0.0
C2222 C 0.89885 0.11887 0.18826 0.0
C2223 C 0.84079 0.10132 0.10554 0.0
H2224 H 0.83488 0.11775 0.28848 0.0
H2225 H 0.8388 0.16141 0.18682 0.0
H2226 H 0.85168 0.08605 0.21631 0.0
H2227 H 0.872 0.09364 0.2426 0.0
H2228 H 0.85255 0.09252 0.28125 0.0
H2229 H 0.85978 0.16178 0.12102 0.0
H2230 H 0.87669 0.14504 0.11862 0.0
H2231 H 0.85589 0.14126 0.08888 0.0
H2232 H 0.91116 0.09312 0.12727 0.0
H2233 H 0.86222 0.07892 0.05688 0.0
H2234 H 0.89571 0.11458 0.22696 0.0
H2235 H 0.89522 0.133 0.18525 0.0
H2236 H 0.91328 0.11751 0.18237 0.0
H2237 H 0.8342 0.09698 0.14052 0.0
H2238 H 0.83568 0.09322 0.07399 0.0
H2239 H 0.83705 0.11526 0.09906 0.0
C2240 C 0.89995 0.59423 0.94454 0.0
C2241 C 0.89125 0.58567 0.98403 0.0
C2242 C 0.89122 0.60694 0.9151 0.0
C2243 C 0.87337 0.61113 0.92532 0.0
C2244 C 0.86493 0.60332 0.96709 0.0
C2245 C 0.87396 0.59074 -0.00413 0.0
C2246 C 0.90077 0.61509 0.87134 0.0
C2247 C 0.84594 0.6074 0.97961 0.0
C2248 C 0.84789 0.64968 0.8691 0.0
C2249 C 0.83768 0.64107 0.83264 0.0
C2250 C 0.86044 0.64036 0.89768 0.0
C2251 C 0.86277 0.62203 0.88967 0.0
C2252 C 0.85331 0.61359 0.85063 0.0
C2253 C 0.84094 0.6232 0.82265 0.0
C2254 C 0.87042 0.64991 0.93842 0.0
C2255 C 0.8554 0.5941 0.8405 0.0
H2256 H 0.91331 0.5904 0.93507 0.0
H2257 H 0.86715 0.5843 0.02648 0.0
H2258 H 0.89569 0.60935 0.8359 0.0
H2259 H 0.89836 0.62951 0.86989 0.0
H2260 H 0.91521 0.61272 0.87316 0.0
H2261 H 0.84178 0.60139 0.01564 0.0
H2262 H 0.84388 0.62186 0.98187 0.0
H2263 H 0.83725 0.60231 0.94941 0.0
H2264 H 0.84548 0.66348 0.8771 0.0
H2265 H 0.83321 0.61645 0.79433 0.0
H2266 H 0.88457 0.64622 0.9378 0.0
H2267 H 0.86509 0.64604 0.9755 0.0
H2268 H 0.86929 0.66445 0.93472 0.0
H2269 H 0.86953 0.59064 0.8365 0.0
H2270 H 0.84832 0.58987 0.80606 0.0
H2271 H 0.85014 0.58648 0.87267 0.0
C2272 C 0.11081 0.09003 0.62607 0.0
C2273 C 0.11959 0.08029 0.58895 0.0
C2274 C 0.11982 0.10274 0.6549 0.0
C2275 C 0.13803 0.10569 0.64655 0.0
C2276 C 0.14666 0.09657 0.60728 0.0
C2277 C 0.13735 0.08404 0.57898 0.0
C2278 C 0.11008 0.11232 0.696 0.0
C2279 C 0.16605 0.09927 0.59694 0.0
C2280 C 0.16442 0.14409 0.70034 0.0
C2281 C 0.17347 0.13581 0.7397 0.0
C2282 C 0.15201 0.13477 0.67124 0.0
C2283 C 0.14863 0.11677 0.68177 0.0
C2284 C 0.15693 0.10872 0.72343 0.0
C2285 C 0.16922 0.11833 0.75179 0.0
C2286 C 0.14331 0.14389 0.62751 0.0
C2287 C 0.15368 0.0896 0.73628 0.0
H2288 H 0.09709 0.08724 0.63403 0.0
H2289 H 0.14424 0.07666 0.55025 0.0
H2290 H 0.11447 0.10726 0.73296 0.0
H2291 H 0.11309 0.12662 0.695 0.0
H2292 H 0.09558 0.1105 0.69307 0.0
H2293 H 0.17046 0.09225 0.56262 0.0
H2294 H 0.169 0.11351 0.59263 0.0
H2295 H 0.1739 0.09438 0.62917 0.0
H2296 H 0.16763 0.15759 0.69071 0.0
H2297 H 0.17604 0.11185 0.78236 0.0
H2298 H 0.12897 0.14104 0.62682 0.0
H2299 H 0.14897 0.13881 0.59199 0.0
H2300 H 0.14526 0.15839 0.62871 0.0
H2301 H 0.13934 0.08693 0.7388 0.0
H2302 H 0.15996 0.08575 0.77227 0.0
H2303 H 0.15905 0.08106 0.70613 0.0
C2304 C 0.66253 0.36121 0.37432 0.0
C2305 C 0.67248 0.37018 0.33811 0.0
C2306 C 0.64966 0.37008 0.40289 0.0
C2307 C 0.64674 0.38833 0.39514 0.0
C2308 C 0.65605 0.39715 0.35662 0.0
C2309 C 0.66875 0.38798 0.32865 0.0
C2310 C 0.63988 0.36014 0.44312 0.0
C2311 C 0.65334 0.41658 0.34681 0.0
C2312 C 0.60808 0.41466 0.44725 0.0
C2313 C 0.61614 0.42366 0.48715 0.0
C2314 C 0.61753 0.40223 0.41862 0.0
C2315 C 0.63544 0.39877 0.43015 0.0
C2316 C 0.64322 0.40696 0.47246 0.0
C2317 C 0.63349 0.41926 0.50038 0.0
C2318 C 0.60867 0.39368 0.37418 0.0
C2319 C 0.66225 0.40364 0.48635 0.0
H2320 H 0.66531 0.34745 0.38191 0.0
H2321 H 0.67628 0.39502 0.30055 0.0
H2322 H 0.6447 0.36438 0.48049 0.0
H2323 H 0.62557 0.36313 0.44146 0.0
H2324 H 0.64174 0.34566 0.43976 0.0
H2325 H 0.66057 0.42116 0.31305 0.0
H2326 H 0.63913 0.41952 0.34176 0.0
H2327 H 0.65801 0.42432 0.37957 0.0
H2328 H 0.59469 0.41799 0.43667 0.0
H2329 H 0.63981 0.42606 0.53131 0.0
H2330 H 0.61168 0.37937 0.37285 0.0
H2331 H 0.61378 0.39963 0.33913 0.0
H2332 H 0.59414 0.39545 0.375 0.0
H2333 H 0.66491 0.38928 0.48838 0.0
H2334 H 0.66583 0.40972 0.52285 0.0
H2335 H 0.67097 0.40919 0.45698 0.0
C2336 C 0.40067 0.91407 0.12496 0.0
C2337 C 0.39156 0.92451 0.09012 0.0
C2338 C 0.39175 0.90135 0.15391 0.0
C2339 C 0.3733 0.89915 0.14813 0.0
C2340 C 0.36425 0.9091 0.11134 0.0
C2341 C 0.37348 0.92155 0.08277 0.0
C2342 C 0.40193 0.89085 0.19222 0.0
C2343 C 0.34458 0.90727 0.10387 0.0
C2344 C 0.34611 0.86096 0.1992 0.0
C2345 C 0.33789 0.86893 0.24049 0.0
C2346 C 0.35861 0.87022 0.1704 0.0
C2347 C 0.36297 0.88783 0.18328 0.0
C2348 C 0.3556 0.89544 0.22697 0.0
C2349 C 0.34316 0.88592 0.25492 0.0
C2350 C 0.36627 0.86155 0.1244 0.0
C2351 C 0.35989 0.91412 0.24239 0.0
H2352 H 0.41464 0.91624 0.13087 0.0
H2353 H 0.3663 0.92948 0.05582 0.0
H2354 H 0.39835 0.89539 0.23041 0.0
H2355 H 0.39846 0.87666 0.18966 0.0
H2356 H 0.4164 0.8923 0.18747 0.0
H2357 H 0.33972 0.9151 0.07155 0.0
H2358 H 0.34102 0.89325 0.09775 0.0
H2359 H 0.3376 0.91178 0.1381 0.0
H2360 H 0.34212 0.84784 0.18775 0.0
H2361 H 0.337 0.89214 0.28702 0.0
H2362 H 0.38068 0.86392 0.12222 0.0
H2363 H 0.36022 0.86739 0.09039 0.0
H2364 H 0.36383 0.84712 0.12388 0.0
H2365 H 0.37436 0.9162 0.24297 0.0
H2366 H 0.35452 0.91745 0.27993 0.0
H2367 H 0.35426 0.92344 0.21463 0.0
C2368 C 0.84548 0.36267 0.70504 0.0
C2369 C 0.83641 0.37188 0.74268 0.0
C2370 C 0.85794 0.37125 0.67444 0.0
C2371 C 0.8613 0.38947 0.68148 0.0
C2372 C 0.85293 0.39852 0.72136 0.0
C2373 C 0.84066 0.38962 0.75144 0.0
C2374 C 0.86676 0.36105 0.63289 0.0
C2375 C 0.8561 0.41793 0.73042 0.0
C2376 C 0.89894 0.41534 0.62213 0.0
C2377 C 0.8901 0.42421 0.58342 0.0
C2378 C 0.89006 0.40307 0.65262 0.0
C2379 C 0.87191 0.39968 0.64433 0.0
C2380 C 0.86328 0.40777 0.60326 0.0
C2381 C 0.87247 0.41987 0.57334 0.0
C2382 C 0.89982 0.39454 0.6955 0.0
C2383 C 0.84396 0.40456 0.59284 0.0
H2384 H 0.8423 0.34895 0.69802 0.0
H2385 H 0.83383 0.39685 0.78062 0.0
H2386 H 0.86109 0.36509 0.59633 0.0
H2387 H 0.88108 0.36399 0.63177 0.0
H2388 H 0.86494 0.3466 0.63717 0.0
H2389 H 0.84967 0.42269 0.76529 0.0
H2390 H 0.87043 0.42068 0.73298 0.0
H2391 H 0.85085 0.42565 0.69839 0.0
H2392 H 0.91256 0.41859 0.63021 0.0
H2393 H 0.86554 0.42655 0.54332 0.0
H2394 H 0.89675 0.38026 0.69749 0.0
H2395 H 0.89553 0.4006 0.73134 0.0
H2396 H 0.91432 0.39622 0.69207 0.0
H2397 H 0.84118 0.39021 0.5913 0.0
H2398 H 0.8396 0.41063 0.55705 0.0
H2399 H 0.83594 0.41018 0.62373 0.0
C2400 C 0.39917 0.09352 0.45098 0.0
C2401 C 0.39026 0.08439 0.48901 0.0
C2402 C 0.39035 0.10603 0.42105 0.0
C2403 C 0.37219 0.10938 0.42919 0.0
C2404 C 0.36345 0.10093 0.46943 0.0
C2405 C 0.37259 0.08861 0.49882 0.0
C2406 C 0.40021 0.1149 0.37898 0.0
C2407 C 0.34412 0.10408 0.47962 0.0
C2408 C 0.34608 0.14737 0.37229 0.0
C2409 C 0.33685 0.13871 0.33387 0.0
C2410 C 0.35851 0.1383 0.40189 0.0
C2411 C 0.36171 0.12015 0.39295 0.0
C2412 C 0.35326 0.1117 0.35212 0.0
C2413 C 0.34098 0.12107 0.32313 0.0
C2414 C 0.36742 0.14786 0.44455 0.0
C2415 C 0.35629 0.0924 0.34098 0.0
H2416 H 0.41281 0.09035 0.44307 0.0
H2417 H 0.3656 0.08169 0.52825 0.0
H2418 H 0.39589 0.10924 0.34262 0.0
H2419 H 0.39725 0.12922 0.37812 0.0
H2420 H 0.41469 0.11307 0.38242 0.0
H2421 H 0.33963 0.09757 0.51463 0.0
H2422 H 0.34139 0.11841 0.48258 0.0
H2423 H 0.33616 0.0989 0.44794 0.0
H2424 H 0.34299 0.16099 0.38088 0.0
H2425 H 0.33402 0.11428 0.29333 0.0
H2426 H 0.38173 0.14482 0.44534 0.0
H2427 H 0.36175 0.14336 0.48063 0.0
H2428 H 0.36568 0.16237 0.44189 0.0
H2429 H 0.3706 0.08954 0.33858 0.0
H2430 H 0.34993 0.0882 0.30541 0.0
H2431 H 0.35086 0.0843 0.37194 0.0
C2432 C 0.61072 0.59169 0.12627 0.0
C2433 C 0.61921 0.5831 0.08644 0.0
C2434 C 0.6198 0.604 0.15635 0.0
C2435 C 0.63777 0.60773 0.14639 0.0
C2436 C 0.64604 0.59984 0.10442 0.0
C2437 C 0.63667 0.58768 0.07503 0.0
C2438 C 0.61045 0.61226 0.20037 0.0
C2439 C 0.66515 0.60341 0.09224 0.0
C2440 C 0.66408 0.64541 0.20453 0.0
C2441 C 0.67384 0.63645 0.24124 0.0
C2442 C 0.65146 0.63649 0.17511 0.0
C2443 C 0.64863 0.6182 0.18245 0.0
C2444 C 0.65777 0.60938 0.22134 0.0
C2445 C 0.67019 0.6186 0.25022 0.0
C2446 C 0.64185 0.64643 0.13449 0.0
C2447 C 0.6552 0.5899 0.23063 0.0
H2448 H 0.59724 0.58824 0.13536 0.0
H2449 H 0.64332 0.58122 0.04411 0.0
H2450 H 0.61549 0.6064 0.23566 0.0
H2451 H 0.6131 0.62663 0.20198 0.0
H2452 H 0.59597 0.61013 0.1987 0.0
H2453 H 0.66919 0.59739 0.05606 0.0
H2454 H 0.66762 0.6178 0.09044 0.0
H2455 H 0.67365 0.59798 0.12236 0.0
H2456 H 0.66677 0.65921 0.1974 0.0
H2457 H 0.67756 0.61157 0.27871 0.0
H2458 H 0.62757 0.64329 0.13522 0.0
H2459 H 0.64697 0.64234 0.09734 0.0
H2460 H 0.64353 0.66092 0.13826 0.0
H2461 H 0.64098 0.5868 0.23457 0.0
H2462 H 0.66219 0.58533 0.26483 0.0
H2463 H 0.66023 0.5823 0.19809 0.0
C2464 C 0.17097 0.88953 0.81782 0.0
C2465 C 0.17401 0.87169 0.8288 0.0
C2466 C 0.15859 0.89946 0.84486 0.0
C2467 C 0.14891 0.89139 0.88396 0.0
C2468 C 0.15106 0.8731 0.89306 0.0
C2469 C 0.16361 0.86346 0.8654 0.0
C2470 C 0.15671 0.91888 0.83363 0.0
C2471 C 0.14087 0.86395 0.93398 0.0
C2472 C 0.13733 0.92309 0.98907 0.0
C2473 C 0.11996 0.92786 0.97715 0.0
C2474 C 0.14655 0.91061 0.96043 0.0
C2475 C 0.13824 0.90262 0.91863 0.0
C2476 C 0.1204 0.90669 0.90786 0.0
C2477 C 0.11146 0.91929 0.93725 0.0
C2478 C 0.16553 0.90665 0.9735 0.0
C2479 C 0.11102 0.89839 0.8639 0.0
H2480 H 0.17884 0.89599 0.78939 0.0
H2481 H 0.16584 0.84969 0.87413 0.0
H2482 H 0.14261 0.92244 0.82912 0.0
H2483 H 0.16196 0.92669 0.86551 0.0
H2484 H 0.1639 0.92278 0.79914 0.0
H2485 H 0.14202 0.84937 0.93144 0.0
H2486 H 0.14598 0.86821 0.97103 0.0
H2487 H 0.12672 0.86762 0.93234 0.0
H2488 H 0.14399 0.92955 0.02 0.0
H2489 H 0.09804 0.92289 0.92775 0.0
H2490 H 0.17426 0.91146 0.94312 0.0
H2491 H 0.16758 0.89222 0.97673 0.0
H2492 H 0.16966 0.91297 0.00921 0.0
H2493 H 0.1165 0.90371 0.82849 0.0
H2494 H 0.09662 0.90105 0.86454 0.0
H2495 H 0.11315 0.88392 0.8635 0.0
loop_
_geom_bond_atom_site_label_1
_geom_bond_atom_site_label_2
_geom_bond_distance
_geom_bond_site_symmetry_2
_ccdc_geom_bond_type
Co0 O1 2.216 . S
Co0 O2 2.091 . S
Co0 O4 2.004 . S
Co0 O10 2.021 . S
Co0 O12 2.137 1_554 S
Co0 O13 2.244 . S
O1 Co0 2.216 . S
O1 C8 1.247 . S
O2 Co0 2.091 . S
O2 C8 1.261 . S
C3 O12 1.247 . S
C3 O13 1.272 1_556 S
O4 Co0 2.004 . S
O4 C9 1.259 . S
Co5 O6 2.061 . S
Co5 O11 2.052 . S
Co5 O13 2.135 . S
O6 Co5 2.061 . S
O6 C9 1.235 . S
C7 O10 1.238 . S
C7 O11 1.241 . S
C8 O1 1.247 . S
C8 O2 1.261 . S
C9 O4 1.259 . S
C9 O6 1.235 . S
O10 Co0 2.021 . S
O10 C7 1.238 . S
O11 Co5 2.052 . S
O11 C7 1.241 . S
O12 Co0 2.137 1_556 S
O12 C3 1.247 . S
O13 Co0 2.244 . S
O13 C3 1.272 1_554 S
O13 Co5 2.135 . S
Co14 O15 2.216 . S
Co14 O16 2.091 . S
Co14 O18 2.004 . S
Co14 O24 2.021 . S
Co14 O26 2.137 . S
Co14 O27 2.244 . S
O15 Co14 2.216 . S
O15 C22 1.247 . S
O16 Co14 2.091 . S
O16 C22 1.261 . S
C17 O26 1.247 . S
C17 O27 1.272 . S
O18 Co14 2.004 . S
O18 C23 1.259 . S
Co19 O20 2.061 . S
Co19 O25 2.052 . S
Co19 O27 2.135 . S
O20 Co19 2.061 . S
O20 C23 1.235 . S
C21 O24 1.238 . S
C21 O25 1.241 . S
C22 O15 1.247 . S
C22 O16 1.261 . S
C23 O18 1.259 . S
C23 O20 1.235 . S
O24 Co14 2.021 . S
O24 C21 1.238 . S
O25 Co19 2.052 . S
O25 C21 1.241 . S
O26 Co14 2.137 . S
O26 C17 1.247 . S
O27 Co14 2.244 . S
O27 C17 1.272 . S
O27 Co19 2.135 . S
Co28 O29 2.216 . S
Co28 O30 2.091 . S
Co28 O32 2.004 . S
Co28 O38 2.021 . S
Co28 O40 2.137 . S
Co28 O41 2.244 . S
O29 Co28 2.216 . S
O29 C36 1.247 . S
O30 Co28 2.091 . S
O30 C36 1.261 . S
C31 O40 1.247 . S
C31 O41 1.272 . S
O32 Co28 2.004 . S
O32 C37 1.259 . S
Co33 O34 2.061 . S
Co33 O39 2.052 . S
Co33 O41 2.135 . S
O34 Co33 2.061 . S
O34 C37 1.235 . S
C35 O38 1.238 . S
C35 O39 1.241 . S
C36 O29 1.247 . S
C36 O30 1.261 . S
C37 O32 1.259 . S
C37 O34 1.235 . S
O38 Co28 2.021 . S
O38 C35 1.238 . S
O39 Co33 2.052 . S
O39 C35 1.241 . S
O40 Co28 2.137 . S
O40 C31 1.247 . S
O41 Co28 2.244 . S
O41 C31 1.272 . S
O41 Co33 2.135 . S
Co42 O43 2.216 . S
Co42 O44 2.091 . S
Co42 O46 2.004 . S
Co42 O52 2.021 . S
Co42 O54 2.137 . S
Co42 O55 2.244 . S
O43 Co42 2.216 . S
O43 C50 1.247 . S
O44 Co42 2.091 . S
O44 C50 1.261 . S
C45 O54 1.247 . S
C45 O55 1.272 . S
O46 Co42 2.004 . S
O46 C51 1.259 . S
Co47 O48 2.061 . S
Co47 O53 2.052 . S
Co47 O55 2.135 . S
O48 Co47 2.061 . S
O48 C51 1.235 . S
C49 O52 1.238 . S
C49 O53 1.241 . S
C50 O43 1.247 . S
C50 O44 1.261 . S
C51 O46 1.259 . S
C51 O48 1.235 . S
O52 Co42 2.021 . S
O52 C49 1.238 . S
O53 Co47 2.052 . S
O53 C49 1.241 . S
O54 Co42 2.137 . S
O54 C45 1.247 . S
O55 Co42 2.244 . S
O55 C45 1.272 . S
O55 Co47 2.135 . S
Co56 O57 2.216 . S
Co56 O58 2.091 . S
Co56 O60 2.004 . S
Co56 O66 2.021 . S
Co56 O68 2.137 . S
Co56 O69 2.244 . S
O57 Co56 2.216 . S
O57 C64 1.247 . S
O58 Co56 2.091 . S
O58 C64 1.261 . S
C59 O68 1.247 . S
C59 O69 1.272 . S
O60 Co56 2.004 . S
O60 C65 1.259 . S
Co61 O62 2.061 . S
Co61 O67 2.052 . S
Co61 O69 2.135 . S
O62 Co61 2.061 . S
O62 C65 1.235 . S
C63 O66 1.238 . S
C63 O67 1.241 . S
C64 O57 1.247 . S
C64 O58 1.261 . S
C65 O60 1.259 . S
C65 O62 1.235 . S
O66 Co56 2.021 . S
O66 C63 1.238 . S
O67 Co61 2.052 . S
O67 C63 1.241 . S
O68 Co56 2.137 . S
O68 C59 1.247 . S
O69 Co56 2.244 . S
O69 C59 1.272 . S
O69 Co61 2.135 . S
Co70 O71 2.216 . S
Co70 O72 2.091 . S
Co70 O74 2.004 . S
Co70 O80 2.021 . S
Co70 O82 2.137 . S
Co70 O83 2.244 . S
O71 Co70 2.216 . S
O71 C78 1.247 . S
O72 Co70 2.091 . S
O72 C78 1.261 . S
C73 O82 1.247 . S
C73 O83 1.272 . S
O74 Co70 2.004 . S
O74 C79 1.259 . S
Co75 O76 2.061 . S
Co75 O81 2.052 . S
Co75 O83 2.135 . S
O76 Co75 2.061 . S
O76 C79 1.235 . S
C77 O80 1.238 . S
C77 O81 1.241 . S
C78 O71 1.247 . S
C78 O72 1.261 . S
C79 O74 1.259 . S
C79 O76 1.235 . S
O80 Co70 2.021 . S
O80 C77 1.238 . S
O81 Co75 2.052 . S
O81 C77 1.241 . S
O82 Co70 2.137 . S
O82 C73 1.247 . S
O83 Co70 2.244 . S
O83 C73 1.272 . S
O83 Co75 2.135 . S
Co84 O85 2.216 . S
Co84 O86 2.091 . S
Co84 O88 2.004 . S
Co84 O94 2.021 1_554 S
Co84 O96 2.137 . S
Co84 O97 2.244 . S
O85 Co84 2.216 . S
O85 C92 1.247 . S
O86 Co84 2.091 . S
O86 C92 1.261 . S
C87 O96 1.247 . S
C87 O97 1.272 . S
O88 Co84 2.004 . S
O88 C93 1.259 . S
Co89 O90 2.061 . S
Co89 O95 2.052 1_554 S
Co89 O97 2.135 . S
O90 Co89 2.061 . S
O90 C93 1.235 . S
C91 O94 1.238 . S
C91 O95 1.241 . S
C92 O85 1.247 . S
C92 O86 1.261 . S
C93 O88 1.259 . S
C93 O90 1.235 . S
O94 Co84 2.021 1_556 S
O94 C91 1.238 . S
O95 Co89 2.052 1_556 S
O95 C91 1.241 . S
O96 Co84 2.137 . S
O96 C87 1.247 . S
O97 Co84 2.244 . S
O97 C87 1.272 . S
O97 Co89 2.135 . S
Co98 O99 2.216 . S
Co98 O100 2.091 . S
Co98 O102 2.004 . S
Co98 O108 2.021 . S
Co98 O110 2.137 . S
Co98 O111 2.244 . S
O99 Co98 2.216 . S
O99 C106 1.247 . S
O100 Co98 2.091 . S
O100 C106 1.261 . S
C101 O110 1.247 . S
C101 O111 1.272 . S
O102 Co98 2.004 . S
O102 C107 1.259 . S
Co103 O104 2.061 . S
Co103 O109 2.052 . S
Co103 O111 2.135 . S
O104 Co103 2.061 . S
O104 C107 1.235 . S
C105 O108 1.238 . S
C105 O109 1.241 . S
C106 O99 1.247 . S
C106 O100 1.261 . S
C107 O102 1.259 . S
C107 O104 1.235 . S
O108 Co98 2.021 . S
O108 C105 1.238 . S
O109 Co103 2.052 . S
O109 C105 1.241 . S
O110 Co98 2.137 . S
O110 C101 1.247 . S
O111 Co98 2.244 . S
O111 C101 1.272 . S
O111 Co103 2.135 . S
Co112 O113 2.216 . S
Co112 O114 2.091 . S
Co112 O116 2.004 . S
Co112 O122 2.021 1_554 S
Co112 O124 2.137 . S
Co112 O125 2.244 . S
O113 Co112 2.216 . S
O113 C120 1.247 . S
O114 Co112 2.091 . S
O114 C120 1.261 . S
C115 O124 1.247 . S
C115 O125 1.272 . S
O116 Co112 2.004 . S
O116 C121 1.259 . S
Co117 O118 2.061 . S
Co117 O123 2.052 1_554 S
Co117 O125 2.135 . S
O118 Co117 2.061 . S
O118 C121 1.235 . S
C119 O122 1.238 . S
C119 O123 1.241 . S
C120 O113 1.247 . S
C120 O114 1.261 . S
C121 O116 1.259 . S
C121 O118 1.235 . S
O122 Co112 2.021 1_556 S
O122 C119 1.238 . S
O123 Co117 2.052 1_556 S
O123 C119 1.241 . S
O124 Co112 2.137 . S
O124 C115 1.247 . S
O125 Co112 2.244 . S
O125 C115 1.272 . S
O125 Co117 2.135 . S
Co126 O127 2.216 . S
Co126 O128 2.091 . S
Co126 O130 2.004 . S
Co126 O136 2.021 . S
Co126 O138 2.137 . S
Co126 O139 2.244 . S
O127 Co126 2.216 . S
O127 C134 1.247 . S
O128 Co126 2.091 . S
O128 C134 1.261 . S
C129 O138 1.247 . S
C129 O139 1.272 . S
O130 Co126 2.004 . S
O130 C135 1.259 . S
Co131 O132 2.061 . S
Co131 O137 2.052 . S
Co131 O139 2.135 . S
O132 Co131 2.061 . S
O132 C135 1.235 . S
C133 O136 1.238 . S
C133 O137 1.241 . S
C134 O127 1.247 . S
C134 O128 1.261 . S
C135 O130 1.259 . S
C135 O132 1.235 . S
O136 Co126 2.021 . S
O136 C133 1.238 . S
O137 Co131 2.052 . S
O137 C133 1.241 . S
O138 Co126 2.137 . S
O138 C129 1.247 . S
O139 Co126 2.244 . S
O139 C129 1.272 . S
O139 Co131 2.135 . S
Co140 O141 2.216 . S
Co140 O142 2.091 . S
Co140 O144 2.004 . S
Co140 O150 2.021 . S
Co140 O152 2.137 . S
Co140 O153 2.244 . S
O141 Co140 2.216 . S
O141 C148 1.247 . S
O142 Co140 2.091 . S
O142 C148 1.261 . S
C143 O152 1.247 . S
C143 O153 1.272 . S
O144 Co140 2.004 . S
O144 C149 1.259 . S
Co145 O146 2.061 . S
Co145 O151 2.052 . S
Co145 O153 2.135 . S
O146 Co145 2.061 . S
O146 C149 1.235 . S
C147 O150 1.238 . S
C147 O151 1.241 . S
C148 O141 1.247 . S
C148 O142 1.261 . S
C149 O144 1.259 . S
C149 O146 1.235 . S
O150 Co140 2.021 . S
O150 C147 1.238 . S
O151 Co145 2.052 . S
O151 C147 1.241 . S
O152 Co140 2.137 . S
O152 C143 1.247 . S
O153 Co140 2.244 . S
O153 C143 1.272 . S
O153 Co145 2.135 . S
Co154 O155 2.216 . S
Co154 O156 2.091 . S
Co154 O158 2.004 . S
Co154 O164 2.021 . S
Co154 O166 2.137 . S
Co154 O167 2.244 . S
O155 Co154 2.216 . S
O155 C162 1.247 . S
O156 Co154 2.091 . S
O156 C162 1.261 . S
C157 O166 1.247 . S
C157 O167 1.272 . S
O158 Co154 2.004 . S
O158 C163 1.259 . S
Co159 O160 2.061 . S
Co159 O165 2.052 . S
Co159 O167 2.135 . S
O160 Co159 2.061 . S
O160 C163 1.235 . S
C161 O164 1.238 . S
C161 O165 1.241 . S
C162 O155 1.247 . S
C162 O156 1.261 . S
C163 O158 1.259 . S
C163 O160 1.235 . S
O164 Co154 2.021 . S
O164 C161 1.238 . S
O165 Co159 2.052 . S
O165 C161 1.241 . S
O166 Co154 2.137 . S
O166 C157 1.247 . S
O167 Co154 2.244 . S
O167 C157 1.272 . S
O167 Co159 2.135 . S
Co168 O169 2.216 . S
Co168 O170 2.091 . S
Co168 O172 2.004 . S
Co168 O178 2.021 . S
Co168 O180 2.137 . S
Co168 O181 2.244 . S
O169 Co168 2.216 . S
O169 C176 1.247 . S
O170 Co168 2.091 . S
O170 C176 1.261 . S
C171 O180 1.247 . S
C171 O181 1.272 . S
O172 Co168 2.004 . S
O172 C177 1.259 . S
Co173 O174 2.061 . S
Co173 O179 2.052 . S
Co173 O181 2.135 . S
O174 Co173 2.061 . S
O174 C177 1.235 . S
C175 O178 1.238 . S
C175 O179 1.241 . S
C176 O169 1.247 . S
C176 O170 1.261 . S
C177 O172 1.259 . S
C177 O174 1.235 . S
O178 Co168 2.021 . S
O178 C175 1.238 . S
O179 Co173 2.052 . S
O179 C175 1.241 . S
O180 Co168 2.137 . S
O180 C171 1.247 . S
O181 Co168 2.244 . S
O181 C171 1.272 . S
O181 Co173 2.135 . S
Co182 O183 2.216 . S
Co182 O184 2.091 . S
Co182 O186 2.004 . S
Co182 O192 2.021 . S
Co182 O194 2.137 . S
Co182 O195 2.244 . S
O183 Co182 2.216 . S
O183 C190 1.247 . S
O184 Co182 2.091 . S
O184 C190 1.261 . S
C185 O194 1.247 . S
C185 O195 1.272 . S
O186 Co182 2.004 . S
O186 C191 1.259 . S
Co187 O188 2.061 . S
Co187 O193 2.052 . S
Co187 O195 2.135 . S
O188 Co187 2.061 . S
O188 C191 1.235 . S
C189 O192 1.238 . S
C189 O193 1.241 . S
C190 O183 1.247 . S
C190 O184 1.261 . S
C191 O186 1.259 . S
C191 O188 1.235 . S
O192 Co182 2.021 . S
O192 C189 1.238 . S
O193 Co187 2.052 . S
O193 C189 1.241 . S
O194 Co182 2.137 . S
O194 C185 1.247 . S
O195 Co182 2.244 . S
O195 C185 1.272 . S
O195 Co187 2.135 . S
Co196 O197 2.216 . S
Co196 O198 2.091 . S
Co196 O200 2.004 . S
Co196 O206 2.021 . S
Co196 O208 2.137 1_554 S
Co196 O209 2.244 . S
O197 Co196 2.216 . S
O197 C204 1.247 . S
O198 Co196 2.091 . S
O198 C204 1.261 . S
C199 O208 1.247 . S
C199 O209 1.272 1_556 S
O200 Co196 2.004 . S
O200 C205 1.259 . S
Co201 O202 2.061 . S
Co201 O207 2.052 . S
Co201 O209 2.135 . S
O202 Co201 2.061 . S
O202 C205 1.235 . S
C203 O206 1.238 . S
C203 O207 1.241 . S
C204 O197 1.247 . S
C204 O198 1.261 . S
C205 O200 1.259 . S
C205 O202 1.235 . S
O206 Co196 2.021 . S
O206 C203 1.238 . S
O207 Co201 2.052 . S
O207 C203 1.241 . S
O208 Co196 2.137 1_556 S
O208 C199 1.247 . S
O209 Co196 2.244 . S
O209 C199 1.272 1_554 S
O209 Co201 2.135 . S
Co210 O211 2.216 . S
Co210 O212 2.091 . S
Co210 O214 2.004 . S
Co210 O220 2.021 . S
Co210 O222 2.137 . S
Co210 O223 2.244 . S
O211 Co210 2.216 . S
O211 C218 1.247 . S
O212 Co210 2.091 . S
O212 C218 1.261 . S
C213 O222 1.247 . S
C213 O223 1.272 . S
O214 Co210 2.004 . S
O214 C219 1.259 . S
Co215 O216 2.061 . S
Co215 O221 2.052 . S
Co215 O223 2.135 . S
O216 Co215 2.061 . S
O216 C219 1.235 . S
C217 O220 1.238 . S
C217 O221 1.241 . S
C218 O211 1.247 . S
C218 O212 1.261 . S
C219 O214 1.259 . S
C219 O216 1.235 . S
O220 Co210 2.021 . S
O220 C217 1.238 . S
O221 Co215 2.052 . S
O221 C217 1.241 . S
O222 Co210 2.137 . S
O222 C213 1.247 . S
O223 Co210 2.244 . S
O223 C213 1.272 . S
O223 Co215 2.135 . S
Co224 O225 2.216 . S
Co224 O226 2.091 . S
Co224 O228 2.004 . S
Co224 O234 2.021 . S
Co224 O236 2.137 . S
Co224 O237 2.244 . S
O225 Co224 2.216 . S
O225 C232 1.247 . S
O226 Co224 2.091 . S
O226 C232 1.261 . S
C227 O236 1.247 . S
C227 O237 1.272 . S
O228 Co224 2.004 . S
O228 C233 1.259 . S
Co229 O230 2.057 . S
Co229 O235 2.052 . S
Co229 O237 2.135 1_545 S
O230 Co229 2.057 . S
O230 C233 1.242 1_545 S
C231 O234 1.238 . S
C231 O235 1.241 1_565 S
C232 O225 1.247 . S
C232 O226 1.261 . S
C233 O228 1.259 . S
C233 O230 1.242 1_565 S
O234 Co224 2.021 . S
O234 C231 1.238 . S
O235 Co229 2.052 . S
O235 C231 1.241 1_545 S
O236 Co224 2.137 . S
O236 C227 1.247 . S
O237 Co224 2.244 . S
O237 C227 1.272 . S
O237 Co229 2.135 1_565 S
Co238 O239 2.216 . S
Co238 O240 2.091 . S
Co238 O242 2.004 . S
Co238 O248 2.021 . S
Co238 O250 2.137 . S
Co238 O251 2.244 . S
O239 Co238 2.216 . S
O239 C246 1.247 . S
O240 Co238 2.091 . S
O240 C246 1.261 . S
C241 O250 1.247 . S
C241 O251 1.272 . S
O242 Co238 2.004 . S
O242 C247 1.259 . S
Co243 O244 2.061 . S
Co243 O249 2.052 . S
Co243 O251 2.135 . S
O244 Co243 2.061 . S
O244 C247 1.235 . S
C245 O248 1.238 . S
C245 O249 1.241 . S
C246 O239 1.247 . S
C246 O240 1.261 . S
C247 O242 1.259 . S
C247 O244 1.235 . S
O248 Co238 2.021 . S
O248 C245 1.238 . S
O249 Co243 2.052 . S
O249 C245 1.241 . S
O250 Co238 2.137 . S
O250 C241 1.247 . S
O251 Co238 2.244 . S
O251 C241 1.272 . S
O251 Co243 2.135 . S
Co252 O253 2.216 . S
Co252 O254 2.091 . S
Co252 O256 2.004 . S
Co252 O262 2.021 . S
Co252 O264 2.137 1_554 S
Co252 O265 2.244 . S
O253 Co252 2.216 . S
O253 C260 1.247 . S
O254 Co252 2.091 . S
O254 C260 1.261 . S
C255 O264 1.247 . S
C255 O265 1.272 1_556 S
O256 Co252 2.004 . S
O256 C261 1.259 . S
Co257 O258 2.057 . S
Co257 O263 2.052 . S
Co257 O265 2.135 1_565 S
O258 Co257 2.057 . S
O258 C261 1.242 1_565 S
C259 O262 1.238 . S
C259 O263 1.241 1_545 S
C260 O253 1.247 . S
C260 O254 1.261 . S
C261 O256 1.259 . S
C261 O258 1.242 1_545 S
O262 Co252 2.021 . S
O262 C259 1.238 . S
O263 Co257 2.052 . S
O263 C259 1.241 1_565 S
O264 Co252 2.137 1_556 S
O264 C255 1.247 . S
O265 Co252 2.244 . S
O265 C255 1.272 1_554 S
O265 Co257 2.135 1_545 S
Co266 O267 2.216 . S
Co266 O268 2.091 . S
Co266 O270 2.004 . S
Co266 O276 2.021 . S
Co266 O278 2.137 . S
Co266 O279 2.244 . S
O267 Co266 2.216 . S
O267 C274 1.247 . S
O268 Co266 2.091 . S
O268 C274 1.261 . S
C269 O278 1.247 . S
C269 O279 1.272 . S
O270 Co266 2.004 . S
O270 C275 1.259 . S
Co271 O272 2.061 . S
Co271 O277 2.052 . S
Co271 O279 2.135 . S
O272 Co271 2.061 . S
O272 C275 1.235 . S
C273 O276 1.238 . S
C273 O277 1.241 . S
C274 O267 1.247 . S
C274 O268 1.261 . S
C275 O270 1.259 . S
C275 O272 1.235 . S
O276 Co266 2.021 . S
O276 C273 1.238 . S
O277 Co271 2.052 . S
O277 C273 1.241 . S
O278 Co266 2.137 . S
O278 C269 1.247 . S
O279 Co266 2.244 . S
O279 C269 1.272 . S
O279 Co271 2.135 . S
Co280 O281 2.216 . S
Co280 O282 2.091 . S
Co280 O284 2.004 . S
Co280 O290 2.021 1_554 S
Co280 O292 2.137 . S
Co280 O293 2.244 . S
O281 Co280 2.216 . S
O281 C288 1.247 . S
O282 Co280 2.091 . S
O282 C288 1.261 . S
C283 O292 1.247 . S
C283 O293 1.272 . S
O284 Co280 2.004 . S
O284 C289 1.259 . S
Co285 O286 2.058 . S
Co285 O291 2.052 1_554 S
Co285 O293 2.135 1_565 S
O286 Co285 2.058 . S
O286 C289 1.240 1_565 S
C287 O290 1.238 . S
C287 O291 1.241 1_545 S
C288 O281 1.247 . S
C288 O282 1.261 . S
C289 O284 1.259 . S
C289 O286 1.240 1_545 S
O290 Co280 2.021 1_556 S
O290 C287 1.238 . S
O291 Co285 2.052 1_556 S
O291 C287 1.241 1_565 S
O292 Co280 2.137 . S
O292 C283 1.247 . S
O293 Co280 2.244 . S
O293 C283 1.272 . S
O293 Co285 2.135 1_545 S
Co294 O295 2.216 . S
Co294 O296 2.091 . S
Co294 O298 2.004 . S
Co294 O304 2.021 . S
Co294 O306 2.137 . S
Co294 O307 2.244 . S
O295 Co294 2.216 . S
O295 C302 1.247 . S
O296 Co294 2.091 . S
O296 C302 1.261 . S
C297 O306 1.247 . S
C297 O307 1.272 . S
O298 Co294 2.004 . S
O298 C303 1.259 . S
Co299 O300 2.061 . S
Co299 O305 2.052 . S
Co299 O307 2.135 . S
O300 Co299 2.061 . S
O300 C303 1.235 . S
C301 O304 1.238 . S
C301 O305 1.241 . S
C302 O295 1.247 . S
C302 O296 1.261 . S
C303 O298 1.259 . S
C303 O300 1.235 . S
O304 Co294 2.021 . S
O304 C301 1.238 . S
O305 Co299 2.052 . S
O305 C301 1.241 . S
O306 Co294 2.137 . S
O306 C297 1.247 . S
O307 Co294 2.244 . S
O307 C297 1.272 . S
O307 Co299 2.135 . S
Co308 O309 2.216 . S
Co308 O310 2.091 . S
Co308 O312 2.004 . S
Co308 O318 2.021 . S
Co308 O320 2.137 . S
Co308 O321 2.244 . S
O309 Co308 2.216 . S
O309 C316 1.247 . S
O310 Co308 2.091 . S
O310 C316 1.261 . S
C311 O320 1.247 . S
C311 O321 1.272 . S
O312 Co308 2.004 . S
O312 C317 1.259 . S
Co313 O314 2.058 . S
Co313 O319 2.052 . S
Co313 O321 2.135 1_545 S
O314 Co313 2.058 . S
O314 C317 1.241 1_545 S
C315 O318 1.238 . S
C315 O319 1.241 1_565 S
C316 O309 1.247 . S
C316 O310 1.261 . S
C317 O312 1.259 . S
C317 O314 1.241 1_565 S
O318 Co308 2.021 . S
O318 C315 1.238 . S
O319 Co313 2.052 . S
O319 C315 1.241 1_545 S
O320 Co308 2.137 . S
O320 C311 1.247 . S
O321 Co308 2.244 . S
O321 C311 1.272 . S
O321 Co313 2.135 1_565 S
Co322 O323 2.216 . S
Co322 O324 2.091 . S
Co322 O326 2.004 . S
Co322 O332 2.021 . S
Co322 O334 2.137 . S
Co322 O335 2.244 . S
O323 Co322 2.216 . S
O323 C330 1.247 . S
O324 Co322 2.091 . S
O324 C330 1.261 . S
C325 O334 1.247 . S
C325 O335 1.272 . S
O326 Co322 2.004 . S
O326 C331 1.259 . S
Co327 O328 2.061 . S
Co327 O333 2.052 . S
Co327 O335 2.135 . S
O328 Co327 2.061 . S
O328 C331 1.235 . S
C329 O332 1.238 . S
C329 O333 1.241 . S
C330 O323 1.247 . S
C330 O324 1.261 . S
C331 O326 1.259 . S
C331 O328 1.235 . S
O332 Co322 2.021 . S
O332 C329 1.238 . S
O333 Co327 2.052 . S
O333 C329 1.241 . S
O334 Co322 2.137 . S
O334 C325 1.247 . S
O335 Co322 2.244 . S
O335 C325 1.272 . S
O335 Co327 2.135 . S
Co336 O337 2.216 . S
Co336 O338 2.091 . S
Co336 O340 2.004 . S
Co336 O346 2.021 . S
Co336 O348 2.137 . S
Co336 O349 2.244 . S
O337 Co336 2.216 . S
O337 C344 1.247 . S
O338 Co336 2.091 . S
O338 C344 1.261 . S
C339 O348 1.247 . S
C339 O349 1.272 . S
O340 Co336 2.004 . S
O340 C345 1.259 . S
Co341 O342 2.058 . S
Co341 O347 2.052 . S
Co341 O349 2.135 1_565 S
O342 Co341 2.058 . S
O342 C345 1.241 1_565 S
C343 O346 1.238 . S
C343 O347 1.241 1_545 S
C344 O337 1.247 . S
C344 O338 1.261 . S
C345 O340 1.259 . S
C345 O342 1.241 1_545 S
O346 Co336 2.021 . S
O346 C343 1.238 . S
O347 Co341 2.052 . S
O347 C343 1.241 1_565 S
O348 Co336 2.137 . S
O348 C339 1.247 . S
O349 Co336 2.244 . S
O349 C339 1.272 . S
O349 Co341 2.135 1_545 S
Co350 O351 2.216 . S
Co350 O352 2.091 . S
Co350 O354 2.004 . S
Co350 O360 2.021 . S
Co350 O362 2.137 . S
Co350 O363 2.244 . S
O351 Co350 2.216 . S
O351 C358 1.247 . S
O352 Co350 2.091 . S
O352 C358 1.261 . S
C353 O362 1.247 . S
C353 O363 1.272 . S
O354 Co350 2.004 . S
O354 C359 1.259 . S
Co355 O356 2.061 . S
Co355 O361 2.052 . S
Co355 O363 2.135 . S
O356 Co355 2.061 . S
O356 C359 1.235 . S
C357 O360 1.238 . S
C357 O361 1.241 . S
C358 O351 1.247 . S
C358 O352 1.261 . S
C359 O354 1.259 . S
C359 O356 1.235 . S
O360 Co350 2.021 . S
O360 C357 1.238 . S
O361 Co355 2.052 . S
O361 C357 1.241 . S
O362 Co350 2.137 . S
O362 C353 1.247 . S
O363 Co350 2.244 . S
O363 C353 1.272 . S
O363 Co355 2.135 . S
Co364 O365 2.216 . S
Co364 O366 2.091 . S
Co364 O368 2.004 . S
Co364 O374 2.021 1_554 S
Co364 O376 2.137 . S
Co364 O377 2.244 . S
O365 Co364 2.216 . S
O365 C372 1.247 . S
O366 Co364 2.091 . S
O366 C372 1.261 . S
C367 O376 1.247 . S
C367 O377 1.272 . S
O368 Co364 2.004 . S
O368 C373 1.259 . S
Co369 O370 2.058 . S
Co369 O375 2.052 1_554 S
Co369 O377 2.135 1_545 S
O370 Co369 2.058 . S
O370 C373 1.240 1_545 S
C371 O374 1.238 . S
C371 O375 1.241 1_565 S
C372 O365 1.247 . S
C372 O366 1.261 . S
C373 O368 1.259 . S
C373 O370 1.240 1_565 S
O374 Co364 2.021 1_556 S
O374 C371 1.238 . S
O375 Co369 2.052 1_556 S
O375 C371 1.241 1_545 S
O376 Co364 2.137 . S
O376 C367 1.247 . S
O377 Co364 2.244 . S
O377 C367 1.272 . S
O377 Co369 2.135 1_565 S
Co378 O379 2.216 . S
Co378 O380 2.091 . S
Co378 O382 2.004 . S
Co378 O388 2.021 . S
Co378 O390 2.137 . S
Co378 O391 2.244 . S
O379 Co378 2.216 . S
O379 C386 1.247 . S
O380 Co378 2.091 . S
O380 C386 1.261 . S
C381 O390 1.247 . S
C381 O391 1.272 . S
O382 Co378 2.004 . S
O382 C387 1.259 . S
Co383 O384 2.061 . S
Co383 O389 2.052 . S
Co383 O391 2.135 . S
O384 Co383 2.061 . S
O384 C387 1.235 . S
C385 O388 1.238 . S
C385 O389 1.241 . S
C386 O379 1.247 . S
C386 O380 1.261 . S
C387 O382 1.259 . S
C387 O384 1.235 . S
O388 Co378 2.021 . S
O388 C385 1.238 . S
O389 Co383 2.052 . S
O389 C385 1.241 . S
O390 Co378 2.137 . S
O390 C381 1.247 . S
O391 Co378 2.244 . S
O391 C381 1.272 . S
O391 Co383 2.135 . S
Co392 O393 2.216 . S
Co392 O394 2.091 . S
Co392 O396 2.004 . S
Co392 O402 2.021 . S
Co392 O404 2.137 1_554 S
Co392 O405 2.244 . S
O393 Co392 2.216 . S
O393 C400 1.247 . S
O394 Co392 2.091 . S
O394 C400 1.261 . S
C395 O404 1.247 . S
C395 O405 1.272 1_556 S
O396 Co392 2.004 . S
O396 C401 1.259 . S
Co397 O398 2.057 . S
Co397 O403 2.052 . S
Co397 O405 2.135 1_545 S
O398 Co397 2.057 . S
O398 C401 1.242 1_545 S
C399 O402 1.238 . S
C399 O403 1.241 1_565 S
C400 O393 1.247 . S
C400 O394 1.261 . S
C401 O396 1.259 . S
C401 O398 1.242 1_565 S
O402 Co392 2.021 . S
O402 C399 1.238 . S
O403 Co397 2.052 . S
O403 C399 1.241 1_545 S
O404 Co392 2.137 1_556 S
O404 C395 1.247 . S
O405 Co392 2.244 . S
O405 C395 1.272 1_554 S
O405 Co397 2.135 1_565 S
Co406 O407 2.216 . S
Co406 O408 2.091 . S
Co406 O410 2.004 . S
Co406 O416 2.021 . S
Co406 O418 2.137 . S
Co406 O419 2.244 . S
O407 Co406 2.216 . S
O407 C414 1.247 . S
O408 Co406 2.091 . S
O408 C414 1.261 . S
C409 O418 1.247 . S
C409 O419 1.272 . S
O410 Co406 2.004 . S
O410 C415 1.259 . S
Co411 O412 2.061 . S
Co411 O417 2.052 . S
Co411 O419 2.135 . S
O412 Co411 2.061 . S
O412 C415 1.235 . S
C413 O416 1.238 . S
C413 O417 1.241 . S
C414 O407 1.247 . S
C414 O408 1.261 . S
C415 O410 1.259 . S
C415 O412 1.235 . S
O416 Co406 2.021 . S
O416 C413 1.238 . S
O417 Co411 2.052 . S
O417 C413 1.241 . S
O418 Co406 2.137 . S
O418 C409 1.247 . S
O419 Co406 2.244 . S
O419 C409 1.272 . S
O419 Co411 2.135 . S
Co420 O421 2.216 . S
Co420 O422 2.091 . S
Co420 O424 2.004 . S
Co420 O430 2.021 . S
Co420 O432 2.137 . S
Co420 O433 2.244 . S
O421 Co420 2.216 . S
O421 C428 1.247 . S
O422 Co420 2.091 . S
O422 C428 1.261 . S
C423 O432 1.247 . S
C423 O433 1.272 . S
O424 Co420 2.004 . S
O424 C429 1.259 . S
Co425 O426 2.057 . S
Co425 O431 2.052 . S
Co425 O433 2.135 1_565 S
O426 Co425 2.057 . S
O426 C429 1.242 1_565 S
C427 O430 1.238 . S
C427 O431 1.241 1_545 S
C428 O421 1.247 . S
C428 O422 1.261 . S
C429 O424 1.259 . S
C429 O426 1.242 1_545 S
O430 Co420 2.021 . S
O430 C427 1.238 . S
O431 Co425 2.052 . S
O431 C427 1.241 1_565 S
O432 Co420 2.137 . S
O432 C423 1.247 . S
O433 Co420 2.244 . S
O433 C423 1.272 . S
O433 Co425 2.135 1_545 S
Co434 O435 2.216 . S
Co434 O436 2.091 . S
Co434 O438 2.004 . S
Co434 O444 2.021 . S
Co434 O446 2.137 . S
Co434 O447 2.244 . S
O435 Co434 2.216 . S
O435 C442 1.247 . S
O436 Co434 2.091 . S
O436 C442 1.261 . S
C437 O446 1.247 . S
C437 O447 1.272 . S
O438 Co434 2.004 . S
O438 C443 1.259 . S
Co439 O440 2.061 . S
Co439 O445 2.052 . S
Co439 O447 2.135 . S
O440 Co439 2.061 . S
O440 C443 1.235 . S
C441 O444 1.238 . S
C441 O445 1.241 . S
C442 O435 1.247 . S
C442 O436 1.261 . S
C443 O438 1.259 . S
C443 O440 1.235 . S
O444 Co434 2.021 . S
O444 C441 1.238 . S
O445 Co439 2.052 . S
O445 C441 1.241 . S
O446 Co434 2.137 . S
O446 C437 1.247 . S
O447 Co434 2.244 . S
O447 C437 1.272 . S
O447 Co439 2.135 . S
C448 C449 1.391 . S
C448 C450 1.394 . S
C448 H464 0.931 . S
C449 C448 1.391 . S
C449 C453 1.376 . S
C450 C448 1.394 . S
C450 C451 1.369 . S
C450 C454 1.531 1_655 S
C451 C450 1.369 . S
C451 C452 1.410 . S
C451 C459 1.503 1_655 S
C452 C451 1.410 . S
C452 C453 1.392 . S
C452 C455 1.511 . S
C453 C449 1.376 . S
C453 C452 1.392 . S
C453 H465 0.929 . S
C454 C450 1.531 1_455 S
C454 H466 0.960 . S
C454 H467 0.962 . S
C454 H468 0.960 1_455 S
C455 C452 1.511 . S
C455 H469 0.961 . S
C455 H470 0.961 . S
C455 H471 0.961 . S
C456 C457 1.370 . S
C456 C458 1.363 . S
C456 H472 0.931 1_554 S
C457 C456 1.370 . S
C457 C461 1.408 . S
C458 C456 1.363 . S
C458 C459 1.370 . S
C458 C462 1.524 1_554 S
C459 C451 1.503 1_455 S
C459 C458 1.370 . S
C459 C460 1.403 . S
C460 C459 1.403 . S
C460 C461 1.404 . S
C460 C463 1.539 . S
C461 C457 1.408 . S
C461 C460 1.404 . S
C461 H473 0.930 . S
C462 C458 1.524 1_556 S
C462 H474 0.956 . S
C462 H475 0.961 1_455 S
C462 H476 0.961 . S
C463 C460 1.539 . S
C463 H477 0.958 . S
C463 H478 0.961 . S
C463 H479 0.960 1_455 S
H464 C448 0.931 . S
H465 C453 0.929 . S
H466 C454 0.960 . S
H467 C454 0.962 . S
H468 C454 0.960 1_655 S
H469 C455 0.961 . S
H470 C455 0.961 . S
H471 C455 0.961 . S
H472 C456 0.931 1_556 S
H473 C461 0.930 . S
H474 C462 0.956 . S
H475 C462 0.961 1_655 S
H476 C462 0.961 . S
H477 C463 0.958 . S
H478 C463 0.961 . S
H479 C463 0.960 1_655 S
C480 C481 1.391 . S
C480 C482 1.394 . S
C480 H496 0.931 . S
C481 C480 1.391 . S
C481 C485 1.376 . S
C482 C480 1.394 . S
C482 C483 1.369 . S
C482 C486 1.531 . S
C483 C482 1.369 . S
C483 C484 1.410 . S
C483 C491 1.503 . S
C484 C483 1.410 . S
C484 C485 1.392 . S
C484 C487 1.511 . S
C485 C481 1.376 . S
C485 C484 1.392 . S
C485 H497 0.929 . S
C486 C482 1.531 . S
C486 H498 0.960 . S
C486 H499 0.962 . S
C486 H500 0.960 . S
C487 C484 1.511 . S
C487 H501 0.961 . S
C487 H502 0.961 . S
C487 H503 0.961 . S
C488 C489 1.370 . S
C488 C490 1.363 . S
C488 H504 0.931 . S
C489 C488 1.370 . S
C489 C493 1.408 . S
C490 C488 1.363 . S
C490 C491 1.370 . S
C490 C494 1.524 . S
C491 C483 1.503 . S
C491 C490 1.370 . S
C491 C492 1.403 . S
C492 C491 1.403 . S
C492 C493 1.404 . S
C492 C495 1.539 . S
C493 C489 1.408 . S
C493 C492 1.404 . S
C493 H505 0.930 . S
C494 C490 1.524 . S
C494 H506 0.956 . S
C494 H507 0.961 . S
C494 H508 0.961 . S
C495 C492 1.539 . S
C495 H509 0.958 . S
C495 H510 0.961 . S
C495 H511 0.960 . S
H496 C480 0.931 . S
H497 C485 0.929 . S
H498 C486 0.960 . S
H499 C486 0.962 . S
H500 C486 0.960 . S
H501 C487 0.961 . S
H502 C487 0.961 . S
H503 C487 0.961 . S
H504 C488 0.931 . S
H505 C493 0.930 . S
H506 C494 0.956 . S
H507 C494 0.961 . S
H508 C494 0.961 . S
H509 C495 0.958 . S
H510 C495 0.961 . S
H511 C495 0.960 . S
C512 C513 1.391 . S
C512 C514 1.394 . S
C512 H528 0.931 . S
C513 C512 1.391 . S
C513 C517 1.376 . S
C514 C512 1.394 . S
C514 C515 1.369 . S
C514 C518 1.531 . S
C515 C514 1.369 . S
C515 C516 1.410 . S
C515 C523 1.503 . S
C516 C515 1.410 . S
C516 C517 1.392 . S
C516 C519 1.511 . S
C517 C513 1.376 . S
C517 C516 1.392 . S
C517 H529 0.929 . S
C518 C514 1.531 . S
C518 H530 0.960 . S
C518 H531 0.962 . S
C518 H532 0.960 . S
C519 C516 1.511 . S
C519 H533 0.961 . S
C519 H534 0.961 . S
C519 H535 0.961 . S
C520 C521 1.370 . S
C520 C522 1.363 . S
C520 H536 0.931 . S
C521 C520 1.370 . S
C521 C525 1.408 . S
C522 C520 1.363 . S
C522 C523 1.370 . S
C522 C526 1.524 . S
C523 C515 1.503 . S
C523 C522 1.370 . S
C523 C524 1.403 . S
C524 C523 1.403 . S
C524 C525 1.404 . S
C524 C527 1.539 . S
C525 C521 1.408 . S
C525 C524 1.404 . S
C525 H537 0.930 . S
C526 C522 1.524 . S
C526 H538 0.956 . S
C526 H539 0.961 . S
C526 H540 0.961 . S
C527 C524 1.539 . S
C527 H541 0.958 . S
C527 H542 0.961 . S
C527 H543 0.960 . S
H528 C512 0.931 . S
H529 C517 0.929 . S
H530 C518 0.960 . S
H531 C518 0.962 . S
H532 C518 0.960 . S
H533 C519 0.961 . S
H534 C519 0.961 . S
H535 C519 0.961 . S
H536 C520 0.931 . S
H537 C525 0.930 . S
H538 C526 0.956 . S
H539 C526 0.961 . S
H540 C526 0.961 . S
H541 C527 0.958 . S
H542 C527 0.961 . S
H543 C527 0.960 . S
C544 C545 1.391 . S
C544 C546 1.394 . S
C544 H560 0.931 . S
C545 C544 1.391 . S
C545 C549 1.376 . S
C546 C544 1.394 . S
C546 C547 1.369 . S
C546 C550 1.531 . S
C547 C546 1.369 . S
C547 C548 1.410 . S
C547 C555 1.503 . S
C548 C547 1.410 . S
C548 C549 1.392 . S
C548 C551 1.511 . S
C549 C545 1.376 . S
C549 C548 1.392 . S
C549 H561 0.929 . S
C550 C546 1.531 . S
C550 H562 0.960 . S
C550 H563 0.962 . S
C550 H564 0.960 . S
C551 C548 1.511 . S
C551 H565 0.961 . S
C551 H566 0.961 . S
C551 H567 0.961 . S
C552 C553 1.370 . S
C552 C554 1.363 . S
C552 H568 0.931 . S
C553 C552 1.370 . S
C553 C557 1.408 . S
C554 C552 1.363 . S
C554 C555 1.370 . S
C554 C558 1.524 . S
C555 C547 1.503 . S
C555 C554 1.370 . S
C555 C556 1.403 . S
C556 C555 1.403 . S
C556 C557 1.404 . S
C556 C559 1.539 . S
C557 C553 1.408 . S
C557 C556 1.404 . S
C557 H569 0.930 . S
C558 C554 1.524 . S
C558 H570 0.956 . S
C558 H571 0.961 . S
C558 H572 0.961 . S
C559 C556 1.539 . S
C559 H573 0.958 . S
C559 H574 0.961 . S
C559 H575 0.960 . S
H560 C544 0.931 . S
H561 C549 0.929 . S
H562 C550 0.960 . S
H563 C550 0.962 . S
H564 C550 0.960 . S
H565 C551 0.961 . S
H566 C551 0.961 . S
H567 C551 0.961 . S
H568 C552 0.931 . S
H569 C557 0.930 . S
H570 C558 0.956 . S
H571 C558 0.961 . S
H572 C558 0.961 . S
H573 C559 0.958 . S
H574 C559 0.961 . S
H575 C559 0.960 . S
C576 C577 1.391 . S
C576 C578 1.394 . S
C576 H592 0.931 . S
C577 C576 1.391 . S
C577 C581 1.376 . S
C578 C576 1.394 . S
C578 C579 1.369 . S
C578 C582 1.531 . S
C579 C578 1.369 . S
C579 C580 1.410 . S
C579 C587 1.503 1_455 S
C580 C579 1.410 . S
C580 C581 1.392 . S
C580 C583 1.511 1_455 S
C581 C577 1.376 . S
C581 C580 1.392 . S
C581 H593 0.929 . S
C582 C578 1.531 . S
C582 H594 0.960 . S
C582 H595 0.962 . S
C582 H596 0.960 . S
C583 C580 1.511 1_655 S
C583 H597 0.961 1_655 S
C583 H598 0.961 . S
C583 H599 0.961 . S
C584 C585 1.370 . S
C584 C586 1.363 . S
C584 H600 0.931 . S
C585 C584 1.370 . S
C585 C589 1.408 . S
C586 C584 1.363 . S
C586 C587 1.370 . S
C586 C590 1.524 . S
C587 C579 1.503 1_655 S
C587 C586 1.370 . S
C587 C588 1.403 . S
C588 C587 1.403 . S
C588 C589 1.404 . S
C588 C591 1.539 . S
C589 C585 1.408 . S
C589 C588 1.404 . S
C589 H601 0.930 . S
C590 C586 1.524 . S
C590 H602 0.956 1_655 S
C590 H603 0.961 1_655 S
C590 H604 0.961 . S
C591 C588 1.539 . S
C591 H605 0.958 . S
C591 H606 0.961 . S
C591 H607 0.960 . S
H592 C576 0.931 . S
H593 C581 0.929 . S
H594 C582 0.960 . S
H595 C582 0.962 . S
H596 C582 0.960 . S
H597 C583 0.961 1_455 S
H598 C583 0.961 . S
H599 C583 0.961 . S
H600 C584 0.931 . S
H601 C589 0.930 . S
H602 C590 0.956 1_455 S
H603 C590 0.961 1_455 S
H604 C590 0.961 . S
H605 C591 0.958 . S
H606 C591 0.961 . S
H607 C591 0.960 . S
C608 C609 1.391 . S
C608 C610 1.394 . S
C608 H624 0.931 . S
C609 C608 1.391 . S
C609 C613 1.376 . S
C610 C608 1.394 . S
C610 C611 1.369 . S
C610 C614 1.531 . S
C611 C610 1.369 . S
C611 C612 1.410 . S
C611 C619 1.503 . S
C612 C611 1.410 . S
C612 C613 1.392 . S
C612 C615 1.511 . S
C613 C609 1.376 . S
C613 C612 1.392 . S
C613 H625 0.929 . S
C614 C610 1.531 . S
C614 H626 0.960 . S
C614 H627 0.962 . S
C614 H628 0.960 . S
C615 C612 1.511 . S
C615 H629 0.961 . S
C615 H630 0.961 . S
C615 H631 0.961 . S
C616 C617 1.370 . S
C616 C618 1.363 . S
C616 H632 0.931 . S
C617 C616 1.370 . S
C617 C621 1.408 . S
C618 C616 1.363 . S
C618 C619 1.370 . S
C618 C622 1.524 . S
C619 C611 1.503 . S
C619 C618 1.370 . S
C619 C620 1.403 . S
C620 C619 1.403 . S
C620 C621 1.404 . S
C620 C623 1.539 . S
C621 C617 1.408 . S
C621 C620 1.404 . S
C621 H633 0.930 . S
C622 C618 1.524 . S
C622 H634 0.956 . S
C622 H635 0.961 . S
C622 H636 0.961 . S
C623 C620 1.539 . S
C623 H637 0.958 . S
C623 H638 0.961 . S
C623 H639 0.960 . S
H624 C608 0.931 . S
H625 C613 0.929 . S
H626 C614 0.960 . S
H627 C614 0.962 . S
H628 C614 0.960 . S
H629 C615 0.961 . S
H630 C615 0.961 . S
H631 C615 0.961 . S
H632 C616 0.931 . S
H633 C621 0.930 . S
H634 C622 0.956 . S
H635 C622 0.961 . S
H636 C622 0.961 . S
H637 C623 0.958 . S
H638 C623 0.961 . S
H639 C623 0.960 . S
C640 C641 1.391 . S
C640 C642 1.394 . S
C640 H656 0.931 1_554 S
C641 C640 1.391 . S
C641 C645 1.376 . S
C642 C640 1.394 . S
C642 C643 1.369 . S
C642 C646 1.531 1_554 S
C643 C642 1.369 . S
C643 C644 1.410 . S
C643 C651 1.503 . S
C644 C643 1.410 . S
C644 C645 1.392 . S
C644 C647 1.511 . S
C645 C641 1.376 . S
C645 C644 1.392 . S
C645 H657 0.929 . S
C646 C642 1.531 1_556 S
C646 H658 0.960 . S
C646 H659 0.962 . S
C646 H660 0.960 . S
C647 C644 1.511 . S
C647 H661 0.961 . S
C647 H662 0.961 . S
C647 H663 0.961 . S
C648 C649 1.370 . S
C648 C650 1.363 . S
C648 H664 0.931 . S
C649 C648 1.370 . S
C649 C653 1.408 . S
C650 C648 1.363 . S
C650 C651 1.370 . S
C650 C654 1.524 . S
C651 C643 1.503 . S
C651 C650 1.370 . S
C651 C652 1.403 . S
C652 C651 1.403 . S
C652 C653 1.404 . S
C652 C655 1.539 . S
C653 C649 1.408 . S
C653 C652 1.404 . S
C653 H665 0.930 . S
C654 C650 1.524 . S
C654 H666 0.956 1_554 S
C654 H667 0.961 . S
C654 H668 0.960 1_554 S
C655 C652 1.539 . S
C655 H669 0.958 . S
C655 H670 0.961 . S
C655 H671 0.960 . S
H656 C640 0.931 1_556 S
H657 C645 0.929 . S
H658 C646 0.960 . S
H659 C646 0.962 . S
H660 C646 0.960 . S
H661 C647 0.961 . S
H662 C647 0.961 . S
H663 C647 0.961 . S
H664 C648 0.931 . S
H665 C653 0.930 . S
H666 C654 0.956 1_556 S
H667 C654 0.961 . S
H668 C654 0.960 1_556 S
H669 C655 0.958 . S
H670 C655 0.961 . S
H671 C655 0.960 . S
C672 C673 1.391 . S
C672 C674 1.394 . S
C672 H688 0.931 . S
C673 C672 1.391 . S
C673 C677 1.376 . S
C674 C672 1.394 . S
C674 C675 1.369 . S
C674 C678 1.531 . S
C675 C674 1.369 . S
C675 C676 1.410 . S
C675 C683 1.503 . S
C676 C675 1.410 . S
C676 C677 1.392 . S
C676 C679 1.511 . S
C677 C673 1.376 . S
C677 C676 1.392 . S
C677 H689 0.929 . S
C678 C674 1.531 . S
C678 H690 0.960 . S
C678 H691 0.962 . S
C678 H692 0.960 . S
C679 C676 1.511 . S
C679 H693 0.961 . S
C679 H694 0.961 . S
C679 H695 0.961 . S
C680 C681 1.370 . S
C680 C682 1.363 . S
C680 H696 0.931 . S
C681 C680 1.370 . S
C681 C685 1.408 . S
C682 C680 1.363 . S
C682 C683 1.370 . S
C682 C686 1.524 . S
C683 C675 1.503 . S
C683 C682 1.370 . S
C683 C684 1.403 . S
C684 C683 1.403 . S
C684 C685 1.404 . S
C684 C687 1.539 . S
C685 C681 1.408 . S
C685 C684 1.404 . S
C685 H697 0.930 . S
C686 C682 1.524 . S
C686 H698 0.956 . S
C686 H699 0.961 . S
C686 H700 0.961 . S
C687 C684 1.539 . S
C687 H701 0.958 . S
C687 H702 0.961 . S
C687 H703 0.960 . S
H688 C672 0.931 . S
H689 C677 0.929 . S
H690 C678 0.960 . S
H691 C678 0.962 . S
H692 C678 0.960 . S
H693 C679 0.961 . S
H694 C679 0.961 . S
H695 C679 0.961 . S
H696 C680 0.931 . S
H697 C685 0.930 . S
H698 C686 0.956 . S
H699 C686 0.961 . S
H700 C686 0.961 . S
H701 C687 0.958 . S
H702 C687 0.961 . S
H703 C687 0.960 . S
C704 C705 1.391 . S
C704 C706 1.394 . S
C704 H720 0.931 . S
C705 C704 1.391 . S
C705 C709 1.376 . S
C706 C704 1.394 . S
C706 C707 1.369 . S
C706 C710 1.531 . S
C707 C706 1.369 . S
C707 C708 1.410 . S
C707 C715 1.503 . S
C708 C707 1.410 . S
C708 C709 1.392 . S
C708 C711 1.511 . S
C709 C705 1.376 . S
C709 C708 1.392 . S
C709 H721 0.929 . S
C710 C706 1.531 . S
C710 H722 0.960 . S
C710 H723 0.962 . S
C710 H724 0.960 . S
C711 C708 1.511 . S
C711 H725 0.961 . S
C711 H726 0.961 . S
C711 H727 0.961 . S
C712 C713 1.370 . S
C712 C714 1.363 . S
C712 H728 0.931 . S
C713 C712 1.370 . S
C713 C717 1.408 . S
C714 C712 1.363 . S
C714 C715 1.370 . S
C714 C718 1.524 . S
C715 C707 1.503 . S
C715 C714 1.370 . S
C715 C716 1.403 . S
C716 C715 1.403 . S
C716 C717 1.404 . S
C716 C719 1.539 . S
C717 C713 1.408 . S
C717 C716 1.404 . S
C717 H729 0.930 . S
C718 C714 1.524 . S
C718 H730 0.956 . S
C718 H731 0.961 . S
C718 H732 0.961 . S
C719 C716 1.539 . S
C719 H733 0.958 . S
C719 H734 0.961 . S
C719 H735 0.960 . S
H720 C704 0.931 . S
H721 C709 0.929 . S
H722 C710 0.960 . S
H723 C710 0.962 . S
H724 C710 0.960 . S
H725 C711 0.961 . S
H726 C711 0.961 . S
H727 C711 0.961 . S
H728 C712 0.931 . S
H729 C717 0.930 . S
H730 C718 0.956 . S
H731 C718 0.961 . S
H732 C718 0.961 . S
H733 C719 0.958 . S
H734 C719 0.961 . S
H735 C719 0.960 . S
C736 C737 1.391 . S
C736 C738 1.394 . S
C736 H752 0.931 . S
C737 C736 1.391 . S
C737 C741 1.376 . S
C738 C736 1.394 . S
C738 C739 1.369 . S
C738 C742 1.531 . S
C739 C738 1.369 . S
C739 C740 1.410 . S
C739 C747 1.503 . S
C740 C739 1.410 . S
C740 C741 1.392 . S
C740 C743 1.511 . S
C741 C737 1.376 . S
C741 C740 1.392 . S
C741 H753 0.929 . S
C742 C738 1.531 . S
C742 H754 0.960 . S
C742 H755 0.962 . S
C742 H756 0.960 . S
C743 C740 1.511 . S
C743 H757 0.961 . S
C743 H758 0.961 . S
C743 H759 0.961 . S
C744 C745 1.370 . S
C744 C746 1.363 . S
C744 H760 0.931 . S
C745 C744 1.370 . S
C745 C749 1.408 . S
C746 C744 1.363 . S
C746 C747 1.370 . S
C746 C750 1.524 . S
C747 C739 1.503 . S
C747 C746 1.370 . S
C747 C748 1.403 . S
C748 C747 1.403 . S
C748 C749 1.404 . S
C748 C751 1.539 . S
C749 C745 1.408 . S
C749 C748 1.404 . S
C749 H761 0.930 . S
C750 C746 1.524 . S
C750 H762 0.956 . S
C750 H763 0.961 . S
C750 H764 0.961 . S
C751 C748 1.539 . S
C751 H765 0.958 . S
C751 H766 0.961 . S
C751 H767 0.960 . S
H752 C736 0.931 . S
H753 C741 0.929 . S
H754 C742 0.960 . S
H755 C742 0.962 . S
H756 C742 0.960 . S
H757 C743 0.961 . S
H758 C743 0.961 . S
H759 C743 0.961 . S
H760 C744 0.931 . S
H761 C749 0.930 . S
H762 C750 0.956 . S
H763 C750 0.961 . S
H764 C750 0.961 . S
H765 C751 0.958 . S
H766 C751 0.961 . S
H767 C751 0.960 . S
C768 C769 1.391 . S
C768 C770 1.394 . S
C768 H784 0.931 . S
C769 C768 1.391 . S
C769 C773 1.376 . S
C770 C768 1.394 . S
C770 C771 1.369 . S
C770 C774 1.531 . S
C771 C770 1.369 . S
C771 C772 1.410 . S
C771 C779 1.503 . S
C772 C771 1.410 . S
C772 C773 1.392 . S
C772 C775 1.511 . S
C773 C769 1.376 . S
C773 C772 1.392 . S
C773 H785 0.929 . S
C774 C770 1.531 . S
C774 H786 0.960 . S
C774 H787 0.962 . S
C774 H788 0.960 . S
C775 C772 1.511 . S
C775 H789 0.961 . S
C775 H790 0.961 . S
C775 H791 0.961 . S
C776 C777 1.370 . S
C776 C778 1.363 . S
C776 H792 0.931 . S
C777 C776 1.370 . S
C777 C781 1.408 . S
C778 C776 1.363 . S
C778 C779 1.370 . S
C778 C782 1.524 . S
C779 C771 1.503 . S
C779 C778 1.370 . S
C779 C780 1.403 . S
C780 C779 1.403 . S
C780 C781 1.404 . S
C780 C783 1.539 . S
C781 C777 1.408 . S
C781 C780 1.404 . S
C781 H793 0.930 . S
C782 C778 1.524 . S
C782 H794 0.956 . S
C782 H795 0.961 . S
C782 H796 0.961 . S
C783 C780 1.539 . S
C783 H797 0.958 . S
C783 H798 0.961 . S
C783 H799 0.960 . S
H784 C768 0.931 . S
H785 C773 0.929 . S
H786 C774 0.960 . S
H787 C774 0.962 . S
H788 C774 0.960 . S
H789 C775 0.961 . S
H790 C775 0.961 . S
H791 C775 0.961 . S
H792 C776 0.931 . S
H793 C781 0.930 . S
H794 C782 0.956 . S
H795 C782 0.961 . S
H796 C782 0.961 . S
H797 C783 0.958 . S
H798 C783 0.961 . S
H799 C783 0.960 . S
C800 C801 1.391 . S
C800 C802 1.394 . S
C800 H816 0.931 . S
C801 C800 1.391 . S
C801 C805 1.376 . S
C802 C800 1.394 . S
C802 C803 1.369 . S
C802 C806 1.531 . S
C803 C802 1.369 . S
C803 C804 1.410 . S
C803 C811 1.503 . S
C804 C803 1.410 . S
C804 C805 1.392 . S
C804 C807 1.511 . S
C805 C801 1.376 . S
C805 C804 1.392 . S
C805 H817 0.929 . S
C806 C802 1.531 . S
C806 H818 0.960 . S
C806 H819 0.962 . S
C806 H820 0.960 . S
C807 C804 1.511 . S
C807 H821 0.961 . S
C807 H822 0.961 . S
C807 H823 0.961 . S
C808 C809 1.370 . S
C808 C810 1.363 . S
C808 H824 0.931 . S
C809 C808 1.370 . S
C809 C813 1.408 . S
C810 C808 1.363 . S
C810 C811 1.370 . S
C810 C814 1.524 . S
C811 C803 1.503 . S
C811 C810 1.370 . S
C811 C812 1.403 . S
C812 C811 1.403 . S
C812 C813 1.404 . S
C812 C815 1.539 . S
C813 C809 1.408 . S
C813 C812 1.404 . S
C813 H825 0.930 . S
C814 C810 1.524 . S
C814 H826 0.956 . S
C814 H827 0.961 . S
C814 H828 0.961 . S
C815 C812 1.539 . S
C815 H829 0.958 . S
C815 H830 0.961 . S
C815 H831 0.960 . S
H816 C800 0.931 . S
H817 C805 0.929 . S
H818 C806 0.960 . S
H819 C806 0.962 . S
H820 C806 0.960 . S
H821 C807 0.961 . S
H822 C807 0.961 . S
H823 C807 0.961 . S
H824 C808 0.931 . S
H825 C813 0.930 . S
H826 C814 0.956 . S
H827 C814 0.961 . S
H828 C814 0.961 . S
H829 C815 0.958 . S
H830 C815 0.961 . S
H831 C815 0.960 . S
C832 C833 1.391 . S
C832 C834 1.394 1_545 S
C832 H848 0.931 . S
C833 C832 1.391 . S
C833 C837 1.376 . S
C834 C832 1.394 1_565 S
C834 C835 1.374 . S
C834 C838 1.531 . S
C835 C834 1.374 . S
C835 C836 1.393 1_565 S
C835 C843 1.512 . S
C836 C835 1.393 1_545 S
C836 C837 1.392 . S
C836 C839 1.511 . S
C837 C833 1.376 . S
C837 C836 1.392 . S
C837 H849 0.929 . S
C838 C834 1.531 . S
C838 H850 0.960 . S
C838 H851 0.962 . S
C838 H852 0.960 . S
C839 C836 1.511 . S
C839 H853 0.961 . S
C839 H854 0.961 . S
C839 H855 0.961 . S
C840 C841 1.336 1_545 S
C840 C842 1.374 . S
C840 H856 0.956 . S
C841 C840 1.336 1_565 S
C841 C845 1.408 . S
C842 C840 1.374 . S
C842 C843 1.370 1_545 S
C842 C846 1.524 . S
C843 C835 1.512 . S
C843 C842 1.370 1_565 S
C843 C844 1.403 . S
C844 C843 1.403 . S
C844 C845 1.404 . S
C844 C847 1.539 . S
C845 C841 1.408 . S
C845 C844 1.404 . S
C845 H857 0.930 . S
C846 C842 1.524 . S
C846 H858 0.956 . S
C846 H859 0.961 . S
C846 H860 0.961 . S
C847 C844 1.539 . S
C847 H861 0.958 . S
C847 H862 0.961 . S
C847 H863 0.960 . S
H848 C832 0.931 . S
H849 C837 0.929 . S
H850 C838 0.960 . S
H851 C838 0.962 . S
H852 C838 0.960 . S
H853 C839 0.961 . S
H854 C839 0.961 . S
H855 C839 0.961 . S
H856 C840 0.956 . S
H857 C845 0.930 . S
H858 C846 0.956 . S
H859 C846 0.961 . S
H860 C846 0.961 . S
H861 C847 0.958 . S
H862 C847 0.961 . S
H863 C847 0.960 . S
C864 C865 1.391 . S
C864 C866 1.394 1_545 S
C864 H880 0.931 . S
C865 C864 1.391 . S
C865 C869 1.376 . S
C866 C864 1.394 1_565 S
C866 C867 1.374 . S
C866 C870 1.531 . S
C867 C866 1.374 . S
C867 C868 1.395 1_565 S
C867 C875 1.511 1_655 S
C868 C867 1.395 1_545 S
C868 C869 1.392 . S
C868 C871 1.511 1_554 S
C869 C865 1.376 . S
C869 C868 1.392 . S
C869 H881 0.929 1_554 S
C870 C866 1.531 . S
C870 H882 0.960 . S
C870 H883 0.962 . S
C870 H884 0.960 . S
C871 C868 1.511 1_556 S
C871 H885 0.961 . S
C871 H886 0.961 1_655 S
C871 H887 0.961 . S
C872 C873 1.343 1_545 S
C872 C874 1.372 . S
C872 H888 0.950 . S
C873 C872 1.343 1_565 S
C873 C877 1.408 . S
C874 C872 1.372 . S
C874 C875 1.370 1_545 S
C874 C878 1.524 . S
C875 C867 1.511 1_455 S
C875 C874 1.370 1_565 S
C875 C876 1.403 . S
C876 C875 1.403 . S
C876 C877 1.404 . S
C876 C879 1.511 1_454 S
C877 C873 1.408 . S
C877 C876 1.404 . S
C877 H889 0.930 . S
C878 C874 1.524 . S
C878 H890 0.956 . S
C878 H891 0.961 . S
C878 H892 0.961 . S
C879 C876 1.511 1_656 S
C879 H893 0.967 1_556 S
C879 H894 0.950 1_655 S
C879 H895 0.992 . S
H880 C864 0.931 . S
H881 C869 0.929 1_556 S
H882 C870 0.960 . S
H883 C870 0.962 . S
H884 C870 0.960 . S
H885 C871 0.961 . S
H886 C871 0.961 1_455 S
H887 C871 0.961 . S
H888 C872 0.950 . S
H889 C877 0.930 . S
H890 C878 0.956 . S
H891 C878 0.961 . S
H892 C878 0.961 . S
H893 C879 0.967 1_554 S
H894 C879 0.950 1_455 S
H895 C879 0.992 . S
C896 C897 1.391 1_565 S
C896 C898 1.394 . S
C896 H912 0.931 . S
C897 C896 1.391 1_545 S
C897 C901 1.376 . S
C898 C896 1.394 . S
C898 C899 1.369 1_565 S
C898 C902 1.531 . S
C899 C898 1.369 1_545 S
C899 C900 1.410 . S
C899 C907 1.503 1_545 S
C900 C899 1.410 . S
C900 C901 1.392 . S
C900 C903 1.511 . S
C901 C897 1.376 . S
C901 C900 1.392 . S
C901 H913 0.929 . S
C902 C898 1.531 . S
C902 H914 0.960 . S
C902 H915 0.962 . S
C902 H916 0.960 . S
C903 C900 1.511 . S
C903 H917 0.961 . S
C903 H918 0.961 . S
C903 H919 0.961 . S
C904 C905 1.370 . S
C904 C906 1.363 . S
C904 H920 0.931 1_554 S
C905 C904 1.370 . S
C905 C909 1.408 . S
C906 C904 1.363 . S
C906 C907 1.370 . S
C906 C910 1.524 1_554 S
C907 C899 1.503 1_565 S
C907 C906 1.370 . S
C907 C908 1.403 . S
C908 C907 1.403 . S
C908 C909 1.404 . S
C908 C911 1.539 1_565 S
C909 C905 1.408 . S
C909 C908 1.404 . S
C909 H921 0.930 . S
C910 C906 1.524 1_556 S
C910 H922 0.956 . S
C910 H923 0.961 1_565 S
C910 H924 0.961 . S
C911 C908 1.539 1_545 S
C911 H925 0.958 1_545 S
C911 H926 0.961 . S
C911 H927 0.960 . S
H912 C896 0.931 . S
H913 C901 0.929 . S
H914 C902 0.960 . S
H915 C902 0.962 . S
H916 C902 0.960 . S
H917 C903 0.961 . S
H918 C903 0.961 . S
H919 C903 0.961 . S
H920 C904 0.931 1_556 S
H921 C909 0.930 . S
H922 C910 0.956 . S
H923 C910 0.961 1_545 S
H924 C910 0.961 . S
H925 C911 0.958 1_565 S
H926 C911 0.961 . S
H927 C911 0.960 . S
C928 C929 1.391 . S
C928 C930 1.394 . S
C928 H944 0.931 . S
C929 C928 1.391 . S
C929 C933 1.376 . S
C930 C928 1.394 . S
C930 C931 1.356 1_545 S
C930 C934 1.531 . S
C931 C930 1.356 1_565 S
C931 C932 1.408 1_565 S
C931 C939 1.515 1_455 S
C932 C931 1.408 1_545 S
C932 C933 1.393 . S
C932 C935 1.511 1_545 S
C933 C929 1.376 . S
C933 C932 1.393 . S
C933 H945 0.929 . S
C934 C930 1.531 . S
C934 H946 0.960 1_545 S
C934 H947 0.962 . S
C934 H948 0.960 . S
C935 C932 1.511 1_565 S
C935 H949 0.958 . S
C935 H950 0.961 1_455 S
C935 H951 0.961 . S
C936 C937 1.370 1_545 S
C936 C938 1.363 . S
C936 H952 0.931 . S
C937 C936 1.370 1_565 S
C937 C941 1.408 . S
C938 C936 1.363 . S
C938 C939 1.370 1_545 S
C938 C942 1.524 . S
C939 C931 1.515 1_655 S
C939 C938 1.370 1_565 S
C939 C940 1.403 . S
C940 C939 1.403 . S
C940 C941 1.404 . S
C940 C943 1.539 1_655 S
C941 C937 1.408 . S
C941 C940 1.404 . S
C941 H953 0.930 . S
C942 C938 1.524 . S
C942 H954 0.956 . S
C942 H955 0.961 . S
C942 H956 0.961 . S
C943 C940 1.539 1_455 S
C943 H957 0.958 . S
C943 H958 0.961 1_455 S
C943 H959 0.960 . S
H944 C928 0.931 . S
H945 C933 0.929 . S
H946 C934 0.960 1_565 S
H947 C934 0.962 . S
H948 C934 0.960 . S
H949 C935 0.958 . S
H950 C935 0.961 1_655 S
H951 C935 0.961 . S
H952 C936 0.931 . S
H953 C941 0.930 . S
H954 C942 0.956 . S
H955 C942 0.961 . S
H956 C942 0.961 . S
H957 C943 0.958 . S
H958 C943 0.961 1_655 S
H959 C943 0.960 . S
C960 C961 1.391 . S
C960 C962 1.394 . S
C960 H976 0.931 . S
C961 C960 1.391 . S
C961 C965 1.376 . S
C962 C960 1.394 . S
C962 C963 1.369 . S
C962 C966 1.531 . S
C963 C962 1.369 . S
C963 C964 1.410 . S
C963 C971 1.503 . S
C964 C963 1.410 . S
C964 C965 1.392 . S
C964 C967 1.511 . S
C965 C961 1.376 . S
C965 C964 1.392 . S
C965 H977 0.929 . S
C966 C962 1.531 . S
C966 H978 0.960 . S
C966 H979 0.962 . S
C966 H980 0.960 . S
C967 C964 1.511 . S
C967 H981 0.961 . S
C967 H982 0.961 . S
C967 H983 0.961 . S
C968 C969 1.370 . S
C968 C970 1.363 . S
C968 H984 0.931 . S
C969 C968 1.370 . S
C969 C973 1.408 . S
C970 C968 1.363 . S
C970 C971 1.370 . S
C970 C974 1.524 . S
C971 C963 1.503 . S
C971 C970 1.370 . S
C971 C972 1.403 . S
C972 C971 1.403 . S
C972 C973 1.404 . S
C972 C975 1.539 . S
C973 C969 1.408 . S
C973 C972 1.404 . S
C973 H985 0.930 . S
C974 C970 1.524 . S
C974 H986 0.956 . S
C974 H987 0.961 . S
C974 H988 0.961 . S
C975 C972 1.539 . S
C975 H989 0.958 . S
C975 H990 0.961 . S
C975 H991 0.960 . S
H976 C960 0.931 . S
H977 C965 0.929 . S
H978 C966 0.960 . S
H979 C966 0.962 . S
H980 C966 0.960 . S
H981 C967 0.961 . S
H982 C967 0.961 . S
H983 C967 0.961 . S
H984 C968 0.931 . S
H985 C973 0.930 . S
H986 C974 0.956 . S
H987 C974 0.961 . S
H988 C974 0.961 . S
H989 C975 0.958 . S
H990 C975 0.961 . S
H991 C975 0.960 . S
C992 C993 1.391 . S
C992 C994 1.394 . S
C992 H1008 0.931 . S
C993 C992 1.391 . S
C993 C997 1.376 . S
C994 C992 1.394 . S
C994 C995 1.369 1_556 S
C994 C998 1.531 1_556 S
C995 C994 1.369 1_554 S
C995 C996 1.410 1_554 S
C995 C1003 1.503 . S
C996 C995 1.410 1_556 S
C996 C997 1.392 . S
C996 C999 1.511 1_556 S
C997 C993 1.376 . S
C997 C996 1.392 . S
C997 H1009 0.929 . S
C998 C994 1.531 1_554 S
C998 H1010 0.960 . S
C998 H1011 0.962 . S
C998 H1012 0.960 . S
C999 C996 1.511 1_554 S
C999 H1013 0.961 1_554 S
C999 H1014 0.961 . S
C999 H1015 0.961 . S
C1000 C1001 1.370 . S
C1000 C1002 1.363 . S
C1000 H1016 0.931 . S
C1001 C1000 1.370 . S
C1001 C1005 1.408 . S
C1002 C1000 1.363 . S
C1002 C1003 1.370 . S
C1002 C1006 1.524 . S
C1003 C995 1.503 . S
C1003 C1002 1.370 . S
C1003 C1004 1.403 . S
C1004 C1003 1.403 . S
C1004 C1005 1.404 . S
C1004 C1007 1.539 . S
C1005 C1001 1.408 . S
C1005 C1004 1.404 . S
C1005 H1017 0.930 . S
C1006 C1002 1.524 . S
C1006 H1018 0.956 . S
C1006 H1019 0.961 . S
C1006 H1020 0.961 . S
C1007 C1004 1.539 . S
C1007 H1021 0.958 . S
C1007 H1022 0.961 . S
C1007 H1023 0.960 . S
H1008 C992 0.931 . S
H1009 C997 0.929 . S
H1010 C998 0.960 . S
H1011 C998 0.962 . S
H1012 C998 0.960 . S
H1013 C999 0.961 1_556 S
H1014 C999 0.961 . S
H1015 C999 0.961 . S
H1016 C1000 0.931 . S
H1017 C1005 0.930 . S
H1018 C1006 0.956 . S
H1019 C1006 0.961 . S
H1020 C1006 0.961 . S
H1021 C1007 0.958 . S
H1022 C1007 0.961 . S
H1023 C1007 0.960 . S
C1024 C1025 1.391 . S
C1024 C1026 1.394 . S
C1024 H1040 0.931 . S
C1025 C1024 1.391 . S
C1025 C1029 1.376 . S
C1026 C1024 1.394 . S
C1026 C1027 1.369 . S
C1026 C1030 1.531 . S
C1027 C1026 1.369 . S
C1027 C1028 1.410 . S
C1027 C1035 1.503 . S
C1028 C1027 1.410 . S
C1028 C1029 1.392 . S
C1028 C1031 1.511 . S
C1029 C1025 1.376 . S
C1029 C1028 1.392 . S
C1029 H1041 0.929 . S
C1030 C1026 1.531 . S
C1030 H1042 0.960 . S
C1030 H1043 0.962 . S
C1030 H1044 0.960 . S
C1031 C1028 1.511 . S
C1031 H1045 0.961 . S
C1031 H1046 0.961 . S
C1031 H1047 0.961 . S
C1032 C1033 1.370 . S
C1032 C1034 1.363 . S
C1032 H1048 0.931 . S
C1033 C1032 1.370 . S
C1033 C1037 1.408 . S
C1034 C1032 1.363 . S
C1034 C1035 1.370 . S
C1034 C1038 1.524 . S
C1035 C1027 1.503 . S
C1035 C1034 1.370 . S
C1035 C1036 1.403 . S
C1036 C1035 1.403 . S
C1036 C1037 1.404 . S
C1036 C1039 1.539 . S
C1037 C1033 1.408 . S
C1037 C1036 1.404 . S
C1037 H1049 0.930 . S
C1038 C1034 1.524 . S
C1038 H1050 0.956 . S
C1038 H1051 0.961 . S
C1038 H1052 0.961 . S
C1039 C1036 1.539 . S
C1039 H1053 0.958 . S
C1039 H1054 0.961 . S
C1039 H1055 0.960 . S
H1040 C1024 0.931 . S
H1041 C1029 0.929 . S
H1042 C1030 0.960 . S
H1043 C1030 0.962 . S
H1044 C1030 0.960 . S
H1045 C1031 0.961 . S
H1046 C1031 0.961 . S
H1047 C1031 0.961 . S
H1048 C1032 0.931 . S
H1049 C1037 0.930 . S
H1050 C1038 0.956 . S
H1051 C1038 0.961 . S
H1052 C1038 0.961 . S
H1053 C1039 0.958 . S
H1054 C1039 0.961 . S
H1055 C1039 0.960 . S
C1056 C1057 1.391 . S
C1056 C1058 1.394 . S
C1056 H1072 0.931 . S
C1057 C1056 1.391 . S
C1057 C1061 1.376 . S
C1058 C1056 1.394 . S
C1058 C1059 1.369 . S
C1058 C1062 1.531 . S
C1059 C1058 1.369 . S
C1059 C1060 1.410 . S
C1059 C1067 1.503 . S
C1060 C1059 1.410 . S
C1060 C1061 1.392 . S
C1060 C1063 1.511 . S
C1061 C1057 1.376 . S
C1061 C1060 1.392 . S
C1061 H1073 0.929 . S
C1062 C1058 1.531 . S
C1062 H1074 0.960 . S
C1062 H1075 0.962 . S
C1062 H1076 0.960 . S
C1063 C1060 1.511 . S
C1063 H1077 0.961 . S
C1063 H1078 0.961 . S
C1063 H1079 0.961 . S
C1064 C1065 1.370 . S
C1064 C1066 1.363 . S
C1064 H1080 0.931 . S
C1065 C1064 1.370 . S
C1065 C1069 1.408 . S
C1066 C1064 1.363 . S
C1066 C1067 1.370 . S
C1066 C1070 1.524 . S
C1067 C1059 1.503 . S
C1067 C1066 1.370 . S
C1067 C1068 1.403 . S
C1068 C1067 1.403 . S
C1068 C1069 1.404 . S
C1068 C1071 1.539 . S
C1069 C1065 1.408 . S
C1069 C1068 1.404 . S
C1069 H1081 0.930 . S
C1070 C1066 1.524 . S
C1070 H1082 0.956 . S
C1070 H1083 0.961 . S
C1070 H1084 0.961 . S
C1071 C1068 1.539 . S
C1071 H1085 0.958 . S
C1071 H1086 0.961 . S
C1071 H1087 0.960 . S
H1072 C1056 0.931 . S
H1073 C1061 0.929 . S
H1074 C1062 0.960 . S
H1075 C1062 0.962 . S
H1076 C1062 0.960 . S
H1077 C1063 0.961 . S
H1078 C1063 0.961 . S
H1079 C1063 0.961 . S
H1080 C1064 0.931 . S
H1081 C1069 0.930 . S
H1082 C1070 0.956 . S
H1083 C1070 0.961 . S
H1084 C1070 0.961 . S
H1085 C1071 0.958 . S
H1086 C1071 0.961 . S
H1087 C1071 0.960 . S
C1088 C1089 1.391 . S
C1088 C1090 1.394 . S
C1088 H1104 0.931 . S
C1089 C1088 1.391 . S
C1089 C1093 1.376 . S
C1090 C1088 1.394 . S
C1090 C1091 1.369 . S
C1090 C1094 1.531 . S
C1091 C1090 1.369 . S
C1091 C1092 1.410 . S
C1091 C1099 1.503 . S
C1092 C1091 1.410 . S
C1092 C1093 1.392 . S
C1092 C1095 1.511 . S
C1093 C1089 1.376 . S
C1093 C1092 1.392 . S
C1093 H1105 0.929 . S
C1094 C1090 1.531 . S
C1094 H1106 0.960 . S
C1094 H1107 0.962 . S
C1094 H1108 0.960 . S
C1095 C1092 1.511 . S
C1095 H1109 0.961 . S
C1095 H1110 0.961 . S
C1095 H1111 0.961 . S
C1096 C1097 1.370 . S
C1096 C1098 1.363 . S
C1096 H1112 0.931 . S
C1097 C1096 1.370 . S
C1097 C1101 1.408 . S
C1098 C1096 1.363 . S
C1098 C1099 1.370 . S
C1098 C1102 1.524 . S
C1099 C1091 1.503 . S
C1099 C1098 1.370 . S
C1099 C1100 1.403 . S
C1100 C1099 1.403 . S
C1100 C1101 1.404 . S
C1100 C1103 1.539 . S
C1101 C1097 1.408 . S
C1101 C1100 1.404 . S
C1101 H1113 0.930 . S
C1102 C1098 1.524 . S
C1102 H1114 0.956 . S
C1102 H1115 0.961 . S
C1102 H1116 0.961 . S
C1103 C1100 1.539 . S
C1103 H1117 0.958 . S
C1103 H1118 0.961 . S
C1103 H1119 0.960 . S
H1104 C1088 0.931 . S
H1105 C1093 0.929 . S
H1106 C1094 0.960 . S
H1107 C1094 0.962 . S
H1108 C1094 0.960 . S
H1109 C1095 0.961 . S
H1110 C1095 0.961 . S
H1111 C1095 0.961 . S
H1112 C1096 0.931 . S
H1113 C1101 0.930 . S
H1114 C1102 0.956 . S
H1115 C1102 0.961 . S
H1116 C1102 0.961 . S
H1117 C1103 0.958 . S
H1118 C1103 0.961 . S
H1119 C1103 0.960 . S
C1120 C1121 1.391 . S
C1120 C1122 1.407 . S
C1120 H1136 0.931 . S
C1121 C1120 1.391 . S
C1121 C1125 1.376 . S
C1122 C1120 1.407 . S
C1122 C1123 1.364 1_556 S
C1122 C1126 1.522 1_556 S
C1123 C1122 1.364 1_554 S
C1123 C1124 1.410 1_554 S
C1123 C1131 1.503 . S
C1124 C1123 1.410 1_556 S
C1124 C1125 1.392 . S
C1124 C1127 1.511 1_556 S
C1125 C1121 1.376 . S
C1125 C1124 1.392 . S
C1125 H1137 0.929 . S
C1126 C1122 1.522 1_554 S
C1126 H1138 0.960 . S
C1126 H1139 0.962 . S
C1126 H1140 0.960 . S
C1127 C1124 1.511 1_554 S
C1127 H1141 0.961 1_554 S
C1127 H1142 0.961 . S
C1127 H1143 0.961 . S
C1128 C1129 1.370 . S
C1128 C1130 1.363 . S
C1128 H1144 0.931 . S
C1129 C1128 1.370 . S
C1129 C1133 1.408 . S
C1130 C1128 1.363 . S
C1130 C1131 1.370 . S
C1130 C1134 1.524 . S
C1131 C1123 1.503 . S
C1131 C1130 1.370 . S
C1131 C1132 1.403 . S
C1132 C1131 1.403 . S
C1132 C1133 1.404 . S
C1132 C1135 1.539 . S
C1133 C1129 1.408 . S
C1133 C1132 1.404 . S
C1133 H1145 0.930 . S
C1134 C1130 1.524 . S
C1134 H1146 0.956 . S
C1134 H1147 0.961 . S
C1134 H1148 0.961 . S
C1135 C1132 1.539 . S
C1135 H1149 0.958 . S
C1135 H1150 0.961 . S
C1135 H1151 0.960 . S
H1136 C1120 0.931 . S
H1137 C1125 0.929 . S
H1138 C1126 0.960 . S
H1139 C1126 0.962 . S
H1140 C1126 0.960 . S
H1141 C1127 0.961 1_556 S
H1142 C1127 0.961 . S
H1143 C1127 0.961 . S
H1144 C1128 0.931 . S
H1145 C1133 0.930 . S
H1146 C1134 0.956 . S
H1147 C1134 0.961 . S
H1148 C1134 0.961 . S
H1149 C1135 0.958 . S
H1150 C1135 0.961 . S
H1151 C1135 0.960 . S
C1152 C1153 1.391 . S
C1152 C1154 1.394 . S
C1152 H1168 0.931 . S
C1153 C1152 1.391 . S
C1153 C1157 1.376 . S
C1154 C1152 1.394 . S
C1154 C1155 1.369 . S
C1154 C1158 1.531 . S
C1155 C1154 1.369 . S
C1155 C1156 1.410 . S
C1155 C1163 1.503 . S
C1156 C1155 1.410 . S
C1156 C1157 1.392 . S
C1156 C1159 1.511 . S
C1157 C1153 1.376 . S
C1157 C1156 1.392 . S
C1157 H1169 0.929 . S
C1158 C1154 1.531 . S
C1158 H1170 0.960 . S
C1158 H1171 0.962 . S
C1158 H1172 0.960 . S
C1159 C1156 1.511 . S
C1159 H1173 0.961 . S
C1159 H1174 0.961 . S
C1159 H1175 0.961 . S
C1160 C1161 1.370 . S
C1160 C1162 1.363 . S
C1160 H1176 0.931 . S
C1161 C1160 1.370 . S
C1161 C1165 1.408 . S
C1162 C1160 1.363 . S
C1162 C1163 1.370 . S
C1162 C1166 1.524 . S
C1163 C1155 1.503 . S
C1163 C1162 1.370 . S
C1163 C1164 1.403 . S
C1164 C1163 1.403 . S
C1164 C1165 1.404 . S
C1164 C1167 1.539 . S
C1165 C1161 1.408 . S
C1165 C1164 1.404 . S
C1165 H1177 0.930 . S
C1166 C1162 1.524 . S
C1166 H1178 0.956 . S
C1166 H1179 0.961 . S
C1166 H1180 0.961 . S
C1167 C1164 1.539 . S
C1167 H1181 0.958 . S
C1167 H1182 0.961 . S
C1167 H1183 0.960 . S
H1168 C1152 0.931 . S
H1169 C1157 0.929 . S
H1170 C1158 0.960 . S
H1171 C1158 0.962 . S
H1172 C1158 0.960 . S
H1173 C1159 0.961 . S
H1174 C1159 0.961 . S
H1175 C1159 0.961 . S
H1176 C1160 0.931 . S
H1177 C1165 0.930 . S
H1178 C1166 0.956 . S
H1179 C1166 0.961 . S
H1180 C1166 0.961 . S
H1181 C1167 0.958 . S
H1182 C1167 0.961 . S
H1183 C1167 0.960 . S
C1184 C1185 1.391 . S
C1184 C1186 1.394 . S
C1184 H1200 0.931 . S
C1185 C1184 1.391 . S
C1185 C1189 1.376 . S
C1186 C1184 1.394 . S
C1186 C1187 1.369 . S
C1186 C1190 1.531 . S
C1187 C1186 1.369 . S
C1187 C1188 1.410 . S
C1187 C1195 1.503 . S
C1188 C1187 1.410 . S
C1188 C1189 1.392 . S
C1188 C1191 1.511 . S
C1189 C1185 1.376 . S
C1189 C1188 1.392 . S
C1189 H1201 0.929 . S
C1190 C1186 1.531 . S
C1190 H1202 0.960 . S
C1190 H1203 0.962 . S
C1190 H1204 0.960 . S
C1191 C1188 1.511 . S
C1191 H1205 0.961 . S
C1191 H1206 0.961 . S
C1191 H1207 0.961 . S
C1192 C1193 1.370 . S
C1192 C1194 1.363 . S
C1192 H1208 0.931 . S
C1193 C1192 1.370 . S
C1193 C1197 1.408 . S
C1194 C1192 1.363 . S
C1194 C1195 1.370 . S
C1194 C1198 1.524 . S
C1195 C1187 1.503 . S
C1195 C1194 1.370 . S
C1195 C1196 1.403 . S
C1196 C1195 1.403 . S
C1196 C1197 1.404 . S
C1196 C1199 1.539 . S
C1197 C1193 1.408 . S
C1197 C1196 1.404 . S
C1197 H1209 0.930 . S
C1198 C1194 1.524 . S
C1198 H1210 0.956 . S
C1198 H1211 0.961 . S
C1198 H1212 0.961 . S
C1199 C1196 1.539 . S
C1199 H1213 0.958 . S
C1199 H1214 0.961 . S
C1199 H1215 0.960 . S
H1200 C1184 0.931 . S
H1201 C1189 0.929 . S
H1202 C1190 0.960 . S
H1203 C1190 0.962 . S
H1204 C1190 0.960 . S
H1205 C1191 0.961 . S
H1206 C1191 0.961 . S
H1207 C1191 0.961 . S
H1208 C1192 0.931 . S
H1209 C1197 0.930 . S
H1210 C1198 0.956 . S
H1211 C1198 0.961 . S
H1212 C1198 0.961 . S
H1213 C1199 0.958 . S
H1214 C1199 0.961 . S
H1215 C1199 0.960 . S
C1216 C1217 1.391 . S
C1216 C1218 1.394 . S
C1216 H1232 0.931 . S
C1217 C1216 1.391 . S
C1217 C1221 1.376 1_545 S
C1218 C1216 1.394 . S
C1218 C1219 1.369 . S
C1218 C1222 1.531 . S
C1219 C1218 1.369 . S
C1219 C1220 1.410 1_545 S
C1219 C1227 1.512 . S
C1220 C1219 1.410 1_565 S
C1220 C1221 1.392 . S
C1220 C1223 1.511 . S
C1221 C1217 1.376 1_565 S
C1221 C1220 1.392 . S
C1221 H1233 0.929 . S
C1222 C1218 1.531 . S
C1222 H1234 0.960 . S
C1222 H1235 0.962 . S
C1222 H1236 0.960 . S
C1223 C1220 1.511 . S
C1223 H1237 0.961 . S
C1223 H1238 0.961 . S
C1223 H1239 0.961 . S
C1224 C1225 1.370 . S
C1224 C1226 1.363 . S
C1224 H1240 0.931 . S
C1225 C1224 1.370 . S
C1225 C1229 1.408 1_565 S
C1226 C1224 1.363 . S
C1226 C1227 1.341 1_565 S
C1226 C1230 1.524 . S
C1227 C1219 1.512 . S
C1227 C1226 1.341 1_545 S
C1227 C1228 1.425 . S
C1228 C1227 1.425 . S
C1228 C1229 1.404 . S
C1228 C1231 1.539 . S
C1229 C1225 1.408 1_545 S
C1229 C1228 1.404 . S
C1229 H1241 0.930 . S
C1230 C1226 1.524 . S
C1230 H1242 0.956 . S
C1230 H1243 0.961 . S
C1230 H1244 0.961 . S
C1231 C1228 1.539 . S
C1231 H1245 0.958 . S
C1231 H1246 0.961 . S
C1231 H1247 0.960 . S
H1232 C1216 0.931 . S
H1233 C1221 0.929 . S
H1234 C1222 0.960 . S
H1235 C1222 0.962 . S
H1236 C1222 0.960 . S
H1237 C1223 0.961 . S
H1238 C1223 0.961 . S
H1239 C1223 0.961 . S
H1240 C1224 0.931 . S
H1241 C1229 0.930 . S
H1242 C1230 0.956 . S
H1243 C1230 0.961 . S
H1244 C1230 0.961 . S
H1245 C1231 0.958 . S
H1246 C1231 0.961 . S
H1247 C1231 0.960 . S
C1248 C1249 1.391 . S
C1248 C1250 1.394 . S
C1248 H1264 0.931 . S
C1249 C1248 1.391 . S
C1249 C1253 1.376 . S
C1250 C1248 1.394 . S
C1250 C1251 1.369 . S
C1250 C1254 1.531 . S
C1251 C1250 1.369 . S
C1251 C1252 1.410 . S
C1251 C1259 1.503 . S
C1252 C1251 1.410 . S
C1252 C1253 1.392 . S
C1252 C1255 1.511 . S
C1253 C1249 1.376 . S
C1253 C1252 1.392 . S
C1253 H1265 0.929 . S
C1254 C1250 1.531 . S
C1254 H1266 0.960 . S
C1254 H1267 0.962 . S
C1254 H1268 0.960 . S
C1255 C1252 1.511 . S
C1255 H1269 0.961 . S
C1255 H1270 0.961 . S
C1255 H1271 0.961 . S
C1256 C1257 1.370 . S
C1256 C1258 1.363 . S
C1256 H1272 0.931 . S
C1257 C1256 1.370 . S
C1257 C1261 1.408 . S
C1258 C1256 1.363 . S
C1258 C1259 1.370 . S
C1258 C1262 1.524 . S
C1259 C1251 1.503 . S
C1259 C1258 1.370 . S
C1259 C1260 1.403 . S
C1260 C1259 1.403 . S
C1260 C1261 1.404 . S
C1260 C1263 1.539 . S
C1261 C1257 1.408 . S
C1261 C1260 1.404 . S
C1261 H1273 0.930 . S
C1262 C1258 1.524 . S
C1262 H1274 0.956 . S
C1262 H1275 0.961 . S
C1262 H1276 0.961 . S
C1263 C1260 1.539 . S
C1263 H1277 0.958 . S
C1263 H1278 0.961 . S
C1263 H1279 0.960 . S
H1264 C1248 0.931 . S
H1265 C1253 0.929 . S
H1266 C1254 0.960 . S
H1267 C1254 0.962 . S
H1268 C1254 0.960 . S
H1269 C1255 0.961 . S
H1270 C1255 0.961 . S
H1271 C1255 0.961 . S
H1272 C1256 0.931 . S
H1273 C1261 0.930 . S
H1274 C1262 0.956 . S
H1275 C1262 0.961 . S
H1276 C1262 0.961 . S
H1277 C1263 0.958 . S
H1278 C1263 0.961 . S
H1279 C1263 0.960 . S
C1280 C1281 1.391 1_565 S
C1280 C1282 1.394 . S
C1280 H1296 0.931 . S
C1281 C1280 1.391 1_545 S
C1281 C1285 1.376 . S
C1282 C1280 1.394 . S
C1282 C1283 1.369 . S
C1282 C1286 1.531 . S
C1283 C1282 1.369 . S
C1283 C1284 1.410 1_565 S
C1283 C1291 1.503 . S
C1284 C1283 1.410 1_545 S
C1284 C1285 1.392 . S
C1284 C1287 1.511 . S
C1285 C1281 1.376 . S
C1285 C1284 1.392 . S
C1285 H1297 0.929 . S
C1286 C1282 1.531 . S
C1286 H1298 0.960 . S
C1286 H1299 0.962 . S
C1286 H1300 0.960 . S
C1287 C1284 1.511 . S
C1287 H1301 0.961 . S
C1287 H1302 0.961 . S
C1287 H1303 0.961 . S
C1288 C1289 1.370 1_545 S
C1288 C1290 1.363 . S
C1288 H1304 0.931 . S
C1289 C1288 1.370 1_565 S
C1289 C1293 1.408 . S
C1290 C1288 1.363 . S
C1290 C1291 1.370 1_545 S
C1290 C1294 1.524 . S
C1291 C1283 1.503 . S
C1291 C1290 1.370 1_565 S
C1291 C1292 1.403 . S
C1292 C1291 1.403 . S
C1292 C1293 1.404 . S
C1292 C1295 1.539 . S
C1293 C1289 1.408 . S
C1293 C1292 1.404 . S
C1293 H1305 0.930 . S
C1294 C1290 1.524 . S
C1294 H1306 0.956 . S
C1294 H1307 0.961 . S
C1294 H1308 0.961 . S
C1295 C1292 1.539 . S
C1295 H1309 0.958 . S
C1295 H1310 0.961 . S
C1295 H1311 0.960 . S
H1296 C1280 0.931 . S
H1297 C1285 0.929 . S
H1298 C1286 0.960 . S
H1299 C1286 0.962 . S
H1300 C1286 0.960 . S
H1301 C1287 0.961 . S
H1302 C1287 0.961 . S
H1303 C1287 0.961 . S
H1304 C1288 0.931 . S
H1305 C1293 0.930 . S
H1306 C1294 0.956 . S
H1307 C1294 0.961 . S
H1308 C1294 0.961 . S
H1309 C1295 0.958 . S
H1310 C1295 0.961 . S
H1311 C1295 0.960 . S
C1312 C1313 1.391 . S
C1312 C1314 1.394 . S
C1312 H1328 0.931 . S
C1313 C1312 1.391 . S
C1313 C1317 1.376 . S
C1314 C1312 1.394 . S
C1314 C1315 1.369 1_556 S
C1314 C1318 1.531 1_556 S
C1315 C1314 1.369 1_554 S
C1315 C1316 1.410 1_554 S
C1315 C1323 1.503 . S
C1316 C1315 1.410 1_556 S
C1316 C1317 1.392 . S
C1316 C1319 1.511 1_556 S
C1317 C1313 1.376 . S
C1317 C1316 1.392 . S
C1317 H1329 0.929 . S
C1318 C1314 1.531 1_554 S
C1318 H1330 0.960 . S
C1318 H1331 0.962 . S
C1318 H1332 0.960 . S
C1319 C1316 1.511 1_554 S
C1319 H1333 0.961 1_554 S
C1319 H1334 0.961 . S
C1319 H1335 0.961 . S
C1320 C1321 1.370 . S
C1320 C1322 1.363 . S
C1320 H1336 0.931 . S
C1321 C1320 1.370 . S
C1321 C1325 1.408 . S
C1322 C1320 1.363 . S
C1322 C1323 1.370 . S
C1322 C1326 1.524 . S
C1323 C1315 1.503 . S
C1323 C1322 1.370 . S
C1323 C1324 1.403 . S
C1324 C1323 1.403 . S
C1324 C1325 1.404 . S
C1324 C1327 1.539 . S
C1325 C1321 1.408 . S
C1325 C1324 1.404 . S
C1325 H1337 0.930 . S
C1326 C1322 1.524 . S
C1326 H1338 0.956 . S
C1326 H1339 0.961 . S
C1326 H1340 0.961 . S
C1327 C1324 1.539 . S
C1327 H1341 0.958 . S
C1327 H1342 0.961 . S
C1327 H1343 0.960 . S
H1328 C1312 0.931 . S
H1329 C1317 0.929 . S
H1330 C1318 0.960 . S
H1331 C1318 0.962 . S
H1332 C1318 0.960 . S
H1333 C1319 0.961 1_556 S
H1334 C1319 0.961 . S
H1335 C1319 0.961 . S
H1336 C1320 0.931 . S
H1337 C1325 0.930 . S
H1338 C1326 0.956 . S
H1339 C1326 0.961 . S
H1340 C1326 0.961 . S
H1341 C1327 0.958 . S
H1342 C1327 0.961 . S
H1343 C1327 0.960 . S
C1344 C1345 1.391 . S
C1344 C1346 1.394 . S
C1344 H1360 0.931 . S
C1345 C1344 1.391 . S
C1345 C1349 1.371 1_565 S
C1346 C1344 1.394 . S
C1346 C1347 1.369 . S
C1346 C1350 1.531 . S
C1347 C1346 1.369 . S
C1347 C1348 1.410 1_565 S
C1347 C1355 1.503 . S
C1348 C1347 1.410 1_545 S
C1348 C1349 1.393 . S
C1348 C1351 1.511 . S
C1349 C1345 1.371 1_545 S
C1349 C1348 1.393 . S
C1349 H1361 0.933 . S
C1350 C1346 1.531 . S
C1350 H1362 0.960 . S
C1350 H1363 0.962 . S
C1350 H1364 0.960 . S
C1351 C1348 1.511 . S
C1351 H1365 0.961 . S
C1351 H1366 0.961 . S
C1351 H1367 0.961 . S
C1352 C1353 1.370 . S
C1352 C1354 1.363 . S
C1352 H1368 0.931 . S
C1353 C1352 1.370 . S
C1353 C1357 1.408 1_545 S
C1354 C1352 1.363 . S
C1354 C1355 1.370 1_545 S
C1354 C1358 1.524 . S
C1355 C1347 1.503 . S
C1355 C1354 1.370 1_565 S
C1355 C1356 1.403 . S
C1356 C1355 1.403 . S
C1356 C1357 1.404 . S
C1356 C1359 1.539 . S
C1357 C1353 1.408 1_565 S
C1357 C1356 1.404 . S
C1357 H1369 0.930 . S
C1358 C1354 1.524 . S
C1358 H1370 0.956 . S
C1358 H1371 0.961 . S
C1358 H1372 0.961 . S
C1359 C1356 1.539 . S
C1359 H1373 0.958 . S
C1359 H1374 0.961 . S
C1359 H1375 0.960 . S
H1360 C1344 0.931 . S
H1361 C1349 0.933 . S
H1362 C1350 0.960 . S
H1363 C1350 0.962 . S
H1364 C1350 0.960 . S
H1365 C1351 0.961 . S
H1366 C1351 0.961 . S
H1367 C1351 0.961 . S
H1368 C1352 0.931 . S
H1369 C1357 0.930 . S
H1370 C1358 0.956 . S
H1371 C1358 0.961 . S
H1372 C1358 0.961 . S
H1373 C1359 0.958 . S
H1374 C1359 0.961 . S
H1375 C1359 0.960 . S
C1376 C1377 1.391 . S
C1376 C1378 1.394 . S
C1376 H1392 0.931 . S
C1377 C1376 1.391 . S
C1377 C1381 1.376 . S
C1378 C1376 1.394 . S
C1378 C1379 1.369 . S
C1378 C1382 1.531 . S
C1379 C1378 1.369 . S
C1379 C1380 1.410 . S
C1379 C1387 1.503 . S
C1380 C1379 1.410 . S
C1380 C1381 1.392 . S
C1380 C1383 1.511 . S
C1381 C1377 1.376 . S
C1381 C1380 1.392 . S
C1381 H1393 0.929 . S
C1382 C1378 1.531 . S
C1382 H1394 0.960 . S
C1382 H1395 0.962 . S
C1382 H1396 0.960 . S
C1383 C1380 1.511 . S
C1383 H1397 0.961 . S
C1383 H1398 0.961 . S
C1383 H1399 0.961 . S
C1384 C1385 1.370 . S
C1384 C1386 1.363 . S
C1384 H1400 0.931 . S
C1385 C1384 1.370 . S
C1385 C1389 1.408 . S
C1386 C1384 1.363 . S
C1386 C1387 1.370 . S
C1386 C1390 1.524 . S
C1387 C1379 1.503 . S
C1387 C1386 1.370 . S
C1387 C1388 1.403 . S
C1388 C1387 1.403 . S
C1388 C1389 1.404 . S
C1388 C1391 1.539 . S
C1389 C1385 1.408 . S
C1389 C1388 1.404 . S
C1389 H1401 0.930 . S
C1390 C1386 1.524 . S
C1390 H1402 0.956 . S
C1390 H1403 0.961 . S
C1390 H1404 0.961 . S
C1391 C1388 1.539 . S
C1391 H1405 0.958 . S
C1391 H1406 0.961 . S
C1391 H1407 0.960 . S
H1392 C1376 0.931 . S
H1393 C1381 0.929 . S
H1394 C1382 0.960 . S
H1395 C1382 0.962 . S
H1396 C1382 0.960 . S
H1397 C1383 0.961 . S
H1398 C1383 0.961 . S
H1399 C1383 0.961 . S
H1400 C1384 0.931 . S
H1401 C1389 0.930 . S
H1402 C1390 0.956 . S
H1403 C1390 0.961 . S
H1404 C1390 0.961 . S
H1405 C1391 0.958 . S
H1406 C1391 0.961 . S
H1407 C1391 0.960 . S
C1408 C1409 1.391 . S
C1408 C1410 1.394 . S
C1408 H1424 0.931 . S
C1409 C1408 1.391 . S
C1409 C1413 1.376 1_545 S
C1410 C1408 1.394 . S
C1410 C1411 1.369 . S
C1410 C1414 1.531 . S
C1411 C1410 1.369 . S
C1411 C1412 1.410 1_545 S
C1411 C1419 1.497 1_545 S
C1412 C1411 1.410 1_565 S
C1412 C1413 1.392 . S
C1412 C1415 1.511 . S
C1413 C1409 1.376 1_565 S
C1413 C1412 1.392 . S
C1413 H1425 0.929 . S
C1414 C1410 1.531 . S
C1414 H1426 0.960 . S
C1414 H1427 0.962 . S
C1414 H1428 0.960 . S
C1415 C1412 1.511 . S
C1415 H1429 0.961 . S
C1415 H1430 0.961 . S
C1415 H1431 0.961 . S
C1416 C1417 1.370 . S
C1416 C1418 1.363 . S
C1416 H1432 0.931 . S
C1417 C1416 1.370 . S
C1417 C1421 1.408 . S
C1418 C1416 1.363 . S
C1418 C1419 1.382 . S
C1418 C1422 1.524 . S
C1419 C1411 1.497 1_565 S
C1419 C1418 1.382 . S
C1419 C1420 1.398 1_565 S
C1420 C1419 1.398 1_545 S
C1420 C1421 1.404 1_545 S
C1420 C1423 1.539 . S
C1421 C1417 1.408 . S
C1421 C1420 1.404 1_565 S
C1421 H1433 0.929 . S
C1422 C1418 1.524 . S
C1422 H1434 0.956 1_565 S
C1422 H1435 0.961 . S
C1422 H1436 0.961 . S
C1423 C1420 1.539 . S
C1423 H1437 0.958 . S
C1423 H1438 0.987 . S
C1423 H1439 0.960 . S
H1424 C1408 0.931 . S
H1425 C1413 0.929 . S
H1426 C1414 0.960 . S
H1427 C1414 0.962 . S
H1428 C1414 0.960 . S
H1429 C1415 0.961 . S
H1430 C1415 0.961 . S
H1431 C1415 0.961 . S
H1432 C1416 0.931 . S
H1433 C1421 0.929 . S
H1434 C1422 0.956 1_545 S
H1435 C1422 0.961 . S
H1436 C1422 0.961 . S
H1437 C1423 0.958 . S
H1438 C1423 0.987 . S
H1439 C1423 0.960 . S
C1440 C1441 1.391 . S
C1440 C1442 1.394 . S
C1440 H1456 0.931 . S
C1441 C1440 1.391 . S
C1441 C1445 1.376 . S
C1442 C1440 1.394 . S
C1442 C1443 1.369 . S
C1442 C1446 1.531 . S
C1443 C1442 1.369 . S
C1443 C1444 1.410 . S
C1443 C1451 1.503 . S
C1444 C1443 1.410 . S
C1444 C1445 1.392 . S
C1444 C1447 1.511 . S
C1445 C1441 1.376 . S
C1445 C1444 1.392 . S
C1445 H1457 0.929 . S
C1446 C1442 1.531 . S
C1446 H1458 0.960 . S
C1446 H1459 0.962 . S
C1446 H1460 0.960 . S
C1447 C1444 1.511 . S
C1447 H1461 0.961 . S
C1447 H1462 0.961 . S
C1447 H1463 0.961 . S
C1448 C1449 1.370 . S
C1448 C1450 1.363 . S
C1448 H1464 0.931 . S
C1449 C1448 1.370 . S
C1449 C1453 1.408 . S
C1450 C1448 1.363 . S
C1450 C1451 1.370 1_556 S
C1450 C1454 1.524 1_556 S
C1451 C1443 1.503 . S
C1451 C1450 1.370 1_554 S
C1451 C1452 1.403 1_554 S
C1452 C1451 1.403 1_556 S
C1452 C1453 1.404 . S
C1452 C1455 1.539 1_556 S
C1453 C1449 1.408 . S
C1453 C1452 1.404 . S
C1453 H1465 0.930 . S
C1454 C1450 1.524 1_554 S
C1454 H1466 0.956 . S
C1454 H1467 0.961 . S
C1454 H1468 0.956 1_554 S
C1455 C1452 1.539 1_554 S
C1455 H1469 0.958 . S
C1455 H1470 0.961 . S
C1455 H1471 0.960 . S
H1456 C1440 0.931 . S
H1457 C1445 0.929 . S
H1458 C1446 0.960 . S
H1459 C1446 0.962 . S
H1460 C1446 0.960 . S
H1461 C1447 0.961 . S
H1462 C1447 0.961 . S
H1463 C1447 0.961 . S
H1464 C1448 0.931 . S
H1465 C1453 0.930 . S
H1466 C1454 0.956 . S
H1467 C1454 0.961 . S
H1468 C1454 0.956 1_556 S
H1469 C1455 0.958 . S
H1470 C1455 0.961 . S
H1471 C1455 0.960 . S
C1472 C1473 1.391 . S
C1472 C1474 1.394 . S
C1472 H1488 0.931 . S
C1473 C1472 1.391 . S
C1473 C1477 1.376 . S
C1474 C1472 1.394 . S
C1474 C1475 1.369 . S
C1474 C1478 1.531 . S
C1475 C1474 1.369 . S
C1475 C1476 1.410 . S
C1475 C1483 1.503 . S
C1476 C1475 1.410 . S
C1476 C1477 1.392 . S
C1476 C1479 1.511 . S
C1477 C1473 1.376 . S
C1477 C1476 1.392 . S
C1477 H1489 0.929 . S
C1478 C1474 1.531 . S
C1478 H1490 0.960 . S
C1478 H1491 0.962 . S
C1478 H1492 0.960 . S
C1479 C1476 1.511 . S
C1479 H1493 0.961 . S
C1479 H1494 0.961 . S
C1479 H1495 0.961 . S
C1480 C1481 1.370 . S
C1480 C1482 1.363 . S
C1480 H1496 0.931 . S
C1481 C1480 1.370 . S
C1481 C1485 1.408 . S
C1482 C1480 1.363 . S
C1482 C1483 1.370 . S
C1482 C1486 1.524 . S
C1483 C1475 1.503 . S
C1483 C1482 1.370 . S
C1483 C1484 1.403 . S
C1484 C1483 1.403 . S
C1484 C1485 1.404 . S
C1484 C1487 1.539 . S
C1485 C1481 1.408 . S
C1485 C1484 1.404 . S
C1485 H1497 0.930 . S
C1486 C1482 1.524 . S
C1486 H1498 0.956 . S
C1486 H1499 0.961 . S
C1486 H1500 0.961 . S
C1487 C1484 1.539 . S
C1487 H1501 0.958 . S
C1487 H1502 0.961 . S
C1487 H1503 0.960 . S
H1488 C1472 0.931 . S
H1489 C1477 0.929 . S
H1490 C1478 0.960 . S
H1491 C1478 0.962 . S
H1492 C1478 0.960 . S
H1493 C1479 0.961 . S
H1494 C1479 0.961 . S
H1495 C1479 0.961 . S
H1496 C1480 0.931 . S
H1497 C1485 0.930 . S
H1498 C1486 0.956 . S
H1499 C1486 0.961 . S
H1500 C1486 0.961 . S
H1501 C1487 0.958 . S
H1502 C1487 0.961 . S
H1503 C1487 0.960 . S
C1504 C1505 1.391 . S
C1504 C1506 1.394 . S
C1504 H1520 0.931 . S
C1505 C1504 1.391 . S
C1505 C1509 1.376 . S
C1506 C1504 1.394 . S
C1506 C1507 1.369 . S
C1506 C1510 1.531 . S
C1507 C1506 1.369 . S
C1507 C1508 1.410 . S
C1507 C1515 1.503 . S
C1508 C1507 1.410 . S
C1508 C1509 1.392 . S
C1508 C1511 1.511 . S
C1509 C1505 1.376 . S
C1509 C1508 1.392 . S
C1509 H1521 0.929 . S
C1510 C1506 1.531 . S
C1510 H1522 0.960 . S
C1510 H1523 0.962 . S
C1510 H1524 0.960 . S
C1511 C1508 1.511 . S
C1511 H1525 0.961 . S
C1511 H1526 0.961 . S
C1511 H1527 0.961 . S
C1512 C1513 1.370 . S
C1512 C1514 1.363 . S
C1512 H1528 0.931 . S
C1513 C1512 1.370 . S
C1513 C1517 1.408 . S
C1514 C1512 1.363 . S
C1514 C1515 1.370 . S
C1514 C1518 1.524 . S
C1515 C1507 1.503 . S
C1515 C1514 1.370 . S
C1515 C1516 1.403 . S
C1516 C1515 1.403 . S
C1516 C1517 1.404 . S
C1516 C1519 1.539 . S
C1517 C1513 1.408 . S
C1517 C1516 1.404 . S
C1517 H1529 0.930 . S
C1518 C1514 1.524 . S
C1518 H1530 0.956 . S
C1518 H1531 0.961 . S
C1518 H1532 0.961 . S
C1519 C1516 1.539 . S
C1519 H1533 0.958 . S
C1519 H1534 0.961 . S
C1519 H1535 0.960 . S
H1520 C1504 0.931 . S
H1521 C1509 0.929 . S
H1522 C1510 0.960 . S
H1523 C1510 0.962 . S
H1524 C1510 0.960 . S
H1525 C1511 0.961 . S
H1526 C1511 0.961 . S
H1527 C1511 0.961 . S
H1528 C1512 0.931 . S
H1529 C1517 0.930 . S
H1530 C1518 0.956 . S
H1531 C1518 0.961 . S
H1532 C1518 0.961 . S
H1533 C1519 0.958 . S
H1534 C1519 0.961 . S
H1535 C1519 0.960 . S
C1536 C1537 1.391 . S
C1536 C1538 1.394 . S
C1536 H1552 0.931 . S
C1537 C1536 1.391 . S
C1537 C1541 1.376 . S
C1538 C1536 1.394 . S
C1538 C1539 1.369 . S
C1538 C1542 1.531 . S
C1539 C1538 1.369 . S
C1539 C1540 1.410 . S
C1539 C1547 1.503 . S
C1540 C1539 1.410 . S
C1540 C1541 1.392 . S
C1540 C1543 1.511 . S
C1541 C1537 1.376 . S
C1541 C1540 1.392 . S
C1541 H1553 0.929 . S
C1542 C1538 1.531 . S
C1542 H1554 0.960 . S
C1542 H1555 0.962 . S
C1542 H1556 0.960 . S
C1543 C1540 1.511 . S
C1543 H1557 0.961 . S
C1543 H1558 0.961 . S
C1543 H1559 0.961 . S
C1544 C1545 1.370 . S
C1544 C1546 1.363 . S
C1544 H1560 0.931 . S
C1545 C1544 1.370 . S
C1545 C1549 1.408 . S
C1546 C1544 1.363 . S
C1546 C1547 1.370 . S
C1546 C1550 1.524 . S
C1547 C1539 1.503 . S
C1547 C1546 1.370 . S
C1547 C1548 1.403 . S
C1548 C1547 1.403 . S
C1548 C1549 1.404 . S
C1548 C1551 1.539 . S
C1549 C1545 1.408 . S
C1549 C1548 1.404 . S
C1549 H1561 0.930 . S
C1550 C1546 1.524 . S
C1550 H1562 0.956 . S
C1550 H1563 0.961 . S
C1550 H1564 0.961 . S
C1551 C1548 1.539 . S
C1551 H1565 0.958 . S
C1551 H1566 0.961 . S
C1551 H1567 0.960 . S
H1552 C1536 0.931 . S
H1553 C1541 0.929 . S
H1554 C1542 0.960 . S
H1555 C1542 0.962 . S
H1556 C1542 0.960 . S
H1557 C1543 0.961 . S
H1558 C1543 0.961 . S
H1559 C1543 0.961 . S
H1560 C1544 0.931 . S
H1561 C1549 0.930 . S
H1562 C1550 0.956 . S
H1563 C1550 0.961 . S
H1564 C1550 0.961 . S
H1565 C1551 0.958 . S
H1566 C1551 0.961 . S
H1567 C1551 0.960 . S
C1568 C1569 1.391 . S
C1568 C1570 1.394 . S
C1568 H1584 0.931 . S
C1569 C1568 1.391 . S
C1569 C1573 1.376 . S
C1570 C1568 1.394 . S
C1570 C1571 1.369 . S
C1570 C1574 1.531 . S
C1571 C1570 1.369 . S
C1571 C1572 1.410 . S
C1571 C1579 1.503 . S
C1572 C1571 1.410 . S
C1572 C1573 1.392 . S
C1572 C1575 1.511 . S
C1573 C1569 1.376 . S
C1573 C1572 1.392 . S
C1573 H1585 0.929 . S
C1574 C1570 1.531 . S
C1574 H1586 0.960 . S
C1574 H1587 0.962 . S
C1574 H1588 0.960 . S
C1575 C1572 1.511 . S
C1575 H1589 0.961 . S
C1575 H1590 0.961 . S
C1575 H1591 0.961 . S
C1576 C1577 1.370 . S
C1576 C1578 1.363 . S
C1576 H1592 0.931 . S
C1577 C1576 1.370 . S
C1577 C1581 1.408 . S
C1578 C1576 1.363 . S
C1578 C1579 1.370 1_556 S
C1578 C1582 1.524 1_556 S
C1579 C1571 1.503 . S
C1579 C1578 1.370 1_554 S
C1579 C1580 1.403 1_554 S
C1580 C1579 1.403 1_556 S
C1580 C1581 1.404 . S
C1580 C1583 1.539 1_556 S
C1581 C1577 1.408 . S
C1581 C1580 1.404 . S
C1581 H1593 0.930 . S
C1582 C1578 1.524 1_554 S
C1582 H1594 0.956 . S
C1582 H1595 0.961 . S
C1582 H1596 0.961 . S
C1583 C1580 1.539 1_554 S
C1583 H1597 0.958 . S
C1583 H1598 0.961 1_554 S
C1583 H1599 0.960 . S
H1584 C1568 0.931 . S
H1585 C1573 0.929 . S
H1586 C1574 0.960 . S
H1587 C1574 0.962 . S
H1588 C1574 0.960 . S
H1589 C1575 0.961 . S
H1590 C1575 0.961 . S
H1591 C1575 0.961 . S
H1592 C1576 0.931 . S
H1593 C1581 0.930 . S
H1594 C1582 0.956 . S
H1595 C1582 0.961 . S
H1596 C1582 0.961 . S
H1597 C1583 0.958 . S
H1598 C1583 0.961 1_556 S
H1599 C1583 0.960 . S
C1600 C1601 1.391 . S
C1600 C1602 1.394 . S
C1600 H1616 0.931 . S
C1601 C1600 1.391 . S
C1601 C1605 1.376 . S
C1602 C1600 1.394 . S
C1602 C1603 1.369 . S
C1602 C1606 1.531 . S
C1603 C1602 1.369 . S
C1603 C1604 1.410 . S
C1603 C1611 1.503 . S
C1604 C1603 1.410 . S
C1604 C1605 1.392 . S
C1604 C1607 1.511 . S
C1605 C1601 1.376 . S
C1605 C1604 1.392 . S
C1605 H1617 0.929 . S
C1606 C1602 1.531 . S
C1606 H1618 0.960 . S
C1606 H1619 0.962 . S
C1606 H1620 0.960 . S
C1607 C1604 1.511 . S
C1607 H1621 0.961 . S
C1607 H1622 0.961 . S
C1607 H1623 0.961 . S
C1608 C1609 1.370 . S
C1608 C1610 1.363 . S
C1608 H1624 0.931 . S
C1609 C1608 1.370 . S
C1609 C1613 1.408 . S
C1610 C1608 1.363 . S
C1610 C1611 1.370 . S
C1610 C1614 1.524 . S
C1611 C1603 1.503 . S
C1611 C1610 1.370 . S
C1611 C1612 1.403 . S
C1612 C1611 1.403 . S
C1612 C1613 1.404 . S
C1612 C1615 1.539 . S
C1613 C1609 1.408 . S
C1613 C1612 1.404 . S
C1613 H1625 0.930 . S
C1614 C1610 1.524 . S
C1614 H1626 0.956 . S
C1614 H1627 0.961 . S
C1614 H1628 0.961 . S
C1615 C1612 1.539 . S
C1615 H1629 0.958 . S
C1615 H1630 0.961 . S
C1615 H1631 0.960 . S
H1616 C1600 0.931 . S
H1617 C1605 0.929 . S
H1618 C1606 0.960 . S
H1619 C1606 0.962 . S
H1620 C1606 0.960 . S
H1621 C1607 0.961 . S
H1622 C1607 0.961 . S
H1623 C1607 0.961 . S
H1624 C1608 0.931 . S
H1625 C1613 0.930 . S
H1626 C1614 0.956 . S
H1627 C1614 0.961 . S
H1628 C1614 0.961 . S
H1629 C1615 0.958 . S
H1630 C1615 0.961 . S
H1631 C1615 0.960 . S
C1632 C1633 1.391 . S
C1632 C1634 1.394 . S
C1632 H1648 0.931 . S
C1633 C1632 1.391 . S
C1633 C1637 1.376 . S
C1634 C1632 1.394 . S
C1634 C1635 1.369 . S
C1634 C1638 1.531 . S
C1635 C1634 1.369 . S
C1635 C1636 1.410 . S
C1635 C1643 1.503 . S
C1636 C1635 1.410 . S
C1636 C1637 1.392 . S
C1636 C1639 1.511 . S
C1637 C1633 1.376 . S
C1637 C1636 1.392 . S
C1637 H1649 0.929 . S
C1638 C1634 1.531 . S
C1638 H1650 0.960 . S
C1638 H1651 0.962 . S
C1638 H1652 0.960 . S
C1639 C1636 1.511 . S
C1639 H1653 0.961 . S
C1639 H1654 0.961 . S
C1639 H1655 0.961 . S
C1640 C1641 1.370 . S
C1640 C1642 1.363 . S
C1640 H1656 0.931 . S
C1641 C1640 1.370 . S
C1641 C1645 1.408 . S
C1642 C1640 1.363 . S
C1642 C1643 1.370 . S
C1642 C1646 1.524 . S
C1643 C1635 1.503 . S
C1643 C1642 1.370 . S
C1643 C1644 1.403 . S
C1644 C1643 1.403 . S
C1644 C1645 1.404 . S
C1644 C1647 1.539 . S
C1645 C1641 1.408 . S
C1645 C1644 1.404 . S
C1645 H1657 0.930 . S
C1646 C1642 1.524 . S
C1646 H1658 0.956 . S
C1646 H1659 0.961 . S
C1646 H1660 0.961 . S
C1647 C1644 1.539 . S
C1647 H1661 0.958 . S
C1647 H1662 0.961 . S
C1647 H1663 0.960 . S
H1648 C1632 0.931 . S
H1649 C1637 0.929 . S
H1650 C1638 0.960 . S
H1651 C1638 0.962 . S
H1652 C1638 0.960 . S
H1653 C1639 0.961 . S
H1654 C1639 0.961 . S
H1655 C1639 0.961 . S
H1656 C1640 0.931 . S
H1657 C1645 0.930 . S
H1658 C1646 0.956 . S
H1659 C1646 0.961 . S
H1660 C1646 0.961 . S
H1661 C1647 0.958 . S
H1662 C1647 0.961 . S
H1663 C1647 0.960 . S
C1664 C1665 1.391 . S
C1664 C1666 1.394 . S
C1664 H1680 0.931 . S
C1665 C1664 1.391 . S
C1665 C1669 1.376 . S
C1666 C1664 1.394 . S
C1666 C1667 1.369 . S
C1666 C1670 1.531 . S
C1667 C1666 1.369 . S
C1667 C1668 1.410 . S
C1667 C1675 1.503 . S
C1668 C1667 1.410 . S
C1668 C1669 1.392 . S
C1668 C1671 1.511 . S
C1669 C1665 1.376 . S
C1669 C1668 1.392 . S
C1669 H1681 0.929 . S
C1670 C1666 1.531 . S
C1670 H1682 0.960 . S
C1670 H1683 0.962 . S
C1670 H1684 0.960 . S
C1671 C1668 1.511 . S
C1671 H1685 0.961 . S
C1671 H1686 0.961 . S
C1671 H1687 0.961 . S
C1672 C1673 1.370 . S
C1672 C1674 1.363 . S
C1672 H1688 0.931 . S
C1673 C1672 1.370 . S
C1673 C1677 1.408 . S
C1674 C1672 1.363 . S
C1674 C1675 1.370 . S
C1674 C1678 1.524 . S
C1675 C1667 1.503 . S
C1675 C1674 1.370 . S
C1675 C1676 1.403 . S
C1676 C1675 1.403 . S
C1676 C1677 1.404 . S
C1676 C1679 1.539 . S
C1677 C1673 1.408 . S
C1677 C1676 1.404 . S
C1677 H1689 0.930 . S
C1678 C1674 1.524 . S
C1678 H1690 0.956 . S
C1678 H1691 0.961 . S
C1678 H1692 0.961 . S
C1679 C1676 1.539 . S
C1679 H1693 0.958 . S
C1679 H1694 0.961 . S
C1679 H1695 0.960 . S
H1680 C1664 0.931 . S
H1681 C1669 0.929 . S
H1682 C1670 0.960 . S
H1683 C1670 0.962 . S
H1684 C1670 0.960 . S
H1685 C1671 0.961 . S
H1686 C1671 0.961 . S
H1687 C1671 0.961 . S
H1688 C1672 0.931 . S
H1689 C1677 0.930 . S
H1690 C1678 0.956 . S
H1691 C1678 0.961 . S
H1692 C1678 0.961 . S
H1693 C1679 0.958 . S
H1694 C1679 0.961 . S
H1695 C1679 0.960 . S
C1696 C1697 1.391 . S
C1696 C1698 1.394 . S
C1696 H1712 0.931 . S
C1697 C1696 1.391 . S
C1697 C1701 1.376 . S
C1698 C1696 1.394 . S
C1698 C1699 1.369 1_556 S
C1698 C1702 1.531 1_556 S
C1699 C1698 1.369 1_554 S
C1699 C1700 1.410 1_554 S
C1699 C1707 1.503 . S
C1700 C1699 1.410 1_556 S
C1700 C1701 1.392 . S
C1700 C1703 1.511 1_556 S
C1701 C1697 1.376 . S
C1701 C1700 1.392 . S
C1701 H1713 0.929 . S
C1702 C1698 1.531 1_554 S
C1702 H1714 0.960 . S
C1702 H1715 0.962 . S
C1702 H1716 0.960 1_554 S
C1703 C1700 1.511 1_554 S
C1703 H1717 0.969 . S
C1703 H1718 0.961 . S
C1703 H1719 0.961 . S
C1704 C1705 1.370 . S
C1704 C1706 1.363 . S
C1704 H1720 0.931 . S
C1705 C1704 1.370 . S
C1705 C1709 1.408 . S
C1706 C1704 1.363 . S
C1706 C1707 1.370 . S
C1706 C1710 1.524 . S
C1707 C1699 1.503 . S
C1707 C1706 1.370 . S
C1707 C1708 1.403 . S
C1708 C1707 1.403 . S
C1708 C1709 1.404 . S
C1708 C1711 1.539 . S
C1709 C1705 1.408 . S
C1709 C1708 1.404 . S
C1709 H1721 0.930 . S
C1710 C1706 1.524 . S
C1710 H1722 0.956 . S
C1710 H1723 0.961 . S
C1710 H1724 0.961 . S
C1711 C1708 1.539 . S
C1711 H1725 0.958 . S
C1711 H1726 0.961 . S
C1711 H1727 0.960 . S
H1712 C1696 0.931 . S
H1713 C1701 0.929 . S
H1714 C1702 0.960 . S
H1715 C1702 0.962 . S
H1716 C1702 0.960 1_556 S
H1717 C1703 0.969 . S
H1718 C1703 0.961 . S
H1719 C1703 0.961 . S
H1720 C1704 0.931 . S
H1721 C1709 0.930 . S
H1722 C1710 0.956 . S
H1723 C1710 0.961 . S
H1724 C1710 0.961 . S
H1725 C1711 0.958 . S
H1726 C1711 0.961 . S
H1727 C1711 0.960 . S
C1728 C1729 1.389 . S
C1728 C1730 1.394 . S
C1728 H1744 0.931 . S
C1729 C1728 1.389 . S
C1729 C1733 1.378 1_565 S
C1730 C1728 1.394 . S
C1730 C1731 1.361 1_565 S
C1730 C1734 1.531 . S
C1731 C1730 1.361 1_545 S
C1731 C1732 1.417 . S
C1731 C1739 1.503 . S
C1732 C1731 1.417 . S
C1732 C1733 1.392 . S
C1732 C1735 1.511 . S
C1733 C1729 1.378 1_545 S
C1733 C1732 1.392 . S
C1733 H1745 0.929 . S
C1734 C1730 1.531 . S
C1734 H1746 0.960 . S
C1734 H1747 0.962 . S
C1734 H1748 0.960 . S
C1735 C1732 1.511 . S
C1735 H1749 0.961 . S
C1735 H1750 0.961 . S
C1735 H1751 0.961 . S
C1736 C1737 1.367 1_565 S
C1736 C1738 1.363 . S
C1736 H1752 0.931 . S
C1737 C1736 1.367 1_545 S
C1737 C1741 1.412 . S
C1738 C1736 1.363 . S
C1738 C1739 1.369 1_565 S
C1738 C1742 1.524 . S
C1739 C1731 1.503 . S
C1739 C1738 1.369 1_545 S
C1739 C1740 1.404 . S
C1740 C1739 1.404 . S
C1740 C1741 1.404 . S
C1740 C1743 1.539 . S
C1741 C1737 1.412 . S
C1741 C1740 1.404 . S
C1741 H1753 0.930 . S
C1742 C1738 1.524 . S
C1742 H1754 0.956 . S
C1742 H1755 0.961 1_565 S
C1742 H1756 0.961 . S
C1743 C1740 1.539 . S
C1743 H1757 0.958 1_545 S
C1743 H1758 0.961 . S
C1743 H1759 0.960 . S
H1744 C1728 0.931 . S
H1745 C1733 0.929 . S
H1746 C1734 0.960 . S
H1747 C1734 0.962 . S
H1748 C1734 0.960 . S
H1749 C1735 0.961 . S
H1750 C1735 0.961 . S
H1751 C1735 0.961 . S
H1752 C1736 0.931 . S
H1753 C1741 0.930 . S
H1754 C1742 0.956 . S
H1755 C1742 0.961 1_545 S
H1756 C1742 0.961 . S
H1757 C1743 0.958 1_565 S
H1758 C1743 0.961 . S
H1759 C1743 0.960 . S
C1760 C1761 1.391 . S
C1760 C1762 1.394 . S
C1760 H1776 0.931 . S
C1761 C1760 1.391 . S
C1761 C1765 1.376 . S
C1762 C1760 1.394 . S
C1762 C1763 1.369 . S
C1762 C1766 1.531 . S
C1763 C1762 1.369 . S
C1763 C1764 1.410 . S
C1763 C1771 1.503 . S
C1764 C1763 1.410 . S
C1764 C1765 1.392 . S
C1764 C1767 1.511 . S
C1765 C1761 1.376 . S
C1765 C1764 1.392 . S
C1765 H1777 0.929 . S
C1766 C1762 1.531 . S
C1766 H1778 0.960 . S
C1766 H1779 0.962 . S
C1766 H1780 0.960 . S
C1767 C1764 1.511 . S
C1767 H1781 0.961 . S
C1767 H1782 0.961 . S
C1767 H1783 0.961 . S
C1768 C1769 1.370 . S
C1768 C1770 1.363 . S
C1768 H1784 0.931 . S
C1769 C1768 1.370 . S
C1769 C1773 1.408 . S
C1770 C1768 1.363 . S
C1770 C1771 1.370 1_556 S
C1770 C1774 1.524 1_556 S
C1771 C1763 1.503 . S
C1771 C1770 1.370 1_554 S
C1771 C1772 1.403 1_554 S
C1772 C1771 1.403 1_556 S
C1772 C1773 1.404 . S
C1772 C1775 1.539 1_556 S
C1773 C1769 1.408 . S
C1773 C1772 1.404 . S
C1773 H1785 0.930 . S
C1774 C1770 1.524 1_554 S
C1774 H1786 0.956 . S
C1774 H1787 0.961 . S
C1774 H1788 0.961 . S
C1775 C1772 1.539 1_554 S
C1775 H1789 0.958 . S
C1775 H1790 0.961 1_554 S
C1775 H1791 0.960 . S
H1776 C1760 0.931 . S
H1777 C1765 0.929 . S
H1778 C1766 0.960 . S
H1779 C1766 0.962 . S
H1780 C1766 0.960 . S
H1781 C1767 0.961 . S
H1782 C1767 0.961 . S
H1783 C1767 0.961 . S
H1784 C1768 0.931 . S
H1785 C1773 0.930 . S
H1786 C1774 0.956 . S
H1787 C1774 0.961 . S
H1788 C1774 0.961 . S
H1789 C1775 0.958 . S
H1790 C1775 0.961 1_556 S
H1791 C1775 0.960 . S
C1792 C1793 1.391 . S
C1792 C1794 1.394 . S
C1792 H1808 0.931 . S
C1793 C1792 1.391 . S
C1793 C1797 1.376 1_565 S
C1794 C1792 1.394 . S
C1794 C1795 1.369 . S
C1794 C1798 1.531 . S
C1795 C1794 1.369 . S
C1795 C1796 1.410 1_565 S
C1795 C1803 1.503 . S
C1796 C1795 1.410 1_545 S
C1796 C1797 1.392 . S
C1796 C1799 1.511 . S
C1797 C1793 1.376 1_545 S
C1797 C1796 1.392 . S
C1797 H1809 0.929 . S
C1798 C1794 1.531 . S
C1798 H1810 0.960 . S
C1798 H1811 0.962 . S
C1798 H1812 0.960 . S
C1799 C1796 1.511 . S
C1799 H1813 0.961 . S
C1799 H1814 0.961 . S
C1799 H1815 0.961 . S
C1800 C1801 1.368 1_545 S
C1800 C1802 1.363 . S
C1800 H1816 0.931 . S
C1801 C1800 1.368 1_565 S
C1801 C1805 1.411 . S
C1802 C1800 1.363 . S
C1802 C1803 1.370 1_545 S
C1802 C1806 1.524 . S
C1803 C1795 1.503 . S
C1803 C1802 1.370 1_565 S
C1803 C1804 1.403 . S
C1804 C1803 1.403 . S
C1804 C1805 1.404 . S
C1804 C1807 1.539 . S
C1805 C1801 1.411 . S
C1805 C1804 1.404 . S
C1805 H1817 0.930 . S
C1806 C1802 1.524 . S
C1806 H1818 0.956 . S
C1806 H1819 0.961 . S
C1806 H1820 0.961 . S
C1807 C1804 1.539 . S
C1807 H1821 0.958 . S
C1807 H1822 0.961 . S
C1807 H1823 0.960 . S
H1808 C1792 0.931 . S
H1809 C1797 0.929 . S
H1810 C1798 0.960 . S
H1811 C1798 0.962 . S
H1812 C1798 0.960 . S
H1813 C1799 0.961 . S
H1814 C1799 0.961 . S
H1815 C1799 0.961 . S
H1816 C1800 0.931 . S
H1817 C1805 0.930 . S
H1818 C1806 0.956 . S
H1819 C1806 0.961 . S
H1820 C1806 0.961 . S
H1821 C1807 0.958 . S
H1822 C1807 0.961 . S
H1823 C1807 0.960 . S
C1824 C1825 1.391 . S
C1824 C1826 1.394 . S
C1824 H1840 0.931 . S
C1825 C1824 1.391 . S
C1825 C1829 1.376 . S
C1826 C1824 1.394 . S
C1826 C1827 1.369 . S
C1826 C1830 1.531 . S
C1827 C1826 1.369 . S
C1827 C1828 1.410 . S
C1827 C1835 1.503 . S
C1828 C1827 1.410 . S
C1828 C1829 1.392 . S
C1828 C1831 1.511 . S
C1829 C1825 1.376 . S
C1829 C1828 1.392 . S
C1829 H1841 0.929 . S
C1830 C1826 1.531 . S
C1830 H1842 0.960 . S
C1830 H1843 0.962 . S
C1830 H1844 0.960 . S
C1831 C1828 1.511 . S
C1831 H1845 0.961 . S
C1831 H1846 0.961 . S
C1831 H1847 0.961 . S
C1832 C1833 1.370 . S
C1832 C1834 1.363 . S
C1832 H1848 0.931 . S
C1833 C1832 1.370 . S
C1833 C1837 1.408 . S
C1834 C1832 1.363 . S
C1834 C1835 1.370 . S
C1834 C1838 1.524 . S
C1835 C1827 1.503 . S
C1835 C1834 1.370 . S
C1835 C1836 1.403 . S
C1836 C1835 1.403 . S
C1836 C1837 1.404 . S
C1836 C1839 1.539 . S
C1837 C1833 1.408 . S
C1837 C1836 1.404 . S
C1837 H1849 0.930 . S
C1838 C1834 1.524 . S
C1838 H1850 0.956 . S
C1838 H1851 0.961 . S
C1838 H1852 0.961 . S
C1839 C1836 1.539 . S
C1839 H1853 0.958 . S
C1839 H1854 0.961 . S
C1839 H1855 0.960 . S
H1840 C1824 0.931 . S
H1841 C1829 0.929 . S
H1842 C1830 0.960 . S
H1843 C1830 0.962 . S
H1844 C1830 0.960 . S
H1845 C1831 0.961 . S
H1846 C1831 0.961 . S
H1847 C1831 0.961 . S
H1848 C1832 0.931 . S
H1849 C1837 0.930 . S
H1850 C1838 0.956 . S
H1851 C1838 0.961 . S
H1852 C1838 0.961 . S
H1853 C1839 0.958 . S
H1854 C1839 0.961 . S
H1855 C1839 0.960 . S
C1856 C1857 1.391 . S
C1856 C1858 1.394 . S
C1856 H1872 0.931 . S
C1857 C1856 1.391 . S
C1857 C1861 1.376 1_565 S
C1858 C1856 1.394 . S
C1858 C1859 1.369 . S
C1858 C1862 1.531 . S
C1859 C1858 1.369 . S
C1859 C1860 1.399 1_565 S
C1859 C1867 1.503 . S
C1860 C1859 1.399 1_545 S
C1860 C1861 1.396 . S
C1860 C1863 1.521 . S
C1861 C1857 1.376 1_545 S
C1861 C1860 1.396 . S
C1861 H1873 0.929 . S
C1862 C1858 1.531 . S
C1862 H1874 0.960 . S
C1862 H1875 0.962 . S
C1862 H1876 0.960 . S
C1863 C1860 1.521 . S
C1863 H1877 0.961 . S
C1863 H1878 0.961 . S
C1863 H1879 0.961 1_545 S
C1864 C1865 1.358 1_545 S
C1864 C1866 1.363 . S
C1864 H1880 0.931 . S
C1865 C1864 1.358 1_565 S
C1865 C1869 1.423 . S
C1866 C1864 1.363 . S
C1866 C1867 1.370 1_545 S
C1866 C1870 1.524 . S
C1867 C1859 1.503 . S
C1867 C1866 1.370 1_565 S
C1867 C1868 1.403 . S
C1868 C1867 1.403 . S
C1868 C1869 1.404 . S
C1868 C1871 1.539 . S
C1869 C1865 1.423 . S
C1869 C1868 1.404 . S
C1869 H1881 0.930 . S
C1870 C1866 1.524 . S
C1870 H1882 0.956 . S
C1870 H1883 0.961 . S
C1870 H1884 0.961 . S
C1871 C1868 1.539 . S
C1871 H1885 0.958 . S
C1871 H1886 0.961 . S
C1871 H1887 0.960 . S
H1872 C1856 0.931 . S
H1873 C1861 0.929 . S
H1874 C1862 0.960 . S
H1875 C1862 0.962 . S
H1876 C1862 0.960 . S
H1877 C1863 0.961 . S
H1878 C1863 0.961 . S
H1879 C1863 0.961 1_565 S
H1880 C1864 0.931 . S
H1881 C1869 0.930 . S
H1882 C1870 0.956 . S
H1883 C1870 0.961 . S
H1884 C1870 0.961 . S
H1885 C1871 0.958 . S
H1886 C1871 0.961 . S
H1887 C1871 0.960 . S
C1888 C1889 1.391 . S
C1888 C1890 1.394 . S
C1888 H1904 0.931 . S
C1889 C1888 1.391 . S
C1889 C1893 1.376 . S
C1890 C1888 1.394 . S
C1890 C1891 1.369 . S
C1890 C1894 1.531 . S
C1891 C1890 1.369 . S
C1891 C1892 1.410 . S
C1891 C1899 1.503 . S
C1892 C1891 1.410 . S
C1892 C1893 1.392 . S
C1892 C1895 1.511 . S
C1893 C1889 1.376 . S
C1893 C1892 1.392 . S
C1893 H1905 0.929 . S
C1894 C1890 1.531 . S
C1894 H1906 0.960 . S
C1894 H1907 0.962 . S
C1894 H1908 0.960 . S
C1895 C1892 1.511 . S
C1895 H1909 0.961 . S
C1895 H1910 0.961 . S
C1895 H1911 0.961 . S
C1896 C1897 1.370 . S
C1896 C1898 1.363 . S
C1896 H1912 0.931 . S
C1897 C1896 1.370 . S
C1897 C1901 1.408 . S
C1898 C1896 1.363 . S
C1898 C1899 1.370 1_556 S
C1898 C1902 1.524 1_556 S
C1899 C1891 1.503 . S
C1899 C1898 1.370 1_554 S
C1899 C1900 1.403 1_554 S
C1900 C1899 1.403 1_556 S
C1900 C1901 1.404 . S
C1900 C1903 1.539 1_556 S
C1901 C1897 1.408 . S
C1901 C1900 1.404 . S
C1901 H1913 0.930 . S
C1902 C1898 1.524 1_554 S
C1902 H1914 0.956 . S
C1902 H1915 0.961 . S
C1902 H1916 0.961 . S
C1903 C1900 1.539 1_554 S
C1903 H1917 0.958 . S
C1903 H1918 0.961 1_554 S
C1903 H1919 0.960 . S
H1904 C1888 0.931 . S
H1905 C1893 0.929 . S
H1906 C1894 0.960 . S
H1907 C1894 0.962 . S
H1908 C1894 0.960 . S
H1909 C1895 0.961 . S
H1910 C1895 0.961 . S
H1911 C1895 0.961 . S
H1912 C1896 0.931 . S
H1913 C1901 0.930 . S
H1914 C1902 0.956 . S
H1915 C1902 0.961 . S
H1916 C1902 0.961 . S
H1917 C1903 0.958 . S
H1918 C1903 0.961 1_556 S
H1919 C1903 0.960 . S
C1920 C1921 1.391 . S
C1920 C1922 1.394 . S
C1920 H1936 0.931 . S
C1921 C1920 1.391 . S
C1921 C1925 1.376 1_565 S
C1922 C1920 1.394 . S
C1922 C1923 1.369 . S
C1922 C1926 1.531 . S
C1923 C1922 1.369 . S
C1923 C1924 1.410 1_565 S
C1923 C1931 1.503 . S
C1924 C1923 1.410 1_545 S
C1924 C1925 1.392 . S
C1924 C1927 1.511 . S
C1925 C1921 1.376 1_545 S
C1925 C1924 1.392 . S
C1925 H1937 0.929 . S
C1926 C1922 1.531 . S
C1926 H1938 0.960 . S
C1926 H1939 0.962 . S
C1926 H1940 0.960 . S
C1927 C1924 1.511 . S
C1927 H1941 0.961 . S
C1927 H1942 0.961 . S
C1927 H1943 0.984 . S
C1928 C1929 1.362 1_545 S
C1928 C1930 1.363 . S
C1928 H1944 0.931 . S
C1929 C1928 1.362 1_565 S
C1929 C1933 1.417 . S
C1930 C1928 1.363 . S
C1930 C1931 1.370 1_545 S
C1930 C1934 1.524 . S
C1931 C1923 1.503 . S
C1931 C1930 1.370 1_565 S
C1931 C1932 1.403 . S
C1932 C1931 1.403 . S
C1932 C1933 1.404 . S
C1932 C1935 1.539 . S
C1933 C1929 1.417 . S
C1933 C1932 1.404 . S
C1933 H1945 0.930 . S
C1934 C1930 1.524 . S
C1934 H1946 0.956 . S
C1934 H1947 0.961 . S
C1934 H1948 0.961 . S
C1935 C1932 1.539 . S
C1935 H1949 0.958 . S
C1935 H1950 0.961 . S
C1935 H1951 0.960 . S
H1936 C1920 0.931 . S
H1937 C1925 0.929 . S
H1938 C1926 0.960 . S
H1939 C1926 0.962 . S
H1940 C1926 0.960 . S
H1941 C1927 0.961 . S
H1942 C1927 0.961 . S
H1943 C1927 0.984 . S
H1944 C1928 0.931 . S
H1945 C1933 0.930 . S
H1946 C1934 0.956 . S
H1947 C1934 0.961 . S
H1948 C1934 0.961 . S
H1949 C1935 0.958 . S
H1950 C1935 0.961 . S
H1951 C1935 0.960 . S
C1952 C1953 1.391 . S
C1952 C1954 1.394 . S
C1952 H1968 0.931 . S
C1953 C1952 1.391 . S
C1953 C1957 1.376 . S
C1954 C1952 1.394 . S
C1954 C1955 1.369 . S
C1954 C1958 1.531 . S
C1955 C1954 1.369 . S
C1955 C1956 1.410 . S
C1955 C1963 1.503 . S
C1956 C1955 1.410 . S
C1956 C1957 1.392 . S
C1956 C1959 1.511 . S
C1957 C1953 1.376 . S
C1957 C1956 1.392 . S
C1957 H1969 0.929 . S
C1958 C1954 1.531 . S
C1958 H1970 0.960 . S
C1958 H1971 0.962 . S
C1958 H1972 0.960 . S
C1959 C1956 1.511 . S
C1959 H1973 0.961 . S
C1959 H1974 0.961 . S
C1959 H1975 0.961 . S
C1960 C1961 1.370 . S
C1960 C1962 1.363 . S
C1960 H1976 0.931 . S
C1961 C1960 1.370 . S
C1961 C1965 1.408 . S
C1962 C1960 1.363 . S
C1962 C1963 1.370 . S
C1962 C1966 1.524 . S
C1963 C1955 1.503 . S
C1963 C1962 1.370 . S
C1963 C1964 1.403 . S
C1964 C1963 1.403 . S
C1964 C1965 1.404 . S
C1964 C1967 1.539 . S
C1965 C1961 1.408 . S
C1965 C1964 1.404 . S
C1965 H1977 0.930 . S
C1966 C1962 1.524 . S
C1966 H1978 0.956 . S
C1966 H1979 0.961 . S
C1966 H1980 0.961 . S
C1967 C1964 1.539 . S
C1967 H1981 0.958 . S
C1967 H1982 0.961 . S
C1967 H1983 0.960 . S
H1968 C1952 0.931 . S
H1969 C1957 0.929 . S
H1970 C1958 0.960 . S
H1971 C1958 0.962 . S
H1972 C1958 0.960 . S
H1973 C1959 0.961 . S
H1974 C1959 0.961 . S
H1975 C1959 0.961 . S
H1976 C1960 0.931 . S
H1977 C1965 0.930 . S
H1978 C1966 0.956 . S
H1979 C1966 0.961 . S
H1980 C1966 0.961 . S
H1981 C1967 0.958 . S
H1982 C1967 0.961 . S
H1983 C1967 0.960 . S
C1984 C1985 1.391 . S
C1984 C1986 1.394 . S
C1984 H2000 0.931 . S
C1985 C1984 1.391 . S
C1985 C1989 1.376 . S
C1986 C1984 1.394 . S
C1986 C1987 1.369 . S
C1986 C1990 1.531 . S
C1987 C1986 1.369 . S
C1987 C1988 1.410 . S
C1987 C1995 1.503 . S
C1988 C1987 1.410 . S
C1988 C1989 1.392 . S
C1988 C1991 1.511 . S
C1989 C1985 1.376 . S
C1989 C1988 1.392 . S
C1989 H2001 0.929 . S
C1990 C1986 1.531 . S
C1990 H2002 0.960 . S
C1990 H2003 0.962 . S
C1990 H2004 0.960 . S
C1991 C1988 1.511 . S
C1991 H2005 0.961 . S
C1991 H2006 0.961 . S
C1991 H2007 0.961 . S
C1992 C1993 1.370 . S
C1992 C1994 1.363 . S
C1992 H2008 0.931 . S
C1993 C1992 1.370 . S
C1993 C1997 1.408 . S
C1994 C1992 1.363 . S
C1994 C1995 1.370 . S
C1994 C1998 1.524 . S
C1995 C1987 1.503 . S
C1995 C1994 1.370 . S
C1995 C1996 1.403 . S
C1996 C1995 1.403 . S
C1996 C1997 1.404 . S
C1996 C1999 1.539 . S
C1997 C1993 1.408 . S
C1997 C1996 1.404 . S
C1997 H2009 0.930 . S
C1998 C1994 1.524 . S
C1998 H2010 0.956 . S
C1998 H2011 0.961 . S
C1998 H2012 0.961 . S
C1999 C1996 1.539 . S
C1999 H2013 0.958 . S
C1999 H2014 0.961 . S
C1999 H2015 0.960 . S
H2000 C1984 0.931 . S
H2001 C1989 0.929 . S
H2002 C1990 0.960 . S
H2003 C1990 0.962 . S
H2004 C1990 0.960 . S
H2005 C1991 0.961 . S
H2006 C1991 0.961 . S
H2007 C1991 0.961 . S
H2008 C1992 0.931 . S
H2009 C1997 0.930 . S
H2010 C1998 0.956 . S
H2011 C1998 0.961 . S
H2012 C1998 0.961 . S
H2013 C1999 0.958 . S
H2014 C1999 0.961 . S
H2015 C1999 0.960 . S
C2016 C2017 1.391 . S
C2016 C2018 1.394 . S
C2016 H2032 0.931 . S
C2017 C2016 1.391 . S
C2017 C2021 1.376 . S
C2018 C2016 1.394 . S
C2018 C2019 1.369 . S
C2018 C2022 1.531 . S
C2019 C2018 1.369 . S
C2019 C2020 1.410 . S
C2019 C2027 1.503 . S
C2020 C2019 1.410 . S
C2020 C2021 1.392 . S
C2020 C2023 1.511 . S
C2021 C2017 1.376 . S
C2021 C2020 1.392 . S
C2021 H2033 0.929 . S
C2022 C2018 1.531 . S
C2022 H2034 0.960 . S
C2022 H2035 0.962 . S
C2022 H2036 0.960 . S
C2023 C2020 1.511 . S
C2023 H2037 0.961 . S
C2023 H2038 0.961 . S
C2023 H2039 0.961 . S
C2024 C2025 1.370 . S
C2024 C2026 1.363 . S
C2024 H2040 0.931 . S
C2025 C2024 1.370 . S
C2025 C2029 1.408 . S
C2026 C2024 1.363 . S
C2026 C2027 1.370 . S
C2026 C2030 1.524 . S
C2027 C2019 1.503 . S
C2027 C2026 1.370 . S
C2027 C2028 1.403 . S
C2028 C2027 1.403 . S
C2028 C2029 1.404 . S
C2028 C2031 1.539 . S
C2029 C2025 1.408 . S
C2029 C2028 1.404 . S
C2029 H2041 0.930 . S
C2030 C2026 1.524 . S
C2030 H2042 0.956 . S
C2030 H2043 0.961 . S
C2030 H2044 0.961 . S
C2031 C2028 1.539 . S
C2031 H2045 0.958 . S
C2031 H2046 0.961 . S
C2031 H2047 0.960 . S
H2032 C2016 0.931 . S
H2033 C2021 0.929 . S
H2034 C2022 0.960 . S
H2035 C2022 0.962 . S
H2036 C2022 0.960 . S
H2037 C2023 0.961 . S
H2038 C2023 0.961 . S
H2039 C2023 0.961 . S
H2040 C2024 0.931 . S
H2041 C2029 0.930 . S
H2042 C2030 0.956 . S
H2043 C2030 0.961 . S
H2044 C2030 0.961 . S
H2045 C2031 0.958 . S
H2046 C2031 0.961 . S
H2047 C2031 0.960 . S
C2048 C2049 1.391 . S
C2048 C2050 1.394 . S
C2048 H2064 0.931 . S
C2049 C2048 1.391 . S
C2049 C2053 1.376 . S
C2050 C2048 1.394 . S
C2050 C2051 1.369 . S
C2050 C2054 1.531 . S
C2051 C2050 1.369 . S
C2051 C2052 1.410 . S
C2051 C2059 1.503 . S
C2052 C2051 1.410 . S
C2052 C2053 1.392 . S
C2052 C2055 1.511 . S
C2053 C2049 1.376 . S
C2053 C2052 1.392 . S
C2053 H2065 0.929 . S
C2054 C2050 1.531 . S
C2054 H2066 0.960 . S
C2054 H2067 0.962 . S
C2054 H2068 0.960 . S
C2055 C2052 1.511 . S
C2055 H2069 0.961 . S
C2055 H2070 0.961 . S
C2055 H2071 0.961 . S
C2056 C2057 1.370 . S
C2056 C2058 1.363 . S
C2056 H2072 0.931 . S
C2057 C2056 1.370 . S
C2057 C2061 1.408 . S
C2058 C2056 1.363 . S
C2058 C2059 1.370 . S
C2058 C2062 1.524 . S
C2059 C2051 1.503 . S
C2059 C2058 1.370 . S
C2059 C2060 1.403 . S
C2060 C2059 1.403 . S
C2060 C2061 1.404 . S
C2060 C2063 1.539 . S
C2061 C2057 1.408 . S
C2061 C2060 1.404 . S
C2061 H2073 0.930 . S
C2062 C2058 1.524 . S
C2062 H2074 0.956 . S
C2062 H2075 0.961 . S
C2062 H2076 0.961 . S
C2063 C2060 1.539 . S
C2063 H2077 0.958 . S
C2063 H2078 0.961 . S
C2063 H2079 0.960 . S
H2064 C2048 0.931 . S
H2065 C2053 0.929 . S
H2066 C2054 0.960 . S
H2067 C2054 0.962 . S
H2068 C2054 0.960 . S
H2069 C2055 0.961 . S
H2070 C2055 0.961 . S
H2071 C2055 0.961 . S
H2072 C2056 0.931 . S
H2073 C2061 0.930 . S
H2074 C2062 0.956 . S
H2075 C2062 0.961 . S
H2076 C2062 0.961 . S
H2077 C2063 0.958 . S
H2078 C2063 0.961 . S
H2079 C2063 0.960 . S
C2080 C2081 1.391 . S
C2080 C2082 1.394 . S
C2080 H2096 0.931 . S
C2081 C2080 1.391 . S
C2081 C2085 1.376 . S
C2082 C2080 1.394 . S
C2082 C2083 1.369 . S
C2082 C2086 1.531 . S
C2083 C2082 1.369 . S
C2083 C2084 1.410 . S
C2083 C2091 1.503 . S
C2084 C2083 1.410 . S
C2084 C2085 1.392 . S
C2084 C2087 1.511 . S
C2085 C2081 1.376 . S
C2085 C2084 1.392 . S
C2085 H2097 0.929 . S
C2086 C2082 1.531 . S
C2086 H2098 0.960 . S
C2086 H2099 0.962 . S
C2086 H2100 0.960 . S
C2087 C2084 1.511 . S
C2087 H2101 0.961 . S
C2087 H2102 0.961 . S
C2087 H2103 0.961 . S
C2088 C2089 1.370 . S
C2088 C2090 1.363 . S
C2088 H2104 0.931 1_556 S
C2089 C2088 1.370 . S
C2089 C2093 1.408 . S
C2090 C2088 1.363 . S
C2090 C2091 1.370 . S
C2090 C2094 1.524 . S
C2091 C2083 1.503 . S
C2091 C2090 1.370 . S
C2091 C2092 1.403 . S
C2092 C2091 1.403 . S
C2092 C2093 1.404 . S
C2092 C2095 1.539 . S
C2093 C2089 1.408 . S
C2093 C2092 1.404 . S
C2093 H2105 0.930 . S
C2094 C2090 1.524 . S
C2094 H2106 0.956 . S
C2094 H2107 0.961 . S
C2094 H2108 0.961 1_556 S
C2095 C2092 1.539 . S
C2095 H2109 0.958 . S
C2095 H2110 0.961 . S
C2095 H2111 0.960 . S
H2096 C2080 0.931 . S
H2097 C2085 0.929 . S
H2098 C2086 0.960 . S
H2099 C2086 0.962 . S
H2100 C2086 0.960 . S
H2101 C2087 0.961 . S
H2102 C2087 0.961 . S
H2103 C2087 0.961 . S
H2104 C2088 0.931 1_554 S
H2105 C2093 0.930 . S
H2106 C2094 0.956 . S
H2107 C2094 0.961 . S
H2108 C2094 0.961 1_554 S
H2109 C2095 0.958 . S
H2110 C2095 0.961 . S
H2111 C2095 0.960 . S
C2112 C2113 1.391 . S
C2112 C2114 1.394 . S
C2112 H2128 0.931 . S
C2113 C2112 1.391 . S
C2113 C2117 1.376 . S
C2114 C2112 1.394 . S
C2114 C2115 1.369 . S
C2114 C2118 1.531 . S
C2115 C2114 1.369 . S
C2115 C2116 1.410 . S
C2115 C2123 1.503 . S
C2116 C2115 1.410 . S
C2116 C2117 1.392 . S
C2116 C2119 1.511 . S
C2117 C2113 1.376 . S
C2117 C2116 1.392 . S
C2117 H2129 0.929 . S
C2118 C2114 1.531 . S
C2118 H2130 0.960 . S
C2118 H2131 0.962 . S
C2118 H2132 0.960 . S
C2119 C2116 1.511 . S
C2119 H2133 0.961 . S
C2119 H2134 0.961 . S
C2119 H2135 0.961 . S
C2120 C2121 1.370 . S
C2120 C2122 1.363 . S
C2120 H2136 0.931 . S
C2121 C2120 1.370 . S
C2121 C2125 1.408 . S
C2122 C2120 1.363 . S
C2122 C2123 1.370 . S
C2122 C2126 1.524 . S
C2123 C2115 1.503 . S
C2123 C2122 1.370 . S
C2123 C2124 1.403 . S
C2124 C2123 1.403 . S
C2124 C2125 1.404 . S
C2124 C2127 1.539 . S
C2125 C2121 1.408 . S
C2125 C2124 1.404 . S
C2125 H2137 0.930 . S
C2126 C2122 1.524 . S
C2126 H2138 0.956 . S
C2126 H2139 0.961 . S
C2126 H2140 0.961 . S
C2127 C2124 1.539 . S
C2127 H2141 0.958 . S
C2127 H2142 0.961 . S
C2127 H2143 0.960 . S
H2128 C2112 0.931 . S
H2129 C2117 0.929 . S
H2130 C2118 0.960 . S
H2131 C2118 0.962 . S
H2132 C2118 0.960 . S
H2133 C2119 0.961 . S
H2134 C2119 0.961 . S
H2135 C2119 0.961 . S
H2136 C2120 0.931 . S
H2137 C2125 0.930 . S
H2138 C2126 0.956 . S
H2139 C2126 0.961 . S
H2140 C2126 0.961 . S
H2141 C2127 0.958 . S
H2142 C2127 0.961 . S
H2143 C2127 0.960 . S
C2144 C2145 1.391 . S
C2144 C2146 1.394 . S
C2144 H2160 0.931 . S
C2145 C2144 1.391 . S
C2145 C2149 1.376 . S
C2146 C2144 1.394 . S
C2146 C2147 1.369 . S
C2146 C2150 1.531 . S
C2147 C2146 1.369 . S
C2147 C2148 1.410 . S
C2147 C2155 1.503 . S
C2148 C2147 1.410 . S
C2148 C2149 1.392 . S
C2148 C2151 1.511 . S
C2149 C2145 1.376 . S
C2149 C2148 1.392 . S
C2149 H2161 0.929 . S
C2150 C2146 1.531 . S
C2150 H2162 0.960 . S
C2150 H2163 0.962 . S
C2150 H2164 0.960 . S
C2151 C2148 1.511 . S
C2151 H2165 0.961 . S
C2151 H2166 0.961 . S
C2151 H2167 0.961 . S
C2152 C2153 1.370 . S
C2152 C2154 1.363 . S
C2152 H2168 0.931 . S
C2153 C2152 1.370 . S
C2153 C2157 1.408 . S
C2154 C2152 1.363 . S
C2154 C2155 1.370 . S
C2154 C2158 1.524 . S
C2155 C2147 1.503 . S
C2155 C2154 1.370 . S
C2155 C2156 1.403 . S
C2156 C2155 1.403 . S
C2156 C2157 1.404 . S
C2156 C2159 1.539 . S
C2157 C2153 1.408 . S
C2157 C2156 1.404 . S
C2157 H2169 0.930 . S
C2158 C2154 1.524 . S
C2158 H2170 0.956 . S
C2158 H2171 0.961 . S
C2158 H2172 0.961 . S
C2159 C2156 1.539 . S
C2159 H2173 0.958 . S
C2159 H2174 0.961 . S
C2159 H2175 0.960 . S
H2160 C2144 0.931 . S
H2161 C2149 0.929 . S
H2162 C2150 0.960 . S
H2163 C2150 0.962 . S
H2164 C2150 0.960 . S
H2165 C2151 0.961 . S
H2166 C2151 0.961 . S
H2167 C2151 0.961 . S
H2168 C2152 0.931 . S
H2169 C2157 0.930 . S
H2170 C2158 0.956 . S
H2171 C2158 0.961 . S
H2172 C2158 0.961 . S
H2173 C2159 0.958 . S
H2174 C2159 0.961 . S
H2175 C2159 0.960 . S
C2176 C2177 1.391 . S
C2176 C2178 1.394 . S
C2176 H2192 0.931 . S
C2177 C2176 1.391 . S
C2177 C2181 1.376 . S
C2178 C2176 1.394 . S
C2178 C2179 1.369 . S
C2178 C2182 1.531 . S
C2179 C2178 1.369 . S
C2179 C2180 1.410 . S
C2179 C2187 1.503 . S
C2180 C2179 1.410 . S
C2180 C2181 1.392 . S
C2180 C2183 1.511 . S
C2181 C2177 1.376 . S
C2181 C2180 1.392 . S
C2181 H2193 0.929 . S
C2182 C2178 1.531 . S
C2182 H2194 0.960 . S
C2182 H2195 0.962 . S
C2182 H2196 0.960 . S
C2183 C2180 1.511 . S
C2183 H2197 0.961 . S
C2183 H2198 0.961 . S
C2183 H2199 0.961 . S
C2184 C2185 1.370 1_554 S
C2184 C2186 1.363 1_554 S
C2184 H2200 0.931 . S
C2185 C2184 1.370 1_556 S
C2185 C2189 1.408 . S
C2186 C2184 1.363 1_556 S
C2186 C2187 1.370 . S
C2186 C2190 1.524 1_556 S
C2187 C2179 1.503 . S
C2187 C2186 1.370 . S
C2187 C2188 1.403 . S
C2188 C2187 1.403 . S
C2188 C2189 1.404 . S
C2188 C2191 1.539 . S
C2189 C2185 1.408 . S
C2189 C2188 1.404 . S
C2189 H2201 0.930 . S
C2190 C2186 1.524 1_554 S
C2190 H2202 0.959 . S
C2190 H2203 0.961 1_554 S
C2190 H2204 0.961 . S
C2191 C2188 1.539 . S
C2191 H2205 0.958 . S
C2191 H2206 0.961 . S
C2191 H2207 0.960 . S
H2192 C2176 0.931 . S
H2193 C2181 0.929 . S
H2194 C2182 0.960 . S
H2195 C2182 0.962 . S
H2196 C2182 0.960 . S
H2197 C2183 0.961 . S
H2198 C2183 0.961 . S
H2199 C2183 0.961 . S
H2200 C2184 0.931 . S
H2201 C2189 0.930 . S
H2202 C2190 0.959 . S
H2203 C2190 0.961 1_556 S
H2204 C2190 0.961 . S
H2205 C2191 0.958 . S
H2206 C2191 0.961 . S
H2207 C2191 0.960 . S
C2208 C2209 1.391 . S
C2208 C2210 1.394 . S
C2208 H2224 0.931 . S
C2209 C2208 1.391 . S
C2209 C2213 1.376 . S
C2210 C2208 1.394 . S
C2210 C2211 1.369 . S
C2210 C2214 1.531 . S
C2211 C2210 1.369 . S
C2211 C2212 1.410 . S
C2211 C2219 1.503 . S
C2212 C2211 1.410 . S
C2212 C2213 1.392 . S
C2212 C2215 1.511 . S
C2213 C2209 1.376 . S
C2213 C2212 1.392 . S
C2213 H2225 0.929 . S
C2214 C2210 1.531 . S
C2214 H2226 0.960 . S
C2214 H2227 0.962 . S
C2214 H2228 0.960 . S
C2215 C2212 1.511 . S
C2215 H2229 0.961 . S
C2215 H2230 0.961 . S
C2215 H2231 0.961 . S
C2216 C2217 1.370 . S
C2216 C2218 1.363 . S
C2216 H2232 0.931 . S
C2217 C2216 1.370 . S
C2217 C2221 1.408 . S
C2218 C2216 1.363 . S
C2218 C2219 1.370 . S
C2218 C2222 1.524 . S
C2219 C2211 1.503 . S
C2219 C2218 1.370 . S
C2219 C2220 1.403 . S
C2220 C2219 1.403 . S
C2220 C2221 1.404 . S
C2220 C2223 1.539 . S
C2221 C2217 1.408 . S
C2221 C2220 1.404 . S
C2221 H2233 0.930 . S
C2222 C2218 1.524 . S
C2222 H2234 0.956 . S
C2222 H2235 0.961 . S
C2222 H2236 0.961 . S
C2223 C2220 1.539 . S
C2223 H2237 0.958 . S
C2223 H2238 0.961 . S
C2223 H2239 0.960 . S
H2224 C2208 0.931 . S
H2225 C2213 0.929 . S
H2226 C2214 0.960 . S
H2227 C2214 0.962 . S
H2228 C2214 0.960 . S
H2229 C2215 0.961 . S
H2230 C2215 0.961 . S
H2231 C2215 0.961 . S
H2232 C2216 0.931 . S
H2233 C2221 0.930 . S
H2234 C2222 0.956 . S
H2235 C2222 0.961 . S
H2236 C2222 0.961 . S
H2237 C2223 0.958 . S
H2238 C2223 0.961 . S
H2239 C2223 0.960 . S
C2240 C2241 1.391 . S
C2240 C2242 1.394 . S
C2240 H2256 0.931 . S
C2241 C2240 1.391 . S
C2241 C2245 1.376 . S
C2242 C2240 1.394 . S
C2242 C2243 1.369 . S
C2242 C2246 1.531 . S
C2243 C2242 1.369 . S
C2243 C2244 1.410 . S
C2243 C2251 1.503 . S
C2244 C2243 1.410 . S
C2244 C2245 1.392 . S
C2244 C2247 1.511 . S
C2245 C2241 1.376 . S
C2245 C2244 1.392 . S
C2245 H2257 0.929 1_556 S
C2246 C2242 1.531 . S
C2246 H2258 0.960 . S
C2246 H2259 0.962 . S
C2246 H2260 0.960 . S
C2247 C2244 1.511 . S
C2247 H2261 0.961 . S
C2247 H2262 0.961 . S
C2247 H2263 0.961 . S
C2248 C2249 1.370 . S
C2248 C2250 1.363 . S
C2248 H2264 0.931 . S
C2249 C2248 1.370 . S
C2249 C2253 1.408 . S
C2250 C2248 1.363 . S
C2250 C2251 1.370 . S
C2250 C2254 1.524 . S
C2251 C2243 1.503 . S
C2251 C2250 1.370 . S
C2251 C2252 1.403 . S
C2252 C2251 1.403 . S
C2252 C2253 1.404 . S
C2252 C2255 1.539 . S
C2253 C2249 1.408 . S
C2253 C2252 1.404 . S
C2253 H2265 0.930 . S
C2254 C2250 1.524 . S
C2254 H2266 0.956 . S
C2254 H2267 0.949 1_556 S
C2254 H2268 0.961 . S
C2255 C2252 1.539 . S
C2255 H2269 0.958 . S
C2255 H2270 0.961 . S
C2255 H2271 0.960 . S
H2256 C2240 0.931 . S
H2257 C2245 0.929 1_554 S
H2258 C2246 0.960 . S
H2259 C2246 0.962 . S
H2260 C2246 0.960 . S
H2261 C2247 0.961 . S
H2262 C2247 0.961 . S
H2263 C2247 0.961 . S
H2264 C2248 0.931 . S
H2265 C2253 0.930 . S
H2266 C2254 0.956 . S
H2267 C2254 0.949 1_554 S
H2268 C2254 0.961 . S
H2269 C2255 0.958 . S
H2270 C2255 0.961 . S
H2271 C2255 0.960 . S
C2272 C2273 1.391 . S
C2272 C2274 1.394 . S
C2272 H2288 0.931 . S
C2273 C2272 1.391 . S
C2273 C2277 1.376 . S
C2274 C2272 1.394 . S
C2274 C2275 1.369 . S
C2274 C2278 1.531 . S
C2275 C2274 1.369 . S
C2275 C2276 1.410 . S
C2275 C2283 1.503 . S
C2276 C2275 1.410 . S
C2276 C2277 1.392 . S
C2276 C2279 1.511 . S
C2277 C2273 1.376 . S
C2277 C2276 1.392 . S
C2277 H2289 0.929 . S
C2278 C2274 1.531 . S
C2278 H2290 0.960 . S
C2278 H2291 0.962 . S
C2278 H2292 0.960 . S
C2279 C2276 1.511 . S
C2279 H2293 0.961 . S
C2279 H2294 0.961 . S
C2279 H2295 0.961 . S
C2280 C2281 1.370 . S
C2280 C2282 1.363 . S
C2280 H2296 0.931 . S
C2281 C2280 1.370 . S
C2281 C2285 1.408 . S
C2282 C2280 1.363 . S
C2282 C2283 1.370 . S
C2282 C2286 1.524 . S
C2283 C2275 1.503 . S
C2283 C2282 1.370 . S
C2283 C2284 1.403 . S
C2284 C2283 1.403 . S
C2284 C2285 1.404 . S
C2284 C2287 1.539 . S
C2285 C2281 1.408 . S
C2285 C2284 1.404 . S
C2285 H2297 0.930 . S
C2286 C2282 1.524 . S
C2286 H2298 0.956 . S
C2286 H2299 0.961 . S
C2286 H2300 0.961 . S
C2287 C2284 1.539 . S
C2287 H2301 0.958 . S
C2287 H2302 0.961 . S
C2287 H2303 0.960 . S
H2288 C2272 0.931 . S
H2289 C2277 0.929 . S
H2290 C2278 0.960 . S
H2291 C2278 0.962 . S
H2292 C2278 0.960 . S
H2293 C2279 0.961 . S
H2294 C2279 0.961 . S
H2295 C2279 0.961 . S
H2296 C2280 0.931 . S
H2297 C2285 0.930 . S
H2298 C2286 0.956 . S
H2299 C2286 0.961 . S
H2300 C2286 0.961 . S
H2301 C2287 0.958 . S
H2302 C2287 0.961 . S
H2303 C2287 0.960 . S
C2304 C2305 1.391 . S
C2304 C2306 1.394 . S
C2304 H2320 0.931 . S
C2305 C2304 1.391 . S
C2305 C2309 1.376 . S
C2306 C2304 1.394 . S
C2306 C2307 1.369 . S
C2306 C2310 1.531 . S
C2307 C2306 1.369 . S
C2307 C2308 1.410 . S
C2307 C2315 1.503 . S
C2308 C2307 1.410 . S
C2308 C2309 1.392 . S
C2308 C2311 1.511 . S
C2309 C2305 1.376 . S
C2309 C2308 1.392 . S
C2309 H2321 0.929 . S
C2310 C2306 1.531 . S
C2310 H2322 0.960 . S
C2310 H2323 0.962 . S
C2310 H2324 0.960 . S
C2311 C2308 1.511 . S
C2311 H2325 0.961 . S
C2311 H2326 0.961 . S
C2311 H2327 0.961 . S
C2312 C2313 1.370 . S
C2312 C2314 1.363 . S
C2312 H2328 0.931 . S
C2313 C2312 1.370 . S
C2313 C2317 1.408 . S
C2314 C2312 1.363 . S
C2314 C2315 1.370 . S
C2314 C2318 1.524 . S
C2315 C2307 1.503 . S
C2315 C2314 1.370 . S
C2315 C2316 1.403 . S
C2316 C2315 1.403 . S
C2316 C2317 1.404 . S
C2316 C2319 1.539 . S
C2317 C2313 1.408 . S
C2317 C2316 1.404 . S
C2317 H2329 0.930 . S
C2318 C2314 1.524 . S
C2318 H2330 0.956 . S
C2318 H2331 0.961 . S
C2318 H2332 0.961 . S
C2319 C2316 1.539 . S
C2319 H2333 0.958 . S
C2319 H2334 0.961 . S
C2319 H2335 0.960 . S
H2320 C2304 0.931 . S
H2321 C2309 0.929 . S
H2322 C2310 0.960 . S
H2323 C2310 0.962 . S
H2324 C2310 0.960 . S
H2325 C2311 0.961 . S
H2326 C2311 0.961 . S
H2327 C2311 0.961 . S
H2328 C2312 0.931 . S
H2329 C2317 0.930 . S
H2330 C2318 0.956 . S
H2331 C2318 0.961 . S
H2332 C2318 0.961 . S
H2333 C2319 0.958 . S
H2334 C2319 0.961 . S
H2335 C2319 0.960 . S
C2336 C2337 1.391 . S
C2336 C2338 1.394 . S
C2336 H2352 0.931 . S
C2337 C2336 1.391 . S
C2337 C2341 1.376 . S
C2338 C2336 1.394 . S
C2338 C2339 1.369 . S
C2338 C2342 1.531 . S
C2339 C2338 1.369 . S
C2339 C2340 1.410 . S
C2339 C2347 1.503 . S
C2340 C2339 1.410 . S
C2340 C2341 1.392 . S
C2340 C2343 1.511 . S
C2341 C2337 1.376 . S
C2341 C2340 1.392 . S
C2341 H2353 0.929 . S
C2342 C2338 1.531 . S
C2342 H2354 0.960 . S
C2342 H2355 0.962 . S
C2342 H2356 0.960 . S
C2343 C2340 1.511 . S
C2343 H2357 0.961 . S
C2343 H2358 0.961 . S
C2343 H2359 0.961 . S
C2344 C2345 1.370 . S
C2344 C2346 1.363 . S
C2344 H2360 0.931 . S
C2345 C2344 1.370 . S
C2345 C2349 1.408 . S
C2346 C2344 1.363 . S
C2346 C2347 1.370 . S
C2346 C2350 1.524 . S
C2347 C2339 1.503 . S
C2347 C2346 1.370 . S
C2347 C2348 1.403 . S
C2348 C2347 1.403 . S
C2348 C2349 1.404 . S
C2348 C2351 1.539 . S
C2349 C2345 1.408 . S
C2349 C2348 1.404 . S
C2349 H2361 0.930 . S
C2350 C2346 1.524 . S
C2350 H2362 0.956 . S
C2350 H2363 0.961 . S
C2350 H2364 0.961 . S
C2351 C2348 1.539 . S
C2351 H2365 0.958 . S
C2351 H2366 0.961 . S
C2351 H2367 0.960 . S
H2352 C2336 0.931 . S
H2353 C2341 0.929 . S
H2354 C2342 0.960 . S
H2355 C2342 0.962 . S
H2356 C2342 0.960 . S
H2357 C2343 0.961 . S
H2358 C2343 0.961 . S
H2359 C2343 0.961 . S
H2360 C2344 0.931 . S
H2361 C2349 0.930 . S
H2362 C2350 0.956 . S
H2363 C2350 0.961 . S
H2364 C2350 0.961 . S
H2365 C2351 0.958 . S
H2366 C2351 0.961 . S
H2367 C2351 0.960 . S
C2368 C2369 1.391 . S
C2368 C2370 1.394 . S
C2368 H2384 0.931 . S
C2369 C2368 1.391 . S
C2369 C2373 1.376 . S
C2370 C2368 1.394 . S
C2370 C2371 1.369 . S
C2370 C2374 1.531 . S
C2371 C2370 1.369 . S
C2371 C2372 1.410 . S
C2371 C2379 1.503 . S
C2372 C2371 1.410 . S
C2372 C2373 1.392 . S
C2372 C2375 1.511 . S
C2373 C2369 1.376 . S
C2373 C2372 1.392 . S
C2373 H2385 0.929 . S
C2374 C2370 1.531 . S
C2374 H2386 0.960 . S
C2374 H2387 0.962 . S
C2374 H2388 0.960 . S
C2375 C2372 1.511 . S
C2375 H2389 0.961 . S
C2375 H2390 0.961 . S
C2375 H2391 0.961 . S
C2376 C2377 1.370 . S
C2376 C2378 1.363 . S
C2376 H2392 0.931 . S
C2377 C2376 1.370 . S
C2377 C2381 1.408 . S
C2378 C2376 1.363 . S
C2378 C2379 1.370 . S
C2378 C2382 1.524 . S
C2379 C2371 1.503 . S
C2379 C2378 1.370 . S
C2379 C2380 1.403 . S
C2380 C2379 1.403 . S
C2380 C2381 1.404 . S
C2380 C2383 1.539 . S
C2381 C2377 1.408 . S
C2381 C2380 1.404 . S
C2381 H2393 0.930 . S
C2382 C2378 1.524 . S
C2382 H2394 0.956 . S
C2382 H2395 0.961 . S
C2382 H2396 0.961 . S
C2383 C2380 1.539 . S
C2383 H2397 0.958 . S
C2383 H2398 0.961 . S
C2383 H2399 0.960 . S
H2384 C2368 0.931 . S
H2385 C2373 0.929 . S
H2386 C2374 0.960 . S
H2387 C2374 0.962 . S
H2388 C2374 0.960 . S
H2389 C2375 0.961 . S
H2390 C2375 0.961 . S
H2391 C2375 0.961 . S
H2392 C2376 0.931 . S
H2393 C2381 0.930 . S
H2394 C2382 0.956 . S
H2395 C2382 0.961 . S
H2396 C2382 0.961 . S
H2397 C2383 0.958 . S
H2398 C2383 0.961 . S
H2399 C2383 0.960 . S
C2400 C2401 1.391 . S
C2400 C2402 1.394 . S
C2400 H2416 0.931 . S
C2401 C2400 1.391 . S
C2401 C2405 1.376 . S
C2402 C2400 1.394 . S
C2402 C2403 1.369 . S
C2402 C2406 1.531 . S
C2403 C2402 1.369 . S
C2403 C2404 1.410 . S
C2403 C2411 1.503 . S
C2404 C2403 1.410 . S
C2404 C2405 1.392 . S
C2404 C2407 1.511 . S
C2405 C2401 1.376 . S
C2405 C2404 1.392 . S
C2405 H2417 0.929 . S
C2406 C2402 1.531 . S
C2406 H2418 0.960 . S
C2406 H2419 0.962 . S
C2406 H2420 0.960 . S
C2407 C2404 1.511 . S
C2407 H2421 0.961 . S
C2407 H2422 0.961 . S
C2407 H2423 0.961 . S
C2408 C2409 1.370 . S
C2408 C2410 1.363 . S
C2408 H2424 0.931 . S
C2409 C2408 1.370 . S
C2409 C2413 1.408 . S
C2410 C2408 1.363 . S
C2410 C2411 1.370 . S
C2410 C2414 1.524 . S
C2411 C2403 1.503 . S
C2411 C2410 1.370 . S
C2411 C2412 1.403 . S
C2412 C2411 1.403 . S
C2412 C2413 1.404 . S
C2412 C2415 1.539 . S
C2413 C2409 1.408 . S
C2413 C2412 1.404 . S
C2413 H2425 0.930 . S
C2414 C2410 1.524 . S
C2414 H2426 0.956 . S
C2414 H2427 0.961 . S
C2414 H2428 0.961 . S
C2415 C2412 1.539 . S
C2415 H2429 0.958 . S
C2415 H2430 0.961 . S
C2415 H2431 0.960 . S
H2416 C2400 0.931 . S
H2417 C2405 0.929 . S
H2418 C2406 0.960 . S
H2419 C2406 0.962 . S
H2420 C2406 0.960 . S
H2421 C2407 0.961 . S
H2422 C2407 0.961 . S
H2423 C2407 0.961 . S
H2424 C2408 0.931 . S
H2425 C2413 0.930 . S
H2426 C2414 0.956 . S
H2427 C2414 0.961 . S
H2428 C2414 0.961 . S
H2429 C2415 0.958 . S
H2430 C2415 0.961 . S
H2431 C2415 0.960 . S
C2432 C2433 1.391 . S
C2432 C2434 1.394 . S
C2432 H2448 0.931 . S
C2433 C2432 1.391 . S
C2433 C2437 1.376 . S
C2434 C2432 1.394 . S
C2434 C2435 1.369 . S
C2434 C2438 1.531 . S
C2435 C2434 1.369 . S
C2435 C2436 1.410 . S
C2435 C2443 1.503 . S
C2436 C2435 1.410 . S
C2436 C2437 1.392 . S
C2436 C2439 1.511 . S
C2437 C2433 1.376 . S
C2437 C2436 1.392 . S
C2437 H2449 0.929 . S
C2438 C2434 1.531 . S
C2438 H2450 0.960 . S
C2438 H2451 0.962 . S
C2438 H2452 0.960 . S
C2439 C2436 1.511 . S
C2439 H2453 0.961 . S
C2439 H2454 0.961 . S
C2439 H2455 0.961 . S
C2440 C2441 1.370 . S
C2440 C2442 1.363 . S
C2440 H2456 0.931 . S
C2441 C2440 1.370 . S
C2441 C2445 1.408 . S
C2442 C2440 1.363 . S
C2442 C2443 1.370 . S
C2442 C2446 1.524 . S
C2443 C2435 1.503 . S
C2443 C2442 1.370 . S
C2443 C2444 1.403 . S
C2444 C2443 1.403 . S
C2444 C2445 1.404 . S
C2444 C2447 1.539 . S
C2445 C2441 1.408 . S
C2445 C2444 1.404 . S
C2445 H2457 0.930 . S
C2446 C2442 1.524 . S
C2446 H2458 0.956 . S
C2446 H2459 0.961 . S
C2446 H2460 0.961 . S
C2447 C2444 1.539 . S
C2447 H2461 0.958 . S
C2447 H2462 0.961 . S
C2447 H2463 0.960 . S
H2448 C2432 0.931 . S
H2449 C2437 0.929 . S
H2450 C2438 0.960 . S
H2451 C2438 0.962 . S
H2452 C2438 0.960 . S
H2453 C2439 0.961 . S
H2454 C2439 0.961 . S
H2455 C2439 0.961 . S
H2456 C2440 0.931 . S
H2457 C2445 0.930 . S
H2458 C2446 0.956 . S
H2459 C2446 0.961 . S
H2460 C2446 0.961 . S
H2461 C2447 0.958 . S
H2462 C2447 0.961 . S
H2463 C2447 0.960 . S
C2464 C2465 1.391 . S
C2464 C2466 1.394 . S
C2464 H2480 0.931 . S
C2465 C2464 1.391 . S
C2465 C2469 1.376 . S
C2466 C2464 1.394 . S
C2466 C2467 1.369 . S
C2466 C2470 1.531 . S
C2467 C2466 1.369 . S
C2467 C2468 1.410 . S
C2467 C2475 1.503 . S
C2468 C2467 1.410 . S
C2468 C2469 1.392 . S
C2468 C2471 1.511 . S
C2469 C2465 1.376 . S
C2469 C2468 1.392 . S
C2469 H2481 0.929 . S
C2470 C2466 1.531 . S
C2470 H2482 0.960 . S
C2470 H2483 0.962 . S
C2470 H2484 0.960 . S
C2471 C2468 1.511 . S
C2471 H2485 0.961 . S
C2471 H2486 0.961 . S
C2471 H2487 0.961 . S
C2472 C2473 1.370 1_554 S
C2472 C2474 1.363 1_554 S
C2472 H2488 0.931 . S
C2473 C2472 1.370 1_556 S
C2473 C2477 1.408 . S
C2474 C2472 1.363 1_556 S
C2474 C2475 1.370 . S
C2474 C2478 1.524 . S
C2475 C2467 1.503 . S
C2475 C2474 1.370 . S
C2475 C2476 1.403 . S
C2476 C2475 1.403 . S
C2476 C2477 1.404 . S
C2476 C2479 1.539 . S
C2477 C2473 1.408 . S
C2477 C2476 1.404 . S
C2477 H2489 0.930 . S
C2478 C2474 1.524 . S
C2478 H2490 0.956 . S
C2478 H2491 0.961 . S
C2478 H2492 0.961 1_556 S
C2479 C2476 1.539 . S
C2479 H2493 0.958 . S
C2479 H2494 0.961 . S
C2479 H2495 0.960 . S
H2480 C2464 0.931 . S
H2481 C2469 0.929 . S
H2482 C2470 0.960 . S
H2483 C2470 0.962 . S
H2484 C2470 0.960 . S
H2485 C2471 0.961 . S
H2486 C2471 0.961 . S
H2487 C2471 0.961 . S
H2488 C2472 0.931 . S
H2489 C2477 0.930 . S
H2490 C2478 0.956 . S
H2491 C2478 0.961 . S
H2492 C2478 0.961 1_554 S
H2493 C2479 0.958 . S
H2494 C2479 0.961 . S
H2495 C2479 0.960 . S
C449 C121 1.384 . S
C457 C9 1.393 . S
C481 C23 1.389 . S
C489 C359 1.386 . S
C513 C37 1.354 . S
C521 C149 1.403 . S
C545 C51 1.395 . S
C553 C387 1.388 . S
C577 C65 1.404 . S
C585 C177 1.380 . S
C609 C415 1.416 . S
C617 C79 1.376 . S
C641 C205 1.357 . S
C649 C93 1.400 . S
C673 C443 1.373 . S
C681 C107 1.393 . S
C705 C247 1.393 . S
C713 C135 1.389 . S
C737 C163 1.404 . S
C745 C275 1.380 . S
C769 C191 1.396 . S
C777 C303 1.383 . S
C801 C331 1.375 . S
C809 C219 1.396 . S
C833 C345 1.357 . S
C841 C233 1.400 . S
C865 C261 1.355 . S
C873 C373 1.401 . S
C897 C289 1.389 . S
C905 C401 1.386 . S
C929 C429 1.353 . S
C937 C317 1.403 . S
C961 C3 1.304 . S
C969 C59 1.331 . S
C993 C73 1.324 . S
C1001 C17 1.322 . S
C1025 C87 1.346 . S
C1033 C31 1.340 . S
C1057 C45 1.321 . S
C1065 C101 1.322 . S
C1089 C115 1.329 . S
C1097 C171 1.342 . S
C1121 C129 1.341 . S
C1129 C185 1.340 . S
C1153 C199 1.318 . S
C1161 C143 1.342 . S
C1185 C213 1.304 . S
C1193 C157 1.333 . S
C1217 C283 1.304 . S
C1225 C227 1.331 . S
C1249 C297 1.319 . S
C1257 C241 1.341 . S
C1281 C255 1.353 . S
C1289 C311 1.331 . S
C1313 C325 1.327 . S
C1321 C269 1.322 . S
C1345 C395 1.322 . S
C1353 C339 1.342 . S
C1377 C353 1.316 . S
C1385 C409 1.342 . S
C1409 C423 1.341 . S
C1417 C367 1.340 . S
C1441 C437 1.351 . S
C1449 C381 1.335 . S
C1473 C63 0.488 . S
C1481 C7 0.476 . S
C1505 C77 0.446 . S
C1513 C21 0.488 . S
C1537 C35 0.504 . S
C1545 C91 0.479 . S
C1569 C105 0.452 . S
C1577 C49 0.480 . S
C1601 C175 0.520 . S
C1609 C119 0.490 . S
C1633 C133 0.468 . S
C1641 C189 0.476 . S
C1665 C203 0.470 . S
C1673 C147 0.502 . S
C1697 C217 0.541 . S
C1705 C161 0.523 . S
C1729 C231 0.555 . S
C1737 C287 0.522 . S
C1761 C301 0.488 . S
C1769 C245 0.476 . S
C1793 C315 0.517 . S
C1801 C259 0.521 1_565 S
C1825 C329 0.446 . S
C1833 C273 0.486 . S
C1857 C399 0.465 . S
C1865 C343 0.495 1_565 S
C1889 C357 0.500 . S
C1897 C413 0.514 . S
C1921 C371 0.459 . S
C1929 C427 0.493 1_565 S
C1953 C385 0.540 . S
C1961 C441 0.523 . S
C1985 C8 1.519 . S
C1993 C302 1.500 . S
C2017 C316 1.485 . S
C2025 C22 1.515 . S
C2049 C36 1.499 . S
C2057 C330 1.508 . S
C2081 C50 1.514 . S
C2089 C288 1.502 1_556 S
C2113 C274 1.499 . S
C2121 C64 1.508 . S
C2145 C232 1.488 . S
C2153 C78 1.514 . S
C2177 C246 1.523 . S
C2185 C92 1.499 1_556 S
C2209 C106 1.513 . S
C2217 C260 1.503 . S
C2241 C120 1.484 1_556 S
C2249 C414 1.514 . S
C2273 C428 1.486 . S
C2281 C134 1.516 . S
C2305 C442 1.483 . S
C2313 C148 1.515 . S
C2337 C400 1.490 . S
C2345 C162 1.515 . S
C2369 C386 1.483 . S
C2377 C176 1.515 . S
C2401 C344 1.490 . S
C2409 C190 1.510 . S
C2433 C204 1.493 . S
C2441 C358 1.508 . S
C2465 C218 1.522 . S
C2473 C372 1.501 1_556 S
