# Generated by pormake.
# Topology rob, (6)-cn, num edge types: 1
# Building blocks:
#     Node 0, Type 0, BuildingBlock: UKALOJ_clean_sbu_0, # of connection points: 6
#     Node 1, Type 0, BuildingBlock: UKALOJ_clean_sbu_0, # of connection points: 6
#     Node 2, Type 0, BuildingBlock: UKALOJ_clean_sbu_0, # of connection points: 6
#     Node 3, Type 0, BuildingBlock: UKALOJ_clean_sbu_0, # of connection points: 6
#     Edge 4, Type (0, 0), BuildingBlock: CIFDUS_clean_linker_0, # of connection points: 2
#     Edge 5, Type (0, 0), BuildingBlock: CIFDUS_clean_linker_0, # of connection points: 2
#     Edge 6, Type (0, 0), BuildingBlock: CIFDUS_clean_linker_0, # of connection points: 2
#     Edge 7, Type (0, 0), BuildingBlock: CIFDUS_clean_linker_0, # of connection points: 2
#     Edge 8, Type (0, 0), BuildingBlock: CIFDUS_clean_linker_0, # of connection points: 2
#     Edge 9, Type (0, 0), BuildingBlock: CIFDUS_clean_linker_0, # of connection points: 2
#     Edge 10, Type (0, 0), BuildingBlock: CIFDUS_clean_linker_0, # of connection points: 2
#     Edge 11, Type (0, 0), BuildingBlock: CIFDUS_clean_linker_0, # of connection points: 2
#     Edge 12, Type (0, 0), BuildingBlock: CIFDUS_clean_linker_0, # of connection points: 2
#     Edge 13, Type (0, 0), BuildingBlock: CIFDUS_clean_linker_0, # of connection points: 2
#     Edge 14, Type (0, 0), BuildingBlock: CIFDUS_clean_linker_0, # of connection points: 2
#     Edge 15, Type (0, 0), BuildingBlock: CIFDUS_clean_linker_0, # of connection points: 2
# Relax obj value: 0.140
# Max RMSD: 0.186
# Mean RMSD: 0.186
data_MOF--net-rob--node1-UKALOJ_clean_sbu_0--edge1-CIFDUS_clean_linker_0
_symmetry_space_group_name_H-M    P1
_symmetry_Int_Tables_number       1
_symmetry_cell_setting            triclinic
loop_
_symmetry_equiv_pos_as_xyz
'x, y, z'
_cell_length_a     13.045883
_cell_length_b     34.491652
_cell_length_c     20.803633
_cell_angle_alpha  100.00825
_cell_angle_beta   89.943586
_cell_angle_gamma 90.090426
loop_
_atom_site_label
_atom_site_type_symbol
_atom_site_fract_x
_atom_site_fract_y
_atom_site_fract_z
_atom_type_partial_charge
Zn0 Zn 0.24896 0.30534 0.00225 0.0
O1 O 0.28745 0.3006 0.90298 0.0
C2 C 0.03931 0.29502 0.95658 0.0
Zn3 Zn 0.21096 0.24112 0.9815 0.0
C4 C 0.28223 0.26831 0.86306 0.0
O5 O 0.25652 0.23708 0.88342 0.0
C6 C 0.17629 0.2781 0.12054 0.0
O7 O 0.35608 0.22395 0.00726 0.0
O8 O 0.39624 0.28681 0.02647 0.0
N9 N 0.16095 0.18371 0.9604 0.0
C10 C 0.16424 0.15247 0.99161 0.0
C11 C 0.07668 0.13545 0.90498 0.0
N12 N 0.10724 0.17281 0.90641 0.0
N13 N 0.11081 0.12162 0.95787 0.0
C14 C 0.36362 0.38402 0.99285 0.0
C15 C 0.29203 0.42434 0.06881 0.0
N16 N 0.29403 0.36344 0.02132 0.0
N17 N 0.25002 0.38859 0.06866 0.0
N18 N 0.36338 0.42229 0.02154 0.0
H19 H 0.45583 0.33572 0.94512 0.0
H20 H 0.50695 0.38401 0.94093 0.0
H21 H 0.39825 0.36545 0.89178 0.0
C22 C 0.43579 0.36623 0.9398 0.0
C23 C 0.21829 0.15298 0.05528 0.0
H24 H 0.24412 0.18284 0.07692 0.0
H25 H 0.28817 0.13454 0.04679 0.0
H26 H 0.16762 0.14111 0.09013 0.0
O27 O 0.16612 0.24631 0.0798 0.0
O28 O 0.20727 0.30902 0.10114 0.0
C29 C 0.42021 0.25109 0.02738 0.0
O30 O 0.10165 0.32255 0.97801 0.0
O31 O 0.06589 0.25952 0.95597 0.0
Zn32 Zn 0.75459 0.80581 0.00788 0.0
O33 O 0.9044 0.79187 0.97598 0.0
C34 C 0.69093 0.77503 0.87378 0.0
Zn35 Zn 0.72812 0.74087 0.99487 0.0
C36 C 0.93723 0.75703 0.95766 0.0
O37 O 0.87948 0.72814 0.96339 0.0
C38 C 0.54548 0.79031 0.04515 0.0
O39 O 0.76884 0.73934 0.09262 0.0
O40 O 0.79449 0.80307 0.10461 0.0
N41 N 0.69488 0.68157 0.97885 0.0
C42 C 0.65021 0.65775 0.0159 0.0
C43 C 0.68757 0.6224 0.92444 0.0
N44 N 0.71814 0.65944 0.92219 0.0
N45 N 0.64499 0.62027 0.98282 0.0
C46 C 0.83044 0.88883 0.98652 0.0
C47 C 0.82295 0.92165 0.08326 0.0
N48 N 0.79233 0.86456 0.02507 0.0
N49 N 0.78789 0.88508 0.08511 0.0
N50 N 0.85011 0.92467 0.02194 0.0
H51 H 0.87948 0.84604 0.90411 0.0
H52 H 0.91292 0.89634 0.89938 0.0
H53 H 0.78241 0.87979 0.887 0.0
C54 C 0.85333 0.87701 0.91521 0.0
C55 C 0.60818 0.67171 0.08308 0.0
H56 H 0.66515 0.66579 0.11972 0.0
H57 H 0.53594 0.65602 0.09042 0.0
H58 H 0.59368 0.7037 0.09197 0.0
O59 O 0.57657 0.75525 0.0258 0.0
O60 O 0.60471 0.81892 0.04023 0.0
C61 C 0.79106 0.77178 0.12891 0.0
O62 O 0.71195 0.80739 0.91077 0.0
O63 O 0.6893 0.74336 0.89724 0.0
Zn64 Zn 0.22647 0.80813 0.5084 0.0
O65 O 0.27026 0.80911 0.41084 0.0
C66 C 0.04491 0.75826 0.45819 0.0
Zn67 Zn 0.25385 0.74344 0.49632 0.0
C68 C 0.29072 0.77643 0.37455 0.0
O69 O 0.2921 0.74513 0.39892 0.0
C70 C 0.1899 0.77462 0.62992 0.0
O71 O 0.40506 0.75847 0.52648 0.0
O72 O 0.37616 0.82202 0.54169 0.0
N73 N 0.28827 0.68453 0.48183 0.0
C74 C 0.33567 0.66155 0.51904 0.0
C75 C 0.29521 0.625 0.42928 0.0
N76 N 0.26306 0.66168 0.42625 0.0
N77 N 0.34095 0.62382 0.48704 0.0
C78 C 0.14962 0.8906 0.48531 0.0
C79 C 0.1562 0.92396 0.58168 0.0
N80 N 0.1878 0.86672 0.5244 0.0
N81 N 0.19169 0.88758 0.5842 0.0
N82 N 0.12932 0.92651 0.52018 0.0
H83 H 0.1015 0.84739 0.40323 0.0
H84 H 0.19934 0.88094 0.38608 0.0
H85 H 0.06888 0.89761 0.39741 0.0
C86 C 0.12785 0.87838 0.41395 0.0
C87 C 0.37921 0.67659 0.58546 0.0
H88 H 0.38975 0.70877 0.59406 0.0
H89 H 0.45387 0.66236 0.59176 0.0
H90 H 0.3249 0.66992 0.62312 0.0
O91 O 0.21363 0.74234 0.59383 0.0
O92 O 0.18523 0.80584 0.60548 0.0
C93 C 0.4357 0.79353 0.54636 0.0
O94 O 0.07697 0.79334 0.47564 0.0
O95 O 0.10296 0.72979 0.46526 0.0
Zn96 Zn 0.71173 0.30323 0.50253 0.0
O97 O 0.85708 0.32349 0.48063 0.0
C98 C 0.67972 0.26724 0.36286 0.0
Zn99 Zn 0.75115 0.23928 0.4805 0.0
C100 C 0.9197 0.29647 0.45748 0.0
O101 O 0.89413 0.26066 0.45543 0.0
C102 C 0.54342 0.24607 0.52607 0.0
O103 O 0.79612 0.24424 0.57867 0.0
O104 O 0.75225 0.30661 0.6012 0.0
N105 N 0.80727 0.18281 0.45806 0.0
C106 C 0.80516 0.15105 0.48801 0.0
C107 C 0.89681 0.13619 0.40256 0.0
N108 N 0.86363 0.17328 0.4048 0.0
N109 N 0.86166 0.12121 0.45415 0.0
C110 C 0.64692 0.38934 0.49034 0.0
C111 C 0.55651 0.40475 0.57621 0.0
N112 N 0.65203 0.35906 0.52352 0.0
N113 N 0.59613 0.36887 0.57693 0.0
N114 N 0.5861 0.41843 0.52214 0.0
H115 H 0.77089 0.37041 0.4233 0.0
H116 H 0.73151 0.42081 0.42665 0.0
H117 H 0.65284 0.38071 0.38638 0.0
C118 C 0.70442 0.39049 0.42834 0.0
C119 C 0.74983 0.15006 0.5509 0.0
H120 H 0.7238 0.17957 0.57412 0.0
H121 H 0.79971 0.1374 0.58513 0.0
H122 H 0.68012 0.13159 0.54083 0.0
O123 O 0.60782 0.2191 0.50603 0.0
O124 O 0.56714 0.28169 0.52466 0.0
C125 C 0.78433 0.27569 0.61997 0.0
O126 O 0.67292 0.29914 0.40363 0.0
O127 O 0.70556 0.23574 0.38233 0.0
H128 H 0.54854 0.56224 0.90313 0.0
H129 H 0.64787 0.59757 0.10229 0.0
H130 H 0.56693 0.53949 0.13217 0.0
H131 H 0.46573 0.47833 0.10167 0.0
H132 H 0.3778 0.44063 0.90118 0.0
H133 H 0.45835 0.49916 0.87122 0.0
C134 C 0.55262 0.55717 0.95306 0.0
C135 C 0.60038 0.5853 0.00089 0.0
C136 C 0.50897 0.5229 0.96938 0.0
C137 C 0.60678 0.57783 0.06512 0.0
C138 C 0.5619 0.54414 0.08207 0.0
C139 C 0.4652 0.483 0.05146 0.0
C140 C 0.41724 0.4552 0.00348 0.0
C141 C 0.51207 0.51663 0.03472 0.0
C142 C 0.41631 0.46131 0.93852 0.0
C143 C 0.4615 0.4949 0.92158 0.0
H144 H 0.42326 0.56315 0.40552 0.0
H145 H 0.35579 0.60406 0.60902 0.0
H146 H 0.43792 0.54629 0.63757 0.0
H147 H 0.52357 0.48262 0.60459 0.0
H148 H 0.55755 0.43604 0.39931 0.0
H149 H 0.49529 0.49713 0.37195 0.0
C150 C 0.42672 0.55954 0.4562 0.0
C151 C 0.38769 0.58926 0.50514 0.0
C152 C 0.46894 0.525 0.47206 0.0
C153 C 0.39071 0.58341 0.57041 0.0
C154 C 0.43611 0.54977 0.58679 0.0
C155 C 0.51811 0.48586 0.5538 0.0
C156 C 0.5512 0.45504 0.50456 0.0
C157 C 0.47542 0.52036 0.53798 0.0
C158 C 0.5404 0.45962 0.43894 0.0
C159 C 0.50208 0.49452 0.42295 0.0
H160 H 0.94044 0.08075 0.91841 0.0
H161 H 0.21636 0.07508 0.03076 0.0
H162 H 0.15691 1.01456 0.06287 0.0
H163 H 0.02449 0.96264 0.05992 0.0
H164 H 0.75981 0.96413 0.93735 0.0
H165 H 0.81768 0.02622 0.90674 0.0
C166 C -0.01183 0.06632 0.94973 0.0
C167 C 0.08076 0.08411 0.9746 0.0
C168 C 0.95569 0.03033 0.96556 0.0
C169 C 0.14198 0.06417 0.01403 0.0
C170 C 0.1088 0.02882 0.03151 0.0
C171 C 0.98038 0.9767 0.02628 0.0
C172 C 0.88822 0.9594 0.00086 0.0
C173 C 0.01533 1.01184 0.00812 0.0
C174 C 0.83119 0.97721 0.95696 0.0
C175 C 0.86411 1.01261 0.93982 0.0
H176 H 0.03759 0.0832 0.41924 0.0
H177 H 0.75285 0.07194 0.52017 0.0
H178 H 0.81306 1.01136 0.55173 0.0
H179 H 0.949 0.96125 0.55201 0.0
H180 H 0.224 0.96834 0.44057 0.0
H181 H 0.16477 0.03024 0.41008 0.0
C182 C -0.01178 0.06749 0.44792 0.0
C183 C 0.89263 0.08367 0.47002 0.0
C184 C 0.02153 0.03154 0.46338 0.0
C185 C 0.82923 0.06217 0.50592 0.0
C186 C 0.86294 0.02683 0.52301 0.0
C187 C -0.00501 0.97646 0.52073 0.0
C188 C 0.09049 0.96087 0.49853 0.0
C189 C 0.9594 1.01148 0.50263 0.0
C190 C 0.1501 0.98016 0.45771 0.0
C191 C 0.11637 1.01544 0.44064 0.0
H192 H 0.62782 0.20532 0.26845 0.0
H193 H 0.69568 0.32962 0.30036 0.0
H194 H 0.64643 0.33305 0.18875 0.0
H195 H 0.55657 0.30348 0.09008 0.0
H196 H 0.47479 0.18034 0.06031 0.0
H197 H 0.56266 0.17314 0.161 0.0
C198 C 0.63296 0.23298 0.25055 0.0
C199 C 0.66108 0.26752 0.29319 0.0
C200 C 0.60309 0.23484 0.18635 0.0
C201 C 0.66974 0.30302 0.26921 0.0
C202 C 0.6429 0.3049 0.20514 0.0
C203 C 0.56055 0.27474 0.10445 0.0
C204 C 0.50632 0.24286 0.06894 0.0
C205 C 0.60529 0.27138 0.16428 0.0
C206 C 0.51451 0.20561 0.08736 0.0
C207 C 0.56348 0.20156 0.14552 0.0
H208 H 0.42269 0.73481 0.08207 0.0
H209 H 0.4719 0.86042 0.11181 0.0
H210 H 0.38251 0.86785 0.21634 0.0
H211 H 0.32636 0.837 0.30881 0.0
H212 H 0.29672 0.71047 0.28194 0.0
H213 H 0.34528 0.70502 0.16782 0.0
C214 C 0.41175 0.76398 0.11054 0.0
C215 C 0.45727 0.79679 0.09031 0.0
C216 C 0.3673 0.7677 0.17251 0.0
C217 C 0.43924 0.8345 0.12678 0.0
C218 C 0.38949 0.83873 0.18712 0.0
C219 C 0.32926 0.80832 0.27772 0.0
C220 C 0.31074 0.77416 0.30422 0.0
C221 C 0.35945 0.80526 0.21224 0.0
C222 C 0.31327 0.7372 0.26316 0.0
C223 C 0.34022 0.73403 0.1977 0.0
H224 H 0.65263 0.83673 0.81147 0.0
H225 H 0.68591 0.71026 0.77846 0.0
H226 H 0.63762 0.70668 0.66455 0.0
H227 H 0.5607 0.73791 0.58038 0.0
H228 H 0.50606 0.8632 0.61686 0.0
H229 H 0.59499 0.86916 0.72132 0.0
C230 C 0.65058 0.80847 0.77911 0.0
C231 C 0.67032 0.77375 0.80374 0.0
C232 C 0.62038 0.80648 0.71387 0.0
C233 C 0.6686 0.73736 0.76108 0.0
C234 C 0.64181 0.73528 0.69578 0.0
C235 C 0.57015 0.76672 0.6104 0.0
C236 C 0.52343 0.7998 0.59193 0.0
C237 C 0.61392 0.76947 0.67238 0.0
C238 C 0.53973 0.83707 0.63036 0.0
C239 C 0.58916 0.84043 0.69067 0.0
H240 H 0.40794 0.29916 0.58689 0.0
H241 H 0.48954 0.17626 0.56367 0.0
H242 H 0.40086 0.17114 0.66534 0.0
H243 H 0.33389 0.20513 0.77123 0.0
H244 H 0.27464 0.33004 0.79845 0.0
H245 H 0.32316 0.33105 0.68569 0.0
C246 C 0.40405 0.2709 0.60297 0.0
C247 C 0.45778 0.23845 0.5687 0.0
C248 C 0.36026 0.26895 0.66366 0.0
C249 C 0.44981 0.20188 0.58949 0.0
C250 C 0.40053 0.19908 0.64825 0.0
C251 C 0.33048 0.23241 0.75208 0.0
C252 C 0.30332 0.26763 0.79336 0.0
C253 C 0.36132 0.23302 0.6876 0.0
C254 C 0.298 0.30274 0.768 0.0
C255 C 0.32486 0.3033 0.7034 0.0
H256 H 0.8266 0.71105 0.19421 0.0
H257 H 0.79567 0.83753 0.22175 0.0
H258 H 0.8438 0.8429 0.33583 0.0
H259 H 0.92199 0.81328 0.42111 0.0
H260 H 0.97326 0.68783 0.39103 0.0
H261 H 0.88384 0.6802 0.28651 0.0
C262 C 0.82927 0.73969 0.22547 0.0
C263 C 0.81054 0.77389 0.19918 0.0
C264 C 0.85949 0.74273 0.29092 0.0
C265 C 0.8125 0.8108 0.24039 0.0
C266 C 0.8392 0.81392 0.30581 0.0
C267 C 0.91122 0.78406 0.39266 0.0
C268 C 0.95718 0.75138 0.41281 0.0
C269 C 0.86676 0.78027 0.33079 0.0
C270 C 0.93999 0.71364 0.37619 0.0
C271 C 0.89025 0.70931 0.31586 0.0
H272 H 0.0566 0.24446 0.39585 0.0
H273 H 0.97309 0.36724 0.42288 0.0
H274 H 0.06052 0.37369 0.32133 0.0
H275 H 0.12602 0.3407 0.21411 0.0
H276 H 0.18552 0.21576 0.18342 0.0
H277 H 0.14007 0.21365 0.29611 0.0
C278 C 0.05981 0.27298 0.3806 0.0
C279 C 0.00555 0.30496 0.41572 0.0
C280 C 0.10264 0.27566 0.31997 0.0
C281 C 0.01293 0.34192 0.39622 0.0
C282 C 0.06152 0.34548 0.33754 0.0
C283 C 0.13009 0.31319 0.23252 0.0
C284 C 0.15647 0.27826 0.19022 0.0
C285 C 0.10059 0.31192 0.29707 0.0
C286 C 0.16272 0.24284 0.2146 0.0
C287 C 0.13762 0.24165 0.27921 0.0
H288 H 0.82767 0.3383 0.71503 0.0
H289 H 0.78075 0.21247 0.68107 0.0
H290 H 0.82608 0.21007 0.79363 0.0
H291 H 0.90697 0.24134 0.89396 0.0
H292 H 0.97856 0.36538 0.92396 0.0
H293 H 0.88956 0.37142 0.82289 0.0
C294 C 0.82628 0.3105 0.73268 0.0
C295 C 0.80368 0.27547 0.68952 0.0
C296 C 0.85574 0.30913 0.79712 0.0
C297 C 0.80073 0.23967 0.71294 0.0
C298 C 0.82573 0.23831 0.77746 0.0
C299 C 0.9008 0.27 0.87948 0.0
C300 C 0.95228 0.30255 0.9152 0.0
C301 C 0.85736 0.27256 0.81905 0.0
C302 C 0.94097 0.33965 0.89674 0.0
C303 C 0.89152 0.343 0.83835 0.0
H304 H 0.15816 0.71332 0.69424 0.0
H305 H 0.18088 0.84012 0.72336 0.0
H306 H 0.13327 0.84438 0.8375 0.0
H307 H 0.05798 0.81339 0.9223 0.0
H308 H 0.01293 0.68749 0.8899 0.0
H309 H 0.10299 0.68133 0.78564 0.0
C310 C 0.15378 0.74181 0.72583 0.0
C311 C 0.17013 0.77639 0.70006 0.0
C312 C 0.12372 0.74417 0.79116 0.0
C313 C 0.16594 0.8131 0.74167 0.0
C314 C 0.13957 0.81558 0.80708 0.0
C315 C 0.07016 0.78441 0.89338 0.0
C316 C 0.02572 0.75113 0.91276 0.0
C317 C 0.11442 0.78145 0.83155 0.0
C318 C 0.04493 0.71372 0.87561 0.0
C319 C 0.09498 0.71024 0.81544 0.0
loop_
_geom_bond_atom_site_label_1
_geom_bond_atom_site_label_2
_geom_bond_distance
_geom_bond_site_symmetry_2
_ccdc_geom_bond_type
Zn0 O1 2.055 1_554 S
Zn0 O8 2.046 . S
Zn0 N16 2.036 . S
Zn0 O28 2.053 . S
Zn0 O30 2.066 1_554 S
O1 Zn0 2.055 1_556 S
O1 C4 1.259 . S
C2 O30 1.256 . S
C2 O31 1.244 . S
Zn3 O5 2.046 . S
Zn3 O7 2.055 1_556 S
Zn3 N9 2.036 . S
Zn3 O27 2.066 1_556 S
Zn3 O31 2.053 . S
C4 O1 1.259 . S
C4 O5 1.254 . S
O5 Zn3 2.046 . S
O5 C4 1.254 . S
C6 O27 1.256 . S
C6 O28 1.244 . S
O7 Zn3 2.055 1_554 S
O7 C29 1.259 . S
O8 Zn0 2.046 . S
O8 C29 1.254 . S
N9 Zn3 2.036 . S
N9 C10 1.298 1_556 S
N9 N12 1.398 . S
C10 N9 1.298 1_554 S
C10 N13 1.367 1_554 S
C10 C23 1.481 . S
C11 N12 1.299 . S
C11 N13 1.379 . S
N12 N9 1.398 . S
N12 C11 1.299 . S
N13 C10 1.367 1_556 S
N13 C11 1.379 . S
C14 N16 1.298 1_556 S
C14 N18 1.367 1_556 S
C14 C22 1.481 . S
C15 N17 1.299 . S
C15 N18 1.379 . S
N16 Zn0 2.036 . S
N16 C14 1.298 1_554 S
N16 N17 1.398 . S
N17 C15 1.299 . S
N17 N16 1.398 . S
N18 C14 1.367 1_554 S
N18 C15 1.379 . S
H19 C22 0.980 . S
H20 C22 0.981 . S
H21 C22 0.981 . S
C22 C14 1.481 . S
C22 H19 0.980 . S
C22 H20 0.981 . S
C22 H21 0.981 . S
C23 C10 1.481 . S
C23 H24 0.980 . S
C23 H25 0.981 . S
C23 H26 0.981 . S
H24 C23 0.980 . S
H25 C23 0.981 . S
H26 C23 0.981 . S
O27 Zn3 2.066 1_554 S
O27 C6 1.256 . S
O28 Zn0 2.053 . S
O28 C6 1.244 . S
C29 O7 1.259 . S
C29 O8 1.254 . S
O30 Zn0 2.066 1_556 S
O30 C2 1.256 . S
O31 C2 1.244 . S
O31 Zn3 2.053 . S
Zn32 O33 2.055 1_554 S
Zn32 O40 2.046 . S
Zn32 N48 2.036 . S
Zn32 O60 2.053 . S
Zn32 O62 2.066 1_554 S
O33 Zn32 2.055 1_556 S
O33 C36 1.259 . S
C34 O62 1.256 . S
C34 O63 1.244 . S
Zn35 O37 2.046 . S
Zn35 O39 2.055 1_556 S
Zn35 N41 2.036 . S
Zn35 O59 2.066 1_556 S
Zn35 O63 2.053 . S
C36 O33 1.259 . S
C36 O37 1.254 . S
O37 Zn35 2.046 . S
O37 C36 1.254 . S
C38 O59 1.256 . S
C38 O60 1.244 . S
O39 Zn35 2.055 1_554 S
O39 C61 1.259 . S
O40 Zn32 2.046 . S
O40 C61 1.254 . S
N41 Zn35 2.036 . S
N41 C42 1.298 1_556 S
N41 N44 1.398 . S
C42 N41 1.298 1_554 S
C42 N45 1.367 1_554 S
C42 C55 1.481 . S
C43 N44 1.299 . S
C43 N45 1.379 . S
N44 N41 1.398 . S
N44 C43 1.299 . S
N45 C42 1.367 1_556 S
N45 C43 1.379 . S
C46 N48 1.298 1_556 S
C46 N50 1.367 1_556 S
C46 C54 1.481 . S
C47 N49 1.299 . S
C47 N50 1.379 . S
N48 Zn32 2.036 . S
N48 C46 1.298 1_554 S
N48 N49 1.398 . S
N49 C47 1.299 . S
N49 N48 1.398 . S
N50 C46 1.367 1_554 S
N50 C47 1.379 . S
H51 C54 0.980 . S
H52 C54 0.981 . S
H53 C54 0.981 . S
C54 C46 1.481 . S
C54 H51 0.980 . S
C54 H52 0.981 . S
C54 H53 0.981 . S
C55 C42 1.481 . S
C55 H56 0.980 . S
C55 H57 0.981 . S
C55 H58 0.981 . S
H56 C55 0.980 . S
H57 C55 0.981 . S
H58 C55 0.981 . S
O59 Zn35 2.066 1_554 S
O59 C38 1.256 . S
O60 Zn32 2.053 . S
O60 C38 1.244 . S
C61 O39 1.259 . S
C61 O40 1.254 . S
O62 Zn32 2.066 1_556 S
O62 C34 1.256 . S
O63 C34 1.244 . S
O63 Zn35 2.053 . S
Zn64 O65 2.055 . S
Zn64 O72 2.046 . S
Zn64 N80 2.036 . S
Zn64 O92 2.053 . S
Zn64 O94 2.066 . S
O65 Zn64 2.055 . S
O65 C68 1.259 . S
C66 O94 1.256 . S
C66 O95 1.244 . S
Zn67 O69 2.046 . S
Zn67 O71 2.055 . S
Zn67 N73 2.036 . S
Zn67 O91 2.066 . S
Zn67 O95 2.053 . S
C68 O65 1.259 . S
C68 O69 1.254 . S
O69 Zn67 2.046 . S
O69 C68 1.254 . S
C70 O91 1.256 . S
C70 O92 1.244 . S
O71 Zn67 2.055 . S
O71 C93 1.259 . S
O72 Zn64 2.046 . S
O72 C93 1.254 . S
N73 Zn67 2.036 . S
N73 C74 1.298 . S
N73 N76 1.398 . S
C74 N73 1.298 . S
C74 N77 1.367 . S
C74 C87 1.481 . S
C75 N76 1.299 . S
C75 N77 1.379 . S
N76 N73 1.398 . S
N76 C75 1.299 . S
N77 C74 1.367 . S
N77 C75 1.379 . S
C78 N80 1.298 . S
C78 N82 1.367 . S
C78 C86 1.481 . S
C79 N81 1.299 . S
C79 N82 1.379 . S
N80 Zn64 2.036 . S
N80 C78 1.298 . S
N80 N81 1.398 . S
N81 C79 1.299 . S
N81 N80 1.398 . S
N82 C78 1.367 . S
N82 C79 1.379 . S
H83 C86 0.980 . S
H84 C86 0.981 . S
H85 C86 0.981 . S
C86 C78 1.481 . S
C86 H83 0.980 . S
C86 H84 0.981 . S
C86 H85 0.981 . S
C87 C74 1.481 . S
C87 H88 0.980 . S
C87 H89 0.981 . S
C87 H90 0.981 . S
H88 C87 0.980 . S
H89 C87 0.981 . S
H90 C87 0.981 . S
O91 Zn67 2.066 . S
O91 C70 1.256 . S
O92 Zn64 2.053 . S
O92 C70 1.244 . S
C93 O71 1.259 . S
C93 O72 1.254 . S
O94 Zn64 2.066 . S
O94 C66 1.256 . S
O95 C66 1.244 . S
O95 Zn67 2.053 . S
Zn96 O97 2.055 . S
Zn96 O104 2.046 . S
Zn96 N112 2.036 . S
Zn96 O124 2.053 . S
Zn96 O126 2.066 . S
O97 Zn96 2.055 . S
O97 C100 1.259 . S
C98 O126 1.256 . S
C98 O127 1.244 . S
Zn99 O101 2.046 . S
Zn99 O103 2.055 . S
Zn99 N105 2.036 . S
Zn99 O123 2.066 . S
Zn99 O127 2.053 . S
C100 O97 1.259 . S
C100 O101 1.254 . S
O101 Zn99 2.046 . S
O101 C100 1.254 . S
C102 O123 1.256 . S
C102 O124 1.244 . S
O103 Zn99 2.055 . S
O103 C125 1.259 . S
O104 Zn96 2.046 . S
O104 C125 1.254 . S
N105 Zn99 2.036 . S
N105 C106 1.298 . S
N105 N108 1.398 . S
C106 N105 1.298 . S
C106 N109 1.367 . S
C106 C119 1.481 . S
C107 N108 1.299 . S
C107 N109 1.379 . S
N108 N105 1.398 . S
N108 C107 1.299 . S
N109 C106 1.367 . S
N109 C107 1.379 . S
C110 N112 1.298 . S
C110 N114 1.367 . S
C110 C118 1.481 . S
C111 N113 1.299 . S
C111 N114 1.379 . S
N112 Zn96 2.036 . S
N112 C110 1.298 . S
N112 N113 1.398 . S
N113 C111 1.299 . S
N113 N112 1.398 . S
N114 C110 1.367 . S
N114 C111 1.379 . S
H115 C118 0.980 . S
H116 C118 0.981 . S
H117 C118 0.981 . S
C118 C110 1.481 . S
C118 H115 0.980 . S
C118 H116 0.981 . S
C118 H117 0.981 . S
C119 C106 1.481 . S
C119 H120 0.980 . S
C119 H121 0.981 . S
C119 H122 0.981 . S
H120 C119 0.980 . S
H121 C119 0.981 . S
H122 C119 0.981 . S
O123 Zn99 2.066 . S
O123 C102 1.256 . S
O124 Zn96 2.053 . S
O124 C102 1.244 . S
C125 O103 1.259 . S
C125 O104 1.254 . S
O126 Zn96 2.066 . S
O126 C98 1.256 . S
O127 C98 1.244 . S
O127 Zn99 2.053 . S
H128 C134 0.930 . S
H129 C137 0.930 . S
H130 C138 0.930 . S
H131 C139 0.930 . S
H132 C142 0.930 . S
H133 C143 0.930 . S
C134 H128 0.930 . S
C134 C135 1.355 1_556 S
C134 C136 1.415 . S
C135 C134 1.355 1_554 S
C135 C137 1.419 . S
C136 C134 1.415 . S
C136 C141 1.425 1_556 S
C136 C143 1.409 . S
C137 H129 0.930 . S
C137 C135 1.419 . S
C137 C138 1.362 . S
C138 H130 0.930 . S
C138 C137 1.362 . S
C138 C141 1.409 . S
C139 H131 0.930 . S
C139 C140 1.355 1_554 S
C139 C141 1.415 . S
C140 C139 1.355 1_556 S
C140 C142 1.419 . S
C141 C136 1.425 1_554 S
C141 C138 1.409 . S
C141 C139 1.415 . S
C142 H132 0.930 . S
C142 C140 1.419 . S
C142 C143 1.362 . S
C143 H133 0.930 . S
C143 C136 1.409 . S
C143 C142 1.362 . S
H144 C150 0.930 . S
H145 C153 0.930 . S
H146 C154 0.930 . S
H147 C155 0.930 . S
H148 C158 0.930 . S
H149 C159 0.930 . S
C150 H144 0.930 . S
C150 C151 1.355 . S
C150 C152 1.415 . S
C151 C150 1.355 . S
C151 C153 1.419 . S
C152 C150 1.415 . S
C152 C157 1.425 . S
C152 C159 1.409 . S
C153 H145 0.930 . S
C153 C151 1.419 . S
C153 C154 1.362 . S
C154 H146 0.930 . S
C154 C153 1.362 . S
C154 C157 1.409 . S
C155 H147 0.930 . S
C155 C156 1.355 . S
C155 C157 1.415 . S
C156 C155 1.355 . S
C156 C158 1.419 . S
C157 C152 1.425 . S
C157 C154 1.409 . S
C157 C155 1.415 . S
C158 H148 0.930 . S
C158 C156 1.419 . S
C158 C159 1.362 . S
C159 H149 0.930 . S
C159 C152 1.409 . S
C159 C158 1.362 . S
H160 C166 0.930 . S
H161 C169 0.930 . S
H162 C170 0.930 1_565 S
H163 C171 0.930 . S
H164 C174 0.930 . S
H165 C175 0.930 1_545 S
C166 H160 0.930 . S
C166 C167 1.355 1_656 S
C166 C168 1.415 . S
C167 C166 1.355 1_454 S
C167 C169 1.419 . S
C168 C166 1.415 . S
C168 C173 1.425 1_546 S
C168 C175 1.409 1_545 S
C169 H161 0.930 . S
C169 C167 1.419 . S
C169 C170 1.362 . S
C170 H162 0.930 1_545 S
C170 C169 1.362 . S
C170 C173 1.409 1_445 S
C171 H163 0.930 . S
C171 C172 1.355 1_554 S
C171 C173 1.415 . S
C172 C171 1.355 1_556 S
C172 C174 1.419 . S
C173 C168 1.425 1_564 S
C173 C170 1.409 1_665 S
C173 C171 1.415 . S
C174 H164 0.930 . S
C174 C172 1.419 . S
C174 C175 1.362 . S
C175 H165 0.930 1_565 S
C175 C168 1.409 1_565 S
C175 C174 1.362 . S
H176 C182 0.930 . S
H177 C185 0.930 . S
H178 C186 0.940 . S
H179 C187 0.930 . S
H180 C190 0.930 . S
H181 C191 0.930 1_545 S
C182 H176 0.930 . S
C182 C183 1.355 . S
C182 C184 1.415 . S
C183 C182 1.355 . S
C183 C185 1.419 . S
C184 C182 1.415 . S
C184 C189 1.425 1_545 S
C184 C191 1.409 1_645 S
C185 H177 0.930 . S
C185 C183 1.419 . S
C185 C186 1.349 1_545 S
C186 H178 0.940 . S
C186 C185 1.349 1_565 S
C186 C189 1.413 . S
C187 H179 0.930 . S
C187 C188 1.355 1_655 S
C187 C189 1.415 . S
C188 C187 1.355 1_455 S
C188 C190 1.419 . S
C189 C184 1.425 1_565 S
C189 C186 1.413 . S
C189 C187 1.415 . S
C190 H180 0.930 . S
C190 C188 1.419 . S
C190 C191 1.362 . S
C191 H181 0.930 1_565 S
C191 C184 1.409 1_465 S
C191 C190 1.362 . S
H192 C198 0.930 . S
H193 C201 0.930 . S
H194 C202 0.930 . S
H195 C203 0.930 . S
H196 C206 0.930 . S
H197 C207 0.930 . S
C198 H192 0.930 . S
C198 C199 1.355 . S
C198 C200 1.415 . S
C199 C198 1.355 . S
C199 C201 1.419 . S
C200 C198 1.415 . S
C200 C205 1.425 . S
C200 C207 1.409 . S
C201 H193 0.930 . S
C201 C199 1.419 . S
C201 C202 1.362 . S
C202 H194 0.930 . S
C202 C201 1.362 . S
C202 C205 1.409 . S
C203 H195 0.930 . S
C203 C204 1.355 . S
C203 C205 1.415 . S
C204 C203 1.355 . S
C204 C206 1.419 . S
C205 C200 1.425 . S
C205 C202 1.409 . S
C205 C203 1.415 . S
C206 H196 0.930 . S
C206 C204 1.419 . S
C206 C207 1.362 . S
C207 H197 0.930 . S
C207 C200 1.409 . S
C207 C206 1.362 . S
H208 C214 0.930 . S
H209 C217 0.930 . S
H210 C218 0.930 . S
H211 C219 0.930 . S
H212 C222 0.930 . S
H213 C223 0.930 . S
C214 H208 0.930 . S
C214 C215 1.355 . S
C214 C216 1.415 . S
C215 C214 1.355 . S
C215 C217 1.419 . S
C216 C214 1.415 . S
C216 C221 1.425 . S
C216 C223 1.409 . S
C217 H209 0.930 . S
C217 C215 1.419 . S
C217 C218 1.362 . S
C218 H210 0.930 . S
C218 C217 1.362 . S
C218 C221 1.409 . S
C219 H211 0.930 . S
C219 C220 1.355 . S
C219 C221 1.415 . S
C220 C219 1.355 . S
C220 C222 1.419 . S
C221 C216 1.425 . S
C221 C218 1.409 . S
C221 C219 1.415 . S
C222 H212 0.930 . S
C222 C220 1.419 . S
C222 C223 1.362 . S
C223 H213 0.930 . S
C223 C216 1.409 . S
C223 C222 1.362 . S
H224 C230 0.930 . S
H225 C233 0.930 . S
H226 C234 0.930 . S
H227 C235 0.930 . S
H228 C238 0.930 . S
H229 C239 0.930 . S
C230 H224 0.930 . S
C230 C231 1.355 . S
C230 C232 1.415 . S
C231 C230 1.355 . S
C231 C233 1.419 . S
C232 C230 1.415 . S
C232 C237 1.425 . S
C232 C239 1.409 . S
C233 H225 0.930 . S
C233 C231 1.419 . S
C233 C234 1.362 . S
C234 H226 0.930 . S
C234 C233 1.362 . S
C234 C237 1.409 . S
C235 H227 0.930 . S
C235 C236 1.355 . S
C235 C237 1.415 . S
C236 C235 1.355 . S
C236 C238 1.419 . S
C237 C232 1.425 . S
C237 C234 1.409 . S
C237 C235 1.415 . S
C238 H228 0.930 . S
C238 C236 1.419 . S
C238 C239 1.362 . S
C239 H229 0.930 . S
C239 C232 1.409 . S
C239 C238 1.362 . S
H240 C246 0.930 . S
H241 C249 0.930 . S
H242 C250 0.930 . S
H243 C251 0.930 . S
H244 C254 0.930 . S
H245 C255 0.930 . S
C246 H240 0.930 . S
C246 C247 1.355 . S
C246 C248 1.415 . S
C247 C246 1.355 . S
C247 C249 1.419 . S
C248 C246 1.415 . S
C248 C253 1.425 . S
C248 C255 1.409 . S
C249 H241 0.930 . S
C249 C247 1.419 . S
C249 C250 1.362 . S
C250 H242 0.930 . S
C250 C249 1.362 . S
C250 C253 1.409 . S
C251 H243 0.930 . S
C251 C252 1.355 . S
C251 C253 1.415 . S
C252 C251 1.355 . S
C252 C254 1.419 . S
C253 C248 1.425 . S
C253 C250 1.409 . S
C253 C251 1.415 . S
C254 H244 0.930 . S
C254 C252 1.419 . S
C254 C255 1.362 . S
C255 H245 0.930 . S
C255 C248 1.409 . S
C255 C254 1.362 . S
H256 C262 0.930 . S
H257 C265 0.930 . S
H258 C266 0.930 . S
H259 C267 0.930 1_655 S
H260 C270 0.930 . S
H261 C271 0.930 . S
C262 H256 0.930 . S
C262 C263 1.355 1_455 S
C262 C264 1.415 . S
C263 C262 1.355 1_655 S
C263 C265 1.419 . S
C264 C262 1.415 . S
C264 C269 1.425 1_455 S
C264 C271 1.409 . S
C265 H257 0.930 . S
C265 C263 1.419 . S
C265 C266 1.362 . S
C266 H258 0.930 . S
C266 C265 1.362 . S
C266 C269 1.409 . S
C267 H259 0.930 1_455 S
C267 C268 1.355 . S
C267 C269 1.415 1_455 S
C268 C267 1.355 . S
C268 C270 1.419 . S
C269 C264 1.425 1_655 S
C269 C266 1.409 . S
C269 C267 1.415 1_655 S
C270 H260 0.930 . S
C270 C268 1.419 . S
C270 C271 1.362 . S
C271 H261 0.930 . S
C271 C264 1.409 . S
C271 C270 1.362 . S
H272 C278 0.930 . S
H273 C281 0.930 . S
H274 C282 0.930 . S
H275 C283 0.930 . S
H276 C286 0.930 . S
H277 C287 0.930 1_655 S
C278 H272 0.930 . S
C278 C279 1.355 . S
C278 C280 1.415 . S
C279 C278 1.355 . S
C279 C281 1.419 . S
C280 C278 1.415 . S
C280 C285 1.425 1_655 S
C280 C287 1.409 1_655 S
C281 H273 0.930 . S
C281 C279 1.419 . S
C281 C282 1.362 1_655 S
C282 H274 0.930 . S
C282 C281 1.362 1_455 S
C282 C285 1.409 . S
C283 H275 0.930 . S
C283 C284 1.355 . S
C283 C285 1.415 . S
C284 C283 1.355 . S
C284 C286 1.419 . S
C285 C280 1.425 1_455 S
C285 C282 1.409 . S
C285 C283 1.415 . S
C286 H276 0.930 . S
C286 C284 1.419 . S
C286 C287 1.362 . S
C287 H277 0.930 1_455 S
C287 C280 1.409 1_455 S
C287 C286 1.362 . S
H288 C294 0.930 . S
H289 C297 0.930 . S
H290 C298 0.930 . S
H291 C299 0.930 1_655 S
H292 C302 0.930 . S
H293 C303 0.930 . S
C294 H288 0.930 . S
C294 C295 1.355 1_455 S
C294 C296 1.415 . S
C295 C294 1.355 1_655 S
C295 C297 1.419 . S
C296 C294 1.415 . S
C296 C301 1.425 1_455 S
C296 C303 1.409 . S
C297 H289 0.930 . S
C297 C295 1.419 . S
C297 C298 1.362 . S
C298 H290 0.930 . S
C298 C297 1.362 . S
C298 C301 1.409 . S
C299 H291 0.930 1_455 S
C299 C300 1.355 . S
C299 C301 1.415 1_455 S
C300 C299 1.355 . S
C300 C302 1.419 . S
C301 C296 1.425 1_655 S
C301 C298 1.409 . S
C301 C299 1.415 1_655 S
C302 H292 0.930 . S
C302 C300 1.419 . S
C302 C303 1.362 . S
C303 H293 0.930 . S
C303 C296 1.409 . S
C303 C302 1.362 . S
H304 C310 0.930 1_655 S
H305 C313 0.930 . S
H306 C314 0.930 . S
H307 C315 0.930 . S
H308 C318 0.930 . S
H309 C319 0.930 . S
C310 H304 0.930 1_455 S
C310 C311 1.355 . S
C310 C312 1.415 1_455 S
C311 C310 1.355 . S
C311 C313 1.419 . S
C312 C310 1.415 1_655 S
C312 C317 1.425 1_655 S
C312 C319 1.409 . S
C313 H305 0.930 . S
C313 C311 1.419 . S
C313 C314 1.362 . S
C314 H306 0.930 . S
C314 C313 1.362 . S
C314 C317 1.409 . S
C315 H307 0.930 . S
C315 C316 1.355 1_455 S
C315 C317 1.415 . S
C316 C315 1.355 1_655 S
C316 C318 1.419 . S
C317 C312 1.425 1_455 S
C317 C314 1.409 . S
C317 C315 1.415 . S
C318 H308 0.930 . S
C318 C316 1.419 . S
C318 C319 1.362 . S
C319 H309 0.930 . S
C319 C312 1.409 . S
C319 C318 1.362 . S
C135 N45 1.632 1_554 S
C140 N18 1.610 1_556 S
C151 N77 1.604 . S
C156 N114 1.633 . S
C167 N13 1.635 1_554 S
C172 N50 1.608 1_556 S
C183 N109 1.608 . S
C188 N82 1.629 . S
C199 C98 1.037 . S
C204 C29 1.049 . S
C215 C38 1.091 . S
C220 C68 1.073 . S
C231 C34 1.071 . S
C236 C93 1.095 . S
C247 C102 1.062 . S
C252 C4 1.068 . S
C263 C61 1.050 . S
C268 C66 1.036 . S
C279 C100 1.085 . S
C284 C6 1.062 . S
C295 C125 1.065 . S
C300 C2 1.069 . S
C311 C70 1.067 . S
C316 C36 1.092 . S
