# Generated by pormake.
# Topology oof, (8)-cn, num edge types: 1
# Building blocks:
#     Node 0, Type 0, BuildingBlock: AJUNOK_clean_sbu_0, # of connection points: 8
#     Node 1, Type 0, BuildingBlock: AJUNOK_clean_sbu_0, # of connection points: 8
#     Node 2, Type 0, BuildingBlock: AJUNOK_clean_sbu_0, # of connection points: 8
#     Node 3, Type 0, BuildingBlock: AJUNOK_clean_sbu_0, # of connection points: 8
#     Edge 4, Type (0, 0), BuildingBlock: KIFKEQ_clean_linker_1, # of connection points: 2
#     Edge 5, Type (0, 0), BuildingBlock: KIFKEQ_clean_linker_1, # of connection points: 2
#     Edge 6, Type (0, 0), BuildingBlock: KIFKEQ_clean_linker_1, # of connection points: 2
#     Edge 7, Type (0, 0), BuildingBlock: KIFKEQ_clean_linker_1, # of connection points: 2
#     Edge 8, Type (0, 0), BuildingBlock: KIFKEQ_clean_linker_1, # of connection points: 2
#     Edge 9, Type (0, 0), BuildingBlock: KIFKEQ_clean_linker_1, # of connection points: 2
#     Edge 10, Type (0, 0), BuildingBlock: KIFKEQ_clean_linker_1, # of connection points: 2
#     Edge 11, Type (0, 0), BuildingBlock: KIFKEQ_clean_linker_1, # of connection points: 2
#     Edge 12, Type (0, 0), BuildingBlock: KIFKEQ_clean_linker_1, # of connection points: 2
#     Edge 13, Type (0, 0), BuildingBlock: KIFKEQ_clean_linker_1, # of connection points: 2
#     Edge 14, Type (0, 0), BuildingBlock: KIFKEQ_clean_linker_1, # of connection points: 2
#     Edge 15, Type (0, 0), BuildingBlock: KIFKEQ_clean_linker_1, # of connection points: 2
#     Edge 16, Type (0, 0), BuildingBlock: KIFKEQ_clean_linker_1, # of connection points: 2
#     Edge 17, Type (0, 0), BuildingBlock: KIFKEQ_clean_linker_1, # of connection points: 2
#     Edge 18, Type (0, 0), BuildingBlock: KIFKEQ_clean_linker_1, # of connection points: 2
#     Edge 19, Type (0, 0), BuildingBlock: KIFKEQ_clean_linker_1, # of connection points: 2
# Relax obj value: 0.067
# Max RMSD: 0.161
# Mean RMSD: 0.160
data_MOF--net-oof--node1-AJUNOK_clean_sbu_0--edge1-KIFKEQ_clean_linker_1
_symmetry_space_group_name_H-M    P1
_symmetry_Int_Tables_number       1
_symmetry_cell_setting            triclinic
loop_
_symmetry_equiv_pos_as_xyz
'x, y, z'
_cell_length_a     14.324937
_cell_length_b     66.701421
_cell_length_c     21.382253
_cell_angle_alpha  101.4967
_cell_angle_beta   92.65617
_cell_angle_gamma 81.504321
loop_
_atom_site_label
_atom_site_type_symbol
_atom_site_fract_x
_atom_site_fract_y
_atom_site_fract_z
_atom_type_partial_charge
Cd0 Cd 0.86624 0.09398 0.22543 0.0
Cd1 Cd 0.91479 0.15786 0.3481 0.0
C2 C 0.93098 0.0827 0.07978 0.0
N3 N 0.89607 0.09924 0.12462 0.0
C4 C 0.8769 0.12102 0.04749 0.0
C5 C 0.91078 0.10412 0.9995 0.0
C6 C 0.93898 0.08479 0.01664 0.0
C7 C 0.86906 0.11815 0.10987 0.0
H8 H 0.94964 0.06773 0.09277 0.0
H9 H 0.83874 0.1308 0.14623 0.0
C10 C 0.72449 0.14022 0.31447 0.0
C11 C 0.84304 0.1514 0.48034 0.0
C12 C 0.8397 0.14382 0.5363 0.0
C13 C 0.9037 0.12658 0.54599 0.0
C14 C 0.96793 0.11693 0.49771 0.0
C15 C 0.9681 0.12492 0.44199 0.0
N16 N 0.907 0.14202 0.43492 0.0
H17 H 0.79622 0.16513 0.47376 0.0
H18 H 0.01827 0.11777 0.40505 0.0
C19 C 0.79748 0.19372 0.28415 0.0
N20 N 0.85837 0.1759 0.26848 0.0
C21 C 0.86621 0.18093 0.16138 0.0
C22 C 0.80452 0.19958 0.1764 0.0
C23 C 0.76958 0.20589 0.2386 0.0
C24 C 0.89328 0.16939 0.2087 0.0
H25 H 0.77227 0.19868 0.33247 0.0
H26 H 0.94388 0.15549 0.19824 0.0
C27 C 0.04915 0.11423 0.24879 0.0
C28 C 0.76455 0.06123 0.16898 0.0
N29 N 0.93759 0.07744 0.30595 0.0
C30 C 0.02177 0.06514 0.29347 0.0
C31 C 0.06127 0.05278 0.33598 0.0
C32 C 0.01231 0.05236 0.39106 0.0
C33 C 0.9268 0.06577 0.40386 0.0
C34 C 0.89066 0.07828 0.36046 0.0
C35 C 0.03027 0.18755 0.40639 0.0
O36 O 0.79218 0.12693 0.28953 0.0
O37 O 0.74467 0.15723 0.34681 0.0
O38 O -0.01963 0.12605 0.2777 0.0
O39 O 0.0316 0.09764 0.21289 0.0
O40 O 0.73546 0.07952 0.16126 0.0
O41 O 0.83488 0.05886 0.20617 0.0
O42 O 0.06036 0.17266 0.3619 0.0
O43 O 0.94584 0.18858 0.42391 0.0
H44 H 0.05675 0.06417 0.24908 0.0
H45 H 0.82312 0.08797 0.36878 0.0
H46 H 0.85523 0.13626 0.03691 0.0
H47 H 0.96364 0.07123 0.9813 0.0
H48 H 0.79006 0.15189 0.57274 0.0
H49 H 0.01797 0.10352 0.5033 0.0
H50 H 0.89575 0.17569 0.11422 0.0
H51 H 0.72165 0.22014 0.25194 0.0
H52 H 0.12827 0.04314 0.32448 0.0
H53 H 0.88573 0.06592 0.44522 0.0
Cd54 Cd 0.03969 0.83036 0.66303 0.0
Cd55 Cd 0.08839 0.899 0.81596 0.0
C56 C 0.12971 0.82536 0.52508 0.0
N57 N 0.0876 0.84023 0.57224 0.0
C58 C 0.09806 0.8663 0.51164 0.0
C59 C 0.14029 0.85121 0.46142 0.0
C60 C 0.15668 0.83051 0.46903 0.0
C61 C 0.07196 0.86042 0.56686 0.0
H62 H 0.1413 0.80942 0.53073 0.0
H63 H 0.03858 0.87191 0.60531 0.0
C64 C 0.89901 0.87477 0.75935 0.0
C65 C 0.21483 0.90132 0.94534 0.0
C66 C 0.24024 0.89692 0.00561 0.0
C67 C 0.21842 0.87868 0.02157 0.0
C68 C 0.17817 0.86452 0.97409 0.0
C69 C 0.15415 0.86953 0.91446 0.0
N70 N 0.17021 0.88792 0.90213 0.0
H71 H 0.22504 0.91601 0.93455 0.0
H72 H 0.11637 0.85944 0.87962 0.0
C73 C 0.07484 0.91531 0.68852 0.0
N74 N 0.13509 0.91539 0.73939 0.0
C75 C 0.21587 0.94031 0.70645 0.0
C76 C 0.15135 0.94136 0.65505 0.0
C77 C 0.08182 0.92816 0.64548 0.0
C78 C 0.20615 0.92716 0.74855 0.0
H79 H 0.01764 0.90615 0.68367 0.0
H80 H 0.25196 0.92714 0.79022 0.0
C81 C 0.21299 0.85482 0.71229 0.0
C82 C 0.92765 0.80178 0.59429 0.0
N83 N 0.08825 0.81137 0.74192 0.0
C84 C 0.17585 0.80021 0.74055 0.0
C85 C 0.20244 0.78773 0.78546 0.0
C86 C 0.13766 0.7865 0.83144 0.0
C87 C 0.0479 0.79832 0.83188 0.0
C88 C 0.02466 0.81078 0.78651 0.0
C89 C -0.01964 0.93449 0.88503 0.0
O90 O 0.96077 0.86106 0.72984 0.0
O91 O 0.926 0.89062 0.79433 0.0
O92 O 0.14245 0.86611 0.74172 0.0
O93 O 0.19898 0.83805 0.67544 0.0
O94 O 0.89206 0.82046 0.61478 0.0
O95 O 0.01498 0.79676 0.60551 0.0
O96 O 0.06484 0.93503 0.86957 0.0
O97 O 0.94838 0.91735 0.86935 0.0
H98 H 0.22443 0.80065 0.70379 0.0
H99 H 0.95525 0.81971 0.78603 0.0
H100 H 0.08517 0.88247 0.50833 0.0
H101 H 0.1877 0.81831 0.4314 0.0
H102 H 0.27231 0.90815 0.04037 0.0
H103 H 0.15884 0.85042 0.98425 0.0
H104 H 0.27114 0.95003 0.71529 0.0
H105 H 0.02939 0.92862 0.60748 0.0
H106 H 0.2719 0.77866 0.78304 0.0
H107 H -0.00376 0.7979 0.86684 0.0
Cd108 Cd 0.41416 0.58658 0.19 0.0
Cd109 Cd 0.4496 0.65742 0.3316 0.0
C110 C 0.31078 0.5825 0.05193 0.0
N111 N 0.33983 0.59692 0.10018 0.0
C112 C 0.32828 0.6216 0.03209 0.0
C113 C 0.30483 0.60657 0.98 0.0
C114 C 0.29232 0.58706 0.99116 0.0
C115 C 0.34603 0.61635 0.09203 0.0
H116 H 0.30807 0.56704 0.0595 0.0
H117 H 0.3714 0.62727 0.13097 0.0
C118 C 0.28774 0.63003 0.2891 0.0
C119 C 0.3698 0.66219 0.47225 0.0
C120 C 0.35117 0.65732 0.53057 0.0
C121 C 0.3866 0.63773 0.54344 0.0
C122 C 0.43993 0.62342 0.49632 0.0
C123 C 0.45707 0.62898 0.43863 0.0
N124 N 0.42239 0.64812 0.42798 0.0
H125 H 0.34232 0.67724 0.46224 0.0
H126 H 0.49783 0.61802 0.40221 0.0
C127 C 0.31279 0.68797 0.2582 0.0
N128 N 0.38417 0.67194 0.24668 0.0
C129 C 0.39158 0.67566 0.13825 0.0
C130 C 0.31962 0.69272 0.149 0.0
C131 C 0.27932 0.69864 0.20988 0.0
C132 C 0.4236 0.6656 0.18823 0.0
H133 H 0.28406 0.69289 0.3056 0.0
H134 H 0.48124 0.65296 0.18083 0.0
C135 C 0.60495 0.6109 0.25172 0.0
C136 C 0.52053 0.54997 0.12539 0.0
N137 N 0.35795 0.57157 0.26674 0.0
C138 C 0.41359 0.57203 0.31996 0.0
C139 C 0.40255 0.5594 0.36291 0.0
C140 C 0.33345 0.54608 0.35098 0.0
C141 C 0.27279 0.54698 0.29752 0.0
C142 C 0.28672 0.55986 0.25548 0.0
C143 C 0.54755 0.69096 0.38351 0.0
O144 O 0.36077 0.62012 0.25938 0.0
O145 O 0.29406 0.6476 0.32379 0.0
O146 O 0.54609 0.62613 0.27731 0.0
O147 O 0.57451 0.59512 0.21853 0.0
O148 O 0.43584 0.55012 0.14161 0.0
O149 O 0.55427 0.56695 0.13864 0.0
O150 O 0.58903 0.67421 0.35128 0.0
O151 O 0.45962 0.69208 0.39215 0.0
H152 H 0.47083 0.58122 0.32672 0.0
H153 H 0.24455 0.5596 0.21209 0.0
H154 H 0.33973 0.63676 0.02576 0.0
H155 H 0.27308 0.5751 0.95262 0.0
H156 H 0.31071 0.66893 0.56557 0.0
H157 H 0.46742 0.60803 0.50368 0.0
H158 H 0.4239 0.67031 0.09202 0.0
H159 H 0.22508 0.71189 0.22101 0.0
H160 H 0.45209 0.55911 0.40262 0.0
H161 H 0.21771 0.53724 0.28685 0.0
Cd162 Cd 0.555 0.325 0.65539 0.0
Cd163 Cd 0.60239 0.39002 0.77297 0.0
C164 C 0.62547 0.32517 0.51594 0.0
N165 N 0.56696 0.33697 0.56144 0.0
C166 C 0.50942 0.35987 0.4909 0.0
C167 C 0.56738 0.34763 0.44212 0.0
C168 C 0.62755 0.33034 0.45601 0.0
C169 C 0.51035 0.35421 0.55055 0.0
H170 H 0.66897 0.31141 0.52578 0.0
H171 H 0.46362 0.36316 0.58747 0.0
C172 C 0.41809 0.37007 0.74749 0.0
C173 C 0.53837 0.39902 0.9184 0.0
C174 C 0.52897 0.39574 0.98014 0.0
C175 C 0.55008 0.37566 0.99272 0.0
C176 C 0.578 0.35921 0.94198 0.0
C177 C 0.58742 0.36324 0.88106 0.0
N178 N 0.56794 0.38288 0.87069 0.0
H179 H 0.52497 0.41452 0.9088 0.0
H180 H 0.61346 0.35086 0.84246 0.0
C181 C 0.45223 0.42083 0.70839 0.0
N182 N 0.53386 0.40773 0.69413 0.0
C183 C 0.54459 0.41957 0.5965 0.0
C184 C 0.46163 0.43375 0.611 0.0
C185 C 0.41385 0.43364 0.66687 0.0
C186 C 0.57939 0.40658 0.63886 0.0
H187 H 0.41841 0.422 0.75334 0.0
H188 H 0.64495 0.39624 0.62909 0.0
C189 C 0.74243 0.3444 0.68024 0.0
C190 C 0.44026 0.2949 0.60001 0.0
N191 N 0.60596 0.30966 0.74249 0.0
C192 C 0.68891 0.29668 0.73977 0.0
C193 C 0.71585 0.28595 0.78902 0.0
C194 C 0.65602 0.28826 0.84112 0.0
C195 C 0.57147 0.30209 0.84298 0.0
C196 C 0.54782 0.31266 0.79297 0.0
C197 C 0.70479 0.42215 0.83525 0.0
O198 O 0.48717 0.35737 0.72226 0.0
O199 O 0.43575 0.38715 0.78029 0.0
O200 O 0.67504 0.35733 0.70719 0.0
O201 O 0.72283 0.32719 0.64918 0.0
O202 O 0.40466 0.31327 0.62394 0.0
O203 O 0.5297 0.29065 0.60146 0.0
O204 O 0.63761 0.42501 0.79604 0.0
O205 O 0.73019 0.40372 0.84277 0.0
H206 H 0.73333 0.29425 0.69866 0.0
H207 H 0.48209 0.32297 0.79388 0.0
H208 H 0.46116 0.3732 0.48249 0.0
H209 H 0.67499 0.32068 0.42068 0.0
H210 H 0.50667 0.40882 0.01781 0.0
H211 H 0.59623 0.34354 0.94984 0.0
H212 H 0.58488 0.41913 0.55455 0.0
H213 H 0.34858 0.4438 0.67971 0.0
H214 H 0.78244 0.27577 0.78579 0.0
H215 H 0.52232 0.30426 0.88152 0.0
H216 H 0.78202 0.12785 0.93609 0.0
H217 H 0.04202 0.08531 0.90842 0.0
H218 H 0.78302 0.13147 0.8255 0.0
H219 H 0.03967 0.08792 0.7963 0.0
H220 H 0.05869 0.11761 0.62 0.0
H221 H 0.06193 0.11107 0.72836 0.0
H222 H 0.75842 0.11347 0.72014 0.0
H223 H 0.75546 0.1206 0.61252 0.0
C224 C 0.83966 0.11929 0.90655 0.0
C225 C 0.91223 0.10637 0.93159 0.0
C226 C 0.83929 0.12108 0.84258 0.0
C227 C 0.91096 0.10984 0.80157 0.0
C228 C -0.01633 0.09692 0.82652 0.0
C229 C -0.01557 0.09525 0.89075 0.0
C230 C -0.00706 0.11638 0.64107 0.0
C231 C 0.90675 0.11977 0.60808 0.0
C232 C -0.00531 0.11263 0.70322 0.0
C233 C 0.91028 0.11201 0.73351 0.0
C234 C 0.82456 0.11439 0.69905 0.0
C235 C 0.82279 0.11834 0.63723 0.0
H236 H 0.03692 0.87894 0.39752 0.0
H237 H 0.29544 0.83594 0.38654 0.0
H238 H 0.0686 0.8864 0.2944 0.0
H239 H 0.32699 0.84339 0.28288 0.0
H240 H 0.27299 0.84257 0.06544 0.0
H241 H 0.26264 0.83697 0.17411 0.0
H242 H 0.17241 0.90226 0.23899 0.0
H243 H 0.17887 0.90774 0.1303 0.0
C244 C 0.10141 0.87134 0.37368 0.0
C245 C 0.16343 0.85679 0.4004 0.0
C246 C 0.11962 0.87562 0.3144 0.0
C247 C 0.20036 0.86548 0.28022 0.0
C248 C 0.26349 0.85125 0.3075 0.0
C249 C 0.24533 0.84698 0.36691 0.0
C250 C 0.25146 0.85574 0.10296 0.0
C251 C 0.22634 0.87558 0.08886 0.0
C252 C 0.24636 0.85257 0.16541 0.0
C253 C 0.21584 0.86915 0.21525 0.0
C254 C 0.1948 0.8891 0.20161 0.0
C255 C 0.19989 0.89228 0.13928 0.0
H256 H 0.37883 0.58007 0.87404 0.0
H257 H 0.2337 0.64198 0.93618 0.0
H258 H 0.39231 0.587 0.76766 0.0
H259 H 0.25007 0.64914 0.82976 0.0
H260 H 0.22438 0.64772 0.6133 0.0
H261 H 0.198 0.63991 0.71732 0.0
H262 H 0.48299 0.608 0.71925 0.0
H263 H 0.50971 0.61592 0.61572 0.0
C264 C 0.34841 0.59507 0.86481 0.0
C265 C 0.30472 0.61044 0.91374 0.0
C266 C 0.35743 0.59914 0.80395 0.0
C267 C 0.32302 0.61867 0.7903 0.0
C268 C 0.27688 0.63388 0.83859 0.0
C269 C 0.2681 0.62983 0.8997 0.0
C270 C 0.28165 0.63915 0.63608 0.0
C271 C 0.36923 0.63244 0.606 0.0
C272 C 0.26643 0.63467 0.6957 0.0
C273 C 0.33825 0.62329 0.72655 0.0
C274 C 0.42557 0.61649 0.69632 0.0
C275 C 0.44088 0.62101 0.63685 0.0
H276 H 0.47632 0.34506 0.0338 0.0
H277 H 0.61975 0.39806 0.10109 0.0
H278 H 0.47554 0.3389 0.14244 0.0
H279 H 0.62185 0.39163 0.2093 0.0
H280 H 0.54092 0.38558 0.40653 0.0
H281 H 0.52948 0.3927 0.29887 0.0
H282 H 0.57658 0.32711 0.22126 0.0
H283 H 0.58108 0.32001 0.32823 0.0
C284 C 0.50811 0.35532 0.07185 0.0
C285 C 0.54771 0.37208 0.05896 0.0
C286 C 0.5081 0.35177 0.13415 0.0
C287 C 0.54885 0.36474 0.18497 0.0
C288 C 0.5882 0.38154 0.17184 0.0
C289 C 0.58726 0.38521 0.10969 0.0
C290 C 0.54753 0.37267 0.36651 0.0
C291 C 0.56241 0.3522 0.37644 0.0
C292 C 0.5422 0.37676 0.30461 0.0
C293 C 0.5523 0.3605 0.25103 0.0
C294 C 0.56712 0.34006 0.26108 0.0
C295 C 0.57146 0.33598 0.32279 0.0
H296 H 0.5663 0.1678 0.34822 0.0
H297 H 0.65865 0.10421 0.26076 0.0
H298 H 0.40226 0.16194 0.33141 0.0
H299 H 0.49426 0.09833 0.24358 0.0
H300 H 0.19056 0.10261 0.16296 0.0
H301 H 0.35453 0.10901 0.17874 0.0
H302 H 0.29134 0.14221 0.37054 0.0
H303 H 0.12818 0.13534 0.35485 0.0
C304 C 0.55157 0.15254 0.32541 0.0
C305 C 0.62533 0.13648 0.30509 0.0
C306 C 0.45761 0.14919 0.31598 0.0
C307 C 0.43544 0.12971 0.28591 0.0
C308 C 0.50922 0.1136 0.26593 0.0
C309 C 0.60326 0.11695 0.27568 0.0
C310 C 0.21187 0.11139 0.20828 0.0
C311 C 0.14639 0.11907 0.25717 0.0
C312 C 0.30563 0.11496 0.21743 0.0
C313 C 0.33563 0.1262 0.27576 0.0
C314 C 0.26988 0.13385 0.32464 0.0
C315 C 0.1763 0.13016 0.31552 0.0
H316 H 0.74936 0.90544 0.78489 0.0
H317 H 0.81944 0.83943 0.72376 0.0
H318 H 0.58149 0.90221 0.77412 0.0
H319 H 0.65218 0.83605 0.71397 0.0
H320 H 0.35857 0.83794 0.63402 0.0
H321 H 0.52145 0.84379 0.64618 0.0
H322 H 0.45269 0.88966 0.8172 0.0
H323 H 0.28672 0.88422 0.80334 0.0
C324 C 0.72879 0.89021 0.76925 0.0
C325 C 0.79749 0.87269 0.75376 0.0
C326 C 0.63259 0.88836 0.76348 0.0
C327 C 0.60306 0.86892 0.74252 0.0
C328 C 0.67218 0.85135 0.72864 0.0
C329 C 0.76818 0.85324 0.73402 0.0
C330 C 0.37767 0.84935 0.67428 0.0
C331 C 0.30981 0.86034 0.71858 0.0
C332 C 0.47161 0.85259 0.68147 0.0
C333 C 0.50099 0.86681 0.73352 0.0
C334 C 0.43253 0.87852 0.77659 0.0
C335 C 0.33754 0.87537 0.76897 0.0
H336 H 0.74814 0.58186 0.19583 0.0
H337 H 0.69589 0.64065 0.3255 0.0
H338 H 0.91776 0.58286 0.20742 0.0
H339 H 0.86407 0.64227 0.33466 0.0
H340 H 0.16629 0.63512 0.38526 0.0
H341 H 0.00488 0.62763 0.37886 0.0
H342 H 0.04024 0.60018 0.17887 0.0
H343 H 0.20414 0.60698 0.18666 0.0
C344 C 0.7727 0.59507 0.22663 0.0
C345 C 0.70814 0.61134 0.25939 0.0
C346 C 0.87005 0.59569 0.23292 0.0
C347 C 0.90509 0.6126 0.27207 0.0
C348 C 0.84022 0.62878 0.30496 0.0
C349 C 0.74326 0.62806 0.29904 0.0
C350 C 0.13998 0.62715 0.34018 0.0
C351 C 0.1971 0.62186 0.28613 0.0
C352 C 0.04714 0.62302 0.33632 0.0
C353 C 0.0083 0.61385 0.27791 0.0
C354 C 0.0676 0.60729 0.22468 0.0
C355 C 0.16156 0.61116 0.22893 0.0
H356 H 0.80904 0.37844 0.7491 0.0
H357 H 0.89827 0.31992 0.6251 0.0
H358 H 0.97268 0.38441 0.76578 0.0
H359 H 0.06163 0.32625 0.63866 0.0
H360 H 0.34992 0.33334 0.7341 0.0
H361 H 0.18628 0.32724 0.71561 0.0
H362 H 0.10192 0.39227 0.71579 0.0
H363 H 0.26518 0.39822 0.736 0.0
C364 C 0.86367 0.36694 0.72517 0.0
C365 C 0.84093 0.34866 0.68665 0.0
C366 C 0.95751 0.37041 0.73408 0.0
C367 C 0.03064 0.35576 0.70374 0.0
C368 C 0.00743 0.33767 0.66383 0.0
C369 C 0.91364 0.33412 0.6556 0.0
C370 C 0.29634 0.34619 0.72948 0.0
C371 C 0.31992 0.36615 0.73594 0.0
C372 C 0.20254 0.34277 0.71887 0.0
C373 C 0.13066 0.35928 0.71415 0.0
C374 C 0.15496 0.37925 0.72032 0.0
C375 C 0.2485 0.38266 0.73162 0.0
H376 H 0.4957 0.25378 0.55658 0.0
H377 H 0.24936 0.30043 0.58104 0.0
H378 H 0.3965 0.22762 0.51175 0.0
H379 H 0.15042 0.27439 0.5341 0.0
H380 H -0.0099 0.2192 0.50804 0.0
H381 H 0.08997 0.24493 0.55624 0.0
H382 H 0.30524 0.21696 0.41777 0.0
H383 H 0.2068 0.19085 0.37111 0.0
C384 C 0.42041 0.25846 0.55192 0.0
C385 C 0.38027 0.27914 0.57215 0.0
C386 C 0.36362 0.24349 0.52591 0.0
C387 C 0.26557 0.24892 0.51917 0.0
C388 C 0.22552 0.26964 0.53945 0.0
C389 C 0.28226 0.28459 0.5659 0.0
C390 C 0.05887 0.21854 0.48807 0.0
C391 C 0.09065 0.20306 0.43582 0.0
C392 C 0.11584 0.23336 0.51539 0.0
C393 C 0.20546 0.23304 0.49073 0.0
C394 C 0.23715 0.21748 0.4385 0.0
C395 C 0.18049 0.20259 0.41148 0.0
H396 H 0.74311 0.24818 0.82676 0.0
H397 H 0.62126 0.29954 0.96985 0.0
H398 H 0.78014 0.2274 0.90796 0.0
H399 H 0.65182 0.27817 0.0504 0.0
H400 H 0.80585 0.24112 0.19159 0.0
H401 H 0.7716 0.2627 0.11155 0.0
H402 H 0.71058 0.20938 0.97254 0.0
H403 H 0.74847 0.18777 0.05231 0.0
C404 C 0.7244 0.25512 0.87557 0.0
C405 C 0.67945 0.27565 0.8915 0.0
C406 C 0.74415 0.24301 0.92214 0.0
C407 C 0.71843 0.25097 0.98593 0.0
C408 C 0.67368 0.27153 0.00199 0.0
C409 C 0.6549 0.28374 0.95548 0.0
C410 C 0.78449 0.23409 0.14398 0.0
C411 C 0.77984 0.21278 0.12813 0.0
C412 C 0.76453 0.24646 0.09804 0.0
C413 C 0.73835 0.23785 0.03528 0.0
C414 C 0.73238 0.21653 0.01989 0.0
C415 C 0.75357 0.20412 0.06564 0.0
H416 H 0.4866 0.7258 0.4706 0.0
H417 H 0.72639 0.69509 0.35625 0.0
H418 H 0.57707 0.75337 0.51886 0.0
H419 H 0.81551 0.72295 0.40253 0.0
H420 H -0.01708 0.76056 0.55623 0.0
H421 H 0.88836 0.73465 0.50291 0.0
H422 H 0.64836 0.78212 0.49972 0.0
H423 H 0.74275 0.8081 0.55541 0.0
C424 C 0.55825 0.72508 0.45529 0.0
C425 C 0.59985 0.70823 0.4102 0.0
C426 C 0.60985 0.74094 0.48258 0.0
C427 C 0.70371 0.74029 0.46485 0.0
C428 C 0.74405 0.72371 0.41822 0.0
C429 C 0.69286 0.70779 0.39147 0.0
C430 C 0.91007 0.7655 0.544 0.0
C431 C 0.87021 0.78635 0.55994 0.0
C432 C 0.85598 0.75065 0.51299 0.0
C433 C 0.76094 0.75632 0.4967 0.0
C434 C 0.72113 0.77723 0.51224 0.0
C435 C 0.77525 0.79211 0.54375 0.0
H436 H 0.14233 0.71167 0.12288 0.0
H437 H 0.43128 0.70196 0.06083 0.0
H438 H 0.09832 0.73433 0.047 0.0
H439 H 0.386 0.72345 0.9821 0.0
H440 H 0.30033 0.78195 0.90217 0.0
H441 H 0.34257 0.75872 0.97691 0.0
H442 H 0.07492 0.73568 0.93742 0.0
H443 H 0.032 0.75941 0.86415 0.0
C444 C 0.19645 0.71424 0.09283 0.0
C445 C 0.29059 0.70504 0.09853 0.0
C446 C 0.17089 0.72705 0.0486 0.0
C447 C 0.23863 0.73087 0.00849 0.0
C448 C 0.33218 0.72119 0.01293 0.0
C449 C 0.35789 0.70854 0.0575 0.0
C450 C 0.25075 0.77187 0.90946 0.0
C451 C 0.16284 0.77252 0.87747 0.0
C452 C 0.27504 0.75846 0.95205 0.0
C453 C 0.2124 0.74519 0.96315 0.0
C454 C 0.12439 0.74587 0.93094 0.0
C455 C 0.09976 0.75944 0.88884 0.0
H456 H 0.7609 0.02318 0.19485 0.0
H457 H 0.71464 0.05814 0.04396 0.0
H458 H 0.78403 0.99113 0.11567 0.0
H459 H 0.73981 0.02605 0.96465 0.0
H460 H 0.82037 0.9359 0.95102 0.0
H461 H 0.72695 0.96647 0.01331 0.0
H462 H 0.91185 0.00516 0.95757 0.0
H463 H 0.00617 0.9747 0.89642 0.0
C464 C 0.75091 0.02391 0.14477 0.0
C465 C 0.73691 0.04305 0.12535 0.0
C466 C 0.76439 0.00559 0.09944 0.0
C467 C 0.76551 0.00625 0.03429 0.0
C468 C 0.73998 0.02524 0.01476 0.0
C469 C 0.7246 0.04356 0.06014 0.0
C470 C 0.8404 0.95097 0.95163 0.0
C471 C 0.92114 0.95296 0.91961 0.0
C472 C 0.78669 0.9684 0.98693 0.0
C473 C 0.81166 0.98811 0.98948 0.0
C474 C 0.89014 0.99015 0.95536 0.0
C475 C 0.94482 0.97272 0.92112 0.0
H476 H -0.00164 0.05611 0.52139 0.0
H477 H 0.10272 0.0129 0.35217 0.0
H478 H 0.04205 0.02936 0.58429 0.0
H479 H 0.15333 0.98696 0.4156 0.0
H480 H 0.11279 0.93751 0.52678 0.0
H481 H 0.08608 0.96472 0.46524 0.0
H482 H 0.1645 0.00859 0.62973 0.0
H483 H 0.18468 0.98154 0.69269 0.0
C484 C 0.03141 0.04103 0.4976 0.0
C485 C 0.04646 0.03679 0.43141 0.0
C486 C 0.05792 0.02574 0.53394 0.0
C487 C 0.10097 0.00586 0.50513 0.0
C488 C 0.11885 0.0019 0.43943 0.0
C489 C 0.09119 0.01702 0.40307 0.0
C490 C 0.12426 0.95295 0.54997 0.0
C491 C 0.15 0.9573 0.61498 0.0
C492 C 0.1101 0.96859 0.51434 0.0
C493 C 0.12264 0.989 0.54241 0.0
C494 C 0.15253 -0.00683 0.60672 0.0
C495 C 0.16575 0.97754 0.64261 0.0
H496 H 0.67961 0.54682 0.05662 0.0
H497 H 0.48896 0.51032 0.11787 0.0
H498 H 0.76479 0.51546 0.99256 0.0
H499 H 0.57492 0.47907 0.05491 0.0
H500 H 0.75572 0.42431 0.96004 0.0
H501 H 0.74011 0.45611 0.04095 0.0
H502 H 0.69805 0.4921 0.8925 0.0
H503 H 0.71192 0.46039 0.81181 0.0
C504 C 0.65699 0.53207 0.05726 0.0
C505 C 0.57698 0.53098 0.09146 0.0
C506 C 0.70593 0.51418 0.02087 0.0
C507 C 0.67685 0.4949 0.01934 0.0
C508 C 0.59977 0.49373 0.05613 0.0
C509 C 0.54985 0.51162 0.0915 0.0
C510 C 0.74791 0.43901 0.94469 0.0
C511 C 0.73397 0.43999 0.87986 0.0
C512 C 0.73813 0.45718 0.99099 0.0
C513 C 0.71639 0.47647 0.97279 0.0
C514 C 0.71499 0.47742 0.90775 0.0
C515 C 0.72297 0.45928 0.86157 0.0
H516 H 0.475 0.43044 0.48066 0.0
H517 H 0.37473 0.47353 0.65126 0.0
H518 H 0.43379 0.45754 0.419 0.0
H519 H 0.32547 0.49976 0.58891 0.0
H520 H 0.36674 0.54959 0.47989 0.0
H521 H 0.39097 0.52216 0.54044 0.0
H522 H 0.31575 0.47878 0.37365 0.0
H523 H 0.29912 0.50599 0.31163 0.0
C524 C 0.44336 0.44556 0.50507 0.0
C525 C 0.42886 0.44963 0.57133 0.0
C526 C 0.4181 0.46107 0.46937 0.0
C527 C 0.37648 0.48101 0.49879 0.0
C528 C 0.35899 0.48481 0.56453 0.0
C529 C 0.38577 0.46948 0.60031 0.0
C530 C 0.35558 0.53421 0.45593 0.0
C531 C 0.33205 0.53006 0.39052 0.0
C532 C 0.36821 0.51842 0.49103 0.0
C533 C 0.35597 0.49806 0.46209 0.0
C534 C 0.32772 0.49413 0.39741 0.0
C535 C 0.31638 0.50989 0.36201 0.0
loop_
_geom_bond_atom_site_label_1
_geom_bond_atom_site_label_2
_geom_bond_distance
_geom_bond_site_symmetry_2
_ccdc_geom_bond_type
Cd0 N3 2.334 1_455 S
Cd0 N29 2.304 . S
Cd0 O36 2.268 1_455 S
Cd0 O39 2.273 . S
Cd0 O40 2.417 1_455 S
Cd0 O41 2.330 . S
Cd1 N16 2.304 1_655 S
Cd1 N20 2.334 . S
Cd1 O37 2.273 . S
Cd1 O38 2.268 1_655 S
Cd1 O42 2.417 1_655 S
Cd1 O43 2.330 . S
C2 N3 1.332 1_455 S
C2 C6 1.381 . S
C2 H8 0.931 . S
N3 Cd0 2.334 1_655 S
N3 C2 1.332 1_655 S
N3 C7 1.328 . S
C4 C5 1.396 . S
C4 C7 1.378 . S
C4 H46 0.931 . S
C5 C4 1.396 . S
C5 C6 1.382 1_655 S
C6 C2 1.381 . S
C6 C5 1.382 1_455 S
C6 H47 0.941 . S
C7 N3 1.328 . S
C7 C4 1.378 . S
C7 H9 0.930 . S
H8 C2 0.931 . S
H9 C7 0.930 . S
C10 O36 1.238 . S
C10 O37 1.253 . S
C11 C12 1.379 . S
C11 N16 1.337 1_655 S
C11 H17 0.929 . S
C12 C11 1.379 . S
C12 C13 1.380 1_655 S
C12 H48 0.929 . S
C13 C12 1.380 1_455 S
C13 C14 1.399 . S
C14 C13 1.399 . S
C14 C15 1.376 . S
C14 H49 0.931 . S
C15 C14 1.376 . S
C15 N16 1.338 . S
C15 H18 0.930 . S
N16 Cd1 2.304 1_455 S
N16 C11 1.337 1_455 S
N16 C15 1.338 . S
H17 C11 0.929 . S
H18 C15 0.930 . S
C19 N20 1.332 . S
C19 C23 1.381 . S
C19 H25 0.931 . S
N20 Cd1 2.334 . S
N20 C19 1.332 . S
N20 C24 1.328 1_655 S
C21 C22 1.396 1_455 S
C21 C24 1.378 . S
C21 H50 0.931 . S
C22 C21 1.396 1_655 S
C22 C23 1.382 . S
C23 C19 1.381 . S
C23 C22 1.382 . S
C23 H51 0.930 . S
C24 N20 1.328 1_455 S
C24 C21 1.378 . S
C24 H26 0.930 . S
H25 C19 0.931 . S
H26 C24 0.930 . S
C27 O38 1.238 . S
C27 O39 1.253 . S
C28 O40 1.239 . S
C28 O41 1.230 1_655 S
N29 Cd0 2.304 . S
N29 C30 1.337 . S
N29 C34 1.338 1_455 S
C30 N29 1.337 . S
C30 C31 1.379 . S
C30 H44 0.929 . S
C31 C30 1.379 . S
C31 C32 1.380 . S
C31 H52 0.929 . S
C32 C31 1.380 . S
C32 C33 1.399 1_455 S
C33 C32 1.399 1_655 S
C33 C34 1.376 . S
C33 H53 0.931 . S
C34 N29 1.338 1_655 S
C34 C33 1.376 . S
C34 H45 0.930 . S
C35 O42 1.239 . S
C35 O43 1.230 1_455 S
O36 Cd0 2.268 1_655 S
O36 C10 1.238 . S
O37 Cd1 2.273 . S
O37 C10 1.253 . S
O38 Cd1 2.268 1_455 S
O38 C27 1.238 . S
O39 Cd0 2.273 . S
O39 C27 1.253 . S
O40 Cd0 2.417 1_655 S
O40 C28 1.239 . S
O41 Cd0 2.330 . S
O41 C28 1.230 1_455 S
O42 Cd1 2.417 1_455 S
O42 C35 1.239 . S
O43 Cd1 2.330 . S
O43 C35 1.230 1_655 S
H44 C30 0.929 . S
H45 C34 0.930 . S
H46 C4 0.931 . S
H47 C6 0.941 . S
H48 C12 0.929 . S
H49 C14 0.931 . S
H50 C21 0.931 . S
H51 C23 0.930 . S
H52 C31 0.929 . S
H53 C33 0.931 . S
Cd54 N57 2.334 . S
Cd54 N83 2.304 . S
Cd54 O90 2.268 1_455 S
Cd54 O93 2.273 . S
Cd54 O94 2.417 1_455 S
Cd54 O95 2.330 . S
Cd55 N70 2.304 . S
Cd55 N74 2.334 . S
Cd55 O91 2.273 1_455 S
Cd55 O92 2.268 . S
Cd55 O96 2.417 . S
Cd55 O97 2.330 1_455 S
C56 N57 1.332 . S
C56 C60 1.381 . S
C56 H62 0.931 . S
N57 Cd54 2.334 . S
N57 C56 1.332 . S
N57 C61 1.328 1_455 S
C58 C59 1.396 1_655 S
C58 C61 1.378 . S
C58 H100 0.931 . S
C59 C58 1.396 1_455 S
C59 C60 1.382 . S
C60 C56 1.381 . S
C60 C59 1.382 . S
C60 H101 0.930 . S
C61 N57 1.328 1_655 S
C61 C58 1.378 . S
C61 H63 0.930 . S
H62 C56 0.931 . S
H63 C61 0.930 . S
C64 O90 1.238 . S
C64 O91 1.253 . S
C65 C66 1.379 . S
C65 N70 1.337 1_655 S
C65 H71 0.929 . S
C66 C65 1.379 . S
C66 C67 1.380 1_655 S
C66 H102 0.933 . S
C67 C66 1.380 1_455 S
C67 C68 1.399 . S
C68 C67 1.399 . S
C68 C69 1.376 . S
C68 H103 0.931 . S
C69 C68 1.376 . S
C69 N70 1.338 . S
C69 H72 0.930 . S
N70 Cd55 2.304 . S
N70 C65 1.337 1_455 S
N70 C69 1.338 . S
H71 C65 0.929 . S
H72 C69 0.930 . S
C73 N74 1.332 1_655 S
C73 C77 1.381 . S
C73 H79 0.931 . S
N74 Cd55 2.334 . S
N74 C73 1.332 1_455 S
N74 C78 1.328 . S
C75 C76 1.396 1_455 S
C75 C78 1.378 . S
C75 H104 0.931 . S
C76 C75 1.396 1_655 S
C76 C77 1.382 . S
C77 C73 1.381 . S
C77 C76 1.382 . S
C77 H105 0.930 . S
C78 N74 1.328 . S
C78 C75 1.378 . S
C78 H80 0.930 . S
H79 C73 0.931 . S
H80 C78 0.930 . S
C81 O92 1.238 . S
C81 O93 1.253 . S
C82 O94 1.239 . S
C82 O95 1.230 1_655 S
N83 Cd54 2.304 . S
N83 C84 1.337 . S
N83 C88 1.338 1_455 S
C84 N83 1.337 . S
C84 C85 1.379 . S
C84 H98 0.929 . S
C85 C84 1.379 . S
C85 C86 1.380 . S
C85 H106 0.929 . S
C86 C85 1.380 . S
C86 C87 1.399 1_455 S
C87 C86 1.399 1_655 S
C87 C88 1.376 . S
C87 H107 0.931 . S
C88 N83 1.338 1_655 S
C88 C87 1.376 . S
C88 H99 0.930 . S
C89 O96 1.239 . S
C89 O97 1.230 1_455 S
O90 Cd54 2.268 1_655 S
O90 C64 1.238 . S
O91 Cd55 2.273 1_655 S
O91 C64 1.253 . S
O92 Cd55 2.268 . S
O92 C81 1.238 . S
O93 Cd54 2.273 . S
O93 C81 1.253 . S
O94 Cd54 2.417 1_655 S
O94 C82 1.239 . S
O95 Cd54 2.330 . S
O95 C82 1.230 1_455 S
O96 Cd55 2.417 . S
O96 C89 1.239 . S
O97 Cd55 2.330 1_655 S
O97 C89 1.230 1_655 S
H98 C84 0.929 . S
H99 C88 0.930 . S
H100 C58 0.931 . S
H101 C60 0.930 . S
H102 C66 0.933 . S
H103 C68 0.931 . S
H104 C75 0.931 . S
H105 C77 0.930 . S
H106 C85 0.929 . S
H107 C87 0.931 . S
Cd108 N111 2.334 . S
Cd108 N137 2.304 . S
Cd108 O144 2.268 . S
Cd108 O147 2.273 . S
Cd108 O148 2.417 . S
Cd108 O149 2.330 . S
Cd109 N124 2.304 . S
Cd109 N128 2.334 . S
Cd109 O145 2.273 . S
Cd109 O146 2.268 . S
Cd109 O150 2.417 . S
Cd109 O151 2.330 . S
C110 N111 1.332 . S
C110 C114 1.381 . S
C110 H116 0.931 . S
N111 Cd108 2.334 . S
N111 C110 1.332 . S
N111 C115 1.328 . S
C112 C113 1.396 . S
C112 C115 1.378 . S
C112 H154 0.931 . S
C113 C112 1.396 . S
C113 C114 1.382 . S
C114 C110 1.381 . S
C114 C113 1.382 . S
C114 H155 0.941 . S
C115 N111 1.328 . S
C115 C112 1.378 . S
C115 H117 0.930 . S
H116 C110 0.931 . S
H117 C115 0.930 . S
C118 O144 1.238 . S
C118 O145 1.253 . S
C119 C120 1.379 . S
C119 N124 1.337 . S
C119 H125 0.929 . S
C120 C119 1.379 . S
C120 C121 1.380 . S
C120 H156 0.929 . S
C121 C120 1.380 . S
C121 C122 1.399 . S
C122 C121 1.399 . S
C122 C123 1.376 . S
C122 H157 0.931 . S
C123 C122 1.376 . S
C123 N124 1.338 . S
C123 H126 0.930 . S
N124 Cd109 2.304 . S
N124 C119 1.337 . S
N124 C123 1.338 . S
H125 C119 0.929 . S
H126 C123 0.930 . S
C127 N128 1.332 . S
C127 C131 1.381 . S
C127 H133 0.931 . S
N128 Cd109 2.334 . S
N128 C127 1.332 . S
N128 C132 1.328 . S
C129 C130 1.396 . S
C129 C132 1.378 . S
C129 H158 0.931 . S
C130 C129 1.396 . S
C130 C131 1.382 . S
C131 C127 1.381 . S
C131 C130 1.382 . S
C131 H159 0.930 . S
C132 N128 1.328 . S
C132 C129 1.378 . S
C132 H134 0.930 . S
H133 C127 0.931 . S
H134 C132 0.930 . S
C135 O146 1.238 . S
C135 O147 1.253 . S
C136 O148 1.239 . S
C136 O149 1.230 . S
N137 Cd108 2.304 . S
N137 C138 1.337 . S
N137 C142 1.338 . S
C138 N137 1.337 . S
C138 C139 1.379 . S
C138 H152 0.929 . S
C139 C138 1.379 . S
C139 C140 1.380 . S
C139 H160 0.929 . S
C140 C139 1.380 . S
C140 C141 1.399 . S
C141 C140 1.399 . S
C141 C142 1.376 . S
C141 H161 0.931 . S
C142 N137 1.338 . S
C142 C141 1.376 . S
C142 H153 0.930 . S
C143 O150 1.239 . S
C143 O151 1.230 . S
O144 Cd108 2.268 . S
O144 C118 1.238 . S
O145 Cd109 2.273 . S
O145 C118 1.253 . S
O146 Cd109 2.268 . S
O146 C135 1.238 . S
O147 Cd108 2.273 . S
O147 C135 1.253 . S
O148 Cd108 2.417 . S
O148 C136 1.239 . S
O149 Cd108 2.330 . S
O149 C136 1.230 . S
O150 Cd109 2.417 . S
O150 C143 1.239 . S
O151 Cd109 2.330 . S
O151 C143 1.230 . S
H152 C138 0.929 . S
H153 C142 0.930 . S
H154 C112 0.931 . S
H155 C114 0.941 . S
H156 C120 0.929 . S
H157 C122 0.931 . S
H158 C129 0.931 . S
H159 C131 0.930 . S
H160 C139 0.929 . S
H161 C141 0.931 . S
Cd162 N165 2.334 . S
Cd162 N191 2.304 . S
Cd162 O198 2.268 . S
Cd162 O201 2.273 . S
Cd162 O202 2.417 . S
Cd162 O203 2.330 . S
Cd163 N178 2.304 . S
Cd163 N182 2.334 . S
Cd163 O199 2.273 . S
Cd163 O200 2.268 . S
Cd163 O204 2.417 . S
Cd163 O205 2.330 . S
C164 N165 1.332 . S
C164 C168 1.381 . S
C164 H170 0.931 . S
N165 Cd162 2.334 . S
N165 C164 1.332 . S
N165 C169 1.328 . S
C166 C167 1.396 . S
C166 C169 1.378 . S
C166 H208 0.931 . S
C167 C166 1.396 . S
C167 C168 1.382 . S
C168 C164 1.381 . S
C168 C167 1.382 . S
C168 H209 0.930 . S
C169 N165 1.328 . S
C169 C166 1.378 . S
C169 H171 0.930 . S
H170 C164 0.931 . S
H171 C169 0.930 . S
C172 O198 1.238 . S
C172 O199 1.253 . S
C173 C174 1.379 . S
C173 N178 1.337 . S
C173 H179 0.929 . S
C174 C173 1.379 . S
C174 C175 1.380 . S
C174 H210 0.933 . S
C175 C174 1.380 . S
C175 C176 1.399 . S
C176 C175 1.399 . S
C176 C177 1.376 . S
C176 H211 0.931 . S
C177 C176 1.376 . S
C177 N178 1.338 . S
C177 H180 0.930 . S
N178 Cd163 2.304 . S
N178 C173 1.337 . S
N178 C177 1.338 . S
H179 C173 0.929 . S
H180 C177 0.930 . S
C181 N182 1.332 . S
C181 C185 1.381 . S
C181 H187 0.931 . S
N182 Cd163 2.334 . S
N182 C181 1.332 . S
N182 C186 1.328 . S
C183 C184 1.396 . S
C183 C186 1.378 . S
C183 H212 0.931 . S
C184 C183 1.396 . S
C184 C185 1.382 . S
C185 C181 1.381 . S
C185 C184 1.382 . S
C185 H213 0.930 . S
C186 N182 1.328 . S
C186 C183 1.378 . S
C186 H188 0.930 . S
H187 C181 0.931 . S
H188 C186 0.930 . S
C189 O200 1.238 . S
C189 O201 1.253 . S
C190 O202 1.239 . S
C190 O203 1.230 . S
N191 Cd162 2.304 . S
N191 C192 1.337 . S
N191 C196 1.338 . S
C192 N191 1.337 . S
C192 C193 1.379 . S
C192 H206 0.929 . S
C193 C192 1.379 . S
C193 C194 1.380 . S
C193 H214 0.929 . S
C194 C193 1.380 . S
C194 C195 1.399 . S
C195 C194 1.399 . S
C195 C196 1.376 . S
C195 H215 0.931 . S
C196 N191 1.338 . S
C196 C195 1.376 . S
C196 H207 0.930 . S
C197 O204 1.239 . S
C197 O205 1.230 . S
O198 Cd162 2.268 . S
O198 C172 1.238 . S
O199 Cd163 2.273 . S
O199 C172 1.253 . S
O200 Cd163 2.268 . S
O200 C189 1.238 . S
O201 Cd162 2.273 . S
O201 C189 1.253 . S
O202 Cd162 2.417 . S
O202 C190 1.239 . S
O203 Cd162 2.330 . S
O203 C190 1.230 . S
O204 Cd163 2.417 . S
O204 C197 1.239 . S
O205 Cd163 2.330 . S
O205 C197 1.230 . S
H206 C192 0.929 . S
H207 C196 0.930 . S
H208 C166 0.931 . S
H209 C168 0.930 . S
H210 C174 0.933 . S
H211 C176 0.931 . S
H212 C183 0.931 . S
H213 C185 0.930 . S
H214 C193 0.929 . S
H215 C195 0.931 . S
H216 C224 0.950 . S
H217 C229 0.950 . S
H218 C226 0.950 . S
H219 C228 0.950 . S
H220 C230 0.950 . S
H221 C232 0.950 . S
H222 C234 0.950 . S
H223 C235 0.950 . S
C224 H216 0.950 . S
C224 C225 1.386 . S
C224 C226 1.391 . S
C225 C224 1.386 . S
C225 C229 1.393 1_655 S
C226 H218 0.950 . S
C226 C224 1.391 . S
C226 C227 1.405 . S
C227 C226 1.405 . S
C227 C228 1.394 1_655 S
C227 C233 1.490 1_655 S
C228 H219 0.950 . S
C228 C227 1.394 1_455 S
C228 C229 1.391 . S
C229 H217 0.950 . S
C229 C225 1.393 1_455 S
C229 C228 1.391 . S
C230 H220 0.950 . S
C230 C231 1.386 . S
C230 C232 1.391 . S
C231 C230 1.386 . S
C231 C235 1.393 1_455 S
C232 H221 0.950 . S
C232 C230 1.391 . S
C232 C233 1.400 . S
C233 C227 1.490 1_455 S
C233 C232 1.400 . S
C233 C234 1.398 1_455 S
C234 H222 0.950 . S
C234 C233 1.398 1_655 S
C234 C235 1.391 . S
C235 H223 0.950 . S
C235 C231 1.393 1_655 S
C235 C234 1.391 . S
H236 C244 0.950 . S
H237 C249 0.950 . S
H238 C246 0.950 . S
H239 C248 0.950 . S
H240 C250 0.950 . S
H241 C252 0.950 . S
H242 C254 0.950 . S
H243 C255 0.950 . S
C244 H236 0.950 . S
C244 C245 1.386 1_655 S
C244 C246 1.391 . S
C245 C244 1.386 1_455 S
C245 C249 1.393 . S
C246 H238 0.950 . S
C246 C244 1.391 . S
C246 C247 1.400 1_655 S
C247 C246 1.400 1_455 S
C247 C248 1.398 . S
C247 C253 1.491 . S
C248 H239 0.950 . S
C248 C247 1.398 . S
C248 C249 1.391 . S
C249 H237 0.950 . S
C249 C245 1.393 . S
C249 C248 1.391 . S
C250 H240 0.950 . S
C250 C251 1.386 . S
C250 C252 1.391 . S
C251 C250 1.386 . S
C251 C255 1.393 1_455 S
C252 H241 0.950 . S
C252 C250 1.391 . S
C252 C253 1.400 . S
C253 C247 1.491 . S
C253 C252 1.400 . S
C253 C254 1.398 1_455 S
C254 H242 0.950 . S
C254 C253 1.398 1_655 S
C254 C255 1.391 . S
C255 H243 0.950 . S
C255 C251 1.393 1_655 S
C255 C254 1.391 . S
H256 C264 0.950 . S
H257 C269 0.950 . S
H258 C266 0.950 . S
H259 C268 0.950 . S
H260 C270 0.950 . S
H261 C272 0.950 . S
H262 C274 0.950 . S
H263 C275 0.950 . S
C264 H256 0.950 . S
C264 C265 1.386 . S
C264 C266 1.391 . S
C265 C264 1.386 . S
C265 C269 1.393 . S
C266 H258 0.950 . S
C266 C264 1.391 . S
C266 C267 1.400 . S
C267 C266 1.400 . S
C267 C268 1.398 . S
C267 C273 1.491 . S
C268 H259 0.950 . S
C268 C267 1.398 . S
C268 C269 1.391 . S
C269 H257 0.950 . S
C269 C265 1.393 . S
C269 C268 1.391 . S
C270 H260 0.950 . S
C270 C271 1.386 . S
C270 C272 1.391 . S
C271 C270 1.386 . S
C271 C275 1.393 . S
C272 H261 0.950 . S
C272 C270 1.391 . S
C272 C273 1.400 . S
C273 C267 1.491 . S
C273 C272 1.400 . S
C273 C274 1.398 . S
C274 H262 0.950 . S
C274 C273 1.398 . S
C274 C275 1.391 . S
C275 H263 0.950 . S
C275 C271 1.393 . S
C275 C274 1.391 . S
H276 C284 0.950 . S
H277 C289 0.950 . S
H278 C286 0.950 . S
H279 C288 0.950 . S
H280 C290 0.950 . S
H281 C292 0.950 . S
H282 C294 0.950 . S
H283 C295 0.950 . S
C284 H276 0.950 . S
C284 C285 1.386 . S
C284 C286 1.391 . S
C285 C284 1.386 . S
C285 C289 1.393 . S
C286 H278 0.950 . S
C286 C284 1.391 . S
C286 C287 1.400 . S
C287 C286 1.400 . S
C287 C288 1.398 . S
C287 C293 1.491 . S
C288 H279 0.950 . S
C288 C287 1.398 . S
C288 C289 1.391 . S
C289 H277 0.950 . S
C289 C285 1.393 . S
C289 C288 1.391 . S
C290 H280 0.950 . S
C290 C291 1.386 . S
C290 C292 1.391 . S
C291 C290 1.386 . S
C291 C295 1.393 . S
C292 H281 0.950 . S
C292 C290 1.391 . S
C292 C293 1.400 . S
C293 C287 1.491 . S
C293 C292 1.400 . S
C293 C294 1.398 . S
C294 H282 0.950 . S
C294 C293 1.398 . S
C294 C295 1.391 . S
C295 H283 0.950 . S
C295 C291 1.393 . S
C295 C294 1.391 . S
H296 C304 0.950 . S
H297 C309 0.950 . S
H298 C306 0.950 . S
H299 C308 0.950 . S
H300 C310 0.950 . S
H301 C312 0.950 . S
H302 C314 0.950 . S
H303 C315 0.950 . S
C304 H296 0.950 . S
C304 C305 1.386 . S
C304 C306 1.391 . S
C305 C304 1.386 . S
C305 C309 1.393 . S
C306 H298 0.950 . S
C306 C304 1.391 . S
C306 C307 1.400 . S
C307 C306 1.400 . S
C307 C308 1.398 . S
C307 C313 1.491 . S
C308 H299 0.950 . S
C308 C307 1.398 . S
C308 C309 1.391 . S
C309 H297 0.950 . S
C309 C305 1.393 . S
C309 C308 1.391 . S
C310 H300 0.950 . S
C310 C311 1.386 . S
C310 C312 1.391 . S
C311 C310 1.386 . S
C311 C315 1.393 . S
C312 H301 0.950 . S
C312 C310 1.391 . S
C312 C313 1.400 . S
C313 C307 1.491 . S
C313 C312 1.400 . S
C313 C314 1.398 . S
C314 H302 0.950 . S
C314 C313 1.398 . S
C314 C315 1.391 . S
C315 H303 0.950 . S
C315 C311 1.393 . S
C315 C314 1.391 . S
H316 C324 0.950 . S
H317 C329 0.950 . S
H318 C326 0.950 . S
H319 C328 0.950 . S
H320 C330 0.950 . S
H321 C332 0.950 . S
H322 C334 0.950 . S
H323 C335 0.950 . S
C324 H316 0.950 . S
C324 C325 1.386 . S
C324 C326 1.391 . S
C325 C324 1.386 . S
C325 C329 1.393 . S
C326 H318 0.950 . S
C326 C324 1.391 . S
C326 C327 1.400 . S
C327 C326 1.400 . S
C327 C328 1.398 . S
C327 C333 1.491 . S
C328 H319 0.950 . S
C328 C327 1.398 . S
C328 C329 1.391 . S
C329 H317 0.950 . S
C329 C325 1.393 . S
C329 C328 1.391 . S
C330 H320 0.950 . S
C330 C331 1.386 . S
C330 C332 1.391 . S
C331 C330 1.386 . S
C331 C335 1.393 . S
C332 H321 0.950 . S
C332 C330 1.391 . S
C332 C333 1.400 . S
C333 C327 1.491 . S
C333 C332 1.400 . S
C333 C334 1.398 . S
C334 H322 0.950 . S
C334 C333 1.398 . S
C334 C335 1.391 . S
C335 H323 0.950 . S
C335 C331 1.393 . S
C335 C334 1.391 . S
H336 C344 0.950 . S
H337 C349 0.950 . S
H338 C346 0.950 . S
H339 C348 0.950 . S
H340 C350 0.950 . S
H341 C352 0.950 . S
H342 C354 0.950 . S
H343 C355 0.950 . S
C344 H336 0.950 . S
C344 C345 1.386 . S
C344 C346 1.391 . S
C345 C344 1.386 . S
C345 C349 1.393 . S
C346 H338 0.950 . S
C346 C344 1.391 . S
C346 C347 1.400 . S
C347 C346 1.400 . S
C347 C348 1.398 . S
C347 C353 1.491 1_655 S
C348 H339 0.950 . S
C348 C347 1.398 . S
C348 C349 1.391 . S
C349 H337 0.950 . S
C349 C345 1.393 . S
C349 C348 1.391 . S
C350 H340 0.950 . S
C350 C351 1.386 . S
C350 C352 1.391 . S
C351 C350 1.386 . S
C351 C355 1.393 . S
C352 H341 0.950 . S
C352 C350 1.391 . S
C352 C353 1.400 . S
C353 C347 1.491 1_455 S
C353 C352 1.400 . S
C353 C354 1.398 . S
C354 H342 0.950 . S
C354 C353 1.398 . S
C354 C355 1.391 . S
C355 H343 0.950 . S
C355 C351 1.393 . S
C355 C354 1.391 . S
H356 C364 0.950 . S
H357 C369 0.950 . S
H358 C366 0.950 . S
H359 C368 0.950 . S
H360 C370 0.950 . S
H361 C372 0.950 . S
H362 C374 0.950 . S
H363 C375 0.950 . S
C364 H356 0.950 . S
C364 C365 1.386 . S
C364 C366 1.391 . S
C365 C364 1.386 . S
C365 C369 1.393 . S
C366 H358 0.950 . S
C366 C364 1.391 . S
C366 C367 1.400 . S
C367 C366 1.400 . S
C367 C368 1.398 . S
C367 C373 1.491 1_655 S
C368 H359 0.950 . S
C368 C367 1.398 . S
C368 C369 1.391 . S
C369 H357 0.950 . S
C369 C365 1.393 . S
C369 C368 1.391 . S
C370 H360 0.950 . S
C370 C371 1.386 . S
C370 C372 1.391 . S
C371 C370 1.386 . S
C371 C375 1.393 . S
C372 H361 0.950 . S
C372 C370 1.391 . S
C372 C373 1.400 . S
C373 C367 1.491 1_455 S
C373 C372 1.400 . S
C373 C374 1.398 . S
C374 H362 0.950 . S
C374 C373 1.398 . S
C374 C375 1.391 . S
C375 H363 0.950 . S
C375 C371 1.393 . S
C375 C374 1.391 . S
H376 C384 0.950 . S
H377 C389 0.950 . S
H378 C386 0.950 . S
H379 C388 0.950 . S
H380 C390 0.950 1_655 S
H381 C392 0.950 . S
H382 C394 0.950 . S
H383 C395 0.950 . S
C384 H376 0.950 . S
C384 C385 1.386 . S
C384 C386 1.391 . S
C385 C384 1.386 . S
C385 C389 1.393 . S
C386 H378 0.950 . S
C386 C384 1.391 . S
C386 C387 1.400 . S
C387 C386 1.400 . S
C387 C388 1.398 . S
C387 C393 1.491 . S
C388 H379 0.950 . S
C388 C387 1.398 . S
C388 C389 1.391 . S
C389 H377 0.950 . S
C389 C385 1.393 . S
C389 C388 1.391 . S
C390 H380 0.950 1_455 S
C390 C391 1.386 . S
C390 C392 1.391 . S
C391 C390 1.386 . S
C391 C395 1.393 . S
C392 H381 0.950 . S
C392 C390 1.391 . S
C392 C393 1.400 . S
C393 C387 1.491 . S
C393 C392 1.400 . S
C393 C394 1.398 . S
C394 H382 0.950 . S
C394 C393 1.398 . S
C394 C395 1.391 . S
C395 H383 0.950 . S
C395 C391 1.393 . S
C395 C394 1.391 . S
H396 C404 0.950 . S
H397 C409 0.950 . S
H398 C406 0.950 . S
H399 C408 0.950 . S
H400 C410 0.950 . S
H401 C412 0.950 . S
H402 C414 0.950 . S
H403 C415 0.950 . S
C404 H396 0.950 . S
C404 C405 1.386 . S
C404 C406 1.391 . S
C405 C404 1.386 . S
C405 C409 1.393 1_556 S
C406 H398 0.950 . S
C406 C404 1.391 . S
C406 C407 1.400 . S
C407 C406 1.400 . S
C407 C408 1.398 1_556 S
C407 C413 1.491 1_556 S
C408 H399 0.950 . S
C408 C407 1.398 1_554 S
C408 C409 1.391 . S
C409 H397 0.950 . S
C409 C405 1.393 1_554 S
C409 C408 1.391 . S
C410 H400 0.950 . S
C410 C411 1.386 . S
C410 C412 1.391 . S
C411 C410 1.386 . S
C411 C415 1.393 1_554 S
C412 H401 0.950 . S
C412 C410 1.391 . S
C412 C413 1.400 . S
C413 C407 1.491 1_554 S
C413 C412 1.400 . S
C413 C414 1.398 1_554 S
C414 H402 0.950 . S
C414 C413 1.398 1_556 S
C414 C415 1.391 . S
C415 H403 0.950 . S
C415 C411 1.393 1_556 S
C415 C414 1.391 . S
H416 C424 0.950 . S
H417 C429 0.950 . S
H418 C426 0.950 . S
H419 C428 0.950 . S
H420 C430 0.950 1_455 S
H421 C432 0.950 . S
H422 C434 0.950 . S
H423 C435 0.950 . S
C424 H416 0.950 . S
C424 C425 1.386 . S
C424 C426 1.391 . S
C425 C424 1.386 . S
C425 C429 1.393 . S
C426 H418 0.950 . S
C426 C424 1.391 . S
C426 C427 1.400 . S
C427 C426 1.400 . S
C427 C428 1.398 . S
C427 C433 1.491 . S
C428 H419 0.950 . S
C428 C427 1.398 . S
C428 C429 1.391 . S
C429 H417 0.950 . S
C429 C425 1.393 . S
C429 C428 1.391 . S
C430 H420 0.950 1_655 S
C430 C431 1.386 . S
C430 C432 1.391 . S
C431 C430 1.386 . S
C431 C435 1.393 . S
C432 H421 0.950 . S
C432 C430 1.391 . S
C432 C433 1.400 . S
C433 C427 1.491 . S
C433 C432 1.400 . S
C433 C434 1.398 . S
C434 H422 0.950 . S
C434 C433 1.398 . S
C434 C435 1.391 . S
C435 H423 0.950 . S
C435 C431 1.393 . S
C435 C434 1.391 . S
H436 C444 0.950 . S
H437 C449 0.950 . S
H438 C446 0.950 1_556 S
H439 C448 0.950 . S
H440 C450 0.950 . S
H441 C452 0.950 1_554 S
H442 C454 0.950 . S
H443 C455 0.950 . S
C444 H436 0.950 . S
C444 C445 1.386 . S
C444 C446 1.391 . S
C445 C444 1.386 . S
C445 C449 1.393 . S
C446 H438 0.950 1_554 S
C446 C444 1.391 . S
C446 C447 1.400 . S
C447 C446 1.400 . S
C447 C448 1.398 . S
C447 C453 1.491 1_554 S
C448 H439 0.950 . S
C448 C447 1.398 . S
C448 C449 1.391 . S
C449 H437 0.950 . S
C449 C445 1.393 . S
C449 C448 1.391 . S
C450 H440 0.950 . S
C450 C451 1.386 . S
C450 C452 1.391 . S
C451 C450 1.386 . S
C451 C455 1.393 . S
C452 H441 0.950 1_556 S
C452 C450 1.391 . S
C452 C453 1.400 . S
C453 C447 1.491 1_556 S
C453 C452 1.400 . S
C453 C454 1.398 . S
C454 H442 0.950 . S
C454 C453 1.398 . S
C454 C455 1.391 . S
C455 H443 0.950 . S
C455 C451 1.393 . S
C455 C454 1.391 . S
H456 C464 0.950 . S
H457 C469 0.950 . S
H458 C466 0.950 . S
H459 C468 0.950 . S
H460 C470 0.950 . S
H461 C472 0.950 . S
H462 C474 0.950 . S
H463 C475 0.950 . S
C464 H456 0.950 . S
C464 C465 1.386 . S
C464 C466 1.391 . S
C465 C464 1.386 . S
C465 C469 1.393 1_655 S
C466 H458 0.950 . S
C466 C464 1.391 . S
C466 C467 1.400 1_655 S
C467 C466 1.400 1_455 S
C467 C468 1.398 . S
C467 C473 1.491 1_544 S
C468 H459 0.950 . S
C468 C467 1.398 . S
C468 C469 1.391 . S
C469 H457 0.950 . S
C469 C465 1.393 1_455 S
C469 C468 1.391 . S
C470 H460 0.950 . S
C470 C471 1.386 . S
C470 C472 1.391 . S
C471 C470 1.386 . S
C471 C475 1.393 1_455 S
C472 H461 0.950 . S
C472 C470 1.391 . S
C472 C473 1.400 . S
C473 C467 1.491 1_566 S
C473 C472 1.400 . S
C473 C474 1.398 1_455 S
C474 H462 0.950 . S
C474 C473 1.398 1_655 S
C474 C475 1.391 . S
C475 H463 0.950 . S
C475 C471 1.393 1_655 S
C475 C474 1.391 . S
H476 C484 0.950 . S
H477 C489 0.950 1_655 S
H478 C486 0.950 . S
H479 C488 0.950 1_565 S
H480 C490 0.950 . S
H481 C492 0.950 . S
H482 C494 0.950 1_545 S
H483 C495 0.950 . S
C484 H476 0.950 . S
C484 C485 1.386 . S
C484 C486 1.391 . S
C485 C484 1.386 . S
C485 C489 1.393 . S
C486 H478 0.950 . S
C486 C484 1.391 . S
C486 C487 1.400 . S
C487 C486 1.400 . S
C487 C488 1.398 1_455 S
C487 C493 1.491 1_545 S
C488 H479 0.950 1_545 S
C488 C487 1.398 1_655 S
C488 C489 1.391 1_655 S
C489 H477 0.950 1_455 S
C489 C485 1.393 . S
C489 C488 1.391 1_455 S
C490 H480 0.950 . S
C490 C491 1.386 . S
C490 C492 1.391 . S
C491 C490 1.386 . S
C491 C495 1.393 1_655 S
C492 H481 0.950 . S
C492 C490 1.391 . S
C492 C493 1.400 1_655 S
C493 C487 1.491 1_565 S
C493 C492 1.400 1_455 S
C493 C494 1.398 . S
C494 H482 0.950 1_565 S
C494 C493 1.398 . S
C494 C495 1.391 . S
C495 H483 0.950 . S
C495 C491 1.393 1_455 S
C495 C494 1.391 . S
H496 C504 0.950 . S
H497 C509 0.950 . S
H498 C506 0.950 1_556 S
H499 C508 0.950 . S
H500 C510 0.950 . S
H501 C512 0.950 1_554 S
H502 C514 0.950 . S
H503 C515 0.950 . S
C504 H496 0.950 . S
C504 C505 1.386 . S
C504 C506 1.391 . S
C505 C504 1.386 . S
C505 C509 1.393 . S
C506 H498 0.950 1_554 S
C506 C504 1.391 . S
C506 C507 1.400 . S
C507 C506 1.400 . S
C507 C508 1.398 . S
C507 C513 1.491 1_554 S
C508 H499 0.950 . S
C508 C507 1.398 . S
C508 C509 1.391 . S
C509 H497 0.950 . S
C509 C505 1.393 . S
C509 C508 1.391 . S
C510 H500 0.950 . S
C510 C511 1.386 . S
C510 C512 1.391 . S
C511 C510 1.386 . S
C511 C515 1.393 . S
C512 H501 0.950 1_556 S
C512 C510 1.391 . S
C512 C513 1.400 . S
C513 C507 1.491 1_556 S
C513 C512 1.400 . S
C513 C514 1.398 . S
C514 H502 0.950 . S
C514 C513 1.398 . S
C514 C515 1.391 . S
C515 H503 0.950 . S
C515 C511 1.393 . S
C515 C514 1.391 . S
H516 C524 0.950 . S
H517 C529 0.950 . S
H518 C526 0.950 . S
H519 C528 0.950 . S
H520 C530 0.950 . S
H521 C532 0.950 . S
H522 C534 0.950 . S
H523 C535 0.950 . S
C524 H516 0.950 . S
C524 C525 1.386 . S
C524 C526 1.391 . S
C525 C524 1.386 . S
C525 C529 1.393 . S
C526 H518 0.950 . S
C526 C524 1.391 . S
C526 C527 1.400 . S
C527 C526 1.400 . S
C527 C528 1.398 . S
C527 C533 1.491 . S
C528 H519 0.950 . S
C528 C527 1.398 . S
C528 C529 1.391 . S
C529 H517 0.950 . S
C529 C525 1.393 . S
C529 C528 1.391 . S
C530 H520 0.950 . S
C530 C531 1.386 . S
C530 C532 1.391 . S
C531 C530 1.386 . S
C531 C535 1.393 . S
C532 H521 0.950 . S
C532 C530 1.391 . S
C532 C533 1.400 . S
C533 C527 1.491 . S
C533 C532 1.400 . S
C533 C534 1.398 . S
C534 H522 0.950 . S
C534 C533 1.398 . S
C534 C535 1.391 . S
C535 H523 0.950 . S
C535 C531 1.393 . S
C535 C534 1.391 . S
C225 C5 1.887 1_556 S
C231 C13 1.889 . S
C245 C59 1.888 . S
C251 C67 1.890 1_554 S
C265 C113 1.869 1_556 S
C271 C121 1.870 . S
C285 C175 1.873 1_554 S
C291 C167 1.872 . S
C305 C10 0.711 . S
C311 C27 0.711 . S
C325 C64 0.695 . S
C331 C81 0.695 . S
C345 C135 0.711 . S
C351 C118 0.711 . S
C365 C189 0.702 . S
C371 C172 0.701 . S
C385 C190 1.534 . S
C391 C35 1.533 . S
C405 C194 2.176 . S
C411 C22 2.171 . S
C425 C143 1.547 . S
C431 C82 1.547 . S
C445 C130 2.160 . S
C451 C86 2.165 . S
C465 C28 0.582 . S
C471 C89 0.583 . S
C485 C32 1.980 . S
C491 C76 1.983 . S
C505 C136 0.568 . S
C511 C197 0.569 . S
C525 C184 1.990 . S
C531 C140 1.988 . S
