# Generated by pormake.
# Topology sme, (6)-cn, num edge types: 1
# Building blocks:
#     Node 0, Type 0, BuildingBlock: IZENUY_clean_sbu_0, # of connection points: 6
#     Node 1, Type 0, BuildingBlock: IZENUY_clean_sbu_0, # of connection points: 6
#     Node 2, Type 0, BuildingBlock: IZENUY_clean_sbu_0, # of connection points: 6
#     Node 3, Type 0, BuildingBlock: IZENUY_clean_sbu_0, # of connection points: 6
#     Node 4, Type 0, BuildingBlock: IZENUY_clean_sbu_0, # of connection points: 6
#     Node 5, Type 0, BuildingBlock: IZENUY_clean_sbu_0, # of connection points: 6
#     Node 6, Type 0, BuildingBlock: IZENUY_clean_sbu_0, # of connection points: 6
#     Node 7, Type 0, BuildingBlock: IZENUY_clean_sbu_0, # of connection points: 6
#     Node 8, Type 0, BuildingBlock: IZENUY_clean_sbu_0, # of connection points: 6
#     Node 9, Type 0, BuildingBlock: IZENUY_clean_sbu_0, # of connection points: 6
#     Node 10, Type 0, BuildingBlock: IZENUY_clean_sbu_0, # of connection points: 6
#     Node 11, Type 0, BuildingBlock: IZENUY_clean_sbu_0, # of connection points: 6
#     Node 12, Type 0, BuildingBlock: IZENUY_clean_sbu_0, # of connection points: 6
#     Node 13, Type 0, BuildingBlock: IZENUY_clean_sbu_0, # of connection points: 6
#     Node 14, Type 0, BuildingBlock: IZENUY_clean_sbu_0, # of connection points: 6
#     Node 15, Type 0, BuildingBlock: IZENUY_clean_sbu_0, # of connection points: 6
#     Node 16, Type 0, BuildingBlock: IZENUY_clean_sbu_0, # of connection points: 6
#     Node 17, Type 0, BuildingBlock: IZENUY_clean_sbu_0, # of connection points: 6
#     Edge 18, Type (0, 0), BuildingBlock: AJUNOK_clean_linker_0, # of connection points: 2
#     Edge 19, Type (0, 0), BuildingBlock: AJUNOK_clean_linker_0, # of connection points: 2
#     Edge 20, Type (0, 0), BuildingBlock: AJUNOK_clean_linker_0, # of connection points: 2
#     Edge 21, Type (0, 0), BuildingBlock: AJUNOK_clean_linker_0, # of connection points: 2
#     Edge 22, Type (0, 0), BuildingBlock: AJUNOK_clean_linker_0, # of connection points: 2
#     Edge 23, Type (0, 0), BuildingBlock: AJUNOK_clean_linker_0, # of connection points: 2
#     Edge 24, Type (0, 0), BuildingBlock: AJUNOK_clean_linker_0, # of connection points: 2
#     Edge 25, Type (0, 0), BuildingBlock: AJUNOK_clean_linker_0, # of connection points: 2
#     Edge 26, Type (0, 0), BuildingBlock: AJUNOK_clean_linker_0, # of connection points: 2
#     Edge 27, Type (0, 0), BuildingBlock: AJUNOK_clean_linker_0, # of connection points: 2
#     Edge 28, Type (0, 0), BuildingBlock: AJUNOK_clean_linker_0, # of connection points: 2
#     Edge 29, Type (0, 0), BuildingBlock: AJUNOK_clean_linker_0, # of connection points: 2
#     Edge 30, Type (0, 0), BuildingBlock: AJUNOK_clean_linker_0, # of connection points: 2
#     Edge 31, Type (0, 0), BuildingBlock: AJUNOK_clean_linker_0, # of connection points: 2
#     Edge 32, Type (0, 0), BuildingBlock: AJUNOK_clean_linker_0, # of connection points: 2
#     Edge 33, Type (0, 0), BuildingBlock: AJUNOK_clean_linker_0, # of connection points: 2
#     Edge 34, Type (0, 0), BuildingBlock: AJUNOK_clean_linker_0, # of connection points: 2
#     Edge 35, Type (0, 0), BuildingBlock: AJUNOK_clean_linker_0, # of connection points: 2
#     Edge 36, Type (0, 0), BuildingBlock: AJUNOK_clean_linker_0, # of connection points: 2
#     Edge 37, Type (0, 0), BuildingBlock: AJUNOK_clean_linker_0, # of connection points: 2
#     Edge 38, Type (0, 0), BuildingBlock: AJUNOK_clean_linker_0, # of connection points: 2
#     Edge 39, Type (0, 0), BuildingBlock: AJUNOK_clean_linker_0, # of connection points: 2
#     Edge 40, Type (0, 0), BuildingBlock: AJUNOK_clean_linker_0, # of connection points: 2
#     Edge 41, Type (0, 0), BuildingBlock: AJUNOK_clean_linker_0, # of connection points: 2
#     Edge 42, Type (0, 0), BuildingBlock: AJUNOK_clean_linker_0, # of connection points: 2
#     Edge 43, Type (0, 0), BuildingBlock: AJUNOK_clean_linker_0, # of connection points: 2
#     Edge 44, Type (0, 0), BuildingBlock: AJUNOK_clean_linker_0, # of connection points: 2
#     Edge 45, Type (0, 0), BuildingBlock: AJUNOK_clean_linker_0, # of connection points: 2
#     Edge 46, Type (0, 0), BuildingBlock: AJUNOK_clean_linker_0, # of connection points: 2
#     Edge 47, Type (0, 0), BuildingBlock: AJUNOK_clean_linker_0, # of connection points: 2
#     Edge 48, Type (0, 0), BuildingBlock: AJUNOK_clean_linker_0, # of connection points: 2
#     Edge 49, Type (0, 0), BuildingBlock: AJUNOK_clean_linker_0, # of connection points: 2
#     Edge 50, Type (0, 0), BuildingBlock: AJUNOK_clean_linker_0, # of connection points: 2
#     Edge 51, Type (0, 0), BuildingBlock: AJUNOK_clean_linker_0, # of connection points: 2
#     Edge 52, Type (0, 0), BuildingBlock: AJUNOK_clean_linker_0, # of connection points: 2
#     Edge 53, Type (0, 0), BuildingBlock: AJUNOK_clean_linker_0, # of connection points: 2
#     Edge 54, Type (0, 0), BuildingBlock: AJUNOK_clean_linker_0, # of connection points: 2
#     Edge 55, Type (0, 0), BuildingBlock: AJUNOK_clean_linker_0, # of connection points: 2
#     Edge 56, Type (0, 0), BuildingBlock: AJUNOK_clean_linker_0, # of connection points: 2
#     Edge 57, Type (0, 0), BuildingBlock: AJUNOK_clean_linker_0, # of connection points: 2
#     Edge 58, Type (0, 0), BuildingBlock: AJUNOK_clean_linker_0, # of connection points: 2
#     Edge 59, Type (0, 0), BuildingBlock: AJUNOK_clean_linker_0, # of connection points: 2
#     Edge 60, Type (0, 0), BuildingBlock: AJUNOK_clean_linker_0, # of connection points: 2
#     Edge 61, Type (0, 0), BuildingBlock: AJUNOK_clean_linker_0, # of connection points: 2
#     Edge 62, Type (0, 0), BuildingBlock: AJUNOK_clean_linker_0, # of connection points: 2
#     Edge 63, Type (0, 0), BuildingBlock: AJUNOK_clean_linker_0, # of connection points: 2
#     Edge 64, Type (0, 0), BuildingBlock: AJUNOK_clean_linker_0, # of connection points: 2
#     Edge 65, Type (0, 0), BuildingBlock: AJUNOK_clean_linker_0, # of connection points: 2
#     Edge 66, Type (0, 0), BuildingBlock: AJUNOK_clean_linker_0, # of connection points: 2
#     Edge 67, Type (0, 0), BuildingBlock: AJUNOK_clean_linker_0, # of connection points: 2
#     Edge 68, Type (0, 0), BuildingBlock: AJUNOK_clean_linker_0, # of connection points: 2
#     Edge 69, Type (0, 0), BuildingBlock: AJUNOK_clean_linker_0, # of connection points: 2
#     Edge 70, Type (0, 0), BuildingBlock: AJUNOK_clean_linker_0, # of connection points: 2
#     Edge 71, Type (0, 0), BuildingBlock: AJUNOK_clean_linker_0, # of connection points: 2
# Relax obj value: 0.119
# Max RMSD: 0.168
# Mean RMSD: 0.168
data_MOF--net-sme--node1-IZENUY_clean_sbu_0--edge1-AJUNOK_clean_linker_0
_symmetry_space_group_name_H-M    P1
_symmetry_Int_Tables_number       1
_symmetry_cell_setting            triclinic
loop_
_symmetry_equiv_pos_as_xyz
'x, y, z'
_cell_length_a     33.142072
_cell_length_b     33.085595
_cell_length_c     29.097872
_cell_angle_alpha  89.948816
_cell_angle_beta   90.031686
_cell_angle_gamma 119.96967
loop_
_atom_site_label
_atom_site_type_symbol
_atom_site_fract_x
_atom_site_fract_y
_atom_site_fract_z
_atom_type_partial_charge
Fe0 Fe 0.06116 0.33777 0.78861 0.0
Fe1 Fe 0.06303 0.25772 0.83927 0.0
O2 O 0.0617 0.28413 0.78643 0.0
Fe3 Fe 0.06078 0.2593 0.73175 0.0
O4 O 0.10884 0.314 0.7071 0.0
O5 O 0.08188 0.35796 0.73027 0.0
O6 O 0.11991 0.36662 0.80855 0.0
C7 C 0.13259 0.35258 0.84319 0.0
C8 C 0.98944 0.28295 0.73305 0.0
O9 O 0.10547 0.31426 0.86327 0.0
C10 C 1.00249 0.17878 0.78456 0.0
O11 O 0.03928 0.33306 0.84753 0.0
O12 O 1.01338 0.26045 0.86452 0.0
O13 O 1.01581 0.27189 0.71096 0.0
O14 O 1.00278 0.30811 0.76868 0.0
C15 C 0.12335 0.24073 0.78376 0.0
O16 O 0.02175 0.19797 0.82206 0.0
O17 O 1.01328 0.20139 0.74724 0.0
C18 C 1.01301 0.29791 0.87135 0.0
O19 O 0.1121 0.25077 0.82184 0.0
O20 O 0.10418 0.24222 0.74648 0.0
C21 C 0.10628 0.3506 0.70228 0.0
Fe22 Fe 0.88116 0.89556 0.83774 0.0
Fe23 Fe 0.88153 0.89441 0.73004 0.0
O24 O 0.85594 0.86948 0.78406 0.0
Fe25 Fe 0.8024 0.81546 0.78439 0.0
O26 O 0.77333 0.84584 0.80202 0.0
O27 O 0.82422 0.885 0.85836 0.0
O28 O 0.89288 0.95344 0.82042 0.0
C29 C 0.90002 0.97452 0.7824 0.0
C30 C 0.83545 0.80524 0.87024 0.0
O31 O 0.8958 0.95387 0.74456 0.0
C32 C 0.86078 0.80022 0.733 0.0
O33 O 0.94052 0.9103 0.82272 0.0
O34 O 0.93985 0.90716 0.74687 0.0
O35 O 0.80291 0.79827 0.84374 0.0
O36 O 0.8744 0.84139 0.86414 0.0
C37 C 0.79103 0.84746 0.69827 0.0
O38 O 0.87139 0.83729 0.71012 0.0
O39 O 0.83329 0.78693 0.76707 0.0
C40 C 0.96109 0.91468 0.78483 0.0
O41 O 0.82693 0.88674 0.70392 0.0
O42 O 0.78467 0.81524 0.72508 0.0
C43 C 0.78592 0.87221 0.83702 0.0
Fe44 Fe 0.32397 0.07626 0.784 0.0
Fe45 Fe 0.24576 0.07975 0.72998 0.0
O46 O 0.27067 0.07763 0.78371 0.0
Fe47 Fe 0.24411 0.07648 0.83735 0.0
O48 O 0.29727 0.12576 0.86177 0.0
O49 O 0.34352 0.09982 0.84228 0.0
O50 O 0.35396 0.13435 0.76235 0.0
C51 C 0.34179 0.14726 0.72665 0.0
C52 C 0.26817 1.00601 0.84088 0.0
O53 O 0.30286 0.12204 0.70675 0.0
C54 C 0.16552 0.01804 0.78334 0.0
O55 O 0.31974 0.05258 0.72585 0.0
O56 O 0.24862 0.02999 0.70509 0.0
O57 O 0.25799 0.03373 0.86115 0.0
O58 O 0.29361 0.01795 0.80547 0.0
C59 C 0.22641 0.1389 0.78397 0.0
O60 O 0.18529 0.03873 0.74635 0.0
O61 O 0.18778 0.0274 0.82077 0.0
C62 C 0.28563 0.02838 0.69996 0.0
O63 O 0.23908 0.12937 0.74648 0.0
O64 O 0.22543 0.11812 0.82088 0.0
C65 C 0.33498 0.12558 0.8675 0.0
Fe66 Fe 0.05785 0.8897 0.23194 0.0
Fe67 Fe 0.06201 0.81209 0.28663 0.0
O68 O 0.0604 0.86533 0.28586 0.0
Fe69 Fe 0.06139 0.89214 0.33931 0.0
O70 O 1.01973 0.9108 0.32274 0.0
O71 O 1.00828 0.89623 0.24861 0.0
O72 O 1.01545 0.83202 0.2095 0.0
C73 C 0.99037 0.79339 0.2302 0.0
C74 C 0.11943 0.97081 0.28493 0.0
O75 O 1.00404 0.78179 0.26566 0.0
C76 C 0.1319 0.86822 0.343 0.0
O77 O 0.10737 0.88671 0.20655 0.0
O78 O 0.08526 0.81579 0.22829 0.0
O79 O 0.11021 0.94852 0.32239 0.0
O80 O 0.09896 0.95073 0.24787 0.0
C81 C 1.01301 0.80142 0.37037 0.0
O82 O 0.12022 0.8428 0.30761 0.0
O83 O 0.10417 0.87842 0.36316 0.0
C84 C 0.10896 0.84956 0.20171 0.0
O85 O 0.03885 0.79291 0.34522 0.0
O86 O 1.01233 0.83888 0.36404 0.0
C87 C 0.99895 0.90956 0.28577 0.0
Fe88 Fe 0.24283 0.25402 0.23035 0.0
Fe89 Fe 0.32199 0.336 0.28221 0.0
O90 O 0.2685 0.28172 0.28343 0.0
Fe91 Fe 0.24305 0.25768 0.33774 0.0
O92 O 0.22491 0.197 0.32277 0.0
O93 O 0.23541 0.19768 0.24779 0.0
O94 O 0.29974 0.26787 0.20717 0.0
C95 C 0.33842 0.28082 0.2274 0.0
C96 C 0.16334 0.23592 0.28445 0.0
O97 O 0.35125 0.30656 0.26264 0.0
C98 C 0.26753 0.3531 0.3375 0.0
O99 O 0.24605 0.30665 0.20478 0.0
O100 O 0.31811 0.35367 0.22315 0.0
O101 O 0.18602 0.24882 0.32164 0.0
O102 O 0.18274 0.23549 0.24708 0.0
C103 C 0.33409 0.30143 0.36733 0.0
O104 O 0.29207 0.36456 0.30158 0.0
O105 O 0.25624 0.31538 0.35929 0.0
C106 C 0.28341 0.34473 0.19861 0.0
O107 O 0.3412 0.33458 0.34113 0.0
O108 O 0.29714 0.26279 0.36204 0.0
C109 C 0.22396 0.17626 0.2858 0.0
Fe110 Fe 0.8781 0.07169 0.33965 0.0
Fe111 Fe 0.80187 0.07846 0.28596 0.0
O112 O 0.8541 0.07525 0.28601 0.0
Fe113 Fe 0.87991 0.07569 0.23212 0.0
O114 O 0.89559 0.0315 0.24729 0.0
O115 O 0.88532 0.02263 0.32227 0.0
O116 O 0.82015 0.02867 0.36087 0.0
C117 C 0.78158 1.00466 0.33968 0.0
C118 C 0.95902 0.13257 0.28705 0.0
O119 O 0.77032 0.01982 0.30501 0.0
C120 C 0.85876 0.14891 0.23107 0.0
O121 O 0.87531 0.12093 0.36613 0.0
O122 O 0.80475 0.09953 0.34513 0.0
O123 O 0.93749 0.12231 0.2491 0.0
O124 O 0.93866 0.11326 0.32431 0.0
C125 C 0.78938 0.03141 0.2009 0.0
O126 O 0.83422 0.13704 0.26703 0.0
O127 O 0.86933 0.12166 0.21 0.0
C128 C 0.83841 0.12255 0.37184 0.0
O129 O 0.78328 0.05853 0.22652 0.0
O130 O 0.82525 0.02801 0.20722 0.0
C131 C 0.89609 1.01178 0.28441 0.0
Fe132 Fe 0.72934 0.67003 0.12008 0.0
Fe133 Fe 0.72691 0.58835 0.17108 0.0
O134 O 0.72783 0.61546 0.11808 0.0
Fe135 Fe 0.72727 0.59093 0.06355 0.0
O136 O 0.77523 0.64562 0.03869 0.0
O137 O 0.7482 0.68934 0.06144 0.0
O138 O 0.78834 0.69683 0.13852 0.0
C139 C 0.8007 0.68208 0.17294 0.0
C140 C 0.65607 0.61514 0.06649 0.0
O141 O 0.7726 0.64448 0.19404 0.0
C142 C 0.66669 0.50997 0.11585 0.0
O143 O 0.71048 0.66758 0.17953 0.0
O144 O 0.67874 0.59458 0.19598 0.0
O145 O 0.68166 0.60323 0.04384 0.0
O146 O 0.6705 0.64144 0.10144 0.0
C147 C 0.78744 0.5702 0.11624 0.0
O148 O 0.68292 0.52932 0.15419 0.0
O149 O 0.68042 0.53258 0.07864 0.0
C150 C 0.68212 0.63367 0.20333 0.0
O151 O 0.77346 0.57731 0.15422 0.0
O152 O 0.77128 0.57481 0.07826 0.0
C153 C 0.77281 0.68218 1.03377 0.0
Fe154 Fe 0.46514 0.14692 0.11519 0.0
Fe155 Fe 0.54351 0.22712 0.16924 0.0
O156 O 0.51975 0.20018 0.11545 0.0
Fe157 Fe 0.54815 0.22411 0.06222 0.0
O158 O 0.4962 0.22069 0.03489 0.0
O159 O 0.44807 0.14941 0.05553 0.0
O160 O 0.43698 0.17816 0.13247 0.0
C161 C 0.44979 0.20479 0.16696 0.0
C162 C 0.52091 0.12821 0.06327 0.0
O163 O 0.48604 0.21406 0.19009 0.0
C164 C 0.62514 0.24469 0.11925 0.0
O165 O 0.46644 0.12936 0.1751 0.0
O166 O 0.53852 0.17351 0.19489 0.0
O167 O 0.53391 0.16619 0.04139 0.0
O168 O 0.49408 0.11648 0.09763 0.0
C169 C 0.56537 0.30526 0.11331 0.0
O170 O 0.60405 0.24539 0.15521 0.0
O171 O 0.60405 0.23145 0.08119 0.0
C172 C 0.49998 0.13656 0.20078 0.0
O173 O 0.55204 0.28366 0.15114 0.0
O174 O 0.56686 0.28492 0.07695 0.0
C175 C 0.45785 0.18344 1.02944 0.0
Fe176 Fe 0.91121 0.40879 0.16957 0.0
Fe177 Fe 0.90871 0.4089 0.06207 0.0
O178 O 0.93528 0.40818 0.11512 0.0
Fe179 Fe 0.98859 0.40697 0.1138 0.0
O180 O 0.95825 0.34837 0.13417 0.0
O181 O 0.92371 0.36424 0.19147 0.0
O182 O 0.85319 0.36124 0.15484 0.0
C183 C 0.83 0.34941 0.11786 0.0
C184 C 1.00243 0.45471 0.19848 0.0
O185 O 0.84895 0.36689 0.07958 0.0
C186 C 1.0036 0.47879 0.05906 0.0
O187 O 0.89444 0.45186 0.15411 0.0
O188 O 0.90056 0.4576 0.07861 0.0
O189 O 1.00864 0.42804 0.17241 0.0
O190 O 0.96617 0.45754 0.19283 0.0
C191 C 0.94964 0.35903 1.03084 0.0
O192 O 0.96536 0.45213 0.03848 0.0
O193 O 1.01766 0.46563 0.0934 0.0
C194 C 0.89171 0.46987 0.1167 0.0
O195 O 0.9122 0.35949 0.037 0.0
O196 O 0.98437 0.38509 0.05509 0.0
C197 C 0.93296 0.33638 0.16979 0.0
Fe198 Fe 0.73022 0.22625 0.67214 0.0
Fe199 Fe 0.72939 0.14597 0.6182 0.0
O200 O 0.72932 0.19999 0.61836 0.0
Fe201 Fe 0.72834 0.22574 0.5648 0.0
O202 O 0.76909 0.28623 0.58199 0.0
O203 O 0.78004 0.28263 0.65629 0.0
O204 O 0.77172 0.21093 0.69606 0.0
C205 C 0.7993 0.20062 0.6758 0.0
C206 C 0.669 0.24504 0.6183 0.0
O207 O 0.78739 0.17522 0.64032 0.0
C208 C 0.6594 0.13068 0.56058 0.0
O209 O 0.68023 0.17314 0.69604 0.0
O210 O 0.70503 0.12597 0.67623 0.0
O211 O 0.67854 0.23205 0.58101 0.0
O212 O 0.68961 0.24608 0.65533 0.0
C213 C 0.7789 0.18518 0.53484 0.0
O214 O 0.67144 0.11719 0.59602 0.0
O215 O 0.68661 0.169 0.54064 0.0
C216 C 0.67956 0.13489 0.70147 0.0
O217 O 0.75367 0.15072 0.56015 0.0
O218 O 0.77822 0.22275 0.54045 0.0
C219 C 0.78948 0.30562 0.61922 0.0
Fe220 Fe 0.9098 0.59193 0.67248 0.0
Fe221 Fe 0.99164 0.67068 0.619 0.0
O222 O 0.93772 0.61654 0.61894 0.0
Fe223 Fe 0.91356 0.58896 0.56519 0.0
O224 O 0.85307 0.56951 0.58025 0.0
O225 O 0.85372 0.58455 0.65406 0.0
O226 O 0.9235 0.64907 0.69481 0.0
C227 C 0.93686 0.68776 0.67448 0.0
C228 C 0.89291 0.51101 0.62078 0.0
O229 O 0.96232 0.69998 0.63915 0.0
C230 C 1.00907 0.61657 0.56308 0.0
O231 O 0.96224 0.59592 0.69923 0.0
O232 O 1.01049 0.66715 0.67783 0.0
O233 O 0.90678 0.53297 0.58317 0.0
O234 O 0.89119 0.5312 0.65714 0.0
C235 C 0.95398 0.67979 0.53395 0.0
O236 O 0.02111 0.64148 0.59881 0.0
O237 O 0.97064 0.60362 0.54271 0.0
C238 C 1.00043 0.6335 0.70466 0.0
O239 O 0.98794 0.6896 0.5602 0.0
O240 O 0.91674 0.64132 0.53916 0.0
C241 C 0.8324 0.57101 0.61615 0.0
Fe242 Fe 0.46914 0.4092 0.61694 0.0
Fe243 Fe 0.5471 0.40752 0.56251 0.0
O244 O 0.52272 0.40873 0.61651 0.0
Fe245 Fe 0.54897 0.4094 0.67007 0.0
O246 O 0.49244 0.36324 0.69147 0.0
O247 O 0.44053 0.34987 0.63565 0.0
O248 O 0.45056 0.39069 0.55765 0.0
C249 C 0.45635 0.36391 0.5316 0.0
C250 C 0.50306 0.45396 0.70226 0.0
O251 O 0.49194 0.36015 0.53786 0.0
C252 C 0.62787 0.46853 0.61544 0.0
O253 O 0.5001 0.4685 0.59817 0.0
O254 O 0.53688 0.45403 0.54151 0.0
O255 O 0.54202 0.45701 0.69555 0.0
O256 O 0.47014 0.42775 0.67634 0.0
C257 C 0.56689 0.34763 0.61616 0.0
O258 O 0.60587 0.45324 0.57803 0.0
O259 O 0.6079 0.45411 0.6539 0.0
C260 C 0.52672 0.48138 0.56324 0.0
O261 O 0.561 0.36236 0.57802 0.0
O262 O 0.56138 0.36329 0.65389 0.0
C263 C 0.45475 0.33641 0.66982 0.0
Fe264 Fe 0.39825 0.92648 0.50593 0.0
Fe265 Fe 0.39348 0.92535 0.3984 0.0
O266 O 0.39543 0.95133 0.45254 0.0
Fe267 Fe 0.39454 1.00482 0.45326 0.0
O268 O 0.4538 0.03437 0.47079 0.0
O269 O 0.44311 0.984 0.52684 0.0
O270 O 0.44563 0.91716 0.48772 0.0
C271 C 0.45654 0.90715 0.44948 0.0
C272 C 0.35041 0.96919 0.53865 0.0
O273 O 0.43745 0.90902 0.41241 0.0
C274 C 0.32143 0.94794 0.40075 0.0
O275 O 0.35506 0.86616 0.49084 0.0
O276 O 0.34672 0.86776 0.41567 0.0
O277 O 0.37558 1.00297 0.51288 0.0
O278 O 0.3503 0.93134 0.53295 0.0
C279 C 0.43822 0.01602 0.36666 0.0
O280 O 0.34769 0.93701 0.37824 0.0
O281 O 0.3354 0.97399 0.43575 0.0
C282 C 0.3359 0.84592 0.45347 0.0
O283 O 0.44096 0.97963 0.3724 0.0
O284 O 0.41285 0.02307 0.3937 0.0
C285 C 0.46867 0.02184 0.50485 0.0
Fe286 Fe 0.21248 0.56061 0.50403 0.0
Fe287 Fe 0.21278 0.56125 0.39652 0.0
O288 O 0.18738 0.53525 0.45007 0.0
Fe289 Fe 0.13401 0.48092 0.44949 0.0
O290 O 0.10473 0.51088 0.46776 0.0
O291 O 0.15532 0.54908 0.52461 0.0
O292 O 0.22418 0.61899 0.48818 0.0
C293 C 0.23197 0.64082 0.45052 0.0
C294 C 0.16708 0.46994 0.53543 0.0
O295 O 0.22776 0.62067 0.41239 0.0
C296 C 0.1921 0.46695 0.39648 0.0
O297 O 0.27192 0.57594 0.48875 0.0
O298 O 0.27078 0.5728 0.41288 0.0
O299 O 0.13443 0.46284 0.50887 0.0
O300 O 0.20596 0.50613 0.52922 0.0
C301 C 0.12263 0.51512 0.36441 0.0
O302 O 0.202 0.50451 0.37496 0.0
O303 O 0.16542 0.45301 0.43126 0.0
C304 C 0.2922 0.5801 0.4507 0.0
O305 O 0.15813 0.55442 0.37149 0.0
O306 O 0.11654 0.48193 0.38986 0.0
C307 C 0.11795 0.53797 0.50223 0.0
Fe308 Fe 0.65541 0.74309 0.44979 0.0
Fe309 Fe 0.57551 0.74161 0.39651 0.0
O310 O 0.60119 0.74198 0.45031 0.0
Fe311 Fe 0.57556 0.74137 0.50426 0.0
O312 O 0.62981 0.78901 0.53037 0.0
O313 O 0.67363 0.7618 0.50859 0.0
O314 O 0.68297 0.80229 0.43135 0.0
C315 C 0.6691 0.81502 0.39651 0.0
C316 C 0.60007 0.67008 0.50373 0.0
O317 O 0.63189 0.78735 0.37485 0.0
C318 C 0.49619 0.68095 0.44994 0.0
O319 O 0.65449 0.72443 0.3907 0.0
O320 O 0.58239 0.6937 0.37157 0.0
O321 O 0.58688 0.69538 0.52497 0.0
O322 O 0.62604 0.68399 0.46847 0.0
C323 C 0.55638 0.80218 0.45061 0.0
O324 O 0.51657 0.69742 0.41215 0.0
O325 O 0.51744 0.69478 0.48787 0.0
C326 C 0.62161 0.69709 0.36536 0.0
O327 O 0.56386 0.78815 0.41279 0.0
O328 O 0.56038 0.78583 0.48873 0.0
C329 C 0.66622 0.78647 0.5359 0.0
Fe330 Fe 0.39439 0.55738 0.89813 0.0
Fe331 Fe 0.39508 0.47939 0.95465 0.0
O332 O 0.39505 0.53328 0.9528 0.0
Fe333 Fe 0.39568 0.56042 1.00586 0.0
O334 O 0.35261 0.57699 0.98914 0.0
O335 O 0.34782 0.56921 0.91375 0.0
O336 O 0.34855 0.49993 0.87798 0.0
C337 C 0.32263 0.46224 0.90008 0.0
C338 C 0.45638 0.63821 0.9501 0.0
O339 O 0.33642 0.45034 0.93544 0.0
C340 C 0.4668 0.53666 1.0085 0.0
O341 O 0.44186 0.55006 0.87286 0.0
O342 O 0.41473 0.4793 0.89606 0.0
O343 O 0.4433 0.61742 0.98836 0.0
O344 O 0.43872 0.61736 0.91256 0.0
C345 C 0.34807 0.46967 0.03824 0.0
O346 O 0.45398 0.50993 0.97386 0.0
O347 O 0.44009 0.54838 1.02879 0.0
C348 C 0.43919 0.5109 0.86802 0.0
O349 O 0.37471 0.46209 1.01377 0.0
O350 O 0.34726 0.50702 1.0319 0.0
C351 C 0.33544 0.57944 0.95105 0.0
Fe352 Fe 0.57618 0.92139 0.89653 0.0
Fe353 Fe 0.65569 1.00298 0.94869 0.0
O354 O 0.60269 0.94811 0.94976 0.0
Fe355 Fe 0.57875 0.92258 1.00418 0.0
O356 O 0.56404 0.8632 0.98872 0.0
O357 O 0.56649 0.86395 0.91294 0.0
O358 O 0.63278 0.93392 0.8737 0.0
C359 C 0.67131 0.94633 0.89416 0.0
C360 C 0.49742 0.90151 0.95214 0.0
O361 O 0.68539 0.97391 0.92829 0.0
C362 C 0.59891 0.01657 1.00468 0.0
O363 O 0.58069 0.97455 0.87081 0.0
O364 O 0.65237 0.02128 0.88975 0.0
O365 O 0.52 0.91018 0.98939 0.0
O366 O 0.51682 0.905 0.91367 0.0
C367 C 0.66971 0.97 1.0341 0.0
O368 O 0.62443 0.03029 0.96909 0.0
O369 O 0.5894 0.97907 1.02588 0.0
C370 C 0.61835 1.01207 0.86415 0.0
O371 O 0.67569 1.00244 1.00749 0.0
O372 O 0.63416 0.93045 1.02807 0.0
C373 C 0.55977 0.84273 0.9508 0.0
Fe374 Fe 0.21472 0.74587 0.89907 0.0
Fe375 Fe 0.2117 0.73848 1.00644 0.0
O376 O 0.18735 0.74229 0.95295 0.0
Fe377 Fe 0.13354 0.7427 0.95332 0.0
O378 O 0.11472 0.72174 0.89414 0.0
O379 O 0.16192 0.69784 0.87232 0.0
O380 O 0.23283 0.70313 0.91333 0.0
C381 C 0.23232 0.68172 0.94969 0.0
C382 C 0.18949 0.816 0.89978 0.0
O383 O 0.21956 0.69019 0.9877 0.0
C384 C 0.17023 0.78749 0.03921 0.0
O385 O 0.27113 0.79378 0.91735 0.0
O386 O 0.2723 0.78074 0.9916 0.0
O387 O 0.16329 0.80165 0.93452 0.0
O388 O 0.20151 0.79027 0.87801 0.0
C389 C 0.11604 0.66961 1.00713 0.0
O390 O 0.20768 0.78681 1.03355 0.0
O391 O 0.13655 0.76377 1.0126 0.0
C392 C 0.29274 0.80208 0.95512 0.0
O393 O 0.15441 0.69455 1.0281 0.0
O394 O 0.10409 0.68378 0.97224 0.0
C395 C 0.12383 0.69741 0.86743 0.0
C396 C 0.18889 0.17911 0.74281 0.0
C397 C 0.20698 0.17138 0.78369 0.0
C398 C 0.16404 0.20346 0.74275 0.0
C399 C 0.15628 0.22168 0.78353 0.0
H400 H 0.19198 0.16432 0.71071 0.0
H401 H 0.14926 0.20637 0.71056 0.0
S402 S 0.20241 0.21713 0.89893 0.0
N403 N 0.21942 0.18826 0.86537 0.0
N404 N 0.17356 0.23423 0.86539 0.0
C405 C 0.17684 0.21676 0.82419 0.0
C406 C 0.20183 0.19163 0.82425 0.0
C407 C 0.96226 0.10178 0.74254 0.0
C408 C 0.96983 0.12708 0.78369 0.0
C409 C 0.93756 0.05263 0.74201 0.0
C410 C 0.91904 0.02635 0.78258 0.0
H411 H 0.97739 0.11996 0.71064 0.0
H412 H 0.93479 0.03522 0.70969 0.0
S413 S 0.92262 0.0757 0.89834 0.0
N414 N 0.95207 0.12192 0.86528 0.0
N415 N 0.90569 0.03011 0.86438 0.0
C416 C 0.92372 0.05133 0.82346 0.0
C417 C 0.94905 0.10138 0.824 0.0
C418 C 0.03841 0.95423 0.74364 0.0
C419 C 1.01294 0.9344 0.78433 0.0
C420 C 0.08743 0.97917 0.74327 0.0
C421 C 0.11366 0.98542 0.78352 0.0
H422 H 0.02042 0.95233 0.71192 0.0
H423 H 0.10478 0.99512 0.71126 0.0
S424 S 0.06425 0.93479 0.89803 0.0
N425 N 1.01809 0.91884 0.86517 0.0
N426 N 0.10982 0.96513 0.86452 0.0
C427 C 0.08867 0.96329 0.82393 0.0
C428 C 0.03861 0.93806 0.82432 0.0
C429 C 0.95808 0.94699 0.32594 0.0
C430 C 0.9663 0.92896 0.28529 0.0
C431 C 0.93318 0.97125 0.32562 0.0
C432 C 0.91544 0.97916 0.28458 0.0
H433 H 0.97239 0.94384 0.35833 0.0
H434 H 0.92975 0.98578 0.35773 0.0
S435 S 0.92173 0.93431 0.16934 0.0
N436 N 0.95018 0.91701 0.20322 0.0
N437 N 0.90415 0.96286 0.20269 0.0
C438 C 0.92116 0.95921 0.24404 0.0
C439 C 0.94625 0.93412 0.24438 0.0
C440 C 0.16141 0.0492 0.24453 0.0
C441 C 0.15189 0.02295 0.28539 0.0
C442 C 0.18674 0.09842 0.24478 0.0
C443 C 0.20361 0.12411 0.28594 0.0
H444 H 0.14795 0.0317 0.212 0.0
H445 H 0.19135 0.11642 0.21242 0.0
S446 S 0.19287 0.07298 0.40206 0.0
N447 N 0.1652 0.02724 0.36807 0.0
N448 N 0.21208 0.11907 0.36834 0.0
C449 C 0.19631 0.09841 0.32678 0.0
C450 C 0.17078 0.04823 0.32655 0.0
C451 C 0.08507 0.19812 0.24483 0.0
C452 C 0.11144 0.21599 0.2854 0.0
C453 C 0.03607 0.17333 0.24551 0.0
C454 C 1.0108 0.16476 0.28684 0.0
H455 H 0.10234 0.20186 0.21222 0.0
H456 H 1.01796 0.15908 0.2134 0.0
S457 S 0.06233 0.20892 0.40205 0.0
N458 N 0.10781 0.22706 0.36776 0.0
N459 N 1.01611 0.1802 0.36893 0.0
C460 C 0.03654 0.18449 0.32734 0.0
C461 C 0.08656 0.21012 0.32664 0.0
C462 C 0.85818 0.51402 0.07571 0.0
C463 C 0.87225 0.50231 0.11706 0.0
C464 C 0.83292 0.53794 0.07558 0.0
C465 C 0.8205 0.55143 0.11678 0.0
H466 H 0.86487 0.50286 0.04303 0.0
H467 H 0.82153 0.54423 0.04282 0.0
S468 S 0.85358 0.53415 0.23442 0.0
N469 N 0.87538 0.5101 0.20027 0.0
N470 N 0.82816 0.55451 0.20019 0.0
C471 C 0.83677 0.54233 0.15827 0.0
C472 C 0.86247 0.518 0.15837 0.0
C473 C 0.59827 0.38243 0.15453 0.0
C474 C 0.58472 0.35713 0.11295 0.0
C475 C 0.62254 0.43154 0.15518 0.0
C476 C 0.63432 0.45801 0.11431 0.0
H477 H 0.59193 0.36426 0.18703 0.0
H478 H 0.63363 0.44879 0.18816 0.0
S479 S 0.6011 0.40893 0.99636 0.0
N480 N 0.58091 0.36259 1.02991 0.0
N481 N 0.62593 0.45446 1.03099 0.0
C482 C 0.61839 0.43312 0.07258 0.0
C483 C 0.59388 0.38299 0.07193 0.0
C484 C 0.70287 0.27339 0.07961 0.0
C485 C 0.6772 0.26512 0.12068 0.0
C486 C 0.752 0.29886 0.07921 0.0
C487 C 0.77808 0.31719 0.11988 0.0
H488 H 0.68493 0.26165 0.04702 0.0
H489 H 0.7696 0.30531 0.04641 0.0
S490 S 0.7283 0.30289 0.23732 0.0
N491 N 0.68235 0.27522 0.20372 0.0
N492 N 0.77388 0.32314 0.20292 0.0
C493 C 0.75291 0.30741 0.16147 0.0
C494 C 0.70289 0.28147 0.16188 0.0
C495 C 0.63024 0.28455 0.65817 0.0
C496 C 0.63644 0.26442 0.61798 0.0
C497 C 0.60561 0.30901 0.65769 0.0
C498 C 0.586 0.31487 0.61693 0.0
H499 H 0.64605 0.28302 0.69023 0.0
H500 H 0.60377 0.32519 0.68936 0.0
S501 S 0.58597 0.26332 0.50346 0.0
N502 N 0.6161 0.24785 0.53707 0.0
N503 N 0.57028 0.29388 0.53616 0.0
C504 C 0.58941 0.29252 0.57705 0.0
C505 C 0.61439 0.26737 0.57757 0.0
C506 C 0.83137 0.38416 0.57927 0.0
C507 C 0.82186 0.35777 0.62006 0.0
C508 C 0.85637 0.43336 0.57965 0.0
C509 C 0.87286 0.45892 0.62088 0.0
H510 H 0.81814 0.36677 0.54665 0.0
H511 H 0.86095 0.45145 0.54734 0.0
S512 S 0.86253 0.40748 0.73681 0.0
N513 N 0.83516 0.36179 0.70269 0.0
N514 N 0.8813 0.4537 0.70328 0.0
C515 C 0.86565 0.43312 0.66167 0.0
C516 C 0.84053 0.38292 0.66128 0.0
C517 C 0.70548 0.51691 0.6554 0.0
C518 C 0.67978 0.50087 0.61418 0.0
C519 C 0.75458 0.54162 0.65561 0.0
C520 C 0.78056 0.55146 0.61461 0.0
H521 H 0.68761 0.50895 0.68816 0.0
H522 H 0.77222 0.55136 0.6885 0.0
S523 S 0.73078 0.52173 0.49674 0.0
N524 N 0.68483 0.50002 0.53074 0.0
N525 N 0.77638 0.54652 0.53115 0.0
C526 C 0.75536 0.53789 0.57296 0.0
C527 C 0.70536 0.51269 0.57274 0.0
C528 C 0.52093 0.8448 0.49078 0.0
C529 C 0.53772 0.83539 0.44999 0.0
C530 C 0.49713 0.8701 0.49044 0.0
C531 C 0.48858 0.8872 0.44926 0.0
H532 H 0.52452 0.83096 0.52331 0.0
H533 H 0.48349 0.87441 0.52274 0.0
S534 S 0.53114 0.87853 0.33362 0.0
N535 N 0.54848 0.85017 0.36762 0.0
N536 N 0.50347 0.89704 0.36706 0.0
C537 C 0.50753 0.88049 0.40854 0.0
C538 C 0.53209 0.8549 0.40889 0.0
C539 C 0.29763 0.76723 0.49307 0.0
C540 C 0.30315 0.79391 0.45326 0.0
C541 C 0.27258 0.71806 0.49232 0.0
C542 C 0.25186 0.69286 0.45168 0.0
H543 H 0.31432 0.78434 0.52492 0.0
H544 H 0.27129 0.69973 0.52363 0.0
S545 S 0.2499 0.74536 0.33934 0.0
N546 N 0.28104 0.79071 0.37292 0.0
N547 N 0.23466 0.69882 0.37156 0.0
C548 C 0.25482 0.71899 0.41223 0.0
C549 C 0.28015 0.76917 0.41301 0.0
C550 C 0.36984 0.61443 0.49134 0.0
C551 C 0.34388 0.59879 0.45026 0.0
C552 C 0.41888 0.63854 0.4912 0.0
C553 C 0.44448 0.6483 0.44997 0.0
H554 H 0.35229 0.60977 0.52394 0.0
H555 H 0.43677 0.6514 0.52367 0.0
S556 S 0.39378 0.60964 0.33339 0.0
N557 N 0.3481 0.59103 0.36745 0.0
N558 N 0.43969 0.63588 0.36727 0.0
C559 C 0.419 0.63029 0.40894 0.0
C560 C 0.36903 0.60574 0.40906 0.0
C561 C 0.26658 0.63816 0.99044 0.0
C562 C 0.25232 0.64961 0.94905 0.0
C563 C 0.29142 0.61383 0.99081 0.0
C564 C 0.30311 0.59925 0.94983 0.0
H565 H 0.26026 0.64979 1.02304 0.0
H566 H 0.30286 0.60781 1.02368 0.0
S567 S 0.26882 0.6149 0.83222 0.0
N568 N 0.24831 0.64052 0.86601 0.0
N569 N 0.29425 0.5946 0.86658 0.0
C570 C 0.28671 0.60809 0.90828 0.0
C571 C 0.26165 0.63323 0.90792 0.0
C572 C 0.52095 0.76526 0.90955 0.0
C573 C 0.54079 0.79088 0.95019 0.0
C574 C 0.49603 0.71613 0.90932 0.0
C575 C 0.48976 0.68998 0.94969 0.0
H576 H 0.52268 0.78321 0.87782 0.0
H577 H 0.47979 0.69864 0.87747 0.0
S578 S 0.54159 0.73972 0.06369 0.0
N579 N 0.55715 0.7859 1.03082 0.0
N580 N 0.51092 0.694 1.03041 0.0
C581 C 0.51228 0.71512 0.98989 0.0
C582 C 0.53752 0.76526 0.99014 0.0
C583 C 0.36994 0.84377 0.91368 0.0
C584 C 0.34475 0.83365 0.95523 0.0
C585 C 0.41898 0.86739 0.91294 0.0
C586 C 0.44556 0.88246 0.95369 0.0
H587 H 0.35167 0.83158 0.8813 0.0
H588 H 0.43605 0.87238 0.88 0.0
S589 S 0.39703 0.87078 0.07139 0.0
N590 N 0.3506 0.84481 0.03805 0.0
N591 N 0.44234 0.88948 0.03676 0.0
C592 C 0.42087 0.87507 0.99534 0.0
C593 C 0.37079 0.85066 0.99609 0.0
C594 C 0.16425 0.39061 0.63541 0.0
C595 C 0.12345 0.38118 0.65972 0.0
C596 C 0.17988 0.42076 0.59634 0.0
C597 C 0.15484 0.44196 0.57944 0.0
H598 H 0.18444 0.37496 0.64685 0.0
H599 H 0.21103 0.42651 0.57862 0.0
S600 S 0.04573 0.42859 0.62956 0.0
N601 N 0.05861 0.39615 0.66271 0.0
N602 N 0.08742 0.45126 0.59066 0.0
C603 C 0.11421 0.43266 0.60347 0.0
C604 C 0.09872 0.40281 0.64305 0.0
C605 C 0.71232 0.84732 0.59894 0.0
C606 C 0.69606 0.80292 0.57874 0.0
C607 C 0.74425 0.86291 0.63658 0.0
C608 C 0.76062 0.83446 0.65587 0.0
H609 H 0.70111 0.87047 0.58504 0.0
H610 H 0.75549 0.89703 0.65111 0.0
S611 S 0.72857 0.71527 0.61598 0.0
N612 N 0.699 0.73099 0.58198 0.0
N613 N 0.75796 0.75984 0.65081 0.0
C614 C 0.74431 0.79014 0.63583 0.0
C615 C 0.71242 0.77456 0.59797 0.0
C616 C 0.31262 0.97652 0.66236 0.0
C617 C 0.29368 1.00634 0.65818 0.0
C618 C 0.32777 0.96171 0.62349 0.0
C619 C 0.32637 0.97751 0.57874 0.0
H620 H 0.31691 0.96549 0.69619 0.0
H621 H 0.34318 0.93992 0.6289 0.0
S622 S 0.28063 0.05649 0.54894 0.0
N623 N 0.27361 0.05007 0.60518 0.0
N624 N 0.30395 0.02469 0.53314 0.0
C625 C 0.30692 1.00684 0.57423 0.0
C626 C 0.29018 0.0206 0.61351 0.0
C627 C 0.44426 0.18777 0.94379 0.0
C628 C 0.42638 0.17596 0.98886 0.0
C629 C 0.41451 0.17319 0.90482 0.0
C630 C 0.36545 0.14766 0.90905 0.0
H631 H 0.48158 0.20606 0.93841 0.0
H632 H 0.43013 0.18096 0.87093 0.0
S633 S 0.30071 0.10976 1.01922 0.0
N634 N 0.35599 0.13758 0.03499 0.0
N635 N 0.30074 0.11275 0.96254 0.0
C636 C 0.34721 0.13767 0.95396 0.0
C637 C 0.37741 0.15111 0.99349 0.0
C638 C 0.96474 0.32964 0.9069 0.0
C639 C 0.98865 0.3045 0.91192 0.0
C640 C 0.94853 0.34376 0.9453 0.0
C641 C 0.95679 0.33466 0.99064 0.0
H642 H 0.95986 0.33989 0.87291 0.0
H643 H 0.93209 0.36455 0.93946 0.0
S644 S 1.0169 0.26952 1.02313 0.0
N645 N 1.01788 0.26966 0.96634 0.0
N646 N 0.98956 0.29777 0.03805 0.0
C647 C 0.97958 0.30857 0.99608 0.0
C648 C 0.99488 0.29307 0.95698 0.0
C649 C 0.83273 0.72522 0.96926 0.0
C650 C 0.79013 0.71289 0.99152 0.0
C651 C 0.84892 0.75664 0.93119 0.0
C652 C 0.8228 0.77636 0.91356 0.0
H653 H 0.85391 0.71102 0.98162 0.0
H654 H 0.88141 0.76458 0.91484 0.0
S655 S 0.70872 0.75489 0.95846 0.0
N656 N 0.72224 0.723 0.99167 0.0
N657 N 0.75229 0.78095 0.92189 0.0
C658 C 0.78034 0.76407 0.93562 0.0
C659 C 0.76416 0.73274 0.97395 0.0
C660 C 0.95272 0.69236 0.44772 0.0
C661 C 0.96176 0.71073 0.49273 0.0
C662 C 0.96762 0.72177 0.40844 0.0
C663 C 0.99089 0.77096 0.41211 0.0
H664 H 0.9363 0.655 0.44276 0.0
H665 H 0.96185 0.70582 0.37479 0.0
S666 S 0.02128 0.83682 0.52188 0.0
N667 N 0.99505 0.78161 0.53823 0.0
N668 N 0.02081 0.83623 0.46509 0.0
C669 C 0.99823 0.7896 0.45688 0.0
C670 C 0.98434 0.75976 0.49683 0.0
C671 C 0.37429 0.35449 0.43401 0.0
C672 C 0.36339 0.31313 0.41033 0.0
C673 C 0.4038 0.36962 0.47264 0.0
C674 C 0.42533 0.34499 0.48959 0.0
H675 H 0.35969 0.37567 0.42255 0.0
H676 H 0.41036 0.40176 0.48897 0.0
S677 S 0.40922 0.2344 0.44007 0.0
N678 N 0.37653 0.24724 0.40703 0.0
N679 N 0.43319 0.27637 0.47892 0.0
C680 C 0.41508 0.30351 0.46618 0.0
C681 C 0.38386 0.28741 0.427 0.0
C682 C 0.79108 0.18457 0.44857 0.0
C683 C 0.8019 0.17728 0.49364 0.0
C684 C 0.80462 0.16852 0.40951 0.0
C685 C 0.83088 0.14562 0.41335 0.0
H686 H 0.76962 0.2004 0.4435 0.0
H687 H 0.79336 0.17308 0.3759 0.0
S688 S 0.8703 0.11986 0.52338 0.0
N689 N 0.84138 0.14619 0.53943 0.0
N690 N 0.86846 0.11828 0.46662 0.0
C691 C 0.84377 0.14015 0.45813 0.0
C692 C 0.82884 0.15526 0.49793 0.0
C693 C 0.74818 0.0431 0.1339 0.0
C694 C 0.75998 1.01336 0.15782 0.0
C695 C 0.71965 0.02842 0.09446 0.0
C696 C 0.69993 0.9826 0.07689 0.0
H697 H 0.76152 0.07862 0.14562 0.0
H698 H 0.71241 0.05347 0.07793 0.0
S699 S 0.71835 0.88975 0.1271 0.0
N700 N 0.74925 0.93522 0.16081 0.0
N701 N 0.69429 0.90708 0.08765 0.0
C702 C 0.71083 0.95201 0.10073 0.0
C703 C 0.74114 0.96748 0.14065 0.0
C704 C 0.1361 0.8334 0.07652 0.0
C705 C 0.16211 0.81025 0.08067 0.0
C706 C 0.12211 0.84925 0.11544 0.0
C707 C 0.13209 0.84142 0.16067 0.0
H708 H 0.12545 0.83836 0.04277 0.0
H709 H 0.10098 0.8654 0.11008 0.0
S710 S 0.19957 0.78318 0.1912 0.0
N711 N 0.19856 0.78211 0.13441 0.0
N712 N 0.17064 0.8096 0.2069 0.0
C713 C 0.15877 0.81912 0.16526 0.0
C714 C 0.17419 0.80424 0.12563 0.0
C715 C 0.32221 0.45313 0.12225 0.0
C716 C 0.32342 0.43669 0.07779 0.0
C717 C 0.30713 0.42289 0.16097 0.0
C718 C 0.29091 0.37458 0.15682 0.0
H719 H 0.33564 0.49006 0.12766 0.0
H720 H 0.30946 0.43772 0.19471 0.0
S721 S 0.28546 0.31336 0.04837 0.0
N722 N 0.30641 0.36822 1.03255 0.0
N723 N 0.27627 0.31197 0.10427 0.0
C724 C 0.29002 0.35748 0.11241 0.0
C725 C 0.30661 0.38828 0.07333 0.0
C726 C 0.07926 0.4604 0.29955 0.0
C727 C 0.0935 0.50361 0.32119 0.0
C728 C 0.05033 0.44584 0.2605 0.0
C729 C 0.03269 0.47298 0.24101 0.0
H730 H 0.09088 0.43731 0.31282 0.0
H731 H 0.04113 0.41226 0.24576 0.0
S732 S 0.05855 0.58919 0.28409 0.0
N733 N 0.0878 0.57401 0.31948 0.0
N734 N 0.03198 0.5459 0.24693 0.0
C735 C 0.04617 0.51629 0.26233 0.0
C736 C 0.07691 0.53178 0.3019 0.0
C737 C 0.68052 0.69977 0.30954 0.0
C738 C 0.6336 0.67728 0.32415 0.0
C739 C 0.69516 0.6841 0.27174 0.0
C740 C 0.66412 0.64439 0.24638 0.0
H741 H 0.70666 0.73077 0.32702 0.0
H742 H 0.73157 0.7038 0.26201 0.0
S743 S 0.53756 0.57107 0.26992 0.0
N744 N 0.55585 0.61208 0.30983 0.0
N745 N 0.58382 0.58199 0.23901 0.0
C746 C 0.61715 0.62057 0.26073 0.0
C747 C 0.60182 0.63719 0.29928 0.0
C748 C 0.45378 0.10519 0.27343 0.0
C749 C 0.48921 0.10832 0.24443 0.0
C750 C 0.43888 0.0762 0.31258 0.0
C751 C 0.45766 0.0475 0.32477 0.0
H752 H 0.43697 0.12529 0.26556 0.0
H753 H 0.4113 0.07566 0.33299 0.0
S754 S 0.55143 0.04202 0.25993 0.0
N755 N 0.54326 0.08027 0.23074 0.0
N756 N 0.51456 0.0248 0.30358 0.0
C757 C 0.49335 0.05025 0.296 0.0
C758 C 0.50925 0.08078 0.25625 0.0
C759 C 0.6665 0.12169 0.78762 0.0
C760 C 0.65628 0.10372 0.74249 0.0
C761 C 0.65245 0.09195 0.82664 0.0
C762 C 0.62616 0.0428 0.82266 0.0
H763 H 0.68787 0.15897 0.7928 0.0
H764 H 0.66333 0.10763 0.86032 0.0
S765 S 0.58827 0.97795 0.71245 0.0
N766 N 0.61741 0.03327 0.6965 0.0
N767 N 0.58933 0.97802 0.76924 0.0
C768 C 0.6139 0.02457 0.77781 0.0
C769 C 0.62939 0.05475 0.73806 0.0
C770 C 0.1097 0.68004 0.78154 0.0
C771 C 0.09196 0.67413 0.82669 0.0
C772 C 0.07993 0.66519 0.74251 0.0
C773 C 0.03085 0.64215 0.74658 0.0
H774 H 0.14702 0.69857 0.77614 0.0
H775 H 0.09561 0.67279 0.70865 0.0
S776 S 0.96629 0.61607 0.85687 0.0
N777 N 0.02155 0.64273 0.8727 0.0
N778 N 0.96626 0.61326 0.80017 0.0
C779 C 1.01269 0.63425 0.79157 0.0
C780 C 0.04295 0.65059 0.8312 0.0
C781 C 0.51281 0.51651 0.76109 0.0
C782 C 0.49102 0.46945 0.74652 0.0
C783 C 0.49626 0.5304 0.79989 0.0
C784 C 0.45768 0.49772 0.82617 0.0
H785 H 0.5419 0.54294 0.74163 0.0
H786 H 0.51385 0.56692 0.80936 0.0
S787 S 0.38876 0.37002 0.80221 0.0
N788 N 0.42907 0.39057 0.76187 0.0
N789 N 0.39855 0.41562 0.83343 0.0
C790 C 0.43633 0.45054 0.81185 0.0
C791 C 0.45277 0.43677 0.77257 0.0
C792 C 0.21033 0.42273 0.83766 0.0
C793 C 0.18005 0.3807 0.86006 0.0
C794 C 0.2569 0.44818 0.84997 0.0
C795 C 0.27472 0.43242 0.88505 0.0
H796 H 0.19825 0.43607 0.81009 0.0
H797 H 0.27879 0.48073 0.83213 0.0
S798 S 0.20953 0.32434 0.95457 0.0
N799 N 0.17067 0.32437 0.91927 0.0
N800 N 0.25878 0.37205 0.94204 0.0
C801 C 0.24484 0.39029 0.90774 0.0
C802 C 0.19727 0.36453 0.89543 0.0
C803 C 0.77539 0.93259 0.87493 0.0
C804 C 0.75559 0.8889 0.85336 0.0
C805 C 0.74786 0.95155 0.88725 0.0
C806 C 0.69989 0.9273 0.87821 0.0
H807 H 0.8125 0.95275 0.88141 0.0
H808 H 0.76431 0.98548 0.90366 0.0
S809 S 0.63095 0.80956 0.82636 0.0
N810 N 0.68525 0.82039 0.82609 0.0
N811 N 0.63308 0.85624 0.84909 0.0
C812 C 0.67951 0.88312 0.85739 0.0
C813 C 0.70754 0.86377 0.84505 0.0
C814 C 0.23869 0.88117 0.84777 0.0
C815 C 0.20738 0.86406 0.88475 0.0
C816 C 0.25929 0.92763 0.83482 0.0
C817 C 0.24926 0.95861 0.85835 0.0
H818 H 0.24783 0.85874 0.82877 0.0
H819 H 0.28287 0.93903 0.80575 0.0
S820 S 0.16969 0.93122 0.95805 0.0
N821 N 0.1672 0.88152 0.94511 0.0
N822 N 0.20626 0.96937 0.92064 0.0
C823 C 0.21812 0.94213 0.89561 0.0
C824 C 0.19696 0.89465 0.90877 0.0
C825 C 0.37935 0.26351 0.67389 0.0
C826 C 0.42686 0.28839 0.68493 0.0
C827 C 0.35236 0.21688 0.68591 0.0
C828 C 0.3722 0.19393 0.70927 0.0
H829 H 0.36273 0.28024 0.65632 0.0
H830 H 0.31546 0.19923 0.67811 0.0
S831 S 0.49607 0.24253 0.74189 0.0
N832 N 0.49356 0.28631 0.71766 0.0
N833 N 0.44235 0.19798 0.74036 0.0
C834 C 0.41994 0.21798 0.71941 0.0
C835 C 0.44744 0.26554 0.70728 0.0
C836 C 0.87765 0.20982 0.66994 0.0
C837 C 0.84674 0.22027 0.6929 0.0
C838 C 0.92427 0.23158 0.68222 0.0
C839 C 0.9415 0.26446 0.7179 0.0
H840 H 0.86605 0.18499 0.64189 0.0
H841 H 0.94667 0.22195 0.66389 0.0
S842 S 0.87469 0.30427 0.78886 0.0
N843 N 0.83626 0.26556 0.75311 0.0
N844 N 0.9244 0.30699 0.77603 0.0
C845 C 0.91102 0.27546 0.74117 0.0
C846 C 0.86341 0.25307 0.72882 0.0
C847 C 0.89568 0.7741 0.67378 0.0
C848 C 0.88051 0.77164 0.71915 0.0
C849 C 0.91557 0.74783 0.66006 0.0
C850 C 0.92077 0.71844 0.69138 0.0
H851 H 0.89153 0.79586 0.64853 0.0
H852 H 0.92561 0.74953 0.62435 0.0
S853 S 0.89133 0.70385 0.81537 0.0
N854 N 0.87522 0.7407 0.79644 0.0
N855 N 0.91262 0.6907 0.77019 0.0
C856 C 0.90708 0.7167 0.73721 0.0
C857 C 0.88683 0.74349 0.75124 0.0
C858 C 0.92447 0.77878 0.18031 0.0
C859 C 0.94314 0.76247 0.21397 0.0
C860 C 0.87797 0.7528 0.16805 0.0
C861 C 0.84856 0.70958 0.18899 0.0
H862 H 0.94548 0.81239 0.16393 0.0
H863 H 0.86515 0.76698 0.14199 0.0
S864 S 0.88101 0.65065 0.27828 0.0
N865 N 0.92939 0.69988 0.26734 0.0
N866 N 0.84128 0.65088 0.24433 0.0
C867 C 0.86682 0.69243 0.22236 0.0
C868 C 0.91439 0.71887 0.23474 0.0
C869 C 0.39659 0.25731 0.24156 0.0
C870 C 0.36859 0.26446 0.21019 0.0
C871 C 0.4227 0.23748 0.22728 0.0
C872 C 0.42139 0.22438 0.18131 0.0
H873 H 0.39735 0.26581 0.27764 0.0
H874 H 0.44344 0.23179 0.25249 0.0
S875 S 0.35731 0.24073 0.08509 0.0
N876 N 0.34317 0.26023 0.13099 0.0
N877 N 0.39309 0.22314 0.10362 0.0
C878 C 0.39457 0.23262 0.14927 0.0
C879 C 0.36788 0.25272 0.16388 0.0
C880 C 0.91572 0.21674 0.18664 0.0
C881 C 0.87507 0.19541 0.21328 0.0
C882 C 0.93489 0.26301 0.17333 0.0
C883 C 0.91395 0.28906 0.18651 0.0
H884 H 0.93352 0.19804 0.177 0.0
H885 H 0.96647 0.2785 0.15294 0.0
S886 S 0.80485 0.24758 0.25324 0.0
N887 N 0.81268 0.20223 0.25008 0.0
N888 N 0.84927 0.28989 0.22549 0.0
C889 C 0.87278 0.26785 0.21249 0.0
C890 C 0.85307 0.22068 0.22569 0.0
C891 C 0.76116 0.94084 0.39465 0.0
C892 C 0.75002 0.95725 0.35494 0.0
C893 C 0.73507 0.89442 0.40726 0.0
C894 C 0.69689 0.86289 0.38066 0.0
H895 H 0.7907 0.96372 0.41591 0.0
H896 H 0.74502 0.88343 0.43827 0.0
S897 S 0.65218 0.88891 0.27416 0.0
N898 N 0.69755 0.93901 0.28944 0.0
N899 N 0.6481 0.85114 0.31348 0.0
C900 C 0.68465 0.87891 0.34124 0.0
C901 C 0.71127 0.92635 0.32836 0.0
C902 C 0.20854 0.87321 0.34019 0.0
C903 C 0.17897 0.887 0.36064 0.0
C904 C 0.25501 0.89403 0.35271 0.0
C905 C 0.27339 0.92932 0.38607 0.0
H906 H 0.196 0.84645 0.3139 0.0
H907 H 0.2764 0.88193 0.33634 0.0
S908 S 0.20999 0.97732 0.45065 0.0
N909 N 0.17069 0.93731 0.41651 0.0
N910 N 0.25869 0.97712 0.4398 0.0
C911 C 0.24413 0.94328 0.40714 0.0
C912 C 0.19665 0.92181 0.39458 0.0
C913 C 0.19763 0.39533 0.4013 0.0
C914 C 0.2114 0.43849 0.38012 0.0
C915 C 0.21722 0.36855 0.38832 0.0
C916 C 0.25126 0.38411 0.35382 0.0
H917 H 0.17144 0.38189 0.4281 0.0
H918 H 0.20483 0.33505 0.40489 0.0
S919 S 0.30028 0.49535 0.2884 0.0
N920 N 0.26158 0.49609 0.32341 0.0
N921 N 0.29904 0.44588 0.29931 0.0
C922 C 0.26594 0.42759 0.33274 0.0
C923 C 0.24573 0.45472 0.34575 0.0
C924 C 0.07887 0.55186 0.05595 0.0
C925 C 0.03169 0.52668 0.04357 0.0
C926 C 0.1056 0.59889 0.04545 0.0
C927 C 0.08585 0.62202 1.0223 0.0
H928 H 0.09535 0.53518 0.07386 0.0
H929 H 0.1422 0.61686 0.05455 0.0
S930 S 0.96302 0.57236 0.9851 0.0
N931 N 0.96561 0.52834 1.00864 0.0
N932 N 1.01623 0.61747 0.98904 0.0
C933 C 0.03854 0.5975 1.01026 0.0
C934 C 1.01133 0.54949 1.02075 0.0
C935 C 0.54738 0.55429 0.99614 0.0
C936 C 0.51411 0.55524 1.02526 0.0
C937 C 0.59366 0.57494 1.00935 0.0
C938 C 0.60808 0.59714 0.05208 0.0
H939 H 0.53791 0.5382 0.96249 0.0
H940 H 0.61818 0.57337 0.98583 0.0
S941 S 0.53387 0.6078 0.14155 0.0
N942 N 0.49801 0.57911 0.09902 0.0
N943 N 0.58554 0.61819 0.12419 0.0
C944 C 0.57511 0.59826 0.08175 0.0
C945 C 0.52789 0.57712 0.06826 0.0
C946 C 0.56693 0.11004 1.00948 0.0
C947 C 0.5382 0.09761 0.0484 0.0
C948 C 0.58733 0.08414 0.99642 0.0
C949 C 0.57963 0.04478 1.02173 0.0
H950 H 0.57423 0.14029 0.98896 0.0
H951 H 0.60895 0.09503 0.96589 0.0
S952 S 0.50693 0.99735 0.12665 0.0
N953 N 0.50279 0.0434 0.11245 0.0
N954 N 0.54124 0.9942 0.08756 0.0
C955 C 0.55082 0.03169 0.06078 0.0
C956 C 0.52995 0.05818 0.07414 0.0
C957 C 0.58111 0.06152 0.56721 0.0
C958 C 0.61205 0.10226 0.54329 0.0
C959 C 0.53445 0.03644 0.55519 0.0
C960 C 0.51711 0.05114 0.51875 0.0
H961 H 0.59265 0.04911 0.59603 0.0
H962 H 0.51201 1.00515 0.57459 0.0
S963 S 0.58428 0.15493 0.44407 0.0
N964 N 0.62268 0.15587 0.48072 0.0
N965 N 0.53444 0.1085 0.45799 0.0
C966 C 0.54774 0.09163 0.49407 0.0
C967 C 0.59542 0.11717 0.50628 0.0
C968 C 0.06691 0.59249 0.57699 0.0
C969 C 0.03916 0.60014 0.54576 0.0
C970 C 0.09185 0.5714 0.56269 0.0
C971 C 0.08964 0.55754 0.51683 0.0
H972 H 0.06825 0.60148 0.61299 0.0
H973 H 0.11251 0.56545 0.58779 0.0
S974 S 0.02558 0.57434 0.42097 0.0
N975 N 1.01301 0.5954 0.46672 0.0
N976 N 0.06051 0.55568 0.43943 0.0
C977 C 0.06298 0.5661 0.48494 0.0
C978 C 0.03759 0.5876 0.49953 0.0
C979 C 0.54519 0.60197 0.54946 0.0
C980 C 0.58407 0.62299 0.5203 0.0
C981 C 0.52634 0.5557 0.56258 0.0
C982 C 0.54575 0.52904 0.54689 0.0
H983 H 0.52843 0.62095 0.56151 0.0
H984 H 0.49616 0.54076 0.58495 0.0
S985 S 0.64944 0.56886 0.47185 0.0
N986 N 0.64277 0.61474 0.47753 0.0
N987 N 0.60695 0.52713 0.50206 0.0
C988 C 0.58506 0.54978 0.51815 0.0
C989 C 0.60442 0.59703 0.50495 0.0
loop_
_geom_bond_atom_site_label_1
_geom_bond_atom_site_label_2
_geom_bond_distance
_geom_bond_site_symmetry_2
_ccdc_geom_bond_type
Fe0 O2 1.918 . S
Fe0 O5 1.997 . S
Fe0 O6 2.002 . S
Fe0 O11 1.976 . S
Fe0 O14 1.996 1_455 S
Fe1 O2 1.918 . S
Fe1 O9 1.997 . S
Fe1 O12 1.996 . S
Fe1 O16 1.976 . S
Fe1 O19 2.002 . S
O2 Fe0 1.918 . S
O2 Fe1 1.918 . S
O2 Fe3 1.918 . S
Fe3 O2 1.918 . S
Fe3 O4 2.002 . S
Fe3 O13 1.976 1_455 S
Fe3 O17 1.996 1_455 S
Fe3 O20 1.997 . S
O4 Fe3 2.002 . S
O4 C21 1.295 . S
O5 Fe0 1.997 . S
O5 C21 1.235 . S
O6 Fe0 2.002 . S
O6 C7 1.295 . S
C7 O6 1.295 . S
C7 O9 1.235 . S
C8 O13 1.287 . S
C8 O14 1.255 . S
O9 Fe1 1.997 . S
O9 C7 1.235 . S
C10 O16 1.287 1_655 S
C10 O17 1.255 . S
O11 Fe0 1.976 . S
O11 C18 1.287 . S
O12 Fe1 1.996 . S
O12 C18 1.255 . S
O13 Fe3 1.976 1_655 S
O13 C8 1.287 . S
O14 Fe0 1.996 1_655 S
O14 C8 1.255 . S
C15 O19 1.295 . S
C15 O20 1.235 . S
O16 Fe1 1.976 . S
O16 C10 1.287 1_455 S
O17 Fe3 1.996 1_655 S
O17 C10 1.255 . S
C18 O11 1.287 . S
C18 O12 1.255 . S
O19 Fe1 2.002 . S
O19 C15 1.295 . S
O20 Fe3 1.997 . S
O20 C15 1.235 . S
C21 O4 1.295 . S
C21 O5 1.235 . S
Fe22 O24 1.918 . S
Fe22 O27 1.997 . S
Fe22 O28 2.002 . S
Fe22 O33 1.976 . S
Fe22 O36 1.996 . S
Fe23 O24 1.918 . S
Fe23 O31 1.997 . S
Fe23 O34 1.996 . S
Fe23 O38 1.976 . S
Fe23 O41 2.002 . S
O24 Fe22 1.918 . S
O24 Fe23 1.918 . S
O24 Fe25 1.918 . S
Fe25 O24 1.918 . S
Fe25 O26 2.002 . S
Fe25 O35 1.976 . S
Fe25 O39 1.996 . S
Fe25 O42 1.997 . S
O26 Fe25 2.002 . S
O26 C43 1.295 . S
O27 Fe22 1.997 . S
O27 C43 1.235 . S
O28 Fe22 2.002 . S
O28 C29 1.295 . S
C29 O28 1.295 . S
C29 O31 1.235 . S
C30 O35 1.287 . S
C30 O36 1.255 . S
O31 Fe23 1.997 . S
O31 C29 1.235 . S
C32 O38 1.287 . S
C32 O39 1.255 . S
O33 Fe22 1.976 . S
O33 C40 1.287 . S
O34 Fe23 1.996 . S
O34 C40 1.255 . S
O35 Fe25 1.976 . S
O35 C30 1.287 . S
O36 Fe22 1.996 . S
O36 C30 1.255 . S
C37 O41 1.295 . S
C37 O42 1.235 . S
O38 Fe23 1.976 . S
O38 C32 1.287 . S
O39 Fe25 1.996 . S
O39 C32 1.255 . S
C40 O33 1.287 . S
C40 O34 1.255 . S
O41 Fe23 2.002 . S
O41 C37 1.295 . S
O42 Fe25 1.997 . S
O42 C37 1.235 . S
C43 O26 1.295 . S
C43 O27 1.235 . S
Fe44 O46 1.918 . S
Fe44 O49 1.997 . S
Fe44 O50 2.002 . S
Fe44 O55 1.976 . S
Fe44 O58 1.996 . S
Fe45 O46 1.918 . S
Fe45 O53 1.997 . S
Fe45 O56 1.996 . S
Fe45 O60 1.976 . S
Fe45 O63 2.002 . S
O46 Fe44 1.918 . S
O46 Fe45 1.918 . S
O46 Fe47 1.918 . S
Fe47 O46 1.918 . S
Fe47 O48 2.002 . S
Fe47 O57 1.976 1_545 S
Fe47 O61 1.996 . S
Fe47 O64 1.997 . S
O48 Fe47 2.002 . S
O48 C65 1.295 . S
O49 Fe44 1.997 . S
O49 C65 1.235 . S
O50 Fe44 2.002 . S
O50 C51 1.295 . S
C51 O50 1.295 . S
C51 O53 1.235 . S
C52 O57 1.287 . S
C52 O58 1.255 1_565 S
O53 Fe45 1.997 . S
O53 C51 1.235 . S
C54 O60 1.287 . S
C54 O61 1.255 . S
O55 Fe44 1.976 . S
O55 C62 1.287 . S
O56 Fe45 1.996 . S
O56 C62 1.255 . S
O57 Fe47 1.976 1_565 S
O57 C52 1.287 . S
O58 Fe44 1.996 . S
O58 C52 1.255 1_545 S
C59 O63 1.295 . S
C59 O64 1.235 . S
O60 Fe45 1.976 . S
O60 C54 1.287 . S
O61 Fe47 1.996 . S
O61 C54 1.255 . S
C62 O55 1.287 . S
C62 O56 1.255 . S
O63 Fe45 2.002 . S
O63 C59 1.295 . S
O64 Fe47 1.997 . S
O64 C59 1.235 . S
C65 O48 1.295 . S
C65 O49 1.235 . S
Fe66 O68 1.918 . S
Fe66 O71 1.997 1_455 S
Fe66 O72 2.002 1_455 S
Fe66 O77 1.976 . S
Fe66 O80 1.996 . S
Fe67 O68 1.918 . S
Fe67 O75 1.997 1_455 S
Fe67 O78 1.996 . S
Fe67 O82 1.976 . S
Fe67 O85 2.002 . S
O68 Fe66 1.918 . S
O68 Fe67 1.918 . S
O68 Fe69 1.918 . S
Fe69 O68 1.918 . S
Fe69 O70 2.002 . S
Fe69 O79 1.976 . S
Fe69 O83 1.996 . S
Fe69 O86 1.997 . S
O70 Fe69 2.002 . S
O70 C87 1.295 1_455 S
O71 Fe66 1.997 1_655 S
O71 C87 1.235 . S
O72 Fe66 2.002 1_655 S
O72 C73 1.295 . S
C73 O72 1.295 . S
C73 O75 1.235 . S
C74 O79 1.287 . S
C74 O80 1.255 . S
O75 Fe67 1.997 1_655 S
O75 C73 1.235 . S
C76 O82 1.287 . S
C76 O83 1.255 . S
O77 Fe66 1.976 . S
O77 C84 1.287 . S
O78 Fe67 1.996 . S
O78 C84 1.255 . S
O79 Fe69 1.976 . S
O79 C74 1.287 . S
O80 Fe66 1.996 . S
O80 C74 1.255 . S
C81 O85 1.295 . S
C81 O86 1.235 . S
O82 Fe67 1.976 . S
O82 C76 1.287 . S
O83 Fe69 1.996 . S
O83 C76 1.255 . S
C84 O77 1.287 . S
C84 O78 1.255 . S
O85 Fe67 2.002 . S
O85 C81 1.295 . S
O86 Fe69 1.997 . S
O86 C81 1.235 . S
C87 O70 1.295 1_655 S
C87 O71 1.235 . S
Fe88 O90 1.918 . S
Fe88 O93 1.997 . S
Fe88 O94 2.002 . S
Fe88 O99 1.976 . S
Fe88 O102 1.996 . S
Fe89 O90 1.918 . S
Fe89 O97 1.997 . S
Fe89 O100 1.996 . S
Fe89 O104 1.976 . S
Fe89 O107 2.002 . S
O90 Fe88 1.918 . S
O90 Fe89 1.918 . S
O90 Fe91 1.918 . S
Fe91 O90 1.918 . S
Fe91 O92 2.002 . S
Fe91 O101 1.976 . S
Fe91 O105 1.996 . S
Fe91 O108 1.997 . S
O92 Fe91 2.002 . S
O92 C109 1.295 . S
O93 Fe88 1.997 . S
O93 C109 1.235 . S
O94 Fe88 2.002 . S
O94 C95 1.295 . S
C95 O94 1.295 . S
C95 O97 1.235 . S
C96 O101 1.287 . S
C96 O102 1.255 . S
O97 Fe89 1.997 . S
O97 C95 1.235 . S
C98 O104 1.287 . S
C98 O105 1.255 . S
O99 Fe88 1.976 . S
O99 C106 1.287 . S
O100 Fe89 1.996 . S
O100 C106 1.255 . S
O101 Fe91 1.976 . S
O101 C96 1.287 . S
O102 Fe88 1.996 . S
O102 C96 1.255 . S
C103 O107 1.295 . S
C103 O108 1.235 . S
O104 Fe89 1.976 . S
O104 C98 1.287 . S
O105 Fe91 1.996 . S
O105 C98 1.255 . S
C106 O99 1.287 . S
C106 O100 1.255 . S
O107 Fe89 2.002 . S
O107 C103 1.295 . S
O108 Fe91 1.997 . S
O108 C103 1.235 . S
C109 O92 1.295 . S
C109 O93 1.235 . S
Fe110 O112 1.918 . S
Fe110 O115 1.997 . S
Fe110 O116 2.002 1_545 S
Fe110 O121 1.976 . S
Fe110 O124 1.996 . S
Fe111 O112 1.918 . S
Fe111 O119 1.997 . S
Fe111 O122 1.996 . S
Fe111 O126 1.976 . S
Fe111 O129 2.002 . S
O112 Fe110 1.918 . S
O112 Fe111 1.918 . S
O112 Fe113 1.918 . S
Fe113 O112 1.918 . S
Fe113 O114 2.002 . S
Fe113 O123 1.976 . S
Fe113 O127 1.996 . S
Fe113 O130 1.997 . S
O114 Fe113 2.002 . S
O114 C131 1.295 . S
O115 Fe110 1.997 . S
O115 C131 1.235 . S
O116 Fe110 2.002 1_565 S
O116 C117 1.295 . S
C117 O116 1.295 . S
C117 O119 1.235 1_565 S
C118 O123 1.287 . S
C118 O124 1.255 . S
O119 Fe111 1.997 . S
O119 C117 1.235 1_545 S
C120 O126 1.287 . S
C120 O127 1.255 . S
O121 Fe110 1.976 . S
O121 C128 1.287 . S
O122 Fe111 1.996 . S
O122 C128 1.255 . S
O123 Fe113 1.976 . S
O123 C118 1.287 . S
O124 Fe110 1.996 . S
O124 C118 1.255 . S
C125 O129 1.295 . S
C125 O130 1.235 . S
O126 Fe111 1.976 . S
O126 C120 1.287 . S
O127 Fe113 1.996 . S
O127 C120 1.255 . S
C128 O121 1.287 . S
C128 O122 1.255 . S
O129 Fe111 2.002 . S
O129 C125 1.295 . S
O130 Fe113 1.997 . S
O130 C125 1.235 . S
C131 O114 1.295 . S
C131 O115 1.235 . S
Fe132 O134 1.918 . S
Fe132 O137 1.997 . S
Fe132 O138 2.002 . S
Fe132 O143 1.976 . S
Fe132 O146 1.996 . S
Fe133 O134 1.918 . S
Fe133 O141 1.997 . S
Fe133 O144 1.996 . S
Fe133 O148 1.976 . S
Fe133 O151 2.002 . S
O134 Fe132 1.918 . S
O134 Fe133 1.918 . S
O134 Fe135 1.918 . S
Fe135 O134 1.918 . S
Fe135 O136 2.002 1_554 S
Fe135 O145 1.976 . S
Fe135 O149 1.996 . S
Fe135 O152 1.997 . S
O136 Fe135 2.002 1_556 S
O136 C153 1.295 . S
O137 Fe132 1.997 . S
O137 C153 1.235 1_554 S
O138 Fe132 2.002 . S
O138 C139 1.295 . S
C139 O138 1.295 . S
C139 O141 1.235 . S
C140 O145 1.287 . S
C140 O146 1.255 . S
O141 Fe133 1.997 . S
O141 C139 1.235 . S
C142 O148 1.287 . S
C142 O149 1.255 . S
O143 Fe132 1.976 . S
O143 C150 1.287 . S
O144 Fe133 1.996 . S
O144 C150 1.255 . S
O145 Fe135 1.976 . S
O145 C140 1.287 . S
O146 Fe132 1.996 . S
O146 C140 1.255 . S
C147 O151 1.295 . S
C147 O152 1.235 . S
O148 Fe133 1.976 . S
O148 C142 1.287 . S
O149 Fe135 1.996 . S
O149 C142 1.255 . S
C150 O143 1.287 . S
C150 O144 1.255 . S
O151 Fe133 2.002 . S
O151 C147 1.295 . S
O152 Fe135 1.997 . S
O152 C147 1.235 . S
C153 O136 1.295 . S
C153 O137 1.235 1_556 S
Fe154 O156 1.918 . S
Fe154 O159 1.997 . S
Fe154 O160 2.002 . S
Fe154 O165 1.976 . S
Fe154 O168 1.996 . S
Fe155 O156 1.918 . S
Fe155 O163 1.997 . S
Fe155 O166 1.996 . S
Fe155 O170 1.976 . S
Fe155 O173 2.002 . S
O156 Fe154 1.918 . S
O156 Fe155 1.918 . S
O156 Fe157 1.918 . S
Fe157 O156 1.918 . S
Fe157 O158 2.002 1_554 S
Fe157 O167 1.976 . S
Fe157 O171 1.996 . S
Fe157 O174 1.997 . S
O158 Fe157 2.002 1_556 S
O158 C175 1.295 . S
O159 Fe154 1.997 . S
O159 C175 1.235 1_554 S
O160 Fe154 2.002 . S
O160 C161 1.295 . S
C161 O160 1.295 . S
C161 O163 1.235 . S
C162 O167 1.287 . S
C162 O168 1.255 . S
O163 Fe155 1.997 . S
O163 C161 1.235 . S
C164 O170 1.287 . S
C164 O171 1.255 . S
O165 Fe154 1.976 . S
O165 C172 1.287 . S
O166 Fe155 1.996 . S
O166 C172 1.255 . S
O167 Fe157 1.976 . S
O167 C162 1.287 . S
O168 Fe154 1.996 . S
O168 C162 1.255 . S
C169 O173 1.295 . S
C169 O174 1.235 . S
O170 Fe155 1.976 . S
O170 C164 1.287 . S
O171 Fe157 1.996 . S
O171 C164 1.255 . S
C172 O165 1.287 . S
C172 O166 1.255 . S
O173 Fe155 2.002 . S
O173 C169 1.295 . S
O174 Fe157 1.997 . S
O174 C169 1.235 . S
C175 O158 1.295 . S
C175 O159 1.235 1_556 S
Fe176 O178 1.918 . S
Fe176 O181 1.997 . S
Fe176 O182 2.002 . S
Fe176 O187 1.976 . S
Fe176 O190 1.996 . S
Fe177 O178 1.918 . S
Fe177 O185 1.997 . S
Fe177 O188 1.996 . S
Fe177 O192 1.976 . S
Fe177 O195 2.002 1_554 S
O178 Fe176 1.918 . S
O178 Fe177 1.918 . S
O178 Fe179 1.918 . S
Fe179 O178 1.918 . S
Fe179 O180 2.002 . S
Fe179 O189 1.976 . S
Fe179 O193 1.996 1_655 S
Fe179 O196 1.997 . S
O180 Fe179 2.002 . S
O180 C197 1.295 . S
O181 Fe176 1.997 . S
O181 C197 1.235 . S
O182 Fe176 2.002 . S
O182 C183 1.295 . S
C183 O182 1.295 . S
C183 O185 1.235 . S
C184 O189 1.287 . S
C184 O190 1.255 . S
O185 Fe177 1.997 . S
O185 C183 1.235 . S
C186 O192 1.287 . S
C186 O193 1.255 1_655 S
O187 Fe176 1.976 . S
O187 C194 1.287 . S
O188 Fe177 1.996 . S
O188 C194 1.255 . S
O189 Fe179 1.976 . S
O189 C184 1.287 . S
O190 Fe176 1.996 . S
O190 C184 1.255 . S
C191 O195 1.295 . S
C191 O196 1.235 1_556 S
O192 Fe177 1.976 . S
O192 C186 1.287 . S
O193 Fe179 1.996 1_455 S
O193 C186 1.255 1_455 S
C194 O187 1.287 . S
C194 O188 1.255 . S
O195 Fe177 2.002 1_556 S
O195 C191 1.295 . S
O196 Fe179 1.997 . S
O196 C191 1.235 1_554 S
C197 O180 1.295 . S
C197 O181 1.235 . S
Fe198 O200 1.918 . S
Fe198 O203 1.997 . S
Fe198 O204 2.002 . S
Fe198 O209 1.976 . S
Fe198 O212 1.996 . S
Fe199 O200 1.918 . S
Fe199 O207 1.997 . S
Fe199 O210 1.996 . S
Fe199 O214 1.976 . S
Fe199 O217 2.002 . S
O200 Fe198 1.918 . S
O200 Fe199 1.918 . S
O200 Fe201 1.918 . S
Fe201 O200 1.918 . S
Fe201 O202 2.002 . S
Fe201 O211 1.976 . S
Fe201 O215 1.996 . S
Fe201 O218 1.997 . S
O202 Fe201 2.002 . S
O202 C219 1.295 . S
O203 Fe198 1.997 . S
O203 C219 1.235 . S
O204 Fe198 2.002 . S
O204 C205 1.295 . S
C205 O204 1.295 . S
C205 O207 1.235 . S
C206 O211 1.287 . S
C206 O212 1.255 . S
O207 Fe199 1.997 . S
O207 C205 1.235 . S
C208 O214 1.287 . S
C208 O215 1.255 . S
O209 Fe198 1.976 . S
O209 C216 1.287 . S
O210 Fe199 1.996 . S
O210 C216 1.255 . S
O211 Fe201 1.976 . S
O211 C206 1.287 . S
O212 Fe198 1.996 . S
O212 C206 1.255 . S
C213 O217 1.295 . S
C213 O218 1.235 . S
O214 Fe199 1.976 . S
O214 C208 1.287 . S
O215 Fe201 1.996 . S
O215 C208 1.255 . S
C216 O209 1.287 . S
C216 O210 1.255 . S
O217 Fe199 2.002 . S
O217 C213 1.295 . S
O218 Fe201 1.997 . S
O218 C213 1.235 . S
C219 O202 1.295 . S
C219 O203 1.235 . S
Fe220 O222 1.918 . S
Fe220 O225 1.997 . S
Fe220 O226 2.002 . S
Fe220 O231 1.976 . S
Fe220 O234 1.996 . S
Fe221 O222 1.918 . S
Fe221 O229 1.997 . S
Fe221 O232 1.996 . S
Fe221 O236 1.967 1_655 S
Fe221 O239 2.002 . S
O222 Fe220 1.918 . S
O222 Fe221 1.918 . S
O222 Fe223 1.918 . S
Fe223 O222 1.918 . S
Fe223 O224 2.002 . S
Fe223 O233 1.976 . S
Fe223 O237 1.996 . S
Fe223 O240 1.997 . S
O224 Fe223 2.002 . S
O224 C241 1.295 . S
O225 Fe220 1.997 . S
O225 C241 1.235 . S
O226 Fe220 2.002 . S
O226 C227 1.295 . S
C227 O226 1.295 . S
C227 O229 1.235 . S
C228 O233 1.287 . S
C228 O234 1.255 . S
O229 Fe221 1.997 . S
O229 C227 1.235 . S
C230 O236 1.288 1_655 S
C230 O237 1.255 . S
O231 Fe220 1.976 . S
O231 C238 1.287 . S
O232 Fe221 1.996 . S
O232 C238 1.255 . S
O233 Fe223 1.976 . S
O233 C228 1.287 . S
O234 Fe220 1.996 . S
O234 C228 1.255 . S
C235 O239 1.295 . S
C235 O240 1.235 . S
O236 Fe221 1.967 1_455 S
O236 C230 1.288 1_455 S
O237 Fe223 1.996 . S
O237 C230 1.255 . S
C238 O231 1.287 . S
C238 O232 1.255 . S
O239 Fe221 2.002 . S
O239 C235 1.295 . S
O240 Fe223 1.997 . S
O240 C235 1.235 . S
C241 O224 1.295 . S
C241 O225 1.235 . S
Fe242 O244 1.918 . S
Fe242 O247 1.997 . S
Fe242 O248 2.002 . S
Fe242 O253 1.976 . S
Fe242 O256 1.996 . S
Fe243 O244 1.918 . S
Fe243 O251 1.997 . S
Fe243 O254 1.996 . S
Fe243 O258 1.976 . S
Fe243 O261 2.002 . S
O244 Fe242 1.918 . S
O244 Fe243 1.918 . S
O244 Fe245 1.918 . S
Fe245 O244 1.918 . S
Fe245 O246 2.002 . S
Fe245 O255 1.976 . S
Fe245 O259 1.996 . S
Fe245 O262 1.997 . S
O246 Fe245 2.002 . S
O246 C263 1.295 . S
O247 Fe242 1.997 . S
O247 C263 1.235 . S
O248 Fe242 2.002 . S
O248 C249 1.295 . S
C249 O248 1.295 . S
C249 O251 1.235 . S
C250 O255 1.287 . S
C250 O256 1.255 . S
O251 Fe243 1.997 . S
O251 C249 1.235 . S
C252 O258 1.287 . S
C252 O259 1.255 . S
O253 Fe242 1.976 . S
O253 C260 1.287 . S
O254 Fe243 1.996 . S
O254 C260 1.255 . S
O255 Fe245 1.976 . S
O255 C250 1.287 . S
O256 Fe242 1.996 . S
O256 C250 1.255 . S
C257 O261 1.295 . S
C257 O262 1.235 . S
O258 Fe243 1.976 . S
O258 C252 1.287 . S
O259 Fe245 1.996 . S
O259 C252 1.255 . S
C260 O253 1.287 . S
C260 O254 1.255 . S
O261 Fe243 2.002 . S
O261 C257 1.295 . S
O262 Fe245 1.997 . S
O262 C257 1.235 . S
C263 O246 1.295 . S
C263 O247 1.235 . S
Fe264 O266 1.918 . S
Fe264 O269 1.997 . S
Fe264 O270 2.002 . S
Fe264 O275 1.976 . S
Fe264 O278 1.996 . S
Fe265 O266 1.918 . S
Fe265 O273 1.997 . S
Fe265 O276 1.996 . S
Fe265 O280 1.976 . S
Fe265 O283 2.002 . S
O266 Fe264 1.918 . S
O266 Fe265 1.918 . S
O266 Fe267 1.918 . S
Fe267 O266 1.918 . S
Fe267 O268 2.002 1_565 S
Fe267 O277 1.976 . S
Fe267 O281 1.996 . S
Fe267 O284 1.997 1_565 S
O268 Fe267 2.002 1_545 S
O268 C285 1.295 . S
O269 Fe264 1.997 . S
O269 C285 1.235 1_565 S
O270 Fe264 2.002 . S
O270 C271 1.295 . S
C271 O270 1.295 . S
C271 O273 1.235 . S
C272 O277 1.287 . S
C272 O278 1.255 . S
O273 Fe265 1.997 . S
O273 C271 1.235 . S
C274 O280 1.287 . S
C274 O281 1.255 . S
O275 Fe264 1.976 . S
O275 C282 1.287 . S
O276 Fe265 1.996 . S
O276 C282 1.255 . S
O277 Fe267 1.976 . S
O277 C272 1.287 . S
O278 Fe264 1.996 . S
O278 C272 1.255 . S
C279 O283 1.295 . S
C279 O284 1.235 1_565 S
O280 Fe265 1.976 . S
O280 C274 1.287 . S
O281 Fe267 1.996 . S
O281 C274 1.255 . S
C282 O275 1.287 . S
C282 O276 1.255 . S
O283 Fe265 2.002 . S
O283 C279 1.295 . S
O284 Fe267 1.997 1_545 S
O284 C279 1.235 1_545 S
C285 O268 1.295 . S
C285 O269 1.235 1_545 S
Fe286 O288 1.918 . S
Fe286 O291 1.997 . S
Fe286 O292 2.002 . S
Fe286 O297 1.976 . S
Fe286 O300 1.996 . S
Fe287 O288 1.918 . S
Fe287 O295 1.997 . S
Fe287 O298 1.996 . S
Fe287 O302 1.976 . S
Fe287 O305 2.002 . S
O288 Fe286 1.918 . S
O288 Fe287 1.918 . S
O288 Fe289 1.918 . S
Fe289 O288 1.918 . S
Fe289 O290 2.002 . S
Fe289 O299 1.976 . S
Fe289 O303 1.996 . S
Fe289 O306 1.997 . S
O290 Fe289 2.002 . S
O290 C307 1.295 . S
O291 Fe286 1.997 . S
O291 C307 1.235 . S
O292 Fe286 2.002 . S
O292 C293 1.295 . S
C293 O292 1.295 . S
C293 O295 1.235 . S
C294 O299 1.287 . S
C294 O300 1.255 . S
O295 Fe287 1.997 . S
O295 C293 1.235 . S
C296 O302 1.287 . S
C296 O303 1.255 . S
O297 Fe286 1.976 . S
O297 C304 1.287 . S
O298 Fe287 1.996 . S
O298 C304 1.255 . S
O299 Fe289 1.976 . S
O299 C294 1.287 . S
O300 Fe286 1.996 . S
O300 C294 1.255 . S
C301 O305 1.295 . S
C301 O306 1.235 . S
O302 Fe287 1.976 . S
O302 C296 1.287 . S
O303 Fe289 1.996 . S
O303 C296 1.255 . S
C304 O297 1.287 . S
C304 O298 1.255 . S
O305 Fe287 2.002 . S
O305 C301 1.295 . S
O306 Fe289 1.997 . S
O306 C301 1.235 . S
C307 O290 1.295 . S
C307 O291 1.235 . S
Fe308 O310 1.918 . S
Fe308 O313 1.997 . S
Fe308 O314 2.002 . S
Fe308 O319 1.976 . S
Fe308 O322 1.996 . S
Fe309 O310 1.918 . S
Fe309 O317 1.997 . S
Fe309 O320 1.996 . S
Fe309 O324 1.976 . S
Fe309 O327 2.002 . S
O310 Fe308 1.918 . S
O310 Fe309 1.918 . S
O310 Fe311 1.918 . S
Fe311 O310 1.918 . S
Fe311 O312 2.002 . S
Fe311 O321 1.976 . S
Fe311 O325 1.996 . S
Fe311 O328 1.997 . S
O312 Fe311 2.002 . S
O312 C329 1.295 . S
O313 Fe308 1.997 . S
O313 C329 1.235 . S
O314 Fe308 2.002 . S
O314 C315 1.295 . S
C315 O314 1.295 . S
C315 O317 1.235 . S
C316 O321 1.287 . S
C316 O322 1.255 . S
O317 Fe309 1.997 . S
O317 C315 1.235 . S
C318 O324 1.287 . S
C318 O325 1.255 . S
O319 Fe308 1.976 . S
O319 C326 1.287 . S
O320 Fe309 1.996 . S
O320 C326 1.255 . S
O321 Fe311 1.976 . S
O321 C316 1.287 . S
O322 Fe308 1.996 . S
O322 C316 1.255 . S
C323 O327 1.295 . S
C323 O328 1.235 . S
O324 Fe309 1.976 . S
O324 C318 1.287 . S
O325 Fe311 1.996 . S
O325 C318 1.255 . S
C326 O319 1.287 . S
C326 O320 1.255 . S
O327 Fe309 2.002 . S
O327 C323 1.295 . S
O328 Fe311 1.997 . S
O328 C323 1.235 . S
C329 O312 1.295 . S
C329 O313 1.235 . S
Fe330 O332 1.918 . S
Fe330 O335 1.997 . S
Fe330 O336 2.002 . S
Fe330 O341 1.976 . S
Fe330 O344 1.996 . S
Fe331 O332 1.918 . S
Fe331 O339 1.997 . S
Fe331 O342 1.996 . S
Fe331 O346 1.976 . S
Fe331 O349 2.002 . S
O332 Fe330 1.918 . S
O332 Fe331 1.918 . S
O332 Fe333 1.918 . S
Fe333 O332 1.918 . S
Fe333 O334 2.002 . S
Fe333 O343 1.976 . S
Fe333 O347 1.996 . S
Fe333 O350 1.997 1_556 S
O334 Fe333 2.002 . S
O334 C351 1.295 . S
O335 Fe330 1.997 . S
O335 C351 1.235 . S
O336 Fe330 2.002 . S
O336 C337 1.295 . S
C337 O336 1.295 . S
C337 O339 1.235 . S
C338 O343 1.287 . S
C338 O344 1.255 . S
O339 Fe331 1.997 . S
O339 C337 1.235 . S
C340 O346 1.287 . S
C340 O347 1.255 . S
O341 Fe330 1.976 . S
O341 C348 1.287 . S
O342 Fe331 1.996 . S
O342 C348 1.255 . S
O343 Fe333 1.976 . S
O343 C338 1.287 . S
O344 Fe330 1.996 . S
O344 C338 1.255 . S
C345 O349 1.295 1_554 S
C345 O350 1.235 . S
O346 Fe331 1.976 . S
O346 C340 1.287 . S
O347 Fe333 1.996 . S
O347 C340 1.255 . S
C348 O341 1.287 . S
C348 O342 1.255 . S
O349 Fe331 2.002 . S
O349 C345 1.295 1_556 S
O350 Fe333 1.997 1_554 S
O350 C345 1.235 . S
C351 O334 1.295 . S
C351 O335 1.235 . S
Fe352 O354 1.918 . S
Fe352 O357 1.997 . S
Fe352 O358 2.002 . S
Fe352 O363 1.976 . S
Fe352 O366 1.996 . S
Fe353 O354 1.918 . S
Fe353 O361 1.997 . S
Fe353 O364 1.996 1_565 S
Fe353 O368 1.976 1_565 S
Fe353 O371 2.002 . S
O354 Fe352 1.918 . S
O354 Fe353 1.918 . S
O354 Fe355 1.918 . S
Fe355 O354 1.918 . S
Fe355 O356 2.002 . S
Fe355 O365 1.976 . S
Fe355 O369 1.996 . S
Fe355 O372 1.997 1_556 S
O356 Fe355 2.002 . S
O356 C373 1.295 . S
O357 Fe352 1.997 . S
O357 C373 1.235 . S
O358 Fe352 2.002 . S
O358 C359 1.295 . S
C359 O358 1.295 . S
C359 O361 1.235 . S
C360 O365 1.287 . S
C360 O366 1.255 . S
O361 Fe353 1.997 . S
O361 C359 1.235 . S
C362 O368 1.287 . S
C362 O369 1.255 1_545 S
O363 Fe352 1.976 . S
O363 C370 1.287 . S
O364 Fe353 1.996 1_545 S
O364 C370 1.255 1_545 S
O365 Fe355 1.976 . S
O365 C360 1.287 . S
O366 Fe352 1.996 . S
O366 C360 1.255 . S
C367 O371 1.295 1_554 S
C367 O372 1.235 . S
O368 Fe353 1.976 1_545 S
O368 C362 1.287 . S
O369 Fe355 1.996 . S
O369 C362 1.255 1_565 S
C370 O363 1.287 . S
C370 O364 1.255 1_565 S
O371 Fe353 2.002 . S
O371 C367 1.295 1_556 S
O372 Fe355 1.997 1_554 S
O372 C367 1.235 . S
C373 O356 1.295 . S
C373 O357 1.235 . S
Fe374 O376 1.918 . S
Fe374 O379 1.997 . S
Fe374 O380 2.002 . S
Fe374 O385 1.976 . S
Fe374 O388 1.996 . S
Fe375 O376 1.918 . S
Fe375 O383 1.997 . S
Fe375 O386 1.996 . S
Fe375 O390 1.976 1_556 S
Fe375 O393 2.002 . S
O376 Fe374 1.918 . S
O376 Fe375 1.918 . S
O376 Fe377 1.918 . S
Fe377 O376 1.918 . S
Fe377 O378 2.002 . S
Fe377 O387 1.976 . S
Fe377 O391 1.996 . S
Fe377 O394 1.997 . S
O378 Fe377 2.002 . S
O378 C395 1.295 . S
O379 Fe374 1.997 . S
O379 C395 1.235 . S
O380 Fe374 2.002 . S
O380 C381 1.295 . S
C381 O380 1.295 . S
C381 O383 1.235 . S
C382 O387 1.287 . S
C382 O388 1.255 . S
O383 Fe375 1.997 . S
O383 C381 1.235 . S
C384 O390 1.287 . S
C384 O391 1.255 1_554 S
O385 Fe374 1.976 . S
O385 C392 1.287 . S
O386 Fe375 1.996 . S
O386 C392 1.255 . S
O387 Fe377 1.976 . S
O387 C382 1.287 . S
O388 Fe374 1.996 . S
O388 C382 1.255 . S
C389 O393 1.295 . S
C389 O394 1.235 . S
O390 Fe375 1.976 1_554 S
O390 C384 1.287 . S
O391 Fe377 1.996 . S
O391 C384 1.255 1_556 S
C392 O385 1.287 . S
C392 O386 1.255 . S
O393 Fe375 2.002 . S
O393 C389 1.295 . S
O394 Fe377 1.997 . S
O394 C389 1.235 . S
C395 O378 1.295 . S
C395 O379 1.235 . S
C396 C397 1.369 . S
C396 C398 1.419 . S
C396 H400 0.930 . S
C397 C396 1.369 . S
C397 C406 1.429 . S
C398 C396 1.419 . S
C398 C399 1.363 . S
C398 H401 0.929 . S
C399 C398 1.363 . S
C399 C405 1.428 . S
H400 C396 0.930 . S
H401 C398 0.929 . S
S402 N403 1.613 . S
S402 N404 1.610 . S
N403 S402 1.613 . S
N403 C406 1.350 . S
N404 S402 1.610 . S
N404 C405 1.351 . S
C405 C399 1.428 . S
C405 N404 1.351 . S
C405 C406 1.434 . S
C406 C397 1.429 . S
C406 N403 1.350 . S
C406 C405 1.434 . S
C407 C408 1.369 . S
C407 C409 1.419 . S
C407 H411 0.930 . S
C408 C407 1.369 . S
C408 C417 1.429 . S
C409 C407 1.419 . S
C409 C410 1.363 . S
C409 H412 0.929 . S
C410 C409 1.363 . S
C410 C416 1.428 . S
H411 C407 0.930 . S
H412 C409 0.929 . S
S413 N414 1.613 . S
S413 N415 1.610 . S
N414 S413 1.613 . S
N414 C417 1.350 . S
N415 S413 1.610 . S
N415 C416 1.351 . S
C416 C410 1.428 . S
C416 N415 1.351 . S
C416 C417 1.434 . S
C417 C408 1.429 . S
C417 N414 1.350 . S
C417 C416 1.434 . S
C418 C419 1.369 1_455 S
C418 C420 1.419 . S
C418 H422 0.930 1_455 S
C419 C418 1.369 1_655 S
C419 C428 1.429 1_655 S
C420 C418 1.419 . S
C420 C421 1.363 . S
C420 H423 0.929 . S
C421 C420 1.363 . S
C421 C427 1.428 . S
H422 C418 0.930 1_655 S
H423 C420 0.929 . S
S424 N425 1.613 . S
S424 N426 1.610 . S
N425 S424 1.613 . S
N425 C428 1.350 . S
N426 S424 1.610 . S
N426 C427 1.351 . S
C427 C421 1.428 . S
C427 N426 1.351 . S
C427 C428 1.434 . S
C428 C419 1.429 1_455 S
C428 N425 1.350 . S
C428 C427 1.434 . S
C429 C430 1.369 . S
C429 C431 1.419 . S
C429 H433 0.930 . S
C430 C429 1.369 . S
C430 C439 1.429 . S
C431 C429 1.419 . S
C431 C432 1.363 . S
C431 H434 0.929 . S
C432 C431 1.363 . S
C432 C438 1.428 . S
H433 C429 0.930 . S
H434 C431 0.929 . S
S435 N436 1.613 1_545 S
S435 N437 1.610 1_455 S
N436 S435 1.613 1_565 S
N436 C439 1.350 1_455 S
N437 S435 1.610 1_655 S
N437 C438 1.351 1_545 S
C438 C432 1.428 . S
C438 N437 1.351 1_565 S
C438 C439 1.434 . S
C439 C430 1.429 . S
C439 N436 1.350 1_655 S
C439 C438 1.434 . S
C440 C441 1.369 . S
C440 C442 1.419 . S
C440 H444 0.930 . S
C441 C440 1.369 . S
C441 C450 1.429 . S
C442 C440 1.419 . S
C442 C443 1.363 . S
C442 H445 0.929 . S
C443 C442 1.363 . S
C443 C449 1.428 . S
H444 C440 0.930 . S
H445 C442 0.929 . S
S446 N447 1.605 1_545 S
S446 N448 1.610 . S
N447 S446 1.605 1_565 S
N447 C450 1.326 1_565 S
N448 S446 1.610 . S
N448 C449 1.351 . S
C449 C443 1.428 . S
C449 N448 1.351 . S
C449 C450 1.434 . S
C450 C441 1.429 . S
C450 N447 1.326 1_545 S
C450 C449 1.434 . S
C451 C452 1.369 . S
C451 C453 1.419 . S
C451 H455 0.930 . S
C452 C451 1.369 . S
C452 C461 1.429 . S
C453 C451 1.419 . S
C453 C454 1.363 1_455 S
C453 H456 0.929 1_455 S
C454 C453 1.363 1_655 S
C454 C460 1.428 1_655 S
H455 C451 0.930 . S
H456 C453 0.929 1_655 S
S457 N458 1.613 . S
S457 N459 1.610 . S
N458 S457 1.613 . S
N458 C461 1.350 . S
N459 S457 1.610 . S
N459 C460 1.351 . S
C460 C454 1.428 1_455 S
C460 N459 1.351 . S
C460 C461 1.434 . S
C461 C452 1.429 . S
C461 N458 1.350 . S
C461 C460 1.434 . S
C462 C463 1.369 . S
C462 C464 1.419 . S
C462 H466 0.930 . S
C463 C462 1.369 . S
C463 C472 1.429 . S
C464 C462 1.419 . S
C464 C465 1.363 . S
C464 H467 0.929 . S
C465 C464 1.363 . S
C465 C471 1.428 . S
H466 C462 0.930 . S
H467 C464 0.929 . S
S468 N469 1.613 . S
S468 N470 1.610 . S
N469 S468 1.613 . S
N469 C472 1.350 . S
N470 S468 1.610 . S
N470 C471 1.351 . S
C471 C465 1.428 . S
C471 N470 1.351 . S
C471 C472 1.434 . S
C472 C463 1.429 . S
C472 N469 1.350 . S
C472 C471 1.434 . S
C473 C474 1.369 . S
C473 C475 1.419 . S
C473 H477 0.930 . S
C474 C473 1.369 . S
C474 C483 1.429 . S
C475 C473 1.419 . S
C475 C476 1.363 . S
C475 H478 0.929 . S
C476 C475 1.363 . S
C476 C482 1.428 . S
H477 C473 0.930 . S
H478 C475 0.929 . S
S479 N480 1.613 . S
S479 N481 1.610 . S
N480 S479 1.613 . S
N480 C483 1.350 . S
N481 S479 1.610 . S
N481 C482 1.351 . S
C482 C476 1.428 . S
C482 N481 1.351 . S
C482 C483 1.434 . S
C483 C474 1.429 . S
C483 N480 1.350 . S
C483 C482 1.434 . S
C484 C485 1.369 . S
C484 C486 1.419 . S
C484 H488 0.930 . S
C485 C484 1.369 . S
C485 C494 1.429 . S
C486 C484 1.419 . S
C486 C487 1.363 . S
C486 H489 0.929 . S
C487 C486 1.363 . S
C487 C493 1.428 . S
H488 C484 0.930 . S
H489 C486 0.929 . S
S490 N491 1.613 . S
S490 N492 1.610 . S
N491 S490 1.613 . S
N491 C494 1.350 . S
N492 S490 1.610 . S
N492 C493 1.351 . S
C493 C487 1.428 . S
C493 N492 1.351 . S
C493 C494 1.434 . S
C494 C485 1.429 . S
C494 N491 1.350 . S
C494 C493 1.434 . S
C495 C496 1.369 . S
C495 C497 1.419 . S
C495 H499 0.930 . S
C496 C495 1.369 . S
C496 C505 1.429 . S
C497 C495 1.419 . S
C497 C498 1.363 . S
C497 H500 0.929 . S
C498 C497 1.363 . S
C498 C504 1.428 . S
H499 C495 0.930 . S
H500 C497 0.929 . S
S501 N502 1.613 . S
S501 N503 1.610 . S
N502 S501 1.613 . S
N502 C505 1.350 . S
N503 S501 1.610 . S
N503 C504 1.351 . S
C504 C498 1.428 . S
C504 N503 1.351 . S
C504 C505 1.434 . S
C505 C496 1.429 . S
C505 N502 1.350 . S
C505 C504 1.434 . S
C506 C507 1.369 . S
C506 C508 1.419 . S
C506 H510 0.930 . S
C507 C506 1.369 . S
C507 C516 1.429 . S
C508 C506 1.419 . S
C508 C509 1.363 . S
C508 H511 0.929 . S
C509 C508 1.363 . S
C509 C515 1.428 . S
H510 C506 0.930 . S
H511 C508 0.929 . S
S512 N513 1.613 . S
S512 N514 1.610 . S
N513 S512 1.613 . S
N513 C516 1.350 . S
N514 S512 1.610 . S
N514 C515 1.351 . S
C515 C509 1.428 . S
C515 N514 1.351 . S
C515 C516 1.434 . S
C516 C507 1.429 . S
C516 N513 1.350 . S
C516 C515 1.434 . S
C517 C518 1.369 . S
C517 C519 1.419 . S
C517 H521 0.930 . S
C518 C517 1.369 . S
C518 C527 1.429 . S
C519 C517 1.419 . S
C519 C520 1.363 . S
C519 H522 0.929 . S
C520 C519 1.363 . S
C520 C526 1.428 . S
H521 C517 0.930 . S
H522 C519 0.929 . S
S523 N524 1.613 . S
S523 N525 1.610 . S
N524 S523 1.613 . S
N524 C527 1.350 . S
N525 S523 1.610 . S
N525 C526 1.351 . S
C526 C520 1.428 . S
C526 N525 1.351 . S
C526 C527 1.434 . S
C527 C518 1.429 . S
C527 N524 1.350 . S
C527 C526 1.434 . S
C528 C529 1.369 . S
C528 C530 1.419 . S
C528 H532 0.930 . S
C529 C528 1.369 . S
C529 C538 1.429 . S
C530 C528 1.419 . S
C530 C531 1.363 . S
C530 H533 0.929 . S
C531 C530 1.363 . S
C531 C537 1.428 . S
H532 C528 0.930 . S
H533 C530 0.929 . S
S534 N535 1.613 . S
S534 N536 1.610 . S
N535 S534 1.613 . S
N535 C538 1.350 . S
N536 S534 1.610 . S
N536 C537 1.351 . S
C537 C531 1.428 . S
C537 N536 1.351 . S
C537 C538 1.434 . S
C538 C529 1.429 . S
C538 N535 1.350 . S
C538 C537 1.434 . S
C539 C540 1.369 . S
C539 C541 1.419 . S
C539 H543 0.930 . S
C540 C539 1.369 . S
C540 C549 1.429 . S
C541 C539 1.419 . S
C541 C542 1.363 . S
C541 H544 0.929 . S
C542 C541 1.363 . S
C542 C548 1.428 . S
H543 C539 0.930 . S
H544 C541 0.929 . S
S545 N546 1.613 . S
S545 N547 1.610 . S
N546 S545 1.613 . S
N546 C549 1.350 . S
N547 S545 1.610 . S
N547 C548 1.351 . S
C548 C542 1.428 . S
C548 N547 1.351 . S
C548 C549 1.434 . S
C549 C540 1.429 . S
C549 N546 1.350 . S
C549 C548 1.434 . S
C550 C551 1.369 . S
C550 C552 1.419 . S
C550 H554 0.930 . S
C551 C550 1.369 . S
C551 C560 1.429 . S
C552 C550 1.419 . S
C552 C553 1.363 . S
C552 H555 0.929 . S
C553 C552 1.363 . S
C553 C559 1.428 . S
H554 C550 0.930 . S
H555 C552 0.929 . S
S556 N557 1.613 . S
S556 N558 1.610 . S
N557 S556 1.613 . S
N557 C560 1.350 . S
N558 S556 1.610 . S
N558 C559 1.351 . S
C559 C553 1.428 . S
C559 N558 1.351 . S
C559 C560 1.434 . S
C560 C551 1.429 . S
C560 N557 1.350 . S
C560 C559 1.434 . S
C561 C562 1.369 . S
C561 C563 1.419 . S
C561 H565 0.930 . S
C562 C561 1.369 . S
C562 C571 1.429 . S
C563 C561 1.419 . S
C563 C564 1.363 . S
C563 H566 0.929 . S
C564 C563 1.363 . S
C564 C570 1.428 . S
H565 C561 0.930 . S
H566 C563 0.929 . S
S567 N568 1.613 . S
S567 N569 1.610 . S
N568 S567 1.613 . S
N568 C571 1.350 . S
N569 S567 1.610 . S
N569 C570 1.351 . S
C570 C564 1.428 . S
C570 N569 1.351 . S
C570 C571 1.434 . S
C571 C562 1.429 . S
C571 N568 1.350 . S
C571 C570 1.434 . S
C572 C573 1.369 . S
C572 C574 1.419 . S
C572 H576 0.930 . S
C573 C572 1.369 . S
C573 C582 1.429 . S
C574 C572 1.419 . S
C574 C575 1.363 . S
C574 H577 0.929 . S
C575 C574 1.363 . S
C575 C581 1.428 . S
H576 C572 0.930 . S
H577 C574 0.929 . S
S578 N579 1.613 . S
S578 N580 1.610 . S
N579 S578 1.613 . S
N579 C582 1.350 . S
N580 S578 1.610 . S
N580 C581 1.351 . S
C581 C575 1.428 . S
C581 N580 1.351 . S
C581 C582 1.434 . S
C582 C573 1.429 . S
C582 N579 1.350 . S
C582 C581 1.434 . S
C583 C584 1.369 . S
C583 C585 1.419 . S
C583 H587 0.930 . S
C584 C583 1.369 . S
C584 C593 1.429 . S
C585 C583 1.419 . S
C585 C586 1.363 . S
C585 H588 0.929 . S
C586 C585 1.363 . S
C586 C592 1.428 . S
H587 C583 0.930 . S
H588 C585 0.929 . S
S589 N590 1.613 . S
S589 N591 1.610 . S
N590 S589 1.613 . S
N590 C593 1.350 . S
N591 S589 1.610 . S
N591 C592 1.351 . S
C592 C586 1.428 . S
C592 N591 1.351 . S
C592 C593 1.434 . S
C593 C584 1.429 . S
C593 N590 1.350 . S
C593 C592 1.434 . S
C594 C595 1.369 . S
C594 C596 1.419 . S
C594 H598 0.930 . S
C595 C594 1.369 . S
C595 C604 1.429 . S
C596 C594 1.419 . S
C596 C597 1.363 . S
C596 H599 0.929 . S
C597 C596 1.363 . S
C597 C603 1.428 . S
H598 C594 0.930 . S
H599 C596 0.929 . S
S600 N601 1.613 . S
S600 N602 1.610 . S
N601 S600 1.613 . S
N601 C604 1.350 . S
N602 S600 1.610 . S
N602 C603 1.351 . S
C603 C597 1.428 . S
C603 N602 1.351 . S
C603 C604 1.434 . S
C604 C595 1.429 . S
C604 N601 1.350 . S
C604 C603 1.434 . S
C605 C606 1.369 . S
C605 C607 1.419 . S
C605 H609 0.930 . S
C606 C605 1.369 . S
C606 C615 1.429 . S
C607 C605 1.419 . S
C607 C608 1.363 . S
C607 H610 0.929 . S
C608 C607 1.363 . S
C608 C614 1.428 . S
H609 C605 0.930 . S
H610 C607 0.929 . S
S611 N612 1.613 . S
S611 N613 1.610 . S
N612 S611 1.613 . S
N612 C615 1.350 . S
N613 S611 1.610 . S
N613 C614 1.351 . S
C614 C608 1.428 . S
C614 N613 1.351 . S
C614 C615 1.434 . S
C615 C606 1.429 . S
C615 N612 1.350 . S
C615 C614 1.434 . S
C616 C617 1.341 1_565 S
C616 C618 1.419 . S
C616 H620 0.930 . S
C617 C616 1.341 1_545 S
C617 C626 1.438 . S
C618 C616 1.419 . S
C618 C619 1.363 . S
C618 H621 0.929 . S
C619 C618 1.363 . S
C619 C625 1.428 . S
H620 C616 0.930 . S
H621 C618 0.929 . S
S622 N623 1.613 . S
S622 N624 1.610 . S
N623 S622 1.613 . S
N623 C626 1.350 . S
N624 S622 1.610 . S
N624 C625 1.351 1_545 S
C625 C619 1.428 . S
C625 N624 1.351 1_565 S
C625 C626 1.434 1_565 S
C626 C617 1.438 . S
C626 N623 1.350 . S
C626 C625 1.434 1_545 S
C627 C628 1.369 . S
C627 C629 1.419 . S
C627 H631 0.930 . S
C628 C627 1.369 . S
C628 C637 1.429 . S
C629 C627 1.419 . S
C629 C630 1.363 . S
C629 H632 0.929 . S
C630 C629 1.363 . S
C630 C636 1.428 . S
H631 C627 0.930 . S
H632 C629 0.929 . S
S633 N634 1.613 . S
S633 N635 1.610 . S
N634 S633 1.613 . S
N634 C637 1.350 . S
N635 S633 1.610 . S
N635 C636 1.351 . S
C636 C630 1.428 . S
C636 N635 1.351 . S
C636 C637 1.434 . S
C637 C628 1.429 . S
C637 N634 1.350 . S
C637 C636 1.434 . S
C638 C639 1.369 . S
C638 C640 1.419 . S
C638 H642 0.930 . S
C639 C638 1.369 . S
C639 C648 1.429 . S
C640 C638 1.419 . S
C640 C641 1.363 . S
C640 H643 0.929 . S
C641 C640 1.363 . S
C641 C647 1.428 . S
H642 C638 0.930 . S
H643 C640 0.929 . S
S644 N645 1.613 . S
S644 N646 1.610 1_556 S
N645 S644 1.613 . S
N645 C648 1.350 . S
N646 S644 1.610 1_554 S
N646 C647 1.351 1_554 S
C647 C641 1.428 . S
C647 N646 1.351 1_556 S
C647 C648 1.434 . S
C648 C639 1.429 . S
C648 N645 1.350 . S
C648 C647 1.434 . S
C649 C650 1.369 . S
C649 C651 1.419 . S
C649 H653 0.930 . S
C650 C649 1.369 . S
C650 C659 1.429 . S
C651 C649 1.419 . S
C651 C652 1.363 . S
C651 H654 0.929 . S
C652 C651 1.363 . S
C652 C658 1.428 . S
H653 C649 0.930 . S
H654 C651 0.929 . S
S655 N656 1.613 . S
S655 N657 1.610 . S
N656 S655 1.613 . S
N656 C659 1.350 . S
N657 S655 1.610 . S
N657 C658 1.351 . S
C658 C652 1.428 . S
C658 N657 1.351 . S
C658 C659 1.434 . S
C659 C650 1.429 . S
C659 N656 1.350 . S
C659 C658 1.434 . S
C660 C661 1.369 . S
C660 C662 1.419 . S
C660 H664 0.930 . S
C661 C660 1.369 . S
C661 C670 1.429 . S
C662 C660 1.419 . S
C662 C663 1.363 . S
C662 H665 0.929 . S
C663 C662 1.363 . S
C663 C669 1.428 . S
H664 C660 0.930 . S
H665 C662 0.929 . S
S666 N667 1.613 1_455 S
S666 N668 1.610 . S
N667 S666 1.613 1_655 S
N667 C670 1.350 . S
N668 S666 1.610 . S
N668 C669 1.351 1_455 S
C669 C663 1.428 . S
C669 N668 1.351 1_655 S
C669 C670 1.434 . S
C670 C661 1.429 . S
C670 N667 1.350 . S
C670 C669 1.434 . S
C671 C672 1.369 . S
C671 C673 1.419 . S
C671 H675 0.930 . S
C672 C671 1.369 . S
C672 C681 1.429 . S
C673 C671 1.419 . S
C673 C674 1.363 . S
C673 H676 0.929 . S
C674 C673 1.363 . S
C674 C680 1.428 . S
H675 C671 0.930 . S
H676 C673 0.929 . S
S677 N678 1.613 . S
S677 N679 1.610 . S
N678 S677 1.613 . S
N678 C681 1.350 . S
N679 S677 1.610 . S
N679 C680 1.351 . S
C680 C674 1.428 . S
C680 N679 1.351 . S
C680 C681 1.434 . S
C681 C672 1.429 . S
C681 N678 1.350 . S
C681 C680 1.434 . S
C682 C683 1.369 . S
C682 C684 1.419 . S
C682 H686 0.930 . S
C683 C682 1.369 . S
C683 C692 1.429 . S
C684 C682 1.419 . S
C684 C685 1.363 . S
C684 H687 0.929 . S
C685 C684 1.363 . S
C685 C691 1.428 . S
H686 C682 0.930 . S
H687 C684 0.929 . S
S688 N689 1.613 . S
S688 N690 1.610 . S
N689 S688 1.613 . S
N689 C692 1.350 . S
N690 S688 1.610 . S
N690 C691 1.351 . S
C691 C685 1.428 . S
C691 N690 1.351 . S
C691 C692 1.434 . S
C692 C683 1.429 . S
C692 N689 1.350 . S
C692 C691 1.434 . S
C693 C694 1.369 1_545 S
C693 C695 1.419 . S
C693 H697 0.930 . S
C694 C693 1.369 1_565 S
C694 C703 1.429 . S
C695 C693 1.419 . S
C695 C696 1.363 1_545 S
C695 H698 0.929 . S
C696 C695 1.363 1_565 S
C696 C702 1.428 . S
H697 C693 0.930 . S
H698 C695 0.929 . S
S699 N700 1.613 . S
S699 N701 1.610 . S
N700 S699 1.613 . S
N700 C703 1.350 . S
N701 S699 1.610 . S
N701 C702 1.351 . S
C702 C696 1.428 . S
C702 N701 1.351 . S
C702 C703 1.434 . S
C703 C694 1.429 . S
C703 N700 1.350 . S
C703 C702 1.434 . S
C704 C705 1.369 . S
C704 C706 1.419 . S
C704 H708 0.930 . S
C705 C704 1.369 . S
C705 C714 1.429 . S
C706 C704 1.419 . S
C706 C707 1.363 . S
C706 H709 0.929 . S
C707 C706 1.363 . S
C707 C713 1.428 . S
H708 C704 0.930 . S
H709 C706 0.929 . S
S710 N711 1.613 . S
S710 N712 1.610 . S
N711 S710 1.613 . S
N711 C714 1.350 . S
N712 S710 1.610 . S
N712 C713 1.351 . S
C713 C707 1.428 . S
C713 N712 1.351 . S
C713 C714 1.434 . S
C714 C705 1.429 . S
C714 N711 1.350 . S
C714 C713 1.434 . S
C715 C716 1.369 . S
C715 C717 1.419 . S
C715 H719 0.930 . S
C716 C715 1.369 . S
C716 C725 1.429 . S
C717 C715 1.419 . S
C717 C718 1.363 . S
C717 H720 0.929 . S
C718 C717 1.363 . S
C718 C724 1.428 . S
H719 C715 0.930 . S
H720 C717 0.929 . S
S721 N722 1.613 1_554 S
S721 N723 1.610 . S
N722 S721 1.613 1_556 S
N722 C725 1.350 1_556 S
N723 S721 1.610 . S
N723 C724 1.351 . S
C724 C718 1.428 . S
C724 N723 1.351 . S
C724 C725 1.434 . S
C725 C716 1.429 . S
C725 N722 1.350 1_554 S
C725 C724 1.434 . S
C726 C727 1.369 . S
C726 C728 1.419 . S
C726 H730 0.930 . S
C727 C726 1.369 . S
C727 C736 1.429 . S
C728 C726 1.419 . S
C728 C729 1.363 . S
C728 H731 0.929 1_455 S
C729 C728 1.363 . S
C729 C735 1.428 . S
H730 C726 0.930 . S
H731 C728 0.929 1_655 S
S732 N733 1.613 . S
S732 N734 1.610 . S
N733 S732 1.613 . S
N733 C736 1.350 . S
N734 S732 1.610 . S
N734 C735 1.351 . S
C735 C729 1.428 . S
C735 N734 1.351 . S
C735 C736 1.434 . S
C736 C727 1.429 . S
C736 N733 1.350 . S
C736 C735 1.434 . S
C737 C738 1.369 . S
C737 C739 1.419 . S
C737 H741 0.930 . S
C738 C737 1.369 . S
C738 C747 1.429 . S
C739 C737 1.419 . S
C739 C740 1.363 . S
C739 H742 0.929 . S
C740 C739 1.363 . S
C740 C746 1.428 . S
H741 C737 0.930 . S
H742 C739 0.929 . S
S743 N744 1.613 . S
S743 N745 1.610 . S
N744 S743 1.613 . S
N744 C747 1.350 . S
N745 S743 1.610 . S
N745 C746 1.351 . S
C746 C740 1.428 . S
C746 N745 1.351 . S
C746 C747 1.434 . S
C747 C738 1.429 . S
C747 N744 1.350 . S
C747 C746 1.434 . S
C748 C749 1.369 . S
C748 C750 1.419 . S
C748 H752 0.930 . S
C749 C748 1.369 . S
C749 C758 1.429 . S
C750 C748 1.419 . S
C750 C751 1.363 . S
C750 H753 0.929 . S
C751 C750 1.363 . S
C751 C757 1.428 . S
H752 C748 0.930 . S
H753 C750 0.929 . S
S754 N755 1.613 . S
S754 N756 1.610 . S
N755 S754 1.613 . S
N755 C758 1.350 . S
N756 S754 1.610 . S
N756 C757 1.351 . S
C757 C751 1.428 . S
C757 N756 1.351 . S
C757 C758 1.434 . S
C758 C749 1.429 . S
C758 N755 1.350 . S
C758 C757 1.434 . S
C759 C760 1.369 . S
C759 C761 1.419 . S
C759 H763 0.930 . S
C760 C759 1.369 . S
C760 C769 1.429 . S
C761 C759 1.419 . S
C761 C762 1.363 . S
C761 H764 0.929 . S
C762 C761 1.363 . S
C762 C768 1.428 . S
H763 C759 0.930 . S
H764 C761 0.929 . S
S765 N766 1.613 1_565 S
S765 N767 1.610 . S
N766 S765 1.613 1_545 S
N766 C769 1.350 . S
N767 S765 1.610 . S
N767 C768 1.351 1_565 S
C768 C762 1.428 . S
C768 N767 1.351 1_545 S
C768 C769 1.434 . S
C769 C760 1.429 . S
C769 N766 1.350 . S
C769 C768 1.434 . S
C770 C771 1.369 . S
C770 C772 1.419 . S
C770 H774 0.930 . S
C771 C770 1.369 . S
C771 C780 1.429 . S
C772 C770 1.419 . S
C772 C773 1.363 . S
C772 H775 0.929 . S
C773 C772 1.363 . S
C773 C779 1.428 1_455 S
H774 C770 0.930 . S
H775 C772 0.929 . S
S776 N777 1.613 1_655 S
S776 N778 1.610 . S
N777 S776 1.613 1_455 S
N777 C780 1.350 . S
N778 S776 1.610 . S
N778 C779 1.351 . S
C779 C773 1.428 1_655 S
C779 N778 1.351 . S
C779 C780 1.434 1_655 S
C780 C771 1.429 . S
C780 N777 1.350 . S
C780 C779 1.434 1_455 S
C781 C782 1.369 . S
C781 C783 1.419 . S
C781 H785 0.930 . S
C782 C781 1.369 . S
C782 C791 1.429 . S
C783 C781 1.419 . S
C783 C784 1.363 . S
C783 H786 0.929 . S
C784 C783 1.363 . S
C784 C790 1.428 . S
H785 C781 0.930 . S
H786 C783 0.929 . S
S787 N788 1.613 . S
S787 N789 1.610 . S
N788 S787 1.613 . S
N788 C791 1.350 . S
N789 S787 1.610 . S
N789 C790 1.351 . S
C790 C784 1.428 . S
C790 N789 1.351 . S
C790 C791 1.434 . S
C791 C782 1.429 . S
C791 N788 1.350 . S
C791 C790 1.434 . S
C792 C793 1.369 . S
C792 C794 1.419 . S
C792 H796 0.930 . S
C793 C792 1.369 . S
C793 C802 1.429 . S
C794 C792 1.419 . S
C794 C795 1.363 . S
C794 H797 0.929 . S
C795 C794 1.363 . S
C795 C801 1.428 . S
H796 C792 0.930 . S
H797 C794 0.929 . S
S798 N799 1.613 . S
S798 N800 1.610 . S
N799 S798 1.613 . S
N799 C802 1.350 . S
N800 S798 1.610 . S
N800 C801 1.351 . S
C801 C795 1.428 . S
C801 N800 1.351 . S
C801 C802 1.434 . S
C802 C793 1.429 . S
C802 N799 1.350 . S
C802 C801 1.434 . S
C803 C804 1.369 . S
C803 C805 1.419 . S
C803 H807 0.930 . S
C804 C803 1.369 . S
C804 C813 1.429 . S
C805 C803 1.419 . S
C805 C806 1.363 . S
C805 H808 0.929 . S
C806 C805 1.363 . S
C806 C812 1.428 . S
H807 C803 0.930 . S
H808 C805 0.929 . S
S809 N810 1.613 . S
S809 N811 1.610 . S
N810 S809 1.613 . S
N810 C813 1.350 . S
N811 S809 1.610 . S
N811 C812 1.351 . S
C812 C806 1.428 . S
C812 N811 1.351 . S
C812 C813 1.434 . S
C813 C804 1.429 . S
C813 N810 1.350 . S
C813 C812 1.434 . S
C814 C815 1.369 . S
C814 C816 1.419 . S
C814 H818 0.930 . S
C815 C814 1.369 . S
C815 C824 1.429 . S
C816 C814 1.419 . S
C816 C817 1.363 . S
C816 H819 0.929 . S
C817 C816 1.363 . S
C817 C823 1.428 . S
H818 C814 0.930 . S
H819 C816 0.929 . S
S820 N821 1.613 . S
S820 N822 1.610 . S
N821 S820 1.613 . S
N821 C824 1.350 . S
N822 S820 1.610 . S
N822 C823 1.351 . S
C823 C817 1.428 . S
C823 N822 1.351 . S
C823 C824 1.434 . S
C824 C815 1.429 . S
C824 N821 1.350 . S
C824 C823 1.434 . S
C825 C826 1.369 . S
C825 C827 1.419 . S
C825 H829 0.930 . S
C826 C825 1.369 . S
C826 C835 1.429 . S
C827 C825 1.419 . S
C827 C828 1.363 . S
C827 H830 0.929 . S
C828 C827 1.363 . S
C828 C834 1.428 . S
H829 C825 0.930 . S
H830 C827 0.929 . S
S831 N832 1.613 . S
S831 N833 1.610 . S
N832 S831 1.613 . S
N832 C835 1.350 . S
N833 S831 1.610 . S
N833 C834 1.351 . S
C834 C828 1.428 . S
C834 N833 1.351 . S
C834 C835 1.434 . S
C835 C826 1.429 . S
C835 N832 1.350 . S
C835 C834 1.434 . S
C836 C837 1.369 . S
C836 C838 1.419 . S
C836 H840 0.930 . S
C837 C836 1.369 . S
C837 C846 1.429 . S
C838 C836 1.419 . S
C838 C839 1.363 . S
C838 H841 0.929 . S
C839 C838 1.363 . S
C839 C845 1.428 . S
H840 C836 0.930 . S
H841 C838 0.929 . S
S842 N843 1.613 . S
S842 N844 1.610 . S
N843 S842 1.613 . S
N843 C846 1.350 . S
N844 S842 1.610 . S
N844 C845 1.351 . S
C845 C839 1.428 . S
C845 N844 1.351 . S
C845 C846 1.434 . S
C846 C837 1.429 . S
C846 N843 1.350 . S
C846 C845 1.434 . S
C847 C848 1.369 . S
C847 C849 1.419 . S
C847 H851 0.930 . S
C848 C847 1.369 . S
C848 C857 1.429 . S
C849 C847 1.419 . S
C849 C850 1.363 . S
C849 H852 0.929 . S
C850 C849 1.363 . S
C850 C856 1.428 . S
H851 C847 0.930 . S
H852 C849 0.929 . S
S853 N854 1.613 . S
S853 N855 1.610 . S
N854 S853 1.613 . S
N854 C857 1.350 . S
N855 S853 1.610 . S
N855 C856 1.351 . S
C856 C850 1.428 . S
C856 N855 1.351 . S
C856 C857 1.434 . S
C857 C848 1.429 . S
C857 N854 1.350 . S
C857 C856 1.434 . S
C858 C859 1.369 . S
C858 C860 1.419 . S
C858 H862 0.930 . S
C859 C858 1.369 . S
C859 C868 1.429 . S
C860 C858 1.419 . S
C860 C861 1.363 . S
C860 H863 0.929 . S
C861 C860 1.363 . S
C861 C867 1.428 . S
H862 C858 0.930 . S
H863 C860 0.929 . S
S864 N865 1.613 . S
S864 N866 1.610 . S
N865 S864 1.613 . S
N865 C868 1.350 . S
N866 S864 1.610 . S
N866 C867 1.351 . S
C867 C861 1.428 . S
C867 N866 1.351 . S
C867 C868 1.434 . S
C868 C859 1.429 . S
C868 N865 1.350 . S
C868 C867 1.434 . S
C869 C870 1.369 . S
C869 C871 1.419 . S
C869 H873 0.930 . S
C870 C869 1.369 . S
C870 C879 1.429 . S
C871 C869 1.419 . S
C871 C872 1.363 . S
C871 H874 0.929 . S
C872 C871 1.363 . S
C872 C878 1.428 . S
H873 C869 0.930 . S
H874 C871 0.929 . S
S875 N876 1.613 . S
S875 N877 1.610 . S
N876 S875 1.613 . S
N876 C879 1.350 . S
N877 S875 1.610 . S
N877 C878 1.351 . S
C878 C872 1.428 . S
C878 N877 1.351 . S
C878 C879 1.434 . S
C879 C870 1.429 . S
C879 N876 1.350 . S
C879 C878 1.434 . S
C880 C881 1.369 . S
C880 C882 1.419 . S
C880 H884 0.930 . S
C881 C880 1.369 . S
C881 C890 1.429 . S
C882 C880 1.419 . S
C882 C883 1.363 . S
C882 H885 0.929 . S
C883 C882 1.363 . S
C883 C889 1.428 . S
H884 C880 0.930 . S
H885 C882 0.929 . S
S886 N887 1.613 . S
S886 N888 1.610 . S
N887 S886 1.613 . S
N887 C890 1.350 . S
N888 S886 1.610 . S
N888 C889 1.351 . S
C889 C883 1.428 . S
C889 N888 1.351 . S
C889 C890 1.434 . S
C890 C881 1.429 . S
C890 N887 1.350 . S
C890 C889 1.434 . S
C891 C892 1.369 . S
C891 C893 1.419 . S
C891 H895 0.930 . S
C892 C891 1.369 . S
C892 C901 1.429 . S
C893 C891 1.419 . S
C893 C894 1.363 . S
C893 H896 0.929 . S
C894 C893 1.363 . S
C894 C900 1.428 . S
H895 C891 0.930 . S
H896 C893 0.929 . S
S897 N898 1.613 . S
S897 N899 1.610 . S
N898 S897 1.613 . S
N898 C901 1.350 . S
N899 S897 1.610 . S
N899 C900 1.351 . S
C900 C894 1.428 . S
C900 N899 1.351 . S
C900 C901 1.434 . S
C901 C892 1.429 . S
C901 N898 1.350 . S
C901 C900 1.434 . S
C902 C903 1.369 . S
C902 C904 1.419 . S
C902 H906 0.930 . S
C903 C902 1.369 . S
C903 C912 1.429 . S
C904 C902 1.419 . S
C904 C905 1.363 . S
C904 H907 0.929 . S
C905 C904 1.363 . S
C905 C911 1.428 . S
H906 C902 0.930 . S
H907 C904 0.929 . S
S908 N909 1.613 . S
S908 N910 1.610 . S
N909 S908 1.613 . S
N909 C912 1.350 . S
N910 S908 1.610 . S
N910 C911 1.351 . S
C911 C905 1.428 . S
C911 N910 1.351 . S
C911 C912 1.434 . S
C912 C903 1.429 . S
C912 N909 1.350 . S
C912 C911 1.434 . S
C913 C914 1.369 . S
C913 C915 1.419 . S
C913 H917 0.930 . S
C914 C913 1.369 . S
C914 C923 1.429 . S
C915 C913 1.419 . S
C915 C916 1.363 . S
C915 H918 0.929 . S
C916 C915 1.363 . S
C916 C922 1.428 . S
H917 C913 0.930 . S
H918 C915 0.929 . S
S919 N920 1.613 . S
S919 N921 1.610 . S
N920 S919 1.613 . S
N920 C923 1.350 . S
N921 S919 1.610 . S
N921 C922 1.351 . S
C922 C916 1.428 . S
C922 N921 1.351 . S
C922 C923 1.434 . S
C923 C914 1.429 . S
C923 N920 1.350 . S
C923 C922 1.434 . S
C924 C925 1.369 1_556 S
C924 C926 1.419 . S
C924 H928 0.930 . S
C925 C924 1.369 1_554 S
C925 C934 1.429 . S
C926 C924 1.419 . S
C926 C927 1.363 . S
C926 H929 0.929 . S
C927 C926 1.363 . S
C927 C933 1.428 1_556 S
H928 C924 0.930 . S
H929 C926 0.929 . S
S930 N931 1.613 . S
S930 N932 1.610 1_655 S
N931 S930 1.613 . S
N931 C934 1.350 1_655 S
N932 S930 1.610 1_455 S
N932 C933 1.351 . S
C933 C927 1.428 1_554 S
C933 N932 1.351 . S
C933 C934 1.434 . S
C934 C925 1.429 . S
C934 N931 1.350 1_455 S
C934 C933 1.434 . S
C935 C936 1.369 . S
C935 C937 1.419 . S
C935 H939 0.930 . S
C936 C935 1.369 . S
C936 C945 1.429 1_556 S
C937 C935 1.419 . S
C937 C938 1.363 1_556 S
C937 H940 0.929 . S
C938 C937 1.363 1_554 S
C938 C944 1.428 . S
H939 C935 0.930 . S
H940 C937 0.929 . S
S941 N942 1.613 . S
S941 N943 1.610 . S
N942 S941 1.613 . S
N942 C945 1.350 . S
N943 S941 1.610 . S
N943 C944 1.351 . S
C944 C938 1.428 . S
C944 N943 1.351 . S
C944 C945 1.434 . S
C945 C936 1.429 1_554 S
C945 N942 1.350 . S
C945 C944 1.434 . S
C946 C947 1.369 . S
C946 C948 1.419 1_554 S
C946 H950 0.930 . S
C947 C946 1.369 . S
C947 C956 1.429 . S
C948 C946 1.419 1_556 S
C948 C949 1.363 . S
C948 H951 0.929 . S
C949 C948 1.363 . S
C949 C955 1.428 . S
H950 C946 0.930 . S
H951 C948 0.929 . S
S952 N953 1.613 1_565 S
S952 N954 1.610 1_554 S
N953 S952 1.613 1_545 S
N953 C956 1.350 . S
N954 S952 1.610 1_556 S
N954 C955 1.351 1_565 S
C955 C949 1.428 . S
C955 N954 1.351 1_545 S
C955 C956 1.434 1_556 S
C956 C947 1.429 . S
C956 N953 1.350 . S
C956 C955 1.434 1_554 S
C957 C958 1.369 . S
C957 C959 1.419 . S
C957 H961 0.930 . S
C958 C957 1.369 . S
C958 C967 1.429 . S
C959 C957 1.419 . S
C959 C960 1.363 . S
C959 H962 0.929 1_545 S
C960 C959 1.363 . S
C960 C966 1.428 . S
H961 C957 0.930 . S
H962 C959 0.929 1_565 S
S963 N964 1.613 . S
S963 N965 1.610 . S
N964 S963 1.613 . S
N964 C967 1.350 . S
N965 S963 1.610 . S
N965 C966 1.351 . S
C966 C960 1.428 . S
C966 N965 1.351 . S
C966 C967 1.434 . S
C967 C958 1.429 . S
C967 N964 1.350 . S
C967 C966 1.434 . S
C968 C969 1.369 . S
C968 C970 1.419 . S
C968 H972 0.930 . S
C969 C968 1.369 . S
C969 C978 1.429 . S
C970 C968 1.419 . S
C970 C971 1.363 . S
C970 H973 0.929 . S
C971 C970 1.363 . S
C971 C977 1.428 . S
H972 C968 0.930 . S
H973 C970 0.929 . S
S974 N975 1.613 . S
S974 N976 1.610 . S
N975 S974 1.613 . S
N975 C978 1.350 . S
N976 S974 1.610 . S
N976 C977 1.351 . S
C977 C971 1.428 . S
C977 N976 1.351 . S
C977 C978 1.434 . S
C978 C969 1.429 . S
C978 N975 1.350 . S
C978 C977 1.434 . S
C979 C980 1.369 . S
C979 C981 1.419 . S
C979 H983 0.930 . S
C980 C979 1.369 . S
C980 C989 1.429 . S
C981 C979 1.419 . S
C981 C982 1.363 . S
C981 H984 0.929 . S
C982 C981 1.363 . S
C982 C988 1.428 . S
H983 C979 0.930 . S
H984 C981 0.929 . S
S985 N986 1.613 . S
S985 N987 1.610 . S
N986 S985 1.613 . S
N986 C989 1.350 . S
N987 S985 1.610 . S
N987 C988 1.351 . S
C988 C982 1.428 . S
C988 N987 1.351 . S
C988 C989 1.434 . S
C989 C980 1.429 . S
C989 N986 1.350 . S
C989 C988 1.434 . S
C397 C59 1.456 . S
C399 C15 1.454 . S
C408 C10 1.435 . S
C410 C29 1.408 1_545 S
C419 C40 1.397 . S
C421 C54 1.392 1_565 S
C430 C87 1.457 . S
C432 C131 1.460 1_565 S
C441 C74 1.443 1_545 S
C443 C109 1.421 . S
C452 C96 1.400 . S
C454 C118 1.405 . S
C463 C194 1.428 . S
C465 C147 1.399 . S
C474 C169 1.411 . S
C476 C142 1.428 . S
C485 C164 1.438 . S
C487 C183 1.409 . S
C496 C206 1.432 . S
C498 C257 1.414 . S
C507 C219 1.410 . S
C509 C228 1.444 . S
C518 C252 1.443 . S
C520 C241 1.420 . S
C529 C323 1.439 . S
C531 C271 1.447 . S
C540 C282 1.416 . S
C542 C293 1.401 . S
C551 C304 1.374 . S
C553 C318 1.386 . S
C562 C381 1.457 . S
C564 C351 1.450 . S
C573 C373 1.408 . S
C575 C338 1.437 . S
C584 C392 1.396 . S
C586 C360 1.396 . S
C595 C21 1.843 . S
C597 C294 1.860 . S
C606 C329 1.872 . S
C608 C37 1.876 . S
C617 C62 1.852 . S
C619 C272 1.829 . S
C628 C175 1.891 . S
C630 C65 1.889 . S
C639 C18 1.869 1_655 S
C641 C191 1.851 . S
C650 C153 1.844 . S
C652 C30 1.862 . S
C661 C235 1.886 . S
C663 C81 1.885 1_655 S
C672 C103 1.882 . S
C674 C249 1.885 . S
C683 C213 1.842 . S
C685 C128 1.860 . S
C694 C125 1.876 1_565 S
C696 C367 1.872 . S
C705 C384 1.826 . S
C707 C84 1.826 . S
C716 C345 1.838 . S
C718 C106 1.860 . S
C727 C301 1.842 . S
C729 C184 1.858 1_455 S
C738 C326 1.820 . S
C740 C150 1.818 . S
C749 C172 1.861 . S
C751 C279 1.846 1_545 S
C760 C216 1.810 . S
C762 C370 1.814 1_545 S
C771 C395 1.838 . S
C773 C238 1.857 1_455 S
C782 C250 1.813 . S
C784 C348 1.815 . S
C793 C7 1.243 . S
C795 C337 1.238 . S
C804 C43 1.253 . S
C806 C359 1.243 . S
C815 C382 1.204 . S
C817 C52 1.212 . S
C826 C263 1.239 . S
C828 C51 1.244 . S
C837 C205 1.222 . S
C839 C8 1.226 . S
C848 C32 1.242 . S
C850 C227 1.240 . S
C859 C73 1.236 . S
C861 C139 1.238 . S
C870 C95 1.248 . S
C872 C161 1.258 . S
C881 C120 1.235 . S
C883 C197 1.243 . S
C892 C117 1.223 . S
C894 C315 1.225 . S
C903 C76 1.175 . S
C905 C274 1.188 . S
C914 C296 1.190 . S
C916 C98 1.189 . S
C925 C186 1.190 1_455 S
C927 C389 1.193 . S
C936 C340 1.173 . S
C938 C140 1.180 . S
C947 C162 1.199 . S
C949 C362 1.188 . S
C958 C208 1.180 . S
C960 C285 1.195 . S
C969 C230 1.200 1_455 S
C971 C307 1.212 . S
C980 C316 1.197 . S
C982 C260 1.186 . S
