# Generated by pormake.
# Topology umv, (4)-cn, num edge types: 1
# Building blocks:
#     Node 0, Type 0, BuildingBlock: KUFVIS_clean_sbu_0, # of connection points: 4
#     Node 1, Type 0, BuildingBlock: KUFVIS_clean_sbu_0, # of connection points: 4
#     Node 2, Type 0, BuildingBlock: KUFVIS_clean_sbu_0, # of connection points: 4
#     Node 3, Type 0, BuildingBlock: KUFVIS_clean_sbu_0, # of connection points: 4
#     Node 4, Type 0, BuildingBlock: KUFVIS_clean_sbu_0, # of connection points: 4
#     Node 5, Type 0, BuildingBlock: KUFVIS_clean_sbu_0, # of connection points: 4
#     Node 6, Type 0, BuildingBlock: KUFVIS_clean_sbu_0, # of connection points: 4
#     Node 7, Type 0, BuildingBlock: KUFVIS_clean_sbu_0, # of connection points: 4
#     Node 8, Type 0, BuildingBlock: KUFVIS_clean_sbu_0, # of connection points: 4
#     Node 9, Type 0, BuildingBlock: KUFVIS_clean_sbu_0, # of connection points: 4
#     Node 10, Type 0, BuildingBlock: KUFVIS_clean_sbu_0, # of connection points: 4
#     Node 11, Type 0, BuildingBlock: KUFVIS_clean_sbu_0, # of connection points: 4
#     Node 12, Type 0, BuildingBlock: KUFVIS_clean_sbu_0, # of connection points: 4
#     Node 13, Type 0, BuildingBlock: KUFVIS_clean_sbu_0, # of connection points: 4
#     Node 14, Type 0, BuildingBlock: KUFVIS_clean_sbu_0, # of connection points: 4
#     Node 15, Type 0, BuildingBlock: KUFVIS_clean_sbu_0, # of connection points: 4
#     Node 16, Type 0, BuildingBlock: KUFVIS_clean_sbu_0, # of connection points: 4
#     Node 17, Type 0, BuildingBlock: KUFVIS_clean_sbu_0, # of connection points: 4
#     Node 18, Type 0, BuildingBlock: KUFVIS_clean_sbu_0, # of connection points: 4
#     Node 19, Type 0, BuildingBlock: KUFVIS_clean_sbu_0, # of connection points: 4
#     Node 20, Type 0, BuildingBlock: KUFVIS_clean_sbu_0, # of connection points: 4
#     Node 21, Type 0, BuildingBlock: KUFVIS_clean_sbu_0, # of connection points: 4
#     Node 22, Type 0, BuildingBlock: KUFVIS_clean_sbu_0, # of connection points: 4
#     Node 23, Type 0, BuildingBlock: KUFVIS_clean_sbu_0, # of connection points: 4
#     Node 24, Type 0, BuildingBlock: KUFVIS_clean_sbu_0, # of connection points: 4
#     Node 25, Type 0, BuildingBlock: KUFVIS_clean_sbu_0, # of connection points: 4
#     Node 26, Type 0, BuildingBlock: KUFVIS_clean_sbu_0, # of connection points: 4
#     Node 27, Type 0, BuildingBlock: KUFVIS_clean_sbu_0, # of connection points: 4
#     Node 28, Type 0, BuildingBlock: KUFVIS_clean_sbu_0, # of connection points: 4
#     Node 29, Type 0, BuildingBlock: KUFVIS_clean_sbu_0, # of connection points: 4
#     Node 30, Type 0, BuildingBlock: KUFVIS_clean_sbu_0, # of connection points: 4
#     Node 31, Type 0, BuildingBlock: KUFVIS_clean_sbu_0, # of connection points: 4
#     Edge 32, Type (0, 0), BuildingBlock: UVAHIK_clean_linker_0, # of connection points: 2
#     Edge 33, Type (0, 0), BuildingBlock: UVAHIK_clean_linker_0, # of connection points: 2
#     Edge 34, Type (0, 0), BuildingBlock: UVAHIK_clean_linker_0, # of connection points: 2
#     Edge 35, Type (0, 0), BuildingBlock: UVAHIK_clean_linker_0, # of connection points: 2
#     Edge 36, Type (0, 0), BuildingBlock: UVAHIK_clean_linker_0, # of connection points: 2
#     Edge 37, Type (0, 0), BuildingBlock: UVAHIK_clean_linker_0, # of connection points: 2
#     Edge 38, Type (0, 0), BuildingBlock: UVAHIK_clean_linker_0, # of connection points: 2
#     Edge 39, Type (0, 0), BuildingBlock: UVAHIK_clean_linker_0, # of connection points: 2
#     Edge 40, Type (0, 0), BuildingBlock: UVAHIK_clean_linker_0, # of connection points: 2
#     Edge 41, Type (0, 0), BuildingBlock: UVAHIK_clean_linker_0, # of connection points: 2
#     Edge 42, Type (0, 0), BuildingBlock: UVAHIK_clean_linker_0, # of connection points: 2
#     Edge 43, Type (0, 0), BuildingBlock: UVAHIK_clean_linker_0, # of connection points: 2
#     Edge 44, Type (0, 0), BuildingBlock: UVAHIK_clean_linker_0, # of connection points: 2
#     Edge 45, Type (0, 0), BuildingBlock: UVAHIK_clean_linker_0, # of connection points: 2
#     Edge 46, Type (0, 0), BuildingBlock: UVAHIK_clean_linker_0, # of connection points: 2
#     Edge 47, Type (0, 0), BuildingBlock: UVAHIK_clean_linker_0, # of connection points: 2
#     Edge 48, Type (0, 0), BuildingBlock: UVAHIK_clean_linker_0, # of connection points: 2
#     Edge 49, Type (0, 0), BuildingBlock: UVAHIK_clean_linker_0, # of connection points: 2
#     Edge 50, Type (0, 0), BuildingBlock: UVAHIK_clean_linker_0, # of connection points: 2
#     Edge 51, Type (0, 0), BuildingBlock: UVAHIK_clean_linker_0, # of connection points: 2
#     Edge 52, Type (0, 0), BuildingBlock: UVAHIK_clean_linker_0, # of connection points: 2
#     Edge 53, Type (0, 0), BuildingBlock: UVAHIK_clean_linker_0, # of connection points: 2
#     Edge 54, Type (0, 0), BuildingBlock: UVAHIK_clean_linker_0, # of connection points: 2
#     Edge 55, Type (0, 0), BuildingBlock: UVAHIK_clean_linker_0, # of connection points: 2
#     Edge 56, Type (0, 0), BuildingBlock: UVAHIK_clean_linker_0, # of connection points: 2
#     Edge 57, Type (0, 0), BuildingBlock: UVAHIK_clean_linker_0, # of connection points: 2
#     Edge 58, Type (0, 0), BuildingBlock: UVAHIK_clean_linker_0, # of connection points: 2
#     Edge 59, Type (0, 0), BuildingBlock: UVAHIK_clean_linker_0, # of connection points: 2
#     Edge 60, Type (0, 0), BuildingBlock: UVAHIK_clean_linker_0, # of connection points: 2
#     Edge 61, Type (0, 0), BuildingBlock: UVAHIK_clean_linker_0, # of connection points: 2
#     Edge 62, Type (0, 0), BuildingBlock: UVAHIK_clean_linker_0, # of connection points: 2
#     Edge 63, Type (0, 0), BuildingBlock: UVAHIK_clean_linker_0, # of connection points: 2
#     Edge 64, Type (0, 0), BuildingBlock: UVAHIK_clean_linker_0, # of connection points: 2
#     Edge 65, Type (0, 0), BuildingBlock: UVAHIK_clean_linker_0, # of connection points: 2
#     Edge 66, Type (0, 0), BuildingBlock: UVAHIK_clean_linker_0, # of connection points: 2
#     Edge 67, Type (0, 0), BuildingBlock: UVAHIK_clean_linker_0, # of connection points: 2
#     Edge 68, Type (0, 0), BuildingBlock: UVAHIK_clean_linker_0, # of connection points: 2
#     Edge 69, Type (0, 0), BuildingBlock: UVAHIK_clean_linker_0, # of connection points: 2
#     Edge 70, Type (0, 0), BuildingBlock: UVAHIK_clean_linker_0, # of connection points: 2
#     Edge 71, Type (0, 0), BuildingBlock: UVAHIK_clean_linker_0, # of connection points: 2
#     Edge 72, Type (0, 0), BuildingBlock: UVAHIK_clean_linker_0, # of connection points: 2
#     Edge 73, Type (0, 0), BuildingBlock: UVAHIK_clean_linker_0, # of connection points: 2
#     Edge 74, Type (0, 0), BuildingBlock: UVAHIK_clean_linker_0, # of connection points: 2
#     Edge 75, Type (0, 0), BuildingBlock: UVAHIK_clean_linker_0, # of connection points: 2
#     Edge 76, Type (0, 0), BuildingBlock: UVAHIK_clean_linker_0, # of connection points: 2
#     Edge 77, Type (0, 0), BuildingBlock: UVAHIK_clean_linker_0, # of connection points: 2
#     Edge 78, Type (0, 0), BuildingBlock: UVAHIK_clean_linker_0, # of connection points: 2
#     Edge 79, Type (0, 0), BuildingBlock: UVAHIK_clean_linker_0, # of connection points: 2
#     Edge 80, Type (0, 0), BuildingBlock: UVAHIK_clean_linker_0, # of connection points: 2
#     Edge 81, Type (0, 0), BuildingBlock: UVAHIK_clean_linker_0, # of connection points: 2
#     Edge 82, Type (0, 0), BuildingBlock: UVAHIK_clean_linker_0, # of connection points: 2
#     Edge 83, Type (0, 0), BuildingBlock: UVAHIK_clean_linker_0, # of connection points: 2
#     Edge 84, Type (0, 0), BuildingBlock: UVAHIK_clean_linker_0, # of connection points: 2
#     Edge 85, Type (0, 0), BuildingBlock: UVAHIK_clean_linker_0, # of connection points: 2
#     Edge 86, Type (0, 0), BuildingBlock: UVAHIK_clean_linker_0, # of connection points: 2
#     Edge 87, Type (0, 0), BuildingBlock: UVAHIK_clean_linker_0, # of connection points: 2
#     Edge 88, Type (0, 0), BuildingBlock: UVAHIK_clean_linker_0, # of connection points: 2
#     Edge 89, Type (0, 0), BuildingBlock: UVAHIK_clean_linker_0, # of connection points: 2
#     Edge 90, Type (0, 0), BuildingBlock: UVAHIK_clean_linker_0, # of connection points: 2
#     Edge 91, Type (0, 0), BuildingBlock: UVAHIK_clean_linker_0, # of connection points: 2
#     Edge 92, Type (0, 0), BuildingBlock: UVAHIK_clean_linker_0, # of connection points: 2
#     Edge 93, Type (0, 0), BuildingBlock: UVAHIK_clean_linker_0, # of connection points: 2
#     Edge 94, Type (0, 0), BuildingBlock: UVAHIK_clean_linker_0, # of connection points: 2
#     Edge 95, Type (0, 0), BuildingBlock: UVAHIK_clean_linker_0, # of connection points: 2
# Relax obj value: 0.132
# Max RMSD: 0.111
# Mean RMSD: 0.111
data_MOF--net-umv--node1-KUFVIS_clean_sbu_0--edge1-UVAHIK_clean_linker_0
_symmetry_space_group_name_H-M    P1
_symmetry_Int_Tables_number       1
_symmetry_cell_setting            triclinic
loop_
_symmetry_equiv_pos_as_xyz
'x, y, z'
_cell_length_a     135.99269
_cell_length_b     32.148493
_cell_length_c     79.857298
_cell_angle_alpha  89.995115
_cell_angle_beta   89.995971
_cell_angle_gamma 90.000969
loop_
_atom_site_label
_atom_site_type_symbol
_atom_site_fract_x
_atom_site_fract_y
_atom_site_fract_z
_atom_type_partial_charge
Mn0 Mn 0.05235 0.13262 0.3099 0.0
Mn1 Mn 0.06359 0.11649 0.347 0.0
C2 C 0.059 0.18797 0.32454 0.0
C3 C 0.03807 0.14728 0.29478 0.0
C4 C 0.07286 0.09606 0.31333 0.0
O5 O 0.04785 0.07386 0.3165 0.0
O6 O 0.05393 0.07169 0.34285 0.0
C7 C 0.04675 0.12828 0.37004 0.0
N8 N 0.05604 0.13841 0.36514 0.0
C9 C 0.05783 0.1862 0.38813 0.0
C10 C 0.04834 0.17581 0.39357 0.0
C11 C 0.04276 0.14692 0.38442 0.0
C12 C 0.06142 0.16666 0.3737 0.0
H13 H 0.04244 0.10632 0.36299 0.0
C14 C 0.0487 0.05687 0.33092 0.0
O15 O 0.04562 0.12991 0.28767 0.0
O16 O 0.03863 0.15368 0.31077 0.0
N17 N 0.07307 0.15827 0.35263 0.0
C18 C 0.08176 0.16737 0.34497 0.0
C19 C 0.08802 0.19737 0.35203 0.0
C20 C 0.08534 0.21727 0.367 0.0
C21 C 0.0764 0.20712 0.37474 0.0
C22 C 0.07045 0.1771 0.36709 0.0
H23 H 0.08392 0.15198 0.33354 0.0
O24 O 0.05723 0.19136 0.30865 0.0
O25 O 0.05666 0.15281 0.3314 0.0
O26 O 0.06614 0.11143 0.30405 0.0
O27 O 0.07219 0.09376 0.32927 0.0
C28 C 0.07311 0.22599 0.38963 0.0
C29 C 0.06381 0.21572 0.39628 0.0
H30 H 0.04523 0.19019 0.40463 0.0
H31 H 0.03539 0.13904 0.38843 0.0
H32 H 0.0949 0.20503 0.34597 0.0
H33 H 0.09017 0.24047 0.37239 0.0
H34 H 0.07759 0.24909 0.3959 0.0
H35 H 0.06127 0.23117 0.40753 0.0
Mn36 Mn 0.19675 0.10941 0.31041 0.0
Mn37 Mn 0.18436 0.10206 0.34696 0.0
C38 C 0.19266 0.04523 0.32139 0.0
C39 C 0.21169 0.10922 0.29593 0.0
C40 C 0.17466 0.12491 0.31404 0.0
O41 O 0.19869 0.16753 0.32061 0.0
O42 O 0.19067 0.15707 0.34502 0.0
C43 C 0.20133 0.10448 0.37015 0.0
N44 N 0.19315 0.08487 0.3643 0.0
C45 C 0.19511 0.02911 0.38413 0.0
C46 C 0.20353 0.04882 0.39043 0.0
C47 C 0.20667 0.08662 0.38338 0.0
C48 C 0.19009 0.04842 0.37095 0.0
H49 H 0.20377 0.13351 0.36475 0.0
C50 C 0.19569 0.17974 0.335 0.0
O51 O 0.20373 0.12366 0.28903 0.0
O52 O 0.21107 0.09831 0.31149 0.0
N53 N 0.17793 0.04981 0.35046 0.0
C54 C 0.16991 0.03396 0.34246 0.0
C55 C 0.16593 0.9959 0.34781 0.0
C56 C 0.17018 0.97473 0.36139 0.0
C57 C 0.17839 0.99181 0.3695 0.0
C58 C 0.18198 0.03 0.36369 0.0
H59 H 0.16658 0.0502 0.33207 0.0
O60 O 0.19451 0.04903 0.30555 0.0
O61 O 0.19323 0.07892 0.33024 0.0
O62 O 0.18226 0.12216 0.30468 0.0
O63 O 0.17477 0.11884 0.32984 0.0
C64 C 0.18322 0.97218 0.38296 0.0
C65 C 0.1916 0.99074 0.39023 0.0
H66 H 0.20769 0.03508 0.40059 0.0
H67 H 0.21318 0.10193 0.38813 0.0
H68 H 0.1596 0.98291 0.34149 0.0
H69 H 0.16711 0.94532 0.36543 0.0
H70 H 0.18064 0.94252 0.38766 0.0
H71 H 0.19534 0.97505 0.40041 0.0
Mn72 Mn 0.05673 0.10426 0.94213 0.0
Mn73 Mn 0.06834 0.10248 0.90471 0.0
C74 C 0.05998 0.04196 0.92888 0.0
C75 C 0.04209 0.10418 0.95751 0.0
C76 C 0.07886 0.11764 0.93763 0.0
O77 O 0.05514 0.16437 0.93391 0.0
O78 O 0.06255 0.15789 0.90869 0.0
C79 C 0.05101 0.11169 0.88262 0.0
N80 N 0.05912 0.08989 0.88739 0.0
C81 C 0.05638 0.03854 0.86597 0.0
C82 C 0.04802 0.06056 0.86076 0.0
C83 C 0.04531 0.09723 0.86915 0.0
C84 C 0.06177 0.0545 0.87945 0.0
H85 H 0.0489 0.13986 0.88905 0.0
C86 C 0.05794 0.17901 0.91978 0.0
O87 O 0.05035 0.11574 0.9643 0.0
O88 O 0.04229 0.09573 0.94167 0.0
N89 N 0.07426 0.05016 0.89929 0.0
C90 C 0.08224 0.03157 0.90641 0.0
C91 C 0.08579 0.99406 0.89972 0.0
C92 C 0.08115 0.97624 0.88574 0.0
C93 C 0.073 0.99611 0.87856 0.0
C94 C 0.06983 0.03359 0.88569 0.0
H95 H 0.08585 0.04522 0.91712 0.0
O96 O 0.05849 0.0428 0.9449 0.0
O97 O 0.05958 0.07742 0.92119 0.0
O98 O 0.07144 0.11379 0.94734 0.0
O99 O 0.07838 0.11471 0.92171 0.0
C100 C 0.06779 0.97987 0.86478 0.0
C101 C 0.05947 0.001 0.85852 0.0
H102 H 0.04359 0.04943 0.85042 0.0
H103 H 0.03885 0.11429 0.86525 0.0
H104 H 0.09208 0.97889 0.90534 0.0
H105 H 0.08388 0.9472 0.88067 0.0
H106 H 0.07003 0.95083 0.85905 0.0
H107 H 0.05544 0.98788 0.84808 0.0
Mn108 Mn 0.20256 0.13123 0.94133 0.0
Mn109 Mn 0.19129 0.13328 0.90376 0.0
C110 C 0.19717 0.19355 0.93012 0.0
C111 C 0.21718 0.13654 0.95657 0.0
C112 C 0.18148 0.10317 0.93583 0.0
O113 O 0.20593 0.07413 0.93122 0.0
O114 O 0.19997 0.08403 0.90508 0.0
C115 C 0.20856 0.14788 0.88193 0.0
N116 N 0.19944 0.15926 0.8873 0.0
C117 C 0.19909 0.21725 0.86824 0.0
C118 C 0.20839 0.20562 0.86227 0.0
C119 C 0.21317 0.17094 0.86923 0.0
C120 C 0.19485 0.19297 0.88088 0.0
H121 H 0.21231 0.12169 0.88743 0.0
C122 C 0.20481 0.063 0.91593 0.0
O123 O 0.20941 0.11927 0.96306 0.0
O124 O 0.21659 0.14778 0.94105 0.0
N125 N 0.18277 0.18023 0.90089 0.0
C126 C 0.17422 0.18931 0.90899 0.0
C127 C 0.16876 0.22439 0.90414 0.0
C128 C 0.17211 0.24957 0.89094 0.0
C129 C 0.1809 0.23948 0.88273 0.0
C130 C 0.18601 0.20404 0.88806 0.0
H131 H 0.17157 0.17002 0.91909 0.0
O132 O 0.19886 0.19061 0.94604 0.0
O133 O 0.19875 0.16027 0.92142 0.0
O134 O 0.18837 0.11269 0.94601 0.0
O135 O 0.18218 0.10714 0.91994 0.0
C136 C 0.18489 0.26363 0.86966 0.0
C137 C 0.194 0.25262 0.86247 0.0
H138 H 0.212 0.2235 0.85255 0.0
H139 H 0.22041 0.16212 0.86486 0.0
H140 H 0.16199 0.23201 0.91057 0.0
H141 H 0.16791 0.27676 0.88732 0.0
H142 H 0.1811 0.29117 0.86525 0.0
H143 H 0.19709 0.27197 0.85269 0.0
Mn144 Mn 0.94901 0.86913 0.68827 0.0
Mn145 Mn 0.93589 0.87242 0.65233 0.0
C146 C 0.9447 0.80869 0.67453 0.0
C147 C 0.96397 0.86452 0.7025 0.0
C148 C 0.9268 0.88503 0.68655 0.0
O149 O 0.95095 0.92962 0.68071 0.0
O150 O 0.94206 0.92686 0.6568 0.0
C151 C 0.95244 0.88352 0.62866 0.0
N152 N 0.94444 0.86155 0.63384 0.0
C153 C 0.94632 0.81245 0.61132 0.0
C154 C 0.95455 0.83468 0.60569 0.0
C155 C 0.95763 0.87031 0.61442 0.0
C156 C 0.94142 0.82717 0.62556 0.0
H157 H 0.95485 0.91086 0.63535 0.0
C158 C 0.94745 0.94618 0.6674 0.0
O159 O 0.95605 0.87746 0.70999 0.0
O160 O 0.96334 0.85785 0.68654 0.0
N161 N 0.92958 0.82122 0.64647 0.0
C162 C 0.92178 0.80229 0.65398 0.0
C163 C 0.9179 0.76572 0.64699 0.0
C164 C 0.92203 0.74919 0.63231 0.0
C165 C 0.93001 0.76944 0.62472 0.0
C166 C 0.93351 0.80598 0.63218 0.0
H167 H 0.91856 0.8149 0.66525 0.0
O168 O 0.9467 0.80789 0.69039 0.0
O169 O 0.94517 0.84469 0.66727 0.0
O170 O 0.93467 0.88062 0.69512 0.0
O171 O 0.92651 0.88294 0.6706 0.0
C172 C 0.93472 0.75443 0.61022 0.0
C173 C 0.94288 0.77586 0.60355 0.0
H174 H 0.9586 0.82449 0.59475 0.0
H175 H 0.96401 0.88752 0.61019 0.0
H176 H 0.91175 0.75026 0.65292 0.0
H177 H 0.91906 0.72082 0.62702 0.0
H178 H 0.93222 0.7261 0.60424 0.0
H179 H 0.94653 0.7637 0.59253 0.0
Mn180 Mn 0.8055 0.87827 0.69054 0.0
Mn181 Mn 0.81773 0.8626 0.6542 0.0
C182 C 0.81066 0.93391 0.67455 0.0
C183 C 0.79091 0.88935 0.70532 0.0
C184 C 0.82717 0.85311 0.6884 0.0
O185 O 0.8023 0.81755 0.68506 0.0
O186 O 0.81017 0.81211 0.66015 0.0
C187 C 0.80079 0.85543 0.63109 0.0
N188 N 0.80933 0.87446 0.6356 0.0
C189 C 0.80846 0.92071 0.61195 0.0
C190 C 0.79968 0.90143 0.60699 0.0
C191 C 0.79582 0.8687 0.61662 0.0
C192 C 0.81312 0.90595 0.62641 0.0
H193 H 0.79777 0.83037 0.63848 0.0
C194 C 0.80473 0.79751 0.67185 0.0
O195 O 0.79878 0.87591 0.71278 0.0
O196 O 0.79137 0.8937 0.6892 0.0
N197 N 0.82521 0.90978 0.64697 0.0
C198 C 0.83339 0.92682 0.65405 0.0
C199 C 0.83797 0.96091 0.64628 0.0
C200 C 0.83412 0.97698 0.6313 0.0
C201 C 0.82575 0.95872 0.62418 0.0
C202 C 0.82154 0.9246 0.63241 0.0
H203 H 0.83637 0.9147 0.66559 0.0
O204 O 0.80896 0.93877 0.69041 0.0
O205 O 0.80938 0.89676 0.66862 0.0
O206 O 0.81968 0.86342 0.69709 0.0
O207 O 0.82708 0.85066 0.67244 0.0
C208 C 0.82128 0.97361 0.60943 0.0
C209 C 0.81264 0.95463 0.60332 0.0
H210 H 0.79579 0.91178 0.59592 0.0
H211 H 0.78902 0.85381 0.61293 0.0
H212 H 0.84442 0.97488 0.65188 0.0
H213 H 0.83761 0.00356 0.62544 0.0
H214 H 0.82433 8e-05 0.60284 0.0
H215 H 0.80919 0.96677 0.59212 0.0
Mn216 Mn 0.94817 0.89622 0.06175 0.0
Mn217 Mn 0.9368 0.87611 0.09855 0.0
C218 C 0.94249 0.95008 0.07819 0.0
C219 C 0.96259 0.91019 0.04678 0.0
C220 C 0.92684 0.8668 0.06475 0.0
O221 O 0.95202 0.83575 0.0664 0.0
O222 O 0.9449 0.82788 0.09179 0.0
C223 C 0.95427 0.87212 0.12061 0.0
N224 N 0.94536 0.88893 0.11681 0.0
C225 C 0.94578 0.93247 0.1413 0.0
C226 C 0.95495 0.91544 0.14554 0.0
C227 C 0.95922 0.88523 0.13511 0.0
C228 C 0.9412 0.91815 0.12671 0.0
H229 H 0.95758 0.84888 0.11263 0.0
C230 C 0.95017 0.81478 0.07962 0.0
O231 O 0.95475 0.89629 0.03931 0.0
O232 O 0.96216 0.91374 0.06292 0.0
N233 N 0.92876 0.92057 0.10671 0.0
C234 C 0.92016 0.93554 0.10035 0.0
C235 C 0.9151 0.96697 0.109 0.0
C236 C 0.91886 0.9823 0.12417 0.0
C237 C 0.92765 0.96603 0.13057 0.0
C238 C 0.93238 0.93473 0.12141 0.0
H239 H 0.91721 0.92377 0.08874 0.0
O240 O 0.94411 0.95583 0.06237 0.0
O241 O 0.94436 0.91321 0.08401 0.0
O242 O 0.93397 0.87945 0.05566 0.0
O243 O 0.92735 0.86302 0.08064 0.0
C244 C 0.932 0.98008 0.14555 0.0
C245 C 0.94108 0.96349 0.15087 0.0
H246 H 0.9588 0.92555 0.15669 0.0
H247 H 0.96631 0.87207 0.13826 0.0
H248 H 0.90831 0.97935 0.10398 0.0
H249 H 0.91496 0.00672 0.13076 0.0
H250 H 0.92849 0.00408 0.15295 0.0
H251 H 0.94443 0.97508 0.16225 0.0
Mn252 Mn 0.80283 0.86594 0.05935 0.0
Mn253 Mn 0.81342 0.85972 0.09743 0.0
C254 C 0.80759 0.80218 0.07006 0.0
C255 C 0.78842 0.86345 0.04343 0.0
C256 C 0.82408 0.89014 0.06619 0.0
O257 O 0.79967 0.92272 0.06991 0.0
O258 O 0.80524 0.91043 0.09611 0.0
C259 C 0.79556 0.84677 0.11801 0.0
N260 N 0.80469 0.83427 0.11314 0.0
C261 C 0.80413 0.77542 0.13175 0.0
C262 C 0.79481 0.78817 0.13721 0.0
C263 C 0.79048 0.82385 0.13022 0.0
C264 C 0.80885 0.79956 0.11956 0.0
H265 H 0.79215 0.87377 0.11248 0.0
C266 C 0.80067 0.93277 0.08534 0.0
O267 O 0.7964 0.88012 0.03744 0.0
O268 O 0.78871 0.85118 0.05884 0.0
N269 N 0.82144 0.8113 0.1004 0.0
C270 C 0.83012 0.80141 0.09284 0.0
C271 C 0.8352 0.76547 0.09784 0.0
C272 C 0.83137 0.74029 0.11065 0.0
C273 C 0.82246 0.75121 0.11831 0.0
C274 C 0.81774 0.78748 0.11286 0.0
H275 H 0.83315 0.82075 0.08308 0.0
O276 O 0.80619 0.80649 0.05411 0.0
O277 O 0.80608 0.83496 0.0791 0.0
O278 O 0.81724 0.8829 0.0556 0.0
O279 O 0.82308 0.88506 0.08199 0.0
C280 C 0.818 0.72718 0.13097 0.0
C281 C 0.80882 0.73914 0.13762 0.0
H282 H 0.79084 0.77044 0.14656 0.0
H283 H 0.78322 0.83356 0.1342 0.0
H284 H 0.84207 0.75722 0.09185 0.0
H285 H 0.83529 0.7125 0.11441 0.0
H286 H 0.82149 0.69903 0.13547 0.0
H287 H 0.80536 0.71989 0.14707 0.0
Mn288 Mn 0.05115 0.6247 0.80872 0.0
Mn289 Mn 0.06157 0.615 0.84694 0.0
C290 C 0.05536 0.68297 0.82402 0.0
C291 C 0.03706 0.63325 0.79232 0.0
C292 C 0.07264 0.60116 0.81433 0.0
O293 O 0.04819 0.564 0.81485 0.0
O294 O 0.05428 0.56379 0.84124 0.0
C295 C 0.04357 0.6116 0.86776 0.0
N296 N 0.05236 0.62965 0.86403 0.0
C297 C 0.05064 0.67848 0.88669 0.0
C298 C 0.04159 0.66025 0.89083 0.0
C299 C 0.03803 0.62675 0.8813 0.0
C300 C 0.05584 0.662 0.87309 0.0
H301 H 0.04081 0.58588 0.86045 0.0
C302 C 0.04974 0.54663 0.82903 0.0
O303 O 0.04523 0.61976 0.78582 0.0
O304 O 0.03694 0.63852 0.80839 0.0
N305 N 0.0688 0.66296 0.85405 0.0
C306 C 0.0774 0.67839 0.84788 0.0
C307 C 0.08183 0.71265 0.85575 0.0
C308 C 0.07743 0.73045 0.86996 0.0
C309 C 0.06862 0.71383 0.87616 0.0
C310 C 0.06458 0.67948 0.86786 0.0
H311 H 0.08084 0.66475 0.83701 0.0
O312 O 0.05424 0.68557 0.80795 0.0
O313 O 0.05397 0.64661 0.83061 0.0
O314 O 0.06569 0.61076 0.80429 0.0
O315 O 0.07167 0.60034 0.83024 0.0
C316 C 0.06361 0.73043 0.89009 0.0
C317 C 0.05461 0.71283 0.89532 0.0
H318 H 0.03728 0.67195 0.90122 0.0
H319 H 0.03104 0.61265 0.88437 0.0
H320 H 0.08863 0.72532 0.85088 0.0
H321 H 0.08084 0.757 0.87594 0.0
H322 H 0.06653 0.75712 0.8967 0.0
H323 H 0.05075 0.72627 0.90588 0.0
Mn324 Mn 0.19678 0.61094 0.8106 0.0
Mn325 Mn 0.18508 0.62444 0.8476 0.0
C326 C 0.19233 0.5545 0.82679 0.0
C327 C 0.21129 0.60133 0.79534 0.0
C328 C 0.17499 0.63332 0.81394 0.0
O329 O 0.19963 0.67214 0.81604 0.0
O330 O 0.19203 0.67597 0.84122 0.0
C331 C 0.2024 0.63415 0.86972 0.0
N332 N 0.19393 0.61388 0.86569 0.0
C333 C 0.19558 0.56814 0.88939 0.0
C334 C 0.20429 0.58868 0.89383 0.0
C335 C 0.20772 0.62177 0.88393 0.0
C336 C 0.19056 0.582 0.87513 0.0
H337 H 0.20508 0.65954 0.86212 0.0
C338 C 0.19714 0.69168 0.82935 0.0
O339 O 0.20325 0.6138 0.7881 0.0
O340 O 0.21103 0.59734 0.81147 0.0
N341 N 0.17815 0.5762 0.85521 0.0
C342 C 0.16996 0.55806 0.84862 0.0
C343 C 0.16577 0.52356 0.85672 0.0
C344 C 0.16999 0.50826 0.87154 0.0
C345 C 0.17837 0.52767 0.87816 0.0
C346 C 0.18218 0.56212 0.86961 0.0
H347 H 0.16668 0.56967 0.83723 0.0
O348 O 0.19378 0.54993 0.81085 0.0
O349 O 0.19341 0.59178 0.83266 0.0
O350 O 0.18234 0.62406 0.80471 0.0
O351 O 0.17537 0.63508 0.82989 0.0
C352 C 0.1832 0.51366 0.89272 0.0
C353 C 0.1918 0.53386 0.89832 0.0
H354 H 0.20846 0.57905 0.90473 0.0
H355 H 0.21447 0.63764 0.88724 0.0
H356 H 0.15931 0.50871 0.85151 0.0
H357 H 0.1668 0.48138 0.87765 0.0
H358 H 0.18045 0.48696 0.89954 0.0
H359 H 0.19554 0.52239 0.90937 0.0
Mn360 Mn 0.05602 0.61064 0.43669 0.0
Mn361 Mn 0.06958 0.62878 0.40189 0.0
C362 C 0.06255 0.55608 0.42158 0.0
C363 C 0.04101 0.59685 0.44986 0.0
C364 C 0.0776 0.63859 0.43702 0.0
O365 O 0.05235 0.67067 0.43087 0.0
O366 O 0.06157 0.67812 0.40752 0.0
C367 C 0.05331 0.63528 0.37738 0.0
N368 N 0.06188 0.61724 0.38243 0.0
C369 C 0.06235 0.57391 0.35788 0.0
C370 C 0.05357 0.59219 0.35236 0.0
C371 C 0.04901 0.62291 0.36219 0.0
C372 C 0.06629 0.58752 0.37312 0.0
H373 H 0.04979 0.65891 0.38489 0.0
C374 C 0.05542 0.69166 0.41832 0.0
O375 O 0.04845 0.61176 0.45811 0.0
O376 O 0.04213 0.5924 0.43383 0.0
N377 N 0.07764 0.58326 0.39486 0.0
C378 C 0.08577 0.56707 0.40242 0.0
C379 C 0.09101 0.535 0.39449 0.0
C380 C 0.08792 0.5203 0.37878 0.0
C381 C 0.07961 0.53783 0.37115 0.0
C382 C 0.07468 0.56971 0.37965 0.0
H383 H 0.0882 0.57835 0.41446 0.0
O384 O 0.06018 0.55114 0.43718 0.0
O385 O 0.06101 0.59267 0.41522 0.0
O386 O 0.06979 0.62817 0.44485 0.0
O387 O 0.07819 0.64052 0.4211 0.0
C388 C 0.07593 0.5245 0.35555 0.0
C389 C 0.06728 0.54234 0.34897 0.0
H390 H 0.05022 0.58267 0.34067 0.0
H391 H 0.04221 0.63704 0.35805 0.0
H392 H 0.09741 0.52163 0.40046 0.0
H393 H 0.09194 0.4954 0.37274 0.0
H394 H 0.07963 0.50011 0.34863 0.0
H395 H 0.06443 0.53129 0.33711 0.0
Mn396 Mn 0.19886 0.6295 0.44098 0.0
Mn397 Mn 0.18687 0.61091 0.40465 0.0
C398 C 0.1939 0.68378 0.42411 0.0
C399 C 0.2134 0.64157 0.45573 0.0
C400 C 0.17715 0.60498 0.43877 0.0
O401 O 0.20194 0.56816 0.43657 0.0
O402 O 0.19431 0.56086 0.41153 0.0
C403 C 0.20403 0.60138 0.38213 0.0
N404 N 0.19546 0.62089 0.38611 0.0
C405 C 0.19659 0.66489 0.3618 0.0
C406 C 0.2054 0.64508 0.35739 0.0
C407 C 0.20915 0.61324 0.36762 0.0
C408 C 0.19179 0.65158 0.37636 0.0
H409 H 0.20695 0.577 0.38998 0.0
C410 C 0.19961 0.54712 0.42357 0.0
O411 O 0.20547 0.62919 0.46332 0.0
O412 O 0.21302 0.64418 0.43955 0.0
N413 N 0.1795 0.65748 0.39651 0.0
C414 C 0.17122 0.67504 0.40302 0.0
C415 C 0.16671 0.70822 0.39455 0.0
C416 C 0.17071 0.72283 0.37944 0.0
C417 C 0.17918 0.70402 0.3729 0.0
C418 C 0.18332 0.67085 0.38183 0.0
H419 H 0.16811 0.664 0.41464 0.0
O420 O 0.19554 0.69005 0.4399 0.0
O421 O 0.19516 0.64611 0.41874 0.0
O422 O 0.18459 0.61584 0.44748 0.0
O423 O 0.17737 0.60095 0.42286 0.0
C424 C 0.18379 0.71744 0.35806 0.0
C425 C 0.1925 0.69792 0.35252 0.0
H426 H 0.2094 0.65432 0.34627 0.0
H427 H 0.21597 0.59795 0.36435 0.0
H428 H 0.16018 0.7226 0.39969 0.0
H429 H 0.16726 0.7487 0.37303 0.0
H430 H 0.18079 0.74318 0.35094 0.0
H431 H 0.19606 0.70894 0.34122 0.0
Mn432 Mn 0.94857 0.37854 0.18948 0.0
Mn433 Mn 0.93505 0.38981 0.15421 0.0
C434 C 0.9426 0.32102 0.17549 0.0
C435 C 0.9635 0.3682 0.20329 0.0
C436 C 0.92677 0.4031 0.18894 0.0
O437 O 0.95183 0.43821 0.18239 0.0
O438 O 0.94248 0.44123 0.15903 0.0
C439 C 0.95141 0.39648 0.12989 0.0
N440 N 0.94301 0.37745 0.13514 0.0
C441 C 0.94307 0.33172 0.11129 0.0
C442 C 0.95169 0.35095 0.10558 0.0
C443 C 0.9559 0.38336 0.11496 0.0
C444 C 0.93894 0.34603 0.12628 0.0
H445 H 0.95465 0.42149 0.13703 0.0
C446 C 0.94851 0.45724 0.16951 0.0
O447 O 0.95592 0.38358 0.211 0.0
O448 O 0.96259 0.36163 0.18734 0.0
N449 N 0.92751 0.34207 0.14791 0.0
C450 C 0.91949 0.32534 0.15562 0.0
C451 C 0.91459 0.29169 0.14813 0.0
C452 C 0.91789 0.27604 0.13269 0.0
C453 C 0.92608 0.29415 0.1249 0.0
C454 C 0.93069 0.32749 0.13299 0.0
H455 H 0.91688 0.33745 0.16742 0.0
O456 O 0.94485 0.31863 0.19124 0.0
O457 O 0.94388 0.35691 0.16836 0.0
O458 O 0.93465 0.39539 0.19704 0.0
O459 O 0.92619 0.40224 0.17301 0.0
C460 C 0.92991 0.28015 0.10952 0.0
C461 C 0.93844 0.29868 0.10278 0.0
H462 H 0.95518 0.34093 0.09407 0.0
H463 H 0.96258 0.39826 0.11067 0.0
H464 H 0.90827 0.2779 0.15422 0.0
H465 H 0.91411 0.25 0.12698 0.0
H466 H 0.92643 0.25471 0.10288 0.0
H467 H 0.94142 0.2871 0.0911 0.0
Mn468 Mn 0.80603 0.3871 0.18997 0.0
Mn469 Mn 0.81916 0.37305 0.15442 0.0
C470 C 0.81072 0.44308 0.17374 0.0
C471 C 0.79115 0.39632 0.20412 0.0
C472 C 0.82809 0.36753 0.18906 0.0
O473 O 0.8036 0.32552 0.18472 0.0
O474 O 0.81247 0.32089 0.1608 0.0
C475 C 0.80267 0.35882 0.13088 0.0
N476 N 0.81081 0.38078 0.13541 0.0
C477 C 0.80948 0.42463 0.11109 0.0
C478 C 0.80111 0.40233 0.10612 0.0
C479 C 0.79768 0.36934 0.11608 0.0
C480 C 0.81417 0.4126 0.12592 0.0
H481 H 0.8 0.33352 0.13852 0.0
C482 C 0.80688 0.30533 0.17208 0.0
O483 O 0.79905 0.38445 0.21193 0.0
O484 O 0.79175 0.39977 0.18798 0.0
N485 N 0.8259 0.42181 0.14682 0.0
C486 C 0.83372 0.44166 0.15387 0.0
C487 C 0.83787 0.47618 0.14572 0.0
C488 C 0.83396 0.48976 0.13037 0.0
C489 C 0.82596 0.46862 0.1233 0.0
C490 C 0.82218 0.43422 0.13193 0.0
H491 H 0.83675 0.43137 0.16566 0.0
O492 O 0.80878 0.44829 0.1895 0.0
O493 O 0.81003 0.40543 0.16809 0.0
O494 O 0.82027 0.3754 0.1973 0.0
O495 O 0.8284 0.36541 0.17312 0.0
C496 C 0.82146 0.48082 0.10818 0.0
C497 C 0.81322 0.45887 0.10209 0.0
H498 H 0.79721 0.4105 0.09476 0.0
H499 H 0.7912 0.35212 0.11237 0.0
H500 H 0.84403 0.49237 0.15127 0.0
H501 H 0.83711 0.51665 0.12421 0.0
H502 H 0.82419 0.50744 0.10127 0.0
H503 H 0.80973 0.46894 0.09059 0.0
Mn504 Mn 0.94838 0.38869 0.55511 0.0
Mn505 Mn 0.93822 0.38103 0.59361 0.0
C506 C 0.94457 0.44779 0.57015 0.0
C507 C 0.9625 0.39443 0.53853 0.0
C508 C 0.9268 0.36736 0.56136 0.0
O509 O 0.9511 0.3281 0.56157 0.0
O510 O 0.9452 0.32886 0.58807 0.0
C511 C 0.95637 0.3767 0.614 0.0
N512 N 0.94765 0.39546 0.61037 0.0
C513 C 0.94988 0.44521 0.63257 0.0
C514 C 0.95886 0.42626 0.63661 0.0
C515 C 0.96213 0.39192 0.62725 0.0
C516 C 0.94445 0.4286 0.61926 0.0
H517 H 0.95892 0.35035 0.60682 0.0
C518 C 0.94958 0.31112 0.57582 0.0
O519 O 0.9542 0.38199 0.53217 0.0
O520 O 0.96266 0.40091 0.55452 0.0
N521 N 0.93131 0.42993 0.6006 0.0
C522 C 0.92274 0.44596 0.59454 0.0
C523 C 0.91859 0.48107 0.60225 0.0
C524 C 0.92324 0.49915 0.61617 0.0
C525 C 0.93201 0.48191 0.62226 0.0
C526 C 0.93576 0.44671 0.61414 0.0
H527 H 0.91911 0.43215 0.58389 0.0
O528 O 0.94562 0.44977 0.55404 0.0
O529 O 0.94582 0.41152 0.57692 0.0
O530 O 0.93371 0.37607 0.55107 0.0
O531 O 0.92792 0.36673 0.57724 0.0
C532 C 0.93726 0.4987 0.63589 0.0
C533 C 0.9462 0.48042 0.64101 0.0
H534 H 0.96334 0.43803 0.64677 0.0
H535 H 0.96907 0.37726 0.63024 0.0
H536 H 0.91182 0.49422 0.59746 0.0
H537 H 0.92005 0.52639 0.62201 0.0
H538 H 0.93456 0.52604 0.64235 0.0
H539 H 0.95024 0.49399 0.65134 0.0
Mn540 Mn 0.80271 0.35892 0.55954 0.0
Mn541 Mn 0.81385 0.36185 0.59727 0.0
C542 C 0.80806 0.2982 0.57211 0.0
C543 C 0.7882 0.35173 0.5441 0.0
C544 C 0.8238 0.38757 0.56474 0.0
O545 O 0.79924 0.41709 0.5684 0.0
O546 O 0.8052 0.41104 0.59477 0.0
C547 C 0.79662 0.35114 0.61955 0.0
N548 N 0.80563 0.33826 0.61423 0.0
C549 C 0.80574 0.28222 0.63422 0.0
C550 C 0.79651 0.29518 0.64003 0.0
C551 C 0.79192 0.32972 0.63262 0.0
C552 C 0.81009 0.30493 0.62122 0.0
H553 H 0.79305 0.37743 0.61382 0.0
C554 C 0.80038 0.43036 0.5834 0.0
O555 O 0.79602 0.3682 0.53746 0.0
O556 O 0.78868 0.34227 0.55983 0.0
N557 N 0.82229 0.31513 0.6012 0.0
C558 C 0.83086 0.30484 0.59337 0.0
C559 C 0.83619 0.26995 0.59882 0.0
C560 C 0.83269 0.24615 0.61232 0.0
C561 C 0.82389 0.25748 0.62025 0.0
C562 C 0.81893 0.29272 0.61433 0.0
H563 H 0.83361 0.32299 0.58301 0.0
O564 O 0.80647 0.29916 0.55611 0.0
O565 O 0.80641 0.33249 0.58013 0.0
O566 O 0.81693 0.37696 0.55471 0.0
O567 O 0.82305 0.38563 0.58068 0.0
C568 C 0.81976 0.23471 0.63358 0.0
C569 C 0.81068 0.24702 0.64054 0.0
H570 H 0.79283 0.27856 0.65002 0.0
H571 H 0.78475 0.33973 0.63693 0.0
H572 H 0.84297 0.26138 0.59261 0.0
H573 H 0.83678 0.21906 0.61639 0.0
H574 H 0.82342 0.20726 0.63839 0.0
H575 H 0.80749 0.22882 0.65058 0.0
Mn576 Mn 0.5559 0.13929 0.81048 0.0
Mn577 Mn 0.56834 0.12735 0.84683 0.0
C578 C 0.5611 0.19657 0.82546 0.0
C579 C 0.54113 0.14861 0.79602 0.0
C580 C 0.57759 0.11481 0.81261 0.0
O581 O 0.55291 0.07889 0.81687 0.0
O582 O 0.56066 0.07643 0.84195 0.0
C583 C 0.55156 0.12312 0.87042 0.0
N584 N 0.56009 0.14146 0.86537 0.0
C585 C 0.55942 0.19038 0.88816 0.0
C586 C 0.55066 0.17185 0.89365 0.0
C587 C 0.54671 0.13812 0.88472 0.0
C588 C 0.56396 0.17392 0.87388 0.0
H589 H 0.54848 0.09729 0.86358 0.0
C590 C 0.55528 0.06043 0.83048 0.0
O591 O 0.54895 0.13488 0.78848 0.0
O592 O 0.54175 0.15419 0.81205 0.0
N593 N 0.57592 0.17513 0.85304 0.0
C594 C 0.5841 0.19107 0.84554 0.0
C595 C 0.58879 0.22581 0.85261 0.0
C596 C 0.58505 0.24366 0.86735 0.0
C597 C 0.57668 0.22652 0.87493 0.0
C598 C 0.57237 0.19167 0.86738 0.0
H599 H 0.587 0.17757 0.83419 0.0
O600 O 0.55922 0.19989 0.8096 0.0
O601 O 0.55991 0.16 0.832 0.0
O602 O 0.57008 0.12455 0.80386 0.0
O603 O 0.57754 0.1133 0.82859 0.0
C604 C 0.57233 0.24316 0.88947 0.0
C605 C 0.56371 0.22512 0.89608 0.0
H606 H 0.54686 0.18351 0.9046 0.0
H607 H 0.53993 0.12378 0.88883 0.0
H608 H 0.59523 0.2389 0.84668 0.0
H609 H 0.58863 0.27072 0.87267 0.0
H610 H 0.57548 0.27022 0.89552 0.0
H611 H 0.56035 0.23858 0.90712 0.0
Mn612 Mn 0.69897 0.11212 0.80916 0.0
Mn613 Mn 0.68649 0.12793 0.84521 0.0
C614 C 0.69266 0.0564 0.82394 0.0
C615 C 0.71371 0.09947 0.79501 0.0
C616 C 0.67778 0.14302 0.81072 0.0
O617 O 0.70272 0.17189 0.81546 0.0
O618 O 0.69528 0.17569 0.84076 0.0
C619 C 0.70297 0.12528 0.86942 0.0
N620 N 0.69411 0.11073 0.86409 0.0
C621 C 0.69297 0.06401 0.88755 0.0
C622 C 0.70206 0.0787 0.89336 0.0
C623 C 0.7071 0.10934 0.88421 0.0
C624 C 0.68923 0.08101 0.87272 0.0
H625 H 0.70685 0.14883 0.86244 0.0
C626 C 0.70084 0.1904 0.82927 0.0
O627 O 0.70612 0.11495 0.78734 0.0
O628 O 0.7129 0.09378 0.81102 0.0
N629 N 0.67778 0.08346 0.85109 0.0
C630 C 0.66941 0.07068 0.84322 0.0
C631 C 0.6637 0.03898 0.85041 0.0
C632 C 0.66656 0.02113 0.8657 0.0
C633 C 0.67514 0.03509 0.87365 0.0
C634 C 0.68056 0.0667 0.86588 0.0
H635 H 0.66713 0.08441 0.83152 0.0
O636 O 0.69478 0.05254 0.80819 0.0
O637 O 0.69441 0.09242 0.83062 0.0
O638 O 0.6851 0.13022 0.80217 0.0
O639 O 0.67783 0.14555 0.82668 0.0
C640 C 0.6786 0.01852 0.88888 0.0
C641 C 0.68753 0.03278 0.89578 0.0
H642 H 0.70527 0.06645 0.90475 0.0
H643 H 0.71414 0.1207 0.88856 0.0
H644 H 0.65709 0.02837 0.84418 0.0
H645 H 0.66216 0.99659 0.87118 0.0
H646 H 0.67452 0.99425 0.89524 0.0
H647 H 0.69021 0.01918 0.90732 0.0
Mn648 Mn 0.55352 0.11971 0.44008 0.0
Mn649 Mn 0.56617 0.12917 0.40383 0.0
C650 C 0.55852 0.06145 0.42549 0.0
C651 C 0.53866 0.1116 0.45436 0.0
C652 C 0.5753 0.14267 0.43811 0.0
O653 O 0.55086 0.18018 0.43332 0.0
O654 O 0.55872 0.18083 0.40831 0.0
C655 C 0.54952 0.13372 0.38002 0.0
N656 N 0.55795 0.11498 0.38528 0.0
C657 C 0.55722 0.06542 0.36272 0.0
C658 C 0.54856 0.08435 0.35701 0.0
C659 C 0.54468 0.1186 0.36572 0.0
C660 C 0.56174 0.08199 0.37699 0.0
H661 H 0.5465 0.15994 0.3867 0.0
C662 C 0.55339 0.19782 0.41961 0.0
O663 O 0.54648 0.12518 0.46195 0.0
O664 O 0.53933 0.10578 0.43835 0.0
N665 N 0.57358 0.08059 0.39802 0.0
C666 C 0.58166 0.06436 0.40572 0.0
C667 C 0.58626 0.02915 0.39887 0.0
C668 C 0.58255 0.01114 0.38415 0.0
C669 C 0.57428 0.02857 0.37638 0.0
C670 C 0.57004 0.06387 0.38371 0.0
H671 H 0.58455 0.07803 0.41705 0.0
O672 O 0.55657 0.05885 0.44134 0.0
O673 O 0.55754 0.09788 0.41875 0.0
O674 O 0.56772 0.13371 0.44682 0.0
O675 O 0.57534 0.1433 0.42211 0.0
C676 C 0.56995 0.01183 0.36183 0.0
C677 C 0.56142 0.03021 0.35502 0.0
H678 H 0.54477 0.07263 0.34605 0.0
H679 H 0.53797 0.13325 0.36145 0.0
H680 H 0.59264 0.01584 0.40496 0.0
H681 H 0.58607 0.98375 0.37899 0.0
H682 H 0.57304 0.98443 0.35593 0.0
H683 H 0.55808 0.01666 0.34398 0.0
Mn684 Mn 0.69689 0.12952 0.44001 0.0
Mn685 Mn 0.68389 0.11574 0.4043 0.0
C686 C 0.69229 0.18562 0.42377 0.0
C687 C 0.71176 0.13849 0.45425 0.0
C688 C 0.67482 0.11024 0.43884 0.0
O689 O 0.69926 0.06785 0.4348 0.0
O690 O 0.69053 0.06355 0.41072 0.0
C691 C 0.70048 0.10162 0.38096 0.0
N692 N 0.69232 0.12354 0.3854 0.0
C693 C 0.69372 0.16734 0.36107 0.0
C694 C 0.70212 0.14508 0.35619 0.0
C695 C 0.70552 0.11214 0.3662 0.0
C696 C 0.68899 0.15533 0.37587 0.0
H697 H 0.70313 0.07633 0.38863 0.0
C698 C 0.69603 0.04781 0.42208 0.0
O699 O 0.70384 0.12681 0.46203 0.0
O700 O 0.71118 0.1419 0.4381 0.0
N701 N 0.67718 0.16452 0.39664 0.0
C702 C 0.6693 0.18425 0.40358 0.0
C703 C 0.66516 0.21864 0.39535 0.0
C704 C 0.66911 0.2322 0.38004 0.0
C705 C 0.67716 0.21117 0.37307 0.0
C706 C 0.68094 0.17691 0.38178 0.0
H707 H 0.66623 0.17395 0.41534 0.0
O708 O 0.69421 0.19078 0.43954 0.0
O709 O 0.69297 0.14798 0.41811 0.0
O710 O 0.6826 0.11812 0.4472 0.0
O711 O 0.67458 0.10806 0.42289 0.0
C712 C 0.68171 0.22335 0.35799 0.0
C713 C 0.68999 0.20149 0.35201 0.0
H714 H 0.70605 0.15324 0.34487 0.0
H715 H 0.71202 0.09494 0.36256 0.0
H716 H 0.65895 0.23474 0.40081 0.0
H717 H 0.66595 0.25897 0.3738 0.0
H718 H 0.67898 0.24987 0.35102 0.0
H719 H 0.69351 0.21154 0.34053 0.0
Mn720 Mn 0.44568 0.86052 0.19013 0.0
Mn721 Mn 0.43231 0.87892 0.15515 0.0
C722 C 0.43948 0.80604 0.1746 0.0
C723 C 0.46067 0.84737 0.20348 0.0
C724 C 0.42401 0.88701 0.19019 0.0
O725 O 0.44914 0.92103 0.18472 0.0
O726 O 0.44014 0.92852 0.16111 0.0
C727 C 0.44869 0.88689 0.13093 0.0
N728 N 0.44016 0.86825 0.13578 0.0
C729 C 0.43997 0.82536 0.11109 0.0
C730 C 0.44873 0.84427 0.10578 0.0
C731 C 0.45312 0.87507 0.11578 0.0
C732 C 0.43589 0.83844 0.1263 0.0
H733 H 0.45208 0.91058 0.13857 0.0
C734 C 0.44614 0.94213 0.17215 0.0
O735 O 0.45312 0.86144 0.2117 0.0
O736 O 0.45966 0.84342 0.18742 0.0
N737 N 0.42442 0.83313 0.14781 0.0
C738 C 0.41629 0.81637 0.15516 0.0
C739 C 0.4112 0.78418 0.14703 0.0
C740 C 0.41444 0.76994 0.13134 0.0
C741 C 0.42275 0.78805 0.12393 0.0
C742 C 0.42752 0.82003 0.13262 0.0
H743 H 0.41373 0.8273 0.16719 0.0
O744 O 0.44178 0.8007 0.19021 0.0
O745 O 0.44091 0.84295 0.16848 0.0
O746 O 0.4318 0.87667 0.19812 0.0
O747 O 0.42354 0.8897 0.17427 0.0
C748 C 0.42657 0.7752 0.10837 0.0
C749 C 0.43521 0.79366 0.102 0.0
H750 H 0.45218 0.83517 0.09412 0.0
H751 H 0.4599 0.88968 0.1118 0.0
H752 H 0.40479 0.77038 0.15283 0.0
H753 H 0.41053 0.74494 0.12515 0.0
H754 H 0.423 0.75071 0.10131 0.0
H755 H 0.43816 0.783 0.09016 0.0
Mn756 Mn 0.30296 0.88524 0.19307 0.0
Mn757 Mn 0.31568 0.87803 0.15684 0.0
C758 C 0.3088 0.9443 0.17997 0.0
C759 C 0.28803 0.89457 0.20708 0.0
C760 C 0.3244 0.85768 0.19091 0.0
O761 O 0.2997 0.82629 0.18495 0.0
O762 O 0.30733 0.82802 0.15974 0.0
C763 C 0.29925 0.88236 0.13256 0.0
N764 N 0.3079 0.89766 0.13852 0.0
C765 C 0.30818 0.95106 0.11738 0.0
C766 C 0.2993 0.93567 0.11097 0.0
C767 C 0.29481 0.90121 0.11862 0.0
C768 C 0.31229 0.93082 0.13125 0.0
H769 H 0.29575 0.85604 0.13843 0.0
C770 C 0.30184 0.81047 0.1707 0.0
O771 O 0.29561 0.87845 0.21462 0.0
O772 O 0.28896 0.90222 0.19124 0.0
N773 N 0.3239 0.92524 0.15253 0.0
C774 C 0.33214 0.93783 0.16084 0.0
C775 C 0.33734 0.97277 0.15511 0.0
C776 C 0.33407 0.99428 0.14085 0.0
C777 C 0.32563 0.98058 0.13243 0.0
C778 C 0.32078 0.94536 0.13864 0.0
H779 H 0.3347 0.9215 0.17182 0.0
O780 O 0.30668 0.94512 0.19579 0.0
O781 O 0.30742 0.90917 0.17237 0.0
O782 O 0.31694 0.86767 0.19975 0.0
O783 O 0.32444 0.85841 0.17491 0.0
C784 C 0.32172 0.00098 0.1183 0.0
C785 C 0.313 0.98625 0.11079 0.0
H786 H 0.29582 0.9503 0.10028 0.0
H787 H 0.28793 0.88928 0.1138 0.0
H788 H 0.34384 0.98319 0.1617 0.0
H789 H 0.33805 0.02146 0.13657 0.0
H790 H 0.32528 0.02841 0.11327 0.0
H791 H 0.30999 0.00259 0.10009 0.0
Mn792 Mn 0.4492 0.88063 0.55944 0.0
Mn793 Mn 0.43854 0.86998 0.59739 0.0
C794 C 0.44449 0.93861 0.57455 0.0
C795 C 0.46345 0.8898 0.54354 0.0
C796 C 0.42794 0.85383 0.56446 0.0
O797 O 0.45237 0.82025 0.56581 0.0
O798 O 0.44663 0.82033 0.59244 0.0
C799 C 0.45616 0.87189 0.61915 0.0
N800 N 0.44723 0.88764 0.61481 0.0
C801 C 0.44794 0.93808 0.63706 0.0
C802 C 0.45712 0.92213 0.64184 0.0
C803 C 0.46125 0.88897 0.63281 0.0
C804 C 0.44319 0.91964 0.62339 0.0
H805 H 0.45938 0.84659 0.6122 0.0
C806 C 0.45122 0.80339 0.5802 0.0
O807 O 0.45541 0.87578 0.53677 0.0
O808 O 0.46334 0.89554 0.55958 0.0
N809 N 0.43061 0.91673 0.60366 0.0
C810 C 0.42203 0.93034 0.59675 0.0
C811 C 0.41713 0.96443 0.6039 0.0
C812 C 0.42105 0.984 0.61813 0.0
C813 C 0.42984 0.96926 0.6251 0.0
C814 C 0.43438 0.935 0.6175 0.0
H815 H 0.41896 0.91545 0.58582 0.0
O816 O 0.44582 0.94129 0.55852 0.0
O817 O 0.44601 0.9024 0.58117 0.0
O818 O 0.4348 0.86551 0.5546 0.0
O819 O 0.42888 0.85215 0.58037 0.0
C820 C 0.43439 0.98776 0.63909 0.0
C821 C 0.44344 0.97221 0.64506 0.0
H822 H 0.4611 0.93541 0.6523 0.0
H823 H 0.46836 0.87667 0.63635 0.0
H824 H 0.41035 0.97567 0.59842 0.0
H825 H 0.41729 0.01053 0.62352 0.0
H826 H 0.43108 0.01441 0.64519 0.0
H827 H 0.44695 0.98715 0.65564 0.0
Mn828 Mn 0.30377 0.8663 0.56 0.0
Mn829 Mn 0.31459 0.87374 0.59796 0.0
C830 C 0.30795 0.80714 0.5747 0.0
C831 C 0.28945 0.85997 0.54407 0.0
C832 C 0.3254 0.88817 0.56517 0.0
O833 O 0.30101 0.92665 0.56673 0.0
O834 O 0.30747 0.92587 0.59286 0.0
C835 C 0.29679 0.87752 0.61925 0.0
N836 N 0.30546 0.85892 0.61515 0.0
C837 C 0.3036 0.80854 0.63721 0.0
C838 C 0.29468 0.82731 0.64174 0.0
C839 C 0.29125 0.86189 0.63269 0.0
C840 C 0.30882 0.82558 0.62374 0.0
H841 H 0.29412 0.90402 0.6123 0.0
C842 C 0.30282 0.94358 0.5809 0.0
O843 O 0.2976 0.87297 0.53736 0.0
O844 O 0.28952 0.85348 0.56006 0.0
N845 N 0.32166 0.82483 0.60449 0.0
C846 C 0.33013 0.80899 0.59795 0.0
C847 C 0.3344 0.77364 0.6053 0.0
C848 C 0.32997 0.75514 0.61933 0.0
C849 C 0.3213 0.77221 0.62592 0.0
C850 C 0.31742 0.80766 0.61815 0.0
H851 H 0.33358 0.82309 0.58719 0.0
O852 O 0.30665 0.80539 0.55864 0.0
O853 O 0.30673 0.84326 0.58162 0.0
O854 O 0.31831 0.87957 0.55525 0.0
O855 O 0.3246 0.8884 0.58111 0.0
C856 C 0.31627 0.75498 0.63969 0.0
C857 C 0.30741 0.77309 0.64532 0.0
H858 H 0.29036 0.81523 0.65204 0.0
H859 H 0.28435 0.87642 0.63606 0.0
H860 H 0.34108 0.76063 0.60013 0.0
H861 H 0.33324 0.72769 0.62488 0.0
H862 H 0.31906 0.72744 0.64589 0.0
H863 H 0.30353 0.75918 0.65576 0.0
Mn864 Mn 0.5548 0.642 0.30598 0.0
Mn865 Mn 0.56617 0.63566 0.34352 0.0
C866 C 0.55913 0.70165 0.32029 0.0
C867 C 0.54023 0.6473 0.29056 0.0
C868 C 0.57645 0.61986 0.31032 0.0
O869 O 0.55226 0.58165 0.31313 0.0
O870 O 0.55866 0.58397 0.3393 0.0
C871 C 0.54882 0.63462 0.36593 0.0
N872 N 0.55747 0.65223 0.36111 0.0
C873 C 0.55635 0.70376 0.3829 0.0
C874 C 0.54745 0.68598 0.38815 0.0
C875 C 0.54366 0.65132 0.3796 0.0
C876 C 0.56118 0.68565 0.36923 0.0
H877 H 0.54587 0.6081 0.35937 0.0
C878 C 0.55396 0.56566 0.32751 0.0
O879 O 0.54833 0.63436 0.28364 0.0
O880 O 0.54051 0.65444 0.30651 0.0
N881 N 0.57357 0.68443 0.34913 0.0
C882 C 0.58191 0.69946 0.34185 0.0
C883 C 0.58647 0.73492 0.34857 0.0
C884 C 0.58245 0.7544 0.36275 0.0
C885 C 0.57391 0.73821 0.3701 0.0
C886 C 0.56972 0.70263 0.36292 0.0
H887 H 0.58505 0.68463 0.33097 0.0
O888 O 0.55756 0.70307 0.30429 0.0
O889 O 0.55808 0.66563 0.32735 0.0
O890 O 0.56927 0.6291 0.30071 0.0
O891 O 0.57583 0.61916 0.32629 0.0
C892 C 0.56928 0.75645 0.38407 0.0
C893 C 0.5605 0.73928 0.39045 0.0
H894 H 0.54343 0.69892 0.39863 0.0
H895 H 0.53678 0.63756 0.38353 0.0
H896 H 0.59305 0.74726 0.34281 0.0
H897 H 0.58595 0.78194 0.36781 0.0
H898 H 0.57233 0.78408 0.38985 0.0
H899 H 0.55692 0.75399 0.40103 0.0
Mn900 Mn 0.69965 0.60756 0.30928 0.0
Mn901 Mn 0.68778 0.60129 0.34626 0.0
C902 C 0.69464 0.54381 0.31964 0.0
C903 C 0.71446 0.60524 0.29448 0.0
C904 C 0.67813 0.63099 0.31403 0.0
O905 O 0.70245 0.66439 0.32008 0.0
O906 O 0.69585 0.65242 0.34562 0.0
C907 C 0.70502 0.58934 0.36842 0.0
N908 N 0.69608 0.57642 0.3628 0.0
C909 C 0.69625 0.51759 0.38144 0.0
C910 C 0.70536 0.53085 0.38771 0.0
C911 C 0.70979 0.56672 0.38108 0.0
C912 C 0.69184 0.54147 0.36884 0.0
H913 H 0.70853 0.61639 0.36314 0.0
C914 C 0.70083 0.67464 0.33535 0.0
O915 O 0.70664 0.62187 0.28792 0.0
O916 O 0.7138 0.593 0.30987 0.0
N917 N 0.67984 0.55241 0.34855 0.0
C918 C 0.67146 0.54191 0.34017 0.0
C919 C 0.66637 0.50561 0.34468 0.0
C920 C 0.66987 0.48068 0.35784 0.0
C921 C 0.67847 0.49223 0.36634 0.0
C922 C 0.68322 0.52883 0.36133 0.0
H923 H 0.66869 0.56102 0.33012 0.0
O924 O 0.6965 0.54802 0.30382 0.0
O925 O 0.69581 0.57673 0.32873 0.0
O926 O 0.68538 0.62421 0.30423 0.0
O927 O 0.67854 0.62596 0.32991 0.0
C928 C 0.6826 0.46849 0.3794 0.0
C929 C 0.69152 0.48102 0.38687 0.0
H930 H 0.70909 0.51334 0.3974 0.0
H931 H 0.71689 0.57678 0.38566 0.0
H932 H 0.65975 0.49687 0.33804 0.0
H933 H 0.66595 0.45259 0.36122 0.0
H934 H 0.67907 0.44013 0.38359 0.0
H935 H 0.69474 0.46197 0.39662 0.0
Mn936 Mn 0.55533 0.61935 0.94249 0.0
Mn937 Mn 0.56756 0.62738 0.90578 0.0
C938 C 0.56054 0.56048 0.92852 0.0
C939 C 0.54062 0.6113 0.95724 0.0
C940 C 0.57692 0.64429 0.93963 0.0
O941 O 0.55229 0.679 0.93506 0.0
O942 O 0.55969 0.67835 0.90966 0.0
C943 C 0.55073 0.62741 0.88224 0.0
N944 N 0.55933 0.61033 0.88761 0.0
C945 C 0.55883 0.55859 0.86584 0.0
C946 C 0.54999 0.57579 0.86003 0.0
C947 C 0.54592 0.61031 0.86829 0.0
C948 C 0.56332 0.57712 0.87975 0.0
H949 H 0.54756 0.65383 0.88857 0.0
C950 C 0.55442 0.69567 0.92097 0.0
O951 O 0.54845 0.62603 0.96446 0.0
O952 O 0.5412 0.60412 0.94131 0.0
N953 N 0.57531 0.57935 0.90052 0.0
C954 C 0.58356 0.56494 0.90828 0.0
C955 C 0.58838 0.52972 0.90188 0.0
C956 C 0.5847 0.50982 0.88753 0.0
C957 C 0.57625 0.52539 0.87968 0.0
C958 C 0.5718 0.56079 0.88655 0.0
H959 H 0.58643 0.58003 0.91932 0.0
O960 O 0.5587 0.55892 0.94443 0.0
O961 O 0.55928 0.59625 0.92134 0.0
O962 O 0.5695 0.63495 0.94866 0.0
O963 O 0.57676 0.64435 0.92364 0.0
C964 C 0.57195 0.50668 0.8655 0.0
C965 C 0.56324 0.52324 0.8586 0.0
H966 H 0.54622 0.56253 0.84934 0.0
H967 H 0.53907 0.62365 0.86393 0.0
H968 H 0.59489 0.51785 0.90803 0.0
H969 H 0.58838 0.48242 0.88273 0.0
H970 H 0.5752 0.47915 0.85997 0.0
H971 H 0.55993 0.50821 0.84785 0.0
Mn972 Mn 0.69809 0.63565 0.93829 0.0
Mn973 Mn 0.68499 0.61612 0.90311 0.0
C974 C 0.69172 0.68963 0.92265 0.0
C975 C 0.7129 0.65006 0.95196 0.0
C976 C 0.67656 0.60748 0.93805 0.0
O977 O 0.70178 0.5753 0.93304 0.0
O978 O 0.69308 0.56727 0.90914 0.0
C979 C 0.7015 0.60982 0.87906 0.0
N980 N 0.69285 0.62759 0.88382 0.0
C981 C 0.6925 0.67035 0.8591 0.0
C982 C 0.70137 0.65233 0.85388 0.0
C983 C 0.70591 0.62203 0.86394 0.0
C984 C 0.68845 0.65693 0.87429 0.0
H985 H 0.705 0.58651 0.88675 0.0
C986 C 0.69902 0.55409 0.92035 0.0
O987 O 0.70536 0.63531 0.95999 0.0
O988 O 0.71202 0.65381 0.93586 0.0
N989 N 0.67688 0.66114 0.89569 0.0
C990 C 0.66863 0.67707 0.90295 0.0
C991 C 0.66338 0.70869 0.89474 0.0
C992 C 0.66659 0.72319 0.87907 0.0
C993 C 0.67502 0.70592 0.87175 0.0
C994 C 0.67995 0.67449 0.88051 0.0
H995 H 0.6661 0.66593 0.91495 0.0
O996 O 0.69394 0.69516 0.93828 0.0
O997 O 0.69336 0.65284 0.91654 0.0
O998 O 0.68425 0.61858 0.94606 0.0
O999 O 0.67619 0.60448 0.92213 0.0
C1000 C 0.67881 0.71907 0.85621 0.0
C1001 C 0.68757 0.70148 0.84993 0.0
H1002 H 0.70481 0.66171 0.84224 0.0
H1003 H 0.71278 0.60809 0.86004 0.0
H1004 H 0.65687 0.72184 0.90047 0.0
H1005 H 0.66255 0.74774 0.87282 0.0
H1006 H 0.67512 0.74311 0.84909 0.0
H1007 H 0.6905 0.71237 0.8381 0.0
Mn1008 Mn 0.44802 0.35952 0.69281 0.0
Mn1009 Mn 0.43563 0.36569 0.65619 0.0
C1010 C 0.4431 0.29997 0.67901 0.0
C1011 C 0.46283 0.35288 0.70739 0.0
C1012 C 0.42627 0.38262 0.69004 0.0
O1013 O 0.45077 0.41923 0.68516 0.0
O1014 O 0.44306 0.41773 0.66002 0.0
C1015 C 0.45247 0.36794 0.63269 0.0
N1016 N 0.44399 0.34973 0.63805 0.0
C1017 C 0.44488 0.29802 0.6163 0.0
C1018 C 0.4536 0.31638 0.6105 0.0
C1019 C 0.45741 0.35144 0.61875 0.0
C1020 C 0.44025 0.31597 0.6302 0.0
H1021 H 0.45544 0.39479 0.63903 0.0
C1022 C 0.44834 0.43564 0.67116 0.0
O1023 O 0.45497 0.36706 0.71469 0.0
O1024 O 0.46221 0.34537 0.69149 0.0
N1025 N 0.42826 0.3166 0.65099 0.0
C1026 C 0.42014 0.30107 0.65879 0.0
C1027 C 0.41559 0.26517 0.65242 0.0
C1028 C 0.41941 0.24575 0.63806 0.0
C1029 C 0.42773 0.26247 0.63018 0.0
C1030 C 0.43191 0.2985 0.63702 0.0
H1031 H 0.41717 0.31582 0.66983 0.0
O1032 O 0.44493 0.29883 0.69493 0.0
O1033 O 0.44413 0.33577 0.67177 0.0
O1034 O 0.43378 0.37435 0.69906 0.0
O1035 O 0.42634 0.38164 0.67405 0.0
C1036 C 0.43217 0.24433 0.616 0.0
C1037 C 0.44074 0.26206 0.60908 0.0
H1038 H 0.45747 0.30359 0.59982 0.0
H1039 H 0.46416 0.36565 0.6144 0.0
H1040 H 0.40918 0.25241 0.65859 0.0
H1041 H 0.41594 0.21784 0.63329 0.0
H1042 H 0.42913 0.21635 0.61049 0.0
H1043 H 0.44417 0.24745 0.59835 0.0
Mn1044 Mn 0.30388 0.3856 0.69292 0.0
Mn1045 Mn 0.31678 0.38051 0.65676 0.0
C1046 C 0.30823 0.4454 0.67875 0.0
C1047 C 0.28893 0.39066 0.70725 0.0
C1048 C 0.32604 0.36864 0.6909 0.0
O1049 O 0.30182 0.3249 0.68575 0.0
O1050 O 0.31048 0.32651 0.66159 0.0
C1051 C 0.30008 0.3695 0.63338 0.0
N1052 N 0.30817 0.39124 0.63834 0.0
C1053 C 0.30633 0.43964 0.61556 0.0
C1054 C 0.29801 0.41764 0.61016 0.0
C1055 C 0.29487 0.38247 0.61913 0.0
C1056 C 0.31125 0.42516 0.62982 0.0
H1057 H 0.29763 0.34251 0.64026 0.0
C1058 C 0.30516 0.30778 0.67244 0.0
O1059 O 0.29688 0.3781 0.71476 0.0
O1060 O 0.28955 0.39706 0.69127 0.0
N1061 N 0.3232 0.4312 0.65054 0.0
C1062 C 0.33109 0.44999 0.65784 0.0
C1063 C 0.33504 0.48614 0.6506 0.0
C1064 C 0.33088 0.50239 0.63589 0.0
C1065 C 0.32282 0.48228 0.62852 0.0
C1066 C 0.31925 0.44617 0.63622 0.0
H1067 H 0.33433 0.43758 0.66914 0.0
O1068 O 0.30628 0.44687 0.69462 0.0
O1069 O 0.30766 0.40915 0.67172 0.0
O1070 O 0.31826 0.37395 0.69961 0.0
O1071 O 0.32622 0.37002 0.67493 0.0
C1072 C 0.31808 0.49703 0.61399 0.0
C1073 C 0.30983 0.47578 0.60754 0.0
H1074 H 0.29394 0.42764 0.59922 0.0
H1075 H 0.28843 0.36544 0.61508 0.0
H1076 H 0.34125 0.5015 0.65637 0.0
H1077 H 0.3339 0.53045 0.63042 0.0
H1078 H 0.32064 0.52503 0.60782 0.0
H1079 H 0.30617 0.48774 0.5965 0.0
Mn1080 Mn 0.44979 0.38369 0.06161 0.0
Mn1081 Mn 0.43723 0.36789 0.09755 0.0
C1082 C 0.44322 0.43938 0.0761 0.0
C1083 C 0.46454 0.39688 0.04761 0.0
C1084 C 0.42875 0.35131 0.063 0.0
O1085 O 0.45364 0.32415 0.06813 0.0
O1086 O 0.44636 0.32099 0.09358 0.0
C1087 C 0.45354 0.37362 0.12202 0.0
N1088 N 0.44459 0.38667 0.11648 0.0
C1089 C 0.44294 0.43381 0.13972 0.0
C1090 C 0.45209 0.42053 0.14576 0.0
C1091 C 0.45744 0.39046 0.13682 0.0
C1092 C 0.43944 0.41595 0.12488 0.0
H1093 H 0.45767 0.35062 0.11516 0.0
C1094 C 0.45194 0.30617 0.08213 0.0
O1095 O 0.45704 0.38081 0.0399 0.0
O1096 O 0.46365 0.40276 0.0636 0.0
N1097 N 0.4282 0.41159 0.10298 0.0
C1098 C 0.41983 0.4232 0.09484 0.0
C1099 C 0.41384 0.45438 0.10175 0.0
C1100 C 0.41645 0.4729 0.11704 0.0
C1101 C 0.42504 0.46015 0.12527 0.0
C1102 C 0.43074 0.42903 0.11776 0.0
H1103 H 0.41774 0.40893 0.08314 0.0
O1104 O 0.44544 0.44308 0.06038 0.0
O1105 O 0.44506 0.4036 0.08291 0.0
O1106 O 0.43602 0.36482 0.0545 0.0
O1107 O 0.4288 0.34864 0.07896 0.0
C1108 C 0.42824 0.47747 0.14052 0.0
C1109 C 0.43721 0.4645 0.14769 0.0
H1110 H 0.45513 0.43349 0.15716 0.0
H1111 H 0.46455 0.38026 0.14133 0.0
H1112 H 0.40722 0.46405 0.09531 0.0
H1113 H 0.41183 0.49702 0.12231 0.0
H1114 H 0.42395 0.50139 0.14667 0.0
H1115 H 0.4397 0.47872 0.15924 0.0
Mn1116 Mn 0.30708 0.36495 0.06215 0.0
Mn1117 Mn 0.31947 0.38057 0.09833 0.0
C1118 C 0.3123 0.30934 0.07805 0.0
C1119 C 0.29242 0.35353 0.04759 0.0
C1120 C 0.32883 0.38916 0.06404 0.0
O1121 O 0.30391 0.42571 0.06763 0.0
O1122 O 0.31202 0.43133 0.09229 0.0
C1123 C 0.30256 0.38875 0.12146 0.0
N1124 N 0.31106 0.36931 0.11696 0.0
C1125 C 0.31002 0.32308 0.14061 0.0
C1126 C 0.30129 0.3428 0.14554 0.0
C1127 C 0.29754 0.37573 0.1359 0.0
C1128 C 0.31474 0.33761 0.12616 0.0
H1129 H 0.29962 0.41395 0.11406 0.0
C1130 C 0.3065 0.44592 0.08071 0.0
O1131 O 0.30025 0.36704 0.04 0.0
O1132 O 0.29295 0.34954 0.06371 0.0
N1133 N 0.32686 0.3332 0.10565 0.0
C1134 C 0.33502 0.31587 0.09864 0.0
C1135 C 0.33951 0.28164 0.10645 0.0
C1136 C 0.33559 0.26572 0.12141 0.0
C1137 C 0.32724 0.2843 0.12847 0.0
C1138 C 0.32313 0.31858 0.1202 0.0
H1139 H 0.33806 0.32785 0.08711 0.0
O1140 O 0.31053 0.30451 0.06222 0.0
O1141 O 0.31104 0.34645 0.08404 0.0
O1142 O 0.32126 0.37951 0.05543 0.0
O1143 O 0.32881 0.39171 0.08 0.0
C1144 C 0.3227 0.2696 0.14319 0.0
C1145 C 0.3141 0.28897 0.14925 0.0
H1146 H 0.29736 0.33264 0.15661 0.0
H1147 H 0.29078 0.39097 0.13958 0.0
H1148 H 0.34595 0.26742 0.10091 0.0
H1149 H 0.33901 0.23902 0.12729 0.0
H1150 H 0.32569 0.24302 0.1498 0.0
H1151 H 0.3106 0.27699 0.16044 0.0
C1152 C 0.08634 0.11126 0.29288 0.0
C1153 C 0.08261 0.08673 0.30601 0.0
C1154 C 0.09644 0.11153 0.2894 0.0
C1155 C 0.11891 0.09819 0.31359 0.0
H1156 H 0.13268 0.11568 0.27163 0.0
C1157 C 0.16163 0.10659 0.29318 0.0
C1158 C 0.16487 0.13146 0.30656 0.0
C1159 C 0.15155 0.10337 0.28962 0.0
C1160 C 0.12891 0.11074 0.28341 0.0
H1161 H 0.08629 0.0397 0.3244 0.0
H1162 H 0.1038 0.03917 0.318 0.0
H1163 H 0.11502 0.09883 0.27143 0.0
H1164 H 0.16036 0.17564 0.32551 0.0
H1165 H 0.1429 0.17116 0.31898 0.0
H1166 H 0.13261 0.10998 0.32565 0.0
C1167 C 0.09901 0.0592 0.31074 0.0
C1168 C 0.11882 0.10121 0.2833 0.0
C1169 C 0.08897 0.05925 0.31433 0.0
C1170 C 0.15803 0.15612 0.31518 0.0
C1171 C 0.14804 0.15325 0.31153 0.0
C1172 C 0.12888 0.10793 0.3137 0.0
C1173 C 0.10294 0.08706 0.29892 0.0
C1174 C 0.11373 0.09478 0.29844 0.0
C1175 C 0.14464 0.12514 0.29936 0.0
C1176 C 0.13399 0.11474 0.29866 0.0
H1177 H 0.08162 0.13297 0.28632 0.0
H1178 H 0.09923 0.13333 0.28022 0.0
H1179 H 0.11521 0.09426 0.3255 0.0
H1180 H 0.16677 0.0869 0.28649 0.0
H1181 H 0.14914 0.08148 0.28016 0.0
C1182 C 0.16778 0.11268 0.95646 0.0
C1183 C 0.17166 0.0921 0.9424 0.0
C1184 C 0.15766 0.1111 0.95984 0.0
C1185 C 0.13512 0.10051 0.93531 0.0
H1186 H 0.12145 0.10457 0.97792 0.0
C1187 C 0.09244 0.09592 0.95697 0.0
C1188 C 0.0888 0.12311 0.94466 0.0
C1189 C 0.10259 0.09346 0.96002 0.0
C1190 C 0.12519 0.10336 0.96595 0.0
H1191 H 0.16824 0.0502 0.92198 0.0
H1192 H 0.15074 0.04621 0.92818 0.0
H1193 H 0.13928 0.09143 0.97724 0.0
H1194 H 0.09269 0.1717 0.92711 0.0
H1195 H 0.11026 0.16854 0.93279 0.0
H1196 H 0.12122 0.11218 0.92393 0.0
C1197 C 0.1554 0.06471 0.93629 0.0
C1198 C 0.13538 0.096 0.96556 0.0
C1199 C 0.16543 0.06671 0.9328 0.0
C1200 C 0.09532 0.15035 0.9366 0.0
C1201 C 0.10539 0.14825 0.93976 0.0
C1202 C 0.12505 0.10803 0.93571 0.0
C1203 C 0.1513 0.08865 0.94927 0.0
C1204 C 0.14045 0.09444 0.95019 0.0
C1205 C 0.10919 0.11832 0.95083 0.0
C1206 C 0.11995 0.10997 0.95099 0.0
H1207 H 0.1724 0.13275 0.964 0.0
H1208 H 0.15474 0.12991 0.96994 0.0
H1209 H 0.13878 0.10033 0.92326 0.0
H1210 H 0.08755 0.07427 0.96319 0.0
H1211 H 0.10531 0.0701 0.96863 0.0
C1212 C 0.91515 0.8655 0.70954 0.0
C1213 C 0.91728 0.88933 0.69524 0.0
C1214 C 0.90547 0.86273 0.71549 0.0
C1215 C 0.88058 0.90926 0.71231 0.0
H1216 H 0.87125 0.79527 0.71191 0.0
C1217 C 0.84417 0.82406 0.68917 0.0
C1218 C 0.8368 0.8482 0.69675 0.0
C1219 C 0.85385 0.82581 0.69492 0.0
C1220 C 0.87375 0.82723 0.71233 0.0
H1221 H 0.91119 0.93127 0.67672 0.0
H1222 H 0.89442 0.92736 0.68731 0.0
H1223 H 0.88891 0.80925 0.71154 0.0
H1224 H 0.83369 0.89138 0.71692 0.0
H1225 H 0.85072 0.89494 0.72685 0.0
H1226 H 0.86543 0.92729 0.71212 0.0
C1227 C 0.90014 0.91059 0.69389 0.0
C1228 C 0.88386 0.83525 0.71225 0.0
C1229 C 0.90974 0.9127 0.68777 0.0
C1230 C 0.8392 0.87221 0.71089 0.0
C1231 C 0.84895 0.87449 0.7165 0.0
C1232 C 0.87048 0.90125 0.71257 0.0
C1233 C 0.89784 0.88447 0.70744 0.0
C1234 C 0.88737 0.87635 0.71155 0.0
C1235 C 0.85642 0.8522 0.70826 0.0
C1236 C 0.86696 0.86016 0.71189 0.0
H1237 H 0.92082 0.84687 0.71542 0.0
H1238 H 0.90389 0.84242 0.72598 0.0
H1239 H 0.88308 0.94124 0.71187 0.0
H1240 H 0.84254 0.80524 0.67826 0.0
H1241 H 0.85944 0.80857 0.6882 0.0
C1242 C 0.91323 0.8905 0.0459 0.0
C1243 C 0.91697 0.86124 0.05732 0.0
C1244 C 0.90308 0.89283 0.04285 0.0
C1245 C 0.88059 0.88479 0.0366 0.0
H1246 H 0.86685 0.87734 0.07905 0.0
C1247 C 0.83781 0.88116 0.0455 0.0
C1248 C 0.83414 0.89957 0.06021 0.0
C1249 C 0.84796 0.8807 0.04231 0.0
C1250 C 0.87056 0.87998 0.0671 0.0
H1251 H 0.91324 0.8088 0.07311 0.0
H1252 H 0.89567 0.81183 0.06738 0.0
H1253 H 0.88435 0.86396 0.078 0.0
H1254 H 0.83806 0.93564 0.08213 0.0
H1255 H 0.85563 0.93591 0.07635 0.0
H1256 H 0.86663 0.90138 0.02584 0.0
C1257 C 0.90047 0.83385 0.06116 0.0
C1258 C 0.8806 0.87158 0.06644 0.0
C1259 C 0.91055 0.83184 0.06433 0.0
C1260 C 0.84068 0.92081 0.07079 0.0
C1261 C 0.85076 0.92068 0.06754 0.0
C1262 C 0.87045 0.89302 0.03725 0.0
C1263 C 0.89655 0.86576 0.05113 0.0
C1264 C 0.88576 0.87371 0.05121 0.0
C1265 C 0.85457 0.89884 0.05373 0.0
C1266 C 0.86534 0.89099 0.05257 0.0
H1267 H 0.91801 0.91383 0.04047 0.0
H1268 H 0.9003 0.91775 0.03506 0.0
H1269 H 0.88437 0.88673 0.02469 0.0
H1270 H 0.83296 0.86428 0.03717 0.0
H1271 H 0.85067 0.86364 0.03156 0.0
C1272 C 0.08619 0.61773 0.79399 0.0
C1273 C 0.08271 0.59487 0.8078 0.0
C1274 C 0.0963 0.61962 0.79056 0.0
C1275 C 0.11893 0.61577 0.81476 0.0
H1276 H 0.1328 0.61772 0.77232 0.0
C1277 C 0.16163 0.61051 0.79437 0.0
C1278 C 0.16516 0.63868 0.80642 0.0
C1279 C 0.15152 0.60821 0.79092 0.0
C1280 C 0.129 0.61725 0.78423 0.0
H1281 H 0.08694 0.55261 0.82768 0.0
H1282 H 0.10445 0.55521 0.82152 0.0
H1283 H 0.11506 0.60226 0.77294 0.0
H1284 H 0.16115 0.68937 0.82291 0.0
H1285 H 0.14365 0.68627 0.81656 0.0
H1286 H 0.13267 0.63036 0.82617 0.0
C1287 C 0.09944 0.57259 0.81362 0.0
C1288 C 0.11887 0.60856 0.78458 0.0
C1289 C 0.08941 0.57095 0.8171 0.0
C1290 C 0.1586 0.66713 0.81368 0.0
C1291 C 0.14858 0.66515 0.81012 0.0
C1292 C 0.12894 0.62474 0.81439 0.0
C1293 C 0.10305 0.59852 0.80086 0.0
C1294 C 0.11377 0.60738 0.79991 0.0
C1295 C 0.14485 0.63421 0.79942 0.0
C1296 C 0.13411 0.62571 0.79917 0.0
H1297 H 0.0812 0.63663 0.78665 0.0
H1298 H 0.09887 0.63986 0.78064 0.0
H1299 H 0.1152 0.61582 0.82675 0.0
H1300 H 0.16653 0.588 0.78871 0.0
H1301 H 0.14886 0.58405 0.78262 0.0
C1302 C 0.09431 0.66956 0.4398 0.0
C1303 C 0.0869 0.64387 0.44638 0.0
C1304 C 0.10389 0.66739 0.44597 0.0
C1305 C 0.12367 0.66331 0.46353 0.0
H1306 H 0.13291 0.54928 0.46158 0.0
C1307 C 0.16507 0.62523 0.4611 0.0
C1308 C 0.16743 0.60106 0.44699 0.0
C1309 C 0.15532 0.62801 0.46668 0.0
C1310 C 0.13043 0.58125 0.46239 0.0
H1311 H 0.08356 0.59765 0.46529 0.0
H1312 H 0.10042 0.59351 0.47602 0.0
H1313 H 0.11528 0.56347 0.46163 0.0
H1314 H 0.16157 0.55847 0.42846 0.0
H1315 H 0.14468 0.56278 0.4383 0.0
H1316 H 0.13884 0.68115 0.46327 0.0
C1317 C 0.09877 0.61542 0.46611 0.0
C1318 C 0.12033 0.5894 0.46258 0.0
C1319 C 0.08911 0.61807 0.46007 0.0
C1320 C 0.15999 0.57743 0.43934 0.0
C1321 C 0.1503 0.57973 0.44505 0.0
C1322 C 0.13378 0.65514 0.46348 0.0
C1323 C 0.10632 0.63907 0.45873 0.0
C1324 C 0.11684 0.63057 0.46247 0.0
C1325 C 0.1478 0.60611 0.45842 0.0
C1326 C 0.13726 0.61408 0.46223 0.0
H1327 H 0.09281 0.68972 0.42923 0.0
H1328 H 0.10953 0.68577 0.4399 0.0
H1329 H 0.1212 0.69534 0.46359 0.0
H1330 H 0.17064 0.64401 0.46719 0.0
H1331 H 0.15361 0.64841 0.47708 0.0
C1332 C 0.9154 0.38539 0.21257 0.0
C1333 C 0.91745 0.40893 0.19816 0.0
C1334 C 0.90579 0.38323 0.21884 0.0
C1335 C 0.88076 0.42931 0.21547 0.0
H1336 H 0.87182 0.31478 0.21568 0.0
C1337 C 0.8452 0.34043 0.19111 0.0
C1338 C 0.83757 0.36432 0.19802 0.0
C1339 C 0.85474 0.34327 0.19747 0.0
C1340 C 0.87421 0.34691 0.21594 0.0
H1341 H 0.9113 0.45135 0.17987 0.0
H1342 H 0.89464 0.44831 0.19094 0.0
H1343 H 0.88941 0.32975 0.2157 0.0
H1344 H 0.8338 0.40833 0.21755 0.0
H1345 H 0.8506 0.4139 0.22852 0.0
H1346 H 0.86556 0.44641 0.21461 0.0
C1347 C 0.90039 0.43134 0.1974 0.0
C1348 C 0.88429 0.35552 0.21609 0.0
C1349 C 0.90992 0.43294 0.19099 0.0
C1350 C 0.83954 0.38934 0.21206 0.0
C1351 C 0.84915 0.39274 0.21826 0.0
C1352 C 0.87068 0.42071 0.21547 0.0
C1353 C 0.89813 0.40519 0.21097 0.0
C1354 C 0.88767 0.39678 0.21511 0.0
C1355 C 0.85689 0.37054 0.21072 0.0
C1356 C 0.86731 0.37939 0.21495 0.0
H1357 H 0.92106 0.3663 0.21826 0.0
H1358 H 0.90426 0.36297 0.22936 0.0
H1359 H 0.88316 0.46141 0.21485 0.0
H1360 H 0.84389 0.32084 0.1803 0.0
H1361 H 0.86054 0.3261 0.19125 0.0
C1362 C 0.91013 0.33645 0.56421 0.0
C1363 C 0.91663 0.36196 0.5552 0.0
C1364 C 0.90003 0.33874 0.56146 0.0
C1365 C 0.88034 0.37933 0.56492 0.0
H1366 H 0.86599 0.39199 0.52327 0.0
C1367 C 0.84001 0.423 0.56731 0.0
C1368 C 0.83369 0.39727 0.55805 0.0
C1369 C 0.85007 0.42384 0.56386 0.0
C1370 C 0.86992 0.3885 0.53499 0.0
H1371 H 0.9177 0.40769 0.53536 0.0
H1372 H 0.89991 0.41211 0.53064 0.0
H1373 H 0.88377 0.37801 0.52265 0.0
H1374 H 0.8328 0.35472 0.53707 0.0
H1375 H 0.85046 0.35561 0.53118 0.0
H1376 H 0.86666 0.38893 0.57735 0.0
C1377 C 0.90268 0.39004 0.53973 0.0
C1378 C 0.88008 0.38068 0.53463 0.0
C1379 C 0.91286 0.38743 0.5424 0.0
C1380 C 0.8375 0.37509 0.54433 0.0
C1381 C 0.84763 0.37554 0.54099 0.0
C1382 C 0.87028 0.38728 0.56528 0.0
C1383 C 0.89614 0.36704 0.54978 0.0
C1384 C 0.88538 0.37555 0.54963 0.0
C1385 C 0.85407 0.39843 0.55124 0.0
C1386 C 0.86491 0.39196 0.55036 0.0
H1387 H 0.91284 0.31625 0.57405 0.0
H1388 H 0.89521 0.31976 0.56909 0.0
H1389 H 0.8842 0.37638 0.57673 0.0
H1390 H 0.83726 0.44073 0.57786 0.0
H1391 H 0.85479 0.44273 0.5717 0.0
C1392 C 0.66556 0.12503 0.78842 0.0
C1393 C 0.6682 0.14947 0.80231 0.0
C1394 C 0.65574 0.12305 0.78316 0.0
C1395 C 0.63427 0.09706 0.78807 0.0
H1396 H 0.61592 0.1894 0.78873 0.0
C1397 C 0.59464 0.08615 0.81196 0.0
C1398 C 0.58723 0.10988 0.80427 0.0
C1399 C 0.60433 0.08815 0.80624 0.0
C1400 C 0.62095 0.16328 0.78817 0.0
H1401 H 0.66283 0.19369 0.82063 0.0
H1402 H 0.6458 0.19094 0.81127 0.0
H1403 H 0.6336 0.20307 0.78809 0.0
H1404 H 0.58408 0.15271 0.784 0.0
H1405 H 0.60112 0.15668 0.77413 0.0
H1406 H 0.62163 0.0573 0.78909 0.0
C1407 C 0.65125 0.17308 0.80448 0.0
C1408 C 0.63106 0.17114 0.78793 0.0
C1409 C 0.66101 0.17457 0.80989 0.0
C1410 C 0.58962 0.1338 0.79009 0.0
C1411 C 0.59937 0.13636 0.78453 0.0
C1412 C 0.62416 0.08922 0.7885 0.0
C1413 C 0.64844 0.14604 0.79151 0.0
C1414 C 0.63783 0.13812 0.78839 0.0
C1415 C 0.60686 0.11441 0.79285 0.0
C1416 C 0.6174 0.12226 0.78907 0.0
H1417 H 0.67092 0.10507 0.7824 0.0
H1418 H 0.65379 0.10215 0.77306 0.0
H1419 H 0.63929 0.07095 0.78858 0.0
H1420 H 0.59302 0.06747 0.82291 0.0
H1421 H 0.60994 0.07115 0.81301 0.0
C1422 C 0.66307 0.13339 0.46116 0.0
C1423 C 0.66528 0.1071 0.44761 0.0
C1424 C 0.65338 0.13688 0.46696 0.0
C1425 C 0.63179 0.1633 0.46291 0.0
H1426 H 0.61335 0.07136 0.46458 0.0
C1427 C 0.59232 0.17149 0.43871 0.0
C1428 C 0.58487 0.14838 0.44658 0.0
C1429 C 0.60195 0.17042 0.44475 0.0
C1430 C 0.6184 0.09744 0.46453 0.0
H1431 H 0.65931 0.06157 0.4304 0.0
H1432 H 0.64252 0.0669 0.44071 0.0
H1433 H 0.63101 0.05745 0.46507 0.0
H1434 H 0.58156 0.1078 0.46751 0.0
H1435 H 0.59849 0.10542 0.47796 0.0
H1436 H 0.61918 0.20314 0.46137 0.0
C1437 C 0.64819 0.08502 0.44683 0.0
C1438 C 0.6285 0.08942 0.46468 0.0
C1439 C 0.65781 0.08209 0.44085 0.0
C1440 C 0.58713 0.12614 0.46124 0.0
C1441 C 0.59683 0.12453 0.46715 0.0
C1442 C 0.62168 0.17129 0.46259 0.0
C1443 C 0.6458 0.11351 0.45953 0.0
C1444 C 0.6353 0.12218 0.46325 0.0
C1445 C 0.60438 0.14575 0.45868 0.0
C1446 C 0.61489 0.13834 0.46278 0.0
H1447 H 0.66869 0.15327 0.4665 0.0
H1448 H 0.65174 0.159 0.47681 0.0
H1449 H 0.63684 0.18918 0.46168 0.0
H1450 H 0.5908 0.18897 0.4274 0.0
H1451 H 0.6076 0.18679 0.43783 0.0
C1452 C 0.33641 0.87173 0.21402 0.0
C1453 C 0.33396 0.85028 0.19925 0.0
C1454 C 0.34618 0.87289 0.21961 0.0
C1455 C 0.37099 0.82649 0.21383 0.0
H1456 H 0.38029 0.94022 0.21724 0.0
C1457 C 0.4072 0.91703 0.19298 0.0
C1458 C 0.41462 0.89111 0.19937 0.0
C1459 C 0.39758 0.91401 0.19894 0.0
C1460 C 0.3778 0.90826 0.21657 0.0
H1461 H 0.33962 0.81045 0.1796 0.0
H1462 H 0.35654 0.81178 0.1895 0.0
H1463 H 0.36264 0.92622 0.21689 0.0
H1464 H 0.41792 0.84333 0.21767 0.0
H1465 H 0.40099 0.83763 0.22797 0.0
H1466 H 0.38614 0.80874 0.21255 0.0
C1467 C 0.35099 0.82791 0.19673 0.0
C1468 C 0.36769 0.90018 0.21649 0.0
C1469 C 0.34129 0.82727 0.19101 0.0
C1470 C 0.41236 0.86399 0.21263 0.0
C1471 C 0.40267 0.86045 0.21842 0.0
C1472 C 0.38109 0.83453 0.21407 0.0
C1473 C 0.35361 0.85203 0.21071 0.0
C1474 C 0.36418 0.85935 0.21448 0.0
C1475 C 0.39512 0.88454 0.21125 0.0
C1476 C 0.3846 0.87564 0.21479 0.0
H1477 H 0.33094 0.89003 0.22057 0.0
H1478 H 0.34798 0.89152 0.23049 0.0
H1479 H 0.36849 0.79469 0.21237 0.0
H1480 H 0.40874 0.93814 0.18273 0.0
H1481 H 0.39194 0.93275 0.19304 0.0
C1482 C 0.34219 0.91829 0.56729 0.0
C1483 C 0.33545 0.89362 0.55843 0.0
C1484 C 0.35223 0.91559 0.56394 0.0
C1485 C 0.37164 0.87222 0.56618 0.0
H1486 H 0.38542 0.86138 0.52389 0.0
C1487 C 0.41142 0.82088 0.5665 0.0
C1488 C 0.41793 0.84697 0.55778 0.0
C1489 C 0.40135 0.82223 0.56324 0.0
C1490 C 0.38165 0.86434 0.53577 0.0
H1491 H 0.33383 0.84921 0.53821 0.0
H1492 H 0.3515 0.84406 0.53245 0.0
H1493 H 0.36775 0.87791 0.52409 0.0
H1494 H 0.4191 0.89247 0.53786 0.0
H1495 H 0.4014 0.89532 0.5323 0.0
H1496 H 0.38536 0.85933 0.57798 0.0
C1497 C 0.34898 0.86577 0.54189 0.0
C1498 C 0.37155 0.87365 0.53588 0.0
C1499 C 0.33887 0.86879 0.54516 0.0
C1500 C 0.41426 0.87182 0.5447 0.0
C1501 C 0.40412 0.8735 0.54155 0.0
C1502 C 0.38163 0.86274 0.56607 0.0
C1503 C 0.35579 0.88772 0.5518 0.0
C1504 C 0.36648 0.87808 0.55113 0.0
C1505 C 0.39753 0.85015 0.55135 0.0
C1506 C 0.38677 0.85861 0.55091 0.0
H1507 H 0.33975 0.93802 0.57747 0.0
H1508 H 0.35727 0.93372 0.5715 0.0
H1509 H 0.36794 0.87462 0.57815 0.0
H1510 H 0.41406 0.80108 0.57652 0.0
H1511 H 0.39649 0.80302 0.5707 0.0
C1512 C 0.66544 0.62094 0.29169 0.0
C1513 C 0.66834 0.6398 0.30679 0.0
C1514 C 0.65555 0.62129 0.28679 0.0
C1515 C 0.6338 0.59627 0.29092 0.0
H1516 H 0.61643 0.6915 0.29463 0.0
C1517 C 0.59324 0.58873 0.31112 0.0
C1518 C 0.58638 0.61462 0.3031 0.0
C1519 C 0.60317 0.59007 0.30669 0.0
C1520 C 0.62119 0.66472 0.29326 0.0
H1521 H 0.66332 0.67628 0.32794 0.0
H1522 H 0.64614 0.67801 0.31912 0.0
H1523 H 0.63426 0.70163 0.29572 0.0
H1524 H 0.58446 0.66105 0.28371 0.0
H1525 H 0.60193 0.66406 0.27618 0.0
H1526 H 0.62072 0.55911 0.28949 0.0
C1527 C 0.65147 0.66264 0.31116 0.0
C1528 C 0.63138 0.6705 0.29399 0.0
C1529 C 0.6613 0.66158 0.31623 0.0
C1530 C 0.58957 0.64037 0.28995 0.0
C1531 C 0.59956 0.64238 0.28575 0.0
C1532 C 0.62361 0.59042 0.29047 0.0
C1533 C 0.64843 0.64128 0.29671 0.0
C1534 C 0.63778 0.63624 0.2932 0.0
C1535 C 0.60649 0.61795 0.29437 0.0
C1536 C 0.6172 0.62449 0.29201 0.0
H1537 H 0.67068 0.60353 0.28426 0.0
H1538 H 0.6534 0.6047 0.27557 0.0
H1539 H 0.63855 0.56925 0.29044 0.0
H1540 H 0.59099 0.56872 0.32135 0.0
H1541 H 0.60835 0.57115 0.31364 0.0
C1542 C 0.65963 0.57822 0.94045 0.0
C1543 C 0.66713 0.60326 0.94713 0.0
C1544 C 0.65002 0.58141 0.94642 0.0
C1545 C 0.63024 0.58746 0.96413 0.0
H1546 H 0.62142 0.70193 0.96088 0.0
C1547 C 0.58902 0.62799 0.96236 0.0
C1548 C 0.58662 0.65007 0.94772 0.0
C1549 C 0.5988 0.62561 0.96779 0.0
C1550 C 0.62378 0.66988 0.96207 0.0
H1551 H 0.67056 0.64949 0.966 0.0
H1552 H 0.65366 0.6555 0.97632 0.0
H1553 H 0.63901 0.68652 0.96093 0.0
H1554 H 0.59241 0.68964 0.92809 0.0
H1555 H 0.60938 0.68621 0.93772 0.0
H1556 H 0.615 0.57069 0.96434 0.0
C1557 C 0.65527 0.63325 0.96651 0.0
C1558 C 0.63385 0.66105 0.96224 0.0
C1559 C 0.66495 0.62953 0.9607 0.0
C1560 C 0.59404 0.67236 0.9394 0.0
C1561 C 0.60376 0.67053 0.94497 0.0
C1562 C 0.62017 0.59633 0.96414 0.0
C1563 C 0.64766 0.61018 0.95904 0.0
C1564 C 0.63717 0.61965 0.96263 0.0
C1565 C 0.60631 0.64588 0.95884 0.0
C1566 C 0.61684 0.63753 0.96248 0.0
H1567 H 0.6611 0.55773 0.92997 0.0
H1568 H 0.64431 0.56346 0.94031 0.0
H1569 H 0.63259 0.55529 0.96452 0.0
H1570 H 0.58347 0.61022 0.96897 0.0
H1571 H 0.60055 0.60657 0.97858 0.0
C1572 C 0.3428 0.33797 0.69214 0.0
C1573 C 0.33562 0.36369 0.69935 0.0
C1574 C 0.3525 0.33908 0.69785 0.0
C1575 C 0.36983 0.4135 0.71387 0.0
H1576 H 0.38723 0.31801 0.71551 0.0
C1577 C 0.41407 0.36834 0.71287 0.0
C1578 C 0.41666 0.38981 0.69818 0.0
C1579 C 0.40432 0.36838 0.71853 0.0
C1580 C 0.38248 0.34505 0.71545 0.0
H1581 H 0.3328 0.40952 0.71864 0.0
H1582 H 0.34991 0.41222 0.72845 0.0
H1583 H 0.36943 0.3076 0.71598 0.0
H1584 H 0.41126 0.43061 0.67863 0.0
H1585 H 0.39435 0.43143 0.68866 0.0
H1586 H 0.38287 0.45079 0.71228 0.0
C1587 C 0.34797 0.39081 0.71851 0.0
C1588 C 0.37229 0.33905 0.7156 0.0
C1589 C 0.33819 0.38905 0.71299 0.0
C1590 C 0.40948 0.41373 0.68998 0.0
C1591 C 0.3998 0.41437 0.69578 0.0
C1592 C 0.38001 0.41947 0.71351 0.0
C1593 C 0.35526 0.36655 0.71069 0.0
C1594 C 0.36587 0.37312 0.71425 0.0
C1595 C 0.39703 0.39057 0.70977 0.0
C1596 C 0.38644 0.38521 0.71373 0.0
H1597 H 0.34101 0.31824 0.68157 0.0
H1598 H 0.35795 0.32036 0.69144 0.0
H1599 H 0.36506 0.44034 0.71268 0.0
H1600 H 0.41944 0.34937 0.71937 0.0
H1601 H 0.40239 0.34988 0.72938 0.0
C1602 C 0.34603 0.41609 0.06302 0.0
C1603 C 0.33849 0.39254 0.05562 0.0
C1604 C 0.35571 0.41257 0.05736 0.0
C1605 C 0.37187 0.33419 0.04038 0.0
H1606 H 0.39076 0.42451 0.03959 0.0
C1607 C 0.41668 0.36819 0.04031 0.0
C1608 C 0.41919 0.34464 0.05452 0.0
C1609 C 0.40689 0.37051 0.03495 0.0
C1610 C 0.38559 0.39891 0.03942 0.0
H1611 H 0.33509 0.34842 0.03593 0.0
H1612 H 0.3521 0.34181 0.02617 0.0
H1613 H 0.37319 0.44008 0.03985 0.0
H1614 H 0.41358 0.30209 0.07329 0.0
H1615 H 0.39659 0.3055 0.06378 0.0
H1616 H 0.38428 0.29306 0.04087 0.0
C1617 C 0.35047 0.36316 0.03629 0.0
C1618 C 0.37553 0.40786 0.0397 0.0
C1619 C 0.34073 0.36724 0.04178 0.0
C1620 C 0.41188 0.32055 0.06231 0.0
C1621 C 0.40213 0.32241 0.05682 0.0
C1622 C 0.38194 0.32523 0.04027 0.0
C1623 C 0.35809 0.38495 0.04434 0.0
C1624 C 0.36857 0.37563 0.0407 0.0
C1625 C 0.39947 0.34877 0.04354 0.0
C1626 C 0.3889 0.35753 0.0403 0.0
H1627 H 0.34452 0.4358 0.07372 0.0
H1628 H 0.36142 0.42949 0.06392 0.0
H1629 H 0.36669 0.30868 0.04128 0.0
H1630 H 0.42212 0.38733 0.03409 0.0
H1631 H 0.40505 0.39081 0.02459 0.0
C1632 C 0.02995 0.16424 0.26736 0.0
C1633 C 0.02971 0.16404 0.28495 0.0
C1634 C 0.02275 0.18564 0.25822 0.0
C1635 C 0.99799 0.23406 0.26173 0.0
H1636 H 0.00693 0.30168 0.2245 0.0
C1637 C 0.97234 0.35309 0.23016 0.0
C1638 C 0.97221 0.35281 0.21256 0.0
C1639 C 0.97971 0.332 0.23896 0.0
C1640 C 0.0043 0.28273 0.23478 0.0
H1641 H 0.02152 0.18472 0.30672 0.0
H1642 H 0.00904 0.22194 0.29086 0.0
H1643 H 0.01864 0.25782 0.23948 0.0
H1644 H 0.98003 0.332 0.19042 0.0
H1645 H 0.99287 0.29535 0.20574 0.0
H1646 H 0.98367 0.25902 0.25707 0.0
C1647 C 0.01472 0.20544 0.28406 0.0
C1648 C 0.01101 0.25742 0.24333 0.0
C1649 C 0.02191 0.18414 0.29317 0.0
C1650 C 0.97992 0.3329 0.20397 0.0
C1651 C 0.9873 0.31191 0.21277 0.0
C1652 C 0.9913 0.2594 0.2532 0.0
C1653 C 0.01516 0.20719 0.26648 0.0
C1654 C 0.00794 0.23282 0.25694 0.0
C1655 C 0.98714 0.31025 0.23036 0.0
C1656 C 0.99437 0.28415 0.23965 0.0
H1657 H 0.03587 0.1491 0.26065 0.0
H1658 H 0.02322 0.18576 0.24468 0.0
H1659 H 0.99534 0.21509 0.27198 0.0
H1660 H 0.96652 0.36815 0.23716 0.0
H1661 H 0.97948 0.33202 0.25252 0.0
C1662 C 0.22897 0.08342 0.29442 0.0
C1663 C 0.22053 0.09793 0.28608 0.0
C1664 C 0.23649 0.06351 0.2856 0.0
C1665 C 0.24662 0.04234 0.24334 0.0
H1666 H 0.25568 0.94023 0.26416 0.0
C1667 C 0.2713 0.92682 0.2076 0.0
C1668 C 0.27932 0.90992 0.21639 0.0
C1669 C 0.26387 0.94829 0.21606 0.0
C1670 C 0.25332 0.96883 0.25823 0.0
H1671 H 0.21369 0.10534 0.26176 0.0
H1672 H 0.22686 0.07065 0.24629 0.0
H1673 H 0.24384 0.98412 0.2787 0.0
H1674 H 0.2856 0.90077 0.24106 0.0
H1675 H 0.27266 0.9384 0.25585 0.0
H1676 H 0.25613 0.02713 0.22289 0.0
C1677 C 0.22766 0.07471 0.25968 0.0
C1678 C 0.24654 0.99411 0.26659 0.0
C1679 C 0.22011 0.09474 0.26854 0.0
C1680 C 0.27948 0.91315 0.23393 0.0
C1681 C 0.27206 0.9348 0.24241 0.0
C1682 C 0.25343 0.0171 0.23499 0.0
C1683 C 0.23576 0.05754 0.26821 0.0
C1684 C 0.24311 0.03124 0.25928 0.0
C1685 C 0.26428 0.95358 0.23353 0.0
C1686 C 0.25687 0.97999 0.24232 0.0
H1687 H 0.22956 0.08561 0.30792 0.0
H1688 H 0.24274 0.05162 0.2925 0.0
H1689 H 0.24421 0.07087 0.23741 0.0
H1690 H 0.27093 0.92475 0.19408 0.0
H1691 H 0.25788 0.96143 0.20885 0.0
C1692 C 0.03371 0.0913 0.98509 0.0
C1693 C 0.03322 0.09438 0.96755 0.0
C1694 C 0.02587 0.07413 0.99416 0.0
C1695 C 0.99951 0.0428 0.99102 0.0
H1696 H 0.00671 0.96235 0.02506 0.0
C1697 C 0.97092 0.9306 0.0199 0.0
C1698 C 0.97123 0.9259 0.03739 0.0
C1699 C 0.97859 0.95072 0.01142 0.0
C1700 C 0.00456 0.98497 0.0157 0.0
H1701 H 0.02388 0.08409 0.94592 0.0
H1702 H 0.01031 0.05431 0.96164 0.0
H1703 H 0.0195 0.00222 0.01094 0.0
H1704 H 0.98003 0.93721 0.05959 0.0
H1705 H 0.99335 0.97206 0.04485 0.0
H1706 H 0.98457 0.02527 0.9957 0.0
C1707 C 0.01669 0.06519 0.96847 0.0
C1708 C 0.0119 0.00802 0.00765 0.0
C1709 C 0.02451 0.08222 0.95942 0.0
C1710 C 0.97955 0.94024 0.0461 0.0
C1711 C 0.98722 0.96016 0.03764 0.0
C1712 C 0.99217 0.0197 0.99905 0.0
C1713 C 0.01737 0.05984 0.9859 0.0
C1714 C 0.00948 0.03716 0.99516 0.0
C1715 C 0.98676 0.96638 0.02023 0.0
C1716 C 0.9946 0.99038 0.01146 0.0
H1717 H 0.04032 0.10029 0.99173 0.0
H1718 H 0.02657 0.07116 0.00762 0.0
H1719 H 0.99736 0.06531 0.98162 0.0
H1720 H 0.96461 0.91997 0.01282 0.0
H1721 H 0.97807 0.9544 0.99797 0.0
C1722 C 0.23415 0.1654 0.95871 0.0
C1723 C 0.22576 0.14943 0.96674 0.0
C1724 C 0.24145 0.18581 0.96784 0.0
C1725 C 0.25116 0.20571 0.01049 0.0
H1726 H 0.26026 0.30861 0.99036 0.0
C1727 C 0.27573 0.32074 0.04691 0.0
C1728 C 0.28381 0.33744 0.03822 0.0
C1729 C 0.26832 0.29931 0.03836 0.0
C1730 C 0.25788 0.2798 0.9961 0.0
H1731 H 0.21875 0.14023 0.99083 0.0
H1732 H 0.23155 0.17595 0.00685 0.0
H1733 H 0.2485 0.26516 0.97543 0.0
H1734 H 0.29023 0.34621 0.01362 0.0
H1735 H 0.27732 0.30879 0.99869 0.0
H1736 H 0.26057 0.22035 0.03116 0.0
C1737 C 0.23248 0.17256 0.99346 0.0
C1738 C 0.25114 0.25478 0.98752 0.0
C1739 C 0.22515 0.15197 0.98428 0.0
C1740 C 0.28408 0.33393 0.02069 0.0
C1741 C 0.27666 0.31245 0.01212 0.0
C1742 C 0.25791 0.23074 0.01908 0.0
C1743 C 0.24056 0.19092 0.98525 0.0
C1744 C 0.24774 0.21729 0.99455 0.0
C1745 C 0.26881 0.29402 0.0209 0.0
C1746 C 0.26138 0.26806 0.01197 0.0
H1747 H 0.23489 0.16372 0.94522 0.0
H1748 H 0.2477 0.19861 0.96117 0.0
H1749 H 0.24875 0.17689 0.0162 0.0
H1750 H 0.27528 0.32297 0.06042 0.0
H1751 H 0.26228 0.28631 0.04548 0.0
C1752 C 0.98101 0.83525 0.70336 0.0
C1753 C 0.97271 0.85021 0.71198 0.0
C1754 C 0.98838 0.81347 0.71184 0.0
C1755 C 0.99799 0.78702 0.7542 0.0
H1756 H 0.00733 0.68738 0.73186 0.0
C1757 C 0.02025 0.66371 0.78976 0.0
C1758 C 0.02883 0.64901 0.78194 0.0
C1759 C 0.01329 0.68654 0.78075 0.0
C1760 C 0.00486 0.71525 0.73821 0.0
H1761 H 0.96595 0.85602 0.73645 0.0
H1762 H 0.97877 0.81789 0.75124 0.0
H1763 H 0.99601 0.73398 0.71738 0.0
H1764 H 0.03656 0.64468 0.75826 0.0
H1765 H 0.02435 0.68445 0.74246 0.0
H1766 H 0.00676 0.76804 0.77509 0.0
C1767 C 0.97963 0.82319 0.73793 0.0
C1768 C 0.9984 0.74213 0.72989 0.0
C1769 C 0.97226 0.84515 0.72944 0.0
C1770 C 0.03 0.65539 0.76464 0.0
C1771 C 0.02301 0.67828 0.75559 0.0
C1772 C 0.00441 0.76008 0.76253 0.0
C1773 C 0.98764 0.80595 0.72915 0.0
C1774 C 0.99485 0.77833 0.7378 0.0
C1775 C 0.01473 0.69526 0.76368 0.0
C1776 C 0.00789 0.72374 0.75468 0.0
H1777 H 0.9816 0.83876 0.68991 0.0
H1778 H 0.99455 0.80156 0.70474 0.0
H1779 H 0.99553 0.81485 0.76059 0.0
H1780 H 0.01908 0.65915 0.80305 0.0
H1781 H 0.00688 0.69828 0.78728 0.0
C1782 C 0.73033 0.06602 0.79449 0.0
C1783 C 0.72241 0.08391 0.78575 0.0
C1784 C 0.73789 0.04578 0.78587 0.0
C1785 C 0.74914 0.03198 0.74384 0.0
H1786 H 0.7581 0.92716 0.76247 0.0
C1787 C 0.77418 0.92166 0.70629 0.0
C1788 C 0.78226 0.90452 0.71483 0.0
C1789 C 0.76668 0.94191 0.71506 0.0
C1790 C 0.75575 0.95653 0.75717 0.0
H1791 H 0.71643 0.09593 0.76106 0.0
H1792 H 0.7296 0.06044 0.74601 0.0
H1793 H 0.74584 0.96812 0.77746 0.0
H1794 H 0.78858 0.89368 0.73937 0.0
H1795 H 0.77548 0.92901 0.75469 0.0
H1796 H 0.75903 0.02029 0.72352 0.0
C1797 C 0.73001 0.06231 0.75953 0.0
C1798 C 0.74873 0.98013 0.76578 0.0
C1799 C 0.72245 0.08265 0.76816 0.0
C1800 C 0.78244 0.90639 0.73241 0.0
C1801 C 0.77492 0.92665 0.7412 0.0
C1802 C 0.75614 0.00835 0.73521 0.0
C1803 C 0.73772 0.04282 0.7683 0.0
C1804 C 0.74534 0.01818 0.75924 0.0
C1805 C 0.76706 0.94552 0.73259 0.0
C1806 C 0.75952 0.97029 0.74175 0.0
H1807 H 0.73055 0.06656 0.80804 0.0
H1808 H 0.74382 0.03191 0.79302 0.0
H1809 H 0.74681 0.06137 0.73853 0.0
H1810 H 0.77379 0.92066 0.69275 0.0
H1811 H 0.76064 0.95533 0.70806 0.0
C1812 C 0.72938 0.685 0.95187 0.0
C1813 C 0.72157 0.66711 0.96088 0.0
C1814 C 0.73688 0.70647 0.96019 0.0
C1815 C 0.74796 0.72363 0.00224 0.0
H1816 H 0.75698 0.8274 0.98274 0.0
C1817 C 0.77129 0.83707 0.04046 0.0
C1818 C 0.77989 0.85215 0.03282 0.0
C1819 C 0.76402 0.81743 0.031 0.0
C1820 C 0.75459 0.79835 0.98827 0.0
H1821 H 0.71568 0.65664 0.98575 0.0
H1822 H 0.72868 0.69425 1.00024 0.0
H1823 H 0.74505 0.78462 0.96767 0.0
H1824 H 0.7873 0.86093 0.00906 0.0
H1825 H 0.77451 0.82668 0.99241 0.0
H1826 H 0.7574 0.73752 0.02291 0.0
C1827 C 0.72911 0.69138 0.98675 0.0
C1828 C 0.74778 0.77368 0.97962 0.0
C1829 C 0.72162 0.6698 0.97843 0.0
C1830 C 0.78073 0.84982 0.0153 0.0
C1831 C 0.77342 0.83007 0.00578 0.0
C1832 C 0.75471 0.74833 0.0109 0.0
C1833 C 0.73675 0.71066 0.97772 0.0
C1834 C 0.74433 0.7361 0.98655 0.0
C1835 C 0.76516 0.8123 0.01363 0.0
C1836 C 0.75805 0.78617 0.00411 0.0
H1837 H 0.72957 0.68346 0.93832 0.0
H1838 H 0.74274 0.7202 0.95284 0.0
H1839 H 0.74564 0.69455 0.00783 0.0
H1840 H 0.77036 0.83866 0.05392 0.0
H1841 H 0.75763 0.80504 0.03738 0.0
C1842 C 0.2283 0.57189 0.79417 0.0
C1843 C 0.21991 0.58631 0.78569 0.0
C1844 C 0.23579 0.55116 0.78555 0.0
C1845 C 0.24595 0.52983 0.7433 0.0
H1846 H 0.25622 0.43056 0.76468 0.0
C1847 C 0.27173 0.41815 0.70794 0.0
C1848 C 0.28006 0.40393 0.71665 0.0
C1849 C 0.26406 0.43805 0.71641 0.0
C1850 C 0.25351 0.45837 0.75859 0.0
H1851 H 0.21302 0.59191 0.76131 0.0
H1852 H 0.22611 0.55573 0.74622 0.0
H1853 H 0.24396 0.47269 0.7791 0.0
H1854 H 0.28664 0.39769 0.74124 0.0
H1855 H 0.27327 0.4325 0.75606 0.0
H1856 H 0.25552 0.51561 0.72282 0.0
C1857 C 0.22692 0.56059 0.75957 0.0
C1858 C 0.24648 0.48264 0.76687 0.0
C1859 C 0.21941 0.58138 0.76822 0.0
C1860 C 0.2803 0.40804 0.73417 0.0
C1861 C 0.27262 0.42807 0.74266 0.0
C1862 C 0.25298 0.50558 0.73502 0.0
C1863 C 0.23508 0.54428 0.76821 0.0
C1864 C 0.24262 0.51875 0.75936 0.0
C1865 C 0.26453 0.44435 0.73382 0.0
C1866 C 0.25686 0.46951 0.74255 0.0
H1867 H 0.22895 0.57531 0.80762 0.0
H1868 H 0.24206 0.53988 0.79255 0.0
H1869 H 0.24323 0.55766 0.73722 0.0
H1870 H 0.27128 0.41535 0.69444 0.0
H1871 H 0.25784 0.44929 0.70925 0.0
C1872 C 0.02427 0.5642 0.44919 0.0
C1873 C 0.03216 0.58054 0.45849 0.0
C1874 C 0.01655 0.54336 0.45719 0.0
C1875 C 0.01142 0.48396 0.49556 0.0
H1876 H 0.98403 0.49813 0.48333 0.0
C1877 C 0.97979 0.4195 0.53582 0.0
C1878 C 0.97105 0.40628 0.52806 0.0
C1879 C 0.98737 0.43726 0.52645 0.0
C1880 C 0.99166 0.4932 0.4867 0.0
H1881 H 0.03792 0.58921 0.48357 0.0
H1882 H 0.02443 0.55302 0.49752 0.0
H1883 H 0.99667 0.53884 0.46906 0.0
H1884 H 0.96363 0.39958 0.5042 0.0
H1885 H 0.97701 0.42991 0.4877 0.0
H1886 H 0.00648 0.43824 0.5131 0.0
C1887 C 0.02427 0.55592 0.48401 0.0
C1888 C 0.99889 0.51675 0.47858 0.0
C1889 C 0.03196 0.57702 0.47603 0.0
C1890 C 0.97027 0.40939 0.51055 0.0
C1891 C 0.9779 0.42722 0.50113 0.0
C1892 C 0.0042 0.46025 0.50359 0.0
C1893 C 0.01658 0.53811 0.47466 0.0
C1894 C 0.00885 0.51277 0.48306 0.0
C1895 C 0.98646 0.44221 0.50903 0.0
C1896 C 0.99421 0.4649 0.49944 0.0
H1897 H 0.02421 0.56631 0.43565 0.0
H1898 H 0.01076 0.5299 0.44961 0.0
H1899 H 0.01904 0.47945 0.49905 0.0
H1900 H 0.98064 0.41767 0.54929 0.0
H1901 H 0.99378 0.44879 0.53304 0.0
C1902 C 0.23033 0.672 0.45629 0.0
C1903 C 0.22201 0.65778 0.46504 0.0
C1904 C 0.23781 0.69353 0.46461 0.0
C1905 C 0.24785 0.71783 0.50674 0.0
H1906 H 0.25823 0.81569 0.48444 0.0
C1907 C 0.27221 0.834 0.54199 0.0
C1908 C 0.28089 0.84665 0.53392 0.0
C1909 C 0.26481 0.8135 0.53312 0.0
C1910 C 0.25546 0.78829 0.49078 0.0
H1911 H 0.21522 0.65358 0.48953 0.0
H1912 H 0.22823 0.69131 0.50406 0.0
H1913 H 0.24618 0.77203 0.47015 0.0
H1914 H 0.28836 0.84992 0.50998 0.0
H1915 H 0.27539 0.81409 0.49442 0.0
H1916 H 0.25708 0.73416 0.52739 0.0
C1917 C 0.22903 0.68555 0.49077 0.0
C1918 C 0.24858 0.76313 0.48257 0.0
C1919 C 0.22155 0.6639 0.48244 0.0
C1920 C 0.28174 0.84072 0.51654 0.0
C1921 C 0.27431 0.82011 0.50764 0.0
C1922 C 0.2547 0.74301 0.51494 0.0
C1923 C 0.23714 0.70148 0.48188 0.0
C1924 C 0.24467 0.7276 0.49046 0.0
C1925 C 0.2659 0.80507 0.51596 0.0
C1926 C 0.25856 0.77866 0.5071 0.0
H1927 H 0.23094 0.66768 0.44287 0.0
H1928 H 0.24405 0.70453 0.45743 0.0
H1929 H 0.24512 0.6904 0.51309 0.0
H1930 H 0.27129 0.83836 0.55535 0.0
H1931 H 0.25832 0.80326 0.53983 0.0
C1932 C 0.77431 0.4279 0.20444 0.0
C1933 C 0.78238 0.41154 0.21328 0.0
C1934 C 0.76676 0.44869 0.21288 0.0
C1935 C 0.75592 0.46658 0.25498 0.0
H1936 H 0.74662 0.56953 0.23516 0.0
C1937 C 0.73162 0.57836 0.2925 0.0
C1938 C 0.7232 0.59383 0.28441 0.0
C1939 C 0.73907 0.5589 0.28338 0.0
C1940 C 0.74908 0.5407 0.2408 0.0
H1941 H 0.78861 0.40269 0.23801 0.0
H1942 H 0.77545 0.43895 0.25273 0.0
H1943 H 0.75865 0.52705 0.22022 0.0
H1944 H 0.71629 0.60329 0.26025 0.0
H1945 H 0.72935 0.56923 0.24425 0.0
H1946 H 0.74639 0.4802 0.27556 0.0
C1947 C 0.77492 0.43553 0.23927 0.0
C1948 C 0.75595 0.51622 0.23221 0.0
C1949 C 0.78248 0.41471 0.23083 0.0
C1950 C 0.72271 0.59191 0.26684 0.0
C1951 C 0.73019 0.57227 0.25768 0.0
C1952 C 0.74907 0.49104 0.26356 0.0
C1953 C 0.76707 0.45363 0.23037 0.0
C1954 C 0.75949 0.47891 0.23923 0.0
C1955 C 0.7383 0.55426 0.26593 0.0
C1956 C 0.74561 0.52855 0.25664 0.0
H1957 H 0.774 0.42595 0.19091 0.0
H1958 H 0.76073 0.46149 0.20566 0.0
H1959 H 0.75835 0.43775 0.26065 0.0
H1960 H 0.73226 0.57961 0.30601 0.0
H1961 H 0.74533 0.54638 0.29009 0.0
C1962 C 0.78024 0.33513 0.51646 0.0
C1963 C 0.77964 0.33812 0.53399 0.0
C1964 C 0.77288 0.31455 0.50737 0.0
C1965 C 0.75393 0.23345 0.51351 0.0
H1966 H 0.74452 0.26824 0.46991 0.0
C1967 C 0.72043 0.15722 0.48094 0.0
C1968 C 0.72055 0.15356 0.46341 0.0
C1969 C 0.72802 0.17796 0.48934 0.0
C1970 C 0.74718 0.25774 0.48198 0.0
H1971 H 0.77052 0.32443 0.55558 0.0
H1972 H 0.75765 0.28953 0.53977 0.0
H1973 H 0.75658 0.31087 0.48469 0.0
H1974 H 0.72902 0.16698 0.44103 0.0
H1975 H 0.74234 0.20235 0.4557 0.0
H1976 H 0.74456 0.18036 0.51084 0.0
C1977 C 0.76391 0.30199 0.53304 0.0
C1978 C 0.75407 0.28229 0.49047 0.0
C1979 C 0.77125 0.32241 0.5421 0.0
C1980 C 0.72868 0.16932 0.45455 0.0
C1981 C 0.73627 0.19002 0.46294 0.0
C1982 C 0.74706 0.2089 0.50503 0.0
C1983 C 0.76477 0.29662 0.51564 0.0
C1984 C 0.75748 0.27061 0.50641 0.0
C1985 C 0.73593 0.19549 0.48041 0.0
C1986 C 0.74355 0.2208 0.48918 0.0
H1987 H 0.78664 0.34668 0.50986 0.0
H1988 H 0.77378 0.31094 0.49397 0.0
H1989 H 0.75656 0.22298 0.5256 0.0
H1990 H 0.71425 0.14567 0.48814 0.0
H1991 H 0.72747 0.18178 0.50278 0.0
C1992 C 0.47147 0.33807 0.73454 0.0
C1993 C 0.47164 0.33981 0.71696 0.0
C1994 C 0.47914 0.31882 0.74335 0.0
C1995 C 0.50477 0.27954 0.73922 0.0
H1996 H 0.49701 0.20431 0.77479 0.0
C1997 C 0.53247 0.16542 0.76908 0.0
C1998 C 0.53236 0.16302 0.78665 0.0
C1999 C 0.52485 0.18543 0.76046 0.0
C2000 C 0.49932 0.22543 0.76499 0.0
H2001 H 0.48024 0.32464 0.69491 0.0
H2002 H 0.49354 0.29126 0.71019 0.0
H2003 H 0.48457 0.24603 0.7606 0.0
H2004 H 0.5239 0.178 0.80888 0.0
H2005 H 0.51066 0.21273 0.79392 0.0
H2006 H 0.51952 0.25889 0.74359 0.0
C2007 C 0.48753 0.3048 0.71724 0.0
C2008 C 0.49219 0.24952 0.75689 0.0
C2009 C 0.47988 0.3239 0.70845 0.0
C2010 C 0.52422 0.17922 0.79534 0.0
C2011 C 0.5166 0.1991 0.78674 0.0
C2012 C 0.5119 0.25545 0.74731 0.0
C2013 C 0.48715 0.30107 0.73477 0.0
C2014 C 0.49482 0.27686 0.74388 0.0
C2015 C 0.51692 0.20334 0.76923 0.0
C2016 C 0.50927 0.22802 0.76029 0.0
H2017 H 0.46523 0.34998 0.74147 0.0
H2018 H 0.47869 0.31713 0.75687 0.0
H2019 H 0.50708 0.30062 0.7294 0.0
H2020 H 0.53863 0.1533 0.762 0.0
H2021 H 0.52524 0.18749 0.74694 0.0
C2022 C 0.47103 0.91012 0.51601 0.0
C2023 C 0.47186 0.90496 0.53343 0.0
C2024 C 0.47826 0.93186 0.50707 0.0
C2025 C 0.49718 0.01249 0.51391 0.0
H2026 H 0.50619 0.98185 0.46956 0.0
C2027 C 0.53019 0.0925 0.48119 0.0
C2028 C 0.52991 0.09685 0.46369 0.0
C2029 C 0.52268 0.07127 0.48963 0.0
C2030 C 0.50364 0.99124 0.48184 0.0
H2031 H 0.48125 0.91618 0.55493 0.0
H2032 H 0.49388 0.95328 0.53934 0.0
H2033 H 0.49437 0.93759 0.48408 0.0
H2034 H 0.52122 0.08458 0.44145 0.0
H2035 H 0.50805 0.04855 0.45618 0.0
H2036 H 0.50641 0.06614 0.5117 0.0
C2037 C 0.48754 0.94149 0.53262 0.0
C2038 C 0.49688 0.96572 0.49018 0.0
C2039 C 0.48034 0.91983 0.54153 0.0
C2040 C 0.52169 0.08161 0.45494 0.0
C2041 C 0.51418 0.06053 0.46337 0.0
C2042 C 0.50391 0.03804 0.50556 0.0
C2043 C 0.48646 0.94887 0.51538 0.0
C2044 C 0.49362 0.97589 0.50636 0.0
C2045 C 0.51471 0.05403 0.48076 0.0
C2046 C 0.50726 0.0277 0.48945 0.0
H2047 H 0.46456 0.89925 0.50942 0.0
H2048 H 0.47719 0.93705 0.49379 0.0
H2049 H 0.49466 0.02173 0.52623 0.0
H2050 H 0.53644 0.10363 0.4883 0.0
H2051 H 0.52337 0.06669 0.50301 0.0
C2052 C 0.47744 0.81506 0.20287 0.0
C2053 C 0.46955 0.83144 0.21215 0.0
C2054 C 0.4852 0.79461 0.21091 0.0
C2055 C 0.49065 0.73711 0.24975 0.0
H2056 H 0.51786 0.74984 0.2362 0.0
C2057 C 0.52296 0.6734 0.28886 0.0
C2058 C 0.53145 0.65912 0.28063 0.0
C2059 C 0.51522 0.69115 0.27985 0.0
C2060 C 0.51028 0.74535 0.23996 0.0
H2061 H 0.46383 0.8406 0.23722 0.0
H2062 H 0.47742 0.80526 0.25126 0.0
H2063 H 0.50509 0.79014 0.22215 0.0
H2064 H 0.53826 0.65052 0.25634 0.0
H2065 H 0.52464 0.6809 0.24051 0.0
H2066 H 0.4958 0.69233 0.26752 0.0
C2067 C 0.47753 0.80772 0.23773 0.0
C2068 C 0.50296 0.76865 0.23195 0.0
C2069 C 0.46979 0.82835 0.2297 0.0
C2070 C 0.53182 0.66117 0.26306 0.0
C2071 C 0.52405 0.67902 0.25401 0.0
C2072 C 0.49796 0.71372 0.25771 0.0
C2073 C 0.48524 0.78987 0.22841 0.0
C2074 C 0.49306 0.76509 0.23685 0.0
C2075 C 0.51575 0.69507 0.26234 0.0
C2076 C 0.50788 0.71778 0.25303 0.0
H2077 H 0.47747 0.8168 0.18933 0.0
H2078 H 0.49098 0.78108 0.20334 0.0
H2079 H 0.48308 0.73292 0.25359 0.0
H2080 H 0.52243 0.67241 0.30239 0.0
H2081 H 0.50901 0.70348 0.28674 0.0
C2082 C 0.48099 0.43183 0.04715 0.0
C2083 C 0.47319 0.41308 0.0384 0.0
C2084 C 0.48845 0.45282 0.03855 0.0
C2085 C 0.49962 0.46759 0.99651 0.0
H2086 H 0.50795 0.5735 0.01499 0.0
C2087 C 0.52386 0.57967 0.95857 0.0
C2088 C 0.53196 0.59714 0.96694 0.0
C2089 C 0.51644 0.55934 0.9675 0.0
C2090 C 0.50577 0.54385 0.00973 0.0
H2091 H 0.46732 0.40029 0.01369 0.0
H2092 H 0.48029 0.43706 0.99867 0.0
H2093 H 0.49597 0.53124 0.03009 0.0
H2094 H 0.53836 0.60885 0.99135 0.0
H2095 H 0.52538 0.57339 0.00698 0.0
H2096 H 0.50938 0.48028 0.97613 0.0
C2097 C 0.4807 0.4353 0.0122 0.0
C2098 C 0.49892 0.5195 0.01841 0.0
C2099 C 0.47325 0.41421 0.02081 0.0
C2100 C 0.53219 0.59587 0.98453 0.0
C2101 C 0.52475 0.5755 0.99349 0.0
C2102 C 0.50645 0.49196 0.98782 0.0
C2103 C 0.48828 0.45566 0.02098 0.0
C2104 C 0.49575 0.48106 0.0119 0.0
C2105 C 0.51693 0.55598 0.98503 0.0
C2106 C 0.50958 0.53046 0.99429 0.0
H2107 H 0.48119 0.43142 0.06071 0.0
H2108 H 0.49427 0.46736 0.0457 0.0
H2109 H 0.49747 0.43791 0.99124 0.0
H2110 H 0.52341 0.58026 0.94503 0.0
H2111 H 0.51041 0.54547 0.96062 0.0
C2112 C 0.05882 0.51356 0.3966 0.0
C2113 C 0.06443 0.51962 0.41111 0.0
C2114 C 0.06019 0.47818 0.38683 0.0
C2115 C 0.06671 0.37047 0.39013 0.0
H2116 H 0.06858 0.37506 0.34167 0.0
C2117 C 0.05508 0.23558 0.34785 0.0
C2118 C 0.06125 0.22496 0.33449 0.0
C2119 C 0.05696 0.27101 0.35733 0.0
C2120 C 0.0682 0.37328 0.3552 0.0
H2121 H 0.07536 0.4929 0.42758 0.0
H2122 H 0.07768 0.42997 0.41054 0.0
H2123 H 0.06942 0.43929 0.35798 0.0
H2124 H 0.07378 0.24375 0.31963 0.0
H2125 H 0.07714 0.30646 0.33629 0.0
H2126 H 0.06481 0.30498 0.38735 0.0
C2127 C 0.07246 0.45331 0.40648 0.0
C2128 C 0.06865 0.40997 0.3645 0.0
C2129 C 0.07114 0.48904 0.41618 0.0
C2130 C 0.06907 0.25119 0.33016 0.0
C2131 C 0.07096 0.28688 0.33963 0.0
C2132 C 0.06606 0.33393 0.38082 0.0
C2133 C 0.067 0.44773 0.39171 0.0
C2134 C 0.06777 0.40887 0.38201 0.0
C2135 C 0.06495 0.29689 0.35338 0.0
C2136 C 0.06667 0.33502 0.36327 0.0
H2137 H 0.0533 0.53605 0.3929 0.0
H2138 H 0.05573 0.47406 0.37572 0.0
H2139 H 0.06588 0.3689 0.40361 0.0
H2140 H 0.04877 0.21646 0.35095 0.0
H2141 H 0.05207 0.27853 0.3676 0.0
C2142 C 0.20071 0.72084 0.39974 0.0
C2143 C 0.19371 0.71899 0.41258 0.0
C2144 C 0.20066 0.75372 0.38844 0.0
C2145 C 0.1848 0.83694 0.37176 0.0
H2146 H 0.20968 0.88368 0.35731 0.0
C2147 C 0.20015 0.99716 0.34165 0.0
C2148 C 0.19309 0.00427 0.32923 0.0
C2149 C 0.20052 0.95912 0.34987 0.0
C2150 C 0.20267 0.87102 0.36123 0.0
H2151 H 0.18169 0.75095 0.42476 0.0
H2152 H 0.18161 0.80941 0.40497 0.0
H2153 H 0.20959 0.82579 0.37681 0.0
H2154 H 0.1815 0.97687 0.31433 0.0
H2155 H 0.18209 0.90943 0.32882 0.0
H2156 H 0.1779 0.88359 0.35671 0.0
C2157 C 0.18691 0.78464 0.40327 0.0
C2158 C 0.20261 0.83757 0.37229 0.0
C2159 C 0.18698 0.75156 0.41463 0.0
C2160 C 0.18684 0.97199 0.32422 0.0
C2161 C 0.18717 0.93371 0.33251 0.0
C2162 C 0.18486 0.87067 0.36075 0.0
C2163 C 0.1937 0.78577 0.38997 0.0
C2164 C 0.19368 0.8205 0.37783 0.0
C2165 C 0.19391 0.92722 0.34563 0.0
C2166 C 0.1938 0.88849 0.35562 0.0
H2167 H 0.20615 0.69646 0.39832 0.0
H2168 H 0.20595 0.75352 0.3783 0.0
H2169 H 0.17781 0.82391 0.37559 0.0
H2170 H 0.20523 0.0215 0.34531 0.0
H2171 H 0.20573 0.95541 0.36001 0.0
C2172 C 0.05172 -0.0005 0.90745 0.0
C2173 C 0.05901 0.00283 0.91975 0.0
C2174 C 0.05088 0.96339 0.89799 0.0
C2175 C 0.04773 0.87821 0.8838 0.0
H2176 H 0.07194 0.82671 0.86875 0.0
C2177 C 0.04812 0.72613 0.84633 0.0
C2178 C 0.05543 0.72068 0.8342 0.0
C2179 C 0.04823 0.76096 0.85665 0.0
C2180 C 0.06512 0.84106 0.8727 0.0
H2181 H 0.07048 0.97046 0.93321 0.0
H2182 H 0.06901 0.9064 0.91664 0.0
H2183 H 0.07263 0.88477 0.88829 0.0
H2184 H 0.06799 0.74847 0.82194 0.0
H2185 H 0.0682 0.81025 0.83997 0.0
H2186 H 0.04023 0.8357 0.86776 0.0
C2187 C 0.06416 0.93223 0.91391 0.0
C2188 C 0.06551 0.87385 0.88412 0.0
C2189 C 0.06498 0.96859 0.92342 0.0
C2190 C 0.06245 0.75185 0.83159 0.0
C2191 C 0.06258 0.78688 0.84195 0.0
C2192 C 0.04735 0.8457 0.8723 0.0
C2193 C 0.05722 0.92964 0.90087 0.0
C2194 C 0.05681 0.89292 0.88972 0.0
C2195 C 0.05558 0.79134 0.8548 0.0
C2196 C 0.05603 0.82677 0.86661 0.0
H2197 H 0.04684 0.02534 0.90483 0.0
H2198 H 0.04551 0.96268 0.88798 0.0
H2199 H 0.04089 0.89191 0.88801 0.0
H2200 H 0.04245 0.70285 0.84811 0.0
H2201 H 0.04276 0.76321 0.86646 0.0
C2202 C 0.19991 0.51736 0.85041 0.0
C2203 C 0.19274 0.51836 0.83785 0.0
C2204 C 0.20033 0.48422 0.86154 0.0
C2205 C 0.20332 0.40213 0.87821 0.0
H2206 H 0.17936 0.34778 0.89282 0.0
C2207 C 0.20401 0.24448 0.91041 0.0
C2208 C 0.19676 0.23434 0.92213 0.0
C2209 C 0.20361 0.28204 0.90186 0.0
C2210 C 0.18611 0.36316 0.88911 0.0
H2211 H 0.18096 0.48449 0.82584 0.0
H2212 H 0.18179 0.42523 0.84519 0.0
H2213 H 0.17839 0.40697 0.87378 0.0
H2214 H 0.18395 0.25621 0.93552 0.0
H2215 H 0.18322 0.32302 0.92058 0.0
H2216 H 0.21103 0.35964 0.89391 0.0
C2217 C 0.18682 0.45098 0.84692 0.0
C2218 C 0.18556 0.39652 0.87794 0.0
C2219 C 0.18638 0.48452 0.83578 0.0
C2220 C 0.18947 0.26339 0.92618 0.0
C2221 C 0.18905 0.30131 0.91759 0.0
C2222 C 0.20385 0.36935 0.88953 0.0
C2223 C 0.19373 0.4508 0.86006 0.0
C2224 C 0.19418 0.41596 0.87218 0.0
C2225 C 0.19603 0.31064 0.90512 0.0
C2226 C 0.19528 0.34884 0.89483 0.0
H2227 H 0.20508 0.54276 0.85185 0.0
H2228 H 0.20568 0.48544 0.87157 0.0
H2229 H 0.21012 0.41604 0.87395 0.0
H2230 H 0.20985 0.22274 0.90748 0.0
H2231 H 0.20903 0.28776 0.89221 0.0
C2232 C 0.95174 0.76682 0.65166 0.0
C2233 C 0.94499 0.7702 0.66483 0.0
C2234 C 0.95199 0.73114 0.64185 0.0
C2235 C 0.93658 0.64283 0.62915 0.0
H2236 H 0.96123 0.60144 0.61134 0.0
C2237 C 0.95229 0.49109 0.59192 0.0
C2238 C 0.9448 0.48585 0.5801 0.0
C2239 C 0.95255 0.52651 0.6019 0.0
C2240 C 0.95429 0.6124 0.61629 0.0
H2241 H 0.93386 0.73831 0.67929 0.0
H2242 H 0.93429 0.67503 0.66207 0.0
H2243 H 0.96136 0.65875 0.63114 0.0
H2244 H 0.93225 0.51435 0.56809 0.0
H2245 H 0.93266 0.57711 0.58559 0.0
H2246 H 0.92954 0.59551 0.61464 0.0
C2247 C 0.93916 0.70054 0.65899 0.0
C2248 C 0.95435 0.64552 0.62751 0.0
C2249 C 0.93894 0.73643 0.66886 0.0
C2250 C 0.93793 0.51762 0.57751 0.0
C2251 C 0.93815 0.55321 0.58755 0.0
C2252 C 0.93651 0.60945 0.61798 0.0
C2253 C 0.94559 0.69787 0.64521 0.0
C2254 C 0.9455 0.66124 0.63401 0.0
C2255 C 0.94538 0.55764 0.60004 0.0
C2256 C 0.94537 0.59394 0.61142 0.0
H2257 H 0.95668 0.79224 0.64873 0.0
H2258 H 0.95697 0.73029 0.63128 0.0
H2259 H 0.92963 0.65458 0.63378 0.0
H2260 H 0.95785 0.4673 0.59369 0.0
H2261 H 0.95817 0.52875 0.61146 0.0
C2262 C 0.81733 0.00323 0.66621 0.0
C2263 C 0.81082 0.97017 0.6635 0.0
C2264 C 0.81728 0.03748 0.6554 0.0
C2265 C 0.80134 0.0904 0.62443 0.0
H2266 H 0.82559 0.1447 0.61125 0.0
C2267 C 0.81579 0.22887 0.57708 0.0
C2268 C 0.80854 0.25834 0.58083 0.0
C2269 C 0.81617 0.19147 0.58602 0.0
C2270 C 0.81878 0.12942 0.6146 0.0
H2271 H 0.79865 0.94777 0.64856 0.0
H2272 H 0.79874 0.00634 0.62938 0.0
H2273 H 0.8262 0.08372 0.62946 0.0
H2274 H 0.7955 0.27121 0.59546 0.0
H2275 H 0.79624 0.20693 0.61134 0.0
H2276 H 0.79391 0.13479 0.60918 0.0
C2277 C 0.80391 0.00636 0.63968 0.0
C2278 C 0.81911 0.09497 0.62527 0.0
C2279 C 0.80395 0.97251 0.6505 0.0
C2280 C 0.80132 0.24918 0.59275 0.0
C2281 C 0.80168 0.21209 0.60165 0.0
C2282 C 0.80102 0.12429 0.61363 0.0
C2283 C 0.8106 0.03922 0.64194 0.0
C2284 C 0.81038 0.07536 0.63042 0.0
C2285 C 0.80917 0.18299 0.59856 0.0
C2286 C 0.8097 0.14463 0.60879 0.0
H2287 H 0.82253 0.00225 0.67648 0.0
H2288 H 0.82238 0.06271 0.65769 0.0
H2289 H 0.79446 0.07646 0.62829 0.0
H2290 H 0.82128 0.23524 0.56759 0.0
H2291 H 0.82193 0.16933 0.58316 0.0
C2292 C 0.94701 0.27599 0.15156 0.0
C2293 C 0.9412 0.28288 0.16578 0.0
C2294 C 0.94599 0.23944 0.14238 0.0
C2295 C 0.93846 0.13113 0.14587 0.0
H2296 H 0.93757 0.13656 0.09734 0.0
C2297 C 0.94725 0.99288 0.10262 0.0
C2298 C 0.94089 0.98598 0.0891 0.0
C2299 C 0.94613 0.02805 0.11263 0.0
C2300 C 0.93768 0.13458 0.11089 0.0
H2301 H 0.93032 0.25645 0.18241 0.0
H2302 H 0.92848 0.19187 0.16627 0.0
H2303 H 0.93789 0.2006 0.11362 0.0
H2304 H 0.92882 0.0109 0.07461 0.0
H2305 H 0.92686 0.07311 0.09212 0.0
H2306 H 0.93877 0.06495 0.14304 0.0
C2307 C 0.93369 0.21513 0.16206 0.0
C2308 C 0.93791 0.17122 0.12019 0.0
C2309 C 0.9347 0.25191 0.17123 0.0
C2310 C 0.93365 0.01542 0.08525 0.0
C2311 C 0.93255 0.05082 0.0952 0.0
C2312 C 0.93841 0.09443 0.13653 0.0
C2313 C 0.93928 0.20876 0.14748 0.0
C2314 C 0.93837 0.16987 0.13775 0.0
C2315 C 0.93879 0.05737 0.10899 0.0
C2316 C 0.93808 0.09588 0.11896 0.0
H2317 H 0.95237 0.29888 0.14757 0.0
H2318 H 0.95056 0.23492 0.13141 0.0
H2319 H 0.93893 0.12922 0.15938 0.0
H2320 H 0.95315 0.97124 0.10533 0.0
H2321 H 0.95118 0.03286 0.12295 0.0
C2322 C 0.81646 0.51323 0.16459 0.0
C2323 C 0.81039 0.47854 0.16232 0.0
C2324 C 0.81616 0.54596 0.15306 0.0
C2325 C 0.80033 0.59169 0.12022 0.0
H2326 H 0.82446 0.64631 0.10664 0.0
C2327 C 0.81496 0.73157 0.07345 0.0
C2328 C 0.80771 0.76077 0.07753 0.0
C2329 C 0.81515 0.69309 0.08163 0.0
C2330 C 0.81767 0.63086 0.11006 0.0
H2331 H 0.79865 0.45181 0.14751 0.0
H2332 H 0.79826 0.50798 0.1272 0.0
H2333 H 0.82516 0.58787 0.12607 0.0
H2334 H 0.79444 0.77212 0.09172 0.0
H2335 H 0.79483 0.70598 0.10628 0.0
H2336 H 0.79284 0.63375 0.10399 0.0
C2337 C 0.80331 0.51032 0.13765 0.0
C2338 C 0.81806 0.59792 0.12144 0.0
C2339 C 0.8036 0.47791 0.14914 0.0
C2340 C 0.80025 0.75022 0.0888 0.0
C2341 C 0.80041 0.71205 0.09692 0.0
C2342 C 0.79995 0.62422 0.10875 0.0
C2343 C 0.80965 0.54451 0.13934 0.0
C2344 C 0.80937 0.57851 0.12686 0.0
C2345 C 0.80797 0.68335 0.09372 0.0
C2346 C 0.80858 0.6449 0.10387 0.0
H2347 H 0.82158 0.51449 0.17497 0.0
H2348 H 0.82098 0.57236 0.15491 0.0
H2349 H 0.79348 0.57762 0.12418 0.0
H2350 H 0.82065 0.73909 0.06444 0.0
H2351 H 0.82098 0.67132 0.07871 0.0
C2352 C 0.55454 0.238 0.84886 0.0
C2353 C 0.5614 0.23387 0.8359 0.0
C2354 C 0.55464 0.27298 0.85907 0.0
C2355 C 0.55258 0.35901 0.87286 0.0
H2356 H 0.57724 0.40823 0.88705 0.0
C2357 C 0.55394 0.51616 0.90605 0.0
C2358 C 0.56088 0.52206 0.91877 0.0
C2359 C 0.55411 0.48021 0.8964 0.0
C2360 C 0.5703 0.39445 0.88335 0.0
H2361 H 0.57323 0.26375 0.82238 0.0
H2362 H 0.57338 0.32596 0.84025 0.0
H2363 H 0.57739 0.34708 0.86885 0.0
H2364 H 0.57291 0.49439 0.93251 0.0
H2365 H 0.57322 0.43054 0.91559 0.0
H2366 H 0.54546 0.40513 0.88773 0.0
C2367 C 0.56815 0.30142 0.84289 0.0
C2368 C 0.57039 0.35991 0.87272 0.0
C2369 C 0.56804 0.26616 0.83263 0.0
C2370 C 0.56766 0.49057 0.92243 0.0
C2371 C 0.56785 0.45436 0.91273 0.0
C2372 C 0.55249 0.39312 0.88357 0.0
C2373 C 0.56148 0.30499 0.85629 0.0
C2374 C 0.56151 0.34194 0.86734 0.0
C2375 C 0.56112 0.44905 0.89951 0.0
C2376 C 0.56134 0.41144 0.88883 0.0
H2377 H 0.54917 0.21382 0.85122 0.0
H2378 H 0.54946 0.2745 0.86936 0.0
H2379 H 0.5456 0.34623 0.86879 0.0
H2380 H 0.54846 0.53974 0.90339 0.0
H2381 H 0.54889 0.47735 0.88623 0.0
C2382 C 0.69556 0.73189 0.89763 0.0
C2383 C 0.68981 0.72568 0.91197 0.0
C2384 C 0.69414 0.76697 0.8877 0.0
C2385 C 0.68653 0.87419 0.89023 0.0
H2386 H 0.68578 0.8678 0.84172 0.0
C2387 C 0.69679 0.01122 0.84794 0.0
C2388 C 0.69078 0.01937 0.83409 0.0
C2389 C 0.69531 0.97561 0.85753 0.0
C2390 C 0.68585 0.87005 0.85525 0.0
H2391 H 0.67856 0.75178 0.92797 0.0
H2392 H 0.67609 0.81398 0.91059 0.0
H2393 H 0.68548 0.80396 0.85829 0.0
H2394 H 0.67898 0.99614 0.81853 0.0
H2395 H 0.67632 0.93321 0.8354 0.0
H2396 H 0.68749 0.94001 0.88722 0.0
C2397 C 0.68151 0.79112 0.90682 0.0
C2398 C 0.68572 0.83357 0.86471 0.0
C2399 C 0.6829 0.75577 0.91671 0.0
C2400 C 0.68355 0.9906 0.82942 0.0
C2401 C 0.68206 0.95478 0.83901 0.0
C2402 C 0.68684 0.91059 0.88077 0.0
C2403 C 0.68711 0.79691 0.89222 0.0
C2404 C 0.68618 0.83534 0.88226 0.0
C2405 C 0.6879 0.94714 0.85321 0.0
C2406 C 0.68662 0.90886 0.8632 0.0
H2407 H 0.70122 0.70975 0.8942 0.0
H2408 H 0.69872 0.77121 0.87673 0.0
H2409 H 0.68702 0.87636 0.90374 0.0
H2410 H 0.70267 0.03236 0.85131 0.0
H2411 H 0.70008 0.97001 0.86816 0.0
C2412 C 0.55185 0.7451 0.3424 0.0
C2413 C 0.55907 0.73996 0.3301 0.0
C2414 C 0.55172 0.78068 0.35227 0.0
C2415 C 0.54988 0.86663 0.36626 0.0
H2416 H 0.5746 0.91173 0.38225 0.0
C2417 C 0.55176 0.02003 0.40228 0.0
C2418 C 0.55863 0.02384 0.41523 0.0
C2419 C 0.55178 0.98509 0.39204 0.0
C2420 C 0.56764 0.89913 0.37804 0.0
H2421 H 0.57128 0.76873 0.3172 0.0
H2422 H 0.57108 0.83192 0.3345 0.0
H2423 H 0.57467 0.85223 0.36325 0.0
H2424 H 0.57034 0.99335 0.42882 0.0
H2425 H 0.57037 0.93124 0.41089 0.0
H2426 H 0.54282 0.91218 0.38148 0.0
C2427 C 0.56571 0.80779 0.3369 0.0
C2428 C 0.56769 0.86556 0.36693 0.0
C2429 C 0.56581 0.77196 0.32697 0.0
C2430 C 0.56515 0.99117 0.41857 0.0
C2431 C 0.56519 0.95597 0.40828 0.0
C2432 C 0.54983 0.8998 0.37744 0.0
C2433 C 0.55873 0.8122 0.3498 0.0
C2434 C 0.55879 0.84894 0.36096 0.0
C2435 C 0.55856 0.95286 0.39478 0.0
C2436 C 0.5587 0.91652 0.38342 0.0
H2437 H 0.5464 0.72109 0.34463 0.0
H2438 H 0.54631 0.78283 0.36218 0.0
H2439 H 0.5429 0.8549 0.36174 0.0
H2440 H 0.54647 0.04454 0.39986 0.0
H2441 H 0.54664 0.98394 0.38169 0.0
C2442 C 0.68643 0.25552 0.41456 0.0
C2443 C 0.6926 0.22111 0.41238 0.0
C2444 C 0.68668 0.28817 0.403 0.0
C2445 C 0.68467 0.33922 0.37112 0.0
H2446 H 0.70984 0.37738 0.35424 0.0
C2447 C 0.68764 0.47241 0.32279 0.0
C2448 C 0.69461 0.50252 0.32722 0.0
C2449 C 0.68754 0.43405 0.33107 0.0
C2450 C 0.70275 0.36712 0.35883 0.0
H2451 H 0.70445 0.19482 0.3977 0.0
H2452 H 0.70477 0.25097 0.37735 0.0
H2453 H 0.70934 0.32128 0.37449 0.0
H2454 H 0.70748 0.51573 0.34222 0.0
H2455 H 0.70724 0.44972 0.35689 0.0
H2456 H 0.67815 0.38677 0.35604 0.0
C2457 C 0.69969 0.25309 0.38775 0.0
C2458 C 0.70245 0.33468 0.37033 0.0
C2459 C 0.69943 0.22072 0.39926 0.0
C2460 C 0.70188 0.49309 0.33899 0.0
C2461 C 0.70182 0.45503 0.34719 0.0
C2462 C 0.68498 0.37201 0.35967 0.0
C2463 C 0.69323 0.28692 0.38934 0.0
C2464 C 0.69343 0.32074 0.37679 0.0
C2465 C 0.69455 0.42534 0.34357 0.0
C2466 C 0.69404 0.38688 0.3537 0.0
H2467 H 0.68127 0.25658 0.42489 0.0
H2468 H 0.68177 0.31432 0.40475 0.0
H2469 H 0.6776 0.32857 0.37563 0.0
H2470 H 0.6821 0.47911 0.31342 0.0
H2471 H 0.68193 0.41151 0.32787 0.0
C2472 C 0.4337 0.50428 0.0813 0.0
C2473 C 0.4411 0.4764 0.0861 0.0
C2474 C 0.43194 0.54 0.09081 0.0
C2475 C 0.43628 0.58485 0.13262 0.0
H2476 H 0.434 0.69119 0.11013 0.0
C2477 C 0.4311 0.73888 0.1686 0.0
C2478 C 0.4378 0.76984 0.16389 0.0
C2479 C 0.42995 0.70344 0.15867 0.0
C2480 C 0.43449 0.66163 0.11655 0.0
H2481 H 0.453 0.46494 0.10349 0.0
H2482 H 0.44994 0.52715 0.12018 0.0
H2483 H 0.43487 0.62743 0.09356 0.0
H2484 H 0.44909 0.78728 0.14613 0.0
H2485 H 0.44701 0.72567 0.12859 0.0
H2486 H 0.43615 0.61908 0.15558 0.0
C2487 C 0.44525 0.5209 0.10951 0.0
C2488 C 0.43495 0.62519 0.10709 0.0
C2489 C 0.447 0.48539 0.1 0.0
C2490 C 0.44358 0.76444 0.14954 0.0
C2491 C 0.4424 0.72928 0.13957 0.0
C2492 C 0.43565 0.62117 0.14207 0.0
C2493 C 0.43767 0.54843 0.10507 0.0
C2494 C 0.43606 0.58653 0.11505 0.0
C2495 C 0.43559 0.69845 0.14406 0.0
C2496 C 0.43496 0.65992 0.1341 0.0
H2497 H 0.42922 0.49809 0.07037 0.0
H2498 H 0.42607 0.56081 0.08711 0.0
H2499 H 0.4372 0.55558 0.13909 0.0
H2500 H 0.42673 0.74226 0.17986 0.0
H2501 H 0.4247 0.67988 0.16243 0.0
C2502 C 0.31653 0.01354 0.17493 0.0
C2503 C 0.30957 0.98324 0.17066 0.0
C2504 C 0.31711 0.05038 0.16566 0.0
C2505 C 0.3025 0.11574 0.1369 0.0
H2506 H 0.32784 0.1587 0.12284 0.0
C2507 C 0.31908 0.24007 0.08608 0.0
C2508 C 0.31256 0.27299 0.08902 0.0
C2509 C 0.31903 0.20539 0.09666 0.0
C2510 C 0.32072 0.14679 0.12656 0.0
H2511 H 0.29723 0.96828 0.15465 0.0
H2512 H 0.29831 0.03182 0.13826 0.0
H2513 H 0.32709 0.09683 0.14063 0.0
H2514 H 0.30041 0.29483 0.10415 0.0
H2515 H 0.30046 0.23524 0.12287 0.0
H2516 H 0.29607 0.16414 0.12234 0.0
C2517 C 0.30339 0.02753 0.14857 0.0
C2518 C 0.32029 0.11182 0.13694 0.0
C2519 C 0.30284 0.99094 0.15777 0.0
C2520 C 0.3057 0.27019 0.10204 0.0
C2521 C 0.30566 0.23582 0.1126 0.0
C2522 C 0.30292 0.15028 0.12645 0.0
C2523 C 0.31057 0.05753 0.1523 0.0
C2524 C 0.31117 0.09585 0.14212 0.0
C2525 C 0.31232 0.20304 0.11006 0.0
C2526 C 0.31202 0.16619 0.12114 0.0
H2527 H 0.32163 0.0083 0.18514 0.0
H2528 H 0.32261 0.07328 0.16898 0.0
H2529 H 0.29536 0.10452 0.14085 0.0
H2530 H 0.32426 0.24145 0.07579 0.0
H2531 H 0.32412 0.18023 0.09419 0.0
C2532 C 0.45017 0.25691 0.65659 0.0
C2533 C 0.44317 0.26148 0.66929 0.0
C2534 C 0.45032 0.2212 0.64681 0.0
C2535 C 0.43476 0.13347 0.63349 0.0
H2536 H 0.45971 0.09117 0.6173 0.0
C2537 C 0.43719 0.00721 0.58213 0.0
C2538 C 0.44427 0.97629 0.58476 0.0
C2539 C 0.43704 0.04248 0.59238 0.0
C2540 C 0.45268 0.10223 0.62182 0.0
H2541 H 0.43139 0.2316 0.68294 0.0
H2542 H 0.43168 0.16806 0.66584 0.0
H2543 H 0.45953 0.14851 0.63694 0.0
H2544 H 0.45725 0.95888 0.59874 0.0
H2545 H 0.45689 0.01941 0.61692 0.0
H2546 H 0.42796 0.08571 0.61885 0.0
C2547 C 0.43683 0.19278 0.66305 0.0
C2548 C 0.45256 0.13552 0.63294 0.0
C2549 C 0.43669 0.22881 0.67287 0.0
C2550 C 0.45155 0.98198 0.59691 0.0
C2551 C 0.45141 0.01694 0.60714 0.0
C2552 C 0.43488 0.09965 0.6225 0.0
C2553 C 0.44359 0.18889 0.64978 0.0
C2554 C 0.44362 0.1518 0.63879 0.0
C2555 C 0.44409 0.04739 0.60515 0.0
C2556 C 0.44385 0.08378 0.61651 0.0
H2557 H 0.45543 0.28143 0.65401 0.0
H2558 H 0.45555 0.21955 0.63661 0.0
H2559 H 0.42774 0.14566 0.63761 0.0
H2560 H 0.43166 0.0036 0.57247 0.0
H2561 H 0.43143 0.06583 0.5903 0.0
C2562 C 0.30123 0.48683 0.6557 0.0
C2563 C 0.30802 0.48354 0.66881 0.0
C2564 C 0.30103 0.52222 0.64571 0.0
C2565 C 0.31647 0.6102 0.63257 0.0
H2566 H 0.29171 0.65242 0.61552 0.0
C2567 C 0.30054 0.76339 0.59664 0.0
C2568 C 0.30787 0.7689 0.58455 0.0
C2569 C 0.30038 0.72767 0.60644 0.0
C2570 C 0.29869 0.64121 0.62025 0.0
H2571 H 0.3193 0.51534 0.68296 0.0
H2572 H 0.31895 0.57813 0.66545 0.0
H2573 H 0.29169 0.59466 0.6351 0.0
H2574 H 0.32024 0.74061 0.57192 0.0
H2575 H 0.32001 0.67731 0.58913 0.0
H2576 H 0.32343 0.65781 0.61808 0.0
C2577 C 0.31401 0.55273 0.66254 0.0
C2578 C 0.29868 0.60782 0.63134 0.0
C2579 C 0.31418 0.51713 0.67259 0.0
C2580 C 0.31469 0.73714 0.58155 0.0
C2581 C 0.31457 0.70123 0.59142 0.0
C2582 C 0.31647 0.64386 0.62152 0.0
C2583 C 0.30752 0.55532 0.64885 0.0
C2584 C 0.30757 0.59187 0.63759 0.0
C2585 C 0.30749 0.69647 0.60413 0.0
C2586 C 0.30757 0.65972 0.61527 0.0
H2587 H 0.29621 0.46156 0.65296 0.0
H2588 H 0.29599 0.52302 0.63522 0.0
H2589 H 0.32344 0.59824 0.63701 0.0
H2590 H 0.29502 0.78718 0.59873 0.0
H2591 H 0.29488 0.72517 0.61619 0.0
C2592 C 0.04172 0.73616 0.40835 0.0
C2593 C 0.05132 0.73286 0.41468 0.0
C2594 C 0.03898 0.77097 0.39885 0.0
C2595 C 0.05121 0.84563 0.37116 0.0
H2596 H 0.02638 0.90466 0.37041 0.0
C2597 C 0.03821 0.0138 0.34927 0.0
C2598 C 0.04381 0.01711 0.33457 0.0
C2599 C 0.03641 0.97506 0.35649 0.0
C2600 C 0.03333 0.88824 0.3704 0.0
H2601 H 0.06531 0.76405 0.41733 0.0
H2602 H 0.06044 0.82554 0.4015 0.0
H2603 H 0.02894 0.84848 0.39069 0.0
H2604 H 0.05107 0.98265 0.31489 0.0
H2605 H 0.04776 0.91433 0.3273 0.0
H2606 H 0.05583 0.88598 0.3515 0.0
C2607 C 0.05509 0.80106 0.40342 0.0
C2608 C 0.03478 0.85606 0.38199 0.0
C2609 C 0.05783 0.76627 0.41273 0.0
C2610 C 0.04667 0.9808 0.32618 0.0
C2611 C 0.04489 0.94182 0.33343 0.0
C2612 C 0.04977 0.87757 0.35962 0.0
C2613 C 0.04583 0.80275 0.39559 0.0
C2614 C 0.04385 0.83524 0.38279 0.0
C2615 C 0.04024 0.93877 0.34918 0.0
C2616 C 0.0409 0.89999 0.35932 0.0
H2617 H 0.03667 0.71022 0.40937 0.0
H2618 H 0.0318 0.77141 0.393 0.0
H2619 H 0.0582 0.82944 0.37114 0.0
H2620 H 0.0359 0.04142 0.35593 0.0
H2621 H 0.03283 0.97411 0.3686 0.0
C2622 C 0.21238 0.49972 0.41259 0.0
C2623 C 0.20349 0.50503 0.42125 0.0
C2624 C 0.21454 0.4617 0.40488 0.0
C2625 C 0.20613 0.35187 0.40072 0.0
H2626 H 0.21192 0.36715 0.3535 0.0
C2627 C 0.19148 0.24104 0.35221 0.0
C2628 C 0.19818 0.22155 0.34137 0.0
C2629 C 0.19429 0.27523 0.36171 0.0
C2630 C 0.2105 0.36231 0.3667 0.0
H2631 H 0.19011 0.47505 0.42939 0.0
H2632 H 0.1939 0.40842 0.41636 0.0
H2633 H 0.21357 0.42585 0.37284 0.0
H2634 H 0.21289 0.22446 0.33101 0.0
H2635 H 0.21781 0.28585 0.3476 0.0
H2636 H 0.20248 0.28909 0.39439 0.0
C2637 C 0.19931 0.4331 0.41561 0.0
C2638 C 0.21147 0.39579 0.37782 0.0
C2639 C 0.19713 0.47115 0.42317 0.0
C2640 C 0.20757 0.23909 0.33921 0.0
C2641 C 0.2104 0.27384 0.34877 0.0
C2642 C 0.20511 0.31863 0.38963 0.0
C2643 C 0.20783 0.42848 0.40576 0.0
C2644 C 0.20892 0.39129 0.39484 0.0
C2645 C 0.20388 0.29101 0.36057 0.0
C2646 C 0.20691 0.32397 0.37244 0.0
H2647 H 0.21726 0.52591 0.41063 0.0
H2648 H 0.22119 0.45901 0.3975 0.0
H2649 H 0.20429 0.34718 0.41378 0.0
H2650 H 0.18415 0.22853 0.35398 0.0
H2651 H 0.18905 0.28858 0.3704 0.0
C2652 C 0.05372 0.47218 0.83004 0.0
C2653 C 0.04668 0.50361 0.83208 0.0
C2654 C 0.05308 0.43563 0.83942 0.0
C2655 C 0.03903 0.36696 0.86625 0.0
H2656 H 0.06237 0.36796 0.89421 0.0
C2657 C 0.04633 0.23913 0.91623 0.0
C2658 C 0.05586 0.2225 0.91521 0.0
C2659 C 0.04407 0.27654 0.90798 0.0
C2660 C 0.05583 0.367 0.88648 0.0
H2661 H 0.0331 0.52064 0.84441 0.0
H2662 H 0.03179 0.45576 0.86044 0.0
H2663 H 0.06007 0.42195 0.87322 0.0
H2664 H 0.07059 0.23261 0.90578 0.0
H2665 H 0.06676 0.29715 0.89163 0.0
H2666 H 0.03501 0.31076 0.87903 0.0
C2667 C 0.03776 0.45939 0.85159 0.0
C2668 C 0.05453 0.3979 0.87445 0.0
C2669 C 0.03846 0.49625 0.84231 0.0
C2670 C 0.0632 0.24497 0.90683 0.0
C2671 C 0.06099 0.28211 0.89875 0.0
C2672 C 0.04042 0.33541 0.87817 0.0
C2673 C 0.04536 0.42995 0.8509 0.0
C2674 C 0.04625 0.39765 0.86399 0.0
C2675 C 0.05135 0.29788 0.89879 0.0
C2676 C 0.04897 0.33456 0.88814 0.0
H2677 H 0.06025 0.47771 0.82257 0.0
H2678 H 0.05902 0.41324 0.8387 0.0
H2679 H 0.03254 0.36653 0.85841 0.0
H2680 H 0.04053 0.22199 0.92244 0.0
H2681 H 0.0366 0.28808 0.90838 0.0
C2682 C 0.21245 0.02101 0.89336 0.0
C2683 C 0.20895 0.02328 0.9099 0.0
C2684 C 0.21419 0.98271 0.8858 0.0
C2685 C 0.20384 0.87912 0.88742 0.0
H2686 H 0.22201 0.85853 0.85086 0.0
C2687 C 0.19367 0.7647 0.83637 0.0
C2688 C 0.20064 0.73415 0.83243 0.0
C2689 C 0.19641 0.80009 0.8453 0.0
C2690 C 0.21694 0.86368 0.86111 0.0
H2691 H 0.2053 0.98741 0.93197 0.0
H2692 H 0.20833 0.91974 0.91866 0.0
H2693 H 0.22491 0.91684 0.86998 0.0
H2694 H 0.21602 0.71735 0.8338 0.0
H2695 H 0.22091 0.77988 0.84937 0.0
H2696 H 0.19578 0.82656 0.87849 0.0
C2697 C 0.20967 0.94785 0.91154 0.0
C2698 C 0.21858 0.89705 0.87204 0.0
C2699 C 0.20801 0.9865 0.91922 0.0
C2700 C 0.21057 0.74109 0.83636 0.0
C2701 C 0.21333 0.77659 0.84542 0.0
C2702 C 0.20219 0.84598 0.8765 0.0
C2703 C 0.2124 0.9456 0.89452 0.0
C2704 C 0.21189 0.9058 0.88506 0.0
C2705 C 0.20617 0.80535 0.85068 0.0
C2706 C 0.20854 0.83865 0.86293 0.0
H2707 H 0.21328 0.04884 0.88588 0.0
H2708 H 0.2162 0.98231 0.87267 0.0
H2709 H 0.19848 0.88509 0.89716 0.0
H2710 H 0.18595 0.75964 0.83366 0.0
H2711 H 0.19077 0.82223 0.84881 0.0
C2712 C 0.96207 0.26245 0.58696 0.0
C2713 C 0.95297 0.26865 0.57906 0.0
C2714 C 0.96404 0.22502 0.59526 0.0
C2715 C 0.95425 0.11798 0.60274 0.0
H2716 H 0.96384 0.13509 0.64803 0.0
C2717 C 0.94242 0.01384 0.65571 0.0
C2718 C 0.94987 0.98935 0.66282 0.0
C2719 C 0.94475 0.04882 0.64625 0.0
C2720 C 0.96131 0.1298 0.63534 0.0
H2721 H 0.93894 0.2409 0.57308 0.0
H2722 H 0.94232 0.17554 0.58735 0.0
H2723 H 0.96475 0.19192 0.62763 0.0
H2724 H 0.96557 0.98388 0.66676 0.0
H2725 H 0.96969 0.04649 0.65033 0.0
H2726 H 0.95024 0.05679 0.61082 0.0
C2727 C 0.94807 0.19883 0.58694 0.0
C2728 C 0.96187 0.16216 0.62361 0.0
C2729 C 0.94611 0.2362 0.57868 0.0
C2730 C 0.95969 0.00267 0.66161 0.0
C2731 C 0.96205 0.0381 0.65211 0.0
C2732 C 0.95361 0.08596 0.61448 0.0
C2733 C 0.9569 0.19336 0.5959 0.0
C2734 C 0.95805 0.15702 0.60731 0.0
C2735 C 0.95459 0.06015 0.64375 0.0
C2736 C 0.95686 0.09202 0.63098 0.0
H2737 H 0.96735 0.28761 0.58773 0.0
H2738 H 0.97095 0.22167 0.60186 0.0
H2739 H 0.95143 0.11262 0.59024 0.0
H2740 H 0.93479 0.00416 0.65645 0.0
H2741 H 0.93888 0.06573 0.64009 0.0
C2742 C 0.80005 0.50783 0.58346 0.0
C2743 C 0.79593 0.46995 0.58862 0.0
C2744 C 0.79804 0.54439 0.59241 0.0
C2745 C 0.7932 0.5727 0.6356 0.0
H2746 H 0.79031 0.68491 0.61855 0.0
C2747 C 0.80642 0.7211 0.66941 0.0
C2748 C 0.80044 0.75654 0.66852 0.0
C2749 C 0.80361 0.68446 0.66129 0.0
C2750 C 0.79098 0.65368 0.62352 0.0
H2751 H 0.78589 0.44078 0.60606 0.0
H2752 H 0.78236 0.50436 0.6216 0.0
H2753 H 0.78914 0.62581 0.59928 0.0
H2754 H 0.78682 0.78177 0.65892 0.0
H2755 H 0.7819 0.71764 0.64456 0.0
H2756 H 0.79547 0.60056 0.65968 0.0
C2757 C 0.7872 0.50596 0.61085 0.0
C2758 C 0.79039 0.61996 0.61247 0.0
C2759 C 0.78918 0.46965 0.60191 0.0
C2760 C 0.7914 0.75435 0.66011 0.0
C2761 C 0.78867 0.71795 0.65173 0.0
C2762 C 0.79393 0.60638 0.64658 0.0
C2763 C 0.79196 0.5433 0.60668 0.0
C2764 C 0.7916 0.57915 0.61838 0.0
C2765 C 0.7949 0.68311 0.65179 0.0
C2766 C 0.79295 0.64722 0.64062 0.0
H2767 H 0.80541 0.50857 0.57343 0.0
H2768 H 0.80185 0.57272 0.58895 0.0
H2769 H 0.79429 0.54162 0.6405 0.0
H2770 H 0.81355 0.72261 0.67543 0.0
H2771 H 0.8086 0.6582 0.66141 0.0
C2772 C 0.94523 0.52848 0.1595 0.0
C2773 C 0.95209 0.49903 0.16516 0.0
C2774 C 0.9483 0.5629 0.15029 0.0
C2775 C 0.96403 0.63954 0.1386 0.0
H2776 H 0.95737 0.61649 0.09223 0.0
C2777 C 0.96375 0.77082 0.09008 0.0
C2778 C 0.9546 0.77369 0.08205 0.0
C2779 C 0.9665 0.73398 0.09816 0.0
C2780 C 0.95938 0.62331 0.10506 0.0
H2781 H 0.96756 0.48352 0.16655 0.0
H2782 H 0.97298 0.54465 0.15032 0.0
H2783 H 0.9565 0.56083 0.11307 0.0
H2784 H 0.94137 0.74042 0.07533 0.0
H2785 H 0.94621 0.6758 0.08901 0.0
H2786 H 0.96625 0.70265 0.13093 0.0
C2787 C 0.96525 0.54088 0.15322 0.0
C2788 C 0.95894 0.59146 0.11693 0.0
C2789 C 0.96217 0.50631 0.1626 0.0
C2790 C 0.94858 0.73842 0.08106 0.0
C2791 C 0.95136 0.70152 0.08899 0.0
C2792 C 0.96448 0.67152 0.12671 0.0
C2793 C 0.95827 0.56842 0.14652 0.0
C2794 C 0.96097 0.59968 0.13384 0.0
C2795 C 0.96014 0.6995 0.0983 0.0
C2796 C 0.96181 0.66405 0.10992 0.0
H2797 H 0.93742 0.52326 0.16117 0.0
H2798 H 0.94282 0.58385 0.14519 0.0
H2799 H 0.9655 0.64651 0.15164 0.0
H2800 H 0.96838 0.79808 0.09133 0.0
H2801 H 0.97334 0.73327 0.10512 0.0
C2802 C 0.81076 0.233 0.16442 0.0
C2803 C 0.80363 0.26255 0.16881 0.0
C2804 C 0.80814 0.19753 0.15546 0.0
C2805 C 0.78792 0.13122 0.14052 0.0
H2806 H 0.80595 0.11308 0.10356 0.0
C2807 C 0.7935 0.97453 0.10845 0.0
C2808 C 0.79663 0.97242 0.0917 0.0
C2809 C 0.79157 0.01266 0.11601 0.0
C2810 C 0.80071 0.11812 0.11356 0.0
H2811 H 0.78811 0.27722 0.16832 0.0
H2812 H 0.78344 0.21447 0.15268 0.0
H2813 H 0.80836 0.17215 0.12208 0.0
H2814 H 0.79947 0.00843 0.06931 0.0
H2815 H 0.79613 0.07586 0.08263 0.0
H2816 H 0.78037 0.07655 0.13209 0.0
C2817 C 0.79105 0.21873 0.15626 0.0
C2818 C 0.80219 0.15159 0.12438 0.0
C2819 C 0.79369 0.25434 0.16537 0.0
C2820 C 0.79707 0.00918 0.08224 0.0
C2821 C 0.79522 0.04769 0.08991 0.0
C2822 C 0.78644 0.09753 0.12969 0.0
C2823 C 0.79834 0.19112 0.15052 0.0
C2824 C 0.79602 0.15773 0.13829 0.0
C2825 C 0.7928 0.04984 0.10706 0.0
C2826 C 0.793 0.08991 0.11637 0.0
H2827 H 0.81848 0.23893 0.16683 0.0
H2828 H 0.81388 0.17622 0.1516 0.0
H2829 H 0.78299 0.13543 0.15104 0.0
H2830 H 0.79304 0.94676 0.11607 0.0
H2831 H 0.78982 0.013 0.12924 0.0
C2832 C 0.55541 0.77268 0.91941 0.0
C2833 C 0.55015 0.73596 0.91638 0.0
C2834 C 0.55312 0.80903 0.91057 0.0
C2835 C 0.54483 0.83687 0.86917 0.0
H2836 H 0.54431 0.94995 0.88599 0.0
C2837 C 0.55668 0.98368 0.83234 0.0
C2838 C 0.55103 0.01974 0.83449 0.0
C2839 C 0.55422 0.94719 0.84094 0.0
C2840 C 0.54431 0.9185 0.88112 0.0
H2841 H 0.53813 0.70842 0.90255 0.0
H2842 H 0.53416 0.77178 0.88696 0.0
H2843 H 0.54415 0.89163 0.90572 0.0
H2844 H 0.53825 0.04609 0.84662 0.0
H2845 H 0.53398 0.9824 0.86181 0.0
H2846 H 0.5455 0.86376 0.8446 0.0
C2847 C 0.53999 0.77268 0.8962 0.0
C2848 C 0.54428 0.88524 0.89241 0.0
C2849 C 0.5422 0.73662 0.9052 0.0
C2850 C 0.54258 0.01829 0.84456 0.0
C2851 C 0.54021 0.98208 0.85336 0.0
C2852 C 0.54504 0.87014 0.85789 0.0
C2853 C 0.54567 0.80877 0.89835 0.0
C2854 C 0.54465 0.84412 0.88654 0.0
C2855 C 0.54621 0.94667 0.85209 0.0
C2856 C 0.54489 0.91127 0.86377 0.0
H2857 H 0.56173 0.77248 0.92769 0.0
H2858 H 0.55766 0.83635 0.91237 0.0
H2859 H 0.54524 0.80546 0.86431 0.0
H2860 H 0.56337 0.98457 0.82498 0.0
H2861 H 0.55902 0.92042 0.83985 0.0
C2862 C 0.71176 0.50941 0.90763 0.0
C2863 C 0.70314 0.51272 0.91721 0.0
C2864 C 0.71372 0.47306 0.89857 0.0
C2865 C 0.69916 0.39202 0.87815 0.0
H2866 H 0.72428 0.34253 0.86676 0.0
C2867 C 0.71247 0.23309 0.8456 0.0
C2868 C 0.7053 0.23088 0.833 0.0
C2869 C 0.71419 0.27044 0.85405 0.0
C2870 C 0.71722 0.35613 0.8698 0.0
H2871 H 0.69021 0.48025 0.92594 0.0
H2872 H 0.69382 0.41603 0.91082 0.0
H2873 H 0.72351 0.39744 0.88802 0.0
H2874 H 0.69486 0.26609 0.81833 0.0
H2875 H 0.69809 0.33202 0.83264 0.0
H2876 H 0.69278 0.35051 0.8604 0.0
C2877 C 0.69898 0.44161 0.90996 0.0
C2878 C 0.71679 0.38759 0.88195 0.0
C2879 C 0.69699 0.47802 0.91887 0.0
C2880 C 0.70054 0.26731 0.82784 0.0
C2881 C 0.70228 0.30479 0.83624 0.0
C2882 C 0.6996 0.36084 0.86605 0.0
C2883 C 0.70705 0.43962 0.89895 0.0
C2884 C 0.70772 0.40552 0.8864 0.0
C2885 C 0.70871 0.30619 0.85007 0.0
C2886 C 0.70861 0.34229 0.86175 0.0
H2887 H 0.71646 0.53627 0.90585 0.0
H2888 H 0.71998 0.47263 0.89019 0.0
H2889 H 0.69208 0.4058 0.88095 0.0
H2890 H 0.71615 0.20516 0.84987 0.0
H2891 H 0.71917 0.27024 0.86463 0.0
C2892 C 0.54253 0.52072 0.34326 0.0
C2893 C 0.55021 0.52414 0.33162 0.0
C2894 C 0.54098 0.48349 0.35189 0.0
C2895 C 0.55579 0.3954 0.36639 0.0
H2896 H 0.53104 0.35502 0.38422 0.0
C2897 C 0.55598 0.27381 0.41829 0.0
C2898 C 0.54981 0.23961 0.41558 0.0
C2899 C 0.55457 0.31062 0.40929 0.0
C2900 C 0.53801 0.36588 0.37932 0.0
H2901 H 0.56188 0.49117 0.31893 0.0
H2902 H 0.55897 0.42531 0.33353 0.0
H2903 H 0.53104 0.41044 0.36324 0.0
H2904 H 0.53706 0.21721 0.40215 0.0
H2905 H 0.53457 0.28133 0.38634 0.0
H2906 H 0.56277 0.35056 0.3821 0.0
C2907 C 0.55424 0.45154 0.33626 0.0
C2908 C 0.53801 0.39772 0.36734 0.0
C2909 C 0.55581 0.48892 0.32768 0.0
C2910 C 0.54177 0.24364 0.40469 0.0
C2911 C 0.54039 0.28034 0.39558 0.0
C2912 C 0.55578 0.36367 0.37831 0.0
C2913 C 0.54712 0.44903 0.34906 0.0
C2914 C 0.54692 0.41293 0.36075 0.0
C2915 C 0.54706 0.31353 0.39719 0.0
C2916 C 0.54691 0.34865 0.38503 0.0
H2917 H 0.5382 0.54774 0.34661 0.0
H2918 H 0.53547 0.48288 0.36168 0.0
H2919 H 0.5628 0.40679 0.36188 0.0
H2920 H 0.56234 0.27097 0.42639 0.0
H2921 H 0.55971 0.33594 0.4111 0.0
C2922 C 0.70908 0.99588 0.41568 0.0
C2923 C 0.69915 0.00481 0.41889 0.0
C2924 C 0.71165 0.96009 0.40661 0.0
C2925 C 0.7006 0.89475 0.37419 0.0
H2926 H 0.7213 0.81512 0.38328 0.0
C2927 C 0.70724 0.71594 0.35924 0.0
C2928 C 0.7048 0.714 0.34215 0.0
C2929 C 0.7094 0.75376 0.36686 0.0
C2930 C 0.71557 0.83744 0.38049 0.0
H2931 H 0.68422 0.98229 0.41654 0.0
H2932 H 0.68868 0.91942 0.4013 0.0
H2933 H 0.71901 0.87474 0.40202 0.0
H2934 H 0.70332 0.74996 0.31937 0.0
H2935 H 0.70695 0.81699 0.33286 0.0
H2936 H 0.69684 0.85693 0.35315 0.0
C2937 C 0.69448 0.94023 0.40536 0.0
C2938 C 0.71428 0.87151 0.3912 0.0
C2939 C 0.69194 0.9758 0.41432 0.0
C2940 C 0.70518 0.75056 0.33256 0.0
C2941 C 0.70721 0.78884 0.3403 0.0
C2942 C 0.70192 0.86096 0.36347 0.0
C2943 C 0.70429 0.93311 0.40066 0.0
C2944 C 0.70654 0.89961 0.38847 0.0
C2945 C 0.70906 0.79087 0.35766 0.0
C2946 C 0.7092 0.83113 0.36679 0.0
H2947 H 0.71474 0.01833 0.41878 0.0
H2948 H 0.71927 0.9552 0.40322 0.0
H2949 H 0.69472 0.91653 0.37157 0.0
H2950 H 0.70706 0.68837 0.367 0.0
H2951 H 0.71066 0.7541 0.38026 0.0
C2952 C 0.45258 0.2294 0.07902 0.0
C2953 C 0.45647 0.26584 0.08598 0.0
C2954 C 0.45413 0.19107 0.08693 0.0
C2955 C 0.44984 0.1309 0.11485 0.0
H2956 H 0.47194 0.0986 0.14268 0.0
C2957 C 0.44369 0.01734 0.16806 0.0
C2958 C 0.45018 0.98355 0.16877 0.0
C2959 C 0.44614 0.05279 0.15888 0.0
C2960 C 0.46573 0.10714 0.13492 0.0
H2961 H 0.46581 0.29079 0.10546 0.0
H2962 H 0.46844 0.2245 0.11937 0.0
H2963 H 0.47397 0.15376 0.12179 0.0
H2964 H 0.46449 0.96076 0.16136 0.0
H2965 H 0.46883 0.02286 0.1452 0.0
H2966 H 0.44159 0.08448 0.12777 0.0
C2967 C 0.46426 0.22486 0.10783 0.0
C2968 C 0.46688 0.13876 0.12298 0.0
C2969 C 0.46273 0.263 0.09989 0.0
C2970 C 0.45949 0.98699 0.16132 0.0
C2971 C 0.46192 0.02239 0.15195 0.0
C2972 C 0.4487 0.09949 0.12672 0.0
C2973 C 0.45952 0.18882 0.102 0.0
C2974 C 0.45889 0.15142 0.11296 0.0
C2975 C 0.45504 0.05471 0.14993 0.0
C2976 C 0.45655 0.08776 0.13715 0.0
H2977 H 0.44763 0.23099 0.0684 0.0
H2978 H 0.45055 0.1637 0.0819 0.0
H2979 H 0.44347 0.14013 0.10761 0.0
H2980 H 0.43641 0.01499 0.17349 0.0
H2981 H 0.44078 0.07761 0.15793 0.0
C2982 C 0.29034 0.7704 0.15307 0.0
C2983 C 0.29755 0.77051 0.16563 0.0
C2984 C 0.28845 0.73432 0.14389 0.0
C2985 C 0.29234 0.62122 0.14097 0.0
H2986 H 0.29672 0.64269 0.0937 0.0
C2987 C 0.29312 0.48893 0.09237 0.0
C2988 C 0.30222 0.48688 0.08414 0.0
C2989 C 0.29035 0.52506 0.10092 0.0
C2990 C 0.29536 0.63632 0.10682 0.0
H2991 H 0.30804 0.73292 0.17922 0.0
H2992 H 0.30453 0.66907 0.16347 0.0
H2993 H 0.29548 0.70093 0.11329 0.0
H2994 H 0.31539 0.52091 0.07768 0.0
H2995 H 0.31037 0.58497 0.09193 0.0
H2996 H 0.29246 0.5565 0.13449 0.0
C2997 C 0.30032 0.69687 0.16074 0.0
C2998 C 0.2946 0.66956 0.11802 0.0
C2999 C 0.30229 0.73321 0.16983 0.0
C3000 C 0.30822 0.52231 0.08356 0.0
C3001 C 0.30537 0.55873 0.09181 0.0
C3002 C 0.29292 0.58797 0.1297 0.0
C3003 C 0.29371 0.69765 0.14718 0.0
C3004 C 0.29328 0.66233 0.13525 0.0
C3005 C 0.29661 0.55983 0.10115 0.0
C3006 C 0.29464 0.5952 0.11257 0.0
H3007 H 0.28664 0.79893 0.14959 0.0
H3008 H 0.28325 0.73564 0.13363 0.0
H3009 H 0.29133 0.61482 0.15417 0.0
H3010 H 0.28851 0.46152 0.09333 0.0
H3011 H 0.28356 0.52518 0.108 0.0
C3012 C 0.46054 0.47978 0.65669 0.0
C3013 C 0.45203 0.4769 0.66657 0.0
C3014 C 0.46235 0.51548 0.64716 0.0
C3015 C 0.46559 0.60038 0.63054 0.0
H3016 H 0.4418 0.64052 0.60919 0.0
C3017 C 0.4623 0.75746 0.59621 0.0
C3018 C 0.4552 0.76182 0.58359 0.0
C3019 C 0.4637 0.71921 0.60413 0.0
C3020 C 0.44855 0.62929 0.61478 0.0
H3021 H 0.43902 0.50919 0.67503 0.0
H3022 H 0.44235 0.57243 0.65899 0.0
H3023 H 0.44081 0.58415 0.62929 0.0
H3024 H 0.44455 0.72941 0.56833 0.0
H3025 H 0.44718 0.66184 0.5818 0.0
H3026 H 0.47332 0.64551 0.61579 0.0
C3027 C 0.44756 0.54699 0.65833 0.0
C3028 C 0.44796 0.59748 0.62661 0.0
C3029 C 0.44573 0.5112 0.66776 0.0
C3030 C 0.45016 0.72655 0.57789 0.0
C3031 C 0.45156 0.68813 0.5858 0.0
C3032 C 0.46618 0.63234 0.61865 0.0
C3033 C 0.45563 0.54875 0.6473 0.0
C3034 C 0.45644 0.58297 0.63482 0.0
C3035 C 0.45797 0.6846 0.59961 0.0
C3036 C 0.45765 0.64743 0.61073 0.0
H3037 H 0.46535 0.45315 0.65529 0.0
H3038 H 0.4686 0.51566 0.63876 0.0
H3039 H 0.47226 0.58983 0.63659 0.0
H3040 H 0.46623 0.78439 0.60086 0.0
H3041 H 0.46866 0.71781 0.61472 0.0
C3042 C 0.2903 0.99181 0.59229 0.0
C3043 C 0.2994 0.9859 0.58439 0.0
C3044 C 0.28829 0.02907 0.6007 0.0
C3045 C 0.29792 0.13625 0.60829 0.0
H3046 H 0.28857 0.11845 0.65367 0.0
C3047 C 0.31 0.23926 0.66138 0.0
C3048 C 0.3026 0.26459 0.66817 0.0
C3049 C 0.30758 0.20418 0.65205 0.0
C3050 C 0.29103 0.12392 0.64096 0.0
H3051 H 0.31342 0.01394 0.5785 0.0
H3052 H 0.30996 0.07904 0.59292 0.0
H3053 H 0.28766 0.06176 0.6332 0.0
H3054 H 0.2869 0.27151 0.6717 0.0
H3055 H 0.28262 0.20875 0.65548 0.0
H3056 H 0.30188 0.19747 0.61641 0.0
C3057 C 0.30424 0.05564 0.59246 0.0
C3058 C 0.29047 0.09165 0.62919 0.0
C3059 C 0.30624 0.01844 0.58411 0.0
C3060 C 0.29273 0.25204 0.66681 0.0
C3061 C 0.29029 0.21652 0.65743 0.0
C3062 C 0.29856 0.16818 0.62006 0.0
C3063 C 0.2954 0.06084 0.6014 0.0
C3064 C 0.29422 0.09706 0.61286 0.0
C3065 C 0.29771 0.1936 0.64937 0.0
C3066 C 0.2954 0.16187 0.63659 0.0
H3067 H 0.28504 0.96656 0.59299 0.0
H3068 H 0.28138 0.03221 0.60731 0.0
H3069 H 0.30069 0.14177 0.59576 0.0
H3070 H 0.31766 0.24841 0.66222 0.0
H3071 H 0.31341 0.18664 0.64608 0.0
loop_
_geom_bond_atom_site_label_1
_geom_bond_atom_site_label_2
_geom_bond_distance
_geom_bond_site_symmetry_2
_ccdc_geom_bond_type
Mn0 O5 2.095 . S
Mn0 O15 2.162 . S
Mn0 O16 2.297 . S
Mn0 O24 2.385 . S
Mn0 O25 2.209 . S
Mn0 O26 2.094 . S
Mn1 O6 2.121 . S
Mn1 N8 2.257 . S
Mn1 N17 2.282 . S
Mn1 O25 2.215 . S
Mn1 O27 2.117 . S
C2 O24 1.234 . S
C2 O25 1.283 . S
C3 O15 1.281 . S
C3 O16 1.236 . S
C4 O26 1.240 . S
C4 O27 1.264 . S
O5 Mn0 2.095 . S
O5 C14 1.250 . S
O6 Mn1 2.121 . S
O6 C14 1.258 . S
C7 N8 1.326 . S
C7 C11 1.460 . S
C7 H13 0.929 . S
N8 Mn1 2.257 . S
N8 C7 1.326 . S
N8 C12 1.362 . S
C9 C10 1.258 . S
C9 C12 1.431 . S
C9 C29 1.449 . S
C10 C9 1.258 . S
C10 C11 1.477 . S
C10 H30 0.931 . S
C11 C7 1.460 . S
C11 C10 1.477 . S
C11 H31 0.930 . S
C12 N8 1.362 . S
C12 C9 1.431 . S
C12 C22 1.476 . S
H13 C7 0.929 . S
C14 O5 1.250 . S
C14 O6 1.258 . S
O15 Mn0 2.162 . S
O15 C3 1.281 . S
O16 Mn0 2.297 . S
O16 C3 1.236 . S
N17 Mn1 2.282 . S
N17 C18 1.328 . S
N17 C22 1.318 . S
C18 N17 1.328 . S
C18 C19 1.457 . S
C18 H23 0.929 . S
C19 C18 1.457 . S
C19 C20 1.291 . S
C19 H32 0.931 . S
C20 C19 1.291 . S
C20 C21 1.373 . S
C20 H33 0.929 . S
C21 C20 1.373 . S
C21 C22 1.396 . S
C21 C28 1.403 . S
C22 C12 1.476 . S
C22 N17 1.318 . S
C22 C21 1.396 . S
H23 C18 0.929 . S
O24 Mn0 2.385 . S
O24 C2 1.234 . S
O25 Mn0 2.209 . S
O25 Mn1 2.215 . S
O25 C2 1.283 . S
O26 Mn0 2.094 . S
O26 C4 1.240 . S
O27 Mn1 2.117 . S
O27 C4 1.264 . S
C28 C21 1.403 . S
C28 C29 1.399 . S
C28 H34 0.929 . S
C29 C9 1.449 . S
C29 C28 1.399 . S
C29 H35 0.930 . S
H30 C10 0.931 . S
H31 C11 0.930 . S
H32 C19 0.931 . S
H33 C20 0.929 . S
H34 C28 0.929 . S
H35 C29 0.930 . S
Mn36 O41 2.095 . S
Mn36 O51 2.162 . S
Mn36 O52 2.297 . S
Mn36 O60 2.385 . S
Mn36 O61 2.209 . S
Mn36 O62 2.094 . S
Mn37 O42 2.121 . S
Mn37 N44 2.257 . S
Mn37 N53 2.282 . S
Mn37 O61 2.215 . S
Mn37 O63 2.117 . S
C38 O60 1.234 . S
C38 O61 1.283 . S
C39 O51 1.281 . S
C39 O52 1.236 . S
C40 O62 1.240 . S
C40 O63 1.264 . S
O41 Mn36 2.095 . S
O41 C50 1.250 . S
O42 Mn37 2.121 . S
O42 C50 1.258 . S
C43 N44 1.326 . S
C43 C47 1.460 . S
C43 H49 0.929 . S
N44 Mn37 2.257 . S
N44 C43 1.326 . S
N44 C48 1.362 . S
C45 C46 1.258 . S
C45 C48 1.431 . S
C45 C65 1.449 . S
C46 C45 1.258 . S
C46 C47 1.477 . S
C46 H66 0.931 . S
C47 C43 1.460 . S
C47 C46 1.477 . S
C47 H67 0.930 . S
C48 N44 1.362 . S
C48 C45 1.431 . S
C48 C58 1.476 . S
H49 C43 0.929 . S
C50 O41 1.250 . S
C50 O42 1.258 . S
O51 Mn36 2.162 . S
O51 C39 1.281 . S
O52 Mn36 2.297 . S
O52 C39 1.236 . S
N53 Mn37 2.282 . S
N53 C54 1.328 . S
N53 C58 1.318 . S
C54 N53 1.328 . S
C54 C55 1.457 1_545 S
C54 H59 0.929 . S
C55 C54 1.457 1_565 S
C55 C56 1.291 . S
C55 H68 0.931 . S
C56 C55 1.291 . S
C56 C57 1.373 1_565 S
C56 H69 0.929 . S
C57 C56 1.373 1_545 S
C57 C58 1.396 . S
C57 C64 1.403 1_545 S
C58 C48 1.476 . S
C58 N53 1.318 . S
C58 C57 1.396 . S
H59 C54 0.929 . S
O60 Mn36 2.385 . S
O60 C38 1.234 . S
O61 Mn36 2.209 . S
O61 Mn37 2.215 . S
O61 C38 1.283 . S
O62 Mn36 2.094 . S
O62 C40 1.240 . S
O63 Mn37 2.117 . S
O63 C40 1.264 . S
C64 C57 1.403 1_565 S
C64 C65 1.399 1_565 S
C64 H70 0.929 . S
C65 C45 1.449 . S
C65 C64 1.399 1_545 S
C65 H71 0.930 . S
H66 C46 0.931 . S
H67 C47 0.930 . S
H68 C55 0.931 . S
H69 C56 0.929 . S
H70 C64 0.929 . S
H71 C65 0.930 . S
Mn72 O77 2.095 . S
Mn72 O87 2.162 . S
Mn72 O88 2.297 . S
Mn72 O96 2.385 . S
Mn72 O97 2.209 . S
Mn72 O98 2.094 . S
Mn73 O78 2.121 . S
Mn73 N80 2.257 . S
Mn73 N89 2.282 . S
Mn73 O97 2.215 . S
Mn73 O99 2.117 . S
C74 O96 1.234 . S
C74 O97 1.283 . S
C75 O87 1.281 . S
C75 O88 1.236 . S
C76 O98 1.240 . S
C76 O99 1.264 . S
O77 Mn72 2.095 . S
O77 C86 1.250 . S
O78 Mn73 2.121 . S
O78 C86 1.258 . S
C79 N80 1.326 . S
C79 C83 1.460 . S
C79 H85 0.929 . S
N80 Mn73 2.257 . S
N80 C79 1.326 . S
N80 C84 1.362 . S
C81 C82 1.258 . S
C81 C84 1.431 . S
C81 C101 1.449 . S
C82 C81 1.258 . S
C82 C83 1.477 . S
C82 H102 0.931 . S
C83 C79 1.460 . S
C83 C82 1.477 . S
C83 H103 0.930 . S
C84 N80 1.362 . S
C84 C81 1.431 . S
C84 C94 1.476 . S
H85 C79 0.929 . S
C86 O77 1.250 . S
C86 O78 1.258 . S
O87 Mn72 2.162 . S
O87 C75 1.281 . S
O88 Mn72 2.297 . S
O88 C75 1.236 . S
N89 Mn73 2.282 . S
N89 C90 1.328 . S
N89 C94 1.318 . S
C90 N89 1.328 . S
C90 C91 1.457 1_545 S
C90 H95 0.929 . S
C91 C90 1.457 1_565 S
C91 C92 1.291 . S
C91 H104 0.931 . S
C92 C91 1.291 . S
C92 C93 1.373 1_565 S
C92 H105 0.929 . S
C93 C92 1.373 1_545 S
C93 C94 1.396 . S
C93 C100 1.403 1_545 S
C94 C84 1.476 . S
C94 N89 1.318 . S
C94 C93 1.396 . S
H95 C90 0.929 . S
O96 Mn72 2.385 . S
O96 C74 1.234 . S
O97 Mn72 2.209 . S
O97 Mn73 2.215 . S
O97 C74 1.283 . S
O98 Mn72 2.094 . S
O98 C76 1.240 . S
O99 Mn73 2.117 . S
O99 C76 1.264 . S
C100 C93 1.403 1_565 S
C100 C101 1.399 1_565 S
C100 H106 0.929 . S
C101 C81 1.449 . S
C101 C100 1.399 1_545 S
C101 H107 0.930 . S
H102 C82 0.931 . S
H103 C83 0.930 . S
H104 C91 0.931 . S
H105 C92 0.929 . S
H106 C100 0.929 . S
H107 C101 0.930 . S
Mn108 O113 2.095 . S
Mn108 O123 2.162 . S
Mn108 O124 2.297 . S
Mn108 O132 2.385 . S
Mn108 O133 2.209 . S
Mn108 O134 2.094 . S
Mn109 O114 2.121 . S
Mn109 N116 2.257 . S
Mn109 N125 2.282 . S
Mn109 O133 2.215 . S
Mn109 O135 2.117 . S
C110 O132 1.234 . S
C110 O133 1.283 . S
C111 O123 1.281 . S
C111 O124 1.236 . S
C112 O134 1.240 . S
C112 O135 1.264 . S
O113 Mn108 2.095 . S
O113 C122 1.250 . S
O114 Mn109 2.121 . S
O114 C122 1.258 . S
C115 N116 1.326 . S
C115 C119 1.460 . S
C115 H121 0.929 . S
N116 Mn109 2.257 . S
N116 C115 1.326 . S
N116 C120 1.362 . S
C117 C118 1.258 . S
C117 C120 1.431 . S
C117 C137 1.449 . S
C118 C117 1.258 . S
C118 C119 1.477 . S
C118 H138 0.931 . S
C119 C115 1.460 . S
C119 C118 1.477 . S
C119 H139 0.930 . S
C120 N116 1.362 . S
C120 C117 1.431 . S
C120 C130 1.476 . S
H121 C115 0.929 . S
C122 O113 1.250 . S
C122 O114 1.258 . S
O123 Mn108 2.162 . S
O123 C111 1.281 . S
O124 Mn108 2.297 . S
O124 C111 1.236 . S
N125 Mn109 2.282 . S
N125 C126 1.328 . S
N125 C130 1.318 . S
C126 N125 1.328 . S
C126 C127 1.457 . S
C126 H131 0.929 . S
C127 C126 1.457 . S
C127 C128 1.291 . S
C127 H140 0.931 . S
C128 C127 1.291 . S
C128 C129 1.373 . S
C128 H141 0.929 . S
C129 C128 1.373 . S
C129 C130 1.396 . S
C129 C136 1.403 . S
C130 C120 1.476 . S
C130 N125 1.318 . S
C130 C129 1.396 . S
H131 C126 0.929 . S
O132 Mn108 2.385 . S
O132 C110 1.234 . S
O133 Mn108 2.209 . S
O133 Mn109 2.215 . S
O133 C110 1.283 . S
O134 Mn108 2.094 . S
O134 C112 1.240 . S
O135 Mn109 2.117 . S
O135 C112 1.264 . S
C136 C129 1.403 . S
C136 C137 1.399 . S
C136 H142 0.929 . S
C137 C117 1.449 . S
C137 C136 1.399 . S
C137 H143 0.930 . S
H138 C118 0.931 . S
H139 C119 0.930 . S
H140 C127 0.931 . S
H141 C128 0.929 . S
H142 C136 0.929 . S
H143 C137 0.930 . S
Mn144 O149 2.095 . S
Mn144 O159 2.162 . S
Mn144 O160 2.297 . S
Mn144 O168 2.385 . S
Mn144 O169 2.209 . S
Mn144 O170 2.094 . S
Mn145 O150 2.121 . S
Mn145 N152 2.257 . S
Mn145 N161 2.282 . S
Mn145 O169 2.215 . S
Mn145 O171 2.117 . S
C146 O168 1.234 . S
C146 O169 1.283 . S
C147 O159 1.281 . S
C147 O160 1.236 . S
C148 O170 1.240 . S
C148 O171 1.264 . S
O149 Mn144 2.095 . S
O149 C158 1.250 . S
O150 Mn145 2.121 . S
O150 C158 1.258 . S
C151 N152 1.326 . S
C151 C155 1.460 . S
C151 H157 0.929 . S
N152 Mn145 2.257 . S
N152 C151 1.326 . S
N152 C156 1.362 . S
C153 C154 1.258 . S
C153 C156 1.431 . S
C153 C173 1.449 . S
C154 C153 1.258 . S
C154 C155 1.477 . S
C154 H174 0.931 . S
C155 C151 1.460 . S
C155 C154 1.477 . S
C155 H175 0.930 . S
C156 N152 1.362 . S
C156 C153 1.431 . S
C156 C166 1.476 . S
H157 C151 0.929 . S
C158 O149 1.250 . S
C158 O150 1.258 . S
O159 Mn144 2.162 . S
O159 C147 1.281 . S
O160 Mn144 2.297 . S
O160 C147 1.236 . S
N161 Mn145 2.282 . S
N161 C162 1.328 . S
N161 C166 1.318 . S
C162 N161 1.328 . S
C162 C163 1.457 . S
C162 H167 0.929 . S
C163 C162 1.457 . S
C163 C164 1.291 . S
C163 H176 0.931 . S
C164 C163 1.291 . S
C164 C165 1.373 . S
C164 H177 0.929 . S
C165 C164 1.373 . S
C165 C166 1.396 . S
C165 C172 1.403 . S
C166 C156 1.476 . S
C166 N161 1.318 . S
C166 C165 1.396 . S
H167 C162 0.929 . S
O168 Mn144 2.385 . S
O168 C146 1.234 . S
O169 Mn144 2.209 . S
O169 Mn145 2.215 . S
O169 C146 1.283 . S
O170 Mn144 2.094 . S
O170 C148 1.240 . S
O171 Mn145 2.117 . S
O171 C148 1.264 . S
C172 C165 1.403 . S
C172 C173 1.399 . S
C172 H178 0.929 . S
C173 C153 1.449 . S
C173 C172 1.399 . S
C173 H179 0.930 . S
H174 C154 0.931 . S
H175 C155 0.930 . S
H176 C163 0.931 . S
H177 C164 0.929 . S
H178 C172 0.929 . S
H179 C173 0.930 . S
Mn180 O185 2.095 . S
Mn180 O195 2.162 . S
Mn180 O196 2.297 . S
Mn180 O204 2.385 . S
Mn180 O205 2.209 . S
Mn180 O206 2.094 . S
Mn181 O186 2.121 . S
Mn181 N188 2.257 . S
Mn181 N197 2.282 . S
Mn181 O205 2.215 . S
Mn181 O207 2.117 . S
C182 O204 1.234 . S
C182 O205 1.283 . S
C183 O195 1.281 . S
C183 O196 1.236 . S
C184 O206 1.240 . S
C184 O207 1.264 . S
O185 Mn180 2.095 . S
O185 C194 1.250 . S
O186 Mn181 2.121 . S
O186 C194 1.258 . S
C187 N188 1.326 . S
C187 C191 1.460 . S
C187 H193 0.929 . S
N188 Mn181 2.257 . S
N188 C187 1.326 . S
N188 C192 1.362 . S
C189 C190 1.258 . S
C189 C192 1.431 . S
C189 C209 1.449 . S
C190 C189 1.258 . S
C190 C191 1.477 . S
C190 H210 0.931 . S
C191 C187 1.460 . S
C191 C190 1.477 . S
C191 H211 0.930 . S
C192 N188 1.362 . S
C192 C189 1.431 . S
C192 C202 1.476 . S
H193 C187 0.929 . S
C194 O185 1.250 . S
C194 O186 1.258 . S
O195 Mn180 2.162 . S
O195 C183 1.281 . S
O196 Mn180 2.297 . S
O196 C183 1.236 . S
N197 Mn181 2.282 . S
N197 C198 1.328 . S
N197 C202 1.318 . S
C198 N197 1.328 . S
C198 C199 1.457 1_565 S
C198 H203 0.929 . S
C199 C198 1.457 1_545 S
C199 C200 1.291 . S
C199 H212 0.931 . S
C200 C199 1.291 . S
C200 C201 1.373 1_545 S
C200 H213 0.929 . S
C201 C200 1.373 1_565 S
C201 C202 1.396 . S
C201 C208 1.403 1_565 S
C202 C192 1.476 . S
C202 N197 1.318 . S
C202 C201 1.396 . S
H203 C198 0.929 . S
O204 Mn180 2.385 . S
O204 C182 1.234 . S
O205 Mn180 2.209 . S
O205 Mn181 2.215 . S
O205 C182 1.283 . S
O206 Mn180 2.094 . S
O206 C184 1.240 . S
O207 Mn181 2.117 . S
O207 C184 1.264 . S
C208 C201 1.403 1_545 S
C208 C209 1.399 1_545 S
C208 H214 0.929 . S
C209 C189 1.449 . S
C209 C208 1.399 1_565 S
C209 H215 0.930 . S
H210 C190 0.931 . S
H211 C191 0.930 . S
H212 C199 0.931 . S
H213 C200 0.929 . S
H214 C208 0.929 . S
H215 C209 0.930 . S
Mn216 O221 2.095 . S
Mn216 O231 2.162 . S
Mn216 O232 2.297 . S
Mn216 O240 2.385 . S
Mn216 O241 2.209 . S
Mn216 O242 2.094 . S
Mn217 O222 2.121 . S
Mn217 N224 2.257 . S
Mn217 N233 2.282 . S
Mn217 O241 2.215 . S
Mn217 O243 2.117 . S
C218 O240 1.234 . S
C218 O241 1.283 . S
C219 O231 1.281 . S
C219 O232 1.236 . S
C220 O242 1.240 . S
C220 O243 1.264 . S
O221 Mn216 2.095 . S
O221 C230 1.250 . S
O222 Mn217 2.121 . S
O222 C230 1.258 . S
C223 N224 1.326 . S
C223 C227 1.460 . S
C223 H229 0.929 . S
N224 Mn217 2.257 . S
N224 C223 1.326 . S
N224 C228 1.362 . S
C225 C226 1.258 . S
C225 C228 1.431 . S
C225 C245 1.449 . S
C226 C225 1.258 . S
C226 C227 1.477 . S
C226 H246 0.931 . S
C227 C223 1.460 . S
C227 C226 1.477 . S
C227 H247 0.930 . S
C228 N224 1.362 . S
C228 C225 1.431 . S
C228 C238 1.476 . S
H229 C223 0.929 . S
C230 O221 1.250 . S
C230 O222 1.258 . S
O231 Mn216 2.162 . S
O231 C219 1.281 . S
O232 Mn216 2.297 . S
O232 C219 1.236 . S
N233 Mn217 2.282 . S
N233 C234 1.328 . S
N233 C238 1.318 . S
C234 N233 1.328 . S
C234 C235 1.457 1_565 S
C234 H239 0.929 . S
C235 C234 1.457 1_545 S
C235 C236 1.291 . S
C235 H248 0.931 . S
C236 C235 1.291 . S
C236 C237 1.373 1_545 S
C236 H249 0.929 . S
C237 C236 1.373 1_565 S
C237 C238 1.396 . S
C237 C244 1.403 1_565 S
C238 C228 1.476 . S
C238 N233 1.318 . S
C238 C237 1.396 . S
H239 C234 0.929 . S
O240 Mn216 2.385 . S
O240 C218 1.234 . S
O241 Mn216 2.209 . S
O241 Mn217 2.215 . S
O241 C218 1.283 . S
O242 Mn216 2.094 . S
O242 C220 1.240 . S
O243 Mn217 2.117 . S
O243 C220 1.264 . S
C244 C237 1.403 1_545 S
C244 C245 1.399 1_545 S
C244 H250 0.929 . S
C245 C225 1.449 . S
C245 C244 1.399 1_565 S
C245 H251 0.930 . S
H246 C226 0.931 . S
H247 C227 0.930 . S
H248 C235 0.931 . S
H249 C236 0.929 . S
H250 C244 0.929 . S
H251 C245 0.930 . S
Mn252 O257 2.095 . S
Mn252 O267 2.162 . S
Mn252 O268 2.297 . S
Mn252 O276 2.385 . S
Mn252 O277 2.209 . S
Mn252 O278 2.094 . S
Mn253 O258 2.121 . S
Mn253 N260 2.257 . S
Mn253 N269 2.282 . S
Mn253 O277 2.215 . S
Mn253 O279 2.117 . S
C254 O276 1.234 . S
C254 O277 1.283 . S
C255 O267 1.281 . S
C255 O268 1.236 . S
C256 O278 1.240 . S
C256 O279 1.264 . S
O257 Mn252 2.095 . S
O257 C266 1.250 . S
O258 Mn253 2.121 . S
O258 C266 1.258 . S
C259 N260 1.326 . S
C259 C263 1.460 . S
C259 H265 0.929 . S
N260 Mn253 2.257 . S
N260 C259 1.326 . S
N260 C264 1.362 . S
C261 C262 1.258 . S
C261 C264 1.431 . S
C261 C281 1.449 . S
C262 C261 1.258 . S
C262 C263 1.477 . S
C262 H282 0.931 . S
C263 C259 1.460 . S
C263 C262 1.477 . S
C263 H283 0.930 . S
C264 N260 1.362 . S
C264 C261 1.431 . S
C264 C274 1.476 . S
H265 C259 0.929 . S
C266 O257 1.250 . S
C266 O258 1.258 . S
O267 Mn252 2.162 . S
O267 C255 1.281 . S
O268 Mn252 2.297 . S
O268 C255 1.236 . S
N269 Mn253 2.282 . S
N269 C270 1.328 . S
N269 C274 1.318 . S
C270 N269 1.328 . S
C270 C271 1.457 . S
C270 H275 0.929 . S
C271 C270 1.457 . S
C271 C272 1.291 . S
C271 H284 0.931 . S
C272 C271 1.291 . S
C272 C273 1.373 . S
C272 H285 0.929 . S
C273 C272 1.373 . S
C273 C274 1.396 . S
C273 C280 1.403 . S
C274 C264 1.476 . S
C274 N269 1.318 . S
C274 C273 1.396 . S
H275 C270 0.929 . S
O276 Mn252 2.385 . S
O276 C254 1.234 . S
O277 Mn252 2.209 . S
O277 Mn253 2.215 . S
O277 C254 1.283 . S
O278 Mn252 2.094 . S
O278 C256 1.240 . S
O279 Mn253 2.117 . S
O279 C256 1.264 . S
C280 C273 1.403 . S
C280 C281 1.399 . S
C280 H286 0.929 . S
C281 C261 1.449 . S
C281 C280 1.399 . S
C281 H287 0.930 . S
H282 C262 0.931 . S
H283 C263 0.930 . S
H284 C271 0.931 . S
H285 C272 0.929 . S
H286 C280 0.929 . S
H287 C281 0.930 . S
Mn288 O293 2.095 . S
Mn288 O303 2.162 . S
Mn288 O304 2.297 . S
Mn288 O312 2.385 . S
Mn288 O313 2.209 . S
Mn288 O314 2.094 . S
Mn289 O294 2.121 . S
Mn289 N296 2.257 . S
Mn289 N305 2.282 . S
Mn289 O313 2.215 . S
Mn289 O315 2.117 . S
C290 O312 1.234 . S
C290 O313 1.283 . S
C291 O303 1.281 . S
C291 O304 1.236 . S
C292 O314 1.240 . S
C292 O315 1.264 . S
O293 Mn288 2.095 . S
O293 C302 1.250 . S
O294 Mn289 2.121 . S
O294 C302 1.258 . S
C295 N296 1.326 . S
C295 C299 1.460 . S
C295 H301 0.929 . S
N296 Mn289 2.257 . S
N296 C295 1.326 . S
N296 C300 1.362 . S
C297 C298 1.258 . S
C297 C300 1.431 . S
C297 C317 1.449 . S
C298 C297 1.258 . S
C298 C299 1.477 . S
C298 H318 0.931 . S
C299 C295 1.460 . S
C299 C298 1.477 . S
C299 H319 0.930 . S
C300 N296 1.362 . S
C300 C297 1.431 . S
C300 C310 1.476 . S
H301 C295 0.929 . S
C302 O293 1.250 . S
C302 O294 1.258 . S
O303 Mn288 2.162 . S
O303 C291 1.281 . S
O304 Mn288 2.297 . S
O304 C291 1.236 . S
N305 Mn289 2.282 . S
N305 C306 1.328 . S
N305 C310 1.318 . S
C306 N305 1.328 . S
C306 C307 1.457 . S
C306 H311 0.929 . S
C307 C306 1.457 . S
C307 C308 1.291 . S
C307 H320 0.931 . S
C308 C307 1.291 . S
C308 C309 1.373 . S
C308 H321 0.929 . S
C309 C308 1.373 . S
C309 C310 1.396 . S
C309 C316 1.403 . S
C310 C300 1.476 . S
C310 N305 1.318 . S
C310 C309 1.396 . S
H311 C306 0.929 . S
O312 Mn288 2.385 . S
O312 C290 1.234 . S
O313 Mn288 2.209 . S
O313 Mn289 2.215 . S
O313 C290 1.283 . S
O314 Mn288 2.094 . S
O314 C292 1.240 . S
O315 Mn289 2.117 . S
O315 C292 1.264 . S
C316 C309 1.403 . S
C316 C317 1.399 . S
C316 H322 0.929 . S
C317 C297 1.449 . S
C317 C316 1.399 . S
C317 H323 0.930 . S
H318 C298 0.931 . S
H319 C299 0.930 . S
H320 C307 0.931 . S
H321 C308 0.929 . S
H322 C316 0.929 . S
H323 C317 0.930 . S
Mn324 O329 2.095 . S
Mn324 O339 2.162 . S
Mn324 O340 2.297 . S
Mn324 O348 2.385 . S
Mn324 O349 2.209 . S
Mn324 O350 2.094 . S
Mn325 O330 2.121 . S
Mn325 N332 2.257 . S
Mn325 N341 2.282 . S
Mn325 O349 2.215 . S
Mn325 O351 2.117 . S
C326 O348 1.234 . S
C326 O349 1.283 . S
C327 O339 1.281 . S
C327 O340 1.236 . S
C328 O350 1.240 . S
C328 O351 1.264 . S
O329 Mn324 2.095 . S
O329 C338 1.250 . S
O330 Mn325 2.121 . S
O330 C338 1.258 . S
C331 N332 1.326 . S
C331 C335 1.460 . S
C331 H337 0.929 . S
N332 Mn325 2.257 . S
N332 C331 1.326 . S
N332 C336 1.362 . S
C333 C334 1.258 . S
C333 C336 1.431 . S
C333 C353 1.449 . S
C334 C333 1.258 . S
C334 C335 1.477 . S
C334 H354 0.931 . S
C335 C331 1.460 . S
C335 C334 1.477 . S
C335 H355 0.930 . S
C336 N332 1.362 . S
C336 C333 1.431 . S
C336 C346 1.476 . S
H337 C331 0.929 . S
C338 O329 1.250 . S
C338 O330 1.258 . S
O339 Mn324 2.162 . S
O339 C327 1.281 . S
O340 Mn324 2.297 . S
O340 C327 1.236 . S
N341 Mn325 2.282 . S
N341 C342 1.328 . S
N341 C346 1.318 . S
C342 N341 1.328 . S
C342 C343 1.457 . S
C342 H347 0.929 . S
C343 C342 1.457 . S
C343 C344 1.291 . S
C343 H356 0.931 . S
C344 C343 1.291 . S
C344 C345 1.373 . S
C344 H357 0.929 . S
C345 C344 1.373 . S
C345 C346 1.396 . S
C345 C352 1.403 . S
C346 C336 1.476 . S
C346 N341 1.318 . S
C346 C345 1.396 . S
H347 C342 0.929 . S
O348 Mn324 2.385 . S
O348 C326 1.234 . S
O349 Mn324 2.209 . S
O349 Mn325 2.215 . S
O349 C326 1.283 . S
O350 Mn324 2.094 . S
O350 C328 1.240 . S
O351 Mn325 2.117 . S
O351 C328 1.264 . S
C352 C345 1.403 . S
C352 C353 1.399 . S
C352 H358 0.929 . S
C353 C333 1.449 . S
C353 C352 1.399 . S
C353 H359 0.930 . S
H354 C334 0.931 . S
H355 C335 0.930 . S
H356 C343 0.931 . S
H357 C344 0.929 . S
H358 C352 0.929 . S
H359 C353 0.930 . S
Mn360 O365 2.095 . S
Mn360 O375 2.162 . S
Mn360 O376 2.297 . S
Mn360 O384 2.385 . S
Mn360 O385 2.209 . S
Mn360 O386 2.094 . S
Mn361 O366 2.121 . S
Mn361 N368 2.257 . S
Mn361 N377 2.282 . S
Mn361 O385 2.215 . S
Mn361 O387 2.117 . S
C362 O384 1.234 . S
C362 O385 1.283 . S
C363 O375 1.281 . S
C363 O376 1.236 . S
C364 O386 1.240 . S
C364 O387 1.264 . S
O365 Mn360 2.095 . S
O365 C374 1.250 . S
O366 Mn361 2.121 . S
O366 C374 1.258 . S
C367 N368 1.326 . S
C367 C371 1.460 . S
C367 H373 0.929 . S
N368 Mn361 2.257 . S
N368 C367 1.326 . S
N368 C372 1.362 . S
C369 C370 1.258 . S
C369 C372 1.431 . S
C369 C389 1.449 . S
C370 C369 1.258 . S
C370 C371 1.477 . S
C370 H390 0.931 . S
C371 C367 1.460 . S
C371 C370 1.477 . S
C371 H391 0.930 . S
C372 N368 1.362 . S
C372 C369 1.431 . S
C372 C382 1.476 . S
H373 C367 0.929 . S
C374 O365 1.250 . S
C374 O366 1.258 . S
O375 Mn360 2.162 . S
O375 C363 1.281 . S
O376 Mn360 2.297 . S
O376 C363 1.236 . S
N377 Mn361 2.282 . S
N377 C378 1.328 . S
N377 C382 1.318 . S
C378 N377 1.328 . S
C378 C379 1.457 . S
C378 H383 0.929 . S
C379 C378 1.457 . S
C379 C380 1.291 . S
C379 H392 0.931 . S
C380 C379 1.291 . S
C380 C381 1.373 . S
C380 H393 0.929 . S
C381 C380 1.373 . S
C381 C382 1.396 . S
C381 C388 1.403 . S
C382 C372 1.476 . S
C382 N377 1.318 . S
C382 C381 1.396 . S
H383 C378 0.929 . S
O384 Mn360 2.385 . S
O384 C362 1.234 . S
O385 Mn360 2.209 . S
O385 Mn361 2.215 . S
O385 C362 1.283 . S
O386 Mn360 2.094 . S
O386 C364 1.240 . S
O387 Mn361 2.117 . S
O387 C364 1.264 . S
C388 C381 1.403 . S
C388 C389 1.399 . S
C388 H394 0.929 . S
C389 C369 1.449 . S
C389 C388 1.399 . S
C389 H395 0.930 . S
H390 C370 0.931 . S
H391 C371 0.930 . S
H392 C379 0.931 . S
H393 C380 0.929 . S
H394 C388 0.929 . S
H395 C389 0.930 . S
Mn396 O401 2.095 . S
Mn396 O411 2.162 . S
Mn396 O412 2.297 . S
Mn396 O420 2.385 . S
Mn396 O421 2.209 . S
Mn396 O422 2.094 . S
Mn397 O402 2.121 . S
Mn397 N404 2.257 . S
Mn397 N413 2.282 . S
Mn397 O421 2.215 . S
Mn397 O423 2.117 . S
C398 O420 1.234 . S
C398 O421 1.283 . S
C399 O411 1.281 . S
C399 O412 1.236 . S
C400 O422 1.240 . S
C400 O423 1.264 . S
O401 Mn396 2.095 . S
O401 C410 1.250 . S
O402 Mn397 2.121 . S
O402 C410 1.258 . S
C403 N404 1.326 . S
C403 C407 1.460 . S
C403 H409 0.929 . S
N404 Mn397 2.257 . S
N404 C403 1.326 . S
N404 C408 1.362 . S
C405 C406 1.258 . S
C405 C408 1.431 . S
C405 C425 1.449 . S
C406 C405 1.258 . S
C406 C407 1.477 . S
C406 H426 0.931 . S
C407 C403 1.460 . S
C407 C406 1.477 . S
C407 H427 0.930 . S
C408 N404 1.362 . S
C408 C405 1.431 . S
C408 C418 1.476 . S
H409 C403 0.929 . S
C410 O401 1.250 . S
C410 O402 1.258 . S
O411 Mn396 2.162 . S
O411 C399 1.281 . S
O412 Mn396 2.297 . S
O412 C399 1.236 . S
N413 Mn397 2.282 . S
N413 C414 1.328 . S
N413 C418 1.318 . S
C414 N413 1.328 . S
C414 C415 1.457 . S
C414 H419 0.929 . S
C415 C414 1.457 . S
C415 C416 1.291 . S
C415 H428 0.931 . S
C416 C415 1.291 . S
C416 C417 1.373 . S
C416 H429 0.929 . S
C417 C416 1.373 . S
C417 C418 1.396 . S
C417 C424 1.403 . S
C418 C408 1.476 . S
C418 N413 1.318 . S
C418 C417 1.396 . S
H419 C414 0.929 . S
O420 Mn396 2.385 . S
O420 C398 1.234 . S
O421 Mn396 2.209 . S
O421 Mn397 2.215 . S
O421 C398 1.283 . S
O422 Mn396 2.094 . S
O422 C400 1.240 . S
O423 Mn397 2.117 . S
O423 C400 1.264 . S
C424 C417 1.403 . S
C424 C425 1.399 . S
C424 H430 0.929 . S
C425 C405 1.449 . S
C425 C424 1.399 . S
C425 H431 0.930 . S
H426 C406 0.931 . S
H427 C407 0.930 . S
H428 C415 0.931 . S
H429 C416 0.929 . S
H430 C424 0.929 . S
H431 C425 0.930 . S
Mn432 O437 2.095 . S
Mn432 O447 2.162 . S
Mn432 O448 2.297 . S
Mn432 O456 2.385 . S
Mn432 O457 2.209 . S
Mn432 O458 2.094 . S
Mn433 O438 2.121 . S
Mn433 N440 2.257 . S
Mn433 N449 2.282 . S
Mn433 O457 2.215 . S
Mn433 O459 2.117 . S
C434 O456 1.234 . S
C434 O457 1.283 . S
C435 O447 1.281 . S
C435 O448 1.236 . S
C436 O458 1.240 . S
C436 O459 1.264 . S
O437 Mn432 2.095 . S
O437 C446 1.250 . S
O438 Mn433 2.121 . S
O438 C446 1.258 . S
C439 N440 1.326 . S
C439 C443 1.460 . S
C439 H445 0.929 . S
N440 Mn433 2.257 . S
N440 C439 1.326 . S
N440 C444 1.362 . S
C441 C442 1.258 . S
C441 C444 1.431 . S
C441 C461 1.449 . S
C442 C441 1.258 . S
C442 C443 1.477 . S
C442 H462 0.931 . S
C443 C439 1.460 . S
C443 C442 1.477 . S
C443 H463 0.930 . S
C444 N440 1.362 . S
C444 C441 1.431 . S
C444 C454 1.476 . S
H445 C439 0.929 . S
C446 O437 1.250 . S
C446 O438 1.258 . S
O447 Mn432 2.162 . S
O447 C435 1.281 . S
O448 Mn432 2.297 . S
O448 C435 1.236 . S
N449 Mn433 2.282 . S
N449 C450 1.328 . S
N449 C454 1.318 . S
C450 N449 1.328 . S
C450 C451 1.457 . S
C450 H455 0.929 . S
C451 C450 1.457 . S
C451 C452 1.291 . S
C451 H464 0.931 . S
C452 C451 1.291 . S
C452 C453 1.373 . S
C452 H465 0.929 . S
C453 C452 1.373 . S
C453 C454 1.396 . S
C453 C460 1.403 . S
C454 C444 1.476 . S
C454 N449 1.318 . S
C454 C453 1.396 . S
H455 C450 0.929 . S
O456 Mn432 2.385 . S
O456 C434 1.234 . S
O457 Mn432 2.209 . S
O457 Mn433 2.215 . S
O457 C434 1.283 . S
O458 Mn432 2.094 . S
O458 C436 1.240 . S
O459 Mn433 2.117 . S
O459 C436 1.264 . S
C460 C453 1.403 . S
C460 C461 1.399 . S
C460 H466 0.929 . S
C461 C441 1.449 . S
C461 C460 1.399 . S
C461 H467 0.930 . S
H462 C442 0.931 . S
H463 C443 0.930 . S
H464 C451 0.931 . S
H465 C452 0.929 . S
H466 C460 0.929 . S
H467 C461 0.930 . S
Mn468 O473 2.095 . S
Mn468 O483 2.162 . S
Mn468 O484 2.297 . S
Mn468 O492 2.385 . S
Mn468 O493 2.209 . S
Mn468 O494 2.094 . S
Mn469 O474 2.121 . S
Mn469 N476 2.257 . S
Mn469 N485 2.282 . S
Mn469 O493 2.215 . S
Mn469 O495 2.117 . S
C470 O492 1.234 . S
C470 O493 1.283 . S
C471 O483 1.281 . S
C471 O484 1.236 . S
C472 O494 1.240 . S
C472 O495 1.264 . S
O473 Mn468 2.095 . S
O473 C482 1.250 . S
O474 Mn469 2.121 . S
O474 C482 1.258 . S
C475 N476 1.326 . S
C475 C479 1.460 . S
C475 H481 0.929 . S
N476 Mn469 2.257 . S
N476 C475 1.326 . S
N476 C480 1.362 . S
C477 C478 1.258 . S
C477 C480 1.431 . S
C477 C497 1.449 . S
C478 C477 1.258 . S
C478 C479 1.477 . S
C478 H498 0.931 . S
C479 C475 1.460 . S
C479 C478 1.477 . S
C479 H499 0.930 . S
C480 N476 1.362 . S
C480 C477 1.431 . S
C480 C490 1.476 . S
H481 C475 0.929 . S
C482 O473 1.250 . S
C482 O474 1.258 . S
O483 Mn468 2.162 . S
O483 C471 1.281 . S
O484 Mn468 2.297 . S
O484 C471 1.236 . S
N485 Mn469 2.282 . S
N485 C486 1.328 . S
N485 C490 1.318 . S
C486 N485 1.328 . S
C486 C487 1.457 . S
C486 H491 0.929 . S
C487 C486 1.457 . S
C487 C488 1.291 . S
C487 H500 0.931 . S
C488 C487 1.291 . S
C488 C489 1.373 . S
C488 H501 0.929 . S
C489 C488 1.373 . S
C489 C490 1.396 . S
C489 C496 1.403 . S
C490 C480 1.476 . S
C490 N485 1.318 . S
C490 C489 1.396 . S
H491 C486 0.929 . S
O492 Mn468 2.385 . S
O492 C470 1.234 . S
O493 Mn468 2.209 . S
O493 Mn469 2.215 . S
O493 C470 1.283 . S
O494 Mn468 2.094 . S
O494 C472 1.240 . S
O495 Mn469 2.117 . S
O495 C472 1.264 . S
C496 C489 1.403 . S
C496 C497 1.399 . S
C496 H502 0.929 . S
C497 C477 1.449 . S
C497 C496 1.399 . S
C497 H503 0.930 . S
H498 C478 0.931 . S
H499 C479 0.930 . S
H500 C487 0.931 . S
H501 C488 0.929 . S
H502 C496 0.929 . S
H503 C497 0.930 . S
Mn504 O509 2.095 . S
Mn504 O519 2.162 . S
Mn504 O520 2.297 . S
Mn504 O528 2.385 . S
Mn504 O529 2.209 . S
Mn504 O530 2.094 . S
Mn505 O510 2.121 . S
Mn505 N512 2.257 . S
Mn505 N521 2.282 . S
Mn505 O529 2.215 . S
Mn505 O531 2.117 . S
C506 O528 1.234 . S
C506 O529 1.283 . S
C507 O519 1.281 . S
C507 O520 1.236 . S
C508 O530 1.240 . S
C508 O531 1.264 . S
O509 Mn504 2.095 . S
O509 C518 1.250 . S
O510 Mn505 2.121 . S
O510 C518 1.258 . S
C511 N512 1.326 . S
C511 C515 1.460 . S
C511 H517 0.929 . S
N512 Mn505 2.257 . S
N512 C511 1.326 . S
N512 C516 1.362 . S
C513 C514 1.258 . S
C513 C516 1.431 . S
C513 C533 1.449 . S
C514 C513 1.258 . S
C514 C515 1.477 . S
C514 H534 0.931 . S
C515 C511 1.460 . S
C515 C514 1.477 . S
C515 H535 0.930 . S
C516 N512 1.362 . S
C516 C513 1.431 . S
C516 C526 1.476 . S
H517 C511 0.929 . S
C518 O509 1.250 . S
C518 O510 1.258 . S
O519 Mn504 2.162 . S
O519 C507 1.281 . S
O520 Mn504 2.297 . S
O520 C507 1.236 . S
N521 Mn505 2.282 . S
N521 C522 1.328 . S
N521 C526 1.318 . S
C522 N521 1.328 . S
C522 C523 1.457 . S
C522 H527 0.929 . S
C523 C522 1.457 . S
C523 C524 1.291 . S
C523 H536 0.931 . S
C524 C523 1.291 . S
C524 C525 1.373 . S
C524 H537 0.929 . S
C525 C524 1.373 . S
C525 C526 1.396 . S
C525 C532 1.403 . S
C526 C516 1.476 . S
C526 N521 1.318 . S
C526 C525 1.396 . S
H527 C522 0.929 . S
O528 Mn504 2.385 . S
O528 C506 1.234 . S
O529 Mn504 2.209 . S
O529 Mn505 2.215 . S
O529 C506 1.283 . S
O530 Mn504 2.094 . S
O530 C508 1.240 . S
O531 Mn505 2.117 . S
O531 C508 1.264 . S
C532 C525 1.403 . S
C532 C533 1.399 . S
C532 H538 0.929 . S
C533 C513 1.449 . S
C533 C532 1.399 . S
C533 H539 0.930 . S
H534 C514 0.931 . S
H535 C515 0.930 . S
H536 C523 0.931 . S
H537 C524 0.929 . S
H538 C532 0.929 . S
H539 C533 0.930 . S
Mn540 O545 2.095 . S
Mn540 O555 2.162 . S
Mn540 O556 2.297 . S
Mn540 O564 2.385 . S
Mn540 O565 2.209 . S
Mn540 O566 2.094 . S
Mn541 O546 2.121 . S
Mn541 N548 2.257 . S
Mn541 N557 2.282 . S
Mn541 O565 2.215 . S
Mn541 O567 2.117 . S
C542 O564 1.234 . S
C542 O565 1.283 . S
C543 O555 1.281 . S
C543 O556 1.236 . S
C544 O566 1.240 . S
C544 O567 1.264 . S
O545 Mn540 2.095 . S
O545 C554 1.250 . S
O546 Mn541 2.121 . S
O546 C554 1.258 . S
C547 N548 1.326 . S
C547 C551 1.460 . S
C547 H553 0.929 . S
N548 Mn541 2.257 . S
N548 C547 1.326 . S
N548 C552 1.362 . S
C549 C550 1.258 . S
C549 C552 1.431 . S
C549 C569 1.449 . S
C550 C549 1.258 . S
C550 C551 1.477 . S
C550 H570 0.931 . S
C551 C547 1.460 . S
C551 C550 1.477 . S
C551 H571 0.930 . S
C552 N548 1.362 . S
C552 C549 1.431 . S
C552 C562 1.476 . S
H553 C547 0.929 . S
C554 O545 1.250 . S
C554 O546 1.258 . S
O555 Mn540 2.162 . S
O555 C543 1.281 . S
O556 Mn540 2.297 . S
O556 C543 1.236 . S
N557 Mn541 2.282 . S
N557 C558 1.328 . S
N557 C562 1.318 . S
C558 N557 1.328 . S
C558 C559 1.457 . S
C558 H563 0.929 . S
C559 C558 1.457 . S
C559 C560 1.291 . S
C559 H572 0.931 . S
C560 C559 1.291 . S
C560 C561 1.373 . S
C560 H573 0.929 . S
C561 C560 1.373 . S
C561 C562 1.396 . S
C561 C568 1.403 . S
C562 C552 1.476 . S
C562 N557 1.318 . S
C562 C561 1.396 . S
H563 C558 0.929 . S
O564 Mn540 2.385 . S
O564 C542 1.234 . S
O565 Mn540 2.209 . S
O565 Mn541 2.215 . S
O565 C542 1.283 . S
O566 Mn540 2.094 . S
O566 C544 1.240 . S
O567 Mn541 2.117 . S
O567 C544 1.264 . S
C568 C561 1.403 . S
C568 C569 1.399 . S
C568 H574 0.929 . S
C569 C549 1.449 . S
C569 C568 1.399 . S
C569 H575 0.930 . S
H570 C550 0.931 . S
H571 C551 0.930 . S
H572 C559 0.931 . S
H573 C560 0.929 . S
H574 C568 0.929 . S
H575 C569 0.930 . S
Mn576 O581 2.095 . S
Mn576 O591 2.162 . S
Mn576 O592 2.297 . S
Mn576 O600 2.385 . S
Mn576 O601 2.209 . S
Mn576 O602 2.094 . S
Mn577 O582 2.121 . S
Mn577 N584 2.257 . S
Mn577 N593 2.282 . S
Mn577 O601 2.215 . S
Mn577 O603 2.117 . S
C578 O600 1.234 . S
C578 O601 1.283 . S
C579 O591 1.281 . S
C579 O592 1.236 . S
C580 O602 1.240 . S
C580 O603 1.264 . S
O581 Mn576 2.095 . S
O581 C590 1.250 . S
O582 Mn577 2.121 . S
O582 C590 1.258 . S
C583 N584 1.326 . S
C583 C587 1.460 . S
C583 H589 0.929 . S
N584 Mn577 2.257 . S
N584 C583 1.326 . S
N584 C588 1.362 . S
C585 C586 1.258 . S
C585 C588 1.431 . S
C585 C605 1.449 . S
C586 C585 1.258 . S
C586 C587 1.477 . S
C586 H606 0.931 . S
C587 C583 1.460 . S
C587 C586 1.477 . S
C587 H607 0.930 . S
C588 N584 1.362 . S
C588 C585 1.431 . S
C588 C598 1.476 . S
H589 C583 0.929 . S
C590 O581 1.250 . S
C590 O582 1.258 . S
O591 Mn576 2.162 . S
O591 C579 1.281 . S
O592 Mn576 2.297 . S
O592 C579 1.236 . S
N593 Mn577 2.282 . S
N593 C594 1.328 . S
N593 C598 1.318 . S
C594 N593 1.328 . S
C594 C595 1.457 . S
C594 H599 0.929 . S
C595 C594 1.457 . S
C595 C596 1.291 . S
C595 H608 0.931 . S
C596 C595 1.291 . S
C596 C597 1.373 . S
C596 H609 0.929 . S
C597 C596 1.373 . S
C597 C598 1.396 . S
C597 C604 1.403 . S
C598 C588 1.476 . S
C598 N593 1.318 . S
C598 C597 1.396 . S
H599 C594 0.929 . S
O600 Mn576 2.385 . S
O600 C578 1.234 . S
O601 Mn576 2.209 . S
O601 Mn577 2.215 . S
O601 C578 1.283 . S
O602 Mn576 2.094 . S
O602 C580 1.240 . S
O603 Mn577 2.117 . S
O603 C580 1.264 . S
C604 C597 1.403 . S
C604 C605 1.399 . S
C604 H610 0.929 . S
C605 C585 1.449 . S
C605 C604 1.399 . S
C605 H611 0.930 . S
H606 C586 0.931 . S
H607 C587 0.930 . S
H608 C595 0.931 . S
H609 C596 0.929 . S
H610 C604 0.929 . S
H611 C605 0.930 . S
Mn612 O617 2.095 . S
Mn612 O627 2.162 . S
Mn612 O628 2.297 . S
Mn612 O636 2.385 . S
Mn612 O637 2.209 . S
Mn612 O638 2.094 . S
Mn613 O618 2.121 . S
Mn613 N620 2.257 . S
Mn613 N629 2.282 . S
Mn613 O637 2.215 . S
Mn613 O639 2.117 . S
C614 O636 1.234 . S
C614 O637 1.283 . S
C615 O627 1.281 . S
C615 O628 1.236 . S
C616 O638 1.240 . S
C616 O639 1.264 . S
O617 Mn612 2.095 . S
O617 C626 1.250 . S
O618 Mn613 2.121 . S
O618 C626 1.258 . S
C619 N620 1.326 . S
C619 C623 1.460 . S
C619 H625 0.929 . S
N620 Mn613 2.257 . S
N620 C619 1.326 . S
N620 C624 1.362 . S
C621 C622 1.258 . S
C621 C624 1.431 . S
C621 C641 1.449 . S
C622 C621 1.258 . S
C622 C623 1.477 . S
C622 H642 0.931 . S
C623 C619 1.460 . S
C623 C622 1.477 . S
C623 H643 0.930 . S
C624 N620 1.362 . S
C624 C621 1.431 . S
C624 C634 1.476 . S
H625 C619 0.929 . S
C626 O617 1.250 . S
C626 O618 1.258 . S
O627 Mn612 2.162 . S
O627 C615 1.281 . S
O628 Mn612 2.297 . S
O628 C615 1.236 . S
N629 Mn613 2.282 . S
N629 C630 1.328 . S
N629 C634 1.318 . S
C630 N629 1.328 . S
C630 C631 1.457 1_545 S
C630 H635 0.929 . S
C631 C630 1.457 1_565 S
C631 C632 1.291 . S
C631 H644 0.931 . S
C632 C631 1.291 . S
C632 C633 1.373 1_565 S
C632 H645 0.929 . S
C633 C632 1.373 1_545 S
C633 C634 1.396 . S
C633 C640 1.403 1_545 S
C634 C624 1.476 . S
C634 N629 1.318 . S
C634 C633 1.396 . S
H635 C630 0.929 . S
O636 Mn612 2.385 . S
O636 C614 1.234 . S
O637 Mn612 2.209 . S
O637 Mn613 2.215 . S
O637 C614 1.283 . S
O638 Mn612 2.094 . S
O638 C616 1.240 . S
O639 Mn613 2.117 . S
O639 C616 1.264 . S
C640 C633 1.403 1_565 S
C640 C641 1.399 1_565 S
C640 H646 0.929 . S
C641 C621 1.449 . S
C641 C640 1.399 1_545 S
C641 H647 0.930 . S
H642 C622 0.931 . S
H643 C623 0.930 . S
H644 C631 0.931 . S
H645 C632 0.929 . S
H646 C640 0.929 . S
H647 C641 0.930 . S
Mn648 O653 2.095 . S
Mn648 O663 2.162 . S
Mn648 O664 2.297 . S
Mn648 O672 2.385 . S
Mn648 O673 2.209 . S
Mn648 O674 2.094 . S
Mn649 O654 2.121 . S
Mn649 N656 2.257 . S
Mn649 N665 2.282 . S
Mn649 O673 2.215 . S
Mn649 O675 2.117 . S
C650 O672 1.234 . S
C650 O673 1.283 . S
C651 O663 1.281 . S
C651 O664 1.236 . S
C652 O674 1.240 . S
C652 O675 1.264 . S
O653 Mn648 2.095 . S
O653 C662 1.250 . S
O654 Mn649 2.121 . S
O654 C662 1.258 . S
C655 N656 1.326 . S
C655 C659 1.460 . S
C655 H661 0.929 . S
N656 Mn649 2.257 . S
N656 C655 1.326 . S
N656 C660 1.362 . S
C657 C658 1.258 . S
C657 C660 1.431 . S
C657 C677 1.449 . S
C658 C657 1.258 . S
C658 C659 1.477 . S
C658 H678 0.931 . S
C659 C655 1.460 . S
C659 C658 1.477 . S
C659 H679 0.930 . S
C660 N656 1.362 . S
C660 C657 1.431 . S
C660 C670 1.476 . S
H661 C655 0.929 . S
C662 O653 1.250 . S
C662 O654 1.258 . S
O663 Mn648 2.162 . S
O663 C651 1.281 . S
O664 Mn648 2.297 . S
O664 C651 1.236 . S
N665 Mn649 2.282 . S
N665 C666 1.328 . S
N665 C670 1.318 . S
C666 N665 1.328 . S
C666 C667 1.457 1_545 S
C666 H671 0.929 . S
C667 C666 1.457 1_565 S
C667 C668 1.291 . S
C667 H680 0.931 . S
C668 C667 1.291 . S
C668 C669 1.373 1_565 S
C668 H681 0.929 . S
C669 C668 1.373 1_545 S
C669 C670 1.396 . S
C669 C676 1.403 1_545 S
C670 C660 1.476 . S
C670 N665 1.318 . S
C670 C669 1.396 . S
H671 C666 0.929 . S
O672 Mn648 2.385 . S
O672 C650 1.234 . S
O673 Mn648 2.209 . S
O673 Mn649 2.215 . S
O673 C650 1.283 . S
O674 Mn648 2.094 . S
O674 C652 1.240 . S
O675 Mn649 2.117 . S
O675 C652 1.264 . S
C676 C669 1.403 1_565 S
C676 C677 1.399 1_565 S
C676 H682 0.929 . S
C677 C657 1.449 . S
C677 C676 1.399 1_545 S
C677 H683 0.930 . S
H678 C658 0.931 . S
H679 C659 0.930 . S
H680 C667 0.931 . S
H681 C668 0.929 . S
H682 C676 0.929 . S
H683 C677 0.930 . S
Mn684 O689 2.095 . S
Mn684 O699 2.162 . S
Mn684 O700 2.297 . S
Mn684 O708 2.385 . S
Mn684 O709 2.209 . S
Mn684 O710 2.094 . S
Mn685 O690 2.121 . S
Mn685 N692 2.257 . S
Mn685 N701 2.282 . S
Mn685 O709 2.215 . S
Mn685 O711 2.117 . S
C686 O708 1.234 . S
C686 O709 1.283 . S
C687 O699 1.281 . S
C687 O700 1.236 . S
C688 O710 1.240 . S
C688 O711 1.264 . S
O689 Mn684 2.095 . S
O689 C698 1.250 . S
O690 Mn685 2.121 . S
O690 C698 1.258 . S
C691 N692 1.326 . S
C691 C695 1.460 . S
C691 H697 0.929 . S
N692 Mn685 2.257 . S
N692 C691 1.326 . S
N692 C696 1.362 . S
C693 C694 1.258 . S
C693 C696 1.431 . S
C693 C713 1.449 . S
C694 C693 1.258 . S
C694 C695 1.477 . S
C694 H714 0.931 . S
C695 C691 1.460 . S
C695 C694 1.477 . S
C695 H715 0.930 . S
C696 N692 1.362 . S
C696 C693 1.431 . S
C696 C706 1.476 . S
H697 C691 0.929 . S
C698 O689 1.250 . S
C698 O690 1.258 . S
O699 Mn684 2.162 . S
O699 C687 1.281 . S
O700 Mn684 2.297 . S
O700 C687 1.236 . S
N701 Mn685 2.282 . S
N701 C702 1.328 . S
N701 C706 1.318 . S
C702 N701 1.328 . S
C702 C703 1.457 . S
C702 H707 0.929 . S
C703 C702 1.457 . S
C703 C704 1.291 . S
C703 H716 0.931 . S
C704 C703 1.291 . S
C704 C705 1.373 . S
C704 H717 0.929 . S
C705 C704 1.373 . S
C705 C706 1.396 . S
C705 C712 1.403 . S
C706 C696 1.476 . S
C706 N701 1.318 . S
C706 C705 1.396 . S
H707 C702 0.929 . S
O708 Mn684 2.385 . S
O708 C686 1.234 . S
O709 Mn684 2.209 . S
O709 Mn685 2.215 . S
O709 C686 1.283 . S
O710 Mn684 2.094 . S
O710 C688 1.240 . S
O711 Mn685 2.117 . S
O711 C688 1.264 . S
C712 C705 1.403 . S
C712 C713 1.399 . S
C712 H718 0.929 . S
C713 C693 1.449 . S
C713 C712 1.399 . S
C713 H719 0.930 . S
H714 C694 0.931 . S
H715 C695 0.930 . S
H716 C703 0.931 . S
H717 C704 0.929 . S
H718 C712 0.929 . S
H719 C713 0.930 . S
Mn720 O725 2.095 . S
Mn720 O735 2.162 . S
Mn720 O736 2.297 . S
Mn720 O744 2.385 . S
Mn720 O745 2.209 . S
Mn720 O746 2.094 . S
Mn721 O726 2.121 . S
Mn721 N728 2.257 . S
Mn721 N737 2.282 . S
Mn721 O745 2.215 . S
Mn721 O747 2.117 . S
C722 O744 1.234 . S
C722 O745 1.283 . S
C723 O735 1.281 . S
C723 O736 1.236 . S
C724 O746 1.240 . S
C724 O747 1.264 . S
O725 Mn720 2.095 . S
O725 C734 1.250 . S
O726 Mn721 2.121 . S
O726 C734 1.258 . S
C727 N728 1.326 . S
C727 C731 1.460 . S
C727 H733 0.929 . S
N728 Mn721 2.257 . S
N728 C727 1.326 . S
N728 C732 1.362 . S
C729 C730 1.258 . S
C729 C732 1.431 . S
C729 C749 1.449 . S
C730 C729 1.258 . S
C730 C731 1.477 . S
C730 H750 0.931 . S
C731 C727 1.460 . S
C731 C730 1.477 . S
C731 H751 0.930 . S
C732 N728 1.362 . S
C732 C729 1.431 . S
C732 C742 1.476 . S
H733 C727 0.929 . S
C734 O725 1.250 . S
C734 O726 1.258 . S
O735 Mn720 2.162 . S
O735 C723 1.281 . S
O736 Mn720 2.297 . S
O736 C723 1.236 . S
N737 Mn721 2.282 . S
N737 C738 1.328 . S
N737 C742 1.318 . S
C738 N737 1.328 . S
C738 C739 1.457 . S
C738 H743 0.929 . S
C739 C738 1.457 . S
C739 C740 1.291 . S
C739 H752 0.931 . S
C740 C739 1.291 . S
C740 C741 1.373 . S
C740 H753 0.929 . S
C741 C740 1.373 . S
C741 C742 1.396 . S
C741 C748 1.403 . S
C742 C732 1.476 . S
C742 N737 1.318 . S
C742 C741 1.396 . S
H743 C738 0.929 . S
O744 Mn720 2.385 . S
O744 C722 1.234 . S
O745 Mn720 2.209 . S
O745 Mn721 2.215 . S
O745 C722 1.283 . S
O746 Mn720 2.094 . S
O746 C724 1.240 . S
O747 Mn721 2.117 . S
O747 C724 1.264 . S
C748 C741 1.403 . S
C748 C749 1.399 . S
C748 H754 0.929 . S
C749 C729 1.449 . S
C749 C748 1.399 . S
C749 H755 0.930 . S
H750 C730 0.931 . S
H751 C731 0.930 . S
H752 C739 0.931 . S
H753 C740 0.929 . S
H754 C748 0.929 . S
H755 C749 0.930 . S
Mn756 O761 2.095 . S
Mn756 O771 2.162 . S
Mn756 O772 2.297 . S
Mn756 O780 2.385 . S
Mn756 O781 2.209 . S
Mn756 O782 2.094 . S
Mn757 O762 2.121 . S
Mn757 N764 2.257 . S
Mn757 N773 2.282 . S
Mn757 O781 2.215 . S
Mn757 O783 2.117 . S
C758 O780 1.234 . S
C758 O781 1.283 . S
C759 O771 1.281 . S
C759 O772 1.236 . S
C760 O782 1.240 . S
C760 O783 1.264 . S
O761 Mn756 2.095 . S
O761 C770 1.250 . S
O762 Mn757 2.121 . S
O762 C770 1.258 . S
C763 N764 1.326 . S
C763 C767 1.460 . S
C763 H769 0.929 . S
N764 Mn757 2.257 . S
N764 C763 1.326 . S
N764 C768 1.362 . S
C765 C766 1.258 . S
C765 C768 1.431 . S
C765 C785 1.449 . S
C766 C765 1.258 . S
C766 C767 1.477 . S
C766 H786 0.931 . S
C767 C763 1.460 . S
C767 C766 1.477 . S
C767 H787 0.930 . S
C768 N764 1.362 . S
C768 C765 1.431 . S
C768 C778 1.476 . S
H769 C763 0.929 . S
C770 O761 1.250 . S
C770 O762 1.258 . S
O771 Mn756 2.162 . S
O771 C759 1.281 . S
O772 Mn756 2.297 . S
O772 C759 1.236 . S
N773 Mn757 2.282 . S
N773 C774 1.328 . S
N773 C778 1.318 . S
C774 N773 1.328 . S
C774 C775 1.457 1_565 S
C774 H779 0.929 . S
C775 C774 1.457 1_545 S
C775 C776 1.291 . S
C775 H788 0.931 . S
C776 C775 1.291 . S
C776 C777 1.373 1_545 S
C776 H789 0.929 . S
C777 C776 1.373 1_565 S
C777 C778 1.396 . S
C777 C784 1.403 1_565 S
C778 C768 1.476 . S
C778 N773 1.318 . S
C778 C777 1.396 . S
H779 C774 0.929 . S
O780 Mn756 2.385 . S
O780 C758 1.234 . S
O781 Mn756 2.209 . S
O781 Mn757 2.215 . S
O781 C758 1.283 . S
O782 Mn756 2.094 . S
O782 C760 1.240 . S
O783 Mn757 2.117 . S
O783 C760 1.264 . S
C784 C777 1.403 1_545 S
C784 C785 1.399 1_545 S
C784 H790 0.929 . S
C785 C765 1.449 . S
C785 C784 1.399 1_565 S
C785 H791 0.930 . S
H786 C766 0.931 . S
H787 C767 0.930 . S
H788 C775 0.931 . S
H789 C776 0.929 . S
H790 C784 0.929 . S
H791 C785 0.930 . S
Mn792 O797 2.095 . S
Mn792 O807 2.162 . S
Mn792 O808 2.297 . S
Mn792 O816 2.385 . S
Mn792 O817 2.209 . S
Mn792 O818 2.094 . S
Mn793 O798 2.121 . S
Mn793 N800 2.257 . S
Mn793 N809 2.282 . S
Mn793 O817 2.215 . S
Mn793 O819 2.117 . S
C794 O816 1.234 . S
C794 O817 1.283 . S
C795 O807 1.281 . S
C795 O808 1.236 . S
C796 O818 1.240 . S
C796 O819 1.264 . S
O797 Mn792 2.095 . S
O797 C806 1.250 . S
O798 Mn793 2.121 . S
O798 C806 1.258 . S
C799 N800 1.326 . S
C799 C803 1.460 . S
C799 H805 0.929 . S
N800 Mn793 2.257 . S
N800 C799 1.326 . S
N800 C804 1.362 . S
C801 C802 1.258 . S
C801 C804 1.431 . S
C801 C821 1.449 . S
C802 C801 1.258 . S
C802 C803 1.477 . S
C802 H822 0.931 . S
C803 C799 1.460 . S
C803 C802 1.477 . S
C803 H823 0.930 . S
C804 N800 1.362 . S
C804 C801 1.431 . S
C804 C814 1.476 . S
H805 C799 0.929 . S
C806 O797 1.250 . S
C806 O798 1.258 . S
O807 Mn792 2.162 . S
O807 C795 1.281 . S
O808 Mn792 2.297 . S
O808 C795 1.236 . S
N809 Mn793 2.282 . S
N809 C810 1.328 . S
N809 C814 1.318 . S
C810 N809 1.328 . S
C810 C811 1.457 1_565 S
C810 H815 0.929 . S
C811 C810 1.457 1_545 S
C811 C812 1.291 . S
C811 H824 0.931 . S
C812 C811 1.291 . S
C812 C813 1.373 1_545 S
C812 H825 0.929 . S
C813 C812 1.373 1_565 S
C813 C814 1.396 . S
C813 C820 1.403 1_565 S
C814 C804 1.476 . S
C814 N809 1.318 . S
C814 C813 1.396 . S
H815 C810 0.929 . S
O816 Mn792 2.385 . S
O816 C794 1.234 . S
O817 Mn792 2.209 . S
O817 Mn793 2.215 . S
O817 C794 1.283 . S
O818 Mn792 2.094 . S
O818 C796 1.240 . S
O819 Mn793 2.117 . S
O819 C796 1.264 . S
C820 C813 1.403 1_545 S
C820 C821 1.399 1_545 S
C820 H826 0.929 . S
C821 C801 1.449 . S
C821 C820 1.399 1_565 S
C821 H827 0.930 . S
H822 C802 0.931 . S
H823 C803 0.930 . S
H824 C811 0.931 . S
H825 C812 0.929 . S
H826 C820 0.929 . S
H827 C821 0.930 . S
Mn828 O833 2.095 . S
Mn828 O843 2.162 . S
Mn828 O844 2.297 . S
Mn828 O852 2.385 . S
Mn828 O853 2.209 . S
Mn828 O854 2.094 . S
Mn829 O834 2.121 . S
Mn829 N836 2.257 . S
Mn829 N845 2.282 . S
Mn829 O853 2.215 . S
Mn829 O855 2.117 . S
C830 O852 1.234 . S
C830 O853 1.283 . S
C831 O843 1.281 . S
C831 O844 1.236 . S
C832 O854 1.240 . S
C832 O855 1.264 . S
O833 Mn828 2.095 . S
O833 C842 1.250 . S
O834 Mn829 2.121 . S
O834 C842 1.258 . S
C835 N836 1.326 . S
C835 C839 1.460 . S
C835 H841 0.929 . S
N836 Mn829 2.257 . S
N836 C835 1.326 . S
N836 C840 1.362 . S
C837 C838 1.258 . S
C837 C840 1.431 . S
C837 C857 1.449 . S
C838 C837 1.258 . S
C838 C839 1.477 . S
C838 H858 0.931 . S
C839 C835 1.460 . S
C839 C838 1.477 . S
C839 H859 0.930 . S
C840 N836 1.362 . S
C840 C837 1.431 . S
C840 C850 1.476 . S
H841 C835 0.929 . S
C842 O833 1.250 . S
C842 O834 1.258 . S
O843 Mn828 2.162 . S
O843 C831 1.281 . S
O844 Mn828 2.297 . S
O844 C831 1.236 . S
N845 Mn829 2.282 . S
N845 C846 1.328 . S
N845 C850 1.318 . S
C846 N845 1.328 . S
C846 C847 1.457 . S
C846 H851 0.929 . S
C847 C846 1.457 . S
C847 C848 1.291 . S
C847 H860 0.931 . S
C848 C847 1.291 . S
C848 C849 1.373 . S
C848 H861 0.929 . S
C849 C848 1.373 . S
C849 C850 1.396 . S
C849 C856 1.403 . S
C850 C840 1.476 . S
C850 N845 1.318 . S
C850 C849 1.396 . S
H851 C846 0.929 . S
O852 Mn828 2.385 . S
O852 C830 1.234 . S
O853 Mn828 2.209 . S
O853 Mn829 2.215 . S
O853 C830 1.283 . S
O854 Mn828 2.094 . S
O854 C832 1.240 . S
O855 Mn829 2.117 . S
O855 C832 1.264 . S
C856 C849 1.403 . S
C856 C857 1.399 . S
C856 H862 0.929 . S
C857 C837 1.449 . S
C857 C856 1.399 . S
C857 H863 0.930 . S
H858 C838 0.931 . S
H859 C839 0.930 . S
H860 C847 0.931 . S
H861 C848 0.929 . S
H862 C856 0.929 . S
H863 C857 0.930 . S
Mn864 O869 2.095 . S
Mn864 O879 2.162 . S
Mn864 O880 2.297 . S
Mn864 O888 2.385 . S
Mn864 O889 2.209 . S
Mn864 O890 2.094 . S
Mn865 O870 2.121 . S
Mn865 N872 2.257 . S
Mn865 N881 2.282 . S
Mn865 O889 2.215 . S
Mn865 O891 2.117 . S
C866 O888 1.234 . S
C866 O889 1.283 . S
C867 O879 1.281 . S
C867 O880 1.236 . S
C868 O890 1.240 . S
C868 O891 1.264 . S
O869 Mn864 2.095 . S
O869 C878 1.250 . S
O870 Mn865 2.121 . S
O870 C878 1.258 . S
C871 N872 1.326 . S
C871 C875 1.460 . S
C871 H877 0.929 . S
N872 Mn865 2.257 . S
N872 C871 1.326 . S
N872 C876 1.362 . S
C873 C874 1.258 . S
C873 C876 1.431 . S
C873 C893 1.449 . S
C874 C873 1.258 . S
C874 C875 1.477 . S
C874 H894 0.931 . S
C875 C871 1.460 . S
C875 C874 1.477 . S
C875 H895 0.930 . S
C876 N872 1.362 . S
C876 C873 1.431 . S
C876 C886 1.476 . S
H877 C871 0.929 . S
C878 O869 1.250 . S
C878 O870 1.258 . S
O879 Mn864 2.162 . S
O879 C867 1.281 . S
O880 Mn864 2.297 . S
O880 C867 1.236 . S
N881 Mn865 2.282 . S
N881 C882 1.328 . S
N881 C886 1.318 . S
C882 N881 1.328 . S
C882 C883 1.457 . S
C882 H887 0.929 . S
C883 C882 1.457 . S
C883 C884 1.291 . S
C883 H896 0.931 . S
C884 C883 1.291 . S
C884 C885 1.373 . S
C884 H897 0.929 . S
C885 C884 1.373 . S
C885 C886 1.396 . S
C885 C892 1.403 . S
C886 C876 1.476 . S
C886 N881 1.318 . S
C886 C885 1.396 . S
H887 C882 0.929 . S
O888 Mn864 2.385 . S
O888 C866 1.234 . S
O889 Mn864 2.209 . S
O889 Mn865 2.215 . S
O889 C866 1.283 . S
O890 Mn864 2.094 . S
O890 C868 1.240 . S
O891 Mn865 2.117 . S
O891 C868 1.264 . S
C892 C885 1.403 . S
C892 C893 1.399 . S
C892 H898 0.929 . S
C893 C873 1.449 . S
C893 C892 1.399 . S
C893 H899 0.930 . S
H894 C874 0.931 . S
H895 C875 0.930 . S
H896 C883 0.931 . S
H897 C884 0.929 . S
H898 C892 0.929 . S
H899 C893 0.930 . S
Mn900 O905 2.095 . S
Mn900 O915 2.162 . S
Mn900 O916 2.297 . S
Mn900 O924 2.385 . S
Mn900 O925 2.209 . S
Mn900 O926 2.094 . S
Mn901 O906 2.121 . S
Mn901 N908 2.257 . S
Mn901 N917 2.282 . S
Mn901 O925 2.215 . S
Mn901 O927 2.117 . S
C902 O924 1.234 . S
C902 O925 1.283 . S
C903 O915 1.281 . S
C903 O916 1.236 . S
C904 O926 1.240 . S
C904 O927 1.264 . S
O905 Mn900 2.095 . S
O905 C914 1.250 . S
O906 Mn901 2.121 . S
O906 C914 1.258 . S
C907 N908 1.326 . S
C907 C911 1.460 . S
C907 H913 0.929 . S
N908 Mn901 2.257 . S
N908 C907 1.326 . S
N908 C912 1.362 . S
C909 C910 1.258 . S
C909 C912 1.431 . S
C909 C929 1.449 . S
C910 C909 1.258 . S
C910 C911 1.477 . S
C910 H930 0.931 . S
C911 C907 1.460 . S
C911 C910 1.477 . S
C911 H931 0.930 . S
C912 N908 1.362 . S
C912 C909 1.431 . S
C912 C922 1.476 . S
H913 C907 0.929 . S
C914 O905 1.250 . S
C914 O906 1.258 . S
O915 Mn900 2.162 . S
O915 C903 1.281 . S
O916 Mn900 2.297 . S
O916 C903 1.236 . S
N917 Mn901 2.282 . S
N917 C918 1.328 . S
N917 C922 1.318 . S
C918 N917 1.328 . S
C918 C919 1.457 . S
C918 H923 0.929 . S
C919 C918 1.457 . S
C919 C920 1.291 . S
C919 H932 0.931 . S
C920 C919 1.291 . S
C920 C921 1.373 . S
C920 H933 0.929 . S
C921 C920 1.373 . S
C921 C922 1.396 . S
C921 C928 1.403 . S
C922 C912 1.476 . S
C922 N917 1.318 . S
C922 C921 1.396 . S
H923 C918 0.929 . S
O924 Mn900 2.385 . S
O924 C902 1.234 . S
O925 Mn900 2.209 . S
O925 Mn901 2.215 . S
O925 C902 1.283 . S
O926 Mn900 2.094 . S
O926 C904 1.240 . S
O927 Mn901 2.117 . S
O927 C904 1.264 . S
C928 C921 1.403 . S
C928 C929 1.399 . S
C928 H934 0.929 . S
C929 C909 1.449 . S
C929 C928 1.399 . S
C929 H935 0.930 . S
H930 C910 0.931 . S
H931 C911 0.930 . S
H932 C919 0.931 . S
H933 C920 0.929 . S
H934 C928 0.929 . S
H935 C929 0.930 . S
Mn936 O941 2.095 . S
Mn936 O951 2.162 . S
Mn936 O952 2.297 . S
Mn936 O960 2.385 . S
Mn936 O961 2.209 . S
Mn936 O962 2.094 . S
Mn937 O942 2.121 . S
Mn937 N944 2.257 . S
Mn937 N953 2.282 . S
Mn937 O961 2.215 . S
Mn937 O963 2.117 . S
C938 O960 1.234 . S
C938 O961 1.283 . S
C939 O951 1.281 . S
C939 O952 1.236 . S
C940 O962 1.240 . S
C940 O963 1.264 . S
O941 Mn936 2.095 . S
O941 C950 1.250 . S
O942 Mn937 2.121 . S
O942 C950 1.258 . S
C943 N944 1.326 . S
C943 C947 1.460 . S
C943 H949 0.929 . S
N944 Mn937 2.257 . S
N944 C943 1.326 . S
N944 C948 1.362 . S
C945 C946 1.258 . S
C945 C948 1.431 . S
C945 C965 1.449 . S
C946 C945 1.258 . S
C946 C947 1.477 . S
C946 H966 0.931 . S
C947 C943 1.460 . S
C947 C946 1.477 . S
C947 H967 0.930 . S
C948 N944 1.362 . S
C948 C945 1.431 . S
C948 C958 1.476 . S
H949 C943 0.929 . S
C950 O941 1.250 . S
C950 O942 1.258 . S
O951 Mn936 2.162 . S
O951 C939 1.281 . S
O952 Mn936 2.297 . S
O952 C939 1.236 . S
N953 Mn937 2.282 . S
N953 C954 1.328 . S
N953 C958 1.318 . S
C954 N953 1.328 . S
C954 C955 1.457 . S
C954 H959 0.929 . S
C955 C954 1.457 . S
C955 C956 1.291 . S
C955 H968 0.931 . S
C956 C955 1.291 . S
C956 C957 1.373 . S
C956 H969 0.929 . S
C957 C956 1.373 . S
C957 C958 1.396 . S
C957 C964 1.403 . S
C958 C948 1.476 . S
C958 N953 1.318 . S
C958 C957 1.396 . S
H959 C954 0.929 . S
O960 Mn936 2.385 . S
O960 C938 1.234 . S
O961 Mn936 2.209 . S
O961 Mn937 2.215 . S
O961 C938 1.283 . S
O962 Mn936 2.094 . S
O962 C940 1.240 . S
O963 Mn937 2.117 . S
O963 C940 1.264 . S
C964 C957 1.403 . S
C964 C965 1.399 . S
C964 H970 0.929 . S
C965 C945 1.449 . S
C965 C964 1.399 . S
C965 H971 0.930 . S
H966 C946 0.931 . S
H967 C947 0.930 . S
H968 C955 0.931 . S
H969 C956 0.929 . S
H970 C964 0.929 . S
H971 C965 0.930 . S
Mn972 O977 2.095 . S
Mn972 O987 2.162 . S
Mn972 O988 2.297 . S
Mn972 O996 2.385 . S
Mn972 O997 2.209 . S
Mn972 O998 2.094 . S
Mn973 O978 2.121 . S
Mn973 N980 2.257 . S
Mn973 N989 2.282 . S
Mn973 O997 2.215 . S
Mn973 O999 2.117 . S
C974 O996 1.234 . S
C974 O997 1.283 . S
C975 O987 1.281 . S
C975 O988 1.236 . S
C976 O998 1.240 . S
C976 O999 1.264 . S
O977 Mn972 2.095 . S
O977 C986 1.250 . S
O978 Mn973 2.121 . S
O978 C986 1.258 . S
C979 N980 1.326 . S
C979 C983 1.460 . S
C979 H985 0.929 . S
N980 Mn973 2.257 . S
N980 C979 1.326 . S
N980 C984 1.362 . S
C981 C982 1.258 . S
C981 C984 1.431 . S
C981 C1001 1.449 . S
C982 C981 1.258 . S
C982 C983 1.477 . S
C982 H1002 0.931 . S
C983 C979 1.460 . S
C983 C982 1.477 . S
C983 H1003 0.930 . S
C984 N980 1.362 . S
C984 C981 1.431 . S
C984 C994 1.476 . S
H985 C979 0.929 . S
C986 O977 1.250 . S
C986 O978 1.258 . S
O987 Mn972 2.162 . S
O987 C975 1.281 . S
O988 Mn972 2.297 . S
O988 C975 1.236 . S
N989 Mn973 2.282 . S
N989 C990 1.328 . S
N989 C994 1.318 . S
C990 N989 1.328 . S
C990 C991 1.457 . S
C990 H995 0.929 . S
C991 C990 1.457 . S
C991 C992 1.291 . S
C991 H1004 0.931 . S
C992 C991 1.291 . S
C992 C993 1.373 . S
C992 H1005 0.929 . S
C993 C992 1.373 . S
C993 C994 1.396 . S
C993 C1000 1.403 . S
C994 C984 1.476 . S
C994 N989 1.318 . S
C994 C993 1.396 . S
H995 C990 0.929 . S
O996 Mn972 2.385 . S
O996 C974 1.234 . S
O997 Mn972 2.209 . S
O997 Mn973 2.215 . S
O997 C974 1.283 . S
O998 Mn972 2.094 . S
O998 C976 1.240 . S
O999 Mn973 2.117 . S
O999 C976 1.264 . S
C1000 C993 1.403 . S
C1000 C1001 1.399 . S
C1000 H1006 0.929 . S
C1001 C981 1.449 . S
C1001 C1000 1.399 . S
C1001 H1007 0.930 . S
H1002 C982 0.931 . S
H1003 C983 0.930 . S
H1004 C991 0.931 . S
H1005 C992 0.929 . S
H1006 C1000 0.929 . S
H1007 C1001 0.930 . S
Mn1008 O1013 2.095 . S
Mn1008 O1023 2.162 . S
Mn1008 O1024 2.297 . S
Mn1008 O1032 2.385 . S
Mn1008 O1033 2.209 . S
Mn1008 O1034 2.094 . S
Mn1009 O1014 2.121 . S
Mn1009 N1016 2.257 . S
Mn1009 N1025 2.282 . S
Mn1009 O1033 2.215 . S
Mn1009 O1035 2.117 . S
C1010 O1032 1.234 . S
C1010 O1033 1.283 . S
C1011 O1023 1.281 . S
C1011 O1024 1.236 . S
C1012 O1034 1.240 . S
C1012 O1035 1.264 . S
O1013 Mn1008 2.095 . S
O1013 C1022 1.250 . S
O1014 Mn1009 2.121 . S
O1014 C1022 1.258 . S
C1015 N1016 1.326 . S
C1015 C1019 1.460 . S
C1015 H1021 0.929 . S
N1016 Mn1009 2.257 . S
N1016 C1015 1.326 . S
N1016 C1020 1.362 . S
C1017 C1018 1.258 . S
C1017 C1020 1.431 . S
C1017 C1037 1.449 . S
C1018 C1017 1.258 . S
C1018 C1019 1.477 . S
C1018 H1038 0.931 . S
C1019 C1015 1.460 . S
C1019 C1018 1.477 . S
C1019 H1039 0.930 . S
C1020 N1016 1.362 . S
C1020 C1017 1.431 . S
C1020 C1030 1.476 . S
H1021 C1015 0.929 . S
C1022 O1013 1.250 . S
C1022 O1014 1.258 . S
O1023 Mn1008 2.162 . S
O1023 C1011 1.281 . S
O1024 Mn1008 2.297 . S
O1024 C1011 1.236 . S
N1025 Mn1009 2.282 . S
N1025 C1026 1.328 . S
N1025 C1030 1.318 . S
C1026 N1025 1.328 . S
C1026 C1027 1.457 . S
C1026 H1031 0.929 . S
C1027 C1026 1.457 . S
C1027 C1028 1.291 . S
C1027 H1040 0.931 . S
C1028 C1027 1.291 . S
C1028 C1029 1.373 . S
C1028 H1041 0.929 . S
C1029 C1028 1.373 . S
C1029 C1030 1.396 . S
C1029 C1036 1.403 . S
C1030 C1020 1.476 . S
C1030 N1025 1.318 . S
C1030 C1029 1.396 . S
H1031 C1026 0.929 . S
O1032 Mn1008 2.385 . S
O1032 C1010 1.234 . S
O1033 Mn1008 2.209 . S
O1033 Mn1009 2.215 . S
O1033 C1010 1.283 . S
O1034 Mn1008 2.094 . S
O1034 C1012 1.240 . S
O1035 Mn1009 2.117 . S
O1035 C1012 1.264 . S
C1036 C1029 1.403 . S
C1036 C1037 1.399 . S
C1036 H1042 0.929 . S
C1037 C1017 1.449 . S
C1037 C1036 1.399 . S
C1037 H1043 0.930 . S
H1038 C1018 0.931 . S
H1039 C1019 0.930 . S
H1040 C1027 0.931 . S
H1041 C1028 0.929 . S
H1042 C1036 0.929 . S
H1043 C1037 0.930 . S
Mn1044 O1049 2.095 . S
Mn1044 O1059 2.162 . S
Mn1044 O1060 2.297 . S
Mn1044 O1068 2.385 . S
Mn1044 O1069 2.209 . S
Mn1044 O1070 2.094 . S
Mn1045 O1050 2.121 . S
Mn1045 N1052 2.257 . S
Mn1045 N1061 2.282 . S
Mn1045 O1069 2.215 . S
Mn1045 O1071 2.117 . S
C1046 O1068 1.234 . S
C1046 O1069 1.283 . S
C1047 O1059 1.281 . S
C1047 O1060 1.236 . S
C1048 O1070 1.240 . S
C1048 O1071 1.264 . S
O1049 Mn1044 2.095 . S
O1049 C1058 1.250 . S
O1050 Mn1045 2.121 . S
O1050 C1058 1.258 . S
C1051 N1052 1.326 . S
C1051 C1055 1.460 . S
C1051 H1057 0.929 . S
N1052 Mn1045 2.257 . S
N1052 C1051 1.326 . S
N1052 C1056 1.362 . S
C1053 C1054 1.258 . S
C1053 C1056 1.431 . S
C1053 C1073 1.449 . S
C1054 C1053 1.258 . S
C1054 C1055 1.477 . S
C1054 H1074 0.931 . S
C1055 C1051 1.460 . S
C1055 C1054 1.477 . S
C1055 H1075 0.930 . S
C1056 N1052 1.362 . S
C1056 C1053 1.431 . S
C1056 C1066 1.476 . S
H1057 C1051 0.929 . S
C1058 O1049 1.250 . S
C1058 O1050 1.258 . S
O1059 Mn1044 2.162 . S
O1059 C1047 1.281 . S
O1060 Mn1044 2.297 . S
O1060 C1047 1.236 . S
N1061 Mn1045 2.282 . S
N1061 C1062 1.328 . S
N1061 C1066 1.318 . S
C1062 N1061 1.328 . S
C1062 C1063 1.457 . S
C1062 H1067 0.929 . S
C1063 C1062 1.457 . S
C1063 C1064 1.291 . S
C1063 H1076 0.931 . S
C1064 C1063 1.291 . S
C1064 C1065 1.373 . S
C1064 H1077 0.929 . S
C1065 C1064 1.373 . S
C1065 C1066 1.396 . S
C1065 C1072 1.403 . S
C1066 C1056 1.476 . S
C1066 N1061 1.318 . S
C1066 C1065 1.396 . S
H1067 C1062 0.929 . S
O1068 Mn1044 2.385 . S
O1068 C1046 1.234 . S
O1069 Mn1044 2.209 . S
O1069 Mn1045 2.215 . S
O1069 C1046 1.283 . S
O1070 Mn1044 2.094 . S
O1070 C1048 1.240 . S
O1071 Mn1045 2.117 . S
O1071 C1048 1.264 . S
C1072 C1065 1.403 . S
C1072 C1073 1.399 . S
C1072 H1078 0.929 . S
C1073 C1053 1.449 . S
C1073 C1072 1.399 . S
C1073 H1079 0.930 . S
H1074 C1054 0.931 . S
H1075 C1055 0.930 . S
H1076 C1063 0.931 . S
H1077 C1064 0.929 . S
H1078 C1072 0.929 . S
H1079 C1073 0.930 . S
Mn1080 O1085 2.095 . S
Mn1080 O1095 2.162 . S
Mn1080 O1096 2.297 . S
Mn1080 O1104 2.385 . S
Mn1080 O1105 2.209 . S
Mn1080 O1106 2.094 . S
Mn1081 O1086 2.121 . S
Mn1081 N1088 2.257 . S
Mn1081 N1097 2.282 . S
Mn1081 O1105 2.215 . S
Mn1081 O1107 2.117 . S
C1082 O1104 1.234 . S
C1082 O1105 1.283 . S
C1083 O1095 1.281 . S
C1083 O1096 1.236 . S
C1084 O1106 1.240 . S
C1084 O1107 1.264 . S
O1085 Mn1080 2.095 . S
O1085 C1094 1.250 . S
O1086 Mn1081 2.121 . S
O1086 C1094 1.258 . S
C1087 N1088 1.326 . S
C1087 C1091 1.460 . S
C1087 H1093 0.929 . S
N1088 Mn1081 2.257 . S
N1088 C1087 1.326 . S
N1088 C1092 1.362 . S
C1089 C1090 1.258 . S
C1089 C1092 1.431 . S
C1089 C1109 1.449 . S
C1090 C1089 1.258 . S
C1090 C1091 1.477 . S
C1090 H1110 0.931 . S
C1091 C1087 1.460 . S
C1091 C1090 1.477 . S
C1091 H1111 0.930 . S
C1092 N1088 1.362 . S
C1092 C1089 1.431 . S
C1092 C1102 1.476 . S
H1093 C1087 0.929 . S
C1094 O1085 1.250 . S
C1094 O1086 1.258 . S
O1095 Mn1080 2.162 . S
O1095 C1083 1.281 . S
O1096 Mn1080 2.297 . S
O1096 C1083 1.236 . S
N1097 Mn1081 2.282 . S
N1097 C1098 1.328 . S
N1097 C1102 1.318 . S
C1098 N1097 1.328 . S
C1098 C1099 1.457 . S
C1098 H1103 0.929 . S
C1099 C1098 1.457 . S
C1099 C1100 1.291 . S
C1099 H1112 0.931 . S
C1100 C1099 1.291 . S
C1100 C1101 1.373 . S
C1100 H1113 0.929 . S
C1101 C1100 1.373 . S
C1101 C1102 1.396 . S
C1101 C1108 1.403 . S
C1102 C1092 1.476 . S
C1102 N1097 1.318 . S
C1102 C1101 1.396 . S
H1103 C1098 0.929 . S
O1104 Mn1080 2.385 . S
O1104 C1082 1.234 . S
O1105 Mn1080 2.209 . S
O1105 Mn1081 2.215 . S
O1105 C1082 1.283 . S
O1106 Mn1080 2.094 . S
O1106 C1084 1.240 . S
O1107 Mn1081 2.117 . S
O1107 C1084 1.264 . S
C1108 C1101 1.403 . S
C1108 C1109 1.399 . S
C1108 H1114 0.929 . S
C1109 C1089 1.449 . S
C1109 C1108 1.399 . S
C1109 H1115 0.930 . S
H1110 C1090 0.931 . S
H1111 C1091 0.930 . S
H1112 C1099 0.931 . S
H1113 C1100 0.929 . S
H1114 C1108 0.929 . S
H1115 C1109 0.930 . S
Mn1116 O1121 2.095 . S
Mn1116 O1131 2.162 . S
Mn1116 O1132 2.297 . S
Mn1116 O1140 2.385 . S
Mn1116 O1141 2.209 . S
Mn1116 O1142 2.094 . S
Mn1117 O1122 2.121 . S
Mn1117 N1124 2.257 . S
Mn1117 N1133 2.282 . S
Mn1117 O1141 2.215 . S
Mn1117 O1143 2.117 . S
C1118 O1140 1.234 . S
C1118 O1141 1.283 . S
C1119 O1131 1.281 . S
C1119 O1132 1.236 . S
C1120 O1142 1.240 . S
C1120 O1143 1.264 . S
O1121 Mn1116 2.095 . S
O1121 C1130 1.250 . S
O1122 Mn1117 2.121 . S
O1122 C1130 1.258 . S
C1123 N1124 1.326 . S
C1123 C1127 1.460 . S
C1123 H1129 0.929 . S
N1124 Mn1117 2.257 . S
N1124 C1123 1.326 . S
N1124 C1128 1.362 . S
C1125 C1126 1.258 . S
C1125 C1128 1.431 . S
C1125 C1145 1.449 . S
C1126 C1125 1.258 . S
C1126 C1127 1.477 . S
C1126 H1146 0.931 . S
C1127 C1123 1.460 . S
C1127 C1126 1.477 . S
C1127 H1147 0.930 . S
C1128 N1124 1.362 . S
C1128 C1125 1.431 . S
C1128 C1138 1.476 . S
H1129 C1123 0.929 . S
C1130 O1121 1.250 . S
C1130 O1122 1.258 . S
O1131 Mn1116 2.162 . S
O1131 C1119 1.281 . S
O1132 Mn1116 2.297 . S
O1132 C1119 1.236 . S
N1133 Mn1117 2.282 . S
N1133 C1134 1.328 . S
N1133 C1138 1.318 . S
C1134 N1133 1.328 . S
C1134 C1135 1.457 . S
C1134 H1139 0.929 . S
C1135 C1134 1.457 . S
C1135 C1136 1.291 . S
C1135 H1148 0.931 . S
C1136 C1135 1.291 . S
C1136 C1137 1.373 . S
C1136 H1149 0.929 . S
C1137 C1136 1.373 . S
C1137 C1138 1.396 . S
C1137 C1144 1.403 . S
C1138 C1128 1.476 . S
C1138 N1133 1.318 . S
C1138 C1137 1.396 . S
H1139 C1134 0.929 . S
O1140 Mn1116 2.385 . S
O1140 C1118 1.234 . S
O1141 Mn1116 2.209 . S
O1141 Mn1117 2.215 . S
O1141 C1118 1.283 . S
O1142 Mn1116 2.094 . S
O1142 C1120 1.240 . S
O1143 Mn1117 2.117 . S
O1143 C1120 1.264 . S
C1144 C1137 1.403 . S
C1144 C1145 1.399 . S
C1144 H1150 0.929 . S
C1145 C1125 1.449 . S
C1145 C1144 1.399 . S
C1145 H1151 0.930 . S
H1146 C1126 0.931 . S
H1147 C1127 0.930 . S
H1148 C1135 0.931 . S
H1149 C1136 0.929 . S
H1150 C1144 0.929 . S
H1151 C1145 0.930 . S
C1152 C1153 1.349 . S
C1152 C1154 1.327 . S
C1152 H1177 0.950 . S
C1153 C1152 1.349 . S
C1153 C1169 1.349 . S
C1154 C1152 1.327 . S
C1154 C1173 1.429 . S
C1154 H1178 0.950 . S
C1155 C1172 1.574 . S
C1155 C1174 1.368 . S
C1155 H1179 0.949 . S
H1156 C1160 0.949 . S
C1157 C1158 1.349 . S
C1157 C1159 1.327 . S
C1157 H1180 0.950 . S
C1158 C1157 1.349 . S
C1158 C1170 1.349 . S
C1159 C1157 1.327 . S
C1159 C1175 1.429 . S
C1159 H1181 0.950 . S
C1160 H1156 0.949 . S
C1160 C1168 1.574 . S
C1160 C1176 1.368 . S
H1161 C1169 0.950 . S
H1162 C1167 0.950 . S
H1163 C1168 0.949 . S
H1164 C1170 0.950 . S
H1165 C1171 0.950 . S
H1166 C1172 0.949 . S
C1167 H1162 0.950 . S
C1167 C1169 1.327 . S
C1167 C1173 1.429 . S
C1168 C1160 1.574 . S
C1168 H1163 0.949 . S
C1168 C1174 1.368 . S
C1169 C1153 1.349 . S
C1169 H1161 0.950 . S
C1169 C1167 1.327 . S
C1170 C1158 1.349 . S
C1170 H1164 0.950 . S
C1170 C1171 1.327 . S
C1171 H1165 0.950 . S
C1171 C1170 1.327 . S
C1171 C1175 1.429 . S
C1172 C1155 1.574 . S
C1172 H1166 0.949 . S
C1172 C1176 1.368 . S
C1173 C1154 1.429 . S
C1173 C1167 1.429 . S
C1173 C1174 1.523 . S
C1174 C1155 1.368 . S
C1174 C1168 1.368 . S
C1174 C1173 1.523 . S
C1175 C1159 1.429 . S
C1175 C1171 1.429 . S
C1175 C1176 1.523 . S
C1176 C1160 1.368 . S
C1176 C1172 1.368 . S
C1176 C1175 1.523 . S
H1177 C1152 0.950 . S
H1178 C1154 0.950 . S
H1179 C1155 0.949 . S
H1180 C1157 0.950 . S
H1181 C1159 0.950 . S
C1182 C1183 1.349 . S
C1182 C1184 1.327 . S
C1182 H1207 0.950 . S
C1183 C1182 1.349 . S
C1183 C1199 1.349 . S
C1184 C1182 1.327 . S
C1184 C1203 1.429 . S
C1184 H1208 0.950 . S
C1185 C1202 1.574 . S
C1185 C1204 1.368 . S
C1185 H1209 0.949 . S
H1186 C1190 0.949 . S
C1187 C1188 1.349 . S
C1187 C1189 1.327 . S
C1187 H1210 0.950 . S
C1188 C1187 1.349 . S
C1188 C1200 1.349 . S
C1189 C1187 1.327 . S
C1189 C1205 1.429 . S
C1189 H1211 0.950 . S
C1190 H1186 0.949 . S
C1190 C1198 1.574 . S
C1190 C1206 1.368 . S
H1191 C1199 0.950 . S
H1192 C1197 0.950 . S
H1193 C1198 0.949 . S
H1194 C1200 0.950 . S
H1195 C1201 0.950 . S
H1196 C1202 0.949 . S
C1197 H1192 0.950 . S
C1197 C1199 1.327 . S
C1197 C1203 1.429 . S
C1198 C1190 1.574 . S
C1198 H1193 0.949 . S
C1198 C1204 1.368 . S
C1199 C1183 1.349 . S
C1199 H1191 0.950 . S
C1199 C1197 1.327 . S
C1200 C1188 1.349 . S
C1200 H1194 0.950 . S
C1200 C1201 1.327 . S
C1201 H1195 0.950 . S
C1201 C1200 1.327 . S
C1201 C1205 1.429 . S
C1202 C1185 1.574 . S
C1202 H1196 0.949 . S
C1202 C1206 1.368 . S
C1203 C1184 1.429 . S
C1203 C1197 1.429 . S
C1203 C1204 1.523 . S
C1204 C1185 1.368 . S
C1204 C1198 1.368 . S
C1204 C1203 1.523 . S
C1205 C1189 1.429 . S
C1205 C1201 1.429 . S
C1205 C1206 1.523 . S
C1206 C1190 1.368 . S
C1206 C1202 1.368 . S
C1206 C1205 1.523 . S
H1207 C1182 0.950 . S
H1208 C1184 0.950 . S
H1209 C1185 0.949 . S
H1210 C1187 0.950 . S
H1211 C1189 0.950 . S
C1212 C1213 1.349 . S
C1212 C1214 1.327 . S
C1212 H1237 0.950 . S
C1213 C1212 1.349 . S
C1213 C1229 1.349 . S
C1214 C1212 1.327 . S
C1214 C1233 1.429 . S
C1214 H1238 0.950 . S
C1215 C1232 1.574 . S
C1215 C1234 1.368 . S
C1215 H1239 0.949 . S
H1216 C1220 0.949 . S
C1217 C1218 1.349 . S
C1217 C1219 1.327 . S
C1217 H1240 0.950 . S
C1218 C1217 1.349 . S
C1218 C1230 1.349 . S
C1219 C1217 1.327 . S
C1219 C1235 1.429 . S
C1219 H1241 0.950 . S
C1220 H1216 0.949 . S
C1220 C1228 1.574 . S
C1220 C1236 1.368 . S
H1221 C1229 0.950 . S
H1222 C1227 0.950 . S
H1223 C1228 0.949 . S
H1224 C1230 0.950 . S
H1225 C1231 0.950 . S
H1226 C1232 0.949 . S
C1227 H1222 0.950 . S
C1227 C1229 1.327 . S
C1227 C1233 1.429 . S
C1228 C1220 1.574 . S
C1228 H1223 0.949 . S
C1228 C1234 1.368 . S
C1229 C1213 1.349 . S
C1229 H1221 0.950 . S
C1229 C1227 1.327 . S
C1230 C1218 1.349 . S
C1230 H1224 0.950 . S
C1230 C1231 1.327 . S
C1231 H1225 0.950 . S
C1231 C1230 1.327 . S
C1231 C1235 1.429 . S
C1232 C1215 1.574 . S
C1232 H1226 0.949 . S
C1232 C1236 1.368 . S
C1233 C1214 1.429 . S
C1233 C1227 1.429 . S
C1233 C1234 1.523 . S
C1234 C1215 1.368 . S
C1234 C1228 1.368 . S
C1234 C1233 1.523 . S
C1235 C1219 1.429 . S
C1235 C1231 1.429 . S
C1235 C1236 1.523 . S
C1236 C1220 1.368 . S
C1236 C1232 1.368 . S
C1236 C1235 1.523 . S
H1237 C1212 0.950 . S
H1238 C1214 0.950 . S
H1239 C1215 0.949 . S
H1240 C1217 0.950 . S
H1241 C1219 0.950 . S
C1242 C1243 1.349 . S
C1242 C1244 1.327 . S
C1242 H1267 0.950 . S
C1243 C1242 1.349 . S
C1243 C1259 1.349 . S
C1244 C1242 1.327 . S
C1244 C1263 1.429 . S
C1244 H1268 0.950 . S
C1245 C1262 1.574 . S
C1245 C1264 1.368 . S
C1245 H1269 0.949 . S
H1246 C1250 0.949 . S
C1247 C1248 1.349 . S
C1247 C1249 1.327 . S
C1247 H1270 0.950 . S
C1248 C1247 1.349 . S
C1248 C1260 1.349 . S
C1249 C1247 1.327 . S
C1249 C1265 1.429 . S
C1249 H1271 0.950 . S
C1250 H1246 0.949 . S
C1250 C1258 1.574 . S
C1250 C1266 1.368 . S
H1251 C1259 0.950 . S
H1252 C1257 0.950 . S
H1253 C1258 0.949 . S
H1254 C1260 0.950 . S
H1255 C1261 0.950 . S
H1256 C1262 0.949 . S
C1257 H1252 0.950 . S
C1257 C1259 1.327 . S
C1257 C1263 1.429 . S
C1258 C1250 1.574 . S
C1258 H1253 0.949 . S
C1258 C1264 1.368 . S
C1259 C1243 1.349 . S
C1259 H1251 0.950 . S
C1259 C1257 1.327 . S
C1260 C1248 1.349 . S
C1260 H1254 0.950 . S
C1260 C1261 1.327 . S
C1261 H1255 0.950 . S
C1261 C1260 1.327 . S
C1261 C1265 1.429 . S
C1262 C1245 1.574 . S
C1262 H1256 0.949 . S
C1262 C1266 1.368 . S
C1263 C1244 1.429 . S
C1263 C1257 1.429 . S
C1263 C1264 1.523 . S
C1264 C1245 1.368 . S
C1264 C1258 1.368 . S
C1264 C1263 1.523 . S
C1265 C1249 1.429 . S
C1265 C1261 1.429 . S
C1265 C1266 1.523 . S
C1266 C1250 1.368 . S
C1266 C1262 1.368 . S
C1266 C1265 1.523 . S
H1267 C1242 0.950 . S
H1268 C1244 0.950 . S
H1269 C1245 0.949 . S
H1270 C1247 0.950 . S
H1271 C1249 0.950 . S
C1272 C1273 1.349 . S
C1272 C1274 1.327 . S
C1272 H1297 0.950 . S
C1273 C1272 1.349 . S
C1273 C1289 1.349 . S
C1274 C1272 1.327 . S
C1274 C1293 1.429 . S
C1274 H1298 0.950 . S
C1275 C1292 1.574 . S
C1275 C1294 1.368 . S
C1275 H1299 0.949 . S
H1276 C1280 0.949 . S
C1277 C1278 1.349 . S
C1277 C1279 1.327 . S
C1277 H1300 0.950 . S
C1278 C1277 1.349 . S
C1278 C1290 1.349 . S
C1279 C1277 1.327 . S
C1279 C1295 1.429 . S
C1279 H1301 0.950 . S
C1280 H1276 0.949 . S
C1280 C1288 1.574 . S
C1280 C1296 1.368 . S
H1281 C1289 0.950 . S
H1282 C1287 0.950 . S
H1283 C1288 0.949 . S
H1284 C1290 0.950 . S
H1285 C1291 0.950 . S
H1286 C1292 0.949 . S
C1287 H1282 0.950 . S
C1287 C1289 1.327 . S
C1287 C1293 1.429 . S
C1288 C1280 1.574 . S
C1288 H1283 0.949 . S
C1288 C1294 1.368 . S
C1289 C1273 1.349 . S
C1289 H1281 0.950 . S
C1289 C1287 1.327 . S
C1290 C1278 1.349 . S
C1290 H1284 0.950 . S
C1290 C1291 1.327 . S
C1291 H1285 0.950 . S
C1291 C1290 1.327 . S
C1291 C1295 1.429 . S
C1292 C1275 1.574 . S
C1292 H1286 0.949 . S
C1292 C1296 1.368 . S
C1293 C1274 1.429 . S
C1293 C1287 1.429 . S
C1293 C1294 1.523 . S
C1294 C1275 1.368 . S
C1294 C1288 1.368 . S
C1294 C1293 1.523 . S
C1295 C1279 1.429 . S
C1295 C1291 1.429 . S
C1295 C1296 1.523 . S
C1296 C1280 1.368 . S
C1296 C1292 1.368 . S
C1296 C1295 1.523 . S
H1297 C1272 0.950 . S
H1298 C1274 0.950 . S
H1299 C1275 0.949 . S
H1300 C1277 0.950 . S
H1301 C1279 0.950 . S
C1302 C1303 1.349 . S
C1302 C1304 1.327 . S
C1302 H1327 0.950 . S
C1303 C1302 1.349 . S
C1303 C1319 1.349 . S
C1304 C1302 1.327 . S
C1304 C1323 1.429 . S
C1304 H1328 0.950 . S
C1305 C1322 1.574 . S
C1305 C1324 1.368 . S
C1305 H1329 0.949 . S
H1306 C1310 0.949 . S
C1307 C1308 1.349 . S
C1307 C1309 1.327 . S
C1307 H1330 0.950 . S
C1308 C1307 1.349 . S
C1308 C1320 1.349 . S
C1309 C1307 1.327 . S
C1309 C1325 1.429 . S
C1309 H1331 0.950 . S
C1310 H1306 0.949 . S
C1310 C1318 1.574 . S
C1310 C1326 1.368 . S
H1311 C1319 0.950 . S
H1312 C1317 0.950 . S
H1313 C1318 0.949 . S
H1314 C1320 0.950 . S
H1315 C1321 0.950 . S
H1316 C1322 0.949 . S
C1317 H1312 0.950 . S
C1317 C1319 1.327 . S
C1317 C1323 1.429 . S
C1318 C1310 1.574 . S
C1318 H1313 0.949 . S
C1318 C1324 1.368 . S
C1319 C1303 1.349 . S
C1319 H1311 0.950 . S
C1319 C1317 1.327 . S
C1320 C1308 1.349 . S
C1320 H1314 0.950 . S
C1320 C1321 1.327 . S
C1321 H1315 0.950 . S
C1321 C1320 1.327 . S
C1321 C1325 1.429 . S
C1322 C1305 1.574 . S
C1322 H1316 0.949 . S
C1322 C1326 1.368 . S
C1323 C1304 1.429 . S
C1323 C1317 1.429 . S
C1323 C1324 1.523 . S
C1324 C1305 1.368 . S
C1324 C1318 1.368 . S
C1324 C1323 1.523 . S
C1325 C1309 1.429 . S
C1325 C1321 1.429 . S
C1325 C1326 1.523 . S
C1326 C1310 1.368 . S
C1326 C1322 1.368 . S
C1326 C1325 1.523 . S
H1327 C1302 0.950 . S
H1328 C1304 0.950 . S
H1329 C1305 0.949 . S
H1330 C1307 0.950 . S
H1331 C1309 0.950 . S
C1332 C1333 1.349 . S
C1332 C1334 1.327 . S
C1332 H1357 0.950 . S
C1333 C1332 1.349 . S
C1333 C1349 1.349 . S
C1334 C1332 1.327 . S
C1334 C1353 1.429 . S
C1334 H1358 0.950 . S
C1335 C1352 1.574 . S
C1335 C1354 1.368 . S
C1335 H1359 0.949 . S
H1336 C1340 0.949 . S
C1337 C1338 1.349 . S
C1337 C1339 1.327 . S
C1337 H1360 0.950 . S
C1338 C1337 1.349 . S
C1338 C1350 1.349 . S
C1339 C1337 1.327 . S
C1339 C1355 1.429 . S
C1339 H1361 0.950 . S
C1340 H1336 0.949 . S
C1340 C1348 1.574 . S
C1340 C1356 1.368 . S
H1341 C1349 0.950 . S
H1342 C1347 0.950 . S
H1343 C1348 0.949 . S
H1344 C1350 0.950 . S
H1345 C1351 0.950 . S
H1346 C1352 0.949 . S
C1347 H1342 0.950 . S
C1347 C1349 1.327 . S
C1347 C1353 1.429 . S
C1348 C1340 1.574 . S
C1348 H1343 0.949 . S
C1348 C1354 1.368 . S
C1349 C1333 1.349 . S
C1349 H1341 0.950 . S
C1349 C1347 1.327 . S
C1350 C1338 1.349 . S
C1350 H1344 0.950 . S
C1350 C1351 1.327 . S
C1351 H1345 0.950 . S
C1351 C1350 1.327 . S
C1351 C1355 1.429 . S
C1352 C1335 1.574 . S
C1352 H1346 0.949 . S
C1352 C1356 1.368 . S
C1353 C1334 1.429 . S
C1353 C1347 1.429 . S
C1353 C1354 1.523 . S
C1354 C1335 1.368 . S
C1354 C1348 1.368 . S
C1354 C1353 1.523 . S
C1355 C1339 1.429 . S
C1355 C1351 1.429 . S
C1355 C1356 1.523 . S
C1356 C1340 1.368 . S
C1356 C1352 1.368 . S
C1356 C1355 1.523 . S
H1357 C1332 0.950 . S
H1358 C1334 0.950 . S
H1359 C1335 0.949 . S
H1360 C1337 0.950 . S
H1361 C1339 0.950 . S
C1362 C1363 1.349 . S
C1362 C1364 1.327 . S
C1362 H1387 0.950 . S
C1363 C1362 1.349 . S
C1363 C1379 1.349 . S
C1364 C1362 1.327 . S
C1364 C1383 1.429 . S
C1364 H1388 0.950 . S
C1365 C1382 1.574 . S
C1365 C1384 1.368 . S
C1365 H1389 0.949 . S
H1366 C1370 0.949 . S
C1367 C1368 1.349 . S
C1367 C1369 1.327 . S
C1367 H1390 0.950 . S
C1368 C1367 1.349 . S
C1368 C1380 1.349 . S
C1369 C1367 1.327 . S
C1369 C1385 1.429 . S
C1369 H1391 0.950 . S
C1370 H1366 0.949 . S
C1370 C1378 1.574 . S
C1370 C1386 1.368 . S
H1371 C1379 0.950 . S
H1372 C1377 0.950 . S
H1373 C1378 0.949 . S
H1374 C1380 0.950 . S
H1375 C1381 0.950 . S
H1376 C1382 0.949 . S
C1377 H1372 0.950 . S
C1377 C1379 1.327 . S
C1377 C1383 1.429 . S
C1378 C1370 1.574 . S
C1378 H1373 0.949 . S
C1378 C1384 1.368 . S
C1379 C1363 1.349 . S
C1379 H1371 0.950 . S
C1379 C1377 1.327 . S
C1380 C1368 1.349 . S
C1380 H1374 0.950 . S
C1380 C1381 1.327 . S
C1381 H1375 0.950 . S
C1381 C1380 1.327 . S
C1381 C1385 1.429 . S
C1382 C1365 1.574 . S
C1382 H1376 0.949 . S
C1382 C1386 1.368 . S
C1383 C1364 1.429 . S
C1383 C1377 1.429 . S
C1383 C1384 1.523 . S
C1384 C1365 1.368 . S
C1384 C1378 1.368 . S
C1384 C1383 1.523 . S
C1385 C1369 1.429 . S
C1385 C1381 1.429 . S
C1385 C1386 1.523 . S
C1386 C1370 1.368 . S
C1386 C1382 1.368 . S
C1386 C1385 1.523 . S
H1387 C1362 0.950 . S
H1388 C1364 0.950 . S
H1389 C1365 0.949 . S
H1390 C1367 0.950 . S
H1391 C1369 0.950 . S
C1392 C1393 1.349 . S
C1392 C1394 1.327 . S
C1392 H1417 0.950 . S
C1393 C1392 1.349 . S
C1393 C1409 1.349 . S
C1394 C1392 1.327 . S
C1394 C1413 1.429 . S
C1394 H1418 0.950 . S
C1395 C1412 1.574 . S
C1395 C1414 1.368 . S
C1395 H1419 0.949 . S
H1396 C1400 0.949 . S
C1397 C1398 1.349 . S
C1397 C1399 1.327 . S
C1397 H1420 0.950 . S
C1398 C1397 1.349 . S
C1398 C1410 1.349 . S
C1399 C1397 1.327 . S
C1399 C1415 1.429 . S
C1399 H1421 0.950 . S
C1400 H1396 0.949 . S
C1400 C1408 1.574 . S
C1400 C1416 1.368 . S
H1401 C1409 0.950 . S
H1402 C1407 0.950 . S
H1403 C1408 0.949 . S
H1404 C1410 0.950 . S
H1405 C1411 0.950 . S
H1406 C1412 0.949 . S
C1407 H1402 0.950 . S
C1407 C1409 1.327 . S
C1407 C1413 1.429 . S
C1408 C1400 1.574 . S
C1408 H1403 0.949 . S
C1408 C1414 1.368 . S
C1409 C1393 1.349 . S
C1409 H1401 0.950 . S
C1409 C1407 1.327 . S
C1410 C1398 1.349 . S
C1410 H1404 0.950 . S
C1410 C1411 1.327 . S
C1411 H1405 0.950 . S
C1411 C1410 1.327 . S
C1411 C1415 1.429 . S
C1412 C1395 1.574 . S
C1412 H1406 0.949 . S
C1412 C1416 1.368 . S
C1413 C1394 1.429 . S
C1413 C1407 1.429 . S
C1413 C1414 1.523 . S
C1414 C1395 1.368 . S
C1414 C1408 1.368 . S
C1414 C1413 1.523 . S
C1415 C1399 1.429 . S
C1415 C1411 1.429 . S
C1415 C1416 1.523 . S
C1416 C1400 1.368 . S
C1416 C1412 1.368 . S
C1416 C1415 1.523 . S
H1417 C1392 0.950 . S
H1418 C1394 0.950 . S
H1419 C1395 0.949 . S
H1420 C1397 0.950 . S
H1421 C1399 0.950 . S
C1422 C1423 1.349 . S
C1422 C1424 1.327 . S
C1422 H1447 0.950 . S
C1423 C1422 1.349 . S
C1423 C1439 1.349 . S
C1424 C1422 1.327 . S
C1424 C1443 1.429 . S
C1424 H1448 0.950 . S
C1425 C1442 1.574 . S
C1425 C1444 1.368 . S
C1425 H1449 0.949 . S
H1426 C1430 0.949 . S
C1427 C1428 1.349 . S
C1427 C1429 1.327 . S
C1427 H1450 0.950 . S
C1428 C1427 1.349 . S
C1428 C1440 1.349 . S
C1429 C1427 1.327 . S
C1429 C1445 1.429 . S
C1429 H1451 0.950 . S
C1430 H1426 0.949 . S
C1430 C1438 1.574 . S
C1430 C1446 1.368 . S
H1431 C1439 0.950 . S
H1432 C1437 0.950 . S
H1433 C1438 0.949 . S
H1434 C1440 0.950 . S
H1435 C1441 0.950 . S
H1436 C1442 0.949 . S
C1437 H1432 0.950 . S
C1437 C1439 1.327 . S
C1437 C1443 1.429 . S
C1438 C1430 1.574 . S
C1438 H1433 0.949 . S
C1438 C1444 1.368 . S
C1439 C1423 1.349 . S
C1439 H1431 0.950 . S
C1439 C1437 1.327 . S
C1440 C1428 1.349 . S
C1440 H1434 0.950 . S
C1440 C1441 1.327 . S
C1441 H1435 0.950 . S
C1441 C1440 1.327 . S
C1441 C1445 1.429 . S
C1442 C1425 1.574 . S
C1442 H1436 0.949 . S
C1442 C1446 1.368 . S
C1443 C1424 1.429 . S
C1443 C1437 1.429 . S
C1443 C1444 1.523 . S
C1444 C1425 1.368 . S
C1444 C1438 1.368 . S
C1444 C1443 1.523 . S
C1445 C1429 1.429 . S
C1445 C1441 1.429 . S
C1445 C1446 1.523 . S
C1446 C1430 1.368 . S
C1446 C1442 1.368 . S
C1446 C1445 1.523 . S
H1447 C1422 0.950 . S
H1448 C1424 0.950 . S
H1449 C1425 0.949 . S
H1450 C1427 0.950 . S
H1451 C1429 0.950 . S
C1452 C1453 1.349 . S
C1452 C1454 1.327 . S
C1452 H1477 0.950 . S
C1453 C1452 1.349 . S
C1453 C1469 1.349 . S
C1454 C1452 1.327 . S
C1454 C1473 1.429 . S
C1454 H1478 0.950 . S
C1455 C1472 1.574 . S
C1455 C1474 1.368 . S
C1455 H1479 0.949 . S
H1456 C1460 0.949 . S
C1457 C1458 1.349 . S
C1457 C1459 1.327 . S
C1457 H1480 0.950 . S
C1458 C1457 1.349 . S
C1458 C1470 1.349 . S
C1459 C1457 1.327 . S
C1459 C1475 1.429 . S
C1459 H1481 0.950 . S
C1460 H1456 0.949 . S
C1460 C1468 1.574 . S
C1460 C1476 1.368 . S
H1461 C1469 0.950 . S
H1462 C1467 0.950 . S
H1463 C1468 0.949 . S
H1464 C1470 0.950 . S
H1465 C1471 0.950 . S
H1466 C1472 0.949 . S
C1467 H1462 0.950 . S
C1467 C1469 1.327 . S
C1467 C1473 1.429 . S
C1468 C1460 1.574 . S
C1468 H1463 0.949 . S
C1468 C1474 1.368 . S
C1469 C1453 1.349 . S
C1469 H1461 0.950 . S
C1469 C1467 1.327 . S
C1470 C1458 1.349 . S
C1470 H1464 0.950 . S
C1470 C1471 1.327 . S
C1471 H1465 0.950 . S
C1471 C1470 1.327 . S
C1471 C1475 1.429 . S
C1472 C1455 1.574 . S
C1472 H1466 0.949 . S
C1472 C1476 1.368 . S
C1473 C1454 1.429 . S
C1473 C1467 1.429 . S
C1473 C1474 1.523 . S
C1474 C1455 1.368 . S
C1474 C1468 1.368 . S
C1474 C1473 1.523 . S
C1475 C1459 1.429 . S
C1475 C1471 1.429 . S
C1475 C1476 1.523 . S
C1476 C1460 1.368 . S
C1476 C1472 1.368 . S
C1476 C1475 1.523 . S
H1477 C1452 0.950 . S
H1478 C1454 0.950 . S
H1479 C1455 0.949 . S
H1480 C1457 0.950 . S
H1481 C1459 0.950 . S
C1482 C1483 1.349 . S
C1482 C1484 1.327 . S
C1482 H1507 0.950 . S
C1483 C1482 1.349 . S
C1483 C1499 1.349 . S
C1484 C1482 1.327 . S
C1484 C1503 1.429 . S
C1484 H1508 0.950 . S
C1485 C1502 1.574 . S
C1485 C1504 1.368 . S
C1485 H1509 0.949 . S
H1486 C1490 0.949 . S
C1487 C1488 1.349 . S
C1487 C1489 1.327 . S
C1487 H1510 0.950 . S
C1488 C1487 1.349 . S
C1488 C1500 1.349 . S
C1489 C1487 1.327 . S
C1489 C1505 1.429 . S
C1489 H1511 0.950 . S
C1490 H1486 0.949 . S
C1490 C1498 1.574 . S
C1490 C1506 1.368 . S
H1491 C1499 0.950 . S
H1492 C1497 0.950 . S
H1493 C1498 0.949 . S
H1494 C1500 0.950 . S
H1495 C1501 0.950 . S
H1496 C1502 0.949 . S
C1497 H1492 0.950 . S
C1497 C1499 1.327 . S
C1497 C1503 1.429 . S
C1498 C1490 1.574 . S
C1498 H1493 0.949 . S
C1498 C1504 1.368 . S
C1499 C1483 1.349 . S
C1499 H1491 0.950 . S
C1499 C1497 1.327 . S
C1500 C1488 1.349 . S
C1500 H1494 0.950 . S
C1500 C1501 1.327 . S
C1501 H1495 0.950 . S
C1501 C1500 1.327 . S
C1501 C1505 1.429 . S
C1502 C1485 1.574 . S
C1502 H1496 0.949 . S
C1502 C1506 1.368 . S
C1503 C1484 1.429 . S
C1503 C1497 1.429 . S
C1503 C1504 1.523 . S
C1504 C1485 1.368 . S
C1504 C1498 1.368 . S
C1504 C1503 1.523 . S
C1505 C1489 1.429 . S
C1505 C1501 1.429 . S
C1505 C1506 1.523 . S
C1506 C1490 1.368 . S
C1506 C1502 1.368 . S
C1506 C1505 1.523 . S
H1507 C1482 0.950 . S
H1508 C1484 0.950 . S
H1509 C1485 0.949 . S
H1510 C1487 0.950 . S
H1511 C1489 0.950 . S
C1512 C1513 1.349 . S
C1512 C1514 1.327 . S
C1512 H1537 0.950 . S
C1513 C1512 1.349 . S
C1513 C1529 1.349 . S
C1514 C1512 1.327 . S
C1514 C1533 1.429 . S
C1514 H1538 0.950 . S
C1515 C1532 1.574 . S
C1515 C1534 1.368 . S
C1515 H1539 0.949 . S
H1516 C1520 0.949 . S
C1517 C1518 1.349 . S
C1517 C1519 1.327 . S
C1517 H1540 0.950 . S
C1518 C1517 1.349 . S
C1518 C1530 1.349 . S
C1519 C1517 1.327 . S
C1519 C1535 1.429 . S
C1519 H1541 0.950 . S
C1520 H1516 0.949 . S
C1520 C1528 1.574 . S
C1520 C1536 1.368 . S
H1521 C1529 0.950 . S
H1522 C1527 0.950 . S
H1523 C1528 0.949 . S
H1524 C1530 0.950 . S
H1525 C1531 0.950 . S
H1526 C1532 0.949 . S
C1527 H1522 0.950 . S
C1527 C1529 1.327 . S
C1527 C1533 1.429 . S
C1528 C1520 1.574 . S
C1528 H1523 0.949 . S
C1528 C1534 1.368 . S
C1529 C1513 1.349 . S
C1529 H1521 0.950 . S
C1529 C1527 1.327 . S
C1530 C1518 1.349 . S
C1530 H1524 0.950 . S
C1530 C1531 1.327 . S
C1531 H1525 0.950 . S
C1531 C1530 1.327 . S
C1531 C1535 1.429 . S
C1532 C1515 1.574 . S
C1532 H1526 0.949 . S
C1532 C1536 1.368 . S
C1533 C1514 1.429 . S
C1533 C1527 1.429 . S
C1533 C1534 1.523 . S
C1534 C1515 1.368 . S
C1534 C1528 1.368 . S
C1534 C1533 1.523 . S
C1535 C1519 1.429 . S
C1535 C1531 1.429 . S
C1535 C1536 1.523 . S
C1536 C1520 1.368 . S
C1536 C1532 1.368 . S
C1536 C1535 1.523 . S
H1537 C1512 0.950 . S
H1538 C1514 0.950 . S
H1539 C1515 0.949 . S
H1540 C1517 0.950 . S
H1541 C1519 0.950 . S
C1542 C1543 1.349 . S
C1542 C1544 1.327 . S
C1542 H1567 0.950 . S
C1543 C1542 1.349 . S
C1543 C1559 1.349 . S
C1544 C1542 1.327 . S
C1544 C1563 1.429 . S
C1544 H1568 0.950 . S
C1545 C1562 1.574 . S
C1545 C1564 1.368 . S
C1545 H1569 0.949 . S
H1546 C1550 0.949 . S
C1547 C1548 1.349 . S
C1547 C1549 1.327 . S
C1547 H1570 0.950 . S
C1548 C1547 1.349 . S
C1548 C1560 1.349 . S
C1549 C1547 1.327 . S
C1549 C1565 1.429 . S
C1549 H1571 0.950 . S
C1550 H1546 0.949 . S
C1550 C1558 1.574 . S
C1550 C1566 1.368 . S
H1551 C1559 0.950 . S
H1552 C1557 0.950 . S
H1553 C1558 0.949 . S
H1554 C1560 0.950 . S
H1555 C1561 0.950 . S
H1556 C1562 0.949 . S
C1557 H1552 0.950 . S
C1557 C1559 1.327 . S
C1557 C1563 1.429 . S
C1558 C1550 1.574 . S
C1558 H1553 0.949 . S
C1558 C1564 1.368 . S
C1559 C1543 1.349 . S
C1559 H1551 0.950 . S
C1559 C1557 1.327 . S
C1560 C1548 1.349 . S
C1560 H1554 0.950 . S
C1560 C1561 1.327 . S
C1561 H1555 0.950 . S
C1561 C1560 1.327 . S
C1561 C1565 1.429 . S
C1562 C1545 1.574 . S
C1562 H1556 0.949 . S
C1562 C1566 1.368 . S
C1563 C1544 1.429 . S
C1563 C1557 1.429 . S
C1563 C1564 1.523 . S
C1564 C1545 1.368 . S
C1564 C1558 1.368 . S
C1564 C1563 1.523 . S
C1565 C1549 1.429 . S
C1565 C1561 1.429 . S
C1565 C1566 1.523 . S
C1566 C1550 1.368 . S
C1566 C1562 1.368 . S
C1566 C1565 1.523 . S
H1567 C1542 0.950 . S
H1568 C1544 0.950 . S
H1569 C1545 0.949 . S
H1570 C1547 0.950 . S
H1571 C1549 0.950 . S
C1572 C1573 1.349 . S
C1572 C1574 1.327 . S
C1572 H1597 0.950 . S
C1573 C1572 1.349 . S
C1573 C1589 1.349 . S
C1574 C1572 1.327 . S
C1574 C1593 1.429 . S
C1574 H1598 0.950 . S
C1575 C1592 1.574 . S
C1575 C1594 1.368 . S
C1575 H1599 0.949 . S
H1576 C1580 0.949 . S
C1577 C1578 1.349 . S
C1577 C1579 1.327 . S
C1577 H1600 0.950 . S
C1578 C1577 1.349 . S
C1578 C1590 1.349 . S
C1579 C1577 1.327 . S
C1579 C1595 1.429 . S
C1579 H1601 0.950 . S
C1580 H1576 0.949 . S
C1580 C1588 1.574 . S
C1580 C1596 1.368 . S
H1581 C1589 0.950 . S
H1582 C1587 0.950 . S
H1583 C1588 0.949 . S
H1584 C1590 0.950 . S
H1585 C1591 0.950 . S
H1586 C1592 0.949 . S
C1587 H1582 0.950 . S
C1587 C1589 1.327 . S
C1587 C1593 1.429 . S
C1588 C1580 1.574 . S
C1588 H1583 0.949 . S
C1588 C1594 1.368 . S
C1589 C1573 1.349 . S
C1589 H1581 0.950 . S
C1589 C1587 1.327 . S
C1590 C1578 1.349 . S
C1590 H1584 0.950 . S
C1590 C1591 1.327 . S
C1591 H1585 0.950 . S
C1591 C1590 1.327 . S
C1591 C1595 1.429 . S
C1592 C1575 1.574 . S
C1592 H1586 0.949 . S
C1592 C1596 1.368 . S
C1593 C1574 1.429 . S
C1593 C1587 1.429 . S
C1593 C1594 1.523 . S
C1594 C1575 1.368 . S
C1594 C1588 1.368 . S
C1594 C1593 1.523 . S
C1595 C1579 1.429 . S
C1595 C1591 1.429 . S
C1595 C1596 1.523 . S
C1596 C1580 1.368 . S
C1596 C1592 1.368 . S
C1596 C1595 1.523 . S
H1597 C1572 0.950 . S
H1598 C1574 0.950 . S
H1599 C1575 0.949 . S
H1600 C1577 0.950 . S
H1601 C1579 0.950 . S
C1602 C1603 1.349 . S
C1602 C1604 1.327 . S
C1602 H1627 0.950 . S
C1603 C1602 1.349 . S
C1603 C1619 1.349 . S
C1604 C1602 1.327 . S
C1604 C1623 1.429 . S
C1604 H1628 0.950 . S
C1605 C1622 1.574 . S
C1605 C1624 1.368 . S
C1605 H1629 0.949 . S
H1606 C1610 0.949 . S
C1607 C1608 1.349 . S
C1607 C1609 1.327 . S
C1607 H1630 0.950 . S
C1608 C1607 1.349 . S
C1608 C1620 1.349 . S
C1609 C1607 1.327 . S
C1609 C1625 1.429 . S
C1609 H1631 0.950 . S
C1610 H1606 0.949 . S
C1610 C1618 1.574 . S
C1610 C1626 1.368 . S
H1611 C1619 0.950 . S
H1612 C1617 0.950 . S
H1613 C1618 0.949 . S
H1614 C1620 0.950 . S
H1615 C1621 0.950 . S
H1616 C1622 0.949 . S
C1617 H1612 0.950 . S
C1617 C1619 1.327 . S
C1617 C1623 1.429 . S
C1618 C1610 1.574 . S
C1618 H1613 0.949 . S
C1618 C1624 1.368 . S
C1619 C1603 1.349 . S
C1619 H1611 0.950 . S
C1619 C1617 1.327 . S
C1620 C1608 1.349 . S
C1620 H1614 0.950 . S
C1620 C1621 1.327 . S
C1621 H1615 0.950 . S
C1621 C1620 1.327 . S
C1621 C1625 1.429 . S
C1622 C1605 1.574 . S
C1622 H1616 0.949 . S
C1622 C1626 1.368 . S
C1623 C1604 1.429 . S
C1623 C1617 1.429 . S
C1623 C1624 1.523 . S
C1624 C1605 1.368 . S
C1624 C1618 1.368 . S
C1624 C1623 1.523 . S
C1625 C1609 1.429 . S
C1625 C1621 1.429 . S
C1625 C1626 1.523 . S
C1626 C1610 1.368 . S
C1626 C1622 1.368 . S
C1626 C1625 1.523 . S
H1627 C1602 0.950 . S
H1628 C1604 0.950 . S
H1629 C1605 0.949 . S
H1630 C1607 0.950 . S
H1631 C1609 0.950 . S
C1632 C1633 1.349 . S
C1632 C1634 1.327 . S
C1632 H1657 0.950 . S
C1633 C1632 1.349 . S
C1633 C1649 1.349 . S
C1634 C1632 1.327 . S
C1634 C1653 1.429 . S
C1634 H1658 0.950 . S
C1635 C1652 1.620 . S
C1635 C1654 1.322 1_655 S
C1635 H1659 0.949 . S
H1636 C1640 0.949 . S
C1637 C1638 1.349 . S
C1637 C1639 1.327 . S
C1637 H1660 0.950 . S
C1638 C1637 1.349 . S
C1638 C1650 1.349 . S
C1639 C1637 1.327 . S
C1639 C1655 1.429 . S
C1639 H1661 0.950 . S
C1640 H1636 0.949 . S
C1640 C1648 1.619 . S
C1640 C1656 1.322 1_455 S
H1641 C1649 0.950 . S
H1642 C1647 0.950 . S
H1643 C1648 0.949 . S
H1644 C1650 0.950 . S
H1645 C1651 0.950 . S
H1646 C1652 0.949 . S
C1647 H1642 0.950 . S
C1647 C1649 1.327 . S
C1647 C1653 1.429 . S
C1648 C1640 1.619 . S
C1648 H1643 0.949 . S
C1648 C1654 1.368 . S
C1649 C1633 1.349 . S
C1649 H1641 0.950 . S
C1649 C1647 1.327 . S
C1650 C1638 1.349 . S
C1650 H1644 0.950 . S
C1650 C1651 1.327 . S
C1651 H1645 0.950 . S
C1651 C1650 1.327 . S
C1651 C1655 1.429 . S
C1652 C1635 1.620 . S
C1652 H1646 0.949 . S
C1652 C1656 1.368 . S
C1653 C1634 1.429 . S
C1653 C1647 1.429 . S
C1653 C1654 1.523 . S
C1654 C1635 1.322 1_455 S
C1654 C1648 1.368 . S
C1654 C1653 1.523 . S
C1655 C1639 1.429 . S
C1655 C1651 1.429 . S
C1655 C1656 1.523 . S
C1656 C1640 1.322 1_655 S
C1656 C1652 1.368 . S
C1656 C1655 1.523 . S
H1657 C1632 0.950 . S
H1658 C1634 0.950 . S
H1659 C1635 0.949 . S
H1660 C1637 0.950 . S
H1661 C1639 0.950 . S
C1662 C1663 1.349 . S
C1662 C1664 1.327 . S
C1662 H1687 0.950 . S
C1663 C1662 1.349 . S
C1663 C1679 1.349 . S
C1664 C1662 1.327 . S
C1664 C1683 1.429 . S
C1664 H1688 0.950 1_545 S
C1665 C1682 1.574 . S
C1665 C1684 1.368 . S
C1665 H1689 0.949 . S
H1666 C1670 0.949 . S
C1667 C1668 1.349 . S
C1667 C1669 1.327 . S
C1667 H1690 0.950 . S
C1668 C1667 1.349 . S
C1668 C1680 1.349 . S
C1669 C1667 1.327 . S
C1669 C1685 1.429 . S
C1669 H1691 0.950 1_565 S
C1670 H1666 0.949 . S
C1670 C1678 1.574 . S
C1670 C1686 1.368 . S
H1671 C1679 0.950 . S
H1672 C1677 0.950 . S
H1673 C1678 0.949 . S
H1674 C1680 0.950 . S
H1675 C1681 0.950 . S
H1676 C1682 0.949 . S
C1677 H1672 0.950 . S
C1677 C1679 1.327 . S
C1677 C1683 1.429 . S
C1678 C1670 1.574 . S
C1678 H1673 0.949 . S
C1678 C1684 1.368 1_565 S
C1679 C1663 1.349 . S
C1679 H1671 0.950 . S
C1679 C1677 1.327 . S
C1680 C1668 1.349 . S
C1680 H1674 0.950 . S
C1680 C1681 1.327 . S
C1681 H1675 0.950 . S
C1681 C1680 1.327 . S
C1681 C1685 1.429 . S
C1682 C1665 1.574 . S
C1682 H1676 0.949 . S
C1682 C1686 1.368 1_545 S
C1683 C1664 1.429 . S
C1683 C1677 1.429 . S
C1683 C1684 1.523 . S
C1684 C1665 1.368 . S
C1684 C1678 1.368 1_545 S
C1684 C1683 1.523 . S
C1685 C1669 1.429 . S
C1685 C1681 1.429 . S
C1685 C1686 1.523 . S
C1686 C1670 1.368 . S
C1686 C1682 1.368 1_565 S
C1686 C1685 1.523 . S
H1687 C1662 0.950 . S
H1688 C1664 0.950 1_565 S
H1689 C1665 0.949 . S
H1690 C1667 0.950 . S
H1691 C1669 0.950 1_545 S
C1692 C1693 1.349 . S
C1692 C1694 1.327 . S
C1692 H1717 0.950 . S
C1693 C1692 1.349 . S
C1693 C1709 1.349 . S
C1694 C1692 1.327 . S
C1694 C1713 1.429 . S
C1694 H1718 0.950 . S
C1695 C1712 1.574 . S
C1695 C1714 1.368 1_655 S
C1695 H1719 0.949 . S
H1696 C1700 0.949 . S
C1697 C1698 1.349 . S
C1697 C1699 1.327 . S
C1697 H1720 0.950 . S
C1698 C1697 1.349 . S
C1698 C1710 1.349 . S
C1699 C1697 1.327 . S
C1699 C1715 1.429 . S
C1699 H1721 0.950 . S
C1700 H1696 0.949 . S
C1700 C1708 1.574 . S
C1700 C1716 1.368 1_455 S
H1701 C1709 0.950 . S
H1702 C1707 0.950 . S
H1703 C1708 0.949 . S
H1704 C1710 0.950 . S
H1705 C1711 0.950 . S
H1706 C1712 0.949 . S
C1707 H1702 0.950 . S
C1707 C1709 1.327 . S
C1707 C1713 1.429 . S
C1708 C1700 1.574 . S
C1708 H1703 0.949 . S
C1708 C1714 1.368 1_564 S
C1709 C1693 1.349 . S
C1709 H1701 0.950 . S
C1709 C1707 1.327 . S
C1710 C1698 1.349 . S
C1710 H1704 0.950 . S
C1710 C1711 1.327 . S
C1711 H1705 0.950 . S
C1711 C1710 1.327 . S
C1711 C1715 1.429 . S
C1712 C1695 1.574 . S
C1712 H1706 0.949 . S
C1712 C1716 1.368 1_546 S
C1713 C1694 1.429 . S
C1713 C1707 1.429 . S
C1713 C1714 1.523 . S
C1714 C1695 1.368 1_455 S
C1714 C1708 1.368 1_546 S
C1714 C1713 1.523 . S
C1715 C1699 1.429 . S
C1715 C1711 1.429 . S
C1715 C1716 1.523 . S
C1716 C1700 1.368 1_655 S
C1716 C1712 1.368 1_564 S
C1716 C1715 1.523 . S
H1717 C1692 0.950 . S
H1718 C1694 0.950 . S
H1719 C1695 0.949 . S
H1720 C1697 0.950 . S
H1721 C1699 0.950 . S
C1722 C1723 1.349 . S
C1722 C1724 1.327 . S
C1722 H1747 0.950 . S
C1723 C1722 1.349 . S
C1723 C1739 1.349 . S
C1724 C1722 1.327 . S
C1724 C1743 1.429 . S
C1724 H1748 0.950 . S
C1725 C1742 1.574 1_556 S
C1725 C1744 1.368 . S
C1725 H1749 0.949 . S
H1726 C1730 0.949 . S
C1727 C1728 1.349 . S
C1727 C1729 1.327 . S
C1727 H1750 0.950 . S
C1728 C1727 1.349 . S
C1728 C1740 1.349 . S
C1729 C1727 1.327 . S
C1729 C1745 1.429 . S
C1729 H1751 0.950 . S
C1730 H1726 0.949 . S
C1730 C1738 1.574 1_554 S
C1730 C1746 1.368 . S
H1731 C1739 0.950 . S
H1732 C1737 0.950 . S
H1733 C1738 0.949 . S
H1734 C1740 0.950 . S
H1735 C1741 0.950 . S
H1736 C1742 0.949 . S
C1737 H1732 0.950 . S
C1737 C1739 1.327 . S
C1737 C1743 1.429 . S
C1738 C1730 1.574 1_556 S
C1738 H1733 0.949 . S
C1738 C1744 1.368 . S
C1739 C1723 1.349 . S
C1739 H1731 0.950 . S
C1739 C1737 1.327 . S
C1740 C1728 1.349 . S
C1740 H1734 0.950 . S
C1740 C1741 1.327 . S
C1741 H1735 0.950 . S
C1741 C1740 1.327 . S
C1741 C1745 1.429 . S
C1742 C1725 1.574 1_554 S
C1742 H1736 0.949 . S
C1742 C1746 1.368 . S
C1743 C1724 1.429 . S
C1743 C1737 1.429 . S
C1743 C1744 1.523 . S
C1744 C1725 1.368 . S
C1744 C1738 1.368 . S
C1744 C1743 1.523 . S
C1745 C1729 1.429 . S
C1745 C1741 1.429 . S
C1745 C1746 1.523 . S
C1746 C1730 1.368 . S
C1746 C1742 1.368 . S
C1746 C1745 1.523 . S
H1747 C1722 0.950 . S
H1748 C1724 0.950 . S
H1749 C1725 0.949 . S
H1750 C1727 0.950 . S
H1751 C1729 0.950 . S
C1752 C1753 1.349 . S
C1752 C1754 1.327 . S
C1752 H1777 0.950 . S
C1753 C1752 1.349 . S
C1753 C1769 1.349 . S
C1754 C1752 1.327 . S
C1754 C1773 1.429 . S
C1754 H1778 0.950 . S
C1755 C1772 1.508 1_655 S
C1755 C1774 1.368 . S
C1755 H1779 0.949 . S
H1756 C1760 0.949 . S
C1757 C1758 1.349 . S
C1757 C1759 1.327 . S
C1757 H1780 0.950 . S
C1758 C1757 1.349 . S
C1758 C1770 1.349 . S
C1759 C1757 1.327 . S
C1759 C1775 1.429 . S
C1759 H1781 0.950 . S
C1760 H1756 0.949 . S
C1760 C1768 1.508 1_455 S
C1760 C1776 1.368 . S
H1761 C1769 0.950 . S
H1762 C1767 0.950 . S
H1763 C1768 0.962 . S
H1764 C1770 0.950 . S
H1765 C1771 0.950 . S
H1766 C1772 0.962 . S
C1767 H1762 0.950 . S
C1767 C1769 1.327 . S
C1767 C1773 1.429 . S
C1768 C1760 1.508 1_655 S
C1768 H1763 0.962 . S
C1768 C1774 1.427 . S
C1769 C1753 1.349 . S
C1769 H1761 0.950 . S
C1769 C1767 1.327 . S
C1770 C1758 1.349 . S
C1770 H1764 0.950 . S
C1770 C1771 1.327 . S
C1771 H1765 0.950 . S
C1771 C1770 1.327 . S
C1771 C1775 1.429 . S
C1772 C1755 1.508 1_455 S
C1772 H1766 0.962 . S
C1772 C1776 1.427 . S
C1773 C1754 1.429 . S
C1773 C1767 1.429 . S
C1773 C1774 1.523 . S
C1774 C1755 1.368 . S
C1774 C1768 1.427 . S
C1774 C1773 1.523 . S
C1775 C1759 1.429 . S
C1775 C1771 1.429 . S
C1775 C1776 1.523 . S
C1776 C1760 1.368 . S
C1776 C1772 1.427 . S
C1776 C1775 1.523 . S
H1777 C1752 0.950 . S
H1778 C1754 0.950 . S
H1779 C1755 0.949 . S
H1780 C1757 0.950 . S
H1781 C1759 0.950 . S
C1782 C1783 1.349 . S
C1782 C1784 1.327 . S
C1782 H1807 0.950 . S
C1783 C1782 1.349 . S
C1783 C1799 1.349 . S
C1784 C1782 1.327 . S
C1784 C1803 1.429 . S
C1784 H1808 0.950 1_545 S
C1785 C1802 1.574 . S
C1785 C1804 1.368 . S
C1785 H1809 0.949 . S
H1786 C1790 0.949 . S
C1787 C1788 1.349 . S
C1787 C1789 1.327 . S
C1787 H1810 0.950 . S
C1788 C1787 1.349 . S
C1788 C1800 1.349 . S
C1789 C1787 1.327 . S
C1789 C1805 1.429 . S
C1789 H1811 0.950 1_565 S
C1790 H1786 0.949 . S
C1790 C1798 1.574 . S
C1790 C1806 1.368 . S
H1791 C1799 0.950 . S
H1792 C1797 0.950 . S
H1793 C1798 0.949 . S
H1794 C1800 0.950 . S
H1795 C1801 0.950 . S
H1796 C1802 0.949 . S
C1797 H1792 0.950 . S
C1797 C1799 1.327 . S
C1797 C1803 1.429 . S
C1798 C1790 1.574 . S
C1798 H1793 0.949 . S
C1798 C1804 1.368 1_565 S
C1799 C1783 1.349 . S
C1799 H1791 0.950 . S
C1799 C1797 1.327 . S
C1800 C1788 1.349 . S
C1800 H1794 0.950 . S
C1800 C1801 1.327 . S
C1801 H1795 0.950 . S
C1801 C1800 1.327 . S
C1801 C1805 1.429 . S
C1802 C1785 1.574 . S
C1802 H1796 0.949 . S
C1802 C1806 1.368 1_545 S
C1803 C1784 1.429 . S
C1803 C1797 1.429 . S
C1803 C1804 1.523 . S
C1804 C1785 1.368 . S
C1804 C1798 1.368 1_545 S
C1804 C1803 1.523 . S
C1805 C1789 1.429 . S
C1805 C1801 1.429 . S
C1805 C1806 1.523 . S
C1806 C1790 1.368 . S
C1806 C1802 1.368 1_565 S
C1806 C1805 1.523 . S
H1807 C1782 0.950 . S
H1808 C1784 0.950 1_565 S
H1809 C1785 0.949 . S
H1810 C1787 0.950 . S
H1811 C1789 0.950 1_545 S
C1812 C1813 1.349 . S
C1812 C1814 1.327 . S
C1812 H1837 0.950 . S
C1813 C1812 1.349 . S
C1813 C1829 1.349 . S
C1814 C1812 1.327 . S
C1814 C1833 1.429 . S
C1814 H1838 0.950 . S
C1815 C1832 1.574 . S
C1815 C1834 1.368 1_554 S
C1815 H1839 0.949 . S
H1816 C1820 0.949 . S
C1817 C1818 1.349 . S
C1817 C1819 1.327 . S
C1817 H1840 0.950 . S
C1818 C1817 1.349 . S
C1818 C1830 1.349 . S
C1819 C1817 1.327 . S
C1819 C1835 1.429 . S
C1819 H1841 0.950 . S
C1820 H1816 0.949 . S
C1820 C1828 1.574 . S
C1820 C1836 1.368 1_556 S
H1821 C1829 0.950 . S
H1822 C1827 0.950 1_554 S
H1823 C1828 0.949 . S
H1824 C1830 0.950 . S
H1825 C1831 0.950 1_556 S
H1826 C1832 0.949 . S
C1827 H1822 0.950 1_556 S
C1827 C1829 1.327 . S
C1827 C1833 1.429 . S
C1828 C1820 1.574 . S
C1828 H1823 0.949 . S
C1828 C1834 1.368 . S
C1829 C1813 1.349 . S
C1829 H1821 0.950 . S
C1829 C1827 1.327 . S
C1830 C1818 1.349 . S
C1830 H1824 0.950 . S
C1830 C1831 1.327 . S
C1831 H1825 0.950 1_554 S
C1831 C1830 1.327 . S
C1831 C1835 1.429 . S
C1832 C1815 1.574 . S
C1832 H1826 0.949 . S
C1832 C1836 1.368 . S
C1833 C1814 1.429 . S
C1833 C1827 1.429 . S
C1833 C1834 1.523 . S
C1834 C1815 1.368 1_556 S
C1834 C1828 1.368 . S
C1834 C1833 1.523 . S
C1835 C1819 1.429 . S
C1835 C1831 1.429 . S
C1835 C1836 1.523 . S
C1836 C1820 1.368 1_554 S
C1836 C1832 1.368 . S
C1836 C1835 1.523 . S
H1837 C1812 0.950 . S
H1838 C1814 0.950 . S
H1839 C1815 0.949 . S
H1840 C1817 0.950 . S
H1841 C1819 0.950 . S
C1842 C1843 1.349 . S
C1842 C1844 1.327 . S
C1842 H1867 0.950 . S
C1843 C1842 1.349 . S
C1843 C1859 1.349 . S
C1844 C1842 1.327 . S
C1844 C1863 1.429 . S
C1844 H1868 0.950 . S
C1845 C1862 1.574 . S
C1845 C1864 1.368 . S
C1845 H1869 0.949 . S
H1846 C1850 0.949 . S
C1847 C1848 1.349 . S
C1847 C1849 1.327 . S
C1847 H1870 0.950 . S
C1848 C1847 1.349 . S
C1848 C1860 1.349 . S
C1849 C1847 1.327 . S
C1849 C1865 1.429 . S
C1849 H1871 0.950 . S
C1850 H1846 0.949 . S
C1850 C1858 1.574 . S
C1850 C1866 1.368 . S
H1851 C1859 0.950 . S
H1852 C1857 0.950 . S
H1853 C1858 0.949 . S
H1854 C1860 0.950 . S
H1855 C1861 0.950 . S
H1856 C1862 0.949 . S
C1857 H1852 0.950 . S
C1857 C1859 1.327 . S
C1857 C1863 1.429 . S
C1858 C1850 1.574 . S
C1858 H1853 0.949 . S
C1858 C1864 1.368 . S
C1859 C1843 1.349 . S
C1859 H1851 0.950 . S
C1859 C1857 1.327 . S
C1860 C1848 1.349 . S
C1860 H1854 0.950 . S
C1860 C1861 1.327 . S
C1861 H1855 0.950 . S
C1861 C1860 1.327 . S
C1861 C1865 1.429 . S
C1862 C1845 1.574 . S
C1862 H1856 0.949 . S
C1862 C1866 1.368 . S
C1863 C1844 1.429 . S
C1863 C1857 1.429 . S
C1863 C1864 1.523 . S
C1864 C1845 1.368 . S
C1864 C1858 1.368 . S
C1864 C1863 1.523 . S
C1865 C1849 1.429 . S
C1865 C1861 1.429 . S
C1865 C1866 1.523 . S
C1866 C1850 1.368 . S
C1866 C1862 1.368 . S
C1866 C1865 1.523 . S
H1867 C1842 0.950 . S
H1868 C1844 0.950 . S
H1869 C1845 0.949 . S
H1870 C1847 0.950 . S
H1871 C1849 0.950 . S
C1872 C1873 1.349 . S
C1872 C1874 1.327 . S
C1872 H1897 0.950 . S
C1873 C1872 1.349 . S
C1873 C1889 1.349 . S
C1874 C1872 1.327 . S
C1874 C1893 1.429 . S
C1874 H1898 0.950 . S
C1875 C1892 1.574 . S
C1875 C1894 1.368 . S
C1875 H1899 0.949 . S
H1876 C1880 0.949 . S
C1877 C1878 1.349 . S
C1877 C1879 1.327 . S
C1877 H1900 0.950 . S
C1878 C1877 1.349 . S
C1878 C1890 1.349 . S
C1879 C1877 1.327 . S
C1879 C1895 1.429 . S
C1879 H1901 0.950 . S
C1880 H1876 0.949 . S
C1880 C1888 1.574 . S
C1880 C1896 1.368 . S
H1881 C1889 0.950 . S
H1882 C1887 0.950 . S
H1883 C1888 0.949 . S
H1884 C1890 0.950 . S
H1885 C1891 0.950 . S
H1886 C1892 0.949 . S
C1887 H1882 0.950 . S
C1887 C1889 1.327 . S
C1887 C1893 1.429 . S
C1888 C1880 1.574 . S
C1888 H1883 0.949 . S
C1888 C1894 1.368 1_655 S
C1889 C1873 1.349 . S
C1889 H1881 0.950 . S
C1889 C1887 1.327 . S
C1890 C1878 1.349 . S
C1890 H1884 0.950 . S
C1890 C1891 1.327 . S
C1891 H1885 0.950 . S
C1891 C1890 1.327 . S
C1891 C1895 1.429 . S
C1892 C1875 1.574 . S
C1892 H1886 0.949 . S
C1892 C1896 1.368 1_455 S
C1893 C1874 1.429 . S
C1893 C1887 1.429 . S
C1893 C1894 1.523 . S
C1894 C1875 1.368 . S
C1894 C1888 1.368 1_455 S
C1894 C1893 1.523 . S
C1895 C1879 1.429 . S
C1895 C1891 1.429 . S
C1895 C1896 1.523 . S
C1896 C1880 1.368 . S
C1896 C1892 1.368 1_655 S
C1896 C1895 1.523 . S
H1897 C1872 0.950 . S
H1898 C1874 0.950 . S
H1899 C1875 0.949 . S
H1900 C1877 0.950 . S
H1901 C1879 0.950 . S
C1902 C1903 1.349 . S
C1902 C1904 1.327 . S
C1902 H1927 0.950 . S
C1903 C1902 1.349 . S
C1903 C1919 1.349 . S
C1904 C1902 1.327 . S
C1904 C1923 1.429 . S
C1904 H1928 0.950 . S
C1905 C1922 1.574 . S
C1905 C1924 1.368 . S
C1905 H1929 0.949 . S
H1906 C1910 0.949 . S
C1907 C1908 1.349 . S
C1907 C1909 1.327 . S
C1907 H1930 0.950 . S
C1908 C1907 1.349 . S
C1908 C1920 1.349 . S
C1909 C1907 1.327 . S
C1909 C1925 1.429 . S
C1909 H1931 0.950 . S
C1910 H1906 0.949 . S
C1910 C1918 1.574 . S
C1910 C1926 1.368 . S
H1911 C1919 0.950 . S
H1912 C1917 0.950 . S
H1913 C1918 0.949 . S
H1914 C1920 0.950 . S
H1915 C1921 0.950 . S
H1916 C1922 0.949 . S
C1917 H1912 0.950 . S
C1917 C1919 1.327 . S
C1917 C1923 1.429 . S
C1918 C1910 1.574 . S
C1918 H1913 0.949 . S
C1918 C1924 1.368 . S
C1919 C1903 1.349 . S
C1919 H1911 0.950 . S
C1919 C1917 1.327 . S
C1920 C1908 1.349 . S
C1920 H1914 0.950 . S
C1920 C1921 1.327 . S
C1921 H1915 0.950 . S
C1921 C1920 1.327 . S
C1921 C1925 1.429 . S
C1922 C1905 1.574 . S
C1922 H1916 0.949 . S
C1922 C1926 1.368 . S
C1923 C1904 1.429 . S
C1923 C1917 1.429 . S
C1923 C1924 1.523 . S
C1924 C1905 1.368 . S
C1924 C1918 1.368 . S
C1924 C1923 1.523 . S
C1925 C1909 1.429 . S
C1925 C1921 1.429 . S
C1925 C1926 1.523 . S
C1926 C1910 1.368 . S
C1926 C1922 1.368 . S
C1926 C1925 1.523 . S
H1927 C1902 0.950 . S
H1928 C1904 0.950 . S
H1929 C1905 0.949 . S
H1930 C1907 0.950 . S
H1931 C1909 0.950 . S
C1932 C1933 1.349 . S
C1932 C1934 1.327 . S
C1932 H1957 0.950 . S
C1933 C1932 1.349 . S
C1933 C1949 1.349 . S
C1934 C1932 1.327 . S
C1934 C1953 1.429 . S
C1934 H1958 0.950 . S
C1935 C1952 1.574 . S
C1935 C1954 1.368 . S
C1935 H1959 0.949 . S
H1936 C1940 0.949 . S
C1937 C1938 1.349 . S
C1937 C1939 1.327 . S
C1937 H1960 0.950 . S
C1938 C1937 1.349 . S
C1938 C1950 1.349 . S
C1939 C1937 1.327 . S
C1939 C1955 1.429 . S
C1939 H1961 0.950 . S
C1940 H1936 0.949 . S
C1940 C1948 1.574 . S
C1940 C1956 1.368 . S
H1941 C1949 0.950 . S
H1942 C1947 0.950 . S
H1943 C1948 0.949 . S
H1944 C1950 0.950 . S
H1945 C1951 0.950 . S
H1946 C1952 0.949 . S
C1947 H1942 0.950 . S
C1947 C1949 1.327 . S
C1947 C1953 1.429 . S
C1948 C1940 1.574 . S
C1948 H1943 0.949 . S
C1948 C1954 1.368 . S
C1949 C1933 1.349 . S
C1949 H1941 0.950 . S
C1949 C1947 1.327 . S
C1950 C1938 1.349 . S
C1950 H1944 0.950 . S
C1950 C1951 1.327 . S
C1951 H1945 0.950 . S
C1951 C1950 1.327 . S
C1951 C1955 1.429 . S
C1952 C1935 1.574 . S
C1952 H1946 0.949 . S
C1952 C1956 1.368 . S
C1953 C1934 1.429 . S
C1953 C1947 1.429 . S
C1953 C1954 1.523 . S
C1954 C1935 1.368 . S
C1954 C1948 1.368 . S
C1954 C1953 1.523 . S
C1955 C1939 1.429 . S
C1955 C1951 1.429 . S
C1955 C1956 1.523 . S
C1956 C1940 1.368 . S
C1956 C1952 1.368 . S
C1956 C1955 1.523 . S
H1957 C1932 0.950 . S
H1958 C1934 0.950 . S
H1959 C1935 0.949 . S
H1960 C1937 0.950 . S
H1961 C1939 0.950 . S
C1962 C1963 1.349 . S
C1962 C1964 1.327 . S
C1962 H1987 0.950 . S
C1963 C1962 1.349 . S
C1963 C1979 1.349 . S
C1964 C1962 1.327 . S
C1964 C1983 1.429 . S
C1964 H1988 0.950 . S
C1965 C1982 1.574 . S
C1965 C1984 1.368 . S
C1965 H1989 0.949 . S
H1966 C1970 0.949 . S
C1967 C1968 1.349 . S
C1967 C1969 1.327 . S
C1967 H1990 0.950 . S
C1968 C1967 1.349 . S
C1968 C1980 1.349 . S
C1969 C1967 1.327 . S
C1969 C1985 1.429 . S
C1969 H1991 0.950 . S
C1970 H1966 0.949 . S
C1970 C1978 1.574 . S
C1970 C1986 1.368 . S
H1971 C1979 0.950 . S
H1972 C1977 0.950 . S
H1973 C1978 0.949 . S
H1974 C1980 0.950 . S
H1975 C1981 0.950 . S
H1976 C1982 0.949 . S
C1977 H1972 0.950 . S
C1977 C1979 1.327 . S
C1977 C1983 1.429 . S
C1978 C1970 1.574 . S
C1978 H1973 0.949 . S
C1978 C1984 1.368 . S
C1979 C1963 1.349 . S
C1979 H1971 0.950 . S
C1979 C1977 1.327 . S
C1980 C1968 1.349 . S
C1980 H1974 0.950 . S
C1980 C1981 1.327 . S
C1981 H1975 0.950 . S
C1981 C1980 1.327 . S
C1981 C1985 1.429 . S
C1982 C1965 1.574 . S
C1982 H1976 0.949 . S
C1982 C1986 1.368 . S
C1983 C1964 1.429 . S
C1983 C1977 1.429 . S
C1983 C1984 1.523 . S
C1984 C1965 1.368 . S
C1984 C1978 1.368 . S
C1984 C1983 1.523 . S
C1985 C1969 1.429 . S
C1985 C1981 1.429 . S
C1985 C1986 1.523 . S
C1986 C1970 1.368 . S
C1986 C1982 1.368 . S
C1986 C1985 1.523 . S
H1987 C1962 0.950 . S
H1988 C1964 0.950 . S
H1989 C1965 0.949 . S
H1990 C1967 0.950 . S
H1991 C1969 0.950 . S
C1992 C1993 1.349 . S
C1992 C1994 1.327 . S
C1992 H2017 0.950 . S
C1993 C1992 1.349 . S
C1993 C2009 1.349 . S
C1994 C1992 1.327 . S
C1994 C2013 1.429 . S
C1994 H2018 0.950 . S
C1995 C2012 1.574 . S
C1995 C2014 1.368 . S
C1995 H2019 0.949 . S
H1996 C2000 0.949 . S
C1997 C1998 1.349 . S
C1997 C1999 1.327 . S
C1997 H2020 0.950 . S
C1998 C1997 1.349 . S
C1998 C2010 1.349 . S
C1999 C1997 1.327 . S
C1999 C2015 1.429 . S
C1999 H2021 0.950 . S
C2000 H1996 0.949 . S
C2000 C2008 1.574 . S
C2000 C2016 1.368 . S
H2001 C2009 0.950 . S
H2002 C2007 0.950 . S
H2003 C2008 0.949 . S
H2004 C2010 0.950 . S
H2005 C2011 0.950 . S
H2006 C2012 0.949 . S
C2007 H2002 0.950 . S
C2007 C2009 1.327 . S
C2007 C2013 1.429 . S
C2008 C2000 1.574 . S
C2008 H2003 0.949 . S
C2008 C2014 1.368 . S
C2009 C1993 1.349 . S
C2009 H2001 0.950 . S
C2009 C2007 1.327 . S
C2010 C1998 1.349 . S
C2010 H2004 0.950 . S
C2010 C2011 1.327 . S
C2011 H2005 0.950 . S
C2011 C2010 1.327 . S
C2011 C2015 1.429 . S
C2012 C1995 1.574 . S
C2012 H2006 0.949 . S
C2012 C2016 1.368 . S
C2013 C1994 1.429 . S
C2013 C2007 1.429 . S
C2013 C2014 1.523 . S
C2014 C1995 1.368 . S
C2014 C2008 1.368 . S
C2014 C2013 1.523 . S
C2015 C1999 1.429 . S
C2015 C2011 1.429 . S
C2015 C2016 1.523 . S
C2016 C2000 1.368 . S
C2016 C2012 1.368 . S
C2016 C2015 1.523 . S
H2017 C1992 0.950 . S
H2018 C1994 0.950 . S
H2019 C1995 0.949 . S
H2020 C1997 0.950 . S
H2021 C1999 0.950 . S
C2022 C2023 1.349 . S
C2022 C2024 1.327 . S
C2022 H2047 0.950 . S
C2023 C2022 1.349 . S
C2023 C2039 1.349 . S
C2024 C2022 1.327 . S
C2024 C2043 1.429 . S
C2024 H2048 0.950 . S
C2025 C2042 1.574 . S
C2025 C2044 1.368 1_545 S
C2025 H2049 0.949 . S
H2026 C2030 0.949 . S
C2027 C2028 1.349 . S
C2027 C2029 1.327 . S
C2027 H2050 0.950 . S
C2028 C2027 1.349 . S
C2028 C2040 1.349 . S
C2029 C2027 1.327 . S
C2029 C2045 1.429 . S
C2029 H2051 0.950 . S
C2030 H2026 0.949 . S
C2030 C2038 1.574 . S
C2030 C2046 1.368 1_565 S
H2031 C2039 0.950 . S
H2032 C2037 0.950 1_545 S
H2033 C2038 0.949 . S
H2034 C2040 0.950 . S
H2035 C2041 0.950 1_565 S
H2036 C2042 0.949 . S
C2037 H2032 0.950 1_565 S
C2037 C2039 1.327 . S
C2037 C2043 1.429 . S
C2038 C2030 1.574 . S
C2038 H2033 0.949 . S
C2038 C2044 1.368 . S
C2039 C2023 1.349 . S
C2039 H2031 0.950 . S
C2039 C2037 1.327 . S
C2040 C2028 1.349 . S
C2040 H2034 0.950 . S
C2040 C2041 1.327 . S
C2041 H2035 0.950 1_545 S
C2041 C2040 1.327 . S
C2041 C2045 1.429 . S
C2042 C2025 1.574 . S
C2042 H2036 0.949 . S
C2042 C2046 1.368 . S
C2043 C2024 1.429 . S
C2043 C2037 1.429 . S
C2043 C2044 1.523 . S
C2044 C2025 1.368 1_565 S
C2044 C2038 1.368 . S
C2044 C2043 1.523 . S
C2045 C2029 1.429 . S
C2045 C2041 1.429 . S
C2045 C2046 1.523 . S
C2046 C2030 1.368 1_545 S
C2046 C2042 1.368 . S
C2046 C2045 1.523 . S
H2047 C2022 0.950 . S
H2048 C2024 0.950 . S
H2049 C2025 0.949 . S
H2050 C2027 0.950 . S
H2051 C2029 0.950 . S
C2052 C2053 1.349 . S
C2052 C2054 1.327 . S
C2052 H2077 0.950 . S
C2053 C2052 1.349 . S
C2053 C2069 1.349 . S
C2054 C2052 1.327 . S
C2054 C2073 1.429 . S
C2054 H2078 0.950 . S
C2055 C2072 1.574 . S
C2055 C2074 1.368 . S
C2055 H2079 0.949 . S
H2056 C2060 0.949 . S
C2057 C2058 1.349 . S
C2057 C2059 1.327 . S
C2057 H2080 0.950 . S
C2058 C2057 1.349 . S
C2058 C2070 1.349 . S
C2059 C2057 1.327 . S
C2059 C2075 1.429 . S
C2059 H2081 0.950 . S
C2060 H2056 0.949 . S
C2060 C2068 1.574 . S
C2060 C2076 1.368 . S
H2061 C2069 0.950 . S
H2062 C2067 0.950 . S
H2063 C2068 0.949 . S
H2064 C2070 0.950 . S
H2065 C2071 0.950 . S
H2066 C2072 0.949 . S
C2067 H2062 0.950 . S
C2067 C2069 1.327 . S
C2067 C2073 1.429 . S
C2068 C2060 1.574 . S
C2068 H2063 0.949 . S
C2068 C2074 1.368 . S
C2069 C2053 1.349 . S
C2069 H2061 0.950 . S
C2069 C2067 1.327 . S
C2070 C2058 1.349 . S
C2070 H2064 0.950 . S
C2070 C2071 1.327 . S
C2071 H2065 0.950 . S
C2071 C2070 1.327 . S
C2071 C2075 1.429 . S
C2072 C2055 1.574 . S
C2072 H2066 0.949 . S
C2072 C2076 1.368 . S
C2073 C2054 1.429 . S
C2073 C2067 1.429 . S
C2073 C2074 1.523 . S
C2074 C2055 1.368 . S
C2074 C2068 1.368 . S
C2074 C2073 1.523 . S
C2075 C2059 1.429 . S
C2075 C2071 1.429 . S
C2075 C2076 1.523 . S
C2076 C2060 1.368 . S
C2076 C2072 1.368 . S
C2076 C2075 1.523 . S
H2077 C2052 0.950 . S
H2078 C2054 0.950 . S
H2079 C2055 0.949 . S
H2080 C2057 0.950 . S
H2081 C2059 0.950 . S
C2082 C2083 1.349 . S
C2082 C2084 1.327 . S
C2082 H2107 0.950 . S
C2083 C2082 1.349 . S
C2083 C2099 1.349 . S
C2084 C2082 1.327 . S
C2084 C2103 1.429 . S
C2084 H2108 0.950 . S
C2085 C2102 1.574 . S
C2085 C2104 1.368 1_556 S
C2085 H2109 0.949 . S
H2086 C2090 0.949 . S
C2087 C2088 1.349 . S
C2087 C2089 1.327 . S
C2087 H2110 0.950 . S
C2088 C2087 1.349 . S
C2088 C2100 1.349 . S
C2089 C2087 1.327 . S
C2089 C2105 1.429 . S
C2089 H2111 0.950 . S
C2090 H2086 0.949 . S
C2090 C2098 1.574 . S
C2090 C2106 1.368 1_554 S
H2091 C2099 0.950 . S
H2092 C2097 0.950 1_556 S
H2093 C2098 0.949 . S
H2094 C2100 0.950 . S
H2095 C2101 0.950 1_554 S
H2096 C2102 0.949 . S
C2097 H2092 0.950 1_554 S
C2097 C2099 1.327 . S
C2097 C2103 1.429 . S
C2098 C2090 1.574 . S
C2098 H2093 0.949 . S
C2098 C2104 1.368 . S
C2099 C2083 1.349 . S
C2099 H2091 0.950 . S
C2099 C2097 1.327 . S
C2100 C2088 1.349 . S
C2100 H2094 0.950 . S
C2100 C2101 1.327 . S
C2101 H2095 0.950 1_556 S
C2101 C2100 1.327 . S
C2101 C2105 1.429 . S
C2102 C2085 1.574 . S
C2102 H2096 0.949 . S
C2102 C2106 1.368 . S
C2103 C2084 1.429 . S
C2103 C2097 1.429 . S
C2103 C2104 1.523 . S
C2104 C2085 1.368 1_554 S
C2104 C2098 1.368 . S
C2104 C2103 1.523 . S
C2105 C2089 1.429 . S
C2105 C2101 1.429 . S
C2105 C2106 1.523 . S
C2106 C2090 1.368 1_556 S
C2106 C2102 1.368 . S
C2106 C2105 1.523 . S
H2107 C2082 0.950 . S
H2108 C2084 0.950 . S
H2109 C2085 0.949 . S
H2110 C2087 0.950 . S
H2111 C2089 0.950 . S
C2112 C2113 1.349 . S
C2112 C2114 1.327 . S
C2112 H2137 0.950 . S
C2113 C2112 1.349 . S
C2113 C2129 1.349 . S
C2114 C2112 1.327 . S
C2114 C2133 1.429 . S
C2114 H2138 0.950 . S
C2115 C2132 1.574 . S
C2115 C2134 1.368 . S
C2115 H2139 0.949 . S
H2116 C2120 0.949 . S
C2117 C2118 1.349 . S
C2117 C2119 1.327 . S
C2117 H2140 0.950 . S
C2118 C2117 1.349 . S
C2118 C2130 1.349 . S
C2119 C2117 1.327 . S
C2119 C2135 1.429 . S
C2119 H2141 0.950 . S
C2120 H2116 0.949 . S
C2120 C2128 1.574 . S
C2120 C2136 1.368 . S
H2121 C2129 0.950 . S
H2122 C2127 0.950 . S
H2123 C2128 0.949 . S
H2124 C2130 0.950 . S
H2125 C2131 0.950 . S
H2126 C2132 0.949 . S
C2127 H2122 0.950 . S
C2127 C2129 1.327 . S
C2127 C2133 1.429 . S
C2128 C2120 1.574 . S
C2128 H2123 0.949 . S
C2128 C2134 1.368 . S
C2129 C2113 1.349 . S
C2129 H2121 0.950 . S
C2129 C2127 1.327 . S
C2130 C2118 1.349 . S
C2130 H2124 0.950 . S
C2130 C2131 1.327 . S
C2131 H2125 0.950 . S
C2131 C2130 1.327 . S
C2131 C2135 1.429 . S
C2132 C2115 1.574 . S
C2132 H2126 0.949 . S
C2132 C2136 1.368 . S
C2133 C2114 1.429 . S
C2133 C2127 1.429 . S
C2133 C2134 1.523 . S
C2134 C2115 1.368 . S
C2134 C2128 1.368 . S
C2134 C2133 1.523 . S
C2135 C2119 1.429 . S
C2135 C2131 1.429 . S
C2135 C2136 1.523 . S
C2136 C2120 1.368 . S
C2136 C2132 1.368 . S
C2136 C2135 1.523 . S
H2137 C2112 0.950 . S
H2138 C2114 0.950 . S
H2139 C2115 0.949 . S
H2140 C2117 0.950 . S
H2141 C2119 0.950 . S
C2142 C2143 1.349 . S
C2142 C2144 1.327 . S
C2142 H2167 0.950 . S
C2143 C2142 1.349 . S
C2143 C2159 1.349 . S
C2144 C2142 1.327 . S
C2144 C2163 1.429 . S
C2144 H2168 0.950 . S
C2145 C2162 1.574 . S
C2145 C2164 1.368 . S
C2145 H2169 0.949 . S
H2146 C2150 0.949 . S
C2147 C2148 1.349 . S
C2147 C2149 1.327 1_545 S
C2147 H2170 0.950 . S
C2148 C2147 1.349 . S
C2148 C2160 1.349 1_545 S
C2149 C2147 1.327 1_565 S
C2149 C2165 1.429 . S
C2149 H2171 0.950 . S
C2150 H2146 0.949 . S
C2150 C2158 1.574 . S
C2150 C2166 1.368 . S
H2151 C2159 0.950 . S
H2152 C2157 0.950 . S
H2153 C2158 0.949 . S
H2154 C2160 0.950 . S
H2155 C2161 0.950 . S
H2156 C2162 0.949 . S
C2157 H2152 0.950 . S
C2157 C2159 1.327 . S
C2157 C2163 1.429 . S
C2158 C2150 1.574 . S
C2158 H2153 0.949 . S
C2158 C2164 1.368 . S
C2159 C2143 1.349 . S
C2159 H2151 0.950 . S
C2159 C2157 1.327 . S
C2160 C2148 1.349 1_565 S
C2160 H2154 0.950 . S
C2160 C2161 1.327 . S
C2161 H2155 0.950 . S
C2161 C2160 1.327 . S
C2161 C2165 1.429 . S
C2162 C2145 1.574 . S
C2162 H2156 0.949 . S
C2162 C2166 1.368 . S
C2163 C2144 1.429 . S
C2163 C2157 1.429 . S
C2163 C2164 1.523 . S
C2164 C2145 1.368 . S
C2164 C2158 1.368 . S
C2164 C2163 1.523 . S
C2165 C2149 1.429 . S
C2165 C2161 1.429 . S
C2165 C2166 1.523 . S
C2166 C2150 1.368 . S
C2166 C2162 1.368 . S
C2166 C2165 1.523 . S
H2167 C2142 0.950 . S
H2168 C2144 0.950 . S
H2169 C2145 0.949 . S
H2170 C2147 0.950 . S
H2171 C2149 0.950 . S
C2172 C2173 1.349 . S
C2172 C2174 1.327 1_545 S
C2172 H2197 0.950 . S
C2173 C2172 1.349 . S
C2173 C2189 1.349 1_545 S
C2174 C2172 1.327 1_565 S
C2174 C2193 1.429 . S
C2174 H2198 0.950 . S
C2175 C2192 1.574 . S
C2175 C2194 1.368 . S
C2175 H2199 0.949 . S
H2176 C2180 0.949 . S
C2177 C2178 1.349 . S
C2177 C2179 1.327 . S
C2177 H2200 0.950 . S
C2178 C2177 1.349 . S
C2178 C2190 1.349 . S
C2179 C2177 1.327 . S
C2179 C2195 1.429 . S
C2179 H2201 0.950 . S
C2180 H2176 0.949 . S
C2180 C2188 1.574 . S
C2180 C2196 1.368 . S
H2181 C2189 0.950 . S
H2182 C2187 0.950 . S
H2183 C2188 0.949 . S
H2184 C2190 0.950 . S
H2185 C2191 0.950 . S
H2186 C2192 0.949 . S
C2187 H2182 0.950 . S
C2187 C2189 1.327 . S
C2187 C2193 1.429 . S
C2188 C2180 1.574 . S
C2188 H2183 0.949 . S
C2188 C2194 1.368 . S
C2189 C2173 1.349 1_565 S
C2189 H2181 0.950 . S
C2189 C2187 1.327 . S
C2190 C2178 1.349 . S
C2190 H2184 0.950 . S
C2190 C2191 1.327 . S
C2191 H2185 0.950 . S
C2191 C2190 1.327 . S
C2191 C2195 1.429 . S
C2192 C2175 1.574 . S
C2192 H2186 0.949 . S
C2192 C2196 1.368 . S
C2193 C2174 1.429 . S
C2193 C2187 1.429 . S
C2193 C2194 1.523 . S
C2194 C2175 1.368 . S
C2194 C2188 1.368 . S
C2194 C2193 1.523 . S
C2195 C2179 1.429 . S
C2195 C2191 1.429 . S
C2195 C2196 1.523 . S
C2196 C2180 1.368 . S
C2196 C2192 1.368 . S
C2196 C2195 1.523 . S
H2197 C2172 0.950 . S
H2198 C2174 0.950 . S
H2199 C2175 0.949 . S
H2200 C2177 0.950 . S
H2201 C2179 0.950 . S
C2202 C2203 1.349 . S
C2202 C2204 1.327 . S
C2202 H2227 0.950 . S
C2203 C2202 1.349 . S
C2203 C2219 1.349 . S
C2204 C2202 1.327 . S
C2204 C2223 1.429 . S
C2204 H2228 0.950 . S
C2205 C2222 1.574 . S
C2205 C2224 1.368 . S
C2205 H2229 0.949 . S
H2206 C2210 0.949 . S
C2207 C2208 1.349 . S
C2207 C2209 1.327 . S
C2207 H2230 0.950 . S
C2208 C2207 1.349 . S
C2208 C2220 1.349 . S
C2209 C2207 1.327 . S
C2209 C2225 1.429 . S
C2209 H2231 0.950 . S
C2210 H2206 0.949 . S
C2210 C2218 1.574 . S
C2210 C2226 1.368 . S
H2211 C2219 0.950 . S
H2212 C2217 0.950 . S
H2213 C2218 0.949 . S
H2214 C2220 0.950 . S
H2215 C2221 0.950 . S
H2216 C2222 0.949 . S
C2217 H2212 0.950 . S
C2217 C2219 1.327 . S
C2217 C2223 1.429 . S
C2218 C2210 1.574 . S
C2218 H2213 0.949 . S
C2218 C2224 1.368 . S
C2219 C2203 1.349 . S
C2219 H2211 0.950 . S
C2219 C2217 1.327 . S
C2220 C2208 1.349 . S
C2220 H2214 0.950 . S
C2220 C2221 1.327 . S
C2221 H2215 0.950 . S
C2221 C2220 1.327 . S
C2221 C2225 1.429 . S
C2222 C2205 1.574 . S
C2222 H2216 0.949 . S
C2222 C2226 1.368 . S
C2223 C2204 1.429 . S
C2223 C2217 1.429 . S
C2223 C2224 1.523 . S
C2224 C2205 1.368 . S
C2224 C2218 1.368 . S
C2224 C2223 1.523 . S
C2225 C2209 1.429 . S
C2225 C2221 1.429 . S
C2225 C2226 1.523 . S
C2226 C2210 1.368 . S
C2226 C2222 1.368 . S
C2226 C2225 1.523 . S
H2227 C2202 0.950 . S
H2228 C2204 0.950 . S
H2229 C2205 0.949 . S
H2230 C2207 0.950 . S
H2231 C2209 0.950 . S
C2232 C2233 1.349 . S
C2232 C2234 1.327 . S
C2232 H2257 0.950 . S
C2233 C2232 1.349 . S
C2233 C2249 1.349 . S
C2234 C2232 1.327 . S
C2234 C2253 1.429 . S
C2234 H2258 0.950 . S
C2235 C2252 1.574 . S
C2235 C2254 1.368 . S
C2235 H2259 0.949 . S
H2236 C2240 0.949 . S
C2237 C2238 1.349 . S
C2237 C2239 1.327 . S
C2237 H2260 0.950 . S
C2238 C2237 1.349 . S
C2238 C2250 1.349 . S
C2239 C2237 1.327 . S
C2239 C2255 1.429 . S
C2239 H2261 0.950 . S
C2240 H2236 0.949 . S
C2240 C2248 1.574 . S
C2240 C2256 1.368 . S
H2241 C2249 0.950 . S
H2242 C2247 0.950 . S
H2243 C2248 0.949 . S
H2244 C2250 0.950 . S
H2245 C2251 0.950 . S
H2246 C2252 0.949 . S
C2247 H2242 0.950 . S
C2247 C2249 1.327 . S
C2247 C2253 1.429 . S
C2248 C2240 1.574 . S
C2248 H2243 0.949 . S
C2248 C2254 1.368 . S
C2249 C2233 1.349 . S
C2249 H2241 0.950 . S
C2249 C2247 1.327 . S
C2250 C2238 1.349 . S
C2250 H2244 0.950 . S
C2250 C2251 1.327 . S
C2251 H2245 0.950 . S
C2251 C2250 1.327 . S
C2251 C2255 1.429 . S
C2252 C2235 1.574 . S
C2252 H2246 0.949 . S
C2252 C2256 1.368 . S
C2253 C2234 1.429 . S
C2253 C2247 1.429 . S
C2253 C2254 1.523 . S
C2254 C2235 1.368 . S
C2254 C2248 1.368 . S
C2254 C2253 1.523 . S
C2255 C2239 1.429 . S
C2255 C2251 1.429 . S
C2255 C2256 1.523 . S
C2256 C2240 1.368 . S
C2256 C2252 1.368 . S
C2256 C2255 1.523 . S
H2257 C2232 0.950 . S
H2258 C2234 0.950 . S
H2259 C2235 0.949 . S
H2260 C2237 0.950 . S
H2261 C2239 0.950 . S
C2262 C2263 1.349 1_545 S
C2262 C2264 1.327 . S
C2262 H2287 0.950 . S
C2263 C2262 1.349 1_565 S
C2263 C2279 1.349 . S
C2264 C2262 1.327 . S
C2264 C2283 1.429 . S
C2264 H2288 0.950 . S
C2265 C2282 1.574 . S
C2265 C2284 1.368 . S
C2265 H2289 0.949 . S
H2266 C2270 0.949 . S
C2267 C2268 1.349 . S
C2267 C2269 1.327 . S
C2267 H2290 0.950 . S
C2268 C2267 1.349 . S
C2268 C2280 1.349 . S
C2269 C2267 1.327 . S
C2269 C2285 1.429 . S
C2269 H2291 0.950 . S
C2270 H2266 0.949 . S
C2270 C2278 1.574 . S
C2270 C2286 1.368 . S
H2271 C2279 0.950 . S
H2272 C2277 0.950 . S
H2273 C2278 0.949 . S
H2274 C2280 0.950 . S
H2275 C2281 0.950 . S
H2276 C2282 0.949 . S
C2277 H2272 0.950 . S
C2277 C2279 1.327 1_545 S
C2277 C2283 1.429 . S
C2278 C2270 1.574 . S
C2278 H2273 0.949 . S
C2278 C2284 1.368 . S
C2279 C2263 1.349 . S
C2279 H2271 0.950 . S
C2279 C2277 1.327 1_565 S
C2280 C2268 1.349 . S
C2280 H2274 0.950 . S
C2280 C2281 1.327 . S
C2281 H2275 0.950 . S
C2281 C2280 1.327 . S
C2281 C2285 1.429 . S
C2282 C2265 1.574 . S
C2282 H2276 0.949 . S
C2282 C2286 1.368 . S
C2283 C2264 1.429 . S
C2283 C2277 1.429 . S
C2283 C2284 1.523 . S
C2284 C2265 1.368 . S
C2284 C2278 1.368 . S
C2284 C2283 1.523 . S
C2285 C2269 1.429 . S
C2285 C2281 1.429 . S
C2285 C2286 1.523 . S
C2286 C2270 1.368 . S
C2286 C2282 1.368 . S
C2286 C2285 1.523 . S
H2287 C2262 0.950 . S
H2288 C2264 0.950 . S
H2289 C2265 0.949 . S
H2290 C2267 0.950 . S
H2291 C2269 0.950 . S
C2292 C2293 1.349 . S
C2292 C2294 1.327 . S
C2292 H2317 0.950 . S
C2293 C2292 1.349 . S
C2293 C2309 1.349 . S
C2294 C2292 1.327 . S
C2294 C2313 1.429 . S
C2294 H2318 0.950 . S
C2295 C2312 1.574 . S
C2295 C2314 1.368 . S
C2295 H2319 0.949 . S
H2296 C2300 0.949 . S
C2297 C2298 1.349 . S
C2297 C2299 1.327 1_565 S
C2297 H2320 0.950 . S
C2298 C2297 1.349 . S
C2298 C2310 1.349 1_565 S
C2299 C2297 1.327 1_545 S
C2299 C2315 1.429 . S
C2299 H2321 0.950 . S
C2300 H2296 0.949 . S
C2300 C2308 1.574 . S
C2300 C2316 1.368 . S
H2301 C2309 0.950 . S
H2302 C2307 0.950 . S
H2303 C2308 0.949 . S
H2304 C2310 0.950 . S
H2305 C2311 0.950 . S
H2306 C2312 0.949 . S
C2307 H2302 0.950 . S
C2307 C2309 1.327 . S
C2307 C2313 1.429 . S
C2308 C2300 1.574 . S
C2308 H2303 0.949 . S
C2308 C2314 1.368 . S
C2309 C2293 1.349 . S
C2309 H2301 0.950 . S
C2309 C2307 1.327 . S
C2310 C2298 1.349 1_545 S
C2310 H2304 0.950 . S
C2310 C2311 1.327 . S
C2311 H2305 0.950 . S
C2311 C2310 1.327 . S
C2311 C2315 1.429 . S
C2312 C2295 1.574 . S
C2312 H2306 0.949 . S
C2312 C2316 1.368 . S
C2313 C2294 1.429 . S
C2313 C2307 1.429 . S
C2313 C2314 1.523 . S
C2314 C2295 1.368 . S
C2314 C2308 1.368 . S
C2314 C2313 1.523 . S
C2315 C2299 1.429 . S
C2315 C2311 1.429 . S
C2315 C2316 1.523 . S
C2316 C2300 1.368 . S
C2316 C2312 1.368 . S
C2316 C2315 1.523 . S
H2317 C2292 0.950 . S
H2318 C2294 0.950 . S
H2319 C2295 0.949 . S
H2320 C2297 0.950 . S
H2321 C2299 0.950 . S
C2322 C2323 1.349 . S
C2322 C2324 1.327 . S
C2322 H2347 0.950 . S
C2323 C2322 1.349 . S
C2323 C2339 1.349 . S
C2324 C2322 1.327 . S
C2324 C2343 1.429 . S
C2324 H2348 0.950 . S
C2325 C2342 1.574 . S
C2325 C2344 1.368 . S
C2325 H2349 0.949 . S
H2326 C2330 0.949 . S
C2327 C2328 1.349 . S
C2327 C2329 1.327 . S
C2327 H2350 0.950 . S
C2328 C2327 1.349 . S
C2328 C2340 1.349 . S
C2329 C2327 1.327 . S
C2329 C2345 1.429 . S
C2329 H2351 0.950 . S
C2330 H2326 0.949 . S
C2330 C2338 1.574 . S
C2330 C2346 1.368 . S
H2331 C2339 0.950 . S
H2332 C2337 0.950 . S
H2333 C2338 0.949 . S
H2334 C2340 0.950 . S
H2335 C2341 0.950 . S
H2336 C2342 0.949 . S
C2337 H2332 0.950 . S
C2337 C2339 1.327 . S
C2337 C2343 1.429 . S
C2338 C2330 1.574 . S
C2338 H2333 0.949 . S
C2338 C2344 1.368 . S
C2339 C2323 1.349 . S
C2339 H2331 0.950 . S
C2339 C2337 1.327 . S
C2340 C2328 1.349 . S
C2340 H2334 0.950 . S
C2340 C2341 1.327 . S
C2341 H2335 0.950 . S
C2341 C2340 1.327 . S
C2341 C2345 1.429 . S
C2342 C2325 1.574 . S
C2342 H2336 0.949 . S
C2342 C2346 1.368 . S
C2343 C2324 1.429 . S
C2343 C2337 1.429 . S
C2343 C2344 1.523 . S
C2344 C2325 1.368 . S
C2344 C2338 1.368 . S
C2344 C2343 1.523 . S
C2345 C2329 1.429 . S
C2345 C2341 1.429 . S
C2345 C2346 1.523 . S
C2346 C2330 1.368 . S
C2346 C2342 1.368 . S
C2346 C2345 1.523 . S
H2347 C2322 0.950 . S
H2348 C2324 0.950 . S
H2349 C2325 0.949 . S
H2350 C2327 0.950 . S
H2351 C2329 0.950 . S
C2352 C2353 1.349 . S
C2352 C2354 1.327 . S
C2352 H2377 0.950 . S
C2353 C2352 1.349 . S
C2353 C2369 1.349 . S
C2354 C2352 1.327 . S
C2354 C2373 1.429 . S
C2354 H2378 0.950 . S
C2355 C2372 1.574 . S
C2355 C2374 1.368 . S
C2355 H2379 0.949 . S
H2356 C2360 0.949 . S
C2357 C2358 1.349 . S
C2357 C2359 1.327 . S
C2357 H2380 0.950 . S
C2358 C2357 1.349 . S
C2358 C2370 1.349 . S
C2359 C2357 1.327 . S
C2359 C2375 1.429 . S
C2359 H2381 0.950 . S
C2360 H2356 0.949 . S
C2360 C2368 1.574 . S
C2360 C2376 1.368 . S
H2361 C2369 0.950 . S
H2362 C2367 0.950 . S
H2363 C2368 0.949 . S
H2364 C2370 0.950 . S
H2365 C2371 0.950 . S
H2366 C2372 0.949 . S
C2367 H2362 0.950 . S
C2367 C2369 1.327 . S
C2367 C2373 1.429 . S
C2368 C2360 1.574 . S
C2368 H2363 0.949 . S
C2368 C2374 1.368 . S
C2369 C2353 1.349 . S
C2369 H2361 0.950 . S
C2369 C2367 1.327 . S
C2370 C2358 1.349 . S
C2370 H2364 0.950 . S
C2370 C2371 1.327 . S
C2371 H2365 0.950 . S
C2371 C2370 1.327 . S
C2371 C2375 1.429 . S
C2372 C2355 1.574 . S
C2372 H2366 0.949 . S
C2372 C2376 1.368 . S
C2373 C2354 1.429 . S
C2373 C2367 1.429 . S
C2373 C2374 1.523 . S
C2374 C2355 1.368 . S
C2374 C2368 1.368 . S
C2374 C2373 1.523 . S
C2375 C2359 1.429 . S
C2375 C2371 1.429 . S
C2375 C2376 1.523 . S
C2376 C2360 1.368 . S
C2376 C2372 1.368 . S
C2376 C2375 1.523 . S
H2377 C2352 0.950 . S
H2378 C2354 0.950 . S
H2379 C2355 0.949 . S
H2380 C2357 0.950 . S
H2381 C2359 0.950 . S
C2382 C2383 1.349 . S
C2382 C2384 1.327 . S
C2382 H2407 0.950 . S
C2383 C2382 1.349 . S
C2383 C2399 1.349 . S
C2384 C2382 1.327 . S
C2384 C2403 1.429 . S
C2384 H2408 0.950 . S
C2385 C2402 1.574 . S
C2385 C2404 1.368 . S
C2385 H2409 0.949 . S
H2386 C2390 0.949 . S
C2387 C2388 1.349 . S
C2387 C2389 1.327 1_545 S
C2387 H2410 0.950 . S
C2388 C2387 1.349 . S
C2388 C2400 1.349 1_545 S
C2389 C2387 1.327 1_565 S
C2389 C2405 1.429 . S
C2389 H2411 0.950 . S
C2390 H2386 0.949 . S
C2390 C2398 1.574 . S
C2390 C2406 1.368 . S
H2391 C2399 0.950 . S
H2392 C2397 0.950 . S
H2393 C2398 0.949 . S
H2394 C2400 0.950 . S
H2395 C2401 0.950 . S
H2396 C2402 0.949 . S
C2397 H2392 0.950 . S
C2397 C2399 1.327 . S
C2397 C2403 1.429 . S
C2398 C2390 1.574 . S
C2398 H2393 0.949 . S
C2398 C2404 1.368 . S
C2399 C2383 1.349 . S
C2399 H2391 0.950 . S
C2399 C2397 1.327 . S
C2400 C2388 1.349 1_565 S
C2400 H2394 0.950 . S
C2400 C2401 1.327 . S
C2401 H2395 0.950 . S
C2401 C2400 1.327 . S
C2401 C2405 1.429 . S
C2402 C2385 1.574 . S
C2402 H2396 0.949 . S
C2402 C2406 1.368 . S
C2403 C2384 1.429 . S
C2403 C2397 1.429 . S
C2403 C2404 1.523 . S
C2404 C2385 1.368 . S
C2404 C2398 1.368 . S
C2404 C2403 1.523 . S
C2405 C2389 1.429 . S
C2405 C2401 1.429 . S
C2405 C2406 1.523 . S
C2406 C2390 1.368 . S
C2406 C2402 1.368 . S
C2406 C2405 1.523 . S
H2407 C2382 0.950 . S
H2408 C2384 0.950 . S
H2409 C2385 0.949 . S
H2410 C2387 0.950 . S
H2411 C2389 0.950 . S
C2412 C2413 1.349 . S
C2412 C2414 1.327 . S
C2412 H2437 0.950 . S
C2413 C2412 1.349 . S
C2413 C2429 1.349 . S
C2414 C2412 1.327 . S
C2414 C2433 1.429 . S
C2414 H2438 0.950 . S
C2415 C2432 1.574 . S
C2415 C2434 1.368 . S
C2415 H2439 0.949 . S
H2416 C2420 0.949 . S
C2417 C2418 1.349 . S
C2417 C2419 1.327 1_545 S
C2417 H2440 0.950 . S
C2418 C2417 1.349 . S
C2418 C2430 1.349 1_545 S
C2419 C2417 1.327 1_565 S
C2419 C2435 1.429 . S
C2419 H2441 0.950 . S
C2420 H2416 0.949 . S
C2420 C2428 1.574 . S
C2420 C2436 1.368 . S
H2421 C2429 0.950 . S
H2422 C2427 0.950 . S
H2423 C2428 0.949 . S
H2424 C2430 0.950 . S
H2425 C2431 0.950 . S
H2426 C2432 0.949 . S
C2427 H2422 0.950 . S
C2427 C2429 1.327 . S
C2427 C2433 1.429 . S
C2428 C2420 1.574 . S
C2428 H2423 0.949 . S
C2428 C2434 1.368 . S
C2429 C2413 1.349 . S
C2429 H2421 0.950 . S
C2429 C2427 1.327 . S
C2430 C2418 1.349 1_565 S
C2430 H2424 0.950 . S
C2430 C2431 1.327 . S
C2431 H2425 0.950 . S
C2431 C2430 1.327 . S
C2431 C2435 1.429 . S
C2432 C2415 1.574 . S
C2432 H2426 0.949 . S
C2432 C2436 1.368 . S
C2433 C2414 1.429 . S
C2433 C2427 1.429 . S
C2433 C2434 1.523 . S
C2434 C2415 1.368 . S
C2434 C2428 1.368 . S
C2434 C2433 1.523 . S
C2435 C2419 1.429 . S
C2435 C2431 1.429 . S
C2435 C2436 1.523 . S
C2436 C2420 1.368 . S
C2436 C2432 1.368 . S
C2436 C2435 1.523 . S
H2437 C2412 0.950 . S
H2438 C2414 0.950 . S
H2439 C2415 0.949 . S
H2440 C2417 0.950 . S
H2441 C2419 0.950 . S
C2442 C2443 1.349 . S
C2442 C2444 1.327 . S
C2442 H2467 0.950 . S
C2443 C2442 1.349 . S
C2443 C2459 1.349 . S
C2444 C2442 1.327 . S
C2444 C2463 1.429 . S
C2444 H2468 0.950 . S
C2445 C2462 1.574 . S
C2445 C2464 1.368 . S
C2445 H2469 0.949 . S
H2446 C2450 0.949 . S
C2447 C2448 1.349 . S
C2447 C2449 1.327 . S
C2447 H2470 0.950 . S
C2448 C2447 1.349 . S
C2448 C2460 1.349 . S
C2449 C2447 1.327 . S
C2449 C2465 1.429 . S
C2449 H2471 0.950 . S
C2450 H2446 0.949 . S
C2450 C2458 1.574 . S
C2450 C2466 1.368 . S
H2451 C2459 0.950 . S
H2452 C2457 0.950 . S
H2453 C2458 0.949 . S
H2454 C2460 0.950 . S
H2455 C2461 0.950 . S
H2456 C2462 0.949 . S
C2457 H2452 0.950 . S
C2457 C2459 1.327 . S
C2457 C2463 1.429 . S
C2458 C2450 1.574 . S
C2458 H2453 0.949 . S
C2458 C2464 1.368 . S
C2459 C2443 1.349 . S
C2459 H2451 0.950 . S
C2459 C2457 1.327 . S
C2460 C2448 1.349 . S
C2460 H2454 0.950 . S
C2460 C2461 1.327 . S
C2461 H2455 0.950 . S
C2461 C2460 1.327 . S
C2461 C2465 1.429 . S
C2462 C2445 1.574 . S
C2462 H2456 0.949 . S
C2462 C2466 1.368 . S
C2463 C2444 1.429 . S
C2463 C2457 1.429 . S
C2463 C2464 1.523 . S
C2464 C2445 1.368 . S
C2464 C2458 1.368 . S
C2464 C2463 1.523 . S
C2465 C2449 1.429 . S
C2465 C2461 1.429 . S
C2465 C2466 1.523 . S
C2466 C2450 1.368 . S
C2466 C2462 1.368 . S
C2466 C2465 1.523 . S
H2467 C2442 0.950 . S
H2468 C2444 0.950 . S
H2469 C2445 0.949 . S
H2470 C2447 0.950 . S
H2471 C2449 0.950 . S
C2472 C2473 1.349 . S
C2472 C2474 1.327 . S
C2472 H2497 0.950 . S
C2473 C2472 1.349 . S
C2473 C2489 1.349 . S
C2474 C2472 1.327 . S
C2474 C2493 1.429 . S
C2474 H2498 0.950 . S
C2475 C2492 1.574 . S
C2475 C2494 1.368 . S
C2475 H2499 0.949 . S
H2476 C2480 0.949 . S
C2477 C2478 1.349 . S
C2477 C2479 1.327 . S
C2477 H2500 0.950 . S
C2478 C2477 1.349 . S
C2478 C2490 1.349 . S
C2479 C2477 1.327 . S
C2479 C2495 1.429 . S
C2479 H2501 0.950 . S
C2480 H2476 0.949 . S
C2480 C2488 1.574 . S
C2480 C2496 1.368 . S
H2481 C2489 0.950 . S
H2482 C2487 0.950 . S
H2483 C2488 0.949 . S
H2484 C2490 0.950 . S
H2485 C2491 0.950 . S
H2486 C2492 0.949 . S
C2487 H2482 0.950 . S
C2487 C2489 1.327 . S
C2487 C2493 1.429 . S
C2488 C2480 1.574 . S
C2488 H2483 0.949 . S
C2488 C2494 1.368 . S
C2489 C2473 1.349 . S
C2489 H2481 0.950 . S
C2489 C2487 1.327 . S
C2490 C2478 1.349 . S
C2490 H2484 0.950 . S
C2490 C2491 1.327 . S
C2491 H2485 0.950 . S
C2491 C2490 1.327 . S
C2491 C2495 1.429 . S
C2492 C2475 1.574 . S
C2492 H2486 0.949 . S
C2492 C2496 1.368 . S
C2493 C2474 1.429 . S
C2493 C2487 1.429 . S
C2493 C2494 1.523 . S
C2494 C2475 1.368 . S
C2494 C2488 1.368 . S
C2494 C2493 1.523 . S
C2495 C2479 1.429 . S
C2495 C2491 1.429 . S
C2495 C2496 1.523 . S
C2496 C2480 1.368 . S
C2496 C2492 1.368 . S
C2496 C2495 1.523 . S
H2497 C2472 0.950 . S
H2498 C2474 0.950 . S
H2499 C2475 0.949 . S
H2500 C2477 0.950 . S
H2501 C2479 0.950 . S
C2502 C2503 1.349 1_545 S
C2502 C2504 1.327 . S
C2502 H2527 0.950 1_545 S
C2503 C2502 1.349 1_565 S
C2503 C2519 1.349 . S
C2504 C2502 1.327 . S
C2504 C2523 1.429 . S
C2504 H2528 0.950 . S
C2505 C2522 1.574 . S
C2505 C2524 1.368 . S
C2505 H2529 0.949 . S
H2506 C2510 0.949 . S
C2507 C2508 1.349 . S
C2507 C2509 1.327 . S
C2507 H2530 0.950 . S
C2508 C2507 1.349 . S
C2508 C2520 1.349 . S
C2509 C2507 1.327 . S
C2509 C2525 1.429 . S
C2509 H2531 0.950 . S
C2510 H2506 0.949 . S
C2510 C2518 1.574 . S
C2510 C2526 1.368 . S
H2511 C2519 0.950 . S
H2512 C2517 0.950 . S
H2513 C2518 0.949 . S
H2514 C2520 0.950 . S
H2515 C2521 0.950 . S
H2516 C2522 0.949 . S
C2517 H2512 0.950 . S
C2517 C2519 1.327 1_545 S
C2517 C2523 1.429 . S
C2518 C2510 1.574 . S
C2518 H2513 0.949 . S
C2518 C2524 1.368 . S
C2519 C2503 1.349 . S
C2519 H2511 0.950 . S
C2519 C2517 1.327 1_565 S
C2520 C2508 1.349 . S
C2520 H2514 0.950 . S
C2520 C2521 1.327 . S
C2521 H2515 0.950 . S
C2521 C2520 1.327 . S
C2521 C2525 1.429 . S
C2522 C2505 1.574 . S
C2522 H2516 0.949 . S
C2522 C2526 1.368 . S
C2523 C2504 1.429 . S
C2523 C2517 1.429 . S
C2523 C2524 1.523 . S
C2524 C2505 1.368 . S
C2524 C2518 1.368 . S
C2524 C2523 1.523 . S
C2525 C2509 1.429 . S
C2525 C2521 1.429 . S
C2525 C2526 1.523 . S
C2526 C2510 1.368 . S
C2526 C2522 1.368 . S
C2526 C2525 1.523 . S
H2527 C2502 0.950 1_565 S
H2528 C2504 0.950 . S
H2529 C2505 0.949 . S
H2530 C2507 0.950 . S
H2531 C2509 0.950 . S
C2532 C2533 1.349 . S
C2532 C2534 1.327 . S
C2532 H2557 0.950 . S
C2533 C2532 1.349 . S
C2533 C2549 1.349 . S
C2534 C2532 1.327 . S
C2534 C2553 1.429 . S
C2534 H2558 0.950 . S
C2535 C2552 1.574 . S
C2535 C2554 1.368 . S
C2535 H2559 0.949 . S
H2536 C2540 0.949 . S
C2537 C2538 1.349 . S
C2537 C2539 1.327 1_565 S
C2537 H2560 0.950 . S
C2538 C2537 1.349 . S
C2538 C2550 1.349 1_565 S
C2539 C2537 1.327 1_545 S
C2539 C2555 1.429 . S
C2539 H2561 0.950 . S
C2540 H2536 0.949 . S
C2540 C2548 1.574 . S
C2540 C2556 1.368 . S
H2541 C2549 0.950 . S
H2542 C2547 0.950 . S
H2543 C2548 0.949 . S
H2544 C2550 0.950 1_565 S
H2545 C2551 0.950 . S
H2546 C2552 0.949 . S
C2547 H2542 0.950 . S
C2547 C2549 1.327 . S
C2547 C2553 1.429 . S
C2548 C2540 1.574 . S
C2548 H2543 0.949 . S
C2548 C2554 1.368 . S
C2549 C2533 1.349 . S
C2549 H2541 0.950 . S
C2549 C2547 1.327 . S
C2550 C2538 1.349 1_545 S
C2550 H2544 0.950 1_545 S
C2550 C2551 1.327 . S
C2551 H2545 0.950 . S
C2551 C2550 1.327 . S
C2551 C2555 1.429 . S
C2552 C2535 1.574 . S
C2552 H2546 0.949 . S
C2552 C2556 1.368 . S
C2553 C2534 1.429 . S
C2553 C2547 1.429 . S
C2553 C2554 1.523 . S
C2554 C2535 1.368 . S
C2554 C2548 1.368 . S
C2554 C2553 1.523 . S
C2555 C2539 1.429 . S
C2555 C2551 1.429 . S
C2555 C2556 1.523 . S
C2556 C2540 1.368 . S
C2556 C2552 1.368 . S
C2556 C2555 1.523 . S
H2557 C2532 0.950 . S
H2558 C2534 0.950 . S
H2559 C2535 0.949 . S
H2560 C2537 0.950 . S
H2561 C2539 0.950 . S
C2562 C2563 1.349 . S
C2562 C2564 1.327 . S
C2562 H2587 0.950 . S
C2563 C2562 1.349 . S
C2563 C2579 1.349 . S
C2564 C2562 1.327 . S
C2564 C2583 1.429 . S
C2564 H2588 0.950 . S
C2565 C2582 1.574 . S
C2565 C2584 1.368 . S
C2565 H2589 0.949 . S
H2566 C2570 0.949 . S
C2567 C2568 1.349 . S
C2567 C2569 1.327 . S
C2567 H2590 0.950 . S
C2568 C2567 1.349 . S
C2568 C2580 1.349 . S
C2569 C2567 1.327 . S
C2569 C2585 1.429 . S
C2569 H2591 0.950 . S
C2570 H2566 0.949 . S
C2570 C2578 1.574 . S
C2570 C2586 1.368 . S
H2571 C2579 0.950 . S
H2572 C2577 0.950 . S
H2573 C2578 0.949 . S
H2574 C2580 0.950 . S
H2575 C2581 0.950 . S
H2576 C2582 0.949 . S
C2577 H2572 0.950 . S
C2577 C2579 1.327 . S
C2577 C2583 1.429 . S
C2578 C2570 1.574 . S
C2578 H2573 0.949 . S
C2578 C2584 1.368 . S
C2579 C2563 1.349 . S
C2579 H2571 0.950 . S
C2579 C2577 1.327 . S
C2580 C2568 1.349 . S
C2580 H2574 0.950 . S
C2580 C2581 1.327 . S
C2581 H2575 0.950 . S
C2581 C2580 1.327 . S
C2581 C2585 1.429 . S
C2582 C2565 1.574 . S
C2582 H2576 0.949 . S
C2582 C2586 1.368 . S
C2583 C2564 1.429 . S
C2583 C2577 1.429 . S
C2583 C2584 1.523 . S
C2584 C2565 1.368 . S
C2584 C2578 1.368 . S
C2584 C2583 1.523 . S
C2585 C2569 1.429 . S
C2585 C2581 1.429 . S
C2585 C2586 1.523 . S
C2586 C2570 1.368 . S
C2586 C2582 1.368 . S
C2586 C2585 1.523 . S
H2587 C2562 0.950 . S
H2588 C2564 0.950 . S
H2589 C2565 0.949 . S
H2590 C2567 0.950 . S
H2591 C2569 0.950 . S
C2592 C2593 1.349 . S
C2592 C2594 1.327 . S
C2592 H2617 0.950 . S
C2593 C2592 1.349 . S
C2593 C2609 1.349 . S
C2594 C2592 1.327 . S
C2594 C2613 1.429 . S
C2594 H2618 0.950 . S
C2595 C2612 1.574 . S
C2595 C2614 1.368 . S
C2595 H2619 0.949 . S
H2596 C2600 0.949 . S
C2597 C2598 1.349 . S
C2597 C2599 1.327 1_545 S
C2597 H2620 0.950 . S
C2598 C2597 1.349 . S
C2598 C2610 1.349 1_545 S
C2599 C2597 1.327 1_565 S
C2599 C2615 1.429 . S
C2599 H2621 0.950 . S
C2600 H2596 0.949 . S
C2600 C2608 1.574 . S
C2600 C2616 1.368 . S
H2601 C2609 0.950 . S
H2602 C2607 0.950 . S
H2603 C2608 0.949 . S
H2604 C2610 0.950 . S
H2605 C2611 0.950 . S
H2606 C2612 0.949 . S
C2607 H2602 0.950 . S
C2607 C2609 1.327 . S
C2607 C2613 1.429 . S
C2608 C2600 1.574 . S
C2608 H2603 0.949 . S
C2608 C2614 1.368 . S
C2609 C2593 1.349 . S
C2609 H2601 0.950 . S
C2609 C2607 1.327 . S
C2610 C2598 1.349 1_565 S
C2610 H2604 0.950 . S
C2610 C2611 1.327 . S
C2611 H2605 0.950 . S
C2611 C2610 1.327 . S
C2611 C2615 1.429 . S
C2612 C2595 1.574 . S
C2612 H2606 0.949 . S
C2612 C2616 1.368 . S
C2613 C2594 1.429 . S
C2613 C2607 1.429 . S
C2613 C2614 1.523 . S
C2614 C2595 1.368 . S
C2614 C2608 1.368 . S
C2614 C2613 1.523 . S
C2615 C2599 1.429 . S
C2615 C2611 1.429 . S
C2615 C2616 1.523 . S
C2616 C2600 1.368 . S
C2616 C2612 1.368 . S
C2616 C2615 1.523 . S
H2617 C2592 0.950 . S
H2618 C2594 0.950 . S
H2619 C2595 0.949 . S
H2620 C2597 0.950 . S
H2621 C2599 0.950 . S
C2622 C2623 1.349 . S
C2622 C2624 1.327 . S
C2622 H2647 0.950 . S
C2623 C2622 1.349 . S
C2623 C2639 1.349 . S
C2624 C2622 1.327 . S
C2624 C2643 1.429 . S
C2624 H2648 0.950 . S
C2625 C2642 1.574 . S
C2625 C2644 1.368 . S
C2625 H2649 0.949 . S
H2626 C2630 0.949 . S
C2627 C2628 1.349 . S
C2627 C2629 1.327 . S
C2627 H2650 0.950 . S
C2628 C2627 1.349 . S
C2628 C2640 1.349 . S
C2629 C2627 1.327 . S
C2629 C2645 1.429 . S
C2629 H2651 0.950 . S
C2630 H2626 0.949 . S
C2630 C2638 1.574 . S
C2630 C2646 1.368 . S
H2631 C2639 0.950 . S
H2632 C2637 0.950 . S
H2633 C2638 0.949 . S
H2634 C2640 0.950 . S
H2635 C2641 0.950 . S
H2636 C2642 0.949 . S
C2637 H2632 0.950 . S
C2637 C2639 1.327 . S
C2637 C2643 1.429 . S
C2638 C2630 1.574 . S
C2638 H2633 0.949 . S
C2638 C2644 1.368 . S
C2639 C2623 1.349 . S
C2639 H2631 0.950 . S
C2639 C2637 1.327 . S
C2640 C2628 1.349 . S
C2640 H2634 0.950 . S
C2640 C2641 1.327 . S
C2641 H2635 0.950 . S
C2641 C2640 1.327 . S
C2641 C2645 1.429 . S
C2642 C2625 1.574 . S
C2642 H2636 0.949 . S
C2642 C2646 1.368 . S
C2643 C2624 1.429 . S
C2643 C2637 1.429 . S
C2643 C2644 1.523 . S
C2644 C2625 1.368 . S
C2644 C2638 1.368 . S
C2644 C2643 1.523 . S
C2645 C2629 1.429 . S
C2645 C2641 1.429 . S
C2645 C2646 1.523 . S
C2646 C2630 1.368 . S
C2646 C2642 1.368 . S
C2646 C2645 1.523 . S
H2647 C2622 0.950 . S
H2648 C2624 0.950 . S
H2649 C2625 0.949 . S
H2650 C2627 0.950 . S
H2651 C2629 0.950 . S
C2652 C2653 1.349 . S
C2652 C2654 1.327 . S
C2652 H2677 0.950 . S
C2653 C2652 1.349 . S
C2653 C2669 1.349 . S
C2654 C2652 1.327 . S
C2654 C2673 1.429 . S
C2654 H2678 0.950 . S
C2655 C2672 1.574 . S
C2655 C2674 1.368 . S
C2655 H2679 0.949 . S
H2656 C2660 0.949 . S
C2657 C2658 1.349 . S
C2657 C2659 1.327 . S
C2657 H2680 0.950 . S
C2658 C2657 1.349 . S
C2658 C2670 1.349 . S
C2659 C2657 1.327 . S
C2659 C2675 1.429 . S
C2659 H2681 0.950 . S
C2660 H2656 0.949 . S
C2660 C2668 1.574 . S
C2660 C2676 1.368 . S
H2661 C2669 0.950 . S
H2662 C2667 0.950 . S
H2663 C2668 0.949 . S
H2664 C2670 0.950 . S
H2665 C2671 0.950 . S
H2666 C2672 0.949 . S
C2667 H2662 0.950 . S
C2667 C2669 1.327 . S
C2667 C2673 1.429 . S
C2668 C2660 1.574 . S
C2668 H2663 0.949 . S
C2668 C2674 1.368 . S
C2669 C2653 1.349 . S
C2669 H2661 0.950 . S
C2669 C2667 1.327 . S
C2670 C2658 1.349 . S
C2670 H2664 0.950 . S
C2670 C2671 1.327 . S
C2671 H2665 0.950 . S
C2671 C2670 1.327 . S
C2671 C2675 1.429 . S
C2672 C2655 1.574 . S
C2672 H2666 0.949 . S
C2672 C2676 1.368 . S
C2673 C2654 1.429 . S
C2673 C2667 1.429 . S
C2673 C2674 1.523 . S
C2674 C2655 1.368 . S
C2674 C2668 1.368 . S
C2674 C2673 1.523 . S
C2675 C2659 1.429 . S
C2675 C2671 1.429 . S
C2675 C2676 1.523 . S
C2676 C2660 1.368 . S
C2676 C2672 1.368 . S
C2676 C2675 1.523 . S
H2677 C2652 0.950 . S
H2678 C2654 0.950 . S
H2679 C2655 0.949 . S
H2680 C2657 0.950 . S
H2681 C2659 0.950 . S
C2682 C2683 1.349 . S
C2682 C2684 1.327 1_545 S
C2682 H2707 0.950 . S
C2683 C2682 1.349 . S
C2683 C2699 1.349 1_545 S
C2684 C2682 1.327 1_565 S
C2684 C2703 1.429 . S
C2684 H2708 0.950 . S
C2685 C2702 1.574 . S
C2685 C2704 1.368 . S
C2685 H2709 0.949 . S
H2686 C2690 0.949 . S
C2687 C2688 1.349 . S
C2687 C2689 1.327 . S
C2687 H2710 0.950 . S
C2688 C2687 1.349 . S
C2688 C2700 1.349 . S
C2689 C2687 1.327 . S
C2689 C2705 1.429 . S
C2689 H2711 0.950 . S
C2690 H2686 0.949 . S
C2690 C2698 1.574 . S
C2690 C2706 1.368 . S
H2691 C2699 0.950 . S
H2692 C2697 0.950 . S
H2693 C2698 0.949 . S
H2694 C2700 0.950 . S
H2695 C2701 0.950 . S
H2696 C2702 0.949 . S
C2697 H2692 0.950 . S
C2697 C2699 1.327 . S
C2697 C2703 1.429 . S
C2698 C2690 1.574 . S
C2698 H2693 0.949 . S
C2698 C2704 1.368 . S
C2699 C2683 1.349 1_565 S
C2699 H2691 0.950 . S
C2699 C2697 1.327 . S
C2700 C2688 1.349 . S
C2700 H2694 0.950 . S
C2700 C2701 1.327 . S
C2701 H2695 0.950 . S
C2701 C2700 1.327 . S
C2701 C2705 1.429 . S
C2702 C2685 1.574 . S
C2702 H2696 0.949 . S
C2702 C2706 1.368 . S
C2703 C2684 1.429 . S
C2703 C2697 1.429 . S
C2703 C2704 1.523 . S
C2704 C2685 1.368 . S
C2704 C2698 1.368 . S
C2704 C2703 1.523 . S
C2705 C2689 1.429 . S
C2705 C2701 1.429 . S
C2705 C2706 1.523 . S
C2706 C2690 1.368 . S
C2706 C2702 1.368 . S
C2706 C2705 1.523 . S
H2707 C2682 0.950 . S
H2708 C2684 0.950 . S
H2709 C2685 0.949 . S
H2710 C2687 0.950 . S
H2711 C2689 0.950 . S
C2712 C2713 1.349 . S
C2712 C2714 1.327 . S
C2712 H2737 0.950 . S
C2713 C2712 1.349 . S
C2713 C2729 1.349 . S
C2714 C2712 1.327 . S
C2714 C2733 1.429 . S
C2714 H2738 0.950 . S
C2715 C2732 1.574 . S
C2715 C2734 1.368 . S
C2715 H2739 0.949 . S
H2716 C2720 0.949 . S
C2717 C2718 1.349 1_545 S
C2717 C2719 1.327 . S
C2717 H2740 0.950 . S
C2718 C2717 1.349 1_565 S
C2718 C2730 1.349 . S
C2719 C2717 1.327 . S
C2719 C2735 1.429 . S
C2719 H2741 0.950 . S
C2720 H2716 0.949 . S
C2720 C2728 1.574 . S
C2720 C2736 1.368 . S
H2721 C2729 0.950 . S
H2722 C2727 0.950 . S
H2723 C2728 0.949 . S
H2724 C2730 0.950 . S
H2725 C2731 0.950 . S
H2726 C2732 0.949 . S
C2727 H2722 0.950 . S
C2727 C2729 1.327 . S
C2727 C2733 1.429 . S
C2728 C2720 1.574 . S
C2728 H2723 0.949 . S
C2728 C2734 1.368 . S
C2729 C2713 1.349 . S
C2729 H2721 0.950 . S
C2729 C2727 1.327 . S
C2730 C2718 1.349 . S
C2730 H2724 0.950 . S
C2730 C2731 1.327 1_565 S
C2731 H2725 0.950 . S
C2731 C2730 1.327 1_545 S
C2731 C2735 1.429 . S
C2732 C2715 1.574 . S
C2732 H2726 0.949 . S
C2732 C2736 1.368 . S
C2733 C2714 1.429 . S
C2733 C2727 1.429 . S
C2733 C2734 1.523 . S
C2734 C2715 1.368 . S
C2734 C2728 1.368 . S
C2734 C2733 1.523 . S
C2735 C2719 1.429 . S
C2735 C2731 1.429 . S
C2735 C2736 1.523 . S
C2736 C2720 1.368 . S
C2736 C2732 1.368 . S
C2736 C2735 1.523 . S
H2737 C2712 0.950 . S
H2738 C2714 0.950 . S
H2739 C2715 0.949 . S
H2740 C2717 0.950 . S
H2741 C2719 0.950 . S
C2742 C2743 1.349 . S
C2742 C2744 1.327 . S
C2742 H2767 0.950 . S
C2743 C2742 1.349 . S
C2743 C2759 1.349 . S
C2744 C2742 1.327 . S
C2744 C2763 1.429 . S
C2744 H2768 0.950 . S
C2745 C2762 1.574 . S
C2745 C2764 1.368 . S
C2745 H2769 0.949 . S
H2746 C2750 0.949 . S
C2747 C2748 1.349 . S
C2747 C2749 1.327 . S
C2747 H2770 0.950 . S
C2748 C2747 1.349 . S
C2748 C2760 1.349 . S
C2749 C2747 1.327 . S
C2749 C2765 1.429 . S
C2749 H2771 0.950 . S
C2750 H2746 0.949 . S
C2750 C2758 1.574 . S
C2750 C2766 1.368 . S
H2751 C2759 0.950 . S
H2752 C2757 0.950 . S
H2753 C2758 0.949 . S
H2754 C2760 0.950 . S
H2755 C2761 0.950 . S
H2756 C2762 0.949 . S
C2757 H2752 0.950 . S
C2757 C2759 1.327 . S
C2757 C2763 1.429 . S
C2758 C2750 1.574 . S
C2758 H2753 0.949 . S
C2758 C2764 1.368 . S
C2759 C2743 1.349 . S
C2759 H2751 0.950 . S
C2759 C2757 1.327 . S
C2760 C2748 1.349 . S
C2760 H2754 0.950 . S
C2760 C2761 1.327 . S
C2761 H2755 0.950 . S
C2761 C2760 1.327 . S
C2761 C2765 1.429 . S
C2762 C2745 1.574 . S
C2762 H2756 0.949 . S
C2762 C2766 1.368 . S
C2763 C2744 1.429 . S
C2763 C2757 1.429 . S
C2763 C2764 1.523 . S
C2764 C2745 1.368 . S
C2764 C2758 1.368 . S
C2764 C2763 1.523 . S
C2765 C2749 1.429 . S
C2765 C2761 1.429 . S
C2765 C2766 1.523 . S
C2766 C2750 1.368 . S
C2766 C2762 1.368 . S
C2766 C2765 1.523 . S
H2767 C2742 0.950 . S
H2768 C2744 0.950 . S
H2769 C2745 0.949 . S
H2770 C2747 0.950 . S
H2771 C2749 0.950 . S
C2772 C2773 1.349 . S
C2772 C2774 1.327 . S
C2772 H2797 0.950 . S
C2773 C2772 1.349 . S
C2773 C2789 1.349 . S
C2774 C2772 1.327 . S
C2774 C2793 1.429 . S
C2774 H2798 0.950 . S
C2775 C2792 1.574 . S
C2775 C2794 1.368 . S
C2775 H2799 0.949 . S
H2776 C2780 0.949 . S
C2777 C2778 1.349 . S
C2777 C2779 1.327 . S
C2777 H2800 0.950 . S
C2778 C2777 1.349 . S
C2778 C2790 1.349 . S
C2779 C2777 1.327 . S
C2779 C2795 1.429 . S
C2779 H2801 0.950 . S
C2780 H2776 0.949 . S
C2780 C2788 1.574 . S
C2780 C2796 1.368 . S
H2781 C2789 0.950 . S
H2782 C2787 0.950 . S
H2783 C2788 0.949 . S
H2784 C2790 0.950 . S
H2785 C2791 0.950 . S
H2786 C2792 0.949 . S
C2787 H2782 0.950 . S
C2787 C2789 1.327 . S
C2787 C2793 1.429 . S
C2788 C2780 1.574 . S
C2788 H2783 0.949 . S
C2788 C2794 1.368 . S
C2789 C2773 1.349 . S
C2789 H2781 0.950 . S
C2789 C2787 1.327 . S
C2790 C2778 1.349 . S
C2790 H2784 0.950 . S
C2790 C2791 1.327 . S
C2791 H2785 0.950 . S
C2791 C2790 1.327 . S
C2791 C2795 1.429 . S
C2792 C2775 1.574 . S
C2792 H2786 0.949 . S
C2792 C2796 1.368 . S
C2793 C2774 1.429 . S
C2793 C2787 1.429 . S
C2793 C2794 1.523 . S
C2794 C2775 1.368 . S
C2794 C2788 1.368 . S
C2794 C2793 1.523 . S
C2795 C2779 1.429 . S
C2795 C2791 1.429 . S
C2795 C2796 1.523 . S
C2796 C2780 1.368 . S
C2796 C2792 1.368 . S
C2796 C2795 1.523 . S
H2797 C2772 0.950 . S
H2798 C2774 0.950 . S
H2799 C2775 0.949 . S
H2800 C2777 0.950 . S
H2801 C2779 0.950 . S
C2802 C2803 1.349 . S
C2802 C2804 1.327 . S
C2802 H2827 0.950 . S
C2803 C2802 1.349 . S
C2803 C2819 1.349 . S
C2804 C2802 1.327 . S
C2804 C2823 1.429 . S
C2804 H2828 0.950 . S
C2805 C2822 1.574 . S
C2805 C2824 1.368 . S
C2805 H2829 0.949 . S
H2806 C2810 0.949 . S
C2807 C2808 1.349 . S
C2807 C2809 1.327 1_565 S
C2807 H2830 0.950 . S
C2808 C2807 1.349 . S
C2808 C2820 1.349 1_565 S
C2809 C2807 1.327 1_545 S
C2809 C2825 1.429 . S
C2809 H2831 0.950 . S
C2810 H2806 0.949 . S
C2810 C2818 1.574 . S
C2810 C2826 1.368 . S
H2811 C2819 0.950 . S
H2812 C2817 0.950 . S
H2813 C2818 0.949 . S
H2814 C2820 0.950 1_565 S
H2815 C2821 0.950 . S
H2816 C2822 0.949 . S
C2817 H2812 0.950 . S
C2817 C2819 1.327 . S
C2817 C2823 1.429 . S
C2818 C2810 1.574 . S
C2818 H2813 0.949 . S
C2818 C2824 1.368 . S
C2819 C2803 1.349 . S
C2819 H2811 0.950 . S
C2819 C2817 1.327 . S
C2820 C2808 1.349 1_545 S
C2820 H2814 0.950 1_545 S
C2820 C2821 1.327 . S
C2821 H2815 0.950 . S
C2821 C2820 1.327 . S
C2821 C2825 1.429 . S
C2822 C2805 1.574 . S
C2822 H2816 0.949 . S
C2822 C2826 1.368 . S
C2823 C2804 1.429 . S
C2823 C2817 1.429 . S
C2823 C2824 1.523 . S
C2824 C2805 1.368 . S
C2824 C2818 1.368 . S
C2824 C2823 1.523 . S
C2825 C2809 1.429 . S
C2825 C2821 1.429 . S
C2825 C2826 1.523 . S
C2826 C2810 1.368 . S
C2826 C2822 1.368 . S
C2826 C2825 1.523 . S
H2827 C2802 0.950 . S
H2828 C2804 0.950 . S
H2829 C2805 0.949 . S
H2830 C2807 0.950 . S
H2831 C2809 0.950 . S
C2832 C2833 1.349 . S
C2832 C2834 1.327 . S
C2832 H2857 0.950 . S
C2833 C2832 1.349 . S
C2833 C2849 1.349 . S
C2834 C2832 1.327 . S
C2834 C2853 1.429 . S
C2834 H2858 0.950 . S
C2835 C2852 1.574 . S
C2835 C2854 1.368 . S
C2835 H2859 0.949 . S
H2836 C2840 0.949 . S
C2837 C2838 1.349 1_565 S
C2837 C2839 1.327 . S
C2837 H2860 0.950 . S
C2838 C2837 1.349 1_545 S
C2838 C2850 1.349 . S
C2839 C2837 1.327 . S
C2839 C2855 1.429 . S
C2839 H2861 0.950 . S
C2840 H2836 0.949 . S
C2840 C2848 1.574 . S
C2840 C2856 1.368 . S
H2841 C2849 0.950 . S
H2842 C2847 0.950 . S
H2843 C2848 0.949 . S
H2844 C2850 0.950 . S
H2845 C2851 0.950 . S
H2846 C2852 0.949 . S
C2847 H2842 0.950 . S
C2847 C2849 1.327 . S
C2847 C2853 1.429 . S
C2848 C2840 1.574 . S
C2848 H2843 0.949 . S
C2848 C2854 1.368 . S
C2849 C2833 1.349 . S
C2849 H2841 0.950 . S
C2849 C2847 1.327 . S
C2850 C2838 1.349 . S
C2850 H2844 0.950 . S
C2850 C2851 1.327 1_545 S
C2851 H2845 0.950 . S
C2851 C2850 1.327 1_565 S
C2851 C2855 1.429 . S
C2852 C2835 1.574 . S
C2852 H2846 0.949 . S
C2852 C2856 1.368 . S
C2853 C2834 1.429 . S
C2853 C2847 1.429 . S
C2853 C2854 1.523 . S
C2854 C2835 1.368 . S
C2854 C2848 1.368 . S
C2854 C2853 1.523 . S
C2855 C2839 1.429 . S
C2855 C2851 1.429 . S
C2855 C2856 1.523 . S
C2856 C2840 1.368 . S
C2856 C2852 1.368 . S
C2856 C2855 1.523 . S
H2857 C2832 0.950 . S
H2858 C2834 0.950 . S
H2859 C2835 0.949 . S
H2860 C2837 0.950 . S
H2861 C2839 0.950 . S
C2862 C2863 1.349 . S
C2862 C2864 1.327 . S
C2862 H2887 0.950 . S
C2863 C2862 1.349 . S
C2863 C2879 1.349 . S
C2864 C2862 1.327 . S
C2864 C2883 1.429 . S
C2864 H2888 0.950 . S
C2865 C2882 1.574 . S
C2865 C2884 1.368 . S
C2865 H2889 0.949 . S
H2866 C2870 0.949 . S
C2867 C2868 1.349 . S
C2867 C2869 1.327 . S
C2867 H2890 0.950 . S
C2868 C2867 1.349 . S
C2868 C2880 1.349 . S
C2869 C2867 1.327 . S
C2869 C2885 1.429 . S
C2869 H2891 0.950 . S
C2870 H2866 0.949 . S
C2870 C2878 1.574 . S
C2870 C2886 1.368 . S
H2871 C2879 0.950 . S
H2872 C2877 0.950 . S
H2873 C2878 0.949 . S
H2874 C2880 0.950 . S
H2875 C2881 0.950 . S
H2876 C2882 0.949 . S
C2877 H2872 0.950 . S
C2877 C2879 1.327 . S
C2877 C2883 1.429 . S
C2878 C2870 1.574 . S
C2878 H2873 0.949 . S
C2878 C2884 1.368 . S
C2879 C2863 1.349 . S
C2879 H2871 0.950 . S
C2879 C2877 1.327 . S
C2880 C2868 1.349 . S
C2880 H2874 0.950 . S
C2880 C2881 1.327 . S
C2881 H2875 0.950 . S
C2881 C2880 1.327 . S
C2881 C2885 1.429 . S
C2882 C2865 1.574 . S
C2882 H2876 0.949 . S
C2882 C2886 1.368 . S
C2883 C2864 1.429 . S
C2883 C2877 1.429 . S
C2883 C2884 1.523 . S
C2884 C2865 1.368 . S
C2884 C2878 1.368 . S
C2884 C2883 1.523 . S
C2885 C2869 1.429 . S
C2885 C2881 1.429 . S
C2885 C2886 1.523 . S
C2886 C2870 1.368 . S
C2886 C2882 1.368 . S
C2886 C2885 1.523 . S
H2887 C2862 0.950 . S
H2888 C2864 0.950 . S
H2889 C2865 0.949 . S
H2890 C2867 0.950 . S
H2891 C2869 0.950 . S
C2892 C2893 1.349 . S
C2892 C2894 1.327 . S
C2892 H2917 0.950 . S
C2893 C2892 1.349 . S
C2893 C2909 1.349 . S
C2894 C2892 1.327 . S
C2894 C2913 1.429 . S
C2894 H2918 0.950 . S
C2895 C2912 1.574 . S
C2895 C2914 1.368 . S
C2895 H2919 0.949 . S
H2896 C2900 0.949 . S
C2897 C2898 1.349 . S
C2897 C2899 1.327 . S
C2897 H2920 0.950 . S
C2898 C2897 1.349 . S
C2898 C2910 1.349 . S
C2899 C2897 1.327 . S
C2899 C2915 1.429 . S
C2899 H2921 0.950 . S
C2900 H2896 0.949 . S
C2900 C2908 1.574 . S
C2900 C2916 1.368 . S
H2901 C2909 0.950 . S
H2902 C2907 0.950 . S
H2903 C2908 0.949 . S
H2904 C2910 0.950 . S
H2905 C2911 0.950 . S
H2906 C2912 0.949 . S
C2907 H2902 0.950 . S
C2907 C2909 1.327 . S
C2907 C2913 1.429 . S
C2908 C2900 1.574 . S
C2908 H2903 0.949 . S
C2908 C2914 1.368 . S
C2909 C2893 1.349 . S
C2909 H2901 0.950 . S
C2909 C2907 1.327 . S
C2910 C2898 1.349 . S
C2910 H2904 0.950 . S
C2910 C2911 1.327 . S
C2911 H2905 0.950 . S
C2911 C2910 1.327 . S
C2911 C2915 1.429 . S
C2912 C2895 1.574 . S
C2912 H2906 0.949 . S
C2912 C2916 1.368 . S
C2913 C2894 1.429 . S
C2913 C2907 1.429 . S
C2913 C2914 1.523 . S
C2914 C2895 1.368 . S
C2914 C2908 1.368 . S
C2914 C2913 1.523 . S
C2915 C2899 1.429 . S
C2915 C2911 1.429 . S
C2915 C2916 1.523 . S
C2916 C2900 1.368 . S
C2916 C2912 1.368 . S
C2916 C2915 1.523 . S
H2917 C2892 0.950 . S
H2918 C2894 0.950 . S
H2919 C2895 0.949 . S
H2920 C2897 0.950 . S
H2921 C2899 0.950 . S
C2922 C2923 1.349 . S
C2922 C2924 1.327 1_545 S
C2922 H2947 0.950 . S
C2923 C2922 1.349 . S
C2923 C2939 1.349 1_545 S
C2924 C2922 1.327 1_565 S
C2924 C2943 1.429 . S
C2924 H2948 0.950 . S
C2925 C2942 1.574 . S
C2925 C2944 1.368 . S
C2925 H2949 0.949 . S
H2926 C2930 0.949 . S
C2927 C2928 1.349 . S
C2927 C2929 1.327 . S
C2927 H2950 0.950 . S
C2928 C2927 1.349 . S
C2928 C2940 1.349 . S
C2929 C2927 1.327 . S
C2929 C2945 1.429 . S
C2929 H2951 0.950 . S
C2930 H2926 0.949 . S
C2930 C2938 1.574 . S
C2930 C2946 1.368 . S
H2931 C2939 0.950 . S
H2932 C2937 0.950 . S
H2933 C2938 0.949 . S
H2934 C2940 0.950 . S
H2935 C2941 0.950 . S
H2936 C2942 0.949 . S
C2937 H2932 0.950 . S
C2937 C2939 1.327 . S
C2937 C2943 1.429 . S
C2938 C2930 1.574 . S
C2938 H2933 0.949 . S
C2938 C2944 1.368 . S
C2939 C2923 1.349 1_565 S
C2939 H2931 0.950 . S
C2939 C2937 1.327 . S
C2940 C2928 1.349 . S
C2940 H2934 0.950 . S
C2940 C2941 1.327 . S
C2941 H2935 0.950 . S
C2941 C2940 1.327 . S
C2941 C2945 1.429 . S
C2942 C2925 1.574 . S
C2942 H2936 0.949 . S
C2942 C2946 1.368 . S
C2943 C2924 1.429 . S
C2943 C2937 1.429 . S
C2943 C2944 1.523 . S
C2944 C2925 1.368 . S
C2944 C2938 1.368 . S
C2944 C2943 1.523 . S
C2945 C2929 1.429 . S
C2945 C2941 1.429 . S
C2945 C2946 1.523 . S
C2946 C2930 1.368 . S
C2946 C2942 1.368 . S
C2946 C2945 1.523 . S
H2947 C2922 0.950 . S
H2948 C2924 0.950 . S
H2949 C2925 0.949 . S
H2950 C2927 0.950 . S
H2951 C2929 0.950 . S
C2952 C2953 1.349 . S
C2952 C2954 1.327 . S
C2952 H2977 0.950 . S
C2953 C2952 1.349 . S
C2953 C2969 1.349 . S
C2954 C2952 1.327 . S
C2954 C2973 1.429 . S
C2954 H2978 0.950 . S
C2955 C2972 1.574 . S
C2955 C2974 1.368 . S
C2955 H2979 0.949 . S
H2956 C2960 0.949 . S
C2957 C2958 1.349 1_545 S
C2957 C2959 1.327 . S
C2957 H2980 0.950 . S
C2958 C2957 1.349 1_565 S
C2958 C2970 1.349 . S
C2959 C2957 1.327 . S
C2959 C2975 1.429 . S
C2959 H2981 0.950 . S
C2960 H2956 0.949 . S
C2960 C2968 1.574 . S
C2960 C2976 1.368 . S
H2961 C2969 0.950 . S
H2962 C2967 0.950 . S
H2963 C2968 0.949 . S
H2964 C2970 0.950 . S
H2965 C2971 0.950 . S
H2966 C2972 0.949 . S
C2967 H2962 0.950 . S
C2967 C2969 1.327 . S
C2967 C2973 1.429 . S
C2968 C2960 1.574 . S
C2968 H2963 0.949 . S
C2968 C2974 1.368 . S
C2969 C2953 1.349 . S
C2969 H2961 0.950 . S
C2969 C2967 1.327 . S
C2970 C2958 1.349 . S
C2970 H2964 0.950 . S
C2970 C2971 1.327 1_565 S
C2971 H2965 0.950 . S
C2971 C2970 1.327 1_545 S
C2971 C2975 1.429 . S
C2972 C2955 1.574 . S
C2972 H2966 0.949 . S
C2972 C2976 1.368 . S
C2973 C2954 1.429 . S
C2973 C2967 1.429 . S
C2973 C2974 1.523 . S
C2974 C2955 1.368 . S
C2974 C2968 1.368 . S
C2974 C2973 1.523 . S
C2975 C2959 1.429 . S
C2975 C2971 1.429 . S
C2975 C2976 1.523 . S
C2976 C2960 1.368 . S
C2976 C2972 1.368 . S
C2976 C2975 1.523 . S
H2977 C2952 0.950 . S
H2978 C2954 0.950 . S
H2979 C2955 0.949 . S
H2980 C2957 0.950 . S
H2981 C2959 0.950 . S
C2982 C2983 1.349 . S
C2982 C2984 1.327 . S
C2982 H3007 0.950 . S
C2983 C2982 1.349 . S
C2983 C2999 1.349 . S
C2984 C2982 1.327 . S
C2984 C3003 1.429 . S
C2984 H3008 0.950 . S
C2985 C3002 1.574 . S
C2985 C3004 1.368 . S
C2985 H3009 0.949 . S
H2986 C2990 0.949 . S
C2987 C2988 1.349 . S
C2987 C2989 1.327 . S
C2987 H3010 0.950 . S
C2988 C2987 1.349 . S
C2988 C3000 1.349 . S
C2989 C2987 1.327 . S
C2989 C3005 1.429 . S
C2989 H3011 0.950 . S
C2990 H2986 0.949 . S
C2990 C2998 1.574 . S
C2990 C3006 1.368 . S
H2991 C2999 0.950 . S
H2992 C2997 0.950 . S
H2993 C2998 0.949 . S
H2994 C3000 0.950 . S
H2995 C3001 0.950 . S
H2996 C3002 0.949 . S
C2997 H2992 0.950 . S
C2997 C2999 1.327 . S
C2997 C3003 1.429 . S
C2998 C2990 1.574 . S
C2998 H2993 0.949 . S
C2998 C3004 1.368 . S
C2999 C2983 1.349 . S
C2999 H2991 0.950 . S
C2999 C2997 1.327 . S
C3000 C2988 1.349 . S
C3000 H2994 0.950 . S
C3000 C3001 1.327 . S
C3001 H2995 0.950 . S
C3001 C3000 1.327 . S
C3001 C3005 1.429 . S
C3002 C2985 1.574 . S
C3002 H2996 0.949 . S
C3002 C3006 1.368 . S
C3003 C2984 1.429 . S
C3003 C2997 1.429 . S
C3003 C3004 1.523 . S
C3004 C2985 1.368 . S
C3004 C2998 1.368 . S
C3004 C3003 1.523 . S
C3005 C2989 1.429 . S
C3005 C3001 1.429 . S
C3005 C3006 1.523 . S
C3006 C2990 1.368 . S
C3006 C3002 1.368 . S
C3006 C3005 1.523 . S
H3007 C2982 0.950 . S
H3008 C2984 0.950 . S
H3009 C2985 0.949 . S
H3010 C2987 0.950 . S
H3011 C2989 0.950 . S
C3012 C3013 1.349 . S
C3012 C3014 1.327 . S
C3012 H3037 0.950 . S
C3013 C3012 1.349 . S
C3013 C3029 1.349 . S
C3014 C3012 1.327 . S
C3014 C3033 1.429 . S
C3014 H3038 0.950 . S
C3015 C3032 1.574 . S
C3015 C3034 1.368 . S
C3015 H3039 0.949 . S
H3016 C3020 0.949 . S
C3017 C3018 1.349 . S
C3017 C3019 1.327 . S
C3017 H3040 0.950 . S
C3018 C3017 1.349 . S
C3018 C3030 1.349 . S
C3019 C3017 1.327 . S
C3019 C3035 1.429 . S
C3019 H3041 0.950 . S
C3020 H3016 0.949 . S
C3020 C3028 1.574 . S
C3020 C3036 1.368 . S
H3021 C3029 0.950 . S
H3022 C3027 0.950 . S
H3023 C3028 0.949 . S
H3024 C3030 0.950 . S
H3025 C3031 0.950 . S
H3026 C3032 0.949 . S
C3027 H3022 0.950 . S
C3027 C3029 1.327 . S
C3027 C3033 1.429 . S
C3028 C3020 1.574 . S
C3028 H3023 0.949 . S
C3028 C3034 1.368 . S
C3029 C3013 1.349 . S
C3029 H3021 0.950 . S
C3029 C3027 1.327 . S
C3030 C3018 1.349 . S
C3030 H3024 0.950 . S
C3030 C3031 1.327 . S
C3031 H3025 0.950 . S
C3031 C3030 1.327 . S
C3031 C3035 1.429 . S
C3032 C3015 1.574 . S
C3032 H3026 0.949 . S
C3032 C3036 1.368 . S
C3033 C3014 1.429 . S
C3033 C3027 1.429 . S
C3033 C3034 1.523 . S
C3034 C3015 1.368 . S
C3034 C3028 1.368 . S
C3034 C3033 1.523 . S
C3035 C3019 1.429 . S
C3035 C3031 1.429 . S
C3035 C3036 1.523 . S
C3036 C3020 1.368 . S
C3036 C3032 1.368 . S
C3036 C3035 1.523 . S
H3037 C3012 0.950 . S
H3038 C3014 0.950 . S
H3039 C3015 0.949 . S
H3040 C3017 0.950 . S
H3041 C3019 0.950 . S
C3042 C3043 1.349 1_545 S
C3042 C3044 1.327 . S
C3042 H3067 0.950 . S
C3043 C3042 1.349 1_565 S
C3043 C3059 1.349 . S
C3044 C3042 1.327 . S
C3044 C3063 1.429 . S
C3044 H3068 0.950 . S
C3045 C3062 1.574 . S
C3045 C3064 1.368 . S
C3045 H3069 0.949 . S
H3046 C3050 0.949 . S
C3047 C3048 1.349 . S
C3047 C3049 1.327 . S
C3047 H3070 0.950 . S
C3048 C3047 1.349 . S
C3048 C3060 1.349 . S
C3049 C3047 1.327 . S
C3049 C3065 1.429 . S
C3049 H3071 0.950 . S
C3050 H3046 0.949 . S
C3050 C3058 1.574 . S
C3050 C3066 1.368 . S
H3051 C3059 0.950 . S
H3052 C3057 0.950 . S
H3053 C3058 0.949 . S
H3054 C3060 0.950 . S
H3055 C3061 0.950 . S
H3056 C3062 0.949 . S
C3057 H3052 0.950 . S
C3057 C3059 1.327 1_545 S
C3057 C3063 1.429 . S
C3058 C3050 1.574 . S
C3058 H3053 0.949 . S
C3058 C3064 1.368 . S
C3059 C3043 1.349 . S
C3059 H3051 0.950 . S
C3059 C3057 1.327 1_565 S
C3060 C3048 1.349 . S
C3060 H3054 0.950 . S
C3060 C3061 1.327 . S
C3061 H3055 0.950 . S
C3061 C3060 1.327 . S
C3061 C3065 1.429 . S
C3062 C3045 1.574 . S
C3062 H3056 0.949 . S
C3062 C3066 1.368 . S
C3063 C3044 1.429 . S
C3063 C3057 1.429 . S
C3063 C3064 1.523 . S
C3064 C3045 1.368 . S
C3064 C3058 1.368 . S
C3064 C3063 1.523 . S
C3065 C3049 1.429 . S
C3065 C3061 1.429 . S
C3065 C3066 1.523 . S
C3066 C3050 1.368 . S
C3066 C3062 1.368 . S
C3066 C3065 1.523 . S
H3067 C3042 0.950 . S
H3068 C3044 0.950 . S
H3069 C3045 0.949 . S
H3070 C3047 0.950 . S
H3071 C3049 0.950 . S
C1153 C4 1.370 . S
C1158 C40 1.370 . S
C1183 C112 1.370 . S
C1188 C76 1.370 . S
C1213 C148 1.370 . S
C1218 C184 1.370 . S
C1243 C220 1.370 . S
C1248 C256 1.370 . S
C1273 C292 1.370 . S
C1278 C328 1.370 . S
C1303 C364 1.370 . S
C1308 C400 1.370 . S
C1333 C436 1.370 . S
C1338 C472 1.370 . S
C1363 C508 1.370 . S
C1368 C544 1.370 . S
C1393 C616 1.370 . S
C1398 C580 1.370 . S
C1423 C688 1.370 . S
C1428 C652 1.370 . S
C1453 C760 1.370 . S
C1458 C724 1.370 . S
C1483 C832 1.370 . S
C1488 C796 1.370 . S
C1513 C904 1.370 . S
C1518 C868 1.370 . S
C1543 C976 1.370 . S
C1548 C940 1.370 . S
C1573 C1048 1.370 . S
C1578 C1012 1.370 . S
C1603 C1120 1.370 . S
C1608 C1084 1.370 . S
C1633 C3 1.333 . S
C1638 C435 1.333 . S
C1663 C39 1.333 . S
C1668 C759 1.333 . S
C1693 C75 1.332 . S
C1698 C219 1.332 . S
C1723 C111 1.333 . S
C1728 C1119 1.333 . S
C1753 C147 1.333 . S
C1758 C291 1.333 . S
C1783 C615 1.333 . S
C1788 C183 1.333 . S
C1813 C975 1.333 . S
C1818 C255 1.333 . S
C1843 C327 1.333 . S
C1848 C1047 1.333 . S
C1873 C363 1.332 . S
C1878 C507 1.332 . S
C1903 C399 1.333 . S
C1908 C831 1.333 . S
C1933 C471 1.333 . S
C1938 C903 1.333 . S
C1963 C543 1.333 . S
C1968 C687 1.333 . S
C1993 C1011 1.333 . S
C1998 C579 1.333 . S
C2023 C795 1.333 . S
C2028 C651 1.333 . S
C2053 C723 1.333 . S
C2058 C867 1.333 . S
C2083 C1083 1.333 . S
C2088 C939 1.333 . S
C2113 C362 0.739 . S
C2118 C2 0.739 . S
C2143 C398 0.739 . S
C2148 C38 0.739 . S
C2173 C74 0.739 . S
C2178 C290 0.739 . S
C2203 C326 0.739 . S
C2208 C110 0.739 . S
C2233 C146 0.739 . S
C2238 C506 0.739 . S
C2263 C182 0.739 . S
C2268 C542 0.739 . S
C2293 C434 0.739 . S
C2298 C218 0.739 . S
C2323 C470 0.739 . S
C2328 C254 0.739 . S
C2353 C578 0.738 . S
C2358 C938 0.738 . S
C2383 C974 0.738 . S
C2388 C614 0.738 . S
C2413 C866 0.738 . S
C2418 C650 0.738 . S
C2443 C686 0.738 . S
C2448 C902 0.738 . S
C2473 C1082 0.738 . S
C2478 C722 0.738 . S
C2503 C758 0.738 . S
C2508 C1118 0.738 . S
C2533 C1010 0.738 . S
C2538 C794 0.738 . S
C2563 C1046 0.738 . S
C2568 C830 0.738 . S
C2593 C374 1.398 . S
C2598 C14 1.398 . S
C2623 C410 1.398 . S
C2628 C50 1.398 . S
C2653 C302 1.398 . S
C2658 C86 1.398 . S
C2683 C122 1.398 . S
C2688 C338 1.398 . S
C2713 C518 1.398 . S
C2718 C158 1.398 . S
C2743 C554 1.398 . S
C2748 C194 1.398 . S
C2773 C446 1.398 . S
C2778 C230 1.398 . S
C2803 C482 1.398 . S
C2808 C266 1.398 . S
C2833 C950 1.398 . S
C2838 C590 1.398 . S
C2863 C986 1.398 . S
C2868 C626 1.398 . S
C2893 C878 1.398 . S
C2898 C662 1.398 . S
C2923 C698 1.398 . S
C2928 C914 1.398 . S
C2953 C1094 1.398 . S
C2958 C734 1.398 . S
C2983 C770 1.398 . S
C2988 C1130 1.398 . S
C3013 C1022 1.398 . S
C3018 C806 1.398 . S
C3043 C842 1.398 . S
C3048 C1058 1.398 . S
