# Generated by pormake.
# Topology vbi, (5)-cn, num edge types: 1
# Building blocks:
#     Node 0, Type 0, BuildingBlock: BEQFEK_clean_sbu_0, # of connection points: 5
#     Node 1, Type 0, BuildingBlock: BEQFEK_clean_sbu_0, # of connection points: 5
#     Node 2, Type 0, BuildingBlock: BEQFEK_clean_sbu_0, # of connection points: 5
#     Node 3, Type 0, BuildingBlock: BEQFEK_clean_sbu_0, # of connection points: 5
#     Node 4, Type 0, BuildingBlock: BEQFEK_clean_sbu_0, # of connection points: 5
#     Node 5, Type 0, BuildingBlock: BEQFEK_clean_sbu_0, # of connection points: 5
#     Node 6, Type 0, BuildingBlock: BEQFEK_clean_sbu_0, # of connection points: 5
#     Node 7, Type 0, BuildingBlock: BEQFEK_clean_sbu_0, # of connection points: 5
#     Node 8, Type 0, BuildingBlock: BEQFEK_clean_sbu_0, # of connection points: 5
#     Node 9, Type 0, BuildingBlock: BEQFEK_clean_sbu_0, # of connection points: 5
#     Node 10, Type 0, BuildingBlock: BEQFEK_clean_sbu_0, # of connection points: 5
#     Node 11, Type 0, BuildingBlock: BEQFEK_clean_sbu_0, # of connection points: 5
#     Node 12, Type 0, BuildingBlock: BEQFEK_clean_sbu_0, # of connection points: 5
#     Node 13, Type 0, BuildingBlock: BEQFEK_clean_sbu_0, # of connection points: 5
#     Node 14, Type 0, BuildingBlock: BEQFEK_clean_sbu_0, # of connection points: 5
#     Node 15, Type 0, BuildingBlock: BEQFEK_clean_sbu_0, # of connection points: 5
#     Node 16, Type 0, BuildingBlock: BEQFEK_clean_sbu_0, # of connection points: 5
#     Node 17, Type 0, BuildingBlock: BEQFEK_clean_sbu_0, # of connection points: 5
#     Node 18, Type 0, BuildingBlock: BEQFEK_clean_sbu_0, # of connection points: 5
#     Node 19, Type 0, BuildingBlock: BEQFEK_clean_sbu_0, # of connection points: 5
#     Node 20, Type 0, BuildingBlock: BEQFEK_clean_sbu_0, # of connection points: 5
#     Node 21, Type 0, BuildingBlock: BEQFEK_clean_sbu_0, # of connection points: 5
#     Node 22, Type 0, BuildingBlock: BEQFEK_clean_sbu_0, # of connection points: 5
#     Node 23, Type 0, BuildingBlock: BEQFEK_clean_sbu_0, # of connection points: 5
#     Node 24, Type 0, BuildingBlock: BEQFEK_clean_sbu_0, # of connection points: 5
#     Node 25, Type 0, BuildingBlock: BEQFEK_clean_sbu_0, # of connection points: 5
#     Node 26, Type 0, BuildingBlock: BEQFEK_clean_sbu_0, # of connection points: 5
#     Node 27, Type 0, BuildingBlock: BEQFEK_clean_sbu_0, # of connection points: 5
#     Node 28, Type 0, BuildingBlock: BEQFEK_clean_sbu_0, # of connection points: 5
#     Node 29, Type 0, BuildingBlock: BEQFEK_clean_sbu_0, # of connection points: 5
#     Node 30, Type 0, BuildingBlock: BEQFEK_clean_sbu_0, # of connection points: 5
#     Node 31, Type 0, BuildingBlock: BEQFEK_clean_sbu_0, # of connection points: 5
#     Edge 32, Type (0, 0), BuildingBlock: KIFKEQ_clean_linker_1, # of connection points: 2
#     Edge 33, Type (0, 0), BuildingBlock: KIFKEQ_clean_linker_1, # of connection points: 2
#     Edge 34, Type (0, 0), BuildingBlock: KIFKEQ_clean_linker_1, # of connection points: 2
#     Edge 35, Type (0, 0), BuildingBlock: KIFKEQ_clean_linker_1, # of connection points: 2
#     Edge 36, Type (0, 0), BuildingBlock: KIFKEQ_clean_linker_1, # of connection points: 2
#     Edge 37, Type (0, 0), BuildingBlock: KIFKEQ_clean_linker_1, # of connection points: 2
#     Edge 38, Type (0, 0), BuildingBlock: KIFKEQ_clean_linker_1, # of connection points: 2
#     Edge 39, Type (0, 0), BuildingBlock: KIFKEQ_clean_linker_1, # of connection points: 2
#     Edge 40, Type (0, 0), BuildingBlock: KIFKEQ_clean_linker_1, # of connection points: 2
#     Edge 41, Type (0, 0), BuildingBlock: KIFKEQ_clean_linker_1, # of connection points: 2
#     Edge 42, Type (0, 0), BuildingBlock: KIFKEQ_clean_linker_1, # of connection points: 2
#     Edge 43, Type (0, 0), BuildingBlock: KIFKEQ_clean_linker_1, # of connection points: 2
#     Edge 44, Type (0, 0), BuildingBlock: KIFKEQ_clean_linker_1, # of connection points: 2
#     Edge 45, Type (0, 0), BuildingBlock: KIFKEQ_clean_linker_1, # of connection points: 2
#     Edge 46, Type (0, 0), BuildingBlock: KIFKEQ_clean_linker_1, # of connection points: 2
#     Edge 47, Type (0, 0), BuildingBlock: KIFKEQ_clean_linker_1, # of connection points: 2
#     Edge 48, Type (0, 0), BuildingBlock: KIFKEQ_clean_linker_1, # of connection points: 2
#     Edge 49, Type (0, 0), BuildingBlock: KIFKEQ_clean_linker_1, # of connection points: 2
#     Edge 50, Type (0, 0), BuildingBlock: KIFKEQ_clean_linker_1, # of connection points: 2
#     Edge 51, Type (0, 0), BuildingBlock: KIFKEQ_clean_linker_1, # of connection points: 2
#     Edge 52, Type (0, 0), BuildingBlock: KIFKEQ_clean_linker_1, # of connection points: 2
#     Edge 53, Type (0, 0), BuildingBlock: KIFKEQ_clean_linker_1, # of connection points: 2
#     Edge 54, Type (0, 0), BuildingBlock: KIFKEQ_clean_linker_1, # of connection points: 2
#     Edge 55, Type (0, 0), BuildingBlock: KIFKEQ_clean_linker_1, # of connection points: 2
#     Edge 56, Type (0, 0), BuildingBlock: KIFKEQ_clean_linker_1, # of connection points: 2
#     Edge 57, Type (0, 0), BuildingBlock: KIFKEQ_clean_linker_1, # of connection points: 2
#     Edge 58, Type (0, 0), BuildingBlock: KIFKEQ_clean_linker_1, # of connection points: 2
#     Edge 59, Type (0, 0), BuildingBlock: KIFKEQ_clean_linker_1, # of connection points: 2
#     Edge 60, Type (0, 0), BuildingBlock: KIFKEQ_clean_linker_1, # of connection points: 2
#     Edge 61, Type (0, 0), BuildingBlock: KIFKEQ_clean_linker_1, # of connection points: 2
#     Edge 62, Type (0, 0), BuildingBlock: KIFKEQ_clean_linker_1, # of connection points: 2
#     Edge 63, Type (0, 0), BuildingBlock: KIFKEQ_clean_linker_1, # of connection points: 2
#     Edge 64, Type (0, 0), BuildingBlock: KIFKEQ_clean_linker_1, # of connection points: 2
#     Edge 65, Type (0, 0), BuildingBlock: KIFKEQ_clean_linker_1, # of connection points: 2
#     Edge 66, Type (0, 0), BuildingBlock: KIFKEQ_clean_linker_1, # of connection points: 2
#     Edge 67, Type (0, 0), BuildingBlock: KIFKEQ_clean_linker_1, # of connection points: 2
#     Edge 68, Type (0, 0), BuildingBlock: KIFKEQ_clean_linker_1, # of connection points: 2
#     Edge 69, Type (0, 0), BuildingBlock: KIFKEQ_clean_linker_1, # of connection points: 2
#     Edge 70, Type (0, 0), BuildingBlock: KIFKEQ_clean_linker_1, # of connection points: 2
#     Edge 71, Type (0, 0), BuildingBlock: KIFKEQ_clean_linker_1, # of connection points: 2
#     Edge 72, Type (0, 0), BuildingBlock: KIFKEQ_clean_linker_1, # of connection points: 2
#     Edge 73, Type (0, 0), BuildingBlock: KIFKEQ_clean_linker_1, # of connection points: 2
#     Edge 74, Type (0, 0), BuildingBlock: KIFKEQ_clean_linker_1, # of connection points: 2
#     Edge 75, Type (0, 0), BuildingBlock: KIFKEQ_clean_linker_1, # of connection points: 2
#     Edge 76, Type (0, 0), BuildingBlock: KIFKEQ_clean_linker_1, # of connection points: 2
#     Edge 77, Type (0, 0), BuildingBlock: KIFKEQ_clean_linker_1, # of connection points: 2
#     Edge 78, Type (0, 0), BuildingBlock: KIFKEQ_clean_linker_1, # of connection points: 2
#     Edge 79, Type (0, 0), BuildingBlock: KIFKEQ_clean_linker_1, # of connection points: 2
#     Edge 80, Type (0, 0), BuildingBlock: KIFKEQ_clean_linker_1, # of connection points: 2
#     Edge 81, Type (0, 0), BuildingBlock: KIFKEQ_clean_linker_1, # of connection points: 2
#     Edge 82, Type (0, 0), BuildingBlock: KIFKEQ_clean_linker_1, # of connection points: 2
#     Edge 83, Type (0, 0), BuildingBlock: KIFKEQ_clean_linker_1, # of connection points: 2
#     Edge 84, Type (0, 0), BuildingBlock: KIFKEQ_clean_linker_1, # of connection points: 2
#     Edge 85, Type (0, 0), BuildingBlock: KIFKEQ_clean_linker_1, # of connection points: 2
#     Edge 86, Type (0, 0), BuildingBlock: KIFKEQ_clean_linker_1, # of connection points: 2
#     Edge 87, Type (0, 0), BuildingBlock: KIFKEQ_clean_linker_1, # of connection points: 2
#     Edge 88, Type (0, 0), BuildingBlock: KIFKEQ_clean_linker_1, # of connection points: 2
#     Edge 89, Type (0, 0), BuildingBlock: KIFKEQ_clean_linker_1, # of connection points: 2
#     Edge 90, Type (0, 0), BuildingBlock: KIFKEQ_clean_linker_1, # of connection points: 2
#     Edge 91, Type (0, 0), BuildingBlock: KIFKEQ_clean_linker_1, # of connection points: 2
#     Edge 92, Type (0, 0), BuildingBlock: KIFKEQ_clean_linker_1, # of connection points: 2
#     Edge 93, Type (0, 0), BuildingBlock: KIFKEQ_clean_linker_1, # of connection points: 2
#     Edge 94, Type (0, 0), BuildingBlock: KIFKEQ_clean_linker_1, # of connection points: 2
#     Edge 95, Type (0, 0), BuildingBlock: KIFKEQ_clean_linker_1, # of connection points: 2
#     Edge 96, Type (0, 0), BuildingBlock: KIFKEQ_clean_linker_1, # of connection points: 2
#     Edge 97, Type (0, 0), BuildingBlock: KIFKEQ_clean_linker_1, # of connection points: 2
#     Edge 98, Type (0, 0), BuildingBlock: KIFKEQ_clean_linker_1, # of connection points: 2
#     Edge 99, Type (0, 0), BuildingBlock: KIFKEQ_clean_linker_1, # of connection points: 2
#     Edge 100, Type (0, 0), BuildingBlock: KIFKEQ_clean_linker_1, # of connection points: 2
#     Edge 101, Type (0, 0), BuildingBlock: KIFKEQ_clean_linker_1, # of connection points: 2
#     Edge 102, Type (0, 0), BuildingBlock: KIFKEQ_clean_linker_1, # of connection points: 2
#     Edge 103, Type (0, 0), BuildingBlock: KIFKEQ_clean_linker_1, # of connection points: 2
#     Edge 104, Type (0, 0), BuildingBlock: KIFKEQ_clean_linker_1, # of connection points: 2
#     Edge 105, Type (0, 0), BuildingBlock: KIFKEQ_clean_linker_1, # of connection points: 2
#     Edge 106, Type (0, 0), BuildingBlock: KIFKEQ_clean_linker_1, # of connection points: 2
#     Edge 107, Type (0, 0), BuildingBlock: KIFKEQ_clean_linker_1, # of connection points: 2
#     Edge 108, Type (0, 0), BuildingBlock: KIFKEQ_clean_linker_1, # of connection points: 2
#     Edge 109, Type (0, 0), BuildingBlock: KIFKEQ_clean_linker_1, # of connection points: 2
#     Edge 110, Type (0, 0), BuildingBlock: KIFKEQ_clean_linker_1, # of connection points: 2
#     Edge 111, Type (0, 0), BuildingBlock: KIFKEQ_clean_linker_1, # of connection points: 2
# Relax obj value: 0.780
# Max RMSD: 0.269
# Mean RMSD: 0.269
data_MOF--net-vbi--node1-BEQFEK_clean_sbu_0--edge1-KIFKEQ_clean_linker_1
_symmetry_space_group_name_H-M    P1
_symmetry_Int_Tables_number       1
_symmetry_cell_setting            triclinic
loop_
_symmetry_equiv_pos_as_xyz
'x, y, z'
_cell_length_a     28.04414
_cell_length_b     55.710042
_cell_length_c     82.295572
_cell_angle_alpha  89.986163
_cell_angle_beta   89.987381
_cell_angle_gamma 90.018499
loop_
_atom_site_label
_atom_site_type_symbol
_atom_site_fract_x
_atom_site_fract_y
_atom_site_fract_z
_atom_type_partial_charge
Co0 Co 0.36096 0.13434 0.0406 0.0
Co1 Co 0.26292 0.11223 0.02851 0.0
C2 C 0.2906 0.16096 0.01853 0.0
O3 O 0.32701 0.15766 0.02741 0.0
O4 O 0.26011 0.14415 0.01617 0.0
C5 C 0.44804 0.15011 0.02877 0.0
O6 O 0.42296 0.14902 0.01531 0.0
C7 C 0.18397 0.08029 0.01414 0.0
C8 C 0.15796 0.0652 0.0373 0.0
C9 C 0.1526 0.06314 0.02067 0.0
N10 N 0.20758 0.0911 0.0265 0.0
N11 N 0.19057 0.08222 0.04022 0.0
C12 C 0.19349 0.08534 -0.00339 0.0
H13 H 0.2244 0.09764 0.99526 0.0
H14 H 0.19999 0.06832 0.98997 0.0
H15 H 0.16173 0.0941 0.99119 0.0
C16 C 0.39778 0.08921 0.02775 0.0
N17 N 0.36067 0.10375 0.03092 0.0
N18 N 0.3217 0.09492 0.02424 0.0
C19 C 0.33399 0.07465 0.01608 0.0
C20 C 0.38266 0.07075 0.01793 0.0
C21 C 0.44707 0.09208 0.03446 0.0
H22 H 0.44651 0.10241 0.04595 0.0
H23 H 0.46979 0.10123 0.02535 0.0
H24 H 0.46322 0.07421 0.03679 0.0
O25 O 0.33031 0.13383 0.06152 0.0
O26 O 0.2606 0.12039 0.05245 0.0
H27 H 0.26849 0.05549 0.01337 0.0
H28 H 0.3179 0.04272 0.00226 0.0
C29 C 0.30076 0.05972 0.00617 0.0
H30 H 0.29024 0.06996 0.9952 0.0
H31 H 0.20284 0.08684 0.05175 0.0
O32 O 0.42743 0.1457 0.0422 0.0
C33 C 0.28712 0.12805 0.06392 0.0
Co34 Co 0.89351 0.13996 0.03937 0.0
Co35 Co 0.99179 0.16324 0.02909 0.0
C36 C 0.95865 0.11854 0.01361 0.0
O37 O 0.92208 0.1199 0.02262 0.0
O38 O 0.99168 0.13434 0.01412 0.0
C39 C 0.80447 0.12958 0.0271 0.0
O40 O 0.82894 0.13402 0.01382 0.0
C41 C 0.06739 0.19484 0.01396 0.0
C42 C 0.10597 0.20556 0.03618 0.0
C43 C 0.10411 0.20953 0.01963 0.0
N44 N 0.04794 0.18318 0.02672 0.0
N45 N 0.07204 0.18942 0.03987 0.0
C46 C 0.05293 0.19092 -0.00334 0.0
H47 H 0.02149 0.17885 0.99597 0.0
H48 H 0.04488 0.20821 0.99062 0.0
H49 H 0.08314 0.18267 0.98998 0.0
C50 C 0.85941 0.18883 0.03303 0.0
N51 N 0.89514 0.17271 0.03355 0.0
N52 N 0.934 0.18216 0.0272 0.0
C53 C 0.9228 0.20437 0.02163 0.0
C54 C 0.87524 0.20915 0.02513 0.0
C55 C 0.81029 0.18483 0.03965 0.0
H56 H 0.81059 0.17094 0.04926 0.0
H57 H 0.78616 0.17951 0.02961 0.0
H58 H 0.79583 0.20156 0.04499 0.0
O59 O 0.92774 0.13479 0.05957 0.0
O60 O 0.99661 0.15135 0.05216 0.0
H61 H 0.98982 0.22255 0.02031 0.0
H62 H 0.94062 0.23915 0.01175 0.0
C63 C 0.95644 0.22101 0.01322 0.0
H64 H 0.96467 0.21371 0.00103 0.0
H65 H 0.06417 0.18339 0.05156 0.0
O66 O 0.82618 0.12964 0.04067 0.0
C67 C 0.97059 0.14071 0.06265 0.0
Co68 Co 0.35901 0.13598 0.2039 0.0
Co69 Co 0.26156 0.15989 0.21456 0.0
C70 C 0.29543 0.11513 0.23025 0.0
O71 O 0.33181 0.11614 0.22108 0.0
O72 O 0.26234 0.13097 0.2297 0.0
C73 C 0.45149 0.11848 0.2118 0.0
O74 O 0.43213 0.11478 0.22612 0.0
C75 C 0.18373 0.19234 0.22841 0.0
C76 C 0.1562 0.20611 0.20506 0.0
C77 C 0.15175 0.20891 0.22167 0.0
N78 N 0.20662 0.18095 0.21618 0.0
N79 N 0.18888 0.18904 0.20234 0.0
C80 C 0.19521 0.18878 0.24598 0.0
H81 H 0.22736 0.17734 0.24739 0.0
H82 H 0.20069 0.2064 0.252 0.0
H83 H 0.16475 0.17972 0.25202 0.0
C84 C 0.39571 0.18379 0.21186 0.0
N85 N 0.35886 0.1685 0.21018 0.0
N86 N 0.31999 0.17826 0.21629 0.0
C87 C 0.33198 0.19991 0.22262 0.0
C88 C 0.38026 0.20398 0.21997 0.0
C89 C 0.44598 0.17862 0.20687 0.0
H90 H 0.46348 0.16782 0.21648 0.0
H91 H 0.46679 0.1954 0.20533 0.0
H92 H 0.44641 0.16862 0.19524 0.0
O93 O 0.32312 0.13097 0.18409 0.0
O94 O 0.25488 0.14757 0.19173 0.0
H95 H 0.31574 0.23379 0.23409 0.0
H96 H 0.28908 0.20767 0.24331 0.0
C97 C 0.29883 0.21615 0.23159 0.0
H98 H 0.26607 0.21898 0.22434 0.0
H99 H 0.2008 0.18383 0.19088 0.0
O100 O 0.42542 0.12588 0.20022 0.0
C101 C 0.28023 0.13676 0.1812 0.0
Co102 Co 0.89354 0.1319 0.20281 0.0
Co103 Co 0.98882 0.10645 0.21408 0.0
C104 C 0.95891 0.15283 0.22866 0.0
O105 O 0.92257 0.15213 0.21945 0.0
O106 O 0.99048 0.13617 0.22862 0.0
C107 C 0.80286 0.15192 0.21023 0.0
O108 O 0.82294 0.15632 0.22434 0.0
C109 C 0.06568 0.07394 0.22873 0.0
C110 C 0.08605 0.05539 0.20605 0.0
C111 C 0.09496 0.05566 0.22256 0.0
N112 N 0.04043 0.08351 0.21632 0.0
N113 N 0.05349 0.07236 0.20286 0.0
C114 C 0.06304 0.08284 0.24585 0.0
H115 H 0.04832 0.10132 0.24616 0.0
H116 H 0.03928 0.07105 0.25307 0.0
H117 H 0.09897 0.08248 0.25151 0.0
C118 C 0.85295 0.08521 0.2121 0.0
N119 N 0.89074 0.09982 0.21003 0.0
N120 N 0.929 0.08972 0.21628 0.0
C121 C 0.91593 0.0686 0.22309 0.0
C122 C 0.86739 0.0651 0.22059 0.0
C123 C 0.80295 0.09117 0.20719 0.0
H124 H 0.78693 0.10302 0.21652 0.0
H125 H 0.78046 0.07487 0.20625 0.0
H126 H 0.80295 0.10044 0.19528 0.0
O127 O 0.93006 0.13481 0.18291 0.0
O128 O 0.99701 0.11718 0.19091 0.0
H129 H 0.97862 0.04691 0.22433 0.0
H130 H 0.92988 0.03615 0.23672 0.0
C131 C 0.94868 0.05242 0.23229 0.0
H132 H 0.96347 0.06237 0.24279 0.0
H133 H 0.03896 0.07579 0.19143 0.0
O134 O 0.82801 0.14315 0.19885 0.0
C135 C 0.97239 0.12791 0.18013 0.0
Co136 Co 0.64388 0.89269 0.95602 0.0
Co137 Co 0.74489 0.91406 0.96432 0.0
C138 C 0.70884 0.86882 0.9799 0.0
O139 O 0.67041 0.87093 0.97191 0.0
O140 O 0.74298 0.88398 0.97855 0.0
C141 C 0.55057 0.87488 0.96327 0.0
O142 O 0.56956 0.86848 0.97721 0.0
C143 C 0.8209 0.94447 0.97988 0.0
C144 C 0.86187 0.95438 0.95795 0.0
C145 C 0.85826 0.95897 0.97441 0.0
N146 N 0.80265 0.93253 0.96705 0.0
N147 N 0.82825 0.93818 0.95411 0.0
C148 C 0.80478 0.94068 -0.00298 0.0
H149 H 0.76913 0.93201 -0.00273 0.0
H150 H 0.80416 0.95769 0.00396 0.0
H151 H 0.83054 0.92858 0.00316 0.0
C152 C 0.61209 0.94028 0.96622 0.0
N153 N 0.64745 0.92449 0.96346 0.0
N154 N 0.68877 0.93415 0.96744 0.0
C155 C 0.68018 0.95676 0.97287 0.0
C156 C 0.63144 0.96109 0.97234 0.0
C157 C 0.56015 0.93531 0.96368 0.0
H158 H 0.55448 0.92777 0.95138 0.0
H159 H 0.54799 0.92215 0.97289 0.0
H160 H 0.53816 0.95174 0.96494 0.0
O161 O 0.67678 0.88885 0.93547 0.0
O162 O 0.74818 0.90376 0.94098 0.0
H163 H 0.74861 0.97329 0.96985 0.0
H164 H 0.70287 0.99306 0.97755 0.0
C165 C 0.71721 0.9745 0.97796 0.0
H166 H 0.72805 0.97067 0.99063 0.0
H167 H 0.82137 0.93191 0.94241 0.0
O168 O 0.57688 0.88421 0.95242 0.0
C169 C 0.71896 0.89403 0.93115 0.0
Co170 Co 0.11011 0.88244 0.95113 0.0
Co171 Co 0.01283 0.86085 0.96347 0.0
C172 C 0.03757 0.91107 0.97091 0.0
O173 O 0.07446 0.90735 0.96231 0.0
O174 O 0.008 0.89409 0.97412 0.0
C175 C 0.19815 0.90405 0.95913 0.0
O176 O 0.17587 0.90905 0.97276 0.0
C177 C 0.93385 0.82948 0.9787 0.0
C178 C 0.91789 0.80831 0.95667 0.0
C179 C 0.90644 0.81018 0.97293 0.0
N180 N 0.96064 0.83809 0.9663 0.0
N181 N 0.95006 0.82533 0.95323 0.0
C182 C 0.93291 0.84023 0.99535 0.0
H183 H 0.94946 0.85833 0.99523 0.0
H184 H 0.95294 0.82872 0.00393 0.0
H185 H 0.89557 0.84136 -0.00023 0.0
C186 C 0.14929 0.84107 0.96821 0.0
N187 N 0.11184 0.85435 0.96345 0.0
N188 N 0.0722 0.84523 0.9694 0.0
C189 C 0.08394 0.82582 0.97851 0.0
C190 C 0.13321 0.82294 0.97819 0.0
C191 C 0.19951 0.84447 0.96245 0.0
H192 H 0.1999 0.8513 0.94981 0.0
H193 H 0.21785 0.85739 0.97056 0.0
H194 H 0.21959 0.82731 0.96284 0.0
O195 O 0.08191 0.87616 0.9304 0.0
O196 O 0.00991 0.86599 0.9391 0.0
H197 H 0.02165 0.80377 0.97944 0.0
H198 H 0.06706 0.7957 0.99407 0.0
C199 C 0.04921 0.81088 0.98781 0.0
H200 H 0.03159 0.82236 -0.00301 0.0
H201 H 0.96623 0.82752 0.94192 0.0
O202 O 0.17524 0.894 0.94771 0.0
C203 C 0.03893 0.87056 0.9276 0.0
Co204 Co 0.64159 0.88307 0.78686 0.0
Co205 Co 0.74362 0.86185 0.77872 0.0
C206 C 0.70776 0.9073 0.76327 0.0
O207 O 0.66908 0.90499 0.77113 0.0
O208 O 0.74192 0.89211 0.76455 0.0
C209 C 0.54797 0.90089 0.77937 0.0
O210 O 0.56755 0.90798 0.76568 0.0
C211 C 0.82317 0.83137 0.76441 0.0
C212 C 0.85752 0.82037 0.78737 0.0
C213 C 0.85824 0.81616 0.77081 0.0
N214 N 0.80192 0.84317 0.7768 0.0
N215 N 0.82389 0.8369 0.79037 0.0
C216 C 0.80744 0.83323 0.7471 0.0
H217 H 0.77276 0.84276 0.74625 0.0
H218 H 0.80474 0.81513 0.74155 0.0
H219 H 0.83447 0.84356 0.74016 0.0
C220 C 0.61085 0.83529 0.77674 0.0
N221 N 0.64601 0.85123 0.77947 0.0
N222 N 0.68748 0.84172 0.77549 0.0
C223 C 0.67914 0.81909 0.77003 0.0
C224 C 0.63047 0.81454 0.77061 0.0
C225 C 0.55884 0.84023 0.77915 0.0
H226 H 0.55286 0.84751 0.79152 0.0
H227 H 0.54702 0.85361 0.77005 0.0
H228 H 0.53672 0.8239 0.77765 0.0
O229 O 0.67373 0.887 0.80757 0.0
O230 O 0.74551 0.87261 0.802 0.0
H231 H 0.74818 0.80308 0.77266 0.0
H232 H 0.70248 0.78289 0.76546 0.0
C233 C 0.71632 0.80155 0.76481 0.0
H234 H 0.72612 0.80526 0.75203 0.0
H235 H 0.81415 0.84283 0.80191 0.0
O236 O 0.57396 0.89124 0.79018 0.0
C237 C 0.71609 0.88213 0.81186 0.0
Co238 Co 0.10405 0.88642 0.78832 0.0
Co239 Co 0.00662 0.91082 0.77794 0.0
C240 C 0.04003 0.86614 0.762 0.0
O241 O 0.07648 0.86702 0.77111 0.0
O242 O 0.00709 0.88206 0.76261 0.0
C243 C 0.19558 0.86879 0.77972 0.0
O244 O 0.17511 0.86586 0.7655 0.0
C245 C 0.92961 0.94344 0.76386 0.0
C246 C 0.90017 0.95669 0.78707 0.0
C247 C 0.89681 0.95979 0.77043 0.0
N248 N 0.95182 0.93195 0.7762 0.0
N249 N 0.93299 0.93973 0.78995 0.0
C250 C 0.94227 0.93998 0.74638 0.0
H251 H 0.97455 0.92859 0.74519 0.0
H252 H 0.94814 0.95763 0.74044 0.0
H253 H 0.9123 0.93089 0.74009 0.0
C254 C 0.14165 0.93371 0.78044 0.0
N255 N 0.10413 0.91898 0.78239 0.0
N256 N 0.06552 0.92911 0.77639 0.0
C257 C 0.0784 0.95058 0.76991 0.0
C258 C 0.12721 0.95388 0.7721 0.0
C259 C 0.19135 0.92858 0.78608 0.0
H260 H 0.19064 0.91845 0.79766 0.0
H261 H 0.21023 0.91803 0.77666 0.0
H262 H 0.21148 0.94552 0.78796 0.0
O263 O 0.06744 0.88073 0.80778 0.0
O264 O 0.99882 0.89755 0.80058 0.0
H265 H 0.06295 0.98442 0.75823 0.0
H266 H 0.0372 0.95829 0.74882 0.0
C267 C 0.04593 0.96678 0.76062 0.0
H268 H 0.01257 0.9696 0.76756 0.0
H269 H 0.9441 0.93428 0.80146 0.0
O270 O 0.17049 0.87587 0.79165 0.0
C271 C 0.02437 0.88612 0.81076 0.0
Co272 Co 0.35673 0.64166 0.53719 0.0
Co273 Co 0.26291 0.61294 0.52834 0.0
C274 C 0.28147 0.6599 0.51334 0.0
O275 O 0.31941 0.66073 0.52177 0.0
O276 O 0.25341 0.64176 0.51368 0.0
C277 C 0.44204 0.65836 0.5242 0.0
O278 O 0.41692 0.65527 0.51089 0.0
C279 C 0.18413 0.57905 0.51681 0.0
C280 C 0.17344 0.55989 0.54005 0.0
C281 C 0.15773 0.56062 0.52413 0.0
N282 N 0.21398 0.58847 0.52802 0.0
N283 N 0.20694 0.57686 0.54182 0.0
C284 C 0.17972 0.58825 0.49981 0.0
H285 H 0.19324 0.60693 0.49902 0.0
H286 H 0.20128 0.57688 0.49155 0.0
H287 H 0.14199 0.58746 0.49576 0.0
C288 C 0.40055 0.59595 0.52772 0.0
N289 N 0.36162 0.60955 0.53021 0.0
N290 N 0.32381 0.59823 0.52468 0.0
C291 C 0.33813 0.57737 0.51781 0.0
C292 C 0.38749 0.57549 0.51934 0.0
C293 C 0.44908 0.60124 0.53442 0.0
H294 H 0.44666 0.61325 0.54512 0.0
H295 H 0.47125 0.60973 0.52489 0.0
H296 H 0.46709 0.58433 0.53806 0.0
O297 O 0.32573 0.64377 0.55818 0.0
O298 O 0.25911 0.62465 0.5514 0.0
H299 H 0.28253 0.55123 0.51825 0.0
H300 H 0.32558 0.54679 0.50215 0.0
C301 C 0.30548 0.56042 0.50919 0.0
H302 H 0.28199 0.57071 0.50091 0.0
H303 H 0.22575 0.58026 0.55251 0.0
O304 O 0.42172 0.65528 0.53785 0.0
C305 C 0.28439 0.63604 0.56171 0.0
Co306 Co 0.88465 0.63772 0.53675 0.0
Co307 Co 0.98328 0.66076 0.52647 0.0
C308 C 0.9509 0.61712 0.51028 0.0
O309 O 0.91464 0.61871 0.51949 0.0
O310 O 0.9847 0.63258 0.51082 0.0
C311 C 0.79592 0.62944 0.52363 0.0
O312 O 0.82163 0.63423 0.51067 0.0
C313 C 0.06415 0.69385 0.5149 0.0
C314 C 0.07964 0.7102 0.53874 0.0
C315 C 0.09231 0.71153 0.52251 0.0
N316 N 0.0362 0.68327 0.52625 0.0
N317 N 0.04641 0.69312 0.54042 0.0
C318 C 0.06382 0.68674 0.49739 0.0
H319 H 0.04551 0.66922 0.49582 0.0
H320 H 0.04444 0.70044 0.4902 0.0
H321 H 0.1009 0.68553 0.49274 0.0
C322 C 0.85153 0.68664 0.53038 0.0
N323 N 0.88713 0.67056 0.53163 0.0
N324 N 0.92527 0.67889 0.52425 0.0
C325 C 0.91359 0.69984 0.51696 0.0
C326 C 0.86642 0.70541 0.52067 0.0
C327 C 0.80288 0.68378 0.53763 0.0
H328 H 0.80251 0.66954 0.54701 0.0
H329 H 0.7768 0.67981 0.52787 0.0
H330 H 0.79161 0.70086 0.54338 0.0
O331 O 0.91797 0.63125 0.55686 0.0
O332 O 0.98725 0.64706 0.5492 0.0
H333 H 0.97651 0.72059 0.51311 0.0
H334 H 0.92728 0.72884 0.50011 0.0
C335 C 0.94602 0.71357 0.50597 0.0
H336 H 0.96022 0.70132 0.49652 0.0
H337 H 0.02931 0.68877 0.55128 0.0
O338 O 0.81678 0.62807 0.53732 0.0
C339 C 0.96137 0.63631 0.5597 0.0
Co340 Co 0.36155 0.63956 0.70176 0.0
Co341 Co 0.26469 0.66233 0.7142 0.0
C342 C 0.29607 0.61395 0.72528 0.0
O343 O 0.33216 0.61616 0.71608 0.0
O344 O 0.26521 0.63076 0.72688 0.0
C345 C 0.45345 0.62036 0.70816 0.0
O346 O 0.43509 0.61608 0.72256 0.0
C347 C 0.18851 0.69363 0.73033 0.0
C348 C 0.14934 0.70423 0.7082 0.0
C349 C 0.15131 0.70814 0.72474 0.0
N350 N 0.20822 0.68217 0.7175 0.0
N351 N 0.18361 0.68838 0.70443 0.0
C352 C 0.2026 0.68947 0.74763 0.0
H353 H 0.23288 0.67668 0.74835 0.0
H354 H 0.21229 0.70662 0.75358 0.0
H355 H 0.17165 0.68203 0.75436 0.0
C356 C 0.40038 0.68453 0.71462 0.0
N357 N 0.36269 0.67038 0.71133 0.0
N358 N 0.32364 0.68012 0.71738 0.0
C359 C 0.33627 0.70086 0.72492 0.0
C360 C 0.38526 0.70395 0.72355 0.0
C361 C 0.45066 0.67976 0.70944 0.0
H362 H 0.45133 0.67188 0.69708 0.0
H363 H 0.46746 0.66725 0.7182 0.0
H364 H 0.47194 0.69657 0.70934 0.0
O365 O 0.32679 0.63928 0.68157 0.0
O366 O 0.25825 0.65403 0.69052 0.0
H367 H 0.26968 0.71931 0.72696 0.0
H368 H 0.31954 0.7349 0.73599 0.0
C369 C 0.30312 0.71703 0.73392 0.0
H370 H 0.29516 0.70892 0.7459 0.0
H371 H 0.19112 0.68255 0.69268 0.0
O372 O 0.42702 0.62911 0.69714 0.0
C373 C 0.28388 0.64542 0.67918 0.0
Co374 Co 0.89506 0.63178 0.69996 0.0
Co375 Co 0.99349 0.6111 0.71227 0.0
C376 C 0.95848 0.66128 0.72083 0.0
O377 O 0.92162 0.65764 0.71227 0.0
O378 O 0.98985 0.6448 0.72298 0.0
C379 C 0.80325 0.6545 0.70152 0.0
O380 O 0.82259 0.66754 0.71307 0.0
C381 C 0.06241 0.57989 0.7312 0.0
C382 C 0.11881 0.57615 0.71268 0.0
C383 C 0.10486 0.56786 0.72777 0.0
N384 N 0.05117 0.59401 0.71842 0.0
N385 N 0.08598 0.59207 0.70765 0.0
C386 C 0.03503 0.57918 0.74679 0.0
H387 H 0.99913 0.58722 0.74522 0.0
H388 H 0.03237 0.56058 0.75149 0.0
H389 H 0.05468 0.58981 0.75602 0.0
C390 C 0.85843 0.5889 0.71586 0.0
N391 N 0.89561 0.60299 0.71195 0.0
N392 N 0.93588 0.59218 0.71577 0.0
C393 C 0.92483 0.56981 0.7212 0.0
C394 C 0.87548 0.56732 0.72165 0.0
C395 C 0.8073 0.59654 0.71489 0.0
H396 H 0.80361 0.61471 0.72018 0.0
H397 H 0.78336 0.58435 0.72172 0.0
H398 H 0.79593 0.59699 0.70198 0.0
O399 O 0.9314 0.62935 0.67987 0.0
O400 O 0.00151 0.61563 0.6883 0.0
H401 H 0.94443 0.53288 0.71817 0.0
H402 H 0.96517 0.5464 0.73647 0.0
C403 C 0.95946 0.54967 0.72334 0.0
H404 H 0.99361 0.55367 0.71717 0.0
H405 H 0.08629 0.60075 0.69642 0.0
O406 O 0.82886 0.63941 0.69393 0.0
C407 C 0.97403 0.62297 0.67705 0.0
Co408 Co 0.63404 0.39222 0.45633 0.0
Co409 Co 0.73792 0.41187 0.46232 0.0
C410 C 0.71193 0.36238 0.47211 0.0
O411 O 0.67152 0.36647 0.46575 0.0
O412 O 0.74356 0.3789 0.47324 0.0
C413 C 0.54879 0.37507 0.47019 0.0
O414 O 0.57614 0.37365 0.48312 0.0
C415 C 0.81936 0.44156 0.47561 0.0
C416 C 0.84816 0.45547 0.45247 0.0
C417 C 0.85238 0.45784 0.46914 0.0
N418 N 0.79592 0.43089 0.46323 0.0
N419 N 0.81443 0.43893 0.44949 0.0
C420 C 0.81247 0.43479 0.49306 0.0
H421 H 0.77681 0.42654 0.49487 0.0
H422 H 0.81731 0.45027 0.50131 0.0
H423 H 0.83978 0.42123 0.49634 0.0
C424 C 0.60719 0.43643 0.473 0.0
N425 N 0.64095 0.42115 0.46773 0.0
N426 N 0.6836 0.4304 0.47031 0.0
C427 C 0.67747 0.45226 0.47735 0.0
C428 C 0.62902 0.45626 0.47957 0.0
C429 C 0.55465 0.43356 0.47032 0.0
H430 H 0.5477 0.42501 0.45841 0.0
H431 H 0.53966 0.42235 0.4802 0.0
H432 H 0.536 0.45112 0.47062 0.0
O433 O 0.65374 0.39667 0.43402 0.0
O434 O 0.72981 0.40586 0.43827 0.0
H435 H 0.74196 0.47023 0.47048 0.0
H436 H 0.7012 0.48842 0.48215 0.0
C437 C 0.71607 0.47009 0.48063 0.0
H438 H 0.73451 0.46519 0.49205 0.0
H439 H 0.80235 0.43413 0.43796 0.0
O440 O 0.56701 0.38178 0.45681 0.0
C441 C 0.69531 0.40114 0.42871 0.0
Co442 Co 0.10766 0.38666 0.46139 0.0
Co443 Co 0.00945 0.36179 0.46991 0.0
C444 C 0.03343 0.40869 0.484 0.0
O445 O 0.07196 0.40747 0.47596 0.0
O446 O 0.00274 0.39168 0.48383 0.0
C447 C 0.19443 0.39914 0.47514 0.0
O448 O 0.16929 0.39442 0.48824 0.0
C449 C 0.9272 0.33072 0.48209 0.0
C450 C 0.91016 0.31298 0.4588 0.0
C451 C 0.89727 0.31346 0.47502 0.0
N452 N 0.95636 0.3396 0.47046 0.0
N453 N 0.94539 0.32892 0.45662 0.0
C454 C 0.927 0.33935 0.49929 0.0
H455 H 0.94342 0.35744 0.50009 0.0
H456 H 0.94808 0.3269 0.50695 0.0
H457 H 0.88998 0.33984 0.50406 0.0
C458 C 0.14356 0.33876 0.46979 0.0
N459 N 0.10737 0.35446 0.4683 0.0
N460 N 0.06795 0.34474 0.47396 0.0
C461 C 0.07883 0.3229 0.48016 0.0
C462 C 0.12712 0.31847 0.47764 0.0
C463 C 0.19337 0.34301 0.46387 0.0
H464 H 0.194 0.35689 0.45425 0.0
H465 H 0.21609 0.3485 0.47424 0.0
H466 H 0.20889 0.32637 0.45876 0.0
O467 O 0.07872 0.38944 0.44018 0.0
O468 O 0.00918 0.37265 0.44652 0.0
H469 H 0.01592 0.30137 0.47905 0.0
H470 H 0.06118 0.2899 0.49263 0.0
C471 C 0.04369 0.30642 0.48801 0.0
H472 H 0.02605 0.31593 0.49818 0.0
H473 H 0.96287 0.33208 0.44564 0.0
O474 O 0.17387 0.39847 0.46139 0.0
C475 C 0.03681 0.3829 0.43634 0.0
Co476 Co 0.6425 0.38317 0.27994 0.0
Co477 Co 0.74398 0.35951 0.276 0.0
C478 C 0.72103 0.40915 0.26317 0.0
O479 O 0.67915 0.40756 0.26886 0.0
O480 O 0.75094 0.39183 0.26424 0.0
C481 C 0.55343 0.4039 0.26982 0.0
O482 O 0.57618 0.40902 0.2563 0.0
C483 C 0.81781 0.3265 0.26173 0.0
C484 C 0.86098 0.3192 0.28361 0.0
C485 C 0.85546 0.3125 0.26754 0.0
N486 N 0.80126 0.34024 0.274 0.0
N487 N 0.82811 0.33608 0.28691 0.0
C488 C 0.7999 0.32808 0.24463 0.0
H489 H 0.764 0.33645 0.24431 0.0
H490 H 0.79916 0.31027 0.23868 0.0
H491 H 0.82466 0.33957 0.23755 0.0
C492 C 0.61128 0.33848 0.26483 0.0
N493 N 0.64671 0.35315 0.26959 0.0
N494 N 0.68768 0.34154 0.2692 0.0
C495 C 0.67849 0.31847 0.2648 0.0
C496 C 0.62997 0.31608 0.26173 0.0
C497 C 0.56 0.34568 0.26345 0.0
H498 H 0.5573 0.36118 0.2551 0.0
H499 H 0.53734 0.33115 0.25845 0.0
H500 H 0.54618 0.35085 0.27558 0.0
O501 O 0.66481 0.38027 0.30224 0.0
O502 O 0.7387 0.36638 0.29985 0.0
H503 H 0.69471 0.2814 0.26955 0.0
H504 H 0.72873 0.29495 0.25365 0.0
C505 C 0.71316 0.29816 0.26582 0.0
H506 H 0.74175 0.30221 0.27469 0.0
H507 H 0.82267 0.34399 0.29824 0.0
O508 O 0.57565 0.39366 0.28133 0.0
C509 C 0.70419 0.37392 0.30852 0.0
Co510 Co 0.12006 0.38547 0.29414 0.0
Co511 Co 0.02305 0.40938 0.28323 0.0
C512 C 0.04533 0.36079 0.27253 0.0
O513 O 0.08264 0.3633 0.28109 0.0
O514 O 0.01591 0.37814 0.27053 0.0
C515 C 0.2028 0.37155 0.27929 0.0
O516 O 0.17356 0.37434 0.26696 0.0
C517 C 0.94294 0.44117 0.27 0.0
C518 C 0.92779 0.46089 0.2927 0.0
C519 C 0.91483 0.45964 0.27652 0.0
N520 N 0.97128 0.43237 0.28189 0.0
N521 N 0.96141 0.44425 0.29537 0.0
C522 C 0.94172 0.4314 0.25309 0.0
H523 H 0.95706 0.41303 0.25278 0.0
H524 H 0.96317 0.44302 0.24497 0.0
H525 H 0.90453 0.43114 0.24847 0.0
C526 C 0.15794 0.43083 0.28243 0.0
N527 N 0.12052 0.41642 0.28528 0.0
N528 N 0.08214 0.42542 0.27843 0.0
C529 C 0.09497 0.4455 0.27022 0.0
C530 C 0.14373 0.44925 0.27235 0.0
C531 C 0.20573 0.42849 0.2904 0.0
H532 H 0.20372 0.41671 0.30124 0.0
H533 H 0.23188 0.42122 0.28163 0.0
H534 H 0.21885 0.44647 0.29414 0.0
O535 O 0.09177 0.38559 0.31541 0.0
O536 O 0.02226 0.40057 0.30714 0.0
H537 H 0.03321 0.46756 0.26764 0.0
H538 H 0.08083 0.47473 0.2536 0.0
C539 C 0.06187 0.45995 0.25992 0.0
H540 H 0.04512 0.44799 0.2508 0.0
H541 H 0.9787 0.44149 0.30643 0.0
O542 O 0.18633 0.3736 0.29363 0.0
C543 C 0.04914 0.39204 0.31826 0.0
Co544 Co 0.85334 0.13228 0.53006 0.0
Co545 Co 0.75054 0.11043 0.52565 0.0
C546 C 0.77853 0.16032 0.51355 0.0
O547 O 0.82036 0.15799 0.51918 0.0
O548 O 0.74747 0.14347 0.51448 0.0
C549 C 0.94626 0.15428 0.52431 0.0
O550 O 0.92589 0.16687 0.51274 0.0
C551 C 0.674 0.07807 0.51163 0.0
C552 C 0.626 0.07664 0.53285 0.0
C553 C 0.63307 0.06658 0.51764 0.0
N554 N 0.69076 0.0932 0.52313 0.0
N555 N 0.66085 0.09266 0.53552 0.0
C556 C 0.69803 0.07431 0.49561 0.0
H557 H 0.73298 0.08363 0.49525 0.0
H558 H 0.7028 0.05489 0.49318 0.0
H559 H 0.67523 0.08186 0.48584 0.0
C560 C 0.88192 0.0886 0.51383 0.0
N561 N 0.84683 0.10316 0.51889 0.0
N562 N 0.80594 0.0915 0.51904 0.0
C563 C 0.81521 0.06825 0.51513 0.0
C564 C 0.8635 0.06595 0.51148 0.0
C565 C 0.93284 0.09608 0.51171 0.0
H566 H 0.93426 0.11397 0.50587 0.0
H567 H 0.95278 0.08319 0.504 0.0
H568 H 0.95037 0.09704 0.52378 0.0
O569 O 0.82906 0.12927 0.55218 0.0
O570 O 0.75467 0.11641 0.5495 0.0
H571 H 0.74951 0.05352 0.52445 0.0
H572 H 0.79992 0.03341 0.5248 0.0
C573 C 0.78174 0.04773 0.51775 0.0
H574 H 0.77198 0.03984 0.50585 0.0
H575 H 0.66544 0.10244 0.54623 0.0
O576 O 0.92136 0.13983 0.5327 0.0
C577 C 0.78922 0.12338 0.55833 0.0
Co578 Co 0.39363 0.14294 0.53725 0.0
Co579 Co 0.49558 0.16346 0.52828 0.0
C580 C 0.45687 0.12075 0.51135 0.0
O581 O 0.41984 0.12312 0.52005 0.0
O582 O 0.49246 0.13504 0.51267 0.0
C583 C 0.3017 0.13113 0.52625 0.0
O584 O 0.32417 0.1311 0.51224 0.0
C585 C 0.57696 0.19333 0.51453 0.0
C586 C 0.60864 0.20521 0.53772 0.0
C587 C 0.61185 0.20855 0.52108 0.0
N588 N 0.55368 0.18236 0.52685 0.0
N589 N 0.57391 0.1892 0.54059 0.0
C590 C 0.56343 0.19053 0.49706 0.0
H591 H 0.52979 0.18015 0.49592 0.0
H592 H 0.55955 0.20839 0.49124 0.0
H593 H 0.59208 0.18064 0.49062 0.0
C594 C 0.36464 0.19197 0.53032 0.0
N595 N 0.39936 0.17555 0.53205 0.0
N596 N 0.43977 0.18412 0.52628 0.0
C597 C 0.43062 0.20619 0.51999 0.0
C598 C 0.38267 0.21163 0.52229 0.0
C599 C 0.31381 0.18873 0.53543 0.0
H600 H 0.31159 0.1773 0.54642 0.0
H601 H 0.29345 0.18047 0.52534 0.0
H602 H 0.29717 0.20638 0.53811 0.0
O603 O 0.42699 0.13539 0.55706 0.0
O604 O 0.49879 0.14985 0.55109 0.0
H605 H 0.49933 0.22251 0.51791 0.0
H606 H 0.45148 0.23967 0.50891 0.0
C607 C 0.46564 0.2213 0.51095 0.0
H608 H 0.47282 0.21294 0.49899 0.0
H609 H 0.56241 0.18388 0.5521 0.0
O610 O 0.32545 0.13463 0.53919 0.0
C611 C 0.47024 0.13923 0.56078 0.0
Co612 Co 0.85934 0.14385 0.70457 0.0
Co613 Co 0.75553 0.16171 0.71233 0.0
C614 C 0.78582 0.11276 0.72152 0.0
O615 O 0.82477 0.11758 0.71443 0.0
O616 O 0.7534 0.12873 0.72331 0.0
C617 C 0.94554 0.12757 0.71756 0.0
O618 O 0.9193 0.12677 0.73079 0.0
C619 C 0.67372 0.18979 0.72691 0.0
C620 C 0.63929 0.20201 0.70425 0.0
C621 C 0.6377 0.20476 0.72093 0.0
N622 N 0.69623 0.17945 0.7142 0.0
N623 N 0.67441 0.18647 0.70078 0.0
C624 C 0.68432 0.18389 0.74428 0.0
H625 H 0.71993 0.17534 0.74537 0.0
H626 H 0.68215 0.19995 0.75216 0.0
H627 H 0.65711 0.17097 0.74869 0.0
C628 C 0.88604 0.18832 0.7208 0.0
N629 N 0.85238 0.1726 0.7161 0.0
N630 N 0.80967 0.1811 0.71958 0.0
C631 C 0.81569 0.20287 0.72677 0.0
C632 C 0.86418 0.20765 0.72799 0.0
C633 C 0.9383 0.18604 0.71735 0.0
H634 H 0.94412 0.17744 0.70538 0.0
H635 H 0.95505 0.17511 0.72703 0.0
H636 H 0.9562 0.2038 0.7173 0.0
O637 O 0.837 0.14827 0.68266 0.0
O638 O 0.76094 0.15611 0.68807 0.0
H639 H 0.7485 0.21957 0.7217 0.0
H640 H 0.79064 0.23858 0.73215 0.0
C641 C 0.77673 0.21998 0.73109 0.0
H642 H 0.76153 0.21485 0.74301 0.0
H643 H 0.68492 0.1816 0.68908 0.0
O644 O 0.92643 0.13393 0.70426 0.0
C645 C 0.7946 0.15216 0.67799 0.0
Co646 Co 0.3871 0.12905 0.70465 0.0
Co647 Co 0.48903 0.1101 0.71411 0.0
C648 C 0.45965 0.1592 0.72299 0.0
O649 O 0.42154 0.15463 0.71533 0.0
O650 O 0.49148 0.14304 0.72516 0.0
C651 C 0.30124 0.14497 0.71752 0.0
O652 O 0.32741 0.14452 0.73076 0.0
C653 C 0.5693 0.08129 0.72931 0.0
C654 C 0.60349 0.06816 0.70685 0.0
C655 C 0.60485 0.06587 0.72356 0.0
N656 N 0.54726 0.09152 0.71646 0.0
N657 N 0.56895 0.08392 0.70315 0.0
C658 C 0.55889 0.08766 0.74662 0.0
H659 H 0.52529 0.09813 0.74748 0.0
H660 H 0.5568 0.07147 0.75438 0.0
H661 H 0.5886 0.09882 0.75135 0.0
C662 C 0.35684 0.08412 0.71958 0.0
N663 N 0.39159 0.09979 0.71579 0.0
N664 N 0.43322 0.09136 0.7206 0.0
C665 C 0.42523 0.06995 0.72806 0.0
C666 C 0.37663 0.06505 0.72774 0.0
C667 C 0.30557 0.08654 0.71472 0.0
H668 H 0.28613 0.09636 0.72436 0.0
H669 H 0.2883 0.06875 0.71338 0.0
H670 H 0.30244 0.09625 0.70303 0.0
O671 O 0.41192 0.1253 0.68303 0.0
O672 O 0.4861 0.11555 0.68975 0.0
H673 H 0.44833 0.03512 0.73639 0.0
H674 H 0.47615 0.06036 0.74609 0.0
C675 C 0.46283 0.05342 0.73433 0.0
H676 H 0.49264 0.05233 0.72555 0.0
H677 H 0.55881 0.08858 0.69138 0.0
O678 O 0.32039 0.13963 0.70401 0.0
C679 C 0.45458 0.12044 0.67906 0.0
Co680 Co 0.14312 0.88463 0.45615 0.0
Co681 Co 0.23797 0.91165 0.4663 0.0
C682 C 0.21404 0.86438 0.48058 0.0
O683 O 0.17679 0.86448 0.47181 0.0
O684 O 0.24338 0.88203 0.48071 0.0
C685 C 0.05421 0.86638 0.46631 0.0
O686 O 0.07589 0.86608 0.48046 0.0
C687 C 0.31277 0.94656 0.47965 0.0
C688 C 0.33941 0.96015 0.45613 0.0
C689 C 0.34416 0.96321 0.47269 0.0
N690 N 0.29014 0.93464 0.46758 0.0
N691 N 0.30702 0.94282 0.45363 0.0
C692 C 0.30644 0.94118 0.49733 0.0
H693 H 0.28524 0.92452 0.49899 0.0
H694 H 0.28787 0.9562 0.50344 0.0
H695 H 0.34188 0.93921 0.50318 0.0
C696 C 0.10109 0.93122 0.46482 0.0
N697 N 0.13941 0.91685 0.46313 0.0
N698 N 0.17736 0.9277 0.46907 0.0
C699 C 0.1633 0.94899 0.47544 0.0
C700 C 0.11462 0.9518 0.4729 0.0
C701 C 0.05163 0.92516 0.45936 0.0
H702 H 0.05271 0.91383 0.44831 0.0
H703 H 0.0329 0.91558 0.46928 0.0
H704 H 0.03091 0.9416 0.45659 0.0
O705 O 0.17652 0.88207 0.43569 0.0
O706 O 0.24363 0.90013 0.44314 0.0
H707 H 0.22635 0.97049 0.47636 0.0
H708 H 0.17619 0.98301 0.48724 0.0
C709 C 0.19521 0.96616 0.48411 0.0
H710 H 0.20798 0.95758 0.49544 0.0
H711 H 0.29533 0.93717 0.44224 0.0
O712 O 0.07794 0.87206 0.45373 0.0
C713 C 0.21857 0.88912 0.4326 0.0
Co714 Co 0.60737 0.88014 0.45965 0.0
Co715 Co 0.50364 0.85872 0.46327 0.0
C716 C 0.53614 0.90565 0.47927 0.0
O717 O 0.57798 0.90348 0.47361 0.0
O718 O 0.50335 0.89012 0.47647 0.0
C719 C 0.70224 0.89934 0.46605 0.0
O720 O 0.68317 0.911 0.47831 0.0
C721 C 0.42432 0.82738 0.4765 0.0
C722 C 0.37894 0.82565 0.45463 0.0
C723 C 0.38365 0.81617 0.47011 0.0
N724 N 0.44313 0.84192 0.46501 0.0
N725 N 0.41481 0.8412 0.4522 0.0
C726 C 0.44661 0.82356 0.4928 0.0
H727 H 0.48277 0.83164 0.49324 0.0
H728 H 0.44843 0.80414 0.49569 0.0
H729 H 0.42424 0.83237 0.50218 0.0
C730 C 0.6343 0.83358 0.47242 0.0
N731 N 0.59994 0.84907 0.46807 0.0
N732 N 0.55809 0.83829 0.46834 0.0
C733 C 0.56573 0.81479 0.472 0.0
C734 C 0.61417 0.81133 0.47482 0.0
C735 C 0.68563 0.84017 0.47477 0.0
H736 H 0.68792 0.85716 0.4817 0.0
H737 H 0.70544 0.8262 0.48159 0.0
H738 H 0.70278 0.84261 0.46274 0.0
O739 O 0.58005 0.88297 0.43792 0.0
O740 O 0.50723 0.86789 0.43987 0.0
H741 H 0.54534 0.77936 0.46465 0.0
H742 H 0.519 0.78945 0.48315 0.0
C743 C 0.52949 0.79523 0.47076 0.0
H744 H 0.4979 0.80125 0.46381 0.0
H745 H 0.42112 0.85051 0.4414 0.0
O746 O 0.67581 0.88671 0.45691 0.0
C747 C 0.54018 0.87767 0.43156 0.0
Co748 Co 0.14378 0.87686 0.29179 0.0
Co749 Co 0.24298 0.85523 0.28069 0.0
C750 C 0.21182 0.903 0.26911 0.0
O751 O 0.17503 0.90026 0.27789 0.0
O752 O 0.24339 0.88649 0.26772 0.0
C753 C 0.05371 0.89368 0.28185 0.0
O754 O 0.07647 0.89659 0.26803 0.0
C755 C 0.3238 0.8251 0.26617 0.0
C756 C 0.35457 0.81209 0.28923 0.0
C757 C 0.35836 0.80951 0.27257 0.0
N758 N 0.30014 0.83557 0.27863 0.0
N759 N 0.31987 0.82798 0.29229 0.0
C760 C 0.31143 0.82897 0.24871 0.0
H761 H 0.27846 0.83987 0.24759 0.0
H762 H 0.30693 0.81145 0.24247 0.0
H763 H 0.34097 0.83877 0.24267 0.0
C764 C 0.10896 0.83087 0.27956 0.0
N765 N 0.14549 0.84579 0.28275 0.0
N766 N 0.1853 0.83671 0.27683 0.0
C767 C 0.17427 0.81575 0.26927 0.0
C768 C 0.12545 0.81173 0.27062 0.0
C769 C 0.05862 0.83437 0.28513 0.0
H770 H 0.05781 0.84361 0.29704 0.0
H771 H 0.03905 0.84506 0.27595 0.0
H772 H 0.04012 0.81683 0.28634 0.0
O773 O 0.17527 0.87804 0.31257 0.0
O774 O 0.24575 0.86453 0.30439 0.0
H775 H 0.19339 0.78229 0.25781 0.0
H776 H 0.21762 0.80889 0.24857 0.0
C777 C 0.20881 0.80026 0.26032 0.0
H778 H 0.24182 0.79814 0.26755 0.0
H779 H 0.30832 0.83276 0.30388 0.0
O780 O 0.07692 0.8868 0.29426 0.0
C781 C 0.21848 0.87283 0.31541 0.0
Co782 Co 0.60836 0.88364 0.2823 0.0
Co783 Co 0.50759 0.90743 0.27748 0.0
C784 C 0.53313 0.85731 0.26489 0.0
O785 O 0.57505 0.85892 0.27057 0.0
O786 O 0.50284 0.87448 0.26614 0.0
C787 C 0.70176 0.86172 0.27703 0.0
O788 O 0.68313 0.85024 0.26462 0.0
C789 C 0.43608 0.94083 0.26226 0.0
C790 C 0.38811 0.94635 0.28321 0.0
C791 C 0.39704 0.95425 0.26757 0.0
N792 N 0.45021 0.92626 0.27445 0.0
N793 N 0.42049 0.92934 0.28675 0.0
C794 C 0.45741 0.94053 0.24559 0.0
H795 H 0.49292 0.93175 0.24574 0.0
H796 H 0.46005 0.95884 0.24043 0.0
H797 H 0.43365 0.93004 0.23748 0.0
C798 C 0.64073 0.92746 0.26668 0.0
N799 N 0.60471 0.91335 0.27163 0.0
N800 N 0.56429 0.92537 0.27119 0.0
C801 C 0.57456 0.94834 0.26684 0.0
C802 C 0.62321 0.95016 0.2637 0.0
C803 C 0.69122 0.91926 0.26465 0.0
H804 H 0.69159 0.90151 0.25861 0.0
H805 H 0.71226 0.93192 0.2571 0.0
H806 H 0.70831 0.9177 0.27676 0.0
O807 O 0.58211 0.88585 0.30416 0.0
O808 O 0.51009 0.90156 0.30141 0.0
H809 H 0.55983 0.98504 0.273 0.0
H810 H 0.52804 0.97387 0.25581 0.0
C811 C 0.54097 0.96907 0.2681 0.0
H812 H 0.51055 0.96469 0.27615 0.0
H813 H 0.42362 0.92064 0.29792 0.0
O814 O 0.67561 0.87531 0.28561 0.0
C815 C 0.54301 0.89291 0.31028 0.0
Co816 Co 0.85798 0.63053 0.04325 0.0
Co817 Co 0.76045 0.60866 0.03072 0.0
C818 C 0.79077 0.65707 0.02033 0.0
O819 O 0.8268 0.65417 0.02947 0.0
O820 O 0.75972 0.64043 0.01826 0.0
C821 C 0.94777 0.6486 0.03441 0.0
O822 O 0.9254 0.65199 0.02057 0.0
C823 C 0.68001 0.57902 0.01519 0.0
C824 C 0.65949 0.55892 0.03724 0.0
C825 C 0.64953 0.56085 0.02085 0.0
N826 N 0.70686 0.58694 0.02776 0.0
N827 N 0.69367 0.57487 0.04084 0.0
C828 C 0.68228 0.58934 -0.00157 0.0
H829 H 0.69951 0.60728 -0.00133 0.0
H830 H 0.70354 0.57742 0.99046 0.0
H831 H 0.64585 0.59071 0.99323 0.0
C832 C 0.89508 0.58565 0.02968 0.0
N833 N 0.8582 0.60008 0.03338 0.0
N834 N 0.81893 0.59144 0.02685 0.0
C835 C 0.83038 0.57144 0.01834 0.0
C836 C 0.8791 0.56738 0.0198 0.0
C837 C 0.94529 0.58902 0.03542 0.0
H838 H 0.94582 0.59747 0.0476 0.0
H839 H 0.96473 0.60046 0.02661 0.0
H840 H 0.9641 0.57151 0.03606 0.0
O841 O 0.82437 0.63029 0.06369 0.0
O842 O 0.7548 0.61672 0.0546 0.0
H843 H 0.7662 0.55119 0.01559 0.0
H844 H 0.81391 0.542 0.00217 0.0
C845 C 0.79633 0.55761 0.00802 0.0
H846 H 0.782 0.56965 -0.00151 0.0
H847 H 0.70914 0.57695 0.05228 0.0
O848 O 0.92434 0.64087 0.04655 0.0
C849 C 0.78109 0.62466 0.06603 0.0
Co850 Co 0.39431 0.64164 0.03475 0.0
Co851 Co 0.4961 0.66265 0.02735 0.0
C852 C 0.46611 0.61278 0.01689 0.0
O853 O 0.42613 0.61547 0.02387 0.0
O854 O 0.49713 0.62966 0.01629 0.0
C855 C 0.30099 0.62061 0.0296 0.0
O856 O 0.31978 0.60996 0.01688 0.0
C857 C 0.56858 0.69411 0.01083 0.0
C858 C 0.61839 0.69965 0.03125 0.0
C859 C 0.60873 0.70713 0.01557 0.0
N860 N 0.55447 0.68024 0.02339 0.0
N861 N 0.58536 0.68325 0.03535 0.0
C862 C 0.54601 0.6936 0.99436 0.0
H863 H 0.50973 0.6857 0.99497 0.0
H864 H 0.54485 0.71173 0.98884 0.0
H865 H 0.5681 0.68218 0.98628 0.0
C866 C 0.36326 0.68463 0.01773 0.0
N867 N 0.39861 0.67023 0.02287 0.0
N868 N 0.43993 0.68134 0.02147 0.0
C869 C 0.43102 0.70407 0.01633 0.0
C870 C 0.3825 0.7064 0.01336 0.0
C871 C 0.31128 0.67849 0.01837 0.0
H872 H 0.30033 0.67588 0.03119 0.0
H873 H 0.30504 0.66163 0.01156 0.0
H874 H 0.28872 0.6928 0.01302 0.0
O875 O 0.42189 0.64595 0.05619 0.0
O876 O 0.49639 0.65728 0.05139 0.0
H877 H 0.49717 0.71997 0.02415 0.0
H878 H 0.44888 0.74086 0.02107 0.0
C879 C 0.46605 0.72428 0.01641 0.0
H880 H 0.4775 0.72806 0.00378 0.0
H881 H 0.58256 0.67502 0.0467 0.0
O882 O 0.32708 0.63365 0.03858 0.0
C883 C 0.46324 0.65149 0.06119 0.0
Co884 Co 0.85753 0.6338 0.20693 0.0
Co885 Co 0.75932 0.65678 0.21761 0.0
C886 C 0.78869 0.60963 0.23052 0.0
O887 O 0.82575 0.6116 0.22174 0.0
O888 O 0.75729 0.62632 0.23132 0.0
C889 C 0.9487 0.61742 0.21654 0.0
O890 O 0.92756 0.61547 0.23073 0.0
C891 C 0.67689 0.68702 0.23108 0.0
C892 C 0.65846 0.7053 0.20811 0.0
C893 C 0.64644 0.70442 0.22439 0.0
N894 N 0.7055 0.67849 0.21917 0.0
N895 N 0.69363 0.6895 0.20553 0.0
C896 C 0.67774 0.678 0.24819 0.0
H897 H 0.69469 0.66001 0.24872 0.0
H898 H 0.6988 0.69044 0.25586 0.0
H899 H 0.64095 0.67713 0.25314 0.0
C900 C 0.89317 0.68097 0.21729 0.0
N901 N 0.85705 0.66539 0.21503 0.0
N902 N 0.81747 0.67452 0.221 0.0
C903 C 0.828 0.69595 0.22789 0.0
C904 C 0.87628 0.70066 0.22567 0.0
C905 C 0.94362 0.67681 0.21204 0.0
H906 H 0.96252 0.66662 0.22165 0.0
H907 H 0.96295 0.69396 0.21025 0.0
H908 H 0.94449 0.6666 0.2005 0.0
O909 O 0.82491 0.63167 0.18629 0.0
O910 O 0.75509 0.64639 0.19417 0.0
H911 H 0.76431 0.71695 0.22786 0.0
H912 H 0.80996 0.72787 0.24152 0.0
C913 C 0.79277 0.71154 0.23647 0.0
H914 H 0.77608 0.70116 0.24645 0.0
H915 H 0.71059 0.68675 0.19441 0.0
O916 O 0.92411 0.62348 0.20425 0.0
C917 C 0.78187 0.63716 0.18334 0.0
Co918 Co 0.39485 0.62691 0.206 0.0
Co919 Co 0.49863 0.60854 0.21396 0.0
C920 C 0.46889 0.65781 0.22305 0.0
O921 O 0.4295 0.65324 0.21605 0.0
O922 O 0.50122 0.64169 0.22476 0.0
C923 C 0.30274 0.64586 0.21482 0.0
O924 O 0.32413 0.6538 0.22797 0.0
C925 C 0.58463 0.5808 0.22722 0.0
C926 C 0.60381 0.56233 0.2044 0.0
C927 C 0.61539 0.56336 0.22072 0.0
N928 N 0.55583 0.58892 0.21521 0.0
N929 N 0.56849 0.57797 0.20164 0.0
C930 C 0.58399 0.59048 0.24417 0.0
H931 H 0.56624 0.60829 0.24444 0.0
H932 H 0.56403 0.5782 0.25227 0.0
H933 H 0.62095 0.59201 0.24889 0.0
C934 C 0.36738 0.5835 0.22329 0.0
N935 N 0.40123 0.59859 0.21787 0.0
N936 N 0.44382 0.58993 0.22125 0.0
C937 C 0.43769 0.5686 0.22897 0.0
C938 C 0.38913 0.56425 0.23065 0.0
C939 C 0.31489 0.58662 0.22066 0.0
H940 H 0.30794 0.59177 0.20787 0.0
H941 H 0.30162 0.60096 0.22882 0.0
H942 H 0.29475 0.56995 0.22337 0.0
O943 O 0.41853 0.62224 0.18429 0.0
O944 O 0.4944 0.61474 0.18984 0.0
H945 H 0.50351 0.55041 0.22427 0.0
H946 H 0.46289 0.53413 0.23732 0.0
C947 C 0.4769 0.55217 0.23414 0.0
H948 H 0.49451 0.55982 0.24499 0.0
H949 H 0.55157 0.58029 0.19048 0.0
O950 O 0.3271 0.63525 0.20399 0.0
C951 C 0.46103 0.61861 0.17969 0.0
Co952 Co 0.14113 0.38964 0.95596 0.0
Co953 Co 0.24059 0.41275 0.96481 0.0
C954 C 0.21092 0.36735 0.98003 0.0
O955 O 0.17292 0.369 0.97175 0.0
O956 O 0.24371 0.38329 0.97927 0.0
C957 C 0.05393 0.37935 0.96967 0.0
O958 O 0.08017 0.38353 0.98259 0.0
C959 C 0.322 0.4428 0.97824 0.0
C960 C 0.3418 0.46139 0.95551 0.0
C961 C 0.35221 0.46055 0.97193 0.0
N962 N 0.29472 0.43415 0.96604 0.0
N963 N 0.30748 0.44522 0.95252 0.0
C964 C 0.32032 0.43345 0.99527 0.0
H965 H 0.30505 0.41507 0.99548 0.0
H966 H 0.29741 0.44517 0.00284 0.0
H967 H 0.35665 0.43334 0.00063 0.0
C968 C 0.10827 0.43837 0.96374 0.0
N969 N 0.14343 0.42207 0.96231 0.0
N970 N 0.1832 0.431 0.96827 0.0
C971 C 0.17346 0.45291 0.97457 0.0
C972 C 0.12569 0.45819 0.97182 0.0
C973 C 0.05831 0.43514 0.95771 0.0
H974 H 0.03504 0.42986 0.96799 0.0
H975 H 0.04426 0.45228 0.95281 0.0
H976 H 0.05682 0.42147 0.94796 0.0
O977 O 0.17186 0.38543 0.93504 0.0
O978 O 0.24179 0.40173 0.94149 0.0
H979 H 0.2384 0.47293 0.97473 0.0
H980 H 0.19217 0.48535 0.9875 0.0
C981 C 0.20879 0.46846 0.98313 0.0
H982 H 0.22364 0.45848 0.9936 0.0
H983 H 0.2915 0.44233 0.94125 0.0
O984 O 0.07383 0.37945 0.95578 0.0
C985 C 0.21414 0.39154 0.9313 0.0
Co986 Co 0.61476 0.38502 0.95609 0.0
Co987 Co 0.51418 0.36116 0.96229 0.0
C988 C 0.53487 0.41053 0.97382 0.0
O989 O 0.57547 0.40855 0.96717 0.0
O990 O 0.50505 0.39311 0.97407 0.0
C991 C 0.69943 0.40354 0.96965 0.0
O992 O 0.67336 0.40337 0.98292 0.0
C993 C 0.43284 0.32968 0.97465 0.0
C994 C 0.41057 0.31437 0.95111 0.0
C995 C 0.40237 0.31257 0.96764 0.0
N996 N 0.45859 0.34022 0.96271 0.0
N997 N 0.44389 0.33126 0.94871 0.0
C998 C 0.43986 0.33491 0.9923 0.0
H999 H 0.47191 0.3463 0.99415 0.0
H1000 H 0.44322 0.31794 -0.00074 0.0
H1001 H 0.40828 0.34474 -0.00305 0.0
C1002 C 0.64846 0.34074 0.97125 0.0
N1003 N 0.61238 0.3548 0.96624 0.0
N1004 N 0.57128 0.34443 0.96967 0.0
C1005 C 0.58082 0.32336 0.97734 0.0
C1006 C 0.62995 0.3208 0.97881 0.0
C1007 C 0.70021 0.34508 0.96783 0.0
H1008 H 0.7048 0.35467 0.95615 0.0
H1009 H 0.71574 0.35573 0.97789 0.0
H1010 H 0.72005 0.32786 0.9672 0.0
O1011 O 0.5937 0.38234 0.93392 0.0
O1012 O 0.52081 0.36836 0.9383 0.0
H1013 H 0.51558 0.30397 0.97411 0.0
H1014 H 0.5605 0.28801 0.98552 0.0
C1015 C 0.54436 0.30587 0.98322 0.0
H1016 H 0.52919 0.31251 0.9948 0.0
H1017 H 0.4582 0.3358 0.93742 0.0
O1018 O 0.68049 0.39732 0.95629 0.0
C1019 C 0.55322 0.3758 0.92866 0.0
Co1020 Co 0.1388 0.38701 0.78825 0.0
Co1021 Co 0.235 0.36096 0.77871 0.0
C1022 C 0.21096 0.40782 0.76442 0.0
O1023 O 0.17365 0.4072 0.77309 0.0
O1024 O 0.24111 0.39058 0.76436 0.0
C1025 C 0.05492 0.40166 0.77403 0.0
O1026 O 0.08262 0.39866 0.76131 0.0
C1027 C 0.31215 0.32765 0.76547 0.0
C1028 C 0.33662 0.3127 0.78887 0.0
C1029 C 0.34305 0.31055 0.77227 0.0
N1030 N 0.28823 0.3387 0.77763 0.0
N1031 N 0.30399 0.32984 0.79152 0.0
C1032 C 0.30302 0.33243 0.74788 0.0
H1033 H 0.2716 0.34434 0.74636 0.0
H1034 H 0.29737 0.31528 0.74129 0.0
H1035 H 0.33452 0.34154 0.74254 0.0
C1036 C 0.09884 0.34079 0.77886 0.0
N1037 N 0.13707 0.35493 0.78112 0.0
N1038 N 0.17524 0.34447 0.77507 0.0
C1039 C 0.16138 0.32355 0.76805 0.0
C1040 C 0.11231 0.3209 0.77005 0.0
C1041 C 0.05037 0.34516 0.7859 0.0
H1042 H 0.05243 0.35736 0.79652 0.0
H1043 H 0.02678 0.3529 0.77649 0.0
H1044 H 0.03414 0.32791 0.78979 0.0
O1045 O 0.16895 0.38943 0.80928 0.0
O1046 O 0.23691 0.37173 0.80217 0.0
H1047 H 0.22534 0.30285 0.76638 0.0
H1048 H 0.17527 0.29015 0.75553 0.0
C1049 C 0.19363 0.30708 0.75888 0.0
H1050 H 0.20559 0.31615 0.74762 0.0
H1051 H 0.29109 0.33478 0.80291 0.0
O1052 O 0.07284 0.39926 0.78814 0.0
C1053 C 0.2107 0.38218 0.81269 0.0
Co1054 Co 0.61621 0.38398 0.78175 0.0
Co1055 Co 0.51663 0.409 0.77607 0.0
C1056 C 0.54106 0.36359 0.75917 0.0
O1057 O 0.58123 0.36438 0.76624 0.0
O1058 O 0.50932 0.37979 0.76137 0.0
C1059 C 0.70333 0.37067 0.76805 0.0
O1060 O 0.67842 0.374 0.75471 0.0
C1061 C 0.43654 0.44113 0.76414 0.0
C1062 C 0.42098 0.45963 0.78729 0.0
C1063 C 0.40922 0.45964 0.77096 0.0
N1064 N 0.46377 0.43132 0.77595 0.0
N1065 N 0.45341 0.44229 0.78974 0.0
C1066 C 0.43527 0.43212 0.74702 0.0
H1067 H 0.44769 0.41322 0.74652 0.0
H1068 H 0.45913 0.44305 0.73927 0.0
H1069 H 0.39856 0.43348 0.74206 0.0
C1070 C 0.65127 0.43213 0.77356 0.0
N1071 N 0.61524 0.41655 0.77592 0.0
N1072 N 0.57469 0.42666 0.77166 0.0
C1073 C 0.58459 0.44877 0.76565 0.0
C1074 C 0.63338 0.45279 0.76673 0.0
C1075 C 0.70252 0.42759 0.77758 0.0
H1076 H 0.72092 0.42067 0.76662 0.0
H1077 H 0.72053 0.44455 0.7811 0.0
H1078 H 0.70577 0.41463 0.78772 0.0
O1079 O 0.58815 0.3795 0.80295 0.0
O1080 O 0.51775 0.39693 0.79923 0.0
H1081 H 0.56543 0.48278 0.75484 0.0
H1082 H 0.53136 0.45713 0.74813 0.0
C1083 C 0.54863 0.46568 0.75874 0.0
H1084 H 0.52098 0.46958 0.76798 0.0
H1085 H 0.47006 0.43862 0.8008 0.0
O1086 O 0.68251 0.37257 0.7817 0.0
C1087 C 0.54733 0.38563 0.80819 0.0
H1088 H 0.39223 0.02225 0.02159 0.0
H1089 H 0.44735 0.0831 0.99524 0.0
H1090 H 0.45635 0.9971 0.01045 0.0
H1091 H 0.51155 0.05833 0.98425 0.0
H1092 H 0.59015 0.9977 0.95585 0.0
H1093 H 0.52727 0.02432 0.96593 0.0
H1094 H 0.54416 0.99435 0.01402 0.0
H1095 H 0.60682 0.96771 0.00376 0.0
C1096 C 0.41748 0.03001 0.01312 0.0
C1097 C 0.41478 0.05439 0.00906 0.0
C1098 C 0.45454 0.01582 0.00695 0.0
C1099 C 0.48935 0.02582 -0.0034 0.0
C1100 C 0.48525 0.05004 0.99209 0.0
C1101 C 0.44847 0.06419 -0.00168 0.0
C1102 C 0.58139 0.9975 0.96867 0.0
C1103 C 0.6037 0.98116 0.97915 0.0
C1104 C 0.54516 0.01252 0.97443 0.0
C1105 C 0.53027 0.0112 0.99074 0.0
C1106 C 0.55425 0.99549 0.00134 0.0
C1107 C 0.59066 0.98061 0.99558 0.0
H1108 H 0.64202 0.27307 0.97213 0.0
H1109 H 0.6848 0.32935 0.00495 0.0
H1110 H 0.70305 0.24656 0.98379 0.0
H1111 H 0.74632 0.30346 0.01631 0.0
H1112 H 0.82586 0.24261 0.0423 0.0
H1113 H 0.76176 0.26832 0.03223 0.0
H1114 H 0.78988 0.24396 0.98329 0.0
H1115 H 0.853 0.21768 0.99361 0.0
C1116 C 0.66368 0.27947 0.98213 0.0
C1117 C 0.65848 0.303 0.98786 0.0
C1118 C 0.69915 0.26453 0.98861 0.0
C1119 C 0.73 0.27298 0.00088 0.0
C1120 C 0.72306 0.29625 0.00701 0.0
C1121 C 0.68776 0.31107 0.00056 0.0
C1122 C 0.81863 0.24311 0.02938 0.0
C1123 C 0.84417 0.22832 0.0187 0.0
C1124 C 0.78194 0.25777 0.02359 0.0
C1125 C 0.77014 0.25796 0.00696 0.0
C1126 C 0.79729 0.24385 0.9962 0.0
C1127 C 0.83399 0.22917 0.00203 0.0
H1128 H 0.6318 0.29067 0.23352 0.0
H1129 H 0.56288 0.2944 0.28024 0.0
H1130 H 0.57047 0.26264 0.22404 0.0
H1131 H 0.50064 0.26722 0.27079 0.0
H1132 H 0.41105 0.20473 0.25109 0.0
H1133 H 0.47695 0.22844 0.26212 0.0
H1134 H 0.48848 0.26624 0.21638 0.0
H1135 H 0.42364 0.24178 0.20536 0.0
C1136 C 0.6042 0.2849 0.24187 0.0
C1137 C 0.60184 0.29453 0.25756 0.0
C1138 C 0.56855 0.26925 0.23639 0.0
C1139 C 0.52986 0.26308 0.24652 0.0
C1140 C 0.52978 0.27145 0.26265 0.0
C1141 C 0.56551 0.28694 0.26811 0.0
C1142 C 0.42709 0.21857 0.24362 0.0
C1143 C 0.41203 0.22186 0.22753 0.0
C1144 C 0.46503 0.23203 0.24985 0.0
C1145 C 0.4886 0.24909 0.24009 0.0
C1146 C 0.47202 0.2529 0.22414 0.0
C1147 C 0.43429 0.23931 0.2179 0.0
H1148 H 0.81659 0.03053 0.20513 0.0
H1149 H 0.84398 0.06065 0.25242 0.0
H1150 H 0.75362 1.0053 0.2166 0.0
H1151 H 0.78017 0.03601 0.264 0.0
H1152 H 0.69849 0.96783 0.28046 0.0
H1153 H 0.75863 0.99581 0.27059 0.0
H1154 H 0.6741 1.00832 0.22748 0.0
H1155 H 0.61465 0.97946 0.23729 0.0
C1156 C 0.80939 0.03141 0.21805 0.0
C1157 C 0.83523 0.04718 0.22797 0.0
C1158 C 0.77285 0.01733 0.22459 0.0
C1159 C 0.76121 0.01885 0.2412 0.0
C1160 C 0.78826 0.03423 0.25119 0.0
C1161 C 0.82495 0.04824 0.24463 0.0
C1162 C 0.69242 0.977 0.26904 0.0
C1163 C 0.65233 0.97143 0.25954 0.0
C1164 C 0.72684 0.99305 0.26336 0.0
C1165 C 0.72176 1.00403 0.24808 0.0
C1166 C 0.67974 0.99973 0.23912 0.0
C1167 C 0.64528 0.98355 0.24482 0.0
H1168 H 0.34718 0.71506 0.98352 0.0
H1169 H 0.35142 0.74314 0.03227 0.0
H1170 H 0.28356 0.74327 0.97659 0.0
H1171 H 0.28723 0.77133 0.02553 0.0
H1172 H 0.20278 0.833 -0.00022 0.0
H1173 H 0.26672 0.80633 0.00871 0.0
H1174 H 0.19867 0.74724 0.98381 0.0
H1175 H 0.13505 0.77428 0.97468 0.0
C1176 C 0.33536 0.72788 0.99257 0.0
C1177 C 0.35463 0.72747 0.00827 0.0
C1178 C 0.29835 0.74365 0.98874 0.0
C1179 C 0.27974 0.75923 0.0006 0.0
C1180 C 0.30085 0.7596 0.01612 0.0
C1181 C 0.33786 0.74372 0.01995 0.0
C1182 C 0.20099 0.81414 -0.00338 0.0
C1183 C 0.16409 0.80554 0.98667 0.0
C1184 C 0.23762 0.79891 0.00167 0.0
C1185 C 0.23819 0.77477 -0.00325 0.0
C1186 C 0.19968 0.76588 0.98753 0.0
C1187 C 0.16287 0.78117 0.98253 0.0
H1188 H 0.58309 0.78014 0.7874 0.0
H1189 H 0.61327 0.80501 0.7389 0.0
H1190 H 0.5215 0.75326 0.77675 0.0
H1191 H 0.55193 0.77803 0.72808 0.0
H1192 H 0.39997 0.75161 0.71771 0.0
H1193 H 0.46347 0.77679 0.72922 0.0
H1194 H 0.50778 0.71772 0.75972 0.0
H1195 H 0.44419 0.69291 0.7483 0.0
C1196 C 0.57751 0.77916 0.77439 0.0
C1197 C 0.60311 0.79423 0.7639 0.0
C1198 C 0.54206 0.76397 0.76829 0.0
C1199 C 0.53133 0.76378 0.75159 0.0
C1200 C 0.55876 0.77809 0.74103 0.0
C1201 C 0.5944 0.79317 0.74714 0.0
C1202 C 0.4227 0.74436 0.72715 0.0
C1203 C 0.41706 0.72058 0.73234 0.0
C1204 C 0.45943 0.75855 0.73356 0.0
C1205 C 0.491 0.74915 0.74527 0.0
C1206 C 0.48399 0.72555 0.75082 0.0
C1207 C 0.44754 0.7114 0.74435 0.0
H1208 H 0.34754 0.06067 0.75894 0.0
H1209 H 0.34102 0.02615 0.71218 0.0
H1210 H 0.28548 0.03368 0.76919 0.0
H1211 H 0.27805 0.99959 0.72206 0.0
H1212 H 0.19342 0.94246 0.74969 0.0
H1213 H 0.25826 0.96742 0.73963 0.0
H1214 H 0.20075 0.02805 0.76592 0.0
H1215 H 0.13659 1.00242 0.7765 0.0
C1216 C 0.33366 0.04677 0.75104 0.0
C1217 C 0.34943 0.04504 0.73493 0.0
C1218 C 0.29745 0.03167 0.75676 0.0
C1219 C 0.27611 0.01466 0.74639 0.0
C1220 C 0.2938 0.01228 0.73045 0.0
C1221 C 0.33011 0.02732 0.72479 0.0
C1222 C 0.19436 0.96124 0.7531 0.0
C1223 C 0.16009 0.97063 0.76379 0.0
C1224 C 0.2315 0.97557 0.74734 0.0
C1225 C 0.23516 0.99974 0.75206 0.0
C1226 C 0.19959 1.00938 0.76229 0.0
C1227 C 0.16239 0.99491 0.76813 0.0
H1228 H 0.60725 0.49835 0.46472 0.0
H1229 H 0.5896 0.45904 0.50938 0.0
H1230 H 0.54677 0.5272 0.4735 0.0
H1231 H 0.53034 0.48818 0.5186 0.0
H1232 H 0.38754 0.5264 0.52215 0.0
H1233 H 0.44956 0.4987 0.51269 0.0
H1234 H 0.52667 0.55838 0.49171 0.0
H1235 H 0.46367 0.58548 0.50037 0.0
C1236 C 0.59171 0.49655 0.47672 0.0
C1237 C 0.60363 0.47696 0.48658 0.0
C1238 C 0.55678 0.5129 0.48173 0.0
C1239 C 0.53312 0.5099 0.49672 0.0
C1240 C 0.54698 0.4908 0.50686 0.0
C1241 C 0.58161 0.47441 0.50177 0.0
C1242 C 0.41734 0.53337 0.51523 0.0
C1243 C 0.42108 0.55801 0.51208 0.0
C1244 C 0.45328 0.51764 0.51002 0.0
C1245 C 0.49366 0.52633 0.50163 0.0
C1246 C 0.49621 0.55096 0.49805 0.0
C1247 C 0.46026 0.56654 0.50314 0.0
H1248 H 0.83874 0.70408 0.48916 0.0
H1249 H 0.81759 0.74262 0.53396 0.0
H1250 H 0.77144 0.7254 0.47695 0.0
H1251 H 0.75112 0.76456 0.52178 0.0
H1252 H 0.60862 0.78539 0.50277 0.0
H1253 H 0.67029 0.75832 0.51319 0.0
H1254 H 0.74511 0.76345 0.46737 0.0
H1255 H 0.68268 0.7897 0.45699 0.0
C1256 C 0.82049 0.71772 0.49619 0.0
C1257 C 0.83358 0.72208 0.51237 0.0
C1258 C 0.78169 0.72978 0.48928 0.0
C1259 C 0.75524 0.74647 0.49844 0.0
C1260 C 0.76978 0.7514 0.51448 0.0
C1261 C 0.80838 0.73923 0.52139 0.0
C1262 C 0.63725 0.77981 0.49478 0.0
C1263 C 0.64101 0.78944 0.47911 0.0
C1264 C 0.67312 0.76475 0.50081 0.0
C1265 C 0.71341 0.75917 0.49127 0.0
C1266 C 0.71475 0.76726 0.47508 0.0
C1267 C 0.67885 0.78219 0.46907 0.0
H1268 H 0.80609 0.545 0.7044 0.0
H1269 H 0.87746 0.54398 0.75078 0.0
H1270 H 0.74504 0.518 0.71485 0.0
H1271 H 0.81743 0.51598 0.76122 0.0
H1272 H 0.67356 0.49185 0.78096 0.0
H1273 H 0.73548 0.51775 0.7694 0.0
H1274 H 0.72542 0.47905 0.72398 0.0
H1275 H 0.6625 0.45395 0.73552 0.0
C1276 C 0.80927 0.53839 0.71674 0.0
C1277 C 0.84605 0.54667 0.72686 0.0
C1278 C 0.77432 0.5229 0.72275 0.0
C1279 C 0.77568 0.5151 0.739 0.0
C1280 C 0.81454 0.52212 0.74878 0.0
C1281 C 0.84943 0.53779 0.74275 0.0
C1282 C 0.68379 0.48952 0.76836 0.0
C1283 C 0.66276 0.47146 0.75894 0.0
C1284 C 0.71987 0.50396 0.76182 0.0
C1285 C 0.73599 0.50035 0.74579 0.0
C1286 C 0.71369 0.48257 0.73628 0.0
C1287 C 0.67744 0.46829 0.74281 0.0
H1288 H 0.14848 0.30913 0.50916 0.0
H1289 H 0.1766 0.28543 0.46027 0.0
H1290 H 0.21321 0.28365 0.51921 0.0
H1291 H 0.24265 0.26086 0.46998 0.0
H1292 H 0.33125 0.20286 0.49541 0.0
H1293 H 0.26565 0.22672 0.48472 0.0
H1294 H 0.29839 0.28285 0.51927 0.0
H1295 H 0.36305 0.25813 0.53036 0.0
C1296 C 0.16797 0.298 0.50065 0.0
C1297 C 0.15768 0.29905 0.484 0.0
C1298 C 0.20568 0.28381 0.50631 0.0
C1299 C 0.23397 0.27052 0.49539 0.0
C1300 C 0.22173 0.27071 0.4788 0.0
C1301 C 0.18384 0.28474 0.47319 0.0
C1302 C 0.32513 0.22062 0.50036 0.0
C1303 C 0.35249 0.22895 0.51346 0.0
C1304 C 0.28738 0.23428 0.49431 0.0
C1305 C 0.27622 0.25668 0.50121 0.0
C1306 C 0.30528 0.26548 0.51387 0.0
C1307 C 0.34292 0.25163 0.52002 0.0
H1308 H 0.3493 0.56279 0.26046 0.0
H1309 H 0.36732 0.5217 0.21658 0.0
H1310 H 0.28825 0.53463 0.2698 0.0
H1311 H 0.30531 0.49377 0.22551 0.0
H1312 H 0.21926 0.43741 0.25376 0.0
H1313 H 0.28335 0.4635 0.24451 0.0
H1314 H 0.20684 0.52507 0.26304 0.0
H1315 H 0.14343 0.49845 0.27296 0.0
C1316 C 0.34111 0.54721 0.2531 0.0
C1317 C 0.36363 0.5439 0.23806 0.0
C1318 C 0.30546 0.53139 0.25823 0.0
C1319 C 0.29121 0.51213 0.2483 0.0
C1320 C 0.31555 0.50827 0.23355 0.0
C1321 C 0.35139 0.52407 0.22847 0.0
C1322 C 0.21601 0.45658 0.25569 0.0
C1323 C 0.17666 0.466 0.2641 0.0
C1324 C 0.25266 0.47156 0.25034 0.0
C1325 C 0.25068 0.49639 0.25319 0.0
C1326 C 0.21002 0.50595 0.26095 0.0
C1327 C 0.17331 0.49085 0.26639 0.0
H1328 H 0.08665 0.95608 0.50427 0.0
H1329 H 0.06604 0.98642 0.45665 0.0
H1330 H 0.02061 0.98026 0.51476 0.0
H1331 H 0.00087 0.01123 0.46705 0.0
H1332 H 0.85867 0.03646 0.4851 0.0
H1333 H 0.91991 1.00781 0.47638 0.0
H1334 H 0.99678 0.02011 0.52115 0.0
H1335 H 0.93486 0.04791 0.52989 0.0
C1336 C 0.06867 0.96849 0.49619 0.0
C1337 C 0.08154 0.96974 0.47976 0.0
C1338 C 0.03067 0.98222 0.50213 0.0
C1339 C 0.00485 0.99752 0.49172 0.0
C1340 C 0.01909 0.99926 0.47534 0.0
C1341 C 0.05693 0.98544 0.46943 0.0
C1342 C 0.88786 0.03228 0.49324 0.0
C1343 C 0.89222 0.04426 0.50813 0.0
C1344 C 0.92342 0.01626 0.48817 0.0
C1345 C 0.96394 0.01201 0.49791 0.0
C1346 C 0.9662 0.02281 0.51333 0.0
C1347 C 0.93068 0.0387 0.51838 0.0
H1348 H 0.04124 0.33264 0.7495 0.0
H1349 H 0.1062 0.27201 0.77336 0.0
H1350 H 0.97607 0.30732 0.74015 0.0
H1351 H 0.04178 0.24608 0.76339 0.0
H1352 H 0.897 0.21135 0.75868 0.0
H1353 H 0.9583 0.2391 0.76839 0.0
H1354 H 0.95501 0.27575 0.72208 0.0
H1355 H 0.89273 0.24831 0.71275 0.0
C1356 C 0.04191 0.31368 0.75245 0.0
C1357 C 0.07862 0.30419 0.76211 0.0
C1358 C 0.00463 0.29915 0.74705 0.0
C1359 C 0.00325 0.27467 0.75113 0.0
C1360 C 0.04117 0.26497 0.7603 0.0
C1361 C 0.07851 0.27964 0.76578 0.0
C1362 C 0.90822 0.22599 0.7509 0.0
C1363 C 0.88956 0.22821 0.73517 0.0
C1364 C 0.94403 0.24154 0.75628 0.0
C1365 C 0.96227 0.25945 0.74593 0.0
C1366 C 0.94166 0.26233 0.73044 0.0
C1367 C 0.90567 0.24682 0.72511 0.0
H1368 H 0.06257 0.82233 0.24699 0.0
H1369 H 0.11634 0.76333 0.27546 0.0
H1370 H 0.99918 0.79686 0.23634 0.0
H1371 H 0.05328 0.73731 0.26451 0.0
H1372 H 0.90364 0.7065 0.25705 0.0
H1373 H 0.96674 0.73306 0.26717 0.0
H1374 H 0.9825 0.76314 0.21904 0.0
H1375 H 0.91888 0.7369 0.2092 0.0
C1376 C 0.06144 0.80362 0.25059 0.0
C1377 C 0.09449 0.79461 0.26185 0.0
C1378 C 0.02508 0.78903 0.24454 0.0
C1379 C 0.02079 0.76506 0.24966 0.0
C1380 C 0.0551 0.75581 0.26052 0.0
C1381 C 0.09166 0.77049 0.26657 0.0
C1382 C 0.91983 0.71934 0.24883 0.0
C1383 C 0.9062 0.72003 0.23245 0.0
C1384 C 0.9565 0.7342 0.25451 0.0
C1385 C 0.98021 0.75002 0.24387 0.0
C1386 C 0.96491 0.75132 0.2276 0.0
C1387 C 0.92833 0.73644 0.22196 0.0
H1388 H 0.0998 0.46332 0.00329 0.0
H1389 H 0.08216 0.49473 0.95582 0.0
H1390 H 0.03716 0.48957 0.01404 0.0
H1391 H 0.01923 0.5209 0.96639 0.0
H1392 H 0.94343 0.57973 -0.00305 0.0
H1393 H 0.00589 0.55457 0.98524 0.0
H1394 H 0.94904 0.49316 0.01084 0.0
H1395 H 0.8866 0.5187 0.02268 0.0
C1396 C 0.08321 0.47632 0.9953 0.0
C1397 C 0.09595 0.47738 0.97884 0.0
C1398 C 0.04686 0.49101 0.00133 0.0
C1399 C 0.02278 0.50708 0.99101 0.0
C1400 C 0.03717 0.50879 0.97467 0.0
C1401 C 0.07329 0.49397 0.96863 0.0
C1402 C 0.94381 0.56072 -0.00024 0.0
C1403 C 0.91023 0.55098 0.01055 0.0
C1404 C 0.97957 0.54634 0.9931 0.0
C1405 C 0.98271 0.52193 -0.00276 0.0
C1406 C 0.94793 0.51201 0.00763 0.0
C1407 C 0.91187 0.52644 0.01421 0.0
H1408 H 0.30121 0.16444 0.08502 0.0
H1409 H 0.23114 0.09584 0.08003 0.0
H1410 H 0.28019 0.16537 0.11381 0.0
H1411 H 0.21136 0.09641 0.10912 0.0
H1412 H 0.2198 0.16535 0.16394 0.0
H1413 H 0.20396 0.1629 0.1347 0.0
H1414 H 0.28242 0.09637 0.13234 0.0
H1415 H 0.2994 0.09911 0.16138 0.0
C1416 C 0.28049 0.1498 0.09007 0.0
C1417 C 0.26798 0.13001 0.08046 0.0
C1418 C 0.26809 0.15043 0.10645 0.0
C1419 C 0.24402 0.13101 0.11355 0.0
C1420 C 0.22956 0.11166 0.10379 0.0
C1421 C 0.24087 0.11133 0.08724 0.0
C1422 C 0.23231 0.14984 0.15726 0.0
C1423 C 0.2613 0.13256 0.16479 0.0
C1424 C 0.22323 0.14846 0.14059 0.0
C1425 C 0.242 0.12945 0.1314 0.0
C1426 C 0.26718 0.11105 0.13924 0.0
C1427 C 0.27721 0.11272 0.15579 0.0
H1428 H 0.03216 0.16884 0.07982 0.0
H1429 H 0.94963 0.10352 0.08271 0.0
H1430 H 0.05003 0.16582 0.10893 0.0
H1431 H 0.96865 0.10018 0.11158 0.0
H1432 H 0.02647 0.09643 0.16272 0.0
H1433 H 0.04288 0.09836 0.13343 0.0
H1434 H 0.97773 0.16847 0.13136 0.0
H1435 H 0.95997 0.16623 0.16037 0.0
C1436 C 0.01922 0.15345 0.08655 0.0
C1437 C 0.98909 0.13654 0.07914 0.0
C1438 C 0.02947 0.15174 0.10314 0.0
C1439 C 0.0108 0.13274 0.11237 0.0
C1440 C 0.98389 0.11483 0.10465 0.0
C1441 C 0.97268 0.11685 0.0882 0.0
C1442 C 0.01697 0.1125 0.15605 0.0
C1443 C 0.99158 0.1311 0.16365 0.0
C1444 C 0.02631 0.11358 0.13937 0.0
C1445 C 0.01161 0.13358 0.13027 0.0
C1446 C 0.98986 0.153 0.13818 0.0
C1447 C 0.97941 0.15165 0.15472 0.0
H1448 H 0.67032 0.91038 0.83372 0.0
H1449 H 0.79259 0.86365 0.82867 0.0
H1450 H 0.68415 0.91263 0.86286 0.0
H1451 H 0.80612 0.86607 0.85814 0.0
H1452 H 0.79285 0.91424 0.91387 0.0
H1453 H 0.80476 0.91214 0.88428 0.0
H1454 H 0.68725 0.86256 0.88045 0.0
H1455 H 0.67509 0.86446 0.90969 0.0
C1456 C 0.70066 0.90093 0.83876 0.0
C1457 C 0.72987 0.88648 0.82893 0.0
C1458 C 0.70866 0.90238 0.85541 0.0
C1459 C 0.74605 0.88951 0.86255 0.0
C1460 C 0.77731 0.87627 0.85274 0.0
C1461 C 0.76939 0.87485 0.83595 0.0
C1462 C 0.77041 0.90244 0.90675 0.0
C1463 C 0.7325 0.88983 0.91404 0.0
C1464 C 0.77735 0.90123 0.8899 0.0
C1465 C 0.74675 0.88724 0.88031 0.0
C1466 C 0.7112 0.87341 0.88772 0.0
C1467 C 0.70415 0.87465 0.90442 0.0
H1468 H 0.97122 0.91323 0.8317 0.0
H1469 H 0.03464 0.84328 0.82546 0.0
H1470 H 0.9601 0.90492 0.86075 0.0
H1471 H 0.02205 0.83463 0.85416 0.0
H1472 H 0.09422 0.85763 0.90241 0.0
H1473 H 0.07401 0.85705 0.87386 0.0
H1474 H 0.92963 0.87833 0.88521 0.0
H1475 H 0.95017 0.8787 0.91435 0.0
C1476 C 0.98083 0.89574 0.83643 0.0
C1477 C 0.00483 0.87908 0.8266 0.0
C1478 C 0.97425 0.89093 0.85299 0.0
C1479 C 0.9912 0.86933 0.85969 0.0
C1480 C 0.00949 0.85158 0.84932 0.0
C1481 C 0.01679 0.85653 0.83294 0.0
C1482 C 0.05798 0.86193 0.8989 0.0
C1483 C 0.02385 0.86839 0.91054 0.0
C1484 C 0.04622 0.86134 0.88254 0.0
C1485 C 1.00009 0.8674 0.87734 0.0
C1486 C 0.96536 0.87346 0.88896 0.0
C1487 C 0.97704 0.87363 0.90555 0.0
H1488 H 0.29541 0.60774 0.659 0.0
H1489 H 0.23006 0.67771 0.66235 0.0
H1490 H 0.27693 0.60626 0.63005 0.0
H1491 H 0.21288 0.67657 0.63306 0.0
H1492 H 0.3049 0.67274 0.58223 0.0
H1493 H 0.28565 0.67537 0.61109 0.0
H1494 H 0.20575 0.60933 0.6078 0.0
H1495 H 0.22394 0.60695 0.57871 0.0
C1496 C 0.27607 0.62253 0.65356 0.0
C1497 C 0.26445 0.64291 0.66273 0.0
C1498 C 0.26517 0.62161 0.63707 0.0
C1499 C 0.24353 0.6413 0.62943 0.0
C1500 C 0.22935 0.66115 0.63879 0.0
C1501 C 0.23915 0.66179 0.65545 0.0
C1502 C 0.28226 0.6591 0.58758 0.0
C1503 C 0.26647 0.63946 0.57835 0.0
C1504 C 0.27082 0.66076 0.60402 0.0
C1505 C 0.24421 0.64257 0.61156 0.0
C1506 C 0.2261 0.62362 0.60216 0.0
C1507 C 0.23663 0.62224 0.58559 0.0
H1508 H 0.03002 0.66098 0.57627 0.0
H1509 H 0.93616 0.59969 0.57974 0.0
H1510 H 0.05053 0.65643 0.60506 0.0
H1511 H 0.95767 0.59484 0.6083 0.0
H1512 H 0.01853 0.58834 0.65917 0.0
H1513 H 0.03199 0.58921 0.6296 0.0
H1514 H 0.98186 0.66243 0.62805 0.0
H1515 H 0.96686 0.66123 0.65726 0.0
C1516 C 0.01499 0.64612 0.58304 0.0
C1517 C 0.98093 0.63091 0.57591 0.0
C1518 C 0.02681 0.64351 0.59945 0.0
C1519 C 0.00569 0.62528 0.60878 0.0
C1520 C 0.9748 0.60887 0.60128 0.0
C1521 C 0.96215 0.6118 0.58501 0.0
C1522 C 0.01169 0.60474 0.65249 0.0
C1523 C 0.99139 0.62466 0.66029 0.0
C1524 C 0.01935 0.60524 0.63568 0.0
C1525 C 0.00814 0.62593 0.62667 0.0
C1526 C 0.99137 0.6464 0.63477 0.0
C1527 C 0.98248 0.64567 0.65141 0.0
H1528 H 0.63294 0.41371 0.40525 0.0
H1529 H 0.77506 0.38594 0.41244 0.0
H1530 H 0.64031 0.40738 0.3762 0.0
H1531 H 0.78182 0.37831 0.38317 0.0
H1532 H 0.78345 0.38588 0.32636 0.0
H1533 H 0.7861 0.39417 0.35566 0.0
H1534 H 0.63821 0.37292 0.35967 0.0
H1535 H 0.63523 0.36592 0.33063 0.0
C1536 C 0.66585 0.40625 0.40055 0.0
C1537 C 0.70318 0.40002 0.41105 0.0
C1538 C 0.66998 0.4024 0.38392 0.0
C1539 C 0.71111 0.39164 0.37739 0.0
C1540 C 0.74962 0.38657 0.38781 0.0
C1541 C 0.74578 0.3909 0.40453 0.0
C1542 C 0.75183 0.38282 0.33364 0.0
C1543 C 0.70893 0.37565 0.32629 0.0
C1544 C 0.75329 0.38754 0.35037 0.0
C1545 C 0.712 0.38483 0.35994 0.0
C1546 C 0.67018 0.37611 0.3526 0.0
C1547 C 0.66853 0.37186 0.33597 0.0
H1548 H 0.05848 0.42006 0.41644 0.0
H1549 H 0.98085 0.35315 0.41824 0.0
H1550 H 0.04442 0.42253 0.38719 0.0
H1551 H 0.96807 0.35531 0.38878 0.0
H1552 H 0.06624 0.35575 0.33924 0.0
H1553 H 0.04578 0.35415 0.36806 0.0
H1554 H 0.9728 0.42207 0.36386 0.0
H1555 H 0.99196 0.42331 0.33473 0.0
C1556 C 0.03758 0.40616 0.4106 0.0
C1557 C 0.02115 0.38629 0.41947 0.0
C1558 C 0.02918 0.40769 0.39394 0.0
C1559 C 0.00516 0.38912 0.38587 0.0
C1560 C 0.9864 0.36988 0.39486 0.0
C1561 C 0.99377 0.36865 0.41163 0.0
C1562 C 0.04487 0.37004 0.3444 0.0
C1563 C 0.03098 0.38975 0.33491 0.0
C1564 C 0.0328 0.36901 0.3608 0.0
C1565 C 0.00763 0.38795 0.36803 0.0
C1566 C 0.99192 0.40721 0.35842 0.0
C1567 C 0.00292 0.40792 0.34185 0.0
H1568 H 0.71679 0.13351 0.66225 0.0
H1569 H 0.85159 0.16904 0.6543 0.0
H1570 H 0.71015 0.12578 0.63294 0.0
H1571 H 0.84421 0.16242 0.62526 0.0
H1572 H 0.85836 0.11854 0.58086 0.0
H1573 H 0.85327 0.12645 0.60974 0.0
H1574 H 0.70286 0.14188 0.60493 0.0
H1575 H 0.70778 0.13294 0.57574 0.0
C1576 C 0.74426 0.14019 0.65417 0.0
C1577 C 0.7851 0.15147 0.66044 0.0
C1578 C 0.74051 0.13578 0.63744 0.0
C1579 C 0.77735 0.14288 0.62686 0.0
C1580 C 0.81606 0.15594 0.63315 0.0
C1581 C 0.82016 0.15993 0.64975 0.0
C1582 C 0.82408 0.12342 0.58596 0.0
C1583 C 0.78362 0.12546 0.57606 0.0
C1584 C 0.82119 0.12816 0.6025 0.0
C1585 C 0.77795 0.13552 0.60954 0.0
C1586 C 0.73672 0.13638 0.59982 0.0
C1587 C 0.73951 0.13127 0.58316 0.0
H1588 H 0.52919 0.16301 0.58192 0.0
H1589 H 0.44597 0.09837 0.57619 0.0
H1590 H 0.53642 0.15481 0.61117 0.0
H1591 H 0.45418 0.0899 0.60507 0.0
H1592 H 0.39315 0.11546 0.65401 0.0
H1593 H 0.41033 0.11621 0.62522 0.0
H1594 H 0.56036 0.12531 0.63533 0.0
H1595 H 0.54306 0.12444 0.66468 0.0
C1596 C 0.5141 0.14663 0.58682 0.0
C1597 C 0.48612 0.13157 0.577 0.0
C1598 C 0.51834 0.1419 0.60349 0.0
C1599 C 0.49496 0.12199 0.61035 0.0
C1600 C 0.47175 0.1056 0.6001 0.0
C1601 C 0.46703 0.11045 0.58361 0.0
C1602 C 0.42992 0.1175 0.6502 0.0
C1603 C 0.46674 0.11997 0.66162 0.0
C1604 C 0.43981 0.11771 0.63367 0.0
C1605 C 0.48674 0.12053 0.62807 0.0
C1606 C 0.52391 0.123 0.6394 0.0
C1607 C 0.51401 0.12244 0.65611 0.0
H1608 H 0.20411 0.85024 0.41352 0.0
H1609 H 0.27473 0.91911 0.41467 0.0
H1610 H 0.22285 0.84636 0.38468 0.0
H1611 H 0.29237 0.91548 0.38556 0.0
H1612 H 0.20081 0.91067 0.33495 0.0
H1613 H 0.2198 0.91439 0.36377 0.0
H1614 H 0.2941 0.84657 0.36219 0.0
H1615 H 0.27629 0.84321 0.33302 0.0
C1616 C 0.22458 0.86429 0.40764 0.0
C1617 C 0.23754 0.88509 0.41618 0.0
C1618 C 0.2357 0.86195 0.39122 0.0
C1619 C 0.25903 0.88062 0.383 0.0
C1620 C 0.27459 0.90082 0.39174 0.0
C1621 C 0.26446 0.90289 0.40832 0.0
C1622 C 0.22229 0.89689 0.34068 0.0
C1623 C 0.23676 0.87656 0.33193 0.0
C1624 C 0.23354 0.89912 0.35709 0.0
C1625 C 0.25847 0.88078 0.36509 0.0
C1626 C 0.27511 0.86099 0.35617 0.0
C1627 C 0.2649 0.85906 0.33958 0.0
H1628 H 0.46741 0.86245 0.41154 0.0
H1629 H 0.59719 0.90444 0.412 0.0
H1630 H 0.46241 0.86756 0.38195 0.0
H1631 H 0.59178 0.90954 0.38281 0.0
H1632 H 0.60979 0.87921 0.33224 0.0
H1633 H 0.60266 0.87714 0.36149 0.0
H1634 H 0.45609 0.90036 0.35847 0.0
H1635 H 0.46293 0.90246 0.32871 0.0
C1636 C 0.4944 0.873 0.4054 0.0
C1637 C 0.53323 0.88262 0.41407 0.0
C1638 C 0.49136 0.87601 0.38852 0.0
C1639 C 0.52713 0.88862 0.38015 0.0
C1640 C 0.56423 0.89936 0.38896 0.0
C1641 C 0.56729 0.89639 0.4057 0.0
C1642 C 0.57585 0.88388 0.33768 0.0
C1643 C 0.53701 0.8912 0.3281 0.0
C1644 C 0.57191 0.88277 0.35448 0.0
C1645 C 0.52905 0.88889 0.36221 0.0
C1646 C 0.48955 0.8956 0.35274 0.0
C1647 C 0.49358 0.89689 0.33577 0.0
H1648 H 0.79207 0.66283 0.08578 0.0
H1649 H 0.72789 0.59251 0.08328 0.0
H1650 H 0.77337 0.66505 0.11471 0.0
H1651 H 0.71057 0.59437 0.11256 0.0
H1652 H 0.80315 0.60023 0.16327 0.0
H1653 H 0.78378 0.5967 0.13446 0.0
H1654 H 0.70171 0.66211 0.1371 0.0
H1655 H 0.71995 0.6653 0.16621 0.0
C1656 C 0.77294 0.64811 0.09141 0.0
C1657 C 0.76169 0.62744 0.08247 0.0
C1658 C 0.7619 0.64945 0.10788 0.0
C1659 C 0.74051 0.62989 0.11576 0.0
C1660 C 0.72678 0.60971 0.10664 0.0
C1661 C 0.73669 0.60864 0.08999 0.0
C1662 C 0.77993 0.6135 0.15779 0.0
C1663 C 0.76348 0.63319 0.16683 0.0
C1664 C 0.76846 0.61134 0.14138 0.0
C1665 C 0.74122 0.62911 0.13366 0.0
C1666 C 0.72251 0.64813 0.14288 0.0
C1667 C 0.73302 0.64996 0.15946 0.0
H1668 H 0.4026 0.60497 0.15546 0.0
H1669 H 0.54158 0.63556 0.16455 0.0
H1670 H 0.41093 0.61365 0.12671 0.0
H1671 H 0.54949 0.64501 0.13545 0.0
H1672 H 0.545 0.6376 0.077 0.0
H1673 H 0.55202 0.62813 0.10613 0.0
H1674 H 0.4082 0.65359 0.11368 0.0
H1675 H 0.40089 0.66229 0.0849 0.0
C1676 C 0.4352 0.61336 0.15123 0.0
C1677 C 0.47108 0.61999 0.16219 0.0
C1678 C 0.43988 0.61846 0.1348 0.0
C1679 C 0.4802 0.63069 0.12897 0.0
C1680 C 0.5179 0.63574 0.13969 0.0
C1681 C 0.51341 0.63033 0.15627 0.0
C1682 C 0.51541 0.64154 0.08503 0.0
C1683 C 0.47209 0.65022 0.07877 0.0
C1684 C 0.51939 0.63611 0.10162 0.0
C1685 C 0.48014 0.63948 0.11201 0.0
C1686 C 0.43847 0.65007 0.10585 0.0
C1687 C 0.43436 0.65519 0.0894 0.0
H1688 H 0.27244 0.4206 0.91354 0.0
H1689 H 0.19044 0.35507 0.911 0.0
H1690 H 0.28634 0.41859 0.88413 0.0
H1691 H 0.20565 0.35272 0.8818 0.0
H1692 H 0.26452 0.3506 0.83012 0.0
H1693 H 0.28012 0.35191 0.85945 0.0
H1694 H 0.21073 0.4209 0.86229 0.0
H1695 H 0.19382 0.41931 0.83317 0.0
C1696 C 0.25872 0.40542 0.90678 0.0
C1697 C 0.22999 0.3881 0.91442 0.0
C1698 C 0.26666 0.40429 0.89003 0.0
C1699 C 0.24716 0.38547 0.88085 0.0
C1700 C 0.22145 0.36725 0.88871 0.0
C1701 C 0.21247 0.36869 0.90534 0.0
C1702 C 0.25372 0.36628 0.83696 0.0
C1703 C 0.22768 0.38478 0.8295 0.0
C1704 C 0.26261 0.367 0.85367 0.0
C1705 C 0.24675 0.38654 0.86297 0.0
C1706 C 0.22374 0.40579 0.85528 0.0
C1707 C 0.21378 0.4048 0.8387 0.0
H1708 H 0.58792 0.3516 0.82716 0.0
H1709 H 0.48093 0.40744 0.82789 0.0
H1710 H 0.58083 0.3472 0.85642 0.0
H1711 H 0.47412 0.40296 0.85752 0.0
H1712 H 0.46838 0.37064 0.91205 0.0
H1713 H 0.45733 0.37059 0.88236 0.0
H1714 H 0.60852 0.3816 0.87597 0.0
H1715 H 0.61972 0.38184 0.90513 0.0
C1716 C 0.56232 0.36269 0.83354 0.0
C1717 C 0.53579 0.38027 0.8253 0.0
C1718 C 0.55818 0.36008 0.85028 0.0
C1719 C 0.52754 0.37502 0.85916 0.0
C1720 C 0.49797 0.39125 0.85086 0.0
C1721 C 0.50202 0.39386 0.83397 0.0
C1722 C 0.49913 0.37307 0.90425 0.0
C1723 C 0.54495 0.37615 0.91094 0.0
C1724 C 0.49273 0.37311 0.88734 0.0
C1725 C 0.53219 0.3758 0.877 0.0
C1726 C 0.57764 0.37914 0.88372 0.0
C1727 C 0.58394 0.3794 0.90045 0.0
H1728 H 0.51112 0.15808 0.05351 0.0
H1729 H 0.50346 0.14134 0.00233 0.0
H1730 H 0.59741 0.15285 0.05277 0.0
H1731 H 0.58883 0.13473 0.00173 0.0
H1732 H 0.74871 0.1452 0.00226 0.0
H1733 H 0.66354 0.15234 0.00263 0.0
H1734 H 0.65548 0.12259 0.05112 0.0
H1735 H 0.74168 0.11676 0.05105 0.0
C1736 C 0.52796 0.15344 0.04208 0.0
C1737 C 0.5006 0.15024 0.02797 0.0
C1738 C 0.57733 0.1501 0.04169 0.0
C1739 C 0.60024 0.14306 0.02723 0.0
C1740 C 0.57276 0.14048 0.01304 0.0
C1741 C 0.52363 0.14428 0.01337 0.0
C1742 C 0.72872 0.13989 0.01294 0.0
C1743 C 0.75189 0.13039 0.02663 0.0
C1744 C 0.67969 0.14398 0.01315 0.0
C1745 C 0.6524 0.1382 0.02694 0.0
C1746 C 0.67544 0.12782 0.04043 0.0
C1747 C 0.72474 0.12415 0.04033 0.0
H1748 H 0.73701 0.16357 0.23342 0.0
H1749 H 0.74997 0.13712 0.18423 0.0
H1750 H 0.65204 0.15452 0.23299 0.0
H1751 H 0.66563 0.12725 0.18404 0.0
H1752 H 0.50251 0.13242 0.18515 0.0
H1753 H 0.58655 0.14284 0.18412 0.0
H1754 H 0.60352 0.11877 0.23372 0.0
H1755 H 0.51885 0.10918 0.23497 0.0
C1756 C 0.72166 0.15611 0.22245 0.0
C1757 C 0.75035 0.15087 0.20892 0.0
C1758 C 0.6731 0.1506 0.22228 0.0
C1759 C 0.65227 0.13967 0.20861 0.0
C1760 C 0.68046 0.13569 0.19476 0.0
C1761 C 0.7289 0.14136 0.19488 0.0
C1762 C 0.52425 0.12903 0.19578 0.0
C1763 C 0.50386 0.12018 0.21021 0.0
C1764 C 0.57251 0.13502 0.19518 0.0
C1765 C 0.60158 0.13204 0.20893 0.0
C1766 C 0.58177 0.12191 0.22306 0.0
C1767 C 0.53338 0.11608 0.2237 0.0
H1768 H 0.26051 0.91564 0.98345 0.0
H1769 H 0.25454 0.89112 0.93364 0.0
H1770 H 0.34613 0.90798 0.9839 0.0
H1771 H 0.33944 0.88281 0.93428 0.0
H1772 H 0.50105 0.89135 0.93707 0.0
H1773 H 0.41676 0.90095 0.93573 0.0
H1774 H 0.39711 0.87247 0.98412 0.0
H1775 H 0.48214 0.86353 0.98571 0.0
C1776 C 0.27753 0.90897 0.97253 0.0
C1777 C 0.25072 0.90388 0.95854 0.0
C1778 C 0.32642 0.90426 0.97287 0.0
C1779 C 0.34933 0.89439 0.95922 0.0
C1780 C 0.3229 0.89049 0.94498 0.0
C1781 C 0.27417 0.89527 0.94462 0.0
C1782 C 0.47873 0.88685 0.94738 0.0
C1783 C 0.49835 0.8768 0.96155 0.0
C1784 C 0.43036 0.89237 0.94659 0.0
C1785 C 0.40041 0.88776 0.95989 0.0
C1786 C 0.41957 0.87674 0.97381 0.0
C1787 C 0.46812 0.87132 0.97464 0.0
H1788 H 0.48056 0.9136 0.75692 0.0
H1789 H 0.49697 0.88273 0.8048 0.0
H1790 H 0.39555 0.90448 0.75771 0.0
H1791 H 0.41254 0.873 0.80535 0.0
H1792 H 0.24929 0.88081 0.8062 0.0
H1793 H 0.33398 0.8901 0.80668 0.0
H1794 H 0.34578 0.86881 0.75635 0.0
H1795 H 0.26065 0.86016 0.75571 0.0
C1796 C 0.466 0.9051 0.76767 0.0
C1797 C 0.49559 0.89879 0.78075 0.0
C1798 C 0.41741 0.89959 0.76804 0.0
C1799 C 0.39746 0.88764 0.78148 0.0
C1800 C 0.42671 0.88228 0.79484 0.0
C1801 C 0.47518 0.88786 0.79451 0.0
C1802 C 0.27004 0.87775 0.79529 0.0
C1803 C 0.24812 0.86992 0.78087 0.0
C1804 C 0.31864 0.88311 0.79557 0.0
C1805 C 0.34646 0.88057 0.78148 0.0
C1806 C 0.32504 0.87153 0.7673 0.0
C1807 C 0.27637 0.86626 0.76699 0.0
H1808 H 0.49735 0.64938 0.4977 0.0
H1809 H 0.50555 0.66646 0.54883 0.0
H1810 H 0.58219 0.64121 0.49729 0.0
H1811 H 0.59134 0.65949 0.54827 0.0
H1812 H 0.73046 0.61828 0.54714 0.0
H1813 H 0.64524 0.62701 0.54685 0.0
H1814 H 0.6591 0.65679 0.49853 0.0
H1815 H 0.74322 0.6469 0.49853 0.0
C1816 C 0.51755 0.65211 0.50877 0.0
C1817 C 0.49467 0.6585 0.52332 0.0
C1818 C 0.56638 0.64738 0.50854 0.0
C1819 C 0.59374 0.64937 0.5228 0.0
C1820 C 0.57123 0.65713 0.53715 0.0
C1821 C 0.52217 0.6615 0.53744 0.0
C1822 C 0.71499 0.62629 0.53637 0.0
C1823 C 0.7435 0.63176 0.52284 0.0
C1824 C 0.66629 0.63164 0.53627 0.0
C1825 C 0.64522 0.6429 0.52273 0.0
C1826 C 0.67375 0.64785 0.50909 0.0
C1827 C 0.72216 0.64214 0.50909 0.0
H1828 H 0.50257 0.6282 0.68004 0.0
H1829 H 0.52218 0.6158 0.73147 0.0
H1830 H 0.58696 0.63785 0.67736 0.0
H1831 H 0.60671 0.62523 0.7287 0.0
H1832 H 0.73618 0.6732 0.722 0.0
H1833 H 0.65157 0.66317 0.72287 0.0
H1834 H 0.66775 0.61992 0.67967 0.0
H1835 H 0.75219 0.63013 0.67864 0.0
C1836 C 0.52506 0.62706 0.69071 0.0
C1837 C 0.50565 0.62138 0.70599 0.0
C1838 C 0.57335 0.63264 0.68916 0.0
C1839 C 0.60309 0.63271 0.70287 0.0
C1840 C 0.58426 0.62581 0.71799 0.0
C1841 C 0.53601 0.6201 0.71953 0.0
C1842 C 0.72153 0.66196 0.7125 0.0
C1843 C 0.75092 0.65234 0.70031 0.0
C1844 C 0.67324 0.65596 0.71312 0.0
C1845 C 0.6534 0.6404 0.70151 0.0
C1846 C 0.68215 0.63191 0.68879 0.0
C1847 C 0.73046 0.6378 0.68821 0.0
H1848 H 0.24995 0.3825 0.49983 0.0
H1849 H 0.25731 0.41388 0.4519 0.0
H1850 H 0.33503 0.37458 0.49906 0.0
H1851 H 0.34311 0.40727 0.45144 0.0
H1852 H 0.48261 0.36902 0.44635 0.0
H1853 H 0.39699 0.37548 0.44837 0.0
H1854 H 0.41211 0.39017 0.49974 0.0
H1855 H 0.49717 0.38234 0.4978 0.0
C1856 C 0.27004 0.38835 0.48931 0.0
C1857 C 0.24696 0.39872 0.47588 0.0
C1858 C 0.31894 0.38378 0.48885 0.0
C1859 C 0.34603 0.38993 0.47508 0.0
C1860 C 0.32322 0.4016 0.46205 0.0
C1861 C 0.27415 0.40574 0.46238 0.0
C1862 C 0.46736 0.37317 0.45811 0.0
C1863 C 0.49648 0.37518 0.4719 0.0
C1864 C 0.41839 0.37723 0.45925 0.0
C1865 C 0.3976 0.38386 0.47416 0.0
C1866 C 0.42664 0.38493 0.48808 0.0
C1867 C 0.4755 0.3804 0.48699 0.0
H1868 H 0.27433 0.35962 0.30032 0.0
H1869 H 0.24806 0.38802 0.25232 0.0
H1870 H 0.35897 0.36837 0.29727 0.0
H1871 H 0.33156 0.39839 0.24966 0.0
H1872 H 0.49333 0.39598 0.24446 0.0
H1873 H 0.4091 0.38596 0.24606 0.0
H1874 H 0.41095 0.40068 0.2977 0.0
H1875 H 0.49603 0.40902 0.29614 0.0
C1876 C 0.28678 0.36756 0.28908 0.0
C1877 C 0.25468 0.37304 0.27656 0.0
C1878 C 0.33516 0.37298 0.2874 0.0
C1879 C 0.35224 0.38457 0.27333 0.0
C1880 C 0.32013 0.38924 0.26059 0.0
C1881 C 0.27206 0.38324 0.26211 0.0
C1882 C 0.47539 0.39752 0.25607 0.0
C1883 C 0.50102 0.40326 0.27018 0.0
C1884 C 0.42703 0.39171 0.25703 0.0
C1885 C 0.40307 0.39208 0.27207 0.0
C1886 C 0.42837 0.39937 0.286 0.0
C1887 C 0.47695 0.40459 0.28509 0.0
H1888 H 0.24041 0.12851 0.50056 0.0
H1889 H 0.24421 0.13749 0.55273 0.0
H1890 H 0.15468 0.13557 0.50075 0.0
H1891 H 0.15864 0.14496 0.55284 0.0
H1892 H 0.99772 0.13061 0.54732 0.0
H1893 H 0.08338 0.12435 0.54804 0.0
H1894 H 0.09963 0.16928 0.5056 0.0
H1895 H 0.01335 0.17521 0.50464 0.0
C1896 C 0.22292 0.13179 0.51208 0.0
C1897 C 0.24911 0.13241 0.52663 0.0
C1898 C 0.17391 0.13611 0.51216 0.0
C1899 C 0.15006 0.14111 0.52678 0.0
C1900 C 0.176 0.14104 0.54139 0.0
C1901 C 0.22502 0.13672 0.54132 0.0
C1902 C 0.01952 0.13939 0.53822 0.0
C1903 C 0.99869 0.15331 0.52586 0.0
C1904 C 0.06868 0.13583 0.53868 0.0
C1905 C 0.09818 0.14614 0.5268 0.0
C1906 C 0.07762 0.16077 0.51476 0.0
C1907 C 0.0283 0.16437 0.51431 0.0
H1908 H 0.00869 0.11697 0.69358 0.0
H1909 H 0.99996 0.13791 0.744 0.0
H1910 H 0.09491 0.12175 0.69435 0.0
H1911 H 0.08566 0.1443 0.74459 0.0
H1912 H 0.2469 0.1337 0.7438 0.0
H1913 H 0.1612 0.1275 0.74438 0.0
H1914 H 0.15166 0.15217 0.69461 0.0
H1915 H 0.23793 0.15679 0.6938 0.0
C1916 C 0.02539 0.12249 0.70485 0.0
C1917 C 0.99783 0.12705 0.71872 0.0
C1918 C 0.07469 0.1256 0.70526 0.0
C1919 C 0.09734 0.13392 0.71944 0.0
C1920 C 0.0697 0.13766 0.73349 0.0
C1921 C 0.0205 0.13399 0.73317 0.0
C1922 C 0.22632 0.13814 0.73307 0.0
C1923 C 0.24895 0.14562 0.71872 0.0
C1924 C 0.1771 0.13457 0.73339 0.0
C1925 C 0.14937 0.13896 0.71946 0.0
C1926 C 0.17195 0.14783 0.70541 0.0
C1927 C 0.2213 0.15084 0.70499 0.0
H1928 H 0.75138 0.87505 0.44272 0.0
H1929 H 0.7711 0.91619 0.48676 0.0
H1930 H 0.83542 0.86471 0.44269 0.0
H1931 H 0.85596 0.90639 0.48641 0.0
H1932 H 0.99121 0.86263 0.49154 0.0
H1933 H 0.90599 0.87116 0.49089 0.0
H1934 H 0.91354 0.8814 0.4389 0.0
H1935 H 0.99823 0.87225 0.43946 0.0
C1936 C 0.77382 0.88224 0.45227 0.0
C1937 C 0.75446 0.89634 0.46482 0.0
C1938 C 0.82209 0.87632 0.45221 0.0
C1939 C 0.85226 0.88448 0.46465 0.0
C1940 C 0.83335 0.89939 0.47685 0.0
C1941 C 0.78489 0.90527 0.47694 0.0
C1942 C 0.97449 0.86621 0.47993 0.0
C1943 C 0.00156 0.86687 0.46557 0.0
C1944 C 0.9258 0.87143 0.47959 0.0
C1945 C 0.90321 0.87738 0.46489 0.0
C1946 C 0.92981 0.87682 0.45042 0.0
C1947 C 0.97841 0.87153 0.45075 0.0
H1948 H 0.99618 0.88345 0.30769 0.0
H1949 H 0.99255 0.89954 0.2563 0.0
H1950 H 0.91166 0.87379 0.30702 0.0
H1951 H 0.90754 0.89039 0.25575 0.0
H1952 H 0.77169 0.84572 0.25642 0.0
H1953 H 0.85695 0.85448 0.25808 0.0
H1954 H 0.83415 0.89188 0.30341 0.0
H1955 H 0.74969 0.88265 0.30201 0.0
C1956 C 0.97715 0.88541 0.29631 0.0
C1957 C 0.00114 0.89219 0.28203 0.0
C1958 C 0.9287 0.87982 0.29593 0.0
C1959 C 0.90312 0.881 0.28128 0.0
C1960 C 0.9266 0.8888 0.26714 0.0
C1961 C 0.97513 0.89436 0.26752 0.0
C1962 C 0.78508 0.85541 0.26687 0.0
C1963 C 0.75394 0.86356 0.27904 0.0
C1964 C 0.83375 0.8607 0.26772 0.0
C1965 C 0.8521 0.87416 0.28077 0.0
C1966 C 0.8212 0.88139 0.29325 0.0
C1967 C 0.77272 0.87611 0.29241 0.0
H1968 H 0.00934 0.65657 0.00927 0.0
H1969 H 0.00504 0.63769 0.06021 0.0
H1970 H 0.09474 0.64851 0.00877 0.0
H1971 H 0.09016 0.62923 0.0596 0.0
H1972 H 0.25231 0.64045 0.05487 0.0
H1973 H 0.16737 0.6487 0.05643 0.0
H1974 H 0.14615 0.61263 0.01052 0.0
H1975 H 0.23166 0.60476 0.00875 0.0
C1976 C 0.02668 0.65102 0.02041 0.0
C1977 C 1.00038 0.64772 0.03477 0.0
C1978 C 0.07547 0.64609 0.02006 0.0
C1979 C 0.09894 0.63786 0.03408 0.0
C1980 C 0.07307 0.6356 0.04861 0.0
C1981 C 0.0243 0.6405 0.04896 0.0
C1982 C 0.22952 0.634 0.04518 0.0
C1983 C 0.24876 0.62205 0.03163 0.0
C1984 C 0.1808 0.63871 0.0461 0.0
C1985 C 0.15022 0.63158 0.03351 0.0
C1986 C 0.16909 0.61876 0.02026 0.0
C1987 C 0.21793 0.61399 0.01934 0.0
H1988 H 0.23767 0.66035 0.23767 0.0
H1989 H 0.24908 0.62672 0.19048 0.0
H1990 H 0.15201 0.65245 0.23773 0.0
H1991 H 0.16433 0.61816 0.19081 0.0
H1992 H 0.00294 0.62795 0.18996 0.0
H1993 H 0.08776 0.63653 0.18927 0.0
H1994 H 0.09876 0.61825 0.24018 0.0
H1995 H 0.01323 0.61038 0.24101 0.0
C1996 C 0.22189 0.65149 0.22726 0.0
C1997 C 0.25021 0.64415 0.21409 0.0
C1998 C 0.17295 0.64669 0.22738 0.0
C1999 C 0.15146 0.63441 0.21436 0.0
C2000 C 0.17961 0.62781 0.20098 0.0
C2001 C 0.22832 0.6327 0.20082 0.0
C2002 C 0.02348 0.62542 0.20097 0.0
C2003 C 0.00127 0.61854 0.21556 0.0
C2004 C 0.07219 0.63037 0.20057 0.0
C2005 C 0.09996 0.62833 0.21472 0.0
C2006 C 0.07814 0.62049 0.22916 0.0
C2007 C 0.02926 0.61567 0.22958 0.0
H2008 H 0.98829 0.36683 0.94668 0.0
H2009 H 0.00146 0.39573 0.99518 0.0
H2010 H 0.9027 0.37418 0.9474 0.0
H2011 H 0.91665 0.40432 0.99561 0.0
H2012 H 0.75436 0.39559 -0.00358 0.0
H2013 H 0.83978 0.38839 -0.00299 0.0
H2014 H 0.84863 0.4063 0.94594 0.0
H2015 H 0.76265 0.41218 0.94523 0.0
C2016 C 0.9728 0.37462 0.95752 0.0
C2017 C 0.00152 0.38065 0.97086 0.0
C2018 C 0.92387 0.37918 0.95787 0.0
C2019 C 0.90275 0.39025 0.97147 0.0
C2020 C 0.93143 0.39557 0.985 0.0
C2021 C 0.98018 0.39062 0.98476 0.0
C2022 C 0.77472 0.39844 0.9854 0.0
C2023 C 0.75186 0.40431 0.97075 0.0
C2024 C 0.82378 0.39426 0.98572 0.0
C2025 C 0.85114 0.39634 0.97145 0.0
C2026 C 0.82853 0.40377 0.95704 0.0
C2027 C 0.77936 0.4075 0.95667 0.0
H2028 H 0.00575 0.39004 0.74665 0.0
H2029 H 0.98639 0.41044 0.79688 0.0
H2030 H 0.92167 0.38044 0.74458 0.0
H2031 H 0.90137 0.40206 0.79458 0.0
H2032 H 0.76578 0.35959 0.7923 0.0
H2033 H 0.85085 0.36824 0.793 0.0
H2034 H 0.84346 0.3949 0.74369 0.0
H2035 H 0.75916 0.38506 0.74276 0.0
C2036 C 0.98323 0.39318 0.75713 0.0
C2037 C 0.00271 0.40091 0.77197 0.0
C2038 C 0.93488 0.38762 0.75594 0.0
C2039 C 0.90474 0.3901 0.76948 0.0
C2040 C 0.9238 0.39925 0.78405 0.0
C2041 C 0.97237 0.40443 0.78531 0.0
C2042 C 0.78265 0.36681 0.78151 0.0
C2043 C 0.75583 0.37167 0.76749 0.0
C2044 C 0.83124 0.37213 0.78198 0.0
C2045 C 0.85389 0.38277 0.76853 0.0
C2046 C 0.82738 0.38659 0.75425 0.0
C2047 C 0.77897 0.38088 0.7537 0.0
H2048 H 0.10864 0.06099 0.99028 0.0
H2049 H 0.13403 0.01945 0.03373 0.0
H2050 H 0.06754 0.02684 0.97828 0.0
H2051 H 0.0938 0.9855 0.02185 0.0
H2052 H 0.00807 0.92637 0.00136 0.0
H2053 H 0.02565 0.96575 0.01331 0.0
H2054 H 0.08045 0.9899 0.96696 0.0
H2055 H 0.06001 0.9517 0.95511 0.0
C2056 C 0.10614 0.04458 -0.00278 0.0
C2057 C 0.12573 0.04303 0.01288 0.0
C2058 C 0.08216 0.02486 0.99037 0.0
C2059 C 0.07695 1.00308 -0.00097 0.0
C2060 C 0.09569 1.0019 0.01483 0.0
C2061 C 0.1194 0.02151 0.02164 0.0
C2062 C 0.02196 0.94051 0.99367 0.0
C2063 C 0.03308 0.93584 0.97736 0.0
C2064 C 0.03312 0.96297 0.00055 0.0
C2065 C 0.05609 0.98102 0.99128 0.0
C2066 C 0.06297 0.97679 0.97463 0.0
C2067 C 0.05128 0.95468 0.96778 0.0
H2068 H 0.26389 0.32763 0.97358 0.0
H2069 H 0.16117 0.35709 0.00704 0.0
H2070 H 0.24215 0.28691 0.98239 0.0
H2071 H 0.14025 0.31659 0.01603 0.0
H2072 H 0.06323 0.24527 0.00181 0.0
H2073 H 0.0996 0.28334 0.99384 0.0
H2074 H 0.23413 0.26009 0.01353 0.0
H2075 H 0.19805 0.22153 0.02127 0.0
C2076 C 0.23893 0.32546 0.98353 0.0
C2077 C 0.21509 0.34551 0.98996 0.0
C2078 C 0.22617 0.30218 0.98843 0.0
C2079 C 0.1896 0.29872 -0.00014 0.0
C2080 C 0.16853 0.31883 0.00719 0.0
C2081 C 0.18114 0.34199 0.00228 0.0
C2082 C 0.1011 0.24771 0.00372 0.0
C2083 C 0.1282 0.23005 0.01165 0.0
C2084 C 0.12168 0.26971 -0.00055 0.0
C2085 C 0.16975 0.27449 0.00301 0.0
C2086 C 0.19737 0.25658 0.01039 0.0
C2087 C 0.1767 0.2346 0.01479 0.0
H2088 H 0.06111 0.31913 0.28778 0.0
H2089 H 0.01708 0.34774 0.24148 0.0
H2090 H 0.07851 0.28094 0.27546 0.0
H2091 H 0.03128 0.30839 0.22897 0.0
H2092 H 0.13704 0.25304 0.20882 0.0
H2093 H 0.09765 0.2873 0.22073 0.0
H2094 H 0.06462 0.245 0.26339 0.0
H2095 H 0.10527 0.21073 0.25141 0.0
C2096 C 0.05336 0.31688 0.27497 0.0
C2097 C 0.03849 0.33656 0.26554 0.0
C2098 C 0.06324 0.29476 0.26784 0.0
C2099 C 0.05772 0.29142 0.25103 0.0
C2100 C 0.0377 0.31043 0.24186 0.0
C2101 C 0.02848 0.3329 0.24904 0.0
C2102 C 0.12106 0.25093 0.22072 0.0
C2103 C 0.12536 0.22917 0.2293 0.0
C2104 C 0.09782 0.27067 0.22753 0.0
C2105 C 0.0775 0.26929 0.24311 0.0
C2106 C 0.08051 0.24718 0.25151 0.0
C2107 C 0.10416 0.22739 0.24468 0.0
H2108 H 0.08374 0.0357 0.25311 0.0
H2109 H 0.17174 0.03217 0.21012 0.0
H2110 H 0.12401 1.00073 0.26399 0.0
H2111 H 0.21187 0.99684 0.22097 0.0
H2112 H 0.21495 0.91535 0.23678 0.0
H2113 H 0.19456 0.95504 0.22589 0.0
H2114 H 0.19543 0.98409 0.27458 0.0
H2115 H 0.21502 0.9446 0.28524 0.0
C2116 C 0.11278 0.02811 0.2462 0.0
C2117 C 0.12472 0.03713 0.2308 0.0
C2118 C 0.13584 1.00776 0.25241 0.0
C2119 C 0.1713 0.99578 0.24335 0.0
C2120 C 0.18429 1.00529 0.22819 0.0
C2121 C 0.16148 0.02572 0.22204 0.0
C2122 C 0.21286 0.9305 0.24499 0.0
C2123 C 0.21712 0.92702 0.2618 0.0
C2124 C 0.2007 0.95324 0.23882 0.0
C2125 C 0.19228 0.97276 0.2494 0.0
C2126 C 0.20026 0.96944 0.26609 0.0
C2127 C 0.21241 0.94689 0.27219 0.0
H2128 H 0.01813 0.08007 0.0165 0.0
H2129 H 0.89974 0.108 0.98896 0.0
H2130 H 0.99779 0.03926 0.00752 0.0
H2131 H 0.88001 0.06751 0.97981 0.0
H2132 H 0.81496 0.99431 0.99208 0.0
H2133 H 0.84852 0.03306 -0.00029 0.0
H2134 H 0.98376 0.01251 0.97921 0.0
H2135 H 0.95069 0.97308 0.97207 0.0
C2136 C 0.9896 0.07764 0.00777 0.0
C2137 C 0.96103 0.0972 0.00314 0.0
C2138 C 0.97768 0.05429 0.00278 0.0
C2139 C 0.9371 0.05028 0.99312 0.0
C2140 C 0.91116 0.0701 0.9874 0.0
C2141 C 0.92299 0.0933 0.99237 0.0
C2142 C 0.85255 0.99742 0.99001 0.0
C2143 C 0.88078 0.98016 0.98212 0.0
C2144 C 0.87148 0.01987 0.99402 0.0
C2145 C 0.91893 0.02565 0.99013 0.0
C2146 C 0.94759 1.00823 0.98268 0.0
C2147 C 0.92862 0.98574 0.97863 0.0
H2148 H 0.91728 0.79161 0.00388 0.0
H2149 H 0.83111 0.78555 0.96064 0.0
H2150 H 0.87897 0.75615 0.015 0.0
H2151 H 0.79279 0.74991 0.97171 0.0
H2152 H 0.78828 0.66936 0.988 0.0
H2153 H 0.80972 0.70882 0.977 0.0
H2154 H 0.80965 0.7382 0.02561 0.0
H2155 H 0.78935 0.69886 0.03639 0.0
C2156 C 0.88892 0.78336 -0.00302 0.0
C2157 C 0.87694 0.79181 0.98144 0.0
C2158 C 0.86705 0.76272 0.00331 0.0
C2159 C 0.83274 0.7499 0.99424 0.0
C2160 C 0.81964 0.7589 0.97894 0.0
C2161 C 0.84129 0.77957 0.97267 0.0
C2162 C 0.79092 0.68454 0.99618 0.0
C2163 C 0.78658 0.68116 0.01299 0.0
C2164 C 0.80373 0.70715 0.98994 0.0
C2165 C 0.81258 0.72673 0.00045 0.0
C2166 C 0.8047 0.72351 0.01717 0.0
C2167 C 0.79204 0.70105 0.02333 0.0
H2168 H 0.89723 0.81218 0.73998 0.0
H2169 H 0.87745 0.77317 0.78479 0.0
H2170 H 0.93503 0.77702 0.728 0.0
H2171 H 0.91351 0.73794 0.77284 0.0
H2172 H 0.9914 0.67635 0.75103 0.0
H2173 H 0.97766 0.71612 0.76308 0.0
H2174 H 0.91688 0.74038 0.71763 0.0
H2175 H 0.93354 0.70192 0.70566 0.0
C2176 C 0.90029 0.79603 0.7472 0.0
C2177 C 0.88333 0.79543 0.76323 0.0
C2178 C 0.9221 0.77573 0.74035 0.0
C2179 C 0.9272 0.75423 0.74933 0.0
C2180 C 0.91137 0.75405 0.76553 0.0
C2181 C 0.89012 0.77435 0.77238 0.0
C2182 C 0.97677 0.69056 0.74357 0.0
C2183 C 0.96297 0.68592 0.72749 0.0
C2184 C 0.96794 0.71326 0.7505 0.0
C2185 C 0.94479 0.73155 0.74152 0.0
C2186 C 0.9348 0.72716 0.72507 0.0
C2187 C 0.94414 0.70485 0.71817 0.0
H2188 H 0.75108 0.09613 0.75096 0.0
H2189 H 0.81308 0.07312 0.70562 0.0
H2190 H 0.76756 0.05641 0.76262 0.0
H2191 H 0.83196 0.0345 0.71722 0.0
H2192 H 0.85594 0.96264 0.73966 0.0
H2193 H 0.8156 0.997 0.72762 0.0
H2194 H 0.83579 0.03695 0.77213 0.0
H2195 H 0.8753 1.00273 0.78408 0.0
C2196 C 0.76693 0.0824 0.74338 0.0
C2197 C 0.78118 0.08778 0.72745 0.0
C2198 C 0.77737 0.05977 0.75011 0.0
C2199 C 0.80252 0.04227 0.74105 0.0
C2200 C 0.81265 0.0472 0.72468 0.0
C2201 C 0.80187 0.06952 0.71799 0.0
C2202 C 0.8523 0.97881 0.7468 0.0
C2203 C 0.87009 0.97995 0.76273 0.0
C2204 C 0.82878 0.99861 0.73993 0.0
C2205 C 0.82233 0.02006 0.74882 0.0
C2206 C 0.83893 0.02079 0.76491 0.0
C2207 C 0.86217 1.00106 0.77176 0.0
H2208 H 0.15666 0.54062 0.49346 0.0
H2209 H 0.08385 0.53893 0.53968 0.0
H2210 H 0.11104 0.50596 0.48458 0.0
H2211 H 0.03827 0.50398 0.53081 0.0
H2212 H 0.03936 0.42105 0.51612 0.0
H2213 H 0.05867 0.46153 0.52578 0.0
H2214 H 0.03474 0.48931 0.4775 0.0
H2215 H 0.01391 0.44925 0.46818 0.0
C2216 C 0.12972 0.5335 0.50152 0.0
C2217 C 0.12382 0.54277 0.51725 0.0
C2218 C 0.10361 0.5134 0.49647 0.0
C2219 C 0.0711 0.502 0.50703 0.0
C2220 C 0.06347 0.51205 0.52246 0.0
C2221 C 0.08943 0.53218 0.52748 0.0
C2222 C 0.03524 0.43611 0.5079 0.0
C2223 C 0.02402 0.43216 0.49152 0.0
C2224 C 0.0469 0.45929 0.51334 0.0
C2225 C 0.04853 0.47873 0.50236 0.0
C2226 C 0.0337 0.47488 0.48629 0.0
C2227 C 0.02113 0.45194 0.48099 0.0
H2228 H 0.10378 0.72894 0.4907 0.0
H2229 H 0.15445 0.73894 0.53988 0.0
H2230 H 0.14813 0.76408 0.48224 0.0
H2231 H 0.1973 0.77462 0.53139 0.0
H2232 H 0.24629 0.82287 0.4681 0.0
H2233 H 0.22592 0.78307 0.4784 0.0
H2234 H 0.17427 0.81508 0.52281 0.0
H2235 H 0.19401 0.8549 0.51227 0.0
C2236 C 0.12499 0.73802 0.49971 0.0
C2237 C 0.12485 0.7307 0.51608 0.0
C2238 C 0.15054 0.75847 0.49481 0.0
C2239 C 0.17607 0.77239 0.50616 0.0
C2240 C 0.1774 0.76462 0.52236 0.0
C2241 C 0.15277 0.74399 0.52719 0.0
C2242 C 0.23287 0.82124 0.48041 0.0
C2243 C 0.22264 0.84192 0.48955 0.0
C2244 C 0.22042 0.79846 0.4862 0.0
C2245 C 0.19789 0.79582 0.50134 0.0
C2246 C 0.1919 0.81637 0.51113 0.0
C2247 C 0.20378 0.83923 0.50522 0.0
H2248 H 0.05763 0.72006 0.72211 0.0
H2249 H 0.19031 0.74374 0.74327 0.0
H2250 H 0.02128 0.75888 0.7289 0.0
H2251 H 0.15346 0.78207 0.75039 0.0
H2252 H 0.09509 0.85589 0.7362 0.0
H2253 H 0.11766 0.81527 0.72798 0.0
H2254 H 0.00747 0.78613 0.75869 0.0
H2255 H 0.9842 0.82694 0.76672 0.0
C2256 C 0.07837 0.73315 0.72881 0.0
C2257 C 0.12644 0.72852 0.73262 0.0
C2258 C 0.05751 0.75529 0.73266 0.0
C2259 C 0.08443 0.77328 0.74023 0.0
C2260 C 0.13191 0.76839 0.74458 0.0
C2261 C 0.15273 0.74623 0.74083 0.0
C2262 C 0.07377 0.84089 0.74041 0.0
C2263 C 0.03701 0.8446 0.75172 0.0
C2264 C 0.08735 0.81765 0.73599 0.0
C2265 C 0.0644 0.79764 0.74279 0.0
C2266 C 0.02509 0.8013 0.75308 0.0
C2267 C 0.0114 0.82465 0.7575 0.0
H2268 H 0.25936 0.44811 0.77258 0.0
H2269 H 0.16797 0.41757 0.73595 0.0
H2270 H 0.23475 0.48841 0.76431 0.0
H2271 H 0.14412 0.4578 0.72738 0.0
H2272 H 0.05743 0.52649 0.73489 0.0
H2273 H 0.09229 0.48753 0.74163 0.0
H2274 H 0.2321 0.51944 0.74252 0.0
H2275 H 0.19717 0.55868 0.73574 0.0
C2276 C 0.23641 0.45008 0.76207 0.0
C2277 C 0.2165 0.42972 0.75463 0.0
C2278 C 0.22177 0.47318 0.75747 0.0
C2279 C 0.18685 0.47632 0.74538 0.0
C2280 C 0.17037 0.45599 0.73695 0.0
C2281 C 0.18501 0.43295 0.74155 0.0
C2282 C 0.09546 0.52538 0.73703 0.0
C2283 C 0.12454 0.54573 0.73516 0.0
C2284 C 0.1156 0.50296 0.74054 0.0
C2285 C 0.16527 0.50039 0.74233 0.0
C2286 C 0.19398 0.52096 0.74114 0.0
C2287 C 0.17396 0.54334 0.73738 0.0
H2288 H 0.81793 0.48856 0.49236 0.0
H2289 H 0.93947 0.47608 0.46135 0.0
H2290 H 0.85139 0.52707 0.50046 0.0
H2291 H 0.97197 0.51543 0.46903 0.0
H2292 H 0.01706 0.58069 0.50842 0.0
H2293 H 0.99964 0.53987 0.49844 0.0
H2294 H 0.86496 0.56464 0.47956 0.0
H2295 H 0.88258 0.60508 0.48908 0.0
C2296 C 0.85293 0.49336 0.48791 0.0
C2297 C 0.87705 0.4786 0.47677 0.0
C2298 C 0.87161 0.51575 0.49227 0.0
C2299 C 0.91459 0.52406 0.48549 0.0
C2300 C 0.93947 0.50915 0.47472 0.0
C2301 C 0.9208 0.48668 0.47036 0.0
C2302 C 0.98497 0.5776 0.50139 0.0
C2303 C 0.95133 0.59609 0.49937 0.0
C2304 C 0.97469 0.55421 0.49592 0.0
C2305 C 0.93044 0.54909 0.48862 0.0
C2306 C 0.89893 0.56804 0.4854 0.0
C2307 C 0.90936 0.59125 0.49064 0.0
H2308 H 0.82173 0.29241 0.46007 0.0
H2309 H 0.89647 0.29364 0.50595 0.0
H2310 H 0.77706 0.25733 0.46895 0.0
H2311 H 0.85068 0.25911 0.51499 0.0
H2312 H 0.75619 0.19993 0.53063 0.0
H2313 H 0.77353 0.24101 0.52201 0.0
H2314 H 0.80002 0.21552 0.47328 0.0
H2315 H 0.78264 0.17454 0.48204 0.0
C2316 C 0.82792 0.2856 0.47222 0.0
C2317 C 0.86301 0.296 0.48225 0.0
C2318 C 0.80235 0.26538 0.47727 0.0
C2319 C 0.81046 0.25522 0.49263 0.0
C2320 C 0.84301 0.26663 0.50314 0.0
C2321 C 0.86921 0.28668 0.49798 0.0
C2322 C 0.76336 0.20336 0.5179 0.0
C2323 C 0.76726 0.18417 0.50691 0.0
C2324 C 0.77432 0.2268 0.51304 0.0
C2325 C 0.78924 0.23152 0.49705 0.0
C2326 C 0.78849 0.21259 0.48568 0.0
C2327 C 0.77793 0.1891 0.49061 0.0
H2328 H 0.81073 0.27483 0.25275 0.0
H2329 H 0.94908 0.29955 0.26836 0.0
H2330 H 0.84496 0.23604 0.24552 0.0
H2331 H 0.98305 0.26017 0.26153 0.0
H2332 H 0.01576 0.19221 0.22497 0.0
H2333 H 0.99441 0.23265 0.23438 0.0
H2334 H 0.88227 0.20251 0.26389 0.0
H2335 H 0.90328 0.16236 0.25439 0.0
C2336 C 0.8488 0.27235 0.25403 0.0
C2337 C 0.87756 0.29063 0.26052 0.0
C2338 C 0.86824 0.2499 0.25024 0.0
C2339 C 0.91686 0.24513 0.25291 0.0
C2340 C 0.94586 0.26354 0.25905 0.0
C2341 C 0.92636 0.28601 0.26295 0.0
C2342 C 0.9884 0.19416 0.23417 0.0
C2343 C 0.96186 0.1741 0.23925 0.0
C2344 C 0.97579 0.21732 0.23941 0.0
C2345 C 0.93631 0.22072 0.2497 0.0
C2346 C 0.91251 0.20045 0.25581 0.0
C2347 C 0.92515 0.17742 0.25064 0.0
H2348 H 0.77839 0.5676 0.21531 0.0
H2349 H 0.79135 0.59867 0.26302 0.0
H2350 H 0.80048 0.52853 0.22604 0.0
H2351 H 0.81276 0.55924 0.27405 0.0
H2352 H 0.84077 0.48324 0.29064 0.0
H2353 H 0.79721 0.51782 0.28028 0.0
H2354 H 0.87319 0.51193 0.23479 0.0
H2355 H 0.91703 0.47779 0.24521 0.0
C2356 C 0.78379 0.56576 0.22829 0.0
C2357 C 0.78248 0.58607 0.23839 0.0
C2358 C 0.79717 0.54341 0.23442 0.0
C2359 C 0.80897 0.54061 0.25089 0.0
C2360 C 0.80349 0.56057 0.26131 0.0
C2361 C 0.79069 0.58317 0.25508 0.0
C2362 C 0.84763 0.48907 0.2783 0.0
C2363 C 0.88231 0.47742 0.26874 0.0
C2364 C 0.82282 0.50906 0.27241 0.0
C2365 C 0.83151 0.51783 0.2567 0.0
C2366 C 0.8646 0.50548 0.24685 0.0
C2367 C 0.88976 0.4856 0.25281 0.0
H2368 H 0.55402 0.91781 0.51056 0.0
H2369 H 0.50388 0.94571 0.46488 0.0
H2370 H 0.57015 0.95849 0.51999 0.0
H2371 H 0.52118 0.98637 0.47393 0.0
H2372 H 0.62157 0.0489 0.48604 0.0
H2373 H 0.58783 1.01057 0.4781 0.0
H2374 H 0.54643 0.99719 0.52786 0.0
H2375 H 0.58334 0.03456 0.53599 0.0
C2376 C 0.54393 0.93281 0.5029 0.0
C2377 C 0.52618 0.92871 0.48723 0.0
C2378 C 0.55372 0.9562 0.50819 0.0
C2379 C 0.54693 0.976 0.49775 0.0
C2380 C 0.52659 0.9718 0.48239 0.0
C2381 C 0.51589 0.94846 0.47726 0.0
C2382 C 0.60645 0.03767 0.49539 0.0
C2383 C 0.60737 0.04466 0.5118 0.0
C2384 C 0.58587 0.01574 0.49076 0.0
C2385 C 0.56481 1.00039 0.50236 0.0
C2386 C 0.56335 1.00808 0.51861 0.0
C2387 C 0.58427 0.0298 0.52324 0.0
H2388 H 0.65076 0.21155 0.49001 0.0
H2389 H 0.6377 0.25071 0.53507 0.0
H2390 H 0.69008 0.24602 0.47773 0.0
H2391 H 0.67625 0.28504 0.52289 0.0
H2392 H 0.75281 0.34588 0.50071 0.0
H2393 H 0.74134 0.30561 0.51224 0.0
H2394 H 0.67186 0.2833 0.46781 0.0
H2395 H 0.68591 0.32245 0.45629 0.0
C2396 C 0.65558 0.22754 0.49726 0.0
C2397 C 0.63952 0.22845 0.51341 0.0
C2398 C 0.67849 0.24741 0.49023 0.0
C2399 C 0.68617 0.26871 0.49919 0.0
C2400 C 0.67198 0.26906 0.51556 0.0
C2401 C 0.64929 0.24926 0.52255 0.0
C2402 C 0.7369 0.33198 0.49328 0.0
C2403 C 0.71963 0.33739 0.47771 0.0
C2404 C 0.72936 0.30901 0.49995 0.0
C2405 C 0.70407 0.2912 0.49121 0.0
C2406 C 0.69131 0.29621 0.47505 0.0
C2407 C 0.69925 0.31886 0.46841 0.0
H2408 H 0.54657 0.21918 0.71534 0.0
H2409 H 0.67297 0.23781 0.74244 0.0
H2410 H 0.51081 0.25791 0.72276 0.0
H2411 H 0.63619 0.27574 0.75038 0.0
H2412 H 0.58241 0.35145 0.73083 0.0
H2413 H 0.59826 0.31016 0.72223 0.0
H2414 H 0.50356 0.28394 0.75944 0.0
H2415 H 0.48658 0.32539 0.7678 0.0
C2416 C 0.56577 0.231 0.72349 0.0
C2417 C 0.61192 0.2249 0.72883 0.0
C2418 C 0.54524 0.25309 0.7277 0.0
C2419 C 0.57042 0.26945 0.73736 0.0
C2420 C 0.6158 0.26313 0.74315 0.0
C2421 C 0.63646 0.24114 0.73888 0.0
C2422 C 0.56259 0.33696 0.73647 0.0
C2423 C 0.53223 0.34166 0.74966 0.0
C2424 C 0.57232 0.31335 0.73174 0.0
C2425 C 0.55203 0.294 0.74019 0.0
C2426 C 0.51885 0.29863 0.75257 0.0
C2427 C 0.50872 0.32234 0.7572 0.0
H2428 H 0.69597 0.05105 0.71845 0.0
H2429 H 0.56841 0.03341 0.74524 0.0
H2430 H 0.73083 0.01232 0.72627 0.0
H2431 H 0.60422 0.99541 0.75355 0.0
H2432 H 0.65311 0.91893 0.73767 0.0
H2433 H 0.63436 0.95979 0.72893 0.0
H2434 H 0.74569 0.98727 0.75983 0.0
H2435 H 0.76523 0.94612 0.76842 0.0
C2436 C 0.67632 0.03945 0.72662 0.0
C2437 C 0.6301 0.04581 0.73174 0.0
C2438 C 0.69637 0.01736 0.73109 0.0
C2439 C 0.67058 1.0012 0.74073 0.0
C2440 C 0.62508 1.0078 0.7463 0.0
C2441 C 0.60497 0.02984 0.74182 0.0
C2442 C 0.67536 0.93356 0.7419 0.0
C2443 C 0.71139 0.9293 0.7534 0.0
C2444 C 0.66408 0.95694 0.73712 0.0
C2445 C 0.68856 0.97658 0.74376 0.0
C2446 C 0.72696 0.97234 0.75435 0.0
C2447 C 0.73843 0.94881 0.75911 0.0
H2448 H 0.42988 0.98053 0.4628 0.0
H2449 H 0.31761 0.99334 0.49761 0.0
H2450 H 0.46653 0.01906 0.4701 0.0
H2451 H 0.35492 0.03142 0.50502 0.0
H2452 H 0.39078 0.10988 0.48899 0.0
H2453 H 0.36954 0.06934 0.48038 0.0
H2454 H 0.49784 0.04197 0.50231 0.0
H2455 H 0.5191 0.08278 0.51131 0.0
C2456 C 0.41398 0.9911 0.47243 0.0
C2457 C 0.37142 0.98346 0.47993 0.0
C2458 C 0.43505 0.01308 0.47657 0.0
C2459 C 0.4138 0.02793 0.4882 0.0
C2460 C 0.37225 0.02004 0.49613 0.0
C2461 C 0.35129 0.998 0.49207 0.0
C2462 C 0.41564 0.09539 0.49134 0.0
C2463 C 0.45688 0.09953 0.50064 0.0
C2464 C 0.40306 0.07218 0.48664 0.0
C2465 C 0.43176 0.05262 0.49096 0.0
C2466 C 0.47535 0.05687 0.49888 0.0
C2467 C 0.48783 0.08023 0.50377 0.0
H2468 H 0.3391 0.78242 0.45169 0.0
H2469 H 0.36369 0.80176 0.50183 0.0
H2470 H 0.29975 0.74584 0.46031 0.0
H2471 H 0.32694 0.76434 0.51045 0.0
H2472 H 0.24185 0.70081 0.52427 0.0
H2473 H 0.25859 0.74057 0.51332 0.0
H2474 H 0.32185 0.70809 0.47084 0.0
H2475 H 0.30537 0.66842 0.482 0.0
C2476 C 0.33632 0.77892 0.4646 0.0
C2477 C 0.35632 0.79486 0.47602 0.0
C2478 C 0.31402 0.7577 0.46953 0.0
C2479 C 0.31078 0.75171 0.48607 0.0
C2480 C 0.32862 0.76821 0.49757 0.0
C2481 C 0.3508 0.78958 0.49261 0.0
C2482 C 0.25692 0.70226 0.51218 0.0
C2483 C 0.27124 0.68157 0.50377 0.0
C2484 C 0.26725 0.72508 0.50601 0.0
C2485 C 0.29186 0.72776 0.49123 0.0
C2486 C 0.30234 0.70693 0.48216 0.0
C2487 C 0.29238 0.68408 0.48843 0.0
H2488 H 0.44057 0.69748 0.20733 0.0
H2489 H 0.50755 0.67468 0.2519 0.0
H2490 H 0.42364 0.73626 0.21897 0.0
H2491 H 0.49307 0.71461 0.26356 0.0
H2492 H 0.38477 0.76721 0.28613 0.0
H2493 H 0.42553 0.73368 0.27389 0.0
H2494 H 0.44016 0.77384 0.22921 0.0
H2495 H 0.39849 0.8076 0.24157 0.0
C2496 C 0.45321 0.70114 0.21953 0.0
C2497 C 0.47447 0.68285 0.22883 0.0
C2498 C 0.44363 0.72357 0.22623 0.0
C2499 C 0.4556 0.72861 0.24244 0.0
C2500 C 0.4817 0.71114 0.25121 0.0
C2501 C 0.49093 0.68838 0.24448 0.0
C2502 C 0.39695 0.76912 0.27371 0.0
C2503 C 0.38681 0.79005 0.26473 0.0
C2504 C 0.42094 0.74978 0.2667 0.0
C2505 C 0.4361 0.75069 0.25045 0.0
C2506 C 0.42791 0.77207 0.24163 0.0
C2507 C 0.40366 0.79151 0.24869 0.0
H2508 H 0.35373 0.10548 0.2553 0.0
H2509 H 0.23715 0.0762 0.22754 0.0
H2510 H 0.37473 0.06532 0.26469 0.0
H2511 H 0.2587 0.03576 0.23673 0.0
H2512 H 0.30364 0.9668 0.26616 0.0
H2513 H 0.27026 1.00658 0.25989 0.0
H2514 H 0.41164 0.03241 0.24889 0.0
H2515 H 0.44459 0.99317 0.25553 0.0
C2516 C 0.33116 0.09052 0.25186 0.0
C2517 C 0.29329 0.09399 0.24096 0.0
C2518 C 0.34381 0.06745 0.25693 0.0
C2519 C 0.31904 0.04727 0.25112 0.0
C2520 C 0.27831 0.05093 0.24144 0.0
C2521 C 0.26558 0.07412 0.23635 0.0
C2522 C 0.32715 0.98091 0.26201 0.0
C2523 C 0.37641 0.97664 0.26081 0.0
C2524 C 0.30816 1.00362 0.25849 0.0
C2525 C 0.33825 0.02268 0.25403 0.0
C2526 C 0.38746 0.0182 0.25248 0.0
C2527 C 0.40631 0.9955 0.25589 0.0
H2528 H 0.65675 0.54309 0.98949 0.0
H2529 H 0.5716 0.53816 0.03306 0.0
H2530 H 0.61412 0.50918 0.97809 0.0
H2531 H 0.52929 0.50391 0.02175 0.0
H2532 H 0.52667 0.42305 0.00579 0.0
H2533 H 0.54469 0.46293 0.01652 0.0
H2534 H 0.54435 0.49147 0.96767 0.0
H2535 H 0.52637 0.45168 0.95718 0.0
C2536 C 0.62779 0.53547 -0.00357 0.0
C2537 C 0.61761 0.54367 0.01219 0.0
C2538 C 0.60328 0.51574 0.98991 0.0
C2539 C 0.56811 0.50356 -0.001 0.0
C2540 C 0.55651 0.5125 0.01445 0.0
C2541 C 0.58068 0.53231 0.0209 0.0
C2542 C 0.52782 0.43815 -0.0025 0.0
C2543 C 0.5244 0.43437 0.9807 0.0
C2544 C 0.53876 0.46106 0.00359 0.0
C2545 C 0.54696 0.48053 0.99295 0.0
C2546 C 0.53938 0.47694 0.97624 0.0
C2547 C 0.52804 0.4542 0.97023 0.0
H2548 H 0.56055 0.74634 0.00443 0.0
H2549 H 0.70214 0.71902 0.01263 0.0
H2550 H 0.59349 0.7857 -0.00204 0.0
H2551 H 0.7354 0.75893 0.00652 0.0
H2552 H 0.7643 0.82963 0.97443 0.0
H2553 H 0.74237 0.78882 0.98272 0.0
H2554 H 0.63491 0.81751 0.01472 0.0
H2555 H 0.65584 0.85811 0.00612 0.0
C2556 C 0.59888 0.7485 0.00427 0.0
C2557 C 0.62899 0.72938 0.00853 0.0
C2558 C 0.61774 0.77123 0.00095 0.0
C2559 C 0.66715 0.7754 0.00187 0.0
C2560 C 0.69738 0.7561 0.00559 0.0
C2561 C 0.67843 0.73336 0.00903 0.0
C2562 C 0.73789 0.82722 0.98391 0.0
C2563 C 0.71235 0.84702 0.98989 0.0
C2564 C 0.72502 0.80385 0.98852 0.0
C2565 C 0.68656 0.79996 -0.00083 0.0
C2566 C 0.66414 0.81991 0.00627 0.0
C2567 C 0.67683 0.84318 0.00163 0.0
H2568 H 0.5711 0.72628 0.20989 0.0
H2569 H 0.64642 0.72333 0.25564 0.0
H2570 H 0.52781 0.76151 0.2192 0.0
H2571 H 0.60179 0.758 0.26511 0.0
H2572 H 0.50864 0.81749 0.28141 0.0
H2573 H 0.52466 0.77649 0.27232 0.0
H2574 H 0.55287 0.80308 0.22397 0.0
H2575 H 0.53697 0.84397 0.2332 0.0
C2576 C 0.57772 0.73274 0.2221 0.0
C2577 C 0.61266 0.72183 0.23195 0.0
C2578 C 0.55294 0.75306 0.22738 0.0
C2579 C 0.56155 0.76278 0.24283 0.0
C2580 C 0.5938 0.75084 0.25319 0.0
C2581 C 0.61932 0.7307 0.24777 0.0
C2582 C 0.51587 0.81434 0.26865 0.0
C2583 C 0.52073 0.83381 0.25792 0.0
C2584 C 0.52607 0.79094 0.26353 0.0
C2585 C 0.5411 0.78653 0.24751 0.0
C2586 C 0.54124 0.80577 0.23638 0.0
C2587 C 0.5315 0.82922 0.24158 0.0
H2588 H 0.74215 0.44931 0.27979 0.0
H2589 H 0.72081 0.42216 0.23135 0.0
H2590 H 0.72749 0.49007 0.27022 0.0
H2591 H 0.70637 0.46287 0.22159 0.0
H2592 H 0.68766 0.53889 0.2063 0.0
H2593 H 0.72824 0.50326 0.21611 0.0
H2594 H 0.65683 0.51052 0.26233 0.0
H2595 H 0.61517 0.5457 0.25239 0.0
C2596 C 0.73686 0.45228 0.2669 0.0
C2597 C 0.73363 0.43267 0.25623 0.0
C2598 C 0.72762 0.47561 0.26145 0.0
C2599 C 0.71518 0.47991 0.24516 0.0
C2600 C 0.71632 0.46044 0.23419 0.0
C2601 C 0.72514 0.43703 0.23971 0.0
C2602 C 0.68102 0.53317 0.21868 0.0
C2603 C 0.64779 0.54543 0.22849 0.0
C2604 C 0.70421 0.51255 0.22426 0.0
C2605 C 0.69581 0.50376 0.23999 0.0
C2606 C 0.665 0.5169 0.25022 0.0
C2607 C 0.64109 0.53737 0.24452 0.0
H2608 H 0.34514 0.47944 0.00294 0.0
H2609 H 0.42864 0.48367 0.95895 0.0
H2610 H 0.38727 0.51379 0.01375 0.0
H2611 H 0.4705 0.51849 0.9697 0.0
H2612 H 0.47232 0.59961 0.98501 0.0
H2613 H 0.45467 0.55945 0.97467 0.0
H2614 H 0.45687 0.53182 0.02376 0.0
H2615 H 0.47407 0.57192 0.03387 0.0
C2616 C 0.3737 0.48699 0.99579 0.0
C2617 C 0.38366 0.47841 0.98011 0.0
C2618 C 0.39792 0.50699 0.00198 0.0
C2619 C 0.43254 0.5191 0.99262 0.0
C2620 C 0.44376 0.5099 0.97721 0.0
C2621 C 0.41986 0.4898 0.97108 0.0
C2622 C 0.47143 0.58466 0.99343 0.0
C2623 C 0.47512 0.58873 0.01018 0.0
C2624 C 0.46084 0.56161 0.98757 0.0
C2625 C 0.4534 0.5423 -0.0016 0.0
C2626 C 0.46125 0.54622 0.01506 0.0
C2627 C 0.47203 0.56913 0.02085 0.0
H2628 H 0.31297 0.20215 0.03352 0.0
H2629 H 0.26065 0.17506 0.98778 0.0
H2630 H 0.33114 0.24025 0.02117 0.0
H2631 H 0.27606 0.21438 0.97531 0.0
H2632 H 0.38377 0.26888 0.95448 0.0
H2633 H 0.34361 0.23487 0.96643 0.0
H2634 H 0.31482 0.27672 0.00956 0.0
H2635 H 0.35536 0.31092 -0.00251 0.0
C2636 C 0.30381 0.20467 0.02084 0.0
C2637 C 0.28615 0.18541 0.01155 0.0
C2638 C 0.31407 0.22676 0.01372 0.0
C2639 C 0.3062 0.23055 -0.00293 0.0
C2640 C 0.284 0.21198 0.98807 0.0
C2641 C 0.27424 0.18954 0.99524 0.0
C2642 C 0.3685 0.27104 0.96647 0.0
C2643 C 0.37425 0.29266 0.97515 0.0
C2644 C 0.34488 0.2514 0.97331 0.0
C2645 C 0.32579 0.25268 0.98907 0.0
C2646 C 0.32992 0.27465 -0.00245 0.0
C2647 C 0.35363 0.29439 0.99066 0.0
H2648 H 0.49373 0.17552 0.75265 0.0
H2649 H 0.43222 0.19906 0.70734 0.0
H2650 H 0.4767 0.21509 0.76451 0.0
H2651 H 0.41279 0.23745 0.71915 0.0
H2652 H 0.3875 0.3088 0.74194 0.0
H2653 H 0.42962 0.27498 0.72995 0.0
H2654 H 0.40661 0.23383 0.77379 0.0
H2655 H 0.36489 0.26742 0.78567 0.0
C2656 C 0.47789 0.18932 0.74511 0.0
C2657 C 0.46385 0.18411 0.72914 0.0
C2658 C 0.46723 0.21186 0.75195 0.0
C2659 C 0.4421 0.22944 0.74295 0.0
C2660 C 0.43211 0.22467 0.72656 0.0
C2661 C 0.44318 0.20248 0.71975 0.0
C2662 C 0.39078 0.29249 0.74895 0.0
C2663 C 0.37136 0.29081 0.76465 0.0
C2664 C 0.41541 0.27301 0.74211 0.0
C2665 C 0.4216 0.25139 0.75082 0.0
C2666 C 0.40365 0.25016 0.76673 0.0
C2667 C 0.37913 0.26953 0.77352 0.0
H2668 H 0.28709 0.57201 0.70978 0.0
H2669 H 0.29879 0.60255 0.75771 0.0
H2670 H 0.30694 0.53256 0.7205 0.0
H2671 H 0.31918 0.56286 0.76865 0.0
H2672 H 0.33647 0.48499 0.78457 0.0
H2673 H 0.29827 0.52125 0.77424 0.0
H2674 H 0.37997 0.51524 0.72996 0.0
H2675 H 0.41854 0.47948 0.74033 0.0
C2676 C 0.29227 0.57003 0.72276 0.0
C2677 C 0.29075 0.59022 0.73297 0.0
C2678 C 0.30465 0.54752 0.72886 0.0
C2679 C 0.31587 0.54455 0.74537 0.0
C2680 C 0.31063 0.56444 0.75586 0.0
C2681 C 0.29839 0.58714 0.74968 0.0
C2682 C 0.34574 0.49119 0.7725 0.0
C2683 C 0.38019 0.47891 0.76322 0.0
C2684 C 0.32408 0.51213 0.76665 0.0
C2685 C 0.33595 0.52127 0.75127 0.0
C2686 C 0.36911 0.50851 0.74174 0.0
C2687 C 0.39107 0.48769 0.74765 0.0
loop_
_geom_bond_atom_site_label_1
_geom_bond_atom_site_label_2
_geom_bond_distance
_geom_bond_site_symmetry_2
_ccdc_geom_bond_type
Co0 O3 1.970 . S
Co0 N17 1.989 . S
Co0 O25 1.967 . S
Co0 O32 1.920 . S
Co1 O4 1.966 . S
Co1 N10 2.022 . S
Co1 N18 1.993 . S
Co1 O26 1.941 . S
C2 O3 1.258 . S
C2 O4 1.263 . S
O3 Co0 1.970 . S
O3 C2 1.258 . S
O4 Co1 1.966 . S
O4 C2 1.263 . S
C5 O6 1.235 . S
C5 O32 1.289 . S
O6 C5 1.235 . S
C7 C9 1.400 . S
C7 N10 1.351 . S
C7 C12 1.501 . S
C8 C9 1.387 . S
C8 N11 1.341 . S
C9 C7 1.400 . S
C9 C8 1.387 . S
N10 Co1 2.022 . S
N10 C7 1.351 . S
N10 N11 1.365 . S
N11 C8 1.341 . S
N11 N10 1.365 . S
N11 H31 0.862 . S
C12 C7 1.501 . S
C12 H13 0.961 . S
C12 H14 0.961 1_554 S
C12 H15 0.965 . S
H13 C12 0.961 . S
H14 C12 0.961 1_556 S
H15 C12 0.965 . S
C16 N17 1.342 . S
C16 C20 1.401 . S
C16 C21 1.499 . S
N17 Co0 1.989 . S
N17 C16 1.342 . S
N17 N18 1.388 . S
N18 Co1 1.993 . S
N18 N17 1.388 . S
N18 C19 1.346 . S
C19 N18 1.346 . S
C19 C20 1.396 . S
C19 C29 1.510 . S
C20 C16 1.401 . S
C20 C19 1.396 . S
C21 C16 1.499 . S
C21 H22 0.959 . S
C21 H23 0.960 . S
C21 H24 0.961 . S
H22 C21 0.959 . S
H23 C21 0.960 . S
H24 C21 0.961 . S
O25 Co0 1.967 . S
O25 C33 1.258 . S
O26 Co1 1.941 . S
O26 C33 1.266 . S
H27 C29 0.959 . S
H28 C29 0.961 . S
C29 C19 1.510 . S
C29 H27 0.959 . S
C29 H28 0.961 . S
C29 H30 0.960 . S
H30 C29 0.960 . S
H31 N11 0.862 . S
O32 Co0 1.920 . S
O32 C5 1.289 . S
C33 O25 1.258 . S
C33 O26 1.266 . S
Co34 O37 1.970 . S
Co34 N51 1.989 . S
Co34 O59 1.967 . S
Co34 O66 1.920 . S
Co35 O38 1.966 . S
Co35 N44 2.022 1_655 S
Co35 N52 1.993 . S
Co35 O60 1.941 . S
C36 O37 1.258 . S
C36 O38 1.263 . S
O37 Co34 1.970 . S
O37 C36 1.258 . S
O38 Co35 1.966 . S
O38 C36 1.263 . S
C39 O40 1.235 . S
C39 O66 1.289 . S
O40 C39 1.235 . S
C41 C43 1.400 . S
C41 N44 1.351 . S
C41 C46 1.501 . S
C42 C43 1.387 . S
C42 N45 1.341 . S
C43 C41 1.400 . S
C43 C42 1.387 . S
N44 Co35 2.022 1_455 S
N44 C41 1.351 . S
N44 N45 1.365 . S
N45 C42 1.341 . S
N45 N44 1.365 . S
N45 H65 0.862 . S
C46 C41 1.501 . S
C46 H47 0.961 . S
C46 H48 0.961 1_554 S
C46 H49 0.965 . S
H47 C46 0.961 . S
H48 C46 0.961 1_556 S
H49 C46 0.965 . S
C50 N51 1.342 . S
C50 C54 1.401 . S
C50 C55 1.499 . S
N51 Co34 1.989 . S
N51 C50 1.342 . S
N51 N52 1.388 . S
N52 Co35 1.993 . S
N52 N51 1.388 . S
N52 C53 1.346 . S
C53 N52 1.346 . S
C53 C54 1.396 . S
C53 C63 1.510 . S
C54 C50 1.401 . S
C54 C53 1.396 . S
C55 C50 1.499 . S
C55 H56 0.959 . S
C55 H57 0.960 . S
C55 H58 0.961 . S
H56 C55 0.959 . S
H57 C55 0.960 . S
H58 C55 0.961 . S
O59 Co34 1.967 . S
O59 C67 1.258 . S
O60 Co35 1.941 . S
O60 C67 1.266 . S
H61 C63 0.959 . S
H62 C63 0.961 . S
C63 C53 1.510 . S
C63 H61 0.959 . S
C63 H62 0.961 . S
C63 H64 0.960 . S
H64 C63 0.960 . S
H65 N45 0.862 . S
O66 Co34 1.920 . S
O66 C39 1.289 . S
C67 O59 1.258 . S
C67 O60 1.266 . S
Co68 O71 1.970 . S
Co68 N85 1.989 . S
Co68 O93 1.967 . S
Co68 O100 1.920 . S
Co69 O72 1.966 . S
Co69 N78 2.022 . S
Co69 N86 1.993 . S
Co69 O94 1.941 . S
C70 O71 1.258 . S
C70 O72 1.263 . S
O71 Co68 1.970 . S
O71 C70 1.258 . S
O72 Co69 1.966 . S
O72 C70 1.263 . S
C73 O74 1.235 . S
C73 O100 1.289 . S
O74 C73 1.235 . S
C75 C77 1.400 . S
C75 N78 1.351 . S
C75 C80 1.501 . S
C76 C77 1.387 . S
C76 N79 1.341 . S
C77 C75 1.400 . S
C77 C76 1.387 . S
N78 Co69 2.022 . S
N78 C75 1.351 . S
N78 N79 1.365 . S
N79 C76 1.341 . S
N79 N78 1.365 . S
N79 H99 0.862 . S
C80 C75 1.501 . S
C80 H81 0.961 . S
C80 H82 0.961 . S
C80 H83 0.960 . S
H81 C80 0.961 . S
H82 C80 0.961 . S
H83 C80 0.960 . S
C84 N85 1.342 . S
C84 C88 1.401 . S
C84 C89 1.499 . S
N85 Co68 1.989 . S
N85 C84 1.342 . S
N85 N86 1.388 . S
N86 Co69 1.993 . S
N86 N85 1.388 . S
N86 C87 1.346 . S
C87 N86 1.346 . S
C87 C88 1.396 . S
C87 C97 1.510 . S
C88 C84 1.401 . S
C88 C87 1.396 . S
C89 C84 1.499 . S
C89 H90 0.959 . S
C89 H91 0.960 . S
C89 H92 0.961 . S
H90 C89 0.959 . S
H91 C89 0.960 . S
H92 C89 0.961 . S
O93 Co68 1.967 . S
O93 C101 1.258 . S
O94 Co69 1.941 . S
O94 C101 1.266 . S
H95 C97 0.959 . S
H96 C97 0.961 . S
C97 C87 1.510 . S
C97 H95 0.959 . S
C97 H96 0.961 . S
C97 H98 0.960 . S
H98 C97 0.960 . S
H99 N79 0.862 . S
O100 Co68 1.920 . S
O100 C73 1.289 . S
C101 O93 1.258 . S
C101 O94 1.266 . S
Co102 O105 1.970 . S
Co102 N119 1.989 . S
Co102 O127 1.967 . S
Co102 O134 1.920 . S
Co103 O106 1.966 . S
Co103 N112 2.022 1_655 S
Co103 N120 1.993 . S
Co103 O128 1.941 . S
C104 O105 1.258 . S
C104 O106 1.263 . S
O105 Co102 1.970 . S
O105 C104 1.258 . S
O106 Co103 1.966 . S
O106 C104 1.263 . S
C107 O108 1.235 . S
C107 O134 1.289 . S
O108 C107 1.235 . S
C109 C111 1.400 . S
C109 N112 1.351 . S
C109 C114 1.501 . S
C110 C111 1.387 . S
C110 N113 1.341 . S
C111 C109 1.400 . S
C111 C110 1.387 . S
N112 Co103 2.022 1_455 S
N112 C109 1.351 . S
N112 N113 1.365 . S
N113 C110 1.341 . S
N113 N112 1.365 . S
N113 H133 0.862 . S
C114 C109 1.501 . S
C114 H115 0.961 . S
C114 H116 0.961 . S
C114 H117 0.960 . S
H115 C114 0.961 . S
H116 C114 0.961 . S
H117 C114 0.960 . S
C118 N119 1.342 . S
C118 C122 1.401 . S
C118 C123 1.499 . S
N119 Co102 1.989 . S
N119 C118 1.342 . S
N119 N120 1.388 . S
N120 Co103 1.993 . S
N120 N119 1.388 . S
N120 C121 1.346 . S
C121 N120 1.346 . S
C121 C122 1.396 . S
C121 C131 1.510 . S
C122 C118 1.401 . S
C122 C121 1.396 . S
C123 C118 1.499 . S
C123 H124 0.959 . S
C123 H125 0.960 . S
C123 H126 0.961 . S
H124 C123 0.959 . S
H125 C123 0.960 . S
H126 C123 0.961 . S
O127 Co102 1.967 . S
O127 C135 1.258 . S
O128 Co103 1.941 . S
O128 C135 1.266 . S
H129 C131 0.959 . S
H130 C131 0.961 . S
C131 C121 1.510 . S
C131 H129 0.959 . S
C131 H130 0.961 . S
C131 H132 0.960 . S
H132 C131 0.960 . S
H133 N113 0.862 . S
O134 Co102 1.920 . S
O134 C107 1.289 . S
C135 O127 1.258 . S
C135 O128 1.266 . S
Co136 O139 1.970 . S
Co136 N153 1.989 . S
Co136 O161 1.967 . S
Co136 O168 1.920 . S
Co137 O140 1.966 . S
Co137 N146 2.022 . S
Co137 N154 1.993 . S
Co137 O162 1.941 . S
C138 O139 1.258 . S
C138 O140 1.263 . S
O139 Co136 1.970 . S
O139 C138 1.258 . S
O140 Co137 1.966 . S
O140 C138 1.263 . S
C141 O142 1.235 . S
C141 O168 1.289 . S
O142 C141 1.235 . S
C143 C145 1.400 . S
C143 N146 1.351 . S
C143 C148 1.501 . S
C144 C145 1.387 . S
C144 N147 1.341 . S
C145 C143 1.400 . S
C145 C144 1.387 . S
N146 Co137 2.022 . S
N146 C143 1.351 . S
N146 N147 1.365 . S
N147 C144 1.341 . S
N147 N146 1.365 . S
N147 H167 0.862 . S
C148 C143 1.501 . S
C148 H149 0.961 . S
C148 H150 0.961 1_556 S
C148 H151 0.965 . S
H149 C148 0.961 . S
H150 C148 0.961 1_554 S
H151 C148 0.965 . S
C152 N153 1.342 . S
C152 C156 1.401 . S
C152 C157 1.499 . S
N153 Co136 1.989 . S
N153 C152 1.342 . S
N153 N154 1.388 . S
N154 Co137 1.993 . S
N154 N153 1.388 . S
N154 C155 1.346 . S
C155 N154 1.346 . S
C155 C156 1.396 . S
C155 C165 1.510 . S
C156 C152 1.401 . S
C156 C155 1.396 . S
C157 C152 1.499 . S
C157 H158 0.959 . S
C157 H159 0.960 . S
C157 H160 0.961 . S
H158 C157 0.959 . S
H159 C157 0.960 . S
H160 C157 0.961 . S
O161 Co136 1.967 . S
O161 C169 1.258 . S
O162 Co137 1.941 . S
O162 C169 1.266 . S
H163 C165 0.959 . S
H164 C165 0.961 . S
C165 C155 1.510 . S
C165 H163 0.959 . S
C165 H164 0.961 . S
C165 H166 0.960 . S
H166 C165 0.960 . S
H167 N147 0.862 . S
O168 Co136 1.920 . S
O168 C141 1.289 . S
C169 O161 1.258 . S
C169 O162 1.266 . S
Co170 O173 1.970 . S
Co170 N187 1.989 . S
Co170 O195 1.967 . S
Co170 O202 1.920 . S
Co171 O174 1.966 . S
Co171 N180 2.022 1_455 S
Co171 N188 1.993 . S
Co171 O196 1.941 . S
C172 O173 1.258 . S
C172 O174 1.263 . S
O173 Co170 1.970 . S
O173 C172 1.258 . S
O174 Co171 1.966 . S
O174 C172 1.263 . S
C175 O176 1.235 . S
C175 O202 1.289 . S
O176 C175 1.235 . S
C177 C179 1.400 . S
C177 N180 1.351 . S
C177 C182 1.501 . S
C178 C179 1.387 . S
C178 N181 1.341 . S
C179 C177 1.400 . S
C179 C178 1.387 . S
N180 Co171 2.022 1_655 S
N180 C177 1.351 . S
N180 N181 1.365 . S
N181 C178 1.341 . S
N181 N180 1.365 . S
N181 H201 0.862 . S
C182 C177 1.501 . S
C182 H183 0.961 . S
C182 H184 0.961 1_556 S
C182 H185 0.965 . S
H183 C182 0.961 . S
H184 C182 0.961 1_554 S
H185 C182 0.965 . S
C186 N187 1.342 . S
C186 C190 1.401 . S
C186 C191 1.499 . S
N187 Co170 1.989 . S
N187 C186 1.342 . S
N187 N188 1.388 . S
N188 Co171 1.993 . S
N188 N187 1.388 . S
N188 C189 1.346 . S
C189 N188 1.346 . S
C189 C190 1.396 . S
C189 C199 1.510 . S
C190 C186 1.401 . S
C190 C189 1.396 . S
C191 C186 1.499 . S
C191 H192 0.959 . S
C191 H193 0.960 . S
C191 H194 0.961 . S
H192 C191 0.959 . S
H193 C191 0.960 . S
H194 C191 0.961 . S
O195 Co170 1.967 . S
O195 C203 1.258 . S
O196 Co171 1.941 . S
O196 C203 1.266 . S
H197 C199 0.959 . S
H198 C199 0.961 . S
C199 C189 1.510 . S
C199 H197 0.959 . S
C199 H198 0.961 . S
C199 H200 0.960 . S
H200 C199 0.960 . S
H201 N181 0.862 . S
O202 Co170 1.920 . S
O202 C175 1.289 . S
C203 O195 1.258 . S
C203 O196 1.266 . S
Co204 O207 1.970 . S
Co204 N221 1.989 . S
Co204 O229 1.967 . S
Co204 O236 1.920 . S
Co205 O208 1.966 . S
Co205 N214 2.022 . S
Co205 N222 1.993 . S
Co205 O230 1.941 . S
C206 O207 1.258 . S
C206 O208 1.263 . S
O207 Co204 1.970 . S
O207 C206 1.258 . S
O208 Co205 1.966 . S
O208 C206 1.263 . S
C209 O210 1.235 . S
C209 O236 1.289 . S
O210 C209 1.235 . S
C211 C213 1.400 . S
C211 N214 1.351 . S
C211 C216 1.501 . S
C212 C213 1.387 . S
C212 N215 1.341 . S
C213 C211 1.400 . S
C213 C212 1.387 . S
N214 Co205 2.022 . S
N214 C211 1.351 . S
N214 N215 1.365 . S
N215 C212 1.341 . S
N215 N214 1.365 . S
N215 H235 0.862 . S
C216 C211 1.501 . S
C216 H217 0.961 . S
C216 H218 0.961 . S
C216 H219 0.960 . S
H217 C216 0.961 . S
H218 C216 0.961 . S
H219 C216 0.960 . S
C220 N221 1.342 . S
C220 C224 1.401 . S
C220 C225 1.499 . S
N221 Co204 1.989 . S
N221 C220 1.342 . S
N221 N222 1.388 . S
N222 Co205 1.993 . S
N222 N221 1.388 . S
N222 C223 1.346 . S
C223 N222 1.346 . S
C223 C224 1.396 . S
C223 C233 1.510 . S
C224 C220 1.401 . S
C224 C223 1.396 . S
C225 C220 1.499 . S
C225 H226 0.959 . S
C225 H227 0.960 . S
C225 H228 0.961 . S
H226 C225 0.959 . S
H227 C225 0.960 . S
H228 C225 0.961 . S
O229 Co204 1.967 . S
O229 C237 1.258 . S
O230 Co205 1.941 . S
O230 C237 1.266 . S
H231 C233 0.959 . S
H232 C233 0.961 . S
C233 C223 1.510 . S
C233 H231 0.959 . S
C233 H232 0.961 . S
C233 H234 0.960 . S
H234 C233 0.960 . S
H235 N215 0.862 . S
O236 Co204 1.920 . S
O236 C209 1.289 . S
C237 O229 1.258 . S
C237 O230 1.266 . S
Co238 O241 1.970 . S
Co238 N255 1.989 . S
Co238 O263 1.967 . S
Co238 O270 1.920 . S
Co239 O242 1.966 . S
Co239 N248 2.022 1_455 S
Co239 N256 1.993 . S
Co239 O264 1.941 . S
C240 O241 1.258 . S
C240 O242 1.263 . S
O241 Co238 1.970 . S
O241 C240 1.258 . S
O242 Co239 1.966 . S
O242 C240 1.263 . S
C243 O244 1.235 . S
C243 O270 1.289 . S
O244 C243 1.235 . S
C245 C247 1.400 . S
C245 N248 1.351 . S
C245 C250 1.501 . S
C246 C247 1.387 . S
C246 N249 1.341 . S
C247 C245 1.400 . S
C247 C246 1.387 . S
N248 Co239 2.022 1_655 S
N248 C245 1.351 . S
N248 N249 1.365 . S
N249 C246 1.341 . S
N249 N248 1.365 . S
N249 H269 0.862 . S
C250 C245 1.501 . S
C250 H251 0.961 . S
C250 H252 0.961 . S
C250 H253 0.960 . S
H251 C250 0.961 . S
H252 C250 0.961 . S
H253 C250 0.960 . S
C254 N255 1.342 . S
C254 C258 1.401 . S
C254 C259 1.499 . S
N255 Co238 1.989 . S
N255 C254 1.342 . S
N255 N256 1.388 . S
N256 Co239 1.993 . S
N256 N255 1.388 . S
N256 C257 1.346 . S
C257 N256 1.346 . S
C257 C258 1.396 . S
C257 C267 1.510 . S
C258 C254 1.401 . S
C258 C257 1.396 . S
C259 C254 1.499 . S
C259 H260 0.959 . S
C259 H261 0.960 . S
C259 H262 0.961 . S
H260 C259 0.959 . S
H261 C259 0.960 . S
H262 C259 0.961 . S
O263 Co238 1.967 . S
O263 C271 1.258 . S
O264 Co239 1.941 . S
O264 C271 1.266 . S
H265 C267 0.959 . S
H266 C267 0.961 . S
C267 C257 1.510 . S
C267 H265 0.959 . S
C267 H266 0.961 . S
C267 H268 0.960 . S
H268 C267 0.960 . S
H269 N249 0.862 . S
O270 Co238 1.920 . S
O270 C243 1.289 . S
C271 O263 1.258 . S
C271 O264 1.266 . S
Co272 O275 1.970 . S
Co272 N289 1.989 . S
Co272 O297 1.967 . S
Co272 O304 1.920 . S
Co273 O276 1.966 . S
Co273 N282 2.022 . S
Co273 N290 1.993 . S
Co273 O298 1.941 . S
C274 O275 1.258 . S
C274 O276 1.263 . S
O275 Co272 1.970 . S
O275 C274 1.258 . S
O276 Co273 1.966 . S
O276 C274 1.263 . S
C277 O278 1.235 . S
C277 O304 1.289 . S
O278 C277 1.235 . S
C279 C281 1.400 . S
C279 N282 1.351 . S
C279 C284 1.501 . S
C280 C281 1.387 . S
C280 N283 1.341 . S
C281 C279 1.400 . S
C281 C280 1.387 . S
N282 Co273 2.022 . S
N282 C279 1.351 . S
N282 N283 1.365 . S
N283 C280 1.341 . S
N283 N282 1.365 . S
N283 H303 0.862 . S
C284 C279 1.501 . S
C284 H285 0.961 . S
C284 H286 0.961 . S
C284 H287 0.960 . S
H285 C284 0.961 . S
H286 C284 0.961 . S
H287 C284 0.960 . S
C288 N289 1.342 . S
C288 C292 1.401 . S
C288 C293 1.499 . S
N289 Co272 1.989 . S
N289 C288 1.342 . S
N289 N290 1.388 . S
N290 Co273 1.993 . S
N290 N289 1.388 . S
N290 C291 1.346 . S
C291 N290 1.346 . S
C291 C292 1.396 . S
C291 C301 1.510 . S
C292 C288 1.401 . S
C292 C291 1.396 . S
C293 C288 1.499 . S
C293 H294 0.959 . S
C293 H295 0.960 . S
C293 H296 0.961 . S
H294 C293 0.959 . S
H295 C293 0.960 . S
H296 C293 0.961 . S
O297 Co272 1.967 . S
O297 C305 1.258 . S
O298 Co273 1.941 . S
O298 C305 1.266 . S
H299 C301 0.959 . S
H300 C301 0.961 . S
C301 C291 1.510 . S
C301 H299 0.959 . S
C301 H300 0.961 . S
C301 H302 0.960 . S
H302 C301 0.960 . S
H303 N283 0.862 . S
O304 Co272 1.920 . S
O304 C277 1.289 . S
C305 O297 1.258 . S
C305 O298 1.266 . S
Co306 O309 1.970 . S
Co306 N323 1.989 . S
Co306 O331 1.967 . S
Co306 O338 1.920 . S
Co307 O310 1.966 . S
Co307 N316 2.022 1_655 S
Co307 N324 1.993 . S
Co307 O332 1.941 . S
C308 O309 1.258 . S
C308 O310 1.263 . S
O309 Co306 1.970 . S
O309 C308 1.258 . S
O310 Co307 1.966 . S
O310 C308 1.263 . S
C311 O312 1.235 . S
C311 O338 1.289 . S
O312 C311 1.235 . S
C313 C315 1.400 . S
C313 N316 1.351 . S
C313 C318 1.501 . S
C314 C315 1.387 . S
C314 N317 1.341 . S
C315 C313 1.400 . S
C315 C314 1.387 . S
N316 Co307 2.022 1_455 S
N316 C313 1.351 . S
N316 N317 1.365 . S
N317 C314 1.341 . S
N317 N316 1.365 . S
N317 H337 0.862 . S
C318 C313 1.501 . S
C318 H319 0.961 . S
C318 H320 0.961 . S
C318 H321 0.960 . S
H319 C318 0.961 . S
H320 C318 0.961 . S
H321 C318 0.960 . S
C322 N323 1.342 . S
C322 C326 1.401 . S
C322 C327 1.499 . S
N323 Co306 1.989 . S
N323 C322 1.342 . S
N323 N324 1.388 . S
N324 Co307 1.993 . S
N324 N323 1.388 . S
N324 C325 1.346 . S
C325 N324 1.346 . S
C325 C326 1.396 . S
C325 C335 1.510 . S
C326 C322 1.401 . S
C326 C325 1.396 . S
C327 C322 1.499 . S
C327 H328 0.959 . S
C327 H329 0.960 . S
C327 H330 0.961 . S
H328 C327 0.959 . S
H329 C327 0.960 . S
H330 C327 0.961 . S
O331 Co306 1.967 . S
O331 C339 1.258 . S
O332 Co307 1.941 . S
O332 C339 1.266 . S
H333 C335 0.959 . S
H334 C335 0.961 . S
C335 C325 1.510 . S
C335 H333 0.959 . S
C335 H334 0.961 . S
C335 H336 0.960 . S
H336 C335 0.960 . S
H337 N317 0.862 . S
O338 Co306 1.920 . S
O338 C311 1.289 . S
C339 O331 1.258 . S
C339 O332 1.266 . S
Co340 O343 1.970 . S
Co340 N357 1.989 . S
Co340 O365 1.967 . S
Co340 O372 1.920 . S
Co341 O344 1.966 . S
Co341 N350 2.022 . S
Co341 N358 1.993 . S
Co341 O366 1.941 . S
C342 O343 1.258 . S
C342 O344 1.263 . S
O343 Co340 1.970 . S
O343 C342 1.258 . S
O344 Co341 1.966 . S
O344 C342 1.263 . S
C345 O346 1.235 . S
C345 O372 1.289 . S
O346 C345 1.235 . S
C347 C349 1.400 . S
C347 N350 1.351 . S
C347 C352 1.501 . S
C348 C349 1.387 . S
C348 N351 1.341 . S
C349 C347 1.400 . S
C349 C348 1.387 . S
N350 Co341 2.022 . S
N350 C347 1.351 . S
N350 N351 1.365 . S
N351 C348 1.341 . S
N351 N350 1.365 . S
N351 H371 0.862 . S
C352 C347 1.501 . S
C352 H353 0.961 . S
C352 H354 0.961 . S
C352 H355 0.960 . S
H353 C352 0.961 . S
H354 C352 0.961 . S
H355 C352 0.960 . S
C356 N357 1.342 . S
C356 C360 1.401 . S
C356 C361 1.499 . S
N357 Co340 1.989 . S
N357 C356 1.342 . S
N357 N358 1.388 . S
N358 Co341 1.993 . S
N358 N357 1.388 . S
N358 C359 1.346 . S
C359 N358 1.346 . S
C359 C360 1.396 . S
C359 C369 1.510 . S
C360 C356 1.401 . S
C360 C359 1.396 . S
C361 C356 1.499 . S
C361 H362 0.959 . S
C361 H363 0.960 . S
C361 H364 0.961 . S
H362 C361 0.959 . S
H363 C361 0.960 . S
H364 C361 0.961 . S
O365 Co340 1.967 . S
O365 C373 1.258 . S
O366 Co341 1.941 . S
O366 C373 1.266 . S
H367 C369 0.959 . S
H368 C369 0.961 . S
C369 C359 1.510 . S
C369 H367 0.959 . S
C369 H368 0.961 . S
C369 H370 0.960 . S
H370 C369 0.960 . S
H371 N351 0.862 . S
O372 Co340 1.920 . S
O372 C345 1.289 . S
C373 O365 1.258 . S
C373 O366 1.266 . S
Co374 O377 1.970 . S
Co374 N391 1.989 . S
Co374 O399 1.967 . S
Co374 O406 1.920 . S
Co375 O378 1.966 . S
Co375 N384 2.022 1_655 S
Co375 N392 1.993 . S
Co375 O400 1.941 . S
C376 O377 1.258 . S
C376 O378 1.263 . S
O377 Co374 1.970 . S
O377 C376 1.258 . S
O378 Co375 1.966 . S
O378 C376 1.263 . S
C379 O380 1.235 . S
C379 O406 1.289 . S
O380 C379 1.235 . S
C381 C383 1.400 . S
C381 N384 1.351 . S
C381 C386 1.501 . S
C382 C383 1.387 . S
C382 N385 1.341 . S
C383 C381 1.400 . S
C383 C382 1.387 . S
N384 Co375 2.022 1_455 S
N384 C381 1.351 . S
N384 N385 1.365 . S
N385 C382 1.341 . S
N385 N384 1.365 . S
N385 H405 0.862 . S
C386 C381 1.501 . S
C386 H387 0.961 . S
C386 H388 0.961 . S
C386 H389 0.960 . S
H387 C386 0.961 . S
H388 C386 0.961 . S
H389 C386 0.960 . S
C390 N391 1.342 . S
C390 C394 1.401 . S
C390 C395 1.499 . S
N391 Co374 1.989 . S
N391 C390 1.342 . S
N391 N392 1.388 . S
N392 Co375 1.993 . S
N392 N391 1.388 . S
N392 C393 1.346 . S
C393 N392 1.346 . S
C393 C394 1.396 . S
C393 C403 1.510 . S
C394 C390 1.401 . S
C394 C393 1.396 . S
C395 C390 1.499 . S
C395 H396 0.959 . S
C395 H397 0.960 . S
C395 H398 0.961 . S
H396 C395 0.959 . S
H397 C395 0.960 . S
H398 C395 0.961 . S
O399 Co374 1.967 . S
O399 C407 1.258 . S
O400 Co375 1.941 . S
O400 C407 1.266 . S
H401 C403 0.959 . S
H402 C403 0.961 . S
C403 C393 1.510 . S
C403 H401 0.959 . S
C403 H402 0.961 . S
C403 H404 0.960 . S
H404 C403 0.960 . S
H405 N385 0.862 . S
O406 Co374 1.920 . S
O406 C379 1.289 . S
C407 O399 1.258 . S
C407 O400 1.266 . S
Co408 O411 1.970 . S
Co408 N425 1.989 . S
Co408 O433 1.967 . S
Co408 O440 1.920 . S
Co409 O412 1.966 . S
Co409 N418 2.022 . S
Co409 N426 1.993 . S
Co409 O434 1.941 . S
C410 O411 1.258 . S
C410 O412 1.263 . S
O411 Co408 1.970 . S
O411 C410 1.258 . S
O412 Co409 1.966 . S
O412 C410 1.263 . S
C413 O414 1.235 . S
C413 O440 1.289 . S
O414 C413 1.235 . S
C415 C417 1.400 . S
C415 N418 1.351 . S
C415 C420 1.501 . S
C416 C417 1.387 . S
C416 N419 1.341 . S
C417 C415 1.400 . S
C417 C416 1.387 . S
N418 Co409 2.022 . S
N418 C415 1.351 . S
N418 N419 1.365 . S
N419 C416 1.341 . S
N419 N418 1.365 . S
N419 H439 0.862 . S
C420 C415 1.501 . S
C420 H421 0.961 . S
C420 H422 0.961 . S
C420 H423 0.960 . S
H421 C420 0.961 . S
H422 C420 0.961 . S
H423 C420 0.960 . S
C424 N425 1.342 . S
C424 C428 1.401 . S
C424 C429 1.499 . S
N425 Co408 1.989 . S
N425 C424 1.342 . S
N425 N426 1.388 . S
N426 Co409 1.993 . S
N426 N425 1.388 . S
N426 C427 1.346 . S
C427 N426 1.346 . S
C427 C428 1.396 . S
C427 C437 1.510 . S
C428 C424 1.401 . S
C428 C427 1.396 . S
C429 C424 1.499 . S
C429 H430 0.959 . S
C429 H431 0.960 . S
C429 H432 0.961 . S
H430 C429 0.959 . S
H431 C429 0.960 . S
H432 C429 0.961 . S
O433 Co408 1.967 . S
O433 C441 1.258 . S
O434 Co409 1.941 . S
O434 C441 1.266 . S
H435 C437 0.959 . S
H436 C437 0.961 . S
C437 C427 1.510 . S
C437 H435 0.959 . S
C437 H436 0.961 . S
C437 H438 0.960 . S
H438 C437 0.960 . S
H439 N419 0.862 . S
O440 Co408 1.920 . S
O440 C413 1.289 . S
C441 O433 1.258 . S
C441 O434 1.266 . S
Co442 O445 1.970 . S
Co442 N459 1.989 . S
Co442 O467 1.967 . S
Co442 O474 1.920 . S
Co443 O446 1.966 . S
Co443 N452 2.022 1_455 S
Co443 N460 1.993 . S
Co443 O468 1.941 . S
C444 O445 1.258 . S
C444 O446 1.263 . S
O445 Co442 1.970 . S
O445 C444 1.258 . S
O446 Co443 1.966 . S
O446 C444 1.263 . S
C447 O448 1.235 . S
C447 O474 1.289 . S
O448 C447 1.235 . S
C449 C451 1.400 . S
C449 N452 1.351 . S
C449 C454 1.501 . S
C450 C451 1.387 . S
C450 N453 1.341 . S
C451 C449 1.400 . S
C451 C450 1.387 . S
N452 Co443 2.022 1_655 S
N452 C449 1.351 . S
N452 N453 1.365 . S
N453 C450 1.341 . S
N453 N452 1.365 . S
N453 H473 0.862 . S
C454 C449 1.501 . S
C454 H455 0.961 . S
C454 H456 0.961 . S
C454 H457 0.960 . S
H455 C454 0.961 . S
H456 C454 0.961 . S
H457 C454 0.960 . S
C458 N459 1.342 . S
C458 C462 1.401 . S
C458 C463 1.499 . S
N459 Co442 1.989 . S
N459 C458 1.342 . S
N459 N460 1.388 . S
N460 Co443 1.993 . S
N460 N459 1.388 . S
N460 C461 1.346 . S
C461 N460 1.346 . S
C461 C462 1.396 . S
C461 C471 1.510 . S
C462 C458 1.401 . S
C462 C461 1.396 . S
C463 C458 1.499 . S
C463 H464 0.959 . S
C463 H465 0.960 . S
C463 H466 0.961 . S
H464 C463 0.959 . S
H465 C463 0.960 . S
H466 C463 0.961 . S
O467 Co442 1.967 . S
O467 C475 1.258 . S
O468 Co443 1.941 . S
O468 C475 1.266 . S
H469 C471 0.959 . S
H470 C471 0.961 . S
C471 C461 1.510 . S
C471 H469 0.959 . S
C471 H470 0.961 . S
C471 H472 0.960 . S
H472 C471 0.960 . S
H473 N453 0.862 . S
O474 Co442 1.920 . S
O474 C447 1.289 . S
C475 O467 1.258 . S
C475 O468 1.266 . S
Co476 O479 1.970 . S
Co476 N493 1.989 . S
Co476 O501 1.967 . S
Co476 O508 1.920 . S
Co477 O480 1.966 . S
Co477 N486 2.022 . S
Co477 N494 1.993 . S
Co477 O502 1.941 . S
C478 O479 1.258 . S
C478 O480 1.263 . S
O479 Co476 1.970 . S
O479 C478 1.258 . S
O480 Co477 1.966 . S
O480 C478 1.263 . S
C481 O482 1.235 . S
C481 O508 1.289 . S
O482 C481 1.235 . S
C483 C485 1.400 . S
C483 N486 1.351 . S
C483 C488 1.501 . S
C484 C485 1.387 . S
C484 N487 1.341 . S
C485 C483 1.400 . S
C485 C484 1.387 . S
N486 Co477 2.022 . S
N486 C483 1.351 . S
N486 N487 1.365 . S
N487 C484 1.341 . S
N487 N486 1.365 . S
N487 H507 0.862 . S
C488 C483 1.501 . S
C488 H489 0.961 . S
C488 H490 0.961 . S
C488 H491 0.960 . S
H489 C488 0.961 . S
H490 C488 0.961 . S
H491 C488 0.960 . S
C492 N493 1.342 . S
C492 C496 1.401 . S
C492 C497 1.499 . S
N493 Co476 1.989 . S
N493 C492 1.342 . S
N493 N494 1.388 . S
N494 Co477 1.993 . S
N494 N493 1.388 . S
N494 C495 1.346 . S
C495 N494 1.346 . S
C495 C496 1.396 . S
C495 C505 1.510 . S
C496 C492 1.401 . S
C496 C495 1.396 . S
C497 C492 1.499 . S
C497 H498 0.959 . S
C497 H499 0.960 . S
C497 H500 0.961 . S
H498 C497 0.959 . S
H499 C497 0.960 . S
H500 C497 0.961 . S
O501 Co476 1.967 . S
O501 C509 1.258 . S
O502 Co477 1.941 . S
O502 C509 1.266 . S
H503 C505 0.959 . S
H504 C505 0.961 . S
C505 C495 1.510 . S
C505 H503 0.959 . S
C505 H504 0.961 . S
C505 H506 0.960 . S
H506 C505 0.960 . S
H507 N487 0.862 . S
O508 Co476 1.920 . S
O508 C481 1.289 . S
C509 O501 1.258 . S
C509 O502 1.266 . S
Co510 O513 1.970 . S
Co510 N527 1.989 . S
Co510 O535 1.967 . S
Co510 O542 1.920 . S
Co511 O514 1.966 . S
Co511 N520 2.022 1_455 S
Co511 N528 1.993 . S
Co511 O536 1.941 . S
C512 O513 1.258 . S
C512 O514 1.263 . S
O513 Co510 1.970 . S
O513 C512 1.258 . S
O514 Co511 1.966 . S
O514 C512 1.263 . S
C515 O516 1.235 . S
C515 O542 1.289 . S
O516 C515 1.235 . S
C517 C519 1.400 . S
C517 N520 1.351 . S
C517 C522 1.501 . S
C518 C519 1.387 . S
C518 N521 1.341 . S
C519 C517 1.400 . S
C519 C518 1.387 . S
N520 Co511 2.022 1_655 S
N520 C517 1.351 . S
N520 N521 1.365 . S
N521 C518 1.341 . S
N521 N520 1.365 . S
N521 H541 0.862 . S
C522 C517 1.501 . S
C522 H523 0.961 . S
C522 H524 0.961 . S
C522 H525 0.960 . S
H523 C522 0.961 . S
H524 C522 0.961 . S
H525 C522 0.960 . S
C526 N527 1.342 . S
C526 C530 1.401 . S
C526 C531 1.499 . S
N527 Co510 1.989 . S
N527 C526 1.342 . S
N527 N528 1.388 . S
N528 Co511 1.993 . S
N528 N527 1.388 . S
N528 C529 1.346 . S
C529 N528 1.346 . S
C529 C530 1.396 . S
C529 C539 1.510 . S
C530 C526 1.401 . S
C530 C529 1.396 . S
C531 C526 1.499 . S
C531 H532 0.959 . S
C531 H533 0.960 . S
C531 H534 0.961 . S
H532 C531 0.959 . S
H533 C531 0.960 . S
H534 C531 0.961 . S
O535 Co510 1.967 . S
O535 C543 1.258 . S
O536 Co511 1.941 . S
O536 C543 1.266 . S
H537 C539 0.959 . S
H538 C539 0.961 . S
C539 C529 1.510 . S
C539 H537 0.959 . S
C539 H538 0.961 . S
C539 H540 0.960 . S
H540 C539 0.960 . S
H541 N521 0.862 . S
O542 Co510 1.920 . S
O542 C515 1.289 . S
C543 O535 1.258 . S
C543 O536 1.266 . S
Co544 O547 1.970 . S
Co544 N561 1.989 . S
Co544 O569 1.967 . S
Co544 O576 1.920 . S
Co545 O548 1.966 . S
Co545 N554 2.022 . S
Co545 N562 1.993 . S
Co545 O570 1.941 . S
C546 O547 1.258 . S
C546 O548 1.263 . S
O547 Co544 1.970 . S
O547 C546 1.258 . S
O548 Co545 1.966 . S
O548 C546 1.263 . S
C549 O550 1.235 . S
C549 O576 1.289 . S
O550 C549 1.235 . S
C551 C553 1.400 . S
C551 N554 1.351 . S
C551 C556 1.501 . S
C552 C553 1.387 . S
C552 N555 1.341 . S
C553 C551 1.400 . S
C553 C552 1.387 . S
N554 Co545 2.022 . S
N554 C551 1.351 . S
N554 N555 1.365 . S
N555 C552 1.341 . S
N555 N554 1.365 . S
N555 H575 0.862 . S
C556 C551 1.501 . S
C556 H557 0.961 . S
C556 H558 0.961 . S
C556 H559 0.960 . S
H557 C556 0.961 . S
H558 C556 0.961 . S
H559 C556 0.960 . S
C560 N561 1.342 . S
C560 C564 1.401 . S
C560 C565 1.499 . S
N561 Co544 1.989 . S
N561 C560 1.342 . S
N561 N562 1.388 . S
N562 Co545 1.993 . S
N562 N561 1.388 . S
N562 C563 1.346 . S
C563 N562 1.346 . S
C563 C564 1.396 . S
C563 C573 1.510 . S
C564 C560 1.401 . S
C564 C563 1.396 . S
C565 C560 1.499 . S
C565 H566 0.959 . S
C565 H567 0.960 . S
C565 H568 0.961 . S
H566 C565 0.959 . S
H567 C565 0.960 . S
H568 C565 0.961 . S
O569 Co544 1.967 . S
O569 C577 1.258 . S
O570 Co545 1.941 . S
O570 C577 1.266 . S
H571 C573 0.959 . S
H572 C573 0.961 . S
C573 C563 1.510 . S
C573 H571 0.959 . S
C573 H572 0.961 . S
C573 H574 0.960 . S
H574 C573 0.960 . S
H575 N555 0.862 . S
O576 Co544 1.920 . S
O576 C549 1.289 . S
C577 O569 1.258 . S
C577 O570 1.266 . S
Co578 O581 1.970 . S
Co578 N595 1.989 . S
Co578 O603 1.967 . S
Co578 O610 1.920 . S
Co579 O582 1.966 . S
Co579 N588 2.022 . S
Co579 N596 1.993 . S
Co579 O604 1.941 . S
C580 O581 1.258 . S
C580 O582 1.263 . S
O581 Co578 1.970 . S
O581 C580 1.258 . S
O582 Co579 1.966 . S
O582 C580 1.263 . S
C583 O584 1.235 . S
C583 O610 1.289 . S
O584 C583 1.235 . S
C585 C587 1.400 . S
C585 N588 1.351 . S
C585 C590 1.501 . S
C586 C587 1.387 . S
C586 N589 1.341 . S
C587 C585 1.400 . S
C587 C586 1.387 . S
N588 Co579 2.022 . S
N588 C585 1.351 . S
N588 N589 1.365 . S
N589 C586 1.341 . S
N589 N588 1.365 . S
N589 H609 0.862 . S
C590 C585 1.501 . S
C590 H591 0.961 . S
C590 H592 0.961 . S
C590 H593 0.960 . S
H591 C590 0.961 . S
H592 C590 0.961 . S
H593 C590 0.960 . S
C594 N595 1.342 . S
C594 C598 1.401 . S
C594 C599 1.499 . S
N595 Co578 1.989 . S
N595 C594 1.342 . S
N595 N596 1.388 . S
N596 Co579 1.993 . S
N596 N595 1.388 . S
N596 C597 1.346 . S
C597 N596 1.346 . S
C597 C598 1.396 . S
C597 C607 1.510 . S
C598 C594 1.401 . S
C598 C597 1.396 . S
C599 C594 1.499 . S
C599 H600 0.959 . S
C599 H601 0.960 . S
C599 H602 0.961 . S
H600 C599 0.959 . S
H601 C599 0.960 . S
H602 C599 0.961 . S
O603 Co578 1.967 . S
O603 C611 1.258 . S
O604 Co579 1.941 . S
O604 C611 1.266 . S
H605 C607 0.959 . S
H606 C607 0.961 . S
C607 C597 1.510 . S
C607 H605 0.959 . S
C607 H606 0.961 . S
C607 H608 0.960 . S
H608 C607 0.960 . S
H609 N589 0.862 . S
O610 Co578 1.920 . S
O610 C583 1.289 . S
C611 O603 1.258 . S
C611 O604 1.266 . S
Co612 O615 1.970 . S
Co612 N629 1.989 . S
Co612 O637 1.967 . S
Co612 O644 1.920 . S
Co613 O616 1.966 . S
Co613 N622 2.022 . S
Co613 N630 1.993 . S
Co613 O638 1.941 . S
C614 O615 1.258 . S
C614 O616 1.263 . S
O615 Co612 1.970 . S
O615 C614 1.258 . S
O616 Co613 1.966 . S
O616 C614 1.263 . S
C617 O618 1.235 . S
C617 O644 1.289 . S
O618 C617 1.235 . S
C619 C621 1.400 . S
C619 N622 1.351 . S
C619 C624 1.501 . S
C620 C621 1.387 . S
C620 N623 1.341 . S
C621 C619 1.400 . S
C621 C620 1.387 . S
N622 Co613 2.022 . S
N622 C619 1.351 . S
N622 N623 1.365 . S
N623 C620 1.341 . S
N623 N622 1.365 . S
N623 H643 0.862 . S
C624 C619 1.501 . S
C624 H625 0.961 . S
C624 H626 0.961 . S
C624 H627 0.960 . S
H625 C624 0.961 . S
H626 C624 0.961 . S
H627 C624 0.960 . S
C628 N629 1.342 . S
C628 C632 1.401 . S
C628 C633 1.499 . S
N629 Co612 1.989 . S
N629 C628 1.342 . S
N629 N630 1.388 . S
N630 Co613 1.993 . S
N630 N629 1.388 . S
N630 C631 1.346 . S
C631 N630 1.346 . S
C631 C632 1.396 . S
C631 C641 1.510 . S
C632 C628 1.401 . S
C632 C631 1.396 . S
C633 C628 1.499 . S
C633 H634 0.959 . S
C633 H635 0.960 . S
C633 H636 0.961 . S
H634 C633 0.959 . S
H635 C633 0.960 . S
H636 C633 0.961 . S
O637 Co612 1.967 . S
O637 C645 1.258 . S
O638 Co613 1.941 . S
O638 C645 1.266 . S
H639 C641 0.959 . S
H640 C641 0.961 . S
C641 C631 1.510 . S
C641 H639 0.959 . S
C641 H640 0.961 . S
C641 H642 0.960 . S
H642 C641 0.960 . S
H643 N623 0.862 . S
O644 Co612 1.920 . S
O644 C617 1.289 . S
C645 O637 1.258 . S
C645 O638 1.266 . S
Co646 O649 1.970 . S
Co646 N663 1.989 . S
Co646 O671 1.967 . S
Co646 O678 1.920 . S
Co647 O650 1.966 . S
Co647 N656 2.022 . S
Co647 N664 1.993 . S
Co647 O672 1.941 . S
C648 O649 1.258 . S
C648 O650 1.263 . S
O649 Co646 1.970 . S
O649 C648 1.258 . S
O650 Co647 1.966 . S
O650 C648 1.263 . S
C651 O652 1.235 . S
C651 O678 1.289 . S
O652 C651 1.235 . S
C653 C655 1.400 . S
C653 N656 1.351 . S
C653 C658 1.501 . S
C654 C655 1.387 . S
C654 N657 1.341 . S
C655 C653 1.400 . S
C655 C654 1.387 . S
N656 Co647 2.022 . S
N656 C653 1.351 . S
N656 N657 1.365 . S
N657 C654 1.341 . S
N657 N656 1.365 . S
N657 H677 0.862 . S
C658 C653 1.501 . S
C658 H659 0.961 . S
C658 H660 0.961 . S
C658 H661 0.960 . S
H659 C658 0.961 . S
H660 C658 0.961 . S
H661 C658 0.960 . S
C662 N663 1.342 . S
C662 C666 1.401 . S
C662 C667 1.499 . S
N663 Co646 1.989 . S
N663 C662 1.342 . S
N663 N664 1.388 . S
N664 Co647 1.993 . S
N664 N663 1.388 . S
N664 C665 1.346 . S
C665 N664 1.346 . S
C665 C666 1.396 . S
C665 C675 1.510 . S
C666 C662 1.401 . S
C666 C665 1.396 . S
C667 C662 1.499 . S
C667 H668 0.959 . S
C667 H669 0.960 . S
C667 H670 0.961 . S
H668 C667 0.959 . S
H669 C667 0.960 . S
H670 C667 0.961 . S
O671 Co646 1.967 . S
O671 C679 1.258 . S
O672 Co647 1.941 . S
O672 C679 1.266 . S
H673 C675 0.959 . S
H674 C675 0.961 . S
C675 C665 1.510 . S
C675 H673 0.959 . S
C675 H674 0.961 . S
C675 H676 0.960 . S
H676 C675 0.960 . S
H677 N657 0.862 . S
O678 Co646 1.920 . S
O678 C651 1.289 . S
C679 O671 1.258 . S
C679 O672 1.266 . S
Co680 O683 1.970 . S
Co680 N697 1.989 . S
Co680 O705 1.967 . S
Co680 O712 1.920 . S
Co681 O684 1.966 . S
Co681 N690 2.022 . S
Co681 N698 1.993 . S
Co681 O706 1.941 . S
C682 O683 1.258 . S
C682 O684 1.263 . S
O683 Co680 1.970 . S
O683 C682 1.258 . S
O684 Co681 1.966 . S
O684 C682 1.263 . S
C685 O686 1.235 . S
C685 O712 1.289 . S
O686 C685 1.235 . S
C687 C689 1.400 . S
C687 N690 1.351 . S
C687 C692 1.501 . S
C688 C689 1.387 . S
C688 N691 1.341 . S
C689 C687 1.400 . S
C689 C688 1.387 . S
N690 Co681 2.022 . S
N690 C687 1.351 . S
N690 N691 1.365 . S
N691 C688 1.341 . S
N691 N690 1.365 . S
N691 H711 0.862 . S
C692 C687 1.501 . S
C692 H693 0.961 . S
C692 H694 0.961 . S
C692 H695 0.960 . S
H693 C692 0.961 . S
H694 C692 0.961 . S
H695 C692 0.960 . S
C696 N697 1.342 . S
C696 C700 1.401 . S
C696 C701 1.499 . S
N697 Co680 1.989 . S
N697 C696 1.342 . S
N697 N698 1.388 . S
N698 Co681 1.993 . S
N698 N697 1.388 . S
N698 C699 1.346 . S
C699 N698 1.346 . S
C699 C700 1.396 . S
C699 C709 1.510 . S
C700 C696 1.401 . S
C700 C699 1.396 . S
C701 C696 1.499 . S
C701 H702 0.959 . S
C701 H703 0.960 . S
C701 H704 0.961 . S
H702 C701 0.959 . S
H703 C701 0.960 . S
H704 C701 0.961 . S
O705 Co680 1.967 . S
O705 C713 1.258 . S
O706 Co681 1.941 . S
O706 C713 1.266 . S
H707 C709 0.959 . S
H708 C709 0.961 . S
C709 C699 1.510 . S
C709 H707 0.959 . S
C709 H708 0.961 . S
C709 H710 0.960 . S
H710 C709 0.960 . S
H711 N691 0.862 . S
O712 Co680 1.920 . S
O712 C685 1.289 . S
C713 O705 1.258 . S
C713 O706 1.266 . S
Co714 O717 1.970 . S
Co714 N731 1.989 . S
Co714 O739 1.967 . S
Co714 O746 1.920 . S
Co715 O718 1.966 . S
Co715 N724 2.022 . S
Co715 N732 1.993 . S
Co715 O740 1.941 . S
C716 O717 1.258 . S
C716 O718 1.263 . S
O717 Co714 1.970 . S
O717 C716 1.258 . S
O718 Co715 1.966 . S
O718 C716 1.263 . S
C719 O720 1.235 . S
C719 O746 1.289 . S
O720 C719 1.235 . S
C721 C723 1.400 . S
C721 N724 1.351 . S
C721 C726 1.501 . S
C722 C723 1.387 . S
C722 N725 1.341 . S
C723 C721 1.400 . S
C723 C722 1.387 . S
N724 Co715 2.022 . S
N724 C721 1.351 . S
N724 N725 1.365 . S
N725 C722 1.341 . S
N725 N724 1.365 . S
N725 H745 0.862 . S
C726 C721 1.501 . S
C726 H727 0.961 . S
C726 H728 0.961 . S
C726 H729 0.960 . S
H727 C726 0.961 . S
H728 C726 0.961 . S
H729 C726 0.960 . S
C730 N731 1.342 . S
C730 C734 1.401 . S
C730 C735 1.499 . S
N731 Co714 1.989 . S
N731 C730 1.342 . S
N731 N732 1.388 . S
N732 Co715 1.993 . S
N732 N731 1.388 . S
N732 C733 1.346 . S
C733 N732 1.346 . S
C733 C734 1.396 . S
C733 C743 1.510 . S
C734 C730 1.401 . S
C734 C733 1.396 . S
C735 C730 1.499 . S
C735 H736 0.959 . S
C735 H737 0.960 . S
C735 H738 0.961 . S
H736 C735 0.959 . S
H737 C735 0.960 . S
H738 C735 0.961 . S
O739 Co714 1.967 . S
O739 C747 1.258 . S
O740 Co715 1.941 . S
O740 C747 1.266 . S
H741 C743 0.959 . S
H742 C743 0.961 . S
C743 C733 1.510 . S
C743 H741 0.959 . S
C743 H742 0.961 . S
C743 H744 0.960 . S
H744 C743 0.960 . S
H745 N725 0.862 . S
O746 Co714 1.920 . S
O746 C719 1.289 . S
C747 O739 1.258 . S
C747 O740 1.266 . S
Co748 O751 1.970 . S
Co748 N765 1.989 . S
Co748 O773 1.967 . S
Co748 O780 1.920 . S
Co749 O752 1.966 . S
Co749 N758 2.022 . S
Co749 N766 1.993 . S
Co749 O774 1.941 . S
C750 O751 1.258 . S
C750 O752 1.263 . S
O751 Co748 1.970 . S
O751 C750 1.258 . S
O752 Co749 1.966 . S
O752 C750 1.263 . S
C753 O754 1.235 . S
C753 O780 1.289 . S
O754 C753 1.235 . S
C755 C757 1.400 . S
C755 N758 1.351 . S
C755 C760 1.501 . S
C756 C757 1.387 . S
C756 N759 1.341 . S
C757 C755 1.400 . S
C757 C756 1.387 . S
N758 Co749 2.022 . S
N758 C755 1.351 . S
N758 N759 1.365 . S
N759 C756 1.341 . S
N759 N758 1.365 . S
N759 H779 0.862 . S
C760 C755 1.501 . S
C760 H761 0.961 . S
C760 H762 0.961 . S
C760 H763 0.960 . S
H761 C760 0.961 . S
H762 C760 0.961 . S
H763 C760 0.960 . S
C764 N765 1.342 . S
C764 C768 1.401 . S
C764 C769 1.499 . S
N765 Co748 1.989 . S
N765 C764 1.342 . S
N765 N766 1.388 . S
N766 Co749 1.993 . S
N766 N765 1.388 . S
N766 C767 1.346 . S
C767 N766 1.346 . S
C767 C768 1.396 . S
C767 C777 1.510 . S
C768 C764 1.401 . S
C768 C767 1.396 . S
C769 C764 1.499 . S
C769 H770 0.959 . S
C769 H771 0.960 . S
C769 H772 0.961 . S
H770 C769 0.959 . S
H771 C769 0.960 . S
H772 C769 0.961 . S
O773 Co748 1.967 . S
O773 C781 1.258 . S
O774 Co749 1.941 . S
O774 C781 1.266 . S
H775 C777 0.959 . S
H776 C777 0.961 . S
C777 C767 1.510 . S
C777 H775 0.959 . S
C777 H776 0.961 . S
C777 H778 0.960 . S
H778 C777 0.960 . S
H779 N759 0.862 . S
O780 Co748 1.920 . S
O780 C753 1.289 . S
C781 O773 1.258 . S
C781 O774 1.266 . S
Co782 O785 1.970 . S
Co782 N799 1.989 . S
Co782 O807 1.967 . S
Co782 O814 1.920 . S
Co783 O786 1.966 . S
Co783 N792 2.022 . S
Co783 N800 1.993 . S
Co783 O808 1.941 . S
C784 O785 1.258 . S
C784 O786 1.263 . S
O785 Co782 1.970 . S
O785 C784 1.258 . S
O786 Co783 1.966 . S
O786 C784 1.263 . S
C787 O788 1.235 . S
C787 O814 1.289 . S
O788 C787 1.235 . S
C789 C791 1.400 . S
C789 N792 1.351 . S
C789 C794 1.501 . S
C790 C791 1.387 . S
C790 N793 1.341 . S
C791 C789 1.400 . S
C791 C790 1.387 . S
N792 Co783 2.022 . S
N792 C789 1.351 . S
N792 N793 1.365 . S
N793 C790 1.341 . S
N793 N792 1.365 . S
N793 H813 0.862 . S
C794 C789 1.501 . S
C794 H795 0.961 . S
C794 H796 0.961 . S
C794 H797 0.960 . S
H795 C794 0.961 . S
H796 C794 0.961 . S
H797 C794 0.960 . S
C798 N799 1.342 . S
C798 C802 1.401 . S
C798 C803 1.499 . S
N799 Co782 1.989 . S
N799 C798 1.342 . S
N799 N800 1.388 . S
N800 Co783 1.993 . S
N800 N799 1.388 . S
N800 C801 1.346 . S
C801 N800 1.346 . S
C801 C802 1.396 . S
C801 C811 1.510 . S
C802 C798 1.401 . S
C802 C801 1.396 . S
C803 C798 1.499 . S
C803 H804 0.959 . S
C803 H805 0.960 . S
C803 H806 0.961 . S
H804 C803 0.959 . S
H805 C803 0.960 . S
H806 C803 0.961 . S
O807 Co782 1.967 . S
O807 C815 1.258 . S
O808 Co783 1.941 . S
O808 C815 1.266 . S
H809 C811 0.959 . S
H810 C811 0.961 . S
C811 C801 1.510 . S
C811 H809 0.959 . S
C811 H810 0.961 . S
C811 H812 0.960 . S
H812 C811 0.960 . S
H813 N793 0.862 . S
O814 Co782 1.920 . S
O814 C787 1.289 . S
C815 O807 1.258 . S
C815 O808 1.266 . S
Co816 O819 1.970 . S
Co816 N833 1.989 . S
Co816 O841 1.967 . S
Co816 O848 1.920 . S
Co817 O820 1.966 . S
Co817 N826 2.022 . S
Co817 N834 1.993 . S
Co817 O842 1.941 . S
C818 O819 1.258 . S
C818 O820 1.263 . S
O819 Co816 1.970 . S
O819 C818 1.258 . S
O820 Co817 1.966 . S
O820 C818 1.263 . S
C821 O822 1.235 . S
C821 O848 1.289 . S
O822 C821 1.235 . S
C823 C825 1.400 . S
C823 N826 1.351 . S
C823 C828 1.501 . S
C824 C825 1.387 . S
C824 N827 1.341 . S
C825 C823 1.400 . S
C825 C824 1.387 . S
N826 Co817 2.022 . S
N826 C823 1.351 . S
N826 N827 1.365 . S
N827 C824 1.341 . S
N827 N826 1.365 . S
N827 H847 0.862 . S
C828 C823 1.501 . S
C828 H829 0.961 . S
C828 H830 0.961 1_554 S
C828 H831 0.965 . S
H829 C828 0.961 . S
H830 C828 0.961 1_556 S
H831 C828 0.965 . S
C832 N833 1.342 . S
C832 C836 1.401 . S
C832 C837 1.499 . S
N833 Co816 1.989 . S
N833 C832 1.342 . S
N833 N834 1.388 . S
N834 Co817 1.993 . S
N834 N833 1.388 . S
N834 C835 1.346 . S
C835 N834 1.346 . S
C835 C836 1.396 . S
C835 C845 1.510 . S
C836 C832 1.401 . S
C836 C835 1.396 . S
C837 C832 1.499 . S
C837 H838 0.959 . S
C837 H839 0.960 . S
C837 H840 0.961 . S
H838 C837 0.959 . S
H839 C837 0.960 . S
H840 C837 0.961 . S
O841 Co816 1.967 . S
O841 C849 1.258 . S
O842 Co817 1.941 . S
O842 C849 1.266 . S
H843 C845 0.959 . S
H844 C845 0.961 . S
C845 C835 1.510 . S
C845 H843 0.959 . S
C845 H844 0.961 . S
C845 H846 0.960 . S
H846 C845 0.960 . S
H847 N827 0.862 . S
O848 Co816 1.920 . S
O848 C821 1.289 . S
C849 O841 1.258 . S
C849 O842 1.266 . S
Co850 O853 1.970 . S
Co850 N867 1.989 . S
Co850 O875 1.967 . S
Co850 O882 1.920 . S
Co851 O854 1.966 . S
Co851 N860 2.022 . S
Co851 N868 1.993 . S
Co851 O876 1.941 . S
C852 O853 1.258 . S
C852 O854 1.263 . S
O853 Co850 1.970 . S
O853 C852 1.258 . S
O854 Co851 1.966 . S
O854 C852 1.263 . S
C855 O856 1.235 . S
C855 O882 1.289 . S
O856 C855 1.235 . S
C857 C859 1.400 . S
C857 N860 1.351 . S
C857 C862 1.501 . S
C858 C859 1.387 . S
C858 N861 1.341 . S
C859 C857 1.400 . S
C859 C858 1.387 . S
N860 Co851 2.022 . S
N860 C857 1.351 . S
N860 N861 1.365 . S
N861 C858 1.341 . S
N861 N860 1.365 . S
N861 H881 0.862 . S
C862 C857 1.501 . S
C862 H863 0.961 . S
C862 H864 0.961 1_554 S
C862 H865 0.965 . S
H863 C862 0.961 . S
H864 C862 0.961 1_556 S
H865 C862 0.965 . S
C866 N867 1.342 . S
C866 C870 1.401 . S
C866 C871 1.499 . S
N867 Co850 1.989 . S
N867 C866 1.342 . S
N867 N868 1.388 . S
N868 Co851 1.993 . S
N868 N867 1.388 . S
N868 C869 1.346 . S
C869 N868 1.346 . S
C869 C870 1.396 . S
C869 C879 1.510 . S
C870 C866 1.401 . S
C870 C869 1.396 . S
C871 C866 1.499 . S
C871 H872 0.959 . S
C871 H873 0.960 . S
C871 H874 0.961 . S
H872 C871 0.959 . S
H873 C871 0.960 . S
H874 C871 0.961 . S
O875 Co850 1.967 . S
O875 C883 1.258 . S
O876 Co851 1.941 . S
O876 C883 1.266 . S
H877 C879 0.959 . S
H878 C879 0.961 . S
C879 C869 1.510 . S
C879 H877 0.959 . S
C879 H878 0.961 . S
C879 H880 0.960 . S
H880 C879 0.960 . S
H881 N861 0.862 . S
O882 Co850 1.920 . S
O882 C855 1.289 . S
C883 O875 1.258 . S
C883 O876 1.266 . S
Co884 O887 1.970 . S
Co884 N901 1.989 . S
Co884 O909 1.967 . S
Co884 O916 1.920 . S
Co885 O888 1.966 . S
Co885 N894 2.022 . S
Co885 N902 1.993 . S
Co885 O910 1.941 . S
C886 O887 1.258 . S
C886 O888 1.263 . S
O887 Co884 1.970 . S
O887 C886 1.258 . S
O888 Co885 1.966 . S
O888 C886 1.263 . S
C889 O890 1.235 . S
C889 O916 1.289 . S
O890 C889 1.235 . S
C891 C893 1.400 . S
C891 N894 1.351 . S
C891 C896 1.501 . S
C892 C893 1.387 . S
C892 N895 1.341 . S
C893 C891 1.400 . S
C893 C892 1.387 . S
N894 Co885 2.022 . S
N894 C891 1.351 . S
N894 N895 1.365 . S
N895 C892 1.341 . S
N895 N894 1.365 . S
N895 H915 0.862 . S
C896 C891 1.501 . S
C896 H897 0.961 . S
C896 H898 0.961 . S
C896 H899 0.960 . S
H897 C896 0.961 . S
H898 C896 0.961 . S
H899 C896 0.960 . S
C900 N901 1.342 . S
C900 C904 1.401 . S
C900 C905 1.499 . S
N901 Co884 1.989 . S
N901 C900 1.342 . S
N901 N902 1.388 . S
N902 Co885 1.993 . S
N902 N901 1.388 . S
N902 C903 1.346 . S
C903 N902 1.346 . S
C903 C904 1.396 . S
C903 C913 1.510 . S
C904 C900 1.401 . S
C904 C903 1.396 . S
C905 C900 1.499 . S
C905 H906 0.959 . S
C905 H907 0.960 . S
C905 H908 0.961 . S
H906 C905 0.959 . S
H907 C905 0.960 . S
H908 C905 0.961 . S
O909 Co884 1.967 . S
O909 C917 1.258 . S
O910 Co885 1.941 . S
O910 C917 1.266 . S
H911 C913 0.959 . S
H912 C913 0.961 . S
C913 C903 1.510 . S
C913 H911 0.959 . S
C913 H912 0.961 . S
C913 H914 0.960 . S
H914 C913 0.960 . S
H915 N895 0.862 . S
O916 Co884 1.920 . S
O916 C889 1.289 . S
C917 O909 1.258 . S
C917 O910 1.266 . S
Co918 O921 1.970 . S
Co918 N935 1.989 . S
Co918 O943 1.967 . S
Co918 O950 1.920 . S
Co919 O922 1.966 . S
Co919 N928 2.022 . S
Co919 N936 1.993 . S
Co919 O944 1.941 . S
C920 O921 1.258 . S
C920 O922 1.263 . S
O921 Co918 1.970 . S
O921 C920 1.258 . S
O922 Co919 1.966 . S
O922 C920 1.263 . S
C923 O924 1.235 . S
C923 O950 1.289 . S
O924 C923 1.235 . S
C925 C927 1.400 . S
C925 N928 1.351 . S
C925 C930 1.501 . S
C926 C927 1.387 . S
C926 N929 1.341 . S
C927 C925 1.400 . S
C927 C926 1.387 . S
N928 Co919 2.022 . S
N928 C925 1.351 . S
N928 N929 1.365 . S
N929 C926 1.341 . S
N929 N928 1.365 . S
N929 H949 0.862 . S
C930 C925 1.501 . S
C930 H931 0.961 . S
C930 H932 0.961 . S
C930 H933 0.960 . S
H931 C930 0.961 . S
H932 C930 0.961 . S
H933 C930 0.960 . S
C934 N935 1.342 . S
C934 C938 1.401 . S
C934 C939 1.499 . S
N935 Co918 1.989 . S
N935 C934 1.342 . S
N935 N936 1.388 . S
N936 Co919 1.993 . S
N936 N935 1.388 . S
N936 C937 1.346 . S
C937 N936 1.346 . S
C937 C938 1.396 . S
C937 C947 1.510 . S
C938 C934 1.401 . S
C938 C937 1.396 . S
C939 C934 1.499 . S
C939 H940 0.959 . S
C939 H941 0.960 . S
C939 H942 0.961 . S
H940 C939 0.959 . S
H941 C939 0.960 . S
H942 C939 0.961 . S
O943 Co918 1.967 . S
O943 C951 1.258 . S
O944 Co919 1.941 . S
O944 C951 1.266 . S
H945 C947 0.959 . S
H946 C947 0.961 . S
C947 C937 1.510 . S
C947 H945 0.959 . S
C947 H946 0.961 . S
C947 H948 0.960 . S
H948 C947 0.960 . S
H949 N929 0.862 . S
O950 Co918 1.920 . S
O950 C923 1.289 . S
C951 O943 1.258 . S
C951 O944 1.266 . S
Co952 O955 1.970 . S
Co952 N969 1.989 . S
Co952 O977 1.967 . S
Co952 O984 1.920 . S
Co953 O956 1.966 . S
Co953 N962 2.022 . S
Co953 N970 1.993 . S
Co953 O978 1.941 . S
C954 O955 1.258 . S
C954 O956 1.263 . S
O955 Co952 1.970 . S
O955 C954 1.258 . S
O956 Co953 1.966 . S
O956 C954 1.263 . S
C957 O958 1.235 . S
C957 O984 1.289 . S
O958 C957 1.235 . S
C959 C961 1.400 . S
C959 N962 1.351 . S
C959 C964 1.501 . S
C960 C961 1.387 . S
C960 N963 1.341 . S
C961 C959 1.400 . S
C961 C960 1.387 . S
N962 Co953 2.022 . S
N962 C959 1.351 . S
N962 N963 1.365 . S
N963 C960 1.341 . S
N963 N962 1.365 . S
N963 H983 0.862 . S
C964 C959 1.501 . S
C964 H965 0.961 . S
C964 H966 0.961 1_556 S
C964 H967 0.965 . S
H965 C964 0.961 . S
H966 C964 0.961 1_554 S
H967 C964 0.965 . S
C968 N969 1.342 . S
C968 C972 1.401 . S
C968 C973 1.499 . S
N969 Co952 1.989 . S
N969 C968 1.342 . S
N969 N970 1.388 . S
N970 Co953 1.993 . S
N970 N969 1.388 . S
N970 C971 1.346 . S
C971 N970 1.346 . S
C971 C972 1.396 . S
C971 C981 1.510 . S
C972 C968 1.401 . S
C972 C971 1.396 . S
C973 C968 1.499 . S
C973 H974 0.959 . S
C973 H975 0.960 . S
C973 H976 0.961 . S
H974 C973 0.959 . S
H975 C973 0.960 . S
H976 C973 0.961 . S
O977 Co952 1.967 . S
O977 C985 1.258 . S
O978 Co953 1.941 . S
O978 C985 1.266 . S
H979 C981 0.959 . S
H980 C981 0.961 . S
C981 C971 1.510 . S
C981 H979 0.959 . S
C981 H980 0.961 . S
C981 H982 0.960 . S
H982 C981 0.960 . S
H983 N963 0.862 . S
O984 Co952 1.920 . S
O984 C957 1.289 . S
C985 O977 1.258 . S
C985 O978 1.266 . S
Co986 O989 1.970 . S
Co986 N1003 1.989 . S
Co986 O1011 1.967 . S
Co986 O1018 1.920 . S
Co987 O990 1.966 . S
Co987 N996 2.022 . S
Co987 N1004 1.993 . S
Co987 O1012 1.941 . S
C988 O989 1.258 . S
C988 O990 1.263 . S
O989 Co986 1.970 . S
O989 C988 1.258 . S
O990 Co987 1.966 . S
O990 C988 1.263 . S
C991 O992 1.235 . S
C991 O1018 1.289 . S
O992 C991 1.235 . S
C993 C995 1.400 . S
C993 N996 1.351 . S
C993 C998 1.501 . S
C994 C995 1.387 . S
C994 N997 1.341 . S
C995 C993 1.400 . S
C995 C994 1.387 . S
N996 Co987 2.022 . S
N996 C993 1.351 . S
N996 N997 1.365 . S
N997 C994 1.341 . S
N997 N996 1.365 . S
N997 H1017 0.862 . S
C998 C993 1.501 . S
C998 H999 0.961 . S
C998 H1000 0.961 1_556 S
C998 H1001 0.965 . S
H999 C998 0.961 . S
H1000 C998 0.961 1_554 S
H1001 C998 0.965 . S
C1002 N1003 1.342 . S
C1002 C1006 1.401 . S
C1002 C1007 1.499 . S
N1003 Co986 1.989 . S
N1003 C1002 1.342 . S
N1003 N1004 1.388 . S
N1004 Co987 1.993 . S
N1004 N1003 1.388 . S
N1004 C1005 1.346 . S
C1005 N1004 1.346 . S
C1005 C1006 1.396 . S
C1005 C1015 1.510 . S
C1006 C1002 1.401 . S
C1006 C1005 1.396 . S
C1007 C1002 1.499 . S
C1007 H1008 0.959 . S
C1007 H1009 0.960 . S
C1007 H1010 0.961 . S
H1008 C1007 0.959 . S
H1009 C1007 0.960 . S
H1010 C1007 0.961 . S
O1011 Co986 1.967 . S
O1011 C1019 1.258 . S
O1012 Co987 1.941 . S
O1012 C1019 1.266 . S
H1013 C1015 0.959 . S
H1014 C1015 0.961 . S
C1015 C1005 1.510 . S
C1015 H1013 0.959 . S
C1015 H1014 0.961 . S
C1015 H1016 0.960 . S
H1016 C1015 0.960 . S
H1017 N997 0.862 . S
O1018 Co986 1.920 . S
O1018 C991 1.289 . S
C1019 O1011 1.258 . S
C1019 O1012 1.266 . S
Co1020 O1023 1.970 . S
Co1020 N1037 1.989 . S
Co1020 O1045 1.967 . S
Co1020 O1052 1.920 . S
Co1021 O1024 1.966 . S
Co1021 N1030 2.022 . S
Co1021 N1038 1.993 . S
Co1021 O1046 1.941 . S
C1022 O1023 1.258 . S
C1022 O1024 1.263 . S
O1023 Co1020 1.970 . S
O1023 C1022 1.258 . S
O1024 Co1021 1.966 . S
O1024 C1022 1.263 . S
C1025 O1026 1.235 . S
C1025 O1052 1.289 . S
O1026 C1025 1.235 . S
C1027 C1029 1.400 . S
C1027 N1030 1.351 . S
C1027 C1032 1.501 . S
C1028 C1029 1.387 . S
C1028 N1031 1.341 . S
C1029 C1027 1.400 . S
C1029 C1028 1.387 . S
N1030 Co1021 2.022 . S
N1030 C1027 1.351 . S
N1030 N1031 1.365 . S
N1031 C1028 1.341 . S
N1031 N1030 1.365 . S
N1031 H1051 0.862 . S
C1032 C1027 1.501 . S
C1032 H1033 0.961 . S
C1032 H1034 0.961 . S
C1032 H1035 0.960 . S
H1033 C1032 0.961 . S
H1034 C1032 0.961 . S
H1035 C1032 0.960 . S
C1036 N1037 1.342 . S
C1036 C1040 1.401 . S
C1036 C1041 1.499 . S
N1037 Co1020 1.989 . S
N1037 C1036 1.342 . S
N1037 N1038 1.388 . S
N1038 Co1021 1.993 . S
N1038 N1037 1.388 . S
N1038 C1039 1.346 . S
C1039 N1038 1.346 . S
C1039 C1040 1.396 . S
C1039 C1049 1.510 . S
C1040 C1036 1.401 . S
C1040 C1039 1.396 . S
C1041 C1036 1.499 . S
C1041 H1042 0.959 . S
C1041 H1043 0.960 . S
C1041 H1044 0.961 . S
H1042 C1041 0.959 . S
H1043 C1041 0.960 . S
H1044 C1041 0.961 . S
O1045 Co1020 1.967 . S
O1045 C1053 1.258 . S
O1046 Co1021 1.941 . S
O1046 C1053 1.266 . S
H1047 C1049 0.959 . S
H1048 C1049 0.961 . S
C1049 C1039 1.510 . S
C1049 H1047 0.959 . S
C1049 H1048 0.961 . S
C1049 H1050 0.960 . S
H1050 C1049 0.960 . S
H1051 N1031 0.862 . S
O1052 Co1020 1.920 . S
O1052 C1025 1.289 . S
C1053 O1045 1.258 . S
C1053 O1046 1.266 . S
Co1054 O1057 1.970 . S
Co1054 N1071 1.989 . S
Co1054 O1079 1.967 . S
Co1054 O1086 1.920 . S
Co1055 O1058 1.966 . S
Co1055 N1064 2.022 . S
Co1055 N1072 1.993 . S
Co1055 O1080 1.941 . S
C1056 O1057 1.258 . S
C1056 O1058 1.263 . S
O1057 Co1054 1.970 . S
O1057 C1056 1.258 . S
O1058 Co1055 1.966 . S
O1058 C1056 1.263 . S
C1059 O1060 1.235 . S
C1059 O1086 1.289 . S
O1060 C1059 1.235 . S
C1061 C1063 1.400 . S
C1061 N1064 1.351 . S
C1061 C1066 1.501 . S
C1062 C1063 1.387 . S
C1062 N1065 1.341 . S
C1063 C1061 1.400 . S
C1063 C1062 1.387 . S
N1064 Co1055 2.022 . S
N1064 C1061 1.351 . S
N1064 N1065 1.365 . S
N1065 C1062 1.341 . S
N1065 N1064 1.365 . S
N1065 H1085 0.862 . S
C1066 C1061 1.501 . S
C1066 H1067 0.961 . S
C1066 H1068 0.961 . S
C1066 H1069 0.960 . S
H1067 C1066 0.961 . S
H1068 C1066 0.961 . S
H1069 C1066 0.960 . S
C1070 N1071 1.342 . S
C1070 C1074 1.401 . S
C1070 C1075 1.499 . S
N1071 Co1054 1.989 . S
N1071 C1070 1.342 . S
N1071 N1072 1.388 . S
N1072 Co1055 1.993 . S
N1072 N1071 1.388 . S
N1072 C1073 1.346 . S
C1073 N1072 1.346 . S
C1073 C1074 1.396 . S
C1073 C1083 1.510 . S
C1074 C1070 1.401 . S
C1074 C1073 1.396 . S
C1075 C1070 1.499 . S
C1075 H1076 0.959 . S
C1075 H1077 0.960 . S
C1075 H1078 0.961 . S
H1076 C1075 0.959 . S
H1077 C1075 0.960 . S
H1078 C1075 0.961 . S
O1079 Co1054 1.967 . S
O1079 C1087 1.258 . S
O1080 Co1055 1.941 . S
O1080 C1087 1.266 . S
H1081 C1083 0.959 . S
H1082 C1083 0.961 . S
C1083 C1073 1.510 . S
C1083 H1081 0.959 . S
C1083 H1082 0.961 . S
C1083 H1084 0.960 . S
H1084 C1083 0.960 . S
H1085 N1065 0.862 . S
O1086 Co1054 1.920 . S
O1086 C1059 1.289 . S
C1087 O1079 1.258 . S
C1087 O1080 1.266 . S
H1088 C1096 0.932 1_565 S
H1089 C1101 0.950 . S
H1090 C1098 0.950 . S
H1091 C1100 0.991 . S
H1092 C1102 0.932 1_545 S
H1093 C1104 0.950 . S
H1094 C1106 0.991 . S
H1095 C1107 0.950 . S
C1096 H1088 0.932 1_545 S
C1096 C1097 1.386 . S
C1096 C1098 1.391 1_545 S
C1097 C1096 1.386 . S
C1097 C1101 1.393 . S
C1098 H1090 0.950 . S
C1098 C1096 1.391 1_565 S
C1098 C1099 1.400 1_565 S
C1099 C1098 1.400 1_545 S
C1099 C1100 1.385 1_554 S
C1099 C1105 1.491 1_544 S
C1100 H1091 0.991 . S
C1100 C1099 1.385 1_556 S
C1100 C1101 1.368 1_556 S
C1101 H1089 0.950 . S
C1101 C1097 1.393 . S
C1101 C1100 1.368 1_554 S
C1102 H1092 0.932 1_565 S
C1102 C1103 1.386 . S
C1102 C1104 1.391 1_565 S
C1103 C1102 1.386 . S
C1103 C1107 1.393 . S
C1104 H1093 0.950 . S
C1104 C1102 1.391 1_545 S
C1104 C1105 1.400 1_545 S
C1105 C1099 1.491 1_566 S
C1105 C1104 1.400 1_565 S
C1105 C1106 1.385 1_556 S
C1106 H1094 0.991 . S
C1106 C1105 1.385 1_554 S
C1106 C1107 1.368 1_554 S
C1107 H1095 0.950 . S
C1107 C1103 1.393 . S
C1107 C1106 1.368 1_556 S
H1108 C1116 0.950 . S
H1109 C1121 0.950 . S
H1110 C1118 0.950 . S
H1111 C1120 0.950 1_554 S
H1112 C1122 0.950 . S
H1113 C1124 0.950 . S
H1114 C1126 0.950 1_556 S
H1115 C1127 0.950 . S
C1116 H1108 0.950 . S
C1116 C1117 1.386 . S
C1116 C1118 1.391 . S
C1117 C1116 1.386 . S
C1117 C1121 1.393 . S
C1118 H1110 0.950 . S
C1118 C1116 1.391 . S
C1118 C1119 1.400 . S
C1119 C1118 1.400 . S
C1119 C1120 1.398 . S
C1119 C1125 1.491 1_556 S
C1120 H1111 0.950 1_556 S
C1120 C1119 1.398 . S
C1120 C1121 1.391 . S
C1121 H1109 0.950 . S
C1121 C1117 1.393 . S
C1121 C1120 1.391 . S
C1122 H1112 0.950 . S
C1122 C1123 1.386 . S
C1122 C1124 1.391 . S
C1123 C1122 1.386 . S
C1123 C1127 1.393 . S
C1124 H1113 0.950 . S
C1124 C1122 1.391 . S
C1124 C1125 1.400 . S
C1125 C1119 1.491 1_554 S
C1125 C1124 1.400 . S
C1125 C1126 1.398 . S
C1126 H1114 0.950 1_554 S
C1126 C1125 1.398 . S
C1126 C1127 1.391 . S
C1127 H1115 0.950 . S
C1127 C1123 1.393 . S
C1127 C1126 1.391 . S
H1128 C1136 0.950 . S
H1129 C1141 0.950 . S
H1130 C1138 0.950 . S
H1131 C1140 0.950 . S
H1132 C1142 0.950 . S
H1133 C1144 0.950 . S
H1134 C1146 0.950 . S
H1135 C1147 0.950 . S
C1136 H1128 0.950 . S
C1136 C1137 1.386 . S
C1136 C1138 1.391 . S
C1137 C1136 1.386 . S
C1137 C1141 1.393 . S
C1138 H1130 0.950 . S
C1138 C1136 1.391 . S
C1138 C1139 1.400 . S
C1139 C1138 1.400 . S
C1139 C1140 1.398 . S
C1139 C1145 1.491 . S
C1140 H1131 0.950 . S
C1140 C1139 1.398 . S
C1140 C1141 1.391 . S
C1141 H1129 0.950 . S
C1141 C1137 1.393 . S
C1141 C1140 1.391 . S
C1142 H1132 0.950 . S
C1142 C1143 1.386 . S
C1142 C1144 1.391 . S
C1143 C1142 1.386 . S
C1143 C1147 1.393 . S
C1144 H1133 0.950 . S
C1144 C1142 1.391 . S
C1144 C1145 1.400 . S
C1145 C1139 1.491 . S
C1145 C1144 1.400 . S
C1145 C1146 1.398 . S
C1146 H1134 0.950 . S
C1146 C1145 1.398 . S
C1146 C1147 1.391 . S
C1147 H1135 0.950 . S
C1147 C1143 1.393 . S
C1147 C1146 1.391 . S
H1148 C1156 0.950 . S
H1149 C1161 0.950 . S
H1150 C1158 0.950 . S
H1151 C1160 0.950 . S
H1152 C1162 0.950 . S
H1153 C1164 0.950 . S
H1154 C1166 0.950 . S
H1155 C1167 0.950 . S
C1156 H1148 0.950 . S
C1156 C1157 1.386 . S
C1156 C1158 1.391 . S
C1157 C1156 1.386 . S
C1157 C1161 1.393 . S
C1158 H1150 0.950 . S
C1158 C1156 1.391 . S
C1158 C1159 1.400 . S
C1159 C1158 1.400 . S
C1159 C1160 1.398 . S
C1159 C1165 1.491 1_545 S
C1160 H1151 0.950 . S
C1160 C1159 1.398 . S
C1160 C1161 1.391 . S
C1161 H1149 0.950 . S
C1161 C1157 1.393 . S
C1161 C1160 1.391 . S
C1162 H1152 0.950 . S
C1162 C1163 1.386 . S
C1162 C1164 1.391 . S
C1163 C1162 1.386 . S
C1163 C1167 1.393 . S
C1164 H1153 0.950 . S
C1164 C1162 1.391 . S
C1164 C1165 1.400 . S
C1165 C1159 1.491 1_565 S
C1165 C1164 1.400 . S
C1165 C1166 1.398 . S
C1166 H1154 0.950 . S
C1166 C1165 1.398 . S
C1166 C1167 1.391 . S
C1167 H1155 0.950 . S
C1167 C1163 1.393 . S
C1167 C1166 1.391 . S
H1168 C1176 0.950 . S
H1169 C1181 0.950 . S
H1170 C1178 0.950 . S
H1171 C1180 0.966 . S
H1172 C1182 0.950 . S
H1173 C1184 0.950 . S
H1174 C1186 0.966 . S
H1175 C1187 0.950 . S
C1176 H1168 0.950 . S
C1176 C1177 1.386 . S
C1176 C1178 1.391 . S
C1177 C1176 1.386 . S
C1177 C1181 1.393 . S
C1178 H1170 0.950 . S
C1178 C1176 1.391 . S
C1178 C1179 1.400 . S
C1179 C1178 1.400 . S
C1179 C1180 1.398 . S
C1179 C1185 1.491 1_554 S
C1180 H1171 0.966 . S
C1180 C1179 1.398 . S
C1180 C1181 1.391 . S
C1181 H1169 0.950 . S
C1181 C1177 1.393 . S
C1181 C1180 1.391 . S
C1182 H1172 0.950 . S
C1182 C1183 1.386 . S
C1182 C1184 1.391 . S
C1183 C1182 1.386 . S
C1183 C1187 1.393 . S
C1184 H1173 0.950 . S
C1184 C1182 1.391 . S
C1184 C1185 1.400 . S
C1185 C1179 1.491 1_556 S
C1185 C1184 1.400 . S
C1185 C1186 1.398 . S
C1186 H1174 0.966 . S
C1186 C1185 1.398 . S
C1186 C1187 1.391 . S
C1187 H1175 0.950 . S
C1187 C1183 1.393 . S
C1187 C1186 1.391 . S
H1188 C1196 0.950 . S
H1189 C1201 0.950 . S
H1190 C1198 0.950 . S
H1191 C1200 0.950 . S
H1192 C1202 0.950 . S
H1193 C1204 0.950 . S
H1194 C1206 0.950 . S
H1195 C1207 0.950 . S
C1196 H1188 0.950 . S
C1196 C1197 1.386 . S
C1196 C1198 1.391 . S
C1197 C1196 1.386 . S
C1197 C1201 1.393 . S
C1198 H1190 0.950 . S
C1198 C1196 1.391 . S
C1198 C1199 1.400 . S
C1199 C1198 1.400 . S
C1199 C1200 1.398 . S
C1199 C1205 1.491 . S
C1200 H1191 0.950 . S
C1200 C1199 1.398 . S
C1200 C1201 1.391 . S
C1201 H1189 0.950 . S
C1201 C1197 1.393 . S
C1201 C1200 1.391 . S
C1202 H1192 0.950 . S
C1202 C1203 1.386 . S
C1202 C1204 1.391 . S
C1203 C1202 1.386 . S
C1203 C1207 1.393 . S
C1204 H1193 0.950 . S
C1204 C1202 1.391 . S
C1204 C1205 1.400 . S
C1205 C1199 1.491 . S
C1205 C1204 1.400 . S
C1205 C1206 1.398 . S
C1206 H1194 0.950 . S
C1206 C1205 1.398 . S
C1206 C1207 1.391 . S
C1207 H1195 0.950 . S
C1207 C1203 1.393 . S
C1207 C1206 1.391 . S
H1208 C1216 0.950 . S
H1209 C1221 0.950 . S
H1210 C1218 0.950 . S
H1211 C1220 0.950 . S
H1212 C1222 0.950 . S
H1213 C1224 0.950 . S
H1214 C1226 0.950 . S
H1215 C1227 0.950 . S
C1216 H1208 0.950 . S
C1216 C1217 1.386 . S
C1216 C1218 1.391 1_545 S
C1217 C1216 1.386 . S
C1217 C1221 1.393 . S
C1218 H1210 0.950 . S
C1218 C1216 1.391 1_565 S
C1218 C1219 1.400 1_565 S
C1219 C1218 1.400 1_545 S
C1219 C1220 1.398 . S
C1219 C1225 1.491 1_545 S
C1220 H1211 0.950 . S
C1220 C1219 1.398 . S
C1220 C1221 1.391 . S
C1221 H1209 0.950 . S
C1221 C1217 1.393 . S
C1221 C1220 1.391 . S
C1222 H1212 0.950 . S
C1222 C1223 1.386 . S
C1222 C1224 1.391 1_565 S
C1223 C1222 1.386 . S
C1223 C1227 1.393 . S
C1224 H1213 0.950 . S
C1224 C1222 1.391 1_545 S
C1224 C1225 1.400 1_545 S
C1225 C1219 1.491 1_565 S
C1225 C1224 1.400 1_565 S
C1225 C1226 1.398 . S
C1226 H1214 0.950 . S
C1226 C1225 1.398 . S
C1226 C1227 1.391 . S
C1227 H1215 0.950 . S
C1227 C1223 1.393 . S
C1227 C1226 1.391 . S
H1228 C1236 0.950 . S
H1229 C1241 0.950 . S
H1230 C1238 0.950 . S
H1231 C1240 0.950 . S
H1232 C1242 0.950 . S
H1233 C1244 0.950 . S
H1234 C1246 0.950 . S
H1235 C1247 0.950 . S
C1236 H1228 0.950 . S
C1236 C1237 1.386 . S
C1236 C1238 1.391 . S
C1237 C1236 1.386 . S
C1237 C1241 1.393 . S
C1238 H1230 0.950 . S
C1238 C1236 1.391 . S
C1238 C1239 1.400 . S
C1239 C1238 1.400 . S
C1239 C1240 1.398 . S
C1239 C1245 1.491 . S
C1240 H1231 0.950 . S
C1240 C1239 1.398 . S
C1240 C1241 1.391 . S
C1241 H1229 0.950 . S
C1241 C1237 1.393 . S
C1241 C1240 1.391 . S
C1242 H1232 0.950 . S
C1242 C1243 1.386 . S
C1242 C1244 1.391 . S
C1243 C1242 1.386 . S
C1243 C1247 1.393 . S
C1244 H1233 0.950 . S
C1244 C1242 1.391 . S
C1244 C1245 1.400 . S
C1245 C1239 1.491 . S
C1245 C1244 1.400 . S
C1245 C1246 1.398 . S
C1246 H1234 0.950 . S
C1246 C1245 1.398 . S
C1246 C1247 1.391 . S
C1247 H1235 0.950 . S
C1247 C1243 1.393 . S
C1247 C1246 1.391 . S
H1248 C1256 0.950 . S
H1249 C1261 0.950 . S
H1250 C1258 0.950 . S
H1251 C1260 0.950 . S
H1252 C1262 0.950 . S
H1253 C1264 0.950 . S
H1254 C1266 0.950 . S
H1255 C1267 0.950 . S
C1256 H1248 0.950 . S
C1256 C1257 1.386 . S
C1256 C1258 1.391 . S
C1257 C1256 1.386 . S
C1257 C1261 1.393 . S
C1258 H1250 0.950 . S
C1258 C1256 1.391 . S
C1258 C1259 1.400 . S
C1259 C1258 1.400 . S
C1259 C1260 1.398 . S
C1259 C1265 1.491 . S
C1260 H1251 0.950 . S
C1260 C1259 1.398 . S
C1260 C1261 1.391 . S
C1261 H1249 0.950 . S
C1261 C1257 1.393 . S
C1261 C1260 1.391 . S
C1262 H1252 0.950 . S
C1262 C1263 1.386 . S
C1262 C1264 1.391 . S
C1263 C1262 1.386 . S
C1263 C1267 1.393 . S
C1264 H1253 0.950 . S
C1264 C1262 1.391 . S
C1264 C1265 1.400 . S
C1265 C1259 1.491 . S
C1265 C1264 1.400 . S
C1265 C1266 1.398 . S
C1266 H1254 0.950 . S
C1266 C1265 1.398 . S
C1266 C1267 1.391 . S
C1267 H1255 0.950 . S
C1267 C1263 1.393 . S
C1267 C1266 1.391 . S
H1268 C1276 0.950 . S
H1269 C1281 0.950 . S
H1270 C1278 0.950 . S
H1271 C1280 0.950 . S
H1272 C1282 0.950 . S
H1273 C1284 0.950 . S
H1274 C1286 0.950 . S
H1275 C1287 0.950 . S
C1276 H1268 0.950 . S
C1276 C1277 1.386 . S
C1276 C1278 1.391 . S
C1277 C1276 1.386 . S
C1277 C1281 1.393 . S
C1278 H1270 0.950 . S
C1278 C1276 1.391 . S
C1278 C1279 1.400 . S
C1279 C1278 1.400 . S
C1279 C1280 1.398 . S
C1279 C1285 1.491 . S
C1280 H1271 0.950 . S
C1280 C1279 1.398 . S
C1280 C1281 1.391 . S
C1281 H1269 0.950 . S
C1281 C1277 1.393 . S
C1281 C1280 1.391 . S
C1282 H1272 0.950 . S
C1282 C1283 1.386 . S
C1282 C1284 1.391 . S
C1283 C1282 1.386 . S
C1283 C1287 1.393 . S
C1284 H1273 0.950 . S
C1284 C1282 1.391 . S
C1284 C1285 1.400 . S
C1285 C1279 1.491 . S
C1285 C1284 1.400 . S
C1285 C1286 1.398 . S
C1286 H1274 0.950 . S
C1286 C1285 1.398 . S
C1286 C1287 1.391 . S
C1287 H1275 0.950 . S
C1287 C1283 1.393 . S
C1287 C1286 1.391 . S
H1288 C1296 0.950 . S
H1289 C1301 0.950 . S
H1290 C1298 0.950 . S
H1291 C1300 0.950 . S
H1292 C1302 0.950 . S
H1293 C1304 0.950 . S
H1294 C1306 0.950 . S
H1295 C1307 0.950 . S
C1296 H1288 0.950 . S
C1296 C1297 1.386 . S
C1296 C1298 1.391 . S
C1297 C1296 1.386 . S
C1297 C1301 1.393 . S
C1298 H1290 0.950 . S
C1298 C1296 1.391 . S
C1298 C1299 1.400 . S
C1299 C1298 1.400 . S
C1299 C1300 1.398 . S
C1299 C1305 1.491 . S
C1300 H1291 0.950 . S
C1300 C1299 1.398 . S
C1300 C1301 1.391 . S
C1301 H1289 0.950 . S
C1301 C1297 1.393 . S
C1301 C1300 1.391 . S
C1302 H1292 0.950 . S
C1302 C1303 1.386 . S
C1302 C1304 1.391 . S
C1303 C1302 1.386 . S
C1303 C1307 1.393 . S
C1304 H1293 0.950 . S
C1304 C1302 1.391 . S
C1304 C1305 1.400 . S
C1305 C1299 1.491 . S
C1305 C1304 1.400 . S
C1305 C1306 1.398 . S
C1306 H1294 0.950 . S
C1306 C1305 1.398 . S
C1306 C1307 1.391 . S
C1307 H1295 0.950 . S
C1307 C1303 1.393 . S
C1307 C1306 1.391 . S
H1308 C1316 0.950 . S
H1309 C1321 0.950 . S
H1310 C1318 0.950 . S
H1311 C1320 0.950 . S
H1312 C1322 0.950 . S
H1313 C1324 0.950 . S
H1314 C1326 0.950 . S
H1315 C1327 0.950 . S
C1316 H1308 0.950 . S
C1316 C1317 1.386 . S
C1316 C1318 1.391 . S
C1317 C1316 1.386 . S
C1317 C1321 1.393 . S
C1318 H1310 0.950 . S
C1318 C1316 1.391 . S
C1318 C1319 1.400 . S
C1319 C1318 1.400 . S
C1319 C1320 1.398 . S
C1319 C1325 1.491 . S
C1320 H1311 0.950 . S
C1320 C1319 1.398 . S
C1320 C1321 1.391 . S
C1321 H1309 0.950 . S
C1321 C1317 1.393 . S
C1321 C1320 1.391 . S
C1322 H1312 0.950 . S
C1322 C1323 1.386 . S
C1322 C1324 1.391 . S
C1323 C1322 1.386 . S
C1323 C1327 1.393 . S
C1324 H1313 0.950 . S
C1324 C1322 1.391 . S
C1324 C1325 1.400 . S
C1325 C1319 1.491 . S
C1325 C1324 1.400 . S
C1325 C1326 1.398 . S
C1326 H1314 0.950 . S
C1326 C1325 1.398 . S
C1326 C1327 1.391 . S
C1327 H1315 0.950 . S
C1327 C1323 1.393 . S
C1327 C1326 1.391 . S
H1328 C1336 0.950 . S
H1329 C1341 0.950 . S
H1330 C1338 0.950 . S
H1331 C1340 0.933 1_545 S
H1332 C1342 0.950 . S
H1333 C1344 0.950 . S
H1334 C1346 0.933 1_565 S
H1335 C1347 0.950 . S
C1336 H1328 0.950 . S
C1336 C1337 1.386 . S
C1336 C1338 1.391 . S
C1337 C1336 1.386 . S
C1337 C1341 1.393 . S
C1338 H1330 0.950 . S
C1338 C1336 1.391 . S
C1338 C1339 1.400 . S
C1339 C1338 1.400 . S
C1339 C1340 1.398 . S
C1339 C1345 1.491 1_465 S
C1340 H1331 0.933 1_565 S
C1340 C1339 1.398 . S
C1340 C1341 1.391 . S
C1341 H1329 0.950 . S
C1341 C1337 1.393 . S
C1341 C1340 1.391 . S
C1342 H1332 0.950 . S
C1342 C1343 1.386 . S
C1342 C1344 1.391 . S
C1343 C1342 1.386 . S
C1343 C1347 1.393 . S
C1344 H1333 0.950 . S
C1344 C1342 1.391 . S
C1344 C1345 1.400 . S
C1345 C1339 1.491 1_645 S
C1345 C1344 1.400 . S
C1345 C1346 1.398 . S
C1346 H1334 0.933 1_545 S
C1346 C1345 1.398 . S
C1346 C1347 1.391 . S
C1347 H1335 0.950 . S
C1347 C1343 1.393 . S
C1347 C1346 1.391 . S
H1348 C1356 0.950 . S
H1349 C1361 0.950 . S
H1350 C1358 0.950 . S
H1351 C1360 0.950 . S
H1352 C1362 0.950 . S
H1353 C1364 0.950 . S
H1354 C1366 0.950 . S
H1355 C1367 0.950 . S
C1356 H1348 0.950 . S
C1356 C1357 1.386 . S
C1356 C1358 1.391 . S
C1357 C1356 1.386 . S
C1357 C1361 1.393 . S
C1358 H1350 0.950 . S
C1358 C1356 1.391 . S
C1358 C1359 1.400 . S
C1359 C1358 1.400 . S
C1359 C1360 1.398 . S
C1359 C1365 1.491 1_455 S
C1360 H1351 0.950 . S
C1360 C1359 1.398 . S
C1360 C1361 1.391 . S
C1361 H1349 0.950 . S
C1361 C1357 1.393 . S
C1361 C1360 1.391 . S
C1362 H1352 0.950 . S
C1362 C1363 1.386 . S
C1362 C1364 1.391 . S
C1363 C1362 1.386 . S
C1363 C1367 1.393 . S
C1364 H1353 0.950 . S
C1364 C1362 1.391 . S
C1364 C1365 1.400 . S
C1365 C1359 1.491 1_655 S
C1365 C1364 1.400 . S
C1365 C1366 1.398 . S
C1366 H1354 0.950 . S
C1366 C1365 1.398 . S
C1366 C1367 1.391 . S
C1367 H1355 0.950 . S
C1367 C1363 1.393 . S
C1367 C1366 1.391 . S
H1368 C1376 0.950 . S
H1369 C1381 0.950 . S
H1370 C1378 0.950 . S
H1371 C1380 0.950 . S
H1372 C1382 0.950 . S
H1373 C1384 0.950 . S
H1374 C1386 0.950 . S
H1375 C1387 0.950 . S
C1376 H1368 0.950 . S
C1376 C1377 1.386 . S
C1376 C1378 1.391 . S
C1377 C1376 1.386 . S
C1377 C1381 1.393 . S
C1378 H1370 0.950 . S
C1378 C1376 1.391 . S
C1378 C1379 1.400 . S
C1379 C1378 1.400 . S
C1379 C1380 1.398 . S
C1379 C1385 1.491 1_455 S
C1380 H1371 0.950 . S
C1380 C1379 1.398 . S
C1380 C1381 1.391 . S
C1381 H1369 0.950 . S
C1381 C1377 1.393 . S
C1381 C1380 1.391 . S
C1382 H1372 0.950 . S
C1382 C1383 1.386 . S
C1382 C1384 1.391 . S
C1383 C1382 1.386 . S
C1383 C1387 1.393 . S
C1384 H1373 0.950 . S
C1384 C1382 1.391 . S
C1384 C1385 1.400 . S
C1385 C1379 1.491 1_655 S
C1385 C1384 1.400 . S
C1385 C1386 1.398 . S
C1386 H1374 0.950 . S
C1386 C1385 1.398 . S
C1386 C1387 1.391 . S
C1387 H1375 0.950 . S
C1387 C1383 1.393 . S
C1387 C1386 1.391 . S
H1388 C1396 0.950 . S
H1389 C1401 0.950 . S
H1390 C1398 0.935 1_554 S
H1391 C1400 0.950 . S
H1392 C1402 0.950 . S
H1393 C1404 0.935 1_556 S
H1394 C1406 0.950 . S
H1395 C1407 0.950 . S
C1396 H1388 0.950 . S
C1396 C1397 1.386 . S
C1396 C1398 1.402 . S
C1397 C1396 1.386 . S
C1397 C1401 1.393 . S
C1398 H1390 0.935 1_556 S
C1398 C1396 1.402 . S
C1398 C1399 1.405 . S
C1399 C1398 1.405 . S
C1399 C1400 1.398 . S
C1399 C1405 1.491 1_456 S
C1400 H1391 0.950 . S
C1400 C1399 1.398 . S
C1400 C1401 1.391 . S
C1401 H1389 0.950 . S
C1401 C1397 1.393 . S
C1401 C1400 1.391 . S
C1402 H1392 0.950 . S
C1402 C1403 1.386 . S
C1402 C1404 1.402 . S
C1403 C1402 1.386 . S
C1403 C1407 1.393 . S
C1404 H1393 0.935 1_554 S
C1404 C1402 1.402 . S
C1404 C1405 1.405 . S
C1405 C1399 1.491 1_654 S
C1405 C1404 1.405 . S
C1405 C1406 1.398 . S
C1406 H1394 0.950 . S
C1406 C1405 1.398 . S
C1406 C1407 1.391 . S
C1407 H1395 0.950 . S
C1407 C1403 1.393 . S
C1407 C1406 1.391 . S
H1408 C1416 0.950 . S
H1409 C1421 0.950 . S
H1410 C1418 0.950 . S
H1411 C1420 0.950 . S
H1412 C1422 0.950 . S
H1413 C1424 0.950 . S
H1414 C1426 0.950 . S
H1415 C1427 0.950 . S
C1416 H1408 0.950 . S
C1416 C1417 1.386 . S
C1416 C1418 1.391 . S
C1417 C1416 1.386 . S
C1417 C1421 1.393 . S
C1418 H1410 0.950 . S
C1418 C1416 1.391 . S
C1418 C1419 1.400 . S
C1419 C1418 1.400 . S
C1419 C1420 1.398 . S
C1419 C1425 1.491 . S
C1420 H1411 0.950 . S
C1420 C1419 1.398 . S
C1420 C1421 1.391 . S
C1421 H1409 0.950 . S
C1421 C1417 1.393 . S
C1421 C1420 1.391 . S
C1422 H1412 0.950 . S
C1422 C1423 1.386 . S
C1422 C1424 1.391 . S
C1423 C1422 1.386 . S
C1423 C1427 1.393 . S
C1424 H1413 0.950 . S
C1424 C1422 1.391 . S
C1424 C1425 1.400 . S
C1425 C1419 1.491 . S
C1425 C1424 1.400 . S
C1425 C1426 1.398 . S
C1426 H1414 0.950 . S
C1426 C1425 1.398 . S
C1426 C1427 1.391 . S
C1427 H1415 0.950 . S
C1427 C1423 1.393 . S
C1427 C1426 1.391 . S
H1428 C1436 0.950 1_455 S
H1429 C1441 0.950 . S
H1430 C1438 0.950 1_455 S
H1431 C1440 0.950 . S
H1432 C1442 0.950 . S
H1433 C1444 0.950 . S
H1434 C1446 0.950 1_455 S
H1435 C1447 0.950 1_455 S
C1436 H1428 0.950 1_655 S
C1436 C1437 1.386 . S
C1436 C1438 1.391 . S
C1437 C1436 1.386 . S
C1437 C1441 1.393 . S
C1438 H1430 0.950 1_655 S
C1438 C1436 1.391 . S
C1438 C1439 1.400 . S
C1439 C1438 1.400 . S
C1439 C1440 1.398 . S
C1439 C1445 1.491 . S
C1440 H1431 0.950 . S
C1440 C1439 1.398 . S
C1440 C1441 1.391 . S
C1441 H1429 0.950 . S
C1441 C1437 1.393 . S
C1441 C1440 1.391 . S
C1442 H1432 0.950 . S
C1442 C1443 1.386 . S
C1442 C1444 1.391 . S
C1443 C1442 1.386 . S
C1443 C1447 1.393 . S
C1444 H1433 0.950 . S
C1444 C1442 1.391 . S
C1444 C1445 1.400 . S
C1445 C1439 1.491 . S
C1445 C1444 1.400 . S
C1445 C1446 1.398 . S
C1446 H1434 0.950 1_655 S
C1446 C1445 1.398 . S
C1446 C1447 1.391 . S
C1447 H1435 0.950 1_655 S
C1447 C1443 1.393 . S
C1447 C1446 1.391 . S
H1448 C1456 0.950 . S
H1449 C1461 0.950 . S
H1450 C1458 0.950 . S
H1451 C1460 0.950 . S
H1452 C1462 0.950 . S
H1453 C1464 0.950 . S
H1454 C1466 0.950 . S
H1455 C1467 0.950 . S
C1456 H1448 0.950 . S
C1456 C1457 1.386 . S
C1456 C1458 1.391 . S
C1457 C1456 1.386 . S
C1457 C1461 1.393 . S
C1458 H1450 0.950 . S
C1458 C1456 1.391 . S
C1458 C1459 1.400 . S
C1459 C1458 1.400 . S
C1459 C1460 1.398 . S
C1459 C1465 1.491 . S
C1460 H1451 0.950 . S
C1460 C1459 1.398 . S
C1460 C1461 1.391 . S
C1461 H1449 0.950 . S
C1461 C1457 1.393 . S
C1461 C1460 1.391 . S
C1462 H1452 0.950 . S
C1462 C1463 1.386 . S
C1462 C1464 1.391 . S
C1463 C1462 1.386 . S
C1463 C1467 1.393 . S
C1464 H1453 0.950 . S
C1464 C1462 1.391 . S
C1464 C1465 1.400 . S
C1465 C1459 1.491 . S
C1465 C1464 1.400 . S
C1465 C1466 1.398 . S
C1466 H1454 0.950 . S
C1466 C1465 1.398 . S
C1466 C1467 1.391 . S
C1467 H1455 0.950 . S
C1467 C1463 1.393 . S
C1467 C1466 1.391 . S
H1468 C1476 0.950 1_655 S
H1469 C1481 0.950 . S
H1470 C1478 0.942 1_655 S
H1471 C1480 0.950 . S
H1472 C1482 0.950 . S
H1473 C1484 0.950 . S
H1474 C1486 0.950 . S
H1475 C1487 0.950 . S
C1476 H1468 0.950 1_455 S
C1476 C1477 1.386 . S
C1476 C1478 1.391 . S
C1477 C1476 1.386 . S
C1477 C1481 1.393 . S
C1478 H1470 0.942 1_455 S
C1478 C1476 1.391 . S
C1478 C1479 1.400 . S
C1479 C1478 1.400 . S
C1479 C1480 1.398 . S
C1479 C1485 1.491 . S
C1480 H1471 0.950 . S
C1480 C1479 1.398 . S
C1480 C1481 1.391 . S
C1481 H1469 0.950 . S
C1481 C1477 1.393 . S
C1481 C1480 1.391 . S
C1482 H1472 0.950 . S
C1482 C1483 1.386 . S
C1482 C1484 1.391 . S
C1483 C1482 1.386 . S
C1483 C1487 1.393 . S
C1484 H1473 0.950 . S
C1484 C1482 1.391 . S
C1484 C1485 1.400 . S
C1485 C1479 1.491 . S
C1485 C1484 1.400 . S
C1485 C1486 1.398 . S
C1486 H1474 0.950 . S
C1486 C1485 1.398 . S
C1486 C1487 1.391 . S
C1487 H1475 0.950 . S
C1487 C1483 1.393 . S
C1487 C1486 1.391 . S
H1488 C1496 0.950 . S
H1489 C1501 0.950 . S
H1490 C1498 0.950 . S
H1491 C1500 0.950 . S
H1492 C1502 0.950 . S
H1493 C1504 0.950 . S
H1494 C1506 0.950 . S
H1495 C1507 0.950 . S
C1496 H1488 0.950 . S
C1496 C1497 1.386 . S
C1496 C1498 1.391 . S
C1497 C1496 1.386 . S
C1497 C1501 1.393 . S
C1498 H1490 0.950 . S
C1498 C1496 1.391 . S
C1498 C1499 1.400 . S
C1499 C1498 1.400 . S
C1499 C1500 1.398 . S
C1499 C1505 1.491 . S
C1500 H1491 0.950 . S
C1500 C1499 1.398 . S
C1500 C1501 1.391 . S
C1501 H1489 0.950 . S
C1501 C1497 1.393 . S
C1501 C1500 1.391 . S
C1502 H1492 0.950 . S
C1502 C1503 1.386 . S
C1502 C1504 1.391 . S
C1503 C1502 1.386 . S
C1503 C1507 1.393 . S
C1504 H1493 0.950 . S
C1504 C1502 1.391 . S
C1504 C1505 1.400 . S
C1505 C1499 1.491 . S
C1505 C1504 1.400 . S
C1505 C1506 1.398 . S
C1506 H1494 0.950 . S
C1506 C1505 1.398 . S
C1506 C1507 1.391 . S
C1507 H1495 0.950 . S
C1507 C1503 1.393 . S
C1507 C1506 1.391 . S
H1508 C1516 0.950 . S
H1509 C1521 0.950 . S
H1510 C1518 0.950 . S
H1511 C1520 0.950 . S
H1512 C1522 0.950 . S
H1513 C1524 0.950 . S
H1514 C1526 0.950 . S
H1515 C1527 0.950 . S
C1516 H1508 0.950 . S
C1516 C1517 1.386 . S
C1516 C1518 1.391 . S
C1517 C1516 1.386 . S
C1517 C1521 1.393 . S
C1518 H1510 0.950 . S
C1518 C1516 1.391 . S
C1518 C1519 1.400 . S
C1519 C1518 1.400 . S
C1519 C1520 1.398 . S
C1519 C1525 1.491 . S
C1520 H1511 0.950 . S
C1520 C1519 1.398 . S
C1520 C1521 1.391 . S
C1521 H1509 0.950 . S
C1521 C1517 1.393 . S
C1521 C1520 1.391 . S
C1522 H1512 0.950 . S
C1522 C1523 1.386 . S
C1522 C1524 1.391 . S
C1523 C1522 1.386 . S
C1523 C1527 1.393 . S
C1524 H1513 0.950 . S
C1524 C1522 1.391 . S
C1524 C1525 1.400 . S
C1525 C1519 1.491 . S
C1525 C1524 1.400 . S
C1525 C1526 1.398 . S
C1526 H1514 0.950 . S
C1526 C1525 1.398 . S
C1526 C1527 1.391 . S
C1527 H1515 0.950 . S
C1527 C1523 1.393 . S
C1527 C1526 1.391 . S
H1528 C1536 0.950 . S
H1529 C1541 0.950 . S
H1530 C1538 0.950 . S
H1531 C1540 0.950 . S
H1532 C1542 0.950 . S
H1533 C1544 0.950 . S
H1534 C1546 0.950 . S
H1535 C1547 0.950 . S
C1536 H1528 0.950 . S
C1536 C1537 1.386 . S
C1536 C1538 1.391 . S
C1537 C1536 1.386 . S
C1537 C1541 1.393 . S
C1538 H1530 0.950 . S
C1538 C1536 1.391 . S
C1538 C1539 1.400 . S
C1539 C1538 1.400 . S
C1539 C1540 1.398 . S
C1539 C1545 1.491 . S
C1540 H1531 0.950 . S
C1540 C1539 1.398 . S
C1540 C1541 1.391 . S
C1541 H1529 0.950 . S
C1541 C1537 1.393 . S
C1541 C1540 1.391 . S
C1542 H1532 0.950 . S
C1542 C1543 1.386 . S
C1542 C1544 1.391 . S
C1543 C1542 1.386 . S
C1543 C1547 1.393 . S
C1544 H1533 0.950 . S
C1544 C1542 1.391 . S
C1544 C1545 1.400 . S
C1545 C1539 1.491 . S
C1545 C1544 1.400 . S
C1545 C1546 1.398 . S
C1546 H1534 0.950 . S
C1546 C1545 1.398 . S
C1546 C1547 1.391 . S
C1547 H1535 0.950 . S
C1547 C1543 1.393 . S
C1547 C1546 1.391 . S
H1548 C1556 0.950 . S
H1549 C1561 0.950 . S
H1550 C1558 0.950 . S
H1551 C1560 0.950 . S
H1552 C1562 0.950 . S
H1553 C1564 0.950 . S
H1554 C1566 0.950 . S
H1555 C1567 0.950 . S
C1556 H1548 0.950 . S
C1556 C1557 1.386 . S
C1556 C1558 1.391 . S
C1557 C1556 1.386 . S
C1557 C1561 1.393 . S
C1558 H1550 0.950 . S
C1558 C1556 1.391 . S
C1558 C1559 1.400 . S
C1559 C1558 1.400 . S
C1559 C1560 1.398 . S
C1559 C1565 1.491 . S
C1560 H1551 0.950 . S
C1560 C1559 1.398 . S
C1560 C1561 1.391 . S
C1561 H1549 0.950 . S
C1561 C1557 1.393 . S
C1561 C1560 1.391 . S
C1562 H1552 0.950 . S
C1562 C1563 1.386 . S
C1562 C1564 1.391 . S
C1563 C1562 1.386 . S
C1563 C1567 1.393 . S
C1564 H1553 0.950 . S
C1564 C1562 1.391 . S
C1564 C1565 1.400 . S
C1565 C1559 1.491 . S
C1565 C1564 1.400 . S
C1565 C1566 1.398 . S
C1566 H1554 0.950 . S
C1566 C1565 1.398 . S
C1566 C1567 1.391 . S
C1567 H1555 0.950 . S
C1567 C1563 1.393 . S
C1567 C1566 1.391 . S
H1568 C1576 0.950 . S
H1569 C1581 0.950 . S
H1570 C1578 0.950 . S
H1571 C1580 0.950 . S
H1572 C1582 0.950 . S
H1573 C1584 0.950 . S
H1574 C1586 0.950 . S
H1575 C1587 0.950 . S
C1576 H1568 0.950 . S
C1576 C1577 1.386 . S
C1576 C1578 1.391 . S
C1577 C1576 1.386 . S
C1577 C1581 1.393 . S
C1578 H1570 0.950 . S
C1578 C1576 1.391 . S
C1578 C1579 1.400 . S
C1579 C1578 1.400 . S
C1579 C1580 1.398 . S
C1579 C1585 1.491 . S
C1580 H1571 0.950 . S
C1580 C1579 1.398 . S
C1580 C1581 1.391 . S
C1581 H1569 0.950 . S
C1581 C1577 1.393 . S
C1581 C1580 1.391 . S
C1582 H1572 0.950 . S
C1582 C1583 1.386 . S
C1582 C1584 1.391 . S
C1583 C1582 1.386 . S
C1583 C1587 1.393 . S
C1584 H1573 0.950 . S
C1584 C1582 1.391 . S
C1584 C1585 1.400 . S
C1585 C1579 1.491 . S
C1585 C1584 1.400 . S
C1585 C1586 1.398 . S
C1586 H1574 0.950 . S
C1586 C1585 1.398 . S
C1586 C1587 1.391 . S
C1587 H1575 0.950 . S
C1587 C1583 1.393 . S
C1587 C1586 1.391 . S
H1588 C1596 0.950 . S
H1589 C1601 0.950 . S
H1590 C1598 0.950 . S
H1591 C1600 0.950 . S
H1592 C1602 0.950 . S
H1593 C1604 0.950 . S
H1594 C1606 0.950 . S
H1595 C1607 0.950 . S
C1596 H1588 0.950 . S
C1596 C1597 1.386 . S
C1596 C1598 1.391 . S
C1597 C1596 1.386 . S
C1597 C1601 1.393 . S
C1598 H1590 0.950 . S
C1598 C1596 1.391 . S
C1598 C1599 1.400 . S
C1599 C1598 1.400 . S
C1599 C1600 1.398 . S
C1599 C1605 1.491 . S
C1600 H1591 0.950 . S
C1600 C1599 1.398 . S
C1600 C1601 1.391 . S
C1601 H1589 0.950 . S
C1601 C1597 1.393 . S
C1601 C1600 1.391 . S
C1602 H1592 0.950 . S
C1602 C1603 1.386 . S
C1602 C1604 1.391 . S
C1603 C1602 1.386 . S
C1603 C1607 1.393 . S
C1604 H1593 0.950 . S
C1604 C1602 1.391 . S
C1604 C1605 1.400 . S
C1605 C1599 1.491 . S
C1605 C1604 1.400 . S
C1605 C1606 1.398 . S
C1606 H1594 0.950 . S
C1606 C1605 1.398 . S
C1606 C1607 1.391 . S
C1607 H1595 0.950 . S
C1607 C1603 1.393 . S
C1607 C1606 1.391 . S
H1608 C1616 0.950 . S
H1609 C1621 0.950 . S
H1610 C1618 0.950 . S
H1611 C1620 0.950 . S
H1612 C1622 0.950 . S
H1613 C1624 0.950 . S
H1614 C1626 0.950 . S
H1615 C1627 0.950 . S
C1616 H1608 0.950 . S
C1616 C1617 1.386 . S
C1616 C1618 1.391 . S
C1617 C1616 1.386 . S
C1617 C1621 1.393 . S
C1618 H1610 0.950 . S
C1618 C1616 1.391 . S
C1618 C1619 1.400 . S
C1619 C1618 1.400 . S
C1619 C1620 1.398 . S
C1619 C1625 1.491 . S
C1620 H1611 0.950 . S
C1620 C1619 1.398 . S
C1620 C1621 1.391 . S
C1621 H1609 0.950 . S
C1621 C1617 1.393 . S
C1621 C1620 1.391 . S
C1622 H1612 0.950 . S
C1622 C1623 1.386 . S
C1622 C1624 1.391 . S
C1623 C1622 1.386 . S
C1623 C1627 1.393 . S
C1624 H1613 0.950 . S
C1624 C1622 1.391 . S
C1624 C1625 1.400 . S
C1625 C1619 1.491 . S
C1625 C1624 1.400 . S
C1625 C1626 1.398 . S
C1626 H1614 0.950 . S
C1626 C1625 1.398 . S
C1626 C1627 1.391 . S
C1627 H1615 0.950 . S
C1627 C1623 1.393 . S
C1627 C1626 1.391 . S
H1628 C1636 0.950 . S
H1629 C1641 0.950 . S
H1630 C1638 0.950 . S
H1631 C1640 0.950 . S
H1632 C1642 0.950 . S
H1633 C1644 0.950 . S
H1634 C1646 0.950 . S
H1635 C1647 0.950 . S
C1636 H1628 0.950 . S
C1636 C1637 1.386 . S
C1636 C1638 1.391 . S
C1637 C1636 1.386 . S
C1637 C1641 1.393 . S
C1638 H1630 0.950 . S
C1638 C1636 1.391 . S
C1638 C1639 1.400 . S
C1639 C1638 1.400 . S
C1639 C1640 1.398 . S
C1639 C1645 1.491 . S
C1640 H1631 0.950 . S
C1640 C1639 1.398 . S
C1640 C1641 1.391 . S
C1641 H1629 0.950 . S
C1641 C1637 1.393 . S
C1641 C1640 1.391 . S
C1642 H1632 0.950 . S
C1642 C1643 1.386 . S
C1642 C1644 1.391 . S
C1643 C1642 1.386 . S
C1643 C1647 1.393 . S
C1644 H1633 0.950 . S
C1644 C1642 1.391 . S
C1644 C1645 1.400 . S
C1645 C1639 1.491 . S
C1645 C1644 1.400 . S
C1645 C1646 1.398 . S
C1646 H1634 0.950 . S
C1646 C1645 1.398 . S
C1646 C1647 1.391 . S
C1647 H1635 0.950 . S
C1647 C1643 1.393 . S
C1647 C1646 1.391 . S
H1648 C1656 0.950 . S
H1649 C1661 0.950 . S
H1650 C1658 0.950 . S
H1651 C1660 0.950 . S
H1652 C1662 0.950 . S
H1653 C1664 0.950 . S
H1654 C1666 0.950 . S
H1655 C1667 0.950 . S
C1656 H1648 0.950 . S
C1656 C1657 1.386 . S
C1656 C1658 1.391 . S
C1657 C1656 1.386 . S
C1657 C1661 1.393 . S
C1658 H1650 0.950 . S
C1658 C1656 1.391 . S
C1658 C1659 1.400 . S
C1659 C1658 1.400 . S
C1659 C1660 1.398 . S
C1659 C1665 1.491 . S
C1660 H1651 0.950 . S
C1660 C1659 1.398 . S
C1660 C1661 1.391 . S
C1661 H1649 0.950 . S
C1661 C1657 1.393 . S
C1661 C1660 1.391 . S
C1662 H1652 0.950 . S
C1662 C1663 1.386 . S
C1662 C1664 1.391 . S
C1663 C1662 1.386 . S
C1663 C1667 1.393 . S
C1664 H1653 0.950 . S
C1664 C1662 1.391 . S
C1664 C1665 1.400 . S
C1665 C1659 1.491 . S
C1665 C1664 1.400 . S
C1665 C1666 1.398 . S
C1666 H1654 0.950 . S
C1666 C1665 1.398 . S
C1666 C1667 1.391 . S
C1667 H1655 0.950 . S
C1667 C1663 1.393 . S
C1667 C1666 1.391 . S
H1668 C1676 0.950 . S
H1669 C1681 0.950 . S
H1670 C1678 0.950 . S
H1671 C1680 0.950 . S
H1672 C1682 0.950 . S
H1673 C1684 0.950 . S
H1674 C1686 0.950 . S
H1675 C1687 0.950 . S
C1676 H1668 0.950 . S
C1676 C1677 1.386 . S
C1676 C1678 1.391 . S
C1677 C1676 1.386 . S
C1677 C1681 1.393 . S
C1678 H1670 0.950 . S
C1678 C1676 1.391 . S
C1678 C1679 1.400 . S
C1679 C1678 1.400 . S
C1679 C1680 1.398 . S
C1679 C1685 1.491 . S
C1680 H1671 0.950 . S
C1680 C1679 1.398 . S
C1680 C1681 1.391 . S
C1681 H1669 0.950 . S
C1681 C1677 1.393 . S
C1681 C1680 1.391 . S
C1682 H1672 0.950 . S
C1682 C1683 1.386 . S
C1682 C1684 1.391 . S
C1683 C1682 1.386 . S
C1683 C1687 1.393 . S
C1684 H1673 0.950 . S
C1684 C1682 1.391 . S
C1684 C1685 1.400 . S
C1685 C1679 1.491 . S
C1685 C1684 1.400 . S
C1685 C1686 1.398 . S
C1686 H1674 0.950 . S
C1686 C1685 1.398 . S
C1686 C1687 1.391 . S
C1687 H1675 0.950 . S
C1687 C1683 1.393 . S
C1687 C1686 1.391 . S
H1688 C1696 0.950 . S
H1689 C1701 0.950 . S
H1690 C1698 0.950 . S
H1691 C1700 0.950 . S
H1692 C1702 0.950 . S
H1693 C1704 0.950 . S
H1694 C1706 0.950 . S
H1695 C1707 0.950 . S
C1696 H1688 0.950 . S
C1696 C1697 1.386 . S
C1696 C1698 1.391 . S
C1697 C1696 1.386 . S
C1697 C1701 1.393 . S
C1698 H1690 0.950 . S
C1698 C1696 1.391 . S
C1698 C1699 1.400 . S
C1699 C1698 1.400 . S
C1699 C1700 1.398 . S
C1699 C1705 1.491 . S
C1700 H1691 0.950 . S
C1700 C1699 1.398 . S
C1700 C1701 1.391 . S
C1701 H1689 0.950 . S
C1701 C1697 1.393 . S
C1701 C1700 1.391 . S
C1702 H1692 0.950 . S
C1702 C1703 1.386 . S
C1702 C1704 1.391 . S
C1703 C1702 1.386 . S
C1703 C1707 1.393 . S
C1704 H1693 0.950 . S
C1704 C1702 1.391 . S
C1704 C1705 1.400 . S
C1705 C1699 1.491 . S
C1705 C1704 1.400 . S
C1705 C1706 1.398 . S
C1706 H1694 0.950 . S
C1706 C1705 1.398 . S
C1706 C1707 1.391 . S
C1707 H1695 0.950 . S
C1707 C1703 1.393 . S
C1707 C1706 1.391 . S
H1708 C1716 0.950 . S
H1709 C1721 0.950 . S
H1710 C1718 0.950 . S
H1711 C1720 0.950 . S
H1712 C1722 0.950 . S
H1713 C1724 0.950 . S
H1714 C1726 0.950 . S
H1715 C1727 0.950 . S
C1716 H1708 0.950 . S
C1716 C1717 1.386 . S
C1716 C1718 1.391 . S
C1717 C1716 1.386 . S
C1717 C1721 1.393 . S
C1718 H1710 0.950 . S
C1718 C1716 1.391 . S
C1718 C1719 1.400 . S
C1719 C1718 1.400 . S
C1719 C1720 1.398 . S
C1719 C1725 1.491 . S
C1720 H1711 0.950 . S
C1720 C1719 1.398 . S
C1720 C1721 1.391 . S
C1721 H1709 0.950 . S
C1721 C1717 1.393 . S
C1721 C1720 1.391 . S
C1722 H1712 0.950 . S
C1722 C1723 1.386 . S
C1722 C1724 1.391 . S
C1723 C1722 1.386 . S
C1723 C1727 1.393 . S
C1724 H1713 0.950 . S
C1724 C1722 1.391 . S
C1724 C1725 1.400 . S
C1725 C1719 1.491 . S
C1725 C1724 1.400 . S
C1725 C1726 1.398 . S
C1726 H1714 0.950 . S
C1726 C1725 1.398 . S
C1726 C1727 1.391 . S
C1727 H1715 0.950 . S
C1727 C1723 1.393 . S
C1727 C1726 1.391 . S
H1728 C1736 0.950 . S
H1729 C1741 0.950 . S
H1730 C1738 0.950 . S
H1731 C1740 0.950 . S
H1732 C1742 0.950 . S
H1733 C1744 0.950 . S
H1734 C1746 0.950 . S
H1735 C1747 0.950 . S
C1736 H1728 0.950 . S
C1736 C1737 1.386 . S
C1736 C1738 1.391 . S
C1737 C1736 1.386 . S
C1737 C1741 1.393 . S
C1738 H1730 0.950 . S
C1738 C1736 1.391 . S
C1738 C1739 1.400 . S
C1739 C1738 1.400 . S
C1739 C1740 1.398 . S
C1739 C1745 1.491 . S
C1740 H1731 0.950 . S
C1740 C1739 1.398 . S
C1740 C1741 1.391 . S
C1741 H1729 0.950 . S
C1741 C1737 1.393 . S
C1741 C1740 1.391 . S
C1742 H1732 0.950 . S
C1742 C1743 1.386 . S
C1742 C1744 1.391 . S
C1743 C1742 1.386 . S
C1743 C1747 1.393 . S
C1744 H1733 0.950 . S
C1744 C1742 1.391 . S
C1744 C1745 1.400 . S
C1745 C1739 1.491 . S
C1745 C1744 1.400 . S
C1745 C1746 1.398 . S
C1746 H1734 0.950 . S
C1746 C1745 1.398 . S
C1746 C1747 1.391 . S
C1747 H1735 0.950 . S
C1747 C1743 1.393 . S
C1747 C1746 1.391 . S
H1748 C1756 0.950 . S
H1749 C1761 0.950 . S
H1750 C1758 0.950 . S
H1751 C1760 0.950 . S
H1752 C1762 0.950 . S
H1753 C1764 0.950 . S
H1754 C1766 0.950 . S
H1755 C1767 0.950 . S
C1756 H1748 0.950 . S
C1756 C1757 1.386 . S
C1756 C1758 1.391 . S
C1757 C1756 1.386 . S
C1757 C1761 1.393 . S
C1758 H1750 0.950 . S
C1758 C1756 1.391 . S
C1758 C1759 1.400 . S
C1759 C1758 1.400 . S
C1759 C1760 1.398 . S
C1759 C1765 1.491 . S
C1760 H1751 0.950 . S
C1760 C1759 1.398 . S
C1760 C1761 1.391 . S
C1761 H1749 0.950 . S
C1761 C1757 1.393 . S
C1761 C1760 1.391 . S
C1762 H1752 0.950 . S
C1762 C1763 1.386 . S
C1762 C1764 1.391 . S
C1763 C1762 1.386 . S
C1763 C1767 1.393 . S
C1764 H1753 0.950 . S
C1764 C1762 1.391 . S
C1764 C1765 1.400 . S
C1765 C1759 1.491 . S
C1765 C1764 1.400 . S
C1765 C1766 1.398 . S
C1766 H1754 0.950 . S
C1766 C1765 1.398 . S
C1766 C1767 1.391 . S
C1767 H1755 0.950 . S
C1767 C1763 1.393 . S
C1767 C1766 1.391 . S
H1768 C1776 0.950 . S
H1769 C1781 0.950 . S
H1770 C1778 0.950 . S
H1771 C1780 0.950 . S
H1772 C1782 0.950 . S
H1773 C1784 0.950 . S
H1774 C1786 0.950 . S
H1775 C1787 0.950 . S
C1776 H1768 0.950 . S
C1776 C1777 1.386 . S
C1776 C1778 1.391 . S
C1777 C1776 1.386 . S
C1777 C1781 1.393 . S
C1778 H1770 0.950 . S
C1778 C1776 1.391 . S
C1778 C1779 1.400 . S
C1779 C1778 1.400 . S
C1779 C1780 1.398 . S
C1779 C1785 1.491 . S
C1780 H1771 0.950 . S
C1780 C1779 1.398 . S
C1780 C1781 1.391 . S
C1781 H1769 0.950 . S
C1781 C1777 1.393 . S
C1781 C1780 1.391 . S
C1782 H1772 0.950 . S
C1782 C1783 1.386 . S
C1782 C1784 1.391 . S
C1783 C1782 1.386 . S
C1783 C1787 1.393 . S
C1784 H1773 0.950 . S
C1784 C1782 1.391 . S
C1784 C1785 1.400 . S
C1785 C1779 1.491 . S
C1785 C1784 1.400 . S
C1785 C1786 1.398 . S
C1786 H1774 0.950 . S
C1786 C1785 1.398 . S
C1786 C1787 1.391 . S
C1787 H1775 0.950 . S
C1787 C1783 1.393 . S
C1787 C1786 1.391 . S
H1788 C1796 0.950 . S
H1789 C1801 0.950 . S
H1790 C1798 0.950 . S
H1791 C1800 0.950 . S
H1792 C1802 0.950 . S
H1793 C1804 0.950 . S
H1794 C1806 0.950 . S
H1795 C1807 0.950 . S
C1796 H1788 0.950 . S
C1796 C1797 1.386 . S
C1796 C1798 1.391 . S
C1797 C1796 1.386 . S
C1797 C1801 1.393 . S
C1798 H1790 0.950 . S
C1798 C1796 1.391 . S
C1798 C1799 1.400 . S
C1799 C1798 1.400 . S
C1799 C1800 1.398 . S
C1799 C1805 1.491 . S
C1800 H1791 0.950 . S
C1800 C1799 1.398 . S
C1800 C1801 1.391 . S
C1801 H1789 0.950 . S
C1801 C1797 1.393 . S
C1801 C1800 1.391 . S
C1802 H1792 0.950 . S
C1802 C1803 1.386 . S
C1802 C1804 1.391 . S
C1803 C1802 1.386 . S
C1803 C1807 1.393 . S
C1804 H1793 0.950 . S
C1804 C1802 1.391 . S
C1804 C1805 1.400 . S
C1805 C1799 1.491 . S
C1805 C1804 1.400 . S
C1805 C1806 1.398 . S
C1806 H1794 0.950 . S
C1806 C1805 1.398 . S
C1806 C1807 1.391 . S
C1807 H1795 0.950 . S
C1807 C1803 1.393 . S
C1807 C1806 1.391 . S
H1808 C1816 0.950 . S
H1809 C1821 0.950 . S
H1810 C1818 0.950 . S
H1811 C1820 0.950 . S
H1812 C1822 0.950 . S
H1813 C1824 0.950 . S
H1814 C1826 0.950 . S
H1815 C1827 0.950 . S
C1816 H1808 0.950 . S
C1816 C1817 1.386 . S
C1816 C1818 1.391 . S
C1817 C1816 1.386 . S
C1817 C1821 1.393 . S
C1818 H1810 0.950 . S
C1818 C1816 1.391 . S
C1818 C1819 1.400 . S
C1819 C1818 1.400 . S
C1819 C1820 1.398 . S
C1819 C1825 1.491 . S
C1820 H1811 0.950 . S
C1820 C1819 1.398 . S
C1820 C1821 1.391 . S
C1821 H1809 0.950 . S
C1821 C1817 1.393 . S
C1821 C1820 1.391 . S
C1822 H1812 0.950 . S
C1822 C1823 1.386 . S
C1822 C1824 1.391 . S
C1823 C1822 1.386 . S
C1823 C1827 1.393 . S
C1824 H1813 0.950 . S
C1824 C1822 1.391 . S
C1824 C1825 1.400 . S
C1825 C1819 1.491 . S
C1825 C1824 1.400 . S
C1825 C1826 1.398 . S
C1826 H1814 0.950 . S
C1826 C1825 1.398 . S
C1826 C1827 1.391 . S
C1827 H1815 0.950 . S
C1827 C1823 1.393 . S
C1827 C1826 1.391 . S
H1828 C1836 0.950 . S
H1829 C1841 0.950 . S
H1830 C1838 0.950 . S
H1831 C1840 0.950 . S
H1832 C1842 0.950 . S
H1833 C1844 0.950 . S
H1834 C1846 0.950 . S
H1835 C1847 0.950 . S
C1836 H1828 0.950 . S
C1836 C1837 1.386 . S
C1836 C1838 1.391 . S
C1837 C1836 1.386 . S
C1837 C1841 1.393 . S
C1838 H1830 0.950 . S
C1838 C1836 1.391 . S
C1838 C1839 1.400 . S
C1839 C1838 1.400 . S
C1839 C1840 1.398 . S
C1839 C1845 1.491 . S
C1840 H1831 0.950 . S
C1840 C1839 1.398 . S
C1840 C1841 1.391 . S
C1841 H1829 0.950 . S
C1841 C1837 1.393 . S
C1841 C1840 1.391 . S
C1842 H1832 0.950 . S
C1842 C1843 1.386 . S
C1842 C1844 1.391 . S
C1843 C1842 1.386 . S
C1843 C1847 1.393 . S
C1844 H1833 0.950 . S
C1844 C1842 1.391 . S
C1844 C1845 1.400 . S
C1845 C1839 1.491 . S
C1845 C1844 1.400 . S
C1845 C1846 1.398 . S
C1846 H1834 0.950 . S
C1846 C1845 1.398 . S
C1846 C1847 1.391 . S
C1847 H1835 0.950 . S
C1847 C1843 1.393 . S
C1847 C1846 1.391 . S
H1848 C1856 0.950 . S
H1849 C1861 0.950 . S
H1850 C1858 0.950 . S
H1851 C1860 0.950 . S
H1852 C1862 0.950 . S
H1853 C1864 0.950 . S
H1854 C1866 0.950 . S
H1855 C1867 0.950 . S
C1856 H1848 0.950 . S
C1856 C1857 1.386 . S
C1856 C1858 1.391 . S
C1857 C1856 1.386 . S
C1857 C1861 1.393 . S
C1858 H1850 0.950 . S
C1858 C1856 1.391 . S
C1858 C1859 1.400 . S
C1859 C1858 1.400 . S
C1859 C1860 1.398 . S
C1859 C1865 1.491 . S
C1860 H1851 0.950 . S
C1860 C1859 1.398 . S
C1860 C1861 1.391 . S
C1861 H1849 0.950 . S
C1861 C1857 1.393 . S
C1861 C1860 1.391 . S
C1862 H1852 0.950 . S
C1862 C1863 1.386 . S
C1862 C1864 1.391 . S
C1863 C1862 1.386 . S
C1863 C1867 1.393 . S
C1864 H1853 0.950 . S
C1864 C1862 1.391 . S
C1864 C1865 1.400 . S
C1865 C1859 1.491 . S
C1865 C1864 1.400 . S
C1865 C1866 1.398 . S
C1866 H1854 0.950 . S
C1866 C1865 1.398 . S
C1866 C1867 1.391 . S
C1867 H1855 0.950 . S
C1867 C1863 1.393 . S
C1867 C1866 1.391 . S
H1868 C1876 0.950 . S
H1869 C1881 0.950 . S
H1870 C1878 0.950 . S
H1871 C1880 0.950 . S
H1872 C1882 0.950 . S
H1873 C1884 0.950 . S
H1874 C1886 0.950 . S
H1875 C1887 0.950 . S
C1876 H1868 0.950 . S
C1876 C1877 1.386 . S
C1876 C1878 1.391 . S
C1877 C1876 1.386 . S
C1877 C1881 1.393 . S
C1878 H1870 0.950 . S
C1878 C1876 1.391 . S
C1878 C1879 1.400 . S
C1879 C1878 1.400 . S
C1879 C1880 1.398 . S
C1879 C1885 1.491 . S
C1880 H1871 0.950 . S
C1880 C1879 1.398 . S
C1880 C1881 1.391 . S
C1881 H1869 0.950 . S
C1881 C1877 1.393 . S
C1881 C1880 1.391 . S
C1882 H1872 0.950 . S
C1882 C1883 1.386 . S
C1882 C1884 1.391 . S
C1883 C1882 1.386 . S
C1883 C1887 1.393 . S
C1884 H1873 0.950 . S
C1884 C1882 1.391 . S
C1884 C1885 1.400 . S
C1885 C1879 1.491 . S
C1885 C1884 1.400 . S
C1885 C1886 1.398 . S
C1886 H1874 0.950 . S
C1886 C1885 1.398 . S
C1886 C1887 1.391 . S
C1887 H1875 0.950 . S
C1887 C1883 1.393 . S
C1887 C1886 1.391 . S
H1888 C1896 0.950 . S
H1889 C1901 0.950 . S
H1890 C1898 0.950 . S
H1891 C1900 0.950 . S
H1892 C1902 0.945 1_655 S
H1893 C1904 0.950 . S
H1894 C1906 0.950 . S
H1895 C1907 0.950 . S
C1896 H1888 0.950 . S
C1896 C1897 1.386 . S
C1896 C1898 1.391 . S
C1897 C1896 1.386 . S
C1897 C1901 1.393 . S
C1898 H1890 0.950 . S
C1898 C1896 1.391 . S
C1898 C1899 1.400 . S
C1899 C1898 1.400 . S
C1899 C1900 1.398 . S
C1899 C1905 1.491 . S
C1900 H1891 0.950 . S
C1900 C1899 1.398 . S
C1900 C1901 1.391 . S
C1901 H1889 0.950 . S
C1901 C1897 1.393 . S
C1901 C1900 1.391 . S
C1902 H1892 0.945 1_455 S
C1902 C1903 1.382 1_455 S
C1902 C1904 1.391 . S
C1903 C1902 1.382 1_655 S
C1903 C1907 1.388 1_655 S
C1904 H1893 0.950 . S
C1904 C1902 1.391 . S
C1904 C1905 1.400 . S
C1905 C1899 1.491 . S
C1905 C1904 1.400 . S
C1905 C1906 1.398 . S
C1906 H1894 0.950 . S
C1906 C1905 1.398 . S
C1906 C1907 1.391 . S
C1907 H1895 0.950 . S
C1907 C1903 1.388 1_455 S
C1907 C1906 1.391 . S
H1908 C1916 0.950 . S
H1909 C1921 0.950 . S
H1910 C1918 0.950 . S
H1911 C1920 0.950 . S
H1912 C1922 0.950 . S
H1913 C1924 0.950 . S
H1914 C1926 0.950 . S
H1915 C1927 0.950 . S
C1916 H1908 0.950 . S
C1916 C1917 1.374 1_455 S
C1916 C1918 1.391 . S
C1917 C1916 1.374 1_655 S
C1917 C1921 1.384 1_655 S
C1918 H1910 0.950 . S
C1918 C1916 1.391 . S
C1918 C1919 1.400 . S
C1919 C1918 1.400 . S
C1919 C1920 1.398 . S
C1919 C1925 1.491 . S
C1920 H1911 0.950 . S
C1920 C1919 1.398 . S
C1920 C1921 1.391 . S
C1921 H1909 0.950 . S
C1921 C1917 1.384 1_455 S
C1921 C1920 1.391 . S
C1922 H1912 0.950 . S
C1922 C1923 1.386 . S
C1922 C1924 1.391 . S
C1923 C1922 1.386 . S
C1923 C1927 1.393 . S
C1924 H1913 0.950 . S
C1924 C1922 1.391 . S
C1924 C1925 1.400 . S
C1925 C1919 1.491 . S
C1925 C1924 1.400 . S
C1925 C1926 1.398 . S
C1926 H1914 0.950 . S
C1926 C1925 1.398 . S
C1926 C1927 1.391 . S
C1927 H1915 0.950 . S
C1927 C1923 1.393 . S
C1927 C1926 1.391 . S
H1928 C1936 0.950 . S
H1929 C1941 0.950 . S
H1930 C1938 0.950 . S
H1931 C1940 0.950 . S
H1932 C1942 0.939 1_455 S
H1933 C1944 0.950 . S
H1934 C1946 0.950 . S
H1935 C1947 0.950 . S
C1936 H1928 0.950 . S
C1936 C1937 1.386 . S
C1936 C1938 1.391 . S
C1937 C1936 1.386 . S
C1937 C1941 1.393 . S
C1938 H1930 0.950 . S
C1938 C1936 1.391 . S
C1938 C1939 1.400 . S
C1939 C1938 1.400 . S
C1939 C1940 1.398 . S
C1939 C1945 1.491 . S
C1940 H1931 0.950 . S
C1940 C1939 1.398 . S
C1940 C1941 1.391 . S
C1941 H1929 0.950 . S
C1941 C1937 1.393 . S
C1941 C1940 1.391 . S
C1942 H1932 0.939 1_655 S
C1942 C1943 1.382 1_655 S
C1942 C1944 1.391 . S
C1943 C1942 1.382 1_455 S
C1943 C1947 1.388 1_455 S
C1944 H1933 0.950 . S
C1944 C1942 1.391 . S
C1944 C1945 1.400 . S
C1945 C1939 1.491 . S
C1945 C1944 1.400 . S
C1945 C1946 1.398 . S
C1946 H1934 0.950 . S
C1946 C1945 1.398 . S
C1946 C1947 1.391 . S
C1947 H1935 0.950 . S
C1947 C1943 1.388 1_655 S
C1947 C1946 1.391 . S
H1948 C1956 0.950 . S
H1949 C1961 0.948 1_455 S
H1950 C1958 0.950 . S
H1951 C1960 0.950 . S
H1952 C1962 0.950 . S
H1953 C1964 0.950 . S
H1954 C1966 0.950 . S
H1955 C1967 0.950 . S
C1956 H1948 0.950 . S
C1956 C1957 1.380 1_655 S
C1956 C1958 1.391 . S
C1957 C1956 1.380 1_455 S
C1957 C1961 1.389 1_455 S
C1958 H1950 0.950 . S
C1958 C1956 1.391 . S
C1958 C1959 1.400 . S
C1959 C1958 1.400 . S
C1959 C1960 1.398 . S
C1959 C1965 1.491 . S
C1960 H1951 0.950 . S
C1960 C1959 1.398 . S
C1960 C1961 1.391 . S
C1961 H1949 0.948 1_655 S
C1961 C1957 1.389 1_655 S
C1961 C1960 1.391 . S
C1962 H1952 0.950 . S
C1962 C1963 1.386 . S
C1962 C1964 1.391 . S
C1963 C1962 1.386 . S
C1963 C1967 1.393 . S
C1964 H1953 0.950 . S
C1964 C1962 1.391 . S
C1964 C1965 1.400 . S
C1965 C1959 1.491 . S
C1965 C1964 1.400 . S
C1965 C1966 1.398 . S
C1966 H1954 0.950 . S
C1966 C1965 1.398 . S
C1966 C1967 1.391 . S
C1967 H1955 0.950 . S
C1967 C1963 1.393 . S
C1967 C1966 1.391 . S
H1968 C1976 0.950 . S
H1969 C1981 0.950 . S
H1970 C1978 0.950 . S
H1971 C1980 0.950 . S
H1972 C1982 0.950 . S
H1973 C1984 0.950 . S
H1974 C1986 0.950 . S
H1975 C1987 0.950 . S
C1976 H1968 0.950 . S
C1976 C1977 1.382 1_455 S
C1976 C1978 1.391 . S
C1977 C1976 1.382 1_655 S
C1977 C1981 1.389 1_655 S
C1978 H1970 0.950 . S
C1978 C1976 1.391 . S
C1978 C1979 1.400 . S
C1979 C1978 1.400 . S
C1979 C1980 1.398 . S
C1979 C1985 1.491 . S
C1980 H1971 0.950 . S
C1980 C1979 1.398 . S
C1980 C1981 1.391 . S
C1981 H1969 0.950 . S
C1981 C1977 1.389 1_455 S
C1981 C1980 1.391 . S
C1982 H1972 0.950 . S
C1982 C1983 1.386 . S
C1982 C1984 1.391 . S
C1983 C1982 1.386 . S
C1983 C1987 1.393 . S
C1984 H1973 0.950 . S
C1984 C1982 1.391 . S
C1984 C1985 1.400 . S
C1985 C1979 1.491 . S
C1985 C1984 1.400 . S
C1985 C1986 1.398 . S
C1986 H1974 0.950 . S
C1986 C1985 1.398 . S
C1986 C1987 1.391 . S
C1987 H1975 0.950 . S
C1987 C1983 1.393 . S
C1987 C1986 1.391 . S
H1988 C1996 0.950 . S
H1989 C2001 0.950 . S
H1990 C1998 0.950 . S
H1991 C2000 0.950 . S
H1992 C2002 0.950 1_655 S
H1993 C2004 0.950 . S
H1994 C2006 0.950 . S
H1995 C2007 0.950 . S
C1996 H1988 0.950 . S
C1996 C1997 1.386 . S
C1996 C1998 1.391 . S
C1997 C1996 1.386 . S
C1997 C2001 1.393 . S
C1998 H1990 0.950 . S
C1998 C1996 1.391 . S
C1998 C1999 1.400 . S
C1999 C1998 1.400 . S
C1999 C2000 1.398 . S
C1999 C2005 1.491 . S
C2000 H1991 0.950 . S
C2000 C1999 1.398 . S
C2000 C2001 1.391 . S
C2001 H1989 0.950 . S
C2001 C1997 1.393 . S
C2001 C2000 1.391 . S
C2002 H1992 0.950 1_455 S
C2002 C2003 1.382 1_455 S
C2002 C2004 1.391 . S
C2003 C2002 1.382 1_655 S
C2003 C2007 1.387 1_655 S
C2004 H1993 0.950 . S
C2004 C2002 1.391 . S
C2004 C2005 1.400 . S
C2005 C1999 1.491 . S
C2005 C2004 1.400 . S
C2005 C2006 1.398 . S
C2006 H1994 0.950 . S
C2006 C2005 1.398 . S
C2006 C2007 1.391 . S
C2007 H1995 0.950 . S
C2007 C2003 1.387 1_455 S
C2007 C2006 1.391 . S
H2008 C2016 0.950 1_455 S
H2009 C2021 0.950 . S
H2010 C2018 0.950 . S
H2011 C2020 0.950 . S
H2012 C2022 0.950 . S
H2013 C2024 0.950 . S
H2014 C2026 0.950 . S
H2015 C2027 0.950 . S
C2016 H2008 0.950 1_655 S
C2016 C2017 1.381 1_655 S
C2016 C2018 1.391 . S
C2017 C2016 1.381 1_455 S
C2017 C2021 1.385 1_455 S
C2018 H2010 0.950 . S
C2018 C2016 1.391 . S
C2018 C2019 1.400 . S
C2019 C2018 1.400 . S
C2019 C2020 1.398 . S
C2019 C2025 1.491 . S
C2020 H2011 0.950 . S
C2020 C2019 1.398 . S
C2020 C2021 1.391 . S
C2021 H2009 0.950 . S
C2021 C2017 1.385 1_655 S
C2021 C2020 1.391 . S
C2022 H2012 0.950 . S
C2022 C2023 1.386 . S
C2022 C2024 1.391 . S
C2023 C2022 1.386 . S
C2023 C2027 1.393 . S
C2024 H2013 0.950 . S
C2024 C2022 1.391 . S
C2024 C2025 1.400 . S
C2025 C2019 1.491 . S
C2025 C2024 1.400 . S
C2025 C2026 1.398 . S
C2026 H2014 0.950 . S
C2026 C2025 1.398 . S
C2026 C2027 1.391 . S
C2027 H2015 0.950 . S
C2027 C2023 1.393 . S
C2027 C2026 1.391 . S
H2028 C2036 0.950 . S
H2029 C2041 0.950 . S
H2030 C2038 0.950 . S
H2031 C2040 0.950 . S
H2032 C2042 0.950 . S
H2033 C2044 0.950 . S
H2034 C2046 0.950 . S
H2035 C2047 0.950 . S
C2036 H2028 0.950 . S
C2036 C2037 1.377 1_655 S
C2036 C2038 1.391 . S
C2037 C2036 1.377 1_455 S
C2037 C2041 1.382 1_455 S
C2038 H2030 0.950 . S
C2038 C2036 1.391 . S
C2038 C2039 1.400 . S
C2039 C2038 1.400 . S
C2039 C2040 1.398 . S
C2039 C2045 1.491 . S
C2040 H2031 0.950 . S
C2040 C2039 1.398 . S
C2040 C2041 1.391 . S
C2041 H2029 0.950 . S
C2041 C2037 1.382 1_655 S
C2041 C2040 1.391 . S
C2042 H2032 0.950 . S
C2042 C2043 1.386 . S
C2042 C2044 1.391 . S
C2043 C2042 1.386 . S
C2043 C2047 1.393 . S
C2044 H2033 0.950 . S
C2044 C2042 1.391 . S
C2044 C2045 1.400 . S
C2045 C2039 1.491 . S
C2045 C2044 1.400 . S
C2045 C2046 1.398 . S
C2046 H2034 0.950 . S
C2046 C2045 1.398 . S
C2046 C2047 1.391 . S
C2047 H2035 0.950 . S
C2047 C2043 1.393 . S
C2047 C2046 1.391 . S
H2048 C2056 0.950 . S
H2049 C2061 0.950 . S
H2050 C2058 0.950 . S
H2051 C2060 0.921 1_564 S
H2052 C2062 0.950 . S
H2053 C2064 0.950 . S
H2054 C2066 0.950 . S
H2055 C2067 0.950 1_655 S
C2056 H2048 0.950 . S
C2056 C2057 1.388 1_556 S
C2056 C2058 1.391 . S
C2057 C2056 1.388 1_554 S
C2057 C2061 1.392 . S
C2058 H2050 0.950 . S
C2058 C2056 1.391 . S
C2058 C2059 1.400 1_545 S
C2059 C2058 1.400 1_565 S
C2059 C2060 1.393 1_565 S
C2059 C2065 1.491 . S
C2060 H2051 0.921 1_546 S
C2060 C2059 1.393 1_545 S
C2060 C2061 1.426 1_556 S
C2061 H2049 0.950 . S
C2061 C2057 1.392 . S
C2061 C2060 1.426 1_554 S
C2062 H2052 0.950 . S
C2062 C2063 1.386 . S
C2062 C2064 1.391 . S
C2063 C2062 1.386 . S
C2063 C2067 1.393 . S
C2064 H2053 0.950 . S
C2064 C2062 1.391 . S
C2064 C2065 1.400 . S
C2065 C2059 1.491 . S
C2065 C2064 1.400 . S
C2065 C2066 1.398 . S
C2066 H2054 0.950 . S
C2066 C2065 1.398 . S
C2066 C2067 1.391 . S
C2067 H2055 0.950 1_455 S
C2067 C2063 1.393 . S
C2067 C2066 1.391 . S
H2068 C2076 0.950 . S
H2069 C2081 0.950 . S
H2070 C2078 0.950 . S
H2071 C2080 0.950 . S
H2072 C2082 0.950 . S
H2073 C2084 0.950 . S
H2074 C2086 0.950 . S
H2075 C2087 0.942 1_554 S
C2076 H2068 0.950 . S
C2076 C2077 1.386 . S
C2076 C2078 1.391 . S
C2077 C2076 1.386 . S
C2077 C2081 1.393 . S
C2078 H2070 0.950 . S
C2078 C2076 1.391 . S
C2078 C2079 1.400 . S
C2079 C2078 1.400 . S
C2079 C2080 1.398 . S
C2079 C2085 1.491 . S
C2080 H2071 0.950 . S
C2080 C2079 1.398 . S
C2080 C2081 1.391 . S
C2081 H2069 0.950 . S
C2081 C2077 1.393 . S
C2081 C2080 1.391 . S
C2082 H2072 0.950 . S
C2082 C2083 1.385 . S
C2082 C2084 1.391 . S
C2083 C2082 1.385 . S
C2083 C2087 1.391 . S
C2084 H2073 0.950 . S
C2084 C2082 1.391 . S
C2084 C2085 1.400 . S
C2085 C2079 1.491 . S
C2085 C2084 1.400 . S
C2085 C2086 1.398 . S
C2086 H2074 0.950 . S
C2086 C2085 1.398 . S
C2086 C2087 1.404 . S
C2087 H2075 0.942 1_556 S
C2087 C2083 1.391 . S
C2087 C2086 1.404 . S
H2088 C2096 0.950 . S
H2089 C2101 0.950 . S
H2090 C2098 0.950 . S
H2091 C2100 0.950 . S
H2092 C2102 0.950 . S
H2093 C2104 0.950 . S
H2094 C2106 0.950 . S
H2095 C2107 0.950 . S
C2096 H2088 0.950 . S
C2096 C2097 1.386 . S
C2096 C2098 1.391 . S
C2097 C2096 1.386 . S
C2097 C2101 1.393 . S
C2098 H2090 0.950 . S
C2098 C2096 1.391 . S
C2098 C2099 1.400 . S
C2099 C2098 1.400 . S
C2099 C2100 1.398 . S
C2099 C2105 1.491 . S
C2100 H2091 0.950 . S
C2100 C2099 1.398 . S
C2100 C2101 1.391 . S
C2101 H2089 0.950 . S
C2101 C2097 1.393 . S
C2101 C2100 1.391 . S
C2102 H2092 0.950 . S
C2102 C2103 1.386 . S
C2102 C2104 1.391 . S
C2103 C2102 1.386 . S
C2103 C2107 1.393 . S
C2104 H2093 0.950 . S
C2104 C2102 1.391 . S
C2104 C2105 1.400 . S
C2105 C2099 1.491 . S
C2105 C2104 1.400 . S
C2105 C2106 1.398 . S
C2106 H2094 0.950 . S
C2106 C2105 1.398 . S
C2106 C2107 1.391 . S
C2107 H2095 0.950 . S
C2107 C2103 1.393 . S
C2107 C2106 1.391 . S
H2108 C2116 0.950 . S
H2109 C2121 0.950 . S
H2110 C2118 0.950 . S
H2111 C2120 0.950 1_565 S
H2112 C2122 0.950 . S
H2113 C2124 0.950 . S
H2114 C2126 0.950 . S
H2115 C2127 0.950 . S
C2116 H2108 0.950 . S
C2116 C2117 1.386 . S
C2116 C2118 1.391 . S
C2117 C2116 1.386 . S
C2117 C2121 1.393 . S
C2118 H2110 0.950 . S
C2118 C2116 1.391 . S
C2118 C2119 1.400 1_545 S
C2119 C2118 1.400 1_565 S
C2119 C2120 1.398 1_565 S
C2119 C2125 1.491 . S
C2120 H2111 0.950 1_545 S
C2120 C2119 1.398 1_545 S
C2120 C2121 1.391 . S
C2121 H2109 0.950 . S
C2121 C2117 1.393 . S
C2121 C2120 1.391 . S
C2122 H2112 0.950 . S
C2122 C2123 1.386 . S
C2122 C2124 1.391 . S
C2123 C2122 1.386 . S
C2123 C2127 1.393 . S
C2124 H2113 0.950 . S
C2124 C2122 1.391 . S
C2124 C2125 1.400 . S
C2125 C2119 1.491 . S
C2125 C2124 1.400 . S
C2125 C2126 1.398 . S
C2126 H2114 0.950 . S
C2126 C2125 1.398 . S
C2126 C2127 1.391 . S
C2127 H2115 0.950 . S
C2127 C2123 1.393 . S
C2127 C2126 1.391 . S
H2128 C2136 0.950 1_455 S
H2129 C2141 0.950 . S
H2130 C2138 0.950 . S
H2131 C2140 0.950 . S
H2132 C2142 0.948 . S
H2133 C2144 0.950 1_545 S
H2134 C2146 0.950 . S
H2135 C2147 0.954 . S
C2136 H2128 0.950 1_655 S
C2136 C2137 1.386 . S
C2136 C2138 1.391 . S
C2137 C2136 1.386 . S
C2137 C2141 1.393 . S
C2138 H2130 0.950 . S
C2138 C2136 1.391 . S
C2138 C2139 1.400 . S
C2139 C2138 1.400 . S
C2139 C2140 1.398 . S
C2139 C2145 1.491 . S
C2140 H2131 0.950 . S
C2140 C2139 1.398 . S
C2140 C2141 1.391 . S
C2141 H2129 0.950 . S
C2141 C2137 1.393 . S
C2141 C2140 1.391 . S
C2142 H2132 0.948 . S
C2142 C2143 1.379 1_554 S
C2142 C2144 1.405 . S
C2143 C2142 1.379 1_556 S
C2143 C2147 1.394 . S
C2144 H2133 0.950 1_565 S
C2144 C2142 1.405 . S
C2144 C2145 1.400 1_565 S
C2145 C2139 1.491 . S
C2145 C2144 1.400 1_545 S
C2145 C2146 1.398 1_545 S
C2146 H2134 0.950 . S
C2146 C2145 1.398 1_565 S
C2146 C2147 1.386 1_554 S
C2147 H2135 0.954 . S
C2147 C2143 1.394 . S
C2147 C2146 1.386 1_556 S
H2148 C2156 0.950 . S
H2149 C2161 0.950 . S
H2150 C2158 0.950 . S
H2151 C2160 0.950 . S
H2152 C2162 0.950 . S
H2153 C2164 0.950 . S
H2154 C2166 0.950 . S
H2155 C2167 0.950 . S
C2156 H2148 0.950 . S
C2156 C2157 1.357 1_554 S
C2156 C2158 1.391 . S
C2157 C2156 1.357 1_556 S
C2157 C2161 1.417 . S
C2158 H2150 0.950 . S
C2158 C2156 1.391 . S
C2158 C2159 1.400 . S
C2159 C2158 1.400 . S
C2159 C2160 1.398 1_554 S
C2159 C2165 1.491 . S
C2160 H2151 0.950 . S
C2160 C2159 1.398 1_556 S
C2160 C2161 1.391 . S
C2161 H2149 0.950 . S
C2161 C2157 1.417 . S
C2161 C2160 1.391 . S
C2162 H2152 0.950 . S
C2162 C2163 1.386 1_556 S
C2162 C2164 1.391 . S
C2163 C2162 1.386 1_554 S
C2163 C2167 1.393 . S
C2164 H2153 0.950 . S
C2164 C2162 1.391 . S
C2164 C2165 1.400 1_556 S
C2165 C2159 1.491 . S
C2165 C2164 1.400 1_554 S
C2165 C2166 1.398 . S
C2166 H2154 0.950 . S
C2166 C2165 1.398 . S
C2166 C2167 1.391 . S
C2167 H2155 0.950 . S
C2167 C2163 1.393 . S
C2167 C2166 1.391 . S
H2168 C2176 0.950 . S
H2169 C2181 0.950 . S
H2170 C2178 0.950 . S
H2171 C2180 0.950 . S
H2172 C2182 0.950 . S
H2173 C2184 0.950 . S
H2174 C2186 0.950 . S
H2175 C2187 0.950 1_455 S
C2176 H2168 0.950 . S
C2176 C2177 1.386 . S
C2176 C2178 1.391 . S
C2177 C2176 1.386 . S
C2177 C2181 1.393 . S
C2178 H2170 0.950 . S
C2178 C2176 1.391 . S
C2178 C2179 1.400 . S
C2179 C2178 1.400 . S
C2179 C2180 1.398 . S
C2179 C2185 1.491 . S
C2180 H2171 0.950 . S
C2180 C2179 1.398 . S
C2180 C2181 1.391 . S
C2181 H2169 0.950 . S
C2181 C2177 1.393 . S
C2181 C2180 1.391 . S
C2182 H2172 0.950 . S
C2182 C2183 1.386 . S
C2182 C2184 1.391 . S
C2183 C2182 1.386 . S
C2183 C2187 1.393 . S
C2184 H2173 0.950 . S
C2184 C2182 1.391 . S
C2184 C2185 1.400 . S
C2185 C2179 1.491 . S
C2185 C2184 1.400 . S
C2185 C2186 1.398 . S
C2186 H2174 0.950 . S
C2186 C2185 1.398 . S
C2186 C2187 1.391 . S
C2187 H2175 0.950 1_655 S
C2187 C2183 1.393 . S
C2187 C2186 1.391 . S
H2188 C2196 0.950 . S
H2189 C2201 0.950 . S
H2190 C2198 0.950 . S
H2191 C2200 0.950 . S
H2192 C2202 0.950 . S
H2193 C2204 0.950 . S
H2194 C2206 0.921 1_545 S
H2195 C2207 0.950 . S
C2196 H2188 0.950 . S
C2196 C2197 1.386 . S
C2196 C2198 1.391 . S
C2197 C2196 1.386 . S
C2197 C2201 1.393 . S
C2198 H2190 0.950 . S
C2198 C2196 1.391 . S
C2198 C2199 1.400 . S
C2199 C2198 1.400 . S
C2199 C2200 1.398 . S
C2199 C2205 1.491 . S
C2200 H2191 0.950 . S
C2200 C2199 1.398 . S
C2200 C2201 1.391 . S
C2201 H2189 0.950 . S
C2201 C2197 1.393 . S
C2201 C2200 1.391 . S
C2202 H2192 0.950 . S
C2202 C2203 1.386 . S
C2202 C2204 1.391 . S
C2203 C2202 1.386 . S
C2203 C2207 1.393 . S
C2204 H2193 0.950 . S
C2204 C2202 1.391 . S
C2204 C2205 1.400 1_565 S
C2205 C2199 1.491 . S
C2205 C2204 1.400 1_545 S
C2205 C2206 1.390 1_545 S
C2206 H2194 0.921 1_565 S
C2206 C2205 1.390 1_565 S
C2206 C2207 1.429 . S
C2207 H2195 0.950 . S
C2207 C2203 1.393 . S
C2207 C2206 1.429 . S
H2208 C2216 0.950 . S
H2209 C2221 0.950 . S
H2210 C2218 0.950 . S
H2211 C2220 0.950 . S
H2212 C2222 0.950 . S
H2213 C2224 0.950 . S
H2214 C2226 0.950 . S
H2215 C2227 0.950 . S
C2216 H2208 0.950 . S
C2216 C2217 1.386 . S
C2216 C2218 1.391 . S
C2217 C2216 1.386 . S
C2217 C2221 1.393 . S
C2218 H2210 0.950 . S
C2218 C2216 1.391 . S
C2218 C2219 1.400 . S
C2219 C2218 1.400 . S
C2219 C2220 1.398 . S
C2219 C2225 1.491 . S
C2220 H2211 0.950 . S
C2220 C2219 1.398 . S
C2220 C2221 1.391 . S
C2221 H2209 0.950 . S
C2221 C2217 1.393 . S
C2221 C2220 1.391 . S
C2222 H2212 0.950 . S
C2222 C2223 1.386 . S
C2222 C2224 1.391 . S
C2223 C2222 1.386 . S
C2223 C2227 1.393 . S
C2224 H2213 0.950 . S
C2224 C2222 1.391 . S
C2224 C2225 1.400 . S
C2225 C2219 1.491 . S
C2225 C2224 1.400 . S
C2225 C2226 1.398 . S
C2226 H2214 0.950 . S
C2226 C2225 1.398 . S
C2226 C2227 1.391 . S
C2227 H2215 0.950 . S
C2227 C2223 1.393 . S
C2227 C2226 1.391 . S
H2228 C2236 0.950 . S
H2229 C2241 0.950 . S
H2230 C2238 0.950 . S
H2231 C2240 0.950 . S
H2232 C2242 0.950 . S
H2233 C2244 0.950 . S
H2234 C2246 0.950 . S
H2235 C2247 0.950 . S
C2236 H2228 0.950 . S
C2236 C2237 1.386 . S
C2236 C2238 1.391 . S
C2237 C2236 1.386 . S
C2237 C2241 1.393 . S
C2238 H2230 0.950 . S
C2238 C2236 1.391 . S
C2238 C2239 1.400 . S
C2239 C2238 1.400 . S
C2239 C2240 1.398 . S
C2239 C2245 1.491 . S
C2240 H2231 0.950 . S
C2240 C2239 1.398 . S
C2240 C2241 1.391 . S
C2241 H2229 0.950 . S
C2241 C2237 1.393 . S
C2241 C2240 1.391 . S
C2242 H2232 0.950 . S
C2242 C2243 1.386 . S
C2242 C2244 1.391 . S
C2243 C2242 1.386 . S
C2243 C2247 1.393 . S
C2244 H2233 0.950 . S
C2244 C2242 1.391 . S
C2244 C2245 1.400 . S
C2245 C2239 1.491 . S
C2245 C2244 1.400 . S
C2245 C2246 1.398 . S
C2246 H2234 0.950 . S
C2246 C2245 1.398 . S
C2246 C2247 1.391 . S
C2247 H2235 0.950 . S
C2247 C2243 1.393 . S
C2247 C2246 1.391 . S
H2248 C2256 0.950 . S
H2249 C2261 0.950 . S
H2250 C2258 0.950 . S
H2251 C2260 0.950 . S
H2252 C2262 0.950 . S
H2253 C2264 0.950 . S
H2254 C2266 0.950 . S
H2255 C2267 0.950 1_655 S
C2256 H2248 0.950 . S
C2256 C2257 1.386 . S
C2256 C2258 1.391 . S
C2257 C2256 1.386 . S
C2257 C2261 1.393 . S
C2258 H2250 0.950 . S
C2258 C2256 1.391 . S
C2258 C2259 1.400 . S
C2259 C2258 1.400 . S
C2259 C2260 1.398 . S
C2259 C2265 1.491 . S
C2260 H2251 0.950 . S
C2260 C2259 1.398 . S
C2260 C2261 1.391 . S
C2261 H2249 0.950 . S
C2261 C2257 1.393 . S
C2261 C2260 1.391 . S
C2262 H2252 0.950 . S
C2262 C2263 1.386 . S
C2262 C2264 1.391 . S
C2263 C2262 1.386 . S
C2263 C2267 1.393 . S
C2264 H2253 0.950 . S
C2264 C2262 1.391 . S
C2264 C2265 1.400 . S
C2265 C2259 1.491 . S
C2265 C2264 1.400 . S
C2265 C2266 1.398 . S
C2266 H2254 0.950 . S
C2266 C2265 1.398 . S
C2266 C2267 1.391 . S
C2267 H2255 0.950 1_455 S
C2267 C2263 1.393 . S
C2267 C2266 1.391 . S
H2268 C2276 0.950 . S
H2269 C2281 0.950 . S
H2270 C2278 0.950 . S
H2271 C2280 0.950 . S
H2272 C2282 0.950 . S
H2273 C2284 0.950 . S
H2274 C2286 0.950 . S
H2275 C2287 0.950 . S
C2276 H2268 0.950 . S
C2276 C2277 1.386 . S
C2276 C2278 1.391 . S
C2277 C2276 1.386 . S
C2277 C2281 1.393 . S
C2278 H2270 0.950 . S
C2278 C2276 1.391 . S
C2278 C2279 1.400 . S
C2279 C2278 1.400 . S
C2279 C2280 1.398 . S
C2279 C2285 1.491 . S
C2280 H2271 0.950 . S
C2280 C2279 1.398 . S
C2280 C2281 1.391 . S
C2281 H2269 0.950 . S
C2281 C2277 1.393 . S
C2281 C2280 1.391 . S
C2282 H2272 0.950 . S
C2282 C2283 1.386 . S
C2282 C2284 1.391 . S
C2283 C2282 1.386 . S
C2283 C2287 1.393 . S
C2284 H2273 0.950 . S
C2284 C2282 1.391 . S
C2284 C2285 1.400 . S
C2285 C2279 1.491 . S
C2285 C2284 1.400 . S
C2285 C2286 1.398 . S
C2286 H2274 0.950 . S
C2286 C2285 1.398 . S
C2286 C2287 1.391 . S
C2287 H2275 0.950 . S
C2287 C2283 1.393 . S
C2287 C2286 1.391 . S
H2288 C2296 0.950 . S
H2289 C2301 0.950 . S
H2290 C2298 0.950 . S
H2291 C2300 0.950 . S
H2292 C2302 0.950 1_455 S
H2293 C2304 0.950 . S
H2294 C2306 0.950 . S
H2295 C2307 0.950 . S
C2296 H2288 0.950 . S
C2296 C2297 1.386 . S
C2296 C2298 1.391 . S
C2297 C2296 1.386 . S
C2297 C2301 1.393 . S
C2298 H2290 0.950 . S
C2298 C2296 1.391 . S
C2298 C2299 1.400 . S
C2299 C2298 1.400 . S
C2299 C2300 1.398 . S
C2299 C2305 1.491 . S
C2300 H2291 0.950 . S
C2300 C2299 1.398 . S
C2300 C2301 1.391 . S
C2301 H2289 0.950 . S
C2301 C2297 1.393 . S
C2301 C2300 1.391 . S
C2302 H2292 0.950 1_655 S
C2302 C2303 1.386 . S
C2302 C2304 1.391 . S
C2303 C2302 1.386 . S
C2303 C2307 1.393 . S
C2304 H2293 0.950 . S
C2304 C2302 1.391 . S
C2304 C2305 1.400 . S
C2305 C2299 1.491 . S
C2305 C2304 1.400 . S
C2305 C2306 1.398 . S
C2306 H2294 0.950 . S
C2306 C2305 1.398 . S
C2306 C2307 1.391 . S
C2307 H2295 0.950 . S
C2307 C2303 1.393 . S
C2307 C2306 1.391 . S
H2308 C2316 0.950 . S
H2309 C2321 0.950 . S
H2310 C2318 0.950 . S
H2311 C2320 0.950 . S
H2312 C2322 0.950 . S
H2313 C2324 0.950 . S
H2314 C2326 0.950 . S
H2315 C2327 0.950 . S
C2316 H2308 0.950 . S
C2316 C2317 1.386 . S
C2316 C2318 1.391 . S
C2317 C2316 1.386 . S
C2317 C2321 1.393 . S
C2318 H2310 0.950 . S
C2318 C2316 1.391 . S
C2318 C2319 1.400 . S
C2319 C2318 1.400 . S
C2319 C2320 1.398 . S
C2319 C2325 1.491 . S
C2320 H2311 0.950 . S
C2320 C2319 1.398 . S
C2320 C2321 1.391 . S
C2321 H2309 0.950 . S
C2321 C2317 1.393 . S
C2321 C2320 1.391 . S
C2322 H2312 0.950 . S
C2322 C2323 1.386 . S
C2322 C2324 1.391 . S
C2323 C2322 1.386 . S
C2323 C2327 1.393 . S
C2324 H2313 0.950 . S
C2324 C2322 1.391 . S
C2324 C2325 1.400 . S
C2325 C2319 1.491 . S
C2325 C2324 1.400 . S
C2325 C2326 1.398 . S
C2326 H2314 0.950 . S
C2326 C2325 1.398 . S
C2326 C2327 1.391 . S
C2327 H2315 0.950 . S
C2327 C2323 1.393 . S
C2327 C2326 1.391 . S
H2328 C2336 0.950 . S
H2329 C2341 0.950 . S
H2330 C2338 0.950 . S
H2331 C2340 0.950 . S
H2332 C2342 0.950 1_455 S
H2333 C2344 0.950 . S
H2334 C2346 0.950 . S
H2335 C2347 0.950 . S
C2336 H2328 0.950 . S
C2336 C2337 1.386 . S
C2336 C2338 1.391 . S
C2337 C2336 1.386 . S
C2337 C2341 1.393 . S
C2338 H2330 0.950 . S
C2338 C2336 1.391 . S
C2338 C2339 1.400 . S
C2339 C2338 1.400 . S
C2339 C2340 1.398 . S
C2339 C2345 1.491 . S
C2340 H2331 0.950 . S
C2340 C2339 1.398 . S
C2340 C2341 1.391 . S
C2341 H2329 0.950 . S
C2341 C2337 1.393 . S
C2341 C2340 1.391 . S
C2342 H2332 0.950 1_655 S
C2342 C2343 1.386 . S
C2342 C2344 1.391 . S
C2343 C2342 1.386 . S
C2343 C2347 1.393 . S
C2344 H2333 0.950 . S
C2344 C2342 1.391 . S
C2344 C2345 1.400 . S
C2345 C2339 1.491 . S
C2345 C2344 1.400 . S
C2345 C2346 1.398 . S
C2346 H2334 0.950 . S
C2346 C2345 1.398 . S
C2346 C2347 1.391 . S
C2347 H2335 0.950 . S
C2347 C2343 1.393 . S
C2347 C2346 1.391 . S
H2348 C2356 0.950 . S
H2349 C2361 0.950 . S
H2350 C2358 0.950 . S
H2351 C2360 0.950 . S
H2352 C2362 0.950 . S
H2353 C2364 0.950 . S
H2354 C2366 0.950 . S
H2355 C2367 0.950 . S
C2356 H2348 0.950 . S
C2356 C2357 1.386 . S
C2356 C2358 1.391 . S
C2357 C2356 1.386 . S
C2357 C2361 1.393 . S
C2358 H2350 0.950 . S
C2358 C2356 1.391 . S
C2358 C2359 1.400 . S
C2359 C2358 1.400 . S
C2359 C2360 1.398 . S
C2359 C2365 1.491 . S
C2360 H2351 0.950 . S
C2360 C2359 1.398 . S
C2360 C2361 1.391 . S
C2361 H2349 0.950 . S
C2361 C2357 1.393 . S
C2361 C2360 1.391 . S
C2362 H2352 0.950 . S
C2362 C2363 1.386 . S
C2362 C2364 1.391 . S
C2363 C2362 1.386 . S
C2363 C2367 1.393 . S
C2364 H2353 0.950 . S
C2364 C2362 1.391 . S
C2364 C2365 1.400 . S
C2365 C2359 1.491 . S
C2365 C2364 1.400 . S
C2365 C2366 1.398 . S
C2366 H2354 0.950 . S
C2366 C2365 1.398 . S
C2366 C2367 1.391 . S
C2367 H2355 0.950 . S
C2367 C2363 1.393 . S
C2367 C2366 1.391 . S
H2368 C2376 0.950 . S
H2369 C2381 0.950 . S
H2370 C2378 0.950 . S
H2371 C2380 0.950 . S
H2372 C2382 0.950 . S
H2373 C2384 0.950 1_565 S
H2374 C2386 0.950 . S
H2375 C2387 0.950 . S
C2376 H2368 0.950 . S
C2376 C2377 1.386 . S
C2376 C2378 1.391 . S
C2377 C2376 1.386 . S
C2377 C2381 1.393 . S
C2378 H2370 0.950 . S
C2378 C2376 1.391 . S
C2378 C2379 1.400 . S
C2379 C2378 1.400 . S
C2379 C2380 1.398 . S
C2379 C2385 1.491 . S
C2380 H2371 0.950 . S
C2380 C2379 1.398 . S
C2380 C2381 1.391 . S
C2381 H2369 0.950 . S
C2381 C2377 1.393 . S
C2381 C2380 1.391 . S
C2382 H2372 0.950 . S
C2382 C2383 1.386 . S
C2382 C2384 1.391 . S
C2383 C2382 1.386 . S
C2383 C2387 1.393 . S
C2384 H2373 0.950 1_545 S
C2384 C2382 1.391 . S
C2384 C2385 1.400 1_545 S
C2385 C2379 1.491 . S
C2385 C2384 1.400 1_565 S
C2385 C2386 1.398 1_565 S
C2386 H2374 0.950 . S
C2386 C2385 1.398 1_545 S
C2386 C2387 1.391 . S
C2387 H2375 0.950 . S
C2387 C2383 1.393 . S
C2387 C2386 1.391 . S
H2388 C2396 0.950 . S
H2389 C2401 0.950 . S
H2390 C2398 0.950 . S
H2391 C2400 0.950 . S
H2392 C2402 0.950 . S
H2393 C2404 0.950 . S
H2394 C2406 0.950 . S
H2395 C2407 0.950 . S
C2396 H2388 0.950 . S
C2396 C2397 1.386 . S
C2396 C2398 1.391 . S
C2397 C2396 1.386 . S
C2397 C2401 1.393 . S
C2398 H2390 0.950 . S
C2398 C2396 1.391 . S
C2398 C2399 1.400 . S
C2399 C2398 1.400 . S
C2399 C2400 1.398 . S
C2399 C2405 1.491 . S
C2400 H2391 0.950 . S
C2400 C2399 1.398 . S
C2400 C2401 1.391 . S
C2401 H2389 0.950 . S
C2401 C2397 1.393 . S
C2401 C2400 1.391 . S
C2402 H2392 0.950 . S
C2402 C2403 1.386 . S
C2402 C2404 1.391 . S
C2403 C2402 1.386 . S
C2403 C2407 1.393 . S
C2404 H2393 0.950 . S
C2404 C2402 1.391 . S
C2404 C2405 1.400 . S
C2405 C2399 1.491 . S
C2405 C2404 1.400 . S
C2405 C2406 1.398 . S
C2406 H2394 0.950 . S
C2406 C2405 1.398 . S
C2406 C2407 1.391 . S
C2407 H2395 0.950 . S
C2407 C2403 1.393 . S
C2407 C2406 1.391 . S
H2408 C2416 0.950 . S
H2409 C2421 0.950 . S
H2410 C2418 0.950 . S
H2411 C2420 0.950 . S
H2412 C2422 0.950 . S
H2413 C2424 0.950 . S
H2414 C2426 0.950 . S
H2415 C2427 0.950 . S
C2416 H2408 0.950 . S
C2416 C2417 1.386 . S
C2416 C2418 1.391 . S
C2417 C2416 1.386 . S
C2417 C2421 1.393 . S
C2418 H2410 0.950 . S
C2418 C2416 1.391 . S
C2418 C2419 1.400 . S
C2419 C2418 1.400 . S
C2419 C2420 1.398 . S
C2419 C2425 1.491 . S
C2420 H2411 0.950 . S
C2420 C2419 1.398 . S
C2420 C2421 1.391 . S
C2421 H2409 0.950 . S
C2421 C2417 1.393 . S
C2421 C2420 1.391 . S
C2422 H2412 0.950 . S
C2422 C2423 1.386 . S
C2422 C2424 1.391 . S
C2423 C2422 1.386 . S
C2423 C2427 1.393 . S
C2424 H2413 0.950 . S
C2424 C2422 1.391 . S
C2424 C2425 1.400 . S
C2425 C2419 1.491 . S
C2425 C2424 1.400 . S
C2425 C2426 1.398 . S
C2426 H2414 0.950 . S
C2426 C2425 1.398 . S
C2426 C2427 1.391 . S
C2427 H2415 0.950 . S
C2427 C2423 1.393 . S
C2427 C2426 1.391 . S
H2428 C2436 0.950 . S
H2429 C2441 0.950 . S
H2430 C2438 0.950 . S
H2431 C2440 0.950 1_565 S
H2432 C2442 0.950 . S
H2433 C2444 0.950 . S
H2434 C2446 0.950 . S
H2435 C2447 0.950 . S
C2436 H2428 0.950 . S
C2436 C2437 1.386 . S
C2436 C2438 1.391 . S
C2437 C2436 1.386 . S
C2437 C2441 1.393 . S
C2438 H2430 0.950 . S
C2438 C2436 1.391 . S
C2438 C2439 1.400 1_545 S
C2439 C2438 1.400 1_565 S
C2439 C2440 1.398 1_565 S
C2439 C2445 1.491 . S
C2440 H2431 0.950 1_545 S
C2440 C2439 1.398 1_545 S
C2440 C2441 1.391 . S
C2441 H2429 0.950 . S
C2441 C2437 1.393 . S
C2441 C2440 1.391 . S
C2442 H2432 0.950 . S
C2442 C2443 1.386 . S
C2442 C2444 1.391 . S
C2443 C2442 1.386 . S
C2443 C2447 1.393 . S
C2444 H2433 0.950 . S
C2444 C2442 1.391 . S
C2444 C2445 1.400 . S
C2445 C2439 1.491 . S
C2445 C2444 1.400 . S
C2445 C2446 1.398 . S
C2446 H2434 0.950 . S
C2446 C2445 1.398 . S
C2446 C2447 1.391 . S
C2447 H2435 0.950 . S
C2447 C2443 1.393 . S
C2447 C2446 1.391 . S
H2448 C2456 0.950 . S
H2449 C2461 0.950 . S
H2450 C2458 0.950 . S
H2451 C2460 0.950 1_545 S
H2452 C2462 0.950 . S
H2453 C2464 0.950 . S
H2454 C2466 0.950 . S
H2455 C2467 0.950 . S
C2456 H2448 0.950 . S
C2456 C2457 1.386 . S
C2456 C2458 1.391 . S
C2457 C2456 1.386 . S
C2457 C2461 1.393 . S
C2458 H2450 0.950 . S
C2458 C2456 1.391 . S
C2458 C2459 1.400 1_565 S
C2459 C2458 1.400 1_545 S
C2459 C2460 1.398 1_545 S
C2459 C2465 1.491 . S
C2460 H2451 0.950 1_565 S
C2460 C2459 1.398 1_565 S
C2460 C2461 1.391 . S
C2461 H2449 0.950 . S
C2461 C2457 1.393 . S
C2461 C2460 1.391 . S
C2462 H2452 0.950 . S
C2462 C2463 1.386 . S
C2462 C2464 1.391 . S
C2463 C2462 1.386 . S
C2463 C2467 1.393 . S
C2464 H2453 0.950 . S
C2464 C2462 1.391 . S
C2464 C2465 1.400 . S
C2465 C2459 1.491 . S
C2465 C2464 1.400 . S
C2465 C2466 1.398 . S
C2466 H2454 0.950 . S
C2466 C2465 1.398 . S
C2466 C2467 1.391 . S
C2467 H2455 0.950 . S
C2467 C2463 1.393 . S
C2467 C2466 1.391 . S
H2468 C2476 0.950 . S
H2469 C2481 0.950 . S
H2470 C2478 0.950 . S
H2471 C2480 0.950 . S
H2472 C2482 0.950 . S
H2473 C2484 0.950 . S
H2474 C2486 0.950 . S
H2475 C2487 0.950 . S
C2476 H2468 0.950 . S
C2476 C2477 1.386 . S
C2476 C2478 1.391 . S
C2477 C2476 1.386 . S
C2477 C2481 1.393 . S
C2478 H2470 0.950 . S
C2478 C2476 1.391 . S
C2478 C2479 1.400 . S
C2479 C2478 1.400 . S
C2479 C2480 1.398 . S
C2479 C2485 1.491 . S
C2480 H2471 0.950 . S
C2480 C2479 1.398 . S
C2480 C2481 1.391 . S
C2481 H2469 0.950 . S
C2481 C2477 1.393 . S
C2481 C2480 1.391 . S
C2482 H2472 0.950 . S
C2482 C2483 1.386 . S
C2482 C2484 1.391 . S
C2483 C2482 1.386 . S
C2483 C2487 1.393 . S
C2484 H2473 0.950 . S
C2484 C2482 1.391 . S
C2484 C2485 1.400 . S
C2485 C2479 1.491 . S
C2485 C2484 1.400 . S
C2485 C2486 1.398 . S
C2486 H2474 0.950 . S
C2486 C2485 1.398 . S
C2486 C2487 1.391 . S
C2487 H2475 0.950 . S
C2487 C2483 1.393 . S
C2487 C2486 1.391 . S
H2488 C2496 0.950 . S
H2489 C2501 0.950 . S
H2490 C2498 0.950 . S
H2491 C2500 0.950 . S
H2492 C2502 0.950 . S
H2493 C2504 0.950 . S
H2494 C2506 0.950 . S
H2495 C2507 0.950 . S
C2496 H2488 0.950 . S
C2496 C2497 1.386 . S
C2496 C2498 1.391 . S
C2497 C2496 1.386 . S
C2497 C2501 1.393 . S
C2498 H2490 0.950 . S
C2498 C2496 1.391 . S
C2498 C2499 1.400 . S
C2499 C2498 1.400 . S
C2499 C2500 1.398 . S
C2499 C2505 1.491 . S
C2500 H2491 0.950 . S
C2500 C2499 1.398 . S
C2500 C2501 1.391 . S
C2501 H2489 0.950 . S
C2501 C2497 1.393 . S
C2501 C2500 1.391 . S
C2502 H2492 0.950 . S
C2502 C2503 1.386 . S
C2502 C2504 1.391 . S
C2503 C2502 1.386 . S
C2503 C2507 1.393 . S
C2504 H2493 0.950 . S
C2504 C2502 1.391 . S
C2504 C2505 1.400 . S
C2505 C2499 1.491 . S
C2505 C2504 1.400 . S
C2505 C2506 1.398 . S
C2506 H2494 0.950 . S
C2506 C2505 1.398 . S
C2506 C2507 1.391 . S
C2507 H2495 0.950 . S
C2507 C2503 1.393 . S
C2507 C2506 1.391 . S
H2508 C2516 0.950 . S
H2509 C2521 0.950 . S
H2510 C2518 0.950 . S
H2511 C2520 0.950 . S
H2512 C2522 0.950 . S
H2513 C2524 0.950 . S
H2514 C2526 0.950 1_545 S
H2515 C2527 0.950 . S
C2516 H2508 0.950 . S
C2516 C2517 1.386 . S
C2516 C2518 1.391 . S
C2517 C2516 1.386 . S
C2517 C2521 1.393 . S
C2518 H2510 0.950 . S
C2518 C2516 1.391 . S
C2518 C2519 1.400 . S
C2519 C2518 1.400 . S
C2519 C2520 1.398 . S
C2519 C2525 1.491 . S
C2520 H2511 0.950 . S
C2520 C2519 1.398 . S
C2520 C2521 1.391 . S
C2521 H2509 0.950 . S
C2521 C2517 1.393 . S
C2521 C2520 1.391 . S
C2522 H2512 0.950 . S
C2522 C2523 1.386 . S
C2522 C2524 1.391 . S
C2523 C2522 1.386 . S
C2523 C2527 1.393 . S
C2524 H2513 0.950 . S
C2524 C2522 1.391 . S
C2524 C2525 1.400 1_565 S
C2525 C2519 1.491 . S
C2525 C2524 1.400 1_545 S
C2525 C2526 1.398 1_545 S
C2526 H2514 0.950 1_565 S
C2526 C2525 1.398 1_565 S
C2526 C2527 1.391 . S
C2527 H2515 0.950 . S
C2527 C2523 1.393 . S
C2527 C2526 1.391 . S
H2528 C2536 0.950 . S
H2529 C2541 0.950 . S
H2530 C2538 0.950 . S
H2531 C2540 0.950 . S
H2532 C2542 0.950 . S
H2533 C2544 0.950 . S
H2534 C2546 0.950 . S
H2535 C2547 0.950 . S
C2536 H2528 0.950 . S
C2536 C2537 1.338 1_556 S
C2536 C2538 1.391 . S
C2537 C2536 1.338 1_554 S
C2537 C2541 1.432 . S
C2538 H2530 0.950 . S
C2538 C2536 1.391 . S
C2538 C2539 1.400 . S
C2539 C2538 1.400 . S
C2539 C2540 1.398 1_556 S
C2539 C2545 1.491 . S
C2540 H2531 0.950 . S
C2540 C2539 1.398 1_554 S
C2540 C2541 1.391 . S
C2541 H2529 0.950 . S
C2541 C2537 1.432 . S
C2541 C2540 1.391 . S
C2542 H2532 0.950 . S
C2542 C2543 1.386 1_554 S
C2542 C2544 1.391 . S
C2543 C2542 1.386 1_556 S
C2543 C2547 1.393 . S
C2544 H2533 0.950 . S
C2544 C2542 1.391 . S
C2544 C2545 1.400 1_554 S
C2545 C2539 1.491 . S
C2545 C2544 1.400 1_556 S
C2545 C2546 1.398 . S
C2546 H2534 0.950 . S
C2546 C2545 1.398 . S
C2546 C2547 1.391 . S
C2547 H2535 0.950 . S
C2547 C2543 1.393 . S
C2547 C2546 1.391 . S
H2548 C2556 0.950 . S
H2549 C2561 0.950 . S
H2550 C2558 0.950 . S
H2551 C2560 0.950 . S
H2552 C2562 0.950 . S
H2553 C2564 0.950 . S
H2554 C2566 0.977 . S
H2555 C2567 0.950 . S
C2556 H2548 0.950 . S
C2556 C2557 1.386 . S
C2556 C2558 1.391 . S
C2557 C2556 1.386 . S
C2557 C2561 1.393 1_554 S
C2558 H2550 0.950 . S
C2558 C2556 1.391 . S
C2558 C2559 1.400 1_554 S
C2559 C2558 1.400 1_556 S
C2559 C2560 1.398 . S
C2559 C2565 1.491 . S
C2560 H2551 0.950 . S
C2560 C2559 1.398 . S
C2560 C2561 1.391 . S
C2561 H2549 0.950 . S
C2561 C2557 1.393 1_556 S
C2561 C2560 1.391 . S
C2562 H2552 0.950 . S
C2562 C2563 1.386 . S
C2562 C2564 1.391 . S
C2563 C2562 1.386 . S
C2563 C2567 1.393 . S
C2564 H2553 0.950 . S
C2564 C2562 1.391 . S
C2564 C2565 1.400 . S
C2565 C2559 1.491 . S
C2565 C2564 1.400 . S
C2565 C2566 1.398 . S
C2566 H2554 0.977 . S
C2566 C2565 1.398 . S
C2566 C2567 1.391 . S
C2567 H2555 0.950 . S
C2567 C2563 1.393 . S
C2567 C2566 1.391 . S
H2568 C2576 0.950 . S
H2569 C2581 0.950 . S
H2570 C2578 0.950 . S
H2571 C2580 0.950 . S
H2572 C2582 0.950 . S
H2573 C2584 0.950 . S
H2574 C2586 0.950 . S
H2575 C2587 0.950 . S
C2576 H2568 0.950 . S
C2576 C2577 1.386 . S
C2576 C2578 1.391 . S
C2577 C2576 1.386 . S
C2577 C2581 1.393 . S
C2578 H2570 0.950 . S
C2578 C2576 1.391 . S
C2578 C2579 1.400 . S
C2579 C2578 1.400 . S
C2579 C2580 1.398 . S
C2579 C2585 1.491 . S
C2580 H2571 0.950 . S
C2580 C2579 1.398 . S
C2580 C2581 1.391 . S
C2581 H2569 0.950 . S
C2581 C2577 1.393 . S
C2581 C2580 1.391 . S
C2582 H2572 0.950 . S
C2582 C2583 1.386 . S
C2582 C2584 1.391 . S
C2583 C2582 1.386 . S
C2583 C2587 1.393 . S
C2584 H2573 0.950 . S
C2584 C2582 1.391 . S
C2584 C2585 1.400 . S
C2585 C2579 1.491 . S
C2585 C2584 1.400 . S
C2585 C2586 1.398 . S
C2586 H2574 0.950 . S
C2586 C2585 1.398 . S
C2586 C2587 1.391 . S
C2587 H2575 0.950 . S
C2587 C2583 1.393 . S
C2587 C2586 1.391 . S
H2588 C2596 0.950 . S
H2589 C2601 0.950 . S
H2590 C2598 0.950 . S
H2591 C2600 0.950 . S
H2592 C2602 0.950 . S
H2593 C2604 0.950 . S
H2594 C2606 0.950 . S
H2595 C2607 0.950 . S
C2596 H2588 0.950 . S
C2596 C2597 1.386 . S
C2596 C2598 1.391 . S
C2597 C2596 1.386 . S
C2597 C2601 1.393 . S
C2598 H2590 0.950 . S
C2598 C2596 1.391 . S
C2598 C2599 1.400 . S
C2599 C2598 1.400 . S
C2599 C2600 1.398 . S
C2599 C2605 1.491 . S
C2600 H2591 0.950 . S
C2600 C2599 1.398 . S
C2600 C2601 1.391 . S
C2601 H2589 0.950 . S
C2601 C2597 1.393 . S
C2601 C2600 1.391 . S
C2602 H2592 0.950 . S
C2602 C2603 1.386 . S
C2602 C2604 1.391 . S
C2603 C2602 1.386 . S
C2603 C2607 1.393 . S
C2604 H2593 0.950 . S
C2604 C2602 1.391 . S
C2604 C2605 1.400 . S
C2605 C2599 1.491 . S
C2605 C2604 1.400 . S
C2605 C2606 1.398 . S
C2606 H2594 0.950 . S
C2606 C2605 1.398 . S
C2606 C2607 1.391 . S
C2607 H2595 0.950 . S
C2607 C2603 1.393 . S
C2607 C2606 1.391 . S
H2608 C2616 0.950 . S
H2609 C2621 0.950 . S
H2610 C2618 0.950 . S
H2611 C2620 0.950 . S
H2612 C2622 0.997 . S
H2613 C2624 0.950 . S
H2614 C2626 0.950 . S
H2615 C2627 0.950 . S
C2616 H2608 0.950 . S
C2616 C2617 1.363 1_554 S
C2616 C2618 1.391 . S
C2617 C2616 1.363 1_556 S
C2617 C2621 1.411 . S
C2618 H2610 0.950 . S
C2618 C2616 1.391 . S
C2618 C2619 1.400 . S
C2619 C2618 1.400 . S
C2619 C2620 1.398 1_554 S
C2619 C2625 1.491 . S
C2620 H2611 0.950 . S
C2620 C2619 1.398 1_556 S
C2620 C2621 1.391 . S
C2621 H2609 0.950 . S
C2621 C2617 1.411 . S
C2621 C2620 1.391 . S
C2622 H2612 0.997 . S
C2622 C2623 1.329 1_556 S
C2622 C2624 1.403 . S
C2623 C2622 1.329 1_554 S
C2623 C2627 1.393 . S
C2624 H2613 0.950 . S
C2624 C2622 1.403 . S
C2624 C2625 1.400 1_556 S
C2625 C2619 1.491 . S
C2625 C2624 1.400 1_554 S
C2625 C2626 1.398 . S
C2626 H2614 0.950 . S
C2626 C2625 1.398 . S
C2626 C2627 1.391 . S
C2627 H2615 0.950 . S
C2627 C2623 1.393 . S
C2627 C2626 1.391 . S
H2628 C2636 0.950 . S
H2629 C2641 0.950 1_556 S
H2630 C2638 0.950 . S
H2631 C2640 1.003 . S
H2632 C2642 0.950 . S
H2633 C2644 0.950 . S
H2634 C2646 0.950 . S
H2635 C2647 0.950 . S
C2636 H2628 0.950 . S
C2636 C2637 1.386 . S
C2636 C2638 1.391 . S
C2637 C2636 1.386 . S
C2637 C2641 1.393 . S
C2638 H2630 0.950 . S
C2638 C2636 1.391 . S
C2638 C2639 1.400 . S
C2639 C2638 1.400 . S
C2639 C2640 1.360 1_554 S
C2639 C2645 1.491 . S
C2640 H2631 1.003 . S
C2640 C2639 1.360 1_556 S
C2640 C2641 1.381 1_556 S
C2641 H2629 0.950 1_554 S
C2641 C2637 1.393 . S
C2641 C2640 1.381 1_554 S
C2642 H2632 0.950 . S
C2642 C2643 1.423 . S
C2642 C2644 1.391 . S
C2643 C2642 1.423 . S
C2643 C2647 1.347 1_556 S
C2644 H2633 0.950 . S
C2644 C2642 1.391 . S
C2644 C2645 1.400 1_556 S
C2645 C2639 1.491 . S
C2645 C2644 1.400 1_554 S
C2645 C2646 1.398 . S
C2646 H2634 0.950 . S
C2646 C2645 1.398 . S
C2646 C2647 1.391 . S
C2647 H2635 0.950 . S
C2647 C2643 1.347 1_554 S
C2647 C2646 1.391 . S
H2648 C2656 0.950 . S
H2649 C2661 0.950 . S
H2650 C2658 0.950 . S
H2651 C2660 0.950 . S
H2652 C2662 0.950 . S
H2653 C2664 0.950 . S
H2654 C2666 0.950 . S
H2655 C2667 0.950 . S
C2656 H2648 0.950 . S
C2656 C2657 1.386 . S
C2656 C2658 1.391 . S
C2657 C2656 1.386 . S
C2657 C2661 1.393 . S
C2658 H2650 0.950 . S
C2658 C2656 1.391 . S
C2658 C2659 1.400 . S
C2659 C2658 1.400 . S
C2659 C2660 1.398 . S
C2659 C2665 1.491 . S
C2660 H2651 0.950 . S
C2660 C2659 1.398 . S
C2660 C2661 1.391 . S
C2661 H2649 0.950 . S
C2661 C2657 1.393 . S
C2661 C2660 1.391 . S
C2662 H2652 0.950 . S
C2662 C2663 1.386 . S
C2662 C2664 1.391 . S
C2663 C2662 1.386 . S
C2663 C2667 1.393 . S
C2664 H2653 0.950 . S
C2664 C2662 1.391 . S
C2664 C2665 1.400 . S
C2665 C2659 1.491 . S
C2665 C2664 1.400 . S
C2665 C2666 1.398 . S
C2666 H2654 0.950 . S
C2666 C2665 1.398 . S
C2666 C2667 1.391 . S
C2667 H2655 0.950 . S
C2667 C2663 1.393 . S
C2667 C2666 1.391 . S
H2668 C2676 0.950 . S
H2669 C2681 0.950 . S
H2670 C2678 0.950 . S
H2671 C2680 0.950 . S
H2672 C2682 0.950 . S
H2673 C2684 0.950 . S
H2674 C2686 0.950 . S
H2675 C2687 0.950 . S
C2676 H2668 0.950 . S
C2676 C2677 1.386 . S
C2676 C2678 1.391 . S
C2677 C2676 1.386 . S
C2677 C2681 1.393 . S
C2678 H2670 0.950 . S
C2678 C2676 1.391 . S
C2678 C2679 1.400 . S
C2679 C2678 1.400 . S
C2679 C2680 1.398 . S
C2679 C2685 1.491 . S
C2680 H2671 0.950 . S
C2680 C2679 1.398 . S
C2680 C2681 1.391 . S
C2681 H2669 0.950 . S
C2681 C2677 1.393 . S
C2681 C2680 1.391 . S
C2682 H2672 0.950 . S
C2682 C2683 1.386 . S
C2682 C2684 1.391 . S
C2683 C2682 1.386 . S
C2683 C2687 1.393 . S
C2684 H2673 0.950 . S
C2684 C2682 1.391 . S
C2684 C2685 1.400 . S
C2685 C2679 1.491 . S
C2685 C2684 1.400 . S
C2685 C2686 1.398 . S
C2686 H2674 0.950 . S
C2686 C2685 1.398 . S
C2686 C2687 1.391 . S
C2687 H2675 0.950 . S
C2687 C2683 1.393 . S
C2687 C2686 1.391 . S
C1097 C20 1.115 . S
C1103 C156 1.115 . S
C1117 C1006 1.106 . S
C1123 C54 1.106 . S
C1137 C496 1.128 . S
C1143 C88 1.128 . S
C1157 C122 1.131 . S
C1163 C802 1.131 . S
C1177 C870 1.123 . S
C1183 C190 1.123 . S
C1197 C224 1.109 . S
C1203 C360 1.109 . S
C1217 C666 1.097 . S
C1223 C258 1.097 . S
C1237 C428 1.115 . S
C1243 C292 1.115 . S
C1257 C326 1.093 . S
C1263 C734 1.093 . S
C1277 C394 1.126 . S
C1283 C1074 1.126 . S
C1297 C462 1.118 . S
C1303 C598 1.118 . S
C1317 C938 1.106 . S
C1323 C530 1.106 . S
C1337 C700 1.131 . S
C1343 C564 1.131 . S
C1357 C1040 1.128 . S
C1363 C632 1.128 . S
C1377 C768 1.127 . S
C1383 C904 1.127 . S
C1397 C972 1.118 . S
C1403 C836 1.118 . S
C1417 C33 1.485 . S
C1423 C101 1.481 . S
C1437 C67 1.479 . S
C1443 C135 1.481 . S
C1457 C237 1.478 . S
C1463 C169 1.483 . S
C1477 C271 1.485 . S
C1483 C203 1.480 . S
C1497 C373 1.484 . S
C1503 C305 1.478 . S
C1517 C339 1.478 . S
C1523 C407 1.485 . S
C1537 C441 1.479 . S
C1543 C509 1.481 . S
C1557 C475 1.479 . S
C1563 C543 1.485 . S
C1577 C645 1.481 . S
C1583 C577 1.479 . S
C1597 C611 1.478 . S
C1603 C679 1.483 . S
C1617 C713 1.478 . S
C1623 C781 1.484 . S
C1637 C747 1.483 . S
C1643 C815 1.483 . S
C1657 C849 1.482 . S
C1663 C917 1.479 . S
C1677 C951 1.482 . S
C1683 C883 1.483 . S
C1697 C985 1.485 . S
C1703 C1053 1.478 . S
C1717 C1087 1.478 . S
C1723 C1019 1.482 . S
C1737 C5 0.792 . S
C1743 C39 0.761 . S
C1757 C107 0.801 . S
C1763 C73 0.811 . S
C1777 C175 0.762 . S
C1783 C141 0.772 . S
C1797 C209 0.759 . S
C1803 C243 0.782 . S
C1817 C277 0.804 . S
C1823 C311 0.770 . S
C1837 C345 0.766 . S
C1843 C379 0.766 . S
C1857 C447 0.760 . S
C1863 C413 0.785 . S
C1877 C515 0.770 . S
C1883 C481 0.805 . S
C1897 C583 0.790 . S
C1903 C549 0.820 . S
C1917 C617 0.792 . S
C1923 C651 0.761 . S
C1937 C719 0.813 . S
C1943 C685 0.797 . S
C1957 C753 0.792 . S
C1963 C787 0.812 . S
C1977 C821 0.813 . S
C1983 C855 0.806 . S
C1997 C923 0.783 . S
C2003 C889 0.821 . S
C2017 C957 0.819 . S
C2023 C991 0.775 . S
C2037 C1025 0.799 . S
C2043 C1059 0.759 . S
C2057 C9 1.653 . S
C2063 C172 1.848 . S
C2077 C954 1.842 . S
C2083 C43 1.668 1_556 S
C2097 C512 1.850 . S
C2103 C77 1.647 . S
C2117 C111 1.632 . S
C2123 C750 1.848 . S
C2137 C36 1.832 . S
C2143 C145 1.632 . S
C2157 C179 1.676 . S
C2163 C818 1.828 . S
C2177 C213 1.632 . S
C2183 C376 1.832 . S
C2197 C614 1.850 . S
C2203 C247 1.645 . S
C2217 C281 1.628 . S
C2223 C444 1.845 . S
C2237 C315 1.629 . S
C2243 C682 1.835 . S
C2257 C349 1.657 . S
C2263 C240 1.848 . S
C2277 C1022 1.846 . S
C2283 C383 1.660 . S
C2297 C417 1.667 . S
C2303 C308 1.839 . S
C2317 C451 1.628 . S
C2323 C546 1.845 . S
C2337 C485 1.661 . S
C2343 C104 1.845 . S
C2357 C886 1.836 . S
C2363 C519 1.667 . S
C2377 C716 1.837 . S
C2383 C553 1.667 . S
C2397 C587 1.646 . S
C2403 C410 1.850 . S
C2417 C621 1.664 . S
C2423 C1056 1.843 . S
C2437 C655 1.663 . S
C2443 C206 1.844 . S
C2457 C689 1.629 . S
C2463 C580 1.835 . S
C2477 C723 1.641 . S
C2483 C274 1.850 . S
C2497 C920 1.827 . S
C2503 C757 1.654 . S
C2517 C70 1.842 . S
C2523 C791 1.665 . S
C2537 C825 1.656 . S
C2543 C988 1.847 . S
C2557 C859 1.639 . S
C2563 C138 1.829 . S
C2577 C893 1.665 . S
C2583 C784 1.831 . S
C2597 C478 1.850 . S
C2603 C927 1.640 . S
C2617 C961 1.675 . S
C2623 C852 1.829 . S
C2637 C2 1.826 . S
C2643 C995 1.679 . S
C2657 C648 1.850 . S
C2663 C1029 1.650 . S
C2677 C342 1.828 . S
C2683 C1063 1.661 . S
