# Generated by pormake.
# Topology vmm, (7)-cn, num edge types: 1
# Building blocks:
#     Node 0, Type 0, BuildingBlock: HICVOG_clean_sbu_0, # of connection points: 7
#     Node 1, Type 0, BuildingBlock: HICVOG_clean_sbu_0, # of connection points: 7
#     Node 2, Type 0, BuildingBlock: HICVOG_clean_sbu_0, # of connection points: 7
#     Node 3, Type 0, BuildingBlock: HICVOG_clean_sbu_0, # of connection points: 7
#     Edge 4, Type (0, 0), BuildingBlock: OJICUG_clean_linker_0, # of connection points: 2
#     Edge 5, Type (0, 0), BuildingBlock: OJICUG_clean_linker_0, # of connection points: 2
#     Edge 6, Type (0, 0), BuildingBlock: OJICUG_clean_linker_0, # of connection points: 2
#     Edge 7, Type (0, 0), BuildingBlock: OJICUG_clean_linker_0, # of connection points: 2
#     Edge 8, Type (0, 0), BuildingBlock: OJICUG_clean_linker_0, # of connection points: 2
#     Edge 9, Type (0, 0), BuildingBlock: OJICUG_clean_linker_0, # of connection points: 2
#     Edge 10, Type (0, 0), BuildingBlock: OJICUG_clean_linker_0, # of connection points: 2
#     Edge 11, Type (0, 0), BuildingBlock: OJICUG_clean_linker_0, # of connection points: 2
#     Edge 12, Type (0, 0), BuildingBlock: OJICUG_clean_linker_0, # of connection points: 2
#     Edge 13, Type (0, 0), BuildingBlock: OJICUG_clean_linker_0, # of connection points: 2
#     Edge 14, Type (0, 0), BuildingBlock: OJICUG_clean_linker_0, # of connection points: 2
#     Edge 15, Type (0, 0), BuildingBlock: OJICUG_clean_linker_0, # of connection points: 2
#     Edge 16, Type (0, 0), BuildingBlock: OJICUG_clean_linker_0, # of connection points: 2
#     Edge 17, Type (0, 0), BuildingBlock: OJICUG_clean_linker_0, # of connection points: 2
# Relax obj value: 0.087
# Max RMSD: 0.167
# Mean RMSD: 0.167
data_MOF--net-vmm--node1-HICVOG_clean_sbu_0--edge1-OJICUG_clean_linker_0
_symmetry_space_group_name_H-M    P1
_symmetry_Int_Tables_number       1
_symmetry_cell_setting            triclinic
loop_
_symmetry_equiv_pos_as_xyz
'x, y, z'
_cell_length_a     14.425396
_cell_length_b     33.615832
_cell_length_c     16.024309
_cell_angle_alpha  90.242169
_cell_angle_beta   81.127244
_cell_angle_gamma 89.924429
loop_
_atom_site_label
_atom_site_type_symbol
_atom_site_fract_x
_atom_site_fract_y
_atom_site_fract_z
_atom_type_partial_charge
Zn0 Zn 0.2984 0.11213 0.23048 0.0
C1 C 0.12735 0.0526 0.10332 0.0
N2 N 0.19961 0.02736 0.08684 0.0
C3 C 0.26733 0.04697 0.11776 0.0
N4 N 0.23836 0.08256 0.15059 0.0
N5 N 0.14997 0.08683 0.13959 0.0
C6 C 0.89425 0.13269 0.17345 0.0
O7 O 0.91855 0.13512 0.24903 0.0
O8 O 0.44076 0.11471 0.20566 0.0
Zn9 Zn 0.09659 0.13865 0.11824 0.0
N10 N 0.26941 0.08402 0.33653 0.0
C11 C 0.15494 0.05508 0.44117 0.0
C12 C 0.17809 0.07572 0.36563 0.0
C13 C 0.3389 0.07264 0.38008 0.0
N14 N 0.22408 0.04377 0.48478 0.0
C15 C 0.31608 0.05205 0.45694 0.0
O16 O 0.11538 0.18223 0.20386 0.0
C17 C 0.18007 0.19104 0.24688 0.0
O18 O 0.24752 0.16737 0.25336 0.0
H19 H 0.1239 0.08497 0.33008 0.0
H20 H 0.41089 0.07901 0.35396 0.0
C21 C 0.14738 0.19386 0.97878 0.0
C22 C 0.19839 0.20591 0.90083 0.0
C23 C 0.26929 0.14211 0.88381 0.0
C24 C 0.2191 0.13032 0.96086 0.0
N25 N 0.15997 0.15638 1.0077 0.0
N26 N 0.25843 0.17957 0.856 0.0
H27 H 0.10044 0.21427 1.01699 0.0
C28 C 0.50022 0.12061 0.13962 0.0
O29 O 0.47112 0.12607 0.06676 0.0
O30 O -0.042 0.13348 0.10913 0.0
H31 H 0.22826 0.1006 0.98293 0.0
H32 H 0.08255 0.04808 0.46506 0.0
H33 H 0.31713 0.12171 0.84659 0.0
Zn34 Zn 0.81523 0.63873 0.494 0.0
C35 C 0.64436 0.54722 0.49434 0.0
N36 N 0.71287 0.5265 0.52196 0.0
C37 C 0.78556 0.55171 0.50701 0.0
N38 N 0.76231 0.58667 0.47423 0.0
N39 N 0.67349 0.58309 0.46443 0.0
C40 C 0.41369 0.6337 0.45257 0.0
O41 O 0.44699 0.66319 0.49304 0.0
O42 O 0.95485 0.63566 0.49817 0.0
Zn43 Zn 0.61244 0.61179 0.38444 0.0
N44 N 0.75562 0.65633 0.60605 0.0
C45 C 0.6513 0.64212 0.73274 0.0
C46 C 0.69858 0.63025 0.65428 0.0
C47 C 0.769 0.69385 0.6348 0.0
N48 N 0.66281 0.67967 0.76041 0.0
C49 C 0.7209 0.70597 0.71407 0.0
O50 O 0.65646 0.668 0.36355 0.0
C51 C 0.72457 0.69137 0.36944 0.0
O52 O 0.79084 0.68207 0.41021 0.0
H53 H 0.68882 0.60047 0.63222 0.0
H54 H 0.81425 0.71426 0.59549 0.0
C55 C 0.57512 0.5728 0.23414 0.0
C56 C 0.59776 0.55203 0.15724 0.0
C57 C 0.75914 0.55571 0.17175 0.0
C58 C 0.73593 0.57591 0.24833 0.0
N59 N 0.64452 0.58407 0.27787 0.0
N60 N 0.68988 0.54431 0.12818 0.0
H61 H 0.50342 0.58058 0.25865 0.0
C62 C 0.01613 0.62627 0.43542 0.0
O63 O -0.011 0.61712 0.36314 0.0
O64 O 0.4702 0.60974 0.40921 0.0
H65 H 0.79013 0.58512 0.28398 0.0
H66 H 0.6051 0.62174 0.77115 0.0
H67 H 0.83162 0.54907 0.14713 0.0
Zn68 Zn 0.61376 0.94002 0.8855 0.0
C69 C 0.7848 0.99955 1.01269 0.0
N70 N 0.71253 1.02478 1.02917 0.0
C71 C 0.64482 1.00518 0.99824 0.0
N72 N 0.6738 0.96959 0.96541 0.0
N73 N 0.76219 0.96532 0.9764 0.0
C74 C 0.01792 0.91946 0.94253 0.0
O75 O -0.00638 0.91703 0.86695 0.0
O76 O 0.4714 0.93744 0.91032 0.0
Zn77 Zn 0.81558 0.9135 0.99774 0.0
N78 N 0.64275 0.96814 0.77946 0.0
C79 C 0.75722 0.99709 0.67483 0.0
C80 C 0.73407 0.97644 0.75037 0.0
C81 C 0.57326 0.97952 0.73591 0.0
N82 N 0.68808 1.0084 0.63122 0.0
C83 C 0.59608 1.00011 0.65906 0.0
O84 O 0.7968 0.86993 0.91209 0.0
C85 C 0.73212 0.86112 0.86907 0.0
O86 O 0.66465 0.88478 0.8626 0.0
H87 H 0.78826 0.96719 0.78592 0.0
H88 H 0.50127 0.97315 0.76203 0.0
C89 C 0.76478 0.85828 0.13715 0.0
C90 C 0.71376 0.84622 0.21509 0.0
C91 C 0.64289 0.91002 0.23216 0.0
C92 C 0.69308 0.92182 0.15512 0.0
N93 N 0.7522 0.89576 0.10826 0.0
N94 N 0.65373 0.87255 0.25994 0.0
H95 H 0.81172 0.83787 0.09894 0.0
C96 C 0.41194 0.93154 0.97636 0.0
O97 O 0.44105 0.92608 1.04922 0.0
O98 O 0.95417 0.91868 1.00685 0.0
H99 H 0.68393 0.95154 0.13308 0.0
H100 H 0.8296 1.00408 0.65094 0.0
H101 H 0.59505 0.93041 0.2694 0.0
Zn102 Zn 0.29957 0.44033 0.73148 0.0
C103 C 0.1264 0.50036 0.60861 0.0
N104 N 0.19914 0.52553 0.59344 0.0
C105 C 0.26754 0.5049 0.62141 0.0
N106 N 0.23825 0.46913 0.65178 0.0
N107 N 0.14945 0.46549 0.64193 0.0
C108 C 0.89587 0.42581 0.68042 0.0
O109 O 0.92298 0.43499 0.75269 0.0
O110 O 0.44181 0.44241 0.70655 0.0
Zn111 Zn 0.09679 0.41339 0.62198 0.0
N112 N 0.26765 0.46795 0.83819 0.0
C113 C 0.1531 0.49621 0.9445 0.0
C114 C 0.17625 0.47607 0.86784 0.0
C115 C 0.33709 0.47918 0.8819 0.0
N116 N 0.2224 0.50757 0.98805 0.0
C117 C 0.31451 0.49988 0.95889 0.0
O118 O 0.12115 0.37005 0.70576 0.0
C119 C 0.18749 0.36074 0.74643 0.0
O120 O 0.25563 0.38411 0.75227 0.0
H121 H 0.12201 0.4669 0.8322 0.0
H122 H 0.40878 0.47142 0.85729 0.0
C123 C 0.14316 0.35831 0.48115 0.0
C124 C 0.19138 0.34618 0.40193 0.0
C125 C 0.26119 0.40999 0.38342 0.0
C126 C 0.21379 0.42187 0.46183 0.0
N127 N 0.15659 0.39582 0.50995 0.0
N128 N 0.24963 0.37246 0.35569 0.0
H129 H 0.09779 0.33791 0.52038 0.0
C130 C 0.49829 0.4184 0.66331 0.0
O131 O 0.46496 0.38884 0.62306 0.0
O132 O -0.04283 0.4164 0.61769 0.0
H133 H 0.2236 0.45164 0.48393 0.0
H134 H 0.08063 0.50282 0.96921 0.0
H135 H 0.30752 0.43036 0.3451 0.0
C136 C 0.67069 0.12568 0.07496 0.0
C137 C 0.60171 0.12204 0.14676 0.0
H138 H 0.81726 0.13159 1.02678 0.0
C139 C 0.63037 0.12047 0.22675 0.0
H140 H 0.6512 0.12654 1.01237 0.0
C141 C 0.72512 0.12362 0.23505 0.0
C142 C 0.79402 0.12815 0.16359 0.0
H143 H 0.57942 0.11739 0.28354 0.0
H144 H 0.74417 0.12275 0.29781 0.0
C145 C 0.76588 0.12856 0.08326 0.0
C146 C 0.24634 0.65016 0.51164 0.0
C147 C 0.31133 0.62956 0.45252 0.0
H148 H 0.10185 0.66479 0.55338 0.0
C149 C 0.27779 0.60615 0.39059 0.0
H150 H 0.26985 0.66817 0.5605 0.0
C151 C 0.18187 0.60475 0.38565 0.0
C152 C 0.11711 0.6261 0.44348 0.0
H153 H 0.32587 0.58975 0.34423 0.0
H154 H 0.1585 0.58709 0.33617 0.0
C155 C 0.15012 0.64814 0.50766 0.0
C156 C 0.18705 0.92853 0.88093 0.0
C157 C 0.11814 0.924 0.95238 0.0
H158 H 0.33275 0.93475 0.83244 0.0
C159 C 0.14628 0.9236 1.03272 0.0
H160 H 0.168 0.9294 0.81817 0.0
C161 C 0.24148 0.92647 1.04102 0.0
C162 C 0.31046 0.93011 0.96922 0.0
H163 H 0.09491 0.92056 0.0892 0.0
H164 H 0.26096 0.92562 0.10361 0.0
C165 C 0.28179 0.93168 0.88922 0.0
C166 C 0.76185 0.40388 0.60827 0.0
C167 C 0.79489 0.42598 0.67235 0.0
H168 H 0.64209 0.38381 0.55552 0.0
C169 C 0.73016 0.44741 0.73007 0.0
H170 H 0.8101 0.38718 0.56263 0.0
C171 C 0.63425 0.44602 0.72512 0.0
C172 C 0.60067 0.42254 0.66331 0.0
H173 H 0.75356 0.46511 0.77946 0.0
H174 H 0.58618 0.46247 0.77141 0.0
C175 C 0.66563 0.40187 0.60429 0.0
C176 C 0.47506 0.05863 0.50407 0.0
C177 C 0.38866 0.03878 0.50782 0.0
H178 H 0.60699 0.06217 0.54895 0.0
C179 C 0.37058 1.00619 0.56273 0.0
H180 H 0.49122 0.08446 0.46449 0.0
C181 C 0.43709 0.99354 0.61193 0.0
C182 C 0.52349 1.01338 0.60818 0.0
H183 H 0.30517 0.98999 0.56705 0.0
H184 H 0.42094 0.9677 0.6515 0.0
C185 C 0.54157 0.04597 0.55327 0.0
C186 C 0.47983 0.52167 0.97058 0.0
C187 C 0.38768 0.51304 1.0092 0.0
H188 H 0.61738 0.54078 0.98685 0.0
C189 C 0.36493 0.51768 0.09725 0.0
H190 H 0.49993 0.51955 0.9028 0.0
C191 C 0.43249 0.5302 0.14555 0.0
C192 C 0.52463 0.53883 0.10693 0.0
H193 H 0.29494 0.51109 0.12928 0.0
H194 H 0.41239 0.53232 0.21333 0.0
C195 C 0.54739 0.53418 1.01888 0.0
C196 C 0.95428 1.01099 0.97659 0.0
C197 C 0.87432 1.00913 1.03787 0.0
H198 H 0.09882 0.02774 0.9498 0.0
C199 C 0.87585 1.0247 0.119 0.0
H200 H 0.95257 1.00065 0.91271 0.0
C201 C -0.04213 0.04117 0.13941 0.0
C202 C 0.03783 0.04303 0.07813 0.0
H203 H 0.81333 1.02442 0.1662 0.0
H204 H -0.04042 0.0515 0.20329 0.0
C205 C 0.03629 0.02746 0.997 0.0
C206 C -0.0416 0.51722 0.64275 0.0
C207 C 0.03707 0.50985 0.58189 0.0
H208 H 0.81559 0.53733 0.66588 0.0
C209 C 0.03493 0.51925 0.49703 0.0
H210 H -0.03939 0.51176 0.70899 0.0
C211 C 0.95355 0.53483 0.47285 0.0
C212 C 0.87488 0.5422 0.53371 0.0
H213 H 0.09636 0.51472 0.44972 0.0
H214 H 0.95134 0.54029 0.40661 0.0
C215 C 0.87703 0.5328 0.61856 0.0
C216 C 0.10626 0.26423 0.85833 0.0
C217 C 0.19262 0.24661 0.86722 0.0
H218 H 0.0366 0.31403 0.81087 0.0
C219 C 0.27597 0.26683 0.83699 0.0
H220 H 0.04106 0.24892 0.88017 0.0
C221 C 0.27353 0.30396 0.79887 0.0
C222 C 0.18763 0.32141 0.78795 0.0
H223 H 0.34344 0.25378 0.84271 0.0
H224 H 0.33936 0.31868 0.77629 0.0
C225 C 0.10381 0.30118 0.81799 0.0
C226 C 0.81339 0.76378 0.75833 0.0
C227 C 0.72708 0.74681 0.74721 0.0
H228 H 0.88297 0.81319 0.80784 0.0
C229 C 0.64395 0.76779 0.77502 0.0
H230 H 0.87835 0.74782 0.73829 0.0
C231 C 0.64652 0.80506 0.81313 0.0
C232 C 0.73224 0.82186 0.82652 0.0
H233 H 0.57657 0.75519 0.76758 0.0
H234 H 0.58079 0.82033 0.83401 0.0
C235 C 0.81589 0.80087 0.79872 0.0
C236 C 0.80587 0.78789 0.25765 0.0
C237 C 0.71952 0.80551 0.24867 0.0
H238 H 0.87549 0.7381 0.30516 0.0
C239 C 0.63616 0.78527 0.27879 0.0
H240 H 0.87107 0.80322 0.23589 0.0
C241 C 0.63858 0.74813 0.3169 0.0
C242 C 0.72446 0.7307 0.32792 0.0
H243 H 0.5687 0.79831 0.27302 0.0
H244 H 0.57274 0.73341 0.33941 0.0
C245 C 0.80829 0.75094 0.29797 0.0
C246 C 0.2683 0.28436 0.34092 0.0
C247 C 0.18517 0.30535 0.36875 0.0
H248 H 0.33142 0.23182 0.2819 0.0
C249 C 0.09886 0.28839 0.35763 0.0
H250 H 0.33569 0.29695 0.34835 0.0
C251 C 0.09633 0.25129 0.31723 0.0
C252 C 0.17996 0.2303 0.28942 0.0
H253 H 0.0339 0.30435 0.37769 0.0
H254 H 0.02924 0.23899 0.30812 0.0
C255 C 0.2657 0.2471 0.3028 0.0
C256 C 0.39525 0.03503 1.0011 0.0
C257 C 0.36448 0.03716 0.08863 0.0
H258 H 0.51089 1.02308 0.90293 0.0
C259 C 0.42499 0.02798 0.1456 0.0
H260 H 0.3481 0.04184 0.95657 0.0
C261 C 0.5169 1.01712 0.11491 0.0
C262 C 0.54766 1.01498 1.02738 0.0
H263 H 0.40126 0.02906 0.21307 0.0
H264 H 0.56405 1.0103 0.15943 0.0
C265 C 0.48715 1.02416 0.97041 0.0
C266 C 0.39645 0.55394 0.60424 0.0
C267 C 0.36566 0.51498 0.59473 0.0
H268 H 0.51142 0.59454 0.57951 0.0
C269 C 0.42489 0.48731 0.54719 0.0
H270 H 0.35052 0.57588 0.63897 0.0
C271 C 0.51548 0.49814 0.51163 0.0
C272 C 0.54627 0.5371 0.52112 0.0
H273 H 0.40049 0.45754 0.53636 0.0
H274 H 0.5614 0.4762 0.47688 0.0
C275 C 0.48704 0.56477 0.56867 0.0
loop_
_geom_bond_atom_site_label_1
_geom_bond_atom_site_label_2
_geom_bond_distance
_geom_bond_site_symmetry_2
_ccdc_geom_bond_type
Zn0 N4 2.020 . S
Zn0 O8 2.019 . S
Zn0 N10 2.119 . S
Zn0 O18 1.975 . S
C1 N2 1.334 . S
C1 N5 1.336 . S
N2 C1 1.334 . S
N2 C3 1.334 . S
C3 N2 1.334 . S
C3 N4 1.336 . S
N4 Zn0 2.020 . S
N4 C3 1.336 . S
N4 N5 1.354 . S
N5 C1 1.336 . S
N5 N4 1.354 . S
N5 Zn9 2.020 . S
C6 O7 1.244 . S
C6 O30 1.257 . S
O7 C6 1.244 . S
O8 Zn0 2.019 . S
O8 C28 1.257 . S
Zn9 N5 2.020 . S
Zn9 O16 1.975 . S
Zn9 N25 2.119 . S
Zn9 O30 2.019 1_455 S
N10 Zn0 2.119 . S
N10 C12 1.334 . S
N10 C13 1.328 . S
C11 C12 1.391 . S
C11 N14 1.329 . S
C11 H32 0.930 . S
C12 N10 1.334 . S
C12 C11 1.391 . S
C12 H19 0.930 . S
C13 N10 1.328 . S
C13 C15 1.392 . S
C13 H20 0.930 . S
N14 C11 1.329 . S
N14 C15 1.331 . S
C15 C13 1.392 . S
C15 N14 1.331 . S
O16 Zn9 1.975 . S
O16 C17 1.252 . S
C17 O16 1.252 . S
C17 O18 1.252 . S
O18 Zn0 1.975 . S
O18 C17 1.252 . S
H19 C12 0.930 . S
H20 C13 0.930 . S
C21 C22 1.392 1_554 S
C21 N25 1.328 . S
C21 H27 0.930 . S
C22 C21 1.392 1_556 S
C22 N26 1.331 . S
C23 C24 1.391 1_556 S
C23 N26 1.329 . S
C23 H33 0.930 . S
C24 C23 1.391 1_554 S
C24 N25 1.334 . S
C24 H31 0.930 . S
N25 Zn9 2.119 . S
N25 C21 1.328 . S
N25 C24 1.334 . S
N26 C22 1.331 . S
N26 C23 1.329 . S
H27 C21 0.930 . S
C28 O8 1.257 . S
C28 O29 1.244 . S
O29 C28 1.244 . S
O30 C6 1.257 . S
O30 Zn9 2.019 1_655 S
H31 C24 0.930 . S
H32 C11 0.930 . S
H33 C23 0.930 . S
Zn34 N38 2.020 . S
Zn34 O42 2.019 1_655 S
Zn34 N44 2.119 . S
Zn34 O52 1.975 . S
C35 N36 1.334 . S
C35 N39 1.336 . S
N36 C35 1.334 . S
N36 C37 1.334 . S
C37 N36 1.334 . S
C37 N38 1.336 . S
N38 Zn34 2.020 . S
N38 C37 1.336 . S
N38 N39 1.354 . S
N39 C35 1.336 . S
N39 N38 1.354 . S
N39 Zn43 2.020 . S
C40 O41 1.244 . S
C40 O64 1.257 . S
O41 C40 1.244 . S
O42 Zn34 2.019 1_455 S
O42 C62 1.257 . S
Zn43 N39 2.020 . S
Zn43 O50 1.975 . S
Zn43 N59 2.119 . S
Zn43 O64 2.019 . S
N44 Zn34 2.119 . S
N44 C46 1.334 . S
N44 C47 1.328 . S
C45 C46 1.391 . S
C45 N48 1.329 . S
C45 H66 0.930 . S
C46 N44 1.334 . S
C46 C45 1.391 . S
C46 H53 0.930 . S
C47 N44 1.328 . S
C47 C49 1.392 . S
C47 H54 0.930 . S
N48 C45 1.329 . S
N48 C49 1.331 . S
C49 C47 1.392 . S
C49 N48 1.331 . S
O50 Zn43 1.975 . S
O50 C51 1.252 . S
C51 O50 1.252 . S
C51 O52 1.252 . S
O52 Zn34 1.975 . S
O52 C51 1.252 . S
H53 C46 0.930 . S
H54 C47 0.930 . S
C55 C56 1.392 . S
C55 N59 1.328 . S
C55 H61 0.930 . S
C56 C55 1.392 . S
C56 N60 1.331 . S
C57 C58 1.391 . S
C57 N60 1.329 . S
C57 H67 0.930 . S
C58 C57 1.391 . S
C58 N59 1.334 . S
C58 H65 0.930 . S
N59 Zn43 2.119 . S
N59 C55 1.328 . S
N59 C58 1.334 . S
N60 C56 1.331 . S
N60 C57 1.329 . S
H61 C55 0.930 . S
C62 O42 1.257 . S
C62 O63 1.244 . S
O63 C62 1.244 . S
O64 C40 1.257 . S
O64 Zn43 2.019 . S
H65 C58 0.930 . S
H66 C45 0.930 . S
H67 C57 0.930 . S
Zn68 N72 2.020 . S
Zn68 O76 2.019 . S
Zn68 N78 2.119 . S
Zn68 O86 1.975 . S
C69 N70 1.334 . S
C69 N73 1.336 . S
N70 C69 1.334 . S
N70 C71 1.334 . S
C71 N70 1.334 . S
C71 N72 1.336 . S
N72 Zn68 2.020 . S
N72 C71 1.336 . S
N72 N73 1.354 . S
N73 C69 1.336 . S
N73 N72 1.354 . S
N73 Zn77 2.020 . S
C74 O75 1.244 . S
C74 O98 1.257 . S
O75 C74 1.244 . S
O76 Zn68 2.019 . S
O76 C96 1.257 . S
Zn77 N73 2.020 . S
Zn77 O84 1.975 . S
Zn77 N93 2.119 . S
Zn77 O98 2.019 1_655 S
N78 Zn68 2.119 . S
N78 C80 1.334 . S
N78 C81 1.328 . S
C79 C80 1.391 . S
C79 N82 1.329 . S
C79 H100 0.930 . S
C80 N78 1.334 . S
C80 C79 1.391 . S
C80 H87 0.930 . S
C81 N78 1.328 . S
C81 C83 1.392 . S
C81 H88 0.930 . S
N82 C79 1.329 . S
N82 C83 1.331 . S
C83 C81 1.392 . S
C83 N82 1.331 . S
O84 Zn77 1.975 . S
O84 C85 1.252 . S
C85 O84 1.252 . S
C85 O86 1.252 . S
O86 Zn68 1.975 . S
O86 C85 1.252 . S
H87 C80 0.930 . S
H88 C81 0.930 . S
C89 C90 1.392 1_556 S
C89 N93 1.328 . S
C89 H95 0.930 . S
C90 C89 1.392 1_554 S
C90 N94 1.331 . S
C91 C92 1.391 1_554 S
C91 N94 1.329 . S
C91 H101 0.930 . S
C92 C91 1.391 1_556 S
C92 N93 1.334 . S
C92 H99 0.930 . S
N93 Zn77 2.119 . S
N93 C89 1.328 . S
N93 C92 1.334 . S
N94 C90 1.331 . S
N94 C91 1.329 . S
H95 C89 0.930 . S
C96 O76 1.257 . S
C96 O97 1.244 . S
O97 C96 1.244 . S
O98 C74 1.257 . S
O98 Zn77 2.019 1_455 S
H99 C92 0.930 . S
H100 C79 0.930 . S
H101 C91 0.930 . S
Zn102 N106 2.020 . S
Zn102 O110 2.019 . S
Zn102 N112 2.119 . S
Zn102 O120 1.975 . S
C103 N104 1.334 . S
C103 N107 1.336 . S
N104 C103 1.334 . S
N104 C105 1.334 . S
C105 N104 1.334 . S
C105 N106 1.336 . S
N106 Zn102 2.020 . S
N106 C105 1.336 . S
N106 N107 1.354 . S
N107 C103 1.336 . S
N107 N106 1.354 . S
N107 Zn111 2.020 . S
C108 O109 1.244 . S
C108 O132 1.257 . S
O109 C108 1.244 . S
O110 Zn102 2.019 . S
O110 C130 1.257 . S
Zn111 N107 2.020 . S
Zn111 O118 1.975 . S
Zn111 N127 2.119 . S
Zn111 O132 2.019 1_455 S
N112 Zn102 2.119 . S
N112 C114 1.334 . S
N112 C115 1.328 . S
C113 C114 1.391 . S
C113 N116 1.329 . S
C113 H134 0.930 . S
C114 N112 1.334 . S
C114 C113 1.391 . S
C114 H121 0.930 . S
C115 N112 1.328 . S
C115 C117 1.392 . S
C115 H122 0.930 . S
N116 C113 1.329 . S
N116 C117 1.331 . S
C117 C115 1.392 . S
C117 N116 1.331 . S
O118 Zn111 1.975 . S
O118 C119 1.252 . S
C119 O118 1.252 . S
C119 O120 1.252 . S
O120 Zn102 1.975 . S
O120 C119 1.252 . S
H121 C114 0.930 . S
H122 C115 0.930 . S
C123 C124 1.392 . S
C123 N127 1.328 . S
C123 H129 0.930 . S
C124 C123 1.392 . S
C124 N128 1.331 . S
C125 C126 1.391 . S
C125 N128 1.329 . S
C125 H135 0.930 . S
C126 C125 1.391 . S
C126 N127 1.334 . S
C126 H133 0.930 . S
N127 Zn111 2.119 . S
N127 C123 1.328 . S
N127 C126 1.334 . S
N128 C124 1.331 . S
N128 C125 1.329 . S
H129 C123 0.930 . S
C130 O110 1.257 . S
C130 O131 1.244 . S
O131 C130 1.244 . S
O132 C108 1.257 . S
O132 Zn111 2.019 1_655 S
H133 C126 0.930 . S
H134 C113 0.930 . S
H135 C125 0.930 . S
C136 C137 1.387 . S
C136 H140 0.950 . S
C136 C145 1.390 . S
C137 C136 1.387 . S
C137 C139 1.387 . S
H138 C145 0.950 . S
C139 C137 1.387 . S
C139 C141 1.390 . S
C139 H143 0.950 . S
H140 C136 0.950 . S
C141 C139 1.390 . S
C141 C142 1.387 . S
C141 H144 0.950 . S
C142 C141 1.387 . S
C142 C145 1.387 . S
H143 C139 0.950 . S
H144 C141 0.950 . S
C145 C136 1.390 . S
C145 H138 0.950 . S
C145 C142 1.387 . S
C146 C147 1.387 . S
C146 H150 0.950 . S
C146 C155 1.390 . S
C147 C146 1.387 . S
C147 C149 1.387 . S
H148 C155 0.950 . S
C149 C147 1.387 . S
C149 C151 1.390 . S
C149 H153 0.950 . S
H150 C146 0.950 . S
C151 C149 1.390 . S
C151 C152 1.387 . S
C151 H154 0.950 . S
C152 C151 1.387 . S
C152 C155 1.387 . S
H153 C149 0.950 . S
H154 C151 0.950 . S
C155 C146 1.390 . S
C155 H148 0.950 . S
C155 C152 1.387 . S
C156 C157 1.387 . S
C156 H160 0.950 . S
C156 C165 1.390 . S
C157 C156 1.387 . S
C157 C159 1.387 . S
H158 C165 0.950 . S
C159 C157 1.387 . S
C159 C161 1.390 . S
C159 H163 0.950 . S
H160 C156 0.950 . S
C161 C159 1.390 . S
C161 C162 1.387 . S
C161 H164 0.950 . S
C162 C161 1.387 . S
C162 C165 1.387 . S
H163 C159 0.950 . S
H164 C161 0.950 . S
C165 C156 1.390 . S
C165 H158 0.950 . S
C165 C162 1.387 . S
C166 C167 1.387 . S
C166 H170 0.950 . S
C166 C175 1.390 . S
C167 C166 1.387 . S
C167 C169 1.387 . S
H168 C175 0.950 . S
C169 C167 1.387 . S
C169 C171 1.390 . S
C169 H173 0.950 . S
H170 C166 0.950 . S
C171 C169 1.390 . S
C171 C172 1.387 . S
C171 H174 0.950 . S
C172 C171 1.387 . S
C172 C175 1.387 . S
H173 C169 0.950 . S
H174 C171 0.950 . S
C175 C166 1.390 . S
C175 H168 0.950 . S
C175 C172 1.387 . S
C176 C177 1.387 . S
C176 H180 0.950 . S
C176 C185 1.390 . S
C177 C176 1.387 . S
C177 C179 1.387 1_545 S
H178 C185 0.950 . S
C179 C177 1.387 1_565 S
C179 C181 1.390 . S
C179 H183 0.950 . S
H180 C176 0.950 . S
C181 C179 1.390 . S
C181 C182 1.387 . S
C181 H184 0.950 . S
C182 C181 1.387 . S
C182 C185 1.387 1_565 S
H183 C179 0.950 . S
H184 C181 0.950 . S
C185 C176 1.390 . S
C185 H178 0.950 . S
C185 C182 1.387 1_545 S
C186 C187 1.387 . S
C186 H190 0.950 . S
C186 C195 1.390 . S
C187 C186 1.387 . S
C187 C189 1.387 1_556 S
H188 C195 0.950 . S
C189 C187 1.387 1_554 S
C189 C191 1.390 . S
C189 H193 0.950 . S
H190 C186 0.950 . S
C191 C189 1.390 . S
C191 C192 1.387 . S
C191 H194 0.950 . S
C192 C191 1.387 . S
C192 C195 1.387 1_554 S
H193 C189 0.950 . S
H194 C191 0.950 . S
C195 C186 1.390 . S
C195 H188 0.950 . S
C195 C192 1.387 1_556 S
C196 C197 1.387 . S
C196 H200 0.950 . S
C196 C205 1.390 1_665 S
C197 C196 1.387 . S
C197 C199 1.387 1_556 S
H198 C205 0.950 . S
C199 C197 1.387 1_554 S
C199 C201 1.390 1_665 S
C199 H203 0.950 . S
H200 C196 0.950 . S
C201 C199 1.390 1_445 S
C201 C202 1.387 . S
C201 H204 0.950 . S
C202 C201 1.387 . S
C202 C205 1.387 1_554 S
H203 C199 0.950 . S
H204 C201 0.950 . S
C205 C196 1.390 1_445 S
C205 H198 0.950 . S
C205 C202 1.387 1_556 S
C206 C207 1.387 . S
C206 H210 0.950 . S
C206 C215 1.390 1_455 S
C207 C206 1.387 . S
C207 C209 1.387 . S
H208 C215 0.950 . S
C209 C207 1.387 . S
C209 C211 1.390 1_455 S
C209 H213 0.950 . S
H210 C206 0.950 . S
C211 C209 1.390 1_655 S
C211 C212 1.387 . S
C211 H214 0.950 . S
C212 C211 1.387 . S
C212 C215 1.387 . S
H213 C209 0.950 . S
H214 C211 0.950 . S
C215 C206 1.390 1_655 S
C215 H208 0.950 . S
C215 C212 1.387 . S
C216 C217 1.387 . S
C216 H220 0.950 . S
C216 C225 1.390 . S
C217 C216 1.387 . S
C217 C219 1.387 . S
H218 C225 0.950 . S
C219 C217 1.387 . S
C219 C221 1.390 . S
C219 H223 0.950 . S
H220 C216 0.950 . S
C221 C219 1.390 . S
C221 C222 1.387 . S
C221 H224 0.950 . S
C222 C221 1.387 . S
C222 C225 1.387 . S
H223 C219 0.950 . S
H224 C221 0.950 . S
C225 C216 1.390 . S
C225 H218 0.950 . S
C225 C222 1.387 . S
C226 C227 1.387 . S
C226 H230 0.950 1_655 S
C226 C235 1.390 . S
C227 C226 1.387 . S
C227 C229 1.387 . S
H228 C235 0.950 . S
C229 C227 1.387 . S
C229 C231 1.390 . S
C229 H233 0.950 . S
H230 C226 0.950 1_455 S
C231 C229 1.390 . S
C231 C232 1.387 . S
C231 H234 0.950 . S
C232 C231 1.387 . S
C232 C235 1.387 . S
H233 C229 0.950 . S
H234 C231 0.950 . S
C235 C226 1.390 . S
C235 H228 0.950 . S
C235 C232 1.387 . S
C236 C237 1.387 . S
C236 H240 0.950 . S
C236 C245 1.390 . S
C237 C236 1.387 . S
C237 C239 1.387 . S
H238 C245 0.950 . S
C239 C237 1.387 . S
C239 C241 1.390 . S
C239 H243 0.950 . S
H240 C236 0.950 . S
C241 C239 1.390 . S
C241 C242 1.387 . S
C241 H244 0.950 . S
C242 C241 1.387 . S
C242 C245 1.387 . S
H243 C239 0.950 . S
H244 C241 0.950 . S
C245 C236 1.390 . S
C245 H238 0.950 . S
C245 C242 1.387 . S
C246 C247 1.387 . S
C246 H250 0.950 . S
C246 C255 1.390 . S
C247 C246 1.387 . S
C247 C249 1.387 . S
H248 C255 0.950 . S
C249 C247 1.387 . S
C249 C251 1.390 . S
C249 H253 0.950 . S
H250 C246 0.950 . S
C251 C249 1.390 . S
C251 C252 1.387 . S
C251 H254 0.950 . S
C252 C251 1.387 . S
C252 C255 1.387 . S
H253 C249 0.950 . S
H254 C251 0.950 . S
C255 C246 1.390 . S
C255 H248 0.950 . S
C255 C252 1.387 . S
C256 C257 1.387 1_556 S
C256 H260 0.950 . S
C256 C265 1.397 . S
C257 C256 1.387 1_554 S
C257 C259 1.381 1_545 S
H258 C265 0.950 . S
C259 C257 1.381 1_565 S
C259 C261 1.397 . S
C259 H263 0.950 . S
H260 C256 0.950 . S
C261 C259 1.397 . S
C261 C262 1.387 1_554 S
C261 H264 0.950 . S
C262 C261 1.387 1_556 S
C262 C265 1.381 1_565 S
H263 C259 0.950 . S
H264 C261 0.950 . S
C265 C256 1.397 . S
C265 H258 0.950 . S
C265 C262 1.381 1_545 S
C266 C267 1.387 . S
C266 H270 0.950 . S
C266 C275 1.390 . S
C267 C266 1.387 . S
C267 C269 1.387 . S
H268 C275 0.950 . S
C269 C267 1.387 . S
C269 C271 1.390 . S
C269 H273 0.950 . S
H270 C266 0.950 . S
C271 C269 1.390 . S
C271 C272 1.387 . S
C271 H274 0.950 . S
C272 C271 1.387 . S
C272 C275 1.387 . S
H273 C269 0.950 . S
H274 C271 0.950 . S
C275 C266 1.390 . S
C275 H268 0.950 . S
C275 C272 1.387 . S
C137 C28 1.145 . S
C142 C6 1.133 . S
C147 C40 1.145 . S
C152 C62 1.133 . S
C157 C74 1.133 . S
C162 C96 1.145 . S
C167 C108 1.129 . S
C172 C130 1.144 . S
C177 C15 1.762 . S
C182 C83 1.762 . S
C187 C117 1.762 . S
C192 C56 1.762 . S
C197 C69 1.998 . S
C202 C1 1.998 . S
C207 C103 1.997 . S
C212 C37 1.997 . S
C217 C22 1.593 . S
C222 C119 1.843 . S
C227 C49 1.595 . S
C232 C85 1.843 . S
C237 C90 1.596 . S
C242 C51 1.844 . S
C247 C124 1.593 . S
C252 C17 1.842 . S
C257 C3 1.650 . S
C262 C71 1.650 . S
C267 C105 1.648 . S
C272 C35 1.648 . S
