# Generated by pormake.
# Topology wgz, (6)-cn, num edge types: 1
# Building blocks:
#     Node 0, Type 0, BuildingBlock: VOLQOD_clean_sbu_1, # of connection points: 6
#     Node 1, Type 0, BuildingBlock: VOLQOD_clean_sbu_1, # of connection points: 6
#     Node 2, Type 0, BuildingBlock: VOLQOD_clean_sbu_1, # of connection points: 6
#     Node 3, Type 0, BuildingBlock: VOLQOD_clean_sbu_1, # of connection points: 6
#     Node 4, Type 0, BuildingBlock: VOLQOD_clean_sbu_1, # of connection points: 6
#     Node 5, Type 0, BuildingBlock: VOLQOD_clean_sbu_1, # of connection points: 6
#     Node 6, Type 0, BuildingBlock: VOLQOD_clean_sbu_1, # of connection points: 6
#     Node 7, Type 0, BuildingBlock: VOLQOD_clean_sbu_1, # of connection points: 6
#     Node 8, Type 0, BuildingBlock: VOLQOD_clean_sbu_1, # of connection points: 6
#     Node 9, Type 0, BuildingBlock: VOLQOD_clean_sbu_1, # of connection points: 6
#     Node 10, Type 0, BuildingBlock: VOLQOD_clean_sbu_1, # of connection points: 6
#     Node 11, Type 0, BuildingBlock: VOLQOD_clean_sbu_1, # of connection points: 6
#     Node 12, Type 0, BuildingBlock: VOLQOD_clean_sbu_1, # of connection points: 6
#     Node 13, Type 0, BuildingBlock: VOLQOD_clean_sbu_1, # of connection points: 6
#     Node 14, Type 0, BuildingBlock: VOLQOD_clean_sbu_1, # of connection points: 6
#     Node 15, Type 0, BuildingBlock: VOLQOD_clean_sbu_1, # of connection points: 6
#     Edge 16, Type (0, 0), BuildingBlock: ZUJKAS_clean_linker_0, # of connection points: 2
#     Edge 17, Type (0, 0), BuildingBlock: ZUJKAS_clean_linker_0, # of connection points: 2
#     Edge 18, Type (0, 0), BuildingBlock: ZUJKAS_clean_linker_0, # of connection points: 2
#     Edge 19, Type (0, 0), BuildingBlock: ZUJKAS_clean_linker_0, # of connection points: 2
#     Edge 20, Type (0, 0), BuildingBlock: ZUJKAS_clean_linker_0, # of connection points: 2
#     Edge 21, Type (0, 0), BuildingBlock: ZUJKAS_clean_linker_0, # of connection points: 2
#     Edge 22, Type (0, 0), BuildingBlock: ZUJKAS_clean_linker_0, # of connection points: 2
#     Edge 23, Type (0, 0), BuildingBlock: ZUJKAS_clean_linker_0, # of connection points: 2
#     Edge 24, Type (0, 0), BuildingBlock: ZUJKAS_clean_linker_0, # of connection points: 2
#     Edge 25, Type (0, 0), BuildingBlock: ZUJKAS_clean_linker_0, # of connection points: 2
#     Edge 26, Type (0, 0), BuildingBlock: ZUJKAS_clean_linker_0, # of connection points: 2
#     Edge 27, Type (0, 0), BuildingBlock: ZUJKAS_clean_linker_0, # of connection points: 2
#     Edge 28, Type (0, 0), BuildingBlock: ZUJKAS_clean_linker_0, # of connection points: 2
#     Edge 29, Type (0, 0), BuildingBlock: ZUJKAS_clean_linker_0, # of connection points: 2
#     Edge 30, Type (0, 0), BuildingBlock: ZUJKAS_clean_linker_0, # of connection points: 2
#     Edge 31, Type (0, 0), BuildingBlock: ZUJKAS_clean_linker_0, # of connection points: 2
#     Edge 32, Type (0, 0), BuildingBlock: ZUJKAS_clean_linker_0, # of connection points: 2
#     Edge 33, Type (0, 0), BuildingBlock: ZUJKAS_clean_linker_0, # of connection points: 2
#     Edge 34, Type (0, 0), BuildingBlock: ZUJKAS_clean_linker_0, # of connection points: 2
#     Edge 35, Type (0, 0), BuildingBlock: ZUJKAS_clean_linker_0, # of connection points: 2
#     Edge 36, Type (0, 0), BuildingBlock: ZUJKAS_clean_linker_0, # of connection points: 2
#     Edge 37, Type (0, 0), BuildingBlock: ZUJKAS_clean_linker_0, # of connection points: 2
#     Edge 38, Type (0, 0), BuildingBlock: ZUJKAS_clean_linker_0, # of connection points: 2
#     Edge 39, Type (0, 0), BuildingBlock: ZUJKAS_clean_linker_0, # of connection points: 2
#     Edge 40, Type (0, 0), BuildingBlock: ZUJKAS_clean_linker_0, # of connection points: 2
#     Edge 41, Type (0, 0), BuildingBlock: ZUJKAS_clean_linker_0, # of connection points: 2
#     Edge 42, Type (0, 0), BuildingBlock: ZUJKAS_clean_linker_0, # of connection points: 2
#     Edge 43, Type (0, 0), BuildingBlock: ZUJKAS_clean_linker_0, # of connection points: 2
#     Edge 44, Type (0, 0), BuildingBlock: ZUJKAS_clean_linker_0, # of connection points: 2
#     Edge 45, Type (0, 0), BuildingBlock: ZUJKAS_clean_linker_0, # of connection points: 2
#     Edge 46, Type (0, 0), BuildingBlock: ZUJKAS_clean_linker_0, # of connection points: 2
#     Edge 47, Type (0, 0), BuildingBlock: ZUJKAS_clean_linker_0, # of connection points: 2
#     Edge 48, Type (0, 0), BuildingBlock: ZUJKAS_clean_linker_0, # of connection points: 2
#     Edge 49, Type (0, 0), BuildingBlock: ZUJKAS_clean_linker_0, # of connection points: 2
#     Edge 50, Type (0, 0), BuildingBlock: ZUJKAS_clean_linker_0, # of connection points: 2
#     Edge 51, Type (0, 0), BuildingBlock: ZUJKAS_clean_linker_0, # of connection points: 2
#     Edge 52, Type (0, 0), BuildingBlock: ZUJKAS_clean_linker_0, # of connection points: 2
#     Edge 53, Type (0, 0), BuildingBlock: ZUJKAS_clean_linker_0, # of connection points: 2
#     Edge 54, Type (0, 0), BuildingBlock: ZUJKAS_clean_linker_0, # of connection points: 2
#     Edge 55, Type (0, 0), BuildingBlock: ZUJKAS_clean_linker_0, # of connection points: 2
#     Edge 56, Type (0, 0), BuildingBlock: ZUJKAS_clean_linker_0, # of connection points: 2
#     Edge 57, Type (0, 0), BuildingBlock: ZUJKAS_clean_linker_0, # of connection points: 2
#     Edge 58, Type (0, 0), BuildingBlock: ZUJKAS_clean_linker_0, # of connection points: 2
#     Edge 59, Type (0, 0), BuildingBlock: ZUJKAS_clean_linker_0, # of connection points: 2
#     Edge 60, Type (0, 0), BuildingBlock: ZUJKAS_clean_linker_0, # of connection points: 2
#     Edge 61, Type (0, 0), BuildingBlock: ZUJKAS_clean_linker_0, # of connection points: 2
#     Edge 62, Type (0, 0), BuildingBlock: ZUJKAS_clean_linker_0, # of connection points: 2
#     Edge 63, Type (0, 0), BuildingBlock: ZUJKAS_clean_linker_0, # of connection points: 2
# Relax obj value: 0.568
# Max RMSD: 0.289
# Mean RMSD: 0.289
data_MOF--net-wgz--node1-VOLQOD_clean_sbu_1--edge1-ZUJKAS_clean_linker_0
_symmetry_space_group_name_H-M    P1
_symmetry_Int_Tables_number       1
_symmetry_cell_setting            triclinic
loop_
_symmetry_equiv_pos_as_xyz
'x, y, z'
_cell_length_a     44.353534
_cell_length_b     44.304504
_cell_length_c     70.576839
_cell_angle_alpha  90.009996
_cell_angle_beta   89.988448
_cell_angle_gamma 90.034122
loop_
_atom_site_label
_atom_site_type_symbol
_atom_site_fract_x
_atom_site_fract_y
_atom_site_fract_z
_atom_type_partial_charge
O0 O 0.16671 0.33698 0.1495 0.0
Zn1 Zn 0.17188 0.34828 0.12131 0.0
O2 O 0.20896 0.37233 0.11827 0.0
Zn3 Zn 0.23953 0.35078 0.10427 0.0
Zn4 Zn 0.22601 0.38316 0.14259 0.0
Zn5 Zn 0.20007 0.40854 0.10436 0.0
O6 O 0.25757 0.37582 0.08305 0.0
O7 O 0.22057 0.40906 0.07933 0.0
O8 O 0.17335 0.31166 0.10295 0.0
O9 O 0.2207 0.31477 0.09249 0.0
O10 O 0.27219 0.33601 0.12124 0.0
O11 O 0.26413 0.36004 0.14833 0.0
O12 O 0.23438 0.42759 0.145 0.0
O13 O 0.13512 0.37449 0.11486 0.0
O14 O 0.21446 0.4451 0.11839 0.0
O15 O 0.15614 0.41404 0.10072 0.0
C16 C 0.1763 0.35183 0.16385 0.0
C17 C 0.24484 0.39676 0.07366 0.0
C18 C 0.27934 0.34161 0.13833 0.0
C19 C 0.19513 0.30176 0.09277 0.0
C20 C 0.22773 0.44949 0.13413 0.0
C21 C 0.13292 0.3997 0.1062 0.0
O22 O 0.19678 0.37179 0.16244 0.0
O23 O 0.6659 0.15059 0.12824 0.0
Zn24 Zn 0.64965 0.1647 0.1023 0.0
O25 O 0.62703 0.20303 0.10566 0.0
Zn26 Zn 0.64652 0.23656 0.09305 0.0
Zn27 Zn 0.62335 0.21432 0.1321 0.0
Zn28 Zn 0.5871 0.19903 0.09492 0.0
O29 O 0.61786 0.26026 0.07647 0.0
O30 O 0.58097 0.22677 0.07299 0.0
O31 O 0.68321 0.17075 0.08184 0.0
O32 O 0.678 0.21989 0.07619 0.0
O33 O 0.66586 0.26565 0.11115 0.0
O34 O 0.64522 0.25265 0.13853 0.0
O35 O 0.58054 0.21962 0.14039 0.0
O36 O 0.6204 0.1312 0.09365 0.0
O37 O 0.55528 0.20948 0.11407 0.0
O38 O 0.57884 0.15694 0.08674 0.0
C39 C 0.65869 0.1597 0.14484 0.0
C40 C 0.59365 0.25151 0.06853 0.0
C41 C 0.66207 0.26992 0.12881 0.0
C42 C 0.69063 0.1947 0.07274 0.0
C43 C 0.55579 0.21702 0.13147 0.0
C44 C 0.59327 0.13222 0.08758 0.0
O45 O 0.64188 0.18247 0.14757 0.0
O46 O 0.83794 0.66019 0.14533 0.0
Zn47 Zn 0.83655 0.64843 0.11706 0.0
O48 O 0.79942 0.62491 0.11205 0.0
Zn49 Zn 0.77599 0.64244 0.09167 0.0
Zn50 Zn 0.77339 0.62235 0.13422 0.0
Zn51 Zn 0.80988 0.58452 0.10445 0.0
O52 O 0.76181 0.61173 0.07247 0.0
O53 O 0.78952 0.57227 0.08059 0.0
O54 O 0.83812 0.68515 0.09868 0.0
O55 O 0.80053 0.67382 0.07884 0.0
O56 O 0.739 0.66279 0.10158 0.0
O57 O 0.73463 0.64512 0.13082 0.0
O58 O 0.76451 0.57926 0.14196 0.0
O59 O 0.87403 0.62204 0.11225 0.0
O60 O 0.79626 0.55431 0.12347 0.0
O61 O 0.85382 0.57964 0.10118 0.0
C62 C 0.81906 0.65525 0.15868 0.0
C63 C 0.77022 0.58462 0.06981 0.0
C64 C 0.72474 0.66103 0.11717 0.0
C65 C 0.8231 0.68995 0.08346 0.0
C66 C 0.77711 0.55474 0.13686 0.0
C67 C 0.87672 0.59552 0.10535 0.0
O68 O 0.79441 0.64136 0.15583 0.0
O69 O 0.32157 0.85479 0.12583 0.0
Zn70 Zn 0.33218 0.84937 0.09747 0.0
O71 O 0.35526 0.8121 0.0944 0.0
Zn72 Zn 0.33215 0.7808 0.08244 0.0
Zn73 Zn 0.36833 0.79697 0.11862 0.0
Zn74 Zn 0.38957 0.81917 0.07821 0.0
O75 O 0.35718 0.7588 0.06299 0.0
O76 O 0.38689 0.7963 0.05377 0.0
O77 O 0.29516 0.84754 0.07942 0.0
O78 O 0.29716 0.79963 0.06955 0.0
O79 O 0.31732 0.75029 0.10106 0.0
O80 O 0.3465 0.75878 0.12597 0.0
O81 O 0.4126 0.78872 0.1192 0.0
O82 O 0.35952 0.88518 0.09035 0.0
O83 O 0.42731 0.80401 0.09075 0.0
O84 O 0.39608 0.86311 0.07381 0.0
C85 C 0.33756 0.84639 0.13999 0.0
C86 C 0.37632 0.76983 0.05147 0.0
C87 C 0.32606 0.74354 0.11769 0.0
C88 C 0.28493 0.82559 0.06946 0.0
C89 C 0.43318 0.79267 0.1069 0.0
C90 C 0.38357 0.88672 0.0804 0.0
O91 O 0.35841 0.82689 0.13838 0.0
O92 O 0.15299 0.65906 0.85533 0.0
Zn93 Zn 0.15763 0.64674 0.88346 0.0
O94 O 0.19668 0.62566 0.88682 0.0
Zn95 Zn 0.22064 0.64257 0.90729 0.0
Zn96 Zn 0.22142 0.62696 0.86403 0.0
Zn97 Zn 0.18911 0.58385 0.89258 0.0
O98 O 0.23462 0.61141 0.92621 0.0
O99 O 0.21232 0.5703 0.91515 0.0
O100 O 0.15588 0.68284 0.90229 0.0
O101 O 0.19716 0.67509 0.91982 0.0
O102 O 0.25802 0.66248 0.89763 0.0
O103 O 0.25787 0.65345 0.86673 0.0
O104 O 0.23443 0.58537 0.85537 0.0
O105 O 0.12223 0.61809 0.88931 0.0
O106 O 0.20256 0.55691 0.87169 0.0
O107 O 0.14585 0.57578 0.89734 0.0
C108 C 0.17125 0.65605 0.84141 0.0
C109 C 0.22953 0.58318 0.92706 0.0
C110 C 0.26968 0.66547 0.8813 0.0
C111 C 0.17312 0.68967 0.91623 0.0
C112 C 0.22247 0.55983 0.85887 0.0
C113 C 0.12172 0.59075 0.89506 0.0
O114 O 0.19716 0.6443 0.84342 0.0
O115 O 0.33254 0.14999 0.87512 0.0
Zn116 Zn 0.34809 0.16281 0.9014 0.0
O117 O 0.36798 0.20276 0.89957 0.0
Zn118 Zn 0.34542 0.23392 0.91303 0.0
Zn119 Zn 0.37168 0.21588 0.87339 0.0
Zn120 Zn 0.40802 0.19997 0.91046 0.0
O121 O 0.37079 0.25444 0.93308 0.0
O122 O 0.41204 0.22598 0.93337 0.0
O123 O 0.31371 0.16528 0.92119 0.0
O124 O 0.3105 0.21492 0.92628 0.0
O125 O 0.3303 0.26678 0.89586 0.0
O126 O 0.35142 0.25543 0.86836 0.0
O127 O 0.4146 0.22092 0.86515 0.0
O128 O 0.37868 0.13031 0.90931 0.0
O129 O 0.43967 0.21292 0.89182 0.0
O130 O 0.4185 0.15776 0.9175 0.0
C131 C 0.33718 0.16181 0.85886 0.0
C132 C 0.39628 0.24744 0.94007 0.0
C133 C 0.33536 0.27278 0.87852 0.0
C134 C 0.30111 0.18811 0.929 0.0
C135 C 0.43922 0.21975 0.87431 0.0
C136 C 0.40553 0.13234 0.91572 0.0
O137 O 0.35213 0.18602 0.85677 0.0
O138 O 0.83374 0.32994 0.85315 0.0
Zn139 Zn 0.82836 0.34058 0.88143 0.0
O140 O 0.7913 0.36481 0.88425 0.0
Zn141 Zn 0.76039 0.34338 0.89785 0.0
Zn142 Zn 0.77404 0.37621 0.85999 0.0
Zn143 Zn 0.80005 0.40044 0.89888 0.0
O144 O 0.74157 0.36837 0.91868 0.0
O145 O 0.77943 0.40007 0.924 0.0
O146 O 0.8262 0.30331 0.89954 0.0
O147 O 0.77891 0.30766 0.9098 0.0
O148 O 0.72793 0.32854 0.88083 0.0
O149 O 0.73486 0.35464 0.85444 0.0
O150 O 0.76702 0.42102 0.85792 0.0
O151 O 0.86515 0.3666 0.88834 0.0
O152 O 0.78522 0.43727 0.88536 0.0
O153 O 0.84406 0.40606 0.90255 0.0
C154 C 0.82281 0.34331 0.83861 0.0
C155 C 0.75438 0.38839 0.92879 0.0
C156 C 0.72006 0.33542 0.86408 0.0
C157 C 0.80409 0.29396 0.90969 0.0
C158 C 0.7728 0.44238 0.86942 0.0
C159 C 0.86731 0.39174 0.89711 0.0
O160 O 0.80191 0.36284 0.83983 0.0
O161 O 0.67228 0.84882 0.87634 0.0
Zn162 Zn 0.66116 0.84399 0.90468 0.0
O163 O 0.63605 0.80768 0.90775 0.0
Zn164 Zn 0.65684 0.77609 0.92123 0.0
Zn165 Zn 0.6246 0.79071 0.88357 0.0
Zn166 Zn 0.60012 0.81795 0.92187 0.0
O167 O 0.63018 0.75704 0.94109 0.0
O168 O 0.59636 0.79334 0.94551 0.0
O169 O 0.69802 0.84087 0.92286 0.0
O170 O 0.69277 0.79378 0.93361 0.0
O171 O 0.67123 0.74321 0.90409 0.0
O172 O 0.64547 0.75138 0.87774 0.0
O173 O 0.58015 0.78434 0.88137 0.0
O174 O 0.63606 0.88152 0.91159 0.0
O175 O 0.56293 0.80868 0.90665 0.0
O176 O 0.59776 0.86178 0.9277 0.0
C177 C 0.65737 0.83919 0.86201 0.0
C178 C 0.60807 0.7682 0.95019 0.0
C179 C 0.66412 0.73577 0.88728 0.0
C180 C 0.70683 0.81881 0.93324 0.0
C181 C 0.55844 0.79427 0.89132 0.0
C182 C 0.61214 0.88456 0.92151 0.0
O183 O 0.63704 0.81912 0.86355 0.0
O184 O 0.67303 0.83584 0.64859 0.0
Zn185 Zn 0.67661 0.85058 0.62087 0.0
O186 O 0.712 0.87762 0.61851 0.0
Zn187 Zn 0.74083 0.8619 0.60055 0.0
Zn188 Zn 0.73327 0.88302 0.6423 0.0
Zn189 Zn 0.69971 0.91678 0.6096 0.0
O190 O 0.75688 0.89365 0.58279 0.0
O191 O 0.72294 0.9297 0.58688 0.0
O192 O 0.68001 0.81581 0.60102 0.0
O193 O 0.72109 0.83023 0.58514 0.0
O194 O 0.77596 0.84305 0.61368 0.0
O195 O 0.77394 0.8634 0.64233 0.0
O196 O 0.73711 0.92668 0.65019 0.0
O197 O 0.63797 0.87449 0.61495 0.0
O198 O 0.70803 0.94877 0.62879 0.0
O199 O 0.65604 0.91788 0.60383 0.0
C200 C 0.6885 0.84337 0.66316 0.0
C201 C 0.74604 0.9193 0.57846 0.0
C202 C 0.78698 0.84678 0.63015 0.0
C203 C 0.6984 0.81297 0.58711 0.0
C204 C 0.72426 0.95013 0.64362 0.0
C205 C 0.63403 0.90044 0.60745 0.0
O206 O 0.71067 0.86145 0.66208 0.0
O207 O 0.17487 0.63558 0.6292 0.0
Zn208 Zn 0.16129 0.64887 0.60234 0.0
O209 O 0.14076 0.68828 0.60431 0.0
Zn210 Zn 0.16449 0.72077 0.59373 0.0
Zn211 Zn 0.13227 0.69896 0.6303 0.0
Zn212 Zn 0.10344 0.68676 0.59037 0.0
O213 O 0.14035 0.746 0.57524 0.0
O214 O 0.10462 0.71306 0.56744 0.0
O215 O 0.1962 0.65277 0.58267 0.0
O216 O 0.19798 0.70271 0.57899 0.0
O217 O 0.1814 0.74854 0.61352 0.0
O218 O 0.15493 0.73582 0.63891 0.0
O219 O 0.08862 0.70699 0.63502 0.0
O220 O 0.13087 0.6166 0.59332 0.0
O221 O 0.0691 0.70139 0.60634 0.0
O222 O 0.09272 0.64475 0.58327 0.0
C223 C 0.16352 0.64354 0.64513 0.0
C224 C 0.11866 0.73769 0.56465 0.0
C225 C 0.17437 0.75252 0.63082 0.0
C226 C 0.2079 0.67644 0.57519 0.0
C227 C 0.06622 0.70778 0.62382 0.0
C228 C 0.10472 0.61903 0.58584 0.0
O229 O 0.14562 0.66575 0.64669 0.0
O230 O 0.33516 0.14762 0.64764 0.0
Zn231 Zn 0.32986 0.13457 0.61988 0.0
O232 O 0.2919 0.11144 0.61716 0.0
Zn233 Zn 0.26513 0.13055 0.59918 0.0
Zn234 Zn 0.27004 0.10778 0.641 0.0
Zn235 Zn 0.30053 0.07145 0.6078 0.0
O236 O 0.24723 0.10119 0.58054 0.0
O237 O 0.27634 0.06119 0.58487 0.0
O238 O 0.33014 0.17051 0.60098 0.0
O239 O 0.28785 0.16157 0.58479 0.0
O240 O 0.23073 0.15099 0.6122 0.0
O241 O 0.23082 0.13051 0.64085 0.0
O242 O 0.2629 0.06434 0.64879 0.0
O243 O 0.36591 0.10734 0.61361 0.0
O244 O 0.28937 0.04029 0.62686 0.0
O245 O 0.34406 0.06597 0.60224 0.0
C246 C 0.31887 0.14194 0.66215 0.0
C247 C 0.25505 0.07447 0.57617 0.0
C248 C 0.21906 0.14787 0.62855 0.0
C249 C 0.31216 0.17629 0.58726 0.0
C250 C 0.27363 0.04004 0.64191 0.0
C251 C 0.36758 0.08119 0.60606 0.0
O252 O 0.29455 0.12689 0.66104 0.0
O253 O 0.82522 0.35148 0.62518 0.0
Zn254 Zn 0.83966 0.33984 0.59829 0.0
O255 O 0.86182 0.30129 0.59978 0.0
Zn256 Zn 0.8396 0.26821 0.58854 0.0
Zn257 Zn 0.87054 0.29014 0.62573 0.0
Zn258 Zn 0.89922 0.30501 0.58609 0.0
O259 O 0.86547 0.24433 0.57018 0.0
O260 O 0.90016 0.27874 0.56315 0.0
O261 O 0.80457 0.33503 0.57892 0.0
O262 O 0.80515 0.28527 0.57407 0.0
O263 O 0.82336 0.23948 0.60803 0.0
O264 O 0.84906 0.25228 0.63372 0.0
O265 O 0.91456 0.28383 0.63062 0.0
O266 O 0.86866 0.37376 0.58978 0.0
O267 O 0.93414 0.29219 0.60222 0.0
O268 O 0.90782 0.34754 0.57919 0.0
C269 C 0.83623 0.34333 0.64114 0.0
C270 C 0.88736 0.25353 0.56003 0.0
C271 C 0.83018 0.23529 0.62534 0.0
C272 C 0.79384 0.31124 0.57104 0.0
C273 C 0.93716 0.28502 0.61957 0.0
C274 C 0.89479 0.37264 0.58214 0.0
O275 O 0.85517 0.32197 0.64263 0.0
O276 O 0.6498 0.16055 0.35493 0.0
Zn277 Zn 0.65511 0.14848 0.383 0.0
O278 O 0.69395 0.12711 0.38585 0.0
Zn279 Zn 0.7193 0.14613 0.40466 0.0
Zn280 Zn 0.7174 0.12573 0.36266 0.0
Zn281 Zn 0.68659 0.086 0.39348 0.0
O282 O 0.73791 0.116 0.42245 0.0
O283 O 0.7121 0.07453 0.41563 0.0
O284 O 0.65382 0.18458 0.40198 0.0
O285 O 0.69505 0.17554 0.41926 0.0
O286 O 0.75327 0.16929 0.39288 0.0
O287 O 0.75429 0.15178 0.36352 0.0
O288 O 0.7294 0.08333 0.35527 0.0
O289 O 0.61993 0.11971 0.38931 0.0
O290 O 0.69768 0.0569 0.37305 0.0
O291 O 0.64362 0.07871 0.39966 0.0
C292 C 0.66686 0.15553 0.34065 0.0
C293 C 0.73211 0.08824 0.42525 0.0
C294 C 0.76505 0.16856 0.37646 0.0
C295 C 0.67085 0.19013 0.41625 0.0
C296 C 0.71695 0.05846 0.35976 0.0
C297 C 0.61944 0.09319 0.39645 0.0
O298 O 0.69212 0.14226 0.34221 0.0
O299 O 0.83692 0.6495 0.37225 0.0
Zn300 Zn 0.85549 0.66238 0.3979 0.0
O301 O 0.87863 0.7005 0.39446 0.0
Zn302 Zn 0.8644 0.73285 0.41101 0.0
Zn303 Zn 0.87589 0.71545 0.36856 0.0
Zn304 Zn 0.92075 0.6931 0.39993 0.0
O305 O 0.89724 0.74962 0.42799 0.0
O306 O 0.93577 0.72038 0.42016 0.0
O307 O 0.82324 0.66868 0.41895 0.0
O308 O 0.83111 0.71676 0.427 0.0
O309 O 0.84734 0.76788 0.39641 0.0
O310 O 0.85375 0.75462 0.36643 0.0
O311 O 0.9164 0.72126 0.35631 0.0
O312 O 0.88383 0.62768 0.4057 0.0
O313 O 0.94709 0.70093 0.37749 0.0
O314 O 0.92802 0.65098 0.4083 0.0
C315 C 0.83921 0.66163 0.35587 0.0
C316 C 0.9247 0.74185 0.42986 0.0
C317 C 0.84429 0.77317 0.3788 0.0
C318 C 0.81687 0.69199 0.42894 0.0
C319 C 0.94265 0.71316 0.36144 0.0
C320 C 0.91196 0.62733 0.40958 0.0
O321 O 0.85366 0.68597 0.35317 0.0
O322 O 0.33112 0.82972 0.35279 0.0
Zn323 Zn 0.32339 0.84599 0.37986 0.0
O324 O 0.28783 0.87334 0.37935 0.0
Zn325 Zn 0.25488 0.85811 0.39469 0.0
Zn326 Zn 0.27209 0.87894 0.3539 0.0
Zn327 Zn 0.29894 0.91244 0.38922 0.0
O328 O 0.23854 0.88909 0.41295 0.0
O329 O 0.27391 0.92428 0.41137 0.0
O330 O 0.31638 0.81204 0.40004 0.0
O331 O 0.2703 0.82404 0.40998 0.0
O332 O 0.22021 0.84325 0.37898 0.0
O333 O 0.23139 0.8603 0.35035 0.0
O334 O 0.26931 0.92262 0.34609 0.0
O335 O 0.36139 0.87025 0.38722 0.0
O336 O 0.29198 0.94503 0.37024 0.0
O337 O 0.34202 0.91417 0.3964 0.0
C338 C 0.31957 0.8381 0.33702 0.0
C339 C 0.24975 0.91397 0.41856 0.0
C340 C 0.21378 0.84639 0.36153 0.0
C341 C 0.29381 0.80769 0.41108 0.0
C342 C 0.27925 0.94632 0.35413 0.0
C343 C 0.36444 0.89673 0.39417 0.0
O344 O 0.29841 0.85733 0.33611 0.0
O345 O 0.17356 0.3381 0.37767 0.0
Zn346 Zn 0.15885 0.33203 0.40514 0.0
O347 O 0.13387 0.2954 0.40651 0.0
Zn348 Zn 0.15466 0.26252 0.41887 0.0
Zn349 Zn 0.12276 0.28115 0.38156 0.0
Zn350 Zn 0.09792 0.30422 0.42096 0.0
O351 O 0.12818 0.24251 0.43857 0.0
O352 O 0.09511 0.27901 0.44439 0.0
O353 O 0.194 0.32797 0.42435 0.0
O354 O 0.19078 0.27914 0.43187 0.0
O355 O 0.16808 0.23054 0.40056 0.0
O356 O 0.1389 0.23988 0.3758 0.0
O357 O 0.07813 0.28082 0.37737 0.0
O358 O 0.13277 0.36881 0.41162 0.0
O359 O 0.06105 0.29446 0.40563 0.0
O360 O 0.09419 0.34812 0.42697 0.0
C361 C 0.1629 0.32683 0.36239 0.0
C362 C 0.10669 0.25349 0.44833 0.0
C363 C 0.15835 0.22359 0.38417 0.0
C364 C 0.20365 0.30474 0.43331 0.0
C365 C 0.05637 0.28616 0.38861 0.0
C366 C 0.10831 0.37126 0.42105 0.0
O367 O 0.14246 0.30676 0.36247 0.0
H368 H 0.15325 0.39279 0.18783 0.0
H369 H 0.15012 0.38813 0.22228 0.0
H370 H 0.17379 0.29395 0.21812 0.0
H371 H 0.17683 0.29861 0.1834 0.0
H372 H 0.11919 0.34821 0.24871 0.0
H373 H 0.24405 0.33574 0.24822 0.0
H374 H 0.22321 0.34867 0.22781 0.0
H375 H 0.22311 0.30937 0.23398 0.0
C376 C 0.1566 0.37082 0.19424 0.0
C377 C 0.16506 0.34599 0.18307 0.0
C378 C 0.155 0.36823 0.2139 0.0
C379 C 0.16228 0.34088 0.22272 0.0
C380 C 0.16842 0.31535 0.21152 0.0
H381 H 0.19135 0.29008 0.33816 0.0
H382 H 0.19412 0.29654 0.30385 0.0
C383 C 0.16974 0.31788 0.19173 0.0
C384 C 0.16629 0.34025 0.24353 0.0
H385 H 0.22009 0.33546 0.27803 0.0
C386 C 0.1412 0.34537 0.25517 0.0
C387 C 0.19514 0.33694 0.25182 0.0
C388 C 0.22304 0.3326 0.23988 0.0
C389 C 0.14406 0.34653 0.27498 0.0
C390 C 0.17296 0.34331 0.28329 0.0
C391 C 0.19806 0.33829 0.27161 0.0
C392 C 0.17706 0.34228 0.30414 0.0
C393 C 0.11597 0.35026 0.28683 0.0
C394 C 0.16843 0.36657 0.31578 0.0
C395 C 0.16711 0.36296 0.3355 0.0
C396 C 0.17467 0.33513 0.34368 0.0
C397 C 0.18588 0.3119 0.33213 0.0
C398 C 0.18722 0.3155 0.31253 0.0
H399 H 0.09516 0.34579 0.27853 0.0
H400 H 0.11635 0.33483 0.29922 0.0
H401 H 0.11482 0.37378 0.29218 0.0
H402 H 0.16105 0.38766 0.30956 0.0
H403 H 0.15784 0.38093 0.34413 0.0
H404 H 0.69615 0.19067 0.31562 0.0
H405 H 0.69227 0.18694 0.28116 0.0
H406 H 0.61501 0.12851 0.28711 0.0
H407 H 0.61847 0.13294 0.32172 0.0
H408 H 0.7003 0.13101 0.26471 0.0
H409 H 0.59126 0.18113 0.24193 0.0
H410 H 0.6082 0.18953 0.26459 0.0
H411 H 0.58887 0.15436 0.26099 0.0
C412 C 0.6774 0.17835 0.30952 0.0
C413 C 0.65729 0.16251 0.32122 0.0
C414 C 0.67542 0.17589 0.28986 0.0
C415 C 0.65346 0.15733 0.28155 0.0
C416 C 0.63185 0.14332 0.29319 0.0
H417 H 0.63039 0.11348 0.16215 0.0
H418 H 0.63131 0.10522 0.19647 0.0
C419 C 0.63366 0.14605 0.31295 0.0
C420 C 0.65583 0.14981 0.26111 0.0
H421 H 0.61966 0.15556 0.21863 0.0
C422 C 0.68262 0.13633 0.25463 0.0
C423 C 0.63262 0.15633 0.24804 0.0
C424 C 0.60368 0.17134 0.25414 0.0
C425 C 0.68709 0.1298 0.23537 0.0
C426 C 0.66429 0.13719 0.22222 0.0
C427 C 0.63708 0.14973 0.22877 0.0
C428 C 0.6691 0.13508 0.20146 0.0
C429 C 0.71623 0.1152 0.22927 0.0
C430 C 0.69113 0.1532 0.19278 0.0
C431 C 0.6908 0.15761 0.17317 0.0
C432 C 0.66851 0.14393 0.16199 0.0
C433 C 0.64838 0.1235 0.17042 0.0
C434 C 0.6486 0.11916 0.19005 0.0
H435 H 0.72679 0.10247 0.24109 0.0
H436 H 0.7126 0.0996 0.21717 0.0
H437 H 0.7323 0.133 0.22474 0.0
H438 H 0.70678 0.16618 0.20129 0.0
H439 H 0.70585 0.17425 0.16706 0.0
H440 H 0.78292 0.68304 0.18398 0.0
H441 H 0.78741 0.68098 0.21846 0.0
H442 H 0.87392 0.63732 0.2129 0.0
H443 H 0.8699 0.64055 0.17829 0.0
H444 H 0.78814 0.62903 0.23717 0.0
H445 H 0.89094 0.69387 0.25598 0.0
H446 H 0.87332 0.69674 0.23302 0.0
H447 H 0.89743 0.66527 0.23845 0.0
C448 C 0.80347 0.67423 0.19017 0.0
C449 C 0.82626 0.66234 0.17855 0.0
C450 C 0.80589 0.67274 0.20985 0.0
C451 C 0.83095 0.65893 0.21834 0.0
C452 C 0.85462 0.64861 0.20675 0.0
H453 H 0.86553 0.61586 0.33692 0.0
H454 H 0.8615 0.60864 0.30255 0.0
C455 C 0.85242 0.65058 0.18696 0.0
C456 C 0.83056 0.65271 0.23906 0.0
H457 H 0.86884 0.66442 0.28038 0.0
C458 C 0.80581 0.63683 0.2466 0.0
C459 C 0.8537 0.66261 0.25138 0.0
C460 C 0.88021 0.6808 0.24435 0.0
C461 C 0.80338 0.631 0.2661 0.0
C462 C 0.8263 0.64119 0.27838 0.0
C463 C 0.85142 0.65637 0.27085 0.0
C464 C 0.82361 0.63889 0.29926 0.0
C465 C 0.77628 0.61414 0.27349 0.0
C466 C 0.80266 0.65704 0.30885 0.0
C467 C 0.80492 0.6611 0.32844 0.0
C468 C 0.82793 0.64679 0.33872 0.0
C469 C 0.84699 0.62634 0.32938 0.0
C470 C 0.84499 0.62257 0.30973 0.0
H471 H 0.76421 0.60196 0.26201 0.0
H472 H 0.78304 0.59767 0.28456 0.0
H473 H 0.76037 0.63043 0.28002 0.0
H474 H 0.78629 0.67019 0.301 0.0
H475 H 0.79063 0.67772 0.33524 0.0
H476 H 0.2884 0.80297 0.31305 0.0
H477 H 0.29474 0.80271 0.27875 0.0
H478 H 0.37904 0.85039 0.28474 0.0
H479 H 0.37234 0.85097 0.31928 0.0
H480 H 0.33851 0.88104 0.26324 0.0
H481 H 0.34392 0.76309 0.23778 0.0
H482 H 0.31293 0.769 0.25367 0.0
H483 H 0.35098 0.77313 0.26218 0.0
C484 C 0.30914 0.81179 0.30709 0.0
C485 C 0.3302 0.82644 0.31876 0.0
C486 C 0.31269 0.81181 0.28745 0.0
C487 C 0.33742 0.82645 0.27911 0.0
C488 C 0.35986 0.83882 0.29087 0.0
H489 H 0.37577 0.87513 0.16344 0.0
H490 H 0.37341 0.87435 0.19804 0.0
C491 C 0.3563 0.83875 0.3106 0.0
C492 C 0.33709 0.833 0.25846 0.0
H493 H 0.32889 0.80032 0.21495 0.0
C494 C 0.33681 0.86336 0.25266 0.0
C495 C 0.33442 0.80998 0.24468 0.0
C496 C 0.33587 0.77698 0.24987 0.0
C497 C 0.33336 0.87131 0.23352 0.0
C498 C 0.33028 0.8483 0.2198 0.0
C499 C 0.33077 0.81795 0.22555 0.0
C500 C 0.32867 0.85497 0.19924 0.0
C501 C 0.33243 0.90425 0.22814 0.0
C502 C 0.30381 0.84543 0.18842 0.0
C503 C 0.30495 0.84637 0.16858 0.0
C504 C 0.33113 0.85649 0.15939 0.0
C505 C 0.35506 0.86796 0.17025 0.0
C506 C 0.3538 0.86733 0.19001 0.0
H507 H 0.32732 0.91886 0.24053 0.0
H508 H 0.35475 0.91103 0.22245 0.0
H509 H 0.31529 0.90837 0.21697 0.0
H510 H 0.28428 0.83564 0.1953 0.0
H511 H 0.28661 0.8366 0.1605 0.0
H512 H 0.2035 0.68722 0.81571 0.0
H513 H 0.1989 0.68311 0.7814 0.0
H514 H 0.11605 0.63319 0.78804 0.0
H515 H 0.12077 0.63722 0.82268 0.0
H516 H 0.15973 0.60259 0.76711 0.0
H517 H 0.14713 0.7189 0.73978 0.0
H518 H 0.1776 0.71574 0.75636 0.0
H519 H 0.1395 0.70918 0.76416 0.0
C520 C 0.18356 0.67661 0.80983 0.0
C521 C 0.16228 0.66288 0.82179 0.0
C522 C 0.18099 0.67417 0.7902 0.0
C523 C 0.1571 0.65792 0.78211 0.0
C524 C 0.1346 0.64595 0.794 0.0
H525 H 0.12935 0.60527 0.66552 0.0
H526 H 0.12993 0.60338 0.70012 0.0
C527 C 0.13705 0.64862 0.81375 0.0
C528 C 0.15807 0.65041 0.76161 0.0
H529 H 0.16591 0.6821 0.71783 0.0
C530 C 0.16065 0.61993 0.75628 0.0
C531 C 0.15954 0.67304 0.74753 0.0
C532 C 0.1555 0.70602 0.75222 0.0
C533 C 0.16568 0.61158 0.73731 0.0
C534 C 0.16797 0.6343 0.72333 0.0
C535 C 0.16473 0.6647 0.72863 0.0
C536 C 0.17218 0.62739 0.70292 0.0
C537 C 0.16931 0.57865 0.73243 0.0
C538 C 0.19656 0.64001 0.69296 0.0
C539 C 0.19642 0.64071 0.67313 0.0
C540 C 0.17179 0.629 0.66305 0.0
C541 C 0.14903 0.61361 0.67297 0.0
C542 C 0.14921 0.6128 0.69278 0.0
H543 H 0.17451 0.56482 0.74514 0.0
H544 H 0.14798 0.57013 0.7262 0.0
H545 H 0.18751 0.57543 0.72181 0.0
H546 H 0.21445 0.65151 0.70053 0.0
H547 H 0.21372 0.65351 0.66585 0.0
H548 H 0.28902 0.17824 0.68627 0.0
H549 H 0.29445 0.1786 0.72074 0.0
H550 H 0.37279 0.12137 0.71602 0.0
H551 H 0.36793 0.12202 0.6814 0.0
H552 H 0.2878 0.1269 0.7403 0.0
H553 H 0.39873 0.17796 0.7578 0.0
H554 H 0.38117 0.18258 0.73492 0.0
H555 H 0.40056 0.14813 0.74062 0.0
C556 C 0.30828 0.16706 0.69259 0.0
C557 C 0.32842 0.15061 0.68129 0.0
C558 C 0.31116 0.16693 0.71227 0.0
C559 C 0.33398 0.14996 0.721 0.0
C560 C 0.35536 0.1351 0.70963 0.0
H561 H 0.36251 0.11385 0.84136 0.0
H562 H 0.35959 0.1041 0.80715 0.0
C563 C 0.35271 0.13561 0.68985 0.0
C564 C 0.3329 0.14498 0.74179 0.0
H565 H 0.37245 0.15403 0.78287 0.0
C566 C 0.30634 0.13285 0.7496 0.0
C567 C 0.35722 0.15233 0.75389 0.0
C568 C 0.38594 0.16621 0.74644 0.0
C569 C 0.30321 0.12847 0.76918 0.0
C570 C 0.32722 0.13647 0.7813 0.0
C571 C 0.35414 0.14768 0.77349 0.0
C572 C 0.32395 0.13646 0.80218 0.0
C573 C 0.27417 0.11552 0.77679 0.0
C574 C 0.30395 0.15684 0.81076 0.0
C575 C 0.30555 0.16229 0.83022 0.0
C576 C 0.32695 0.14723 0.84138 0.0
C577 C 0.34519 0.12499 0.83309 0.0
C578 C 0.34382 0.11973 0.81356 0.0
H579 H 0.2617 0.10278 0.76572 0.0
H580 H 0.27849 0.10032 0.789 0.0
H581 H 0.25952 0.13423 0.78172 0.0
H582 H 0.28886 0.17039 0.80221 0.0
H583 H 0.29197 0.18021 0.83624 0.0
H584 H 0.86698 0.37112 0.81881 0.0
H585 H 0.86987 0.37336 0.7841 0.0
H586 H 0.80127 0.30465 0.78013 0.0
H587 H 0.79836 0.30248 0.81482 0.0
H588 H 0.8768 0.32811 0.7531 0.0
H589 H 0.76438 0.3834 0.75613 0.0
H590 H 0.78825 0.37939 0.7767 0.0
H591 H 0.76731 0.3476 0.76798 0.0
C592 C 0.85368 0.35545 0.81049 0.0
C593 C 0.83295 0.33614 0.81937 0.0
C594 C 0.85505 0.35701 0.7907 0.0
C595 C 0.83537 0.33957 0.77961 0.0
C596 C 0.81641 0.3185 0.78848 0.0
H597 H 0.78855 0.32603 0.66218 0.0
H598 H 0.78669 0.32969 0.69678 0.0
C599 C 0.8151 0.3169 0.80824 0.0
C600 C 0.83257 0.34549 0.75903 0.0
H601 H 0.78419 0.37335 0.72564 0.0
C602 C 0.85667 0.33813 0.74707 0.0
C603 C 0.80625 0.35869 0.75128 0.0
C604 C 0.7801 0.368 0.76365 0.0
C605 C 0.85481 0.34278 0.72741 0.0
C606 C 0.82843 0.35594 0.71962 0.0
C607 C 0.80444 0.36354 0.73165 0.0
C608 C 0.82479 0.36005 0.69887 0.0
C609 C 0.88072 0.33255 0.71511 0.0
C610 C 0.84527 0.37776 0.68853 0.0
C611 C 0.84617 0.37581 0.66876 0.0
C612 C 0.82625 0.35661 0.65909 0.0
C613 C 0.80359 0.34163 0.6693 0.0
C614 C 0.80281 0.34339 0.68909 0.0
H615 H 0.89589 0.3167 0.72271 0.0
H616 H 0.87235 0.32126 0.70208 0.0
H617 H 0.89424 0.35247 0.7108 0.0
H618 H 0.86203 0.39125 0.69581 0.0
H619 H 0.86429 0.38698 0.6612 0.0
H620 H 0.63359 0.84463 0.68092 0.0
H621 H 0.62597 0.84278 0.71546 0.0
H622 H 0.71948 0.819 0.72307 0.0
H623 H 0.72699 0.82058 0.68884 0.0
H624 H 0.6811 0.79015 0.74878 0.0
H625 H 0.66136 0.91406 0.74584 0.0
H626 H 0.63605 0.89137 0.73195 0.0
H627 H 0.67533 0.89295 0.72581 0.0
C628 C 0.65208 0.83777 0.68997 0.0
C629 C 0.68085 0.83272 0.68232 0.0
C630 C 0.64788 0.83719 0.70967 0.0
C631 C 0.6724 0.83152 0.72182 0.0
C632 C 0.70034 0.82366 0.71399 0.0
H633 H 0.71131 0.83876 0.84317 0.0
H634 H 0.71713 0.84002 0.80847 0.0
C635 C 0.70456 0.8244 0.69443 0.0
C636 C 0.67019 0.83641 0.74256 0.0
H637 H 0.66062 0.89135 0.77604 0.0
C638 C 0.67654 0.81224 0.75476 0.0
C639 C 0.66468 0.86539 0.75029 0.0
C640 C 0.65921 0.89255 0.73785 0.0
C641 C 0.67703 0.81613 0.77451 0.0
C642 C 0.67161 0.84512 0.78223 0.0
C643 C 0.66512 0.86926 0.77005 0.0
C644 C 0.67017 0.85013 0.80298 0.0
C645 C 0.68268 0.78904 0.78697 0.0
C646 C 0.64242 0.85738 0.81129 0.0
C647 C 0.6392 0.8569 0.83093 0.0
C648 C 0.66375 0.84956 0.84263 0.0
C649 C 0.69221 0.84497 0.83444 0.0
C650 C 0.6954 0.84523 0.81466 0.0
H651 H 0.6805 0.76749 0.77903 0.0
H652 H 0.70589 0.79032 0.79279 0.0
H653 H 0.66669 0.78867 0.79908 0.0
H654 H 0.62274 0.86139 0.80255 0.0
H655 H 0.61697 0.86022 0.83696 0.0
H656 H 0.89417 0.55641 0.07804 0.0
H657 H 0.93853 0.52385 0.07822 0.0
H658 H 0.96998 0.56727 0.12924 0.0
H659 H 0.9258 0.60078 0.12875 0.0
H660 H 0.01625 0.55351 0.10545 0.0
H661 H 0.94303 0.45338 0.11437 0.0
H662 H 0.93379 0.47429 0.09341 0.0
H663 H 0.92892 0.49143 0.11635 0.0
C664 C 0.91086 0.55944 0.08909 0.0
C665 C 0.90649 0.58095 0.10347 0.0
C666 C 0.93602 0.54059 0.08929 0.0
C667 C 0.95698 0.54237 0.10412 0.0
C668 C 0.95383 0.56525 0.1178 0.0
H669 H 0.08387 0.39629 0.12975 0.0
H670 H 0.04036 0.43054 0.12994 0.0
C671 C 0.92875 0.58452 0.11744 0.0
C672 C 0.98147 0.51963 0.10555 0.0
H673 H 0.99449 0.4436 0.1063 0.0
C674 C 0.01151 0.5295 0.10577 0.0
C675 C 0.97526 0.48827 0.10645 0.0
C676 C 0.9435 0.47621 0.10785 0.0
C677 C 0.03551 0.50884 0.10612 0.0
C678 C 0.02929 0.47745 0.1057 0.0
C679 C -0.00075 0.46761 0.10624 0.0
C680 C 0.0537 0.45458 0.10457 0.0
C681 C 0.06729 0.52094 0.10715 0.0
C682 C 0.07469 0.45564 0.08972 0.0
C683 C 0.0995 0.43631 0.08965 0.0
C684 C 0.10352 0.41506 0.10422 0.0
C685 C 0.08125 0.41232 0.11828 0.0
C686 C 0.05653 0.43203 0.11848 0.0
H687 H 0.06786 0.544 0.11333 0.0
H688 H 0.08198 0.50603 0.11579 0.0
H689 H 0.0768 0.5223 0.09264 0.0
H690 H 0.07239 0.47209 0.07846 0.0
H691 H 0.11617 0.43873 0.07853 0.0
H692 H 0.38518 0.93454 0.10498 0.0
H693 H 0.42079 0.9768 0.10446 0.0
H694 H 0.45525 0.94611 0.05062 0.0
H695 H 0.42061 0.90327 0.05149 0.0
H696 H 0.50003 0.95599 0.07386 0.0
H697 H 0.42427 0.0551 0.0768 0.0
H698 H 0.41795 0.02955 0.09609 0.0
H699 H 0.41046 0.01753 0.07217 0.0
C700 C 0.39977 0.93732 0.0928 0.0
C701 C 0.40001 0.91565 0.07825 0.0
C702 C 0.42017 0.96151 0.0925 0.0
C703 C 0.44068 0.96487 0.07742 0.0
C704 C 0.4398 0.94402 0.06244 0.0
H705 H 0.54955 0.1253 0.06108 0.0
H706 H 0.51481 0.08293 0.05751 0.0
C707 C 0.41983 0.91964 0.06289 0.0
C708 C 0.46453 0.9886 0.07781 0.0
H709 H 0.47635 0.06433 0.08282 0.0
C710 C 0.49479 0.97972 0.07567 0.0
C711 C 0.45783 0.01963 0.08003 0.0
C712 C 0.42585 0.03107 0.08121 0.0
C713 C 0.51845 0.00087 0.07575 0.0
C714 C 0.51184 0.03177 0.07864 0.0
C715 C 0.48156 0.04065 0.08071 0.0
C716 C 0.53566 0.05552 0.07925 0.0
C717 C 0.55016 0.98987 0.07225 0.0
C718 C 0.55972 0.05397 0.09223 0.0
C719 C 0.58015 0.07801 0.09396 0.0
C720 C 0.57642 0.10428 0.08306 0.0
C721 C 0.55302 0.10531 0.06965 0.0
C722 C 0.53301 0.08116 0.06769 0.0
H723 H 0.55028 0.96801 0.06453 0.0
H724 H 0.56341 0.00653 0.06395 0.0
H725 H 0.56158 0.9863 0.08605 0.0
H726 H 0.56193 0.03482 0.10165 0.0
H727 H 0.59762 0.07684 0.10466 0.0
H728 H 0.91609 0.38994 0.87334 0.0
H729 H 0.95996 0.42359 0.8741 0.0
H730 H 0.92857 0.46169 0.92681 0.0
H731 H 0.88424 0.42907 0.92567 0.0
H732 H 0.94124 0.50495 0.90285 0.0
H733 H 0.03693 0.42471 0.90336 0.0
H734 H 0.01201 0.41872 0.88371 0.0
H735 H 0.9986 0.4128 0.90751 0.0
C736 C 0.91904 0.40491 0.88534 0.0
C737 C 0.89682 0.40684 0.89947 0.0
C738 C 0.94413 0.42417 0.88577 0.0
C739 C 0.94775 0.44514 0.90058 0.0
C740 C 0.92628 0.44586 0.91519 0.0
H741 H 0.11042 0.5474 0.92114 0.0
H742 H 0.06651 0.51438 0.92308 0.0
C743 C 0.90103 0.42706 0.91459 0.0
C744 C 0.97246 0.4679 0.90027 0.0
H745 H 0.0488 0.47618 0.89717 0.0
C746 C 0.9648 0.49862 0.90173 0.0
C747 C 0.00322 0.45973 0.89895 0.0
C748 C 0.01324 0.42719 0.89849 0.0
C749 C 0.98693 0.52133 0.90194 0.0
C750 C 0.01762 0.51321 0.90003 0.0
C751 C 0.02528 0.48249 0.89853 0.0
C752 C 0.0424 0.53591 0.9001 0.0
C753 C 0.97718 0.55365 0.90475 0.0
C754 C 0.04321 0.55973 0.8869 0.0
C755 C 0.06814 0.57919 0.88607 0.0
C756 C 0.09293 0.57463 0.89812 0.0
C757 C 0.09162 0.55143 0.91167 0.0
C758 C 0.06659 0.53242 0.91272 0.0
H759 H 0.95468 0.55504 0.91162 0.0
H760 H 0.99364 0.56629 0.91356 0.0
H761 H 0.97553 0.5649 0.89074 0.0
H762 H 0.02518 0.56253 0.87672 0.0
H763 H 0.0688 0.59658 0.87529 0.0
H764 H 0.61168 0.93184 0.89658 0.0
H765 H 0.57763 0.97533 0.8973 0.0
H766 H 0.5453 0.94778 0.95231 0.0
H767 H 0.57831 0.90371 0.95125 0.0
H768 H 0.4997 0.95709 0.92975 0.0
H769 H 0.5765 0.05507 0.92343 0.0
H770 H 0.58154 0.0285 0.90452 0.0
H771 H 0.59007 0.01756 0.92851 0.0
C772 C 0.59801 0.93564 0.90908 0.0
C773 C 0.59773 0.91445 0.92389 0.0
C774 C 0.57849 0.96053 0.90948 0.0
C775 C 0.5589 0.96504 0.92492 0.0
C776 C 0.56003 0.9448 0.94021 0.0
H777 H 0.45167 0.12675 0.94079 0.0
H778 H 0.48696 0.0848 0.94391 0.0
C779 C 0.57909 0.91972 0.93966 0.0
C780 C 0.53539 0.98907 0.92452 0.0
H781 H 0.52423 0.06464 0.91818 0.0
C782 C 0.50513 0.98066 0.92737 0.0
C783 C 0.54235 0.01988 0.92154 0.0
C784 C 0.5744 0.03086 0.91952 0.0
C785 C 0.48174 0.00205 0.92729 0.0
C786 C 0.48858 0.0327 0.92363 0.0
C787 C 0.51885 0.04114 0.92085 0.0
C788 C 0.46497 0.05662 0.923 0.0
C789 C 0.45008 0.99159 0.93159 0.0
C790 C 0.44026 0.05459 0.91055 0.0
C791 C 0.41957 0.0784 0.90905 0.0
C792 C 0.42365 0.10496 0.91964 0.0
C793 C 0.44791 0.10658 0.93243 0.0
C794 C 0.46822 0.08266 0.93415 0.0
H795 H 0.45007 0.9701 0.93971 0.0
H796 H 0.43745 0.00879 0.93982 0.0
H797 H 0.43795 0.9875 0.91808 0.0
H798 H 0.43758 0.03511 0.90145 0.0
H799 H 0.4014 0.07671 0.89884 0.0
H800 H 0.58399 0.89395 0.62975 0.0
H801 H 0.5375 0.92372 0.62773 0.0
H802 H 0.56914 0.96424 0.57579 0.0
H803 H 0.61598 0.93561 0.57826 0.0
H804 H 0.55242 0.00623 0.59944 0.0
H805 H 0.46223 0.91988 0.59681 0.0
H806 H 0.48636 0.91537 0.61699 0.0
H807 H 0.50146 0.91054 0.5935 0.0
C808 C 0.58054 0.90855 0.61764 0.0
C809 C 0.60347 0.91248 0.60415 0.0
C810 C 0.55397 0.92558 0.61647 0.0
C811 C 0.54968 0.94618 0.60154 0.0
C812 C 0.57193 0.94865 0.58748 0.0
H813 H 0.38157 0.03914 0.5795 0.0
H814 H 0.42719 0.00853 0.57757 0.0
C815 C 0.59861 0.93214 0.58884 0.0
C816 C 0.52353 0.96719 0.60133 0.0
H817 H 0.44673 0.97043 0.60317 0.0
C818 C 0.52929 0.99835 0.6001 0.0
C819 C 0.49333 0.95699 0.60206 0.0
C820 C 0.48543 0.92386 0.60222 0.0
C821 C 0.50579 0.01955 0.59962 0.0
C822 C 0.47563 0.00943 0.60105 0.0
C823 C 0.46985 0.97826 0.60221 0.0
C824 C 0.44958 0.03054 0.60106 0.0
C825 C 0.51359 0.05248 0.59712 0.0
C826 C 0.44721 0.05375 0.6146 0.0
C827 C 0.42131 0.07179 0.61546 0.0
C828 C 0.39708 0.06641 0.60309 0.0
C829 C 0.39988 0.04379 0.58923 0.0
C830 C 0.42589 0.02617 0.58818 0.0
H831 H 0.53607 0.05537 0.5904 0.0
H832 H 0.49654 0.06425 0.58829 0.0
H833 H 0.51436 0.06354 0.61121 0.0
H834 H 0.46484 0.05716 0.62498 0.0
H835 H 0.41956 0.08874 0.62647 0.0
H836 H 0.11418 0.55996 0.59674 0.0
H837 H 0.07896 0.51749 0.59331 0.0
H838 H 0.01708 0.57502 0.5631 0.0
H839 H 0.05205 0.61699 0.56602 0.0
H840 H 0.02163 0.51437 0.60757 0.0
H841 H 0.01742 0.50129 0.52965 0.0
H842 H 0.04639 0.52296 0.54139 0.0
H843 H 0.0099 0.5393 0.537 0.0
C844 C 0.09341 0.56333 0.58897 0.0
C845 C 0.08605 0.59193 0.58165 0.0
C846 C 0.07319 0.5391 0.58713 0.0
C847 C 0.04545 0.54295 0.57777 0.0
C848 C 0.03853 0.57123 0.57001 0.0
H849 H 0.88495 0.43026 0.5957 0.0
H850 H 0.91992 0.4732 0.59393 0.0
C851 C 0.05861 0.59533 0.57183 0.0
C852 C 0.02269 0.51824 0.57717 0.0
H853 H 0.97768 0.47776 0.54717 0.0
C854 C 0.01217 0.5062 0.59436 0.0
C855 C 0.0104 0.50748 0.55993 0.0
C856 C 0.02182 0.5182 0.54095 0.0
C857 C 0.98948 0.48403 0.59479 0.0
C858 C 0.97641 0.47406 0.57758 0.0
C859 C 0.98725 0.4858 0.56038 0.0
C860 C 0.95324 0.44972 0.57702 0.0
C861 C 0.98025 0.47098 0.61368 0.0
C862 C 0.95947 0.42294 0.56721 0.0
C863 C 0.93944 0.39867 0.56797 0.0
C864 C 0.91258 0.40052 0.57856 0.0
C865 C 0.90541 0.42803 0.58744 0.0
C866 C 0.92558 0.45246 0.58664 0.0
H867 H 0.99727 0.47563 0.62485 0.0
H868 H 0.95862 0.4813 0.61818 0.0
H869 H 0.97694 0.44618 0.61266 0.0
H870 H 0.98048 0.42033 0.55954 0.0
H871 H 0.94564 0.37795 0.5608 0.0
H872 H 0.41553 0.89219 0.37266 0.0
H873 H 0.46023 0.92459 0.37502 0.0
H874 H 0.42523 0.96346 0.4266 0.0
H875 H 0.38013 0.93216 0.42377 0.0
H876 H 0.43947 0.00628 0.40292 0.0
H877 H 0.53532 0.92647 0.40612 0.0
H878 H 0.51177 0.92013 0.38585 0.0
H879 H 0.49679 0.91442 0.4093 0.0
C880 C 0.41795 0.90691 0.38482 0.0
C881 C 0.39451 0.90959 0.39809 0.0
C882 C 0.44349 0.9255 0.38616 0.0
C883 C 0.44625 0.94649 0.40104 0.0
C884 C 0.42364 0.94762 0.41495 0.0
H885 H 0.6077 0.05091 0.42324 0.0
H886 H 0.56409 0.01744 0.42514 0.0
C887 C 0.39797 0.92954 0.41341 0.0
C888 C 0.47095 0.9693 0.40127 0.0
H889 H 0.54739 0.97793 0.3996 0.0
C890 C 0.46309 2e-05 0.40235 0.0
C891 C 0.5018 0.96127 0.40064 0.0
C892 C 0.51196 0.92877 0.40061 0.0
C893 C 0.48509 0.02284 0.40279 0.0
C894 C 0.5159 0.01486 0.40149 0.0
C895 C 0.52377 0.98414 0.40047 0.0
C896 C 0.54049 0.03777 0.40154 0.0
C897 C 0.47503 0.05516 0.40513 0.0
C898 C 0.54147 0.06107 0.38799 0.0
C899 C 0.5662 0.08077 0.38716 0.0
C900 C 0.59067 0.07703 0.39957 0.0
C901 C 0.58916 0.05436 0.41348 0.0
C902 C 0.56431 0.03508 0.41451 0.0
H903 H 0.45232 0.05655 0.41173 0.0
H904 H 0.49113 0.06818 0.41398 0.0
H905 H 0.47369 0.066 0.39098 0.0
H906 H 0.52374 0.06327 0.37754 0.0
H907 H 0.567 0.09769 0.37609 0.0
H908 H 0.07141 0.39006 0.44957 0.0
H909 H 0.03849 0.43431 0.44959 0.0
H910 H 0.07568 0.4621 0.39585 0.0
H911 H 0.10978 0.41864 0.39628 0.0
H912 H 0.06484 0.50953 0.41627 0.0
H913 H 0.96316 0.43738 0.41921 0.0
H914 H 0.98682 0.43179 0.43948 0.0
H915 H 0.00045 0.42198 0.41622 0.0
C916 C 0.073 0.40598 0.43796 0.0
C917 C 0.09309 0.40085 0.42289 0.0
C918 C 0.05385 0.43104 0.43784 0.0
C919 C 0.05369 0.45097 0.42237 0.0
C920 C 0.07506 0.44688 0.40786 0.0
H921 H 0.9044 0.57152 0.39359 0.0
H922 H 0.93833 0.52803 0.39695 0.0
C923 C 0.09471 0.42213 0.40817 0.0
C924 C 0.03091 0.47563 0.42109 0.0
H925 H 0.95525 0.49016 0.42342 0.0
C926 C 0.04088 0.50523 0.41777 0.0
C927 C -0.00052 0.47005 0.42255 0.0
C928 C 0.98682 0.43854 0.42434 0.0
C929 C 0.02051 0.52937 0.4162 0.0
C930 C 0.98923 0.52407 0.41883 0.0
C931 C 0.97919 0.49439 0.42177 0.0
C932 C 0.96666 0.54897 0.41824 0.0
C933 C 0.0328 0.56014 0.41119 0.0
C934 C 0.97028 0.57458 0.42974 0.0
C935 C 0.9513 0.59947 0.42759 0.0
C936 C 0.92761 0.59892 0.41438 0.0
C937 C 0.92235 0.57241 0.40398 0.0
C938 C 0.94185 0.54766 0.40582 0.0
H939 H 0.05477 0.55842 0.40369 0.0
H940 H 0.0169 0.57286 0.40204 0.0
H941 H 0.03662 0.57323 0.42437 0.0
H942 H 0.98844 0.57574 0.43996 0.0
H943 H 0.95569 0.61958 0.43589 0.0
H944 H 0.30831 0.29264 0.12408 0.0
H945 H 0.35348 0.26842 0.13615 0.0
H946 H 0.35564 0.33051 0.18322 0.0
H947 H 0.30995 0.35524 0.17112 0.0
H948 H 0.40925 0.32739 0.16264 0.0
H949 H 0.37118 0.21259 0.18079 0.0
H950 H 0.35667 0.22372 0.15814 0.0
H951 H 0.34551 0.24417 0.17908 0.0
C952 C 0.31809 0.30103 0.13712 0.0
C953 C 0.30567 0.32601 0.14657 0.0
C954 C 0.34372 0.28686 0.14415 0.0
C955 C 0.3575 0.29726 0.16079 0.0
C956 C 0.34498 0.32189 0.17051 0.0
H957 H 0.54804 0.24118 0.16695 0.0
H958 H 0.50077 0.25889 0.18109 0.0
C959 C 0.31902 0.33602 0.16354 0.0
C960 C 0.38704 0.28457 0.1662 0.0
H961 H 0.42289 0.21665 0.16843 0.0
C962 C 0.41239 0.30333 0.16466 0.0
C963 C 0.39096 0.25323 0.16898 0.0
C964 C 0.36455 0.23235 0.17205 0.0
C965 C 0.44148 0.29109 0.16349 0.0
C966 C 0.44505 0.25938 0.16415 0.0
C967 C 0.41999 0.24094 0.16775 0.0
C968 C 0.47307 0.24501 0.15743 0.0
C969 C 0.46778 0.31187 0.1597 0.0
C970 C 0.47282 0.23045 0.13979 0.0
C971 C 0.49961 0.22037 0.13168 0.0
C972 C 0.52719 0.22459 0.1411 0.0
C973 C 0.52718 0.23776 0.15927 0.0
C974 C 0.50026 0.24794 0.16737 0.0
H975 H 0.46071 0.3358 0.1582 0.0
H976 H 0.48413 0.31036 0.17156 0.0
H977 H 0.47962 0.30491 0.14654 0.0
H978 H 0.45199 0.22804 0.13191 0.0
H979 H 0.49875 0.21009 0.11776 0.0
H980 H 0.79689 0.4987 0.12724 0.0
H981 H 0.77712 0.45048 0.13766 0.0
H982 H 0.71747 0.49573 0.17671 0.0
H983 H 0.73654 0.54474 0.16577 0.0
H984 H 0.77275 0.42003 0.17083 0.0
H985 H 0.65856 0.45038 0.14367 0.0
H986 H 0.69108 0.47367 0.13912 0.0
H987 H 0.67383 0.47367 0.16216 0.0
C988 C 0.77976 0.49859 0.13818 0.0
C989 C 0.76787 0.52567 0.1454 0.0
C990 C 0.76858 0.47088 0.14422 0.0
C991 C 0.74542 0.4695 0.1577 0.0
C992 C 0.73487 0.49634 0.16596 0.0
H993 H 0.64569 0.29749 0.16194 0.0
H994 H 0.66601 0.34459 0.17505 0.0
C995 C 0.74588 0.52429 0.15975 0.0
C996 C 0.73101 0.43994 0.16144 0.0
H997 H 0.66755 0.39983 0.15069 0.0
C998 C 0.74951 0.4157 0.16689 0.0
C999 C 0.70064 0.43433 0.15632 0.0
C1000 C 0.67982 0.45926 0.14987 0.0
C1001 C 0.73917 0.38584 0.16587 0.0
C1002 C 0.70963 0.38022 0.15939 0.0
C1003 C 0.69024 0.40444 0.15563 0.0
C1004 C 0.7 0.34985 0.15334 0.0
C1005 C 0.76038 0.36039 0.17069 0.0
C1006 C 0.71252 0.33739 0.13686 0.0
C1007 C 0.70072 0.31092 0.12917 0.0
C1008 C 0.67631 0.29631 0.13794 0.0
C1009 C 0.66459 0.3082 0.15491 0.0
C1010 C 0.67615 0.33501 0.16244 0.0
H1011 H 0.77899 0.36813 0.18004 0.0
H1012 H 0.74814 0.34164 0.17776 0.0
H1013 H 0.77047 0.35148 0.15743 0.0
H1014 H 0.73066 0.34886 0.1295 0.0
H1015 H 0.7103 0.30224 0.11614 0.0
H1016 H 0.69828 0.69888 0.0916 0.0
H1017 H 0.65009 0.72484 0.09456 0.0
H1018 H 0.6379 0.68706 0.15035 0.0
H1019 H 0.68614 0.66062 0.1475 0.0
H1020 H 0.58848 0.67947 0.126 0.0
H1021 H 0.62701 0.79847 0.1267 0.0
H1022 H 0.64247 0.77693 0.10747 0.0
H1023 H 0.65198 0.76718 0.13147 0.0
C1024 C 0.68554 0.69622 0.10458 0.0
C1025 C 0.69606 0.67763 0.11932 0.0
C1026 C 0.65811 0.7113 0.1063 0.0
C1027 C 0.64078 0.70824 0.12279 0.0
C1028 C 0.65119 0.68988 0.13758 0.0
H1029 H 0.45448 0.76826 0.13992 0.0
H1030 H 0.50524 0.74919 0.14613 0.0
C1031 C 0.6787 0.67479 0.13591 0.0
C1032 C 0.61079 0.7225 0.12387 0.0
H1033 H 0.57478 0.79015 0.11949 0.0
C1034 C 0.5854 0.7037 0.12491 0.0
C1035 C 0.60703 0.75409 0.12242 0.0
C1036 C 0.63358 0.77538 0.12213 0.0
C1037 C 0.55621 0.71557 0.12357 0.0
C1038 C 0.55248 0.74708 0.12145 0.0
C1039 C 0.57784 0.76599 0.12107 0.0
C1040 C 0.5225 0.76056 0.11837 0.0
C1041 C 0.52967 0.69422 0.12351 0.0
C1042 C 0.51583 0.77405 0.10091 0.0
C1043 C 0.48695 0.78508 0.09731 0.0
C1044 C 0.46427 0.78284 0.11117 0.0
C1045 C 0.47136 0.77013 0.12889 0.0
C1046 C 0.50029 0.75915 0.13247 0.0
H1047 H 0.53675 0.67035 0.12163 0.0
H1048 H 0.51752 0.69605 0.13721 0.0
H1049 H 0.51363 0.70016 0.11202 0.0
H1050 H 0.53279 0.77537 0.08989 0.0
H1051 H 0.4823 0.79481 0.08354 0.0
H1052 H 0.26351 0.468 0.16369 0.0
H1053 H 0.27835 0.51989 0.17149 0.0
H1054 H 0.2249 0.55295 0.12487 0.0
H1055 H 0.20991 0.50162 0.11704 0.0
H1056 H 0.30934 0.55804 0.14666 0.0
H1057 H 0.20143 0.60989 0.1681 0.0
H1058 H 0.20729 0.56951 0.16794 0.0
H1059 H 0.19773 0.5891 0.14641 0.0
C1060 C 0.25461 0.48638 0.15527 0.0
C1061 C 0.23561 0.48068 0.1397 0.0
C1062 C 0.26305 0.51596 0.15978 0.0
C1063 C 0.25224 0.54022 0.14898 0.0
C1064 C 0.23288 0.53459 0.13368 0.0
H1065 H 0.28026 0.70789 0.10493 0.0
H1066 H 0.26292 0.66025 0.11822 0.0
C1067 C 0.2246 0.50516 0.1291 0.0
C1068 C 0.26347 0.57122 0.1521 0.0
H1069 H 0.23878 0.64396 0.15458 0.0
C1070 C 0.29417 0.57688 0.14898 0.0
C1071 C 0.24357 0.59561 0.15524 0.0
C1072 C 0.21071 0.5907 0.15981 0.0
C1073 C 0.305 0.60647 0.14705 0.0
C1074 C 0.28455 0.63083 0.1486 0.0
C1075 C 0.25434 0.62519 0.1533 0.0
C1076 C 0.29297 0.66151 0.14235 0.0
C1077 C 0.33766 0.61132 0.14182 0.0
C1078 C 0.31508 0.67836 0.15184 0.0
C1079 C 0.32522 0.70569 0.14421 0.0
C1080 C 0.31333 0.71648 0.12699 0.0
C1081 C 0.29012 0.70015 0.1181 0.0
C1082 C 0.28005 0.67296 0.12572 0.0
H1083 H 0.34961 0.58975 0.13899 0.0
H1084 H 0.33941 0.62583 0.12904 0.0
H1085 H 0.34937 0.62302 0.15361 0.0
H1086 H 0.32502 0.67 0.16483 0.0
H1087 H 0.34297 0.71784 0.15148 0.0
H1088 H 0.3146 0.67114 0.90703 0.0
H1089 H 0.36043 0.70118 0.90427 0.0
H1090 H 0.33236 0.73171 0.84892 0.0
H1091 H 0.28717 0.69997 0.85118 0.0
H1092 H 0.38853 0.72049 0.84772 0.0
H1093 H 0.37081 0.78856 0.91182 0.0
H1094 H 0.37006 0.7496 0.91845 0.0
H1095 H 0.34176 0.76424 0.90251 0.0
C1096 C 0.3182 0.68433 0.8943 0.0
C1097 C 0.29737 0.68346 0.87937 0.0
C1098 C 0.34422 0.70177 0.89281 0.0
C1099 C 0.34937 0.71958 0.87667 0.0
C1100 C 0.32871 0.71843 0.8616 0.0
H1101 H 0.50956 0.83102 0.89432 0.0
H1102 H 0.45723 0.81872 0.88637 0.0
C1103 C 0.30298 0.7003 0.86288 0.0
C1104 C 0.37716 0.73804 0.87533 0.0
H1105 H 0.42322 0.7824 0.90203 0.0
C1106 C 0.39585 0.73457 0.85942 0.0
C1107 C 0.38634 0.75741 0.89019 0.0
C1108 C 0.36592 0.76543 0.90655 0.0
C1109 C 0.42444 0.74805 0.85868 0.0
C1110 C 0.43515 0.76413 0.87467 0.0
C1111 C 0.41549 0.7695 0.8899 0.0
C1112 C 0.46716 0.77332 0.87674 0.0
C1113 C 0.44276 0.74468 0.84079 0.0
C1114 C 0.49028 0.75216 0.87373 0.0
C1115 C 0.52019 0.75955 0.87768 0.0
C1116 C 0.52737 0.78777 0.88544 0.0
C1117 C 0.50443 0.80905 0.8884 0.0
C1118 C 0.47461 0.80202 0.88385 0.0
H1119 H 0.42784 0.74419 0.82814 0.0
H1120 H 0.45925 0.76333 0.83906 0.0
H1121 H 0.45507 0.72289 0.84117 0.0
H1122 H 0.48518 0.72948 0.86903 0.0
H1123 H 0.53751 0.74265 0.87554 0.0
H1124 H 0.19564 0.50472 0.85788 0.0
H1125 H 0.21976 0.45677 0.85083 0.0
H1126 H 0.29981 0.50357 0.8323 0.0
H1127 H 0.27593 0.55206 0.83979 0.0
H1128 H 0.24959 0.42726 0.82104 0.0
H1129 H 0.32671 0.45878 0.8803 0.0
H1130 H 0.29354 0.48053 0.8748 0.0
H1131 H 0.32631 0.4831 0.85993 0.0
C1132 C 0.21815 0.50495 0.85191 0.0
C1133 C 0.23421 0.53212 0.84988 0.0
C1134 C 0.23183 0.47748 0.84775 0.0
C1135 C 0.26179 0.47664 0.84147 0.0
C1136 C 0.27682 0.50381 0.83748 0.0
H1137 H 0.34522 0.29537 0.84287 0.0
H1138 H 0.32979 0.34466 0.83056 0.0
C1139 C 0.26311 0.53146 0.84168 0.0
C1140 C 0.27803 0.44755 0.84223 0.0
H1141 H 0.32705 0.40867 0.87035 0.0
C1142 C 0.26707 0.42322 0.83148 0.0
C1143 C 0.30053 0.44241 0.85609 0.0
C1144 C 0.31244 0.46744 0.86856 0.0
C1145 C 0.27686 0.39359 0.83495 0.0
C1146 C 0.29828 0.38843 0.84939 0.0
C1147 C 0.31055 0.4129 0.85932 0.0
C1148 C 0.30593 0.35775 0.85598 0.0
C1149 C 0.26292 0.36784 0.82405 0.0
C1150 C 0.29751 0.3489 0.87431 0.0
C1151 C 0.30633 0.32093 0.88143 0.0
C1152 C 0.32387 0.30129 0.87035 0.0
C1153 C 0.33165 0.30994 0.85177 0.0
C1154 C 0.32281 0.33803 0.84466 0.0
H1155 H 0.24407 0.37542 0.81484 0.0
H1156 H 0.28033 0.35714 0.81498 0.0
H1157 H 0.25435 0.35037 0.83397 0.0
H1158 H 0.28445 0.36392 0.88323 0.0
H1159 H 0.29988 0.315 0.89576 0.0
H1160 H 0.69097 0.28599 0.87762 0.0
H1161 H 0.64436 0.26382 0.86619 0.0
H1162 H 0.64104 0.32883 0.82075 0.0
H1163 H 0.68813 0.35158 0.83226 0.0
H1164 H 0.58911 0.32665 0.8421 0.0
H1165 H 0.62078 0.21105 0.82161 0.0
H1166 H 0.63691 0.22023 0.84416 0.0
H1167 H 0.64811 0.24121 0.82343 0.0
C1168 C 0.68065 0.29543 0.86503 0.0
C1169 C 0.69313 0.32072 0.85593 0.0
C1170 C 0.65417 0.28242 0.85835 0.0
C1171 C 0.63959 0.29427 0.84238 0.0
C1172 C 0.65225 0.3191 0.83293 0.0
H1173 H 0.44682 0.2441 0.83887 0.0
H1174 H 0.49417 0.26109 0.82442 0.0
C1175 C 0.67904 0.33209 0.83956 0.0
C1176 C 0.60917 0.283 0.8376 0.0
H1177 H 0.57015 0.21678 0.83564 0.0
C1178 C 0.58479 0.3028 0.83993 0.0
C1179 C 0.60366 0.25193 0.83461 0.0
C1180 C 0.62884 0.22999 0.8306 0.0
C1181 C 0.55526 0.29181 0.84164 0.0
C1182 C 0.55025 0.26033 0.84081 0.0
C1183 C 0.5742 0.24089 0.83646 0.0
C1184 C 0.52197 0.24707 0.84799 0.0
C1185 C 0.53009 0.31357 0.84616 0.0
C1186 C 0.52222 0.23294 0.86575 0.0
C1187 C 0.49539 0.22336 0.87406 0.0
C1188 C 0.46777 0.22761 0.8647 0.0
C1189 C 0.46773 0.24062 0.84649 0.0
C1190 C 0.49468 0.25036 0.8382 0.0
H1191 H 0.53815 0.33725 0.84727 0.0
H1192 H 0.51269 0.31244 0.83489 0.0
H1193 H 0.51917 0.30719 0.85975 0.0
H1194 H 0.54314 0.23029 0.87351 0.0
H1195 H 0.49629 0.21321 0.88802 0.0
H1196 H 0.78511 0.49339 0.88958 0.0
H1197 H 0.76751 0.54445 0.88338 0.0
H1198 H 0.72331 0.51404 0.83242 0.0
H1199 H 0.74063 0.46239 0.83859 0.0
H1200 H 0.77547 0.58305 0.851 0.0
H1201 H 0.65525 0.55287 0.86464 0.0
H1202 H 0.68582 0.5283 0.87145 0.0
H1203 H 0.67542 0.53165 0.84698 0.0
C1204 C 0.7718 0.49744 0.87697 0.0
C1205 C 0.76401 0.4737 0.86468 0.0
C1206 C 0.76187 0.52671 0.87342 0.0
C1207 C 0.7439 0.53289 0.85756 0.0
C1208 C 0.73689 0.50957 0.84486 0.0
H1209 H 0.64788 0.70678 0.85444 0.0
H1210 H 0.6681 0.65911 0.84215 0.0
C1211 C 0.74688 0.48014 0.84839 0.0
C1212 C 0.73147 0.56359 0.85523 0.0
H1213 H 0.66711 0.60419 0.86227 0.0
C1214 C 0.75168 0.58771 0.85306 0.0
C1215 C 0.70041 0.5695 0.8578 0.0
C1216 C 0.67784 0.54434 0.86045 0.0
C1217 C 0.74188 0.61769 0.85451 0.0
C1218 C 0.71122 0.62354 0.8585 0.0
C1219 C 0.69064 0.59952 0.85926 0.0
C1220 C 0.70085 0.65371 0.86459 0.0
C1221 C 0.76462 0.6428 0.85246 0.0
C1222 C 0.71251 0.66625 0.8813 0.0
C1223 C 0.70094 0.69319 0.88841 0.0
C1224 C 0.67737 0.70814 0.87898 0.0
C1225 C 0.66608 0.69585 0.86201 0.0
C1226 C 0.6776 0.66868 0.85495 0.0
H1227 H 0.7839 0.63577 0.84343 0.0
H1228 H 0.75419 0.66332 0.84625 0.0
H1229 H 0.77366 0.64868 0.86665 0.0
H1230 H 0.72999 0.65468 0.88918 0.0
H1231 H 0.71018 0.70201 0.9015 0.0
H1232 H 0.81724 0.80495 0.60921 0.0
H1233 H 0.86291 0.7778 0.61781 0.0
H1234 H 0.86563 0.8243 0.67147 0.0
H1235 H 0.81967 0.85188 0.66298 0.0
H1236 H 0.92027 0.82506 0.6507 0.0
H1237 H 0.87479 0.70928 0.65657 0.0
H1238 H 0.86259 0.7277 0.63527 0.0
H1239 H 0.85119 0.74247 0.65793 0.0
C1240 C 0.82738 0.8094 0.62289 0.0
C1241 C 0.81482 0.8306 0.63541 0.0
C1242 C 0.85331 0.79361 0.62786 0.0
C1243 C 0.86713 0.79861 0.64544 0.0
C1244 C 0.85492 0.81989 0.65796 0.0
H1245 H 0.05225 0.72883 0.6593 0.0
H1246 H 0.00365 0.74875 0.67005 0.0
C1247 C 0.82879 0.83566 0.65304 0.0
C1248 C 0.89572 0.78317 0.64975 0.0
H1249 H 0.92784 0.71338 0.64835 0.0
C1250 C 0.92203 0.80064 0.65079 0.0
C1251 C 0.89771 0.75136 0.65001 0.0
C1252 C 0.86999 0.73162 0.65009 0.0
C1253 C 0.95053 0.78706 0.65018 0.0
C1254 C 0.95247 0.75529 0.64874 0.0
C1255 C 0.92616 0.73776 0.64934 0.0
C1256 C 0.98092 0.74042 0.64345 0.0
C1257 C 0.97826 0.80681 0.6495 0.0
C1258 C 0.98376 0.72844 0.62516 0.0
C1259 C 0.0113 0.7171 0.61897 0.0
C1260 C 0.03652 0.71748 0.63101 0.0
C1261 C 0.03328 0.72839 0.64964 0.0
C1262 C 0.00561 0.73981 0.65582 0.0
H1263 H 0.97257 0.83121 0.64896 0.0
H1264 H 0.9922 0.80271 0.66229 0.0
H1265 H 0.99214 0.80111 0.6369 0.0
H1266 H 0.96485 0.72878 0.61544 0.0
H1267 H 0.01295 0.70867 0.6046 0.0
H1268 H 0.29501 0.98504 0.63137 0.0
H1269 H 0.27835 0.93586 0.64221 0.0
H1270 H 0.21984 0.978 0.68325 0.0
H1271 H 0.2359 0.02795 0.67202 0.0
H1272 H 0.27774 0.90532 0.67621 0.0
H1273 H 0.16104 0.92994 0.65095 0.0
H1274 H 0.19223 0.95455 0.64549 0.0
H1275 H 0.17653 0.95408 0.66895 0.0
C1276 C 0.27878 0.98405 0.64283 0.0
C1277 C 0.26634 0.0105 0.65057 0.0
C1278 C 0.26942 0.95581 0.64911 0.0
C1279 C 0.2475 0.95326 0.66332 0.0
C1280 C 0.23638 0.97951 0.67201 0.0
H1281 H 0.15389 0.77853 0.66358 0.0
H1282 H 0.172 0.82532 0.67823 0.0
C1283 C 0.24566 0.008 0.66563 0.0
C1284 C 0.23476 0.92303 0.66731 0.0
H1285 H 0.17335 0.87975 0.65681 0.0
C1286 C 0.25467 0.89978 0.67246 0.0
C1287 C 0.20459 0.91586 0.66252 0.0
C1288 C 0.18229 0.93978 0.65656 0.0
C1289 C 0.24593 0.8694 0.67138 0.0
C1290 C 0.21665 0.86223 0.66498 0.0
C1291 C 0.19586 0.88546 0.66165 0.0
C1292 C 0.2087 0.83156 0.65845 0.0
C1293 C 0.2686 0.84518 0.67607 0.0
C1294 C 0.22352 0.81959 0.64258 0.0
C1295 C 0.21305 0.79321 0.63403 0.0
C1296 C 0.18758 0.77825 0.64125 0.0
C1297 C 0.17362 0.78951 0.65771 0.0
C1298 C 0.18393 0.81617 0.66613 0.0
H1299 H 0.28572 0.85352 0.6863 0.0
H1300 H 0.25739 0.82492 0.68209 0.0
H1301 H 0.28054 0.83839 0.66293 0.0
H1302 H 0.2423 0.83149 0.6362 0.0
H1303 H 0.22435 0.78507 0.62142 0.0
H1304 H 0.95164 0.26036 0.65401 0.0
H1305 H 0.00117 0.24232 0.66435 0.0
H1306 H 0.03999 0.27224 0.61156 0.0
H1307 H 0.99094 0.29046 0.60118 0.0
H1308 H 0.03299 0.19793 0.64516 0.0
H1309 H 0.10145 0.3018 0.65042 0.0
H1310 H 0.0607 0.30232 0.65059 0.0
H1311 H 0.08099 0.30016 0.62852 0.0
C1312 C 0.97084 0.26359 0.64475 0.0
C1313 C 0.96733 0.27671 0.62672 0.0
C1314 C -0.00092 0.25331 0.6507 0.0
C1315 C 0.02425 0.2564 0.63884 0.0
C1316 C 0.02097 0.2703 0.62111 0.0
H1317 H 0.18868 0.18744 0.60596 0.0
H1318 H 0.14219 0.21435 0.61313 0.0
C1319 C 0.99282 0.28043 0.61512 0.0
C1320 C 0.05326 0.24205 0.64373 0.0
H1321 H 0.12892 0.25552 0.64386 0.0
C1322 C 0.05398 0.21051 0.64543 0.0
C1323 C 0.08048 0.25861 0.64414 0.0
C1324 C 0.08087 0.29264 0.64352 0.0
C1325 C 0.08143 0.19486 0.64585 0.0
C1326 C 0.10867 0.21134 0.64481 0.0
C1327 C 0.10793 0.24299 0.64452 0.0
C1328 C 0.13775 0.19614 0.64143 0.0
C1329 C 0.0811 0.16079 0.64599 0.0
C1330 C 0.15074 0.17724 0.6551 0.0
C1331 C 0.17735 0.16162 0.65102 0.0
C1332 C 0.19133 0.1648 0.63322 0.0
C1333 C 0.17847 0.18432 0.61976 0.0
C1334 C 0.15197 0.19985 0.62386 0.0
H1335 H 0.05797 0.15148 0.6444 0.0
H1336 H 0.0954 0.15182 0.63436 0.0
H1337 H 0.09054 0.15253 0.65959 0.0
H1338 H 0.14017 0.17439 0.66882 0.0
H1339 H 0.18679 0.14692 0.66174 0.0
H1340 H 0.78069 0.20244 0.61533 0.0
H1341 H 0.76105 0.15726 0.63078 0.0
H1342 H 0.82955 0.16431 0.6739 0.0
H1343 H 0.84933 0.20988 0.6586 0.0
H1344 H 0.82681 0.1081 0.65351 0.0
H1345 H 0.71506 0.14134 0.68133 0.0
H1346 H 0.72188 0.15462 0.65766 0.0
H1347 H 0.7449 0.16825 0.67683 0.0
C1348 C 0.79133 0.1947 0.62826 0.0
C1349 C 0.81668 0.20962 0.63567 0.0
C1350 C 0.77988 0.16906 0.63718 0.0
C1351 C 0.7936 0.15778 0.65362 0.0
C1352 C 0.81845 0.17297 0.66136 0.0
H1353 H 0.76122 0.96415 0.67371 0.0
H1354 H 0.77757 0.01472 0.68344 0.0
C1355 C 0.82973 0.19891 0.65256 0.0
C1356 C 0.78424 0.128 0.66096 0.0
H1357 H 0.72144 0.08851 0.67358 0.0
C1358 C 0.80407 0.10372 0.65847 0.0
C1359 C 0.75463 0.12262 0.66747 0.0
C1360 C 0.73295 0.14814 0.67117 0.0
C1361 C 0.79413 0.07383 0.6604 0.0
C1362 C 0.7637 0.0683 0.66547 0.0
C1363 C 0.7447 0.09277 0.66966 0.0
C1364 C 0.74992 0.03812 0.66288 0.0
C1365 C 0.81551 0.04859 0.65527 0.0
C1366 C 0.72755 0.03469 0.64902 0.0
C1367 C 0.7179 0.00605 0.64364 0.0
C1368 C 0.73058 0.98014 0.65194 0.0
C1369 C 0.75133 0.98365 0.66686 0.0
C1370 C 0.76081 0.0125 0.67238 0.0
H1371 H 0.83683 0.05709 0.64896 0.0
H1372 H 0.8213 0.03561 0.66821 0.0
H1373 H 0.8048 0.03288 0.64502 0.0
H1374 H 0.71872 0.05414 0.64156 0.0
H1375 H 0.70159 0.00428 0.63227 0.0
H1376 H 0.79282 0.20858 0.40017 0.0
H1377 H 0.83985 0.23568 0.39473 0.0
H1378 H 0.84593 0.19745 0.33865 0.0
H1379 H 0.79889 0.16988 0.344 0.0
H1380 H 0.89681 0.18872 0.3604 0.0
H1381 H 0.86294 0.30876 0.36261 0.0
H1382 H 0.84835 0.28781 0.38234 0.0
H1383 H 0.83627 0.27854 0.35869 0.0
C1384 C 0.80388 0.2062 0.38656 0.0
C1385 C 0.79219 0.1869 0.37256 0.0
C1386 C 0.83061 0.22199 0.38341 0.0
C1387 C 0.84605 0.21895 0.36617 0.0
C1388 C 0.83412 0.20031 0.35197 0.0
H1389 H 0.0371 0.26893 0.35331 0.0
H1390 H 0.98562 0.256 0.34381 0.0
C1391 C 0.80731 0.18452 0.35509 0.0
C1392 C 0.87633 0.23237 0.36405 0.0
H1393 H 0.9152 0.29815 0.3699 0.0
C1394 C 0.90089 0.21273 0.362 0.0
C1395 C 0.88143 0.26368 0.36614 0.0
C1396 C 0.8558 0.28594 0.36737 0.0
C1397 C 0.93058 0.22329 0.36341 0.0
C1398 C 0.93568 0.2544 0.36658 0.0
C1399 C 0.91114 0.2743 0.36752 0.0
C1400 C 0.96603 0.26595 0.37118 0.0
C1401 C 0.95613 0.20079 0.36277 0.0
C1402 C 0.97169 0.27698 0.38945 0.0
C1403 C 0.00093 0.28452 0.3949 0.0
C1404 C 0.02507 0.28114 0.38216 0.0
C1405 C 0.01906 0.27148 0.36354 0.0
C1406 C 0.98971 0.26403 0.35808 0.0
H1407 H 0.94797 0.1771 0.36344 0.0
H1408 H 0.96883 0.20365 0.34934 0.0
H1409 H 0.972 0.20463 0.37469 0.0
H1410 H 0.95363 0.27865 0.39974 0.0
H1411 H 0.0047 0.2921 0.4093 0.0
H1412 H 0.77468 0.04255 0.35187 0.0
H1413 H 0.79311 0.99127 0.34694 0.0
H1414 H 0.70139 0.95886 0.34382 0.0
H1415 H 0.68305 0.00994 0.35 0.0
H1416 H 0.72858 0.93019 0.36946 0.0
H1417 H 0.80446 0.92886 0.30773 0.0
H1418 H 0.81568 0.95849 0.32347 0.0
H1419 H 0.77916 0.95994 0.31223 0.0
C1420 C 0.75852 0.02462 0.34944 0.0
C1421 C 0.72752 0.02999 0.35141 0.0
C1422 C 0.76905 0.99527 0.34649 0.0
C1423 C 0.74867 0.97108 0.34489 0.0
C1424 C 0.71757 0.97709 0.34508 0.0
H1425 H 0.82263 0.78684 0.34351 0.0
H1426 H 0.7971 0.83321 0.3336 0.0
C1427 C 0.70708 0.00624 0.34855 0.0
C1428 C 0.75955 0.93952 0.34658 0.0
H1429 H 0.81504 0.89128 0.33225 0.0
C1430 C 0.74705 0.92153 0.36098 0.0
C1431 C 0.78341 0.92784 0.33546 0.0
C1432 C 0.79615 0.94475 0.31873 0.0
C1433 C 0.7587 0.89299 0.36521 0.0
C1434 C 0.78434 0.88256 0.35529 0.0
C1435 C 0.7958 0.89964 0.34015 0.0
C1436 C 0.80025 0.85469 0.36107 0.0
C1437 C 0.7435 0.87447 0.38043 0.0
C1438 C 0.81098 0.85167 0.37968 0.0
C1439 C 0.82517 0.82515 0.38545 0.0
C1440 C 0.82949 0.80135 0.37259 0.0
C1441 C 0.81956 0.80476 0.35377 0.0
C1442 C 0.80501 0.83122 0.34807 0.0
H1443 H 0.71927 0.88045 0.38178 0.0
H1444 H 0.74527 0.84992 0.37747 0.0
H1445 H 0.75441 0.87919 0.39427 0.0
H1446 H 0.80835 0.86988 0.38979 0.0
H1447 H 0.83295 0.82341 0.39996 0.0
H1448 H 0.19674 0.8398 0.32442 0.0
H1449 H 0.14933 0.81859 0.31242 0.0
H1450 H 0.11943 0.80321 0.36974 0.0
H1451 H 0.16651 0.82409 0.38188 0.0
H1452 H 0.12399 0.75713 0.32213 0.0
H1453 H 0.05094 0.85343 0.34202 0.0
H1454 H 0.09114 0.85717 0.33842 0.0
H1455 H 0.07678 0.84249 0.36039 0.0
C1456 C 0.18001 0.83199 0.33447 0.0
C1457 C 0.18532 0.83371 0.35412 0.0
C1458 C 0.15304 0.81987 0.32757 0.0
C1459 C 0.13093 0.80975 0.34023 0.0
C1460 C 0.1362 0.8113 0.35979 0.0
H1461 H 0.00031 0.69318 0.36554 0.0
H1462 H 0.04531 0.71526 0.35171 0.0
C1463 C 0.16315 0.82312 0.36669 0.0
C1464 C 0.10235 0.79678 0.33339 0.0
H1465 H 0.02679 0.80484 0.33972 0.0
C1466 C 0.10261 0.76779 0.32543 0.0
C1467 C 0.07462 0.81109 0.33727 0.0
C1468 C 0.07324 0.84291 0.34482 0.0
C1469 C 0.07574 0.75147 0.32312 0.0
C1470 C 0.04828 0.76447 0.32921 0.0
C1471 C 0.04785 0.7947 0.33519 0.0
C1472 C 0.02125 0.74597 0.33323 0.0
C1473 C 0.07721 0.71995 0.31515 0.0
C1474 C 0.99262 0.75537 0.32716 0.0
C1475 C 0.96666 0.74293 0.33527 0.0
C1476 C 0.96906 0.72119 0.34972 0.0
C1477 C 0.99769 0.71009 0.35457 0.0
C1478 C 0.02353 0.72244 0.34646 0.0
H1479 H 0.0954 0.71815 0.30438 0.0
H1480 H 0.08261 0.70388 0.32672 0.0
H1481 H 0.05549 0.71316 0.30858 0.0
H1482 H 0.99039 0.77366 0.31708 0.0
H1483 H 0.9449 0.75187 0.33116 0.0
H1484 H 0.23929 0.96063 0.32585 0.0
H1485 H 0.22007 0.01107 0.31843 0.0
H1486 H 0.28381 0.04995 0.35766 0.0
H1487 H 0.30345 0.00014 0.36475 0.0
H1488 H 0.19254 0.04228 0.34535 0.0
H1489 H 0.28397 0.11355 0.31762 0.0
H1490 H 0.2861 0.07282 0.31725 0.0
H1491 H 0.29726 0.09369 0.33807 0.0
C1492 C 0.24994 0.98005 0.33234 0.0
C1493 C 0.27258 0.97638 0.3461 0.0
C1494 C 0.23891 0.00885 0.32809 0.0
C1495 C 0.25061 0.03434 0.33738 0.0
C1496 C 0.27484 0.0308 0.34995 0.0
H1497 H 0.20409 0.18686 0.39596 0.0
H1498 H 0.22435 0.14255 0.37981 0.0
C1499 C 0.28584 0.00216 0.35419 0.0
C1500 C 0.23428 0.06347 0.33704 0.0
H1501 H 0.24709 0.13938 0.33831 0.0
C1502 C 0.20412 0.06356 0.34314 0.0
C1503 C 0.24934 0.09124 0.33414 0.0
C1504 C 0.28087 0.09276 0.3262 0.0
C1505 C 0.18966 0.0905 0.34818 0.0
C1506 C 0.20577 0.11791 0.34699 0.0
C1507 C 0.23499 0.11817 0.33941 0.0
C1508 C 0.1941 0.14566 0.35587 0.0
C1509 C 0.15811 0.08933 0.35617 0.0
C1510 C 0.17044 0.16195 0.34764 0.0
C1511 C 0.15873 0.18732 0.35684 0.0
C1512 C 0.17049 0.19663 0.37444 0.0
C1513 C 0.19439 0.18025 0.3825 0.0
C1514 C 0.20613 0.15505 0.37325 0.0
H1515 H 0.1492 0.06592 0.35696 0.0
H1516 H 0.15779 0.09931 0.3706 0.0
H1517 H 0.14279 0.10292 0.34714 0.0
H1518 H 0.16095 0.15494 0.3342 0.0
H1519 H 0.14039 0.1995 0.3502 0.0
H1520 H 0.23354 0.25544 0.08683 0.0
H1521 H 0.2366 0.22433 0.05831 0.0
H1522 H 0.15247 0.26156 0.03865 0.0
H1523 H 0.14919 0.29274 0.06744 0.0
H1524 H 0.19573 0.18243 0.03561 0.0
H1525 H 0.22244 0.29378 0.0028 0.0
H1526 H 0.22314 0.28828 0.02812 0.0
H1527 H 0.18777 0.29033 0.01587 0.0
C1528 C 0.21502 0.25602 0.07682 0.0
C1529 C 0.19112 0.27647 0.07933 0.0
C1530 C 0.21681 0.23824 0.06051 0.0
C1531 C 0.19496 0.24087 0.04627 0.0
C1532 C 0.1696 0.25923 0.04949 0.0
H1533 H 0.24577 0.21378 0.92868 0.0
H1534 H 0.21253 0.22074 0.95599 0.0
C1535 C 0.1676 0.27685 0.066 0.0
C1536 C 0.20181 0.22869 0.02712 0.0
H1537 H 0.2302 0.2509 0.98443 0.0
C1538 C 0.20275 0.19733 0.02424 0.0
C1539 C 0.21111 0.24815 0.01236 0.0
C1540 C 0.21131 0.28202 0.01482 0.0
C1541 C 0.2132 0.18494 0.00705 0.0
C1542 C 0.22389 0.20443 0.99259 0.0
C1543 C 0.22193 0.23581 0.99536 0.0
C1544 C 0.23932 0.19342 0.97506 0.0
C1545 C 0.21267 0.15113 0.00463 0.0
C1546 C 0.26468 0.17439 0.97625 0.0
C1547 C 0.28317 0.16961 0.9604 0.0
C1548 C 0.27701 0.18435 0.94323 0.0
C1549 C 0.25072 0.2018 0.9417 0.0
C1550 C 0.23187 0.20598 0.95737 0.0
H1551 H 0.19409 0.14085 0.01299 0.0
H1552 H 0.2099 0.14461 0.98954 0.0
H1553 H 0.23418 0.14157 0.00995 0.0
H1554 H 0.27158 0.16506 0.98974 0.0
H1555 H 0.30375 0.15672 0.96206 0.0
H1556 H 0.75969 0.25589 0.92014 0.0
H1557 H 0.75815 0.22441 0.94815 0.0
H1558 H 0.85292 0.24062 0.95759 0.0
H1559 H 0.8541 0.27405 0.92971 0.0
H1560 H 0.78145 0.17653 0.96357 0.0
H1561 H 0.82052 0.27655 0.00483 0.0
H1562 H 0.81272 0.27909 0.97987 0.0
H1563 H 0.84655 0.26086 0.98806 0.0
C1564 C 0.78045 0.25238 0.92793 0.0
C1565 C 0.80685 0.26808 0.92294 0.0
C1566 C 0.77957 0.23414 0.94399 0.0
C1567 C 0.80513 0.2308 0.95551 0.0
C1568 C 0.83257 0.24365 0.94937 0.0
H1569 H 0.73126 0.14961 0.06212 0.0
H1570 H 0.76764 0.15161 0.03563 0.0
C1571 C 0.83338 0.26238 0.93324 0.0
C1572 C 0.80102 0.21727 0.97477 0.0
H1573 H 0.79652 0.23832 0.02127 0.0
C1574 C 0.78536 0.1897 0.97628 0.0
C1575 C 0.80631 0.23427 0.99148 0.0
C1576 C 0.82227 0.26439 0.9911 0.0
C1577 C 0.77199 0.18048 0.99345 0.0
C1578 C 0.77518 0.19883 0.00973 0.0
C1579 C 0.79388 0.22441 0.00873 0.0
C1580 C 0.75443 0.19629 0.02631 0.0
C1581 C 0.75229 0.15271 0.99359 0.0
C1582 C 0.73528 0.22068 0.03008 0.0
C1583 C 0.71508 0.21976 0.04513 0.0
C1584 C 0.71306 0.19426 0.05698 0.0
C1585 C 0.73215 0.16955 0.05327 0.0
C1586 C 0.75285 0.17063 0.03808 0.0
H1587 H 0.74978 0.14264 0.97926 0.0
H1588 H 0.76235 0.13548 0.00307 0.0
H1589 H 0.72953 0.1583 0.99913 0.0
H1590 H 0.7357 0.24061 0.02118 0.0
H1591 H 0.70072 0.23923 0.04726 0.0
H1592 H 0.75018 0.77721 0.93863 0.0
H1593 H 0.78386 0.77314 0.96576 0.0
H1594 H 0.75564 0.86111 0.98501 0.0
H1595 H 0.7213 0.86511 0.95766 0.0
H1596 H 0.83082 0.80558 0.98297 0.0
H1597 H 0.72665 0.8047 0.02729 0.0
H1598 H 0.72499 0.80239 0.00181 0.0
H1599 H 0.73386 0.83761 0.0131 0.0
C1600 C 0.75185 0.79614 0.94831 0.0
C1601 C 0.73303 0.8214 0.94611 0.0
C1602 C 0.77113 0.79379 0.96384 0.0
C1603 C 0.77187 0.8165 0.97767 0.0
C1604 C 0.75508 0.84306 0.97467 0.0
H1605 H 0.82113 0.75055 0.09072 0.0
H1606 H 0.81626 0.79039 0.06661 0.0
C1607 C 0.73576 0.84552 0.95893 0.0
C1608 C 0.78713 0.80991 0.99601 0.0
H1609 H 0.77087 0.7872 0.04114 0.0
C1610 C 0.81789 0.8023 0.99586 0.0
C1611 C 0.77036 0.80568 0.0129 0.0
C1612 C 0.73711 0.81282 0.01392 0.0
C1613 C 0.83175 0.78877 0.01165 0.0
C1614 C 0.81431 0.78222 0.02794 0.0
C1615 C 0.78427 0.79217 0.02867 0.0
C1616 C 0.82473 0.76072 0.04281 0.0
C1617 C 0.86466 0.78052 0.01043 0.0
C1618 C 0.83208 0.73104 0.03757 0.0
C1619 C 0.83481 0.70847 0.05126 0.0
C1620 C 0.83048 0.71504 0.07053 0.0
C1621 C 0.82536 0.74509 0.076 0.0
C1622 C 0.82231 0.76776 0.06221 0.0
H1623 H 0.87708 0.79667 0.00125 0.0
H1624 H 0.8754 0.78015 0.02464 0.0
H1625 H 0.86685 0.75778 0.00398 0.0
H1626 H 0.83325 0.72471 0.02276 0.0
H1627 H 0.83806 0.68535 0.04667 0.0
H1628 H 0.13269 0.69307 0.9452 0.0
H1629 H 0.13589 0.72823 0.97206 0.0
H1630 H 0.20588 0.7777 0.94312 0.0
H1631 H 0.20247 0.74283 0.91641 0.0
H1632 H 0.18822 0.72993 0.99169 0.0
H1633 H 0.16141 0.84612 0.96896 0.0
H1634 H 0.14945 0.8133 0.95572 0.0
H1635 H 0.1871 0.82792 0.953 0.0
C1636 C 0.14751 0.71246 0.9442 0.0
C1637 C 0.16686 0.71572 0.9286 0.0
C1638 C 0.14956 0.73238 0.95961 0.0
C1639 C 0.17093 0.7559 0.95961 0.0
C1640 C 0.18866 0.76036 0.94335 0.0
H1641 H 0.28866 0.84737 0.03381 0.0
H1642 H 0.25415 0.8345 0.00795 0.0
C1643 C 0.1867 0.74041 0.92804 0.0
C1644 C 0.17887 0.77188 0.97752 0.0
H1645 H 0.19459 0.84148 0.99611 0.0
C1646 C 0.18888 0.75434 0.99284 0.0
C1647 C 0.18017 0.80374 0.97896 0.0
C1648 C 0.16867 0.82385 0.96333 0.0
C1649 C 0.20175 0.76757 0.00902 0.0
C1650 C 0.20393 0.79945 0.01025 0.0
C1651 C 0.19283 0.8171 0.99525 0.0
C1652 C 0.22042 0.81429 0.02615 0.0
C1653 C 0.21471 0.74706 0.02406 0.0
C1654 C 0.21207 0.80916 0.0451 0.0
C1655 C 0.23192 0.81637 0.05987 0.0
C1656 C 0.25997 0.82969 0.05596 0.0
C1657 C 0.26683 0.83781 0.03722 0.0
C1658 C 0.24719 0.83021 0.02242 0.0
H1659 H 0.2172 0.72346 0.01895 0.0
H1660 H 0.23715 0.75522 0.0288 0.0
H1661 H 0.19941 0.74674 0.03649 0.0
H1662 H 0.19126 0.79747 0.04837 0.0
H1663 H 0.22642 0.80932 0.07416 0.0
H1664 H 0.80257 0.64666 0.45424 0.0
H1665 H 0.76947 0.6514 0.48219 0.0
H1666 H 0.74523 0.74141 0.46465 0.0
H1667 H 0.77793 0.73684 0.43712 0.0
H1668 H 0.77858 0.69527 0.51009 0.0
H1669 H 0.664 0.7077 0.48094 0.0
H1670 H 0.69452 0.69118 0.4675 0.0
H1671 H 0.69015 0.73158 0.46866 0.0
C1672 C 0.78937 0.66701 0.4561 0.0
C1673 C 0.79277 0.69136 0.4435 0.0
C1674 C 0.77061 0.66978 0.4721 0.0
C1675 C 0.75448 0.69664 0.47543 0.0
C1676 C 0.75679 0.72022 0.46225 0.0
H1677 H 0.6946 0.82333 0.54975 0.0
H1678 H 0.70219 0.78697 0.52425 0.0
C1679 C 0.7757 0.71765 0.44654 0.0
C1680 C 0.73838 0.70225 0.49363 0.0
H1681 H 0.67367 0.73394 0.51079 0.0
C1682 C 0.75531 0.70278 0.51043 0.0
C1683 C 0.70801 0.71201 0.4941 0.0
C1684 C 0.68805 0.71029 0.47684 0.0
C1685 C 0.74368 0.71554 0.52718 0.0
C1686 C 0.7141 0.72763 0.5272 0.0
C1687 C 0.69635 0.72478 0.51081 0.0
C1688 C 0.7035 0.74796 0.54266 0.0
C1689 C 0.76404 0.7183 0.54423 0.0
C1690 C 0.70015 0.73804 0.56151 0.0
C1691 C 0.69543 0.75899 0.57621 0.0
C1692 C 0.69406 0.79001 0.57217 0.0
C1693 C 0.69528 0.7995 0.5532 0.0
C1694 C 0.69972 0.77872 0.53862 0.0
H1695 H 0.78747 0.71093 0.54114 0.0
H1696 H 0.76466 0.74203 0.54929 0.0
H1697 H 0.75512 0.70409 0.55589 0.0
H1698 H 0.70262 0.71435 0.56494 0.0
H1699 H 0.69505 0.75118 0.59075 0.0
H1700 H 0.24906 0.71907 0.56594 0.0
H1701 H 0.27523 0.72442 0.53595 0.0
H1702 H 0.24601 0.63533 0.51942 0.0
H1703 H 0.21818 0.63045 0.54943 0.0
H1704 H 0.31695 0.69954 0.51442 0.0
H1705 H 0.20513 0.68436 0.47963 0.0
H1706 H 0.20886 0.68611 0.50499 0.0
H1707 H 0.2196 0.65249 0.49239 0.0
C1708 C 0.24865 0.70025 0.55613 0.0
C1709 C 0.23092 0.6746 0.55992 0.0
C1710 C 0.2638 0.70331 0.53892 0.0
C1711 C 0.26187 0.68074 0.52503 0.0
C1712 C 0.24705 0.65354 0.52962 0.0
H1713 H 0.33267 0.7588 0.4163 0.0
H1714 H 0.3298 0.72034 0.4416 0.0
C1715 C 0.2315 0.65055 0.54691 0.0
C1716 C 0.27203 0.6881 0.50535 0.0
H1717 H 0.24357 0.70522 0.46164 0.0
C1718 C 0.30113 0.70014 0.50271 0.0
C1719 C 0.25142 0.68895 0.48999 0.0
C1720 C 0.21946 0.67751 0.4918 0.0
C1721 C 0.30921 0.71528 0.48589 0.0
C1722 C 0.28786 0.71784 0.4711 0.0
C1723 C 0.25988 0.70328 0.47303 0.0
C1724 C 0.29114 0.74038 0.45552 0.0
C1725 C 0.33954 0.73056 0.48467 0.0
C1726 C 0.27048 0.76423 0.45485 0.0
C1727 C 0.27188 0.78573 0.44053 0.0
C1728 C 0.29411 0.78429 0.42629 0.0
C1729 C 0.3153 0.76063 0.42702 0.0
C1730 C 0.31372 0.7387 0.4415 0.0
H1731 H 0.35249 0.7287 0.49809 0.0
H1732 H 0.35297 0.72006 0.47316 0.0
H1733 H 0.33668 0.75483 0.48118 0.0
H1734 H 0.25304 0.76629 0.46554 0.0
H1735 H 0.2553 0.80367 0.44073 0.0
H1736 H 0.21623 0.34965 0.45906 0.0
H1737 H 0.25001 0.34511 0.48661 0.0
H1738 H 0.28021 0.25851 0.46612 0.0
H1739 H 0.24703 0.26306 0.43887 0.0
H1740 H 0.24198 0.30104 0.51247 0.0
H1741 H 0.3582 0.29151 0.4861 0.0
H1742 H 0.32828 0.30741 0.47188 0.0
H1743 H 0.33413 0.26713 0.47264 0.0
C1744 C 0.23107 0.33031 0.46009 0.0
C1745 C 0.22908 0.30673 0.44683 0.0
C1746 C 0.25022 0.32763 0.47588 0.0
C1747 C 0.26801 0.30161 0.47839 0.0
C1748 C 0.26743 0.27915 0.46437 0.0
H1749 H 0.31743 0.16839 0.54971 0.0
H1750 H 0.31373 0.20714 0.52525 0.0
C1751 C 0.24823 0.28168 0.44881 0.0
C1752 C 0.28314 0.29497 0.49678 0.0
H1753 H 0.3464 0.26124 0.5145 0.0
C1754 C 0.26517 0.29336 0.51313 0.0
C1755 C 0.31344 0.28503 0.49772 0.0
C1756 C 0.33465 0.28819 0.48115 0.0
C1757 C 0.2756 0.27921 0.52972 0.0
C1758 C 0.30496 0.26667 0.53003 0.0
C1759 C 0.32385 0.27069 0.51425 0.0
C1760 C 0.31397 0.24464 0.54489 0.0
C1761 C 0.25419 0.27538 0.54617 0.0
C1762 C 0.31689 0.25288 0.56407 0.0
C1763 C 0.3194 0.23056 0.57815 0.0
C1764 C 0.31892 0.19987 0.57314 0.0
C1765 C 0.31819 0.19192 0.55389 0.0
C1766 C 0.31599 0.21406 0.53991 0.0
H1767 H 0.23124 0.28402 0.54296 0.0
H1768 H 0.25239 0.25118 0.55011 0.0
H1769 H 0.26299 0.28783 0.55864 0.0
H1770 H 0.3156 0.27638 0.5682 0.0
H1771 H 0.31943 0.23719 0.59292 0.0
H1772 H 0.75127 0.26878 0.56454 0.0
H1773 H 0.71829 0.26439 0.53712 0.0
H1774 H 0.7474 0.35191 0.51758 0.0
H1775 H 0.78108 0.3563 0.54522 0.0
H1776 H 0.67138 0.29797 0.52044 0.0
H1777 H 0.77409 0.29466 0.47492 0.0
H1778 H 0.77634 0.29207 0.50038 0.0
H1779 H 0.76843 0.32766 0.4893 0.0
C1780 C 0.75022 0.28745 0.55465 0.0
C1781 C 0.76904 0.31276 0.55695 0.0
C1782 C 0.73126 0.28492 0.53896 0.0
C1783 C 0.73074 0.30751 0.52506 0.0
C1784 C 0.74778 0.33394 0.52798 0.0
H1785 H 0.67584 0.25089 0.41111 0.0
H1786 H 0.68346 0.28797 0.43658 0.0
C1787 C 0.76679 0.33659 0.54386 0.0
C1788 C 0.71477 0.30128 0.50689 0.0
H1789 H 0.72865 0.27999 0.46118 0.0
C1790 C 0.68377 0.29469 0.50735 0.0
C1791 C 0.73083 0.29702 0.48975 0.0
C1792 C 0.76428 0.30301 0.48842 0.0
C1793 C 0.66883 0.28249 0.4915 0.0
C1794 C 0.6854 0.27618 0.47482 0.0
C1795 C 0.71587 0.28479 0.47393 0.0
C1796 C 0.67325 0.25676 0.4593 0.0
C1797 C 0.63561 0.27567 0.493 0.0
C1798 C 0.66384 0.22721 0.46347 0.0
C1799 C 0.65932 0.20621 0.44896 0.0
C1800 C 0.66396 0.21428 0.42995 0.0
C1801 C 0.67118 0.24437 0.42561 0.0
C1802 C 0.67588 0.26544 0.44018 0.0
H1803 H 0.62429 0.2917 0.50279 0.0
H1804 H 0.62436 0.27678 0.47896 0.0
H1805 H 0.63258 0.25262 0.49886 0.0
H1806 H 0.66245 0.21956 0.47802 0.0
H1807 H 0.65469 0.18294 0.45269 0.0
H1808 H 0.27547 0.59926 0.95124 0.0
H1809 H 0.30108 0.5668 0.97437 0.0
H1810 H 0.2431 0.49272 0.95858 0.0
H1811 H 0.21812 0.52439 0.9354 0.0
H1812 H 0.27772 0.5407 0.00455 0.0
H1813 H 0.32226 0.4499 0.95971 0.0
H1814 H 0.3104 0.48569 0.94994 0.0
H1815 H 0.28352 0.45561 0.9536 0.0
C1816 C 0.26838 0.57597 0.95264 0.0
C1817 C 0.24477 0.56439 0.94146 0.0
C1818 C 0.28319 0.55742 0.96573 0.0
C1819 C 0.2747 0.52705 0.96776 0.0
C1820 C 0.25096 0.51569 0.95673 0.0
H1821 H 0.21597 0.41378 0.04189 0.0
H1822 H 0.23648 0.44362 0.01586 0.0
C1823 C 0.23633 0.53403 0.94365 0.0
C1824 C 0.28754 0.50782 0.9829 0.0
H1825 H 0.30283 0.43361 0.99139 0.0
C1826 C 0.28458 0.51765 0.0017 0.0
C1827 C 0.29708 0.47788 0.97925 0.0
C1828 C 0.30382 0.46687 0.95948 0.0
C1829 C 0.28683 0.49721 0.01677 0.0
C1830 C 0.29185 0.46638 0.01281 0.0
C1831 C 0.2986 0.45727 0.9943 0.0
C1832 C 0.28218 0.44337 0.02655 0.0
C1833 C 0.2804 0.50796 0.03664 0.0
C1834 C 0.30151 0.43244 0.04069 0.0
C1835 C 0.28984 0.4149 0.05551 0.0
C1836 C 0.25875 0.4088 0.05636 0.0
C1837 C 0.23998 0.41831 0.04154 0.0
C1838 C 0.25166 0.43527 0.02669 0.0
H1839 H 0.28185 0.53293 0.03782 0.0
H1840 H 0.25733 0.50083 0.04081 0.0
H1841 H 0.29652 0.49764 0.04678 0.0
H1842 H 0.32512 0.43873 0.04076 0.0
H1843 H 0.30463 0.40797 0.06692 0.0
H1844 H 0.57554 0.23411 0.03386 0.0
H1845 H 0.54236 0.26165 0.01239 0.0
H1846 H 0.54311 0.33813 0.05024 0.0
H1847 H 0.57751 0.3107 0.07161 0.0
H1848 H 0.48439 0.30881 0.0421 0.0
H1849 H 0.54638 0.33752 0.97669 0.0
H1850 H 0.55728 0.30138 0.98594 0.0
H1851 H 0.56447 0.33491 0.99964 0.0
C1852 C 0.56948 0.25719 0.03724 0.0
C1853 C 0.57899 0.27044 0.05422 0.0
C1854 C 0.55071 0.27298 0.02496 0.0
C1855 C 0.54064 0.30206 0.02964 0.0
C1856 C 0.55111 0.31592 0.04627 0.0
H1857 H 0.39839 0.30875 0.94424 0.0
H1858 H 0.42795 0.33677 0.96807 0.0
C1859 C 0.57066 0.3003 0.05839 0.0
C1860 C 0.51518 0.31458 0.01875 0.0
H1861 H 0.49437 0.31931 0.97245 0.0
C1862 C 0.48644 0.31264 0.02697 0.0
C1863 C 0.51787 0.31997 0.99911 0.0
C1864 C 0.54823 0.32389 0.98985 0.0
C1865 C 0.46058 0.31112 0.0156 0.0
C1866 C 0.46383 0.31173 0.99571 0.0
C1867 C 0.492 0.31853 0.98774 0.0
C1868 C 0.4415 0.29676 0.98342 0.0
C1869 C 0.43042 0.30537 0.02474 0.0
C1870 C 0.43931 0.26521 0.98437 0.0
C1871 C 0.42331 0.24934 0.97066 0.0
C1872 C 0.40872 0.26477 0.95598 0.0
C1873 C 0.40929 0.29649 0.95561 0.0
C1874 C 0.42608 0.31245 0.96914 0.0
H1875 H 0.42967 0.31475 0.03934 0.0
H1876 H 0.41189 0.31539 0.01624 0.0
H1877 H 0.42658 0.28066 0.02567 0.0
H1878 H 0.45151 0.25272 0.99511 0.0
H1879 H 0.42318 0.22489 0.97117 0.0
H1880 H 0.79124 0.53184 0.05557 0.0
H1881 H 0.7669 0.49861 0.03285 0.0
H1882 H 0.69274 0.56104 0.02768 0.0
H1883 H 0.71743 0.59507 0.05042 0.0
H1884 H 0.70888 0.4716 0.03635 0.0
H1885 H 0.71897 0.5451 0.97239 0.0
H1886 H 0.74088 0.55253 0.99342 0.0
H1887 H 0.7011 0.55975 0.99337 0.0
C1888 C 0.76985 0.53871 0.04955 0.0
C1889 C 0.75627 0.56611 0.05478 0.0
C1890 C 0.75588 0.5196 0.03664 0.0
C1891 C 0.72797 0.52731 0.02869 0.0
C1892 C 0.71438 0.55481 0.0336 0.0
H1893 H 0.69619 0.40736 0.93204 0.0
H1894 H 0.67561 0.43857 0.95787 0.0
C1895 C 0.72854 0.57421 0.04652 0.0
C1896 C 0.71415 0.5061 0.01507 0.0
H1897 H 0.71072 0.49357 0.9675 0.0
C1898 C 0.70824 0.47658 0.0213 0.0
C1899 C 0.71288 0.51278 0.9955 0.0
C1900 C 0.71882 0.54419 0.98812 0.0
C1901 C 0.70466 0.4529 0.00836 0.0
C1902 C 0.70704 0.45904 0.98882 0.0
C1903 C 0.70903 0.48904 0.98256 0.0
C1904 C 0.71558 0.43517 0.9753 0.0
C1905 C 0.70108 0.42112 0.01564 0.0
C1906 C 0.74454 0.42268 0.97681 0.0
C1907 C 0.75644 0.40565 0.96204 0.0
C1908 C 0.73936 0.40036 0.94569 0.0
C1909 C 0.70953 0.41091 0.9447 0.0
C1910 C 0.69782 0.42869 0.95936 0.0
H1911 H 0.6901 0.42089 0.02979 0.0
H1912 H 0.68758 0.40719 0.00567 0.0
H1913 H 0.72368 0.41064 0.0171 0.0
H1914 H 0.75877 0.42792 0.98885 0.0
H1915 H 0.77954 0.39783 0.963 0.0
H1916 H 0.39942 0.78633 0.01744 0.0
H1917 H 0.43667 0.75836 0.99917 0.0
H1918 H 0.42597 0.68177 0.0363 0.0
H1919 H 0.38809 0.70967 0.05455 0.0
H1920 H 0.4836 0.70709 0.03645 0.0
H1921 H 0.44776 0.68722 0.96278 0.0
H1922 H 0.43637 0.72409 0.97043 0.0
H1923 H 0.42113 0.69122 0.98205 0.0
C1924 C 0.40402 0.76307 0.0212 0.0
C1925 C 0.39108 0.75021 0.03743 0.0
C1926 C 0.42517 0.74698 0.01068 0.0
C1927 C 0.43395 0.71789 0.01632 0.0
C1928 C 0.41922 0.70404 0.03161 0.0
H1929 H 0.59835 0.70745 0.95008 0.0
H1930 H 0.56048 0.68054 0.96906 0.0
C1931 C 0.39757 0.72 0.04198 0.0
C1932 C 0.46262 0.70573 0.00888 0.0
H1933 H 0.50079 0.70314 0.9671 0.0
C1934 C 0.48733 0.70487 0.02132 0.0
C1935 C 0.4675 0.70228 0.98923 0.0
C1936 C 0.44165 0.70092 0.9754 0.0
C1937 C 0.51693 0.70517 0.01438 0.0
C1938 C 0.52168 0.70639 0.99462 0.0
C1939 C 0.49711 0.70267 0.98229 0.0
C1940 C 0.54973 0.71907 0.98663 0.0
C1941 C 0.54276 0.70704 0.02821 0.0
C1942 C 0.55672 0.74932 0.99061 0.0
C1943 C 0.57778 0.76477 0.97965 0.0
C1944 C 0.59248 0.75012 0.96466 0.0
C1945 C 0.5875 0.71912 0.96173 0.0
C1946 C 0.56588 0.70375 0.9725 0.0
H1947 H 0.53725 0.69502 0.04158 0.0
H1948 H 0.5637 0.69733 0.0221 0.0
H1949 H 0.54703 0.73106 0.03178 0.0
H1950 H 0.54409 0.76175 0.00119 0.0
H1951 H 0.58118 0.78867 0.98212 0.0
H1952 H 0.7842 0.10484 0.44354 0.0
H1953 H 0.81137 0.07622 0.46788 0.0
H1954 H 0.74464 0.00549 0.46425 0.0
H1955 H 0.71826 0.03315 0.43972 0.0
H1956 H 0.79384 0.06242 0.50137 0.0
H1957 H 0.81777 0.95466 0.46687 0.0
H1958 H 0.80761 0.98774 0.45332 0.0
H1959 H 0.7789 0.96258 0.46236 0.0
C1960 C 0.77561 0.08298 0.4478 0.0
C1961 C 0.74908 0.07123 0.43972 0.0
C1962 C 0.79127 0.06659 0.46159 0.0
C1963 C 0.7806 0.03827 0.46751 0.0
C1964 C 0.75413 0.02664 0.45939 0.0
H1965 H 0.72516 0.97182 0.56362 0.0
H1966 H 0.74701 0.00171 0.53843 0.0
C1967 C 0.73874 0.04275 0.44553 0.0
C1968 C 0.79409 0.0224 0.4839 0.0
H1969 H 0.80009 0.95066 0.5007 0.0
C1970 C 0.79638 0.03807 0.50112 0.0
C1971 C 0.79893 0.99083 0.48367 0.0
C1972 C 0.80104 0.97318 0.46545 0.0
C1973 C 0.79854 0.02245 0.51831 0.0
C1974 C 0.79725 0.99055 0.51817 0.0
C1975 C 0.79991 0.97514 0.50089 0.0
C1976 C 0.78652 0.97348 0.53488 0.0
C1977 C 0.79994 0.04029 0.53649 0.0
C1978 C 0.80082 0.94689 0.54089 0.0
C1979 C 0.78789 0.92917 0.55518 0.0
C1980 C 0.76042 0.93779 0.56357 0.0
C1981 C 0.74643 0.96457 0.55759 0.0
C1982 C 0.75918 0.98201 0.54333 0.0
H1983 H 0.81422 0.06069 0.53462 0.0
H1984 H 0.77696 0.04813 0.54029 0.0
H1985 H 0.80911 0.02665 0.54836 0.0
H1986 H 0.82167 0.93961 0.53432 0.0
H1987 H 0.79925 0.90867 0.55952 0.0
H1988 H 0.98155 0.72605 0.43998 0.0
H1989 H 0.01491 0.75121 0.46208 0.0
H1990 H 0.94777 0.81986 0.47202 0.0
H1991 H 0.91344 0.79413 0.44991 0.0
H1992 H 0.03886 0.8098 0.46244 0.0
H1993 H 0.96541 0.78773 0.52524 0.0
H1994 H 0.95828 0.76923 0.50292 0.0
H1995 H 0.95061 0.80879 0.50553 0.0
C1996 C 0.9737 0.74652 0.44677 0.0
C1997 C 0.94467 0.75792 0.44328 0.0
C1998 C 0.99296 0.76103 0.45933 0.0
C1999 C 0.98384 0.78739 0.4687 0.0
C2000 C 0.95512 0.79937 0.46505 0.0
H2001 H 0.10137 0.79648 0.56736 0.0
H2002 H 0.07171 0.82453 0.54368 0.0
C2003 C 0.93557 0.78463 0.45246 0.0
C2004 C 0.00437 0.80024 0.48312 0.0
H2005 H 0.01683 0.79449 0.53061 0.0
C2006 C 0.03383 0.80763 0.47742 0.0
C2007 C 0.99767 0.79792 0.50266 0.0
C2008 C 0.96635 0.79045 0.5096 0.0
C2009 C 0.05749 0.80852 0.49056 0.0
C2010 C 0.05137 0.80205 0.50974 0.0
C2011 C 0.02138 0.79921 0.5158 0.0
C2012 C 0.07496 0.78974 0.52227 0.0
C2013 C 0.08925 0.81339 0.4836 0.0
C2014 C 0.08689 0.76124 0.51788 0.0
C2015 C 0.10298 0.74507 0.53141 0.0
C2016 C 0.10795 0.75739 0.54941 0.0
C2017 C 0.09808 0.78683 0.5534 0.0
C2018 C 0.08121 0.80281 0.53996 0.0
H2019 H 0.08954 0.82778 0.47071 0.0
H2020 H 0.10345 0.82403 0.49471 0.0
H2021 H 0.09932 0.79125 0.47985 0.0
H2022 H 0.08175 0.7505 0.50446 0.0
H2023 H 0.11024 0.72229 0.52815 0.0
H2024 H 0.19559 0.90231 0.43623 0.0
H2025 H 0.17208 0.93171 0.46175 0.0
H2026 H 0.24687 0.99404 0.46042 0.0
H2027 H 0.26984 0.96566 0.43496 0.0
H2028 H 0.19267 0.94072 0.49604 0.0
H2029 H 0.17926 0.05263 0.46446 0.0
H2030 H 0.18495 0.01939 0.45004 0.0
H2031 H 0.21674 0.04044 0.4591 0.0
C2032 C 0.20674 0.92255 0.44124 0.0
C2033 C 0.2346 0.93164 0.43356 0.0
C2034 C 0.1932 0.93938 0.45572 0.0
C2035 C 0.20724 0.96559 0.46262 0.0
C2036 C 0.23493 0.97463 0.45485 0.0
H2037 H 0.27094 0.02097 0.56021 0.0
H2038 H 0.24629 0.99455 0.53446 0.0
C2039 C 0.24832 0.95804 0.44042 0.0
C2040 C 0.19581 0.98162 0.47955 0.0
H2041 H 0.19782 0.05251 0.49808 0.0
C2042 C 0.19262 0.9652 0.49643 0.0
C2043 C 0.19431 0.0135 0.48013 0.0
C2044 C 0.19362 0.03237 0.46236 0.0
C2045 C 0.19273 0.97988 0.51401 0.0
C2046 C 0.19718 0.0115 0.51459 0.0
C2047 C 0.19553 0.02814 0.49771 0.0
C2048 C 0.20963 0.02656 0.53161 0.0
C2049 C 0.19017 0.96115 0.53177 0.0
C2050 C 0.19794 0.05408 0.53819 0.0
C2051 C 0.21254 0.06977 0.55277 0.0
C2052 C 0.23908 0.05816 0.56092 0.0
C2053 C 0.25045 0.03048 0.55438 0.0
C2054 C 0.23606 0.01505 0.53979 0.0
H2055 H 0.17397 0.94232 0.52963 0.0
H2056 H 0.21241 0.95096 0.53506 0.0
H2057 H 0.18268 0.97486 0.54408 0.0
H2058 H 0.17785 0.06363 0.53186 0.0
H2059 H 0.20318 0.09102 0.55755 0.0
H2060 H 0.90694 0.26928 0.52522 0.0
H2061 H 0.94209 0.24106 0.50552 0.0
H2062 H 0.93646 0.16544 0.54388 0.0
H2063 H 0.90046 0.19369 0.56356 0.0
H2064 H 0.99413 0.19065 0.54041 0.0
H2065 H 0.94786 0.16903 0.46932 0.0
H2066 H 0.93717 0.20595 0.47726 0.0
H2067 H 0.92412 0.1732 0.49002 0.0
C2068 C 0.91217 0.24615 0.52899 0.0
C2069 C 0.90111 0.23359 0.54583 0.0
C2070 C 0.93211 0.22992 0.51767 0.0
C2071 C 0.94168 0.201 0.52313 0.0
C2072 C 0.92901 0.18754 0.53929 0.0
H2073 H 0.09679 0.19266 0.44823 0.0
H2074 H 0.06147 0.16519 0.46883 0.0
C2075 C 0.90845 0.20364 0.55047 0.0
C2076 C 0.96919 0.18866 0.5142 0.0
H2077 H 0.00105 0.18621 0.47036 0.0
C2078 C 0.99563 0.18829 0.52514 0.0
C2079 C 0.97121 0.18496 0.49437 0.0
C2080 C 0.94346 0.18297 0.48212 0.0
C2081 C 0.02407 0.18901 0.51648 0.0
C2082 C 0.02586 0.19019 0.49652 0.0
C2083 C -0.00035 0.18582 0.4857 0.0
C2084 C 0.05232 0.20351 0.48692 0.0
C2085 C 0.05181 0.19141 0.52872 0.0
C2086 C 0.05925 0.23388 0.49056 0.0
C2087 C 0.07881 0.24963 0.47871 0.0
C2088 C 0.09208 0.2352 0.46312 0.0
C2089 C 0.08705 0.20417 0.46031 0.0
C2090 C 0.06689 0.18849 0.472 0.0
H2091 H 0.04854 0.17933 0.54236 0.0
H2092 H 0.07193 0.18207 0.52141 0.0
H2093 H 0.05614 0.21552 0.53202 0.0
H2094 H 0.04777 0.24609 0.50174 0.0
H2095 H 0.08228 0.27354 0.48112 0.0
loop_
_geom_bond_atom_site_label_1
_geom_bond_atom_site_label_2
_geom_bond_distance
_geom_bond_site_symmetry_2
_ccdc_geom_bond_type
O0 Zn1 1.953 . S
O0 C16 1.225 . S
Zn1 O0 1.953 . S
Zn1 O2 1.949 . S
Zn1 O8 1.919 . S
Zn1 O13 1.924 . S
O2 Zn1 1.949 . S
O2 Zn3 1.923 . S
O2 Zn4 1.950 . S
O2 Zn5 1.945 . S
Zn3 O2 1.923 . S
Zn3 O6 1.933 . S
Zn3 O9 1.941 . S
Zn3 O10 1.965 . S
Zn4 O2 1.950 . S
Zn4 O11 1.938 . S
Zn4 O12 1.906 . S
Zn4 O22 1.953 . S
Zn5 O2 1.945 . S
Zn5 O7 1.932 . S
Zn5 O14 1.977 . S
Zn5 O15 1.910 . S
O6 Zn3 1.933 . S
O6 C17 1.226 . S
O7 Zn5 1.932 . S
O7 C17 1.307 . S
O8 Zn1 1.919 . S
O8 C19 1.253 . S
O9 Zn3 1.941 . S
O9 C19 1.283 . S
O10 Zn3 1.965 . S
O10 C18 1.303 . S
O11 Zn4 1.938 . S
O11 C18 1.247 . S
O12 Zn4 1.906 . S
O12 C20 1.304 . S
O13 Zn1 1.924 . S
O13 C21 1.311 . S
O14 Zn5 1.977 . S
O14 C20 1.272 . S
O15 Zn5 1.910 . S
O15 C21 1.231 . S
C16 O0 1.225 . S
C16 O22 1.298 . S
C17 O6 1.226 . S
C17 O7 1.307 . S
C18 O10 1.303 . S
C18 O11 1.247 . S
C19 O8 1.253 . S
C19 O9 1.283 . S
C20 O12 1.304 . S
C20 O14 1.272 . S
C21 O13 1.311 . S
C21 O15 1.231 . S
O22 Zn4 1.953 . S
O22 C16 1.298 . S
O23 Zn24 1.953 . S
O23 C39 1.225 . S
Zn24 O23 1.953 . S
Zn24 O25 1.949 . S
Zn24 O31 1.919 . S
Zn24 O36 1.924 . S
O25 Zn24 1.949 . S
O25 Zn26 1.923 . S
O25 Zn27 1.950 . S
O25 Zn28 1.945 . S
Zn26 O25 1.923 . S
Zn26 O29 1.933 . S
Zn26 O32 1.941 . S
Zn26 O33 1.965 . S
Zn27 O25 1.950 . S
Zn27 O34 1.938 . S
Zn27 O35 1.906 . S
Zn27 O45 1.953 . S
Zn28 O25 1.945 . S
Zn28 O30 1.932 . S
Zn28 O37 1.977 . S
Zn28 O38 1.910 . S
O29 Zn26 1.933 . S
O29 C40 1.226 . S
O30 Zn28 1.932 . S
O30 C40 1.307 . S
O31 Zn24 1.919 . S
O31 C42 1.253 . S
O32 Zn26 1.941 . S
O32 C42 1.283 . S
O33 Zn26 1.965 . S
O33 C41 1.303 . S
O34 Zn27 1.938 . S
O34 C41 1.247 . S
O35 Zn27 1.906 . S
O35 C43 1.304 . S
O36 Zn24 1.924 . S
O36 C44 1.311 . S
O37 Zn28 1.977 . S
O37 C43 1.272 . S
O38 Zn28 1.910 . S
O38 C44 1.231 . S
C39 O23 1.225 . S
C39 O45 1.298 . S
C40 O29 1.226 . S
C40 O30 1.307 . S
C41 O33 1.303 . S
C41 O34 1.247 . S
C42 O31 1.253 . S
C42 O32 1.283 . S
C43 O35 1.304 . S
C43 O37 1.272 . S
C44 O36 1.311 . S
C44 O38 1.231 . S
O45 Zn27 1.953 . S
O45 C39 1.298 . S
O46 Zn47 1.953 . S
O46 C62 1.225 . S
Zn47 O46 1.953 . S
Zn47 O48 1.949 . S
Zn47 O54 1.919 . S
Zn47 O59 1.924 . S
O48 Zn47 1.949 . S
O48 Zn49 1.923 . S
O48 Zn50 1.950 . S
O48 Zn51 1.945 . S
Zn49 O48 1.923 . S
Zn49 O52 1.933 . S
Zn49 O55 1.941 . S
Zn49 O56 1.965 . S
Zn50 O48 1.950 . S
Zn50 O57 1.938 . S
Zn50 O58 1.906 . S
Zn50 O68 1.953 . S
Zn51 O48 1.945 . S
Zn51 O53 1.932 . S
Zn51 O60 1.977 . S
Zn51 O61 1.910 . S
O52 Zn49 1.933 . S
O52 C63 1.226 . S
O53 Zn51 1.932 . S
O53 C63 1.307 . S
O54 Zn47 1.919 . S
O54 C65 1.253 . S
O55 Zn49 1.941 . S
O55 C65 1.283 . S
O56 Zn49 1.965 . S
O56 C64 1.303 . S
O57 Zn50 1.938 . S
O57 C64 1.247 . S
O58 Zn50 1.906 . S
O58 C66 1.304 . S
O59 Zn47 1.924 . S
O59 C67 1.311 . S
O60 Zn51 1.977 . S
O60 C66 1.272 . S
O61 Zn51 1.910 . S
O61 C67 1.231 . S
C62 O46 1.225 . S
C62 O68 1.298 . S
C63 O52 1.226 . S
C63 O53 1.307 . S
C64 O56 1.303 . S
C64 O57 1.247 . S
C65 O54 1.253 . S
C65 O55 1.283 . S
C66 O58 1.304 . S
C66 O60 1.272 . S
C67 O59 1.311 . S
C67 O61 1.231 . S
O68 Zn50 1.953 . S
O68 C62 1.298 . S
O69 Zn70 1.953 . S
O69 C85 1.225 . S
Zn70 O69 1.953 . S
Zn70 O71 1.949 . S
Zn70 O77 1.919 . S
Zn70 O82 1.924 . S
O71 Zn70 1.949 . S
O71 Zn72 1.923 . S
O71 Zn73 1.950 . S
O71 Zn74 1.945 . S
Zn72 O71 1.923 . S
Zn72 O75 1.933 . S
Zn72 O78 1.941 . S
Zn72 O79 1.965 . S
Zn73 O71 1.950 . S
Zn73 O80 1.938 . S
Zn73 O81 1.906 . S
Zn73 O91 1.953 . S
Zn74 O71 1.945 . S
Zn74 O76 1.932 . S
Zn74 O83 1.977 . S
Zn74 O84 1.910 . S
O75 Zn72 1.933 . S
O75 C86 1.226 . S
O76 Zn74 1.932 . S
O76 C86 1.307 . S
O77 Zn70 1.919 . S
O77 C88 1.253 . S
O78 Zn72 1.941 . S
O78 C88 1.283 . S
O79 Zn72 1.965 . S
O79 C87 1.303 . S
O80 Zn73 1.938 . S
O80 C87 1.247 . S
O81 Zn73 1.906 . S
O81 C89 1.304 . S
O82 Zn70 1.924 . S
O82 C90 1.311 . S
O83 Zn74 1.977 . S
O83 C89 1.272 . S
O84 Zn74 1.910 . S
O84 C90 1.231 . S
C85 O69 1.225 . S
C85 O91 1.298 . S
C86 O75 1.226 . S
C86 O76 1.307 . S
C87 O79 1.303 . S
C87 O80 1.247 . S
C88 O77 1.253 . S
C88 O78 1.283 . S
C89 O81 1.304 . S
C89 O83 1.272 . S
C90 O82 1.311 . S
C90 O84 1.231 . S
O91 Zn73 1.953 . S
O91 C85 1.298 . S
O92 Zn93 1.953 . S
O92 C108 1.225 . S
Zn93 O92 1.953 . S
Zn93 O94 1.949 . S
Zn93 O100 1.919 . S
Zn93 O105 1.924 . S
O94 Zn93 1.949 . S
O94 Zn95 1.923 . S
O94 Zn96 1.950 . S
O94 Zn97 1.945 . S
Zn95 O94 1.923 . S
Zn95 O98 1.933 . S
Zn95 O101 1.941 . S
Zn95 O102 1.965 . S
Zn96 O94 1.950 . S
Zn96 O103 1.938 . S
Zn96 O104 1.906 . S
Zn96 O114 1.953 . S
Zn97 O94 1.945 . S
Zn97 O99 1.932 . S
Zn97 O106 1.977 . S
Zn97 O107 1.910 . S
O98 Zn95 1.933 . S
O98 C109 1.226 . S
O99 Zn97 1.932 . S
O99 C109 1.307 . S
O100 Zn93 1.919 . S
O100 C111 1.253 . S
O101 Zn95 1.941 . S
O101 C111 1.283 . S
O102 Zn95 1.965 . S
O102 C110 1.303 . S
O103 Zn96 1.938 . S
O103 C110 1.247 . S
O104 Zn96 1.906 . S
O104 C112 1.304 . S
O105 Zn93 1.924 . S
O105 C113 1.311 . S
O106 Zn97 1.977 . S
O106 C112 1.272 . S
O107 Zn97 1.910 . S
O107 C113 1.231 . S
C108 O92 1.225 . S
C108 O114 1.298 . S
C109 O98 1.226 . S
C109 O99 1.307 . S
C110 O102 1.303 . S
C110 O103 1.247 . S
C111 O100 1.253 . S
C111 O101 1.283 . S
C112 O104 1.304 . S
C112 O106 1.272 . S
C113 O105 1.311 . S
C113 O107 1.231 . S
O114 Zn96 1.953 . S
O114 C108 1.298 . S
O115 Zn116 1.953 . S
O115 C131 1.225 . S
Zn116 O115 1.953 . S
Zn116 O117 1.949 . S
Zn116 O123 1.919 . S
Zn116 O128 1.924 . S
O117 Zn116 1.949 . S
O117 Zn118 1.923 . S
O117 Zn119 1.950 . S
O117 Zn120 1.945 . S
Zn118 O117 1.923 . S
Zn118 O121 1.933 . S
Zn118 O124 1.941 . S
Zn118 O125 1.965 . S
Zn119 O117 1.950 . S
Zn119 O126 1.938 . S
Zn119 O127 1.906 . S
Zn119 O137 1.953 . S
Zn120 O117 1.945 . S
Zn120 O122 1.932 . S
Zn120 O129 1.977 . S
Zn120 O130 1.910 . S
O121 Zn118 1.933 . S
O121 C132 1.226 . S
O122 Zn120 1.932 . S
O122 C132 1.307 . S
O123 Zn116 1.919 . S
O123 C134 1.253 . S
O124 Zn118 1.941 . S
O124 C134 1.283 . S
O125 Zn118 1.965 . S
O125 C133 1.303 . S
O126 Zn119 1.938 . S
O126 C133 1.247 . S
O127 Zn119 1.906 . S
O127 C135 1.304 . S
O128 Zn116 1.924 . S
O128 C136 1.311 . S
O129 Zn120 1.977 . S
O129 C135 1.272 . S
O130 Zn120 1.910 . S
O130 C136 1.231 . S
C131 O115 1.225 . S
C131 O137 1.298 . S
C132 O121 1.226 . S
C132 O122 1.307 . S
C133 O125 1.303 . S
C133 O126 1.247 . S
C134 O123 1.253 . S
C134 O124 1.283 . S
C135 O127 1.304 . S
C135 O129 1.272 . S
C136 O128 1.311 . S
C136 O130 1.231 . S
O137 Zn119 1.953 . S
O137 C131 1.298 . S
O138 Zn139 1.953 . S
O138 C154 1.225 . S
Zn139 O138 1.953 . S
Zn139 O140 1.949 . S
Zn139 O146 1.919 . S
Zn139 O151 1.924 . S
O140 Zn139 1.949 . S
O140 Zn141 1.923 . S
O140 Zn142 1.950 . S
O140 Zn143 1.945 . S
Zn141 O140 1.923 . S
Zn141 O144 1.933 . S
Zn141 O147 1.941 . S
Zn141 O148 1.965 . S
Zn142 O140 1.950 . S
Zn142 O149 1.938 . S
Zn142 O150 1.906 . S
Zn142 O160 1.953 . S
Zn143 O140 1.945 . S
Zn143 O145 1.932 . S
Zn143 O152 1.977 . S
Zn143 O153 1.910 . S
O144 Zn141 1.933 . S
O144 C155 1.226 . S
O145 Zn143 1.932 . S
O145 C155 1.307 . S
O146 Zn139 1.919 . S
O146 C157 1.253 . S
O147 Zn141 1.941 . S
O147 C157 1.283 . S
O148 Zn141 1.965 . S
O148 C156 1.303 . S
O149 Zn142 1.938 . S
O149 C156 1.247 . S
O150 Zn142 1.906 . S
O150 C158 1.304 . S
O151 Zn139 1.924 . S
O151 C159 1.311 . S
O152 Zn143 1.977 . S
O152 C158 1.272 . S
O153 Zn143 1.910 . S
O153 C159 1.231 . S
C154 O138 1.225 . S
C154 O160 1.298 . S
C155 O144 1.226 . S
C155 O145 1.307 . S
C156 O148 1.303 . S
C156 O149 1.247 . S
C157 O146 1.253 . S
C157 O147 1.283 . S
C158 O150 1.304 . S
C158 O152 1.272 . S
C159 O151 1.311 . S
C159 O153 1.231 . S
O160 Zn142 1.953 . S
O160 C154 1.298 . S
O161 Zn162 1.953 . S
O161 C177 1.225 . S
Zn162 O161 1.953 . S
Zn162 O163 1.949 . S
Zn162 O169 1.919 . S
Zn162 O174 1.924 . S
O163 Zn162 1.949 . S
O163 Zn164 1.923 . S
O163 Zn165 1.950 . S
O163 Zn166 1.945 . S
Zn164 O163 1.923 . S
Zn164 O167 1.933 . S
Zn164 O170 1.941 . S
Zn164 O171 1.965 . S
Zn165 O163 1.950 . S
Zn165 O172 1.938 . S
Zn165 O173 1.906 . S
Zn165 O183 1.953 . S
Zn166 O163 1.945 . S
Zn166 O168 1.932 . S
Zn166 O175 1.977 . S
Zn166 O176 1.910 . S
O167 Zn164 1.933 . S
O167 C178 1.226 . S
O168 Zn166 1.932 . S
O168 C178 1.307 . S
O169 Zn162 1.919 . S
O169 C180 1.253 . S
O170 Zn164 1.941 . S
O170 C180 1.283 . S
O171 Zn164 1.965 . S
O171 C179 1.303 . S
O172 Zn165 1.938 . S
O172 C179 1.247 . S
O173 Zn165 1.906 . S
O173 C181 1.304 . S
O174 Zn162 1.924 . S
O174 C182 1.311 . S
O175 Zn166 1.977 . S
O175 C181 1.272 . S
O176 Zn166 1.910 . S
O176 C182 1.231 . S
C177 O161 1.225 . S
C177 O183 1.298 . S
C178 O167 1.226 . S
C178 O168 1.307 . S
C179 O171 1.303 . S
C179 O172 1.247 . S
C180 O169 1.253 . S
C180 O170 1.283 . S
C181 O173 1.304 . S
C181 O175 1.272 . S
C182 O174 1.311 . S
C182 O176 1.231 . S
O183 Zn165 1.953 . S
O183 C177 1.298 . S
O184 Zn185 1.953 . S
O184 C200 1.225 . S
Zn185 O184 1.953 . S
Zn185 O186 1.949 . S
Zn185 O192 1.919 . S
Zn185 O197 1.924 . S
O186 Zn185 1.949 . S
O186 Zn187 1.923 . S
O186 Zn188 1.950 . S
O186 Zn189 1.945 . S
Zn187 O186 1.923 . S
Zn187 O190 1.933 . S
Zn187 O193 1.941 . S
Zn187 O194 1.965 . S
Zn188 O186 1.950 . S
Zn188 O195 1.938 . S
Zn188 O196 1.906 . S
Zn188 O206 1.953 . S
Zn189 O186 1.945 . S
Zn189 O191 1.932 . S
Zn189 O198 1.977 . S
Zn189 O199 1.910 . S
O190 Zn187 1.933 . S
O190 C201 1.226 . S
O191 Zn189 1.932 . S
O191 C201 1.307 . S
O192 Zn185 1.919 . S
O192 C203 1.253 . S
O193 Zn187 1.941 . S
O193 C203 1.283 . S
O194 Zn187 1.965 . S
O194 C202 1.303 . S
O195 Zn188 1.938 . S
O195 C202 1.247 . S
O196 Zn188 1.906 . S
O196 C204 1.304 . S
O197 Zn185 1.924 . S
O197 C205 1.311 . S
O198 Zn189 1.977 . S
O198 C204 1.272 . S
O199 Zn189 1.910 . S
O199 C205 1.231 . S
C200 O184 1.225 . S
C200 O206 1.298 . S
C201 O190 1.226 . S
C201 O191 1.307 . S
C202 O194 1.303 . S
C202 O195 1.247 . S
C203 O192 1.253 . S
C203 O193 1.283 . S
C204 O196 1.304 . S
C204 O198 1.272 . S
C205 O197 1.311 . S
C205 O199 1.231 . S
O206 Zn188 1.953 . S
O206 C200 1.298 . S
O207 Zn208 1.953 . S
O207 C223 1.225 . S
Zn208 O207 1.953 . S
Zn208 O209 1.949 . S
Zn208 O215 1.919 . S
Zn208 O220 1.924 . S
O209 Zn208 1.949 . S
O209 Zn210 1.923 . S
O209 Zn211 1.950 . S
O209 Zn212 1.945 . S
Zn210 O209 1.923 . S
Zn210 O213 1.933 . S
Zn210 O216 1.941 . S
Zn210 O217 1.965 . S
Zn211 O209 1.950 . S
Zn211 O218 1.938 . S
Zn211 O219 1.906 . S
Zn211 O229 1.953 . S
Zn212 O209 1.945 . S
Zn212 O214 1.932 . S
Zn212 O221 1.977 . S
Zn212 O222 1.910 . S
O213 Zn210 1.933 . S
O213 C224 1.226 . S
O214 Zn212 1.932 . S
O214 C224 1.307 . S
O215 Zn208 1.919 . S
O215 C226 1.253 . S
O216 Zn210 1.941 . S
O216 C226 1.283 . S
O217 Zn210 1.965 . S
O217 C225 1.303 . S
O218 Zn211 1.938 . S
O218 C225 1.247 . S
O219 Zn211 1.906 . S
O219 C227 1.304 . S
O220 Zn208 1.924 . S
O220 C228 1.311 . S
O221 Zn212 1.977 . S
O221 C227 1.272 . S
O222 Zn212 1.910 . S
O222 C228 1.231 . S
C223 O207 1.225 . S
C223 O229 1.298 . S
C224 O213 1.226 . S
C224 O214 1.307 . S
C225 O217 1.303 . S
C225 O218 1.247 . S
C226 O215 1.253 . S
C226 O216 1.283 . S
C227 O219 1.304 . S
C227 O221 1.272 . S
C228 O220 1.311 . S
C228 O222 1.231 . S
O229 Zn211 1.953 . S
O229 C223 1.298 . S
O230 Zn231 1.953 . S
O230 C246 1.225 . S
Zn231 O230 1.953 . S
Zn231 O232 1.949 . S
Zn231 O238 1.919 . S
Zn231 O243 1.924 . S
O232 Zn231 1.949 . S
O232 Zn233 1.923 . S
O232 Zn234 1.950 . S
O232 Zn235 1.945 . S
Zn233 O232 1.923 . S
Zn233 O236 1.933 . S
Zn233 O239 1.941 . S
Zn233 O240 1.965 . S
Zn234 O232 1.950 . S
Zn234 O241 1.938 . S
Zn234 O242 1.906 . S
Zn234 O252 1.953 . S
Zn235 O232 1.945 . S
Zn235 O237 1.932 . S
Zn235 O244 1.977 . S
Zn235 O245 1.910 . S
O236 Zn233 1.933 . S
O236 C247 1.226 . S
O237 Zn235 1.932 . S
O237 C247 1.307 . S
O238 Zn231 1.919 . S
O238 C249 1.253 . S
O239 Zn233 1.941 . S
O239 C249 1.283 . S
O240 Zn233 1.965 . S
O240 C248 1.303 . S
O241 Zn234 1.938 . S
O241 C248 1.247 . S
O242 Zn234 1.906 . S
O242 C250 1.304 . S
O243 Zn231 1.924 . S
O243 C251 1.311 . S
O244 Zn235 1.977 . S
O244 C250 1.272 . S
O245 Zn235 1.910 . S
O245 C251 1.231 . S
C246 O230 1.225 . S
C246 O252 1.298 . S
C247 O236 1.226 . S
C247 O237 1.307 . S
C248 O240 1.303 . S
C248 O241 1.247 . S
C249 O238 1.253 . S
C249 O239 1.283 . S
C250 O242 1.304 . S
C250 O244 1.272 . S
C251 O243 1.311 . S
C251 O245 1.231 . S
O252 Zn234 1.953 . S
O252 C246 1.298 . S
O253 Zn254 1.953 . S
O253 C269 1.225 . S
Zn254 O253 1.953 . S
Zn254 O255 1.949 . S
Zn254 O261 1.919 . S
Zn254 O266 1.924 . S
O255 Zn254 1.949 . S
O255 Zn256 1.923 . S
O255 Zn257 1.950 . S
O255 Zn258 1.945 . S
Zn256 O255 1.923 . S
Zn256 O259 1.933 . S
Zn256 O262 1.941 . S
Zn256 O263 1.965 . S
Zn257 O255 1.950 . S
Zn257 O264 1.938 . S
Zn257 O265 1.906 . S
Zn257 O275 1.953 . S
Zn258 O255 1.945 . S
Zn258 O260 1.932 . S
Zn258 O267 1.977 . S
Zn258 O268 1.910 . S
O259 Zn256 1.933 . S
O259 C270 1.226 . S
O260 Zn258 1.932 . S
O260 C270 1.307 . S
O261 Zn254 1.919 . S
O261 C272 1.253 . S
O262 Zn256 1.941 . S
O262 C272 1.283 . S
O263 Zn256 1.965 . S
O263 C271 1.303 . S
O264 Zn257 1.938 . S
O264 C271 1.247 . S
O265 Zn257 1.906 . S
O265 C273 1.304 . S
O266 Zn254 1.924 . S
O266 C274 1.311 . S
O267 Zn258 1.977 . S
O267 C273 1.272 . S
O268 Zn258 1.910 . S
O268 C274 1.231 . S
C269 O253 1.225 . S
C269 O275 1.298 . S
C270 O259 1.226 . S
C270 O260 1.307 . S
C271 O263 1.303 . S
C271 O264 1.247 . S
C272 O261 1.253 . S
C272 O262 1.283 . S
C273 O265 1.304 . S
C273 O267 1.272 . S
C274 O266 1.311 . S
C274 O268 1.231 . S
O275 Zn257 1.953 . S
O275 C269 1.298 . S
O276 Zn277 1.953 . S
O276 C292 1.225 . S
Zn277 O276 1.953 . S
Zn277 O278 1.949 . S
Zn277 O284 1.919 . S
Zn277 O289 1.924 . S
O278 Zn277 1.949 . S
O278 Zn279 1.923 . S
O278 Zn280 1.950 . S
O278 Zn281 1.945 . S
Zn279 O278 1.923 . S
Zn279 O282 1.933 . S
Zn279 O285 1.941 . S
Zn279 O286 1.965 . S
Zn280 O278 1.950 . S
Zn280 O287 1.938 . S
Zn280 O288 1.906 . S
Zn280 O298 1.953 . S
Zn281 O278 1.945 . S
Zn281 O283 1.932 . S
Zn281 O290 1.977 . S
Zn281 O291 1.910 . S
O282 Zn279 1.933 . S
O282 C293 1.226 . S
O283 Zn281 1.932 . S
O283 C293 1.307 . S
O284 Zn277 1.919 . S
O284 C295 1.253 . S
O285 Zn279 1.941 . S
O285 C295 1.283 . S
O286 Zn279 1.965 . S
O286 C294 1.303 . S
O287 Zn280 1.938 . S
O287 C294 1.247 . S
O288 Zn280 1.906 . S
O288 C296 1.304 . S
O289 Zn277 1.924 . S
O289 C297 1.311 . S
O290 Zn281 1.977 . S
O290 C296 1.272 . S
O291 Zn281 1.910 . S
O291 C297 1.231 . S
C292 O276 1.225 . S
C292 O298 1.298 . S
C293 O282 1.226 . S
C293 O283 1.307 . S
C294 O286 1.303 . S
C294 O287 1.247 . S
C295 O284 1.253 . S
C295 O285 1.283 . S
C296 O288 1.304 . S
C296 O290 1.272 . S
C297 O289 1.311 . S
C297 O291 1.231 . S
O298 Zn280 1.953 . S
O298 C292 1.298 . S
O299 Zn300 1.953 . S
O299 C315 1.225 . S
Zn300 O299 1.953 . S
Zn300 O301 1.949 . S
Zn300 O307 1.919 . S
Zn300 O312 1.924 . S
O301 Zn300 1.949 . S
O301 Zn302 1.923 . S
O301 Zn303 1.950 . S
O301 Zn304 1.945 . S
Zn302 O301 1.923 . S
Zn302 O305 1.933 . S
Zn302 O308 1.941 . S
Zn302 O309 1.965 . S
Zn303 O301 1.950 . S
Zn303 O310 1.938 . S
Zn303 O311 1.906 . S
Zn303 O321 1.953 . S
Zn304 O301 1.945 . S
Zn304 O306 1.932 . S
Zn304 O313 1.977 . S
Zn304 O314 1.910 . S
O305 Zn302 1.933 . S
O305 C316 1.226 . S
O306 Zn304 1.932 . S
O306 C316 1.307 . S
O307 Zn300 1.919 . S
O307 C318 1.253 . S
O308 Zn302 1.941 . S
O308 C318 1.283 . S
O309 Zn302 1.965 . S
O309 C317 1.303 . S
O310 Zn303 1.938 . S
O310 C317 1.247 . S
O311 Zn303 1.906 . S
O311 C319 1.304 . S
O312 Zn300 1.924 . S
O312 C320 1.311 . S
O313 Zn304 1.977 . S
O313 C319 1.272 . S
O314 Zn304 1.910 . S
O314 C320 1.231 . S
C315 O299 1.225 . S
C315 O321 1.298 . S
C316 O305 1.226 . S
C316 O306 1.307 . S
C317 O309 1.303 . S
C317 O310 1.247 . S
C318 O307 1.253 . S
C318 O308 1.283 . S
C319 O311 1.304 . S
C319 O313 1.272 . S
C320 O312 1.311 . S
C320 O314 1.231 . S
O321 Zn303 1.953 . S
O321 C315 1.298 . S
O322 Zn323 1.953 . S
O322 C338 1.225 . S
Zn323 O322 1.953 . S
Zn323 O324 1.949 . S
Zn323 O330 1.919 . S
Zn323 O335 1.924 . S
O324 Zn323 1.949 . S
O324 Zn325 1.923 . S
O324 Zn326 1.950 . S
O324 Zn327 1.945 . S
Zn325 O324 1.923 . S
Zn325 O328 1.933 . S
Zn325 O331 1.941 . S
Zn325 O332 1.965 . S
Zn326 O324 1.950 . S
Zn326 O333 1.938 . S
Zn326 O334 1.906 . S
Zn326 O344 1.953 . S
Zn327 O324 1.945 . S
Zn327 O329 1.932 . S
Zn327 O336 1.977 . S
Zn327 O337 1.910 . S
O328 Zn325 1.933 . S
O328 C339 1.226 . S
O329 Zn327 1.932 . S
O329 C339 1.307 . S
O330 Zn323 1.919 . S
O330 C341 1.253 . S
O331 Zn325 1.941 . S
O331 C341 1.283 . S
O332 Zn325 1.965 . S
O332 C340 1.303 . S
O333 Zn326 1.938 . S
O333 C340 1.247 . S
O334 Zn326 1.906 . S
O334 C342 1.304 . S
O335 Zn323 1.924 . S
O335 C343 1.311 . S
O336 Zn327 1.977 . S
O336 C342 1.272 . S
O337 Zn327 1.910 . S
O337 C343 1.231 . S
C338 O322 1.225 . S
C338 O344 1.298 . S
C339 O328 1.226 . S
C339 O329 1.307 . S
C340 O332 1.303 . S
C340 O333 1.247 . S
C341 O330 1.253 . S
C341 O331 1.283 . S
C342 O334 1.304 . S
C342 O336 1.272 . S
C343 O335 1.311 . S
C343 O337 1.231 . S
O344 Zn326 1.953 . S
O344 C338 1.298 . S
O345 Zn346 1.953 . S
O345 C361 1.225 . S
Zn346 O345 1.953 . S
Zn346 O347 1.949 . S
Zn346 O353 1.919 . S
Zn346 O358 1.924 . S
O347 Zn346 1.949 . S
O347 Zn348 1.923 . S
O347 Zn349 1.950 . S
O347 Zn350 1.945 . S
Zn348 O347 1.923 . S
Zn348 O351 1.933 . S
Zn348 O354 1.941 . S
Zn348 O355 1.965 . S
Zn349 O347 1.950 . S
Zn349 O356 1.938 . S
Zn349 O357 1.906 . S
Zn349 O367 1.953 . S
Zn350 O347 1.945 . S
Zn350 O352 1.932 . S
Zn350 O359 1.977 . S
Zn350 O360 1.910 . S
O351 Zn348 1.933 . S
O351 C362 1.226 . S
O352 Zn350 1.932 . S
O352 C362 1.307 . S
O353 Zn346 1.919 . S
O353 C364 1.253 . S
O354 Zn348 1.941 . S
O354 C364 1.283 . S
O355 Zn348 1.965 . S
O355 C363 1.303 . S
O356 Zn349 1.938 . S
O356 C363 1.247 . S
O357 Zn349 1.906 . S
O357 C365 1.304 . S
O358 Zn346 1.924 . S
O358 C366 1.311 . S
O359 Zn350 1.977 . S
O359 C365 1.272 . S
O360 Zn350 1.910 . S
O360 C366 1.231 . S
C361 O345 1.225 . S
C361 O367 1.298 . S
C362 O351 1.226 . S
C362 O352 1.307 . S
C363 O355 1.303 . S
C363 O356 1.247 . S
C364 O353 1.253 . S
C364 O354 1.283 . S
C365 O357 1.304 . S
C365 O359 1.272 . S
C366 O358 1.311 . S
C366 O360 1.231 . S
O367 Zn349 1.953 . S
O367 C361 1.298 . S
H368 C376 0.929 . S
H369 C378 0.930 . S
H370 C380 0.930 . S
H371 C383 0.929 . S
H372 C386 0.930 . S
H373 C388 0.960 . S
H374 C388 0.960 . S
H375 C388 0.960 . S
C376 H368 0.929 . S
C376 C377 1.377 . S
C376 C378 1.384 . S
C377 C376 1.377 . S
C377 C383 1.390 . S
C378 H369 0.930 . S
C378 C376 1.384 . S
C378 C379 1.372 . S
C379 C378 1.372 . S
C379 C380 1.400 . S
C379 C384 1.490 . S
C380 H370 0.930 . S
C380 C379 1.400 . S
C380 C383 1.386 . S
H381 C397 0.930 . S
H382 C398 0.931 . S
C383 H371 0.929 . S
C383 C377 1.390 . S
C383 C380 1.386 . S
C384 C379 1.490 . S
C384 C386 1.395 . S
C384 C387 1.403 . S
H385 C391 0.930 . S
C386 H372 0.930 . S
C386 C384 1.395 . S
C386 C389 1.403 . S
C387 C384 1.403 . S
C387 C388 1.524 . S
C387 C391 1.400 . S
C388 H373 0.960 . S
C388 H374 0.960 . S
C388 H375 0.960 . S
C388 C387 1.524 . S
C389 C386 1.403 . S
C389 C390 1.392 . S
C389 C393 1.495 . S
C390 C389 1.392 . S
C390 C391 1.385 . S
C390 C392 1.478 . S
C391 H385 0.930 . S
C391 C387 1.400 . S
C391 C390 1.385 . S
C392 C390 1.478 . S
C392 C394 1.381 . S
C392 C398 1.383 . S
C393 C389 1.495 . S
C393 H399 0.959 . S
C393 H400 0.961 . S
C393 H401 0.960 . S
C394 C392 1.381 . S
C394 C395 1.394 . S
C394 H402 0.930 . S
C395 C394 1.394 . S
C395 C396 1.383 . S
C395 H403 0.929 . S
C396 C395 1.383 . S
C396 C397 1.377 . S
C397 H381 0.930 . S
C397 C396 1.377 . S
C397 C398 1.379 . S
C398 H382 0.931 . S
C398 C392 1.383 . S
C398 C397 1.379 . S
H399 C393 0.959 . S
H400 C393 0.961 . S
H401 C393 0.960 . S
H402 C394 0.930 . S
H403 C395 0.929 . S
H404 C412 0.929 . S
H405 C414 0.930 . S
H406 C416 0.930 . S
H407 C419 0.929 . S
H408 C422 0.930 . S
H409 C424 0.960 . S
H410 C424 0.960 . S
H411 C424 0.960 . S
C412 H404 0.929 . S
C412 C413 1.377 . S
C412 C414 1.384 . S
C413 C412 1.377 . S
C413 C419 1.390 . S
C414 H405 0.930 . S
C414 C412 1.384 . S
C414 C415 1.372 . S
C415 C414 1.372 . S
C415 C416 1.400 . S
C415 C420 1.490 . S
C416 H406 0.930 . S
C416 C415 1.400 . S
C416 C419 1.386 . S
H417 C433 0.930 . S
H418 C434 0.931 . S
C419 H407 0.929 . S
C419 C413 1.390 . S
C419 C416 1.386 . S
C420 C415 1.490 . S
C420 C422 1.395 . S
C420 C423 1.403 . S
H421 C427 0.930 . S
C422 H408 0.930 . S
C422 C420 1.395 . S
C422 C425 1.403 . S
C423 C420 1.403 . S
C423 C424 1.524 . S
C423 C427 1.400 . S
C424 H409 0.960 . S
C424 H410 0.960 . S
C424 H411 0.960 . S
C424 C423 1.524 . S
C425 C422 1.403 . S
C425 C426 1.392 . S
C425 C429 1.495 . S
C426 C425 1.392 . S
C426 C427 1.385 . S
C426 C428 1.478 . S
C427 H421 0.930 . S
C427 C423 1.400 . S
C427 C426 1.385 . S
C428 C426 1.478 . S
C428 C430 1.381 . S
C428 C434 1.383 . S
C429 C425 1.495 . S
C429 H435 0.959 . S
C429 H436 0.961 . S
C429 H437 0.960 . S
C430 C428 1.381 . S
C430 C431 1.394 . S
C430 H438 0.930 . S
C431 C430 1.394 . S
C431 C432 1.383 . S
C431 H439 0.929 . S
C432 C431 1.383 . S
C432 C433 1.377 . S
C433 H417 0.930 . S
C433 C432 1.377 . S
C433 C434 1.379 . S
C434 H418 0.931 . S
C434 C428 1.383 . S
C434 C433 1.379 . S
H435 C429 0.959 . S
H436 C429 0.961 . S
H437 C429 0.960 . S
H438 C430 0.930 . S
H439 C431 0.929 . S
H440 C448 0.929 . S
H441 C450 0.930 . S
H442 C452 0.930 . S
H443 C455 0.929 . S
H444 C458 0.930 . S
H445 C460 0.960 . S
H446 C460 0.960 . S
H447 C460 0.960 . S
C448 H440 0.929 . S
C448 C449 1.377 . S
C448 C450 1.384 . S
C449 C448 1.377 . S
C449 C455 1.390 . S
C450 H441 0.930 . S
C450 C448 1.384 . S
C450 C451 1.372 . S
C451 C450 1.372 . S
C451 C452 1.400 . S
C451 C456 1.490 . S
C452 H442 0.930 . S
C452 C451 1.400 . S
C452 C455 1.386 . S
H453 C469 0.930 . S
H454 C470 0.931 . S
C455 H443 0.929 . S
C455 C449 1.390 . S
C455 C452 1.386 . S
C456 C451 1.490 . S
C456 C458 1.395 . S
C456 C459 1.403 . S
H457 C463 0.930 . S
C458 H444 0.930 . S
C458 C456 1.395 . S
C458 C461 1.403 . S
C459 C456 1.403 . S
C459 C460 1.524 . S
C459 C463 1.400 . S
C460 H445 0.960 . S
C460 H446 0.960 . S
C460 H447 0.960 . S
C460 C459 1.524 . S
C461 C458 1.403 . S
C461 C462 1.392 . S
C461 C465 1.495 . S
C462 C461 1.392 . S
C462 C463 1.385 . S
C462 C464 1.478 . S
C463 H457 0.930 . S
C463 C459 1.400 . S
C463 C462 1.385 . S
C464 C462 1.478 . S
C464 C466 1.381 . S
C464 C470 1.383 . S
C465 C461 1.495 . S
C465 H471 0.959 . S
C465 H472 0.961 . S
C465 H473 0.960 . S
C466 C464 1.381 . S
C466 C467 1.394 . S
C466 H474 0.930 . S
C467 C466 1.394 . S
C467 C468 1.383 . S
C467 H475 0.929 . S
C468 C467 1.383 . S
C468 C469 1.377 . S
C469 H453 0.930 . S
C469 C468 1.377 . S
C469 C470 1.379 . S
C470 H454 0.931 . S
C470 C464 1.383 . S
C470 C469 1.379 . S
H471 C465 0.959 . S
H472 C465 0.961 . S
H473 C465 0.960 . S
H474 C466 0.930 . S
H475 C467 0.929 . S
H476 C484 0.929 . S
H477 C486 0.930 . S
H478 C488 0.930 . S
H479 C491 0.929 . S
H480 C494 0.930 . S
H481 C496 0.960 . S
H482 C496 0.960 . S
H483 C496 0.960 . S
C484 H476 0.929 . S
C484 C485 1.377 . S
C484 C486 1.384 . S
C485 C484 1.377 . S
C485 C491 1.390 . S
C486 H477 0.930 . S
C486 C484 1.384 . S
C486 C487 1.372 . S
C487 C486 1.372 . S
C487 C488 1.400 . S
C487 C492 1.490 . S
C488 H478 0.930 . S
C488 C487 1.400 . S
C488 C491 1.386 . S
H489 C505 0.930 . S
H490 C506 0.931 . S
C491 H479 0.929 . S
C491 C485 1.390 . S
C491 C488 1.386 . S
C492 C487 1.490 . S
C492 C494 1.395 . S
C492 C495 1.403 . S
H493 C499 0.930 . S
C494 H480 0.930 . S
C494 C492 1.395 . S
C494 C497 1.403 . S
C495 C492 1.403 . S
C495 C496 1.524 . S
C495 C499 1.400 . S
C496 H481 0.960 . S
C496 H482 0.960 . S
C496 H483 0.960 . S
C496 C495 1.524 . S
C497 C494 1.403 . S
C497 C498 1.392 . S
C497 C501 1.495 . S
C498 C497 1.392 . S
C498 C499 1.385 . S
C498 C500 1.478 . S
C499 H493 0.930 . S
C499 C495 1.400 . S
C499 C498 1.385 . S
C500 C498 1.478 . S
C500 C502 1.381 . S
C500 C506 1.383 . S
C501 C497 1.495 . S
C501 H507 0.959 . S
C501 H508 0.961 . S
C501 H509 0.960 . S
C502 C500 1.381 . S
C502 C503 1.394 . S
C502 H510 0.930 . S
C503 C502 1.394 . S
C503 C504 1.383 . S
C503 H511 0.929 . S
C504 C503 1.383 . S
C504 C505 1.377 . S
C505 H489 0.930 . S
C505 C504 1.377 . S
C505 C506 1.379 . S
C506 H490 0.931 . S
C506 C500 1.383 . S
C506 C505 1.379 . S
H507 C501 0.959 . S
H508 C501 0.961 . S
H509 C501 0.960 . S
H510 C502 0.930 . S
H511 C503 0.929 . S
H512 C520 0.929 . S
H513 C522 0.930 . S
H514 C524 0.930 . S
H515 C527 0.929 . S
H516 C530 0.930 . S
H517 C532 0.960 . S
H518 C532 0.960 . S
H519 C532 0.960 . S
C520 H512 0.929 . S
C520 C521 1.377 . S
C520 C522 1.384 . S
C521 C520 1.377 . S
C521 C527 1.390 . S
C522 H513 0.930 . S
C522 C520 1.384 . S
C522 C523 1.372 . S
C523 C522 1.372 . S
C523 C524 1.400 . S
C523 C528 1.490 . S
C524 H514 0.930 . S
C524 C523 1.400 . S
C524 C527 1.386 . S
H525 C541 0.930 . S
H526 C542 0.931 . S
C527 H515 0.929 . S
C527 C521 1.390 . S
C527 C524 1.386 . S
C528 C523 1.490 . S
C528 C530 1.395 . S
C528 C531 1.403 . S
H529 C535 0.930 . S
C530 H516 0.930 . S
C530 C528 1.395 . S
C530 C533 1.403 . S
C531 C528 1.403 . S
C531 C532 1.524 . S
C531 C535 1.400 . S
C532 H517 0.960 . S
C532 H518 0.960 . S
C532 H519 0.960 . S
C532 C531 1.524 . S
C533 C530 1.403 . S
C533 C534 1.392 . S
C533 C537 1.495 . S
C534 C533 1.392 . S
C534 C535 1.385 . S
C534 C536 1.478 . S
C535 H529 0.930 . S
C535 C531 1.400 . S
C535 C534 1.385 . S
C536 C534 1.478 . S
C536 C538 1.381 . S
C536 C542 1.383 . S
C537 C533 1.495 . S
C537 H543 0.959 . S
C537 H544 0.961 . S
C537 H545 0.960 . S
C538 C536 1.381 . S
C538 C539 1.394 . S
C538 H546 0.930 . S
C539 C538 1.394 . S
C539 C540 1.383 . S
C539 H547 0.929 . S
C540 C539 1.383 . S
C540 C541 1.377 . S
C541 H525 0.930 . S
C541 C540 1.377 . S
C541 C542 1.379 . S
C542 H526 0.931 . S
C542 C536 1.383 . S
C542 C541 1.379 . S
H543 C537 0.959 . S
H544 C537 0.961 . S
H545 C537 0.960 . S
H546 C538 0.930 . S
H547 C539 0.929 . S
H548 C556 0.929 . S
H549 C558 0.930 . S
H550 C560 0.930 . S
H551 C563 0.929 . S
H552 C566 0.930 . S
H553 C568 0.960 . S
H554 C568 0.960 . S
H555 C568 0.960 . S
C556 H548 0.929 . S
C556 C557 1.377 . S
C556 C558 1.384 . S
C557 C556 1.377 . S
C557 C563 1.390 . S
C558 H549 0.930 . S
C558 C556 1.384 . S
C558 C559 1.372 . S
C559 C558 1.372 . S
C559 C560 1.400 . S
C559 C564 1.490 . S
C560 H550 0.930 . S
C560 C559 1.400 . S
C560 C563 1.386 . S
H561 C577 0.930 . S
H562 C578 0.931 . S
C563 H551 0.929 . S
C563 C557 1.390 . S
C563 C560 1.386 . S
C564 C559 1.490 . S
C564 C566 1.395 . S
C564 C567 1.403 . S
H565 C571 0.930 . S
C566 H552 0.930 . S
C566 C564 1.395 . S
C566 C569 1.403 . S
C567 C564 1.403 . S
C567 C568 1.524 . S
C567 C571 1.400 . S
C568 H553 0.960 . S
C568 H554 0.960 . S
C568 H555 0.960 . S
C568 C567 1.524 . S
C569 C566 1.403 . S
C569 C570 1.392 . S
C569 C573 1.495 . S
C570 C569 1.392 . S
C570 C571 1.385 . S
C570 C572 1.478 . S
C571 H565 0.930 . S
C571 C567 1.400 . S
C571 C570 1.385 . S
C572 C570 1.478 . S
C572 C574 1.381 . S
C572 C578 1.383 . S
C573 C569 1.495 . S
C573 H579 0.959 . S
C573 H580 0.961 . S
C573 H581 0.960 . S
C574 C572 1.381 . S
C574 C575 1.394 . S
C574 H582 0.930 . S
C575 C574 1.394 . S
C575 C576 1.383 . S
C575 H583 0.929 . S
C576 C575 1.383 . S
C576 C577 1.377 . S
C577 H561 0.930 . S
C577 C576 1.377 . S
C577 C578 1.379 . S
C578 H562 0.931 . S
C578 C572 1.383 . S
C578 C577 1.379 . S
H579 C573 0.959 . S
H580 C573 0.961 . S
H581 C573 0.960 . S
H582 C574 0.930 . S
H583 C575 0.929 . S
H584 C592 0.929 . S
H585 C594 0.930 . S
H586 C596 0.930 . S
H587 C599 0.929 . S
H588 C602 0.930 . S
H589 C604 0.960 . S
H590 C604 0.960 . S
H591 C604 0.960 . S
C592 H584 0.929 . S
C592 C593 1.377 . S
C592 C594 1.384 . S
C593 C592 1.377 . S
C593 C599 1.390 . S
C594 H585 0.930 . S
C594 C592 1.384 . S
C594 C595 1.372 . S
C595 C594 1.372 . S
C595 C596 1.400 . S
C595 C600 1.490 . S
C596 H586 0.930 . S
C596 C595 1.400 . S
C596 C599 1.386 . S
H597 C613 0.930 . S
H598 C614 0.931 . S
C599 H587 0.929 . S
C599 C593 1.390 . S
C599 C596 1.386 . S
C600 C595 1.490 . S
C600 C602 1.395 . S
C600 C603 1.403 . S
H601 C607 0.930 . S
C602 H588 0.930 . S
C602 C600 1.395 . S
C602 C605 1.403 . S
C603 C600 1.403 . S
C603 C604 1.524 . S
C603 C607 1.400 . S
C604 H589 0.960 . S
C604 H590 0.960 . S
C604 H591 0.960 . S
C604 C603 1.524 . S
C605 C602 1.403 . S
C605 C606 1.392 . S
C605 C609 1.495 . S
C606 C605 1.392 . S
C606 C607 1.385 . S
C606 C608 1.478 . S
C607 H601 0.930 . S
C607 C603 1.400 . S
C607 C606 1.385 . S
C608 C606 1.478 . S
C608 C610 1.381 . S
C608 C614 1.383 . S
C609 C605 1.495 . S
C609 H615 0.959 . S
C609 H616 0.961 . S
C609 H617 0.960 . S
C610 C608 1.381 . S
C610 C611 1.394 . S
C610 H618 0.930 . S
C611 C610 1.394 . S
C611 C612 1.383 . S
C611 H619 0.929 . S
C612 C611 1.383 . S
C612 C613 1.377 . S
C613 H597 0.930 . S
C613 C612 1.377 . S
C613 C614 1.379 . S
C614 H598 0.931 . S
C614 C608 1.383 . S
C614 C613 1.379 . S
H615 C609 0.959 . S
H616 C609 0.961 . S
H617 C609 0.960 . S
H618 C610 0.930 . S
H619 C611 0.929 . S
H620 C628 0.929 . S
H621 C630 0.930 . S
H622 C632 0.930 . S
H623 C635 0.929 . S
H624 C638 0.930 . S
H625 C640 0.960 . S
H626 C640 0.960 . S
H627 C640 0.960 . S
C628 H620 0.929 . S
C628 C629 1.377 . S
C628 C630 1.384 . S
C629 C628 1.377 . S
C629 C635 1.390 . S
C630 H621 0.930 . S
C630 C628 1.384 . S
C630 C631 1.372 . S
C631 C630 1.372 . S
C631 C632 1.400 . S
C631 C636 1.490 . S
C632 H622 0.930 . S
C632 C631 1.400 . S
C632 C635 1.386 . S
H633 C649 0.930 . S
H634 C650 0.931 . S
C635 H623 0.929 . S
C635 C629 1.390 . S
C635 C632 1.386 . S
C636 C631 1.490 . S
C636 C638 1.395 . S
C636 C639 1.403 . S
H637 C643 0.930 . S
C638 H624 0.930 . S
C638 C636 1.395 . S
C638 C641 1.403 . S
C639 C636 1.403 . S
C639 C640 1.524 . S
C639 C643 1.400 . S
C640 H625 0.960 . S
C640 H626 0.960 . S
C640 H627 0.960 . S
C640 C639 1.524 . S
C641 C638 1.403 . S
C641 C642 1.392 . S
C641 C645 1.495 . S
C642 C641 1.392 . S
C642 C643 1.385 . S
C642 C644 1.478 . S
C643 H637 0.930 . S
C643 C639 1.400 . S
C643 C642 1.385 . S
C644 C642 1.478 . S
C644 C646 1.381 . S
C644 C650 1.383 . S
C645 C641 1.495 . S
C645 H651 0.959 . S
C645 H652 0.961 . S
C645 H653 0.960 . S
C646 C644 1.381 . S
C646 C647 1.394 . S
C646 H654 0.930 . S
C647 C646 1.394 . S
C647 C648 1.383 . S
C647 H655 0.929 . S
C648 C647 1.383 . S
C648 C649 1.377 . S
C649 H633 0.930 . S
C649 C648 1.377 . S
C649 C650 1.379 . S
C650 H634 0.931 . S
C650 C644 1.383 . S
C650 C649 1.379 . S
H651 C645 0.959 . S
H652 C645 0.961 . S
H653 C645 0.960 . S
H654 C646 0.930 . S
H655 C647 0.929 . S
H656 C664 0.929 . S
H657 C666 0.930 . S
H658 C668 0.930 . S
H659 C671 0.929 . S
H660 C674 0.930 . S
H661 C676 0.960 . S
H662 C676 0.960 . S
H663 C676 0.960 . S
C664 H656 0.929 . S
C664 C665 1.377 . S
C664 C666 1.384 . S
C665 C664 1.377 . S
C665 C671 1.390 . S
C666 H657 0.930 . S
C666 C664 1.384 . S
C666 C667 1.372 . S
C667 C666 1.372 . S
C667 C668 1.400 . S
C667 C672 1.490 . S
C668 H658 0.930 . S
C668 C667 1.400 . S
C668 C671 1.386 . S
H669 C685 0.930 . S
H670 C686 0.931 . S
C671 H659 0.929 . S
C671 C665 1.390 . S
C671 C668 1.386 . S
C672 C667 1.490 . S
C672 C674 1.395 1_655 S
C672 C675 1.403 . S
H673 C679 0.930 . S
C674 H660 0.930 . S
C674 C672 1.395 1_455 S
C674 C677 1.403 . S
C675 C672 1.403 . S
C675 C676 1.524 . S
C675 C679 1.397 . S
C676 H661 0.960 . S
C676 H662 0.960 . S
C676 H663 0.960 . S
C676 C675 1.524 . S
C677 C674 1.403 . S
C677 C678 1.392 . S
C677 C681 1.495 . S
C678 C677 1.392 . S
C678 C679 1.388 1_455 S
C678 C680 1.478 . S
C679 H673 0.930 . S
C679 C675 1.397 . S
C679 C678 1.388 1_655 S
C680 C678 1.478 . S
C680 C682 1.381 . S
C680 C686 1.383 . S
C681 C677 1.495 . S
C681 H687 0.959 . S
C681 H688 0.961 . S
C681 H689 0.960 . S
C682 C680 1.381 . S
C682 C683 1.394 . S
C682 H690 0.930 . S
C683 C682 1.394 . S
C683 C684 1.383 . S
C683 H691 0.929 . S
C684 C683 1.383 . S
C684 C685 1.377 . S
C685 H669 0.930 . S
C685 C684 1.377 . S
C685 C686 1.379 . S
C686 H670 0.931 . S
C686 C680 1.383 . S
C686 C685 1.379 . S
H687 C681 0.959 . S
H688 C681 0.961 . S
H689 C681 0.960 . S
H690 C682 0.930 . S
H691 C683 0.929 . S
H692 C700 0.929 . S
H693 C702 0.930 . S
H694 C704 0.930 . S
H695 C707 0.929 . S
H696 C710 0.930 . S
H697 C712 0.960 . S
H698 C712 0.960 . S
H699 C712 0.960 1_565 S
C700 H692 0.929 . S
C700 C701 1.377 . S
C700 C702 1.384 . S
C701 C700 1.377 . S
C701 C707 1.390 . S
C702 H693 0.930 . S
C702 C700 1.384 . S
C702 C703 1.372 . S
C703 C702 1.372 . S
C703 C704 1.400 . S
C703 C708 1.490 . S
C704 H694 0.930 . S
C704 C703 1.400 . S
C704 C707 1.386 . S
H705 C721 0.930 . S
H706 C722 0.931 . S
C707 H695 0.929 . S
C707 C701 1.390 . S
C707 C704 1.386 . S
C708 C703 1.490 . S
C708 C710 1.395 . S
C708 C711 1.403 1_565 S
H709 C715 0.930 . S
C710 H696 0.930 . S
C710 C708 1.395 . S
C710 C713 1.403 . S
C711 C708 1.403 1_545 S
C711 C712 1.524 . S
C711 C715 1.400 . S
C712 H697 0.960 . S
C712 H698 0.960 . S
C712 H699 0.960 1_545 S
C712 C711 1.524 . S
C713 C710 1.403 . S
C713 C714 1.392 1_565 S
C713 C717 1.495 . S
C714 C713 1.392 1_545 S
C714 C715 1.385 . S
C714 C716 1.478 . S
C715 H709 0.930 . S
C715 C711 1.400 . S
C715 C714 1.385 . S
C716 C714 1.478 . S
C716 C718 1.381 . S
C716 C722 1.383 . S
C717 C713 1.495 . S
C717 H723 0.959 . S
C717 H724 0.961 . S
C717 H725 0.960 1_565 S
C718 C716 1.381 . S
C718 C719 1.394 . S
C718 H726 0.930 . S
C719 C718 1.394 . S
C719 C720 1.383 . S
C719 H727 0.929 . S
C720 C719 1.383 . S
C720 C721 1.377 . S
C721 H705 0.930 . S
C721 C720 1.377 . S
C721 C722 1.379 . S
C722 H706 0.931 . S
C722 C716 1.383 . S
C722 C721 1.379 . S
H723 C717 0.959 . S
H724 C717 0.961 . S
H725 C717 0.960 1_545 S
H726 C718 0.930 . S
H727 C719 0.929 . S
H728 C736 0.929 . S
H729 C738 0.930 . S
H730 C740 0.930 . S
H731 C743 0.929 . S
H732 C746 0.930 . S
H733 C748 0.960 . S
H734 C748 0.960 . S
H735 C748 0.960 1_655 S
C736 H728 0.929 . S
C736 C737 1.377 . S
C736 C738 1.384 . S
C737 C736 1.377 . S
C737 C743 1.390 . S
C738 H729 0.930 . S
C738 C736 1.384 . S
C738 C739 1.372 . S
C739 C738 1.372 . S
C739 C740 1.400 . S
C739 C744 1.490 . S
C740 H730 0.930 . S
C740 C739 1.400 . S
C740 C743 1.386 . S
H741 C757 0.930 . S
H742 C758 0.931 . S
C743 H731 0.929 . S
C743 C737 1.390 . S
C743 C740 1.386 . S
C744 C739 1.490 . S
C744 C746 1.395 . S
C744 C747 1.403 1_655 S
H745 C751 0.930 . S
C746 H732 0.930 . S
C746 C744 1.395 . S
C746 C749 1.403 . S
C747 C744 1.403 1_455 S
C747 C748 1.524 . S
C747 C751 1.400 . S
C748 H733 0.960 . S
C748 H734 0.960 . S
C748 H735 0.960 1_455 S
C748 C747 1.524 . S
C749 C746 1.403 . S
C749 C750 1.392 1_655 S
C749 C753 1.495 . S
C750 C749 1.392 1_455 S
C750 C751 1.385 . S
C750 C752 1.478 . S
C751 H745 0.930 . S
C751 C747 1.400 . S
C751 C750 1.385 . S
C752 C750 1.478 . S
C752 C754 1.381 . S
C752 C758 1.383 . S
C753 C749 1.495 . S
C753 H759 0.959 . S
C753 H760 0.961 . S
C753 H761 0.960 1_655 S
C754 C752 1.381 . S
C754 C755 1.394 . S
C754 H762 0.930 . S
C755 C754 1.394 . S
C755 C756 1.383 . S
C755 H763 0.929 . S
C756 C755 1.383 . S
C756 C757 1.377 . S
C757 H741 0.930 . S
C757 C756 1.377 . S
C757 C758 1.379 . S
C758 H742 0.931 . S
C758 C752 1.383 . S
C758 C757 1.379 . S
H759 C753 0.959 . S
H760 C753 0.961 . S
H761 C753 0.960 1_455 S
H762 C754 0.930 . S
H763 C755 0.929 . S
H764 C772 0.929 . S
H765 C774 0.930 . S
H766 C776 0.930 . S
H767 C779 0.929 . S
H768 C782 0.930 . S
H769 C784 0.960 . S
H770 C784 0.960 . S
H771 C784 0.960 1_565 S
C772 H764 0.929 . S
C772 C773 1.377 . S
C772 C774 1.384 . S
C773 C772 1.377 . S
C773 C779 1.390 . S
C774 H765 0.930 . S
C774 C772 1.384 . S
C774 C775 1.372 . S
C775 C774 1.372 . S
C775 C776 1.400 . S
C775 C780 1.490 . S
C776 H766 0.930 . S
C776 C775 1.400 . S
C776 C779 1.386 . S
H777 C793 0.930 . S
H778 C794 0.931 . S
C779 H767 0.929 . S
C779 C773 1.390 . S
C779 C776 1.386 . S
C780 C775 1.490 . S
C780 C782 1.395 . S
C780 C783 1.403 1_565 S
H781 C787 0.930 . S
C782 H768 0.930 . S
C782 C780 1.395 . S
C782 C785 1.403 . S
C783 C780 1.403 1_545 S
C783 C784 1.524 . S
C783 C787 1.400 . S
C784 H769 0.960 . S
C784 H770 0.960 . S
C784 H771 0.960 1_545 S
C784 C783 1.524 . S
C785 C782 1.403 . S
C785 C786 1.392 1_565 S
C785 C789 1.495 . S
C786 C785 1.392 1_545 S
C786 C787 1.385 . S
C786 C788 1.478 . S
C787 H781 0.930 . S
C787 C783 1.400 . S
C787 C786 1.385 . S
C788 C786 1.478 . S
C788 C790 1.381 . S
C788 C794 1.383 . S
C789 C785 1.495 . S
C789 H795 0.959 . S
C789 H796 0.961 . S
C789 H797 0.960 1_565 S
C790 C788 1.381 . S
C790 C791 1.394 . S
C790 H798 0.930 . S
C791 C790 1.394 . S
C791 C792 1.383 . S
C791 H799 0.929 . S
C792 C791 1.383 . S
C792 C793 1.377 . S
C793 H777 0.930 . S
C793 C792 1.377 . S
C793 C794 1.379 . S
C794 H778 0.931 . S
C794 C788 1.383 . S
C794 C793 1.379 . S
H795 C789 0.959 . S
H796 C789 0.961 . S
H797 C789 0.960 1_545 S
H798 C790 0.930 . S
H799 C791 0.929 . S
H800 C808 0.929 . S
H801 C810 0.930 . S
H802 C812 0.930 . S
H803 C815 0.929 . S
H804 C818 0.930 . S
H805 C820 0.960 . S
H806 C820 0.960 . S
H807 C820 0.960 . S
C808 H800 0.929 . S
C808 C809 1.377 . S
C808 C810 1.384 . S
C809 C808 1.377 . S
C809 C815 1.390 . S
C810 H801 0.930 . S
C810 C808 1.384 . S
C810 C811 1.372 . S
C811 C810 1.372 . S
C811 C812 1.400 . S
C811 C816 1.490 . S
C812 H802 0.930 . S
C812 C811 1.400 . S
C812 C815 1.386 . S
H813 C829 0.930 . S
H814 C830 0.931 . S
C815 H803 0.929 . S
C815 C809 1.390 . S
C815 C812 1.386 . S
C816 C811 1.490 . S
C816 C818 1.395 1_565 S
C816 C819 1.403 . S
H817 C823 0.930 . S
C818 H804 0.930 . S
C818 C816 1.395 1_545 S
C818 C821 1.403 . S
C819 C816 1.403 . S
C819 C820 1.524 . S
C819 C823 1.400 . S
C820 H805 0.960 . S
C820 H806 0.960 . S
C820 H807 0.960 . S
C820 C819 1.524 . S
C821 C818 1.403 . S
C821 C822 1.392 . S
C821 C825 1.495 . S
C822 C821 1.392 . S
C822 C823 1.385 1_545 S
C822 C824 1.478 . S
C823 H817 0.930 . S
C823 C819 1.400 . S
C823 C822 1.385 1_565 S
C824 C822 1.478 . S
C824 C826 1.381 . S
C824 C830 1.383 . S
C825 C821 1.495 . S
C825 H831 0.959 . S
C825 H832 0.961 . S
C825 H833 0.960 . S
C826 C824 1.381 . S
C826 C827 1.394 . S
C826 H834 0.930 . S
C827 C826 1.394 . S
C827 C828 1.383 . S
C827 H835 0.929 . S
C828 C827 1.383 . S
C828 C829 1.377 . S
C829 H813 0.930 . S
C829 C828 1.377 . S
C829 C830 1.379 . S
C830 H814 0.931 . S
C830 C824 1.383 . S
C830 C829 1.379 . S
H831 C825 0.959 . S
H832 C825 0.961 . S
H833 C825 0.960 . S
H834 C826 0.930 . S
H835 C827 0.929 . S
H836 C844 0.929 . S
H837 C846 0.930 . S
H838 C848 0.930 . S
H839 C851 0.929 . S
H840 C854 0.930 . S
H841 C856 0.960 . S
H842 C856 0.960 . S
H843 C856 0.960 . S
C844 H836 0.929 . S
C844 C845 1.377 . S
C844 C846 1.384 . S
C845 C844 1.377 . S
C845 C851 1.390 . S
C846 H837 0.930 . S
C846 C844 1.384 . S
C846 C847 1.372 . S
C847 C846 1.372 . S
C847 C848 1.400 . S
C847 C852 1.490 . S
C848 H838 0.930 . S
C848 C847 1.400 . S
C848 C851 1.386 . S
H849 C865 0.930 . S
H850 C866 0.931 . S
C851 H839 0.929 . S
C851 C845 1.390 . S
C851 C848 1.386 . S
C852 C847 1.490 . S
C852 C854 1.395 . S
C852 C855 1.403 1_455 S
H853 C859 0.930 . S
C854 H840 0.930 . S
C854 C852 1.395 . S
C854 C857 1.403 . S
C855 C852 1.403 1_655 S
C855 C856 1.524 . S
C855 C859 1.400 . S
C856 H841 0.960 . S
C856 H842 0.960 . S
C856 H843 0.960 . S
C856 C855 1.524 . S
C857 C854 1.403 . S
C857 C858 1.392 1_455 S
C857 C861 1.495 . S
C858 C857 1.392 1_655 S
C858 C859 1.385 . S
C858 C860 1.478 . S
C859 H853 0.930 . S
C859 C855 1.400 . S
C859 C858 1.385 . S
C860 C858 1.478 . S
C860 C862 1.381 . S
C860 C866 1.383 . S
C861 C857 1.495 . S
C861 H867 0.959 . S
C861 H868 0.961 . S
C861 H869 0.960 . S
C862 C860 1.381 . S
C862 C863 1.394 . S
C862 H870 0.930 . S
C863 C862 1.394 . S
C863 C864 1.383 . S
C863 H871 0.929 . S
C864 C863 1.383 . S
C864 C865 1.377 . S
C865 H849 0.930 . S
C865 C864 1.377 . S
C865 C866 1.379 . S
C866 H850 0.931 . S
C866 C860 1.383 . S
C866 C865 1.379 . S
H867 C861 0.959 . S
H868 C861 0.961 . S
H869 C861 0.960 . S
H870 C862 0.930 . S
H871 C863 0.929 . S
H872 C880 0.929 . S
H873 C882 0.930 . S
H874 C884 0.930 . S
H875 C887 0.929 . S
H876 C890 0.930 . S
H877 C892 0.960 . S
H878 C892 0.960 . S
H879 C892 0.960 . S
C880 H872 0.929 . S
C880 C881 1.377 . S
C880 C882 1.384 . S
C881 C880 1.377 . S
C881 C887 1.390 . S
C882 H873 0.930 . S
C882 C880 1.384 . S
C882 C883 1.372 . S
C883 C882 1.372 . S
C883 C884 1.400 . S
C883 C888 1.490 . S
C884 H874 0.930 . S
C884 C883 1.400 . S
C884 C887 1.386 . S
H885 C901 0.930 . S
H886 C902 0.931 . S
C887 H875 0.929 . S
C887 C881 1.390 . S
C887 C884 1.386 . S
C888 C883 1.490 . S
C888 C890 1.395 1_565 S
C888 C891 1.403 . S
H889 C895 0.930 . S
C890 H876 0.930 . S
C890 C888 1.395 1_545 S
C890 C893 1.403 . S
C891 C888 1.403 . S
C891 C892 1.524 . S
C891 C895 1.400 . S
C892 H877 0.960 . S
C892 H878 0.960 . S
C892 H879 0.960 . S
C892 C891 1.524 . S
C893 C890 1.403 . S
C893 C894 1.392 . S
C893 C897 1.495 . S
C894 C893 1.392 . S
C894 C895 1.385 1_545 S
C894 C896 1.478 . S
C895 H889 0.930 . S
C895 C891 1.400 . S
C895 C894 1.385 1_565 S
C896 C894 1.478 . S
C896 C898 1.381 . S
C896 C902 1.383 . S
C897 C893 1.495 . S
C897 H903 0.959 . S
C897 H904 0.961 . S
C897 H905 0.960 . S
C898 C896 1.381 . S
C898 C899 1.394 . S
C898 H906 0.930 . S
C899 C898 1.394 . S
C899 C900 1.383 . S
C899 H907 0.929 . S
C900 C899 1.383 . S
C900 C901 1.377 . S
C901 H885 0.930 . S
C901 C900 1.377 . S
C901 C902 1.379 . S
C902 H886 0.931 . S
C902 C896 1.383 . S
C902 C901 1.379 . S
H903 C897 0.959 . S
H904 C897 0.961 . S
H905 C897 0.960 . S
H906 C898 0.930 . S
H907 C899 0.929 . S
H908 C916 0.929 . S
H909 C918 0.930 . S
H910 C920 0.930 . S
H911 C923 0.929 . S
H912 C926 0.930 . S
H913 C928 0.960 . S
H914 C928 0.960 . S
H915 C928 0.960 . S
C916 H908 0.929 . S
C916 C917 1.377 . S
C916 C918 1.384 . S
C917 C916 1.377 . S
C917 C923 1.390 . S
C918 H909 0.930 . S
C918 C916 1.384 . S
C918 C919 1.372 . S
C919 C918 1.372 . S
C919 C920 1.400 . S
C919 C924 1.490 . S
C920 H910 0.930 . S
C920 C919 1.400 . S
C920 C923 1.386 . S
H921 C937 0.930 . S
H922 C938 0.931 . S
C923 H911 0.929 . S
C923 C917 1.390 . S
C923 C920 1.386 . S
C924 C919 1.490 . S
C924 C926 1.395 . S
C924 C927 1.403 1_455 S
H925 C931 0.930 . S
C926 H912 0.930 . S
C926 C924 1.395 . S
C926 C929 1.403 . S
C927 C924 1.403 1_655 S
C927 C928 1.524 . S
C927 C931 1.400 . S
C928 H913 0.960 . S
C928 H914 0.960 . S
C928 H915 0.960 . S
C928 C927 1.524 . S
C929 C926 1.403 . S
C929 C930 1.392 1_455 S
C929 C933 1.495 . S
C930 C929 1.392 1_655 S
C930 C931 1.385 . S
C930 C932 1.478 . S
C931 H925 0.930 . S
C931 C927 1.400 . S
C931 C930 1.385 . S
C932 C930 1.478 . S
C932 C934 1.381 . S
C932 C938 1.383 . S
C933 C929 1.495 . S
C933 H939 0.959 . S
C933 H940 0.961 . S
C933 H941 0.960 . S
C934 C932 1.381 . S
C934 C935 1.394 . S
C934 H942 0.930 . S
C935 C934 1.394 . S
C935 C936 1.383 . S
C935 H943 0.929 . S
C936 C935 1.383 . S
C936 C937 1.377 . S
C937 H921 0.930 . S
C937 C936 1.377 . S
C937 C938 1.379 . S
C938 H922 0.931 . S
C938 C932 1.383 . S
C938 C937 1.379 . S
H939 C933 0.959 . S
H940 C933 0.961 . S
H941 C933 0.960 . S
H942 C934 0.930 . S
H943 C935 0.929 . S
H944 C952 0.929 . S
H945 C954 0.930 . S
H946 C956 0.930 . S
H947 C959 0.929 . S
H948 C962 0.930 . S
H949 C964 0.960 . S
H950 C964 0.960 . S
H951 C964 0.960 . S
C952 H944 0.929 . S
C952 C953 1.377 . S
C952 C954 1.384 . S
C953 C952 1.377 . S
C953 C959 1.390 . S
C954 H945 0.930 . S
C954 C952 1.384 . S
C954 C955 1.372 . S
C955 C954 1.372 . S
C955 C956 1.400 . S
C955 C960 1.490 . S
C956 H946 0.930 . S
C956 C955 1.400 . S
C956 C959 1.386 . S
H957 C973 0.930 . S
H958 C974 0.931 . S
C959 H947 0.929 . S
C959 C953 1.390 . S
C959 C956 1.386 . S
C960 C955 1.490 . S
C960 C962 1.395 . S
C960 C963 1.403 . S
H961 C967 0.930 . S
C962 H948 0.930 . S
C962 C960 1.395 . S
C962 C965 1.403 . S
C963 C960 1.403 . S
C963 C964 1.524 . S
C963 C967 1.400 . S
C964 H949 0.960 . S
C964 H950 0.960 . S
C964 H951 0.960 . S
C964 C963 1.524 . S
C965 C962 1.403 . S
C965 C966 1.392 . S
C965 C969 1.495 . S
C966 C965 1.392 . S
C966 C967 1.385 . S
C966 C968 1.478 . S
C967 H961 0.930 . S
C967 C963 1.400 . S
C967 C966 1.385 . S
C968 C966 1.478 . S
C968 C970 1.381 . S
C968 C974 1.383 . S
C969 C965 1.495 . S
C969 H975 0.959 . S
C969 H976 0.961 . S
C969 H977 0.960 . S
C970 C968 1.381 . S
C970 C971 1.394 . S
C970 H978 0.930 . S
C971 C970 1.394 . S
C971 C972 1.383 . S
C971 H979 0.929 . S
C972 C971 1.383 . S
C972 C973 1.377 . S
C973 H957 0.930 . S
C973 C972 1.377 . S
C973 C974 1.379 . S
C974 H958 0.931 . S
C974 C968 1.383 . S
C974 C973 1.379 . S
H975 C969 0.959 . S
H976 C969 0.961 . S
H977 C969 0.960 . S
H978 C970 0.930 . S
H979 C971 0.929 . S
H980 C988 0.929 . S
H981 C990 0.930 . S
H982 C992 0.930 . S
H983 C995 0.929 . S
H984 C998 0.930 . S
H985 C1000 0.960 . S
H986 C1000 0.960 . S
H987 C1000 0.960 . S
C988 H980 0.929 . S
C988 C989 1.377 . S
C988 C990 1.384 . S
C989 C988 1.377 . S
C989 C995 1.390 . S
C990 H981 0.930 . S
C990 C988 1.384 . S
C990 C991 1.372 . S
C991 C990 1.372 . S
C991 C992 1.400 . S
C991 C996 1.490 . S
C992 H982 0.930 . S
C992 C991 1.400 . S
C992 C995 1.386 . S
H993 C1009 0.930 . S
H994 C1010 0.931 . S
C995 H983 0.929 . S
C995 C989 1.390 . S
C995 C992 1.386 . S
C996 C991 1.490 . S
C996 C998 1.395 . S
C996 C999 1.403 . S
H997 C1003 0.930 . S
C998 H984 0.930 . S
C998 C996 1.395 . S
C998 C1001 1.403 . S
C999 C996 1.403 . S
C999 C1000 1.524 . S
C999 C1003 1.400 . S
C1000 H985 0.960 . S
C1000 H986 0.960 . S
C1000 H987 0.960 . S
C1000 C999 1.524 . S
C1001 C998 1.403 . S
C1001 C1002 1.392 . S
C1001 C1005 1.495 . S
C1002 C1001 1.392 . S
C1002 C1003 1.385 . S
C1002 C1004 1.478 . S
C1003 H997 0.930 . S
C1003 C999 1.400 . S
C1003 C1002 1.385 . S
C1004 C1002 1.478 . S
C1004 C1006 1.381 . S
C1004 C1010 1.383 . S
C1005 C1001 1.495 . S
C1005 H1011 0.959 . S
C1005 H1012 0.961 . S
C1005 H1013 0.960 . S
C1006 C1004 1.381 . S
C1006 C1007 1.394 . S
C1006 H1014 0.930 . S
C1007 C1006 1.394 . S
C1007 C1008 1.383 . S
C1007 H1015 0.929 . S
C1008 C1007 1.383 . S
C1008 C1009 1.377 . S
C1009 H993 0.930 . S
C1009 C1008 1.377 . S
C1009 C1010 1.379 . S
C1010 H994 0.931 . S
C1010 C1004 1.383 . S
C1010 C1009 1.379 . S
H1011 C1005 0.959 . S
H1012 C1005 0.961 . S
H1013 C1005 0.960 . S
H1014 C1006 0.930 . S
H1015 C1007 0.929 . S
H1016 C1024 0.929 . S
H1017 C1026 0.930 . S
H1018 C1028 0.930 . S
H1019 C1031 0.929 . S
H1020 C1034 0.930 . S
H1021 C1036 0.960 . S
H1022 C1036 0.960 . S
H1023 C1036 0.960 . S
C1024 H1016 0.929 . S
C1024 C1025 1.377 . S
C1024 C1026 1.384 . S
C1025 C1024 1.377 . S
C1025 C1031 1.390 . S
C1026 H1017 0.930 . S
C1026 C1024 1.384 . S
C1026 C1027 1.372 . S
C1027 C1026 1.372 . S
C1027 C1028 1.400 . S
C1027 C1032 1.490 . S
C1028 H1018 0.930 . S
C1028 C1027 1.400 . S
C1028 C1031 1.386 . S
H1029 C1045 0.930 . S
H1030 C1046 0.931 . S
C1031 H1019 0.929 . S
C1031 C1025 1.390 . S
C1031 C1028 1.386 . S
C1032 C1027 1.490 . S
C1032 C1034 1.395 . S
C1032 C1035 1.403 . S
H1033 C1039 0.930 . S
C1034 H1020 0.930 . S
C1034 C1032 1.395 . S
C1034 C1037 1.403 . S
C1035 C1032 1.403 . S
C1035 C1036 1.524 . S
C1035 C1039 1.400 . S
C1036 H1021 0.960 . S
C1036 H1022 0.960 . S
C1036 H1023 0.960 . S
C1036 C1035 1.524 . S
C1037 C1034 1.403 . S
C1037 C1038 1.392 . S
C1037 C1041 1.495 . S
C1038 C1037 1.392 . S
C1038 C1039 1.385 . S
C1038 C1040 1.478 . S
C1039 H1033 0.930 . S
C1039 C1035 1.400 . S
C1039 C1038 1.385 . S
C1040 C1038 1.478 . S
C1040 C1042 1.381 . S
C1040 C1046 1.383 . S
C1041 C1037 1.495 . S
C1041 H1047 0.959 . S
C1041 H1048 0.961 . S
C1041 H1049 0.960 . S
C1042 C1040 1.381 . S
C1042 C1043 1.394 . S
C1042 H1050 0.930 . S
C1043 C1042 1.394 . S
C1043 C1044 1.383 . S
C1043 H1051 0.929 . S
C1044 C1043 1.383 . S
C1044 C1045 1.377 . S
C1045 H1029 0.930 . S
C1045 C1044 1.377 . S
C1045 C1046 1.379 . S
C1046 H1030 0.931 . S
C1046 C1040 1.383 . S
C1046 C1045 1.379 . S
H1047 C1041 0.959 . S
H1048 C1041 0.961 . S
H1049 C1041 0.960 . S
H1050 C1042 0.930 . S
H1051 C1043 0.929 . S
H1052 C1060 0.929 . S
H1053 C1062 0.930 . S
H1054 C1064 0.930 . S
H1055 C1067 0.929 . S
H1056 C1070 0.930 . S
H1057 C1072 0.960 . S
H1058 C1072 0.960 . S
H1059 C1072 0.960 . S
C1060 H1052 0.929 . S
C1060 C1061 1.377 . S
C1060 C1062 1.384 . S
C1061 C1060 1.377 . S
C1061 C1067 1.390 . S
C1062 H1053 0.930 . S
C1062 C1060 1.384 . S
C1062 C1063 1.372 . S
C1063 C1062 1.372 . S
C1063 C1064 1.400 . S
C1063 C1068 1.490 . S
C1064 H1054 0.930 . S
C1064 C1063 1.400 . S
C1064 C1067 1.386 . S
H1065 C1081 0.930 . S
H1066 C1082 0.931 . S
C1067 H1055 0.929 . S
C1067 C1061 1.390 . S
C1067 C1064 1.386 . S
C1068 C1063 1.490 . S
C1068 C1070 1.395 . S
C1068 C1071 1.403 . S
H1069 C1075 0.930 . S
C1070 H1056 0.930 . S
C1070 C1068 1.395 . S
C1070 C1073 1.403 . S
C1071 C1068 1.403 . S
C1071 C1072 1.524 . S
C1071 C1075 1.400 . S
C1072 H1057 0.960 . S
C1072 H1058 0.960 . S
C1072 H1059 0.960 . S
C1072 C1071 1.524 . S
C1073 C1070 1.403 . S
C1073 C1074 1.392 . S
C1073 C1077 1.495 . S
C1074 C1073 1.392 . S
C1074 C1075 1.385 . S
C1074 C1076 1.478 . S
C1075 H1069 0.930 . S
C1075 C1071 1.400 . S
C1075 C1074 1.385 . S
C1076 C1074 1.478 . S
C1076 C1078 1.381 . S
C1076 C1082 1.383 . S
C1077 C1073 1.495 . S
C1077 H1083 0.959 . S
C1077 H1084 0.961 . S
C1077 H1085 0.960 . S
C1078 C1076 1.381 . S
C1078 C1079 1.394 . S
C1078 H1086 0.930 . S
C1079 C1078 1.394 . S
C1079 C1080 1.383 . S
C1079 H1087 0.929 . S
C1080 C1079 1.383 . S
C1080 C1081 1.377 . S
C1081 H1065 0.930 . S
C1081 C1080 1.377 . S
C1081 C1082 1.379 . S
C1082 H1066 0.931 . S
C1082 C1076 1.383 . S
C1082 C1081 1.379 . S
H1083 C1077 0.959 . S
H1084 C1077 0.961 . S
H1085 C1077 0.960 . S
H1086 C1078 0.930 . S
H1087 C1079 0.929 . S
H1088 C1096 0.929 . S
H1089 C1098 0.930 . S
H1090 C1100 0.930 . S
H1091 C1103 0.929 . S
H1092 C1106 0.930 . S
H1093 C1108 0.960 . S
H1094 C1108 0.960 . S
H1095 C1108 0.960 . S
C1096 H1088 0.929 . S
C1096 C1097 1.377 . S
C1096 C1098 1.384 . S
C1097 C1096 1.377 . S
C1097 C1103 1.390 . S
C1098 H1089 0.930 . S
C1098 C1096 1.384 . S
C1098 C1099 1.372 . S
C1099 C1098 1.372 . S
C1099 C1100 1.400 . S
C1099 C1104 1.490 . S
C1100 H1090 0.930 . S
C1100 C1099 1.400 . S
C1100 C1103 1.386 . S
H1101 C1117 0.930 . S
H1102 C1118 0.931 . S
C1103 H1091 0.929 . S
C1103 C1097 1.390 . S
C1103 C1100 1.386 . S
C1104 C1099 1.490 . S
C1104 C1106 1.395 . S
C1104 C1107 1.403 . S
H1105 C1111 0.930 . S
C1106 H1092 0.930 . S
C1106 C1104 1.395 . S
C1106 C1109 1.403 . S
C1107 C1104 1.403 . S
C1107 C1108 1.524 . S
C1107 C1111 1.400 . S
C1108 H1093 0.960 . S
C1108 H1094 0.960 . S
C1108 H1095 0.960 . S
C1108 C1107 1.524 . S
C1109 C1106 1.403 . S
C1109 C1110 1.392 . S
C1109 C1113 1.495 . S
C1110 C1109 1.392 . S
C1110 C1111 1.385 . S
C1110 C1112 1.478 . S
C1111 H1105 0.930 . S
C1111 C1107 1.400 . S
C1111 C1110 1.385 . S
C1112 C1110 1.478 . S
C1112 C1114 1.381 . S
C1112 C1118 1.383 . S
C1113 C1109 1.495 . S
C1113 H1119 0.959 . S
C1113 H1120 0.961 . S
C1113 H1121 0.960 . S
C1114 C1112 1.381 . S
C1114 C1115 1.394 . S
C1114 H1122 0.930 . S
C1115 C1114 1.394 . S
C1115 C1116 1.383 . S
C1115 H1123 0.929 . S
C1116 C1115 1.383 . S
C1116 C1117 1.377 . S
C1117 H1101 0.930 . S
C1117 C1116 1.377 . S
C1117 C1118 1.379 . S
C1118 H1102 0.931 . S
C1118 C1112 1.383 . S
C1118 C1117 1.379 . S
H1119 C1113 0.959 . S
H1120 C1113 0.961 . S
H1121 C1113 0.960 . S
H1122 C1114 0.930 . S
H1123 C1115 0.929 . S
H1124 C1132 0.929 . S
H1125 C1134 0.930 . S
H1126 C1136 0.930 . S
H1127 C1139 0.929 . S
H1128 C1142 0.930 . S
H1129 C1144 0.960 . S
H1130 C1144 0.960 . S
H1131 C1144 0.960 . S
C1132 H1124 0.929 . S
C1132 C1133 1.377 . S
C1132 C1134 1.384 . S
C1133 C1132 1.377 . S
C1133 C1139 1.390 . S
C1134 H1125 0.930 . S
C1134 C1132 1.384 . S
C1134 C1135 1.372 . S
C1135 C1134 1.372 . S
C1135 C1136 1.400 . S
C1135 C1140 1.490 . S
C1136 H1126 0.930 . S
C1136 C1135 1.400 . S
C1136 C1139 1.386 . S
H1137 C1153 0.930 . S
H1138 C1154 0.931 . S
C1139 H1127 0.929 . S
C1139 C1133 1.390 . S
C1139 C1136 1.386 . S
C1140 C1135 1.490 . S
C1140 C1142 1.395 . S
C1140 C1143 1.403 . S
H1141 C1147 0.930 . S
C1142 H1128 0.930 . S
C1142 C1140 1.395 . S
C1142 C1145 1.403 . S
C1143 C1140 1.403 . S
C1143 C1144 1.524 . S
C1143 C1147 1.400 . S
C1144 H1129 0.960 . S
C1144 H1130 0.960 . S
C1144 H1131 0.960 . S
C1144 C1143 1.524 . S
C1145 C1142 1.403 . S
C1145 C1146 1.392 . S
C1145 C1149 1.495 . S
C1146 C1145 1.392 . S
C1146 C1147 1.385 . S
C1146 C1148 1.478 . S
C1147 H1141 0.930 . S
C1147 C1143 1.400 . S
C1147 C1146 1.385 . S
C1148 C1146 1.478 . S
C1148 C1150 1.381 . S
C1148 C1154 1.383 . S
C1149 C1145 1.495 . S
C1149 H1155 0.959 . S
C1149 H1156 0.961 . S
C1149 H1157 0.960 . S
C1150 C1148 1.381 . S
C1150 C1151 1.394 . S
C1150 H1158 0.930 . S
C1151 C1150 1.394 . S
C1151 C1152 1.383 . S
C1151 H1159 0.929 . S
C1152 C1151 1.383 . S
C1152 C1153 1.377 . S
C1153 H1137 0.930 . S
C1153 C1152 1.377 . S
C1153 C1154 1.379 . S
C1154 H1138 0.931 . S
C1154 C1148 1.383 . S
C1154 C1153 1.379 . S
H1155 C1149 0.959 . S
H1156 C1149 0.961 . S
H1157 C1149 0.960 . S
H1158 C1150 0.930 . S
H1159 C1151 0.929 . S
H1160 C1168 0.929 . S
H1161 C1170 0.930 . S
H1162 C1172 0.930 . S
H1163 C1175 0.929 . S
H1164 C1178 0.930 . S
H1165 C1180 0.960 . S
H1166 C1180 0.960 . S
H1167 C1180 0.960 . S
C1168 H1160 0.929 . S
C1168 C1169 1.377 . S
C1168 C1170 1.384 . S
C1169 C1168 1.377 . S
C1169 C1175 1.390 . S
C1170 H1161 0.930 . S
C1170 C1168 1.384 . S
C1170 C1171 1.372 . S
C1171 C1170 1.372 . S
C1171 C1172 1.400 . S
C1171 C1176 1.490 . S
C1172 H1162 0.930 . S
C1172 C1171 1.400 . S
C1172 C1175 1.386 . S
H1173 C1189 0.930 . S
H1174 C1190 0.931 . S
C1175 H1163 0.929 . S
C1175 C1169 1.390 . S
C1175 C1172 1.386 . S
C1176 C1171 1.490 . S
C1176 C1178 1.395 . S
C1176 C1179 1.403 . S
H1177 C1183 0.930 . S
C1178 H1164 0.930 . S
C1178 C1176 1.395 . S
C1178 C1181 1.403 . S
C1179 C1176 1.403 . S
C1179 C1180 1.524 . S
C1179 C1183 1.400 . S
C1180 H1165 0.960 . S
C1180 H1166 0.960 . S
C1180 H1167 0.960 . S
C1180 C1179 1.524 . S
C1181 C1178 1.403 . S
C1181 C1182 1.392 . S
C1181 C1185 1.495 . S
C1182 C1181 1.392 . S
C1182 C1183 1.385 . S
C1182 C1184 1.478 . S
C1183 H1177 0.930 . S
C1183 C1179 1.400 . S
C1183 C1182 1.385 . S
C1184 C1182 1.478 . S
C1184 C1186 1.381 . S
C1184 C1190 1.383 . S
C1185 C1181 1.495 . S
C1185 H1191 0.959 . S
C1185 H1192 0.961 . S
C1185 H1193 0.960 . S
C1186 C1184 1.381 . S
C1186 C1187 1.394 . S
C1186 H1194 0.930 . S
C1187 C1186 1.394 . S
C1187 C1188 1.383 . S
C1187 H1195 0.929 . S
C1188 C1187 1.383 . S
C1188 C1189 1.377 . S
C1189 H1173 0.930 . S
C1189 C1188 1.377 . S
C1189 C1190 1.379 . S
C1190 H1174 0.931 . S
C1190 C1184 1.383 . S
C1190 C1189 1.379 . S
H1191 C1185 0.959 . S
H1192 C1185 0.961 . S
H1193 C1185 0.960 . S
H1194 C1186 0.930 . S
H1195 C1187 0.929 . S
H1196 C1204 0.929 . S
H1197 C1206 0.930 . S
H1198 C1208 0.930 . S
H1199 C1211 0.929 . S
H1200 C1214 0.930 . S
H1201 C1216 0.960 . S
H1202 C1216 0.960 . S
H1203 C1216 0.960 . S
C1204 H1196 0.929 . S
C1204 C1205 1.377 . S
C1204 C1206 1.384 . S
C1205 C1204 1.377 . S
C1205 C1211 1.390 . S
C1206 H1197 0.930 . S
C1206 C1204 1.384 . S
C1206 C1207 1.372 . S
C1207 C1206 1.372 . S
C1207 C1208 1.400 . S
C1207 C1212 1.490 . S
C1208 H1198 0.930 . S
C1208 C1207 1.400 . S
C1208 C1211 1.386 . S
H1209 C1225 0.930 . S
H1210 C1226 0.931 . S
C1211 H1199 0.929 . S
C1211 C1205 1.390 . S
C1211 C1208 1.386 . S
C1212 C1207 1.490 . S
C1212 C1214 1.395 . S
C1212 C1215 1.403 . S
H1213 C1219 0.930 . S
C1214 H1200 0.930 . S
C1214 C1212 1.395 . S
C1214 C1217 1.403 . S
C1215 C1212 1.403 . S
C1215 C1216 1.524 . S
C1215 C1219 1.400 . S
C1216 H1201 0.960 . S
C1216 H1202 0.960 . S
C1216 H1203 0.960 . S
C1216 C1215 1.524 . S
C1217 C1214 1.403 . S
C1217 C1218 1.392 . S
C1217 C1221 1.495 . S
C1218 C1217 1.392 . S
C1218 C1219 1.385 . S
C1218 C1220 1.478 . S
C1219 H1213 0.930 . S
C1219 C1215 1.400 . S
C1219 C1218 1.385 . S
C1220 C1218 1.478 . S
C1220 C1222 1.381 . S
C1220 C1226 1.383 . S
C1221 C1217 1.495 . S
C1221 H1227 0.959 . S
C1221 H1228 0.961 . S
C1221 H1229 0.960 . S
C1222 C1220 1.381 . S
C1222 C1223 1.394 . S
C1222 H1230 0.930 . S
C1223 C1222 1.394 . S
C1223 C1224 1.383 . S
C1223 H1231 0.929 . S
C1224 C1223 1.383 . S
C1224 C1225 1.377 . S
C1225 H1209 0.930 . S
C1225 C1224 1.377 . S
C1225 C1226 1.379 . S
C1226 H1210 0.931 . S
C1226 C1220 1.383 . S
C1226 C1225 1.379 . S
H1227 C1221 0.959 . S
H1228 C1221 0.961 . S
H1229 C1221 0.960 . S
H1230 C1222 0.930 . S
H1231 C1223 0.929 . S
H1232 C1240 0.929 . S
H1233 C1242 0.930 . S
H1234 C1244 0.930 . S
H1235 C1247 0.929 . S
H1236 C1250 0.930 . S
H1237 C1252 0.960 . S
H1238 C1252 0.960 . S
H1239 C1252 0.960 . S
C1240 H1232 0.929 . S
C1240 C1241 1.377 . S
C1240 C1242 1.384 . S
C1241 C1240 1.377 . S
C1241 C1247 1.390 . S
C1242 H1233 0.930 . S
C1242 C1240 1.384 . S
C1242 C1243 1.372 . S
C1243 C1242 1.372 . S
C1243 C1244 1.400 . S
C1243 C1248 1.490 . S
C1244 H1234 0.930 . S
C1244 C1243 1.400 . S
C1244 C1247 1.386 . S
H1245 C1261 0.930 . S
H1246 C1262 0.931 . S
C1247 H1235 0.929 . S
C1247 C1241 1.390 . S
C1247 C1244 1.386 . S
C1248 C1243 1.490 . S
C1248 C1250 1.395 . S
C1248 C1251 1.403 . S
H1249 C1255 0.930 . S
C1250 H1236 0.930 . S
C1250 C1248 1.395 . S
C1250 C1253 1.403 . S
C1251 C1248 1.403 . S
C1251 C1252 1.524 . S
C1251 C1255 1.400 . S
C1252 H1237 0.960 . S
C1252 H1238 0.960 . S
C1252 H1239 0.960 . S
C1252 C1251 1.524 . S
C1253 C1250 1.403 . S
C1253 C1254 1.392 . S
C1253 C1257 1.495 . S
C1254 C1253 1.392 . S
C1254 C1255 1.385 . S
C1254 C1256 1.478 . S
C1255 H1249 0.930 . S
C1255 C1251 1.400 . S
C1255 C1254 1.385 . S
C1256 C1254 1.478 . S
C1256 C1258 1.381 . S
C1256 C1262 1.383 . S
C1257 C1253 1.495 . S
C1257 H1263 0.959 . S
C1257 H1264 0.961 . S
C1257 H1265 0.960 . S
C1258 C1256 1.381 . S
C1258 C1259 1.394 1_655 S
C1258 H1266 0.930 . S
C1259 C1258 1.394 1_455 S
C1259 C1260 1.383 . S
C1259 H1267 0.929 . S
C1260 C1259 1.383 . S
C1260 C1261 1.377 . S
C1261 H1245 0.930 . S
C1261 C1260 1.377 . S
C1261 C1262 1.379 1_455 S
C1262 H1246 0.931 . S
C1262 C1256 1.383 . S
C1262 C1261 1.379 1_655 S
H1263 C1257 0.959 . S
H1264 C1257 0.961 . S
H1265 C1257 0.960 . S
H1266 C1258 0.930 . S
H1267 C1259 0.929 . S
H1268 C1276 0.930 . S
H1269 C1278 0.930 . S
H1270 C1280 0.930 . S
H1271 C1283 0.929 . S
H1272 C1286 0.930 . S
H1273 C1288 0.960 . S
H1274 C1288 0.960 . S
H1275 C1288 0.960 . S
C1276 H1268 0.930 . S
C1276 C1277 1.377 1_565 S
C1276 C1278 1.384 . S
C1277 C1276 1.377 1_545 S
C1277 C1283 1.390 . S
C1278 H1269 0.930 . S
C1278 C1276 1.384 . S
C1278 C1279 1.372 . S
C1279 C1278 1.372 . S
C1279 C1280 1.400 . S
C1279 C1284 1.490 . S
C1280 H1270 0.930 . S
C1280 C1279 1.400 . S
C1280 C1283 1.386 1_565 S
H1281 C1297 0.930 . S
H1282 C1298 0.931 . S
C1283 H1271 0.929 . S
C1283 C1277 1.390 . S
C1283 C1280 1.386 1_545 S
C1284 C1279 1.490 . S
C1284 C1286 1.395 . S
C1284 C1287 1.403 . S
H1285 C1291 0.930 . S
C1286 H1272 0.930 . S
C1286 C1284 1.395 . S
C1286 C1289 1.403 . S
C1287 C1284 1.403 . S
C1287 C1288 1.524 . S
C1287 C1291 1.400 . S
C1288 H1273 0.960 . S
C1288 H1274 0.960 . S
C1288 H1275 0.960 . S
C1288 C1287 1.524 . S
C1289 C1286 1.403 . S
C1289 C1290 1.392 . S
C1289 C1293 1.495 . S
C1290 C1289 1.392 . S
C1290 C1291 1.385 . S
C1290 C1292 1.478 . S
C1291 H1285 0.930 . S
C1291 C1287 1.400 . S
C1291 C1290 1.385 . S
C1292 C1290 1.478 . S
C1292 C1294 1.381 . S
C1292 C1298 1.383 . S
C1293 C1289 1.495 . S
C1293 H1299 0.959 . S
C1293 H1300 0.961 . S
C1293 H1301 0.960 . S
C1294 C1292 1.381 . S
C1294 C1295 1.394 . S
C1294 H1302 0.930 . S
C1295 C1294 1.394 . S
C1295 C1296 1.383 . S
C1295 H1303 0.929 . S
C1296 C1295 1.383 . S
C1296 C1297 1.377 . S
C1297 H1281 0.930 . S
C1297 C1296 1.377 . S
C1297 C1298 1.379 . S
C1298 H1282 0.931 . S
C1298 C1292 1.383 . S
C1298 C1297 1.379 . S
H1299 C1293 0.959 . S
H1300 C1293 0.961 . S
H1301 C1293 0.960 . S
H1302 C1294 0.930 . S
H1303 C1295 0.929 . S
H1304 C1312 0.929 . S
H1305 C1314 0.930 . S
H1306 C1316 0.930 . S
H1307 C1319 0.929 . S
H1308 C1322 0.930 . S
H1309 C1324 0.960 . S
H1310 C1324 0.960 . S
H1311 C1324 0.960 . S
C1312 H1304 0.929 . S
C1312 C1313 1.377 . S
C1312 C1314 1.384 1_655 S
C1313 C1312 1.377 . S
C1313 C1319 1.390 . S
C1314 H1305 0.930 . S
C1314 C1312 1.384 1_455 S
C1314 C1315 1.372 . S
C1315 C1314 1.372 . S
C1315 C1316 1.400 . S
C1315 C1320 1.490 . S
C1316 H1306 0.930 . S
C1316 C1315 1.400 . S
C1316 C1319 1.386 1_455 S
H1317 C1333 0.930 . S
H1318 C1334 0.931 . S
C1319 H1307 0.929 . S
C1319 C1313 1.390 . S
C1319 C1316 1.386 1_655 S
C1320 C1315 1.490 . S
C1320 C1322 1.395 . S
C1320 C1323 1.403 . S
H1321 C1327 0.930 . S
C1322 H1308 0.930 . S
C1322 C1320 1.395 . S
C1322 C1325 1.403 . S
C1323 C1320 1.403 . S
C1323 C1324 1.524 . S
C1323 C1327 1.400 . S
C1324 H1309 0.960 . S
C1324 H1310 0.960 . S
C1324 H1311 0.960 . S
C1324 C1323 1.524 . S
C1325 C1322 1.403 . S
C1325 C1326 1.392 . S
C1325 C1329 1.495 . S
C1326 C1325 1.392 . S
C1326 C1327 1.385 . S
C1326 C1328 1.478 . S
C1327 H1321 0.930 . S
C1327 C1323 1.400 . S
C1327 C1326 1.385 . S
C1328 C1326 1.478 . S
C1328 C1330 1.381 . S
C1328 C1334 1.383 . S
C1329 C1325 1.495 . S
C1329 H1335 0.959 . S
C1329 H1336 0.961 . S
C1329 H1337 0.960 . S
C1330 C1328 1.381 . S
C1330 C1331 1.394 . S
C1330 H1338 0.930 . S
C1331 C1330 1.394 . S
C1331 C1332 1.383 . S
C1331 H1339 0.929 . S
C1332 C1331 1.383 . S
C1332 C1333 1.377 . S
C1333 H1317 0.930 . S
C1333 C1332 1.377 . S
C1333 C1334 1.379 . S
C1334 H1318 0.931 . S
C1334 C1328 1.383 . S
C1334 C1333 1.379 . S
H1335 C1329 0.959 . S
H1336 C1329 0.961 . S
H1337 C1329 0.960 . S
H1338 C1330 0.930 . S
H1339 C1331 0.929 . S
H1340 C1348 0.929 . S
H1341 C1350 0.930 . S
H1342 C1352 0.930 . S
H1343 C1355 0.929 . S
H1344 C1358 0.930 . S
H1345 C1360 0.960 . S
H1346 C1360 0.960 . S
H1347 C1360 0.960 . S
C1348 H1340 0.929 . S
C1348 C1349 1.377 . S
C1348 C1350 1.384 . S
C1349 C1348 1.377 . S
C1349 C1355 1.390 . S
C1350 H1341 0.930 . S
C1350 C1348 1.384 . S
C1350 C1351 1.372 . S
C1351 C1350 1.372 . S
C1351 C1352 1.400 . S
C1351 C1356 1.490 . S
C1352 H1342 0.930 . S
C1352 C1351 1.400 . S
C1352 C1355 1.386 . S
H1353 C1369 0.930 . S
H1354 C1370 0.931 . S
C1355 H1343 0.929 . S
C1355 C1349 1.390 . S
C1355 C1352 1.386 . S
C1356 C1351 1.490 . S
C1356 C1358 1.395 . S
C1356 C1359 1.403 . S
H1357 C1363 0.930 . S
C1358 H1344 0.930 . S
C1358 C1356 1.395 . S
C1358 C1361 1.403 . S
C1359 C1356 1.403 . S
C1359 C1360 1.524 . S
C1359 C1363 1.400 . S
C1360 H1345 0.960 . S
C1360 H1346 0.960 . S
C1360 H1347 0.960 . S
C1360 C1359 1.524 . S
C1361 C1358 1.403 . S
C1361 C1362 1.392 . S
C1361 C1365 1.495 . S
C1362 C1361 1.392 . S
C1362 C1363 1.385 . S
C1362 C1364 1.478 . S
C1363 H1357 0.930 . S
C1363 C1359 1.400 . S
C1363 C1362 1.385 . S
C1364 C1362 1.478 . S
C1364 C1366 1.381 . S
C1364 C1370 1.383 . S
C1365 C1361 1.495 . S
C1365 H1371 0.959 . S
C1365 H1372 0.961 . S
C1365 H1373 0.960 . S
C1366 C1364 1.381 . S
C1366 C1367 1.394 1_545 S
C1366 H1374 0.930 . S
C1367 C1366 1.394 1_565 S
C1367 C1368 1.383 . S
C1367 H1375 0.929 . S
C1368 C1367 1.383 . S
C1368 C1369 1.377 . S
C1369 H1353 0.930 . S
C1369 C1368 1.377 . S
C1369 C1370 1.379 1_565 S
C1370 H1354 0.931 . S
C1370 C1364 1.383 . S
C1370 C1369 1.379 1_545 S
H1371 C1365 0.959 . S
H1372 C1365 0.961 . S
H1373 C1365 0.960 . S
H1374 C1366 0.930 . S
H1375 C1367 0.929 . S
H1376 C1384 0.929 . S
H1377 C1386 0.930 . S
H1378 C1388 0.930 . S
H1379 C1391 0.929 . S
H1380 C1394 0.930 . S
H1381 C1396 0.960 . S
H1382 C1396 0.960 . S
H1383 C1396 0.960 . S
C1384 H1376 0.929 . S
C1384 C1385 1.377 . S
C1384 C1386 1.384 . S
C1385 C1384 1.377 . S
C1385 C1391 1.390 . S
C1386 H1377 0.930 . S
C1386 C1384 1.384 . S
C1386 C1387 1.372 . S
C1387 C1386 1.372 . S
C1387 C1388 1.400 . S
C1387 C1392 1.490 . S
C1388 H1378 0.930 . S
C1388 C1387 1.400 . S
C1388 C1391 1.386 . S
H1389 C1405 0.930 . S
H1390 C1406 0.931 . S
C1391 H1379 0.929 . S
C1391 C1385 1.390 . S
C1391 C1388 1.386 . S
C1392 C1387 1.490 . S
C1392 C1394 1.395 . S
C1392 C1395 1.403 . S
H1393 C1399 0.930 . S
C1394 H1380 0.930 . S
C1394 C1392 1.395 . S
C1394 C1397 1.403 . S
C1395 C1392 1.403 . S
C1395 C1396 1.524 . S
C1395 C1399 1.400 . S
C1396 H1381 0.960 . S
C1396 H1382 0.960 . S
C1396 H1383 0.960 . S
C1396 C1395 1.524 . S
C1397 C1394 1.403 . S
C1397 C1398 1.392 . S
C1397 C1401 1.495 . S
C1398 C1397 1.392 . S
C1398 C1399 1.385 . S
C1398 C1400 1.478 . S
C1399 H1393 0.930 . S
C1399 C1395 1.400 . S
C1399 C1398 1.385 . S
C1400 C1398 1.478 . S
C1400 C1402 1.381 . S
C1400 C1406 1.383 . S
C1401 C1397 1.495 . S
C1401 H1407 0.959 . S
C1401 H1408 0.961 . S
C1401 H1409 0.960 . S
C1402 C1400 1.381 . S
C1402 C1403 1.394 1_655 S
C1402 H1410 0.930 . S
C1403 C1402 1.394 1_455 S
C1403 C1404 1.383 . S
C1403 H1411 0.929 . S
C1404 C1403 1.383 . S
C1404 C1405 1.377 . S
C1405 H1389 0.930 . S
C1405 C1404 1.377 . S
C1405 C1406 1.379 1_455 S
C1406 H1390 0.931 . S
C1406 C1400 1.383 . S
C1406 C1405 1.379 1_655 S
H1407 C1401 0.959 . S
H1408 C1401 0.961 . S
H1409 C1401 0.960 . S
H1410 C1402 0.930 . S
H1411 C1403 0.929 . S
H1412 C1420 0.929 . S
H1413 C1422 0.930 . S
H1414 C1424 0.930 . S
H1415 C1427 0.931 . S
H1416 C1430 0.930 . S
H1417 C1432 0.960 . S
H1418 C1432 0.960 . S
H1419 C1432 0.960 . S
C1420 H1412 0.929 . S
C1420 C1421 1.377 . S
C1420 C1422 1.384 1_545 S
C1421 C1420 1.377 . S
C1421 C1427 1.390 1_545 S
C1422 H1413 0.930 . S
C1422 C1420 1.384 1_565 S
C1422 C1423 1.372 . S
C1423 C1422 1.372 . S
C1423 C1424 1.400 . S
C1423 C1428 1.490 . S
C1424 H1414 0.930 . S
C1424 C1423 1.400 . S
C1424 C1427 1.386 . S
H1425 C1441 0.930 . S
H1426 C1442 0.931 . S
C1427 H1415 0.931 . S
C1427 C1421 1.390 1_565 S
C1427 C1424 1.386 . S
C1428 C1423 1.490 . S
C1428 C1430 1.395 . S
C1428 C1431 1.403 . S
H1429 C1435 0.930 . S
C1430 H1416 0.930 . S
C1430 C1428 1.395 . S
C1430 C1433 1.403 . S
C1431 C1428 1.403 . S
C1431 C1432 1.524 . S
C1431 C1435 1.400 . S
C1432 H1417 0.960 . S
C1432 H1418 0.960 . S
C1432 H1419 0.960 . S
C1432 C1431 1.524 . S
C1433 C1430 1.403 . S
C1433 C1434 1.392 . S
C1433 C1437 1.495 . S
C1434 C1433 1.392 . S
C1434 C1435 1.385 . S
C1434 C1436 1.478 . S
C1435 H1429 0.930 . S
C1435 C1431 1.400 . S
C1435 C1434 1.385 . S
C1436 C1434 1.478 . S
C1436 C1438 1.381 . S
C1436 C1442 1.383 . S
C1437 C1433 1.495 . S
C1437 H1443 0.959 . S
C1437 H1444 0.961 . S
C1437 H1445 0.960 . S
C1438 C1436 1.381 . S
C1438 C1439 1.394 . S
C1438 H1446 0.930 . S
C1439 C1438 1.394 . S
C1439 C1440 1.383 . S
C1439 H1447 0.929 . S
C1440 C1439 1.383 . S
C1440 C1441 1.377 . S
C1441 H1425 0.930 . S
C1441 C1440 1.377 . S
C1441 C1442 1.379 . S
C1442 H1426 0.931 . S
C1442 C1436 1.383 . S
C1442 C1441 1.379 . S
H1443 C1437 0.959 . S
H1444 C1437 0.961 . S
H1445 C1437 0.960 . S
H1446 C1438 0.930 . S
H1447 C1439 0.929 . S
H1448 C1456 0.929 . S
H1449 C1458 0.930 . S
H1450 C1460 0.930 . S
H1451 C1463 0.929 . S
H1452 C1466 0.930 . S
H1453 C1468 0.960 . S
H1454 C1468 0.960 . S
H1455 C1468 0.960 . S
C1456 H1448 0.929 . S
C1456 C1457 1.377 . S
C1456 C1458 1.384 . S
C1457 C1456 1.377 . S
C1457 C1463 1.390 . S
C1458 H1449 0.930 . S
C1458 C1456 1.384 . S
C1458 C1459 1.372 . S
C1459 C1458 1.372 . S
C1459 C1460 1.400 . S
C1459 C1464 1.490 . S
C1460 H1450 0.930 . S
C1460 C1459 1.400 . S
C1460 C1463 1.386 . S
H1461 C1477 0.930 . S
H1462 C1478 0.931 . S
C1463 H1451 0.929 . S
C1463 C1457 1.390 . S
C1463 C1460 1.386 . S
C1464 C1459 1.490 . S
C1464 C1466 1.395 . S
C1464 C1467 1.403 . S
H1465 C1471 0.930 . S
C1466 H1452 0.930 . S
C1466 C1464 1.395 . S
C1466 C1469 1.403 . S
C1467 C1464 1.403 . S
C1467 C1468 1.524 . S
C1467 C1471 1.400 . S
C1468 H1453 0.960 . S
C1468 H1454 0.960 . S
C1468 H1455 0.960 . S
C1468 C1467 1.524 . S
C1469 C1466 1.403 . S
C1469 C1470 1.392 . S
C1469 C1473 1.495 . S
C1470 C1469 1.392 . S
C1470 C1471 1.385 . S
C1470 C1472 1.478 . S
C1471 H1465 0.930 . S
C1471 C1467 1.400 . S
C1471 C1470 1.385 . S
C1472 C1470 1.478 . S
C1472 C1474 1.381 . S
C1472 C1478 1.383 . S
C1473 C1469 1.495 . S
C1473 H1479 0.959 . S
C1473 H1480 0.961 . S
C1473 H1481 0.960 . S
C1474 C1472 1.381 . S
C1474 C1475 1.394 1_455 S
C1474 H1482 0.930 . S
C1475 C1474 1.394 1_655 S
C1475 C1476 1.383 . S
C1475 H1483 0.929 . S
C1476 C1475 1.383 . S
C1476 C1477 1.377 . S
C1477 H1461 0.930 . S
C1477 C1476 1.377 . S
C1477 C1478 1.379 1_655 S
C1478 H1462 0.931 . S
C1478 C1472 1.383 . S
C1478 C1477 1.379 1_455 S
H1479 C1473 0.959 . S
H1480 C1473 0.961 . S
H1481 C1473 0.960 . S
H1482 C1474 0.930 . S
H1483 C1475 0.929 . S
H1484 C1492 0.929 . S
H1485 C1494 0.930 . S
H1486 C1496 0.930 . S
H1487 C1499 0.929 . S
H1488 C1502 0.930 . S
H1489 C1504 0.960 . S
H1490 C1504 0.960 . S
H1491 C1504 0.960 . S
C1492 H1484 0.929 . S
C1492 C1493 1.377 . S
C1492 C1494 1.384 1_565 S
C1493 C1492 1.377 . S
C1493 C1499 1.390 1_565 S
C1494 H1485 0.930 . S
C1494 C1492 1.384 1_545 S
C1494 C1495 1.372 . S
C1495 C1494 1.372 . S
C1495 C1496 1.400 . S
C1495 C1500 1.490 . S
C1496 H1486 0.930 . S
C1496 C1495 1.400 . S
C1496 C1499 1.386 . S
H1497 C1513 0.930 . S
H1498 C1514 0.931 . S
C1499 H1487 0.929 . S
C1499 C1493 1.390 1_545 S
C1499 C1496 1.386 . S
C1500 C1495 1.490 . S
C1500 C1502 1.395 . S
C1500 C1503 1.403 . S
H1501 C1507 0.930 . S
C1502 H1488 0.930 . S
C1502 C1500 1.395 . S
C1502 C1505 1.403 . S
C1503 C1500 1.403 . S
C1503 C1504 1.524 . S
C1503 C1507 1.400 . S
C1504 H1489 0.960 . S
C1504 H1490 0.960 . S
C1504 H1491 0.960 . S
C1504 C1503 1.524 . S
C1505 C1502 1.403 . S
C1505 C1506 1.392 . S
C1505 C1509 1.495 . S
C1506 C1505 1.392 . S
C1506 C1507 1.385 . S
C1506 C1508 1.478 . S
C1507 H1501 0.930 . S
C1507 C1503 1.400 . S
C1507 C1506 1.385 . S
C1508 C1506 1.478 . S
C1508 C1510 1.381 . S
C1508 C1514 1.383 . S
C1509 C1505 1.495 . S
C1509 H1515 0.959 . S
C1509 H1516 0.961 . S
C1509 H1517 0.960 . S
C1510 C1508 1.381 . S
C1510 C1511 1.394 . S
C1510 H1518 0.930 . S
C1511 C1510 1.394 . S
C1511 C1512 1.383 . S
C1511 H1519 0.929 . S
C1512 C1511 1.383 . S
C1512 C1513 1.377 . S
C1513 H1497 0.930 . S
C1513 C1512 1.377 . S
C1513 C1514 1.379 . S
C1514 H1498 0.931 . S
C1514 C1508 1.383 . S
C1514 C1513 1.379 . S
H1515 C1509 0.959 . S
H1516 C1509 0.961 . S
H1517 C1509 0.960 . S
H1518 C1510 0.930 . S
H1519 C1511 0.929 . S
H1520 C1528 0.929 . S
H1521 C1530 0.930 . S
H1522 C1532 0.930 . S
H1523 C1535 0.929 . S
H1524 C1538 0.930 . S
H1525 C1540 0.960 . S
H1526 C1540 0.960 . S
H1527 C1540 0.960 . S
C1528 H1520 0.929 . S
C1528 C1529 1.377 . S
C1528 C1530 1.384 . S
C1529 C1528 1.377 . S
C1529 C1535 1.390 . S
C1530 H1521 0.930 . S
C1530 C1528 1.384 . S
C1530 C1531 1.372 . S
C1531 C1530 1.372 . S
C1531 C1532 1.400 . S
C1531 C1536 1.490 . S
C1532 H1522 0.930 . S
C1532 C1531 1.400 . S
C1532 C1535 1.386 . S
H1533 C1549 0.930 . S
H1534 C1550 0.931 . S
C1535 H1523 0.929 . S
C1535 C1529 1.390 . S
C1535 C1532 1.386 . S
C1536 C1531 1.490 . S
C1536 C1538 1.395 . S
C1536 C1539 1.403 . S
H1537 C1543 0.930 . S
C1538 H1524 0.930 . S
C1538 C1536 1.395 . S
C1538 C1541 1.403 1_554 S
C1539 C1536 1.403 . S
C1539 C1540 1.524 . S
C1539 C1543 1.400 1_554 S
C1540 H1525 0.960 . S
C1540 H1526 0.960 . S
C1540 H1527 0.960 . S
C1540 C1539 1.524 . S
C1541 C1538 1.403 1_556 S
C1541 C1542 1.392 . S
C1541 C1545 1.495 . S
C1542 C1541 1.392 . S
C1542 C1543 1.385 . S
C1542 C1544 1.478 . S
C1543 H1537 0.930 . S
C1543 C1539 1.400 1_556 S
C1543 C1542 1.385 . S
C1544 C1542 1.478 . S
C1544 C1546 1.381 . S
C1544 C1550 1.383 . S
C1545 C1541 1.495 . S
C1545 H1551 0.959 . S
C1545 H1552 0.961 . S
C1545 H1553 0.960 . S
C1546 C1544 1.381 . S
C1546 C1547 1.394 . S
C1546 H1554 0.930 . S
C1547 C1546 1.394 . S
C1547 C1548 1.383 . S
C1547 H1555 0.929 . S
C1548 C1547 1.383 . S
C1548 C1549 1.377 . S
C1549 H1533 0.930 . S
C1549 C1548 1.377 . S
C1549 C1550 1.379 . S
C1550 H1534 0.931 . S
C1550 C1544 1.383 . S
C1550 C1549 1.379 . S
H1551 C1545 0.959 . S
H1552 C1545 0.961 . S
H1553 C1545 0.960 . S
H1554 C1546 0.930 . S
H1555 C1547 0.929 . S
H1556 C1564 0.929 . S
H1557 C1566 0.930 . S
H1558 C1568 0.930 . S
H1559 C1571 0.929 . S
H1560 C1574 0.930 . S
H1561 C1576 0.960 . S
H1562 C1576 0.960 . S
H1563 C1576 0.960 1_556 S
C1564 H1556 0.929 . S
C1564 C1565 1.377 . S
C1564 C1566 1.384 . S
C1565 C1564 1.377 . S
C1565 C1571 1.390 . S
C1566 H1557 0.930 . S
C1566 C1564 1.384 . S
C1566 C1567 1.372 . S
C1567 C1566 1.372 . S
C1567 C1568 1.400 . S
C1567 C1572 1.490 . S
C1568 H1558 0.930 . S
C1568 C1567 1.400 . S
C1568 C1571 1.386 . S
H1569 C1585 0.930 . S
H1570 C1586 0.931 . S
C1571 H1559 0.929 . S
C1571 C1565 1.390 . S
C1571 C1568 1.386 . S
C1572 C1567 1.490 . S
C1572 C1574 1.395 . S
C1572 C1575 1.403 1_556 S
H1573 C1579 0.930 . S
C1574 H1560 0.930 . S
C1574 C1572 1.395 . S
C1574 C1577 1.403 . S
C1575 C1572 1.403 1_554 S
C1575 C1576 1.524 . S
C1575 C1579 1.400 . S
C1576 H1561 0.960 . S
C1576 H1562 0.960 . S
C1576 H1563 0.960 1_554 S
C1576 C1575 1.524 . S
C1577 C1574 1.403 . S
C1577 C1578 1.392 1_556 S
C1577 C1581 1.495 . S
C1578 C1577 1.392 1_554 S
C1578 C1579 1.385 . S
C1578 C1580 1.478 . S
C1579 H1573 0.930 . S
C1579 C1575 1.400 . S
C1579 C1578 1.385 . S
C1580 C1578 1.478 . S
C1580 C1582 1.381 . S
C1580 C1586 1.383 . S
C1581 C1577 1.495 . S
C1581 H1587 0.959 . S
C1581 H1588 0.961 . S
C1581 H1589 0.960 1_556 S
C1582 C1580 1.381 . S
C1582 C1583 1.394 . S
C1582 H1590 0.930 . S
C1583 C1582 1.394 . S
C1583 C1584 1.383 . S
C1583 H1591 0.929 . S
C1584 C1583 1.383 . S
C1584 C1585 1.377 . S
C1585 H1569 0.930 . S
C1585 C1584 1.377 . S
C1585 C1586 1.379 . S
C1586 H1570 0.931 . S
C1586 C1580 1.383 . S
C1586 C1585 1.379 . S
H1587 C1581 0.959 . S
H1588 C1581 0.961 . S
H1589 C1581 0.960 1_554 S
H1590 C1582 0.930 . S
H1591 C1583 0.929 . S
H1592 C1600 0.929 . S
H1593 C1602 0.930 . S
H1594 C1604 0.930 . S
H1595 C1607 0.929 . S
H1596 C1610 0.930 . S
H1597 C1612 0.960 . S
H1598 C1612 0.960 . S
H1599 C1612 0.960 . S
C1600 H1592 0.929 . S
C1600 C1601 1.377 . S
C1600 C1602 1.384 . S
C1601 C1600 1.377 . S
C1601 C1607 1.390 . S
C1602 H1593 0.930 . S
C1602 C1600 1.384 . S
C1602 C1603 1.372 . S
C1603 C1602 1.372 . S
C1603 C1604 1.400 . S
C1603 C1608 1.490 . S
C1604 H1594 0.930 . S
C1604 C1603 1.400 . S
C1604 C1607 1.386 . S
H1605 C1621 0.930 . S
H1606 C1622 0.931 . S
C1607 H1595 0.929 . S
C1607 C1601 1.390 . S
C1607 C1604 1.386 . S
C1608 C1603 1.490 . S
C1608 C1610 1.395 . S
C1608 C1611 1.403 . S
H1609 C1615 0.930 . S
C1610 H1596 0.930 . S
C1610 C1608 1.395 . S
C1610 C1613 1.403 1_556 S
C1611 C1608 1.403 . S
C1611 C1612 1.524 . S
C1611 C1615 1.400 1_556 S
C1612 H1597 0.960 . S
C1612 H1598 0.960 . S
C1612 H1599 0.960 . S
C1612 C1611 1.524 . S
C1613 C1610 1.403 1_554 S
C1613 C1614 1.392 . S
C1613 C1617 1.495 . S
C1614 C1613 1.392 . S
C1614 C1615 1.385 . S
C1614 C1616 1.478 . S
C1615 H1609 0.930 . S
C1615 C1611 1.400 1_554 S
C1615 C1614 1.385 . S
C1616 C1614 1.478 . S
C1616 C1618 1.381 . S
C1616 C1622 1.383 . S
C1617 C1613 1.495 . S
C1617 H1623 0.959 . S
C1617 H1624 0.961 . S
C1617 H1625 0.960 . S
C1618 C1616 1.381 . S
C1618 C1619 1.394 . S
C1618 H1626 0.930 . S
C1619 C1618 1.394 . S
C1619 C1620 1.383 . S
C1619 H1627 0.929 . S
C1620 C1619 1.383 . S
C1620 C1621 1.377 . S
C1621 H1605 0.930 . S
C1621 C1620 1.377 . S
C1621 C1622 1.379 . S
C1622 H1606 0.931 . S
C1622 C1616 1.383 . S
C1622 C1621 1.379 . S
H1623 C1617 0.959 . S
H1624 C1617 0.961 . S
H1625 C1617 0.960 . S
H1626 C1618 0.930 . S
H1627 C1619 0.929 . S
H1628 C1636 0.929 . S
H1629 C1638 0.930 . S
H1630 C1640 0.930 . S
H1631 C1643 0.929 . S
H1632 C1646 0.930 . S
H1633 C1648 0.960 . S
H1634 C1648 0.960 . S
H1635 C1648 0.960 . S
C1636 H1628 0.929 . S
C1636 C1637 1.377 . S
C1636 C1638 1.384 . S
C1637 C1636 1.377 . S
C1637 C1643 1.390 . S
C1638 H1629 0.930 . S
C1638 C1636 1.384 . S
C1638 C1639 1.372 . S
C1639 C1638 1.372 . S
C1639 C1640 1.400 . S
C1639 C1644 1.490 . S
C1640 H1630 0.930 . S
C1640 C1639 1.400 . S
C1640 C1643 1.386 . S
H1641 C1657 0.930 . S
H1642 C1658 0.931 . S
C1643 H1631 0.929 . S
C1643 C1637 1.390 . S
C1643 C1640 1.386 . S
C1644 C1639 1.490 . S
C1644 C1646 1.395 1_556 S
C1644 C1647 1.403 . S
H1645 C1651 0.930 . S
C1646 H1632 0.930 . S
C1646 C1644 1.395 1_554 S
C1646 C1649 1.403 . S
C1647 C1644 1.403 . S
C1647 C1648 1.524 . S
C1647 C1651 1.400 1_556 S
C1648 H1633 0.960 . S
C1648 H1634 0.960 . S
C1648 H1635 0.960 . S
C1648 C1647 1.524 . S
C1649 C1646 1.403 . S
C1649 C1650 1.392 . S
C1649 C1653 1.495 . S
C1650 C1649 1.392 . S
C1650 C1651 1.385 . S
C1650 C1652 1.478 . S
C1651 H1645 0.930 . S
C1651 C1647 1.400 1_554 S
C1651 C1650 1.385 . S
C1652 C1650 1.478 . S
C1652 C1654 1.381 . S
C1652 C1658 1.383 . S
C1653 C1649 1.495 . S
C1653 H1659 0.959 . S
C1653 H1660 0.961 . S
C1653 H1661 0.960 . S
C1654 C1652 1.381 . S
C1654 C1655 1.394 . S
C1654 H1662 0.930 . S
C1655 C1654 1.394 . S
C1655 C1656 1.383 . S
C1655 H1663 0.929 . S
C1656 C1655 1.383 . S
C1656 C1657 1.377 . S
C1657 H1641 0.930 . S
C1657 C1656 1.377 . S
C1657 C1658 1.379 . S
C1658 H1642 0.931 . S
C1658 C1652 1.383 . S
C1658 C1657 1.379 . S
H1659 C1653 0.959 . S
H1660 C1653 0.961 . S
H1661 C1653 0.960 . S
H1662 C1654 0.930 . S
H1663 C1655 0.929 . S
H1664 C1672 0.929 . S
H1665 C1674 0.930 . S
H1666 C1676 0.930 . S
H1667 C1679 0.929 . S
H1668 C1682 0.930 . S
H1669 C1684 0.960 . S
H1670 C1684 0.960 . S
H1671 C1684 0.960 . S
C1672 H1664 0.929 . S
C1672 C1673 1.377 . S
C1672 C1674 1.384 . S
C1673 C1672 1.377 . S
C1673 C1679 1.390 . S
C1674 H1665 0.930 . S
C1674 C1672 1.384 . S
C1674 C1675 1.372 . S
C1675 C1674 1.372 . S
C1675 C1676 1.400 . S
C1675 C1680 1.490 . S
C1676 H1666 0.930 . S
C1676 C1675 1.400 . S
C1676 C1679 1.386 . S
H1677 C1693 0.930 . S
H1678 C1694 0.931 . S
C1679 H1667 0.929 . S
C1679 C1673 1.390 . S
C1679 C1676 1.386 . S
C1680 C1675 1.490 . S
C1680 C1682 1.395 . S
C1680 C1683 1.403 . S
H1681 C1687 0.930 . S
C1682 H1668 0.930 . S
C1682 C1680 1.395 . S
C1682 C1685 1.403 . S
C1683 C1680 1.403 . S
C1683 C1684 1.524 . S
C1683 C1687 1.400 . S
C1684 H1669 0.960 . S
C1684 H1670 0.960 . S
C1684 H1671 0.960 . S
C1684 C1683 1.524 . S
C1685 C1682 1.403 . S
C1685 C1686 1.392 . S
C1685 C1689 1.495 . S
C1686 C1685 1.392 . S
C1686 C1687 1.385 . S
C1686 C1688 1.478 . S
C1687 H1681 0.930 . S
C1687 C1683 1.400 . S
C1687 C1686 1.385 . S
C1688 C1686 1.478 . S
C1688 C1690 1.381 . S
C1688 C1694 1.383 . S
C1689 C1685 1.495 . S
C1689 H1695 0.959 . S
C1689 H1696 0.961 . S
C1689 H1697 0.960 . S
C1690 C1688 1.381 . S
C1690 C1691 1.394 . S
C1690 H1698 0.930 . S
C1691 C1690 1.394 . S
C1691 C1692 1.383 . S
C1691 H1699 0.929 . S
C1692 C1691 1.383 . S
C1692 C1693 1.377 . S
C1693 H1677 0.930 . S
C1693 C1692 1.377 . S
C1693 C1694 1.379 . S
C1694 H1678 0.931 . S
C1694 C1688 1.383 . S
C1694 C1693 1.379 . S
H1695 C1689 0.959 . S
H1696 C1689 0.961 . S
H1697 C1689 0.960 . S
H1698 C1690 0.930 . S
H1699 C1691 0.929 . S
H1700 C1708 0.929 . S
H1701 C1710 0.930 . S
H1702 C1712 0.930 . S
H1703 C1715 0.929 . S
H1704 C1718 0.930 . S
H1705 C1720 0.960 . S
H1706 C1720 0.960 . S
H1707 C1720 0.960 . S
C1708 H1700 0.929 . S
C1708 C1709 1.377 . S
C1708 C1710 1.384 . S
C1709 C1708 1.377 . S
C1709 C1715 1.390 . S
C1710 H1701 0.930 . S
C1710 C1708 1.384 . S
C1710 C1711 1.372 . S
C1711 C1710 1.372 . S
C1711 C1712 1.400 . S
C1711 C1716 1.490 . S
C1712 H1702 0.930 . S
C1712 C1711 1.400 . S
C1712 C1715 1.386 . S
H1713 C1729 0.930 . S
H1714 C1730 0.931 . S
C1715 H1703 0.929 . S
C1715 C1709 1.390 . S
C1715 C1712 1.386 . S
C1716 C1711 1.490 . S
C1716 C1718 1.395 . S
C1716 C1719 1.403 . S
H1717 C1723 0.930 . S
C1718 H1704 0.930 . S
C1718 C1716 1.395 . S
C1718 C1721 1.403 . S
C1719 C1716 1.403 . S
C1719 C1720 1.524 . S
C1719 C1723 1.400 . S
C1720 H1705 0.960 . S
C1720 H1706 0.960 . S
C1720 H1707 0.960 . S
C1720 C1719 1.524 . S
C1721 C1718 1.403 . S
C1721 C1722 1.392 . S
C1721 C1725 1.495 . S
C1722 C1721 1.392 . S
C1722 C1723 1.385 . S
C1722 C1724 1.478 . S
C1723 H1717 0.930 . S
C1723 C1719 1.400 . S
C1723 C1722 1.385 . S
C1724 C1722 1.478 . S
C1724 C1726 1.381 . S
C1724 C1730 1.383 . S
C1725 C1721 1.495 . S
C1725 H1731 0.959 . S
C1725 H1732 0.961 . S
C1725 H1733 0.960 . S
C1726 C1724 1.381 . S
C1726 C1727 1.394 . S
C1726 H1734 0.930 . S
C1727 C1726 1.394 . S
C1727 C1728 1.383 . S
C1727 H1735 0.929 . S
C1728 C1727 1.383 . S
C1728 C1729 1.377 . S
C1729 H1713 0.930 . S
C1729 C1728 1.377 . S
C1729 C1730 1.379 . S
C1730 H1714 0.931 . S
C1730 C1724 1.383 . S
C1730 C1729 1.379 . S
H1731 C1725 0.959 . S
H1732 C1725 0.961 . S
H1733 C1725 0.960 . S
H1734 C1726 0.930 . S
H1735 C1727 0.929 . S
H1736 C1744 0.929 . S
H1737 C1746 0.930 . S
H1738 C1748 0.930 . S
H1739 C1751 0.929 . S
H1740 C1754 0.930 . S
H1741 C1756 0.960 . S
H1742 C1756 0.960 . S
H1743 C1756 0.960 . S
C1744 H1736 0.929 . S
C1744 C1745 1.377 . S
C1744 C1746 1.384 . S
C1745 C1744 1.377 . S
C1745 C1751 1.390 . S
C1746 H1737 0.930 . S
C1746 C1744 1.384 . S
C1746 C1747 1.372 . S
C1747 C1746 1.372 . S
C1747 C1748 1.400 . S
C1747 C1752 1.490 . S
C1748 H1738 0.930 . S
C1748 C1747 1.400 . S
C1748 C1751 1.386 . S
H1749 C1765 0.930 . S
H1750 C1766 0.931 . S
C1751 H1739 0.929 . S
C1751 C1745 1.390 . S
C1751 C1748 1.386 . S
C1752 C1747 1.490 . S
C1752 C1754 1.395 . S
C1752 C1755 1.403 . S
H1753 C1759 0.930 . S
C1754 H1740 0.930 . S
C1754 C1752 1.395 . S
C1754 C1757 1.403 . S
C1755 C1752 1.403 . S
C1755 C1756 1.524 . S
C1755 C1759 1.400 . S
C1756 H1741 0.960 . S
C1756 H1742 0.960 . S
C1756 H1743 0.960 . S
C1756 C1755 1.524 . S
C1757 C1754 1.403 . S
C1757 C1758 1.392 . S
C1757 C1761 1.495 . S
C1758 C1757 1.392 . S
C1758 C1759 1.385 . S
C1758 C1760 1.478 . S
C1759 H1753 0.930 . S
C1759 C1755 1.400 . S
C1759 C1758 1.385 . S
C1760 C1758 1.478 . S
C1760 C1762 1.381 . S
C1760 C1766 1.383 . S
C1761 C1757 1.495 . S
C1761 H1767 0.959 . S
C1761 H1768 0.961 . S
C1761 H1769 0.960 . S
C1762 C1760 1.381 . S
C1762 C1763 1.394 . S
C1762 H1770 0.930 . S
C1763 C1762 1.394 . S
C1763 C1764 1.383 . S
C1763 H1771 0.929 . S
C1764 C1763 1.383 . S
C1764 C1765 1.377 . S
C1765 H1749 0.930 . S
C1765 C1764 1.377 . S
C1765 C1766 1.379 . S
C1766 H1750 0.931 . S
C1766 C1760 1.383 . S
C1766 C1765 1.379 . S
H1767 C1761 0.959 . S
H1768 C1761 0.961 . S
H1769 C1761 0.960 . S
H1770 C1762 0.930 . S
H1771 C1763 0.929 . S
H1772 C1780 0.929 . S
H1773 C1782 0.930 . S
H1774 C1784 0.930 . S
H1775 C1787 0.929 . S
H1776 C1790 0.930 . S
H1777 C1792 0.960 . S
H1778 C1792 0.960 . S
H1779 C1792 0.960 . S
C1780 H1772 0.929 . S
C1780 C1781 1.377 . S
C1780 C1782 1.384 . S
C1781 C1780 1.377 . S
C1781 C1787 1.390 . S
C1782 H1773 0.930 . S
C1782 C1780 1.384 . S
C1782 C1783 1.372 . S
C1783 C1782 1.372 . S
C1783 C1784 1.400 . S
C1783 C1788 1.490 . S
C1784 H1774 0.930 . S
C1784 C1783 1.400 . S
C1784 C1787 1.386 . S
H1785 C1801 0.930 . S
H1786 C1802 0.931 . S
C1787 H1775 0.929 . S
C1787 C1781 1.390 . S
C1787 C1784 1.386 . S
C1788 C1783 1.490 . S
C1788 C1790 1.395 . S
C1788 C1791 1.403 . S
H1789 C1795 0.930 . S
C1790 H1776 0.930 . S
C1790 C1788 1.395 . S
C1790 C1793 1.403 . S
C1791 C1788 1.403 . S
C1791 C1792 1.524 . S
C1791 C1795 1.400 . S
C1792 H1777 0.960 . S
C1792 H1778 0.960 . S
C1792 H1779 0.960 . S
C1792 C1791 1.524 . S
C1793 C1790 1.403 . S
C1793 C1794 1.392 . S
C1793 C1797 1.495 . S
C1794 C1793 1.392 . S
C1794 C1795 1.385 . S
C1794 C1796 1.478 . S
C1795 H1789 0.930 . S
C1795 C1791 1.400 . S
C1795 C1794 1.385 . S
C1796 C1794 1.478 . S
C1796 C1798 1.381 . S
C1796 C1802 1.383 . S
C1797 C1793 1.495 . S
C1797 H1803 0.959 . S
C1797 H1804 0.961 . S
C1797 H1805 0.960 . S
C1798 C1796 1.381 . S
C1798 C1799 1.394 . S
C1798 H1806 0.930 . S
C1799 C1798 1.394 . S
C1799 C1800 1.383 . S
C1799 H1807 0.929 . S
C1800 C1799 1.383 . S
C1800 C1801 1.377 . S
C1801 H1785 0.930 . S
C1801 C1800 1.377 . S
C1801 C1802 1.379 . S
C1802 H1786 0.931 . S
C1802 C1796 1.383 . S
C1802 C1801 1.379 . S
H1803 C1797 0.959 . S
H1804 C1797 0.961 . S
H1805 C1797 0.960 . S
H1806 C1798 0.930 . S
H1807 C1799 0.929 . S
H1808 C1816 0.929 . S
H1809 C1818 0.930 . S
H1810 C1820 0.930 . S
H1811 C1823 0.929 . S
H1812 C1826 0.928 . S
H1813 C1828 0.960 . S
H1814 C1828 0.960 . S
H1815 C1828 0.960 . S
C1816 H1808 0.929 . S
C1816 C1817 1.377 . S
C1816 C1818 1.384 . S
C1817 C1816 1.377 . S
C1817 C1823 1.390 . S
C1818 H1809 0.930 . S
C1818 C1816 1.384 . S
C1818 C1819 1.372 . S
C1819 C1818 1.372 . S
C1819 C1820 1.400 . S
C1819 C1824 1.490 . S
C1820 H1810 0.930 . S
C1820 C1819 1.400 . S
C1820 C1823 1.386 . S
H1821 C1837 0.930 . S
H1822 C1838 0.931 . S
C1823 H1811 0.929 . S
C1823 C1817 1.390 . S
C1823 C1820 1.386 . S
C1824 C1819 1.490 . S
C1824 C1826 1.390 . S
C1824 C1827 1.403 . S
H1825 C1831 0.930 . S
C1826 H1812 0.928 . S
C1826 C1824 1.390 . S
C1826 C1829 1.408 1_556 S
C1827 C1824 1.403 . S
C1827 C1828 1.524 . S
C1827 C1831 1.400 1_556 S
C1828 H1813 0.960 . S
C1828 H1814 0.960 . S
C1828 H1815 0.960 . S
C1828 C1827 1.524 . S
C1829 C1826 1.408 1_554 S
C1829 C1830 1.392 . S
C1829 C1833 1.495 . S
C1830 C1829 1.392 . S
C1830 C1831 1.385 . S
C1830 C1832 1.478 . S
C1831 H1825 0.930 . S
C1831 C1827 1.400 1_554 S
C1831 C1830 1.385 . S
C1832 C1830 1.478 . S
C1832 C1834 1.381 . S
C1832 C1838 1.383 . S
C1833 C1829 1.495 . S
C1833 H1839 0.959 . S
C1833 H1840 0.961 . S
C1833 H1841 0.960 . S
C1834 C1832 1.381 . S
C1834 C1835 1.394 . S
C1834 H1842 0.930 . S
C1835 C1834 1.394 . S
C1835 C1836 1.383 . S
C1835 H1843 0.929 . S
C1836 C1835 1.383 . S
C1836 C1837 1.377 . S
C1837 H1821 0.930 . S
C1837 C1836 1.377 . S
C1837 C1838 1.379 . S
C1838 H1822 0.931 . S
C1838 C1832 1.383 . S
C1838 C1837 1.379 . S
H1839 C1833 0.959 . S
H1840 C1833 0.961 . S
H1841 C1833 0.960 . S
H1842 C1834 0.930 . S
H1843 C1835 0.929 . S
H1844 C1852 0.929 . S
H1845 C1854 0.930 . S
H1846 C1856 0.930 . S
H1847 C1859 0.929 . S
H1848 C1862 0.930 . S
H1849 C1864 0.960 . S
H1850 C1864 0.960 . S
H1851 C1864 0.973 . S
C1852 H1844 0.929 . S
C1852 C1853 1.377 . S
C1852 C1854 1.384 . S
C1853 C1852 1.377 . S
C1853 C1859 1.390 . S
C1854 H1845 0.930 . S
C1854 C1852 1.384 . S
C1854 C1855 1.372 . S
C1855 C1854 1.372 . S
C1855 C1856 1.400 . S
C1855 C1860 1.490 . S
C1856 H1846 0.930 . S
C1856 C1855 1.400 . S
C1856 C1859 1.386 . S
H1857 C1873 0.930 . S
H1858 C1874 0.931 . S
C1859 H1847 0.929 . S
C1859 C1853 1.390 . S
C1859 C1856 1.386 . S
C1860 C1855 1.490 . S
C1860 C1862 1.395 . S
C1860 C1863 1.403 1_554 S
H1861 C1867 0.930 . S
C1862 H1848 0.930 . S
C1862 C1860 1.395 . S
C1862 C1865 1.403 . S
C1863 C1860 1.403 1_556 S
C1863 C1864 1.524 . S
C1863 C1867 1.400 . S
C1864 H1849 0.960 . S
C1864 H1850 0.960 . S
C1864 H1851 0.973 . S
C1864 C1863 1.524 . S
C1865 C1862 1.403 . S
C1865 C1866 1.392 1_554 S
C1865 C1869 1.495 . S
C1866 C1865 1.392 1_556 S
C1866 C1867 1.385 . S
C1866 C1868 1.478 . S
C1867 H1861 0.930 . S
C1867 C1863 1.400 . S
C1867 C1866 1.385 . S
C1868 C1866 1.478 . S
C1868 C1870 1.381 . S
C1868 C1874 1.383 . S
C1869 C1865 1.495 . S
C1869 H1875 0.959 . S
C1869 H1876 0.961 . S
C1869 H1877 0.960 . S
C1870 C1868 1.381 . S
C1870 C1871 1.394 . S
C1870 H1878 0.930 . S
C1871 C1870 1.394 . S
C1871 C1872 1.383 . S
C1871 H1879 0.929 . S
C1872 C1871 1.383 . S
C1872 C1873 1.377 . S
C1873 H1857 0.930 . S
C1873 C1872 1.377 . S
C1873 C1874 1.379 . S
C1874 H1858 0.931 . S
C1874 C1868 1.383 . S
C1874 C1873 1.379 . S
H1875 C1869 0.959 . S
H1876 C1869 0.961 . S
H1877 C1869 0.960 . S
H1878 C1870 0.930 . S
H1879 C1871 0.929 . S
H1880 C1888 0.929 . S
H1881 C1890 0.930 . S
H1882 C1892 0.930 . S
H1883 C1895 0.929 . S
H1884 C1898 0.930 . S
H1885 C1900 0.960 . S
H1886 C1900 0.960 . S
H1887 C1900 0.960 1_554 S
C1888 H1880 0.929 . S
C1888 C1889 1.377 . S
C1888 C1890 1.384 . S
C1889 C1888 1.377 . S
C1889 C1895 1.390 . S
C1890 H1881 0.930 . S
C1890 C1888 1.384 . S
C1890 C1891 1.372 . S
C1891 C1890 1.372 . S
C1891 C1892 1.400 . S
C1891 C1896 1.490 . S
C1892 H1882 0.930 . S
C1892 C1891 1.400 . S
C1892 C1895 1.386 . S
H1893 C1909 0.930 . S
H1894 C1910 0.931 . S
C1895 H1883 0.929 . S
C1895 C1889 1.390 . S
C1895 C1892 1.386 . S
C1896 C1891 1.490 . S
C1896 C1898 1.395 . S
C1896 C1899 1.392 1_554 S
H1897 C1903 0.930 . S
C1898 H1884 0.930 . S
C1898 C1896 1.395 . S
C1898 C1901 1.403 . S
C1899 C1896 1.392 1_556 S
C1899 C1900 1.525 . S
C1899 C1903 1.410 . S
C1900 H1885 0.960 . S
C1900 H1886 0.960 . S
C1900 H1887 0.960 1_556 S
C1900 C1899 1.525 . S
C1901 C1898 1.403 . S
C1901 C1902 1.392 1_554 S
C1901 C1905 1.495 . S
C1902 C1901 1.392 1_556 S
C1902 C1903 1.385 . S
C1902 C1904 1.478 . S
C1903 H1897 0.930 . S
C1903 C1899 1.410 . S
C1903 C1902 1.385 . S
C1904 C1902 1.478 . S
C1904 C1906 1.381 . S
C1904 C1910 1.383 . S
C1905 C1901 1.495 . S
C1905 H1911 0.959 . S
C1905 H1912 0.961 . S
C1905 H1913 0.960 1_554 S
C1906 C1904 1.381 . S
C1906 C1907 1.394 . S
C1906 H1914 0.930 . S
C1907 C1906 1.394 . S
C1907 C1908 1.383 . S
C1907 H1915 0.929 . S
C1908 C1907 1.383 . S
C1908 C1909 1.377 . S
C1909 H1893 0.930 . S
C1909 C1908 1.377 . S
C1909 C1910 1.379 . S
C1910 H1894 0.931 . S
C1910 C1904 1.383 . S
C1910 C1909 1.379 . S
H1911 C1905 0.959 . S
H1912 C1905 0.961 . S
H1913 C1905 0.960 1_556 S
H1914 C1906 0.930 . S
H1915 C1907 0.929 . S
H1916 C1924 0.929 . S
H1917 C1926 0.930 . S
H1918 C1928 0.930 . S
H1919 C1931 0.929 . S
H1920 C1934 0.930 . S
H1921 C1936 0.960 . S
H1922 C1936 0.960 . S
H1923 C1936 0.960 1_554 S
C1924 H1916 0.929 . S
C1924 C1925 1.377 . S
C1924 C1926 1.384 . S
C1925 C1924 1.377 . S
C1925 C1931 1.390 . S
C1926 H1917 0.930 . S
C1926 C1924 1.384 . S
C1926 C1927 1.372 . S
C1927 C1926 1.372 . S
C1927 C1928 1.400 . S
C1927 C1932 1.490 . S
C1928 H1918 0.930 . S
C1928 C1927 1.400 . S
C1928 C1931 1.386 . S
H1929 C1945 0.930 . S
H1930 C1946 0.931 . S
C1931 H1919 0.929 . S
C1931 C1925 1.390 . S
C1931 C1928 1.386 . S
C1932 C1927 1.490 . S
C1932 C1934 1.395 . S
C1932 C1935 1.403 1_554 S
H1933 C1939 0.930 . S
C1934 H1920 0.930 . S
C1934 C1932 1.395 . S
C1934 C1937 1.403 . S
C1935 C1932 1.403 1_556 S
C1935 C1936 1.524 . S
C1935 C1939 1.400 . S
C1936 H1921 0.960 . S
C1936 H1922 0.960 . S
C1936 H1923 0.960 1_556 S
C1936 C1935 1.524 . S
C1937 C1934 1.403 . S
C1937 C1938 1.392 1_554 S
C1937 C1941 1.495 . S
C1938 C1937 1.392 1_556 S
C1938 C1939 1.385 . S
C1938 C1940 1.478 . S
C1939 H1933 0.930 . S
C1939 C1935 1.400 . S
C1939 C1938 1.385 . S
C1940 C1938 1.478 . S
C1940 C1942 1.381 . S
C1940 C1946 1.383 . S
C1941 C1937 1.495 . S
C1941 H1947 0.959 . S
C1941 H1948 0.961 . S
C1941 H1949 0.930 1_554 S
C1942 C1940 1.381 . S
C1942 C1943 1.394 . S
C1942 H1950 0.930 . S
C1943 C1942 1.394 . S
C1943 C1944 1.383 . S
C1943 H1951 0.929 . S
C1944 C1943 1.383 . S
C1944 C1945 1.377 . S
C1945 H1929 0.930 . S
C1945 C1944 1.377 . S
C1945 C1946 1.379 . S
C1946 H1930 0.931 . S
C1946 C1940 1.383 . S
C1946 C1945 1.379 . S
H1947 C1941 0.959 . S
H1948 C1941 0.961 . S
H1949 C1941 0.930 1_556 S
H1950 C1942 0.930 . S
H1951 C1943 0.929 . S
H1952 C1960 0.929 . S
H1953 C1962 0.930 . S
H1954 C1964 0.930 . S
H1955 C1967 0.929 . S
H1956 C1970 0.930 . S
H1957 C1972 0.960 . S
H1958 C1972 0.960 . S
H1959 C1972 0.960 . S
C1960 H1952 0.929 . S
C1960 C1961 1.377 . S
C1960 C1962 1.384 . S
C1961 C1960 1.377 . S
C1961 C1967 1.390 . S
C1962 H1953 0.930 . S
C1962 C1960 1.384 . S
C1962 C1963 1.372 . S
C1963 C1962 1.372 . S
C1963 C1964 1.400 . S
C1963 C1968 1.490 . S
C1964 H1954 0.930 . S
C1964 C1963 1.400 . S
C1964 C1967 1.386 . S
H1965 C1981 0.930 . S
H1966 C1982 0.931 . S
C1967 H1955 0.929 . S
C1967 C1961 1.390 . S
C1967 C1964 1.386 . S
C1968 C1963 1.490 . S
C1968 C1970 1.395 . S
C1968 C1971 1.403 1_545 S
H1969 C1975 0.930 . S
C1970 H1956 0.930 . S
C1970 C1968 1.395 . S
C1970 C1973 1.403 . S
C1971 C1968 1.403 1_565 S
C1971 C1972 1.524 . S
C1971 C1975 1.400 . S
C1972 H1957 0.960 . S
C1972 H1958 0.960 . S
C1972 H1959 0.960 . S
C1972 C1971 1.524 . S
C1973 C1970 1.403 . S
C1973 C1974 1.392 1_545 S
C1973 C1977 1.495 . S
C1974 C1973 1.392 1_565 S
C1974 C1975 1.385 . S
C1974 C1976 1.478 . S
C1975 H1969 0.930 . S
C1975 C1971 1.400 . S
C1975 C1974 1.385 . S
C1976 C1974 1.478 . S
C1976 C1978 1.381 . S
C1976 C1982 1.383 . S
C1977 C1973 1.495 . S
C1977 H1983 0.959 . S
C1977 H1984 0.961 . S
C1977 H1985 0.960 . S
C1978 C1976 1.381 . S
C1978 C1979 1.394 . S
C1978 H1986 0.930 . S
C1979 C1978 1.394 . S
C1979 C1980 1.383 . S
C1979 H1987 0.929 . S
C1980 C1979 1.383 . S
C1980 C1981 1.377 . S
C1981 H1965 0.930 . S
C1981 C1980 1.377 . S
C1981 C1982 1.379 . S
C1982 H1966 0.931 . S
C1982 C1976 1.383 . S
C1982 C1981 1.379 . S
H1983 C1977 0.959 . S
H1984 C1977 0.961 . S
H1985 C1977 0.960 . S
H1986 C1978 0.930 . S
H1987 C1979 0.929 . S
H1988 C1996 0.929 . S
H1989 C1998 0.930 . S
H1990 C2000 0.930 . S
H1991 C2003 0.929 . S
H1992 C2006 0.930 . S
H1993 C2008 0.960 . S
H1994 C2008 0.960 . S
H1995 C2008 0.960 . S
C1996 H1988 0.929 . S
C1996 C1997 1.377 . S
C1996 C1998 1.384 . S
C1997 C1996 1.377 . S
C1997 C2003 1.390 . S
C1998 H1989 0.930 . S
C1998 C1996 1.384 . S
C1998 C1999 1.372 . S
C1999 C1998 1.372 . S
C1999 C2000 1.400 . S
C1999 C2004 1.490 . S
C2000 H1990 0.930 . S
C2000 C1999 1.400 . S
C2000 C2003 1.386 . S
H2001 C2017 0.930 . S
H2002 C2018 0.931 . S
C2003 H1991 0.929 . S
C2003 C1997 1.390 . S
C2003 C2000 1.386 . S
C2004 C1999 1.490 . S
C2004 C2006 1.395 1_655 S
C2004 C2007 1.403 . S
H2005 C2011 0.930 . S
C2006 H1992 0.930 . S
C2006 C2004 1.395 1_455 S
C2006 C2009 1.403 . S
C2007 C2004 1.403 . S
C2007 C2008 1.524 . S
C2007 C2011 1.400 . S
C2008 H1993 0.960 . S
C2008 H1994 0.960 . S
C2008 H1995 0.960 . S
C2008 C2007 1.524 . S
C2009 C2006 1.403 . S
C2009 C2010 1.392 . S
C2009 C2013 1.495 . S
C2010 C2009 1.392 . S
C2010 C2011 1.385 1_455 S
C2010 C2012 1.478 . S
C2011 H2005 0.930 . S
C2011 C2007 1.400 . S
C2011 C2010 1.385 1_655 S
C2012 C2010 1.478 . S
C2012 C2014 1.381 . S
C2012 C2018 1.383 . S
C2013 C2009 1.495 . S
C2013 H2019 0.959 . S
C2013 H2020 0.961 . S
C2013 H2021 0.960 . S
C2014 C2012 1.381 . S
C2014 C2015 1.394 . S
C2014 H2022 0.930 . S
C2015 C2014 1.394 . S
C2015 C2016 1.383 . S
C2015 H2023 0.929 . S
C2016 C2015 1.383 . S
C2016 C2017 1.377 . S
C2017 H2001 0.930 . S
C2017 C2016 1.377 . S
C2017 C2018 1.379 . S
C2018 H2002 0.931 . S
C2018 C2012 1.383 . S
C2018 C2017 1.379 . S
H2019 C2013 0.959 . S
H2020 C2013 0.961 . S
H2021 C2013 0.960 . S
H2022 C2014 0.930 . S
H2023 C2015 0.929 . S
H2024 C2032 0.929 . S
H2025 C2034 0.930 . S
H2026 C2036 0.930 . S
H2027 C2039 0.929 . S
H2028 C2042 0.930 . S
H2029 C2044 0.960 . S
H2030 C2044 0.960 . S
H2031 C2044 0.960 . S
C2032 H2024 0.929 . S
C2032 C2033 1.377 . S
C2032 C2034 1.384 . S
C2033 C2032 1.377 . S
C2033 C2039 1.390 . S
C2034 H2025 0.930 . S
C2034 C2032 1.384 . S
C2034 C2035 1.372 . S
C2035 C2034 1.372 . S
C2035 C2036 1.400 . S
C2035 C2040 1.490 . S
C2036 H2026 0.930 . S
C2036 C2035 1.400 . S
C2036 C2039 1.386 . S
H2037 C2053 0.930 . S
H2038 C2054 0.931 . S
C2039 H2027 0.929 . S
C2039 C2033 1.390 . S
C2039 C2036 1.386 . S
C2040 C2035 1.490 . S
C2040 C2042 1.395 . S
C2040 C2043 1.403 1_565 S
H2041 C2047 0.930 . S
C2042 H2028 0.930 . S
C2042 C2040 1.395 . S
C2042 C2045 1.403 . S
C2043 C2040 1.403 1_545 S
C2043 C2044 1.524 . S
C2043 C2047 1.400 . S
C2044 H2029 0.960 . S
C2044 H2030 0.960 . S
C2044 H2031 0.960 . S
C2044 C2043 1.524 . S
C2045 C2042 1.403 . S
C2045 C2046 1.392 1_565 S
C2045 C2049 1.495 . S
C2046 C2045 1.392 1_545 S
C2046 C2047 1.385 . S
C2046 C2048 1.478 . S
C2047 H2041 0.930 . S
C2047 C2043 1.400 . S
C2047 C2046 1.385 . S
C2048 C2046 1.478 . S
C2048 C2050 1.381 . S
C2048 C2054 1.383 . S
C2049 C2045 1.495 . S
C2049 H2055 0.959 . S
C2049 H2056 0.961 . S
C2049 H2057 0.960 . S
C2050 C2048 1.381 . S
C2050 C2051 1.394 . S
C2050 H2058 0.930 . S
C2051 C2050 1.394 . S
C2051 C2052 1.383 . S
C2051 H2059 0.929 . S
C2052 C2051 1.383 . S
C2052 C2053 1.377 . S
C2053 H2037 0.930 . S
C2053 C2052 1.377 . S
C2053 C2054 1.379 . S
C2054 H2038 0.931 . S
C2054 C2048 1.383 . S
C2054 C2053 1.379 . S
H2055 C2049 0.959 . S
H2056 C2049 0.961 . S
H2057 C2049 0.960 . S
H2058 C2050 0.930 . S
H2059 C2051 0.929 . S
H2060 C2068 0.929 . S
H2061 C2070 0.930 . S
H2062 C2072 0.930 . S
H2063 C2075 0.929 . S
H2064 C2078 0.930 . S
H2065 C2080 0.960 . S
H2066 C2080 0.960 . S
H2067 C2080 0.960 . S
C2068 H2060 0.929 . S
C2068 C2069 1.377 . S
C2068 C2070 1.384 . S
C2069 C2068 1.377 . S
C2069 C2075 1.390 . S
C2070 H2061 0.930 . S
C2070 C2068 1.384 . S
C2070 C2071 1.372 . S
C2071 C2070 1.372 . S
C2071 C2072 1.400 . S
C2071 C2076 1.490 . S
C2072 H2062 0.930 . S
C2072 C2071 1.400 . S
C2072 C2075 1.386 . S
H2073 C2089 0.930 . S
H2074 C2090 0.931 . S
C2075 H2063 0.929 . S
C2075 C2069 1.390 . S
C2075 C2072 1.386 . S
C2076 C2071 1.490 . S
C2076 C2078 1.395 . S
C2076 C2079 1.403 . S
H2077 C2083 0.930 . S
C2078 H2064 0.930 . S
C2078 C2076 1.395 . S
C2078 C2081 1.403 1_655 S
C2079 C2076 1.403 . S
C2079 C2080 1.524 . S
C2079 C2083 1.400 1_655 S
C2080 H2065 0.960 . S
C2080 H2066 0.960 . S
C2080 H2067 0.960 . S
C2080 C2079 1.524 . S
C2081 C2078 1.403 1_455 S
C2081 C2082 1.392 . S
C2081 C2085 1.495 . S
C2082 C2081 1.392 . S
C2082 C2083 1.385 . S
C2082 C2084 1.478 . S
C2083 H2077 0.930 . S
C2083 C2079 1.400 1_455 S
C2083 C2082 1.385 . S
C2084 C2082 1.478 . S
C2084 C2086 1.381 . S
C2084 C2090 1.383 . S
C2085 C2081 1.495 . S
C2085 H2091 0.959 . S
C2085 H2092 0.961 . S
C2085 H2093 0.960 . S
C2086 C2084 1.381 . S
C2086 C2087 1.394 . S
C2086 H2094 0.930 . S
C2087 C2086 1.394 . S
C2087 C2088 1.383 . S
C2087 H2095 0.929 . S
C2088 C2087 1.383 . S
C2088 C2089 1.377 . S
C2089 H2073 0.930 . S
C2089 C2088 1.377 . S
C2089 C2090 1.379 . S
C2090 H2074 0.931 . S
C2090 C2084 1.383 . S
C2090 C2089 1.379 . S
H2091 C2085 0.959 . S
H2092 C2085 0.961 . S
H2093 C2085 0.960 . S
H2094 C2086 0.930 . S
H2095 C2087 0.929 . S
C377 C16 1.032 . S
C396 C361 1.017 . S
C413 C292 1.039 . S
C432 C39 1.049 . S
C449 C62 1.039 . S
C468 C315 1.049 . S
C485 C338 1.037 . S
C504 C85 1.037 . S
C521 C108 1.036 . S
C540 C223 1.034 . S
C557 C246 1.036 . S
C576 C131 1.048 . S
C593 C154 1.030 . S
C612 C269 1.017 . S
C629 C200 1.036 . S
C648 C177 1.044 . S
C665 C67 1.567 . S
C684 C21 1.548 . S
C701 C90 1.578 . S
C720 C44 1.595 . S
C737 C159 1.578 . S
C756 C113 1.595 . S
C773 C182 1.578 . S
C792 C136 1.595 . S
C809 C205 1.578 . S
C828 C251 1.592 . S
C845 C228 1.569 . S
C864 C274 1.565 . S
C881 C343 1.578 . S
C900 C297 1.593 . S
C917 C366 1.566 . S
C936 C320 1.544 . S
C953 C18 0.819 . S
C972 C43 0.821 . S
C989 C66 0.819 . S
C1008 C41 0.849 . S
C1025 C64 0.822 . S
C1044 C89 0.814 . S
C1061 C20 0.824 . S
C1080 C87 0.798 . S
C1097 C110 0.813 . S
C1116 C181 0.835 . S
C1133 C112 0.819 . S
C1152 C133 0.849 . S
C1169 C156 0.818 . S
C1188 C135 0.824 . S
C1205 C158 0.821 . S
C1224 C179 0.823 . S
C1241 C202 0.822 . S
C1260 C227 0.814 . S
C1277 C250 0.820 . S
C1296 C225 0.836 . S
C1313 C273 0.822 . S
C1332 C248 0.816 . S
C1349 C271 0.820 . S
C1368 C204 0.818 . S
C1385 C294 0.823 . S
C1404 C365 0.811 . S
C1421 C296 0.823 . S
C1440 C317 0.803 . S
C1457 C340 0.816 . S
C1476 C319 0.828 . S
C1493 C342 0.824 . S
C1512 C363 0.793 . S
C1529 C19 1.629 . S
C1548 C134 1.658 . S
C1565 C157 1.633 . S
C1584 C42 1.639 . S
C1601 C180 1.630 . S
C1620 C65 1.657 . S
C1637 C111 1.639 . S
C1656 C88 1.613 . S
C1673 C318 1.640 . S
C1692 C203 1.604 . S
C1709 C226 1.631 . S
C1728 C341 1.646 . S
C1745 C364 1.640 . S
C1764 C249 1.603 . S
C1781 C272 1.630 . S
C1800 C295 1.657 . S
C1817 C109 0.334 . S
C1836 C17 0.321 . S
C1853 C40 0.343 . S
C1872 C132 0.391 . S
C1889 C63 0.348 . S
C1908 C155 0.372 . S
C1925 C86 0.345 . S
C1944 C178 0.385 . S
C1961 C293 0.344 . S
C1980 C201 0.292 . S
C1997 C316 0.338 . S
C2016 C224 0.398 . S
C2033 C339 0.335 . S
C2052 C247 0.316 . S
C2069 C270 0.351 . S
C2088 C362 0.351 . S
