# Generated by pormake.
# Topology umf, (4)-cn, num edge types: 1
# Building blocks:
#     Node 0, Type 0, BuildingBlock: QUQFOY_clean_sbu_1, # of connection points: 4
#     Node 1, Type 0, BuildingBlock: QUQFOY_clean_sbu_1, # of connection points: 4
#     Node 2, Type 0, BuildingBlock: QUQFOY_clean_sbu_1, # of connection points: 4
#     Node 3, Type 0, BuildingBlock: QUQFOY_clean_sbu_1, # of connection points: 4
#     Node 4, Type 0, BuildingBlock: QUQFOY_clean_sbu_1, # of connection points: 4
#     Node 5, Type 0, BuildingBlock: QUQFOY_clean_sbu_1, # of connection points: 4
#     Node 6, Type 0, BuildingBlock: QUQFOY_clean_sbu_1, # of connection points: 4
#     Node 7, Type 0, BuildingBlock: QUQFOY_clean_sbu_1, # of connection points: 4
#     Edge 8, Type (0, 0), BuildingBlock: XUDNAN_clean_linker_2, # of connection points: 2
#     Edge 9, Type (0, 0), BuildingBlock: XUDNAN_clean_linker_2, # of connection points: 2
#     Edge 10, Type (0, 0), BuildingBlock: XUDNAN_clean_linker_2, # of connection points: 2
#     Edge 11, Type (0, 0), BuildingBlock: XUDNAN_clean_linker_2, # of connection points: 2
#     Edge 12, Type (0, 0), BuildingBlock: XUDNAN_clean_linker_2, # of connection points: 2
#     Edge 13, Type (0, 0), BuildingBlock: XUDNAN_clean_linker_2, # of connection points: 2
#     Edge 14, Type (0, 0), BuildingBlock: XUDNAN_clean_linker_2, # of connection points: 2
#     Edge 15, Type (0, 0), BuildingBlock: XUDNAN_clean_linker_2, # of connection points: 2
#     Edge 16, Type (0, 0), BuildingBlock: XUDNAN_clean_linker_2, # of connection points: 2
#     Edge 17, Type (0, 0), BuildingBlock: XUDNAN_clean_linker_2, # of connection points: 2
#     Edge 18, Type (0, 0), BuildingBlock: XUDNAN_clean_linker_2, # of connection points: 2
#     Edge 19, Type (0, 0), BuildingBlock: XUDNAN_clean_linker_2, # of connection points: 2
#     Edge 20, Type (0, 0), BuildingBlock: XUDNAN_clean_linker_2, # of connection points: 2
#     Edge 21, Type (0, 0), BuildingBlock: XUDNAN_clean_linker_2, # of connection points: 2
#     Edge 22, Type (0, 0), BuildingBlock: XUDNAN_clean_linker_2, # of connection points: 2
#     Edge 23, Type (0, 0), BuildingBlock: XUDNAN_clean_linker_2, # of connection points: 2
# Relax obj value: 0.061
# Max RMSD: 0.221
# Mean RMSD: 0.221
data_MOF--net-umf--node1-QUQFOY_clean_sbu_1--edge1-XUDNAN_clean_linker_2
_symmetry_space_group_name_H-M    P1
_symmetry_Int_Tables_number       1
_symmetry_cell_setting            triclinic
loop_
_symmetry_equiv_pos_as_xyz
'x, y, z'
_cell_length_a     29.300287
_cell_length_b     29.166978
_cell_length_c     52.309678
_cell_angle_alpha  89.896901
_cell_angle_beta   89.598111
_cell_angle_gamma 89.64237
loop_
_atom_site_label
_atom_site_type_symbol
_atom_site_fract_x
_atom_site_fract_y
_atom_site_fract_z
_atom_type_partial_charge
O0 O 0.0286 0.25949 0.13907 0.0
Cd1 Cd 0.03035 0.26201 0.17841 0.0
Cd2 Cd 0.11361 0.2331 0.17112 0.0
O3 O 0.10351 0.26254 0.13502 0.0
O4 O 0.98561 0.3096 0.19132 0.0
O5 O 0.0604 0.31904 0.19128 0.0
C6 C 0.02024 0.33571 0.19554 0.0
C7 C 0.16592 0.24814 0.20357 0.0
C8 C 0.06386 0.26453 0.12504 0.0
C9 C 0.05001 0.16453 0.19101 0.0
O10 O 0.0845 0.17026 0.17656 0.0
O11 O 0.02573 0.19905 0.19765 0.0
O12 O 0.17873 0.22731 0.18289 0.0
O13 O 0.12491 0.26438 0.20446 0.0
O14 O 0.82275 0.05866 0.68303 0.0
Cd15 Cd 0.76228 0.09351 0.68009 0.0
Cd16 Cd 0.73083 0.00939 0.6871 0.0
O17 O 0.79393 1.00117 0.70527 0.0
O18 O 0.77369 0.15906 0.69107 0.0
O19 O 0.73571 0.10895 0.71447 0.0
C20 C 0.75377 0.14891 0.71246 0.0
C21 C 0.65856 0.0106 0.70654 0.0
C22 C 0.8283 0.02372 0.69721 0.0
C23 C 0.72645 0.04652 0.63426 0.0
O24 O 0.73143 0.01027 0.64757 0.0
O25 O 0.72963 0.08583 0.64487 0.0
O26 O 0.67789 0.97194 0.70079 0.0
O27 O 0.68097 0.04756 0.70201 0.0
O28 O 1.0002 0.74695 0.14189 0.0
Cd29 Cd 0.01216 0.74391 0.18046 0.0
Cd30 Cd 0.91957 0.76933 0.18223 0.0
O31 O 0.92455 0.74973 0.14334 0.0
O32 O 0.0514 0.68857 0.18952 0.0
O33 O 0.97766 0.69475 0.1979 0.0
C34 C 0.01427 0.67016 0.19815 0.0
C35 C 0.86503 0.7517 0.21412 0.0
C36 C 0.96192 0.74636 0.13055 0.0
C37 C 0.99216 0.83742 0.19939 0.0
O38 O 0.95177 0.82892 0.1922 0.0
O39 O 0.02324 0.80668 0.19835 0.0
O40 O 0.8555 0.78049 0.1961 0.0
O41 O 0.90284 0.72925 0.21219 0.0
O42 O 0.1657 0.94636 0.67936 0.0
Cd43 Cd 0.22763 0.91551 0.67494 0.0
Cd44 Cd 0.25672 0.99451 0.69224 0.0
O45 O 0.19139 0.99245 0.7094 0.0
O46 O 0.22434 0.84909 0.68651 0.0
O47 O 0.25409 0.90491 0.70936 0.0
C48 C 0.24123 0.86289 0.70797 0.0
C49 C 0.32814 0.00378 0.71171 0.0
C50 C 0.15815 0.97402 0.69764 0.0
C51 C 0.265 0.97781 0.63598 0.0
O52 O 0.25884 0.00738 0.65356 0.0
O53 O 0.26144 0.93513 0.64117 0.0
O54 O 0.30021 0.03803 0.70954 0.0
O55 O 0.31434 0.9642 0.70432 0.0
O56 O 0.99698 0.73355 0.92663 0.0
Cd57 Cd 0.00513 0.73198 0.8873 0.0
Cd58 Cd 0.08377 0.77737 0.90243 0.0
O59 O 0.06592 0.75397 0.93918 0.0
O60 O 0.9698 0.67771 0.87341 0.0
O61 O 0.04488 0.68188 0.87346 0.0
C62 C 0.00885 0.65869 0.86855 0.0
C63 C 0.14465 0.7627 0.87441 0.0
C64 C 0.02536 0.74082 0.94451 0.0
C65 C 0.01361 0.83093 0.87344 0.0
O66 O 0.04627 0.83156 0.88923 0.0
O67 O 0.99401 0.79353 0.86752 0.0
O68 O 0.14919 0.79231 0.8926 0.0
O69 O 0.1082 0.73835 0.87438 0.0
O70 O 0.16331 0.07373 0.4 0.0
Cd71 Cd 0.22634 0.10219 0.4053 0.0
Cd72 Cd 0.25213 0.01472 0.40001 0.0
O73 O 0.18866 0.01029 0.38182 0.0
O74 O 0.2225 0.16655 0.39087 0.0
O75 O 0.26266 0.11041 0.37321 0.0
C76 C 0.24718 0.15178 0.37198 0.0
C77 C 0.32405 0.99811 0.38198 0.0
C78 C 0.15572 0.03734 0.38748 0.0
C79 C 0.257 0.05447 0.45255 0.0
O80 O 0.25173 0.01809 0.43951 0.0
O81 O 0.25444 0.09368 0.44168 0.0
O82 O 0.2968 0.96551 0.38872 0.0
O83 O 0.30942 0.03963 0.38426 0.0
O84 O 0.00342 0.2568 0.92481 0.0
Cd85 Cd 0.99076 0.25516 0.88609 0.0
Cd86 Cd 0.9095 0.22566 0.90569 0.0
O87 O 0.93287 0.25384 0.94 0.0
O88 O 0.03611 0.298 0.86909 0.0
O89 O 0.96261 0.31326 0.87286 0.0
C90 C 0.00265 0.32651 0.86606 0.0
C91 C 0.8536 0.24749 0.87647 0.0
C92 C 0.97556 0.25964 0.94355 0.0
C93 C 0.96597 0.15688 0.87812 0.0
O94 O 0.93726 0.16374 0.89603 0.0
O95 O 0.98809 0.19047 0.86854 0.0
O96 O 0.84248 0.22323 0.89628 0.0
O97 O 0.89467 0.26262 0.87507 0.0
O98 O 0.82885 0.95374 0.40257 0.0
Cd99 Cd 0.77281 0.91511 0.41047 0.0
Cd100 Cd 0.72905 0.99019 0.39351 0.0
O101 O 0.79264 0.99819 0.37487 0.0
O102 O 0.78722 0.84899 0.40122 0.0
O103 O 0.7449 0.89538 0.3777 0.0
C104 C 0.76583 0.85668 0.38004 0.0
C105 C 0.65581 0.98541 0.37539 0.0
C106 C 0.82968 0.98296 0.38457 0.0
C107 C 0.72904 0.97252 0.45029 0.0
O108 O 0.72756 1.00196 0.43231 0.0
O109 O 0.74029 0.93103 0.44535 0.0
O110 O 0.67545 0.02469 0.37796 0.0
O111 O 0.67873 0.94939 0.38167 0.0
H112 H 0.08145 0.40552 0.1897 0.0
H113 H 0.94475 0.37615 0.21727 0.0
H114 H 0.93249 0.45863 0.22608 0.0
H115 H 0.10647 0.50199 0.23352 0.0
H116 H 0.13593 0.53382 0.20894 0.0
H117 H 0.13639 0.47202 0.20831 0.0
H118 H 0.10397 0.47351 0.16236 0.0
H119 H 0.10341 0.53517 0.16285 0.0
H120 H 0.05169 0.50439 0.15618 0.0
H121 H 0.93269 0.5444 0.22841 0.0
H122 H 0.94299 0.62728 0.22168 0.0
H123 H 0.07885 0.60185 0.19104 0.0
C124 C 0.04936 0.41629 0.19823 0.0
C125 C 0.01422 0.38432 0.20315 0.0
C126 C 0.97222 0.39997 0.21355 0.0
C127 C 0.96505 0.44673 0.2187 0.0
C128 C 1.00012 0.47746 0.21321 0.0
C129 C 0.04142 0.46292 0.20311 0.0
C130 C 0.07174 0.50333 0.19652 0.0
C131 C 0.11521 0.50274 0.2128 0.0
C132 C 0.08336 0.50414 0.16778 0.0
C133 C 0.04065 0.54298 0.2039 0.0
C134 C 0.99982 0.52721 0.2139 0.0
C135 C 0.96468 0.55712 0.22085 0.0
C136 C 0.97091 0.60424 0.21693 0.0
C137 C 0.01184 0.62122 0.20592 0.0
C138 C 0.0475 0.59009 0.19986 0.0
H139 H 0.39772 0.94135 0.70826 0.0
H140 H 0.36747 0.08082 0.73193 0.0
H141 H 0.44968 0.09376 0.73928 0.0
H142 H 0.4969 0.92055 0.75155 0.0
H143 H 0.52724 0.88861 0.72727 0.0
H144 H 0.46573 0.88783 0.72834 0.0
H145 H 0.46323 0.91539 0.68125 0.0
H146 H 0.52452 0.91647 0.68006 0.0
H147 H 0.49226 0.9674 0.67233 0.0
H148 H 0.53516 0.0947 0.73841 0.0
H149 H 0.61702 0.08452 0.72868 0.0
H150 H 0.592 0.94456 0.70484 0.0
C151 C 0.40815 0.9742 0.71577 0.0
C152 C 0.37607 0.00997 0.7198 0.0
C153 C 0.39135 0.05282 0.72894 0.0
C154 C 0.43798 0.06041 0.73322 0.0
C155 C 0.46884 0.02478 0.72832 0.0
C156 C 0.45451 0.98242 0.7199 0.0
C157 C 0.49472 0.95152 0.71333 0.0
C158 C 0.49623 0.90965 0.73119 0.0
C159 C 0.4936 0.93687 0.68507 0.0
C160 C 0.534 0.98363 0.71848 0.0
C161 C 0.51834 0.02546 0.72752 0.0
C162 C 0.54784 0.06187 0.73177 0.0
C163 C 0.59431 0.05575 0.7261 0.0
C164 C 0.61096 0.01362 0.71616 0.0
C165 C 0.58046 0.97681 0.71291 0.0
H166 H 0.94034 0.39647 0.86659 0.0
H167 H 0.08192 0.36574 0.8483 0.0
H168 H 0.09587 0.44828 0.84085 0.0
H169 H 0.92561 0.49562 0.82191 0.0
H170 H 0.89065 0.52629 0.84473 0.0
H171 H 0.89001 0.46449 0.8441 0.0
H172 H 0.91105 0.46246 0.89211 0.0
H173 H 0.91202 0.52404 0.89288 0.0
H174 H 0.96152 0.4917 0.90271 0.0
H175 H 0.09672 0.53429 0.84107 0.0
H176 H 0.08525 0.61665 0.84961 0.0
H177 H 0.94317 0.5916 0.86858 0.0
C178 C 0.97399 0.40684 0.86024 0.0
C179 C 0.00999 0.37454 0.85776 0.0
C180 C 0.05375 0.38977 0.85008 0.0
C181 C 0.06194 0.43659 0.84576 0.0
C182 C 0.02597 0.46767 0.84915 0.0
C183 C 0.98278 0.45336 0.85609 0.0
C184 C 0.95124 0.4938 0.8612 0.0
C185 C 0.91206 0.49512 0.84182 0.0
C186 C 0.93292 0.49293 0.88886 0.0
C187 C 0.98383 0.53322 0.85695 0.0
C188 C 0.02656 0.51742 0.84959 0.0
C189 C 0.06323 0.54706 0.8464 0.0
C190 C 0.05636 0.59384 0.85137 0.0
C191 C 0.0132 0.61065 0.85961 0.0
C192 C 0.97628 0.57996 0.86183 0.0
H193 H 0.39445 0.05917 0.37902 0.0
H194 H 0.36216 0.91566 0.3679 0.0
H195 H 0.44362 0.89913 0.35902 0.0
H196 H 0.48885 0.06666 0.33118 0.0
H197 H 0.52184 0.10378 0.35133 0.0
H198 H 0.46036 0.10553 0.35288 0.0
H199 H 0.46323 0.08998 0.40162 0.0
H200 H 0.52454 0.08815 0.40023 0.0
H201 H 0.49349 0.04022 0.41325 0.0
H202 H 0.52902 0.89679 0.35596 0.0
H203 H 0.61185 0.90772 0.36082 0.0
H204 H 0.58935 0.05271 0.37485 0.0
C205 C 0.40429 0.02446 0.37403 0.0
C206 C 0.37181 0.98874 0.37385 0.0
C207 C 0.38633 0.94359 0.36794 0.0
C208 C 0.43253 0.93394 0.36279 0.0
C209 C 0.46381 0.96979 0.36365 0.0
C210 C 0.4503 0.01418 0.36912 0.0
C211 C 0.49115 0.04562 0.37142 0.0
C212 C 0.4905 0.08258 0.35045 0.0
C213 C 0.49321 0.06724 0.39822 0.0
C214 C 0.5299 0.01173 0.36717 0.0
C215 C 0.51331 0.96834 0.36229 0.0
C216 C 0.54237 0.93071 0.35941 0.0
C217 C 0.58944 0.9373 0.36223 0.0
C218 C 0.60719 0.98114 0.36803 0.0
C219 C 0.57696 0.01899 0.3699 0.0
H220 H 0.93304 0.25113 0.99104 0.0
H221 H 0.06178 0.28718 0.95479 0.0
H222 H 0.09693 0.29585 0.99698 0.0
H223 H 0.94383 0.32936 0.04601 0.0
H224 H 0.91863 0.28928 0.06817 0.0
H225 H 0.9022 0.28875 1.03503 0.0
H226 H 0.92396 0.20269 1.03215 0.0
H227 H 0.9406 0.20301 0.06521 0.0
H228 H 0.98063 0.18449 0.04098 0.0
H229 H 0.12042 0.29546 0.04286 0.0
H230 H 0.12932 0.28826 0.08965 0.0
H231 H 0.98579 0.25391 0.09678 0.0
C232 C 0.96838 0.26156 0.992 0.0
C233 C 0.99449 0.26842 0.96944 0.0
C234 C 0.04089 0.28153 0.97165 0.0
C235 C 0.06131 0.28668 0.9956 0.0
C236 C 0.03502 0.27884 1.01739 0.0
C237 C 0.9895 0.26688 1.0159 0.0
C238 C 0.96962 0.2589 0.0424 0.0
C239 C 0.9313 0.29365 0.04824 0.0
C240 C 0.95272 0.20933 0.04535 0.0
C241 C 0.01123 0.26754 0.05884 0.0
C242 C 0.04856 0.27912 0.04401 0.0
C243 C 0.0913 0.28689 0.05473 0.0
C244 C 0.09608 0.28262 0.08134 0.0
C245 C 0.05831 0.27081 0.097 0.0
C246 C 0.0153 0.26352 0.08545 0.0
H247 H 0.7415 0.97115 0.60369 0.0
H248 H 0.69606 0.11302 0.60117 0.0
H249 H 0.68688 0.10705 0.55436 0.0
H250 H 0.80791 0.9754 0.54669 0.0
H251 H 0.79437 0.91804 0.5366 0.0
H252 H 0.79393 0.93216 0.57009 0.0
H253 H 0.71059 0.90379 0.574 0.0
H254 H 0.71075 0.88961 0.54048 0.0
H255 H 0.66756 0.92757 0.55329 0.0
H256 H 0.68503 0.08672 0.50793 0.0
H257 H 0.69425 0.05548 0.46463 0.0
H258 H 0.74334 0.92673 0.49639 0.0
C259 C 0.72898 1.00082 0.59337 0.0
C260 C 0.71909 0.04254 0.60622 0.0
C261 C 0.7037 0.08072 0.59185 0.0
C262 C 0.69826 0.07758 0.56524 0.0
C263 C 0.7086 0.03609 0.55319 0.0
C264 C 0.72385 0.99842 0.56674 0.0
C265 C 0.73509 0.95871 0.54891 0.0
C266 C 0.78584 0.94531 0.55068 0.0
C267 C 0.70415 0.91748 0.55451 0.0
C268 C 0.72419 0.98009 0.52316 0.0
C269 C 0.70852 0.02459 0.5262 0.0
C270 C 0.69716 0.0519 0.50535 0.0
C271 C 0.7026 0.03369 0.48074 0.0
C272 C 0.71961 0.98849 0.4769 0.0
C273 C 0.72994 0.96118 0.49856 0.0
H274 H 0.03443 0.75813 0.09772 0.0
H275 H 0.88995 0.72602 0.09886 0.0
H276 H 0.8916 0.71862 0.05169 0.0
H277 H 0.0321 0.82675 0.04067 0.0
H278 H 0.08726 0.8074 1.0295 0.0
H279 H 0.07487 0.8088 0.06326 0.0
H280 H 0.09612 0.72272 0.06682 0.0
H281 H 0.10842 0.72097 1.03304 0.0
H282 H 0.06774 0.68172 0.04677 0.0
H283 H 0.90944 0.71397 1.00448 0.0
H284 H 0.93985 0.71701 0.96064 0.0
H285 H 0.07291 0.75472 0.9898 0.0
C286 C 0.00306 0.74931 0.08813 0.0
C287 C 0.962 0.74234 0.10214 0.0
C288 C 0.92176 0.73148 0.08866 0.0
C289 C 0.92245 0.72707 0.06186 0.0
C290 C 0.96357 0.73399 0.04875 0.0
C291 C 0.00306 0.74524 0.06143 0.0
C292 C 0.04247 0.7523 0.0428 0.0
C293 C 0.06021 0.80175 0.04414 0.0
C294 C 0.08096 0.71734 0.04765 0.0
C295 C 0.01906 0.74319 1.01754 0.0
C296 C 0.97363 0.73238 1.02149 0.0
C297 C 0.9449 0.72251 1.00121 0.0
C298 C 0.96271 0.72429 0.97628 0.0
C299 C 0.00898 0.73617 0.97152 0.0
C300 C 0.03751 0.74543 0.99262 0.0
H301 H 0.24836 0.97795 0.48307 0.0
H302 H 0.28316 0.12235 0.48562 0.0
H303 H 0.2947 0.1162 0.53225 0.0
H304 H 0.18458 0.97651 0.54101 0.0
H305 H 0.20319 0.92002 0.55052 0.0
H306 H 0.20085 0.93488 0.51714 0.0
H307 H 0.28604 0.91237 0.51185 0.0
H308 H 0.28869 0.89757 0.54528 0.0
H309 H 0.32805 0.93866 0.53203 0.0
H310 H 0.29943 0.09538 0.57863 0.0
H311 H 0.29359 0.06286 0.62193 0.0
H312 H 0.25462 0.93161 0.58999 0.0
C313 C 0.25893 0.00823 0.49335 0.0
C314 C 0.26512 0.05068 0.48055 0.0
C315 C 0.27827 0.0895 0.49489 0.0
C316 C 0.28507 0.08627 0.5214 0.0
C317 C 0.27849 0.04401 0.53338 0.0
C318 C 0.26555 0.00569 0.51987 0.0
C319 C 0.25842 0.96496 0.5376 0.0
C320 C 0.20881 0.94812 0.5365 0.0
C321 C 0.29233 0.92609 0.53131 0.0
C322 C 0.26883 0.98651 0.56329 0.0
C323 C 0.28073 0.03204 0.5603 0.0
C324 C 0.29037 0.05974 0.58116 0.0
C325 C 0.28689 0.04084 0.60574 0.0
C326 C 0.27372 0.99455 0.60949 0.0
C327 C 0.26535 0.96686 0.58783 0.0
H328 H 0.14027 0.27244 0.25209 0.0
H329 H 0.25442 0.2179 0.20828 0.0
H330 H 0.29479 0.20019 0.24842 0.0
H331 H 0.20839 0.31756 0.30807 0.0
H332 H 0.16455 0.3002 0.33035 0.0
H333 H 0.1494 0.31816 0.2985 0.0
H334 H 0.10726 0.24138 0.29168 0.0
H335 H 0.12243 0.22311 0.32331 0.0
H336 H 0.13777 0.18812 0.29617 0.0
H337 H 0.31561 0.17447 0.29249 0.0
H338 H 0.31556 0.14402 0.33656 0.0
H339 H 0.18855 0.21584 0.35226 0.0
C340 C 0.17457 0.25855 0.25088 0.0
C341 C 0.19438 0.24704 0.22696 0.0
C342 C 0.23874 0.22753 0.22631 0.0
C343 C 0.26196 0.21737 0.24906 0.0
C344 C 0.24057 0.22725 0.27236 0.0
C345 C 0.19803 0.24794 0.27342 0.0
C346 C 0.17988 0.24956 0.30065 0.0
C347 C 0.1753 0.29934 0.30994 0.0
C348 C 0.13417 0.22401 0.30307 0.0
C349 C 0.21778 0.22453 0.31461 0.0
C350 C 0.25286 0.21263 0.298 0.0
C351 C 0.28901 0.18471 0.30579 0.0
C352 C 0.28869 0.16752 0.33088 0.0
C353 C 0.25253 0.17832 0.34798 0.0
C354 C 0.21744 0.20835 0.3399 0.0
H355 H 0.7903 0.186 0.85997 0.0
H356 H 0.85451 0.31483 0.84034 0.0
H357 H 0.82317 0.30994 0.79678 0.0
H358 H 0.81936 0.1317 0.80593 0.0
H359 H 0.76823 0.0984 0.80217 0.0
H360 H 0.78472 0.11734 0.83339 0.0
H361 H 0.70635 0.15748 0.83965 0.0
H362 H 0.68923 0.13808 0.80845 0.0
H363 H 0.68669 0.19825 0.81617 0.0
H364 H 0.79961 0.28322 0.7534 0.0
H365 H 0.78302 0.23828 0.71454 0.0
H366 H 0.73365 0.1268 0.76202 0.0
C367 C 0.79556 0.21438 0.84693 0.0
C368 C 0.82403 0.25127 0.8537 0.0
C369 C 0.83212 0.28667 0.83568 0.0
C370 C 0.8145 0.28413 0.81085 0.0
C371 C 0.78866 0.246 0.80427 0.0
C372 C 0.7786 0.21202 0.82192 0.0
C373 C 0.75579 0.17163 0.80913 0.0
C374 C 0.78371 0.12719 0.81288 0.0
C375 C 0.70658 0.16605 0.81893 0.0
C376 C 0.75663 0.1872 0.78145 0.0
C377 C 0.77506 0.23049 0.77905 0.0
C378 C 0.78396 0.24984 0.7551 0.0
C379 C 0.77452 0.22403 0.73309 0.0
C380 C 0.75645 0.17928 0.73516 0.0
C381 C 0.74639 0.16135 0.75972 0.0
H382 H 0.74562 0.87653 0.33038 0.0
H383 H 0.79955 0.76827 0.37863 0.0
H384 H 0.81869 0.72278 0.34005 0.0
H385 H 0.70213 0.80285 0.27731 0.0
H386 H 0.72024 0.84364 0.25343 0.0
H387 H 0.70256 0.86321 0.28467 0.0
H388 H 0.77977 0.90487 0.28991 0.0
H389 H 0.79766 0.88547 0.25882 0.0
H390 H 0.83223 0.87281 0.28635 0.0
H391 H 0.84184 0.69432 0.29629 0.0
H392 H 0.87039 0.68714 0.25197 0.0
H393 H 0.80301 0.81502 0.23219 0.0
C394 C 0.75992 0.84252 0.33294 0.0
C395 C 0.77036 0.82563 0.35763 0.0
C396 C 0.79063 0.78166 0.35999 0.0
C397 C 0.80155 0.75556 0.33814 0.0
C398 C 0.79205 0.7739 0.31404 0.0
C399 C 0.77158 0.81642 0.31136 0.0
C400 C 0.77031 0.83116 0.28353 0.0
C401 C 0.72086 0.83545 0.27419 0.0
C402 C 0.79656 0.87621 0.27943 0.0
C403 C 0.79462 0.791 0.27095 0.0
C404 C 0.80613 0.75792 0.28881 0.0
C405 C 0.83224 0.7196 0.28211 0.0
C406 C 0.84826 0.71577 0.25682 0.0
C407 C 0.83848 0.7502 0.23844 0.0
C408 C 0.81004 0.78748 0.24553 0.0
H409 H 0.25307 0.89136 0.7571 0.0
H410 H 0.22378 0.77037 0.71219 0.0
H411 H 0.20978 0.72669 0.75209 0.0
H412 H 0.30429 0.83253 0.81399 0.0
H413 H 0.27692 0.87214 0.83571 0.0
H414 H 0.29369 0.89089 0.80417 0.0
H415 H 0.21077 0.91786 0.79544 0.0
H416 H 0.19386 0.89933 0.82685 0.0
H417 H 0.16465 0.87772 0.79921 0.0
H418 H 0.18758 0.69993 0.79623 0.0
H419 H 0.15547 0.69349 0.83982 0.0
H420 H 0.19799 0.83243 0.85604 0.0
C421 C 0.24536 0.85521 0.75561 0.0
C422 C 0.24027 0.83407 0.73144 0.0
C423 C 0.22851 0.78713 0.73042 0.0
C424 C 0.22058 0.76205 0.75303 0.0
C425 C 0.22454 0.78439 0.77652 0.0
C426 C 0.23676 0.82998 0.77792 0.0
C427 C 0.23277 0.84784 0.80508 0.0
C428 C 0.27972 0.86166 0.81534 0.0
C429 C 0.19848 0.88802 0.80673 0.0
C430 C 0.21491 0.80564 0.81872 0.0
C431 C 0.2112 0.76914 0.802 0.0
C432 C 0.19128 0.72795 0.80957 0.0
C433 C 0.17322 0.72456 0.83444 0.0
C434 C 0.17493 0.76216 0.85153 0.0
C435 C 0.19753 0.80259 0.84377 0.0
H436 H 0.09478 0.08463 0.17892 0.0
H437 H 0.97866 0.13743 0.22195 0.0
H438 H 0.95776 0.05818 0.23393 0.0
H439 H 0.03973 0.99087 0.15271 0.0
H440 H 0.08816 0.95258 0.15431 0.0
H441 H 0.09688 0.01339 0.15184 0.0
H442 H 0.14568 0.01127 0.19296 0.0
H443 H 0.13685 0.95033 0.19564 0.0
H444 H 0.12193 0.9875 0.22194 0.0
H445 H 0.94466 0.97355 0.23701 0.0
H446 H 0.93888 0.89012 0.23005 0.0
H447 H 0.06458 0.89187 0.18594 0.0
C448 C 0.06533 0.07974 0.19122 0.0
C449 C 0.03838 0.11742 0.19955 0.0
C450 C 0.99989 0.10924 0.21538 0.0
C451 C 0.9879 0.06433 0.22238 0.0
C452 C 0.01496 0.02801 0.21358 0.0
C453 C 0.05296 0.03526 0.19839 0.0
C454 C 0.07432 0.99029 0.1898 0.0
C455 C 0.07477 0.98658 0.16043 0.0
C456 C 0.12256 0.98452 0.20075 0.0
C457 C 0.04149 0.95644 0.20179 0.0
C458 C 0.00782 0.97898 0.2157 0.0
C459 C 0.97131 0.95553 0.22663 0.0
C460 C 0.96835 0.90816 0.2226 0.0
C461 C 0.00178 0.88459 0.2079 0.0
C462 C 0.03947 0.90886 0.19797 0.0
H463 H 0.09033 0.99081 0.66443 0.0
H464 H 0.11818 0.97973 0.74542 0.0
H465 H 0.03505 0.98736 0.75484 0.0
H466 H 0.00097 0.07666 0.67038 0.0
H467 H 0.96908 0.05335 0.64413 0.0
H468 H 0.03024 0.04727 0.64472 0.0
H469 H 0.02178 0.95919 0.64028 0.0
H470 H 0.96057 0.96491 0.64021 0.0
H471 H 0.98786 0.92822 0.66335 0.0
H472 H 0.94651 0.99085 0.75423 0.0
H473 H 0.86424 1.00232 0.74426 0.0
H474 H 0.89835 0.01578 0.66392 0.0
C475 C 0.07894 0.99046 0.68418 0.0
C476 C 0.11028 0.98464 0.70424 0.0
C477 C 0.09445 0.98459 0.72985 0.0
C478 C 0.04738 0.98846 0.7353 0.0
C479 C 0.0171 0.99309 0.71489 0.0
C480 C 0.03262 0.99514 0.68989 0.0
C481 C 0.99402 1.00178 0.67127 0.0
C482 C 0.99887 0.04749 0.65679 0.0
C483 C 0.99089 0.96109 0.65269 0.0
C484 C 0.95399 1.0028 0.68956 0.0
C485 C 0.96755 0.99704 0.71464 0.0
C486 C 0.93571 0.99574 0.73466 0.0
C487 C 0.88914 1.00183 0.72886 0.0
C488 C 0.87535 0.00982 0.70337 0.0
C489 C 0.90818 0.00975 0.68359 0.0
H490 H 0.92435 0.07981 0.89606 0.0
H491 H 0.02387 0.12553 0.83985 0.0
H492 H 0.03706 0.04477 0.8269 0.0
H493 H 0.98519 0.98587 0.91713 0.0
H494 H 0.93601 0.95009 0.92227 0.0
H495 H 0.93028 0.01134 0.9241 0.0
H496 H 0.86691 0.00898 0.88977 0.0
H497 H 0.87289 0.94755 0.88763 0.0
H498 H 0.87858 0.98241 0.85931 0.0
H499 H 0.04605 0.95835 0.82416 0.0
H500 H 0.05323 0.87539 0.83368 0.0
H501 H 0.94717 0.88732 0.89122 0.0
C502 C 0.94842 0.07318 0.88068 0.0
C503 C 0.97303 0.10918 0.86893 0.0
C504 C 0.00453 0.09861 0.84911 0.0
C505 C 0.01201 0.05285 0.84154 0.0
C506 C 0.98744 0.01819 0.85382 0.0
C507 C 0.95625 0.028 0.87298 0.0
C508 C 0.93735 0.98481 0.88501 0.0
C509 C 0.94787 0.98293 0.91381 0.0
C510 C 0.88587 0.98071 0.88012 0.0
C511 C 0.964 0.94883 0.87031 0.0
C512 C 0.99214 0.96863 0.85204 0.0
C513 C 0.0233 0.94247 0.8379 0.0
C514 C 0.02693 0.89537 0.84325 0.0
C515 C 0.99945 0.87504 0.86244 0.0
C516 C 0.96692 0.90185 0.87564 0.0
H517 H 0.8861 0.04624 0.40481 0.0
H518 H 0.87581 0.94569 0.34448 0.0
H519 H 0.95887 0.95235 0.3359 0.0
H520 H 0.97836 0.11762 0.37372 0.0
H521 H 0.0046 0.12829 0.40418 0.0
H522 H 0.94369 0.12084 0.40228 0.0
H523 H 0.94877 0.0559 0.43602 0.0
H524 H 0.00965 0.06236 0.43763 0.0
H525 H 0.98566 0.00731 0.43006 0.0
H526 H 0.04518 0.96088 0.33919 0.0
H527 H 0.12547 0.97702 0.35074 0.0
H528 H 0.07787 0.07382 0.40803 0.0
C529 C 0.90111 0.02741 0.38899 0.0
C530 C 0.87469 0.9966 0.37471 0.0
C531 C 0.8955 0.97062 0.35498 0.0
C532 C 0.94265 0.97391 0.35017 0.0
C533 C 0.96827 0.00358 0.36519 0.0
C534 C 0.94796 0.03064 0.38384 0.0
C535 C 0.98324 0.05722 0.39863 0.0
C536 C 0.97711 0.10907 0.39444 0.0
C537 C 0.98172 0.04493 0.42727 0.0
C538 C 0.02664 0.03976 0.38606 0.0
C539 C 0.01752 0.00889 0.36679 0.0
C540 C 0.05264 0.98577 0.35388 0.0
C541 C 0.09813 0.99487 0.36067 0.0
C542 C 0.10804 0.02698 0.38011 0.0
C543 C 0.07159 0.04965 0.39278 0.0
loop_
_geom_bond_atom_site_label_1
_geom_bond_atom_site_label_2
_geom_bond_distance
_geom_bond_site_symmetry_2
_ccdc_geom_bond_type
O0 Cd1 2.223 . S
O0 C8 1.315 . S
Cd1 O0 2.223 . S
Cd1 O4 2.297 . S
Cd1 O5 2.439 . S
Cd1 O11 2.240 . S
Cd2 O3 2.240 . S
Cd2 O10 2.223 . S
Cd2 O12 2.297 . S
Cd2 O13 2.439 . S
O3 Cd2 2.240 . S
O3 C8 1.279 . S
O4 Cd1 2.297 . S
O4 C6 1.247 . S
O5 Cd1 2.439 . S
O5 C6 1.208 . S
C6 O4 1.247 . S
C6 O5 1.208 . S
C7 O12 1.247 . S
C7 O13 1.208 . S
C8 O0 1.315 . S
C8 O3 1.279 . S
C9 O10 1.315 . S
C9 O11 1.279 . S
O10 Cd2 2.223 . S
O10 C9 1.315 . S
O11 Cd1 2.240 . S
O11 C9 1.279 . S
O12 Cd2 2.297 . S
O12 C7 1.247 . S
O13 Cd2 2.439 . S
O13 C7 1.208 . S
O14 Cd15 2.223 . S
O14 C22 1.315 . S
Cd15 O14 2.223 . S
Cd15 O18 2.297 . S
Cd15 O19 2.439 . S
Cd15 O25 2.240 . S
Cd16 O17 2.240 . S
Cd16 O24 2.223 . S
Cd16 O26 2.297 . S
Cd16 O27 2.439 . S
O17 Cd16 2.240 . S
O17 C22 1.279 . S
O18 Cd15 2.297 . S
O18 C20 1.247 . S
O19 Cd15 2.439 . S
O19 C20 1.208 . S
C20 O18 1.247 . S
C20 O19 1.208 . S
C21 O26 1.247 . S
C21 O27 1.208 . S
C22 O14 1.315 . S
C22 O17 1.279 . S
C23 O24 1.315 . S
C23 O25 1.279 . S
O24 Cd16 2.223 . S
O24 C23 1.315 . S
O25 Cd15 2.240 . S
O25 C23 1.279 . S
O26 Cd16 2.297 . S
O26 C21 1.247 . S
O27 Cd16 2.439 . S
O27 C21 1.208 . S
O28 Cd29 2.223 . S
O28 C36 1.315 . S
Cd29 O28 2.223 . S
Cd29 O32 2.297 . S
Cd29 O33 2.439 . S
Cd29 O39 2.240 . S
Cd30 O31 2.240 . S
Cd30 O38 2.223 . S
Cd30 O40 2.297 . S
Cd30 O41 2.439 . S
O31 Cd30 2.240 . S
O31 C36 1.279 . S
O32 Cd29 2.297 . S
O32 C34 1.247 . S
O33 Cd29 2.439 . S
O33 C34 1.208 . S
C34 O32 1.247 . S
C34 O33 1.208 . S
C35 O40 1.247 . S
C35 O41 1.208 . S
C36 O28 1.315 . S
C36 O31 1.279 . S
C37 O38 1.315 . S
C37 O39 1.279 . S
O38 Cd30 2.223 . S
O38 C37 1.315 . S
O39 Cd29 2.240 . S
O39 C37 1.279 . S
O40 Cd30 2.297 . S
O40 C35 1.247 . S
O41 Cd30 2.439 . S
O41 C35 1.208 . S
O42 Cd43 2.223 . S
O42 C50 1.315 . S
Cd43 O42 2.223 . S
Cd43 O46 2.297 . S
Cd43 O47 2.439 . S
Cd43 O53 2.240 . S
Cd44 O45 2.240 . S
Cd44 O52 2.223 . S
Cd44 O54 2.297 . S
Cd44 O55 2.439 . S
O45 Cd44 2.240 . S
O45 C50 1.279 . S
O46 Cd43 2.297 . S
O46 C48 1.247 . S
O47 Cd43 2.439 . S
O47 C48 1.208 . S
C48 O46 1.247 . S
C48 O47 1.208 . S
C49 O54 1.247 . S
C49 O55 1.208 . S
C50 O42 1.315 . S
C50 O45 1.279 . S
C51 O52 1.315 . S
C51 O53 1.279 . S
O52 Cd44 2.223 . S
O52 C51 1.315 . S
O53 Cd43 2.240 . S
O53 C51 1.279 . S
O54 Cd44 2.297 . S
O54 C49 1.247 . S
O55 Cd44 2.439 . S
O55 C49 1.208 . S
O56 Cd57 2.223 . S
O56 C64 1.315 . S
Cd57 O56 2.223 . S
Cd57 O60 2.297 . S
Cd57 O61 2.439 . S
Cd57 O67 2.240 . S
Cd58 O59 2.240 . S
Cd58 O66 2.223 . S
Cd58 O68 2.297 . S
Cd58 O69 2.439 . S
O59 Cd58 2.240 . S
O59 C64 1.279 . S
O60 Cd57 2.297 . S
O60 C62 1.247 . S
O61 Cd57 2.439 . S
O61 C62 1.208 . S
C62 O60 1.247 . S
C62 O61 1.208 . S
C63 O68 1.247 . S
C63 O69 1.208 . S
C64 O56 1.315 . S
C64 O59 1.279 . S
C65 O66 1.315 . S
C65 O67 1.279 . S
O66 Cd58 2.223 . S
O66 C65 1.315 . S
O67 Cd57 2.240 . S
O67 C65 1.279 . S
O68 Cd58 2.297 . S
O68 C63 1.247 . S
O69 Cd58 2.439 . S
O69 C63 1.208 . S
O70 Cd71 2.223 . S
O70 C78 1.315 . S
Cd71 O70 2.223 . S
Cd71 O74 2.297 . S
Cd71 O75 2.439 . S
Cd71 O81 2.240 . S
Cd72 O73 2.240 . S
Cd72 O80 2.223 . S
Cd72 O82 2.297 . S
Cd72 O83 2.439 . S
O73 Cd72 2.240 . S
O73 C78 1.279 . S
O74 Cd71 2.297 . S
O74 C76 1.247 . S
O75 Cd71 2.439 . S
O75 C76 1.208 . S
C76 O74 1.247 . S
C76 O75 1.208 . S
C77 O82 1.247 . S
C77 O83 1.208 . S
C78 O70 1.315 . S
C78 O73 1.279 . S
C79 O80 1.315 . S
C79 O81 1.279 . S
O80 Cd72 2.223 . S
O80 C79 1.315 . S
O81 Cd71 2.240 . S
O81 C79 1.279 . S
O82 Cd72 2.297 . S
O82 C77 1.247 . S
O83 Cd72 2.439 . S
O83 C77 1.208 . S
O84 Cd85 2.223 . S
O84 C92 1.315 . S
Cd85 O84 2.223 . S
Cd85 O88 2.297 . S
Cd85 O89 2.439 . S
Cd85 O95 2.240 . S
Cd86 O87 2.240 . S
Cd86 O94 2.223 . S
Cd86 O96 2.297 . S
Cd86 O97 2.439 . S
O87 Cd86 2.240 . S
O87 C92 1.279 . S
O88 Cd85 2.297 . S
O88 C90 1.247 . S
O89 Cd85 2.439 . S
O89 C90 1.208 . S
C90 O88 1.247 . S
C90 O89 1.208 . S
C91 O96 1.247 . S
C91 O97 1.208 . S
C92 O84 1.315 . S
C92 O87 1.279 . S
C93 O94 1.315 . S
C93 O95 1.279 . S
O94 Cd86 2.223 . S
O94 C93 1.315 . S
O95 Cd85 2.240 . S
O95 C93 1.279 . S
O96 Cd86 2.297 . S
O96 C91 1.247 . S
O97 Cd86 2.439 . S
O97 C91 1.208 . S
O98 Cd99 2.223 . S
O98 C106 1.315 . S
Cd99 O98 2.223 . S
Cd99 O102 2.297 . S
Cd99 O103 2.439 . S
Cd99 O109 2.240 . S
Cd100 O101 2.240 . S
Cd100 O108 2.223 . S
Cd100 O110 2.297 . S
Cd100 O111 2.439 . S
O101 Cd100 2.240 . S
O101 C106 1.279 . S
O102 Cd99 2.297 . S
O102 C104 1.247 . S
O103 Cd99 2.439 . S
O103 C104 1.208 . S
C104 O102 1.247 . S
C104 O103 1.208 . S
C105 O110 1.247 . S
C105 O111 1.208 . S
C106 O98 1.315 . S
C106 O101 1.279 . S
C107 O108 1.315 . S
C107 O109 1.279 . S
O108 Cd100 2.223 . S
O108 C107 1.315 . S
O109 Cd99 2.240 . S
O109 C107 1.279 . S
O110 Cd100 2.297 . S
O110 C105 1.247 . S
O111 Cd100 2.439 . S
O111 C105 1.208 . S
H112 C124 0.930 . S
H113 C126 0.930 . S
H114 C127 0.930 . S
H115 C131 0.959 . S
H116 C131 0.959 . S
H117 C131 0.961 . S
H118 C132 0.960 . S
H119 C132 0.961 . S
H120 C132 0.959 . S
H121 C135 0.929 . S
H122 C136 0.931 . S
H123 C138 0.930 . S
C124 H112 0.930 . S
C124 C125 1.399 . S
C124 C129 1.399 . S
C125 C124 1.399 . S
C125 C126 1.376 . S
C126 H113 0.930 . S
C126 C125 1.376 . S
C126 C127 1.388 1_455 S
C127 H114 0.930 . S
C127 C126 1.388 1_655 S
C127 C128 1.390 . S
C128 C127 1.390 . S
C128 C129 1.394 1_655 S
C128 C134 1.465 . S
C129 C124 1.399 . S
C129 C128 1.394 1_455 S
C129 C130 1.516 . S
C130 C129 1.516 . S
C130 C131 1.502 . S
C130 C132 1.561 1_455 S
C130 C133 1.526 1_455 S
C131 H115 0.959 . S
C131 H116 0.959 . S
C131 H117 0.961 . S
C131 C130 1.502 . S
C132 H118 0.960 . S
C132 H119 0.961 . S
C132 H120 0.959 . S
C132 C130 1.561 1_655 S
C133 C130 1.526 1_655 S
C133 C134 1.396 . S
C133 C138 1.390 . S
C134 C128 1.465 . S
C134 C133 1.396 . S
C134 C135 1.399 . S
C135 H121 0.929 . S
C135 C134 1.399 . S
C135 C136 1.385 . S
C136 H122 0.931 . S
C136 C135 1.385 . S
C136 C137 1.389 . S
C137 C136 1.389 . S
C137 C138 1.387 . S
C138 H123 0.930 . S
C138 C133 1.390 . S
C138 C137 1.387 . S
H139 C151 0.930 . S
H140 C153 0.930 1_545 S
H141 C154 0.930 . S
H142 C158 0.959 . S
H143 C158 0.959 . S
H144 C158 0.961 . S
H145 C159 0.960 1_565 S
H146 C159 0.961 . S
H147 C159 0.959 . S
H148 C162 0.929 . S
H149 C163 0.931 . S
H150 C165 0.927 1_565 S
C151 H139 0.930 . S
C151 C152 1.399 . S
C151 C156 1.399 . S
C152 C151 1.399 . S
C152 C153 1.376 . S
C153 H140 0.930 1_565 S
C153 C152 1.376 . S
C153 C154 1.388 1_565 S
C154 H141 0.930 . S
C154 C153 1.388 1_545 S
C154 C155 1.390 . S
C155 C154 1.390 . S
C155 C156 1.394 1_545 S
C155 C161 1.465 . S
C156 C151 1.399 . S
C156 C155 1.394 1_565 S
C156 C157 1.516 . S
C157 C156 1.516 . S
C157 C158 1.502 . S
C157 C159 1.561 1_565 S
C157 C160 1.526 1_565 S
C158 H142 0.959 . S
C158 H143 0.959 . S
C158 H144 0.961 . S
C158 C157 1.502 . S
C159 H145 0.960 1_545 S
C159 H146 0.961 . S
C159 H147 0.959 . S
C159 C157 1.561 1_545 S
C160 C157 1.526 1_545 S
C160 C161 1.396 . S
C160 C165 1.390 . S
C161 C155 1.465 . S
C161 C160 1.396 . S
C161 C162 1.399 . S
C162 H148 0.929 . S
C162 C161 1.399 . S
C162 C163 1.385 . S
C163 H149 0.931 . S
C163 C162 1.385 . S
C163 C164 1.389 . S
C164 C163 1.389 . S
C164 C165 1.387 . S
C165 H150 0.927 1_545 S
C165 C160 1.390 . S
C165 C164 1.387 . S
H166 C178 0.930 . S
H167 C180 0.930 1_455 S
H168 C181 0.930 . S
H169 C185 0.959 . S
H170 C185 0.959 . S
H171 C185 0.961 . S
H172 C186 0.960 1_655 S
H173 C186 0.961 . S
H174 C186 0.959 . S
H175 C189 0.929 . S
H176 C190 0.931 . S
H177 C192 0.930 . S
C178 H166 0.930 . S
C178 C179 1.399 . S
C178 C183 1.399 . S
C179 C178 1.399 . S
C179 C180 1.376 . S
C180 H167 0.930 1_655 S
C180 C179 1.376 . S
C180 C181 1.388 1_655 S
C181 H168 0.930 . S
C181 C180 1.388 1_455 S
C181 C182 1.390 . S
C182 C181 1.390 . S
C182 C183 1.394 1_455 S
C182 C188 1.465 . S
C183 C178 1.399 . S
C183 C182 1.394 1_655 S
C183 C184 1.516 . S
C184 C183 1.516 . S
C184 C185 1.502 . S
C184 C186 1.561 1_655 S
C184 C187 1.526 1_655 S
C185 H169 0.959 . S
C185 H170 0.959 . S
C185 H171 0.961 . S
C185 C184 1.502 . S
C186 H172 0.960 1_455 S
C186 H173 0.961 . S
C186 H174 0.959 . S
C186 C184 1.561 1_455 S
C187 C184 1.526 1_455 S
C187 C188 1.396 . S
C187 C192 1.390 . S
C188 C182 1.465 . S
C188 C187 1.396 . S
C188 C189 1.399 . S
C189 H175 0.929 . S
C189 C188 1.399 . S
C189 C190 1.385 . S
C190 H176 0.931 . S
C190 C189 1.385 . S
C190 C191 1.389 . S
C191 C190 1.389 . S
C191 C192 1.387 . S
C192 H177 0.930 . S
C192 C187 1.390 . S
C192 C191 1.387 . S
H193 C205 0.930 . S
H194 C207 0.930 . S
H195 C208 0.930 . S
H196 C212 0.959 . S
H197 C212 0.959 . S
H198 C212 0.961 . S
H199 C213 0.960 . S
H200 C213 0.961 . S
H201 C213 0.959 . S
H202 C216 0.929 . S
H203 C217 0.931 . S
H204 C219 0.930 . S
C205 H193 0.930 . S
C205 C206 1.399 . S
C205 C210 1.399 . S
C206 C205 1.399 . S
C206 C207 1.376 . S
C207 H194 0.930 . S
C207 C206 1.376 . S
C207 C208 1.388 1_545 S
C208 H195 0.930 . S
C208 C207 1.388 1_565 S
C208 C209 1.390 . S
C209 C208 1.390 . S
C209 C210 1.394 1_565 S
C209 C215 1.465 . S
C210 C205 1.399 . S
C210 C209 1.394 1_545 S
C210 C211 1.516 . S
C211 C210 1.516 . S
C211 C212 1.502 . S
C211 C213 1.561 1_545 S
C211 C214 1.526 1_545 S
C212 H196 0.959 . S
C212 H197 0.959 . S
C212 H198 0.961 . S
C212 C211 1.502 . S
C213 H199 0.960 . S
C213 H200 0.961 . S
C213 H201 0.959 . S
C213 C211 1.561 1_565 S
C214 C211 1.526 1_565 S
C214 C215 1.396 . S
C214 C219 1.390 . S
C215 C209 1.465 . S
C215 C214 1.396 . S
C215 C216 1.399 . S
C216 H202 0.929 . S
C216 C215 1.399 . S
C216 C217 1.385 . S
C217 H203 0.931 . S
C217 C216 1.385 . S
C217 C218 1.389 . S
C218 C217 1.389 . S
C218 C219 1.387 . S
C219 H204 0.930 . S
C219 C214 1.390 . S
C219 C218 1.387 . S
H220 C232 0.930 . S
H221 C234 0.930 . S
H222 C235 0.930 . S
H223 C239 0.959 . S
H224 C239 0.959 . S
H225 C239 0.961 . S
H226 C240 0.960 1_556 S
H227 C240 0.961 . S
H228 C240 0.959 . S
H229 C243 0.929 . S
H230 C244 0.931 . S
H231 C246 0.930 . S
C232 H220 0.930 . S
C232 C233 1.399 . S
C232 C237 1.399 . S
C233 C232 1.399 . S
C233 C234 1.376 . S
C234 H221 0.930 . S
C234 C233 1.376 . S
C234 C235 1.388 . S
C235 H222 0.930 . S
C235 C234 1.388 . S
C235 C236 1.390 . S
C236 C235 1.390 . S
C236 C237 1.394 . S
C236 C242 1.465 1_656 S
C237 C232 1.399 . S
C237 C236 1.394 . S
C237 C238 1.516 1_655 S
C238 C237 1.516 1_455 S
C238 C239 1.502 . S
C238 C240 1.561 1_456 S
C238 C241 1.526 1_556 S
C239 H223 0.959 . S
C239 H224 0.959 . S
C239 H225 0.961 . S
C239 C238 1.502 . S
C240 H226 0.960 1_554 S
C240 H227 0.961 . S
C240 H228 0.959 . S
C240 C238 1.561 1_654 S
C241 C238 1.526 1_554 S
C241 C242 1.396 . S
C241 C246 1.390 . S
C242 C236 1.465 1_454 S
C242 C241 1.396 . S
C242 C243 1.399 . S
C243 H229 0.929 . S
C243 C242 1.399 . S
C243 C244 1.385 . S
C244 H230 0.931 . S
C244 C243 1.385 . S
C244 C245 1.389 . S
C245 C244 1.389 . S
C245 C246 1.387 . S
C246 H231 0.930 . S
C246 C241 1.390 . S
C246 C245 1.387 . S
H247 C259 0.930 . S
H248 C261 0.930 . S
H249 C262 0.930 . S
H250 C266 0.959 . S
H251 C266 0.959 . S
H252 C266 0.961 . S
H253 C267 0.960 . S
H254 C267 0.961 . S
H255 C267 0.959 . S
H256 C270 0.929 . S
H257 C271 0.931 . S
H258 C273 0.930 . S
C259 H247 0.930 . S
C259 C260 1.399 . S
C259 C264 1.399 . S
C260 C259 1.399 . S
C260 C261 1.376 . S
C261 H248 0.930 . S
C261 C260 1.376 . S
C261 C262 1.388 . S
C262 H249 0.930 . S
C262 C261 1.388 . S
C262 C263 1.390 . S
C263 C262 1.390 . S
C263 C264 1.394 . S
C263 C269 1.465 1_545 S
C264 C259 1.399 . S
C264 C263 1.394 . S
C264 C265 1.516 1_545 S
C265 C264 1.516 1_565 S
C265 C266 1.502 . S
C265 C267 1.561 . S
C265 C268 1.526 . S
C266 H250 0.959 . S
C266 H251 0.959 . S
C266 H252 0.961 . S
C266 C265 1.502 . S
C267 H253 0.960 . S
C267 H254 0.961 . S
C267 H255 0.959 . S
C267 C265 1.561 . S
C268 C265 1.526 . S
C268 C269 1.396 . S
C268 C273 1.390 . S
C269 C263 1.465 1_565 S
C269 C268 1.396 . S
C269 C270 1.399 1_565 S
C270 H256 0.929 . S
C270 C269 1.399 1_545 S
C270 C271 1.385 1_545 S
C271 H257 0.931 . S
C271 C270 1.385 1_565 S
C271 C272 1.389 . S
C272 C271 1.389 . S
C272 C273 1.387 . S
C273 H258 0.930 . S
C273 C268 1.390 . S
C273 C272 1.387 . S
H274 C286 0.930 . S
H275 C288 0.930 . S
H276 C289 0.930 . S
H277 C293 0.959 . S
H278 C293 0.959 . S
H279 C293 0.961 . S
H280 C294 0.960 1_554 S
H281 C294 0.961 1_455 S
H282 C294 0.959 . S
H283 C297 0.929 1_655 S
H284 C298 0.931 . S
H285 C300 0.930 . S
C286 H274 0.930 . S
C286 C287 1.399 . S
C286 C291 1.399 . S
C287 C286 1.399 . S
C287 C288 1.376 . S
C288 H275 0.930 . S
C288 C287 1.376 . S
C288 C289 1.388 . S
C289 H276 0.930 . S
C289 C288 1.388 . S
C289 C290 1.390 . S
C290 C289 1.390 . S
C290 C291 1.394 . S
C290 C296 1.465 1_654 S
C291 C286 1.399 . S
C291 C290 1.394 . S
C291 C292 1.516 1_655 S
C292 C291 1.516 1_455 S
C292 C293 1.502 . S
C292 C294 1.561 1_454 S
C292 C295 1.526 1_554 S
C293 H277 0.959 . S
C293 H278 0.959 . S
C293 H279 0.961 . S
C293 C292 1.502 . S
C294 H280 0.960 1_556 S
C294 H281 0.961 1_655 S
C294 H282 0.959 . S
C294 C292 1.561 1_656 S
C295 C292 1.526 1_556 S
C295 C296 1.396 . S
C295 C300 1.390 . S
C296 C290 1.465 1_456 S
C296 C295 1.396 . S
C296 C297 1.399 . S
C297 H283 0.929 1_455 S
C297 C296 1.399 . S
C297 C298 1.385 . S
C298 H284 0.931 . S
C298 C297 1.385 . S
C298 C299 1.389 . S
C299 C298 1.389 . S
C299 C300 1.387 . S
C300 H285 0.930 . S
C300 C295 1.390 . S
C300 C299 1.387 . S
H301 C313 0.930 . S
H302 C315 0.930 . S
H303 C316 0.930 . S
H304 C320 0.959 . S
H305 C320 0.959 . S
H306 C320 0.961 . S
H307 C321 0.960 . S
H308 C321 0.961 . S
H309 C321 0.959 . S
H310 C324 0.929 . S
H311 C325 0.931 . S
H312 C327 0.930 . S
C313 H301 0.930 . S
C313 C314 1.399 . S
C313 C318 1.399 . S
C314 C313 1.399 . S
C314 C315 1.376 . S
C315 H302 0.930 . S
C315 C314 1.376 . S
C315 C316 1.388 . S
C316 H303 0.930 . S
C316 C315 1.388 . S
C316 C317 1.390 . S
C317 C316 1.390 . S
C317 C318 1.394 . S
C317 C323 1.465 . S
C318 C313 1.399 . S
C318 C317 1.394 . S
C318 C319 1.516 1_545 S
C319 C318 1.516 1_565 S
C319 C320 1.502 . S
C319 C321 1.561 . S
C319 C322 1.526 . S
C320 H304 0.959 . S
C320 H305 0.959 . S
C320 H306 0.961 . S
C320 C319 1.502 . S
C321 H307 0.960 . S
C321 H308 0.961 . S
C321 H309 0.959 . S
C321 C319 1.561 . S
C322 C319 1.526 . S
C322 C323 1.396 1_565 S
C322 C327 1.390 . S
C323 C317 1.465 . S
C323 C322 1.396 1_545 S
C323 C324 1.399 . S
C324 H310 0.929 . S
C324 C323 1.399 . S
C324 C325 1.385 1_545 S
C325 H311 0.931 . S
C325 C324 1.385 1_565 S
C325 C326 1.389 . S
C326 C325 1.389 . S
C326 C327 1.387 . S
C327 H312 0.930 . S
C327 C322 1.390 . S
C327 C326 1.387 . S
H328 C340 0.930 . S
H329 C342 0.930 . S
H330 C343 0.930 . S
H331 C347 0.959 . S
H332 C347 0.959 . S
H333 C347 0.961 . S
H334 C348 0.960 . S
H335 C348 0.961 . S
H336 C348 0.959 . S
H337 C351 0.929 . S
H338 C352 0.931 . S
H339 C354 0.930 . S
C340 H328 0.930 . S
C340 C341 1.399 . S
C340 C345 1.399 . S
C341 C340 1.399 . S
C341 C342 1.376 . S
C342 H329 0.930 . S
C342 C341 1.376 . S
C342 C343 1.388 . S
C343 H330 0.930 . S
C343 C342 1.388 . S
C343 C344 1.390 . S
C344 C343 1.390 . S
C344 C345 1.394 . S
C344 C350 1.465 . S
C345 C340 1.399 . S
C345 C344 1.394 . S
C345 C346 1.516 . S
C346 C345 1.516 . S
C346 C347 1.502 . S
C346 C348 1.561 . S
C346 C349 1.526 . S
C347 H331 0.959 . S
C347 H332 0.959 . S
C347 H333 0.961 . S
C347 C346 1.502 . S
C348 H334 0.960 . S
C348 H335 0.961 . S
C348 H336 0.959 . S
C348 C346 1.561 . S
C349 C346 1.526 . S
C349 C350 1.396 . S
C349 C354 1.390 . S
C350 C344 1.465 . S
C350 C349 1.396 . S
C350 C351 1.399 . S
C351 H337 0.929 . S
C351 C350 1.399 . S
C351 C352 1.385 . S
C352 H338 0.931 . S
C352 C351 1.385 . S
C352 C353 1.389 . S
C353 C352 1.389 . S
C353 C354 1.387 . S
C354 H339 0.930 . S
C354 C349 1.390 . S
C354 C353 1.387 . S
H355 C367 0.930 . S
H356 C369 0.930 . S
H357 C370 0.930 . S
H358 C374 0.959 . S
H359 C374 0.959 . S
H360 C374 0.961 . S
H361 C375 0.960 . S
H362 C375 0.961 . S
H363 C375 0.959 . S
H364 C378 0.929 . S
H365 C379 0.931 . S
H366 C381 0.930 . S
C367 H355 0.930 . S
C367 C368 1.399 . S
C367 C372 1.399 . S
C368 C367 1.399 . S
C368 C369 1.376 . S
C369 H356 0.930 . S
C369 C368 1.376 . S
C369 C370 1.388 . S
C370 H357 0.930 . S
C370 C369 1.388 . S
C370 C371 1.390 . S
C371 C370 1.390 . S
C371 C372 1.394 . S
C371 C377 1.465 . S
C372 C367 1.399 . S
C372 C371 1.394 . S
C372 C373 1.516 . S
C373 C372 1.516 . S
C373 C374 1.502 . S
C373 C375 1.561 . S
C373 C376 1.526 . S
C374 H358 0.959 . S
C374 H359 0.959 . S
C374 H360 0.961 . S
C374 C373 1.502 . S
C375 H361 0.960 . S
C375 H362 0.961 . S
C375 H363 0.959 . S
C375 C373 1.561 . S
C376 C373 1.526 . S
C376 C377 1.396 . S
C376 C381 1.390 . S
C377 C371 1.465 . S
C377 C376 1.396 . S
C377 C378 1.399 . S
C378 H364 0.929 . S
C378 C377 1.399 . S
C378 C379 1.385 . S
C379 H365 0.931 . S
C379 C378 1.385 . S
C379 C380 1.389 . S
C380 C379 1.389 . S
C380 C381 1.387 . S
C381 H366 0.930 . S
C381 C376 1.390 . S
C381 C380 1.387 . S
H382 C394 0.930 . S
H383 C396 0.930 . S
H384 C397 0.930 . S
H385 C401 0.959 . S
H386 C401 0.959 . S
H387 C401 0.961 . S
H388 C402 0.960 . S
H389 C402 0.961 . S
H390 C402 0.959 . S
H391 C405 0.929 . S
H392 C406 0.931 . S
H393 C408 0.930 . S
C394 H382 0.930 . S
C394 C395 1.399 . S
C394 C399 1.399 . S
C395 C394 1.399 . S
C395 C396 1.376 . S
C396 H383 0.930 . S
C396 C395 1.376 . S
C396 C397 1.388 . S
C397 H384 0.930 . S
C397 C396 1.388 . S
C397 C398 1.390 . S
C398 C397 1.390 . S
C398 C399 1.394 . S
C398 C404 1.465 . S
C399 C394 1.399 . S
C399 C398 1.394 . S
C399 C400 1.516 . S
C400 C399 1.516 . S
C400 C401 1.502 . S
C400 C402 1.561 . S
C400 C403 1.526 . S
C401 H385 0.959 . S
C401 H386 0.959 . S
C401 H387 0.961 . S
C401 C400 1.502 . S
C402 H388 0.960 . S
C402 H389 0.961 . S
C402 H390 0.959 . S
C402 C400 1.561 . S
C403 C400 1.526 . S
C403 C404 1.396 . S
C403 C408 1.390 . S
C404 C398 1.465 . S
C404 C403 1.396 . S
C404 C405 1.399 . S
C405 H391 0.929 . S
C405 C404 1.399 . S
C405 C406 1.385 . S
C406 H392 0.931 . S
C406 C405 1.385 . S
C406 C407 1.389 . S
C407 C406 1.389 . S
C407 C408 1.387 . S
C408 H393 0.930 . S
C408 C403 1.390 . S
C408 C407 1.387 . S
H409 C421 0.930 . S
H410 C423 0.930 . S
H411 C424 0.930 . S
H412 C428 0.959 . S
H413 C428 0.959 . S
H414 C428 0.961 . S
H415 C429 0.960 . S
H416 C429 0.961 . S
H417 C429 0.959 . S
H418 C432 0.929 . S
H419 C433 0.931 . S
H420 C435 0.930 . S
C421 H409 0.930 . S
C421 C422 1.399 . S
C421 C426 1.399 . S
C422 C421 1.399 . S
C422 C423 1.376 . S
C423 H410 0.930 . S
C423 C422 1.376 . S
C423 C424 1.388 . S
C424 H411 0.930 . S
C424 C423 1.388 . S
C424 C425 1.390 . S
C425 C424 1.390 . S
C425 C426 1.394 . S
C425 C431 1.465 . S
C426 C421 1.399 . S
C426 C425 1.394 . S
C426 C427 1.516 . S
C427 C426 1.516 . S
C427 C428 1.502 . S
C427 C429 1.561 . S
C427 C430 1.526 . S
C428 H412 0.959 . S
C428 H413 0.959 . S
C428 H414 0.961 . S
C428 C427 1.502 . S
C429 H415 0.960 . S
C429 H416 0.961 . S
C429 H417 0.959 . S
C429 C427 1.561 . S
C430 C427 1.526 . S
C430 C431 1.396 . S
C430 C435 1.390 . S
C431 C425 1.465 . S
C431 C430 1.396 . S
C431 C432 1.399 . S
C432 H418 0.929 . S
C432 C431 1.399 . S
C432 C433 1.385 . S
C433 H419 0.931 . S
C433 C432 1.385 . S
C433 C434 1.389 . S
C434 C433 1.389 . S
C434 C435 1.387 . S
C435 H420 0.930 . S
C435 C430 1.390 . S
C435 C434 1.387 . S
H436 C448 0.930 . S
H437 C450 0.930 . S
H438 C451 0.930 . S
H439 C455 0.959 . S
H440 C455 0.959 . S
H441 C455 0.961 1_545 S
H442 C456 0.960 1_455 S
H443 C456 0.961 1_565 S
H444 C456 0.959 . S
H445 C459 0.929 . S
H446 C460 0.931 . S
H447 C462 0.930 . S
C448 H436 0.930 . S
C448 C449 1.399 . S
C448 C453 1.399 . S
C449 C448 1.399 . S
C449 C450 1.376 . S
C450 H437 0.930 . S
C450 C449 1.376 . S
C450 C451 1.388 1_455 S
C451 H438 0.930 . S
C451 C450 1.388 1_655 S
C451 C452 1.390 . S
C452 C451 1.390 . S
C452 C453 1.394 1_655 S
C452 C458 1.465 1_545 S
C453 C448 1.399 . S
C453 C452 1.394 1_455 S
C453 C454 1.516 1_545 S
C454 C453 1.516 1_565 S
C454 C455 1.502 . S
C454 C456 1.561 1_465 S
C454 C457 1.526 1_455 S
C455 H439 0.959 . S
C455 H440 0.959 . S
C455 H441 0.961 1_565 S
C455 C454 1.502 . S
C456 H442 0.960 1_655 S
C456 H443 0.961 1_545 S
C456 H444 0.959 . S
C456 C454 1.561 1_645 S
C457 C454 1.526 1_655 S
C457 C458 1.396 . S
C457 C462 1.390 . S
C458 C452 1.465 1_565 S
C458 C457 1.396 . S
C458 C459 1.399 . S
C459 H445 0.929 . S
C459 C458 1.399 . S
C459 C460 1.385 . S
C460 H446 0.931 . S
C460 C459 1.385 . S
C460 C461 1.389 . S
C461 C460 1.389 . S
C461 C462 1.387 . S
C462 H447 0.930 . S
C462 C457 1.390 . S
C462 C461 1.387 . S
H463 C475 0.930 . S
H464 C477 0.930 . S
H465 C478 0.930 . S
H466 C482 0.959 . S
H467 C482 0.959 1_655 S
H468 C482 0.961 . S
H469 C483 0.960 1_455 S
H470 C483 0.961 . S
H471 C483 0.959 . S
H472 C486 0.929 . S
H473 C487 0.931 . S
H474 C489 0.930 . S
C475 H463 0.930 . S
C475 C476 1.399 . S
C475 C480 1.399 . S
C476 C475 1.399 . S
C476 C477 1.376 . S
C477 H464 0.930 . S
C477 C476 1.376 . S
C477 C478 1.388 . S
C478 H465 0.930 . S
C478 C477 1.388 . S
C478 C479 1.390 . S
C479 C478 1.390 . S
C479 C480 1.394 . S
C479 C485 1.465 1_455 S
C480 C475 1.399 . S
C480 C479 1.394 . S
C480 C481 1.516 1_565 S
C481 C480 1.516 1_545 S
C481 C482 1.502 . S
C481 C483 1.561 1_445 S
C481 C484 1.526 1_455 S
C482 H466 0.959 . S
C482 H467 0.959 1_455 S
C482 H468 0.961 . S
C482 C481 1.502 . S
C483 H469 0.960 1_655 S
C483 H470 0.961 . S
C483 H471 0.959 . S
C483 C481 1.561 1_665 S
C484 C481 1.526 1_655 S
C484 C485 1.396 1_545 S
C484 C489 1.390 . S
C485 C479 1.465 1_655 S
C485 C484 1.396 1_565 S
C485 C486 1.399 . S
C486 H472 0.929 . S
C486 C485 1.399 . S
C486 C487 1.385 1_565 S
C487 H473 0.931 . S
C487 C486 1.385 1_545 S
C487 C488 1.389 . S
C488 C487 1.389 . S
C488 C489 1.387 . S
C489 H474 0.930 . S
C489 C484 1.390 . S
C489 C488 1.387 . S
H490 C502 0.930 . S
H491 C504 0.930 . S
H492 C505 0.930 . S
H493 C509 0.959 . S
H494 C509 0.959 1_565 S
H495 C509 0.961 . S
H496 C510 0.960 1_545 S
H497 C510 0.962 1_455 S
H498 C510 0.959 . S
H499 C513 0.929 . S
H500 C514 0.931 . S
H501 C516 0.930 . S
C502 H490 0.930 . S
C502 C503 1.399 . S
C502 C507 1.399 . S
C503 C502 1.399 . S
C503 C504 1.376 . S
C504 H491 0.930 . S
C504 C503 1.376 . S
C504 C505 1.388 . S
C505 H492 0.930 . S
C505 C504 1.388 . S
C505 C506 1.390 . S
C506 C505 1.390 . S
C506 C507 1.394 . S
C506 C512 1.465 1_545 S
C507 C502 1.399 . S
C507 C506 1.394 . S
C507 C508 1.516 1_655 S
C508 C507 1.516 1_455 S
C508 C509 1.502 . S
C508 C510 1.561 1_445 S
C508 C511 1.526 1_545 S
C509 H493 0.959 . S
C509 H494 0.959 1_545 S
C509 H495 0.961 . S
C509 C508 1.502 . S
C510 H496 0.960 1_565 S
C510 H497 0.962 1_655 S
C510 H498 0.959 . S
C510 C508 1.561 1_665 S
C511 C508 1.526 1_565 S
C511 C512 1.396 1_455 S
C511 C516 1.390 . S
C512 C506 1.465 1_565 S
C512 C511 1.396 1_655 S
C512 C513 1.399 . S
C513 H499 0.929 . S
C513 C512 1.399 . S
C513 C514 1.385 1_655 S
C514 H500 0.931 . S
C514 C513 1.385 1_455 S
C514 C515 1.389 . S
C515 C514 1.389 . S
C515 C516 1.387 . S
C516 H501 0.930 . S
C516 C511 1.390 . S
C516 C515 1.387 . S
H517 C529 0.930 1_545 S
H518 C531 0.930 . S
H519 C532 0.930 . S
H520 C536 0.959 . S
H521 C536 0.959 . S
H522 C536 0.961 . S
H523 C537 0.960 . S
H524 C537 0.961 1_455 S
H525 C537 0.959 . S
H526 C540 0.929 . S
H527 C541 0.931 . S
H528 C543 0.930 . S
C529 H517 0.930 1_565 S
C529 C530 1.399 . S
C529 C534 1.399 1_565 S
C530 C529 1.399 . S
C530 C531 1.376 . S
C531 H518 0.930 . S
C531 C530 1.376 . S
C531 C532 1.388 . S
C532 H519 0.930 . S
C532 C531 1.388 . S
C532 C533 1.390 . S
C533 C532 1.390 . S
C533 C534 1.394 1_565 S
C533 C539 1.465 1_655 S
C534 C529 1.399 1_545 S
C534 C533 1.394 1_545 S
C534 C535 1.516 . S
C535 C534 1.516 . S
C535 C536 1.502 . S
C535 C537 1.561 . S
C535 C538 1.526 1_655 S
C536 H520 0.959 . S
C536 H521 0.959 . S
C536 H522 0.961 . S
C536 C535 1.502 . S
C537 H523 0.960 . S
C537 H524 0.961 1_655 S
C537 H525 0.959 . S
C537 C535 1.561 . S
C538 C535 1.526 1_455 S
C538 C539 1.396 1_545 S
C538 C543 1.390 . S
C539 C533 1.465 1_455 S
C539 C538 1.396 1_565 S
C539 C540 1.399 . S
C540 H526 0.929 . S
C540 C539 1.399 . S
C540 C541 1.385 . S
C541 H527 0.931 . S
C541 C540 1.385 . S
C541 C542 1.389 1_565 S
C542 C541 1.389 1_545 S
C542 C543 1.387 . S
C543 H528 0.930 . S
C543 C538 1.390 . S
C543 C542 1.387 . S
C125 C6 1.458 . S
C137 C34 1.482 . S
C152 C49 1.451 . S
C164 C21 1.485 . S
C179 C90 1.452 . S
C191 C62 1.485 . S
C206 C77 1.454 . S
C218 C105 1.484 . S
C233 C92 1.431 . S
C245 C8 1.364 . S
C260 C23 1.409 . S
C272 C107 1.308 . S
C287 C36 1.438 . S
C299 C64 1.349 . S
C314 C79 1.426 . S
C326 C51 1.305 . S
C341 C7 1.646 . S
C353 C76 1.638 . S
C368 C91 1.666 . S
C380 C20 1.665 . S
C395 C104 1.654 . S
C407 C35 1.645 . S
C422 C48 1.657 . S
C434 C63 1.648 . S
C449 C9 1.289 . S
C461 C37 1.237 . S
C476 C50 1.220 . S
C488 C22 1.265 . S
C503 C93 1.218 . S
C515 C65 1.269 . S
C530 C106 1.212 . S
C542 C78 1.287 . S
