# Generated by pormake.
# Topology cha, (4)-cn, num edge types: 1
# Building blocks:
#     Node 0, Type 0, BuildingBlock: CEKHIL_clean_sbu_0, # of connection points: 4
#     Node 1, Type 0, BuildingBlock: CEKHIL_clean_sbu_0, # of connection points: 4
#     Node 2, Type 0, BuildingBlock: CEKHIL_clean_sbu_0, # of connection points: 4
#     Node 3, Type 0, BuildingBlock: CEKHIL_clean_sbu_0, # of connection points: 4
#     Node 4, Type 0, BuildingBlock: CEKHIL_clean_sbu_0, # of connection points: 4
#     Node 5, Type 0, BuildingBlock: CEKHIL_clean_sbu_0, # of connection points: 4
#     Node 6, Type 0, BuildingBlock: CEKHIL_clean_sbu_0, # of connection points: 4
#     Node 7, Type 0, BuildingBlock: CEKHIL_clean_sbu_0, # of connection points: 4
#     Node 8, Type 0, BuildingBlock: CEKHIL_clean_sbu_0, # of connection points: 4
#     Node 9, Type 0, BuildingBlock: CEKHIL_clean_sbu_0, # of connection points: 4
#     Node 10, Type 0, BuildingBlock: CEKHIL_clean_sbu_0, # of connection points: 4
#     Node 11, Type 0, BuildingBlock: CEKHIL_clean_sbu_0, # of connection points: 4
#     Node 12, Type 0, BuildingBlock: CEKHIL_clean_sbu_0, # of connection points: 4
#     Node 13, Type 0, BuildingBlock: CEKHIL_clean_sbu_0, # of connection points: 4
#     Node 14, Type 0, BuildingBlock: CEKHIL_clean_sbu_0, # of connection points: 4
#     Node 15, Type 0, BuildingBlock: CEKHIL_clean_sbu_0, # of connection points: 4
#     Node 16, Type 0, BuildingBlock: CEKHIL_clean_sbu_0, # of connection points: 4
#     Node 17, Type 0, BuildingBlock: CEKHIL_clean_sbu_0, # of connection points: 4
#     Node 18, Type 0, BuildingBlock: CEKHIL_clean_sbu_0, # of connection points: 4
#     Node 19, Type 0, BuildingBlock: CEKHIL_clean_sbu_0, # of connection points: 4
#     Node 20, Type 0, BuildingBlock: CEKHIL_clean_sbu_0, # of connection points: 4
#     Node 21, Type 0, BuildingBlock: CEKHIL_clean_sbu_0, # of connection points: 4
#     Node 22, Type 0, BuildingBlock: CEKHIL_clean_sbu_0, # of connection points: 4
#     Node 23, Type 0, BuildingBlock: CEKHIL_clean_sbu_0, # of connection points: 4
#     Node 24, Type 0, BuildingBlock: CEKHIL_clean_sbu_0, # of connection points: 4
#     Node 25, Type 0, BuildingBlock: CEKHIL_clean_sbu_0, # of connection points: 4
#     Node 26, Type 0, BuildingBlock: CEKHIL_clean_sbu_0, # of connection points: 4
#     Node 27, Type 0, BuildingBlock: CEKHIL_clean_sbu_0, # of connection points: 4
#     Node 28, Type 0, BuildingBlock: CEKHIL_clean_sbu_0, # of connection points: 4
#     Node 29, Type 0, BuildingBlock: CEKHIL_clean_sbu_0, # of connection points: 4
#     Node 30, Type 0, BuildingBlock: CEKHIL_clean_sbu_0, # of connection points: 4
#     Node 31, Type 0, BuildingBlock: CEKHIL_clean_sbu_0, # of connection points: 4
#     Node 32, Type 0, BuildingBlock: CEKHIL_clean_sbu_0, # of connection points: 4
#     Node 33, Type 0, BuildingBlock: CEKHIL_clean_sbu_0, # of connection points: 4
#     Node 34, Type 0, BuildingBlock: CEKHIL_clean_sbu_0, # of connection points: 4
#     Node 35, Type 0, BuildingBlock: CEKHIL_clean_sbu_0, # of connection points: 4
#     Edge 36, Type (0, 0), BuildingBlock: AJUNOK_clean_linker_0, # of connection points: 2
#     Edge 37, Type (0, 0), BuildingBlock: AJUNOK_clean_linker_0, # of connection points: 2
#     Edge 38, Type (0, 0), BuildingBlock: AJUNOK_clean_linker_0, # of connection points: 2
#     Edge 39, Type (0, 0), BuildingBlock: AJUNOK_clean_linker_0, # of connection points: 2
#     Edge 40, Type (0, 0), BuildingBlock: AJUNOK_clean_linker_0, # of connection points: 2
#     Edge 41, Type (0, 0), BuildingBlock: AJUNOK_clean_linker_0, # of connection points: 2
#     Edge 42, Type (0, 0), BuildingBlock: AJUNOK_clean_linker_0, # of connection points: 2
#     Edge 43, Type (0, 0), BuildingBlock: AJUNOK_clean_linker_0, # of connection points: 2
#     Edge 44, Type (0, 0), BuildingBlock: AJUNOK_clean_linker_0, # of connection points: 2
#     Edge 45, Type (0, 0), BuildingBlock: AJUNOK_clean_linker_0, # of connection points: 2
#     Edge 46, Type (0, 0), BuildingBlock: AJUNOK_clean_linker_0, # of connection points: 2
#     Edge 47, Type (0, 0), BuildingBlock: AJUNOK_clean_linker_0, # of connection points: 2
#     Edge 48, Type (0, 0), BuildingBlock: AJUNOK_clean_linker_0, # of connection points: 2
#     Edge 49, Type (0, 0), BuildingBlock: AJUNOK_clean_linker_0, # of connection points: 2
#     Edge 50, Type (0, 0), BuildingBlock: AJUNOK_clean_linker_0, # of connection points: 2
#     Edge 51, Type (0, 0), BuildingBlock: AJUNOK_clean_linker_0, # of connection points: 2
#     Edge 52, Type (0, 0), BuildingBlock: AJUNOK_clean_linker_0, # of connection points: 2
#     Edge 53, Type (0, 0), BuildingBlock: AJUNOK_clean_linker_0, # of connection points: 2
#     Edge 54, Type (0, 0), BuildingBlock: AJUNOK_clean_linker_0, # of connection points: 2
#     Edge 55, Type (0, 0), BuildingBlock: AJUNOK_clean_linker_0, # of connection points: 2
#     Edge 56, Type (0, 0), BuildingBlock: AJUNOK_clean_linker_0, # of connection points: 2
#     Edge 57, Type (0, 0), BuildingBlock: AJUNOK_clean_linker_0, # of connection points: 2
#     Edge 58, Type (0, 0), BuildingBlock: AJUNOK_clean_linker_0, # of connection points: 2
#     Edge 59, Type (0, 0), BuildingBlock: AJUNOK_clean_linker_0, # of connection points: 2
#     Edge 60, Type (0, 0), BuildingBlock: AJUNOK_clean_linker_0, # of connection points: 2
#     Edge 61, Type (0, 0), BuildingBlock: AJUNOK_clean_linker_0, # of connection points: 2
#     Edge 62, Type (0, 0), BuildingBlock: AJUNOK_clean_linker_0, # of connection points: 2
#     Edge 63, Type (0, 0), BuildingBlock: AJUNOK_clean_linker_0, # of connection points: 2
#     Edge 64, Type (0, 0), BuildingBlock: AJUNOK_clean_linker_0, # of connection points: 2
#     Edge 65, Type (0, 0), BuildingBlock: AJUNOK_clean_linker_0, # of connection points: 2
#     Edge 66, Type (0, 0), BuildingBlock: AJUNOK_clean_linker_0, # of connection points: 2
#     Edge 67, Type (0, 0), BuildingBlock: AJUNOK_clean_linker_0, # of connection points: 2
#     Edge 68, Type (0, 0), BuildingBlock: AJUNOK_clean_linker_0, # of connection points: 2
#     Edge 69, Type (0, 0), BuildingBlock: AJUNOK_clean_linker_0, # of connection points: 2
#     Edge 70, Type (0, 0), BuildingBlock: AJUNOK_clean_linker_0, # of connection points: 2
#     Edge 71, Type (0, 0), BuildingBlock: AJUNOK_clean_linker_0, # of connection points: 2
#     Edge 72, Type (0, 0), BuildingBlock: AJUNOK_clean_linker_0, # of connection points: 2
#     Edge 73, Type (0, 0), BuildingBlock: AJUNOK_clean_linker_0, # of connection points: 2
#     Edge 74, Type (0, 0), BuildingBlock: AJUNOK_clean_linker_0, # of connection points: 2
#     Edge 75, Type (0, 0), BuildingBlock: AJUNOK_clean_linker_0, # of connection points: 2
#     Edge 76, Type (0, 0), BuildingBlock: AJUNOK_clean_linker_0, # of connection points: 2
#     Edge 77, Type (0, 0), BuildingBlock: AJUNOK_clean_linker_0, # of connection points: 2
#     Edge 78, Type (0, 0), BuildingBlock: AJUNOK_clean_linker_0, # of connection points: 2
#     Edge 79, Type (0, 0), BuildingBlock: AJUNOK_clean_linker_0, # of connection points: 2
#     Edge 80, Type (0, 0), BuildingBlock: AJUNOK_clean_linker_0, # of connection points: 2
#     Edge 81, Type (0, 0), BuildingBlock: AJUNOK_clean_linker_0, # of connection points: 2
#     Edge 82, Type (0, 0), BuildingBlock: AJUNOK_clean_linker_0, # of connection points: 2
#     Edge 83, Type (0, 0), BuildingBlock: AJUNOK_clean_linker_0, # of connection points: 2
#     Edge 84, Type (0, 0), BuildingBlock: AJUNOK_clean_linker_0, # of connection points: 2
#     Edge 85, Type (0, 0), BuildingBlock: AJUNOK_clean_linker_0, # of connection points: 2
#     Edge 86, Type (0, 0), BuildingBlock: AJUNOK_clean_linker_0, # of connection points: 2
#     Edge 87, Type (0, 0), BuildingBlock: AJUNOK_clean_linker_0, # of connection points: 2
#     Edge 88, Type (0, 0), BuildingBlock: AJUNOK_clean_linker_0, # of connection points: 2
#     Edge 89, Type (0, 0), BuildingBlock: AJUNOK_clean_linker_0, # of connection points: 2
#     Edge 90, Type (0, 0), BuildingBlock: AJUNOK_clean_linker_0, # of connection points: 2
#     Edge 91, Type (0, 0), BuildingBlock: AJUNOK_clean_linker_0, # of connection points: 2
#     Edge 92, Type (0, 0), BuildingBlock: AJUNOK_clean_linker_0, # of connection points: 2
#     Edge 93, Type (0, 0), BuildingBlock: AJUNOK_clean_linker_0, # of connection points: 2
#     Edge 94, Type (0, 0), BuildingBlock: AJUNOK_clean_linker_0, # of connection points: 2
#     Edge 95, Type (0, 0), BuildingBlock: AJUNOK_clean_linker_0, # of connection points: 2
#     Edge 96, Type (0, 0), BuildingBlock: AJUNOK_clean_linker_0, # of connection points: 2
#     Edge 97, Type (0, 0), BuildingBlock: AJUNOK_clean_linker_0, # of connection points: 2
#     Edge 98, Type (0, 0), BuildingBlock: AJUNOK_clean_linker_0, # of connection points: 2
#     Edge 99, Type (0, 0), BuildingBlock: AJUNOK_clean_linker_0, # of connection points: 2
#     Edge 100, Type (0, 0), BuildingBlock: AJUNOK_clean_linker_0, # of connection points: 2
#     Edge 101, Type (0, 0), BuildingBlock: AJUNOK_clean_linker_0, # of connection points: 2
#     Edge 102, Type (0, 0), BuildingBlock: AJUNOK_clean_linker_0, # of connection points: 2
#     Edge 103, Type (0, 0), BuildingBlock: AJUNOK_clean_linker_0, # of connection points: 2
#     Edge 104, Type (0, 0), BuildingBlock: AJUNOK_clean_linker_0, # of connection points: 2
#     Edge 105, Type (0, 0), BuildingBlock: AJUNOK_clean_linker_0, # of connection points: 2
#     Edge 106, Type (0, 0), BuildingBlock: AJUNOK_clean_linker_0, # of connection points: 2
#     Edge 107, Type (0, 0), BuildingBlock: AJUNOK_clean_linker_0, # of connection points: 2
# Relax obj value: 0.072
# Max RMSD: 0.096
# Mean RMSD: 0.096
data_MOF--net-cha--node1-CEKHIL_clean_sbu_0--edge1-AJUNOK_clean_linker_0
_symmetry_space_group_name_H-M    P1
_symmetry_Int_Tables_number       1
_symmetry_cell_setting            triclinic
loop_
_symmetry_equiv_pos_as_xyz
'x, y, z'
_cell_length_a     39.643092
_cell_length_b     39.623521
_cell_length_c     62.411052
_cell_angle_alpha  89.997327
_cell_angle_beta   90.002299
_cell_angle_gamma 119.93159
loop_
_atom_site_label
_atom_site_type_symbol
_atom_site_fract_x
_atom_site_fract_y
_atom_site_fract_z
_atom_type_partial_charge
Co0 Co 0.03885 0.30308 0.1017 0.0
O1 O 0.04103 0.30025 0.13246 0.0
O2 O 0.01269 0.32797 0.11513 0.0
C3 C 0.10226 0.32166 0.09643 0.0
O4 O 0.03188 0.31203 0.06991 0.0
Co5 Co 0.05721 0.24969 0.07307 0.0
O6 O 0.06099 0.28615 0.05021 0.0
C7 C 0.98226 0.21677 0.09635 0.0
C8 C 0.02202 0.31895 0.13341 0.0
C9 C 0.04465 0.30674 0.0519 0.0
O10 O 0.98873 0.25111 0.1012 0.0
O11 O 0.0074 0.21041 0.08709 0.0
O12 O 0.09259 0.34756 0.10139 0.0
O13 O 0.07416 0.28618 0.0964 0.0
Co14 Co 0.74996 0.7633 0.10156 0.0
O15 O 0.75384 0.77072 0.13224 0.0
O16 O 0.72527 0.71348 0.11614 0.0
C17 C 0.7316 0.80805 0.09474 0.0
O18 O 0.73922 0.7442 0.07031 0.0
Co19 Co 0.80327 0.83179 0.07123 0.0
O20 O 0.76849 0.79652 0.04863 0.0
C21 C 0.83615 0.79225 0.09651 0.0
C22 C 0.73499 0.7331 0.134 0.0
C23 C 0.74578 0.76027 0.05163 0.0
O24 O 0.80174 0.76445 0.10123 0.0
O25 O 0.84255 0.82327 0.08672 0.0
O26 O 0.70585 0.77318 0.10087 0.0
O27 O 0.76704 0.81522 0.09473 0.0
Co28 Co 0.29285 0.01822 0.10175 0.0
O29 O 0.28774 0.01678 0.13247 0.0
O30 O 0.3438 0.04333 0.11522 0.0
C31 C 0.24694 0.95527 0.09674 0.0
O32 O 0.30852 0.02374 0.06993 0.0
Co33 Co 0.22163 0.00138 0.07307 0.0
O34 O 0.25305 0.99431 0.05069 0.0
C35 C 0.26499 0.07629 0.09622 0.0
C36 C 0.32537 0.03478 0.13348 0.0
C37 C 0.28988 0.00978 0.05217 0.0
O38 O 0.29254 0.06922 0.10088 0.0
O39 O 0.23323 0.05151 0.08708 0.0
O40 O 0.28215 0.96396 0.10184 0.0
O41 O 0.24052 0.98404 0.09652 0.0
Co42 Co 0.30624 0.04259 0.91672 0.0
O43 O 0.30221 0.04647 0.88627 0.0
O44 O 0.33144 0.01792 0.90176 0.0
C45 C 0.32409 0.10546 0.92352 0.0
O46 O 0.31631 0.03456 0.94821 0.0
Co47 Co 0.25035 0.05678 0.94564 0.0
O48 O 0.28481 0.05707 0.96867 0.0
C49 C 0.22005 0.98464 0.92055 0.0
C50 C 0.32124 0.02802 0.88408 0.0
C51 C 0.30838 0.04428 0.96651 0.0
O52 O 0.25493 0.99174 0.91679 0.0
O53 O 0.21244 0.00899 0.92969 0.0
O54 O 0.35012 0.09662 0.91756 0.0
O55 O 0.28874 0.07707 0.92324 0.0
Co56 Co 0.02196 0.29421 0.91693 0.0
O57 O 0.0246 0.29027 0.88628 0.0
O58 O 0.04192 0.34505 0.90364 0.0
C59 C 0.96157 0.24151 0.91968 0.0
O60 O 0.02244 0.30866 0.94876 0.0
Co61 Co 0.0111 0.22723 0.94711 0.0
O62 O 0.99211 0.25262 0.96718 0.0
C63 C 0.08909 0.28206 0.92932 0.0
C64 C 0.03786 0.32744 0.88538 0.0
C65 C 0.00628 0.28928 0.96604 0.0
O66 O 0.07644 0.30254 0.91994 0.0
O67 O 0.06745 0.25088 0.93987 0.0
O68 O 0.9657 0.27529 0.91484 0.0
O69 O 0.99347 0.24071 0.92153 0.0
Co70 Co 0.75877 0.74515 0.91774 0.0
O71 O 0.76451 0.75197 0.88713 0.0
O72 O 0.70841 0.71674 0.90374 0.0
C73 C 0.8087 0.73321 0.92209 0.0
O74 O 0.74214 0.73118 0.9493 0.0
Co75 Co 0.82599 0.80087 0.94787 0.0
O76 O 0.79659 0.75975 0.96928 0.0
C77 C 0.77374 0.8262 0.92931 0.0
C78 C 0.72711 0.72981 0.88573 0.0
C79 C 0.76033 0.73616 0.96725 0.0
O80 O 0.75275 0.79289 0.92027 0.0
O81 O 0.80474 0.83537 0.93992 0.0
O82 O 0.77462 0.70533 0.91628 0.0
O83 O 0.81206 0.76723 0.92331 0.0
Co84 Co 0.01845 0.75417 0.91636 0.0
O85 O 0.01628 0.75721 0.88562 0.0
O86 O 0.04362 0.72834 0.90279 0.0
C87 C 0.95541 0.73706 0.92198 0.0
O88 O 0.02498 0.74459 0.94821 0.0
Co89 Co 0.00339 0.81024 0.94444 0.0
O90 O 0.00181 0.77614 0.96806 0.0
C91 C 0.07619 0.84037 0.92005 0.0
C92 C 0.0348 0.73803 0.88456 0.0
C93 C 0.01469 0.75258 0.96632 0.0
O94 O 0.0694 0.80545 0.91666 0.0
O95 O 0.05146 0.84795 0.9287 0.0
O96 O 0.96419 0.71062 0.91676 0.0
O97 O 0.98405 0.77229 0.92177 0.0
Co98 Co 0.31432 0.3003 0.91936 0.0
O99 O 0.30817 0.29349 0.88876 0.0
O100 O 0.3417 0.35033 0.90493 0.0
C101 C 0.32796 0.25174 0.9246 0.0
O102 O 0.3272 0.31812 0.95082 0.0
Co103 Co 0.25979 0.23327 0.95002 0.0
O104 O 0.30007 0.26448 0.97148 0.0
C105 C 0.23261 0.28343 0.9304 0.0
C106 C 0.32938 0.33097 0.88706 0.0
C107 C 0.32237 0.30093 0.9691 0.0
O108 O 0.26566 0.30467 0.92118 0.0
O109 O 0.22435 0.25314 0.94152 0.0
O110 O 0.3553 0.28602 0.91866 0.0
O111 O 0.29353 0.24736 0.92551 0.0
Co112 Co 0.7614 0.03588 0.91723 0.0
O113 O 0.76803 0.03345 0.88688 0.0
O114 O 0.71183 0.01653 0.90241 0.0
C115 C 0.81429 0.09597 0.9206 0.0
O116 O 0.74464 0.03555 0.94863 0.0
Co117 Co 0.82589 0.04595 0.94917 0.0
O118 O 0.79964 0.06594 0.96794 0.0
C119 C 0.77221 0.96828 0.93047 0.0
C120 C 0.73118 0.02076 0.88476 0.0
C121 C 0.76311 0.05203 0.9661 0.0
O122 O 0.75237 0.98119 0.92062 0.0
O123 O 0.80268 0.98969 0.94161 0.0
O124 O 0.78108 0.09231 0.91491 0.0
O125 O 0.8144 0.0638 0.92303 0.0
Co126 Co 0.75094 0.01513 0.1008 0.0
O127 O 0.75569 0.0109 0.13126 0.0
O128 O 0.72673 0.04014 0.11627 0.0
C129 C 0.732 0.952 0.09377 0.0
O130 O 0.73992 0.02401 0.06963 0.0
Co131 Co 0.8038 -0.00026 0.07014 0.0
O132 O 0.7684 8e-05 0.04788 0.0
C133 C 0.8371 0.07231 0.09531 0.0
C134 C 0.73693 0.02958 0.13376 0.0
C135 C 0.74617 0.01423 0.05091 0.0
O136 O 0.80276 0.06554 0.10038 0.0
O137 O 0.84343 0.04779 0.08532 0.0
O138 O 0.70656 0.96138 0.10014 0.0
O139 O 0.76752 0.98007 0.09358 0.0
Co140 Co 0.04 0.76638 0.1019 0.0
O141 O 0.04249 0.77312 0.13242 0.0
O142 O 0.01501 0.71595 0.11638 0.0
C143 C 0.10297 0.81179 0.09636 0.0
O144 O 0.03376 0.74987 0.07014 0.0
Co145 Co 0.05646 0.83744 0.07306 0.0
O146 O 0.06324 0.80547 0.05091 0.0
C147 C 0.98201 0.79448 0.09659 0.0
C148 C 0.02451 0.73565 0.13426 0.0
C149 C 0.04783 0.76861 0.05239 0.0
O150 O 0.98916 0.76696 0.1012 0.0
O151 O 0.00664 0.82618 0.08733 0.0
O152 O 0.09409 0.77665 0.10176 0.0
O153 O 0.07436 0.81844 0.09617 0.0
Co154 Co 0.2936 0.30731 0.10285 0.0
O155 O 0.28595 0.30176 0.13337 0.0
O156 O 0.34343 0.33244 0.11767 0.0
C157 C 0.24757 0.32422 0.09711 0.0
O158 O 0.31203 0.31941 0.07152 0.0
Co159 Co 0.2251 0.25483 0.07211 0.0
O160 O 0.25842 0.29464 0.05077 0.0
C161 C 0.26642 0.22189 0.09616 0.0
C162 C 0.32343 0.32135 0.13541 0.0
C163 C 0.29507 0.3159 0.0533 0.0
O164 O 0.29362 0.25618 0.1016 0.0
O165 O 0.23546 0.21553 0.08628 0.0
O166 O 0.28231 0.35057 0.10307 0.0
O167 O 0.24165 0.28925 0.09636 0.0
Co168 Co 0.70808 0.6418 0.43592 0.0
O169 O 0.70979 0.63742 0.46662 0.0
O170 O 0.68264 0.66692 0.44987 0.0
C171 C 0.7711 0.65901 0.43047 0.0
O172 O 0.70196 0.65269 0.4043 0.0
Co173 Co 0.72442 0.58807 0.4064 0.0
O174 O 0.73023 0.62643 0.3842 0.0
C175 C 0.65096 0.55594 0.4309 0.0
C176 C 0.6911 0.65641 0.46795 0.0
C177 C 0.71518 0.64813 0.38625 0.0
O178 O 0.65734 0.59047 0.43507 0.0
O179 O 0.67567 0.54917 0.42147 0.0
O180 O 0.76235 0.68537 0.43597 0.0
O181 O 0.74235 0.62387 0.43009 0.0
Co182 Co 0.41889 0.09818 0.43525 0.0
O183 O 0.4218 0.10354 0.46599 0.0
O184 O 0.39275 0.04731 0.44888 0.0
C185 C 0.40203 0.14428 0.42942 0.0
O186 O 0.40924 0.08185 0.40347 0.0
Co187 Co 0.4753 0.16911 0.40709 0.0
O188 O 0.44163 0.13623 0.38347 0.0
C189 C 0.50505 0.12647 0.43199 0.0
C190 C 0.4023 0.06587 0.46709 0.0
C191 C 0.41758 0.09998 0.38531 0.0
O192 O 0.47012 0.09823 0.43509 0.0
O193 O 0.51274 0.15871 0.42321 0.0
O194 O 0.3755 0.1092 0.43472 0.0
O195 O 0.4372 0.15068 0.42969 0.0
Co196 Co 0.95745 0.35104 0.43489 0.0
O197 O 0.9499 0.34788 0.4654 0.0
O198 O 0.0074 0.37569 0.44974 0.0
C199 C 0.91233 0.28821 0.42874 0.0
O200 O 0.97494 0.35799 0.40329 0.0
Co201 Co 0.88738 0.33527 0.40541 0.0
O202 O 0.91999 0.32888 0.38353 0.0
C203 C 0.92906 0.40877 0.42989 0.0
C204 C 0.98732 0.3659 0.46749 0.0
C205 C 0.95677 0.34419 0.38537 0.0
O206 O 0.95678 0.40186 0.43439 0.0
O207 O 0.89774 0.38439 0.42025 0.0
O208 O 0.94729 0.297 0.43446 0.0
O209 O 0.90559 0.31678 0.42864 0.0
Co210 Co 0.9684 0.37146 0.24986 0.0
O211 O 0.96368 0.37391 0.21933 0.0
O212 O 0.99578 0.34875 0.2352 0.0
C213 C 0.98267 0.4336 0.25589 0.0
O214 O 0.97976 0.36531 0.28146 0.0
Co215 Co 0.91132 0.38273 0.27914 0.0
O216 O 0.94904 0.38887 0.30169 0.0
C217 C 0.88341 0.3106 0.25435 0.0
C218 C 0.98442 0.3572 0.21739 0.0
C219 C 0.97292 0.37646 0.29963 0.0
O220 O 0.91867 0.31909 0.25039 0.0
O221 O 0.87462 0.33403 0.26355 0.0
O222 O 0.01007 0.42654 0.25017 0.0
O223 O 0.94814 0.40379 0.256 0.0
Co224 Co 0.68336 0.63262 0.25195 0.0
O225 O 0.6823 0.62428 0.22158 0.0
O226 O 0.70511 0.68197 0.23661 0.0
C227 C 0.62157 0.58363 0.25749 0.0
O228 O 0.68838 0.65143 0.28328 0.0
Co229 Co 0.67225 0.56722 0.28345 0.0
O230 O 0.66035 0.59785 0.30393 0.0
C231 C 0.74896 0.61699 0.26327 0.0
C232 C 0.69792 0.66152 0.2191 0.0
C233 C 0.67502 0.63436 0.3015 0.0
O234 O 0.73668 0.63767 0.25381 0.0
O235 O 0.72744 0.58715 0.2748 0.0
O236 O 0.62792 0.61759 0.25126 0.0
O237 O 0.65198 0.57987 0.25864 0.0
Co238 Co 0.43096 0.08469 0.24999 0.0
O239 O 0.43792 0.08901 0.21949 0.0
O240 O 0.38068 0.05955 0.23546 0.0
C241 C 0.47634 0.06703 0.25574 0.0
O242 O 0.41423 0.0747 0.28167 0.0
Co243 Co 0.50189 0.13937 0.27886 0.0
O244 O 0.46952 0.10132 0.30118 0.0
C245 C 0.45878 0.1706 0.25523 0.0
C246 C 0.40046 0.06996 0.21761 0.0
C247 C 0.43268 0.07999 0.29957 0.0
O248 O 0.43138 0.13597 0.25065 0.0
O249 O 0.49059 0.17786 0.26444 0.0
O250 O 0.44125 0.04083 0.25027 0.0
O251 O 0.48295 0.10228 0.25585 0.0
Co252 Co 0.68181 0.08063 0.25008 0.0
O253 O 0.67995 0.08364 0.21938 0.0
O254 O 0.70644 0.05403 0.23666 0.0
C255 C 0.61915 0.06466 0.25532 0.0
O256 O 0.68772 0.07157 0.28203 0.0
Co257 Co 0.66643 0.13725 0.27784 0.0
O258 O 0.65972 0.09977 0.30077 0.0
C259 C 0.74044 0.16638 0.25422 0.0
C260 C 0.69799 0.06401 0.21838 0.0
C261 C 0.67445 0.07766 0.29966 0.0
O262 O 0.73306 0.13139 0.25044 0.0
O263 O 0.71605 0.17441 0.26294 0.0
O264 O 0.62728 0.03761 0.25043 0.0
O265 O 0.64823 0.09958 0.25512 0.0
Co266 Co 0.97149 0.62907 0.25053 0.0
O267 O 0.9655 0.6235 0.21984 0.0
O268 O 0.00041 0.67946 0.23665 0.0
C269 C 0.98305 0.57896 0.25515 0.0
O270 O 0.98467 0.64555 0.28219 0.0
Co271 Co 0.91547 0.56228 0.28066 0.0
O272 O 0.95713 0.59082 0.30192 0.0
C273 C 0.89055 0.61455 0.26169 0.0
C274 C 0.98783 0.66091 0.21855 0.0
C275 C 0.98011 0.62725 0.30006 0.0
O276 O 0.92386 0.63529 0.25261 0.0
O277 O 0.88128 0.58375 0.27253 0.0
O278 O 0.01115 0.61305 0.24952 0.0
O279 O 0.94907 0.57572 0.2561 0.0
Co280 Co 0.43229 0.3742 0.25096 0.0
O281 O 0.43715 0.37605 0.22019 0.0
O282 O 0.38126 0.34985 0.2376 0.0
C283 C 0.4789 0.43702 0.25651 0.0
O284 O 0.41643 0.36823 0.28277 0.0
Co285 Co 0.50304 0.38809 0.27895 0.0
O286 O 0.47115 0.391 0.30249 0.0
C287 C 0.45924 0.31513 0.25487 0.0
C288 C 0.39949 0.3583 0.2193 0.0
C289 C 0.43486 0.3787 0.3008 0.0
O290 O 0.43161 0.32263 0.25136 0.0
O291 O 0.4917 0.33947 0.26347 0.0
O292 O 0.44387 0.42878 0.2513 0.0
O293 O 0.48497 0.40799 0.25627 0.0
Co294 Co 0.42212 0.35269 0.4366 0.0
O295 O 0.42548 0.35054 0.46733 0.0
O296 O 0.39652 0.37793 0.45028 0.0
C297 C 0.40453 0.28956 0.43074 0.0
O298 O 0.41205 0.35902 0.40486 0.0
Co299 Co 0.47838 0.33764 0.40859 0.0
O300 O 0.44506 0.33755 0.38494 0.0
C301 C 0.50842 0.41056 0.43286 0.0
C302 C 0.40626 0.36901 0.46846 0.0
C303 C 0.42069 0.3494 0.38675 0.0
O304 O 0.47346 0.40371 0.43614 0.0
O305 O 0.51613 0.38591 0.42422 0.0
O306 O 0.37839 0.29856 0.43625 0.0
O307 O 0.43988 0.31799 0.431 0.0
Co308 Co 0.707 0.09864 0.43507 0.0
O309 O 0.7111 0.10662 0.46553 0.0
O310 O 0.68296 0.04887 0.45005 0.0
C311 C 0.76948 0.14403 0.42839 0.0
O312 O 0.69892 0.0807 0.40359 0.0
Co313 Co 0.72131 0.16823 0.40555 0.0
O314 O 0.72633 0.13518 0.38338 0.0
C315 C 0.64878 0.12638 0.4308 0.0
C316 C 0.69315 0.0692 0.46772 0.0
C317 C 0.71126 0.09844 0.38543 0.0
O318 O 0.65605 0.09886 0.4351 0.0
O319 O 0.67268 0.15776 0.42102 0.0
O320 O 0.76111 0.10916 0.43411 0.0
O321 O 0.74075 0.15049 0.42855 0.0
Co322 Co 0.96 0.64004 0.43514 0.0
O323 O 0.9548 0.63702 0.46588 0.0
O324 O 0.01091 0.66512 0.44866 0.0
C325 C 0.91474 0.65811 0.42979 0.0
O326 O 0.97618 0.64937 0.4034 0.0
Co327 Co 0.88888 0.58653 0.40623 0.0
O328 O 0.92143 0.62354 0.38356 0.0
C329 C 0.93028 0.55378 0.43034 0.0
C330 C 0.99246 0.65583 0.4669 0.0
C331 C 0.95826 0.64436 0.38537 0.0
O332 O 0.95851 0.58816 0.43469 0.0
O333 O 0.89891 0.54741 0.42095 0.0
O334 O 0.95014 0.68423 0.43484 0.0
O335 O 0.90781 0.62276 0.42969 0.0
Co336 Co 0.37411 0.97625 0.76741 0.0
O337 O 0.37338 0.96946 0.79803 0.0
O338 O 0.35049 0.00304 0.78143 0.0
C339 C 0.43652 0.99033 0.76334 0.0
O340 O 0.37068 0.98997 0.73594 0.0
Co341 Co 0.39027 0.92456 0.73625 0.0
O342 O 0.40255 0.96763 0.71599 0.0
C343 C 0.3115 0.89448 0.75519 0.0
C344 C 0.35708 0.99072 0.79944 0.0
C345 C 0.3862 0.9881 0.7181 0.0
O346 O 0.32174 0.92703 0.76473 0.0
O347 O 0.33482 0.88778 0.7442 0.0
O348 O 0.42915 0.01756 0.76897 0.0
O349 O 0.40665 0.95598 0.76171 0.0
Co350 Co 0.09055 0.43367 0.76899 0.0
O351 O 0.09472 0.44103 0.79954 0.0
O352 O 0.06491 0.38365 0.78369 0.0
C353 C 0.07343 0.47943 0.76263 0.0
O354 O 0.07984 0.41575 0.73743 0.0
Co355 Co 0.14604 0.50317 0.73976 0.0
O356 O 0.11089 0.46952 0.71682 0.0
C357 C 0.17657 0.46121 0.76468 0.0
C358 C 0.07518 0.40353 0.80149 0.0
C359 C 0.08724 0.43325 0.71909 0.0
O360 O 0.1417 0.43358 0.76865 0.0
O361 O 0.18405 0.49305 0.75546 0.0
O362 O 0.04713 0.44461 0.76848 0.0
O363 O 0.10861 0.48584 0.76266 0.0
Co364 Co 0.62601 0.68075 0.76802 0.0
O365 O 0.61704 0.67636 0.79846 0.0
O366 O 0.67519 0.70611 0.78347 0.0
C367 C 0.58242 0.61757 0.76084 0.0
O368 O 0.64588 0.68981 0.73689 0.0
Co369 Co 0.55749 0.66487 0.73742 0.0
O370 O 0.59345 0.66557 0.71519 0.0
C371 C 0.59626 0.73745 0.76258 0.0
C372 C 0.65444 0.69531 0.80096 0.0
C373 C 0.62982 0.67987 0.7182 0.0
O374 O 0.62399 0.7309 0.76765 0.0
O375 O 0.56552 0.7128 0.75261 0.0
O376 O 0.61725 0.62717 0.76728 0.0
O377 O 0.57458 0.64541 0.76075 0.0
Co378 Co 0.63651 0.70526 0.58501 0.0
O379 O 0.62774 0.70385 0.55466 0.0
O380 O 0.66245 0.68123 0.57015 0.0
C381 C 0.65109 0.76785 0.58856 0.0
O382 O 0.65198 0.70314 0.61631 0.0
Co383 Co 0.58674 0.7232 0.61675 0.0
O384 O 0.63198 0.73767 0.6357 0.0
C385 C 0.55521 0.64356 0.59861 0.0
C386 C 0.64921 0.68798 0.5525 0.0
C387 C 0.65181 0.7206 0.63379 0.0
O388 O 0.58724 0.65313 0.58864 0.0
O389 O 0.54934 0.66757 0.60949 0.0
O390 O 0.67789 0.76009 0.58262 0.0
O391 O 0.61683 0.73815 0.59086 0.0
Co392 Co 0.35071 0.96288 0.58438 0.0
O393 O 0.34955 0.95445 0.55393 0.0
O394 O 0.37203 0.01206 0.56904 0.0
C395 C 0.2891 0.91361 0.59015 0.0
O396 O 0.35585 0.98239 0.61551 0.0
Co397 Co 0.34025 0.89888 0.6166 0.0
O398 O 0.32787 0.92964 0.63673 0.0
C399 C 0.41672 0.94809 0.59612 0.0
C400 C 0.36483 0.9917 0.55152 0.0
C401 C 0.34256 0.96607 0.63388 0.0
O402 O 0.40419 0.96825 0.58627 0.0
O403 O 0.39544 0.91869 0.60797 0.0
O404 O 0.29519 0.94741 0.58377 0.0
O405 O 0.31969 0.91015 0.59139 0.0
Co406 Co 0.09502 0.41615 0.58338 0.0
O407 O 0.09955 0.41957 0.55267 0.0
O408 O 0.04374 0.3897 0.57011 0.0
C409 C 0.1418 0.4001 0.58809 0.0
O410 O 0.08049 0.40673 0.61541 0.0
Co411 Co 0.16721 0.47249 0.61098 0.0
O412 O 0.13681 0.43512 0.634 0.0
C413 C 0.1216 0.50179 0.58818 0.0
C414 C 0.06194 0.3999 0.55178 0.0
C415 C 0.1 0.41301 0.63301 0.0
O416 O 0.09427 0.46683 0.58418 0.0
O417 O 0.15416 0.50985 0.59671 0.0
O418 O 0.10662 0.37313 0.5833 0.0
O419 O 0.14758 0.43504 0.58814 0.0
Co420 Co 0.34957 0.41675 0.58531 0.0
O421 O 0.35066 0.42542 0.55495 0.0
O422 O 0.37459 0.39184 0.57043 0.0
C423 C 0.2866 0.40083 0.58915 0.0
O424 O 0.35255 0.40173 0.6166 0.0
Co425 Co 0.33095 0.466 0.61707 0.0
O426 O 0.31865 0.42184 0.63649 0.0
C427 C 0.4105 0.49854 0.59876 0.0
C428 C 0.36768 0.40499 0.55279 0.0
C429 C 0.33618 0.40248 0.63438 0.0
O430 O 0.40119 0.46657 0.5888 0.0
O431 O 0.38636 0.50408 0.60973 0.0
O432 O 0.29502 0.37454 0.58307 0.0
O433 O 0.31586 0.43542 0.59133 0.0
Co434 Co 0.64017 0.96287 0.58385 0.0
O435 O 0.63511 0.95817 0.55322 0.0
O436 O 0.66859 0.01392 0.57044 0.0
C437 C 0.65293 0.91372 0.58777 0.0
O438 O 0.65151 0.97753 0.6158 0.0
Co439 Co 0.58392 0.89295 0.61272 0.0
O440 O 0.62553 0.92117 0.63414 0.0
C441 C 0.55821 0.94546 0.59432 0.0
C442 C 0.65681 0.99563 0.5522 0.0
C443 C 0.64711 0.95803 0.63321 0.0
O444 O 0.59172 0.96742 0.58575 0.0
O445 O 0.5492 0.9142 0.60469 0.0
O446 O 0.68089 0.94835 0.58288 0.0
O447 O 0.61866 0.90974 0.5886 0.0
Co448 Co 0.09652 0.70616 0.58384 0.0
O449 O 0.1047 0.70887 0.55334 0.0
O450 O 0.04706 0.68387 0.56874 0.0
C451 C 0.14436 0.76818 0.59029 0.0
O452 O 0.07742 0.69959 0.61509 0.0
Co453 Co 0.16272 0.71691 0.61461 0.0
O454 O 0.1303 0.7237 0.63637 0.0
C455 C 0.12014 0.64499 0.58936 0.0
C456 C 0.06732 0.69239 0.55111 0.0
C457 C 0.09411 0.71086 0.63356 0.0
O458 O 0.09376 0.65366 0.58454 0.0
O459 O 0.15155 0.66816 0.59928 0.0
O460 O 0.11019 0.76135 0.58414 0.0
O461 O 0.14889 0.7382 0.5907 0.0
Co462 Co 0.08635 0.68582 0.76742 0.0
O463 O 0.09459 0.68599 0.79784 0.0
O464 O 0.05989 0.70887 0.78261 0.0
C465 C 0.0721 0.62332 0.76243 0.0
O466 O 0.071 0.68944 0.73623 0.0
Co467 Co 0.13871 0.672 0.73573 0.0
O468 O 0.09649 0.66156 0.71533 0.0
C469 C 0.16801 0.74971 0.75517 0.0
C470 C 0.07319 0.70195 0.80018 0.0
C471 C 0.07407 0.67552 0.71806 0.0
O472 O 0.13522 0.73872 0.7646 0.0
O473 O 0.17538 0.72694 0.74414 0.0
O474 O 0.04531 0.63066 0.76896 0.0
O475 O 0.10648 0.65322 0.76083 0.0
Co476 Co 0.37691 0.42954 0.76866 0.0
O477 O 0.38163 0.43889 0.79903 0.0
O478 O 0.35226 0.38049 0.78433 0.0
C479 C 0.43978 0.47363 0.76118 0.0
O480 O 0.36778 0.40954 0.73751 0.0
Co481 Co 0.39139 0.49797 0.73825 0.0
O482 O 0.39045 0.46207 0.7159 0.0
C483 C 0.31979 0.4588 0.7641 0.0
C484 C 0.36302 0.40153 0.80172 0.0
C485 C 0.37715 0.4258 0.71884 0.0
O486 O 0.32645 0.4309 0.76856 0.0
O487 O 0.34419 0.48983 0.75426 0.0
O488 O 0.43072 0.43897 0.76769 0.0
O489 O 0.41165 0.48102 0.76125 0.0
Co490 Co 0.62399 0.96791 0.76877 0.0
O491 O 0.61868 0.9646 0.7995 0.0
O492 O 0.67485 0.99288 0.78234 0.0
C493 C 0.57883 0.98608 0.76358 0.0
O494 O 0.64016 0.9775 0.73702 0.0
Co495 Co 0.55289 0.91473 0.7398 0.0
O496 O 0.58537 0.95203 0.71722 0.0
C497 C 0.5949 0.88179 0.76316 0.0
C498 C 0.65633 0.98348 0.80056 0.0
C499 C 0.62223 0.97268 0.719 0.0
O500 O 0.62262 0.91612 0.76808 0.0
O501 O 0.5635 0.87543 0.7538 0.0
O502 O 0.61424 0.01213 0.76864 0.0
O503 O 0.57183 0.95071 0.76337 0.0
C504 C 0.14812 0.30361 0.08044 0.0
C505 C 0.14259 0.33034 0.09254 0.0
C506 C 0.18362 0.30428 0.08059 0.0
C507 C 0.21514 0.33165 0.09289 0.0
H508 H 0.12417 0.28047 0.07169 0.0
H509 H 0.18551 0.28161 0.07194 0.0
S510 S 0.21774 0.41194 0.12468 0.0
N511 N 0.17297 0.38813 0.11502 0.0
N512 N 0.24023 0.38933 0.11535 0.0
C513 C 0.21135 0.36096 0.10343 0.0
C514 C 0.17488 0.36031 0.10325 0.0
C515 C 0.69877 0.88157 0.10425 0.0
C516 C 0.72293 0.91152 0.09 0.0
C517 C 0.69868 0.84595 0.10449 0.0
C518 C 0.72277 0.83953 0.0905 0.0
H519 H 0.68236 0.88679 0.11638 0.0
H520 H 0.68221 0.82477 0.1168 0.0
S521 S 0.78392 0.90526 0.04692 0.0
N522 N 0.76597 0.92964 0.05927 0.0
N523 N 0.76585 0.86336 0.05971 0.0
C524 C 0.74376 0.86776 0.07485 0.0
C525 C 0.74382 0.90367 0.0746 0.0
C526 C 0.14773 0.87592 0.08041 0.0
C527 C 0.14296 0.84377 0.09232 0.0
C528 C 0.1829 0.91098 0.08052 0.0
C529 C 0.21481 0.9154 0.09254 0.0
H530 H 0.12345 0.87486 0.07188 0.0
H531 H 0.18422 0.93545 0.07206 0.0
S532 S 0.21945 0.83813 0.12364 0.0
N533 N 0.17447 0.81677 0.11426 0.0
N534 N 0.24117 0.88327 0.11446 0.0
C535 C 0.21181 0.88244 0.10283 0.0
C536 C 0.17566 0.8464 0.10272 0.0
C537 C 0.35875 0.17662 0.91454 0.0
C538 C 0.33263 0.14565 0.92768 0.0
C539 C 0.35955 0.21257 0.91476 0.0
C540 C 0.3342 0.21834 0.92808 0.0
H541 H 0.3765 0.17216 0.90295 0.0
H542 H 0.37799 0.23482 0.90337 0.0
S543 S 0.26723 0.14932 0.96891 0.0
N544 N 0.28605 0.12555 0.95681 0.0
N545 N 0.2873 0.19228 0.95715 0.0
C546 C 0.31085 0.18879 0.94263 0.0
C547 C 0.31015 0.15259 0.94245 0.0
C548 C 0.88839 0.20434 0.91657 0.0
C549 C 0.9233 0.20555 0.9224 0.0
C550 C 0.85264 0.16906 0.91682 0.0
C551 C 0.8507 0.13393 0.92297 0.0
H552 H 0.88882 0.23048 0.91106 0.0
H553 H 0.82668 0.16913 0.91147 0.0
S554 S 0.93331 0.12212 0.94168 0.0
N555 N 0.95294 0.16871 0.93588 0.0
N556 N 0.8866 0.10337 0.93656 0.0
C557 C 0.88519 0.13529 0.92983 0.0
C558 C 0.92127 0.17085 0.92948 0.0
C559 C 0.84836 0.70181 0.91267 0.0
C560 C 0.84266 0.72778 0.9255 0.0
C561 C 0.88426 0.70248 0.91273 0.0
C562 C 0.91524 0.72903 0.92571 0.0
H563 H 0.82602 0.68277 0.90149 0.0
H564 H 0.88861 0.68411 0.90154 0.0
S565 S 0.91184 0.79651 0.9657 0.0
N566 N 0.86899 0.77612 0.95387 0.0
N567 N 0.93538 0.7769 0.9542 0.0
C568 C 0.90839 0.7523 0.93997 0.0
C569 C 0.87232 0.75182 0.93982 0.0
C570 C 0.81551 0.63939 0.41409 0.0
C571 C 0.81104 0.66673 0.42625 0.0
C572 C 0.85058 0.63919 0.4139 0.0
C573 C 0.88277 0.66634 0.42587 0.0
H574 H 0.79105 0.61642 0.40555 0.0
H575 H 0.85165 0.61608 0.40524 0.0
S576 S 0.88829 0.74799 0.45764 0.0
N577 N 0.84318 0.72482 0.44844 0.0
N578 N 0.90965 0.72445 0.44808 0.0
C579 C 0.88006 0.69624 0.43645 0.0
C580 C 0.844 0.69644 0.43665 0.0
C581 C 0.37059 0.21856 0.44013 0.0
C582 C 0.39588 0.2493 0.4266 0.0
C583 C 0.36982 0.1826 0.43975 0.0
C584 C 0.39424 0.1766 0.4258 0.0
H585 H 0.35363 0.22325 0.45214 0.0
H586 H 0.35238 0.16066 0.45152 0.0
S587 S 0.45836 0.24463 0.38385 0.0
N588 N 0.44056 0.26878 0.39656 0.0
N589 N 0.4389 0.20184 0.39575 0.0
C590 C 0.41644 0.20575 0.41085 0.0
C591 C 0.41733 0.24204 0.41128 0.0
C592 C 0.84846 0.24358 0.41243 0.0
C593 C 0.88058 0.24826 0.42435 0.0
C594 C 0.81352 0.20826 0.41231 0.0
C595 C 0.80925 0.17617 0.4241 0.0
H596 H 0.84943 0.26804 0.40413 0.0
H597 H 0.78898 0.20693 0.40393 0.0
S598 S 0.88655 0.17128 0.455 0.0
N599 N 0.90772 0.21649 0.44595 0.0
N600 N 0.8415 0.14957 0.44573 0.0
C601 C 0.84222 0.17912 0.43433 0.0
C602 C 0.8781 0.21538 0.43445 0.0
C603 C 0.01673 0.50518 0.24762 0.0
C604 C 0.9888 0.47317 0.2595 0.0
C605 C 0.01656 0.54066 0.24733 0.0
C606 C 0.98835 0.54496 0.25882 0.0
H607 H 0.03712 0.50205 0.23744 0.0
H608 H 0.03699 0.56388 0.23702 0.0
S609 S 0.91458 0.47252 0.29597 0.0
N610 N 0.9367 0.45043 0.28568 0.0
N611 N 0.93588 0.51604 0.28487 0.0
C612 C 0.96261 0.51419 0.2721 0.0
C613 C 0.96299 0.47853 0.27251 0.0
C614 C 0.5505 0.54449 0.24826 0.0
C615 C 0.5822 0.5498 0.26092 0.0
C616 C 0.51543 0.50852 0.24804 0.0
C617 C 0.51123 0.477 0.26048 0.0
H618 H 0.55367 0.56723 0.2374 0.0
H619 H 0.49264 0.50457 0.23702 0.0
S620 S 0.58237 0.47912 0.29986 0.0
N621 N 0.60449 0.52257 0.28867 0.0
N622 N 0.53932 0.45582 0.2883 0.0
C623 C 0.54142 0.48338 0.27458 0.0
C624 C 0.57678 0.51962 0.27479 0.0
C625 C 0.54111 0.08704 0.27105 0.0
C626 C 0.50835 0.05899 0.25984 0.0
C627 C 0.57595 0.08645 0.27095 0.0
C628 C 0.57958 0.05778 0.25963 0.0
H629 H 0.54066 0.11108 0.27902 0.0
H630 H 0.60084 0.11006 0.27885 0.0
S631 S 0.50054 0.9738 0.23073 0.0
N632 N 0.47997 0.99865 0.23946 0.0
N633 N 0.54607 0.99755 0.23927 0.0
C634 C 0.54607 0.02727 0.2501 0.0
C635 C 0.51024 0.02788 0.25021 0.0
C636 C 0.47966 0.96793 0.74819 0.0
C637 C 0.47605 0.99641 0.75973 0.0
C638 C 0.51433 0.967 0.74817 0.0
C639 C 0.54698 0.99448 0.75969 0.0
H640 H 0.4549 0.9448 0.73993 0.0
H641 H 0.51476 0.94318 0.73992 0.0
S642 S 0.55477 0.0787 0.78984 0.0
N643 N 0.50948 0.05569 0.78091 0.0
N644 N 0.57521 0.05387 0.78089 0.0
C645 C 0.54509 0.02528 0.76972 0.0
C646 C 0.50944 0.02625 0.76974 0.0
C647 C 0.04004 0.51698 0.77225 0.0
C648 C 0.06544 0.51156 0.75879 0.0
C649 C 0.03995 0.55251 0.77228 0.0
C650 C 0.06536 0.58348 0.7589 0.0
H651 H 0.02229 0.49487 0.78387 0.0
H652 H 0.022 0.55666 0.78386 0.0
S653 S 0.13065 0.58015 0.71736 0.0
N654 N 0.11137 0.53745 0.72935 0.0
N655 N 0.11158 0.60365 0.72951 0.0
C656 C 0.08803 0.57678 0.74408 0.0
C657 C 0.08795 0.54089 0.744 0.0
C658 C 0.51029 0.51141 0.77117 0.0
C659 C 0.48004 0.50494 0.75698 0.0
C660 C 0.54563 0.54709 0.7711 0.0
C661 C 0.55146 0.57706 0.75683 0.0
H662 H 0.50547 0.49025 0.78352 0.0
H663 H 0.56702 0.55238 0.78339 0.0
S664 S 0.48489 0.57054 0.71326 0.0
N665 N 0.46109 0.52858 0.72599 0.0
N666 N 0.5269 0.59507 0.72585 0.0
C667 C 0.523 0.56911 0.74122 0.0
C668 C 0.48736 0.53311 0.74129 0.0
C669 C 0.62801 0.81167 0.60175 0.0
C670 C 0.6575 0.80759 0.5917 0.0
C671 C 0.62841 0.847 0.60154 0.0
C672 C 0.65835 0.8799 0.59133 0.0
H673 H 0.60325 0.78691 0.60904 0.0
H674 H 0.60397 0.84787 0.60867 0.0
S675 S 0.74551 0.88634 0.56535 0.0
N676 N 0.71986 0.84054 0.57328 0.0
N677 N 0.72067 0.90759 0.57295 0.0
C678 C 0.68979 0.87731 0.58273 0.0
C679 C 0.68935 0.84096 0.5829 0.0
C680 C 0.18182 0.83996 0.58242 0.0
C681 C 0.1778 0.80771 0.59406 0.0
C682 C 0.21734 0.8755 0.58232 0.0
C683 C 0.24979 0.8797 0.59383 0.0
H684 H 0.15835 0.83699 0.57225 0.0
H685 H 0.22009 0.89886 0.57212 0.0
S686 S 0.25134 0.80661 0.63042 0.0
N687 N 0.20727 0.78455 0.62 0.0
N688 N 0.27337 0.85046 0.61969 0.0
C689 C 0.24481 0.84871 0.60692 0.0
C690 C 0.20893 0.81291 0.60708 0.0
C691 C 0.24185 0.42149 0.60389 0.0
C692 C 0.24661 0.39357 0.59249 0.0
C693 C 0.2066 0.42126 0.60368 0.0
C694 C 0.17449 0.39307 0.59211 0.0
H695 H 0.26612 0.4451 0.61219 0.0
H696 H 0.20529 0.44469 0.61182 0.0
S697 S 0.16973 0.30988 0.56231 0.0
N698 N 0.21489 0.33407 0.57139 0.0
N699 N 0.14802 0.33364 0.57103 0.0
C700 C 0.17755 0.36282 0.58222 0.0
C701 C 0.21381 0.36308 0.5824 0.0
C702 C 0.02328 0.31858 0.17362 0.0
C703 C 0.01202 0.32928 0.1545 0.0
C704 C 0.01448 0.32781 0.19383 0.0
C705 C 0.994 0.34813 0.19582 0.0
H706 H 0.03908 0.30283 0.17305 0.0
H707 H 0.02372 0.31879 0.20799 0.0
S708 S 0.95829 0.38347 0.15075 0.0
N709 N 0.97957 0.36174 0.13894 0.0
N710 N 0.96301 0.37914 0.17672 0.0
C711 C 0.98269 0.35919 0.17681 0.0
C712 C 0.99169 0.34978 0.15623 0.0
C713 C 0.73459 0.73686 0.17418 0.0
C714 C 0.72516 0.71401 0.15543 0.0
C715 C 0.72565 0.71982 0.19466 0.0
C716 C 0.70699 0.67919 0.19728 0.0
H717 H 0.74898 0.76831 0.17309 0.0
H718 H 0.73353 0.7387 0.20853 0.0
S719 S 0.67603 0.60613 0.15337 0.0
N720 N 0.69605 0.64849 0.14091 0.0
N721 N 0.67931 0.61643 0.17917 0.0
C722 C 0.6974 0.65597 0.17864 0.0
C723 C 0.70645 0.67335 0.15781 0.0
C724 C 0.32342 0.03424 0.17368 0.0
C725 C 0.3455 0.04435 0.15461 0.0
C726 C 0.34124 0.04243 0.19394 0.0
C727 C 0.38193 0.06113 0.19602 0.0
H728 H 0.29195 0.01978 0.17303 0.0
H729 H 0.32293 0.0341 0.20806 0.0
S730 S 0.45315 0.09337 0.15111 0.0
N731 N 0.41033 0.07385 0.13919 0.0
N732 N 0.44392 0.08929 0.17705 0.0
C733 C 0.40439 0.07134 0.17705 0.0
C734 C 0.38619 0.06297 0.15644 0.0
C735 C 0.34789 0.99601 0.85999 0.0
C736 C 0.33028 0.01902 0.86237 0.0
C737 C 0.35618 0.98694 0.8396 0.0
C738 C 0.34733 0.00056 0.82072 0.0
H739 H 0.35523 0.98476 0.87395 0.0
H740 H 0.36977 0.9691 0.8387 0.0
S741 S 0.30147 0.06235 0.81807 0.0
N742 N 0.30449 0.05557 0.84393 0.0
N743 N 0.32014 0.0385 0.80583 0.0
C744 C 0.32981 0.02367 0.82287 0.0
C745 C 0.32129 0.03289 0.84361 0.0
C746 C 0.04842 0.34426 0.82503 0.0
C747 C 0.06549 0.38486 0.82305 0.0
C748 C 0.0397 0.3262 0.84522 0.0
C749 C 0.04746 0.3479 0.86433 0.0
H750 H 0.04195 0.3262 0.8109 0.0
H751 H 0.02669 0.29482 0.84579 0.0
S752 S 0.09125 0.45514 0.86804 0.0
N753 N 0.08941 0.44635 0.84209 0.0
N754 N 0.07286 0.41229 0.87987 0.0
C755 C 0.06424 0.3885 0.8626 0.0
C756 C 0.07328 0.40697 0.84203 0.0
C757 C 0.71272 0.72639 0.82524 0.0
C758 C 0.67215 0.70372 0.82275 0.0
C759 C 0.73 0.73459 0.84563 0.0
C760 C 0.7075 0.7204 0.86445 0.0
H761 H 0.7314 0.73801 0.81133 0.0
H762 H 0.76139 0.75224 0.84658 0.0
S763 S 0.59992 0.65936 0.86686 0.0
N764 N 0.60979 0.66699 0.84104 0.0
N765 N 0.64235 0.68241 0.8792 0.0
C766 C 0.66689 0.69764 0.86222 0.0
C767 C 0.64923 0.68932 0.84145 0.0
C768 C 0.03242 0.73775 0.84439 0.0
C769 C 0.04516 0.72829 0.86339 0.0
C770 C 0.04164 0.72926 0.8241 0.0
C771 C 0.06412 0.71104 0.82188 0.0
H772 H 0.01501 0.75181 0.84511 0.0
H773 H 0.03099 0.73708 0.81005 0.0
S774 S 0.10495 0.68033 0.86657 0.0
N775 N 0.08158 0.69971 0.87862 0.0
N776 N 0.09904 0.68382 0.84064 0.0
C777 C 0.07716 0.70148 0.84077 0.0
C778 C 0.06765 0.71005 0.86145 0.0
C779 C 0.33343 0.34368 0.8264 0.0
C780 C 0.35481 0.38428 0.82364 0.0
C781 C 0.32544 0.32691 0.84693 0.0
C782 C 0.33855 0.34999 0.86561 0.0
H783 H 0.32269 0.32458 0.81261 0.0
H784 H 0.30882 0.29545 0.8481 0.0
S785 S 0.39579 0.45792 0.8673 0.0
N786 N 0.38902 0.44731 0.84153 0.0
N787 N 0.374 0.41571 0.87992 0.0
C788 C 0.35998 0.39063 0.8631 0.0
C789 C 0.36809 0.40777 0.8422 0.0
C790 C 0.67212 0.99368 0.86101 0.0
C791 C 0.71277 0.01184 0.86314 0.0
C792 C 0.65433 0.98467 0.84074 0.0
C793 C 0.6764 0.99359 0.82171 0.0
H794 H 0.6538 0.98612 0.8751 0.0
H795 H 0.62288 0.97057 0.84004 0.0
S796 S 0.78404 0.04195 0.81837 0.0
N797 N 0.77477 0.03895 0.84429 0.0
N798 N 0.74125 0.02209 0.80639 0.0
C799 C 0.71709 0.012 0.82359 0.0
C800 C 0.73525 0.02107 0.84423 0.0
C801 C 0.70741 0.05854 0.15792 0.0
C802 C 0.72751 0.03792 0.15556 0.0
C803 C 0.69806 0.0666 0.17827 0.0
C804 C 0.70835 0.0544 0.19719 0.0
H805 H 0.69877 0.06862 0.14396 0.0
H806 H 0.68257 0.08264 0.17908 0.0
S807 S 0.76107 -0.00086 0.19995 0.0
N808 N 0.75735 0.00521 0.17406 0.0
N809 N 0.73971 0.02043 0.21217 0.0
C810 C 0.7284 0.03367 0.1951 0.0
C811 C 0.73798 0.02544 0.17435 0.0
C812 C 0.99252 0.67649 0.15805 0.0
C813 C 0.01581 0.71707 0.15585 0.0
C814 C 0.98373 0.65875 0.17835 0.0
C815 C 0.99797 0.6808 0.19733 0.0
H816 H 0.98075 0.65823 0.144 0.0
H817 H 0.96552 0.62738 0.17911 0.0
S818 S 0.06114 0.78812 0.20046 0.0
N819 N 0.0536 0.77887 0.17459 0.0
N820 N 0.03707 0.74547 0.2125 0.0
C821 C 0.02154 0.72137 0.19536 0.0
C822 C 0.03044 0.73948 0.17472 0.0
C823 C 0.38279 0.34991 0.15893 0.0
C824 C 0.34204 0.33046 0.15698 0.0
C825 C 0.40089 0.35867 0.17911 0.0
C826 C 0.37905 0.34844 0.19825 0.0
H827 H 0.40097 0.35841 0.14476 0.0
H828 H 0.43238 0.37365 0.17963 0.0
S829 S 0.27132 0.29758 0.20211 0.0
N830 N 0.28024 0.30148 0.17613 0.0
N831 N 0.31432 0.318 0.21389 0.0
C832 C 0.33827 0.32911 0.19656 0.0
C833 C 0.31978 0.32012 0.17601 0.0
C834 C 0.68061 0.66054 0.52848 0.0
C835 C 0.659 0.67965 0.53079 0.0
C836 C 0.69075 0.65323 0.50813 0.0
C837 C 0.67988 0.66487 0.4892 0.0
H838 H 0.68984 0.65113 0.54249 0.0
H839 H 0.70739 0.63836 0.5073 0.0
S840 S 0.62341 0.71637 0.48633 0.0
N841 N 0.62717 0.71033 0.51221 0.0
N842 N 0.64637 0.69666 0.47418 0.0
C843 C 0.65832 0.68406 0.49127 0.0
C844 C 0.64785 0.6914 0.51197 0.0
C845 C 0.40245 0.06813 0.50726 0.0
C846 C 0.39191 0.04585 0.48827 0.0
C847 C 0.39344 0.05049 0.52756 0.0
C848 C 0.37361 0.00976 0.5298 0.0
H849 H 0.41789 0.09964 0.50652 0.0
H850 H 0.40233 0.06903 0.5416 0.0
S851 S 0.33882 0.93793 0.48518 0.0
N852 N 0.36005 0.98069 0.47309 0.0
N853 N 0.34317 0.94746 0.5111 0.0
C854 C 0.36271 0.98704 0.51093 0.0
C855 C 0.37182 0.00507 0.49024 0.0
C856 C 0.04627 0.39413 0.49133 0.0
C857 C 0.00558 0.37422 0.48916 0.0
C858 C 0.06396 0.40207 0.51161 0.0
C859 C 0.04176 0.39043 0.53065 0.0
H860 H 0.06473 0.40372 0.47726 0.0
H861 H 0.09546 0.41756 0.5123 0.0
S862 S 0.93397 0.33714 0.53393 0.0
N863 N 0.94338 0.34279 0.508 0.0
N864 N 0.97676 0.35778 0.54593 0.0
C865 C 0.00103 0.3704 0.52874 0.0
C866 C 0.98294 0.36231 0.50808 0.0
C867 C 0.39717 0.37541 0.52895 0.0
C868 C 0.37771 0.39671 0.53114 0.0
C869 C 0.40629 0.36681 0.50866 0.0
C870 C 0.39625 0.37901 0.48965 0.0
H871 H 0.40542 0.36519 0.54301 0.0
H872 H 0.42126 0.35025 0.50793 0.0
S873 S 0.34505 0.43575 0.48643 0.0
N874 N 0.34874 0.42999 0.51235 0.0
N875 N 0.36581 0.41368 0.47441 0.0
C876 C 0.37684 0.40039 0.49158 0.0
C877 C 0.36762 0.40927 0.51224 0.0
C878 C 0.65356 0.99317 0.5121 0.0
C879 C 0.66707 0.01554 0.53102 0.0
C880 C 0.66227 0.0106 0.49175 0.0
C881 C 0.6848 0.05119 0.48942 0.0
H882 H 0.63594 0.96175 0.51292 0.0
H883 H 0.65101 0.99205 0.47778 0.0
S884 S 0.72807 0.12309 0.53381 0.0
N885 N 0.70467 0.08052 0.54602 0.0
N886 N 0.72111 0.11344 0.50794 0.0
C887 C 0.69876 0.07398 0.50821 0.0
C888 C 0.6899 0.05615 0.52894 0.0
C889 C 0.99052 0.65521 0.50708 0.0
C890 C 0.01264 0.66582 0.48803 0.0
C891 C 0.00834 0.66398 0.52733 0.0
C892 C 0.04907 0.68371 0.52945 0.0
H893 H 0.95902 0.6399 0.50642 0.0
H894 H 0.98993 0.65507 0.54142 0.0
S895 S 0.12046 0.71842 0.48463 0.0
N896 N 0.07762 0.69747 0.47266 0.0
N897 N 0.11117 0.71397 0.51057 0.0
C898 C 0.0716 0.69464 0.51052 0.0
C899 C 0.0534 0.68571 0.48989 0.0
C900 C 0.06271 0.33592 0.01548 0.0
C901 C 0.034 0.31776 0.0314 0.0
C902 C 0.05276 0.33222 0.99364 0.0
C903 C 0.01384 0.30924 0.98701 0.0
H904 H 0.09322 0.34975 0.01979 0.0
H905 H 0.07602 0.34309 0.98192 0.0
S906 S 0.92751 0.26114 0.02249 0.0
N907 N 0.96484 0.28117 0.03916 0.0
N908 N 0.94622 0.2729 0.99814 0.0
C909 C 0.98471 0.29478 1.00286 0.0
C910 C 0.99479 0.29933 0.02509 0.0
C911 C 0.71663 0.73939 0.99426 0.0
C912 C 0.73903 0.72271 0.98773 0.0
C913 C 0.71375 0.74662 0.01604 0.0
C914 C 0.73226 0.73643 0.03196 0.0
H915 H 0.70606 0.75196 0.98246 0.0
H916 H 0.70078 0.7642 0.02022 0.0
S917 S 0.78679 0.68426 0.02336 0.0
N918 N 0.77444 0.69047 0.99901 0.0
N919 N 0.76786 0.70288 0.03994 0.0
C920 C 0.74959 0.71452 0.02582 0.0
C921 C 0.75319 0.70785 1.00365 0.0
C922 C 0.30268 0.99684 0.99396 0.0
C923 C 0.32155 0.03566 0.98686 0.0
C924 C 0.29709 0.98804 0.01594 0.0
C925 C 0.31084 0.01777 0.0315 0.0
H926 H 0.28769 0.97333 0.98256 0.0
H927 H 0.2783 0.958 0.02069 0.0
S928 S 0.36882 0.12374 0.02109 0.0
N929 N 0.35897 0.10373 0.99701 0.0
N930 N 0.34948 0.08719 0.03829 0.0
C931 C 0.33443 0.05637 0.02463 0.0
C932 C 0.33954 0.06533 1.00227 0.0
C933 C 0.99304 0.72296 1.00233 0.0
C934 C 0.02292 0.73957 0.98689 0.0
C935 C 0.00151 0.72669 0.02438 0.0
C936 C 0.04016 0.74793 0.03166 0.0
H937 H 0.96296 0.71078 0.99741 0.0
H938 H 0.97768 0.71738 0.03563 0.0
S939 S 0.12879 0.791 0.99779 0.0
N940 N 0.09248 0.77253 0.98043 0.0
N941 N 0.10847 0.78056 0.02179 0.0
C942 C 0.07018 0.76048 0.01639 0.0
C943 C 0.06153 0.75604 0.99397 0.0
C944 C 0.34218 0.31484 0.02751 0.0
C945 C 0.31799 0.32989 0.03329 0.0
C946 C 0.34955 0.31121 1.00583 0.0
C947 C 0.33361 0.32324 0.98934 0.0
H948 H 0.35115 0.30112 0.03951 0.0
H949 H 0.36376 0.29468 1.00193 0.0
S950 S 0.27577 0.3724 0.99649 0.0
N951 N 0.28368 0.36274 0.02113 0.0
N952 N 0.29846 0.35694 0.98051 0.0
C953 C 0.31445 0.34362 0.99513 0.0
C954 C 0.30629 0.34659 0.01713 0.0
C955 C 0.7182 0.00639 0.99341 0.0
C956 C 0.74217 0.04516 0.98673 0.0
C957 C 0.71429 0.99651 0.01527 0.0
C958 C 0.73333 0.02515 0.03115 0.0
H959 H 0.70695 0.98304 0.98173 0.0
H960 H 0.70005 0.96596 0.01959 0.0
S961 S 0.79182 0.13149 0.02214 0.0
N962 N 0.77958 0.11278 0.99782 0.0
N963 N 0.77117 0.09424 0.03885 0.0
C964 C 0.75233 0.06434 0.0248 0.0
C965 C 0.75696 0.07436 1.00256 0.0
C966 C 0.65765 0.64482 0.33811 0.0
C967 C 0.68594 0.65657 0.32181 0.0
C968 C 0.66803 0.64787 0.35988 0.0
C969 C 0.70697 0.6621 0.36597 0.0
H970 H 0.62703 0.6289 0.33396 0.0
H971 H 0.64504 0.63444 0.3717 0.0
S972 S 0.7925 0.70363 0.3298 0.0
N973 N 0.7549 0.68913 0.31353 0.0
N974 N 0.77431 0.69387 0.3543 0.0
C975 C 0.73578 0.67848 0.35001 0.0
C976 C 0.72527 0.6761 0.32792 0.0
C977 C 0.41993 0.05604 0.35788 0.0
C978 C 0.40379 0.07866 0.36485 0.0
C979 C 0.42412 0.05123 0.33589 0.0
C980 C 0.41165 0.06825 0.32024 0.0
H981 H 0.43388 0.04633 0.3693 0.0
H982 H 0.44106 0.03785 0.33117 0.0
S983 S 0.3608 0.12367 0.33043 0.0
N984 N 0.37028 0.11333 0.35456 0.0
N985 N 0.37716 0.10334 0.31332 0.0
C986 C 0.3907 0.08624 0.32708 0.0
C987 C 0.38707 0.09173 0.34941 0.0
C988 C -0.00089 0.39055 0.35751 0.0
C989 C 0.97809 0.35192 0.36486 0.0
C990 C 0.00307 0.39886 0.33543 0.0
C991 C 0.98682 0.36881 0.32006 0.0
H992 H 0.00796 0.41443 0.36869 0.0
H993 H 0.01489 0.42886 0.33044 0.0
S994 S 0.93657 0.26301 0.33124 0.0
N995 N 0.94645 0.28353 0.35519 0.0
N996 N 0.95486 0.2992 0.31379 0.0
C997 C 0.97085 0.33029 0.32726 0.0
C998 C 0.9662 0.32181 0.34969 0.0
C999 C 0.731 0.08852 0.34927 0.0
C1000 C 0.70182 0.07651 0.36506 0.0
C1001 C 0.72156 0.08279 0.32736 0.0
C1002 C 0.68264 0.06567 0.32056 0.0
H1003 H 0.76134 0.10612 0.35377 0.0
H1004 H 0.74494 0.09632 0.31576 0.0
S1005 S 0.59547 0.02308 0.35552 0.0
N1006 N 0.63249 0.0412 0.37242 0.0
N1007 N 0.61476 0.03154 0.33128 0.0
C1008 C 0.65325 0.04944 0.33622 0.0
C1009 C 0.66285 0.05457 0.3585 0.0
C1010 C 0.96852 0.67341 0.34895 0.0
C1011 C 0.98012 0.65621 0.36494 0.0
C1012 C 0.97523 0.67005 0.32714 0.0
C1013 C 0.99279 0.64844 0.32063 0.0
H1014 H 0.95064 0.68601 0.35317 0.0
H1015 H 0.96189 0.67981 0.31534 0.0
S1016 S 0.0344 0.60375 0.3563 0.0
N1017 N 0.01552 0.6224 0.37288 0.0
N1018 N 0.02679 0.61479 0.33191 0.0
C1019 C 0.00862 0.63529 0.33654 0.0
C1020 C 0.00255 0.63945 0.35874 0.0
C1021 C 0.42325 0.39438 0.35851 0.0
C1022 C 0.40632 0.35605 0.36626 0.0
C1023 C 0.42727 0.4019 0.33636 0.0
C1024 C 0.41386 0.37133 0.32135 0.0
H1025 H 0.438 0.41868 0.36946 0.0
H1026 H 0.44487 0.43178 0.33104 0.0
S1027 S 0.36083 0.26591 0.33364 0.0
N1028 N 0.37109 0.28729 0.35736 0.0
N1029 N 0.37776 0.30146 0.3158 0.0
C1030 C 0.39217 0.33299 0.32893 0.0
C1031 C 0.38864 0.32534 0.35143 0.0
C1032 C 0.3369 0.9834 0.69204 0.0
C1033 C 0.37637 0.00045 0.69777 0.0
C1034 C 0.32554 0.97755 0.67039 0.0
C1035 C 0.35331 0.98935 0.65383 0.0
H1036 H 0.31452 0.96981 0.70418 0.0
H1037 H 0.29487 0.95969 0.66669 0.0
S1038 S 0.46042 0.04375 0.66059 0.0
N1039 N 0.44324 0.03513 0.68532 0.0
N1040 N 0.42197 0.02529 0.6447 0.0
C1041 C 0.39282 0.01171 0.6594 0.0
C1042 C 0.40436 0.01692 0.68141 0.0
C1043 C 0.09038 0.38997 0.69153 0.0
C1044 C 0.07304 0.41132 0.69881 0.0
C1045 C 0.09418 0.38533 0.66947 0.0
C1046 C 0.0801 0.40122 0.65403 0.0
H1047 H 0.1055 0.38125 0.70273 0.0
H1048 H 0.11192 0.37298 0.66449 0.0
S1049 S 0.02603 0.45315 0.66507 0.0
N1050 N 0.03695 0.44363 0.68904 0.0
N1051 N 0.04308 0.4339 0.64769 0.0
C1052 C 0.05814 0.4179 0.6612 0.0
C1053 C 0.05488 0.42323 0.68362 0.0
C1054 C 0.64304 0.66251 0.68226 0.0
C1055 C 0.6535 0.69078 0.69846 0.0
C1056 C 0.64912 0.67308 0.66051 0.0
C1057 C 0.66498 0.71222 0.6543 0.0
H1058 H 0.62598 0.63188 0.68628 0.0
H1059 H 0.6364 0.65016 0.6486 0.0
S1060 S 0.70459 0.79758 0.69062 0.0
N1061 N 0.68688 0.75969 0.70692 0.0
N1062 N 0.69741 0.7796 0.66609 0.0
C1063 C 0.68036 0.7409 0.67041 0.0
C1064 C 0.6748 0.73014 0.69253 0.0
C1065 C 0.32828 0.38054 0.69289 0.0
C1066 C 0.36755 0.40242 0.69901 0.0
C1067 C 0.31774 0.37488 0.67112 0.0
C1068 C 0.34614 0.39046 0.65482 0.0
H1069 H 0.30557 0.37233 0.70478 0.0
H1070 H 0.28722 0.36231 0.66705 0.0
S1071 S 0.45296 0.44246 0.66282 0.0
N1072 N 0.43483 0.43398 0.68733 0.0
N1073 N 0.41512 0.42258 0.6465 0.0
C1074 C 0.38539 0.40717 0.66086 0.0
C1075 C 0.39609 0.41343 0.68299 0.0
C1076 C 0.63235 0.00159 0.68252 0.0
C1077 C 0.64404 0.98453 0.69855 0.0
C1078 C 0.63963 -0.00128 0.66074 0.0
C1079 C 0.6579 0.97776 0.65427 0.0
H1080 H 0.61413 0.01384 0.68668 0.0
H1081 H 0.62642 0.00854 0.6489 0.0
S1082 S 0.69952 0.93321 0.69007 0.0
N1083 N 0.67988 0.95119 0.70659 0.0
N1084 N 0.69224 0.94449 0.66567 0.0
C1085 C 0.6735 0.96447 0.67024 0.0
C1086 C 0.66687 0.96816 0.69242 0.0
C1087 C 0.07712 0.72244 0.69107 0.0
C1088 C 0.05957 0.68353 0.69798 0.0
C1089 C 0.08317 0.73168 0.66914 0.0
C1090 C 0.071 0.70228 0.65346 0.0
H1091 H 0.09126 0.7459 0.70259 0.0
H1092 H 0.10149 0.76191 0.66459 0.0
S1093 S 0.01563 0.59602 0.66324 0.0
N1094 N 0.02415 0.61555 0.68743 0.0
N1095 N 0.03445 0.63292 0.64626 0.0
C1096 C 0.0481 0.66345 0.66008 0.0
C1097 C 0.04257 0.65404 0.68239 0.0
C1098 C 0.90675 0.11163 0.10519 0.0
C1099 C 0.87163 0.11048 0.10017 0.0
C1100 C 0.94203 0.14673 0.10543 0.0
C1101 C 0.94375 0.18222 0.10063 0.0
H1102 H 0.90725 0.08489 0.108 0.0
H1103 H 0.96849 0.14582 0.10843 0.0
S1104 S 0.85966 0.19557 0.0882 0.0
N1105 N 0.84016 0.14813 0.09182 0.0
N1106 N 0.90691 0.21454 0.09224 0.0
C1107 C 0.90857 0.18198 0.09707 0.0
C1108 C 0.87237 0.14596 0.09685 0.0
C1109 C 0.94129 0.82344 0.10632 0.0
C1110 C 0.94336 0.78995 0.10127 0.0
C1111 C 0.90579 0.82285 0.1064 0.0
C1112 C 0.87079 0.78876 0.10143 0.0
H1113 H 0.96761 0.85094 0.10923 0.0
H1114 H 0.90603 0.84994 0.10933 0.0
S1115 S 0.85967 0.6921 0.08938 0.0
N1116 N 0.90696 0.72075 0.09308 0.0
N1117 N 0.83979 0.71968 0.0932 0.0
C1118 C 0.87188 0.75422 0.09802 0.0
C1119 C 0.90832 0.75481 0.09795 0.0
C1120 C 0.23586 0.11685 0.1059 0.0
C1121 C 0.2694 0.11494 0.10079 0.0
C1122 C 0.23622 0.15224 0.10591 0.0
C1123 C 0.27014 0.1873 0.10083 0.0
H1124 H 0.20849 0.09045 0.10894 0.0
H1125 H 0.20911 0.15187 0.10892 0.0
S1126 S 0.36684 0.19887 0.08852 0.0
N1127 N 0.33845 0.15156 0.09234 0.0
N1128 N 0.33912 0.21858 0.09238 0.0
C1129 C 0.30473 0.1864 0.09731 0.0
C1130 C 0.30436 0.15005 0.09729 0.0
C1131 C 0.1515 0.9444 0.90902 0.0
C1132 C 0.18635 0.94617 0.91534 0.0
C1133 C 0.1164 0.90917 0.90885 0.0
C1134 C 0.11468 0.87423 0.91505 0.0
H1135 H 0.15095 0.97084 0.90529 0.0
H1136 H 0.08999 0.90965 0.905 0.0
S1137 S 0.19846 0.86236 0.93051 0.0
N1138 N 0.21786 0.90952 0.9259 0.0
N1139 N 0.15139 0.84282 0.92565 0.0
C1140 C 0.14975 0.87493 0.91965 0.0
C1141 C 0.18578 0.91108 0.91978 0.0
C1142 C 0.18334 0.29358 0.94861 0.0
C1143 C 0.20239 0.29458 0.92946 0.0
C1144 C 0.14818 0.29358 0.94837 0.0
C1145 C 0.13078 0.29456 0.92896 0.0
H1146 H 0.19444 0.29023 0.96386 0.0
H1147 H 0.13313 0.29004 0.96342 0.0
S1148 S 0.17173 0.30299 0.8746 0.0
N1149 N 0.2039 0.30116 0.89071 0.0
N1150 N 0.13712 0.30103 0.89024 0.0
C1151 C 0.15125 0.29932 0.90978 0.0
C1152 C 0.18736 0.29936 0.91004 0.0
C1153 C 0.7618 0.87362 0.94833 0.0
C1154 C 0.76145 0.85562 0.92889 0.0
C1155 C 0.76118 0.90849 0.94865 0.0
C1156 C 0.76024 0.92668 0.92953 0.0
H1157 H 0.76524 0.862 0.96338 0.0
H1158 H 0.76426 0.92275 0.96393 0.0
S1159 S 0.7536 0.88861 0.87455 0.0
N1160 N 0.75567 0.85594 0.89015 0.0
N1161 N 0.7546 0.92215 0.89073 0.0
C1162 C 0.75613 0.90721 0.91005 0.0
C1163 C 0.75674 0.87139 0.90973 0.0
C1164 C 0.54268 0.48355 0.43103 0.0
C1165 C 0.54205 0.44929 0.4377 0.0
C1166 C 0.57787 0.51937 0.43044 0.0
C1167 C 0.61317 0.52166 0.43648 0.0
H1168 H 0.51655 0.48215 0.42473 0.0
H1169 H 0.57787 0.54461 0.42376 0.0
S1170 S 0.62528 0.44206 0.4594 0.0
N1171 N 0.57848 0.42129 0.45362 0.0
N1172 N 0.64424 0.48821 0.45244 0.0
C1173 C 0.61206 0.48838 0.44505 0.0
C1174 C 0.57654 0.45225 0.44569 0.0
C1175 C 0.57582 0.0887 0.43011 0.0
C1176 C 0.61065 0.12194 0.43644 0.0
C1177 C 0.54025 0.08863 0.43051 0.0
C1178 C 0.5388 0.12178 0.43725 0.0
H1179 H 0.57653 0.06391 0.42331 0.0
H1180 H 0.51454 0.06382 0.42394 0.0
S1181 S 0.62051 0.21253 0.4596 0.0
N1182 N 0.64039 0.18611 0.45268 0.0
N1183 N 0.57388 0.18594 0.45353 0.0
C1184 C 0.57278 0.15348 0.44555 0.0
C1185 C 0.60869 0.15358 0.4451 0.0
C1186 C 0.96701 0.4819 0.42952 0.0
C1187 C 0.93314 0.447 0.43509 0.0
C1188 C 0.96731 0.51762 0.42964 0.0
C1189 C 0.93377 0.5192 0.43535 0.0
H1190 H 0.99233 0.4812 0.42358 0.0
H1191 H 0.99286 0.54347 0.42377 0.0
S1192 S 0.84087 0.43729 0.45547 0.0
N1193 N 0.86761 0.41729 0.44956 0.0
N1194 N 0.86819 0.48403 0.44981 0.0
C1195 C 0.90118 0.48507 0.44281 0.0
C1196 C 0.90086 0.44903 0.44268 0.0
C1197 C 0.78104 0.23403 0.24146 0.0
C1198 C 0.77909 0.19979 0.24916 0.0
C1199 C 0.81609 0.26932 0.2414 0.0
C1200 C 0.85056 0.27176 0.24906 0.0
H1201 H 0.75479 0.23402 0.23659 0.0
H1202 H 0.81572 0.29539 0.23654 0.0
S1203 S 0.86194 0.18975 0.26872 0.0
N1204 N 0.8152 0.16958 0.26274 0.0
N1205 N 0.88154 0.23644 0.26269 0.0
C1206 C 0.84984 0.23723 0.2551 0.0
C1207 C 0.81389 0.20102 0.25514 0.0
C1208 C 0.84407 0.62789 0.28061 0.0
C1209 C 0.8613 0.62701 0.26112 0.0
C1210 C 0.80918 0.62841 0.28101 0.0
C1211 C 0.79024 0.62804 0.26194 0.0
H1212 H 0.85632 0.62549 0.29568 0.0
H1213 H 0.79557 0.62646 0.29638 0.0
S1214 S 0.82614 0.63122 0.20677 0.0
N1215 N 0.85942 0.6302 0.2223 0.0
N1216 N 0.79321 0.63121 0.22305 0.0
C1217 C 0.80891 0.6309 0.24233 0.0
C1218 C 0.84472 0.63036 0.24193 0.0
C1219 C 0.48642 0.27404 0.24293 0.0
C1220 C 0.45393 0.27629 0.25 0.0
C1221 C 0.48646 0.23884 0.24319 0.0
C1222 C 0.45395 0.20442 0.25043 0.0
H1223 H 0.51293 0.30019 0.23829 0.0
H1224 H 0.51294 0.23896 0.23871 0.0
S1225 S 0.36019 0.19381 0.26874 0.0
N1226 N 0.38721 0.24057 0.26288 0.0
N1227 N 0.3872 0.17388 0.26323 0.0
C1228 C 0.4201 0.20548 0.25596 0.0
C1229 C 0.42009 0.24161 0.25575 0.0
C1230 C 0.25446 0.84243 0.7365 0.0
C1231 C 0.27053 0.8629 0.75562 0.0
C1232 C 0.21943 0.80721 0.7365 0.0
C1233 C 0.19903 0.79093 0.75561 0.0
H1234 H 0.27011 0.85276 0.7215 0.0
H1235 H 0.20926 0.79154 0.72149 0.0
S1236 S 0.22617 0.8353 0.80963 0.0
N1237 N 0.26165 0.86657 0.79392 0.0
N1238 N 0.1952 0.79964 0.79391 0.0
C1239 C 0.21295 0.81253 0.77464 0.0
C1240 C 0.24894 0.84878 0.77464 0.0
C1241 C 0.28091 0.48936 0.77453 0.0
C1242 C 0.28181 0.4553 0.76938 0.0
C1243 C 0.24599 0.48992 0.7747 0.0
C1244 C 0.21046 0.45647 0.76967 0.0
H1245 H 0.30773 0.51645 0.77735 0.0
H1246 H 0.24715 0.51744 0.77765 0.0
S1247 S 0.19629 0.35854 0.75776 0.0
N1248 N 0.24375 0.38614 0.76132 0.0
N1249 N 0.17766 0.38722 0.76159 0.0
C1250 C 0.21036 0.4213 0.76631 0.0
C1251 C 0.24621 0.42072 0.76617 0.0
C1252 C 0.56545 0.77663 0.77199 0.0
C1253 C 0.5996 0.77557 0.76736 0.0
C1254 C 0.56511 0.81169 0.77208 0.0
C1255 C 0.5989 0.84724 0.76753 0.0
H1256 H 0.53821 0.74985 0.77459 0.0
H1257 H 0.53762 0.81069 0.77478 0.0
S1258 S 0.6968 0.86087 0.75631 0.0
N1259 N 0.66891 0.81339 0.75974 0.0
N1260 N 0.66827 0.87974 0.75991 0.0
C1261 C 0.63398 0.84709 0.76441 0.0
C1262 C 0.63433 0.81111 0.76433 0.0
C1263 C 0.50085 0.58829 0.61735 0.0
C1264 C 0.52303 0.60276 0.59856 0.0
C1265 C 0.46572 0.55317 0.61738 0.0
C1266 C 0.45118 0.53094 0.59861 0.0
H1267 H 0.50993 0.6051 0.63204 0.0
H1268 H 0.44899 0.54414 0.6321 0.0
S1269 S 0.50019 0.55353 0.54571 0.0
N1270 N 0.52994 0.59051 0.56108 0.0
N1271 N 0.46328 0.52385 0.56114 0.0
C1272 C 0.47437 0.54338 0.58004 0.0
C1273 C 0.5105 0.5795 0.58001 0.0
C1274 C 0.4741 0.95664 0.57505 0.0
C1275 C 0.45796 0.95913 0.59465 0.0
C1276 C 0.50916 0.95575 0.57461 0.0
C1277 C 0.52863 0.9574 0.59376 0.0
H1278 H 0.45807 0.9522 0.56027 0.0
H1279 H 0.51939 0.95075 0.5595 0.0
S1280 S 0.50153 0.97081 0.64857 0.0
N1281 N 0.46648 0.96826 0.63314 0.0
N1282 N 0.53215 0.96672 0.63229 0.0
C1283 C 0.51448 0.96341 0.61311 0.0
C1284 C 0.47911 0.96426 0.61356 0.0
C1285 C 0.14721 0.6047 0.57616 0.0
C1286 C 0.11487 0.60645 0.58394 0.0
C1287 C 0.14768 0.56972 0.57599 0.0
C1288 C 0.11583 0.5351 0.5836 0.0
H1289 H 0.17332 0.63108 0.57134 0.0
H1290 H 0.17411 0.57022 0.57098 0.0
S1291 S 0.02264 0.52339 0.60379 0.0
N1292 N 0.04892 0.57018 0.59784 0.0
N1293 N 0.04974 0.5039 0.59749 0.0
C1294 C 0.08203 0.53569 0.58983 0.0
C1295 C 0.08157 0.57159 0.59001 0.0
loop_
_geom_bond_atom_site_label_1
_geom_bond_atom_site_label_2
_geom_bond_distance
_geom_bond_site_symmetry_2
_ccdc_geom_bond_type
Co0 O1 2.216 . S
Co0 O2 2.091 . S
Co0 O4 2.004 . S
Co0 O10 2.021 1_455 S
Co0 O12 2.137 . S
Co0 O13 2.244 . S
O1 Co0 2.216 . S
O1 C8 1.247 . S
O2 Co0 2.091 . S
O2 C8 1.261 . S
C3 O12 1.247 . S
C3 O13 1.272 . S
O4 Co0 2.004 . S
O4 C9 1.259 . S
Co5 O6 2.061 . S
Co5 O11 2.052 1_455 S
Co5 O13 2.135 . S
O6 Co5 2.061 . S
O6 C9 1.235 . S
C7 O10 1.238 . S
C7 O11 1.241 . S
C8 O1 1.247 . S
C8 O2 1.261 . S
C9 O4 1.259 . S
C9 O6 1.235 . S
O10 Co0 2.021 1_655 S
O10 C7 1.238 . S
O11 Co5 2.052 1_655 S
O11 C7 1.241 . S
O12 Co0 2.137 . S
O12 C3 1.247 . S
O13 Co0 2.244 . S
O13 C3 1.272 . S
O13 Co5 2.135 . S
Co14 O15 2.216 . S
Co14 O16 2.091 . S
Co14 O18 2.004 . S
Co14 O24 2.021 . S
Co14 O26 2.137 . S
Co14 O27 2.244 . S
O15 Co14 2.216 . S
O15 C22 1.247 . S
O16 Co14 2.091 . S
O16 C22 1.261 . S
C17 O26 1.247 . S
C17 O27 1.272 . S
O18 Co14 2.004 . S
O18 C23 1.259 . S
Co19 O20 2.061 . S
Co19 O25 2.052 . S
Co19 O27 2.135 . S
O20 Co19 2.061 . S
O20 C23 1.235 . S
C21 O24 1.238 . S
C21 O25 1.241 . S
C22 O15 1.247 . S
C22 O16 1.261 . S
C23 O18 1.259 . S
C23 O20 1.235 . S
O24 Co14 2.021 . S
O24 C21 1.238 . S
O25 Co19 2.052 . S
O25 C21 1.241 . S
O26 Co14 2.137 . S
O26 C17 1.247 . S
O27 Co14 2.244 . S
O27 C17 1.272 . S
O27 Co19 2.135 . S
Co28 O29 2.216 . S
Co28 O30 2.091 . S
Co28 O32 2.004 . S
Co28 O38 2.021 . S
Co28 O40 2.137 1_545 S
Co28 O41 2.244 1_545 S
O29 Co28 2.216 . S
O29 C36 1.247 . S
O30 Co28 2.091 . S
O30 C36 1.261 . S
C31 O40 1.247 . S
C31 O41 1.272 . S
O32 Co28 2.004 . S
O32 C37 1.259 . S
Co33 O34 2.061 . S
Co33 O39 2.052 . S
Co33 O41 2.135 1_545 S
O34 Co33 2.061 . S
O34 C37 1.235 . S
C35 O38 1.238 . S
C35 O39 1.241 . S
C36 O29 1.247 . S
C36 O30 1.261 . S
C37 O32 1.259 . S
C37 O34 1.235 . S
O38 Co28 2.021 . S
O38 C35 1.238 . S
O39 Co33 2.052 . S
O39 C35 1.241 . S
O40 Co28 2.137 1_565 S
O40 C31 1.247 . S
O41 Co28 2.244 1_565 S
O41 C31 1.272 . S
O41 Co33 2.135 1_565 S
Co42 O43 2.216 . S
Co42 O44 2.091 . S
Co42 O46 2.004 . S
Co42 O52 2.021 1_545 S
Co42 O54 2.137 . S
Co42 O55 2.244 . S
O43 Co42 2.216 . S
O43 C50 1.247 . S
O44 Co42 2.091 . S
O44 C50 1.261 . S
C45 O54 1.247 . S
C45 O55 1.272 . S
O46 Co42 2.004 . S
O46 C51 1.259 . S
Co47 O48 2.061 . S
Co47 O53 2.052 1_545 S
Co47 O55 2.135 . S
O48 Co47 2.061 . S
O48 C51 1.235 . S
C49 O52 1.238 . S
C49 O53 1.241 . S
C50 O43 1.247 . S
C50 O44 1.261 . S
C51 O46 1.259 . S
C51 O48 1.235 . S
O52 Co42 2.021 1_565 S
O52 C49 1.238 . S
O53 Co47 2.052 1_565 S
O53 C49 1.241 . S
O54 Co42 2.137 . S
O54 C45 1.247 . S
O55 Co42 2.244 . S
O55 C45 1.272 . S
O55 Co47 2.135 . S
Co56 O57 2.216 . S
Co56 O58 2.091 . S
Co56 O60 2.004 . S
Co56 O66 2.021 . S
Co56 O68 2.137 1_455 S
Co56 O69 2.244 1_455 S
O57 Co56 2.216 . S
O57 C64 1.247 . S
O58 Co56 2.091 . S
O58 C64 1.261 . S
C59 O68 1.247 . S
C59 O69 1.272 . S
O60 Co56 2.004 . S
O60 C65 1.259 . S
Co61 O62 2.061 . S
Co61 O67 2.052 . S
Co61 O69 2.135 1_455 S
O62 Co61 2.061 . S
O62 C65 1.235 . S
C63 O66 1.238 . S
C63 O67 1.241 . S
C64 O57 1.247 . S
C64 O58 1.261 . S
C65 O60 1.259 . S
C65 O62 1.235 . S
O66 Co56 2.021 . S
O66 C63 1.238 . S
O67 Co61 2.052 . S
O67 C63 1.241 . S
O68 Co56 2.137 1_655 S
O68 C59 1.247 . S
O69 Co56 2.244 1_655 S
O69 C59 1.272 . S
O69 Co61 2.135 1_655 S
Co70 O71 2.216 . S
Co70 O72 2.091 . S
Co70 O74 2.004 . S
Co70 O80 2.021 . S
Co70 O82 2.137 . S
Co70 O83 2.244 . S
O71 Co70 2.216 . S
O71 C78 1.247 . S
O72 Co70 2.091 . S
O72 C78 1.261 . S
C73 O82 1.247 . S
C73 O83 1.272 . S
O74 Co70 2.004 . S
O74 C79 1.259 . S
Co75 O76 2.061 . S
Co75 O81 2.052 . S
Co75 O83 2.135 . S
O76 Co75 2.061 . S
O76 C79 1.235 . S
C77 O80 1.238 . S
C77 O81 1.241 . S
C78 O71 1.247 . S
C78 O72 1.261 . S
C79 O74 1.259 . S
C79 O76 1.235 . S
O80 Co70 2.021 . S
O80 C77 1.238 . S
O81 Co75 2.052 . S
O81 C77 1.241 . S
O82 Co70 2.137 . S
O82 C73 1.247 . S
O83 Co70 2.244 . S
O83 C73 1.272 . S
O83 Co75 2.135 . S
Co84 O85 2.216 . S
Co84 O86 2.091 . S
Co84 O88 2.004 . S
Co84 O94 2.021 . S
Co84 O96 2.137 1_455 S
Co84 O97 2.244 1_455 S
O85 Co84 2.216 . S
O85 C92 1.247 . S
O86 Co84 2.091 . S
O86 C92 1.261 . S
C87 O96 1.247 . S
C87 O97 1.272 . S
O88 Co84 2.004 . S
O88 C93 1.259 . S
Co89 O90 2.061 . S
Co89 O95 2.052 . S
Co89 O97 2.135 1_455 S
O90 Co89 2.061 . S
O90 C93 1.235 . S
C91 O94 1.238 . S
C91 O95 1.241 . S
C92 O85 1.247 . S
C92 O86 1.261 . S
C93 O88 1.259 . S
C93 O90 1.235 . S
O94 Co84 2.021 . S
O94 C91 1.238 . S
O95 Co89 2.052 . S
O95 C91 1.241 . S
O96 Co84 2.137 1_655 S
O96 C87 1.247 . S
O97 Co84 2.244 1_655 S
O97 C87 1.272 . S
O97 Co89 2.135 1_655 S
Co98 O99 2.216 . S
Co98 O100 2.091 . S
Co98 O102 2.004 . S
Co98 O108 2.021 . S
Co98 O110 2.137 . S
Co98 O111 2.244 . S
O99 Co98 2.216 . S
O99 C106 1.247 . S
O100 Co98 2.091 . S
O100 C106 1.261 . S
C101 O110 1.247 . S
C101 O111 1.272 . S
O102 Co98 2.004 . S
O102 C107 1.259 . S
Co103 O104 2.061 . S
Co103 O109 2.052 . S
Co103 O111 2.135 . S
O104 Co103 2.061 . S
O104 C107 1.235 . S
C105 O108 1.238 . S
C105 O109 1.241 . S
C106 O99 1.247 . S
C106 O100 1.261 . S
C107 O102 1.259 . S
C107 O104 1.235 . S
O108 Co98 2.021 . S
O108 C105 1.238 . S
O109 Co103 2.052 . S
O109 C105 1.241 . S
O110 Co98 2.137 . S
O110 C101 1.247 . S
O111 Co98 2.244 . S
O111 C101 1.272 . S
O111 Co103 2.135 . S
Co112 O113 2.216 . S
Co112 O114 2.091 . S
Co112 O116 2.004 . S
Co112 O122 2.021 1_545 S
Co112 O124 2.137 . S
Co112 O125 2.244 . S
O113 Co112 2.216 . S
O113 C120 1.247 . S
O114 Co112 2.091 . S
O114 C120 1.261 . S
C115 O124 1.247 . S
C115 O125 1.272 . S
O116 Co112 2.004 . S
O116 C121 1.259 . S
Co117 O118 2.061 . S
Co117 O123 2.052 1_545 S
Co117 O125 2.135 . S
O118 Co117 2.061 . S
O118 C121 1.235 . S
C119 O122 1.238 . S
C119 O123 1.241 . S
C120 O113 1.247 . S
C120 O114 1.261 . S
C121 O116 1.259 . S
C121 O118 1.235 . S
O122 Co112 2.021 1_565 S
O122 C119 1.238 . S
O123 Co117 2.052 1_565 S
O123 C119 1.241 . S
O124 Co112 2.137 . S
O124 C115 1.247 . S
O125 Co112 2.244 . S
O125 C115 1.272 . S
O125 Co117 2.135 . S
Co126 O127 2.216 . S
Co126 O128 2.091 . S
Co126 O130 2.004 . S
Co126 O136 2.021 . S
Co126 O138 2.137 1_545 S
Co126 O139 2.244 1_545 S
O127 Co126 2.216 . S
O127 C134 1.247 . S
O128 Co126 2.091 . S
O128 C134 1.261 . S
C129 O138 1.247 . S
C129 O139 1.272 . S
O130 Co126 2.004 . S
O130 C135 1.259 . S
Co131 O132 2.061 . S
Co131 O137 2.052 . S
Co131 O139 2.135 1_545 S
O132 Co131 2.061 . S
O132 C135 1.235 . S
C133 O136 1.238 . S
C133 O137 1.241 . S
C134 O127 1.247 . S
C134 O128 1.261 . S
C135 O130 1.259 . S
C135 O132 1.235 . S
O136 Co126 2.021 . S
O136 C133 1.238 . S
O137 Co131 2.052 . S
O137 C133 1.241 . S
O138 Co126 2.137 1_565 S
O138 C129 1.247 . S
O139 Co126 2.244 1_565 S
O139 C129 1.272 . S
O139 Co131 2.135 1_565 S
Co140 O141 2.216 . S
Co140 O142 2.091 . S
Co140 O144 2.004 . S
Co140 O150 2.021 1_455 S
Co140 O152 2.137 . S
Co140 O153 2.244 . S
O141 Co140 2.216 . S
O141 C148 1.247 . S
O142 Co140 2.091 . S
O142 C148 1.261 . S
C143 O152 1.247 . S
C143 O153 1.272 . S
O144 Co140 2.004 . S
O144 C149 1.259 . S
Co145 O146 2.061 . S
Co145 O151 2.052 1_455 S
Co145 O153 2.135 . S
O146 Co145 2.061 . S
O146 C149 1.235 . S
C147 O150 1.238 . S
C147 O151 1.241 . S
C148 O141 1.247 . S
C148 O142 1.261 . S
C149 O144 1.259 . S
C149 O146 1.235 . S
O150 Co140 2.021 1_655 S
O150 C147 1.238 . S
O151 Co145 2.052 1_655 S
O151 C147 1.241 . S
O152 Co140 2.137 . S
O152 C143 1.247 . S
O153 Co140 2.244 . S
O153 C143 1.272 . S
O153 Co145 2.135 . S
Co154 O155 2.216 . S
Co154 O156 2.091 . S
Co154 O158 2.004 . S
Co154 O164 2.021 . S
Co154 O166 2.137 . S
Co154 O167 2.244 . S
O155 Co154 2.216 . S
O155 C162 1.247 . S
O156 Co154 2.091 . S
O156 C162 1.261 . S
C157 O166 1.247 . S
C157 O167 1.272 . S
O158 Co154 2.004 . S
O158 C163 1.259 . S
Co159 O160 2.061 . S
Co159 O165 2.052 . S
Co159 O167 2.135 . S
O160 Co159 2.061 . S
O160 C163 1.235 . S
C161 O164 1.238 . S
C161 O165 1.241 . S
C162 O155 1.247 . S
C162 O156 1.261 . S
C163 O158 1.259 . S
C163 O160 1.235 . S
O164 Co154 2.021 . S
O164 C161 1.238 . S
O165 Co159 2.052 . S
O165 C161 1.241 . S
O166 Co154 2.137 . S
O166 C157 1.247 . S
O167 Co154 2.244 . S
O167 C157 1.272 . S
O167 Co159 2.135 . S
Co168 O169 2.216 . S
Co168 O170 2.091 . S
Co168 O172 2.004 . S
Co168 O178 2.021 . S
Co168 O180 2.137 . S
Co168 O181 2.244 . S
O169 Co168 2.216 . S
O169 C176 1.247 . S
O170 Co168 2.091 . S
O170 C176 1.261 . S
C171 O180 1.247 . S
C171 O181 1.272 . S
O172 Co168 2.004 . S
O172 C177 1.259 . S
Co173 O174 2.061 . S
Co173 O179 2.052 . S
Co173 O181 2.135 . S
O174 Co173 2.061 . S
O174 C177 1.235 . S
C175 O178 1.238 . S
C175 O179 1.241 . S
C176 O169 1.247 . S
C176 O170 1.261 . S
C177 O172 1.259 . S
C177 O174 1.235 . S
O178 Co168 2.021 . S
O178 C175 1.238 . S
O179 Co173 2.052 . S
O179 C175 1.241 . S
O180 Co168 2.137 . S
O180 C171 1.247 . S
O181 Co168 2.244 . S
O181 C171 1.272 . S
O181 Co173 2.135 . S
Co182 O183 2.216 . S
Co182 O184 2.091 . S
Co182 O186 2.004 . S
Co182 O192 2.021 . S
Co182 O194 2.137 . S
Co182 O195 2.244 . S
O183 Co182 2.216 . S
O183 C190 1.247 . S
O184 Co182 2.091 . S
O184 C190 1.261 . S
C185 O194 1.247 . S
C185 O195 1.272 . S
O186 Co182 2.004 . S
O186 C191 1.259 . S
Co187 O188 2.061 . S
Co187 O193 2.052 . S
Co187 O195 2.135 . S
O188 Co187 2.061 . S
O188 C191 1.235 . S
C189 O192 1.238 . S
C189 O193 1.241 . S
C190 O183 1.247 . S
C190 O184 1.261 . S
C191 O186 1.259 . S
C191 O188 1.235 . S
O192 Co182 2.021 . S
O192 C189 1.238 . S
O193 Co187 2.052 . S
O193 C189 1.241 . S
O194 Co182 2.137 . S
O194 C185 1.247 . S
O195 Co182 2.244 . S
O195 C185 1.272 . S
O195 Co187 2.135 . S
Co196 O197 2.216 . S
Co196 O198 2.091 1_655 S
Co196 O200 2.004 1_655 S
Co196 O206 2.021 . S
Co196 O208 2.137 . S
Co196 O209 2.244 . S
O197 Co196 2.216 . S
O197 C204 1.247 1_655 S
O198 Co196 2.091 1_455 S
O198 C204 1.261 . S
C199 O208 1.247 . S
C199 O209 1.272 . S
O200 Co196 2.004 1_455 S
O200 C205 1.259 1_455 S
Co201 O202 2.061 . S
Co201 O207 2.052 . S
Co201 O209 2.135 . S
O202 Co201 2.061 . S
O202 C205 1.235 . S
C203 O206 1.238 . S
C203 O207 1.241 . S
C204 O197 1.247 1_455 S
C204 O198 1.261 . S
C205 O200 1.259 1_655 S
C205 O202 1.235 . S
O206 Co196 2.021 . S
O206 C203 1.238 . S
O207 Co201 2.052 . S
O207 C203 1.241 . S
O208 Co196 2.137 . S
O208 C199 1.247 . S
O209 Co196 2.244 . S
O209 C199 1.272 . S
O209 Co201 2.135 . S
Co210 O211 2.216 . S
Co210 O212 2.091 1_655 S
Co210 O214 2.004 1_655 S
Co210 O220 2.021 . S
Co210 O222 2.137 1_655 S
Co210 O223 2.244 . S
O211 Co210 2.216 . S
O211 C218 1.247 1_655 S
O212 Co210 2.091 1_455 S
O212 C218 1.261 . S
C213 O222 1.247 1_655 S
C213 O223 1.272 . S
O214 Co210 2.004 1_455 S
O214 C219 1.259 1_455 S
Co215 O216 2.061 . S
Co215 O221 2.052 . S
Co215 O223 2.135 . S
O216 Co215 2.061 . S
O216 C219 1.235 . S
C217 O220 1.238 . S
C217 O221 1.241 . S
C218 O211 1.247 1_455 S
C218 O212 1.261 . S
C219 O214 1.259 1_655 S
C219 O216 1.235 . S
O220 Co210 2.021 . S
O220 C217 1.238 . S
O221 Co215 2.052 . S
O221 C217 1.241 . S
O222 Co210 2.137 1_455 S
O222 C213 1.247 1_455 S
O223 Co210 2.244 . S
O223 C213 1.272 . S
O223 Co215 2.135 . S
Co224 O225 2.216 . S
Co224 O226 2.091 . S
Co224 O228 2.004 . S
Co224 O234 2.021 . S
Co224 O236 2.137 . S
Co224 O237 2.244 . S
O225 Co224 2.216 . S
O225 C232 1.247 . S
O226 Co224 2.091 . S
O226 C232 1.261 . S
C227 O236 1.247 . S
C227 O237 1.272 . S
O228 Co224 2.004 . S
O228 C233 1.259 . S
Co229 O230 2.061 . S
Co229 O235 2.052 . S
Co229 O237 2.135 . S
O230 Co229 2.061 . S
O230 C233 1.235 . S
C231 O234 1.238 . S
C231 O235 1.241 . S
C232 O225 1.247 . S
C232 O226 1.261 . S
C233 O228 1.259 . S
C233 O230 1.235 . S
O234 Co224 2.021 . S
O234 C231 1.238 . S
O235 Co229 2.052 . S
O235 C231 1.241 . S
O236 Co224 2.137 . S
O236 C227 1.247 . S
O237 Co224 2.244 . S
O237 C227 1.272 . S
O237 Co229 2.135 . S
Co238 O239 2.216 . S
Co238 O240 2.091 . S
Co238 O242 2.004 . S
Co238 O248 2.021 . S
Co238 O250 2.137 . S
Co238 O251 2.244 . S
O239 Co238 2.216 . S
O239 C246 1.247 . S
O240 Co238 2.091 . S
O240 C246 1.261 . S
C241 O250 1.247 . S
C241 O251 1.272 . S
O242 Co238 2.004 . S
O242 C247 1.259 . S
Co243 O244 2.061 . S
Co243 O249 2.052 . S
Co243 O251 2.135 . S
O244 Co243 2.061 . S
O244 C247 1.235 . S
C245 O248 1.238 . S
C245 O249 1.241 . S
C246 O239 1.247 . S
C246 O240 1.261 . S
C247 O242 1.259 . S
C247 O244 1.235 . S
O248 Co238 2.021 . S
O248 C245 1.238 . S
O249 Co243 2.052 . S
O249 C245 1.241 . S
O250 Co238 2.137 . S
O250 C241 1.247 . S
O251 Co238 2.244 . S
O251 C241 1.272 . S
O251 Co243 2.135 . S
Co252 O253 2.216 . S
Co252 O254 2.091 . S
Co252 O256 2.004 . S
Co252 O262 2.021 . S
Co252 O264 2.137 . S
Co252 O265 2.244 . S
O253 Co252 2.216 . S
O253 C260 1.247 . S
O254 Co252 2.091 . S
O254 C260 1.261 . S
C255 O264 1.247 . S
C255 O265 1.272 . S
O256 Co252 2.004 . S
O256 C261 1.259 . S
Co257 O258 2.061 . S
Co257 O263 2.052 . S
Co257 O265 2.135 . S
O258 Co257 2.061 . S
O258 C261 1.235 . S
C259 O262 1.238 . S
C259 O263 1.241 . S
C260 O253 1.247 . S
C260 O254 1.261 . S
C261 O256 1.259 . S
C261 O258 1.235 . S
O262 Co252 2.021 . S
O262 C259 1.238 . S
O263 Co257 2.052 . S
O263 C259 1.241 . S
O264 Co252 2.137 . S
O264 C255 1.247 . S
O265 Co252 2.244 . S
O265 C255 1.272 . S
O265 Co257 2.135 . S
Co266 O267 2.216 . S
Co266 O268 2.091 1_655 S
Co266 O270 2.004 1_655 S
Co266 O276 2.021 . S
Co266 O278 2.137 1_655 S
Co266 O279 2.244 . S
O267 Co266 2.216 . S
O267 C274 1.247 1_655 S
O268 Co266 2.091 1_455 S
O268 C274 1.261 . S
C269 O278 1.247 1_655 S
C269 O279 1.272 . S
O270 Co266 2.004 1_455 S
O270 C275 1.259 1_455 S
Co271 O272 2.061 . S
Co271 O277 2.052 . S
Co271 O279 2.135 . S
O272 Co271 2.061 . S
O272 C275 1.235 . S
C273 O276 1.238 . S
C273 O277 1.241 . S
C274 O267 1.247 1_455 S
C274 O268 1.261 . S
C275 O270 1.259 1_655 S
C275 O272 1.235 . S
O276 Co266 2.021 . S
O276 C273 1.238 . S
O277 Co271 2.052 . S
O277 C273 1.241 . S
O278 Co266 2.137 1_455 S
O278 C269 1.247 1_455 S
O279 Co266 2.244 . S
O279 C269 1.272 . S
O279 Co271 2.135 . S
Co280 O281 2.216 . S
Co280 O282 2.091 . S
Co280 O284 2.004 . S
Co280 O290 2.021 . S
Co280 O292 2.137 . S
Co280 O293 2.244 . S
O281 Co280 2.216 . S
O281 C288 1.247 . S
O282 Co280 2.091 . S
O282 C288 1.261 . S
C283 O292 1.247 . S
C283 O293 1.272 . S
O284 Co280 2.004 . S
O284 C289 1.259 . S
Co285 O286 2.061 . S
Co285 O291 2.052 . S
Co285 O293 2.135 . S
O286 Co285 2.061 . S
O286 C289 1.235 . S
C287 O290 1.238 . S
C287 O291 1.241 . S
C288 O281 1.247 . S
C288 O282 1.261 . S
C289 O284 1.259 . S
C289 O286 1.235 . S
O290 Co280 2.021 . S
O290 C287 1.238 . S
O291 Co285 2.052 . S
O291 C287 1.241 . S
O292 Co280 2.137 . S
O292 C283 1.247 . S
O293 Co280 2.244 . S
O293 C283 1.272 . S
O293 Co285 2.135 . S
Co294 O295 2.216 . S
Co294 O296 2.091 . S
Co294 O298 2.004 . S
Co294 O304 2.021 . S
Co294 O306 2.137 . S
Co294 O307 2.244 . S
O295 Co294 2.216 . S
O295 C302 1.247 . S
O296 Co294 2.091 . S
O296 C302 1.261 . S
C297 O306 1.247 . S
C297 O307 1.272 . S
O298 Co294 2.004 . S
O298 C303 1.259 . S
Co299 O300 2.061 . S
Co299 O305 2.052 . S
Co299 O307 2.135 . S
O300 Co299 2.061 . S
O300 C303 1.235 . S
C301 O304 1.238 . S
C301 O305 1.241 . S
C302 O295 1.247 . S
C302 O296 1.261 . S
C303 O298 1.259 . S
C303 O300 1.235 . S
O304 Co294 2.021 . S
O304 C301 1.238 . S
O305 Co299 2.052 . S
O305 C301 1.241 . S
O306 Co294 2.137 . S
O306 C297 1.247 . S
O307 Co294 2.244 . S
O307 C297 1.272 . S
O307 Co299 2.135 . S
Co308 O309 2.216 . S
Co308 O310 2.091 . S
Co308 O312 2.004 . S
Co308 O318 2.021 . S
Co308 O320 2.137 . S
Co308 O321 2.244 . S
O309 Co308 2.216 . S
O309 C316 1.247 . S
O310 Co308 2.091 . S
O310 C316 1.261 . S
C311 O320 1.247 . S
C311 O321 1.272 . S
O312 Co308 2.004 . S
O312 C317 1.259 . S
Co313 O314 2.061 . S
Co313 O319 2.052 . S
Co313 O321 2.135 . S
O314 Co313 2.061 . S
O314 C317 1.235 . S
C315 O318 1.238 . S
C315 O319 1.241 . S
C316 O309 1.247 . S
C316 O310 1.261 . S
C317 O312 1.259 . S
C317 O314 1.235 . S
O318 Co308 2.021 . S
O318 C315 1.238 . S
O319 Co313 2.052 . S
O319 C315 1.241 . S
O320 Co308 2.137 . S
O320 C311 1.247 . S
O321 Co308 2.244 . S
O321 C311 1.272 . S
O321 Co313 2.135 . S
Co322 O323 2.216 . S
Co322 O324 2.091 1_655 S
Co322 O326 2.004 1_655 S
Co322 O332 2.021 . S
Co322 O334 2.137 . S
Co322 O335 2.244 . S
O323 Co322 2.216 . S
O323 C330 1.247 1_655 S
O324 Co322 2.091 1_455 S
O324 C330 1.261 . S
C325 O334 1.247 . S
C325 O335 1.272 . S
O326 Co322 2.004 1_455 S
O326 C331 1.259 1_455 S
Co327 O328 2.061 . S
Co327 O333 2.052 . S
Co327 O335 2.135 . S
O328 Co327 2.061 . S
O328 C331 1.235 . S
C329 O332 1.238 . S
C329 O333 1.241 . S
C330 O323 1.247 1_455 S
C330 O324 1.261 . S
C331 O326 1.259 1_655 S
C331 O328 1.235 . S
O332 Co322 2.021 . S
O332 C329 1.238 . S
O333 Co327 2.052 . S
O333 C329 1.241 . S
O334 Co322 2.137 . S
O334 C325 1.247 . S
O335 Co322 2.244 . S
O335 C325 1.272 . S
O335 Co327 2.135 . S
Co336 O337 2.216 . S
Co336 O338 2.091 1_565 S
Co336 O340 2.004 1_565 S
Co336 O346 2.021 . S
Co336 O348 2.137 1_565 S
Co336 O349 2.244 . S
O337 Co336 2.216 . S
O337 C344 1.247 1_565 S
O338 Co336 2.091 1_545 S
O338 C344 1.261 . S
C339 O348 1.247 1_565 S
C339 O349 1.272 . S
O340 Co336 2.004 1_545 S
O340 C345 1.259 1_545 S
Co341 O342 2.061 . S
Co341 O347 2.052 . S
Co341 O349 2.135 . S
O342 Co341 2.061 . S
O342 C345 1.235 . S
C343 O346 1.238 . S
C343 O347 1.241 . S
C344 O337 1.247 1_545 S
C344 O338 1.261 . S
C345 O340 1.259 1_565 S
C345 O342 1.235 . S
O346 Co336 2.021 . S
O346 C343 1.238 . S
O347 Co341 2.052 . S
O347 C343 1.241 . S
O348 Co336 2.137 1_545 S
O348 C339 1.247 1_545 S
O349 Co336 2.244 . S
O349 C339 1.272 . S
O349 Co341 2.135 . S
Co350 O351 2.216 . S
Co350 O352 2.091 . S
Co350 O354 2.004 . S
Co350 O360 2.021 . S
Co350 O362 2.137 . S
Co350 O363 2.244 . S
O351 Co350 2.216 . S
O351 C358 1.247 . S
O352 Co350 2.091 . S
O352 C358 1.261 . S
C353 O362 1.247 . S
C353 O363 1.272 . S
O354 Co350 2.004 . S
O354 C359 1.259 . S
Co355 O356 2.061 . S
Co355 O361 2.052 . S
Co355 O363 2.135 . S
O356 Co355 2.061 . S
O356 C359 1.235 . S
C357 O360 1.238 . S
C357 O361 1.241 . S
C358 O351 1.247 . S
C358 O352 1.261 . S
C359 O354 1.259 . S
C359 O356 1.235 . S
O360 Co350 2.021 . S
O360 C357 1.238 . S
O361 Co355 2.052 . S
O361 C357 1.241 . S
O362 Co350 2.137 . S
O362 C353 1.247 . S
O363 Co350 2.244 . S
O363 C353 1.272 . S
O363 Co355 2.135 . S
Co364 O365 2.216 . S
Co364 O366 2.091 . S
Co364 O368 2.004 . S
Co364 O374 2.021 . S
Co364 O376 2.137 . S
Co364 O377 2.244 . S
O365 Co364 2.216 . S
O365 C372 1.247 . S
O366 Co364 2.091 . S
O366 C372 1.261 . S
C367 O376 1.247 . S
C367 O377 1.272 . S
O368 Co364 2.004 . S
O368 C373 1.259 . S
Co369 O370 2.061 . S
Co369 O375 2.052 . S
Co369 O377 2.135 . S
O370 Co369 2.061 . S
O370 C373 1.235 . S
C371 O374 1.238 . S
C371 O375 1.241 . S
C372 O365 1.247 . S
C372 O366 1.261 . S
C373 O368 1.259 . S
C373 O370 1.235 . S
O374 Co364 2.021 . S
O374 C371 1.238 . S
O375 Co369 2.052 . S
O375 C371 1.241 . S
O376 Co364 2.137 . S
O376 C367 1.247 . S
O377 Co364 2.244 . S
O377 C367 1.272 . S
O377 Co369 2.135 . S
Co378 O379 2.216 . S
Co378 O380 2.091 . S
Co378 O382 2.004 . S
Co378 O388 2.021 . S
Co378 O390 2.137 . S
Co378 O391 2.244 . S
O379 Co378 2.216 . S
O379 C386 1.247 . S
O380 Co378 2.091 . S
O380 C386 1.261 . S
C381 O390 1.247 . S
C381 O391 1.272 . S
O382 Co378 2.004 . S
O382 C387 1.259 . S
Co383 O384 2.061 . S
Co383 O389 2.052 . S
Co383 O391 2.135 . S
O384 Co383 2.061 . S
O384 C387 1.235 . S
C385 O388 1.238 . S
C385 O389 1.241 . S
C386 O379 1.247 . S
C386 O380 1.261 . S
C387 O382 1.259 . S
C387 O384 1.235 . S
O388 Co378 2.021 . S
O388 C385 1.238 . S
O389 Co383 2.052 . S
O389 C385 1.241 . S
O390 Co378 2.137 . S
O390 C381 1.247 . S
O391 Co378 2.244 . S
O391 C381 1.272 . S
O391 Co383 2.135 . S
Co392 O393 2.216 . S
Co392 O394 2.091 1_565 S
Co392 O396 2.004 1_565 S
Co392 O402 2.021 . S
Co392 O404 2.137 . S
Co392 O405 2.244 . S
O393 Co392 2.216 . S
O393 C400 1.247 1_565 S
O394 Co392 2.091 1_545 S
O394 C400 1.261 . S
C395 O404 1.247 . S
C395 O405 1.272 . S
O396 Co392 2.004 1_545 S
O396 C401 1.259 1_545 S
Co397 O398 2.061 . S
Co397 O403 2.052 . S
Co397 O405 2.135 . S
O398 Co397 2.061 . S
O398 C401 1.235 . S
C399 O402 1.238 . S
C399 O403 1.241 . S
C400 O393 1.247 1_545 S
C400 O394 1.261 . S
C401 O396 1.259 1_565 S
C401 O398 1.235 . S
O402 Co392 2.021 . S
O402 C399 1.238 . S
O403 Co397 2.052 . S
O403 C399 1.241 . S
O404 Co392 2.137 . S
O404 C395 1.247 . S
O405 Co392 2.244 . S
O405 C395 1.272 . S
O405 Co397 2.135 . S
Co406 O407 2.216 . S
Co406 O408 2.091 . S
Co406 O410 2.004 . S
Co406 O416 2.021 . S
Co406 O418 2.137 . S
Co406 O419 2.244 . S
O407 Co406 2.216 . S
O407 C414 1.247 . S
O408 Co406 2.091 . S
O408 C414 1.261 . S
C409 O418 1.247 . S
C409 O419 1.272 . S
O410 Co406 2.004 . S
O410 C415 1.259 . S
Co411 O412 2.061 . S
Co411 O417 2.052 . S
Co411 O419 2.135 . S
O412 Co411 2.061 . S
O412 C415 1.235 . S
C413 O416 1.238 . S
C413 O417 1.241 . S
C414 O407 1.247 . S
C414 O408 1.261 . S
C415 O410 1.259 . S
C415 O412 1.235 . S
O416 Co406 2.021 . S
O416 C413 1.238 . S
O417 Co411 2.052 . S
O417 C413 1.241 . S
O418 Co406 2.137 . S
O418 C409 1.247 . S
O419 Co406 2.244 . S
O419 C409 1.272 . S
O419 Co411 2.135 . S
Co420 O421 2.216 . S
Co420 O422 2.091 . S
Co420 O424 2.004 . S
Co420 O430 2.021 . S
Co420 O432 2.137 . S
Co420 O433 2.244 . S
O421 Co420 2.216 . S
O421 C428 1.247 . S
O422 Co420 2.091 . S
O422 C428 1.261 . S
C423 O432 1.247 . S
C423 O433 1.272 . S
O424 Co420 2.004 . S
O424 C429 1.259 . S
Co425 O426 2.061 . S
Co425 O431 2.052 . S
Co425 O433 2.135 . S
O426 Co425 2.061 . S
O426 C429 1.235 . S
C427 O430 1.238 . S
C427 O431 1.241 . S
C428 O421 1.247 . S
C428 O422 1.261 . S
C429 O424 1.259 . S
C429 O426 1.235 . S
O430 Co420 2.021 . S
O430 C427 1.238 . S
O431 Co425 2.052 . S
O431 C427 1.241 . S
O432 Co420 2.137 . S
O432 C423 1.247 . S
O433 Co420 2.244 . S
O433 C423 1.272 . S
O433 Co425 2.135 . S
Co434 O435 2.216 . S
Co434 O436 2.091 1_565 S
Co434 O438 2.004 1_565 S
Co434 O444 2.021 . S
Co434 O446 2.137 . S
Co434 O447 2.244 . S
O435 Co434 2.216 . S
O435 C442 1.247 1_565 S
O436 Co434 2.091 1_545 S
O436 C442 1.261 . S
C437 O446 1.247 . S
C437 O447 1.272 . S
O438 Co434 2.004 1_545 S
O438 C443 1.259 1_545 S
Co439 O440 2.061 . S
Co439 O445 2.052 . S
Co439 O447 2.135 . S
O440 Co439 2.061 . S
O440 C443 1.235 . S
C441 O444 1.238 . S
C441 O445 1.241 . S
C442 O435 1.247 1_545 S
C442 O436 1.261 . S
C443 O438 1.259 1_565 S
C443 O440 1.235 . S
O444 Co434 2.021 . S
O444 C441 1.238 . S
O445 Co439 2.052 . S
O445 C441 1.241 . S
O446 Co434 2.137 . S
O446 C437 1.247 . S
O447 Co434 2.244 . S
O447 C437 1.272 . S
O447 Co439 2.135 . S
Co448 O449 2.216 . S
Co448 O450 2.091 . S
Co448 O452 2.004 . S
Co448 O458 2.021 . S
Co448 O460 2.137 . S
Co448 O461 2.244 . S
O449 Co448 2.216 . S
O449 C456 1.247 . S
O450 Co448 2.091 . S
O450 C456 1.261 . S
C451 O460 1.247 . S
C451 O461 1.272 . S
O452 Co448 2.004 . S
O452 C457 1.259 . S
Co453 O454 2.061 . S
Co453 O459 2.052 . S
Co453 O461 2.135 . S
O454 Co453 2.061 . S
O454 C457 1.235 . S
C455 O458 1.238 . S
C455 O459 1.241 . S
C456 O449 1.247 . S
C456 O450 1.261 . S
C457 O452 1.259 . S
C457 O454 1.235 . S
O458 Co448 2.021 . S
O458 C455 1.238 . S
O459 Co453 2.052 . S
O459 C455 1.241 . S
O460 Co448 2.137 . S
O460 C451 1.247 . S
O461 Co448 2.244 . S
O461 C451 1.272 . S
O461 Co453 2.135 . S
Co462 O463 2.216 . S
Co462 O464 2.091 . S
Co462 O466 2.004 . S
Co462 O472 2.021 . S
Co462 O474 2.137 . S
Co462 O475 2.244 . S
O463 Co462 2.216 . S
O463 C470 1.247 . S
O464 Co462 2.091 . S
O464 C470 1.261 . S
C465 O474 1.247 . S
C465 O475 1.272 . S
O466 Co462 2.004 . S
O466 C471 1.259 . S
Co467 O468 2.061 . S
Co467 O473 2.052 . S
Co467 O475 2.135 . S
O468 Co467 2.061 . S
O468 C471 1.235 . S
C469 O472 1.238 . S
C469 O473 1.241 . S
C470 O463 1.247 . S
C470 O464 1.261 . S
C471 O466 1.259 . S
C471 O468 1.235 . S
O472 Co462 2.021 . S
O472 C469 1.238 . S
O473 Co467 2.052 . S
O473 C469 1.241 . S
O474 Co462 2.137 . S
O474 C465 1.247 . S
O475 Co462 2.244 . S
O475 C465 1.272 . S
O475 Co467 2.135 . S
Co476 O477 2.216 . S
Co476 O478 2.091 . S
Co476 O480 2.004 . S
Co476 O486 2.021 . S
Co476 O488 2.137 . S
Co476 O489 2.244 . S
O477 Co476 2.216 . S
O477 C484 1.247 . S
O478 Co476 2.091 . S
O478 C484 1.261 . S
C479 O488 1.247 . S
C479 O489 1.272 . S
O480 Co476 2.004 . S
O480 C485 1.259 . S
Co481 O482 2.061 . S
Co481 O487 2.052 . S
Co481 O489 2.135 . S
O482 Co481 2.061 . S
O482 C485 1.235 . S
C483 O486 1.238 . S
C483 O487 1.241 . S
C484 O477 1.247 . S
C484 O478 1.261 . S
C485 O480 1.259 . S
C485 O482 1.235 . S
O486 Co476 2.021 . S
O486 C483 1.238 . S
O487 Co481 2.052 . S
O487 C483 1.241 . S
O488 Co476 2.137 . S
O488 C479 1.247 . S
O489 Co476 2.244 . S
O489 C479 1.272 . S
O489 Co481 2.135 . S
Co490 O491 2.216 . S
Co490 O492 2.091 1_565 S
Co490 O494 2.004 1_565 S
Co490 O500 2.021 . S
Co490 O502 2.137 1_565 S
Co490 O503 2.244 . S
O491 Co490 2.216 . S
O491 C498 1.247 1_565 S
O492 Co490 2.091 1_545 S
O492 C498 1.261 . S
C493 O502 1.247 1_565 S
C493 O503 1.272 . S
O494 Co490 2.004 1_545 S
O494 C499 1.259 1_545 S
Co495 O496 2.061 . S
Co495 O501 2.052 . S
Co495 O503 2.135 . S
O496 Co495 2.061 . S
O496 C499 1.235 . S
C497 O500 1.238 . S
C497 O501 1.241 . S
C498 O491 1.247 1_545 S
C498 O492 1.261 . S
C499 O494 1.259 1_565 S
C499 O496 1.235 . S
O500 Co490 2.021 . S
O500 C497 1.238 . S
O501 Co495 2.052 . S
O501 C497 1.241 . S
O502 Co490 2.137 1_545 S
O502 C493 1.247 1_545 S
O503 Co490 2.244 . S
O503 C493 1.272 . S
O503 Co495 2.135 . S
C504 C505 1.369 . S
C504 C506 1.419 . S
C504 H508 0.930 . S
C505 C504 1.369 . S
C505 C514 1.429 . S
C506 C504 1.419 . S
C506 C507 1.363 . S
C506 H509 0.929 . S
C507 C506 1.363 . S
C507 C513 1.428 . S
H508 C504 0.930 . S
H509 C506 0.929 . S
S510 N511 1.613 . S
S510 N512 1.610 . S
N511 S510 1.613 . S
N511 C514 1.350 . S
N512 S510 1.610 . S
N512 C513 1.351 . S
C513 C507 1.428 . S
C513 N512 1.351 . S
C513 C514 1.434 . S
C514 C505 1.429 . S
C514 N511 1.350 . S
C514 C513 1.434 . S
C515 C516 1.369 . S
C515 C517 1.419 . S
C515 H519 0.930 . S
C516 C515 1.369 . S
C516 C525 1.429 . S
C517 C515 1.419 . S
C517 C518 1.363 . S
C517 H520 0.929 . S
C518 C517 1.363 . S
C518 C524 1.428 . S
H519 C515 0.930 . S
H520 C517 0.929 . S
S521 N522 1.613 . S
S521 N523 1.610 . S
N522 S521 1.613 . S
N522 C525 1.350 . S
N523 S521 1.610 . S
N523 C524 1.351 . S
C524 C518 1.428 . S
C524 N523 1.351 . S
C524 C525 1.434 . S
C525 C516 1.429 . S
C525 N522 1.350 . S
C525 C524 1.434 . S
C526 C527 1.369 . S
C526 C528 1.419 . S
C526 H530 0.930 . S
C527 C526 1.369 . S
C527 C536 1.429 . S
C528 C526 1.419 . S
C528 C529 1.363 . S
C528 H531 0.929 . S
C529 C528 1.363 . S
C529 C535 1.428 . S
H530 C526 0.930 . S
H531 C528 0.929 . S
S532 N533 1.613 . S
S532 N534 1.610 . S
N533 S532 1.613 . S
N533 C536 1.350 . S
N534 S532 1.610 . S
N534 C535 1.351 . S
C535 C529 1.428 . S
C535 N534 1.351 . S
C535 C536 1.434 . S
C536 C527 1.429 . S
C536 N533 1.350 . S
C536 C535 1.434 . S
C537 C538 1.369 . S
C537 C539 1.419 . S
C537 H541 0.930 . S
C538 C537 1.369 . S
C538 C547 1.429 . S
C539 C537 1.419 . S
C539 C540 1.363 . S
C539 H542 0.929 . S
C540 C539 1.363 . S
C540 C546 1.428 . S
H541 C537 0.930 . S
H542 C539 0.929 . S
S543 N544 1.613 . S
S543 N545 1.610 . S
N544 S543 1.613 . S
N544 C547 1.350 . S
N545 S543 1.610 . S
N545 C546 1.351 . S
C546 C540 1.428 . S
C546 N545 1.351 . S
C546 C547 1.434 . S
C547 C538 1.429 . S
C547 N544 1.350 . S
C547 C546 1.434 . S
C548 C549 1.369 . S
C548 C550 1.419 . S
C548 H552 0.930 . S
C549 C548 1.369 . S
C549 C558 1.429 . S
C550 C548 1.419 . S
C550 C551 1.363 . S
C550 H553 0.929 . S
C551 C550 1.363 . S
C551 C557 1.428 . S
H552 C548 0.930 . S
H553 C550 0.929 . S
S554 N555 1.613 . S
S554 N556 1.610 . S
N555 S554 1.613 . S
N555 C558 1.350 . S
N556 S554 1.610 . S
N556 C557 1.351 . S
C557 C551 1.428 . S
C557 N556 1.351 . S
C557 C558 1.434 . S
C558 C549 1.429 . S
C558 N555 1.350 . S
C558 C557 1.434 . S
C559 C560 1.369 . S
C559 C561 1.419 . S
C559 H563 0.930 . S
C560 C559 1.369 . S
C560 C569 1.429 . S
C561 C559 1.419 . S
C561 C562 1.363 . S
C561 H564 0.929 . S
C562 C561 1.363 . S
C562 C568 1.428 . S
H563 C559 0.930 . S
H564 C561 0.929 . S
S565 N566 1.613 . S
S565 N567 1.610 . S
N566 S565 1.613 . S
N566 C569 1.350 . S
N567 S565 1.610 . S
N567 C568 1.351 . S
C568 C562 1.428 . S
C568 N567 1.351 . S
C568 C569 1.434 . S
C569 C560 1.429 . S
C569 N566 1.350 . S
C569 C568 1.434 . S
C570 C571 1.369 . S
C570 C572 1.419 . S
C570 H574 0.930 . S
C571 C570 1.369 . S
C571 C580 1.429 . S
C572 C570 1.419 . S
C572 C573 1.363 . S
C572 H575 0.929 . S
C573 C572 1.363 . S
C573 C579 1.428 . S
H574 C570 0.930 . S
H575 C572 0.929 . S
S576 N577 1.613 . S
S576 N578 1.610 . S
N577 S576 1.613 . S
N577 C580 1.350 . S
N578 S576 1.610 . S
N578 C579 1.351 . S
C579 C573 1.428 . S
C579 N578 1.351 . S
C579 C580 1.434 . S
C580 C571 1.429 . S
C580 N577 1.350 . S
C580 C579 1.434 . S
C581 C582 1.369 . S
C581 C583 1.419 . S
C581 H585 0.930 . S
C582 C581 1.369 . S
C582 C591 1.429 . S
C583 C581 1.419 . S
C583 C584 1.363 . S
C583 H586 0.929 . S
C584 C583 1.363 . S
C584 C590 1.428 . S
H585 C581 0.930 . S
H586 C583 0.929 . S
S587 N588 1.613 . S
S587 N589 1.610 . S
N588 S587 1.613 . S
N588 C591 1.350 . S
N589 S587 1.610 . S
N589 C590 1.351 . S
C590 C584 1.428 . S
C590 N589 1.351 . S
C590 C591 1.434 . S
C591 C582 1.429 . S
C591 N588 1.350 . S
C591 C590 1.434 . S
C592 C593 1.369 . S
C592 C594 1.419 . S
C592 H596 0.930 . S
C593 C592 1.369 . S
C593 C602 1.429 . S
C594 C592 1.419 . S
C594 C595 1.363 . S
C594 H597 0.929 . S
C595 C594 1.363 . S
C595 C601 1.428 . S
H596 C592 0.930 . S
H597 C594 0.929 . S
S598 N599 1.613 . S
S598 N600 1.610 . S
N599 S598 1.613 . S
N599 C602 1.350 . S
N600 S598 1.610 . S
N600 C601 1.351 . S
C601 C595 1.428 . S
C601 N600 1.351 . S
C601 C602 1.434 . S
C602 C593 1.429 . S
C602 N599 1.350 . S
C602 C601 1.434 . S
C603 C604 1.369 1_455 S
C603 C605 1.419 . S
C603 H607 0.930 . S
C604 C603 1.369 1_655 S
C604 C613 1.429 . S
C605 C603 1.419 . S
C605 C606 1.363 1_455 S
C605 H608 0.929 . S
C606 C605 1.363 1_655 S
C606 C612 1.428 . S
H607 C603 0.930 . S
H608 C605 0.929 . S
S609 N610 1.613 . S
S609 N611 1.610 . S
N610 S609 1.613 . S
N610 C613 1.350 . S
N611 S609 1.610 . S
N611 C612 1.351 . S
C612 C606 1.428 . S
C612 N611 1.351 . S
C612 C613 1.434 . S
C613 C604 1.429 . S
C613 N610 1.350 . S
C613 C612 1.434 . S
C614 C615 1.369 . S
C614 C616 1.419 . S
C614 H618 0.930 . S
C615 C614 1.369 . S
C615 C624 1.429 . S
C616 C614 1.419 . S
C616 C617 1.363 . S
C616 H619 0.929 . S
C617 C616 1.363 . S
C617 C623 1.428 . S
H618 C614 0.930 . S
H619 C616 0.929 . S
S620 N621 1.613 . S
S620 N622 1.610 . S
N621 S620 1.613 . S
N621 C624 1.350 . S
N622 S620 1.610 . S
N622 C623 1.351 . S
C623 C617 1.428 . S
C623 N622 1.351 . S
C623 C624 1.434 . S
C624 C615 1.429 . S
C624 N621 1.350 . S
C624 C623 1.434 . S
C625 C626 1.369 . S
C625 C627 1.419 . S
C625 H629 0.930 . S
C626 C625 1.369 . S
C626 C635 1.429 . S
C627 C625 1.419 . S
C627 C628 1.363 . S
C627 H630 0.929 . S
C628 C627 1.363 . S
C628 C634 1.428 . S
H629 C625 0.930 . S
H630 C627 0.929 . S
S631 N632 1.613 . S
S631 N633 1.610 . S
N632 S631 1.613 . S
N632 C635 1.350 . S
N633 S631 1.610 . S
N633 C634 1.351 . S
C634 C628 1.428 . S
C634 N633 1.351 . S
C634 C635 1.434 . S
C635 C626 1.429 . S
C635 N632 1.350 . S
C635 C634 1.434 . S
C636 C637 1.369 . S
C636 C638 1.419 . S
C636 H640 0.930 . S
C637 C636 1.369 . S
C637 C646 1.429 1_565 S
C638 C636 1.419 . S
C638 C639 1.363 . S
C638 H641 0.929 . S
C639 C638 1.363 . S
C639 C645 1.428 1_565 S
H640 C636 0.930 . S
H641 C638 0.929 . S
S642 N643 1.613 . S
S642 N644 1.610 . S
N643 S642 1.613 . S
N643 C646 1.350 . S
N644 S642 1.610 . S
N644 C645 1.351 . S
C645 C639 1.428 1_545 S
C645 N644 1.351 . S
C645 C646 1.434 . S
C646 C637 1.429 1_545 S
C646 N643 1.350 . S
C646 C645 1.434 . S
C647 C648 1.369 . S
C647 C649 1.419 . S
C647 H651 0.930 . S
C648 C647 1.369 . S
C648 C657 1.429 . S
C649 C647 1.419 . S
C649 C650 1.363 . S
C649 H652 0.929 . S
C650 C649 1.363 . S
C650 C656 1.428 . S
H651 C647 0.930 . S
H652 C649 0.929 . S
S653 N654 1.613 . S
S653 N655 1.610 . S
N654 S653 1.613 . S
N654 C657 1.350 . S
N655 S653 1.610 . S
N655 C656 1.351 . S
C656 C650 1.428 . S
C656 N655 1.351 . S
C656 C657 1.434 . S
C657 C648 1.429 . S
C657 N654 1.350 . S
C657 C656 1.434 . S
C658 C659 1.369 . S
C658 C660 1.419 . S
C658 H662 0.930 . S
C659 C658 1.369 . S
C659 C668 1.429 . S
C660 C658 1.419 . S
C660 C661 1.363 . S
C660 H663 0.929 . S
C661 C660 1.363 . S
C661 C667 1.428 . S
H662 C658 0.930 . S
H663 C660 0.929 . S
S664 N665 1.613 . S
S664 N666 1.610 . S
N665 S664 1.613 . S
N665 C668 1.350 . S
N666 S664 1.610 . S
N666 C667 1.351 . S
C667 C661 1.428 . S
C667 N666 1.351 . S
C667 C668 1.434 . S
C668 C659 1.429 . S
C668 N665 1.350 . S
C668 C667 1.434 . S
C669 C670 1.369 . S
C669 C671 1.419 . S
C669 H673 0.930 . S
C670 C669 1.369 . S
C670 C679 1.429 . S
C671 C669 1.419 . S
C671 C672 1.363 . S
C671 H674 0.929 . S
C672 C671 1.363 . S
C672 C678 1.428 . S
H673 C669 0.930 . S
H674 C671 0.929 . S
S675 N676 1.613 . S
S675 N677 1.610 . S
N676 S675 1.613 . S
N676 C679 1.350 . S
N677 S675 1.610 . S
N677 C678 1.351 . S
C678 C672 1.428 . S
C678 N677 1.351 . S
C678 C679 1.434 . S
C679 C670 1.429 . S
C679 N676 1.350 . S
C679 C678 1.434 . S
C680 C681 1.369 . S
C680 C682 1.419 . S
C680 H684 0.930 . S
C681 C680 1.369 . S
C681 C690 1.429 . S
C682 C680 1.419 . S
C682 C683 1.363 . S
C682 H685 0.929 . S
C683 C682 1.363 . S
C683 C689 1.428 . S
H684 C680 0.930 . S
H685 C682 0.929 . S
S686 N687 1.613 . S
S686 N688 1.610 . S
N687 S686 1.613 . S
N687 C690 1.350 . S
N688 S686 1.610 . S
N688 C689 1.351 . S
C689 C683 1.428 . S
C689 N688 1.351 . S
C689 C690 1.434 . S
C690 C681 1.429 . S
C690 N687 1.350 . S
C690 C689 1.434 . S
C691 C692 1.369 . S
C691 C693 1.419 . S
C691 H695 0.930 . S
C692 C691 1.369 . S
C692 C701 1.429 . S
C693 C691 1.419 . S
C693 C694 1.363 . S
C693 H696 0.929 . S
C694 C693 1.363 . S
C694 C700 1.428 . S
H695 C691 0.930 . S
H696 C693 0.929 . S
S697 N698 1.613 . S
S697 N699 1.610 . S
N698 S697 1.613 . S
N698 C701 1.350 . S
N699 S697 1.610 . S
N699 C700 1.351 . S
C700 C694 1.428 . S
C700 N699 1.351 . S
C700 C701 1.434 . S
C701 C692 1.429 . S
C701 N698 1.350 . S
C701 C700 1.434 . S
C702 C703 1.369 . S
C702 C704 1.419 . S
C702 H706 0.930 . S
C703 C702 1.369 . S
C703 C712 1.429 . S
C704 C702 1.419 . S
C704 C705 1.363 . S
C704 H707 0.929 . S
C705 C704 1.363 . S
C705 C711 1.428 . S
H706 C702 0.930 . S
H707 C704 0.929 . S
S708 N709 1.613 . S
S708 N710 1.610 . S
N709 S708 1.613 . S
N709 C712 1.350 1_655 S
N710 S708 1.610 . S
N710 C711 1.351 1_655 S
C711 C705 1.428 . S
C711 N710 1.351 1_455 S
C711 C712 1.434 . S
C712 C703 1.429 . S
C712 N709 1.350 1_455 S
C712 C711 1.434 . S
C713 C714 1.369 . S
C713 C715 1.419 . S
C713 H717 0.930 . S
C714 C713 1.369 . S
C714 C723 1.429 . S
C715 C713 1.419 . S
C715 C716 1.363 . S
C715 H718 0.929 . S
C716 C715 1.363 . S
C716 C722 1.428 . S
H717 C713 0.930 . S
H718 C715 0.929 . S
S719 N720 1.613 . S
S719 N721 1.610 . S
N720 S719 1.613 . S
N720 C723 1.350 . S
N721 S719 1.610 . S
N721 C722 1.351 . S
C722 C716 1.428 . S
C722 N721 1.351 . S
C722 C723 1.434 . S
C723 C714 1.429 . S
C723 N720 1.350 . S
C723 C722 1.434 . S
C724 C725 1.369 . S
C724 C726 1.419 . S
C724 H728 0.930 . S
C725 C724 1.369 . S
C725 C734 1.429 . S
C726 C724 1.419 . S
C726 C727 1.363 . S
C726 H729 0.929 . S
C727 C726 1.363 . S
C727 C733 1.428 . S
H728 C724 0.930 . S
H729 C726 0.929 . S
S730 N731 1.613 . S
S730 N732 1.610 . S
N731 S730 1.613 . S
N731 C734 1.350 . S
N732 S730 1.610 . S
N732 C733 1.351 . S
C733 C727 1.428 . S
C733 N732 1.351 . S
C733 C734 1.434 . S
C734 C725 1.429 . S
C734 N731 1.350 . S
C734 C733 1.434 . S
C735 C736 1.369 1_565 S
C735 C737 1.419 . S
C735 H739 0.930 . S
C736 C735 1.369 1_545 S
C736 C745 1.429 . S
C737 C735 1.419 . S
C737 C738 1.363 1_565 S
C737 H740 0.929 . S
C738 C737 1.363 1_545 S
C738 C744 1.428 . S
H739 C735 0.930 . S
H740 C737 0.929 . S
S741 N742 1.613 . S
S741 N743 1.610 . S
N742 S741 1.613 . S
N742 C745 1.350 . S
N743 S741 1.610 . S
N743 C744 1.351 . S
C744 C738 1.428 . S
C744 N743 1.351 . S
C744 C745 1.434 . S
C745 C736 1.429 . S
C745 N742 1.350 . S
C745 C744 1.434 . S
C746 C747 1.369 . S
C746 C748 1.419 . S
C746 H750 0.930 . S
C747 C746 1.369 . S
C747 C756 1.429 . S
C748 C746 1.419 . S
C748 C749 1.363 . S
C748 H751 0.929 . S
C749 C748 1.363 . S
C749 C755 1.428 . S
H750 C746 0.930 . S
H751 C748 0.929 . S
S752 N753 1.613 . S
S752 N754 1.610 . S
N753 S752 1.613 . S
N753 C756 1.350 1_655 S
N754 S752 1.610 . S
N754 C755 1.351 1_655 S
C755 C749 1.428 . S
C755 N754 1.351 1_455 S
C755 C756 1.434 . S
C756 C747 1.429 . S
C756 N753 1.350 1_455 S
C756 C755 1.434 . S
C757 C758 1.369 . S
C757 C759 1.419 . S
C757 H761 0.930 . S
C758 C757 1.369 . S
C758 C767 1.429 . S
C759 C757 1.419 . S
C759 C760 1.363 . S
C759 H762 0.929 . S
C760 C759 1.363 . S
C760 C766 1.428 . S
H761 C757 0.930 . S
H762 C759 0.929 . S
S763 N764 1.613 . S
S763 N765 1.610 . S
N764 S763 1.613 . S
N764 C767 1.350 . S
N765 S763 1.610 . S
N765 C766 1.351 . S
C766 C760 1.428 . S
C766 N765 1.351 . S
C766 C767 1.434 . S
C767 C758 1.429 . S
C767 N764 1.350 . S
C767 C766 1.434 . S
C768 C769 1.369 . S
C768 C770 1.419 . S
C768 H772 0.930 1_455 S
C769 C768 1.369 . S
C769 C778 1.429 . S
C770 C768 1.419 . S
C770 C771 1.363 . S
C770 H773 0.929 1_455 S
C771 C770 1.363 . S
C771 C777 1.428 . S
H772 C768 0.930 1_655 S
H773 C770 0.929 1_655 S
S774 N775 1.613 . S
S774 N776 1.610 . S
N775 S774 1.613 . S
N775 C778 1.350 . S
N776 S774 1.610 . S
N776 C777 1.351 . S
C777 C771 1.428 . S
C777 N776 1.351 . S
C777 C778 1.434 . S
C778 C769 1.429 . S
C778 N775 1.350 . S
C778 C777 1.434 . S
C779 C780 1.369 . S
C779 C781 1.419 . S
C779 H783 0.930 . S
C780 C779 1.369 . S
C780 C789 1.429 . S
C781 C779 1.419 . S
C781 C782 1.363 . S
C781 H784 0.929 . S
C782 C781 1.363 . S
C782 C788 1.428 . S
H783 C779 0.930 . S
H784 C781 0.929 . S
S785 N786 1.613 . S
S785 N787 1.610 . S
N786 S785 1.613 . S
N786 C789 1.350 . S
N787 S785 1.610 . S
N787 C788 1.351 . S
C788 C782 1.428 . S
C788 N787 1.351 . S
C788 C789 1.434 . S
C789 C780 1.429 . S
C789 N786 1.350 . S
C789 C788 1.434 . S
C790 C791 1.369 1_565 S
C790 C792 1.419 . S
C790 H794 0.930 . S
C791 C790 1.369 1_545 S
C791 C800 1.429 . S
C792 C790 1.419 . S
C792 C793 1.363 1_565 S
C792 H795 0.929 . S
C793 C792 1.363 1_545 S
C793 C799 1.428 . S
H794 C790 0.930 . S
H795 C792 0.929 . S
S796 N797 1.613 . S
S796 N798 1.610 . S
N797 S796 1.613 . S
N797 C800 1.350 . S
N798 S796 1.610 . S
N798 C799 1.351 . S
C799 C793 1.428 . S
C799 N798 1.351 . S
C799 C800 1.434 . S
C800 C791 1.429 . S
C800 N797 1.350 . S
C800 C799 1.434 . S
C801 C802 1.369 . S
C801 C803 1.419 . S
C801 H805 0.930 1_545 S
C802 C801 1.369 . S
C802 C811 1.429 . S
C803 C801 1.419 . S
C803 C804 1.363 . S
C803 H806 0.929 1_545 S
C804 C803 1.363 . S
C804 C810 1.428 . S
H805 C801 0.930 1_565 S
H806 C803 0.929 1_565 S
S807 N808 1.613 . S
S807 N809 1.610 . S
N808 S807 1.613 . S
N808 C811 1.350 . S
N809 S807 1.610 . S
N809 C810 1.351 . S
C810 C804 1.428 . S
C810 N809 1.351 . S
C810 C811 1.434 . S
C811 C802 1.429 . S
C811 N808 1.350 . S
C811 C810 1.434 . S
C812 C813 1.369 . S
C812 C814 1.419 . S
C812 H816 0.930 . S
C813 C812 1.369 . S
C813 C822 1.429 . S
C814 C812 1.419 . S
C814 C815 1.363 . S
C814 H817 0.929 . S
C815 C814 1.363 . S
C815 C821 1.428 . S
H816 C812 0.930 . S
H817 C814 0.929 . S
S818 N819 1.613 . S
S818 N820 1.610 . S
N819 S818 1.613 . S
N819 C822 1.350 . S
N820 S818 1.610 . S
N820 C821 1.351 . S
C821 C815 1.428 . S
C821 N820 1.351 . S
C821 C822 1.434 . S
C822 C813 1.429 . S
C822 N819 1.350 . S
C822 C821 1.434 . S
C823 C824 1.369 . S
C823 C825 1.419 . S
C823 H827 0.930 . S
C824 C823 1.369 . S
C824 C833 1.429 . S
C825 C823 1.419 . S
C825 C826 1.363 . S
C825 H828 0.929 . S
C826 C825 1.363 . S
C826 C832 1.428 . S
H827 C823 0.930 . S
H828 C825 0.929 . S
S829 N830 1.613 . S
S829 N831 1.610 . S
N830 S829 1.613 . S
N830 C833 1.350 . S
N831 S829 1.610 . S
N831 C832 1.351 . S
C832 C826 1.428 . S
C832 N831 1.351 . S
C832 C833 1.434 . S
C833 C824 1.429 . S
C833 N830 1.350 . S
C833 C832 1.434 . S
C834 C835 1.369 . S
C834 C836 1.419 . S
C834 H838 0.930 . S
C835 C834 1.369 . S
C835 C844 1.429 . S
C836 C834 1.419 . S
C836 C837 1.363 . S
C836 H839 0.929 . S
C837 C836 1.363 . S
C837 C843 1.428 . S
H838 C834 0.930 . S
H839 C836 0.929 . S
S840 N841 1.613 . S
S840 N842 1.610 . S
N841 S840 1.613 . S
N841 C844 1.350 . S
N842 S840 1.610 . S
N842 C843 1.351 . S
C843 C837 1.428 . S
C843 N842 1.351 . S
C843 C844 1.434 . S
C844 C835 1.429 . S
C844 N841 1.350 . S
C844 C843 1.434 . S
C845 C846 1.369 . S
C845 C847 1.419 . S
C845 H849 0.930 . S
C846 C845 1.369 . S
C846 C855 1.429 . S
C847 C845 1.419 . S
C847 C848 1.363 . S
C847 H850 0.929 . S
C848 C847 1.363 . S
C848 C854 1.428 . S
H849 C845 0.930 . S
H850 C847 0.929 . S
S851 N852 1.613 1_565 S
S851 N853 1.610 1_565 S
N852 S851 1.613 1_545 S
N852 C855 1.350 . S
N853 S851 1.610 1_545 S
N853 C854 1.351 . S
C854 C848 1.428 . S
C854 N853 1.351 . S
C854 C855 1.434 . S
C855 C846 1.429 . S
C855 N852 1.350 . S
C855 C854 1.434 . S
C856 C857 1.369 . S
C856 C858 1.419 . S
C856 H860 0.930 . S
C857 C856 1.369 . S
C857 C866 1.429 . S
C858 C856 1.419 . S
C858 C859 1.363 . S
C858 H861 0.929 . S
C859 C858 1.363 . S
C859 C865 1.428 . S
H860 C856 0.930 . S
H861 C858 0.929 . S
S862 N863 1.613 . S
S862 N864 1.610 . S
N863 S862 1.613 . S
N863 C866 1.350 . S
N864 S862 1.610 . S
N864 C865 1.351 . S
C865 C859 1.428 . S
C865 N864 1.351 . S
C865 C866 1.434 . S
C866 C857 1.429 . S
C866 N863 1.350 . S
C866 C865 1.434 . S
C867 C868 1.369 . S
C867 C869 1.419 . S
C867 H871 0.930 . S
C868 C867 1.369 . S
C868 C877 1.429 . S
C869 C867 1.419 . S
C869 C870 1.363 . S
C869 H872 0.929 . S
C870 C869 1.363 . S
C870 C876 1.428 . S
H871 C867 0.930 . S
H872 C869 0.929 . S
S873 N874 1.613 . S
S873 N875 1.610 . S
N874 S873 1.613 . S
N874 C877 1.350 . S
N875 S873 1.610 . S
N875 C876 1.351 . S
C876 C870 1.428 . S
C876 N875 1.351 . S
C876 C877 1.434 . S
C877 C868 1.429 . S
C877 N874 1.350 . S
C877 C876 1.434 . S
C878 C879 1.369 . S
C878 C880 1.419 . S
C878 H882 0.930 . S
C879 C878 1.369 . S
C879 C888 1.429 . S
C880 C878 1.419 . S
C880 C881 1.363 . S
C880 H883 0.929 . S
C881 C880 1.363 . S
C881 C887 1.428 . S
H882 C878 0.930 . S
H883 C880 0.929 . S
S884 N885 1.613 . S
S884 N886 1.610 . S
N885 S884 1.613 . S
N885 C888 1.350 . S
N886 S884 1.610 . S
N886 C887 1.351 . S
C887 C881 1.428 . S
C887 N886 1.351 . S
C887 C888 1.434 . S
C888 C879 1.429 . S
C888 N885 1.350 . S
C888 C887 1.434 . S
C889 C890 1.369 1_655 S
C889 C891 1.420 . S
C889 H893 0.930 . S
C890 C889 1.369 1_455 S
C890 C899 1.429 . S
C891 C889 1.420 . S
C891 C892 1.348 1_655 S
C891 H894 0.944 . S
C892 C891 1.348 1_455 S
C892 C898 1.428 . S
H893 C889 0.930 . S
H894 C891 0.944 . S
S895 N896 1.613 . S
S895 N897 1.610 . S
N896 S895 1.613 . S
N896 C899 1.350 . S
N897 S895 1.610 . S
N897 C898 1.351 . S
C898 C892 1.428 . S
C898 N897 1.351 . S
C898 C899 1.434 . S
C899 C890 1.429 . S
C899 N896 1.350 . S
C899 C898 1.434 . S
C900 C901 1.369 . S
C900 C902 1.419 1_554 S
C900 H904 0.930 . S
C901 C900 1.369 . S
C901 C910 1.429 1_455 S
C902 C900 1.419 1_556 S
C902 C903 1.363 . S
C902 H905 0.929 . S
C903 C902 1.363 . S
C903 C909 1.428 1_455 S
H904 C900 0.930 . S
H905 C902 0.929 . S
S906 N907 1.613 . S
S906 N908 1.610 1_554 S
N907 S906 1.613 . S
N907 C910 1.350 . S
N908 S906 1.610 1_556 S
N908 C909 1.351 . S
C909 C903 1.428 1_655 S
C909 N908 1.351 . S
C909 C910 1.434 1_556 S
C910 C901 1.429 1_655 S
C910 N907 1.350 . S
C910 C909 1.434 1_554 S
C911 C912 1.369 . S
C911 C913 1.419 1_556 S
C911 H915 0.930 . S
C912 C911 1.369 . S
C912 C921 1.429 . S
C913 C911 1.419 1_554 S
C913 C914 1.363 . S
C913 H916 0.929 . S
C914 C913 1.363 . S
C914 C920 1.428 . S
H915 C911 0.930 . S
H916 C913 0.929 . S
S917 N918 1.613 1_554 S
S917 N919 1.610 . S
N918 S917 1.613 1_556 S
N918 C921 1.350 . S
N919 S917 1.610 . S
N919 C920 1.351 . S
C920 C914 1.428 . S
C920 N919 1.351 . S
C920 C921 1.434 1_554 S
C921 C912 1.429 . S
C921 N918 1.350 . S
C921 C920 1.434 1_556 S
C922 C923 1.348 1_565 S
C922 C924 1.420 1_556 S
C922 H926 0.951 . S
C923 C922 1.348 1_545 S
C923 C932 1.429 . S
C924 C922 1.420 1_554 S
C924 C925 1.363 1_565 S
C924 H927 0.929 . S
C925 C924 1.363 1_545 S
C925 C931 1.428 . S
H926 C922 0.951 . S
H927 C924 0.929 . S
S928 N929 1.613 1_554 S
S928 N930 1.610 . S
N929 S928 1.613 1_556 S
N929 C932 1.350 . S
N930 S928 1.610 . S
N930 C931 1.351 . S
C931 C925 1.428 . S
C931 N930 1.351 . S
C931 C932 1.434 1_554 S
C932 C923 1.429 . S
C932 N929 1.350 . S
C932 C931 1.434 1_556 S
C933 C934 1.369 . S
C933 C935 1.419 1_556 S
C933 H937 0.930 1_455 S
C934 C933 1.369 . S
C934 C943 1.429 . S
C935 C933 1.419 1_554 S
C935 C936 1.363 . S
C935 H938 0.929 1_455 S
C936 C935 1.363 . S
C936 C942 1.428 . S
H937 C933 0.930 1_655 S
H938 C935 0.929 1_655 S
S939 N940 1.613 . S
S939 N941 1.610 1_556 S
N940 S939 1.613 . S
N940 C943 1.350 . S
N941 S939 1.610 1_554 S
N941 C942 1.351 . S
C942 C936 1.428 . S
C942 N941 1.351 . S
C942 C943 1.434 1_554 S
C943 C934 1.429 . S
C943 N940 1.350 . S
C943 C942 1.434 1_556 S
C944 C945 1.369 . S
C944 C946 1.419 1_554 S
C944 H948 0.930 . S
C945 C944 1.369 . S
C945 C954 1.429 . S
C946 C944 1.419 1_556 S
C946 C947 1.363 . S
C946 H949 0.929 . S
C947 C946 1.363 . S
C947 C953 1.428 . S
H948 C944 0.930 . S
H949 C946 0.929 . S
S950 N951 1.613 1_556 S
S950 N952 1.610 . S
N951 S950 1.613 1_554 S
N951 C954 1.350 . S
N952 S950 1.610 . S
N952 C953 1.351 . S
C953 C947 1.428 . S
C953 N952 1.351 . S
C953 C954 1.434 1_556 S
C954 C945 1.429 . S
C954 N951 1.350 . S
C954 C953 1.434 1_554 S
C955 C956 1.369 . S
C955 C957 1.419 1_556 S
C955 H959 0.930 1_545 S
C956 C955 1.369 . S
C956 C965 1.429 . S
C957 C955 1.419 1_554 S
C957 C958 1.372 . S
C957 H960 0.919 1_545 S
C958 C957 1.372 . S
C958 C964 1.428 . S
H959 C955 0.930 1_565 S
H960 C957 0.919 1_565 S
S961 N962 1.613 1_554 S
S961 N963 1.610 . S
N962 S961 1.613 1_556 S
N962 C965 1.350 . S
N963 S961 1.610 . S
N963 C964 1.351 . S
C964 C958 1.428 . S
C964 N963 1.351 . S
C964 C965 1.434 1_554 S
C965 C956 1.429 . S
C965 N962 1.350 . S
C965 C964 1.434 1_556 S
C966 C967 1.369 . S
C966 C968 1.419 . S
C966 H970 0.930 . S
C967 C966 1.369 . S
C967 C976 1.429 . S
C968 C966 1.419 . S
C968 C969 1.363 . S
C968 H971 0.929 . S
C969 C968 1.363 . S
C969 C975 1.428 . S
H970 C966 0.930 . S
H971 C968 0.929 . S
S972 N973 1.613 . S
S972 N974 1.610 . S
N973 S972 1.613 . S
N973 C976 1.350 . S
N974 S972 1.610 . S
N974 C975 1.351 . S
C975 C969 1.428 . S
C975 N974 1.351 . S
C975 C976 1.434 . S
C976 C967 1.429 . S
C976 N973 1.350 . S
C976 C975 1.434 . S
C977 C978 1.369 . S
C977 C979 1.419 . S
C977 H981 0.930 . S
C978 C977 1.369 . S
C978 C987 1.429 . S
C979 C977 1.419 . S
C979 C980 1.363 . S
C979 H982 0.929 . S
C980 C979 1.363 . S
C980 C986 1.428 . S
H981 C977 0.930 . S
H982 C979 0.929 . S
S983 N984 1.613 . S
S983 N985 1.610 . S
N984 S983 1.613 . S
N984 C987 1.350 . S
N985 S983 1.610 . S
N985 C986 1.351 . S
C986 C980 1.428 . S
C986 N985 1.351 . S
C986 C987 1.434 . S
C987 C978 1.429 . S
C987 N984 1.350 . S
C987 C986 1.434 . S
C988 C989 1.369 1_455 S
C988 C990 1.419 . S
C988 H992 0.930 . S
C989 C988 1.369 1_655 S
C989 C998 1.429 . S
C990 C988 1.419 . S
C990 C991 1.368 . S
C990 H993 0.929 . S
C991 C990 1.368 . S
C991 C997 1.424 1_455 S
H992 C988 0.930 . S
H993 C990 0.929 . S
S994 N995 1.613 . S
S994 N996 1.610 . S
N995 S994 1.613 . S
N995 C998 1.350 . S
N996 S994 1.610 . S
N996 C997 1.351 . S
C997 C991 1.424 1_655 S
C997 N996 1.351 . S
C997 C998 1.434 . S
C998 C989 1.429 . S
C998 N995 1.350 . S
C998 C997 1.434 . S
C999 C1000 1.369 . S
C999 C1001 1.419 . S
C999 H1003 0.930 . S
C1000 C999 1.369 . S
C1000 C1009 1.429 . S
C1001 C999 1.419 . S
C1001 C1002 1.363 . S
C1001 H1004 0.929 . S
C1002 C1001 1.363 . S
C1002 C1008 1.428 . S
H1003 C999 0.930 . S
H1004 C1001 0.929 . S
S1005 N1006 1.613 1_565 S
S1005 N1007 1.604 1_565 S
N1006 S1005 1.613 1_545 S
N1006 C1009 1.350 . S
N1007 S1005 1.604 1_545 S
N1007 C1008 1.361 . S
C1008 C1002 1.428 . S
C1008 N1007 1.361 . S
C1008 C1009 1.434 . S
C1009 C1000 1.429 . S
C1009 N1006 1.350 . S
C1009 C1008 1.434 . S
C1010 C1011 1.369 1_455 S
C1010 C1012 1.419 . S
C1010 H1014 0.930 . S
C1011 C1010 1.369 1_655 S
C1011 C1020 1.429 . S
C1012 C1010 1.419 . S
C1012 C1013 1.367 . S
C1012 H1015 0.929 . S
C1013 C1012 1.367 . S
C1013 C1019 1.423 1_455 S
H1014 C1010 0.930 . S
H1015 C1012 0.929 . S
S1016 N1017 1.613 . S
S1016 N1018 1.610 . S
N1017 S1016 1.613 . S
N1017 C1020 1.350 . S
N1018 S1016 1.610 . S
N1018 C1019 1.351 . S
C1019 C1013 1.423 1_655 S
C1019 N1018 1.351 . S
C1019 C1020 1.434 . S
C1020 C1011 1.429 . S
C1020 N1017 1.350 . S
C1020 C1019 1.434 . S
C1021 C1022 1.369 . S
C1021 C1023 1.419 . S
C1021 H1025 0.930 . S
C1022 C1021 1.369 . S
C1022 C1031 1.429 . S
C1023 C1021 1.419 . S
C1023 C1024 1.363 . S
C1023 H1026 0.929 . S
C1024 C1023 1.363 . S
C1024 C1030 1.428 . S
H1025 C1021 0.930 . S
H1026 C1023 0.929 . S
S1027 N1028 1.613 . S
S1027 N1029 1.610 . S
N1028 S1027 1.613 . S
N1028 C1031 1.350 . S
N1029 S1027 1.610 . S
N1029 C1030 1.351 . S
C1030 C1024 1.428 . S
C1030 N1029 1.351 . S
C1030 C1031 1.434 . S
C1031 C1022 1.429 . S
C1031 N1028 1.350 . S
C1031 C1030 1.434 . S
C1032 C1033 1.369 1_565 S
C1032 C1034 1.419 . S
C1032 H1036 0.930 . S
C1033 C1032 1.369 1_545 S
C1033 C1042 1.429 . S
C1034 C1032 1.419 . S
C1034 C1035 1.363 . S
C1034 H1037 0.929 . S
C1035 C1034 1.363 . S
C1035 C1041 1.428 1_565 S
H1036 C1032 0.930 . S
H1037 C1034 0.929 . S
S1038 N1039 1.613 . S
S1038 N1040 1.610 . S
N1039 S1038 1.613 . S
N1039 C1042 1.350 . S
N1040 S1038 1.610 . S
N1040 C1041 1.351 . S
C1041 C1035 1.428 1_545 S
C1041 N1040 1.351 . S
C1041 C1042 1.434 . S
C1042 C1033 1.429 . S
C1042 N1039 1.350 . S
C1042 C1041 1.434 . S
C1043 C1044 1.369 . S
C1043 C1045 1.419 . S
C1043 H1047 0.930 . S
C1044 C1043 1.369 . S
C1044 C1053 1.429 . S
C1045 C1043 1.419 . S
C1045 C1046 1.363 . S
C1045 H1048 0.929 . S
C1046 C1045 1.363 . S
C1046 C1052 1.428 . S
H1047 C1043 0.930 . S
H1048 C1045 0.929 . S
S1049 N1050 1.613 . S
S1049 N1051 1.610 . S
N1050 S1049 1.613 . S
N1050 C1053 1.350 1_655 S
N1051 S1049 1.610 . S
N1051 C1052 1.351 1_655 S
C1052 C1046 1.428 . S
C1052 N1051 1.351 1_455 S
C1052 C1053 1.434 . S
C1053 C1044 1.429 . S
C1053 N1050 1.350 1_455 S
C1053 C1052 1.434 . S
C1054 C1055 1.369 . S
C1054 C1056 1.419 . S
C1054 H1058 0.930 . S
C1055 C1054 1.369 . S
C1055 C1064 1.429 . S
C1056 C1054 1.419 . S
C1056 C1057 1.363 . S
C1056 H1059 0.929 . S
C1057 C1056 1.363 . S
C1057 C1063 1.428 . S
H1058 C1054 0.930 . S
H1059 C1056 0.929 . S
S1060 N1061 1.613 . S
S1060 N1062 1.610 . S
N1061 S1060 1.613 . S
N1061 C1064 1.350 . S
N1062 S1060 1.610 . S
N1062 C1063 1.351 . S
C1063 C1057 1.428 . S
C1063 N1062 1.351 . S
C1063 C1064 1.434 . S
C1064 C1055 1.429 . S
C1064 N1061 1.350 . S
C1064 C1063 1.434 . S
C1065 C1066 1.369 . S
C1065 C1067 1.419 . S
C1065 H1069 0.930 . S
C1066 C1065 1.369 . S
C1066 C1075 1.429 . S
C1067 C1065 1.419 . S
C1067 C1068 1.363 . S
C1067 H1070 0.929 . S
C1068 C1067 1.363 . S
C1068 C1074 1.428 . S
H1069 C1065 0.930 . S
H1070 C1067 0.929 . S
S1071 N1072 1.613 . S
S1071 N1073 1.610 . S
N1072 S1071 1.613 . S
N1072 C1075 1.350 . S
N1073 S1071 1.610 . S
N1073 C1074 1.351 . S
C1074 C1068 1.428 . S
C1074 N1073 1.351 . S
C1074 C1075 1.434 . S
C1075 C1066 1.429 . S
C1075 N1072 1.350 . S
C1075 C1074 1.434 . S
C1076 C1077 1.383 . S
C1076 C1078 1.419 . S
C1076 H1080 0.930 . S
C1077 C1076 1.383 . S
C1077 C1086 1.414 1_545 S
C1078 C1076 1.419 . S
C1078 C1079 1.363 1_545 S
C1078 H1081 0.929 . S
C1079 C1078 1.363 1_565 S
C1079 C1085 1.428 . S
H1080 C1076 0.930 . S
H1081 C1078 0.929 . S
S1082 N1083 1.613 . S
S1082 N1084 1.610 . S
N1083 S1082 1.613 . S
N1083 C1086 1.350 . S
N1084 S1082 1.610 . S
N1084 C1085 1.351 . S
C1085 C1079 1.428 . S
C1085 N1084 1.351 . S
C1085 C1086 1.434 . S
C1086 C1077 1.414 1_565 S
C1086 N1083 1.350 . S
C1086 C1085 1.434 . S
C1087 C1088 1.369 . S
C1087 C1089 1.419 . S
C1087 H1091 0.930 . S
C1088 C1087 1.369 . S
C1088 C1097 1.429 . S
C1089 C1087 1.419 . S
C1089 C1090 1.363 . S
C1089 H1092 0.929 . S
C1090 C1089 1.363 . S
C1090 C1096 1.428 . S
H1091 C1087 0.930 . S
H1092 C1089 0.929 . S
S1093 N1094 1.611 1_655 S
S1093 N1095 1.610 1_655 S
N1094 S1093 1.611 1_455 S
N1094 C1097 1.353 . S
N1095 S1093 1.610 1_455 S
N1095 C1096 1.351 . S
C1096 C1090 1.428 . S
C1096 N1095 1.351 . S
C1096 C1097 1.434 . S
C1097 C1088 1.429 . S
C1097 N1094 1.353 . S
C1097 C1096 1.434 . S
C1098 C1099 1.369 . S
C1098 C1100 1.419 . S
C1098 H1102 0.930 . S
C1099 C1098 1.369 . S
C1099 C1108 1.429 . S
C1100 C1098 1.419 . S
C1100 C1101 1.363 . S
C1100 H1103 0.929 . S
C1101 C1100 1.363 . S
C1101 C1107 1.428 . S
H1102 C1098 0.930 . S
H1103 C1100 0.929 . S
S1104 N1105 1.613 . S
S1104 N1106 1.610 . S
N1105 S1104 1.613 . S
N1105 C1108 1.350 . S
N1106 S1104 1.610 . S
N1106 C1107 1.351 . S
C1107 C1101 1.428 . S
C1107 N1106 1.351 . S
C1107 C1108 1.434 . S
C1108 C1099 1.429 . S
C1108 N1105 1.350 . S
C1108 C1107 1.434 . S
C1109 C1110 1.369 . S
C1109 C1111 1.419 . S
C1109 H1113 0.930 . S
C1110 C1109 1.369 . S
C1110 C1119 1.429 . S
C1111 C1109 1.419 . S
C1111 C1112 1.363 . S
C1111 H1114 0.929 . S
C1112 C1111 1.363 . S
C1112 C1118 1.428 . S
H1113 C1109 0.930 . S
H1114 C1111 0.929 . S
S1115 N1116 1.613 . S
S1115 N1117 1.610 . S
N1116 S1115 1.613 . S
N1116 C1119 1.350 . S
N1117 S1115 1.610 . S
N1117 C1118 1.351 . S
C1118 C1112 1.428 . S
C1118 N1117 1.351 . S
C1118 C1119 1.434 . S
C1119 C1110 1.429 . S
C1119 N1116 1.350 . S
C1119 C1118 1.434 . S
C1120 C1121 1.369 . S
C1120 C1122 1.419 . S
C1120 H1124 0.930 . S
C1121 C1120 1.369 . S
C1121 C1130 1.429 . S
C1122 C1120 1.419 . S
C1122 C1123 1.363 . S
C1122 H1125 0.929 . S
C1123 C1122 1.363 . S
C1123 C1129 1.428 . S
H1124 C1120 0.930 . S
H1125 C1122 0.929 . S
S1126 N1127 1.613 . S
S1126 N1128 1.610 . S
N1127 S1126 1.613 . S
N1127 C1130 1.350 . S
N1128 S1126 1.610 . S
N1128 C1129 1.351 . S
C1129 C1123 1.428 . S
C1129 N1128 1.351 . S
C1129 C1130 1.434 . S
C1130 C1121 1.429 . S
C1130 N1127 1.350 . S
C1130 C1129 1.434 . S
C1131 C1132 1.369 . S
C1131 C1133 1.419 . S
C1131 H1135 0.930 . S
C1132 C1131 1.369 . S
C1132 C1141 1.429 . S
C1133 C1131 1.419 . S
C1133 C1134 1.363 . S
C1133 H1136 0.929 . S
C1134 C1133 1.363 . S
C1134 C1140 1.428 . S
H1135 C1131 0.930 . S
H1136 C1133 0.929 . S
S1137 N1138 1.613 . S
S1137 N1139 1.610 . S
N1138 S1137 1.613 . S
N1138 C1141 1.350 . S
N1139 S1137 1.610 . S
N1139 C1140 1.351 . S
C1140 C1134 1.428 . S
C1140 N1139 1.351 . S
C1140 C1141 1.434 . S
C1141 C1132 1.429 . S
C1141 N1138 1.350 . S
C1141 C1140 1.434 . S
C1142 C1143 1.369 . S
C1142 C1144 1.419 . S
C1142 H1146 0.930 . S
C1143 C1142 1.369 . S
C1143 C1152 1.429 . S
C1144 C1142 1.419 . S
C1144 C1145 1.363 . S
C1144 H1147 0.929 . S
C1145 C1144 1.363 . S
C1145 C1151 1.428 . S
H1146 C1142 0.930 . S
H1147 C1144 0.929 . S
S1148 N1149 1.613 . S
S1148 N1150 1.610 . S
N1149 S1148 1.613 . S
N1149 C1152 1.350 . S
N1150 S1148 1.610 . S
N1150 C1151 1.351 . S
C1151 C1145 1.428 . S
C1151 N1150 1.351 . S
C1151 C1152 1.434 . S
C1152 C1143 1.429 . S
C1152 N1149 1.350 . S
C1152 C1151 1.434 . S
C1153 C1154 1.369 . S
C1153 C1155 1.419 . S
C1153 H1157 0.930 . S
C1154 C1153 1.369 . S
C1154 C1163 1.429 . S
C1155 C1153 1.419 . S
C1155 C1156 1.363 . S
C1155 H1158 0.929 . S
C1156 C1155 1.363 . S
C1156 C1162 1.428 . S
H1157 C1153 0.930 . S
H1158 C1155 0.929 . S
S1159 N1160 1.613 . S
S1159 N1161 1.610 . S
N1160 S1159 1.613 . S
N1160 C1163 1.350 . S
N1161 S1159 1.610 . S
N1161 C1162 1.351 . S
C1162 C1156 1.428 . S
C1162 N1161 1.351 . S
C1162 C1163 1.434 . S
C1163 C1154 1.429 . S
C1163 N1160 1.350 . S
C1163 C1162 1.434 . S
C1164 C1165 1.369 . S
C1164 C1166 1.419 . S
C1164 H1168 0.930 . S
C1165 C1164 1.369 . S
C1165 C1174 1.429 . S
C1166 C1164 1.419 . S
C1166 C1167 1.363 . S
C1166 H1169 0.929 . S
C1167 C1166 1.363 . S
C1167 C1173 1.428 . S
H1168 C1164 0.930 . S
H1169 C1166 0.929 . S
S1170 N1171 1.613 . S
S1170 N1172 1.610 . S
N1171 S1170 1.613 . S
N1171 C1174 1.350 . S
N1172 S1170 1.610 . S
N1172 C1173 1.351 . S
C1173 C1167 1.428 . S
C1173 N1172 1.351 . S
C1173 C1174 1.434 . S
C1174 C1165 1.429 . S
C1174 N1171 1.350 . S
C1174 C1173 1.434 . S
C1175 C1176 1.369 . S
C1175 C1177 1.419 . S
C1175 H1179 0.930 . S
C1176 C1175 1.369 . S
C1176 C1185 1.429 . S
C1177 C1175 1.419 . S
C1177 C1178 1.363 . S
C1177 H1180 0.929 . S
C1178 C1177 1.363 . S
C1178 C1184 1.428 . S
H1179 C1175 0.930 . S
H1180 C1177 0.929 . S
S1181 N1182 1.613 . S
S1181 N1183 1.610 . S
N1182 S1181 1.613 . S
N1182 C1185 1.350 . S
N1183 S1181 1.610 . S
N1183 C1184 1.351 . S
C1184 C1178 1.428 . S
C1184 N1183 1.351 . S
C1184 C1185 1.434 . S
C1185 C1176 1.429 . S
C1185 N1182 1.350 . S
C1185 C1184 1.434 . S
C1186 C1187 1.369 1_455 S
C1186 C1188 1.419 . S
C1186 H1190 0.930 . S
C1187 C1186 1.369 1_655 S
C1187 C1196 1.429 . S
C1188 C1186 1.419 . S
C1188 C1189 1.363 1_455 S
C1188 H1191 0.929 . S
C1189 C1188 1.363 1_655 S
C1189 C1195 1.428 . S
H1190 C1186 0.930 . S
H1191 C1188 0.929 . S
S1192 N1193 1.613 . S
S1192 N1194 1.610 . S
N1193 S1192 1.613 . S
N1193 C1196 1.350 . S
N1194 S1192 1.610 . S
N1194 C1195 1.351 . S
C1195 C1189 1.428 . S
C1195 N1194 1.351 . S
C1195 C1196 1.434 . S
C1196 C1187 1.429 . S
C1196 N1193 1.350 . S
C1196 C1195 1.434 . S
C1197 C1198 1.369 . S
C1197 C1199 1.419 . S
C1197 H1201 0.930 . S
C1198 C1197 1.369 . S
C1198 C1207 1.429 . S
C1199 C1197 1.419 . S
C1199 C1200 1.363 . S
C1199 H1202 0.929 . S
C1200 C1199 1.363 . S
C1200 C1206 1.428 . S
H1201 C1197 0.930 . S
H1202 C1199 0.929 . S
S1203 N1204 1.613 . S
S1203 N1205 1.610 . S
N1204 S1203 1.613 . S
N1204 C1207 1.350 . S
N1205 S1203 1.610 . S
N1205 C1206 1.351 . S
C1206 C1200 1.428 . S
C1206 N1205 1.351 . S
C1206 C1207 1.434 . S
C1207 C1198 1.429 . S
C1207 N1204 1.350 . S
C1207 C1206 1.434 . S
C1208 C1209 1.369 . S
C1208 C1210 1.419 . S
C1208 H1212 0.930 . S
C1209 C1208 1.369 . S
C1209 C1218 1.429 . S
C1210 C1208 1.419 . S
C1210 C1211 1.363 . S
C1210 H1213 0.929 . S
C1211 C1210 1.363 . S
C1211 C1217 1.428 . S
H1212 C1208 0.930 . S
H1213 C1210 0.929 . S
S1214 N1215 1.613 . S
S1214 N1216 1.610 . S
N1215 S1214 1.613 . S
N1215 C1218 1.350 . S
N1216 S1214 1.610 . S
N1216 C1217 1.351 . S
C1217 C1211 1.428 . S
C1217 N1216 1.351 . S
C1217 C1218 1.434 . S
C1218 C1209 1.429 . S
C1218 N1215 1.350 . S
C1218 C1217 1.434 . S
C1219 C1220 1.369 . S
C1219 C1221 1.419 . S
C1219 H1223 0.930 . S
C1220 C1219 1.369 . S
C1220 C1229 1.429 . S
C1221 C1219 1.419 . S
C1221 C1222 1.363 . S
C1221 H1224 0.929 . S
C1222 C1221 1.363 . S
C1222 C1228 1.428 . S
H1223 C1219 0.930 . S
H1224 C1221 0.929 . S
S1225 N1226 1.613 . S
S1225 N1227 1.610 . S
N1226 S1225 1.613 . S
N1226 C1229 1.350 . S
N1227 S1225 1.610 . S
N1227 C1228 1.351 . S
C1228 C1222 1.428 . S
C1228 N1227 1.351 . S
C1228 C1229 1.434 . S
C1229 C1220 1.429 . S
C1229 N1226 1.350 . S
C1229 C1228 1.434 . S
C1230 C1231 1.369 . S
C1230 C1232 1.419 . S
C1230 H1234 0.930 . S
C1231 C1230 1.369 . S
C1231 C1240 1.429 . S
C1232 C1230 1.419 . S
C1232 C1233 1.363 . S
C1232 H1235 0.929 . S
C1233 C1232 1.363 . S
C1233 C1239 1.428 . S
H1234 C1230 0.930 . S
H1235 C1232 0.929 . S
S1236 N1237 1.613 . S
S1236 N1238 1.610 . S
N1237 S1236 1.613 . S
N1237 C1240 1.350 . S
N1238 S1236 1.610 . S
N1238 C1239 1.351 . S
C1239 C1233 1.428 . S
C1239 N1238 1.351 . S
C1239 C1240 1.434 . S
C1240 C1231 1.429 . S
C1240 N1237 1.350 . S
C1240 C1239 1.434 . S
C1241 C1242 1.369 . S
C1241 C1243 1.419 . S
C1241 H1245 0.930 . S
C1242 C1241 1.369 . S
C1242 C1251 1.429 . S
C1243 C1241 1.419 . S
C1243 C1244 1.363 . S
C1243 H1246 0.929 . S
C1244 C1243 1.363 . S
C1244 C1250 1.428 . S
H1245 C1241 0.930 . S
H1246 C1243 0.929 . S
S1247 N1248 1.613 . S
S1247 N1249 1.610 . S
N1248 S1247 1.613 . S
N1248 C1251 1.350 . S
N1249 S1247 1.610 . S
N1249 C1250 1.351 . S
C1250 C1244 1.428 . S
C1250 N1249 1.351 . S
C1250 C1251 1.434 . S
C1251 C1242 1.429 . S
C1251 N1248 1.350 . S
C1251 C1250 1.434 . S
C1252 C1253 1.369 . S
C1252 C1254 1.419 . S
C1252 H1256 0.930 . S
C1253 C1252 1.369 . S
C1253 C1262 1.429 . S
C1254 C1252 1.419 . S
C1254 C1255 1.363 . S
C1254 H1257 0.929 . S
C1255 C1254 1.363 . S
C1255 C1261 1.428 . S
H1256 C1252 0.930 . S
H1257 C1254 0.929 . S
S1258 N1259 1.613 . S
S1258 N1260 1.610 . S
N1259 S1258 1.613 . S
N1259 C1262 1.350 . S
N1260 S1258 1.610 . S
N1260 C1261 1.351 . S
C1261 C1255 1.428 . S
C1261 N1260 1.351 . S
C1261 C1262 1.434 . S
C1262 C1253 1.429 . S
C1262 N1259 1.350 . S
C1262 C1261 1.434 . S
C1263 C1264 1.369 . S
C1263 C1265 1.419 . S
C1263 H1267 0.930 . S
C1264 C1263 1.369 . S
C1264 C1273 1.429 . S
C1265 C1263 1.419 . S
C1265 C1266 1.363 . S
C1265 H1268 0.929 . S
C1266 C1265 1.363 . S
C1266 C1272 1.428 . S
H1267 C1263 0.930 . S
H1268 C1265 0.929 . S
S1269 N1270 1.613 . S
S1269 N1271 1.610 . S
N1270 S1269 1.613 . S
N1270 C1273 1.350 . S
N1271 S1269 1.610 . S
N1271 C1272 1.351 . S
C1272 C1266 1.428 . S
C1272 N1271 1.351 . S
C1272 C1273 1.434 . S
C1273 C1264 1.429 . S
C1273 N1270 1.350 . S
C1273 C1272 1.434 . S
C1274 C1275 1.369 . S
C1274 C1276 1.404 . S
C1274 H1278 0.930 1_565 S
C1275 C1274 1.369 . S
C1275 C1284 1.429 . S
C1276 C1274 1.404 . S
C1276 C1277 1.384 . S
C1276 H1279 0.923 1_565 S
C1277 C1276 1.384 . S
C1277 C1283 1.428 . S
H1278 C1274 0.930 1_545 S
H1279 C1276 0.923 1_545 S
S1280 N1281 1.613 . S
S1280 N1282 1.610 . S
N1281 S1280 1.613 . S
N1281 C1284 1.350 . S
N1282 S1280 1.610 . S
N1282 C1283 1.351 . S
C1283 C1277 1.428 . S
C1283 N1282 1.351 . S
C1283 C1284 1.434 . S
C1284 C1275 1.429 . S
C1284 N1281 1.350 . S
C1284 C1283 1.434 . S
C1285 C1286 1.369 . S
C1285 C1287 1.419 . S
C1285 H1289 0.930 . S
C1286 C1285 1.369 . S
C1286 C1295 1.429 . S
C1287 C1285 1.419 . S
C1287 C1288 1.363 . S
C1287 H1290 0.929 . S
C1288 C1287 1.363 . S
C1288 C1294 1.428 . S
H1289 C1285 0.930 . S
H1290 C1287 0.929 . S
S1291 N1292 1.613 1_655 S
S1291 N1293 1.610 1_655 S
N1292 S1291 1.613 1_455 S
N1292 C1295 1.350 . S
N1293 S1291 1.610 1_455 S
N1293 C1294 1.351 . S
C1294 C1288 1.428 . S
C1294 N1293 1.351 . S
C1294 C1295 1.434 . S
C1295 C1286 1.429 . S
C1295 N1292 1.350 . S
C1295 C1294 1.434 . S
C505 C3 1.576 . S
C507 C157 1.576 . S
C516 C129 1.576 . S
C518 C17 1.576 . S
C527 C143 1.576 . S
C529 C31 1.576 . S
C538 C45 1.576 . S
C540 C101 1.576 . S
C549 C59 1.576 . S
C551 C115 1.576 . S
C560 C73 1.576 . S
C562 C87 1.576 . S
C571 C171 1.576 . S
C573 C325 1.576 . S
C582 C297 1.576 . S
C584 C185 1.576 . S
C593 C199 1.576 . S
C595 C311 1.576 . S
C604 C213 1.576 . S
C606 C269 1.576 . S
C615 C227 1.576 . S
C617 C283 1.576 . S
C626 C241 1.576 . S
C628 C255 1.576 . S
C637 C339 1.576 . S
C639 C493 1.576 . S
C648 C353 1.577 . S
C650 C465 1.576 . S
C659 C479 1.576 . S
C661 C367 1.576 . S
C670 C381 1.576 . S
C672 C437 1.576 . S
C681 C451 1.576 . S
C683 C395 1.576 . S
C692 C423 1.576 . S
C694 C409 1.576 . S
C703 C8 1.400 . S
C705 C218 1.394 . S
C714 C22 1.399 . S
C716 C232 1.394 . S
C725 C36 1.399 . S
C727 C246 1.396 . S
C736 C50 1.393 . S
C738 C344 1.400 . S
C747 C358 1.395 . S
C749 C64 1.399 . S
C758 C372 1.394 . S
C760 C78 1.400 . S
C769 C92 1.395 . S
C771 C470 1.396 . S
C780 C484 1.393 . S
C782 C106 1.399 . S
C791 C120 1.397 . S
C793 C498 1.398 . S
C802 C134 1.394 . S
C804 C260 1.397 . S
C813 C148 1.393 . S
C815 C274 1.399 . S
C824 C162 1.394 . S
C826 C288 1.400 . S
C835 C386 1.396 . S
C837 C176 1.399 . S
C846 C190 1.398 . S
C848 C400 1.397 . S
C857 C204 1.397 . S
C859 C414 1.395 . S
C868 C428 1.393 . S
C870 C302 1.399 . S
C879 C442 1.400 . S
C881 C316 1.395 . S
C890 C330 1.400 . S
C892 C456 1.394 . S
C901 C9 1.339 . S
C903 C65 1.340 . S
C912 C79 1.343 . S
C914 C23 1.342 . S
C923 C51 1.343 . S
C925 C37 1.342 . S
C934 C93 1.346 . S
C936 C149 1.345 . S
C945 C163 1.338 . S
C947 C107 1.339 . S
C956 C121 1.342 . S
C958 C135 1.342 . S
C967 C233 1.337 . S
C969 C177 1.338 . S
C978 C191 1.338 . S
C980 C247 1.338 . S
C989 C205 1.337 . S
C991 C219 1.336 1_455 S
C1000 C317 1.345 . S
C1002 C261 1.344 . S
C1011 C331 1.337 . S
C1013 C275 1.337 1_455 S
C1022 C303 1.344 . S
C1024 C289 1.343 . S
C1033 C345 1.346 1_545 S
C1035 C401 1.344 . S
C1044 C359 1.347 . S
C1046 C415 1.346 . S
C1055 C373 1.342 . S
C1057 C387 1.343 . S
C1066 C485 1.340 . S
C1068 C429 1.340 . S
C1077 C499 1.342 1_545 S
C1079 C443 1.343 . S
C1088 C471 1.342 . S
C1090 C457 1.342 . S
C1099 C133 1.542 . S
C1101 C7 1.542 . S
C1110 C147 1.544 . S
C1112 C21 1.544 . S
C1121 C35 1.543 . S
C1123 C161 1.543 . S
C1132 C49 1.545 . S
C1134 C91 1.544 . S
C1143 C105 1.546 . S
C1145 C63 1.545 . S
C1154 C77 1.542 . S
C1156 C119 1.543 . S
C1165 C301 1.542 . S
C1167 C175 1.542 . S
C1176 C315 1.543 . S
C1178 C189 1.543 . S
C1187 C203 1.539 . S
C1189 C329 1.540 . S
C1198 C259 1.540 . S
C1200 C217 1.541 . S
C1209 C273 1.546 . S
C1211 C231 1.545 . S
C1220 C287 1.540 . S
C1222 C245 1.540 . S
C1231 C343 1.545 . S
C1233 C469 1.544 . S
C1242 C483 1.544 . S
C1244 C357 1.544 . S
C1253 C371 1.545 . S
C1255 C497 1.545 . S
C1264 C385 1.546 . S
C1266 C427 1.545 . S
C1275 C399 1.540 . S
C1277 C441 1.540 . S
C1286 C455 1.543 . S
C1288 C413 1.543 . S
