# Generated by pormake.
# Topology sma, (6)-cn, num edge types: 1
# Building blocks:
#     Node 0, Type 0, BuildingBlock: BETDIP_clean_sbu_0, # of connection points: 6
#     Node 1, Type 0, BuildingBlock: BETDIP_clean_sbu_0, # of connection points: 6
#     Node 2, Type 0, BuildingBlock: BETDIP_clean_sbu_0, # of connection points: 6
#     Edge 3, Type (0, 0), BuildingBlock: XIVTED_clean_linker_0, # of connection points: 2
#     Edge 4, Type (0, 0), BuildingBlock: XIVTED_clean_linker_0, # of connection points: 2
#     Edge 5, Type (0, 0), BuildingBlock: XIVTED_clean_linker_0, # of connection points: 2
#     Edge 6, Type (0, 0), BuildingBlock: XIVTED_clean_linker_0, # of connection points: 2
#     Edge 7, Type (0, 0), BuildingBlock: XIVTED_clean_linker_0, # of connection points: 2
#     Edge 8, Type (0, 0), BuildingBlock: XIVTED_clean_linker_0, # of connection points: 2
#     Edge 9, Type (0, 0), BuildingBlock: XIVTED_clean_linker_0, # of connection points: 2
#     Edge 10, Type (0, 0), BuildingBlock: XIVTED_clean_linker_0, # of connection points: 2
#     Edge 11, Type (0, 0), BuildingBlock: XIVTED_clean_linker_0, # of connection points: 2
# Relax obj value: 0.073
# Max RMSD: 0.173
# Mean RMSD: 0.173
data_MOF--net-sma--node1-BETDIP_clean_sbu_0--edge1-XIVTED_clean_linker_0
_symmetry_space_group_name_H-M    P1
_symmetry_Int_Tables_number       1
_symmetry_cell_setting            triclinic
loop_
_symmetry_equiv_pos_as_xyz
'x, y, z'
_cell_length_a     39.363435
_cell_length_b     39.541866
_cell_length_c     14.164603
_cell_angle_alpha  89.607488
_cell_angle_beta   89.892728
_cell_angle_gamma 120.04455
loop_
_atom_site_label
_atom_site_type_symbol
_atom_site_fract_x
_atom_site_fract_y
_atom_site_fract_z
_atom_type_partial_charge
Tb0 Tb 0.07938 0.57762 0.0903 0.0
Tb1 Tb 1.03128 0.49003 0.05532 0.0
C2 C 0.12387 0.64571 0.14954 0.0
C3 C 0.16357 0.67158 0.18859 0.0
C4 C 0.16774 0.68679 0.27997 0.0
C5 C 0.20422 0.71696 0.31072 0.0
C6 C 0.23703 0.73287 0.25 0.0
C7 C 0.23327 0.71628 0.16057 0.0
C8 C 0.19707 0.68594 0.13031 0.0
C9 C 1.05728 0.5585 0.91559 0.0
C10 C 0.12432 0.53104 0.05492 0.0
C11 C 0.99618 0.41847 0.01957 0.0
C12 C 0.95883 0.38507 0.05555 0.0
C13 C 0.92235 0.38187 0.03556 0.0
C14 C 0.88785 0.35213 0.0771 0.0
C15 C 0.8889 0.32498 0.14025 0.0
C16 C 0.92534 0.32767 0.15808 0.0
C17 C 0.95979 0.35721 0.11595 0.0
C18 C 1.03061 0.51258 0.22887 0.0
C19 C 0.98862 0.53855 0.05685 0.0
O20 O 0.09719 0.61766 0.20295 0.0
O21 O 0.12235 0.63507 0.06165 0.0
O22 O 0.06756 0.54033 -0.02893 0.0
O23 O 0.0617 0.58979 -0.04489 0.0
O24 O 0.12669 0.56385 0.08462 0.0
O25 O 0.09042 0.5 0.03258 0.0
O26 O 0.99382 0.44444 -0.03427 0.0
O27 O 1.02433 0.43476 0.08195 0.0
O28 O 1.05954 0.52633 0.17401 0.0
O29 O 1.00106 0.48378 0.18895 0.0
O30 O 0.98966 0.50858 0.01892 0.0
O31 O 1.01882 0.56602 0.10468 0.0
H32 H 0.14243 0.67661 0.32607 0.0
H33 H 0.20625 0.72928 0.37996 0.0
H34 H 0.25817 0.72759 0.11276 0.0
H35 H 0.19512 0.67505 0.05941 0.0
H36 H 0.92041 0.4027 -0.0109 0.0
H37 H 0.86032 0.35058 0.05983 0.0
H38 H 0.92755 0.30767 0.20686 0.0
H39 H 0.98744 0.35891 0.13273 0.0
Tb40 Tb 0.57823 1.01987 0.44586 0.0
Tb41 Tb 0.5431 0.07123 0.39757 0.0
C42 C 0.60943 0.98569 0.52776 0.0
C43 C 0.59965 0.9451 0.54948 0.0
C44 C 0.59747 0.93305 0.64394 0.0
C45 C 0.59143 0.89582 0.66581 0.0
C46 C 0.58788 0.8701 0.5935 0.0
C47 C 0.58892 0.88179 0.49905 0.0
C48 C 0.59466 0.91882 0.47722 0.0
C49 C 0.56543 1.0237 0.26647 0.0
C50 C 0.48971 0.9784 0.39779 0.0
C51 C 0.50847 0.10717 0.34825 0.0
C52 C 0.50987 0.14277 0.38565 0.0
C53 C 0.52039 0.1751 0.32617 0.0
C54 C 0.52382 0.2096 0.36215 0.0
C55 C 0.51655 0.21238 0.45837 0.0
C56 C 0.50538 0.17973 0.51741 0.0
C57 C 0.50224 0.14542 0.48166 0.0
C58 C 0.55697 0.06621 0.57659 0.0
C59 C 0.63429 0.11232 0.40991 0.0
O60 O 0.58914 0.99875 0.57212 0.0
O61 O 0.61573 0.99675 0.43901 0.0
O62 O 0.57664 0.05096 0.32476 0.0
O63 O 0.56406 0.99331 0.30615 0.0
O64 O 0.51647 0.9755 0.44813 0.0
O65 O 0.49679 1.01207 0.35924 0.0
O66 O 0.5404 0.11212 0.3064 0.0
O67 O 0.49281 0.07641 0.40392 0.0
O68 O 0.54404 0.03935 0.51753 0.0
O69 O 0.56031 0.09733 0.53773 0.0
O70 O 0.60421 0.11462 0.37613 0.0
O71 O 0.62982 0.07964 0.44914 0.0
H72 H 0.60136 0.95279 0.70094 0.0
H73 H 0.59103 0.88776 0.73921 0.0
H74 H 0.58574 0.86241 0.4418 0.0
H75 H 0.59595 0.92704 0.40365 0.0
H76 H 0.52644 0.17385 0.25202 0.0
H77 H 0.53214 0.23411 0.31458 0.0
H78 H 0.50011 0.18103 0.59201 0.0
H79 H 0.4944 0.12121 0.52989 0.0
Tb80 Tb 0.52722 0.52141 0.76857 0.0
Tb81 Tb 0.61258 0.56109 0.71133 0.0
C82 C 0.46531 0.50036 0.86242 0.0
C83 C 0.43481 0.51126 0.87785 0.0
C84 C 0.42976 0.5226 -0.0318 0.0
C85 C 0.39838 0.52876 -0.01273 0.0
C86 C 0.37113 0.5233 0.91652 0.0
C87 C 0.37692 0.51316 0.82535 0.0
C88 C 0.40841 0.50724 0.80614 0.0
C89 C 0.53906 0.52566 0.5855 0.0
C90 C 0.57494 0.61381 0.72664 0.0
C91 C 0.68036 0.58284 0.64887 0.0
C92 C 0.71426 0.58224 0.69173 0.0
C93 C 0.73462 0.56768 0.64045 0.0
C94 C 0.76489 0.56425 0.6827 0.0
C95 C 0.77549 0.57547 0.77708 0.0
C96 C 0.75559 0.59082 0.82763 0.0
C97 C 0.72518 0.59398 0.78562 0.0
C98 C 0.59862 0.55311 0.89477 0.0
C99 C 0.56089 0.46845 0.7117 0.0
O100 O 0.5005 0.52417 0.89475 0.0
O101 O 0.46626 0.48608 0.77996 0.0
O102 O 0.56007 0.55093 0.64478 0.0
O103 O 0.50723 0.49904 0.62625 0.0
O104 O 0.54503 0.58429 0.77183 0.0
O105 O 0.60139 0.60854 0.6814 0.0
O106 O 0.64995 0.5487 0.63077 0.0
O107 O 0.67014 0.6065 0.68674 0.0
O108 O 0.57921 0.52887 0.83251 0.0
O109 O 0.62922 0.5817 0.85624 0.0
O110 O 0.59058 0.50016 0.67365 0.0
O111 O 0.53531 0.47066 0.76854 0.0
H112 H 0.44946 0.52555 0.02497 0.0
H113 H 0.39456 0.53623 0.0584 0.0
H114 H 0.35674 0.50925 0.769 0.0
H115 H 0.41141 0.49855 0.73567 0.0
H116 H 0.72664 0.55833 0.56816 0.0
H117 H 0.77992 0.55267 0.64156 0.0
H118 H 0.76269 0.59926 0.9007 0.0
H119 H 0.70975 0.60495 0.82741 0.0
H120 H 0.13149 0.47137 -0.02014 0.0
H121 H 0.36542 0.57832 0.02296 0.0
H122 H 0.20059 0.5872 0.09452 0.0
H123 H 0.29562 0.4737 0.86225 0.0
H124 H 0.30564 0.58043 0.06099 0.0
H125 H 0.19153 0.46993 0.94847 0.0
C126 C 0.15927 0.49652 -0.00113 0.0
C127 C 0.16086 0.52953 0.03973 0.0
C128 C 0.3035 0.55712 0.01717 0.0
C129 C 0.23012 0.52801 0.00351 0.0
C130 C 0.33755 0.55581 -0.00426 0.0
C131 C 0.33557 0.52591 0.93883 0.0
C132 C 0.26715 0.52806 -0.01768 0.0
C133 C 0.29869 0.49763 0.90508 0.0
C134 C 0.19365 0.49569 -0.01945 0.0
C135 C 0.1979 0.56115 0.06272 0.0
N136 N 0.26603 0.49935 0.92755 0.0
N137 N 0.23108 0.55962 0.04428 0.0
H138 H 0.70429 0.11248 0.40712 0.0
H139 H 0.8268 0.33181 0.20604 0.0
H140 H 0.65531 0.1876 0.36433 0.0
H141 H 0.86745 0.24887 0.1873 0.0
H142 H 0.76695 0.28187 0.28317 0.0
H143 H 0.76785 0.16521 0.34948 0.0
C144 C 0.70703 0.14025 0.38731 0.0
C145 C 0.6743 0.14551 0.39022 0.0
C146 C 0.789 0.27461 0.26234 0.0
C147 C 0.74685 0.20583 0.32337 0.0
C148 C 0.82316 0.30308 0.21741 0.0
C149 C 0.85235 0.29467 0.18888 0.0
C150 C 0.7838 0.2373 0.27983 0.0
C151 C 0.8461 0.25701 0.20848 0.0
C152 C 0.74324 0.17022 0.35361 0.0
C153 C 0.6796 0.18207 0.36279 0.0
N154 N 0.81256 0.22977 0.25245 0.0
N155 N 0.71503 0.21069 0.33025 0.0
H156 H 0.62821 0.83892 0.5097 0.0
H157 H 0.52523 0.63745 0.80089 0.0
H158 H 0.54262 0.81522 0.72869 0.0
H159 H 0.62827 0.67711 0.62505 0.0
H160 H 0.52793 0.70016 0.77224 0.0
H161 H 0.62487 0.77704 0.546 0.0
C162 C 0.60845 0.8205 0.56507 0.0
C163 C 0.58547 0.83216 0.61577 0.0
C164 C 0.54997 0.69504 0.74043 0.0
C165 C 0.58171 0.76109 0.65866 0.0
C166 C 0.54845 0.65928 0.75667 0.0
C167 C 0.57645 0.65184 0.715 0.0
C168 C 0.5795 0.7233 0.68158 0.0
C169 C 0.60591 0.68128 0.6585 0.0
C170 C 0.60676 0.78525 0.58635 0.0
C171 C 0.56095 0.80739 0.68813 0.0
N172 N 0.6065 0.71546 0.6432 0.0
N173 N 0.55955 0.77287 0.70718 0.0
H174 H 0.78563 0.51208 0.76641 0.0
H175 H 0.98048 0.60348 0.07895 0.0
H176 H 0.83458 0.62542 0.89543 0.0
H177 H 0.91927 0.48467 -0.02085 0.0
H178 H 0.92729 0.61249 0.01696 0.0
H179 H 0.83527 0.50239 0.84457 0.0
C180 C 0.80702 0.53507 0.81074 0.0
C181 C 0.80605 0.56971 0.82386 0.0
C182 C 0.92542 0.58436 0.0096 0.0
C183 C 0.86296 0.55864 0.91493 0.0
C184 C 0.95565 0.57913 0.04547 0.0
C185 C 0.95455 0.54336 0.0337 0.0
C186 C 0.89403 0.55364 -0.03855 0.0
C187 C 0.92169 0.51291 -0.01082 0.0
C188 C 0.8352 0.5294 0.85614 0.0
C189 C 0.83412 0.59817 0.88373 0.0
N190 N 0.89304 0.51887 -0.04584 0.0
N191 N 0.86156 0.59211 0.92669 0.0
H192 H 0.43495 0.96817 0.26517 0.0
H193 H 0.27872 0.7485 0.41551 0.0
H194 H 0.45764 0.90693 0.48733 0.0
H195 H 0.27946 0.79882 0.14392 0.0
H196 H 0.34004 0.80852 0.4549 0.0
H197 H 0.37324 0.90855 0.23195 0.0
C198 C 0.4269 0.94226 0.30737 0.0
C199 C 0.45163 0.94261 0.37909 0.0
C200 C 0.32676 0.80629 0.38666 0.0
C201 C 0.38076 0.87411 0.34141 0.0
C202 C 0.29177 0.77218 0.36436 0.0
C203 C 0.27419 0.76859 0.27605 0.0
C204 C 0.3438 0.83725 0.32083 0.0
C205 C 0.29232 0.80013 0.21225 0.0
C206 C 0.39171 0.90815 0.28802 0.0
C207 C 0.43959 0.90798 0.4311 0.0
N208 N 0.32594 0.83312 0.23602 0.0
N209 N 0.40495 0.87516 0.41146 0.0
H210 H 0.61057 0.45458 0.60602 0.0
H211 H 0.46991 0.22245 0.58701 0.0
H212 H 0.49888 0.39454 0.75131 0.0
H213 H 0.57571 0.28704 0.42113 0.0
H214 H 0.48096 0.28396 0.65511 0.0
H215 H 0.5996 0.3924 0.54698 0.0
C216 C 0.58375 0.42828 0.6262 0.0
C217 C 0.55552 0.42996 0.68371 0.0
C218 C 0.5017 0.28464 0.60372 0.0
C219 C 0.54265 0.35812 0.61512 0.0
C220 C 0.4955 0.24954 0.56501 0.0
C221 C 0.5219 0.24953 0.49802 0.0
C222 C 0.53471 0.32003 0.57583 0.0
C223 C 0.55429 0.28558 0.47148 0.0
C224 C 0.57746 0.39266 0.592 0.0
C225 C 0.52148 0.39468 0.70736 0.0
N226 N 0.5598 0.31925 0.51059 0.0
N227 N 0.51591 0.36019 0.67267 0.0
H228 H 1.03653 0.4903 0.82549 0.0
H229 H 0.09242 0.56903 0.32593 0.0
H230 H 1.06067 0.60837 0.77964 0.0
H231 H 0.97379 0.47324 0.36034 0.0
H232 H 0.09505 0.58089 0.49605 0.0
H233 H 1.02582 0.47864 0.65492 0.0
C234 C 1.0392 0.5135 0.77961 0.0
C235 C 1.04921 0.55017 0.81562 0.0
C236 C 0.06845 0.55759 0.46544 0.0
C237 C 1.03846 0.53757 0.62371 0.0
C238 C 0.06678 0.55104 0.36895 0.0
C239 C 1.03253 0.52081 0.32949 0.0
C240 C 1.03624 0.53273 0.52209 0.0
C241 C 1.00057 0.49711 0.38856 0.0
C242 C 1.0331 0.50686 0.68321 0.0
C243 C 1.05285 0.57966 0.75392 0.0
N244 N 1.00335 0.50323 0.48293 0.0
N245 N 1.04813 0.57293 0.66001 0.0
H246 H 0.54291 0.96848 0.13012 0.0
H247 H 0.58671 0.12189 0.71189 0.0
H248 H 0.58057 0.0901 0.17429 0.0
H249 H 0.53067 0.99737 0.67046 0.0
H250 H 0.58788 0.11125 0.88189 0.0
H251 H 0.54081 0.97864 -0.03997 0.0
C252 C 0.55054 0.99722 0.10376 0.0
C253 C 0.56196 1.02853 0.16537 0.0
C254 C 0.57542 0.08627 0.83554 0.0
C255 C 0.55989 0.04046 -0.02742 0.0
C256 C 0.57486 0.09237 0.73884 0.0
C257 C 0.55899 0.06048 0.67787 0.0
C258 C 0.55996 0.04801 0.87075 0.0
C259 C 0.5438 1.02275 0.71548 0.0
C260 C 0.54935 1.00304 0.00706 0.0
C261 C 0.57154 0.06523 0.12861 0.0
N262 N 0.5447 1.01752 0.80982 0.0
N263 N 0.57045 0.07025 0.03427 0.0
H264 H 0.49484 0.47429 0.44889 0.0
H265 H 0.63955 0.60487 0.03214 0.0
H266 H 0.60279 0.58264 0.49254 0.0
H267 H 0.53911 0.49055 -0.01214 0.0
H268 H 0.62551 0.5975 0.20122 0.0
H269 H 0.50941 0.47983 0.2794 0.0
C270 C 0.52159 0.49922 0.42256 0.0
C271 C 0.54758 0.52821 0.48406 0.0
C272 C 0.6065 0.57397 0.15473 0.0
C273 C 0.56442 0.53474 0.29142 0.0
C274 C 0.6145 0.57819 0.05829 0.0
C275 C 0.59028 0.54835 -0.00353 0.0
C276 C 0.57395 0.53966 0.18945 0.0
C277 C 0.55828 0.51433 0.03355 0.0
C278 C 0.52992 0.50235 0.32609 0.0
C279 C 0.58191 0.55981 0.44709 0.0
N280 N 0.55092 0.51093 0.12793 0.0
N281 N 0.58929 0.5623 0.35298 0.0
loop_
_geom_bond_atom_site_label_1
_geom_bond_atom_site_label_2
_geom_bond_distance
_geom_bond_site_symmetry_2
_ccdc_geom_bond_type
Tb0 C2 2.809 . S
Tb0 O20 2.484 . S
Tb0 O21 2.440 . S
Tb0 O22 2.658 1_455 S
Tb0 O23 2.409 1_554 S
Tb0 O24 2.378 . S
Tb0 O28 2.325 . S
Tb0 O31 2.341 1_455 S
Tb1 C11 2.809 . S
Tb1 O22 2.325 . S
Tb1 O25 2.341 1_655 S
Tb1 O26 2.484 . S
Tb1 O27 2.440 . S
Tb1 O28 2.658 1_655 S
Tb1 O29 2.409 . S
Tb1 O30 2.378 . S
C2 Tb0 2.809 . S
C2 C3 1.514 . S
C2 O20 1.248 . S
C2 O21 1.266 . S
C3 C2 1.514 . S
C3 C4 1.359 . S
C3 C8 1.348 . S
C4 C3 1.359 . S
C4 C5 1.380 . S
C4 H32 0.929 . S
C5 C4 1.380 . S
C5 C6 1.347 . S
C5 H33 0.931 . S
C6 C5 1.347 . S
C6 C7 1.369 . S
C7 C6 1.369 . S
C7 C8 1.408 . S
C7 H34 0.930 . S
C8 C3 1.348 . S
C8 C7 1.408 . S
C8 H35 0.930 . S
C9 O22 1.281 1_456 S
C9 O23 1.254 . S
C10 O24 1.236 . S
C10 O25 1.266 . S
C11 Tb1 2.809 . S
C11 C12 1.514 . S
C11 O26 1.248 . S
C11 O27 1.266 . S
C12 C11 1.514 . S
C12 C13 1.359 . S
C12 C17 1.348 . S
C13 C12 1.359 . S
C13 C14 1.380 . S
C13 H36 0.925 1_554 S
C14 C13 1.380 . S
C14 C15 1.347 . S
C14 H37 0.931 1_554 S
C15 C14 1.347 . S
C15 C16 1.369 . S
C16 C15 1.369 . S
C16 C17 1.408 . S
C16 H38 0.930 . S
C17 C12 1.348 . S
C17 C16 1.408 . S
C17 H39 0.930 . S
C18 O28 1.277 1_655 S
C18 O29 1.256 . S
C19 O30 1.236 . S
C19 O31 1.266 . S
O20 Tb0 2.484 . S
O20 C2 1.248 . S
O21 Tb0 2.440 . S
O21 C2 1.266 . S
O22 Tb0 2.658 1_655 S
O22 Tb1 2.325 . S
O22 C9 1.281 1_654 S
O23 Tb0 2.409 1_556 S
O23 C9 1.254 . S
O24 Tb0 2.378 . S
O24 C10 1.236 . S
O25 Tb1 2.341 1_455 S
O25 C10 1.266 . S
O26 Tb1 2.484 . S
O26 C11 1.248 . S
O27 Tb1 2.440 . S
O27 C11 1.266 . S
O28 Tb0 2.325 . S
O28 Tb1 2.658 1_455 S
O28 C18 1.277 1_455 S
O29 Tb1 2.409 . S
O29 C18 1.256 . S
O30 Tb1 2.378 . S
O30 C19 1.236 . S
O31 Tb0 2.341 1_655 S
O31 C19 1.266 . S
H32 C4 0.929 . S
H33 C5 0.931 . S
H34 C7 0.930 . S
H35 C8 0.930 . S
H36 C13 0.925 1_556 S
H37 C14 0.931 1_556 S
H38 C16 0.930 . S
H39 C17 0.930 . S
Tb40 C42 2.809 . S
Tb40 O60 2.484 . S
Tb40 O61 2.440 . S
Tb40 O62 2.658 1_565 S
Tb40 O63 2.409 . S
Tb40 O64 2.378 . S
Tb40 O68 2.325 . S
Tb40 O71 2.341 1_565 S
Tb41 C51 2.809 . S
Tb41 O62 2.325 . S
Tb41 O65 2.341 1_545 S
Tb41 O66 2.484 . S
Tb41 O67 2.440 . S
Tb41 O68 2.658 1_545 S
Tb41 O69 2.409 . S
Tb41 O70 2.378 . S
C42 Tb40 2.809 . S
C42 C43 1.514 . S
C42 O60 1.248 . S
C42 O61 1.266 . S
C43 C42 1.514 . S
C43 C44 1.359 . S
C43 C48 1.348 . S
C44 C43 1.359 . S
C44 C45 1.380 . S
C44 H72 0.929 . S
C45 C44 1.380 . S
C45 C46 1.347 . S
C45 H73 0.931 . S
C46 C45 1.347 . S
C46 C47 1.369 . S
C47 C46 1.369 . S
C47 C48 1.408 . S
C47 H74 0.930 . S
C48 C43 1.348 . S
C48 C47 1.408 . S
C48 H75 0.930 . S
C49 O62 1.276 1_565 S
C49 O63 1.263 . S
C50 O64 1.236 . S
C50 O65 1.266 . S
C51 Tb41 2.809 . S
C51 C52 1.514 . S
C51 O66 1.248 . S
C51 O67 1.266 . S
C52 C51 1.514 . S
C52 C53 1.359 . S
C52 C57 1.348 . S
C53 C52 1.359 . S
C53 C54 1.380 . S
C53 H76 0.929 . S
C54 C53 1.380 . S
C54 C55 1.347 . S
C54 H77 0.931 . S
C55 C54 1.347 . S
C55 C56 1.369 . S
C56 C55 1.369 . S
C56 C57 1.408 . S
C56 H78 0.930 . S
C57 C52 1.348 . S
C57 C56 1.408 . S
C57 H79 0.930 . S
C58 O68 1.281 1_545 S
C58 O69 1.254 . S
C59 O70 1.236 . S
C59 O71 1.266 . S
O60 Tb40 2.484 . S
O60 C42 1.248 . S
O61 Tb40 2.440 . S
O61 C42 1.266 . S
O62 Tb40 2.658 1_545 S
O62 Tb41 2.325 . S
O62 C49 1.276 1_545 S
O63 Tb40 2.409 . S
O63 C49 1.263 . S
O64 Tb40 2.378 . S
O64 C50 1.236 . S
O65 Tb41 2.341 1_565 S
O65 C50 1.266 . S
O66 Tb41 2.484 . S
O66 C51 1.248 . S
O67 Tb41 2.440 . S
O67 C51 1.266 . S
O68 Tb40 2.325 . S
O68 Tb41 2.658 1_565 S
O68 C58 1.281 1_565 S
O69 Tb41 2.409 . S
O69 C58 1.254 . S
O70 Tb41 2.378 . S
O70 C59 1.236 . S
O71 Tb40 2.341 1_545 S
O71 C59 1.266 . S
H72 C44 0.929 . S
H73 C45 0.931 . S
H74 C47 0.930 . S
H75 C48 0.930 . S
H76 C53 0.929 . S
H77 C54 0.931 . S
H78 C56 0.930 . S
H79 C57 0.930 . S
Tb80 C82 2.809 . S
Tb80 O100 2.484 . S
Tb80 O101 2.440 . S
Tb80 O102 2.658 . S
Tb80 O103 2.409 . S
Tb80 O104 2.378 . S
Tb80 O108 2.325 . S
Tb80 O111 2.341 . S
Tb81 C91 2.809 . S
Tb81 O102 2.325 . S
Tb81 O105 2.341 . S
Tb81 O106 2.484 . S
Tb81 O107 2.440 . S
Tb81 O108 2.658 . S
Tb81 O109 2.409 1_556 S
Tb81 O110 2.378 . S
C82 Tb80 2.809 . S
C82 C83 1.514 . S
C82 O100 1.248 . S
C82 O101 1.266 . S
C83 C82 1.514 . S
C83 C84 1.359 . S
C83 C88 1.348 . S
C84 C83 1.359 . S
C84 C85 1.380 . S
C84 H112 0.925 1_556 S
C85 C84 1.380 . S
C85 C86 1.347 . S
C85 H113 0.931 1_556 S
C86 C85 1.347 . S
C86 C87 1.369 . S
C87 C86 1.369 . S
C87 C88 1.408 . S
C87 H114 0.930 . S
C88 C83 1.348 . S
C88 C87 1.408 . S
C88 H115 0.930 . S
C89 O102 1.281 . S
C89 O103 1.254 . S
C90 O104 1.236 . S
C90 O105 1.266 . S
C91 Tb81 2.809 . S
C91 C92 1.514 . S
C91 O106 1.248 . S
C91 O107 1.266 . S
C92 C91 1.514 . S
C92 C93 1.359 . S
C92 C97 1.348 . S
C93 C92 1.359 . S
C93 C94 1.380 . S
C93 H116 0.929 . S
C94 C93 1.380 . S
C94 C95 1.347 . S
C94 H117 0.931 . S
C95 C94 1.347 . S
C95 C96 1.369 . S
C96 C95 1.369 . S
C96 C97 1.408 . S
C96 H118 0.930 . S
C97 C92 1.348 . S
C97 C96 1.408 . S
C97 H119 0.930 . S
C98 O108 1.281 1_554 S
C98 O109 1.254 . S
C99 O110 1.236 . S
C99 O111 1.266 . S
O100 Tb80 2.484 . S
O100 C82 1.248 . S
O101 Tb80 2.440 . S
O101 C82 1.266 . S
O102 Tb80 2.658 . S
O102 Tb81 2.325 . S
O102 C89 1.281 . S
O103 Tb80 2.409 . S
O103 C89 1.254 . S
O104 Tb80 2.378 . S
O104 C90 1.236 . S
O105 Tb81 2.341 . S
O105 C90 1.266 . S
O106 Tb81 2.484 . S
O106 C91 1.248 . S
O107 Tb81 2.440 . S
O107 C91 1.266 . S
O108 Tb80 2.325 . S
O108 Tb81 2.658 . S
O108 C98 1.281 1_556 S
O109 Tb81 2.409 1_554 S
O109 C98 1.254 . S
O110 Tb81 2.378 . S
O110 C99 1.236 . S
O111 Tb80 2.341 . S
O111 C99 1.266 . S
H112 C84 0.925 1_554 S
H113 C85 0.931 1_554 S
H114 C87 0.930 . S
H115 C88 0.930 . S
H116 C93 0.929 . S
H117 C94 0.931 . S
H118 C96 0.930 . S
H119 C97 0.930 . S
H120 C126 0.930 . S
H121 C130 0.930 1_554 S
H122 C135 0.929 . S
H123 C133 0.929 . S
H124 C128 0.929 . S
H125 C134 0.929 1_556 S
C126 H120 0.930 . S
C126 C127 1.367 . S
C126 C134 1.378 . S
C127 C126 1.367 . S
C127 C135 1.433 . S
C128 H124 0.929 . S
C128 C130 1.378 1_554 S
C128 C132 1.347 1_554 S
C129 C132 1.459 1_554 S
C129 C134 1.350 . S
C129 N137 1.427 . S
C130 H121 0.930 1_556 S
C130 C128 1.378 1_556 S
C130 C131 1.367 . S
C131 C130 1.367 . S
C131 C133 1.433 . S
C132 C128 1.347 1_556 S
C132 C129 1.459 1_556 S
C132 N136 1.434 . S
C133 H123 0.929 . S
C133 C131 1.433 . S
C133 N136 1.384 . S
C134 H125 0.929 1_554 S
C134 C126 1.378 . S
C134 C129 1.350 . S
C135 H122 0.929 . S
C135 C127 1.433 . S
C135 N137 1.384 . S
N136 C132 1.434 . S
N136 C133 1.384 . S
N137 C129 1.427 . S
N137 C135 1.384 . S
H138 C144 0.930 . S
H139 C148 0.930 . S
H140 C153 0.929 . S
H141 C151 0.929 . S
H142 C146 0.929 . S
H143 C152 0.929 . S
C144 H138 0.930 . S
C144 C145 1.367 . S
C144 C152 1.378 . S
C145 C144 1.367 . S
C145 C153 1.433 . S
C146 H142 0.929 . S
C146 C148 1.378 . S
C146 C150 1.350 . S
C147 C150 1.463 . S
C147 C152 1.350 . S
C147 N155 1.427 . S
C148 H139 0.930 . S
C148 C146 1.378 . S
C148 C149 1.367 . S
C149 C148 1.367 . S
C149 C151 1.433 . S
C150 C146 1.350 . S
C150 C147 1.463 . S
C150 N154 1.427 . S
C151 H141 0.929 . S
C151 C149 1.433 . S
C151 N154 1.384 . S
C152 H143 0.929 . S
C152 C144 1.378 . S
C152 C147 1.350 . S
C153 H140 0.929 . S
C153 C145 1.433 . S
C153 N155 1.384 . S
N154 C150 1.427 . S
N154 C151 1.384 . S
N155 C147 1.427 . S
N155 C153 1.384 . S
H156 C162 0.930 . S
H157 C166 0.930 . S
H158 C171 0.929 . S
H159 C169 0.929 . S
H160 C164 0.929 . S
H161 C170 0.929 . S
C162 H156 0.930 . S
C162 C163 1.367 . S
C162 C170 1.378 . S
C163 C162 1.367 . S
C163 C171 1.433 . S
C164 H160 0.929 . S
C164 C166 1.378 . S
C164 C168 1.350 . S
C165 C168 1.463 . S
C165 C170 1.350 . S
C165 N173 1.427 . S
C166 H157 0.930 . S
C166 C164 1.378 . S
C166 C167 1.367 . S
C167 C166 1.367 . S
C167 C169 1.433 . S
C168 C164 1.350 . S
C168 C165 1.463 . S
C168 N172 1.427 . S
C169 H159 0.929 . S
C169 C167 1.433 . S
C169 N172 1.384 . S
C170 H161 0.929 . S
C170 C162 1.378 . S
C170 C165 1.350 . S
C171 H158 0.929 . S
C171 C163 1.433 . S
C171 N173 1.384 . S
N172 C168 1.427 . S
N172 C169 1.384 . S
N173 C165 1.427 . S
N173 C171 1.384 . S
H174 C180 0.930 . S
H175 C184 0.930 . S
H176 C189 0.929 . S
H177 C187 0.929 1_556 S
H178 C182 0.929 . S
H179 C188 0.929 . S
C180 H174 0.930 . S
C180 C181 1.367 . S
C180 C188 1.378 . S
C181 C180 1.367 . S
C181 C189 1.433 . S
C182 H178 0.929 . S
C182 C184 1.378 . S
C182 C186 1.350 . S
C183 C186 1.463 1_556 S
C183 C188 1.350 . S
C183 N191 1.427 . S
C184 H175 0.930 . S
C184 C182 1.378 . S
C184 C185 1.367 . S
C185 C184 1.367 . S
C185 C187 1.433 . S
C186 C182 1.350 . S
C186 C183 1.463 1_554 S
C186 N190 1.427 1_554 S
C187 H177 0.929 1_554 S
C187 C185 1.433 . S
C187 N190 1.384 1_554 S
C188 H179 0.929 . S
C188 C180 1.378 . S
C188 C183 1.350 . S
C189 H176 0.929 . S
C189 C181 1.433 . S
C189 N191 1.384 . S
N190 C186 1.427 1_556 S
N190 C187 1.384 1_556 S
N191 C183 1.427 . S
N191 C189 1.384 . S
H192 C198 0.930 . S
H193 C202 0.930 . S
H194 C207 0.929 . S
H195 C205 0.929 . S
H196 C200 0.929 . S
H197 C206 0.929 . S
C198 H192 0.930 . S
C198 C199 1.367 . S
C198 C206 1.378 . S
C199 C198 1.367 . S
C199 C207 1.433 . S
C200 H196 0.929 . S
C200 C202 1.378 . S
C200 C204 1.350 . S
C201 C204 1.463 . S
C201 C206 1.350 . S
C201 N209 1.427 . S
C202 H193 0.930 . S
C202 C200 1.378 . S
C202 C203 1.367 . S
C203 C202 1.367 . S
C203 C205 1.433 . S
C204 C200 1.350 . S
C204 C201 1.463 . S
C204 N208 1.427 . S
C205 H195 0.929 . S
C205 C203 1.433 . S
C205 N208 1.384 . S
C206 H197 0.929 . S
C206 C198 1.378 . S
C206 C201 1.350 . S
C207 H194 0.929 . S
C207 C199 1.433 . S
C207 N209 1.384 . S
N208 C204 1.427 . S
N208 C205 1.384 . S
N209 C201 1.427 . S
N209 C207 1.384 . S
H210 C216 0.930 . S
H211 C220 0.930 . S
H212 C225 0.929 . S
H213 C223 0.929 . S
H214 C218 0.929 . S
H215 C224 0.929 . S
C216 H210 0.930 . S
C216 C217 1.367 . S
C216 C224 1.378 . S
C217 C216 1.367 . S
C217 C225 1.433 . S
C218 H214 0.929 . S
C218 C220 1.378 . S
C218 C222 1.350 . S
C219 C222 1.463 . S
C219 C224 1.350 . S
C219 N227 1.427 . S
C220 H211 0.930 . S
C220 C218 1.378 . S
C220 C221 1.367 . S
C221 C220 1.367 . S
C221 C223 1.433 . S
C222 C218 1.350 . S
C222 C219 1.463 . S
C222 N226 1.427 . S
C223 H213 0.929 . S
C223 C221 1.433 . S
C223 N226 1.384 . S
C224 H215 0.929 . S
C224 C216 1.378 . S
C224 C219 1.350 . S
C225 H212 0.929 . S
C225 C217 1.433 . S
C225 N227 1.384 . S
N226 C222 1.427 . S
N226 C223 1.384 . S
N227 C219 1.427 . S
N227 C225 1.384 . S
H228 C234 0.930 . S
H229 C238 0.930 . S
H230 C243 0.929 . S
H231 C241 0.929 . S
H232 C236 0.929 . S
H233 C242 0.929 . S
C234 H228 0.930 . S
C234 C235 1.367 . S
C234 C242 1.378 . S
C235 C234 1.367 . S
C235 C243 1.433 1_655 S
C236 H232 0.929 . S
C236 C238 1.378 . S
C236 C240 1.350 . S
C237 C240 1.463 1_655 S
C237 C242 1.347 . S
C237 N245 1.431 1_655 S
C238 H229 0.930 . S
C238 C236 1.378 . S
C238 C239 1.367 . S
C239 C238 1.367 . S
C239 C241 1.433 1_455 S
C240 C236 1.350 . S
C240 C237 1.463 1_455 S
C240 N244 1.427 1_455 S
C241 H231 0.929 . S
C241 C239 1.433 1_655 S
C241 N244 1.384 . S
C242 H233 0.929 . S
C242 C234 1.378 . S
C242 C237 1.347 . S
C243 H230 0.929 . S
C243 C235 1.433 1_455 S
C243 N245 1.384 . S
N244 C240 1.427 1_655 S
N244 C241 1.384 . S
N245 C237 1.431 1_455 S
N245 C243 1.384 . S
H246 C252 0.930 . S
H247 C256 0.930 . S
H248 C261 0.929 . S
H249 C259 0.929 . S
H250 C254 0.929 . S
H251 C260 0.929 . S
C252 H246 0.930 . S
C252 C253 1.367 1_565 S
C252 C260 1.378 . S
C253 C252 1.367 1_545 S
C253 C261 1.433 . S
C254 H250 0.929 . S
C254 C256 1.378 . S
C254 C258 1.354 . S
C255 C258 1.463 1_554 S
C255 C260 1.347 1_545 S
C255 N263 1.432 . S
C256 H247 0.930 . S
C256 C254 1.378 . S
C256 C257 1.367 1_545 S
C257 C256 1.367 1_565 S
C257 C259 1.433 . S
C258 C254 1.354 . S
C258 C255 1.463 1_556 S
C258 N262 1.423 1_545 S
C259 H249 0.929 . S
C259 C257 1.433 . S
C259 N262 1.384 . S
C260 H251 0.929 . S
C260 C252 1.378 . S
C260 C255 1.347 1_565 S
C261 H248 0.929 . S
C261 C253 1.433 . S
C261 N263 1.384 . S
N262 C258 1.423 1_565 S
N262 C259 1.384 . S
N263 C255 1.432 . S
N263 C261 1.384 . S
H264 C270 0.930 . S
H265 C274 0.930 . S
H266 C279 0.929 . S
H267 C277 0.929 . S
H268 C272 0.929 . S
H269 C278 0.929 . S
C270 H264 0.930 . S
C270 C271 1.367 . S
C270 C278 1.378 . S
C271 C270 1.367 . S
C271 C279 1.433 . S
C272 H268 0.929 . S
C272 C274 1.378 . S
C272 C276 1.350 . S
C273 C276 1.463 . S
C273 C278 1.350 . S
C273 N281 1.427 . S
C274 H265 0.930 . S
C274 C272 1.378 . S
C274 C275 1.367 . S
C275 C274 1.367 . S
C275 C277 1.433 . S
C276 C272 1.350 . S
C276 C273 1.463 . S
C276 N280 1.427 . S
C277 H267 0.929 . S
C277 C275 1.433 . S
C277 N280 1.384 . S
C278 H269 0.929 . S
C278 C270 1.378 . S
C278 C273 1.350 . S
C279 H266 0.929 . S
C279 C271 1.433 . S
C279 N281 1.384 . S
N280 C276 1.427 . S
N280 C277 1.384 . S
N281 C273 1.427 . S
N281 C279 1.384 . S
C127 C10 1.883 . S
C131 C86 1.942 . S
C145 C59 2.220 . S
C149 C15 2.158 . S
C163 C46 1.947 . S
C167 C90 1.893 . S
C181 C95 2.158 . S
C185 C19 2.220 . S
C199 C50 1.882 . S
C203 C6 1.940 . S
C217 C99 2.216 . S
C221 C55 2.147 . S
C235 C9 0.586 1_655 S
C239 C18 0.589 1_455 S
C253 C49 0.568 1_545 S
C257 C58 0.574 1_565 S
C271 C89 0.544 . S
C275 C98 0.544 . S
