# Generated by pormake.
# Topology smd, (6)-cn, num edge types: 1
# Building blocks:
#     Node 0, Type 0, BuildingBlock: BETDIP_clean_sbu_0, # of connection points: 6
#     Node 1, Type 0, BuildingBlock: BETDIP_clean_sbu_0, # of connection points: 6
#     Node 2, Type 0, BuildingBlock: BETDIP_clean_sbu_0, # of connection points: 6
#     Node 3, Type 0, BuildingBlock: BETDIP_clean_sbu_0, # of connection points: 6
#     Node 4, Type 0, BuildingBlock: BETDIP_clean_sbu_0, # of connection points: 6
#     Node 5, Type 0, BuildingBlock: BETDIP_clean_sbu_0, # of connection points: 6
#     Node 6, Type 0, BuildingBlock: BETDIP_clean_sbu_0, # of connection points: 6
#     Node 7, Type 0, BuildingBlock: BETDIP_clean_sbu_0, # of connection points: 6
#     Node 8, Type 0, BuildingBlock: BETDIP_clean_sbu_0, # of connection points: 6
#     Node 9, Type 0, BuildingBlock: BETDIP_clean_sbu_0, # of connection points: 6
#     Node 10, Type 0, BuildingBlock: BETDIP_clean_sbu_0, # of connection points: 6
#     Node 11, Type 0, BuildingBlock: BETDIP_clean_sbu_0, # of connection points: 6
#     Node 12, Type 0, BuildingBlock: BETDIP_clean_sbu_0, # of connection points: 6
#     Node 13, Type 0, BuildingBlock: BETDIP_clean_sbu_0, # of connection points: 6
#     Node 14, Type 0, BuildingBlock: BETDIP_clean_sbu_0, # of connection points: 6
#     Node 15, Type 0, BuildingBlock: BETDIP_clean_sbu_0, # of connection points: 6
#     Node 16, Type 0, BuildingBlock: BETDIP_clean_sbu_0, # of connection points: 6
#     Node 17, Type 0, BuildingBlock: BETDIP_clean_sbu_0, # of connection points: 6
#     Edge 18, Type (0, 0), BuildingBlock: ZUJKAS_clean_linker_0, # of connection points: 2
#     Edge 19, Type (0, 0), BuildingBlock: ZUJKAS_clean_linker_0, # of connection points: 2
#     Edge 20, Type (0, 0), BuildingBlock: ZUJKAS_clean_linker_0, # of connection points: 2
#     Edge 21, Type (0, 0), BuildingBlock: ZUJKAS_clean_linker_0, # of connection points: 2
#     Edge 22, Type (0, 0), BuildingBlock: ZUJKAS_clean_linker_0, # of connection points: 2
#     Edge 23, Type (0, 0), BuildingBlock: ZUJKAS_clean_linker_0, # of connection points: 2
#     Edge 24, Type (0, 0), BuildingBlock: ZUJKAS_clean_linker_0, # of connection points: 2
#     Edge 25, Type (0, 0), BuildingBlock: ZUJKAS_clean_linker_0, # of connection points: 2
#     Edge 26, Type (0, 0), BuildingBlock: ZUJKAS_clean_linker_0, # of connection points: 2
#     Edge 27, Type (0, 0), BuildingBlock: ZUJKAS_clean_linker_0, # of connection points: 2
#     Edge 28, Type (0, 0), BuildingBlock: ZUJKAS_clean_linker_0, # of connection points: 2
#     Edge 29, Type (0, 0), BuildingBlock: ZUJKAS_clean_linker_0, # of connection points: 2
#     Edge 30, Type (0, 0), BuildingBlock: ZUJKAS_clean_linker_0, # of connection points: 2
#     Edge 31, Type (0, 0), BuildingBlock: ZUJKAS_clean_linker_0, # of connection points: 2
#     Edge 32, Type (0, 0), BuildingBlock: ZUJKAS_clean_linker_0, # of connection points: 2
#     Edge 33, Type (0, 0), BuildingBlock: ZUJKAS_clean_linker_0, # of connection points: 2
#     Edge 34, Type (0, 0), BuildingBlock: ZUJKAS_clean_linker_0, # of connection points: 2
#     Edge 35, Type (0, 0), BuildingBlock: ZUJKAS_clean_linker_0, # of connection points: 2
#     Edge 36, Type (0, 0), BuildingBlock: ZUJKAS_clean_linker_0, # of connection points: 2
#     Edge 37, Type (0, 0), BuildingBlock: ZUJKAS_clean_linker_0, # of connection points: 2
#     Edge 38, Type (0, 0), BuildingBlock: ZUJKAS_clean_linker_0, # of connection points: 2
#     Edge 39, Type (0, 0), BuildingBlock: ZUJKAS_clean_linker_0, # of connection points: 2
#     Edge 40, Type (0, 0), BuildingBlock: ZUJKAS_clean_linker_0, # of connection points: 2
#     Edge 41, Type (0, 0), BuildingBlock: ZUJKAS_clean_linker_0, # of connection points: 2
#     Edge 42, Type (0, 0), BuildingBlock: ZUJKAS_clean_linker_0, # of connection points: 2
#     Edge 43, Type (0, 0), BuildingBlock: ZUJKAS_clean_linker_0, # of connection points: 2
#     Edge 44, Type (0, 0), BuildingBlock: ZUJKAS_clean_linker_0, # of connection points: 2
#     Edge 45, Type (0, 0), BuildingBlock: ZUJKAS_clean_linker_0, # of connection points: 2
#     Edge 46, Type (0, 0), BuildingBlock: ZUJKAS_clean_linker_0, # of connection points: 2
#     Edge 47, Type (0, 0), BuildingBlock: ZUJKAS_clean_linker_0, # of connection points: 2
#     Edge 48, Type (0, 0), BuildingBlock: ZUJKAS_clean_linker_0, # of connection points: 2
#     Edge 49, Type (0, 0), BuildingBlock: ZUJKAS_clean_linker_0, # of connection points: 2
#     Edge 50, Type (0, 0), BuildingBlock: ZUJKAS_clean_linker_0, # of connection points: 2
#     Edge 51, Type (0, 0), BuildingBlock: ZUJKAS_clean_linker_0, # of connection points: 2
#     Edge 52, Type (0, 0), BuildingBlock: ZUJKAS_clean_linker_0, # of connection points: 2
#     Edge 53, Type (0, 0), BuildingBlock: ZUJKAS_clean_linker_0, # of connection points: 2
#     Edge 54, Type (0, 0), BuildingBlock: ZUJKAS_clean_linker_0, # of connection points: 2
#     Edge 55, Type (0, 0), BuildingBlock: ZUJKAS_clean_linker_0, # of connection points: 2
#     Edge 56, Type (0, 0), BuildingBlock: ZUJKAS_clean_linker_0, # of connection points: 2
#     Edge 57, Type (0, 0), BuildingBlock: ZUJKAS_clean_linker_0, # of connection points: 2
#     Edge 58, Type (0, 0), BuildingBlock: ZUJKAS_clean_linker_0, # of connection points: 2
#     Edge 59, Type (0, 0), BuildingBlock: ZUJKAS_clean_linker_0, # of connection points: 2
#     Edge 60, Type (0, 0), BuildingBlock: ZUJKAS_clean_linker_0, # of connection points: 2
#     Edge 61, Type (0, 0), BuildingBlock: ZUJKAS_clean_linker_0, # of connection points: 2
#     Edge 62, Type (0, 0), BuildingBlock: ZUJKAS_clean_linker_0, # of connection points: 2
#     Edge 63, Type (0, 0), BuildingBlock: ZUJKAS_clean_linker_0, # of connection points: 2
#     Edge 64, Type (0, 0), BuildingBlock: ZUJKAS_clean_linker_0, # of connection points: 2
#     Edge 65, Type (0, 0), BuildingBlock: ZUJKAS_clean_linker_0, # of connection points: 2
#     Edge 66, Type (0, 0), BuildingBlock: ZUJKAS_clean_linker_0, # of connection points: 2
#     Edge 67, Type (0, 0), BuildingBlock: ZUJKAS_clean_linker_0, # of connection points: 2
#     Edge 68, Type (0, 0), BuildingBlock: ZUJKAS_clean_linker_0, # of connection points: 2
#     Edge 69, Type (0, 0), BuildingBlock: ZUJKAS_clean_linker_0, # of connection points: 2
#     Edge 70, Type (0, 0), BuildingBlock: ZUJKAS_clean_linker_0, # of connection points: 2
#     Edge 71, Type (0, 0), BuildingBlock: ZUJKAS_clean_linker_0, # of connection points: 2
# Relax obj value: 0.276
# Max RMSD: 0.341
# Mean RMSD: 0.309
data_MOF--net-smd--node1-BETDIP_clean_sbu_0--edge1-ZUJKAS_clean_linker_0
_symmetry_space_group_name_H-M    P1
_symmetry_Int_Tables_number       1
_symmetry_cell_setting            triclinic
loop_
_symmetry_equiv_pos_as_xyz
'x, y, z'
_cell_length_a     85.922523
_cell_length_b     85.410175
_cell_length_c     29.976854
_cell_angle_alpha  93.065254
_cell_angle_beta   93.455704
_cell_angle_gamma 119.85799
loop_
_atom_site_label
_atom_site_type_symbol
_atom_site_fract_x
_atom_site_fract_y
_atom_site_fract_z
_atom_type_partial_charge
Tb0 Tb 0.02533 0.25381 0.57574 0.0
Tb1 Tb 1.01275 0.24249 0.48 0.0
C2 C 0.03279 0.2659 0.65721 0.0
C3 C 0.02901 0.25798 0.70093 0.0
C4 C 1.0122 0.25189 0.71799 0.0
C5 C 1.00965 0.24644 0.76154 0.0
C6 C 0.0239 0.24713 0.78885 0.0
C7 C 0.04031 0.25224 0.77096 0.0
C8 C 0.04283 0.25758 0.72751 0.0
C9 C 0.04098 0.23799 0.53507 0.0
C10 C 0.99579 0.21328 0.54946 0.0
C11 C 1.00422 0.22899 0.39987 0.0
C12 C 1.00883 0.23534 0.35512 0.0
C13 C 0.02537 0.23917 0.33933 0.0
C14 C 0.02837 0.2428 0.29472 0.0
C15 C 1.01485 0.24248 0.26536 0.0
C16 C 0.99883 0.23972 0.2818 0.0
C17 C 0.99585 0.23621 0.32629 0.0
C18 C 0.9963 0.2566 0.52537 0.0
C19 C 0.04158 0.28222 0.5001 0.0
O20 O 0.01926 0.26482 0.63187 0.0
O21 O 0.04355 0.26288 0.63381 0.0
O22 O 0.03744 0.24945 0.5194 0.0
O23 O 0.03591 0.2355 0.57507 0.0
O24 O 1.00229 0.22683 0.58162 0.0
O25 O 1.00009 0.21621 0.50797 0.0
O26 O 0.01674 0.22863 0.42622 0.0
O27 O 0.99504 0.23483 0.4215 0.0
O28 O 1.00086 0.24563 0.53758 0.0
O29 O 1.00058 0.2601 0.48493 0.0
O30 O 0.03506 0.26829 0.46977 0.0
O31 O 0.03795 0.28001 0.54289 0.0
H32 H 1.00121 0.25193 0.69839 0.0
H33 H 0.99689 0.24262 0.77469 0.0
H34 H 0.05143 0.25271 0.79126 0.0
H35 H 0.05587 0.26204 0.71531 0.0
H36 H 0.03569 0.23868 0.36079 0.0
H37 H 0.04081 0.24483 0.28253 0.0
H38 H 0.98829 0.23957 0.25967 0.0
H39 H 0.98305 0.23341 0.33761 0.0
Tb40 Tb 0.79874 0.7884 0.46011 0.0
Tb41 Tb 0.79567 0.79728 0.55289 0.0
C42 C 0.79533 0.77739 0.37851 0.0
C43 C 0.79869 0.78557 0.33516 0.0
C44 C 0.78792 0.79213 0.31621 0.0
C45 C 0.79011 0.7979 0.27297 0.0
C46 C 0.80295 0.79704 0.2474 0.0
C47 C 0.81428 0.79132 0.26756 0.0
C48 C 0.8122 0.78573 0.31083 0.0
C49 C 0.82976 0.80315 0.51219 0.0
C50 C 0.80775 0.82801 0.48803 0.0
C51 C 0.79832 0.80844 0.63388 0.0
C52 C 0.79691 0.80162 0.67853 0.0
C53 C 0.80862 0.79599 0.69642 0.0
C54 C 0.80798 0.79146 0.74078 0.0
C55 C 0.7957 0.79257 0.76806 0.0
C56 C 0.78349 0.79741 0.74906 0.0
C57 C 0.78409 0.80183 0.70489 0.0
C58 C 0.76516 0.78283 0.49833 0.0
C59 C 0.78616 0.7587 0.53155 0.0
O60 O 0.78221 0.77689 0.39942 0.0
O61 O 0.80949 0.7816 0.40614 0.0
O62 O 0.8144 0.79134 0.52209 0.0
O63 O 0.82777 0.80685 0.47171 0.0
O64 O 0.80223 0.8154 0.45378 0.0
O65 O 0.80866 0.82407 0.52958 0.0
O66 O 0.81218 0.81115 0.61256 0.0
O67 O 0.78336 0.80117 0.60725 0.0
O68 O 0.78063 0.79459 0.49012 0.0
O69 O 0.7662 0.77889 0.5391 0.0
O70 O 0.79517 0.77258 0.56169 0.0
O71 O 0.78429 0.76142 0.48863 0.0
H72 H 0.77748 0.79238 0.33421 0.0
H73 H 0.78142 0.80265 0.25931 0.0
H74 H 0.82421 0.7902 0.24924 0.0
H75 H 0.82075 0.78082 0.32462 0.0
H76 H 0.81854 0.7955 0.67665 0.0
H77 H 0.81736 0.78744 0.75392 0.0
H78 H 0.77401 0.79871 0.76887 0.0
H79 H 0.77489 0.80609 0.69179 0.0
Tb80 Tb 0.23137 1.01062 0.54241 0.0
Tb81 Tb 0.2316 0.02248 0.45085 0.0
C82 C 0.23823 1.00606 0.62149 0.0
C83 C 0.23451 1.01017 0.66697 0.0
C84 C 0.24809 0.02537 0.69421 0.0
C85 C 0.246 0.02846 0.73896 0.0
C86 C 0.23032 0.01636 0.75772 0.0
C87 C 0.21618 1.00181 0.72993 0.0
C88 C 0.21827 0.99869 0.68487 0.0
C89 C 0.19883 0.99614 0.49804 0.0
C90 C 0.22301 0.04203 0.52575 0.0
C91 C 0.22742 0.0257 0.36912 0.0
C92 C 0.22813 0.01816 0.32443 0.0
C93 C 0.21233 1.00437 0.2998 0.0
C94 C 0.21223 1.00019 0.25411 0.0
C95 C 0.2279 1.00981 0.23237 0.0
C96 C 0.24405 0.02249 0.25781 0.0
C97 C 0.24416 0.02667 0.30342 0.0
C98 C 0.26125 0.04227 0.50613 0.0
C99 C 0.24304 0.99301 0.46283 0.0
O100 O 0.24876 0.02027 0.6012 0.0
O101 O 0.22492 0.99321 0.59407 0.0
O102 O 0.21321 0.99891 0.48233 0.0
O103 O 0.20301 1.0024 0.5399 0.0
O104 O 0.23066 0.03596 0.55442 0.0
O105 O 0.21874 0.03554 0.48326 0.0
O106 O 0.21399 0.01561 0.39219 0.0
O107 O 0.24276 0.03507 0.39418 0.0
O108 O 0.25138 0.02552 0.50121 0.0
O109 O 0.25495 0.04923 0.47796 0.0
O110 O 0.24004 1.00298 0.43527 0.0
O111 O 0.24047 0.9935 0.50632 0.0
H112 H 0.26072 0.03457 0.68143 0.0
H113 H 0.25698 0.03994 0.75945 0.0
H114 H 0.20395 0.99225 0.74364 0.0
H115 H 0.20749 0.98695 0.66469 0.0
H116 H 0.19979 0.99754 0.31509 0.0
H117 H 0.19967 0.99013 0.23525 0.0
H118 H 0.2563 0.0302 0.24188 0.0
H119 H 0.25656 0.03741 0.32144 0.0
Tb120 Tb 0.02755 0.79948 0.60567 0.0
Tb121 Tb 1.01075 0.78676 0.51215 0.0
C122 C 0.03579 0.80707 0.68907 0.0
C123 C 0.02897 0.80092 0.73278 0.0
C124 C 0.01702 0.80543 0.75195 0.0
C125 C 1.01333 0.80241 0.79654 0.0
C126 C 0.02146 0.79475 0.82297 0.0
C127 C 0.03245 0.78916 0.80258 0.0
C128 C 0.03629 0.79237 0.75826 0.0
C129 C 0.04493 0.78923 0.55097 0.0
C130 C 0.99545 0.75937 0.5866 0.0
C131 C 1.00286 0.77495 0.43079 0.0
C132 C 1.00635 0.78342 0.38781 0.0
C133 C 0.02384 0.79225 0.3738 0.0
C134 C 0.02672 0.79832 0.33105 0.0
C135 C 1.01217 0.79547 0.30076 0.0
C136 C 0.99485 0.78758 0.31593 0.0
C137 C 0.99202 0.78169 0.35894 0.0
C138 C 0.99846 0.80565 0.55661 0.0
C139 C 0.04231 0.8269 0.53682 0.0
O140 O 0.02825 0.8143 0.66472 0.0
O141 O 0.03984 0.79668 0.6647 0.0
O142 O 0.02832 0.78195 0.55341 0.0
O143 O 0.05291 0.80307 0.5808 0.0
O144 O 1.00631 0.77302 0.61632 0.0
O145 O 0.99451 0.76122 0.5429 0.0
O146 O 0.01705 0.77697 0.45502 0.0
O147 O 0.99154 0.77664 0.45534 0.0
O148 O 1.00212 0.79416 0.57172 0.0
O149 O 1.00233 0.80695 0.51544 0.0
O150 O 0.03515 0.8128 0.50616 0.0
O151 O 0.03842 0.82521 0.57855 0.0
H152 H 1.01115 0.81207 0.73328 0.0
H153 H 1.00487 0.80702 0.81084 0.0
H154 H 0.03857 0.78275 0.82118 0.0
H155 H 0.04559 0.78877 0.74452 0.0
H156 H 0.03533 0.79408 0.39532 0.0
H157 H 0.04035 0.80486 0.32153 0.0
H158 H 0.98321 0.78501 0.29392 0.0
H159 H 0.97844 0.7751 0.36893 0.0
Tb160 Tb 0.23622 0.23864 0.50525 0.0
Tb161 Tb 0.23729 0.25039 0.60025 0.0
C162 C 0.22959 0.22551 0.42504 0.0
C163 C 0.23255 0.23289 0.38092 0.0
C164 C 0.22165 0.2392 0.36147 0.0
C165 C 0.2236 0.24443 0.3178 0.0
C166 C 0.2364 0.24333 0.29264 0.0
C167 C 0.24789 0.23792 0.3132 0.0
C168 C 0.24597 0.23277 0.35677 0.0
C169 C 0.26807 0.25341 0.55263 0.0
C170 C 0.24756 0.27848 0.52295 0.0
C171 C 0.24301 0.26252 0.6818 0.0
C172 C 0.23993 0.25475 0.72593 0.0
C173 C 0.25131 0.24907 0.74589 0.0
C174 C 0.24927 0.2435 0.78939 0.0
C175 C 0.23593 0.24365 0.81433 0.0
C176 C 0.22412 0.24863 0.79342 0.0
C177 C 0.22608 0.25406 0.74991 0.0
C178 C 0.20489 0.23434 0.55539 0.0
C179 C 0.22641 0.20978 0.57464 0.0
O180 O 0.21773 0.22689 0.44785 0.0
O181 O 0.24406 0.22898 0.45047 0.0
O182 O 0.25308 0.24259 0.56503 0.0
O183 O 0.26585 0.25614 0.51124 0.0
O184 O 0.23918 0.26419 0.49367 0.0
O185 O 0.25021 0.27664 0.56653 0.0
O186 O 0.25518 0.26176 0.65908 0.0
O187 O 0.22871 0.25909 0.65572 0.0
O188 O 0.21953 0.24581 0.54159 0.0
O189 O 0.20838 0.23182 0.59603 0.0
O190 O 0.23377 0.22324 0.60738 0.0
O191 O 0.22343 0.21272 0.53317 0.0
H192 H 0.21129 0.23966 0.37942 0.0
H193 H 0.21478 0.24889 0.30339 0.0
H194 H 0.25777 0.23669 0.29492 0.0
H195 H 0.25461 0.22805 0.37099 0.0
H196 H 0.26207 0.24929 0.72838 0.0
H197 H 0.25839 0.23938 0.8037 0.0
H198 H 0.21381 0.24919 0.8113 0.0
H199 H 0.21708 0.25833 0.73558 0.0
Tb200 Tb 0.80075 0.0161 0.57417 0.0
Tb201 Tb 0.80228 0.02713 0.48376 0.0
C202 C 0.80439 0.01367 0.65687 0.0
C203 C 0.80176 0.01949 0.70158 0.0
C204 C 0.81592 0.03492 0.72676 0.0
C205 C 0.81536 0.03792 0.77266 0.0
C206 C 0.8007 0.02548 0.79424 0.0
C207 C 0.78589 1.01088 0.76838 0.0
C208 C 0.78643 1.0079 0.72244 0.0
C209 C 0.77048 0.99686 0.51901 0.0
C210 C 0.79061 0.04594 0.55533 0.0
C211 C 0.79877 0.02889 0.40079 0.0
C212 C 0.80231 0.02249 0.35799 0.0
C213 C 0.78877 1.00648 0.33333 0.0
C214 C 0.79037 1.0026 0.28863 0.0
C215 C 0.80543 0.01473 0.26772 0.0
C216 C 0.81968 0.02987 0.29353 0.0
C217 C 0.81811 0.03374 0.33827 0.0
C218 C 0.83126 0.04903 0.5375 0.0
C219 C 0.81085 0.99571 0.50686 0.0
O220 O 0.81703 0.02585 0.63532 0.0
O221 O 0.79004 1.00227 0.63025 0.0
O222 O 0.78098 0.01358 0.52312 0.0
O223 O 0.77638 0.98985 0.54801 0.0
O224 O 0.79717 0.03949 0.58541 0.0
O225 O 0.78859 0.04061 0.51203 0.0
O226 O 0.78608 0.01684 0.42252 0.0
O227 O 0.81276 0.04089 0.42755 0.0
O228 O 0.82307 0.03181 0.5357 0.0
O229 O 0.82356 0.05406 0.50785 0.0
O230 O 0.80579 1.00309 0.47544 0.0
O231 O 0.81284 1.00131 0.54938 0.0
H232 H 0.82795 0.04409 0.71171 0.0
H233 H 0.82682 0.04947 0.7917 0.0
H234 H 0.77445 1.00099 0.78408 0.0
H235 H 0.77536 0.99582 0.704 0.0
H236 H 0.77645 0.9975 0.34761 0.0
H237 H 0.77933 0.99064 0.26967 0.0
H238 H 0.83142 0.03953 0.27831 0.0
H239 H 0.82878 0.04618 0.3564 0.0
Tb240 Tb 0.67231 0.57763 0.75649 0.0
Tb241 Tb 0.68981 0.58192 0.85178 0.0
C242 C 0.66968 0.58385 0.67614 0.0
C243 C 0.67145 0.57698 0.63112 0.0
C244 C 0.68809 0.58573 0.61258 0.0
C245 C 0.68937 0.58135 0.56781 0.0
C246 C 0.674 0.56828 0.54044 0.0
C247 C 0.65764 0.5587 0.55954 0.0
C248 C 0.65637 0.56296 0.60448 0.0
C249 C 0.65594 0.54574 0.78909 0.0
C250 C 0.7033 0.56688 0.77858 0.0
C251 C 0.69896 0.58488 0.93398 0.0
C252 C 0.69227 0.58456 0.97803 0.0
C253 C 0.67587 0.57011 0.98876 0.0
C254 C 0.67165 0.56894 0.0333 0.0
C255 C 0.6838 0.58218 0.06712 0.0
C256 C 0.69949 0.5972 0.05573 0.0
C257 C 0.70366 0.59841 1.01145 0.0
C258 C 0.70622 0.60898 0.80118 0.0
C259 C 0.65586 0.58698 0.83981 0.0
O260 O 0.6845 0.59253 0.70338 0.0
O261 O 0.65565 0.57341 0.69712 0.0
O262 O 0.66882 0.56042 0.80827 0.0
O263 O 0.65213 0.5487 0.74923 0.0
O264 O 0.69542 0.57263 0.74899 0.0
O265 O 0.70038 0.56649 0.82115 0.0
O266 O 0.69195 0.56953 0.90832 0.0
O267 O 0.70187 0.59869 0.91166 0.0
O268 O 0.68959 0.59966 0.80426 0.0
O269 O 0.71454 0.60322 0.82686 0.0
O270 O 0.66522 0.58164 0.86462 0.0
O271 O 0.65759 0.58837 0.79578 0.0
H272 H 0.70001 0.59661 0.632 0.0
H273 H 0.70211 0.58903 0.55384 0.0
H274 H 0.64563 0.54844 0.5391 0.0
H275 H 0.6434 0.55585 0.61766 0.0
H276 H 0.66679 0.55935 0.96333 0.0
H277 H 0.65951 0.55722 0.04174 0.0
H278 H 0.70898 0.60751 0.0815 0.0
H279 H 0.71629 0.60971 1.00371 0.0
Tb280 Tb 0.45696 0.11353 0.74317 0.0
Tb281 Tb 0.46011 0.12943 0.83245 0.0
C282 C 0.45042 0.1041 0.65955 0.0
C283 C 0.45443 0.11213 0.61579 0.0
C284 C 0.44156 0.11465 0.59097 0.0
C285 C 0.44385 0.1194 0.54685 0.0
C286 C 0.459 0.1216 0.52611 0.0
C287 C 0.47236 0.12005 0.55173 0.0
C288 C 0.47008 0.11533 0.59596 0.0
C289 C 0.48809 0.12342 0.78798 0.0
C290 C 0.46887 0.1564 0.76417 0.0
C291 C 0.46448 0.1388 0.91509 0.0
C292 C 0.46228 0.13049 0.95785 0.0
C293 C 0.47614 0.12843 0.97879 0.0
C294 C 0.47543 0.12382 0.02288 0.0
C295 C 0.46091 0.12125 0.04687 0.0
C296 C 0.4464 0.12192 0.02468 0.0
C297 C 0.44711 0.12655 0.98063 0.0
C298 C 0.42863 0.11693 0.78409 0.0
C299 C 0.44835 0.08824 0.82243 0.0
O300 O 0.43977 0.10705 0.68361 0.0
O301 O 0.46369 0.10465 0.68454 0.0
O302 O 0.4802 0.13264 0.78807 0.0
O303 O 0.47881 0.10873 0.76144 0.0
O304 O 0.46134 0.14171 0.73431 0.0
O305 O 0.47314 0.15495 0.80572 0.0
O306 O 0.4774 0.13995 0.89201 0.0
O307 O 0.44974 0.13432 0.88955 0.0
O308 O 0.43779 0.10938 0.78777 0.0
O309 O 0.4371 0.13254 0.80745 0.0
O310 O 0.45812 0.10388 0.84678 0.0
O311 O 0.4436 0.0882 0.77902 0.0
H312 H 0.42933 0.11227 0.60505 0.0
H313 H 0.43346 0.12085 0.52854 0.0
H314 H 0.48415 0.12152 0.53693 0.0
H315 H 0.48027 0.11345 0.61387 0.0
H316 H 0.48795 0.13123 0.96201 0.0
H317 H 0.48664 0.12303 0.03887 0.0
H318 H 0.43505 0.1201 0.04225 0.0
H319 H 0.43621 0.12801 0.96533 0.0
Tb320 Tb 0.9042 0.35538 0.75809 0.0
Tb321 Tb 0.89588 0.34382 0.84772 0.0
C322 C 0.91334 0.35991 0.67958 0.0
C323 C 0.90518 0.35697 0.63269 0.0
C324 C 0.90476 0.34326 0.60372 0.0
C325 C 0.89915 0.3412 0.55812 0.0
C326 C 0.89369 0.35276 0.53999 0.0
C327 C 0.89317 0.3659 0.56949 0.0
C328 C 0.89895 0.36805 0.61536 0.0
C329 C 0.88767 0.37063 0.79875 0.0
C330 C 0.8649 0.32387 0.77458 0.0
C331 C 0.89209 0.33851 0.9287 0.0
C332 C 0.90007 0.34683 0.97463 0.0
C333 C 0.89579 0.35891 0.99668 0.0
C334 C 0.89975 0.3631 0.04314 0.0
C335 C 0.908 0.35524 0.06815 0.0
C336 C 0.9138 0.34458 0.04532 0.0
C337 C 0.90978 0.34033 0.99906 0.0
C338 C 0.90563 0.32478 0.79444 0.0
C339 C 0.93518 0.37509 0.84138 0.0
O340 O 0.90884 0.3451 0.69907 0.0
O341 O 0.91435 0.37297 0.70705 0.0
O342 O 0.89956 0.36768 0.81673 0.0
O343 O 0.8844 0.36409 0.75717 0.0
O344 O 0.87783 0.32916 0.74695 0.0
O345 O 0.8688 0.3316 0.81581 0.0
O346 O 0.88359 0.34502 0.90522 0.0
O347 O 0.9016 0.33389 0.90457 0.0
O348 O 0.91205 0.34143 0.80011 0.0
O349 O 0.89259 0.31741 0.81957 0.0
O350 O 0.92201 0.36729 0.86714 0.0
O351 O 0.93175 0.37213 0.79655 0.0
H352 H 0.90949 0.33451 0.61606 0.0
H353 H 0.90009 0.33111 0.53687 0.0
H354 H 0.88871 0.37483 0.55703 0.0
H355 H 0.89896 0.37865 0.63689 0.0
H356 H 0.88837 0.3642 0.97866 0.0
H357 H 0.89511 0.37138 0.05972 0.0
H358 H 0.92057 0.33868 0.06352 0.0
H359 H 0.91329 0.33102 0.98291 0.0
Tb360 Tb 0.68671 0.12901 0.87239 0.0
Tb361 Tb 0.67022 0.11036 0.77632 0.0
C362 C 0.693 0.14001 0.95409 0.0
C363 C 0.68721 0.13267 0.99742 0.0
C364 C 0.67307 0.13367 0.01602 0.0
C365 C 0.66963 0.12975 0.06015 0.0
C366 C 0.68018 0.12468 0.08635 0.0
C367 C 0.69347 0.12243 0.06693 0.0
C368 C 0.69704 0.1265 0.02286 0.0
C369 C 0.7042 0.11666 0.82614 0.0
C370 C 0.65656 0.08689 0.86161 0.0
C371 C 0.66962 0.09932 0.69644 0.0
C372 C 0.67125 0.10652 0.65166 0.0
C373 C 0.68674 0.11073 0.62985 0.0
C374 C 0.68811 0.11588 0.5861 0.0
C375 C 0.67408 0.11704 0.56312 0.0
C376 C 0.65892 0.11371 0.58528 0.0
C377 C 0.6575 0.10848 0.62925 0.0
C378 C 0.653 0.12685 0.80477 0.0
C379 C 0.70062 0.15348 0.79613 0.0
O380 O 0.68119 0.14124 0.92679 0.0
O381 O 0.70263 0.13457 0.93301 0.0
O382 O 0.68749 0.10928 0.82749 0.0
O383 O 0.71211 0.13172 0.85209 0.0
O384 O 0.666 0.10235 0.88747 0.0
O385 O 0.65665 0.08623 0.81659 0.0
O386 O 0.68422 0.10761 0.72466 0.0
O387 O 0.65492 0.09486 0.71626 0.0
O388 O 0.66598 0.12634 0.82517 0.0
O389 O 0.64923 0.11764 0.76617 0.0
O390 O 0.69304 0.13828 0.7681 0.0
O391 O 0.69721 0.15322 0.83841 0.0
H392 H 0.66522 0.13832 0.9973 0.0
H393 H 0.65921 0.13143 0.07449 0.0
H394 H 0.70183 0.11862 0.08669 0.0
H395 H 0.70807 0.12564 1.00956 0.0
H396 H 0.6976 0.10946 0.64617 0.0
H397 H 0.69987 0.1183 0.56951 0.0
H398 H 0.64788 0.11439 0.56791 0.0
H399 H 0.64544 0.10549 0.64507 0.0
Tb400 Tb 0.90141 0.57672 0.88666 0.0
Tb401 Tb 0.90976 0.5734 0.79588 0.0
C402 C 0.89121 0.57543 0.96373 0.0
C403 C 0.89855 0.57726 1.01073 0.0
C404 C 0.9011 0.56368 0.02843 0.0
C405 C 0.90507 0.56435 0.07472 0.0
C406 C 0.90645 0.57854 0.10377 0.0
C407 C 0.90536 0.5928 0.08557 0.0
C408 C 0.90142 0.59215 0.03952 0.0
C409 C 0.91577 0.60687 0.84529 0.0
C410 C 0.93984 0.58536 0.88158 0.0
C411 C 0.91999 0.57609 0.71814 0.0
C412 C 0.91151 0.57146 0.67097 0.0
C413 C 0.90773 0.58348 0.64875 0.0
C414 C 0.90228 0.58023 0.60255 0.0
C415 C 0.9006 0.56496 0.57754 0.0
C416 C 0.9032 0.55235 0.60036 0.0
C417 C 0.90865 0.55559 0.64643 0.0
C418 C 0.89426 0.54204 0.83143 0.0
C419 C 0.87021 0.56495 0.80887 0.0
O420 O 0.88777 0.56101 0.93782 0.0
O421 O 0.89842 0.59015 0.94301 0.0
O422 O 0.90373 0.59139 0.82982 0.0
O423 O 0.92074 0.60622 0.88639 0.0
O424 O 0.92597 0.57711 0.90468 0.0
O425 O 0.937 0.58714 0.83807 0.0
O426 O 0.91976 0.58924 0.742 0.0
O427 O 0.91695 0.56257 0.74166 0.0
O428 O 0.90636 0.55719 0.85104 0.0
O429 O 0.89036 0.54469 0.79123 0.0
O430 O 0.88289 0.5706 0.78062 0.0
O431 O 0.87427 0.56396 0.8514 0.0
H432 H 0.89917 0.55211 1.00697 0.0
H433 H 0.90589 0.5532 0.08799 0.0
H434 H 0.90667 0.60404 0.10727 0.0
H435 H 0.89973 0.60289 0.0267 0.0
H436 H 0.90972 0.59581 0.66657 0.0
H437 H 0.90045 0.59025 0.58603 0.0
H438 H 0.90168 0.54027 0.58224 0.0
H439 H 0.91132 0.54598 0.66245 0.0
Tb440 Tb 0.46858 0.34902 0.87008 0.0
Tb441 Tb 0.46522 0.36049 0.78221 0.0
C442 C 0.47777 0.34927 0.95103 0.0
C443 C 0.47387 0.35373 0.99559 0.0
C444 C 0.48718 0.36925 0.02218 0.0
C445 C 0.48525 0.37207 0.06722 0.0
C446 C 0.47005 0.35932 0.0866 0.0
C447 C 0.45606 0.34454 0.05912 0.0
C448 C 0.45796 0.34175 0.01394 0.0
C449 C 0.43724 0.32798 0.82257 0.0
C450 C 0.45304 0.376 0.86374 0.0
C451 C 0.46076 0.36427 0.70026 0.0
C452 C 0.46336 0.35846 0.65507 0.0
C453 C 0.44902 0.34366 0.62846 0.0
C454 C 0.45045 0.3403 0.5831 0.0
C455 C 0.46619 0.35174 0.56323 0.0
C456 C 0.48091 0.36585 0.59056 0.0
C457 C 0.4795 0.36918 0.63588 0.0
C458 C 0.49598 0.3826 0.8306 0.0
C459 C 0.47512 0.32858 0.79433 0.0
O460 O 0.48665 0.36288 0.92718 0.0
O461 O 0.46494 0.33485 0.92683 0.0
O462 O 0.44631 0.3449 0.82523 0.0
O463 O 0.44448 0.32209 0.85129 0.0
O464 O 0.46024 0.36867 0.88932 0.0
O465 O 0.45176 0.37323 0.81899 0.0
O466 O 0.44802 0.35231 0.72202 0.0
O467 O 0.4753 0.37507 0.72685 0.0
O468 O 0.48829 0.36542 0.82617 0.0
O469 O 0.48616 0.38753 0.808 0.0
O470 O 0.46805 0.33586 0.76719 0.0
O471 O 0.48 0.33488 0.83675 0.0
H472 H 0.49952 0.37877 1.00879 0.0
H473 H 0.49607 0.38378 0.08745 0.0
H474 H 0.4442 0.33446 0.07316 0.0
H475 H 0.44739 0.32972 0.99417 0.0
H476 H 0.43639 0.33513 0.64212 0.0
H477 H 0.43897 0.32909 0.56319 0.0
H478 H 0.49318 0.37504 0.57643 0.0
H479 H 0.4908 0.38077 0.65525 0.0
Tb480 Tb 0.35687 0.92328 0.21447 0.0
Tb481 Tb 0.34085 0.90543 0.12334 0.0
C482 C 0.35712 0.9341 0.29446 0.0
C483 C 0.35576 0.92664 0.33894 0.0
C484 C 0.3388 0.91698 0.35546 0.0
C485 C 0.33726 0.91125 0.39864 0.0
C486 C 0.35266 0.91527 0.42724 0.0
C487 C 0.36958 0.92419 0.40994 0.0
C488 C 0.3711 0.92978 0.36635 0.0
C489 C 0.37698 0.90946 0.19094 0.0
C490 C 0.32726 0.87992 0.19621 0.0
C491 C 0.33193 0.89497 0.0408 0.0
C492 C 0.33692 0.90094 0.99579 0.0
C493 C 0.35408 0.90627 0.98207 0.0
C494 C 0.35743 0.90968 0.93733 0.0
C495 C 0.34366 0.90769 0.90534 0.0
C496 C 0.32677 0.90307 0.92004 0.0
C497 C 0.3235 0.89983 0.96461 0.0
C498 C 0.32311 0.918 0.17049 0.0
C499 C 0.37137 0.94655 0.13068 0.0
O500 O 0.34263 0.92547 0.26608 0.0
O501 O 0.37189 0.93922 0.27456 0.0
O502 O 0.36358 0.90796 0.16584 0.0
O503 O 0.37868 0.91846 0.22847 0.0
O504 O 0.33476 0.89511 0.224 0.0
O505 O 0.33054 0.88053 0.15402 0.0
O506 O 0.34261 0.89141 0.06582 0.0
O507 O 0.32537 0.90329 0.06406 0.0
O508 O 0.33965 0.92557 0.16631 0.0
O509 O 0.3156 0.90205 0.14876 0.0
O510 O 0.36298 0.93071 0.10663 0.0
O511 O 0.37023 0.94761 0.17509 0.0
H512 H 0.32662 0.91417 0.33535 0.0
H513 H 0.32392 0.90393 0.4098 0.0
H514 H 0.38181 0.92764 0.43067 0.0
H515 H 0.38437 0.93705 0.35472 0.0
H516 H 0.36476 0.9074 1.00554 0.0
H517 H 0.37075 0.91361 0.92777 0.0
H518 H 0.31567 0.90111 0.89678 0.0
H519 H 0.31015 0.89574 0.97437 0.0
Tb520 Tb 0.12738 0.45071 0.12695 0.0
Tb521 Tb 0.12447 0.46218 0.22004 0.0
C522 C 0.11896 0.44248 0.04405 0.0
C523 C 0.12561 0.45024 1.0016 0.0
C524 C 0.11656 0.45747 0.97717 0.0
C525 C 0.12082 0.46256 0.93413 0.0
C526 C 0.13408 0.46033 0.91446 0.0
C527 C 0.1439 0.45414 0.9398 0.0
C528 C 0.13973 0.44916 0.98308 0.0
C529 C 0.15988 0.46366 0.1702 0.0
C530 C 0.13881 0.49235 0.15847 0.0
C531 C 0.1232 0.46877 0.30179 0.0
C532 C 0.12212 0.46165 0.34568 0.0
C533 C 0.13584 0.45914 0.36582 0.0
C534 C 0.13585 0.45572 0.41098 0.0
C535 C 0.12228 0.45498 0.43614 0.0
C536 C 0.10799 0.45621 0.41504 0.0
C537 C 0.1079 0.45947 0.37013 0.0
C538 C 0.09642 0.45241 0.15866 0.0
C539 C 0.1164 0.42247 0.20095 0.0
O540 O 0.11308 0.45111 0.06886 0.0
O541 O 0.12806 0.43667 0.06795 0.0
O542 O 0.14615 0.46279 0.18651 0.0
O543 O 0.15546 0.45746 0.12841 0.0
O544 O 0.13297 0.47931 0.12468 0.0
O545 O 0.14003 0.48878 0.20002 0.0
O546 O 0.13831 0.47484 0.28313 0.0
O547 O 0.10891 0.45988 0.27292 0.0
O548 O 0.10553 0.4448 0.16477 0.0
O549 O 0.10328 0.46671 0.18701 0.0
O550 O 0.12235 0.43645 0.2311 0.0
O551 O 0.11515 0.42425 0.15707 0.0
H552 H 0.1056 0.45843 0.99054 0.0
H553 H 0.11295 0.46714 0.91519 0.0
H554 H 0.15431 0.45247 0.92539 0.0
H555 H 0.14705 0.4438 1.00115 0.0
H556 H 0.14694 0.46069 0.34753 0.0
H557 H 0.14702 0.45486 0.42693 0.0
H558 H 0.09737 0.45558 0.43398 0.0
H559 H 0.0972 0.46134 0.3552 0.0
Tb560 Tb 0.5688 0.67701 0.23535 0.0
Tb561 Tb 0.56823 0.69199 0.15205 0.0
C562 C 0.57045 0.67031 0.31616 0.0
C563 C 0.56871 0.67638 0.3621 0.0
C564 C 0.58378 0.68995 0.38971 0.0
C565 C 0.58256 0.69321 0.43539 0.0
C566 C 0.56627 0.68291 0.4545 0.0
C567 C 0.55096 0.6702 0.42615 0.0
C568 C 0.55218 0.66691 0.38068 0.0
C569 C 0.53866 0.65655 0.18245 0.0
C570 C 0.55981 0.70982 0.22815 0.0
C571 C 0.56306 0.69583 0.07097 0.0
C572 C 0.56632 0.6904 0.0264 0.0
C573 C 0.55175 0.67684 0.99762 0.0
C574 C 0.55378 0.6738 0.95266 0.0
C575 C 0.57043 0.68432 0.93551 0.0
C576 C 0.58537 0.69683 0.96528 0.0
C577 C 0.58333 0.6999 1.01025 0.0
C578 C 0.59914 0.71059 0.2053 0.0
C579 C 0.57978 0.66208 0.15123 0.0
O580 O 0.58461 0.68083 0.29606 0.0
O581 O 0.55582 0.66235 0.28839 0.0
O582 O 0.54672 0.67377 0.18984 0.0
O583 O 0.54786 0.65081 0.20464 0.0
O584 O 0.56733 0.70237 0.25331 0.0
O585 O 0.5554 0.70459 0.18525 0.0
O586 O 0.55108 0.6829 0.09221 0.0
O587 O 0.57705 0.70777 0.09788 0.0
O588 O 0.58955 0.69371 0.1976 0.0
O589 O 0.5923 0.71797 0.18021 0.0
O590 O 0.57241 0.67002 0.12909 0.0
O591 O 0.58173 0.66418 0.19614 0.0
H592 H 0.59672 0.69748 0.37658 0.0
H593 H 0.59466 0.70308 0.45617 0.0
H594 H 0.5381 0.6623 0.43939 0.0
H595 H 0.54028 0.65635 0.36052 0.0
H596 H 0.5385 0.66923 1.00919 0.0
H597 H 0.54196 0.66408 0.93079 0.0
H598 H 0.5985 0.70483 0.95339 0.0
H599 H 0.5949 0.7103 0.03169 0.0
Tb600 Tb 0.36045 0.46003 0.24075 0.0
Tb601 Tb 0.34191 0.44723 0.14951 0.0
C602 C 0.37111 0.46457 0.32303 0.0
C603 C 0.36454 0.46105 0.36792 0.0
C604 C 0.35251 0.46627 0.38332 0.0
C605 C 0.34863 0.46495 0.42824 0.0
C606 C 0.35663 0.45829 0.45858 0.0
C607 C 0.36778 0.45208 0.44195 0.0
C608 C 0.37179 0.4536 0.39738 0.0
C609 C 0.37584 0.44859 0.18126 0.0
C610 C 0.32588 0.42282 0.22867 0.0
C611 C 0.33935 0.43838 0.06673 0.0
C612 C 0.3414 0.44706 0.02397 0.0
C613 C 0.35862 0.45737 1.00922 0.0
C614 C 0.36061 0.46336 0.96633 0.0
C615 C 0.34544 0.45894 0.93636 0.0
C616 C 0.32826 0.44958 0.95215 0.0
C617 C 0.32628 0.44373 0.99541 0.0
C618 C 0.32449 0.46153 0.18834 0.0
C619 C 0.37261 0.48955 0.17846 0.0
O620 O 0.36924 0.4766 0.30162 0.0
O621 O 0.36808 0.45051 0.29635 0.0
O622 O 0.35946 0.44135 0.18784 0.0
O623 O 0.38438 0.46339 0.20783 0.0
O624 O 0.33416 0.43869 0.25217 0.0
O625 O 0.32787 0.42191 0.18487 0.0
O626 O 0.3541 0.44465 0.09384 0.0
O627 O 0.32529 0.43472 0.08849 0.0
O628 O 0.33789 0.46086 0.20716 0.0
O629 O 0.32085 0.45414 0.14759 0.0
O630 O 0.36422 0.47598 0.14574 0.0
O631 O 0.37035 0.48647 0.2205 0.0
H632 H 0.34659 0.47195 0.36117 0.0
H633 H 0.33999 0.4699 0.43949 0.0
H634 H 0.37376 0.44631 0.46352 0.0
H635 H 0.38102 0.44938 0.38621 0.0
H636 H 0.37067 0.46033 0.0302 0.0
H637 H 0.37412 0.47102 0.95634 0.0
H638 H 0.31619 0.44583 0.93036 0.0
H639 H 0.31283 0.43589 1.00571 0.0
Tb640 Tb 0.57405 0.90754 0.17082 0.0
Tb641 Tb 0.57403 0.92257 0.2603 0.0
C642 C 0.57217 0.89823 0.08893 0.0
C643 C 0.57351 0.90588 0.04531 0.0
C644 C 0.55862 0.90548 0.02191 0.0
C645 C 0.5594 0.90996 0.97751 0.0
C646 C 0.57504 0.91482 0.95581 0.0
C647 C 0.59032 0.91654 0.98051 0.0
C648 C 0.58953 0.91203 0.02461 0.0
C649 C 0.60381 0.91883 0.22694 0.0
C650 C 0.58431 0.94848 0.17887 0.0
C651 C 0.58098 0.93598 0.34094 0.0
C652 C 0.57666 0.92912 0.38603 0.0
C653 C 0.58953 0.92733 0.41322 0.0
C654 C 0.58657 0.92245 0.45709 0.0
C655 C 0.57062 0.91919 0.47536 0.0
C656 C 0.55741 0.92028 0.44753 0.0
C657 C 0.56041 0.92524 0.40354 0.0
C658 C 0.5408 0.90322 0.2173 0.0
C659 C 0.56398 0.88117 0.24217 0.0
O660 O 0.55793 0.89419 0.11018 0.0
O661 O 0.58703 0.90564 0.11601 0.0
O662 O 0.59474 0.92643 0.22099 0.0
O663 O 0.59617 0.90381 0.20102 0.0
O664 O 0.58026 0.93397 0.15221 0.0
O665 O 0.58342 0.9477 0.22337 0.0
O666 O 0.59126 0.93145 0.31982 0.0
O667 O 0.56815 0.93542 0.31353 0.0
O668 O 0.55517 0.91393 0.2006 0.0
O669 O 0.54532 0.90316 0.25919 0.0
O670 O 0.57279 0.89616 0.2705 0.0
O671 O 0.55925 0.88232 0.20055 0.0
H672 H 0.54611 0.9009 0.03703 0.0
H673 H 0.5474 0.90853 0.9594 0.0
H674 H 0.6027 0.92066 0.96509 0.0
H675 H 0.60128 0.91258 0.04181 0.0
H676 H 0.60222 0.93025 0.40102 0.0
H677 H 0.59721 0.92202 0.47725 0.0
H678 H 0.54479 0.91753 0.45988 0.0
H679 H 0.55013 0.92636 0.38362 0.0
Tb680 Tb 0.12932 0.68001 0.26659 0.0
Tb681 Tb 0.13095 0.6926 0.17787 0.0
C682 C 0.1278 0.67322 0.34753 0.0
C683 C 0.12845 0.68027 0.39415 0.0
C684 C 0.14466 0.69389 0.41786 0.0
C685 C 0.14565 0.69762 0.4643 0.0
C686 C 0.13044 0.68794 0.48748 0.0
C687 C 0.11399 0.6752 0.4635 0.0
C688 C 0.11303 0.67132 0.41725 0.0
C689 C 0.09959 0.66102 0.20765 0.0
C690 C 0.12178 0.71191 0.25667 0.0
C691 C 0.12171 0.69196 0.09681 0.0
C692 C 0.12783 0.68968 0.05313 0.0
C693 C 0.11763 0.67316 0.02584 0.0
C694 C 0.1215 0.67153 0.98186 0.0
C695 C 0.13552 0.68641 0.9645 0.0
C696 C 0.14652 0.70245 0.99249 0.0
C697 C 0.1428 0.70404 0.0367 0.0
C698 C 0.16417 0.70979 0.21965 0.0
C699 C 0.14098 0.66157 0.1982 0.0
O700 O 0.1427 0.68006 0.32769 0.0
O701 O 0.11373 0.66955 0.32021 0.0
O702 O 0.10949 0.67775 0.2157 0.0
O703 O 0.10666 0.65372 0.23209 0.0
O704 O 0.12752 0.70395 0.28422 0.0
O705 O 0.12029 0.70839 0.2123 0.0
O706 O 0.11533 0.67765 0.11915 0.0
O707 O 0.1316 0.7072 0.12285 0.0
O708 O 0.14968 0.70466 0.23888 0.0
O709 O 0.15979 0.70681 0.17677 0.0
O710 O 0.13483 0.66862 0.16827 0.0
O711 O 0.14319 0.66701 0.2409 0.0
H712 H 0.15677 0.70101 0.40106 0.0
H713 H 0.15847 0.7075 0.48244 0.0
H714 H 0.10217 0.66744 0.48095 0.0
H715 H 0.10043 0.6606 0.39993 0.0
H716 H 0.10607 0.6618 0.0377 0.0
H717 H 0.11277 0.65912 0.96047 0.0
H718 H 0.15737 0.71407 0.97936 0.0
H719 H 0.15107 0.7168 0.05712 0.0
H720 H 0.08119 0.39552 0.19996 0.0
H721 H 0.06928 0.37191 0.25228 0.0
H722 H 0.12358 0.38658 0.30036 0.0
H723 H 0.13536 0.41058 0.24961 0.0
H724 H 0.07014 0.34216 0.26994 0.0
H725 H 0.10674 0.3927 0.41665 0.0
H726 H 0.1058 0.39927 0.36086 0.0
H727 H 0.12167 0.39224 0.3781 0.0
C728 C 0.09054 0.39322 0.22051 0.0
C729 C 0.10925 0.40462 0.21968 0.0
C730 C 0.08373 0.37987 0.25103 0.0
C731 C 0.09546 0.37766 0.28168 0.0
C732 C 0.11412 0.38825 0.27848 0.0
H733 H 0.07785 0.30448 0.49475 0.0
H734 H 0.09136 0.32799 0.44237 0.0
C735 C 0.1209 0.40172 0.24853 0.0
C736 C 0.08829 0.36474 0.31755 0.0
H737 H 0.09212 0.36176 0.43116 0.0
C738 C 0.07493 0.34654 0.30515 0.0
C739 C 0.09439 0.37023 0.36395 0.0
C740 C 0.10779 0.3897 0.38079 0.0
C741 C 0.06783 0.33381 0.33721 0.0
C742 C 0.07398 0.33932 0.38344 0.0
C743 C 0.08739 0.35744 0.39589 0.0
C744 C 0.0663 0.32658 0.41927 0.0
C745 C 0.05402 0.31439 0.32111 0.0
C746 C 0.04791 0.31855 0.42573 0.0
C747 C 0.04033 0.3055 0.45645 0.0
C748 C 0.0509 0.30019 0.48196 0.0
C749 C 0.06948 0.30879 0.47705 0.0
C750 C 0.07714 0.32202 0.44647 0.0
H751 H 0.05405 0.31133 0.28462 0.0
H752 H 0.05652 0.30484 0.33979 0.0
H753 H 0.04038 0.31192 0.327 0.0
H754 H 0.03923 0.32192 0.40583 0.0
H755 H 0.02587 0.29866 0.45816 0.0
H756 H 0.73038 0.76 0.51574 0.0
H757 H 0.70258 0.7491 0.46551 0.0
H758 H 0.73391 0.77967 0.362 0.0
H759 H 0.76165 0.79113 0.41256 0.0
H760 H 0.6904 0.77219 0.41651 0.0
H761 H 0.70083 0.72475 0.3049 0.0
H762 H 0.71167 0.73254 0.36154 0.0
H763 H 0.71961 0.74745 0.31794 0.0
C764 C 0.73134 0.7644 0.48228 0.0
C765 C 0.74827 0.7762 0.46795 0.0
C766 C 0.71544 0.75817 0.45361 0.0
C767 C 0.71613 0.76336 0.40973 0.0
C768 C 0.73302 0.77527 0.39546 0.0
H769 H 0.63351 0.72851 0.18099 0.0
H770 H 0.66194 0.74222 0.23037 0.0
C771 C 0.74889 0.78175 0.42438 0.0
C772 C 0.6992 0.75637 0.37899 0.0
H773 H 0.67548 0.72764 0.28494 0.0
C774 C 0.68711 0.76243 0.38776 0.0
C775 C 0.69496 0.74376 0.34125 0.0
C776 C 0.70734 0.73659 0.3307 0.0
C777 C 0.67101 0.75639 0.35963 0.0
C778 C 0.66653 0.74345 0.32223 0.0
C779 C 0.67876 0.73751 0.31342 0.0
C780 C 0.64919 0.73575 0.29221 0.0
C781 C 0.65926 0.76437 0.36975 0.0
C782 C 0.63242 0.72751 0.31006 0.0
C783 C 0.61625 0.72002 0.28185 0.0
C784 C 0.61636 0.72011 0.23503 0.0
C785 C 0.63304 0.72835 0.217 0.0
C786 C 0.64928 0.73605 0.24525 0.0
H787 H 0.66717 0.77791 0.38913 0.0
H788 H 0.65263 0.76578 0.3385 0.0
H789 H 0.64865 0.75535 0.39047 0.0
H790 H 0.63177 0.72664 0.34586 0.0
H791 H 0.60363 0.71421 0.29676 0.0
H792 H 0.2743 1.00919 0.42581 0.0
H793 H 0.28751 0.99515 0.38022 0.0
H794 H 0.24611 0.94226 0.40917 0.0
H795 H 0.23261 0.9565 0.45466 0.0
H796 H 0.30172 0.97406 0.39539 0.0
H797 H 0.24091 0.936 0.27339 0.0
H798 H 0.24337 0.95326 0.31526 0.0
H799 H 0.23704 0.93092 0.33039 0.0
C800 C 0.26819 0.99455 0.42317 0.0
C801 C 0.25251 0.98395 0.44415 0.0
C802 C 0.27572 0.98652 0.39684 0.0
C803 C 0.26769 0.96757 0.39016 0.0
C804 C 0.2524 0.9569 0.4128 0.0
H805 H 0.29187 0.89882 0.21101 0.0
H806 H 0.27909 0.91058 0.26565 0.0
C807 C 0.24485 0.96502 0.4395 0.0
C808 C 0.27535 0.95932 0.359 0.0
H809 H 0.26535 0.93142 0.26227 0.0
C810 C 0.29372 0.96467 0.36638 0.0
C811 C 0.26507 0.94717 0.32071 0.0
C812 C 0.24555 0.9416 0.30905 0.0
C813 C 0.30197 0.95805 0.33745 0.0
C814 C 0.29173 0.94594 0.29889 0.0
C815 C 0.27332 0.94057 0.29164 0.0
C816 C 0.29976 0.93877 0.2656 0.0
C817 C 0.32154 0.96389 0.34945 0.0
C818 C 0.31558 0.95052 0.24633 0.0
C819 C 0.32305 0.94373 0.21565 0.0
C820 C 0.31466 0.92503 0.20213 0.0
C821 C 0.29861 0.91329 0.22035 0.0
C822 C 0.29131 0.92005 0.25177 0.0
H823 H 0.3255 0.96788 0.38604 0.0
H824 H 0.32441 0.95293 0.33966 0.0
H825 H 0.33011 0.97591 0.33176 0.0
H826 H 0.32215 0.96503 0.25466 0.0
H827 H 0.3354 0.95318 0.20218 0.0
H828 H 0.2753 0.02615 0.55633 0.0
H829 H 0.30411 0.04012 0.60185 0.0
H830 H 0.31693 0.09233 0.55919 0.0
H831 H 0.28719 0.07843 0.51559 0.0
H832 H 0.33719 0.05736 0.57519 0.0
H833 H 0.32833 0.10398 0.69345 0.0
H834 H 0.30976 0.08581 0.65765 0.0
H835 H 0.32497 0.10661 0.63528 0.0
C836 C 0.28399 0.04071 0.55758 0.0
C837 C 0.27881 0.05134 0.53343 0.0
C838 C 0.30058 0.04863 0.58321 0.0
C839 C 0.31257 0.0673 0.58449 0.0
C840 C 0.30765 0.07796 0.55963 0.0
H841 H 0.41753 0.13618 0.73487 0.0
H842 H 0.39044 0.12396 0.68142 0.0
C843 C 0.29076 0.07004 0.53454 0.0
C844 C 0.33037 0.0753 0.61105 0.0
H845 H 0.35691 0.10638 0.69842 0.0
C846 C 0.34157 0.06814 0.60207 0.0
C847 C 0.33595 0.08923 0.64626 0.0
C848 C 0.32408 0.09677 0.65913 0.0
C849 C 0.35835 0.07469 0.62698 0.0
C850 C 0.36395 0.08866 0.6623 0.0
C851 C 0.35273 0.09583 0.67108 0.0
C852 C 0.3811 0.09583 0.6916 0.0
C853 C 0.3699 0.06671 0.61458 0.0
C854 C 0.38494 0.08412 0.71492 0.0
C855 C 0.40057 0.09108 0.74453 0.0
C856 C 0.41227 0.10989 0.75271 0.0
C857 C 0.40848 0.12164 0.72967 0.0
C858 C 0.3931 0.11465 0.69903 0.0
H859 H 0.36656 0.06083 0.57899 0.0
H860 H 0.38447 0.07703 0.61988 0.0
H861 H 0.36732 0.05556 0.63579 0.0
H862 H 0.37567 0.06963 0.71103 0.0
H863 H 0.40329 0.08177 0.76195 0.0
H864 H 0.89725 0.28897 0.78571 0.0
H865 H 0.91261 0.27622 0.74268 0.0
H866 H 0.94641 0.32856 0.69587 0.0
H867 H 0.93276 0.34154 0.7422 0.0
H868 H 0.91602 0.27167 0.6585 0.0
H869 H 0.98469 0.31931 0.73839 0.0
H870 H 0.96503 0.31828 0.75945 0.0
H871 H 0.97514 0.33162 0.71368 0.0
C872 C 0.90806 0.29769 0.76644 0.0
C873 C 0.91364 0.31619 0.767 0.0
C874 C 0.91681 0.29043 0.74178 0.0
C875 C 0.93108 0.30152 0.71687 0.0
C876 C 0.93601 0.31981 0.71606 0.0
H877 H 0.99185 0.28594 0.5156 0.0
H878 H 0.9757 0.29634 0.5631 0.0
C879 C 0.92781 0.32714 0.74183 0.0
C880 C 0.94075 0.29416 0.69108 0.0
H881 H 0.98285 0.3033 0.66798 0.0
C882 C 0.93062 0.27848 0.66106 0.0
C883 C 0.95988 0.30292 0.69449 0.0
C884 C 0.97176 0.31883 0.72864 0.0
C885 C 0.93906 0.27175 0.63343 0.0
C886 C 0.95809 0.28104 0.63545 0.0
C887 C 0.96824 0.29644 0.66596 0.0
C888 C 0.96772 0.27475 0.60666 0.0
C889 C 0.92764 0.25491 0.60167 0.0
C890 C 0.96875 0.25938 0.61596 0.0
C891 C 0.97808 0.25359 0.58934 0.0
C892 C 0.9864 0.26297 0.55264 0.0
C893 C 0.98538 0.27838 0.54334 0.0
C894 C 0.97623 0.28432 0.57046 0.0
H895 H 0.91311 0.25074 0.59955 0.0
H896 H 0.93222 0.25715 0.56753 0.0
H897 H 0.92918 0.24362 0.61347 0.0
H898 H 0.96244 0.25193 0.644 0.0
H899 H 0.97869 0.24168 0.59741 0.0
H900 H 0.77537 0.7236 0.49402 0.0
H901 H 0.76035 0.69551 0.53264 0.0
H902 H 0.75977 0.72658 0.65011 0.0
H903 H 0.77378 0.75381 0.61242 0.0
H904 H 0.77275 0.68835 0.61672 0.0
H905 H 0.70794 0.68651 0.63093 0.0
H906 H 0.72377 0.70031 0.59307 0.0
H907 H 0.72709 0.70795 0.65184 0.0
C908 C 0.7717 0.72424 0.52772 0.0
C909 C 0.77589 0.74095 0.55009 0.0
C910 C 0.76325 0.70829 0.54986 0.0
C911 C 0.75867 0.70891 0.5941 0.0
C912 C 0.76276 0.72559 0.61581 0.0
H913 H 0.71008 0.64252 0.80884 0.0
H914 H 0.72381 0.66634 0.75804 0.0
C915 C 0.77101 0.74126 0.59408 0.0
C916 C 0.75015 0.69257 0.61926 0.0
H917 H 0.71461 0.66913 0.68029 0.0
C918 C 0.75988 0.68386 0.63003 0.0
C919 C 0.73359 0.68708 0.6376 0.0
C920 C 0.72243 0.69587 0.62746 0.0
C921 C 0.75386 0.67029 0.65997 0.0
C922 C 0.73722 0.66474 0.6784 0.0
C923 C 0.72735 0.67325 0.66658 0.0
C924 C 0.72985 0.65047 0.71059 0.0
C925 C 0.76597 0.66285 0.67313 0.0
C926 C 0.72866 0.63354 0.70157 0.0
C927 C 0.72169 0.62033 0.73197 0.0
C928 C 0.71469 0.6233 0.77057 0.0
C929 C 0.71538 0.63994 0.7792 0.0
C930 C 0.72314 0.65349 0.74995 0.0
H931 H 0.78029 0.67261 0.66883 0.0
H932 H 0.76511 0.65959 0.70856 0.0
H933 H 0.76191 0.65032 0.65102 0.0
H934 H 0.73287 0.63037 0.67074 0.0
H935 H 0.72108 0.6075 0.72435 0.0
H936 H 1.00709 0.7497 0.6592 0.0
H937 H 0.99106 0.72295 0.69814 0.0
H938 H 0.94566 0.70186 0.59721 0.0
H939 H 0.96198 0.72923 0.55702 0.0
H940 H 0.95869 0.71205 0.73413 0.0
H941 H 0.95499 0.65916 0.60998 0.0
H942 H 0.97014 0.68307 0.60698 0.0
H943 H 0.9465 0.67326 0.59013 0.0
C944 C 0.9937 0.7394 0.64482 0.0
C945 C 0.98568 0.74168 0.60518 0.0
C946 C 0.98456 0.72408 0.66732 0.0
C947 C 0.96717 0.71047 0.65078 0.0
C948 C 0.95918 0.71223 0.61032 0.0
H949 H 0.90125 0.60923 0.76523 0.0
H950 H 0.91316 0.63451 0.71879 0.0
C951 C 0.96847 0.72778 0.58737 0.0
C952 C 0.9577 0.69486 0.67748 0.0
H953 H 0.94311 0.64975 0.67861 0.0
C954 C 0.95508 0.69836 0.7219 0.0
C955 C 0.95324 0.67713 0.66155 0.0
C956 C 0.95644 0.67282 0.61469 0.0
C957 C 0.94818 0.68462 0.75096 0.0
C958 C 0.94406 0.66691 0.73538 0.0
C959 C 0.94635 0.66334 0.69062 0.0
C960 C 0.93699 0.65177 0.76451 0.0
C961 C 0.94522 0.68922 0.79787 0.0
C962 C 0.9465 0.65293 0.80566 0.0
C963 C 0.93957 0.6385 0.83272 0.0
C964 C 0.92321 0.62259 0.81854 0.0
C965 C 0.91389 0.62138 0.77711 0.0
C966 C 0.9207 0.6358 0.75043 0.0
H967 H 0.94405 0.70161 0.80011 0.0
H968 H 0.93285 0.67788 0.80906 0.0
H969 H 0.95692 0.69186 0.8214 0.0
H970 H 0.95937 0.66492 0.81664 0.0
H971 H 0.94711 0.63965 0.8642 0.0
H972 H 0.27311 0.24681 0.63852 0.0
H973 H 0.30142 0.25943 0.68635 0.0
H974 H 0.33065 0.28524 0.57479 0.0
H975 H 0.3021 0.27422 0.52825 0.0
H976 H 0.32858 0.25525 0.68629 0.0
H977 H 0.35383 0.32762 0.66436 0.0
H978 H 0.33116 0.31018 0.64448 0.0
H979 H 0.34958 0.31473 0.61145 0.0
C980 C 0.28554 0.25571 0.62464 0.0
C981 C 0.28539 0.26021 0.58024 0.0
C982 C 0.30177 0.26268 0.65184 0.0
C983 C 0.31825 0.27382 0.63476 0.0
C984 C 0.31813 0.27741 0.58949 0.0
H985 H 0.43009 0.31817 0.73318 0.0
H986 H 0.40064 0.3046 0.68871 0.0
C987 C 0.30183 0.27094 0.5627 0.0
C988 C 0.33548 0.28136 0.66411 0.0
H989 H 0.37525 0.32043 0.69739 0.0
C990 C 0.33868 0.26954 0.68895 0.0
C991 C 0.34866 0.30007 0.66824 0.0
C992 C 0.34555 0.31389 0.6461 0.0
C993 C 0.35481 0.27583 0.71668 0.0
C994 C 0.36817 0.29431 0.71909 0.0
C995 C 0.36499 0.30619 0.69487 0.0
C996 C 0.3857 0.3016 0.74629 0.0
C997 C 0.35768 0.26269 0.74272 0.0
C998 C 0.38694 0.3043 0.79328 0.0
C999 C 0.40375 0.31218 0.81859 0.0
C1000 C 0.41943 0.31737 0.79713 0.0
C1001 C 0.41812 0.31432 0.75026 0.0
C1002 C 0.40137 0.30656 0.72495 0.0
H1003 H 0.34674 0.24842 0.73382 0.0
H1004 H 0.37079 0.26381 0.73648 0.0
H1005 H 0.35818 0.26616 0.7792 0.0
H1006 H 0.37498 0.30073 0.81019 0.0
H1007 H 0.40459 0.31477 0.85468 0.0
H1008 H 0.69045 0.08239 0.78676 0.0
H1009 H 0.70493 0.07097 0.73712 0.0
H1010 H 0.75146 0.12475 0.74437 0.0
H1011 H 0.73733 0.13598 0.79588 0.0
H1012 H 0.71549 0.07757 0.65794 0.0
H1013 H 0.77607 0.09747 0.77491 0.0
H1014 H 0.75702 0.09882 0.7922 0.0
H1015 H 0.77383 0.11665 0.76341 0.0
C1016 C 0.70388 0.0917 0.77814 0.0
C1017 C 0.71297 0.10998 0.7958 0.0
C1018 C 0.7121 0.08519 0.74961 0.0
C1019 C 0.72953 0.09687 0.73789 0.0
C1020 C 0.73832 0.11531 0.75424 0.0
H1021 H 0.80161 0.08187 0.57093 0.0
H1022 H 0.78596 0.09467 0.61249 0.0
C1023 C 0.73022 0.12175 0.78347 0.0
C1024 C 0.73834 0.08978 0.70821 0.0
H1025 H 0.77692 0.08802 0.69945 0.0
C1026 C 0.7289 0.07982 0.66714 0.0
C1027 C 0.75579 0.09253 0.72029 0.0
C1028 C 0.76617 0.10177 0.76531 0.0
C1029 C 0.73655 0.07288 0.63755 0.0
C1030 C 0.75413 0.07605 0.64925 0.0
C1031 C 0.76356 0.08591 0.69025 0.0
C1032 C 0.76275 0.06856 0.62047 0.0
C1033 C 0.72579 0.06238 0.59382 0.0
C1034 C 0.75481 0.04973 0.61104 0.0
C1035 C 0.76355 0.04255 0.58688 0.0
C1036 C 0.78042 0.05407 0.57222 0.0
C1037 C 0.78836 0.07288 0.58104 0.0
C1038 C 0.77953 0.08011 0.60502 0.0
H1039 H 0.71499 0.06548 0.58424 0.0
H1040 H 0.73461 0.06536 0.56614 0.0
H1041 H 0.71925 0.04764 0.59759 0.0
H1042 H 0.74219 0.04055 0.6238 0.0
H1043 H 0.75751 0.02795 0.58133 0.0
H1044 H 0.62351 0.95278 0.27085 0.0
H1045 H 0.65091 0.96505 0.32283 0.0
H1046 H 0.64762 0.9129 0.31185 0.0
H1047 H 0.62059 0.90082 0.25833 0.0
H1048 H 0.65945 0.95864 0.40221 0.0
H1049 H 0.69798 0.94348 0.28299 0.0
H1050 H 0.67638 0.94113 0.26613 0.0
H1051 H 0.67771 0.92342 0.29314 0.0
C1052 C 0.62871 0.94395 0.27932 0.0
C1053 C 0.62007 0.9259 0.25979 0.0
C1054 C 0.64437 0.95098 0.30926 0.0
C1055 C 0.65179 0.94012 0.3206 0.0
C1056 C 0.64267 0.92183 0.30255 0.0
H1057 H 0.74575 0.96035 0.50155 0.0
H1058 H 0.71654 0.94629 0.45506 0.0
C1059 C 0.62713 0.91486 0.2721 0.0
C1060 C 0.66909 0.94799 0.35073 0.0
H1061 H 0.71131 0.95296 0.3584 0.0
C1062 C 0.67076 0.95739 0.39245 0.0
C1063 C 0.68411 0.9467 0.33814 0.0
C1064 C 0.68406 0.93832 0.29248 0.0
C1065 C 0.68675 0.96512 0.4219 0.0
C1066 C 0.70149 0.96333 0.40966 0.0
C1067 C 0.6999 0.95404 0.3681 0.0
C1068 C 0.71898 0.97173 0.43861 0.0
C1069 C 0.6878 0.97506 0.46611 0.0
C1070 C 0.73014 0.99064 0.44434 0.0
C1071 C 0.7468 0.99862 0.47037 0.0
C1072 C 0.75271 0.9879 0.49152 0.0
C1073 C 0.74155 0.96895 0.48584 0.0
C1074 C 0.72488 0.96093 0.4593 0.0
H1075 H 0.67433 0.97248 0.47431 0.0
H1076 H 0.69386 0.97102 0.49374 0.0
H1077 H 0.69659 0.98986 0.46445 0.0
H1078 H 0.72604 0.99926 0.42827 0.0
H1079 H 0.75504 0.01327 0.47397 0.0
H1080 H 0.08064 0.80485 0.53508 0.0
H1081 H 0.09417 0.79265 0.48368 0.0
H1082 H 0.04222 0.74455 0.44957 0.0
H1083 H 0.02872 0.75675 0.5 0.0
H1084 H 0.09705 0.76236 0.47971 0.0
H1085 H 0.05555 0.75871 0.32655 0.0
H1086 H 0.05611 0.77039 0.37908 0.0
H1087 H 0.0422 0.7461 0.36928 0.0
C1088 C 0.07213 0.79172 0.51641 0.0
C1089 C 0.05355 0.78194 0.52102 0.0
C1090 C 0.07986 0.78472 0.48705 0.0
C1091 C 0.06918 0.76783 0.46156 0.0
C1092 C 0.05072 0.75784 0.46746 0.0
H1093 H 0.08669 0.70026 0.26538 0.0
H1094 H 0.07445 0.71402 0.31593 0.0
C1095 C 0.04301 0.76483 0.49657 0.0
C1096 C 0.07723 0.76057 0.4291 0.0
H1097 H 0.07278 0.74411 0.31952 0.0
C1098 C 0.09183 0.75852 0.4446 0.0
C1099 C 0.07042 0.75539 0.38317 0.0
C1100 C 0.05533 0.75791 0.3634 0.0
C1101 C 0.09949 0.75111 0.41596 0.0
C1102 C 0.09268 0.74596 0.36998 0.0
C1103 C 0.07809 0.74804 0.35456 0.0
C1104 C 0.10019 0.7381 0.33741 0.0
C1105 C 0.11438 0.74829 0.4358 0.0
C1106 C 0.11869 0.74717 0.33123 0.0
C1107 C 0.12568 0.73921 0.30241 0.0
C1108 C 0.11424 0.72236 0.27783 0.0
C1109 C 0.09569 0.7136 0.2826 0.0
C1110 C 0.08874 0.72138 0.31197 0.0
H1111 H 0.11442 0.74795 0.47281 0.0
H1112 H 0.11308 0.73547 0.42086 0.0
H1113 H 0.12759 0.75971 0.42891 0.0
H1114 H 0.12781 0.76028 0.34929 0.0
H1115 H 0.1401 0.74598 0.3003 0.0
H1116 H 0.33005 0.42359 0.31914 0.0
H1117 H 0.31671 0.3997 0.36727 0.0
H1118 H 0.2867 0.36126 0.25229 0.0
H1119 H 0.30101 0.38568 0.20216 0.0
H1120 H 0.28526 0.38044 0.38841 0.0
H1121 H 0.30447 0.33245 0.31358 0.0
H1122 H 0.31319 0.35501 0.29654 0.0
H1123 H 0.29089 0.3372 0.27509 0.0
C1124 C 0.32063 0.41013 0.3032 0.0
C1125 C 0.31663 0.40684 0.25597 0.0
C1126 C 0.31291 0.3963 0.33144 0.0
C1127 C 0.30065 0.3784 0.31421 0.0
C1128 C 0.29641 0.37482 0.26695 0.0
H1129 H 0.23321 0.28388 0.447 0.0
H1130 H 0.24709 0.30851 0.39996 0.0
C1131 C 0.30448 0.38885 0.23809 0.0
C1132 C 0.29249 0.3641 0.34681 0.0
H1133 H 0.28574 0.32266 0.373 0.0
C1134 C 0.28556 0.3679 0.38492 0.0
C1135 C 0.29279 0.34761 0.34319 0.0
C1136 C 0.30088 0.34285 0.30517 0.0
C1137 C 0.27896 0.35586 0.41861 0.0
C1138 C 0.27912 0.33939 0.41459 0.0
C1139 C 0.28584 0.33542 0.37654 0.0
C1140 C 0.27055 0.32523 0.44677 0.0
C1141 C 0.27145 0.36056 0.458 0.0
C1142 C 0.27882 0.32647 0.49007 0.0
C1143 C 0.27091 0.31198 0.51762 0.0
C1144 C 0.25449 0.29613 0.50237 0.0
C1145 C 0.24589 0.29572 0.46023 0.0
C1146 C 0.25386 0.30983 0.43282 0.0
H1147 H 0.2713 0.3734 0.4552 0.0
H1148 H 0.25748 0.34944 0.46069 0.0
H1149 H 0.27972 0.36195 0.48947 0.0
H1150 H 0.29172 0.3383 0.5018 0.0
H1151 H 0.27808 0.31277 0.5494 0.0
H1152 H 0.96803 0.40467 0.82049 0.0
H1153 H 0.99729 0.41974 0.86821 0.0
H1154 H 0.97315 0.38172 0.96636 0.0
H1155 H 0.94473 0.3668 0.91992 0.0
H1156 H 1.00599 0.43603 0.96159 0.0
H1157 H 0.01745 0.37783 0.94728 0.0
H1158 H 1.00133 0.37944 0.90915 0.0
H1159 H 0.99558 0.37176 0.96374 0.0
C1160 C 0.96909 0.39946 0.85198 0.0
C1161 C 0.95382 0.3845 0.86611 0.0
C1162 C 0.9858 0.40814 0.87947 0.0
C1163 C 0.98764 0.40179 0.92104 0.0
C1164 C 0.97241 0.38683 0.93448 0.0
H1165 H 0.06486 0.42001 0.14863 0.0
H1166 H 0.03921 0.40924 0.09124 0.0
C1167 C 0.95596 0.37835 0.90763 0.0
C1168 C 1.00508 0.41049 0.95149 0.0
H1169 H 0.03438 0.40043 1.00824 0.0
C1170 C 1.0124 0.42837 0.97124 0.0
C1171 C 1.0134 0.40049 0.9651 0.0
C1172 C 1.00664 0.38137 0.94493 0.0
C1173 C 0.02718 0.43618 1.00506 0.0
C1174 C 0.03545 0.42611 0.019 0.0
C1175 C 0.02828 0.40835 0.99833 0.0
C1176 C 0.05112 0.43332 0.05544 0.0
C1177 C 0.03308 0.45485 0.02701 0.0
C1178 C 0.06673 0.45054 0.05551 0.0
C1179 C 0.08114 0.457 0.08967 0.0
C1180 C 0.08078 0.44613 0.12368 0.0
C1181 C 0.06553 0.42876 0.12304 0.0
C1182 C 0.05085 0.42256 0.08989 0.0
H1183 H 0.02212 0.45816 0.0233 0.0
H1184 H 0.03735 0.45611 0.06334 0.0
H1185 H 0.0446 0.46507 1.01054 0.0
H1186 H 0.06796 0.45897 0.02874 0.0
H1187 H 0.09288 0.47029 0.08861 0.0
H1188 H 0.64049 0.60853 0.81801 0.0
H1189 H 0.62646 0.62039 0.86971 0.0
H1190 H 0.63235 0.59017 0.97329 0.0
H1191 H 0.64557 0.5781 0.92295 0.0
H1192 H 0.59497 0.60123 0.92583 0.0
H1193 H 0.65979 0.64355 0.03167 0.0
H1194 H 0.65864 0.63466 0.97475 0.0
H1195 H 0.65364 0.62023 0.01959 0.0
C1196 C 0.63847 0.60416 0.85147 0.0
C1197 C 0.64447 0.59241 0.8659 0.0
C1198 C 0.63056 0.61107 0.88126 0.0
C1199 C 0.62873 0.6066 0.92618 0.0
C1200 C 0.63391 0.59425 0.93949 0.0
H1201 H 0.59681 0.64197 0.17391 0.0
H1202 H 0.6081 0.62741 0.12128 0.0
C1203 C 0.64149 0.58727 0.91008 0.0
C1204 C 0.62171 0.61467 0.96007 0.0
H1205 H 0.63355 0.64036 0.06172 0.0
C1206 C 0.60348 0.60994 0.95524 0.0
C1207 C 0.63256 0.62569 0.99941 0.0
C1208 C 0.65228 0.63148 1.00672 0.0
C1209 C 0.59585 0.6157 0.98841 0.0
C1210 C 0.60679 0.62706 0.02743 0.0
C1211 C 0.625 0.63166 0.03235 0.0
C1212 C 0.59991 0.63551 0.061 0.0
C1213 C 0.5759 0.60902 0.98165 0.0
C1214 C 0.59191 0.64529 0.04555 0.0
C1215 C 0.58535 0.6533 0.07512 0.0
C1216 C 0.58677 0.65235 0.1221 0.0
C1217 C 0.59521 0.64291 0.13823 0.0
C1218 C 0.60173 0.63461 0.10799 0.0
H1219 H 0.56853 0.59578 0.96078 0.0
H1220 H 0.56996 0.60745 0.01415 0.0
H1221 H 0.5737 0.61889 0.96365 0.0
H1222 H 0.59087 0.64699 1.01017 0.0
H1223 H 0.5793 0.66057 0.06042 0.0
H1224 H 0.46145 0.0863 0.90528 0.0
H1225 H 0.44863 0.06254 0.955 0.0
H1226 H 0.40593 0.02852 0.85158 0.0
H1227 H 0.41889 0.05278 0.80064 0.0
H1228 H 0.41766 0.04866 0.9902 0.0
H1229 H 0.41949 0.99244 0.89412 0.0
H1230 H 0.43126 0.01544 0.87904 0.0
H1231 H 0.40737 1.00137 0.86414 0.0
C1232 C 0.44945 0.07372 0.89229 0.0
C1233 C 0.44135 0.07167 0.84826 0.0
C1234 C 0.44203 0.06003 0.92132 0.0
C1235 C 0.42624 0.04346 0.90776 0.0
C1236 C 0.41828 0.04097 0.86321 0.0
H1237 H 0.36122 0.94755 0.04417 0.0
H1238 H 0.37484 0.97109 0.99433 0.0
C1239 C 0.42574 0.05489 0.83381 0.0
C1240 C 0.41816 0.02952 0.94144 0.0
H1241 H 0.40511 0.98563 0.96099 0.0
C1242 C 0.41495 0.03487 0.98366 0.0
C1243 C 0.41463 1.01145 0.93378 0.0
C1244 C 0.4185 1.00481 0.89054 0.0
C1245 C 0.40805 0.02282 0.01744 0.0
C1246 C 0.40447 1.00471 1.00983 0.0
C1247 C 0.40778 0.9994 0.9676 0.0
C1248 C 0.39613 0.99067 0.04334 0.0
C1249 C 0.40412 0.02955 0.06046 0.0
C1250 C 0.40316 0.99342 0.08898 0.0
C1251 C 0.39507 0.97968 0.11868 0.0
C1252 C 0.37993 0.96268 0.10327 0.0
C1253 C 0.37296 0.96024 0.05784 0.0
C1254 C 0.38083 0.97383 0.02874 0.0
H1255 H 0.40298 0.04181 0.05646 0.0
H1256 H 0.39142 0.01892 0.07218 0.0
H1257 H 0.41533 0.03325 0.08684 0.0
H1258 H 0.41518 1.00602 0.10154 0.0
H1259 H 0.40099 0.98215 0.15305 0.0
H1260 H 0.62201 0.05527 0.84976 0.0
H1261 H 0.60854 0.03219 0.90379 0.0
H1262 H 0.65916 0.05833 0.98705 0.0
H1263 H 0.67223 0.08122 0.93477 0.0
H1264 H 0.61378 1.00682 0.93971 0.0
H1265 H 0.62889 0.05795 0.08098 0.0
H1266 H 0.63178 0.06379 0.02401 0.0
H1267 H 0.64909 0.06222 0.05721 0.0
C1268 C 0.6303 0.05591 0.87925 0.0
C1269 C 0.64828 0.07033 0.88763 0.0
C1270 C 0.62254 0.04275 0.9106 0.0
C1271 C 0.63249 0.04367 0.95119 0.0
C1272 C 0.65071 0.05745 0.95764 0.0
H1273 H 0.6172 0.9809 0.18809 0.0
H1274 H 0.62847 1.00374 0.13329 0.0
C1275 C 0.65832 0.07052 0.92696 0.0
C1276 C 0.62429 0.03048 0.98685 0.0
H1277 H 0.6211 0.02836 0.10069 0.0
C1278 C 0.61525 1.01162 0.97478 0.0
C1279 C 0.62605 0.03636 0.03328 0.0
C1280 C 0.63431 0.05617 0.04957 0.0
C1281 C 0.60863 0.99878 1.00712 0.0
C1282 C 0.61064 1.00469 0.05361 0.0
C1283 C 0.61954 0.02354 0.0656 0.0
C1284 C 0.60341 0.99163 0.08992 0.0
C1285 C 0.60009 0.97893 0.99092 0.0
C1286 C 0.5853 0.97751 0.08607 0.0
C1287 C 0.57885 0.96456 0.11761 0.0
C1288 C 0.59004 0.96539 0.15518 0.0
C1289 C 0.60793 0.98007 0.16068 0.0
C1290 C 0.61447 0.99304 0.12869 0.0
H1291 H 0.60461 0.97697 0.95819 0.0
H1292 H 0.60332 0.97146 0.01558 0.0
H1293 H 0.58523 0.97285 0.98598 0.0
H1294 H 0.5761 0.97616 0.05787 0.0
H1295 H 0.56514 0.95329 0.11147 0.0
H1296 H 0.06764 0.66079 0.20988 0.0
H1297 H 0.04156 0.64725 0.15301 0.0
H1298 H 0.07015 0.63007 0.06794 0.0
H1299 H 0.09502 0.64144 0.12742 0.0
H1300 H 0.03409 0.6529 0.07956 0.0
H1301 H 0.02592 0.58515 0.04261 0.0
H1302 H 0.04124 0.60057 0.08863 0.0
H1303 H 0.04809 0.60213 0.03239 0.0
C1304 C 0.06807 0.65358 0.17954 0.0
C1305 C 0.08328 0.65182 0.17378 0.0
C1306 C 0.05315 0.64596 0.14648 0.0
C1307 C 0.05322 0.63696 0.10555 0.0
C1308 C 0.06886 0.63587 0.09946 0.0
H1309 H 0.97493 0.59676 0.85602 0.0
H1310 H 1.00326 0.60976 0.90697 0.0
C1311 C 0.08335 0.64265 0.1335 0.0
C1312 C 0.03742 0.62959 0.06904 0.0
H1313 H 1.01063 0.59387 0.98932 0.0
C1314 C 0.02906 0.63992 0.06029 0.0
C1315 C 0.03028 0.61252 0.04304 0.0
C1316 C 0.03673 0.5994 0.05252 0.0
C1317 C 1.0143 0.63392 0.02715 0.0
C1318 C 1.00765 0.61723 1.00042 0.0
C1319 C 0.01596 0.60691 1.00862 0.0
C1320 C 0.9908 0.6094 0.96794 0.0
C1321 C 1.00576 0.64552 0.02134 0.0
C1322 C 0.97433 0.60471 0.98469 0.0
C1323 C 0.95838 0.59736 0.95603 0.0
C1324 C 0.958 0.59419 0.90903 0.0
C1325 C 0.97455 0.59899 0.89173 0.0
C1326 C 0.99076 0.60636 0.921 0.0
H1327 H 1.015 0.6598 0.03529 0.0
H1328 H 1.00166 0.64533 0.98538 0.0
H1329 H 0.99349 0.64008 0.03952 0.0
H1330 H 0.97373 0.6066 0.02044 0.0
H1331 H 0.94615 0.59413 0.97134 0.0
H1332 H 0.40627 0.46821 0.13771 0.0
H1333 H 0.41855 0.45717 0.07995 0.0
H1334 H 0.37647 0.40231 0.09148 0.0
H1335 H 0.36344 0.41356 0.14607 0.0
H1336 H 0.43358 0.43899 0.07311 0.0
H1337 H 0.37059 0.397 0.96255 0.0
H1338 H 0.37172 0.41172 1.00943 0.0
H1339 H 0.36794 0.38929 0.01733 0.0
C1340 C 0.39953 0.45379 0.1275 0.0
C1341 C 0.38372 0.44183 0.14652 0.0
C1342 C 0.40661 0.4474 0.09428 0.0
C1343 C 0.39835 0.42875 0.07936 0.0
C1344 C 0.38287 0.41679 0.09983 0.0
H1345 H 0.4269 0.35998 0.91909 0.0
H1346 H 0.4144 0.37368 0.9687 0.0
C1347 C 0.37547 0.42324 0.1319 0.0
C1348 C 0.40615 0.42187 0.04374 0.0
H1349 H 0.39475 0.39154 0.95041 0.0
C1350 C 0.42498 0.4288 0.04603 0.0
C1351 C 0.39531 0.40854 1.00746 0.0
C1352 C 0.37532 0.40138 0.99876 0.0
C1353 C 0.43297 0.42254 0.01481 0.0
C1354 C 0.42201 0.4088 0.97977 0.0
C1355 C 0.40329 0.40199 0.97711 0.0
C1356 C 0.42945 0.40058 0.94711 0.0
C1357 C 0.45311 0.43031 0.02045 0.0
C1358 C 0.44185 0.41083 0.91675 0.0
C1359 C 0.44881 0.4028 0.88729 0.0
C1360 C 0.44363 0.38435 0.88763 0.0
C1361 C 0.43103 0.37415 0.91737 0.0
C1362 C 0.42392 0.38204 0.94613 0.0
H1363 H 0.45934 0.43835 0.05344 0.0
H1364 H 0.45643 0.41931 0.01717 0.0
H1365 H 0.45926 0.43934 0.99366 0.0
H1366 H 0.44627 0.42509 0.916 0.0
H1367 H 0.45875 0.41118 0.86559 0.0
H1368 H 0.07539 0.26404 0.55879 0.0
H1369 H 0.10228 0.261 0.55731 0.0
H1370 H 0.06955 0.20655 0.4931 0.0
H1371 H 0.04252 0.20955 0.49513 0.0
H1372 H 0.10597 0.23237 0.59874 0.0
H1373 H 0.11308 0.23274 0.41521 0.0
H1374 H 0.1006 0.24191 0.44172 0.0
H1375 H 0.09112 0.21782 0.43238 0.0
C1376 C 0.07408 0.25164 0.54323 0.0
C1377 C 0.05711 0.23717 0.52595 0.0
C1378 C 0.08935 0.24984 0.54284 0.0
C1379 C 0.08788 0.23361 0.5248 0.0
C1380 C 0.07095 0.21925 0.50662 0.0
H1381 H 0.17312 0.20533 0.51916 0.0
H1382 H 0.14354 0.20355 0.51084 0.0
C1383 C 0.0556 0.22099 0.50749 0.0
C1384 C 0.10404 0.23163 0.52659 0.0
H1385 H 0.13429 0.22949 0.46137 0.0
C1386 C 0.11213 0.23165 0.56873 0.0
C1387 C 0.11192 0.23057 0.48734 0.0
C1388 C 0.10387 0.23085 0.4415 0.0
C1389 C 0.12811 0.23092 0.57261 0.0
C1390 C 0.13627 0.23043 0.53342 0.0
C1391 C 0.12794 0.22989 0.49125 0.0
C1392 C 0.15402 0.23157 0.5359 0.0
C1393 C 0.13626 0.23076 0.61849 0.0
C1394 C 0.16961 0.24801 0.55151 0.0
C1395 C 0.18641 0.24912 0.5552 0.0
C1396 C 0.18781 0.23377 0.54359 0.0
C1397 C 0.17228 0.21738 0.52739 0.0
C1398 C 0.15547 0.21633 0.52301 0.0
H1399 H 0.12666 0.22784 0.64434 0.0
H1400 H 0.14057 0.22047 0.61777 0.0
H1401 H 0.1484 0.24422 0.62858 0.0
H1402 H 0.16872 0.2599 0.56151 0.0
H1403 H 0.19822 0.26177 0.56881 0.0
H1404 H 0.80505 0.96963 0.56153 0.0
H1405 H 0.80627 0.94208 0.54579 0.0
H1406 H 0.82094 0.95682 0.41298 0.0
H1407 H 0.81951 0.98475 0.42837 0.0
H1408 H 0.78469 0.9147 0.4657 0.0
H1409 H 0.85927 0.94398 0.47925 0.0
H1410 H 0.84901 0.95536 0.50693 0.0
H1411 H 0.8494 0.95474 0.4472 0.0
C1412 C 0.80875 0.96721 0.52902 0.0
C1413 C 0.81234 0.97945 0.49617 0.0
C1414 C 0.80936 0.95139 0.52012 0.0
C1415 C 0.81379 0.94753 0.47842 0.0
C1416 C 0.81758 0.95971 0.44548 0.0
H1417 H 0.81478 0.8459 0.41151 0.0
H1418 H 0.81675 0.87534 0.40226 0.0
C1419 C 0.81671 0.97556 0.45418 0.0
C1420 C 0.81367 0.9303 0.46969 0.0
H1421 H 0.8412 0.91214 0.47045 0.0
C1422 C 0.79701 0.91411 0.46571 0.0
C1423 C 0.82981 0.92968 0.47053 0.0
C1424 C 0.84797 0.94681 0.47637 0.0
C1425 C 0.79608 0.89724 0.46353 0.0
C1426 C 0.81223 0.89662 0.46565 0.0
C1427 C 0.82888 0.91276 0.46823 0.0
C1428 C 0.81201 0.87945 0.47079 0.0
C1429 C 0.77791 0.88016 0.4607 0.0
C1430 C 0.80898 0.87238 0.51244 0.0
C1431 C 0.80811 0.8559 0.51793 0.0
C1432 C 0.8101 0.84606 0.48169 0.0
C1433 C 0.81326 0.85323 0.43994 0.0
C1434 C 0.81438 0.86997 0.43464 0.0
H1435 H 0.76673 0.88268 0.45077 0.0
H1436 H 0.77731 0.86961 0.4362 0.0
H1437 H 0.77579 0.87475 0.49403 0.0
H1438 H 0.80707 0.87954 0.54063 0.0
H1439 H 0.80537 0.85067 0.55044 0.0
H1440 H 0.0768 0.84247 0.57171 0.0
H1441 H 0.10207 0.87191 0.55736 0.0
H1442 H 0.06629 0.88018 0.46717 0.0
H1443 H 0.04096 0.85038 0.48086 0.0
H1444 H 0.11252 0.88209 0.46418 0.0
H1445 H 0.09486 0.92733 0.56235 0.0
H1446 H 0.08671 0.90407 0.57369 0.0
H1447 H 0.07737 0.90892 0.52488 0.0
C1448 C 0.07441 0.8506 0.54875 0.0
C1449 C 0.05717 0.84431 0.52688 0.0
C1450 C 0.08876 0.86735 0.54072 0.0
C1451 C 0.08594 0.87817 0.51148 0.0
C1452 C 0.06863 0.87198 0.49 0.0
H1453 H 0.1656 0.98909 0.46258 0.0
H1454 H 0.13722 0.95981 0.45881 0.0
C1455 C 0.05428 0.85502 0.49747 0.0
C1456 C 0.10139 0.89556 0.5022 0.0
H1457 H 0.12142 0.94134 0.52605 0.0
C1458 C 0.11445 0.89509 0.47729 0.0
C1459 C 0.10368 0.91237 0.51929 0.0
C1460 C 0.09001 0.91337 0.54678 0.0
C1461 C 0.12994 0.91109 0.46914 0.0
C1462 C 0.13267 0.928 0.48761 0.0
C1463 C 0.11932 0.92843 0.51173 0.0
C1464 C 0.1498 0.94521 0.48519 0.0
C1465 C 0.14312 0.90961 0.4406 0.0
C1466 C 0.16625 0.94668 0.50087 0.0
C1467 C 0.18233 0.96309 0.50164 0.0
C1468 C 0.18227 0.97851 0.48794 0.0
C1469 C 0.16593 0.9772 0.47222 0.0
C1470 C 0.14977 0.96058 0.47052 0.0
H1471 H 0.13623 0.89724 0.41647 0.0
H1472 H 0.15014 0.92162 0.42149 0.0
H1473 H 0.15334 0.90853 0.46257 0.0
H1474 H 0.16661 0.93531 0.51412 0.0
H1475 H 0.19476 0.964 0.51525 0.0
H1476 H 0.21417 0.18839 0.64513 0.0
H1477 H 0.21146 0.15831 0.65055 0.0
H1478 H 0.2331 0.16182 0.52302 0.0
H1479 H 0.23551 0.19124 0.5171 0.0
H1480 H 0.19221 0.12516 0.5746 0.0
H1481 H 0.26528 0.15222 0.62075 0.0
H1482 H 0.2544 0.16531 0.63174 0.0
H1483 H 0.25997 0.16259 0.57614 0.0
C1484 C 0.21835 0.18266 0.6185 0.0
C1485 C 0.22493 0.19204 0.58064 0.0
C1486 C 0.21674 0.16553 0.62147 0.0
C1487 C 0.22214 0.15793 0.58718 0.0
C1488 C 0.22887 0.16744 0.5498 0.0
H1489 H 0.22691 0.06869 0.47457 0.0
H1490 H 0.22523 0.09578 0.49608 0.0
C1491 C 0.23017 0.18423 0.54647 0.0
C1492 C 0.22107 0.14012 0.58942 0.0
H1493 H 0.2479 0.12113 0.59092 0.0
C1494 C 0.20429 0.12419 0.57938 0.0
C1495 C 0.2369 0.13895 0.59517 0.0
C1496 C 0.25518 0.15566 0.6069 0.0
C1497 C 0.2031 0.10716 0.57281 0.0
C1498 C 0.21904 0.10614 0.57645 0.0
C1499 C 0.2357 0.12198 0.58832 0.0
C1500 C 0.21896 0.08909 0.56368 0.0
C1501 C 0.18497 0.0904 0.55998 0.0
C1502 C 0.21608 0.07641 0.59477 0.0
C1503 C 0.21732 0.06096 0.58277 0.0
C1504 C 0.22115 0.05791 0.53929 0.0
C1505 C 0.22371 0.07054 0.50816 0.0
C1506 C 0.22278 0.08604 0.52036 0.0
H1507 H 0.17378 0.09342 0.55879 0.0
H1508 H 0.18489 0.08409 0.52653 0.0
H1509 H 0.18252 0.08033 0.58454 0.0
H1510 H 0.21316 0.0786 0.62842 0.0
H1511 H 0.21522 0.0514 0.60729 0.0
H1512 H 0.86193 0.04652 0.53404 0.0
H1513 H 0.8931 0.07231 0.54659 0.0
H1514 H 0.87308 0.10708 0.5925 0.0
H1515 H 0.84232 0.08155 0.58047 0.0
H1516 H 0.90493 0.10267 0.50121 0.0
H1517 H 0.91605 0.12401 0.68304 0.0
H1518 H 0.89817 0.10193 0.65931 0.0
H1519 H 0.89531 0.12142 0.65814 0.0
C1520 C 0.86435 0.05948 0.54891 0.0
C1521 C 0.8498 0.062 0.55733 0.0
C1522 C 0.88212 0.07426 0.55552 0.0
C1523 C 0.88553 0.09165 0.57117 0.0
C1524 C 0.87097 0.0938 0.58168 0.0
H1525 H 0.96555 0.20464 0.59019 0.0
H1526 H 0.9398 0.1743 0.59503 0.0
C1527 C 0.85335 0.07916 0.57483 0.0
C1528 C 0.90377 0.10802 0.57151 0.0
H1529 H 0.93466 0.1467 0.6361 0.0
C1530 C 0.91163 0.11217 0.53088 0.0
C1531 C 0.91244 0.12052 0.61007 0.0
C1532 C 0.90513 0.11666 0.65518 0.0
C1533 C 0.92734 0.12884 0.52711 0.0
C1534 C 0.93577 0.14159 0.56552 0.0
C1535 C 0.92823 0.13709 0.60653 0.0
C1536 C 0.95183 0.15998 0.56368 0.0
C1537 C 0.93404 0.1329 0.48135 0.0
C1538 C 0.96741 0.1622 0.54526 0.0
C1539 C 0.9819 0.17958 0.5413 0.0
C1540 C 0.98145 0.19503 0.55764 0.0
C1541 C 0.96631 0.19289 0.57802 0.0
C1542 C 0.95158 0.17554 0.58062 0.0
H1543 H 0.92332 0.12424 0.45399 0.0
H1544 H 0.93906 0.14732 0.47581 0.0
H1545 H 0.94525 0.13007 0.47865 0.0
H1546 H 0.96835 0.15053 0.5335 0.0
H1547 H 0.99347 0.18095 0.52546 0.0
H1548 H 0.96425 0.77762 0.54141 0.0
H1549 H 0.93637 0.77878 0.54104 0.0
H1550 H 0.96706 0.83532 0.59161 0.0
H1551 H 0.99513 0.83433 0.58922 0.0
H1552 H 0.9189 0.78474 0.59989 0.0
H1553 H 0.93972 0.84009 0.4881 0.0
H1554 H 0.95299 0.8295 0.49937 0.0
H1555 H 0.95415 0.84662 0.53946 0.0
C1556 C 0.96499 0.79021 0.55318 0.0
C1557 C 0.98181 0.80583 0.56593 0.0
C1558 C 0.94903 0.79092 0.5527 0.0
C1559 C 0.94945 0.80726 0.56524 0.0
C1560 C 0.96627 0.82268 0.58026 0.0
H1561 H 0.86065 0.83142 0.55604 0.0
H1562 H 0.88977 0.83283 0.57281 0.0
C1563 C 0.98231 0.82205 0.57979 0.0
C1564 C 0.93224 0.80788 0.56215 0.0
H1565 H 0.91148 0.82955 0.51641 0.0
C1566 C 0.91735 0.79457 0.58157 0.0
C1567 C 0.93002 0.82072 0.53845 0.0
C1568 C 0.945 0.83493 0.5148 0.0
C1569 C 0.90049 0.79367 0.57793 0.0
C1570 C 0.8982 0.80628 0.55363 0.0
C1571 C 0.91315 0.81986 0.53506 0.0
C1572 C 0.88028 0.8052 0.54575 0.0
C1573 C 0.88535 0.77927 0.60074 0.0
C1574 C 0.86515 0.78926 0.52497 0.0
C1575 C 0.84848 0.78835 0.51643 0.0
C1576 C 0.84661 0.80346 0.52767 0.0
C1577 C 0.86168 0.81947 0.54798 0.0
C1578 C 0.87834 0.82031 0.55718 0.0
H1579 H 0.89057 0.77464 0.62884 0.0
H1580 H 0.87667 0.78428 0.61403 0.0
H1581 H 0.87689 0.76732 0.57609 0.0
H1582 H 0.86632 0.77762 0.51426 0.0
H1583 H 0.8372 0.77603 0.49941 0.0
H1584 H 0.83889 0.54293 0.84447 0.0
H1585 H 0.8095 0.54061 0.82985 0.0
H1586 H 0.83094 0.57959 0.73229 0.0
H1587 H 0.86012 0.5811 0.74512 0.0
H1588 H 0.79995 0.56363 0.84578 0.0
H1589 H 0.7848 0.54597 0.6623 0.0
H1590 H 0.80313 0.54541 0.69325 0.0
H1591 H 0.80593 0.56652 0.67611 0.0
C1592 C 0.83722 0.55066 0.81901 0.0
C1593 C 0.85183 0.56198 0.79545 0.0
C1594 C 0.82036 0.54941 0.81081 0.0
C1595 C 0.81762 0.55969 0.77932 0.0
C1596 C 0.83225 0.57096 0.75556 0.0
H1597 H 0.73098 0.58482 0.72543 0.0
H1598 H 0.75834 0.58242 0.72358 0.0
C1599 C 0.84905 0.5719 0.76305 0.0
C1600 C 0.79997 0.55953 0.77426 0.0
H1601 H 0.7668 0.55615 0.69775 0.0
C1602 C 0.79269 0.56181 0.81329 0.0
C1603 C 0.79026 0.55722 0.73202 0.0
C1604 C 0.79634 0.55345 0.68862 0.0
C1605 C 0.77644 0.56217 0.81144 0.0
C1606 C 0.76687 0.5601 0.76923 0.0
C1607 C 0.77409 0.55785 0.73013 0.0
C1608 C 0.74936 0.56016 0.76535 0.0
C1609 C 0.76996 0.56523 0.85503 0.0
C1610 C 0.73474 0.54791 0.78739 0.0
C1611 C 0.71922 0.54936 0.78868 0.0
C1612 C 0.71761 0.56276 0.76693 0.0
C1613 C 0.73163 0.57416 0.74194 0.0
C1614 C 0.74737 0.57289 0.74123 0.0
H1615 H 0.7811 0.57165 0.88262 0.0
H1616 H 0.76384 0.57393 0.85146 0.0
H1617 H 0.75962 0.55196 0.86511 0.0
H1618 H 0.73555 0.53757 0.80505 0.0
H1619 H 0.7087 0.54038 0.80833 0.0
H1620 H 0.47567 0.30443 0.84902 0.0
H1621 H 0.47501 0.27608 0.83006 0.0
H1622 H 0.4745 0.28464 0.68987 0.0
H1623 H 0.47481 0.31339 0.70869 0.0
H1624 H 0.4467 0.24532 0.76781 0.0
H1625 H 0.51646 0.27174 0.71991 0.0
H1626 H 0.51064 0.28527 0.75602 0.0
H1627 H 0.5033 0.28113 0.69719 0.0
C1628 C 0.47562 0.30056 0.81398 0.0
C1629 C 0.47547 0.31153 0.78045 0.0
C1630 C 0.47517 0.28416 0.80323 0.0
C1631 C 0.47486 0.27812 0.75858 0.0
C1632 C 0.4749 0.28901 0.7247 0.0
H1633 H 0.46596 0.17015 0.68264 0.0
H1634 H 0.46737 0.1995 0.67332 0.0
C1635 C 0.47503 0.30545 0.73546 0.0
C1636 C 0.47366 0.26005 0.74845 0.0
H1637 H 0.49866 0.24015 0.72252 0.0
C1638 C 0.45796 0.24421 0.75701 0.0
C1639 C 0.48837 0.25843 0.73488 0.0
C1640 C 0.50575 0.27498 0.72656 0.0
C1641 C 0.45667 0.22704 0.75313 0.0
C1642 C 0.47153 0.22546 0.74086 0.0
C1643 C 0.48713 0.24121 0.7312 0.0
C1644 C 0.4718 0.20809 0.74446 0.0
C1645 C 0.43955 0.21066 0.76359 0.0
C1646 C 0.47401 0.20318 0.78715 0.0
C1647 C 0.47341 0.18673 0.79245 0.0
C1648 C 0.47045 0.17434 0.75521 0.0
C1649 C 0.46834 0.17926 0.71207 0.0
C1650 C 0.46916 0.19607 0.70676 0.0
H1651 H 0.42813 0.2133 0.76366 0.0
H1652 H 0.4358 0.1989 0.73878 0.0
H1653 H 0.44177 0.20689 0.79729 0.0
H1654 H 0.47597 0.21205 0.8168 0.0
H1655 H 0.4749 0.18363 0.82646 0.0
H1656 H 0.71143 0.18743 0.8348 0.0
H1657 H 0.73745 0.21617 0.82158 0.0
H1658 H 0.74986 0.18882 0.71659 0.0
H1659 H 0.72323 0.15992 0.72877 0.0
H1660 H 0.77079 0.22655 0.83479 0.0
H1661 H 0.75867 0.23178 0.65442 0.0
H1662 H 0.7415 0.21509 0.68491 0.0
H1663 H 0.75864 0.21122 0.66394 0.0
C1664 C 0.71941 0.18752 0.80809 0.0
C1665 C 0.715 0.17124 0.78256 0.0
C1666 C 0.73446 0.20407 0.80067 0.0
C1667 C 0.7458 0.20502 0.76768 0.0
C1668 C 0.74123 0.18881 0.74142 0.0
H1669 H 0.85398 0.29278 0.71733 0.0
H1670 H 0.82487 0.26416 0.71293 0.0
C1671 C 0.72594 0.17217 0.74847 0.0
C1672 C 0.76294 0.22268 0.76368 0.0
H1673 H 0.78817 0.25266 0.68988 0.0
C1674 C 0.77443 0.23223 0.80299 0.0
C1675 C 0.76801 0.23036 0.72238 0.0
C1676 C 0.75597 0.22169 0.6791 0.0
C1677 C 0.79066 0.24881 0.80226 0.0
C1678 C 0.7958 0.25644 0.76099 0.0
C1679 C 0.78442 0.2469 0.72154 0.0
C1680 C 0.81275 0.2744 0.75877 0.0
C1681 C 0.80233 0.25781 0.84598 0.0
C1682 C 0.81553 0.29004 0.7842 0.0
C1683 C 0.83211 0.3063 0.78687 0.0
C1684 C 0.84641 0.30763 0.76343 0.0
C1685 C 0.84327 0.29236 0.73544 0.0
C1686 C 0.82662 0.27592 0.73316 0.0
H1687 H 0.79929 0.24801 0.87162 0.0
H1688 H 0.81687 0.2642 0.8411 0.0
H1689 H 0.79969 0.26852 0.85951 0.0
H1690 H 0.80502 0.28956 0.80327 0.0
H1691 H 0.83394 0.31775 0.80864 0.0
H1692 H 0.90944 0.5277 0.77972 0.0
H1693 H 0.90768 0.49834 0.78248 0.0
H1694 H 0.87772 0.48856 0.89826 0.0
H1695 H 0.87932 0.51815 0.8951 0.0
H1696 H 0.92002 0.48513 0.84776 0.0
H1697 H 0.84552 0.44268 0.8136 0.0
H1698 H 0.85765 0.46649 0.8054 0.0
H1699 H 0.85333 0.45947 0.86092 0.0
C1700 C 0.90255 0.51931 0.80593 0.0
C1701 C 0.89449 0.5251 0.83723 0.0
C1702 C 0.90154 0.50253 0.80745 0.0
C1703 C 0.89233 0.49106 0.84011 0.0
C1704 C 0.88461 0.49702 0.87221 0.0
H1705 H 0.87795 0.38236 0.87396 0.0
H1706 H 0.87887 0.41161 0.88837 0.0
C1707 C 0.88569 0.51396 0.87078 0.0
C1708 C 0.89113 0.47304 0.84022 0.0
H1709 H 0.8616 0.42726 0.82616 0.0
C1710 C 0.90723 0.4725 0.84343 0.0
C1711 C 0.87444 0.45651 0.83409 0.0
C1712 C 0.85673 0.4562 0.82788 0.0
C1713 C 0.90712 0.45596 0.84051 0.0
C1714 C 0.89047 0.43946 0.83406 0.0
C1715 C 0.87434 0.43993 0.83166 0.0
C1716 C 0.88967 0.42172 0.82603 0.0
C1717 C 0.92485 0.45626 0.84386 0.0
C1718 C 0.89528 0.41771 0.78622 0.0
C1719 C 0.89454 0.4011 0.77782 0.0
C1720 C 0.88824 0.38809 0.80912 0.0
C1721 C 0.88279 0.39212 0.84929 0.0
C1722 C 0.88329 0.40877 0.85745 0.0
H1723 H 0.93615 0.46958 0.85901 0.0
H1724 H 0.92415 0.44547 0.8642 0.0
H1725 H 0.9279 0.45368 0.80969 0.0
H1726 H 0.90017 0.42743 0.76144 0.0
H1727 H 0.89905 0.39847 0.74677 0.0
H1728 H 0.52305 0.38234 0.78757 0.0
H1729 H 0.55375 0.40831 0.78665 0.0
H1730 H 0.54285 0.43852 0.88754 0.0
H1731 H 0.51233 0.41276 0.88815 0.0
H1732 H 0.56078 0.44258 0.76355 0.0
H1733 H 0.59319 0.4491 0.93421 0.0
H1734 H 0.57348 0.42841 0.90966 0.0
H1735 H 0.57125 0.44682 0.93398 0.0
C1736 C 0.52756 0.39424 0.81098 0.0
C1737 C 0.51557 0.39537 0.83909 0.0
C1738 C 0.545 0.40916 0.81001 0.0
C1739 C 0.55077 0.42533 0.83756 0.0
C1740 C 0.53896 0.4261 0.86684 0.0
H1741 H 0.63581 0.5382 0.86058 0.0
H1742 H 0.61078 0.5081 0.87301 0.0
C1743 C 0.52153 0.41134 0.86737 0.0
C1744 C 0.56831 0.442 0.83295 0.0
H1745 H 0.60716 0.47508 0.89304 0.0
C1746 C 0.57105 0.44955 0.79167 0.0
C1747 C 0.58165 0.45122 0.86971 0.0
C1748 C 0.57987 0.44341 0.9143 0.0
C1749 C 0.58642 0.46633 0.7866 0.0
C1750 C 0.59966 0.4757 0.82366 0.0
C1751 C 0.59704 0.46799 0.86471 0.0
C1752 C 0.61619 0.49357 0.82045 0.0
C1753 C 0.58794 0.47417 0.74202 0.0
C1754 C 0.62812 0.49534 0.78849 0.0
C1755 C 0.64231 0.51245 0.78146 0.0
C1756 C 0.64525 0.5281 0.80708 0.0
C1757 C 0.63418 0.52627 0.84137 0.0
C1758 C 0.61974 0.50911 0.84801 0.0
H1759 H 0.5747 0.46781 0.72141 0.0
H1760 H 0.59341 0.48904 0.74681 0.0
H1761 H 0.59724 0.47165 0.72277 0.0
H1762 H 0.626 0.48357 0.76761 0.0
H1763 H 0.65045 0.51356 0.75425 0.0
H1764 H 0.6505 0.15438 0.77271 0.0
H1765 H 0.62512 0.15967 0.77772 0.0
H1766 H 0.60302 0.11882 0.87059 0.0
H1767 H 0.6288 0.11404 0.86661 0.0
H1768 H 0.59108 0.13489 0.74979 0.0
H1769 H 0.59406 0.15664 0.92881 0.0
H1770 H 0.61302 0.15708 0.90476 0.0
H1771 H 0.59512 0.13623 0.92135 0.0
C1772 C 0.64071 0.14728 0.79608 0.0
C1773 C 0.64194 0.13432 0.82065 0.0
C1774 C 0.62605 0.15009 0.79838 0.0
C1775 C 0.61216 0.13981 0.8249 0.0
C1776 C 0.61377 0.12735 0.85094 0.0
H1777 H 0.50136 0.10681 0.83782 0.0
H1778 H 0.53258 0.11326 0.84696 0.0
C1779 C 0.62859 0.1247 0.84901 0.0
C1780 C 0.59526 0.14079 0.82175 0.0
H1781 H 0.56572 0.1455 0.88482 0.0
C1782 C 0.58569 0.13752 0.77927 0.0
C1783 C 0.58817 0.14422 0.86009 0.0
C1784 C 0.59822 0.14893 0.90626 0.0
C1785 C 0.56896 0.13683 0.77441 0.0
C1786 C 0.56162 0.13965 0.81301 0.0
C1787 C 0.57137 0.14337 0.85526 0.0
C1788 C 0.54316 0.13715 0.81074 0.0
C1789 C 0.55887 0.13234 0.72827 0.0
C1790 C 0.53881 0.14881 0.78865 0.0
C1791 C 0.52096 0.14535 0.78434 0.0
C1792 C 0.50727 0.13012 0.8018 0.0
C1793 C 0.51178 0.11885 0.82496 0.0
C1794 C 0.52956 0.12244 0.82985 0.0
H1795 H 0.56507 0.1278 0.70292 0.0
H1796 H 0.54461 0.12153 0.72896 0.0
H1797 H 0.55889 0.14456 0.71737 0.0
H1798 H 0.54912 0.16029 0.7738 0.0
H1799 H 0.5177 0.15391 0.76518 0.0
H1800 H 0.51645 0.88481 0.14227 0.0
H1801 H 0.48657 0.88199 0.12515 0.0
H1802 H 0.49529 0.91559 0.24707 0.0
H1803 H 0.52473 0.91824 0.2643 0.0
H1804 H 0.45492 0.86952 0.18302 0.0
H1805 H 0.48427 0.94092 0.14368 0.0
H1806 H 0.49698 0.92927 0.14372 0.0
H1807 H 0.4936 0.93806 0.1958 0.0
C1808 C 0.51197 0.89164 0.16517 0.0
C1809 C 0.52303 0.90184 0.20448 0.0
C1810 C 0.49484 0.88992 0.15558 0.0
C1811 C 0.4886 0.89864 0.18468 0.0
C1812 C 0.49971 0.90879 0.22388 0.0
H1813 H 0.40701 0.91926 0.24475 0.0
H1814 H 0.43169 0.91408 0.2346 0.0
C1815 C 0.5166 0.91031 0.23369 0.0
C1816 C 0.47089 0.89791 0.17412 0.0
H1817 H 0.45325 0.92551 0.15678 0.0
C1818 C 0.45451 0.88165 0.17619 0.0
C1819 C 0.47022 0.91371 0.16545 0.0
C1820 C 0.48718 0.93147 0.16162 0.0
C1821 C 0.43771 0.8811 0.17211 0.0
C1822 C 0.43718 0.89712 0.16519 0.0
C1823 C 0.4535 0.91313 0.16138 0.0
C1824 C 0.42063 0.89859 0.17005 0.0
C1825 C 0.42069 0.86371 0.17791 0.0
C1826 C 0.40571 0.89152 0.13694 0.0
C1827 C 0.39112 0.89465 0.14242 0.0
C1828 C 0.39125 0.90478 0.1813 0.0
C1829 C 0.40614 0.91138 0.21418 0.0
C1830 C 0.42048 0.90843 0.2086 0.0
H1831 H 0.42328 0.85243 0.18364 0.0
H1832 H 0.41423 0.86583 0.20682 0.0
H1833 H 0.41099 0.85973 0.14753 0.0
H1834 H 0.40552 0.88391 0.10662 0.0
H1835 H 0.37994 0.8893 0.11645 0.0
H1836 H 0.14968 0.65141 0.11802 0.0
H1837 H 0.1516 0.62391 0.09936 0.0
H1838 H 0.13737 0.6072 0.23098 0.0
H1839 H 0.1358 0.63448 0.25004 0.0
H1840 H 0.17344 0.60894 0.15783 0.0
H1841 H 0.09892 0.56499 0.13019 0.0
H1842 H 0.11021 0.5891 0.12506 0.0
H1843 H 0.10756 0.58091 0.1796 0.0
C1844 C 0.14709 0.64192 0.143 0.0
C1845 C 0.14274 0.64532 0.18564 0.0
C1846 C 0.14824 0.62624 0.13238 0.0
C1847 C 0.14462 0.61345 0.16379 0.0
C1848 C 0.14029 0.61685 0.20623 0.0
H1849 H 0.1357 0.51443 0.22111 0.0
H1850 H 0.13831 0.54378 0.21466 0.0
C1851 C 0.13946 0.63256 0.21708 0.0
C1852 C 0.14449 0.59609 0.15247 0.0
H1853 H 0.11593 0.55013 0.13837 0.0
C1854 C 0.16088 0.59611 0.15247 0.0
C1855 C 0.12812 0.57928 0.14592 0.0
C1856 C 0.11015 0.57844 0.14483 0.0
C1857 C 0.16124 0.57972 0.14793 0.0
C1858 C 0.14484 0.56293 0.14299 0.0
C1859 C 0.12851 0.56298 0.14158 0.0
C1860 C 0.1443 0.54524 0.14561 0.0
C1861 C 0.1791 0.58031 0.15078 0.0
C1862 C 0.14671 0.53602 0.10859 0.0
C1863 C 0.14502 0.5188 0.11191 0.0
C1864 C 0.14121 0.5107 0.15256 0.0
C1865 C 0.13898 0.52021 0.18935 0.0
C1866 C 0.1404 0.53709 0.18582 0.0
H1867 H 0.19071 0.59442 0.15472 0.0
H1868 H 0.18014 0.57318 0.17974 0.0
H1869 H 0.17994 0.57308 0.11997 0.0
H1870 H 0.14962 0.54203 0.07705 0.0
H1871 H 0.14674 0.51188 0.08294 0.0
H1872 H 0.51416 0.64616 0.24361 0.0
H1873 H 0.48389 0.61923 0.2353 0.0
H1874 H 0.4886 0.61103 0.09469 0.0
H1875 H 0.51914 0.63767 0.1035 0.0
H1876 H 0.45184 0.60713 0.18681 0.0
H1877 H 0.47966 0.56346 0.13524 0.0
H1878 H 0.49388 0.58696 0.15628 0.0
H1879 H 0.48408 0.5809 0.0988 0.0
C1880 C 0.50845 0.63896 0.21059 0.0
C1881 C 0.51886 0.64428 0.17393 0.0
C1882 C 0.4912 0.62342 0.20593 0.0
C1883 C 0.48399 0.61269 0.16457 0.0
C1884 C 0.49394 0.6187 0.12725 0.0
H1885 H 0.38803 0.50293 0.09982 0.0
H1886 H 0.41385 0.53328 0.09233 0.0
C1887 C 0.51127 0.63418 0.13203 0.0
C1888 C 0.46657 0.59489 0.16124 0.0
H1889 H 0.44802 0.54916 0.13408 0.0
C1890 C 0.45103 0.59449 0.17506 0.0
C1891 C 0.46535 0.57822 0.14626 0.0
C1892 C 0.48165 0.57731 0.13373 0.0
C1893 C 0.43445 0.57811 0.17392 0.0
C1894 C 0.43328 0.56145 0.15912 0.0
C1895 C 0.44874 0.56186 0.14482 0.0
C1896 C 0.41669 0.5434 0.16191 0.0
C1897 C 0.41831 0.57889 0.18835 0.0
C1898 C 0.40961 0.53885 0.20325 0.0
C1899 C 0.39481 0.52177 0.20735 0.0
C1900 C 0.38672 0.50837 0.17046 0.0
C1901 C 0.39369 0.51289 0.12877 0.0
C1902 C 0.40855 0.53023 0.12459 0.0
H1903 H 0.41959 0.59229 0.18374 0.0
H1904 H 0.40559 0.56815 0.16928 0.0
H1905 H 0.41738 0.57694 0.2246 0.0
H1906 H 0.41586 0.54835 0.23298 0.0
H1907 H 0.39011 0.51895 0.24029 0.0
H1908 H 0.53233 0.71635 0.20848 0.0
H1909 H 0.53249 0.74507 0.22008 0.0
H1910 H 0.5855 0.76981 0.29144 0.0
H1911 H 0.58522 0.74083 0.2806 0.0
H1912 H 0.53879 0.76988 0.30252 0.0
H1913 H 0.58979 0.80049 0.18089 0.0
H1914 H 0.57623 0.77629 0.18304 0.0
H1915 H 0.59498 0.78963 0.22453 0.0
C1916 C 0.54381 0.72773 0.22793 0.0
C1917 C 0.55859 0.72606 0.24451 0.0
C1918 C 0.54393 0.74425 0.23429 0.0
C1919 C 0.55904 0.7598 0.25642 0.0
C1920 C 0.57365 0.75808 0.2742 0.0
H1921 H 0.58746 0.87475 0.29413 0.0
H1922 H 0.58611 0.84546 0.30081 0.0
C1923 C 0.5734 0.74141 0.26854 0.0
C1924 C 0.55983 0.77788 0.25852 0.0
H1925 H 0.58091 0.81953 0.21725 0.0
C1926 C 0.54806 0.78074 0.28401 0.0
C1927 C 0.57169 0.79211 0.2339 0.0
C1928 C 0.58383 0.78957 0.20368 0.0
C1929 C 0.54812 0.79739 0.28614 0.0
C1930 C 0.56016 0.81166 0.26195 0.0
C1931 C 0.57184 0.80877 0.23634 0.0
C1932 C 0.56033 0.82937 0.26128 0.0
C1933 C 0.53546 0.79978 0.31466 0.0
C1934 C 0.54628 0.83025 0.23712 0.0
C1935 C 0.54714 0.84699 0.23286 0.0
C1936 C 0.5619 0.86335 0.25337 0.0
C1937 C 0.57569 0.86242 0.27883 0.0
C1938 C 0.575 0.84567 0.28231 0.0
H1939 H 0.52869 0.78849 0.33609 0.0
H1940 H 0.54292 0.81278 0.33647 0.0
H1941 H 0.52495 0.80037 0.29261 0.0
H1942 H 0.53489 0.81801 0.22018 0.0
H1943 H 0.53639 0.84718 0.21252 0.0
H1944 H 0.31461 0.84595 0.15397 0.0
H1945 H 0.28871 0.81725 0.1691 0.0
H1946 H 0.28046 0.84436 0.28276 0.0
H1947 H 0.30653 0.87331 0.26776 0.0
H1948 H 0.28055 0.79725 0.24703 0.0
H1949 H 0.23102 0.81929 0.20509 0.0
H1950 H 0.25372 0.83097 0.18898 0.0
H1951 H 0.2496 0.83419 0.24581 0.0
C1952 C 0.30749 0.84586 0.18264 0.0
C1953 C 0.31287 0.8621 0.20978 0.0
C1954 C 0.29257 0.82933 0.19121 0.0
C1955 C 0.28233 0.82848 0.2268 0.0
C1956 C 0.28792 0.84457 0.25473 0.0
H1957 H 0.17516 0.73978 0.28295 0.0
H1958 H 0.20479 0.76798 0.29176 0.0
C1959 C 0.303 0.86114 0.24642 0.0
C1960 C 0.26566 0.81088 0.23373 0.0
H1961 H 0.2196 0.79025 0.22987 0.0
C1962 C 0.26723 0.79577 0.24355 0.0
C1963 C 0.24816 0.80872 0.22901 0.0
C1964 C 0.24537 0.82405 0.21628 0.0
C1965 C 0.25198 0.77881 0.24937 0.0
C1966 C 0.23436 0.77654 0.24417 0.0
C1967 C 0.2329 0.79176 0.23457 0.0
C1968 C 0.21723 0.75839 0.24515 0.0
C1969 C 0.25509 0.76364 0.26185 0.0
C1970 C 0.21415 0.74315 0.21721 0.0
C1971 C 0.19735 0.727 0.21276 0.0
C1972 C 0.18281 0.72536 0.23567 0.0
C1973 C 0.18603 0.74026 0.26543 0.0
C1974 C 0.203 0.75654 0.27001 0.0
H1975 H 0.26866 0.76902 0.28016 0.0
H1976 H 0.24478 0.7545 0.28308 0.0
H1977 H 0.25446 0.75559 0.23078 0.0
H1978 H 0.22438 0.74401 0.1965 0.0
H1979 H 0.19538 0.71602 0.18894 0.0
H1980 H 0.29538 0.44041 0.23261 0.0
H1981 H 0.26909 0.44417 0.24009 0.0
H1982 H 0.2978 0.49706 0.1922 0.0
H1983 H 0.32378 0.49294 0.18322 0.0
H1984 H 0.26014 0.46638 0.28315 0.0
H1985 H 0.25503 0.47467 0.10166 0.0
H1986 H 0.27061 0.46848 0.12633 0.0
H1987 H 0.27591 0.49177 0.13151 0.0
C1988 C 0.29635 0.45316 0.22544 0.0
C1989 C 0.31198 0.46662 0.2087 0.0
C1990 C 0.28115 0.45522 0.2291 0.0
C1991 C 0.28102 0.47072 0.21558 0.0
C1992 C 0.29712 0.4847 0.20169 0.0
H1993 H 0.19246 0.49417 0.16774 0.0
H1994 H 0.2223 0.49731 0.18364 0.0
C1995 C 0.31224 0.48255 0.19764 0.0
C1996 C 0.26389 0.47178 0.21415 0.0
H1997 H 0.23427 0.47752 0.14436 0.0
C1998 C 0.25453 0.46881 0.25269 0.0
C1999 C 0.25632 0.47502 0.17462 0.0
C2000 C 0.26487 0.4775 0.13107 0.0
C2001 C 0.23818 0.4691 0.25297 0.0
C2002 C 0.23048 0.47204 0.21329 0.0
C2003 C 0.23997 0.47528 0.17495 0.0
C2004 C 0.21243 0.47127 0.21008 0.0
C2005 C 0.22954 0.46665 0.29629 0.0
C2006 C 0.19663 0.45584 0.22059 0.0
C2007 C 0.17953 0.45427 0.21246 0.0
C2008 C 0.17765 0.46802 0.19343 0.0
C2009 C 0.19344 0.48364 0.18408 0.0
C2010 C 0.21055 0.4853 0.19253 0.0
H2011 H 0.23955 0.47034 0.32587 0.0
H2012 H 0.22301 0.47502 0.29974 0.0
H2013 H 0.21908 0.4522 0.29673 0.0
H2014 H 0.19735 0.44448 0.23268 0.0
H2015 H 0.16763 0.44168 0.218 0.0
H2016 H 0.99213 0.21655 0.20075 0.0
H2017 H 0.99412 0.21603 0.11985 0.0
H2018 H 0.04238 0.26877 0.13923 0.0
H2019 H 0.04085 0.26881 0.22087 0.0
H2020 H 0.99194 0.23652 0.0625 0.0
H2021 H 0.05926 0.24288 0.05969 0.0
H2022 H 0.04782 0.23885 0.10994 0.0
H2023 H 0.05994 0.2614 0.09251 0.0
C2024 C 1.0032 0.22798 0.18762 0.0
C2025 C 0.01635 0.24272 0.21667 0.0
C2026 C 1.00435 0.22768 0.14148 0.0
C2027 C 0.01856 0.24221 0.12338 0.0
C2028 C 0.0316 0.25714 0.15244 0.0
H2029 H 0.04649 0.27067 0.85803 0.0
H2030 H 0.04417 0.26807 0.93826 0.0
C2031 C 0.03066 0.25727 0.19892 0.0
C2032 C 0.01918 0.24178 0.07397 0.0
H2033 H 0.04601 0.24572 0.99091 0.0
C2034 C 1.00373 0.23843 0.04679 0.0
C2035 C 0.03453 0.24415 0.05349 0.0
C2036 C 0.05125 0.24684 0.0804 0.0
C2037 C 1.00334 0.2379 0.99985 0.0
C2038 C 0.01882 0.24063 0.97936 0.0
C2039 C 0.03417 0.24369 1.00656 0.0
C2040 C 0.01994 0.24164 0.9302 0.0
C2041 C 0.98652 0.235 0.97304 0.0
C2042 C 1.00719 0.22756 0.89867 0.0
C2043 C 1.0083 0.22923 0.85252 0.0
C2044 C 0.02252 0.24473 0.83731 0.0
C2045 C 0.03549 0.2585 0.86889 0.0
C2046 C 0.03417 0.25702 0.91474 0.0
H2047 H 0.97796 0.238 0.99418 0.0
H2048 H 0.98989 0.24363 0.94471 0.0
H2049 H 0.97839 0.22059 0.95914 0.0
H2050 H 0.9964 0.2153 0.90967 0.0
H2051 H 0.99822 0.21836 0.82876 0.0
H2052 H 0.83233 0.811 0.19779 0.0
H2053 H 0.83196 0.81122 0.11632 0.0
H2054 H 0.77488 0.79178 0.10489 0.0
H2055 H 0.77474 0.79042 0.18576 0.0
H2056 H 0.80807 0.7775 0.05581 0.0
H2057 H 0.79771 0.83538 0.02366 0.0
H2058 H 0.8074 0.83366 0.0771 0.0
H2059 H 0.78354 0.82013 0.06189 0.0
C2060 C 0.81963 0.80671 0.17818 0.0
C2061 C 0.8035 0.80039 0.19885 0.0
C2062 C 0.81952 0.80703 0.13157 0.0
C2063 C 0.8034 0.80151 0.10474 0.0
C2064 C 0.7875 0.79624 0.12516 0.0
H2065 H 0.76762 0.77788 0.82111 0.0
H2066 H 0.7697 0.77934 0.90302 0.0
C2067 C 0.78751 0.79561 0.17166 0.0
C2068 C 0.80281 0.79966 0.05522 0.0
H2069 H 0.79477 0.81592 0.96027 0.0
C2070 C 0.80531 0.78599 0.03487 0.0
C2071 C 0.7991 0.81069 0.02819 0.0
C2072 C 0.7969 0.8259 0.04862 0.0
C2073 C 0.80388 0.78285 0.98796 0.0
C2074 C 0.80003 0.79378 0.96098 0.0
C2075 C 0.79764 0.80752 0.98127 0.0
C2076 C 0.79868 0.79135 0.91148 0.0
C2077 C 0.80608 0.76766 0.96733 0.0
C2078 C 0.81429 0.79734 0.88931 0.0
C2079 C 0.81324 0.7969 0.84251 0.0
C2080 C 0.79651 0.79036 0.81701 0.0
C2081 C 0.78079 0.78343 0.83953 0.0
C2082 C 0.7819 0.78412 0.88634 0.0
H2083 H 0.80664 0.7589 0.99273 0.0
H2084 H 0.79474 0.75914 0.94119 0.0
H2085 H 0.81874 0.77346 0.95073 0.0
H2086 H 0.82737 0.80302 0.90834 0.0
H2087 H 0.82567 0.80256 0.82666 0.0
H2088 H 0.25152 1.00772 0.17824 0.0
H2089 H 0.25131 1.00946 0.0967 0.0
H2090 H 0.20224 1.01171 0.094 0.0
H2091 H 0.20239 1.01013 0.17515 0.0
H2092 H 0.2189 0.98477 0.0251 0.0
H2093 H 0.24336 0.05892 0.03814 0.0
H2094 H 0.24795 0.04806 0.08308 0.0
H2095 H 0.22584 0.04506 0.07221 0.0
C2096 C 0.24062 1.0084 0.1601 0.0
C2097 C 0.22689 1.00863 0.18286 0.0
C2098 C 0.24052 1.00939 0.11375 0.0
C2099 C 0.22683 1.01083 0.08985 0.0
C2100 C 0.21292 1.01065 0.11219 0.0
H2101 H 0.20283 0.01386 0.805 0.0
H2102 H 0.20172 0.01369 0.8869 0.0
C2103 C 0.21293 1.00955 0.15837 0.0
C2104 C 0.22719 1.01284 0.04149 0.0
H2105 H 0.23578 0.04367 0.96503 0.0
C2106 C 0.22254 0.9976 1.01185 0.0
C2107 C 0.23204 0.02967 0.0248 0.0
C2108 C 0.2377 0.04646 0.05603 0.0
C2109 C 0.22255 0.99876 0.96544 0.0
C2110 C 0.22729 0.01554 0.94866 0.0
C2111 C 0.23194 0.03081 0.97829 0.0
C2112 C 0.22847 0.01752 0.90036 0.0
C2113 C 0.21772 0.98215 0.93442 0.0
C2114 C 0.24395 0.01999 0.88159 0.0
C2115 C 0.24462 0.02011 0.83531 0.0
C2116 C 0.22979 0.01771 0.807 0.0
C2117 C 0.2144 0.01565 0.82608 0.0
C2118 C 0.21379 0.01565 0.87264 0.0
H2119 H 0.21282 0.96977 0.95247 0.0
H2120 H 0.20713 0.97991 0.90758 0.0
H2121 H 0.22977 0.98431 0.91794 0.0
H2122 H 0.25532 0.02131 0.90267 0.0
H2123 H 0.25654 0.02142 0.82153 0.0
H2124 H 0.99221 0.78883 0.86829 0.0
H2125 H 0.99098 0.79108 0.94944 0.0
H2126 H 0.04486 0.79965 0.97063 0.0
H2127 H 0.04687 0.79906 0.89023 0.0
H2128 H 0.99292 0.77245 0.01425 0.0
H2129 H 0.0513 0.84218 0.04727 0.0
H2130 H 0.04138 0.83188 0.99118 0.0
H2131 H 0.05732 0.82706 0.02001 0.0
C2132 C 1.00394 0.7915 0.89012 0.0
C2133 C 0.01973 0.79401 0.87224 0.0
C2134 C 1.00314 0.79261 0.93662 0.0
C2135 C 0.01804 0.79611 0.96627 0.0
C2136 C 0.03342 0.7976 0.94857 0.0
H2137 H 0.03668 0.79341 0.24904 0.0
H2138 H 0.03845 0.79576 0.16884 0.0
C2139 C 0.03437 0.79685 0.90225 0.0
C2140 C 0.01752 0.79812 0.01566 0.0
H2141 H 0.04082 0.82573 0.1115 0.0
C2142 C 1.00329 0.7842 0.03538 0.0
C2143 C 0.03101 0.81353 0.04337 0.0
C2144 C 0.04599 0.82958 0.0243 0.0
C2145 C 1.00248 0.78502 0.08204 0.0
C2146 C 0.01623 0.80013 0.10963 0.0
C2147 C 0.03033 0.81416 0.09009 0.0
C2148 C 0.0165 0.80114 0.1591 0.0
C2149 C 0.98716 0.76953 0.10178 0.0
C2150 C 1.00404 0.80416 0.18044 0.0
C2151 C 1.00325 0.80333 0.22681 0.0
C2152 C 1.0147 0.79911 0.25263 0.0
C2153 C 0.02773 0.79691 0.23098 0.0
C2154 C 0.02869 0.79806 0.18482 0.0
H2155 H 0.97899 0.75768 0.07658 0.0
H2156 H 0.99243 0.76512 0.13027 0.0
H2157 H 0.97818 0.77415 0.115 0.0
H2158 H 0.99467 0.8068 0.16106 0.0
H2159 H 0.99339 0.80565 0.24211 0.0
H2160 H 0.26572 0.2585 0.24372 0.0
H2161 H 0.26533 0.25793 0.16198 0.0
H2162 H 0.20752 0.23387 0.14939 0.0
H2163 H 0.20757 0.2336 0.23068 0.0
H2164 H 0.24346 0.22352 0.10109 0.0
H2165 H 0.22744 0.2778 0.06928 0.0
H2166 H 0.23779 0.27693 0.12267 0.0
H2167 H 0.21416 0.26177 0.10726 0.0
C2168 C 0.2529 0.2531 0.22365 0.0
C2169 C 0.23666 0.24593 0.24395 0.0
C2170 C 0.25274 0.25288 0.17699 0.0
C2171 C 0.2364 0.24584 0.14986 0.0
C2172 C 0.22027 0.23948 0.16991 0.0
H2173 H 0.20612 0.22784 0.8622 0.0
H2174 H 0.20579 0.22668 0.94343 0.0
C2175 C 0.22038 0.23949 0.2165 0.0
C2176 C 0.23604 0.24416 0.10046 0.0
H2177 H 0.22718 0.25996 1.00577 0.0
C2178 C 0.23999 0.23153 0.08014 0.0
C2179 C 0.23137 0.25454 0.07351 0.0
C2180 C 0.22755 0.26864 0.09408 0.0
C2181 C 0.23923 0.2289 0.03323 0.0
C2182 C 0.23462 0.23933 1.00622 0.0
C2183 C 0.23061 0.25191 0.02663 0.0
C2184 C 0.23458 0.23802 0.95673 0.0
C2185 C 0.24304 0.21478 0.01277 0.0
C2186 C 0.25086 0.24456 0.93728 0.0
C2187 C 0.2512 0.24566 0.89091 0.0
C2188 C 0.23521 0.24014 0.86285 0.0
C2189 C 0.21878 0.23267 0.88251 0.0
C2190 C 0.21851 0.23182 0.92899 0.0
H2191 H 0.24302 0.20556 0.03758 0.0
H2192 H 0.23286 0.20656 0.98403 0.0
H2193 H 0.25648 0.22163 0.99988 0.0
H2194 H 0.26344 0.24962 0.95822 0.0
H2195 H 0.26417 0.25173 0.87759 0.0
H2196 H 0.83301 0.02021 0.21699 0.0
H2197 H 0.83302 0.02196 0.13545 0.0
H2198 H 0.77727 1.00811 0.12592 0.0
H2199 H 0.77716 1.00665 0.20686 0.0
H2200 H 0.80554 0.9933 0.05941 0.0
H2201 H 0.80869 0.0601 0.0765 0.0
H2202 H 0.81633 0.05171 0.12194 0.0
H2203 H 0.79264 0.04259 0.10735 0.0
C2204 C 0.82072 0.01733 0.19737 0.0
C2205 C 0.80507 0.01321 0.21825 0.0
C2206 C 0.82074 0.0183 0.15098 0.0
C2207 C 0.80518 0.0153 0.12521 0.0
C2208 C 0.78939 1.01051 0.14559 0.0
H2209 H 0.77414 0.01943 0.84893 0.0
H2210 H 0.77553 0.01728 0.93024 0.0
C2211 C 0.78932 1.0095 0.19174 0.0
C2212 C 0.80551 0.01802 0.07726 0.0
H2213 H 0.8039 0.04612 1.00275 0.0
C2214 C 0.80533 1.00488 0.04689 0.0
C2215 C 0.80515 0.03315 0.06152 0.0
C2216 C 0.80583 0.04781 0.0934 0.0
C2217 C 0.80444 1.00634 1.0006 0.0
C2218 C 0.80392 0.02139 0.98486 0.0
C2219 C 0.80423 0.03459 0.01526 0.0
C2220 C 0.80336 0.02375 0.93673 0.0
C2221 C 0.8037 0.99167 0.96865 0.0
C2222 C 0.81868 0.02849 0.91428 0.0
C2223 C 0.81795 0.02972 0.86817 0.0
C2224 C 0.80187 0.02629 0.84382 0.0
C2225 C 0.78667 0.02207 0.86681 0.0
C2226 C 0.78744 0.02087 0.91308 0.0
H2227 H 0.8015 0.97962 0.98582 0.0
H2228 H 0.79271 0.98734 0.94114 0.0
H2229 H 0.8166 0.99707 0.95323 0.0
H2230 H 0.83109 0.03085 0.93232 0.0
H2231 H 0.82979 0.03266 0.85136 0.0
H2232 H 0.70374 0.57362 0.12182 0.0
H2233 H 0.70153 0.56916 0.2016 0.0
H2234 H 0.65806 0.58086 0.19967 0.0
H2235 H 0.65975 0.58445 0.11892 0.0
H2236 H 0.70674 0.59166 0.27078 0.0
H2237 H 0.63605 0.53512 0.25925 0.0
H2238 H 0.64791 0.54299 0.21025 0.0
H2239 H 0.63804 0.55495 0.23655 0.0
C2240 C 0.69357 0.57499 0.13852 0.0
C2241 C 0.68176 0.57915 0.11468 0.0
C2242 C 0.69236 0.57252 0.18399 0.0
C2243 C 0.67941 0.57433 0.20652 0.0
C2244 C 0.66777 0.57883 0.18272 0.0
H2245 H 0.6522 0.57138 0.47719 0.0
H2246 H 0.65443 0.57214 0.39659 0.0
C2247 C 0.66878 0.58099 0.13683 0.0
C2248 C 0.67856 0.57195 0.25514 0.0
H2249 H 0.6502 0.54866 0.33256 0.0
C2250 C 0.6944 0.58219 0.28434 0.0
C2251 C 0.66249 0.55949 0.27269 0.0
C2252 C 0.64521 0.54739 0.24299 0.0
C2253 C 0.69451 0.5808 0.3308 0.0
C2254 C 0.67833 0.56859 0.34855 0.0
C2255 C 0.66259 0.55808 0.3191 0.0
C2256 C 0.67695 0.56737 0.39764 0.0
C2257 C 0.71186 0.59292 0.36026 0.0
C2258 C 0.68865 0.56409 0.42529 0.0
C2259 C 0.68762 0.56405 0.47181 0.0
C2260 C 0.67445 0.56663 0.4911 0.0
C2261 C 0.66232 0.56912 0.46313 0.0
C2262 C 0.66363 0.5696 0.41704 0.0
H2263 H 0.72139 0.60471 0.3431 0.0
H2264 H 0.70928 0.59808 0.3921 0.0
H2265 H 0.71858 0.58505 0.36848 0.0
H2266 H 0.69867 0.56172 0.41106 0.0
H2267 H 0.6971 0.56204 0.4927 0.0
H2268 H 0.48892 0.14275 0.48222 0.0
H2269 H 0.49049 0.14451 0.40111 0.0
H2270 H 0.43326 0.10702 0.37793 0.0
H2271 H 0.43155 0.10519 0.45832 0.0
H2272 H 0.48289 0.118 0.33658 0.0
H2273 H 0.43774 0.14545 0.30013 0.0
H2274 H 0.44627 0.14545 0.35662 0.0
H2275 H 0.42685 0.12539 0.32882 0.0
C2276 C 0.47664 0.13498 0.45989 0.0
C2277 C 0.46007 0.12394 0.47709 0.0
C2278 C 0.47756 0.13605 0.41351 0.0
C2279 C 0.46193 0.12618 0.38338 0.0
C2280 C 0.44541 0.11523 0.40045 0.0
H2281 H 0.4338 0.09944 0.09681 0.0
H2282 H 0.43486 0.1006 0.17887 0.0
C2283 C 0.44447 0.11419 0.44664 0.0
C2284 C 0.46293 0.12628 0.33402 0.0
H2285 H 0.44356 0.13137 0.23708 0.0
C2286 C 0.47445 0.12113 0.31488 0.0
C2287 C 0.45192 0.13038 0.3056 0.0
C2288 C 0.44015 0.13716 0.32391 0.0
C2289 C 0.47475 0.11933 0.26813 0.0
C2290 C 0.46334 0.1229 0.23985 0.0
C2291 C 0.45211 0.12839 0.2589 0.0
C2292 C 0.46305 0.12135 0.19035 0.0
C2293 C 0.4869 0.11311 0.24933 0.0
C2294 C 0.47854 0.13257 0.16976 0.0
C2295 C 0.47798 0.13193 0.12307 0.0
C2296 C 0.46185 0.12014 0.09604 0.0
C2297 C 0.44639 0.10869 0.11675 0.0
C2298 C 0.44699 0.10933 0.16354 0.0
H2299 H 0.49132 0.10665 0.27441 0.0
H2300 H 0.48001 0.10334 0.21905 0.0
H2301 H 0.49913 0.12501 0.23941 0.0
H2302 H 0.49095 0.14226 0.18981 0.0
H2303 H 0.49 0.14125 0.10822 0.0
H2304 H 0.91546 0.38427 0.12775 0.0
H2305 H 0.91224 0.38401 0.2085 0.0
H2306 H 0.89744 0.32765 0.20066 0.0
H2307 H 0.90029 0.32765 0.12041 0.0
H2308 H 0.87969 0.36046 0.24689 0.0
H2309 H 0.93662 0.35107 0.30776 0.0
H2310 H 0.93544 0.35935 0.25419 0.0
H2311 H 0.92223 0.33557 0.26076 0.0
C2312 C 0.91168 0.37188 0.14336 0.0
C2313 C 0.90828 0.35604 0.11772 0.0
C2314 C 0.90988 0.37177 0.18938 0.0
C2315 C 0.9048 0.35587 0.21043 0.0
C2316 C 0.90174 0.34015 0.18516 0.0
H2317 H 0.87886 0.32302 0.47681 0.0
H2318 H 0.87969 0.32328 0.39555 0.0
C2319 C 0.90348 0.34023 0.13928 0.0
C2320 C 0.90164 0.35528 0.25829 0.0
H2321 H 0.91545 0.34744 0.35946 0.0
C2322 C 0.88758 0.35777 0.27166 0.0
C2323 C 0.91187 0.35156 0.29018 0.0
C2324 C 0.92749 0.34938 0.27773 0.0
C2325 C 0.88335 0.35645 0.31629 0.0
C2326 C 0.89357 0.35272 0.34811 0.0
C2327 C 0.90759 0.35019 0.33472 0.0
C2328 C 0.89056 0.35219 0.39609 0.0
C2329 C 0.86784 0.35871 0.32912 0.0
C2330 C 0.89608 0.36834 0.42299 0.0
C2331 C 0.8961 0.36837 0.46961 0.0
C2332 C 0.89048 0.3522 0.49021 0.0
C2333 C 0.88376 0.33583 0.46251 0.0
C2334 C 0.88404 0.33588 0.41596 0.0
H2335 H 0.85951 0.35867 0.29924 0.0
H2336 H 0.8591 0.34768 0.34942 0.0
H2337 H 0.87318 0.37179 0.35005 0.0
H2338 H 0.90131 0.38108 0.40812 0.0
H2339 H 0.90158 0.38128 0.48945 0.0
H2340 H 0.67472 0.09694 0.13693 0.0
H2341 H 0.67344 0.09681 0.21868 0.0
H2342 H 0.68302 0.15158 0.22679 0.0
H2343 H 0.68349 0.15139 0.1454 0.0
H2344 H 0.69871 0.11793 0.2857 0.0
H2345 H 0.64029 0.12846 0.29646 0.0
H2346 H 0.64608 0.12251 0.24384 0.0
H2347 H 0.65809 0.14559 0.26897 0.0
C2348 C 0.67629 0.1088 0.15634 0.0
C2349 C 0.67885 0.12404 0.13512 0.0
C2350 C 0.67561 0.10876 0.20288 0.0
C2351 C 0.67769 0.12404 0.22878 0.0
C2352 C 0.6807 0.1394 0.20747 0.0
H2353 H 0.68222 0.1476 0.52054 0.0
H2354 H 0.68408 0.15068 0.43927 0.0
C2355 C 0.68105 0.13932 0.16103 0.0
C2356 C 0.67738 0.1242 0.27827 0.0
H2357 H 0.6568 0.13085 0.36555 0.0
C2358 C 0.68948 0.12067 0.3031 0.0
C2359 C 0.66548 0.128 0.30106 0.0
C2360 C 0.65164 0.13119 0.2762 0.0
C2361 C 0.69001 0.12081 0.35001 0.0
C2362 C 0.67794 0.12432 0.37274 0.0
C2363 C 0.66608 0.12822 0.34808 0.0
C2364 C 0.6766 0.12272 0.42164 0.0
C2365 C 0.70363 0.11736 0.37493 0.0
C2366 C 0.67144 0.10597 0.43839 0.0
C2367 C 0.67044 0.10425 0.48432 0.0
C2368 C 0.67433 0.11917 0.51443 0.0
C2369 C 0.67909 0.1359 0.4978 0.0
C2370 C 0.68018 0.13765 0.45158 0.0
H2371 H 0.71489 0.11976 0.35463 0.0
H2372 H 0.7093 0.12614 0.40712 0.0
H2373 H 0.69692 0.103 0.38264 0.0
H2374 H 0.66821 0.09419 0.41584 0.0
H2375 H 0.66669 0.09123 0.49648 0.0
H2376 H 0.88428 0.58238 0.15785 0.0
H2377 H 0.88292 0.57923 0.23819 0.0
H2378 H 0.92683 0.56827 0.24079 0.0
H2379 H 0.92828 0.57146 0.15974 0.0
H2380 H 0.87705 0.54735 0.28065 0.0
H2381 H 0.94144 0.60978 0.34446 0.0
H2382 H 0.93049 0.60671 0.28874 0.0
H2383 H 0.94282 0.59532 0.30086 0.0
C2384 C 0.89384 0.57957 0.17565 0.0
C2385 C 0.90653 0.57737 0.15281 0.0
C2386 C 0.89295 0.57765 0.22142 0.0
C2387 C 0.90485 0.57366 0.24533 0.0
C2388 C 0.91766 0.57154 0.22283 0.0
H2389 H 0.91843 0.55524 0.52029 0.0
H2390 H 0.91756 0.55565 0.43893 0.0
C2391 C 0.91843 0.57328 0.1767 0.0
C2392 C 0.90334 0.57123 0.29361 0.0
H2393 H 0.92512 0.59004 0.39796 0.0
C2394 C 0.88753 0.55666 0.30639 0.0
C2395 C 0.917 0.58353 0.32687 0.0
C2396 C 0.93387 0.59982 0.31482 0.0
C2397 C 0.88514 0.55391 0.35181 0.0
C2398 C 0.89886 0.56612 0.38502 0.0
C2399 C 0.91464 0.58071 0.37223 0.0
C2400 C 0.89748 0.5638 0.4334 0.0
C2401 C 0.86815 0.53786 0.36409 0.0
C2402 C 0.88623 0.56802 0.45708 0.0
C2403 C 0.88668 0.56781 0.50386 0.0
C2404 C 0.89833 0.56329 0.52754 0.0
C2405 C 0.90908 0.55848 0.50319 0.0
C2406 C 0.9087 0.55881 0.45668 0.0
H2407 H 0.85979 0.52847 0.33418 0.0
H2408 H 0.87155 0.53026 0.38796 0.0
H2409 H 0.86 0.54272 0.38106 0.0
H2410 H 0.87756 0.57203 0.43956 0.0
H2411 H 0.87817 0.57149 0.52157 0.0
H2412 H 0.49778 0.3668 0.14867 0.0
H2413 H 0.49709 0.36504 0.22938 0.0
H2414 H 0.44141 0.35162 0.21724 0.0
H2415 H 0.44193 0.35313 0.13586 0.0
H2416 H 0.49076 0.38302 0.29475 0.0
H2417 H 0.43862 0.31007 0.28098 0.0
H2418 H 0.44945 0.32137 0.2333 0.0
H2419 H 0.43132 0.32374 0.25324 0.0
C2420 C 0.48545 0.36376 0.1632 0.0
C2421 C 0.46989 0.3601 0.13596 0.0
C2422 C 0.48506 0.36264 0.20931 0.0
C2423 C 0.46911 0.35781 0.22913 0.0
C2424 C 0.45372 0.35487 0.20237 0.0
H2425 H 0.43911 0.34435 0.49827 0.0
H2426 H 0.44056 0.345 0.41746 0.0
C2427 C 0.45406 0.35584 0.15602 0.0
C2428 C 0.4687 0.35576 0.2778 0.0
H2429 H 0.44729 0.32571 0.35414 0.0
C2430 C 0.4813 0.37047 0.3078 0.0
C2431 C 0.45647 0.3393 0.29456 0.0
C2432 C 0.44332 0.32266 0.26385 0.0
C2433 C 0.4817 0.36938 0.35432 0.0
C2434 C 0.46927 0.35302 0.37119 0.0
C2435 C 0.45679 0.33824 0.34111 0.0
C2436 C 0.4683 0.35128 0.42 0.0
C2437 C 0.49511 0.38594 0.38488 0.0
C2438 C 0.48327 0.35401 0.44819 0.0
C2439 C 0.48248 0.3536 0.49463 0.0
C2440 C 0.46663 0.35022 0.51364 0.0
C2441 C 0.45145 0.34673 0.48491 0.0
C2442 C 0.45228 0.34722 0.43863 0.0
H2443 H 0.5004 0.3985 0.36741 0.0
H2444 H 0.48896 0.38768 0.4149 0.0
H2445 H 0.50671 0.38434 0.39637 0.0
H2446 H 0.49563 0.3567 0.43435 0.0
H2447 H 0.49433 0.35608 0.51568 0.0
H2448 H 0.32856 0.91592 0.48282 0.0
H2449 H 0.3275 0.91226 0.5626 0.0
H2450 H 0.37241 0.90297 0.56324 0.0
H2451 H 0.3733 0.90603 0.48256 0.0
H2452 H 0.3235 0.88444 0.61484 0.0
H2453 H 0.39029 0.94688 0.65694 0.0
H2454 H 0.37811 0.94106 0.60185 0.0
H2455 H 0.39023 0.92989 0.61875 0.0
C2456 C 0.33802 0.91269 0.49929 0.0
C2457 C 0.35115 0.91146 0.47565 0.0
C2458 C 0.33744 0.91073 0.54529 0.0
C2459 C 0.35009 0.90772 0.56919 0.0
C2460 C 0.36276 0.90572 0.5457 0.0
H2461 H 0.36468 0.89859 0.85631 0.0
H2462 H 0.36692 0.89871 0.77544 0.0
C2463 C 0.36328 0.90754 0.49946 0.0
C2464 C 0.35038 0.90749 0.6189 0.0
H2465 H 0.37587 0.93065 0.71743 0.0
C2466 C 0.33498 0.8945 0.63723 0.0
C2467 C 0.36531 0.92071 0.64821 0.0
C2468 C 0.38188 0.93554 0.63062 0.0
C2469 C 0.33416 0.89436 0.68396 0.0
C2470 C 0.34904 0.90765 0.71308 0.0
C2471 C 0.36451 0.92047 0.69492 0.0
C2472 C 0.34854 0.90867 0.76251 0.0
C2473 C 0.31741 0.88003 0.70209 0.0
C2474 C 0.33793 0.91483 0.7822 0.0
C2475 C 0.33696 0.91525 0.82863 0.0
C2476 C 0.34635 0.90922 0.85647 0.0
C2477 C 0.35739 0.90355 0.83647 0.0
C2478 C 0.35856 0.90341 0.79005 0.0
H2479 H 0.30832 0.86901 0.67575 0.0
H2480 H 0.32108 0.87404 0.72994 0.0
H2481 H 0.3099 0.88635 0.7158 0.0
H2482 H 0.33031 0.91923 0.76154 0.0
H2483 H 0.3287 0.92019 0.84256 0.0
H2484 H 0.13365 0.43575 0.85286 0.0
H2485 H 0.13299 0.43644 0.77144 0.0
H2486 H 0.13689 0.48884 0.78456 0.0
H2487 H 0.13755 0.48823 0.8666 0.0
H2488 H 0.10563 0.44033 0.71772 0.0
H2489 H 0.17644 0.49344 0.70015 0.0
H2490 H 0.16997 0.48168 0.7501 0.0
H2491 H 0.16454 0.49898 0.73967 0.0
C2492 C 0.1348 0.44761 0.83852 0.0
C2493 C 0.13585 0.46203 0.86596 0.0
C2494 C 0.13427 0.44791 0.79206 0.0
C2495 C 0.13499 0.46271 0.77226 0.0
C2496 C 0.13648 0.47738 0.79947 0.0
H2497 H 0.12527 0.4815 0.49476 0.0
H2498 H 0.12821 0.48318 0.57686 0.0
C2499 C 0.13682 0.477 0.84611 0.0
C2500 C 0.1332 0.46217 0.72291 0.0
H2501 H 0.15654 0.48075 0.63367 0.0
C2502 C 0.11674 0.44914 0.69925 0.0
C2503 C 0.14774 0.47375 0.69926 0.0
C2504 C 0.16575 0.48771 0.72339 0.0
C2505 C 0.11444 0.44738 0.65224 0.0
C2506 C 0.12907 0.45875 0.62861 0.0
C2507 C 0.14545 0.47195 0.6522 0.0
C2508 C 0.12742 0.45754 0.57924 0.0
C2509 C 0.09635 0.43361 0.62805 0.0
C2510 C 0.1262 0.4426 0.55378 0.0
C2511 C 0.1247 0.4417 0.50688 0.0
C2512 C 0.1242 0.45563 0.48532 0.0
C2513 C 0.12548 0.47055 0.51095 0.0
C2514 C 0.1272 0.47155 0.5576 0.0
H2515 H 0.08565 0.42796 0.65127 0.0
H2516 H 0.09227 0.43983 0.60153 0.0
H2517 H 0.09737 0.42227 0.61146 0.0
H2518 H 0.12646 0.43173 0.57021 0.0
H2519 H 0.12371 0.43011 0.4875 0.0
H2520 H 0.5889 0.71296 0.88658 0.0
H2521 H 0.58807 0.71288 0.80521 0.0
H2522 H 0.55334 0.65477 0.79068 0.0
H2523 H 0.55425 0.65465 0.87248 0.0
H2524 H 0.59766 0.6959 0.74107 0.0
H2525 H 0.52443 0.672 0.71583 0.0
H2526 H 0.5371 0.67972 0.77046 0.0
H2527 H 0.52982 0.65727 0.74524 0.0
C2528 C 0.58138 0.70008 0.86627 0.0
C2529 C 0.57159 0.6838 0.88619 0.0
C2530 C 0.58079 0.7001 0.81967 0.0
C2531 C 0.57033 0.68389 0.79193 0.0
C2532 C 0.56113 0.6675 0.81153 0.0
H2533 H 0.54824 0.65512 0.50652 0.0
H2534 H 0.54891 0.6565 0.58801 0.0
C2535 C 0.56171 0.66745 0.85826 0.0
C2536 C 0.56902 0.68428 0.74253 0.0
H2537 H 0.53927 0.67431 0.65011 0.0
C2538 C 0.58492 0.69125 0.72114 0.0
C2539 C 0.55237 0.67833 0.71676 0.0
C2540 C 0.53497 0.67156 0.7382 0.0
C2541 C 0.58459 0.69198 0.67445 0.0
C2542 C 0.56792 0.68586 0.64854 0.0
C2543 C 0.55203 0.67903 0.67002 0.0
C2544 C 0.56659 0.68556 0.59885 0.0
C2545 C 0.60204 0.69884 0.65322 0.0
C2546 C 0.57589 0.70155 0.57767 0.0
C2547 C 0.57548 0.70084 0.53078 0.0
C2548 C 0.56562 0.68414 0.50417 0.0
C2549 C 0.55579 0.66827 0.52566 0.0
C2550 C 0.55624 0.66899 0.5724 0.0
H2551 H 0.61271 0.69881 0.67604 0.0
H2552 H 0.60006 0.69046 0.62147 0.0
H2553 H 0.60693 0.71299 0.64533 0.0
H2554 H 0.58362 0.71455 0.59742 0.0
H2555 H 0.58295 0.71336 0.5154 0.0
H2556 H 0.3247 0.46685 0.87741 0.0
H2557 H 0.32564 0.46796 0.7961 0.0
H2558 H 0.3723 0.46144 0.80435 0.0
H2559 H 0.37078 0.45897 0.88435 0.0
H2560 H 0.35073 0.48903 0.73911 0.0
H2561 H 0.33724 0.41836 0.71821 0.0
H2562 H 0.33499 0.42834 0.77023 0.0
H2563 H 0.35686 0.43291 0.75621 0.0
C2564 C 0.3351 0.4655 0.86201 0.0
C2565 C 0.34743 0.46246 0.88793 0.0
C2566 C 0.33573 0.46634 0.81547 0.0
C2567 C 0.34873 0.46425 0.79389 0.0
C2568 C 0.36182 0.46257 0.82001 0.0
H2569 H 0.38131 0.4643 0.52968 0.0
H2570 H 0.3778 0.46519 0.60953 0.0
C2571 C 0.36107 0.46146 0.86622 0.0
C2572 C 0.34813 0.46277 0.74402 0.0
H2573 H 0.34628 0.43516 0.65443 0.0
C2574 C 0.34956 0.47718 0.72054 0.0
C2575 C 0.34643 0.44722 0.71964 0.0
C2576 C 0.3436 0.43075 0.74228 0.0
C2577 C 0.35004 0.47668 0.67362 0.0
C2578 C 0.34897 0.4614 0.64972 0.0
C2579 C 0.34715 0.44688 0.67296 0.0
C2580 C 0.35066 0.4606 0.60083 0.0
C2581 C 0.35219 0.49266 0.64982 0.0
C2582 C 0.33639 0.45738 0.56932 0.0
C2583 C 0.33814 0.45638 0.52318 0.0
C2584 C 0.35428 0.45873 0.50768 0.0
C2585 C 0.36851 0.46197 0.53979 0.0
C2586 C 0.36664 0.46271 0.58569 0.0
H2587 H 0.35457 0.50423 0.67363 0.0
H2588 H 0.36364 0.49727 0.62881 0.0
H2589 H 0.33981 0.48847 0.62707 0.0
H2590 H 0.32386 0.45551 0.58043 0.0
H2591 H 0.32677 0.45359 0.49977 0.0
H2592 H 0.56056 0.93097 0.90392 0.0
H2593 H 0.55851 0.93059 0.8217 0.0
H2594 H 0.58717 0.90117 0.81475 0.0
H2595 H 0.58885 0.90104 0.89615 0.0
H2596 H 0.58708 0.94378 0.76358 0.0
H2597 H 0.54071 0.86942 0.72993 0.0
H2598 H 0.54394 0.88167 0.78388 0.0
H2599 H 0.56052 0.87611 0.76758 0.0
C2600 C 0.56637 0.92439 0.88478 0.0
C2601 C 0.57485 0.91603 0.90656 0.0
C2602 C 0.56524 0.92423 0.83792 0.0
C2603 C 0.57239 0.91554 0.81217 0.0
C2604 C 0.58127 0.90764 0.83393 0.0
H2605 H 0.58235 0.90064 0.52792 0.0
H2606 H 0.58217 0.89917 0.60925 0.0
C2607 C 0.58243 0.90782 0.88057 0.0
C2608 C 0.57076 0.91481 0.7625 0.0
H2609 H 0.55314 0.88552 0.66695 0.0
C2610 C 0.57955 0.93108 0.74241 0.0
C2611 C 0.56105 0.89817 0.73507 0.0
C2612 C 0.55087 0.88033 0.75506 0.0
C2613 C 0.57915 0.93116 0.69552 0.0
C2614 C 0.56936 0.91455 0.66795 0.0
C2615 C 0.56059 0.89824 0.68809 0.0
C2616 C 0.56808 0.91401 0.61813 0.0
C2617 C 0.58959 0.94901 0.67584 0.0
C2618 C 0.55973 0.92234 0.59588 0.0
C2619 C 0.56 0.92344 0.54949 0.0
C2620 C 0.56851 0.91607 0.52401 0.0
C2621 C 0.57603 0.90686 0.54628 0.0
C2622 C 0.57581 0.90585 0.59282 0.0
H2623 H 0.59962 0.95988 0.7013 0.0
H2624 H 0.59675 0.94766 0.64758 0.0
H2625 H 0.58009 0.95331 0.66267 0.0
H2626 H 0.55339 0.92844 0.61466 0.0
H2627 H 0.55416 0.93075 0.53405 0.0
H2628 H 0.11375 0.69905 0.54552 0.0
H2629 H 0.11568 0.699 0.62775 0.0
H2630 H 0.15162 0.67749 0.62114 0.0
H2631 H 0.1504 0.67843 0.53969 0.0
H2632 H 0.10585 0.67099 0.67726 0.0
H2633 H 0.17928 0.71842 0.71681 0.0
H2634 H 0.16764 0.71601 0.66252 0.0
H2635 H 0.17437 0.69986 0.67663 0.0
C2636 C 0.12231 0.69469 0.56202 0.0
C2637 C 0.13225 0.68913 0.53686 0.0
C2638 C 0.12335 0.69457 0.60872 0.0
C2639 C 0.13413 0.68863 0.63063 0.0
C2640 C 0.14376 0.68275 0.60519 0.0
H2641 H 0.1466 0.66786 0.90986 0.0
H2642 H 0.14605 0.66714 0.82728 0.0
C2643 C 0.14301 0.68322 0.55875 0.0
C2644 C 0.13475 0.68783 0.67984 0.0
H2645 H 0.16353 0.70158 0.77584 0.0
C2646 C 0.11846 0.67775 0.69881 0.0
C2647 C 0.15123 0.69662 0.7079 0.0
C2648 C 0.16909 0.70848 0.69001 0.0
C2649 C 0.11823 0.67615 0.74508 0.0
C2650 C 0.1347 0.68485 0.77284 0.0
C2651 C 0.15098 0.69477 0.75405 0.0
C2652 C 0.13516 0.68508 0.822 0.0
C2653 C 0.10044 0.66519 0.76414 0.0
C2654 C 0.12956 0.69566 0.84572 0.0
C2655 C 0.13019 0.69634 0.89229 0.0
C2656 C 0.13632 0.68636 0.91573 0.0
C2657 C 0.14195 0.67573 0.89214 0.0
C2658 C 0.14157 0.67527 0.84532 0.0
H2659 H 0.08931 0.65668 0.73751 0.0
H2660 H 0.10142 0.65629 0.7885 0.0
H2661 H 0.09698 0.67452 0.7824 0.0
H2662 H 0.12471 0.70341 0.82813 0.0
H2663 H 0.12557 0.70441 0.91008 0.0
loop_
_geom_bond_atom_site_label_1
_geom_bond_atom_site_label_2
_geom_bond_distance
_geom_bond_site_symmetry_2
_ccdc_geom_bond_type
Tb0 C2 2.809 . S
Tb0 O20 2.484 1_455 S
Tb0 O21 2.440 . S
Tb0 O22 2.658 . S
Tb0 O23 2.409 . S
Tb0 O24 2.372 1_455 S
Tb0 O28 2.325 1_455 S
Tb0 O31 2.341 . S
Tb1 C11 2.809 . S
Tb1 O22 2.325 1_655 S
Tb1 O25 2.341 . S
Tb1 O26 2.484 1_655 S
Tb1 O27 2.440 . S
Tb1 O28 2.658 . S
Tb1 O29 2.409 . S
Tb1 O30 2.378 1_655 S
C2 Tb0 2.809 . S
C2 C3 1.514 . S
C2 O20 1.248 1_455 S
C2 O21 1.266 . S
C3 C2 1.514 . S
C3 C4 1.359 1_455 S
C3 C8 1.348 . S
C4 C3 1.359 1_655 S
C4 C5 1.380 . S
C4 H32 0.929 . S
C5 C4 1.380 . S
C5 C6 1.334 1_655 S
C5 H33 0.931 . S
C6 C5 1.334 1_455 S
C6 C7 1.383 . S
C7 C6 1.383 . S
C7 C8 1.408 . S
C7 H34 0.930 . S
C8 C3 1.348 . S
C8 C7 1.408 . S
C8 H35 0.930 . S
C9 O22 1.281 . S
C9 O23 1.254 . S
C10 O24 1.276 . S
C10 O25 1.266 . S
C11 Tb1 2.809 . S
C11 C12 1.514 1_655 S
C11 O26 1.248 1_655 S
C11 O27 1.266 . S
C12 C11 1.514 1_455 S
C12 C13 1.359 . S
C12 C17 1.348 1_455 S
C13 C12 1.359 . S
C13 C14 1.380 . S
C13 H36 0.929 . S
C14 C13 1.380 . S
C14 C15 1.347 . S
C14 H37 0.931 . S
C15 C14 1.347 . S
C15 C16 1.369 1_455 S
C16 C15 1.369 1_655 S
C16 C17 1.408 . S
C16 H38 0.930 . S
C17 C12 1.348 1_655 S
C17 C16 1.408 . S
C17 H39 0.930 . S
C18 O28 1.281 . S
C18 O29 1.254 . S
C19 O30 1.236 . S
C19 O31 1.266 . S
O20 Tb0 2.484 1_655 S
O20 C2 1.248 1_655 S
O21 Tb0 2.440 . S
O21 C2 1.266 . S
O22 Tb0 2.658 . S
O22 Tb1 2.325 1_455 S
O22 C9 1.281 . S
O23 Tb0 2.409 . S
O23 C9 1.254 . S
O24 Tb0 2.372 1_655 S
O24 C10 1.276 . S
O25 Tb1 2.341 . S
O25 C10 1.266 . S
O26 Tb1 2.484 1_455 S
O26 C11 1.248 1_455 S
O27 Tb1 2.440 . S
O27 C11 1.266 . S
O28 Tb0 2.325 1_655 S
O28 Tb1 2.658 . S
O28 C18 1.281 . S
O29 Tb1 2.409 . S
O29 C18 1.254 . S
O30 Tb1 2.378 1_455 S
O30 C19 1.236 . S
O31 Tb0 2.341 . S
O31 C19 1.266 . S
H32 C4 0.929 . S
H33 C5 0.931 . S
H34 C7 0.930 . S
H35 C8 0.930 . S
H36 C13 0.929 . S
H37 C14 0.931 . S
H38 C16 0.930 . S
H39 C17 0.930 . S
Tb40 C42 2.809 . S
Tb40 O60 2.484 . S
Tb40 O61 2.440 . S
Tb40 O62 2.658 . S
Tb40 O63 2.409 . S
Tb40 O64 2.378 . S
Tb40 O68 2.325 . S
Tb40 O71 2.341 . S
Tb41 C51 2.809 . S
Tb41 O62 2.325 . S
Tb41 O65 2.341 . S
Tb41 O66 2.484 . S
Tb41 O67 2.440 . S
Tb41 O68 2.658 . S
Tb41 O69 2.409 . S
Tb41 O70 2.378 . S
C42 Tb40 2.809 . S
C42 C43 1.514 . S
C42 O60 1.248 . S
C42 O61 1.266 . S
C43 C42 1.514 . S
C43 C44 1.359 . S
C43 C48 1.348 . S
C44 C43 1.359 . S
C44 C45 1.380 . S
C44 H72 0.929 . S
C45 C44 1.380 . S
C45 C46 1.347 . S
C45 H73 0.931 . S
C46 C45 1.347 . S
C46 C47 1.369 . S
C47 C46 1.369 . S
C47 C48 1.408 . S
C47 H74 0.930 . S
C48 C43 1.348 . S
C48 C47 1.408 . S
C48 H75 0.930 . S
C49 O62 1.281 . S
C49 O63 1.254 . S
C50 O64 1.236 . S
C50 O65 1.266 . S
C51 Tb41 2.809 . S
C51 C52 1.514 . S
C51 O66 1.248 . S
C51 O67 1.266 . S
C52 C51 1.514 . S
C52 C53 1.359 . S
C52 C57 1.348 . S
C53 C52 1.359 . S
C53 C54 1.380 . S
C53 H76 0.929 . S
C54 C53 1.380 . S
C54 C55 1.347 . S
C54 H77 0.931 . S
C55 C54 1.347 . S
C55 C56 1.369 . S
C56 C55 1.369 . S
C56 C57 1.408 . S
C56 H78 0.930 . S
C57 C52 1.348 . S
C57 C56 1.408 . S
C57 H79 0.930 . S
C58 O68 1.281 . S
C58 O69 1.254 . S
C59 O70 1.236 . S
C59 O71 1.266 . S
O60 Tb40 2.484 . S
O60 C42 1.248 . S
O61 Tb40 2.440 . S
O61 C42 1.266 . S
O62 Tb40 2.658 . S
O62 Tb41 2.325 . S
O62 C49 1.281 . S
O63 Tb40 2.409 . S
O63 C49 1.254 . S
O64 Tb40 2.378 . S
O64 C50 1.236 . S
O65 Tb41 2.341 . S
O65 C50 1.266 . S
O66 Tb41 2.484 . S
O66 C51 1.248 . S
O67 Tb41 2.440 . S
O67 C51 1.266 . S
O68 Tb40 2.325 . S
O68 Tb41 2.658 . S
O68 C58 1.281 . S
O69 Tb41 2.409 . S
O69 C58 1.254 . S
O70 Tb41 2.378 . S
O70 C59 1.236 . S
O71 Tb40 2.341 . S
O71 C59 1.266 . S
H72 C44 0.929 . S
H73 C45 0.931 . S
H74 C47 0.930 . S
H75 C48 0.930 . S
H76 C53 0.929 . S
H77 C54 0.931 . S
H78 C56 0.930 . S
H79 C57 0.930 . S
Tb80 C82 2.809 1_565 S
Tb80 O100 2.484 1_565 S
Tb80 O101 2.440 . S
Tb80 O102 2.658 . S
Tb80 O103 2.409 . S
Tb80 O104 2.378 1_565 S
Tb80 O108 2.325 1_565 S
Tb80 O111 2.341 . S
Tb81 C91 2.809 . S
Tb81 O102 2.325 1_545 S
Tb81 O105 2.341 . S
Tb81 O106 2.484 1_545 S
Tb81 O107 2.440 . S
Tb81 O108 2.658 . S
Tb81 O109 2.409 . S
Tb81 O110 2.378 1_545 S
C82 Tb80 2.809 1_545 S
C82 C83 1.514 . S
C82 O100 1.248 . S
C82 O101 1.266 1_545 S
C83 C82 1.514 . S
C83 C84 1.359 . S
C83 C88 1.348 1_545 S
C84 C83 1.359 . S
C84 C85 1.380 . S
C84 H112 0.929 . S
C85 C84 1.380 . S
C85 C86 1.347 . S
C85 H113 0.931 . S
C86 C85 1.347 . S
C86 C87 1.369 . S
C87 C86 1.369 . S
C87 C88 1.408 1_545 S
C87 H114 0.930 1_545 S
C88 C83 1.348 1_565 S
C88 C87 1.408 1_565 S
C88 H115 0.930 . S
C89 O102 1.281 . S
C89 O103 1.254 . S
C90 O104 1.236 . S
C90 O105 1.266 . S
C91 Tb81 2.809 . S
C91 C92 1.496 1_545 S
C91 O106 1.248 1_545 S
C91 O107 1.266 . S
C92 C91 1.496 1_565 S
C92 C93 1.400 . S
C92 C97 1.331 1_565 S
C93 C92 1.400 . S
C93 C94 1.380 . S
C93 H116 0.929 . S
C94 C93 1.380 . S
C94 C95 1.347 . S
C94 H117 0.931 . S
C95 C94 1.347 . S
C95 C96 1.369 1_565 S
C96 C95 1.369 1_545 S
C96 C97 1.408 . S
C96 H118 0.930 . S
C97 C92 1.331 1_545 S
C97 C96 1.408 . S
C97 H119 0.930 . S
C98 O108 1.281 . S
C98 O109 1.254 . S
C99 O110 1.236 . S
C99 O111 1.266 . S
O100 Tb80 2.484 1_545 S
O100 C82 1.248 . S
O101 Tb80 2.440 . S
O101 C82 1.266 1_565 S
O102 Tb80 2.658 . S
O102 Tb81 2.325 1_565 S
O102 C89 1.281 . S
O103 Tb80 2.409 . S
O103 C89 1.254 . S
O104 Tb80 2.378 1_545 S
O104 C90 1.236 . S
O105 Tb81 2.341 . S
O105 C90 1.266 . S
O106 Tb81 2.484 1_565 S
O106 C91 1.248 1_565 S
O107 Tb81 2.440 . S
O107 C91 1.266 . S
O108 Tb80 2.325 1_545 S
O108 Tb81 2.658 . S
O108 C98 1.281 . S
O109 Tb81 2.409 . S
O109 C98 1.254 . S
O110 Tb81 2.378 1_565 S
O110 C99 1.236 . S
O111 Tb80 2.341 . S
O111 C99 1.266 . S
H112 C84 0.929 . S
H113 C85 0.931 . S
H114 C87 0.930 1_565 S
H115 C88 0.930 . S
H116 C93 0.929 . S
H117 C94 0.931 . S
H118 C96 0.930 . S
H119 C97 0.930 . S
Tb120 C122 2.809 . S
Tb120 O140 2.484 1_455 S
Tb120 O141 2.440 . S
Tb120 O142 2.658 . S
Tb120 O143 2.409 . S
Tb120 O144 2.378 1_455 S
Tb120 O148 2.325 1_455 S
Tb120 O151 2.341 . S
Tb121 C131 2.809 . S
Tb121 O142 2.325 1_655 S
Tb121 O145 2.341 . S
Tb121 O146 2.484 1_655 S
Tb121 O147 2.440 . S
Tb121 O148 2.658 . S
Tb121 O149 2.409 . S
Tb121 O150 2.378 1_655 S
C122 Tb120 2.809 . S
C122 C123 1.514 . S
C122 O140 1.248 1_455 S
C122 O141 1.266 . S
C123 C122 1.514 . S
C123 C124 1.359 1_455 S
C123 C128 1.348 . S
C124 C123 1.359 1_655 S
C124 C125 1.380 . S
C124 H152 0.929 . S
C125 C124 1.380 . S
C125 C126 1.332 1_655 S
C125 H153 0.931 . S
C126 C125 1.332 1_455 S
C126 C127 1.385 . S
C127 C126 1.385 . S
C127 C128 1.408 . S
C127 H154 0.930 . S
C128 C123 1.348 . S
C128 C127 1.408 . S
C128 H155 0.930 . S
C129 O142 1.281 . S
C129 O143 1.254 . S
C130 O144 1.236 . S
C130 O145 1.266 . S
C131 Tb121 2.809 . S
C131 C132 1.514 1_655 S
C131 O146 1.248 1_655 S
C131 O147 1.266 . S
C132 C131 1.514 1_455 S
C132 C133 1.359 . S
C132 C137 1.348 1_455 S
C133 C132 1.359 . S
C133 C134 1.380 . S
C133 H156 0.929 . S
C134 C133 1.380 . S
C134 C135 1.347 . S
C134 H157 0.931 . S
C135 C134 1.347 . S
C135 C136 1.369 1_455 S
C136 C135 1.369 1_655 S
C136 C137 1.408 . S
C136 H158 0.930 . S
C137 C132 1.348 1_655 S
C137 C136 1.408 . S
C137 H159 0.930 . S
C138 O148 1.281 . S
C138 O149 1.254 . S
C139 O150 1.236 . S
C139 O151 1.266 . S
O140 Tb120 2.484 1_655 S
O140 C122 1.248 1_655 S
O141 Tb120 2.440 . S
O141 C122 1.266 . S
O142 Tb120 2.658 . S
O142 Tb121 2.325 1_455 S
O142 C129 1.281 . S
O143 Tb120 2.409 . S
O143 C129 1.254 . S
O144 Tb120 2.378 1_655 S
O144 C130 1.236 . S
O145 Tb121 2.341 . S
O145 C130 1.266 . S
O146 Tb121 2.484 1_455 S
O146 C131 1.248 1_455 S
O147 Tb121 2.440 . S
O147 C131 1.266 . S
O148 Tb120 2.325 1_655 S
O148 Tb121 2.658 . S
O148 C138 1.281 . S
O149 Tb121 2.409 . S
O149 C138 1.254 . S
O150 Tb121 2.378 1_455 S
O150 C139 1.236 . S
O151 Tb120 2.341 . S
O151 C139 1.266 . S
H152 C124 0.929 . S
H153 C125 0.931 . S
H154 C127 0.930 . S
H155 C128 0.930 . S
H156 C133 0.929 . S
H157 C134 0.931 . S
H158 C136 0.930 . S
H159 C137 0.930 . S
Tb160 C162 2.809 . S
Tb160 O180 2.484 . S
Tb160 O181 2.440 . S
Tb160 O182 2.658 . S
Tb160 O183 2.409 . S
Tb160 O184 2.378 . S
Tb160 O188 2.325 . S
Tb160 O191 2.341 . S
Tb161 C171 2.809 . S
Tb161 O182 2.325 . S
Tb161 O185 2.341 . S
Tb161 O186 2.484 . S
Tb161 O187 2.440 . S
Tb161 O188 2.658 . S
Tb161 O189 2.409 . S
Tb161 O190 2.378 . S
C162 Tb160 2.809 . S
C162 C163 1.514 . S
C162 O180 1.248 . S
C162 O181 1.266 . S
C163 C162 1.514 . S
C163 C164 1.359 . S
C163 C168 1.348 . S
C164 C163 1.359 . S
C164 C165 1.380 . S
C164 H192 0.929 . S
C165 C164 1.380 . S
C165 C166 1.347 . S
C165 H193 0.931 . S
C166 C165 1.347 . S
C166 C167 1.369 . S
C167 C166 1.369 . S
C167 C168 1.408 . S
C167 H194 0.930 . S
C168 C163 1.348 . S
C168 C167 1.408 . S
C168 H195 0.930 . S
C169 O182 1.281 . S
C169 O183 1.254 . S
C170 O184 1.236 . S
C170 O185 1.266 . S
C171 Tb161 2.809 . S
C171 C172 1.514 . S
C171 O186 1.248 . S
C171 O187 1.266 . S
C172 C171 1.514 . S
C172 C173 1.359 . S
C172 C177 1.348 . S
C173 C172 1.359 . S
C173 C174 1.380 . S
C173 H196 0.929 . S
C174 C173 1.380 . S
C174 C175 1.347 . S
C174 H197 0.931 . S
C175 C174 1.347 . S
C175 C176 1.369 . S
C176 C175 1.369 . S
C176 C177 1.408 . S
C176 H198 0.930 . S
C177 C172 1.348 . S
C177 C176 1.408 . S
C177 H199 0.930 . S
C178 O188 1.281 . S
C178 O189 1.254 . S
C179 O190 1.236 . S
C179 O191 1.266 . S
O180 Tb160 2.484 . S
O180 C162 1.248 . S
O181 Tb160 2.440 . S
O181 C162 1.266 . S
O182 Tb160 2.658 . S
O182 Tb161 2.325 . S
O182 C169 1.281 . S
O183 Tb160 2.409 . S
O183 C169 1.254 . S
O184 Tb160 2.378 . S
O184 C170 1.236 . S
O185 Tb161 2.341 . S
O185 C170 1.266 . S
O186 Tb161 2.484 . S
O186 C171 1.248 . S
O187 Tb161 2.440 . S
O187 C171 1.266 . S
O188 Tb160 2.325 . S
O188 Tb161 2.658 . S
O188 C178 1.281 . S
O189 Tb161 2.409 . S
O189 C178 1.254 . S
O190 Tb161 2.378 . S
O190 C179 1.236 . S
O191 Tb160 2.341 . S
O191 C179 1.266 . S
H192 C164 0.929 . S
H193 C165 0.931 . S
H194 C167 0.930 . S
H195 C168 0.930 . S
H196 C173 0.929 . S
H197 C174 0.931 . S
H198 C176 0.930 . S
H199 C177 0.930 . S
Tb200 C202 2.809 1_565 S
Tb200 O220 2.484 1_565 S
Tb200 O221 2.440 . S
Tb200 O222 2.658 . S
Tb200 O223 2.409 . S
Tb200 O224 2.378 1_565 S
Tb200 O228 2.325 1_565 S
Tb200 O231 2.341 . S
Tb201 C211 2.809 . S
Tb201 O222 2.325 1_545 S
Tb201 O225 2.341 . S
Tb201 O226 2.484 1_545 S
Tb201 O227 2.440 . S
Tb201 O228 2.658 . S
Tb201 O229 2.409 . S
Tb201 O230 2.377 . S
C202 Tb200 2.809 1_545 S
C202 C203 1.514 . S
C202 O220 1.248 . S
C202 O221 1.266 1_545 S
C203 C202 1.514 . S
C203 C204 1.359 . S
C203 C208 1.364 . S
C204 C203 1.359 . S
C204 C205 1.380 . S
C204 H232 0.929 . S
C205 C204 1.380 . S
C205 C206 1.347 . S
C205 H233 0.931 . S
C206 C205 1.347 . S
C206 C207 1.369 . S
C207 C206 1.369 . S
C207 C208 1.423 . S
C207 H234 0.930 1_545 S
C208 C203 1.364 . S
C208 C207 1.423 . S
C208 H235 0.904 1_545 S
C209 O222 1.281 . S
C209 O223 1.254 . S
C210 O224 1.236 . S
C210 O225 1.266 . S
C211 Tb201 2.809 . S
C211 C212 1.514 . S
C211 O226 1.248 1_545 S
C211 O227 1.266 . S
C212 C211 1.514 . S
C212 C213 1.359 1_545 S
C212 C217 1.348 . S
C213 C212 1.359 1_565 S
C213 C214 1.380 . S
C213 H236 0.929 . S
C214 C213 1.380 . S
C214 C215 1.347 . S
C214 H237 0.931 . S
C215 C214 1.347 . S
C215 C216 1.369 1_565 S
C216 C215 1.369 1_545 S
C216 C217 1.408 . S
C216 H238 0.930 . S
C217 C212 1.348 . S
C217 C216 1.408 . S
C217 H239 0.930 . S
C218 O228 1.281 . S
C218 O229 1.254 . S
C219 O230 1.237 1_565 S
C219 O231 1.266 . S
O220 Tb200 2.484 1_545 S
O220 C202 1.248 . S
O221 Tb200 2.440 . S
O221 C202 1.266 1_565 S
O222 Tb200 2.658 . S
O222 Tb201 2.325 1_565 S
O222 C209 1.281 . S
O223 Tb200 2.409 . S
O223 C209 1.254 . S
O224 Tb200 2.378 1_545 S
O224 C210 1.236 . S
O225 Tb201 2.341 . S
O225 C210 1.266 . S
O226 Tb201 2.484 1_565 S
O226 C211 1.248 1_565 S
O227 Tb201 2.440 . S
O227 C211 1.266 . S
O228 Tb200 2.325 1_545 S
O228 Tb201 2.658 . S
O228 C218 1.281 . S
O229 Tb201 2.409 . S
O229 C218 1.254 . S
O230 Tb201 2.377 . S
O230 C219 1.237 1_545 S
O231 Tb200 2.341 . S
O231 C219 1.266 . S
H232 C204 0.929 . S
H233 C205 0.931 . S
H234 C207 0.930 1_565 S
H235 C208 0.904 1_565 S
H236 C213 0.929 . S
H237 C214 0.931 . S
H238 C216 0.930 . S
H239 C217 0.930 . S
Tb240 C242 2.809 . S
Tb240 O260 2.484 . S
Tb240 O261 2.440 . S
Tb240 O262 2.658 . S
Tb240 O263 2.409 . S
Tb240 O264 2.378 . S
Tb240 O268 2.325 . S
Tb240 O271 2.341 . S
Tb241 C251 2.809 . S
Tb241 O262 2.325 . S
Tb241 O265 2.341 . S
Tb241 O266 2.484 . S
Tb241 O267 2.440 . S
Tb241 O268 2.658 . S
Tb241 O269 2.409 . S
Tb241 O270 2.378 . S
C242 Tb240 2.809 . S
C242 C243 1.514 . S
C242 O260 1.248 . S
C242 O261 1.266 . S
C243 C242 1.514 . S
C243 C244 1.359 . S
C243 C248 1.348 . S
C244 C243 1.359 . S
C244 C245 1.380 . S
C244 H272 0.929 . S
C245 C244 1.380 . S
C245 C246 1.347 . S
C245 H273 0.931 . S
C246 C245 1.347 . S
C246 C247 1.369 . S
C247 C246 1.369 . S
C247 C248 1.408 . S
C247 H274 0.930 . S
C248 C243 1.348 . S
C248 C247 1.408 . S
C248 H275 0.930 . S
C249 O262 1.281 . S
C249 O263 1.254 . S
C250 O264 1.236 . S
C250 O265 1.266 . S
C251 Tb241 2.809 . S
C251 C252 1.514 . S
C251 O266 1.248 . S
C251 O267 1.266 . S
C252 C251 1.514 . S
C252 C253 1.359 . S
C252 C257 1.348 . S
C253 C252 1.359 . S
C253 C254 1.380 1_556 S
C253 H276 0.929 . S
C254 C253 1.380 1_554 S
C254 C255 1.347 . S
C254 H277 0.931 . S
C255 C254 1.347 . S
C255 C256 1.369 . S
C256 C255 1.369 . S
C256 C257 1.408 1_554 S
C256 H278 0.930 . S
C257 C252 1.348 . S
C257 C256 1.408 1_556 S
C257 H279 0.930 . S
C258 O268 1.281 . S
C258 O269 1.254 . S
C259 O270 1.236 . S
C259 O271 1.266 . S
O260 Tb240 2.484 . S
O260 C242 1.248 . S
O261 Tb240 2.440 . S
O261 C242 1.266 . S
O262 Tb240 2.658 . S
O262 Tb241 2.325 . S
O262 C249 1.281 . S
O263 Tb240 2.409 . S
O263 C249 1.254 . S
O264 Tb240 2.378 . S
O264 C250 1.236 . S
O265 Tb241 2.341 . S
O265 C250 1.266 . S
O266 Tb241 2.484 . S
O266 C251 1.248 . S
O267 Tb241 2.440 . S
O267 C251 1.266 . S
O268 Tb240 2.325 . S
O268 Tb241 2.658 . S
O268 C258 1.281 . S
O269 Tb241 2.409 . S
O269 C258 1.254 . S
O270 Tb241 2.378 . S
O270 C259 1.236 . S
O271 Tb240 2.341 . S
O271 C259 1.266 . S
H272 C244 0.929 . S
H273 C245 0.931 . S
H274 C247 0.930 . S
H275 C248 0.930 . S
H276 C253 0.929 . S
H277 C254 0.931 . S
H278 C256 0.930 . S
H279 C257 0.930 . S
Tb280 C282 2.809 . S
Tb280 O300 2.484 . S
Tb280 O301 2.440 . S
Tb280 O302 2.658 . S
Tb280 O303 2.409 . S
Tb280 O304 2.378 . S
Tb280 O308 2.325 . S
Tb280 O311 2.341 . S
Tb281 C291 2.809 . S
Tb281 O302 2.325 . S
Tb281 O305 2.341 . S
Tb281 O306 2.484 . S
Tb281 O307 2.440 . S
Tb281 O308 2.658 . S
Tb281 O309 2.409 . S
Tb281 O310 2.378 . S
C282 Tb280 2.809 . S
C282 C283 1.514 . S
C282 O300 1.248 . S
C282 O301 1.266 . S
C283 C282 1.514 . S
C283 C284 1.359 . S
C283 C288 1.348 . S
C284 C283 1.359 . S
C284 C285 1.380 . S
C284 H312 0.929 . S
C285 C284 1.380 . S
C285 C286 1.347 . S
C285 H313 0.931 . S
C286 C285 1.347 . S
C286 C287 1.369 . S
C287 C286 1.369 . S
C287 C288 1.408 . S
C287 H314 0.930 . S
C288 C283 1.348 . S
C288 C287 1.408 . S
C288 H315 0.930 . S
C289 O302 1.281 . S
C289 O303 1.254 . S
C290 O304 1.236 . S
C290 O305 1.266 . S
C291 Tb281 2.809 . S
C291 C292 1.514 . S
C291 O306 1.248 . S
C291 O307 1.266 . S
C292 C291 1.514 . S
C292 C293 1.359 . S
C292 C297 1.348 . S
C293 C292 1.359 . S
C293 C294 1.380 1_556 S
C293 H316 0.929 . S
C294 C293 1.380 1_554 S
C294 C295 1.347 . S
C294 H317 0.931 . S
C295 C294 1.347 . S
C295 C296 1.369 . S
C296 C295 1.369 . S
C296 C297 1.408 1_554 S
C296 H318 0.930 . S
C297 C292 1.348 . S
C297 C296 1.408 1_556 S
C297 H319 0.930 . S
C298 O308 1.281 . S
C298 O309 1.254 . S
C299 O310 1.236 . S
C299 O311 1.266 . S
O300 Tb280 2.484 . S
O300 C282 1.248 . S
O301 Tb280 2.440 . S
O301 C282 1.266 . S
O302 Tb280 2.658 . S
O302 Tb281 2.325 . S
O302 C289 1.281 . S
O303 Tb280 2.409 . S
O303 C289 1.254 . S
O304 Tb280 2.378 . S
O304 C290 1.236 . S
O305 Tb281 2.341 . S
O305 C290 1.266 . S
O306 Tb281 2.484 . S
O306 C291 1.248 . S
O307 Tb281 2.440 . S
O307 C291 1.266 . S
O308 Tb280 2.325 . S
O308 Tb281 2.658 . S
O308 C298 1.281 . S
O309 Tb281 2.409 . S
O309 C298 1.254 . S
O310 Tb281 2.378 . S
O310 C299 1.236 . S
O311 Tb280 2.341 . S
O311 C299 1.266 . S
H312 C284 0.929 . S
H313 C285 0.931 . S
H314 C287 0.930 . S
H315 C288 0.930 . S
H316 C293 0.929 . S
H317 C294 0.931 . S
H318 C296 0.930 . S
H319 C297 0.930 . S
Tb320 C322 2.809 . S
Tb320 O340 2.484 . S
Tb320 O341 2.440 . S
Tb320 O342 2.658 . S
Tb320 O343 2.409 . S
Tb320 O344 2.378 . S
Tb320 O348 2.325 . S
Tb320 O351 2.341 . S
Tb321 C331 2.809 . S
Tb321 O342 2.325 . S
Tb321 O345 2.341 . S
Tb321 O346 2.484 . S
Tb321 O347 2.440 . S
Tb321 O348 2.658 . S
Tb321 O349 2.409 . S
Tb321 O350 2.378 . S
C322 Tb320 2.809 . S
C322 C323 1.514 . S
C322 O340 1.248 . S
C322 O341 1.266 . S
C323 C322 1.514 . S
C323 C324 1.359 . S
C323 C328 1.348 . S
C324 C323 1.359 . S
C324 C325 1.380 . S
C324 H352 0.929 . S
C325 C324 1.380 . S
C325 C326 1.347 . S
C325 H353 0.931 . S
C326 C325 1.347 . S
C326 C327 1.369 . S
C327 C326 1.369 . S
C327 C328 1.408 . S
C327 H354 0.930 . S
C328 C323 1.348 . S
C328 C327 1.408 . S
C328 H355 0.930 . S
C329 O342 1.281 . S
C329 O343 1.254 . S
C330 O344 1.236 . S
C330 O345 1.266 . S
C331 Tb321 2.809 . S
C331 C332 1.514 . S
C331 O346 1.248 . S
C331 O347 1.266 . S
C332 C331 1.514 . S
C332 C333 1.359 . S
C332 C337 1.348 . S
C333 C332 1.359 . S
C333 C334 1.380 1_556 S
C333 H356 0.929 . S
C334 C333 1.380 1_554 S
C334 C335 1.347 . S
C334 H357 0.931 . S
C335 C334 1.347 . S
C335 C336 1.369 . S
C336 C335 1.369 . S
C336 C337 1.408 1_554 S
C336 H358 0.930 . S
C337 C332 1.348 . S
C337 C336 1.408 1_556 S
C337 H359 0.930 . S
C338 O348 1.281 . S
C338 O349 1.254 . S
C339 O350 1.236 . S
C339 O351 1.266 . S
O340 Tb320 2.484 . S
O340 C322 1.248 . S
O341 Tb320 2.440 . S
O341 C322 1.266 . S
O342 Tb320 2.658 . S
O342 Tb321 2.325 . S
O342 C329 1.281 . S
O343 Tb320 2.409 . S
O343 C329 1.254 . S
O344 Tb320 2.378 . S
O344 C330 1.236 . S
O345 Tb321 2.341 . S
O345 C330 1.266 . S
O346 Tb321 2.484 . S
O346 C331 1.248 . S
O347 Tb321 2.440 . S
O347 C331 1.266 . S
O348 Tb320 2.325 . S
O348 Tb321 2.658 . S
O348 C338 1.281 . S
O349 Tb321 2.409 . S
O349 C338 1.254 . S
O350 Tb321 2.378 . S
O350 C339 1.236 . S
O351 Tb320 2.341 . S
O351 C339 1.266 . S
H352 C324 0.929 . S
H353 C325 0.931 . S
H354 C327 0.930 . S
H355 C328 0.930 . S
H356 C333 0.929 . S
H357 C334 0.931 . S
H358 C336 0.930 . S
H359 C337 0.930 . S
Tb360 C362 2.809 . S
Tb360 O380 2.484 . S
Tb360 O381 2.440 . S
Tb360 O382 2.658 . S
Tb360 O383 2.409 . S
Tb360 O384 2.378 . S
Tb360 O388 2.325 . S
Tb360 O391 2.341 . S
Tb361 C371 2.809 . S
Tb361 O382 2.325 . S
Tb361 O385 2.341 . S
Tb361 O386 2.484 . S
Tb361 O387 2.440 . S
Tb361 O388 2.658 . S
Tb361 O389 2.409 . S
Tb361 O390 2.378 . S
C362 Tb360 2.809 . S
C362 C363 1.514 . S
C362 O380 1.248 . S
C362 O381 1.266 . S
C363 C362 1.514 . S
C363 C364 1.359 1_556 S
C363 C368 1.348 1_556 S
C364 C363 1.359 1_554 S
C364 C365 1.380 . S
C364 H392 0.929 1_554 S
C365 C364 1.380 . S
C365 C366 1.347 . S
C365 H393 0.931 . S
C366 C365 1.347 . S
C366 C367 1.369 . S
C367 C366 1.369 . S
C367 C368 1.408 . S
C367 H394 0.930 . S
C368 C363 1.348 1_554 S
C368 C367 1.408 . S
C368 H395 0.930 1_554 S
C369 O382 1.281 . S
C369 O383 1.254 . S
C370 O384 1.236 . S
C370 O385 1.266 . S
C371 Tb361 2.809 . S
C371 C372 1.514 . S
C371 O386 1.248 . S
C371 O387 1.266 . S
C372 C371 1.514 . S
C372 C373 1.359 . S
C372 C377 1.348 . S
C373 C372 1.359 . S
C373 C374 1.380 . S
C373 H396 0.929 . S
C374 C373 1.380 . S
C374 C375 1.347 . S
C374 H397 0.931 . S
C375 C374 1.347 . S
C375 C376 1.369 . S
C376 C375 1.369 . S
C376 C377 1.408 . S
C376 H398 0.930 . S
C377 C372 1.348 . S
C377 C376 1.408 . S
C377 H399 0.930 . S
C378 O388 1.281 . S
C378 O389 1.254 . S
C379 O390 1.236 . S
C379 O391 1.266 . S
O380 Tb360 2.484 . S
O380 C362 1.248 . S
O381 Tb360 2.440 . S
O381 C362 1.266 . S
O382 Tb360 2.658 . S
O382 Tb361 2.325 . S
O382 C369 1.281 . S
O383 Tb360 2.409 . S
O383 C369 1.254 . S
O384 Tb360 2.378 . S
O384 C370 1.236 . S
O385 Tb361 2.341 . S
O385 C370 1.266 . S
O386 Tb361 2.484 . S
O386 C371 1.248 . S
O387 Tb361 2.440 . S
O387 C371 1.266 . S
O388 Tb360 2.325 . S
O388 Tb361 2.658 . S
O388 C378 1.281 . S
O389 Tb361 2.409 . S
O389 C378 1.254 . S
O390 Tb361 2.378 . S
O390 C379 1.236 . S
O391 Tb360 2.341 . S
O391 C379 1.266 . S
H392 C364 0.929 1_556 S
H393 C365 0.931 . S
H394 C367 0.930 . S
H395 C368 0.930 1_556 S
H396 C373 0.929 . S
H397 C374 0.931 . S
H398 C376 0.930 . S
H399 C377 0.930 . S
Tb400 C402 2.809 . S
Tb400 O420 2.484 . S
Tb400 O421 2.440 . S
Tb400 O422 2.658 . S
Tb400 O423 2.409 . S
Tb400 O424 2.378 . S
Tb400 O428 2.325 . S
Tb400 O431 2.341 . S
Tb401 C411 2.809 . S
Tb401 O422 2.325 . S
Tb401 O425 2.341 . S
Tb401 O426 2.484 . S
Tb401 O427 2.440 . S
Tb401 O428 2.658 . S
Tb401 O429 2.409 . S
Tb401 O430 2.378 . S
C402 Tb400 2.809 . S
C402 C403 1.514 1_556 S
C402 O420 1.248 . S
C402 O421 1.266 . S
C403 C402 1.514 1_554 S
C403 C404 1.359 . S
C403 C408 1.348 . S
C404 C403 1.359 . S
C404 C405 1.380 . S
C404 H432 0.929 . S
C405 C404 1.380 . S
C405 C406 1.347 . S
C405 H433 0.931 . S
C406 C405 1.347 . S
C406 C407 1.369 . S
C407 C406 1.369 . S
C407 C408 1.408 . S
C407 H434 0.930 . S
C408 C403 1.348 . S
C408 C407 1.408 . S
C408 H435 0.930 . S
C409 O422 1.281 . S
C409 O423 1.254 . S
C410 O424 1.236 . S
C410 O425 1.266 . S
C411 Tb401 2.809 . S
C411 C412 1.514 . S
C411 O426 1.248 . S
C411 O427 1.266 . S
C412 C411 1.514 . S
C412 C413 1.359 . S
C412 C417 1.348 . S
C413 C412 1.359 . S
C413 C414 1.380 . S
C413 H436 0.929 . S
C414 C413 1.380 . S
C414 C415 1.347 . S
C414 H437 0.931 . S
C415 C414 1.347 . S
C415 C416 1.369 . S
C416 C415 1.369 . S
C416 C417 1.408 . S
C416 H438 0.930 . S
C417 C412 1.348 . S
C417 C416 1.408 . S
C417 H439 0.930 . S
C418 O428 1.281 . S
C418 O429 1.254 . S
C419 O430 1.236 . S
C419 O431 1.266 . S
O420 Tb400 2.484 . S
O420 C402 1.248 . S
O421 Tb400 2.440 . S
O421 C402 1.266 . S
O422 Tb400 2.658 . S
O422 Tb401 2.325 . S
O422 C409 1.281 . S
O423 Tb400 2.409 . S
O423 C409 1.254 . S
O424 Tb400 2.378 . S
O424 C410 1.236 . S
O425 Tb401 2.341 . S
O425 C410 1.266 . S
O426 Tb401 2.484 . S
O426 C411 1.248 . S
O427 Tb401 2.440 . S
O427 C411 1.266 . S
O428 Tb400 2.325 . S
O428 Tb401 2.658 . S
O428 C418 1.281 . S
O429 Tb401 2.409 . S
O429 C418 1.254 . S
O430 Tb401 2.378 . S
O430 C419 1.236 . S
O431 Tb400 2.341 . S
O431 C419 1.266 . S
H432 C404 0.929 . S
H433 C405 0.931 . S
H434 C407 0.930 . S
H435 C408 0.930 . S
H436 C413 0.929 . S
H437 C414 0.931 . S
H438 C416 0.930 . S
H439 C417 0.930 . S
Tb440 C442 2.809 . S
Tb440 O460 2.484 . S
Tb440 O461 2.440 . S
Tb440 O462 2.658 . S
Tb440 O463 2.409 . S
Tb440 O464 2.378 . S
Tb440 O468 2.325 . S
Tb440 O471 2.341 . S
Tb441 C451 2.809 . S
Tb441 O462 2.325 . S
Tb441 O465 2.341 . S
Tb441 O466 2.484 . S
Tb441 O467 2.440 . S
Tb441 O468 2.658 . S
Tb441 O469 2.409 . S
Tb441 O470 2.378 . S
C442 Tb440 2.809 . S
C442 C443 1.514 . S
C442 O460 1.248 . S
C442 O461 1.266 . S
C443 C442 1.514 . S
C443 C444 1.359 1_556 S
C443 C448 1.348 1_556 S
C444 C443 1.359 1_554 S
C444 C445 1.380 . S
C444 H472 0.929 1_554 S
C445 C444 1.380 . S
C445 C446 1.347 . S
C445 H473 0.931 . S
C446 C445 1.347 . S
C446 C447 1.369 . S
C447 C446 1.369 . S
C447 C448 1.408 . S
C447 H474 0.930 . S
C448 C443 1.348 1_554 S
C448 C447 1.408 . S
C448 H475 0.930 1_554 S
C449 O462 1.281 . S
C449 O463 1.254 . S
C450 O464 1.236 . S
C450 O465 1.266 . S
C451 Tb441 2.809 . S
C451 C452 1.514 . S
C451 O466 1.248 . S
C451 O467 1.266 . S
C452 C451 1.514 . S
C452 C453 1.359 . S
C452 C457 1.348 . S
C453 C452 1.359 . S
C453 C454 1.380 . S
C453 H476 0.929 . S
C454 C453 1.380 . S
C454 C455 1.347 . S
C454 H477 0.931 . S
C455 C454 1.347 . S
C455 C456 1.369 . S
C456 C455 1.369 . S
C456 C457 1.408 . S
C456 H478 0.930 . S
C457 C452 1.348 . S
C457 C456 1.408 . S
C457 H479 0.930 . S
C458 O468 1.281 . S
C458 O469 1.254 . S
C459 O470 1.236 . S
C459 O471 1.266 . S
O460 Tb440 2.484 . S
O460 C442 1.248 . S
O461 Tb440 2.440 . S
O461 C442 1.266 . S
O462 Tb440 2.658 . S
O462 Tb441 2.325 . S
O462 C449 1.281 . S
O463 Tb440 2.409 . S
O463 C449 1.254 . S
O464 Tb440 2.378 . S
O464 C450 1.236 . S
O465 Tb441 2.341 . S
O465 C450 1.266 . S
O466 Tb441 2.484 . S
O466 C451 1.248 . S
O467 Tb441 2.440 . S
O467 C451 1.266 . S
O468 Tb440 2.325 . S
O468 Tb441 2.658 . S
O468 C458 1.281 . S
O469 Tb441 2.409 . S
O469 C458 1.254 . S
O470 Tb441 2.378 . S
O470 C459 1.236 . S
O471 Tb440 2.341 . S
O471 C459 1.266 . S
H472 C444 0.929 1_556 S
H473 C445 0.931 . S
H474 C447 0.930 . S
H475 C448 0.930 1_556 S
H476 C453 0.929 . S
H477 C454 0.931 . S
H478 C456 0.930 . S
H479 C457 0.930 . S
Tb480 C482 2.809 . S
Tb480 O500 2.484 . S
Tb480 O501 2.440 . S
Tb480 O502 2.658 . S
Tb480 O503 2.409 . S
Tb480 O504 2.378 . S
Tb480 O508 2.325 . S
Tb480 O511 2.341 . S
Tb481 C491 2.809 . S
Tb481 O502 2.325 . S
Tb481 O505 2.341 . S
Tb481 O506 2.484 . S
Tb481 O507 2.440 . S
Tb481 O508 2.658 . S
Tb481 O509 2.409 . S
Tb481 O510 2.378 . S
C482 Tb480 2.809 . S
C482 C483 1.514 . S
C482 O500 1.248 . S
C482 O501 1.266 . S
C483 C482 1.514 . S
C483 C484 1.359 . S
C483 C488 1.348 . S
C484 C483 1.359 . S
C484 C485 1.380 . S
C484 H512 0.929 . S
C485 C484 1.380 . S
C485 C486 1.347 . S
C485 H513 0.931 . S
C486 C485 1.347 . S
C486 C487 1.369 . S
C487 C486 1.369 . S
C487 C488 1.408 . S
C487 H514 0.930 . S
C488 C483 1.348 . S
C488 C487 1.408 . S
C488 H515 0.930 . S
C489 O502 1.281 . S
C489 O503 1.254 . S
C490 O504 1.236 . S
C490 O505 1.266 . S
C491 Tb481 2.809 . S
C491 C492 1.514 1_554 S
C491 O506 1.248 . S
C491 O507 1.266 . S
C492 C491 1.514 1_556 S
C492 C493 1.359 . S
C492 C497 1.348 . S
C493 C492 1.359 . S
C493 C494 1.380 . S
C493 H516 0.929 . S
C494 C493 1.380 . S
C494 C495 1.347 . S
C494 H517 0.931 . S
C495 C494 1.347 . S
C495 C496 1.369 . S
C496 C495 1.369 . S
C496 C497 1.408 . S
C496 H518 0.930 . S
C497 C492 1.348 . S
C497 C496 1.408 . S
C497 H519 0.930 . S
C498 O508 1.281 . S
C498 O509 1.254 . S
C499 O510 1.236 . S
C499 O511 1.266 . S
O500 Tb480 2.484 . S
O500 C482 1.248 . S
O501 Tb480 2.440 . S
O501 C482 1.266 . S
O502 Tb480 2.658 . S
O502 Tb481 2.325 . S
O502 C489 1.281 . S
O503 Tb480 2.409 . S
O503 C489 1.254 . S
O504 Tb480 2.378 . S
O504 C490 1.236 . S
O505 Tb481 2.341 . S
O505 C490 1.266 . S
O506 Tb481 2.484 . S
O506 C491 1.248 . S
O507 Tb481 2.440 . S
O507 C491 1.266 . S
O508 Tb480 2.325 . S
O508 Tb481 2.658 . S
O508 C498 1.281 . S
O509 Tb481 2.409 . S
O509 C498 1.254 . S
O510 Tb481 2.378 . S
O510 C499 1.236 . S
O511 Tb480 2.341 . S
O511 C499 1.266 . S
H512 C484 0.929 . S
H513 C485 0.931 . S
H514 C487 0.930 . S
H515 C488 0.930 . S
H516 C493 0.929 . S
H517 C494 0.931 . S
H518 C496 0.930 . S
H519 C497 0.930 . S
Tb520 C522 2.809 . S
Tb520 O540 2.484 . S
Tb520 O541 2.440 . S
Tb520 O542 2.658 . S
Tb520 O543 2.409 . S
Tb520 O544 2.378 . S
Tb520 O548 2.325 . S
Tb520 O551 2.341 . S
Tb521 C531 2.809 . S
Tb521 O542 2.325 . S
Tb521 O545 2.341 . S
Tb521 O546 2.484 . S
Tb521 O547 2.440 . S
Tb521 O548 2.658 . S
Tb521 O549 2.409 . S
Tb521 O550 2.378 . S
C522 Tb520 2.809 . S
C522 C523 1.514 1_554 S
C522 O540 1.248 . S
C522 O541 1.266 . S
C523 C522 1.514 1_556 S
C523 C524 1.359 . S
C523 C528 1.348 . S
C524 C523 1.359 . S
C524 C525 1.380 . S
C524 H552 0.929 . S
C525 C524 1.380 . S
C525 C526 1.347 . S
C525 H553 0.931 . S
C526 C525 1.347 . S
C526 C527 1.369 . S
C527 C526 1.369 . S
C527 C528 1.408 . S
C527 H554 0.930 . S
C528 C523 1.348 . S
C528 C527 1.408 . S
C528 H555 0.930 . S
C529 O542 1.281 . S
C529 O543 1.254 . S
C530 O544 1.236 . S
C530 O545 1.266 . S
C531 Tb521 2.809 . S
C531 C532 1.514 . S
C531 O546 1.248 . S
C531 O547 1.266 . S
C532 C531 1.514 . S
C532 C533 1.359 . S
C532 C537 1.348 . S
C533 C532 1.359 . S
C533 C534 1.380 . S
C533 H556 0.929 . S
C534 C533 1.380 . S
C534 C535 1.347 . S
C534 H557 0.931 . S
C535 C534 1.347 . S
C535 C536 1.369 . S
C536 C535 1.369 . S
C536 C537 1.408 . S
C536 H558 0.930 . S
C537 C532 1.348 . S
C537 C536 1.408 . S
C537 H559 0.930 . S
C538 O548 1.281 . S
C538 O549 1.254 . S
C539 O550 1.236 . S
C539 O551 1.266 . S
O540 Tb520 2.484 . S
O540 C522 1.248 . S
O541 Tb520 2.440 . S
O541 C522 1.266 . S
O542 Tb520 2.658 . S
O542 Tb521 2.325 . S
O542 C529 1.281 . S
O543 Tb520 2.409 . S
O543 C529 1.254 . S
O544 Tb520 2.378 . S
O544 C530 1.236 . S
O545 Tb521 2.341 . S
O545 C530 1.266 . S
O546 Tb521 2.484 . S
O546 C531 1.248 . S
O547 Tb521 2.440 . S
O547 C531 1.266 . S
O548 Tb520 2.325 . S
O548 Tb521 2.658 . S
O548 C538 1.281 . S
O549 Tb521 2.409 . S
O549 C538 1.254 . S
O550 Tb521 2.378 . S
O550 C539 1.236 . S
O551 Tb520 2.341 . S
O551 C539 1.266 . S
H552 C524 0.929 . S
H553 C525 0.931 . S
H554 C527 0.930 . S
H555 C528 0.930 . S
H556 C533 0.929 . S
H557 C534 0.931 . S
H558 C536 0.930 . S
H559 C537 0.930 . S
Tb560 C562 2.809 . S
Tb560 O580 2.484 . S
Tb560 O581 2.440 . S
Tb560 O582 2.658 . S
Tb560 O583 2.409 . S
Tb560 O584 2.378 . S
Tb560 O588 2.325 . S
Tb560 O591 2.341 . S
Tb561 C571 2.809 . S
Tb561 O582 2.325 . S
Tb561 O585 2.341 . S
Tb561 O586 2.484 . S
Tb561 O587 2.440 . S
Tb561 O588 2.658 . S
Tb561 O589 2.409 . S
Tb561 O590 2.378 . S
C562 Tb560 2.809 . S
C562 C563 1.514 . S
C562 O580 1.248 . S
C562 O581 1.266 . S
C563 C562 1.514 . S
C563 C564 1.359 . S
C563 C568 1.348 . S
C564 C563 1.359 . S
C564 C565 1.380 . S
C564 H592 0.929 . S
C565 C564 1.380 . S
C565 C566 1.347 . S
C565 H593 0.931 . S
C566 C565 1.347 . S
C566 C567 1.369 . S
C567 C566 1.369 . S
C567 C568 1.408 . S
C567 H594 0.930 . S
C568 C563 1.348 . S
C568 C567 1.408 . S
C568 H595 0.930 . S
C569 O582 1.281 . S
C569 O583 1.254 . S
C570 O584 1.236 . S
C570 O585 1.266 . S
C571 Tb561 2.809 . S
C571 C572 1.514 . S
C571 O586 1.248 . S
C571 O587 1.266 . S
C572 C571 1.514 . S
C572 C573 1.359 1_554 S
C572 C577 1.348 1_554 S
C573 C572 1.359 1_556 S
C573 C574 1.380 . S
C573 H596 0.929 . S
C574 C573 1.380 . S
C574 C575 1.347 . S
C574 H597 0.931 . S
C575 C574 1.347 . S
C575 C576 1.369 . S
C576 C575 1.369 . S
C576 C577 1.408 . S
C576 H598 0.930 . S
C577 C572 1.348 1_556 S
C577 C576 1.408 . S
C577 H599 0.925 1_556 S
C578 O588 1.281 . S
C578 O589 1.254 . S
C579 O590 1.236 . S
C579 O591 1.266 . S
O580 Tb560 2.484 . S
O580 C562 1.248 . S
O581 Tb560 2.440 . S
O581 C562 1.266 . S
O582 Tb560 2.658 . S
O582 Tb561 2.325 . S
O582 C569 1.281 . S
O583 Tb560 2.409 . S
O583 C569 1.254 . S
O584 Tb560 2.378 . S
O584 C570 1.236 . S
O585 Tb561 2.341 . S
O585 C570 1.266 . S
O586 Tb561 2.484 . S
O586 C571 1.248 . S
O587 Tb561 2.440 . S
O587 C571 1.266 . S
O588 Tb560 2.325 . S
O588 Tb561 2.658 . S
O588 C578 1.281 . S
O589 Tb561 2.409 . S
O589 C578 1.254 . S
O590 Tb561 2.378 . S
O590 C579 1.236 . S
O591 Tb560 2.341 . S
O591 C579 1.266 . S
H592 C564 0.929 . S
H593 C565 0.931 . S
H594 C567 0.930 . S
H595 C568 0.930 . S
H596 C573 0.929 . S
H597 C574 0.931 . S
H598 C576 0.930 . S
H599 C577 0.925 1_554 S
Tb600 C602 2.809 . S
Tb600 O620 2.484 . S
Tb600 O621 2.440 . S
Tb600 O622 2.658 . S
Tb600 O623 2.409 . S
Tb600 O624 2.378 . S
Tb600 O628 2.325 . S
Tb600 O631 2.341 . S
Tb601 C611 2.809 . S
Tb601 O622 2.325 . S
Tb601 O625 2.341 . S
Tb601 O626 2.484 . S
Tb601 O627 2.440 . S
Tb601 O628 2.658 . S
Tb601 O629 2.409 . S
Tb601 O630 2.378 . S
C602 Tb600 2.809 . S
C602 C603 1.514 . S
C602 O620 1.248 . S
C602 O621 1.266 . S
C603 C602 1.514 . S
C603 C604 1.359 . S
C603 C608 1.348 . S
C604 C603 1.359 . S
C604 C605 1.380 . S
C604 H632 0.929 . S
C605 C604 1.380 . S
C605 C606 1.347 . S
C605 H633 0.931 . S
C606 C605 1.347 . S
C606 C607 1.369 . S
C607 C606 1.369 . S
C607 C608 1.408 . S
C607 H634 0.930 . S
C608 C603 1.348 . S
C608 C607 1.408 . S
C608 H635 0.930 . S
C609 O622 1.281 . S
C609 O623 1.254 . S
C610 O624 1.236 . S
C610 O625 1.266 . S
C611 Tb601 2.809 . S
C611 C612 1.514 1_554 S
C611 O626 1.248 . S
C611 O627 1.266 . S
C612 C611 1.514 1_556 S
C612 C613 1.359 . S
C612 C617 1.348 . S
C613 C612 1.359 . S
C613 C614 1.380 . S
C613 H636 0.929 . S
C614 C613 1.380 . S
C614 C615 1.347 . S
C614 H637 0.931 . S
C615 C614 1.347 . S
C615 C616 1.369 . S
C616 C615 1.369 . S
C616 C617 1.408 . S
C616 H638 0.930 . S
C617 C612 1.348 . S
C617 C616 1.408 . S
C617 H639 0.930 . S
C618 O628 1.281 . S
C618 O629 1.254 . S
C619 O630 1.236 . S
C619 O631 1.266 . S
O620 Tb600 2.484 . S
O620 C602 1.248 . S
O621 Tb600 2.440 . S
O621 C602 1.266 . S
O622 Tb600 2.658 . S
O622 Tb601 2.325 . S
O622 C609 1.281 . S
O623 Tb600 2.409 . S
O623 C609 1.254 . S
O624 Tb600 2.378 . S
O624 C610 1.236 . S
O625 Tb601 2.341 . S
O625 C610 1.266 . S
O626 Tb601 2.484 . S
O626 C611 1.248 . S
O627 Tb601 2.440 . S
O627 C611 1.266 . S
O628 Tb600 2.325 . S
O628 Tb601 2.658 . S
O628 C618 1.281 . S
O629 Tb601 2.409 . S
O629 C618 1.254 . S
O630 Tb601 2.378 . S
O630 C619 1.236 . S
O631 Tb600 2.341 . S
O631 C619 1.266 . S
H632 C604 0.929 . S
H633 C605 0.931 . S
H634 C607 0.930 . S
H635 C608 0.930 . S
H636 C613 0.929 . S
H637 C614 0.931 . S
H638 C616 0.930 . S
H639 C617 0.930 . S
Tb640 C642 2.809 . S
Tb640 O660 2.484 . S
Tb640 O661 2.440 . S
Tb640 O662 2.658 . S
Tb640 O663 2.409 . S
Tb640 O664 2.378 . S
Tb640 O668 2.325 . S
Tb640 O671 2.341 . S
Tb641 C651 2.809 . S
Tb641 O662 2.325 . S
Tb641 O665 2.341 . S
Tb641 O666 2.484 . S
Tb641 O667 2.440 . S
Tb641 O668 2.658 . S
Tb641 O669 2.409 . S
Tb641 O670 2.378 . S
C642 Tb640 2.809 . S
C642 C643 1.514 . S
C642 O660 1.248 . S
C642 O661 1.266 . S
C643 C642 1.514 . S
C643 C644 1.359 . S
C643 C648 1.348 . S
C644 C643 1.359 . S
C644 C645 1.380 1_554 S
C644 H672 0.929 . S
C645 C644 1.380 1_556 S
C645 C646 1.347 . S
C645 H673 0.931 . S
C646 C645 1.347 . S
C646 C647 1.369 . S
C647 C646 1.369 . S
C647 C648 1.408 1_556 S
C647 H674 0.930 . S
C648 C643 1.348 . S
C648 C647 1.408 1_554 S
C648 H675 0.930 . S
C649 O662 1.281 . S
C649 O663 1.254 . S
C650 O664 1.236 . S
C650 O665 1.266 . S
C651 Tb641 2.809 . S
C651 C652 1.514 . S
C651 O666 1.248 . S
C651 O667 1.266 . S
C652 C651 1.514 . S
C652 C653 1.359 . S
C652 C657 1.348 . S
C653 C652 1.359 . S
C653 C654 1.380 . S
C653 H676 0.929 . S
C654 C653 1.380 . S
C654 C655 1.347 . S
C654 H677 0.931 . S
C655 C654 1.347 . S
C655 C656 1.369 . S
C656 C655 1.369 . S
C656 C657 1.408 . S
C656 H678 0.930 . S
C657 C652 1.348 . S
C657 C656 1.408 . S
C657 H679 0.930 . S
C658 O668 1.281 . S
C658 O669 1.254 . S
C659 O670 1.236 . S
C659 O671 1.266 . S
O660 Tb640 2.484 . S
O660 C642 1.248 . S
O661 Tb640 2.440 . S
O661 C642 1.266 . S
O662 Tb640 2.658 . S
O662 Tb641 2.325 . S
O662 C649 1.281 . S
O663 Tb640 2.409 . S
O663 C649 1.254 . S
O664 Tb640 2.378 . S
O664 C650 1.236 . S
O665 Tb641 2.341 . S
O665 C650 1.266 . S
O666 Tb641 2.484 . S
O666 C651 1.248 . S
O667 Tb641 2.440 . S
O667 C651 1.266 . S
O668 Tb640 2.325 . S
O668 Tb641 2.658 . S
O668 C658 1.281 . S
O669 Tb641 2.409 . S
O669 C658 1.254 . S
O670 Tb641 2.378 . S
O670 C659 1.236 . S
O671 Tb640 2.341 . S
O671 C659 1.266 . S
H672 C644 0.929 . S
H673 C645 0.931 . S
H674 C647 0.930 . S
H675 C648 0.930 . S
H676 C653 0.929 . S
H677 C654 0.931 . S
H678 C656 0.930 . S
H679 C657 0.930 . S
Tb680 C682 2.809 . S
Tb680 O700 2.484 . S
Tb680 O701 2.440 . S
Tb680 O702 2.658 . S
Tb680 O703 2.409 . S
Tb680 O704 2.378 . S
Tb680 O708 2.325 . S
Tb680 O711 2.341 . S
Tb681 C691 2.809 . S
Tb681 O702 2.325 . S
Tb681 O705 2.341 . S
Tb681 O706 2.484 . S
Tb681 O707 2.440 . S
Tb681 O708 2.658 . S
Tb681 O709 2.409 . S
Tb681 O710 2.378 . S
C682 Tb680 2.809 . S
C682 C683 1.514 . S
C682 O700 1.248 . S
C682 O701 1.266 . S
C683 C682 1.514 . S
C683 C684 1.359 . S
C683 C688 1.348 . S
C684 C683 1.359 . S
C684 C685 1.380 . S
C684 H712 0.929 . S
C685 C684 1.380 . S
C685 C686 1.347 . S
C685 H713 0.931 . S
C686 C685 1.347 . S
C686 C687 1.369 . S
C687 C686 1.369 . S
C687 C688 1.408 . S
C687 H714 0.930 . S
C688 C683 1.348 . S
C688 C687 1.408 . S
C688 H715 0.930 . S
C689 O702 1.281 . S
C689 O703 1.254 . S
C690 O704 1.236 . S
C690 O705 1.266 . S
C691 Tb681 2.809 . S
C691 C692 1.514 . S
C691 O706 1.248 . S
C691 O707 1.266 . S
C692 C691 1.514 . S
C692 C693 1.359 . S
C692 C697 1.348 . S
C693 C692 1.359 . S
C693 C694 1.380 1_554 S
C693 H716 0.929 . S
C694 C693 1.380 1_556 S
C694 C695 1.347 . S
C694 H717 0.931 . S
C695 C694 1.347 . S
C695 C696 1.369 . S
C696 C695 1.369 . S
C696 C697 1.408 1_556 S
C696 H718 0.930 . S
C697 C692 1.348 . S
C697 C696 1.408 1_554 S
C697 H719 0.930 . S
C698 O708 1.281 . S
C698 O709 1.254 . S
C699 O710 1.236 . S
C699 O711 1.266 . S
O700 Tb680 2.484 . S
O700 C682 1.248 . S
O701 Tb680 2.440 . S
O701 C682 1.266 . S
O702 Tb680 2.658 . S
O702 Tb681 2.325 . S
O702 C689 1.281 . S
O703 Tb680 2.409 . S
O703 C689 1.254 . S
O704 Tb680 2.378 . S
O704 C690 1.236 . S
O705 Tb681 2.341 . S
O705 C690 1.266 . S
O706 Tb681 2.484 . S
O706 C691 1.248 . S
O707 Tb681 2.440 . S
O707 C691 1.266 . S
O708 Tb680 2.325 . S
O708 Tb681 2.658 . S
O708 C698 1.281 . S
O709 Tb681 2.409 . S
O709 C698 1.254 . S
O710 Tb681 2.378 . S
O710 C699 1.236 . S
O711 Tb680 2.341 . S
O711 C699 1.266 . S
H712 C684 0.929 . S
H713 C685 0.931 . S
H714 C687 0.930 . S
H715 C688 0.930 . S
H716 C693 0.929 . S
H717 C694 0.931 . S
H718 C696 0.930 . S
H719 C697 0.930 . S
H720 C728 0.929 . S
H721 C730 0.930 . S
H722 C732 0.930 . S
H723 C735 0.929 . S
H724 C738 0.930 . S
H725 C740 0.960 . S
H726 C740 0.960 . S
H727 C740 0.960 . S
C728 H720 0.929 . S
C728 C729 1.377 . S
C728 C730 1.384 . S
C729 C728 1.377 . S
C729 C735 1.390 . S
C730 H721 0.930 . S
C730 C728 1.384 . S
C730 C731 1.372 . S
C731 C730 1.372 . S
C731 C732 1.400 . S
C731 C736 1.490 . S
C732 H722 0.930 . S
C732 C731 1.400 . S
C732 C735 1.386 . S
H733 C749 0.930 . S
H734 C750 0.931 . S
C735 H723 0.929 . S
C735 C729 1.390 . S
C735 C732 1.386 . S
C736 C731 1.490 . S
C736 C738 1.395 . S
C736 C739 1.403 . S
H737 C743 0.930 . S
C738 H724 0.930 . S
C738 C736 1.395 . S
C738 C741 1.403 . S
C739 C736 1.403 . S
C739 C740 1.524 . S
C739 C743 1.400 . S
C740 H725 0.960 . S
C740 H726 0.960 . S
C740 H727 0.960 . S
C740 C739 1.524 . S
C741 C738 1.403 . S
C741 C742 1.392 . S
C741 C745 1.495 . S
C742 C741 1.392 . S
C742 C743 1.385 . S
C742 C744 1.478 . S
C743 H737 0.930 . S
C743 C739 1.400 . S
C743 C742 1.385 . S
C744 C742 1.478 . S
C744 C746 1.381 . S
C744 C750 1.383 . S
C745 C741 1.495 . S
C745 H751 0.959 . S
C745 H752 0.961 . S
C745 H753 0.960 . S
C746 C744 1.381 . S
C746 C747 1.394 . S
C746 H754 0.930 . S
C747 C746 1.394 . S
C747 C748 1.383 . S
C747 H755 0.929 . S
C748 C747 1.383 . S
C748 C749 1.377 . S
C749 H733 0.930 . S
C749 C748 1.377 . S
C749 C750 1.379 . S
C750 H734 0.931 . S
C750 C744 1.383 . S
C750 C749 1.379 . S
H751 C745 0.959 . S
H752 C745 0.961 . S
H753 C745 0.960 . S
H754 C746 0.930 . S
H755 C747 0.929 . S
H756 C764 0.929 . S
H757 C766 0.930 . S
H758 C768 0.930 . S
H759 C771 0.929 . S
H760 C774 0.930 . S
H761 C776 0.960 . S
H762 C776 0.960 . S
H763 C776 0.960 . S
C764 H756 0.929 . S
C764 C765 1.377 . S
C764 C766 1.384 . S
C765 C764 1.377 . S
C765 C771 1.390 . S
C766 H757 0.930 . S
C766 C764 1.384 . S
C766 C767 1.372 . S
C767 C766 1.372 . S
C767 C768 1.400 . S
C767 C772 1.490 . S
C768 H758 0.930 . S
C768 C767 1.400 . S
C768 C771 1.386 . S
H769 C785 0.930 . S
H770 C786 0.931 . S
C771 H759 0.929 . S
C771 C765 1.390 . S
C771 C768 1.386 . S
C772 C767 1.490 . S
C772 C774 1.395 . S
C772 C775 1.403 . S
H773 C779 0.930 . S
C774 H760 0.930 . S
C774 C772 1.395 . S
C774 C777 1.403 . S
C775 C772 1.403 . S
C775 C776 1.524 . S
C775 C779 1.400 . S
C776 H761 0.960 . S
C776 H762 0.960 . S
C776 H763 0.960 . S
C776 C775 1.524 . S
C777 C774 1.403 . S
C777 C778 1.392 . S
C777 C781 1.495 . S
C778 C777 1.392 . S
C778 C779 1.385 . S
C778 C780 1.478 . S
C779 H773 0.930 . S
C779 C775 1.400 . S
C779 C778 1.385 . S
C780 C778 1.478 . S
C780 C782 1.381 . S
C780 C786 1.383 . S
C781 C777 1.495 . S
C781 H787 0.959 . S
C781 H788 0.961 . S
C781 H789 0.960 . S
C782 C780 1.381 . S
C782 C783 1.394 . S
C782 H790 0.930 . S
C783 C782 1.394 . S
C783 C784 1.383 . S
C783 H791 0.929 . S
C784 C783 1.383 . S
C784 C785 1.377 . S
C785 H769 0.930 . S
C785 C784 1.377 . S
C785 C786 1.379 . S
C786 H770 0.931 . S
C786 C780 1.383 . S
C786 C785 1.379 . S
H787 C781 0.959 . S
H788 C781 0.961 . S
H789 C781 0.960 . S
H790 C782 0.930 . S
H791 C783 0.929 . S
H792 C800 0.929 . S
H793 C802 0.930 . S
H794 C804 0.930 . S
H795 C807 0.929 . S
H796 C810 0.930 . S
H797 C812 0.960 . S
H798 C812 0.960 . S
H799 C812 0.960 . S
C800 H792 0.929 . S
C800 C801 1.377 . S
C800 C802 1.384 . S
C801 C800 1.377 . S
C801 C807 1.390 . S
C802 H793 0.930 . S
C802 C800 1.384 . S
C802 C803 1.372 . S
C803 C802 1.372 . S
C803 C804 1.400 . S
C803 C808 1.490 . S
C804 H794 0.930 . S
C804 C803 1.400 . S
C804 C807 1.386 . S
H805 C821 0.930 . S
H806 C822 0.931 . S
C807 H795 0.929 . S
C807 C801 1.390 . S
C807 C804 1.386 . S
C808 C803 1.490 . S
C808 C810 1.395 . S
C808 C811 1.403 . S
H809 C815 0.930 . S
C810 H796 0.930 . S
C810 C808 1.395 . S
C810 C813 1.403 . S
C811 C808 1.403 . S
C811 C812 1.524 . S
C811 C815 1.400 . S
C812 H797 0.960 . S
C812 H798 0.960 . S
C812 H799 0.960 . S
C812 C811 1.524 . S
C813 C810 1.403 . S
C813 C814 1.392 . S
C813 C817 1.495 . S
C814 C813 1.392 . S
C814 C815 1.385 . S
C814 C816 1.478 . S
C815 H809 0.930 . S
C815 C811 1.400 . S
C815 C814 1.385 . S
C816 C814 1.478 . S
C816 C818 1.381 . S
C816 C822 1.383 . S
C817 C813 1.495 . S
C817 H823 0.959 . S
C817 H824 0.961 . S
C817 H825 0.960 . S
C818 C816 1.381 . S
C818 C819 1.394 . S
C818 H826 0.930 . S
C819 C818 1.394 . S
C819 C820 1.383 . S
C819 H827 0.929 . S
C820 C819 1.383 . S
C820 C821 1.377 . S
C821 H805 0.930 . S
C821 C820 1.377 . S
C821 C822 1.379 . S
C822 H806 0.931 . S
C822 C816 1.383 . S
C822 C821 1.379 . S
H823 C817 0.959 . S
H824 C817 0.961 . S
H825 C817 0.960 . S
H826 C818 0.930 . S
H827 C819 0.929 . S
H828 C836 0.929 . S
H829 C838 0.930 . S
H830 C840 0.930 . S
H831 C843 0.929 . S
H832 C846 0.930 . S
H833 C848 0.960 . S
H834 C848 0.960 . S
H835 C848 0.960 . S
C836 H828 0.929 . S
C836 C837 1.377 . S
C836 C838 1.384 . S
C837 C836 1.377 . S
C837 C843 1.390 . S
C838 H829 0.930 . S
C838 C836 1.384 . S
C838 C839 1.372 . S
C839 C838 1.372 . S
C839 C840 1.400 . S
C839 C844 1.490 . S
C840 H830 0.930 . S
C840 C839 1.400 . S
C840 C843 1.386 . S
H841 C857 0.930 . S
H842 C858 0.931 . S
C843 H831 0.929 . S
C843 C837 1.390 . S
C843 C840 1.386 . S
C844 C839 1.490 . S
C844 C846 1.395 . S
C844 C847 1.403 . S
H845 C851 0.930 . S
C846 H832 0.930 . S
C846 C844 1.395 . S
C846 C849 1.403 . S
C847 C844 1.403 . S
C847 C848 1.524 . S
C847 C851 1.400 . S
C848 H833 0.960 . S
C848 H834 0.960 . S
C848 H835 0.960 . S
C848 C847 1.524 . S
C849 C846 1.403 . S
C849 C850 1.392 . S
C849 C853 1.495 . S
C850 C849 1.392 . S
C850 C851 1.385 . S
C850 C852 1.478 . S
C851 H845 0.930 . S
C851 C847 1.400 . S
C851 C850 1.385 . S
C852 C850 1.478 . S
C852 C854 1.381 . S
C852 C858 1.383 . S
C853 C849 1.495 . S
C853 H859 0.959 . S
C853 H860 0.961 . S
C853 H861 0.960 . S
C854 C852 1.381 . S
C854 C855 1.394 . S
C854 H862 0.930 . S
C855 C854 1.394 . S
C855 C856 1.383 . S
C855 H863 0.929 . S
C856 C855 1.383 . S
C856 C857 1.377 . S
C857 H841 0.930 . S
C857 C856 1.377 . S
C857 C858 1.379 . S
C858 H842 0.931 . S
C858 C852 1.383 . S
C858 C857 1.379 . S
H859 C853 0.959 . S
H860 C853 0.961 . S
H861 C853 0.960 . S
H862 C854 0.930 . S
H863 C855 0.929 . S
H864 C872 0.929 . S
H865 C874 0.930 . S
H866 C876 0.930 . S
H867 C879 0.929 . S
H868 C882 0.930 . S
H869 C884 0.960 . S
H870 C884 0.960 . S
H871 C884 0.960 . S
C872 H864 0.929 . S
C872 C873 1.377 . S
C872 C874 1.384 . S
C873 C872 1.377 . S
C873 C879 1.390 . S
C874 H865 0.930 . S
C874 C872 1.384 . S
C874 C875 1.372 . S
C875 C874 1.372 . S
C875 C876 1.400 . S
C875 C880 1.490 . S
C876 H866 0.930 . S
C876 C875 1.400 . S
C876 C879 1.386 . S
H877 C893 0.930 . S
H878 C894 0.931 . S
C879 H867 0.929 . S
C879 C873 1.390 . S
C879 C876 1.386 . S
C880 C875 1.490 . S
C880 C882 1.395 . S
C880 C883 1.403 . S
H881 C887 0.930 . S
C882 H868 0.930 . S
C882 C880 1.395 . S
C882 C885 1.403 . S
C883 C880 1.403 . S
C883 C884 1.524 . S
C883 C887 1.400 . S
C884 H869 0.960 . S
C884 H870 0.960 . S
C884 H871 0.960 . S
C884 C883 1.524 . S
C885 C882 1.403 . S
C885 C886 1.392 . S
C885 C889 1.495 . S
C886 C885 1.392 . S
C886 C887 1.385 . S
C886 C888 1.478 . S
C887 H881 0.930 . S
C887 C883 1.400 . S
C887 C886 1.385 . S
C888 C886 1.478 . S
C888 C890 1.381 . S
C888 C894 1.383 . S
C889 C885 1.495 . S
C889 H895 0.959 . S
C889 H896 0.961 . S
C889 H897 0.960 . S
C890 C888 1.381 . S
C890 C891 1.394 . S
C890 H898 0.930 . S
C891 C890 1.394 . S
C891 C892 1.383 . S
C891 H899 0.929 . S
C892 C891 1.383 . S
C892 C893 1.377 . S
C893 H877 0.930 . S
C893 C892 1.377 . S
C893 C894 1.379 . S
C894 H878 0.931 . S
C894 C888 1.383 . S
C894 C893 1.379 . S
H895 C889 0.959 . S
H896 C889 0.961 . S
H897 C889 0.960 . S
H898 C890 0.930 . S
H899 C891 0.929 . S
H900 C908 0.929 . S
H901 C910 0.930 . S
H902 C912 0.930 . S
H903 C915 0.929 . S
H904 C918 0.930 . S
H905 C920 0.960 . S
H906 C920 0.960 . S
H907 C920 0.960 . S
C908 H900 0.929 . S
C908 C909 1.377 . S
C908 C910 1.384 . S
C909 C908 1.377 . S
C909 C915 1.390 . S
C910 H901 0.930 . S
C910 C908 1.384 . S
C910 C911 1.372 . S
C911 C910 1.372 . S
C911 C912 1.400 . S
C911 C916 1.490 . S
C912 H902 0.930 . S
C912 C911 1.400 . S
C912 C915 1.386 . S
H913 C929 0.930 . S
H914 C930 0.931 . S
C915 H903 0.929 . S
C915 C909 1.390 . S
C915 C912 1.386 . S
C916 C911 1.490 . S
C916 C918 1.395 . S
C916 C919 1.403 . S
H917 C923 0.930 . S
C918 H904 0.930 . S
C918 C916 1.395 . S
C918 C921 1.403 . S
C919 C916 1.403 . S
C919 C920 1.524 . S
C919 C923 1.400 . S
C920 H905 0.960 . S
C920 H906 0.960 . S
C920 H907 0.960 . S
C920 C919 1.524 . S
C921 C918 1.403 . S
C921 C922 1.392 . S
C921 C925 1.495 . S
C922 C921 1.392 . S
C922 C923 1.385 . S
C922 C924 1.478 . S
C923 H917 0.930 . S
C923 C919 1.400 . S
C923 C922 1.385 . S
C924 C922 1.478 . S
C924 C926 1.381 . S
C924 C930 1.383 . S
C925 C921 1.495 . S
C925 H931 0.959 . S
C925 H932 0.961 . S
C925 H933 0.960 . S
C926 C924 1.381 . S
C926 C927 1.394 . S
C926 H934 0.930 . S
C927 C926 1.394 . S
C927 C928 1.383 . S
C927 H935 0.929 . S
C928 C927 1.383 . S
C928 C929 1.377 . S
C929 H913 0.930 . S
C929 C928 1.377 . S
C929 C930 1.379 . S
C930 H914 0.931 . S
C930 C924 1.383 . S
C930 C929 1.379 . S
H931 C925 0.959 . S
H932 C925 0.961 . S
H933 C925 0.960 . S
H934 C926 0.930 . S
H935 C927 0.929 . S
H936 C944 0.929 . S
H937 C946 0.930 . S
H938 C948 0.930 . S
H939 C951 0.929 . S
H940 C954 0.930 . S
H941 C956 0.960 . S
H942 C956 0.960 . S
H943 C956 0.960 . S
C944 H936 0.929 . S
C944 C945 1.377 . S
C944 C946 1.384 . S
C945 C944 1.377 . S
C945 C951 1.390 . S
C946 H937 0.930 . S
C946 C944 1.384 . S
C946 C947 1.372 . S
C947 C946 1.372 . S
C947 C948 1.400 . S
C947 C952 1.490 . S
C948 H938 0.930 . S
C948 C947 1.400 . S
C948 C951 1.386 . S
H949 C965 0.930 . S
H950 C966 0.931 . S
C951 H939 0.929 . S
C951 C945 1.390 . S
C951 C948 1.386 . S
C952 C947 1.490 . S
C952 C954 1.395 . S
C952 C955 1.403 . S
H953 C959 0.930 . S
C954 H940 0.930 . S
C954 C952 1.395 . S
C954 C957 1.403 . S
C955 C952 1.403 . S
C955 C956 1.524 . S
C955 C959 1.400 . S
C956 H941 0.960 . S
C956 H942 0.960 . S
C956 H943 0.960 . S
C956 C955 1.524 . S
C957 C954 1.403 . S
C957 C958 1.392 . S
C957 C961 1.495 . S
C958 C957 1.392 . S
C958 C959 1.385 . S
C958 C960 1.478 . S
C959 H953 0.930 . S
C959 C955 1.400 . S
C959 C958 1.385 . S
C960 C958 1.478 . S
C960 C962 1.381 . S
C960 C966 1.383 . S
C961 C957 1.495 . S
C961 H967 0.959 . S
C961 H968 0.961 . S
C961 H969 0.960 . S
C962 C960 1.381 . S
C962 C963 1.394 . S
C962 H970 0.930 . S
C963 C962 1.394 . S
C963 C964 1.383 . S
C963 H971 0.929 . S
C964 C963 1.383 . S
C964 C965 1.377 . S
C965 H949 0.930 . S
C965 C964 1.377 . S
C965 C966 1.379 . S
C966 H950 0.931 . S
C966 C960 1.383 . S
C966 C965 1.379 . S
H967 C961 0.959 . S
H968 C961 0.961 . S
H969 C961 0.960 . S
H970 C962 0.930 . S
H971 C963 0.929 . S
H972 C980 0.929 . S
H973 C982 0.930 . S
H974 C984 0.930 . S
H975 C987 0.929 . S
H976 C990 0.930 . S
H977 C992 0.960 . S
H978 C992 0.960 . S
H979 C992 0.960 . S
C980 H972 0.929 . S
C980 C981 1.377 . S
C980 C982 1.384 . S
C981 C980 1.377 . S
C981 C987 1.390 . S
C982 H973 0.930 . S
C982 C980 1.384 . S
C982 C983 1.372 . S
C983 C982 1.372 . S
C983 C984 1.400 . S
C983 C988 1.490 . S
C984 H974 0.930 . S
C984 C983 1.400 . S
C984 C987 1.386 . S
H985 C1001 0.930 . S
H986 C1002 0.931 . S
C987 H975 0.929 . S
C987 C981 1.390 . S
C987 C984 1.386 . S
C988 C983 1.490 . S
C988 C990 1.395 . S
C988 C991 1.403 . S
H989 C995 0.930 . S
C990 H976 0.930 . S
C990 C988 1.395 . S
C990 C993 1.403 . S
C991 C988 1.403 . S
C991 C992 1.524 . S
C991 C995 1.400 . S
C992 H977 0.960 . S
C992 H978 0.960 . S
C992 H979 0.960 . S
C992 C991 1.524 . S
C993 C990 1.403 . S
C993 C994 1.392 . S
C993 C997 1.495 . S
C994 C993 1.392 . S
C994 C995 1.385 . S
C994 C996 1.478 . S
C995 H989 0.930 . S
C995 C991 1.400 . S
C995 C994 1.385 . S
C996 C994 1.478 . S
C996 C998 1.381 . S
C996 C1002 1.383 . S
C997 C993 1.495 . S
C997 H1003 0.959 . S
C997 H1004 0.961 . S
C997 H1005 0.960 . S
C998 C996 1.381 . S
C998 C999 1.394 . S
C998 H1006 0.930 . S
C999 C998 1.394 . S
C999 C1000 1.383 . S
C999 H1007 0.929 . S
C1000 C999 1.383 . S
C1000 C1001 1.377 . S
C1001 H985 0.930 . S
C1001 C1000 1.377 . S
C1001 C1002 1.379 . S
C1002 H986 0.931 . S
C1002 C996 1.383 . S
C1002 C1001 1.379 . S
H1003 C997 0.959 . S
H1004 C997 0.961 . S
H1005 C997 0.960 . S
H1006 C998 0.930 . S
H1007 C999 0.929 . S
H1008 C1016 0.929 . S
H1009 C1018 0.930 . S
H1010 C1020 0.930 . S
H1011 C1023 0.929 . S
H1012 C1026 0.930 . S
H1013 C1028 0.960 . S
H1014 C1028 0.960 . S
H1015 C1028 0.960 . S
C1016 H1008 0.929 . S
C1016 C1017 1.377 . S
C1016 C1018 1.384 . S
C1017 C1016 1.377 . S
C1017 C1023 1.390 . S
C1018 H1009 0.930 . S
C1018 C1016 1.384 . S
C1018 C1019 1.372 . S
C1019 C1018 1.372 . S
C1019 C1020 1.400 . S
C1019 C1024 1.490 . S
C1020 H1010 0.930 . S
C1020 C1019 1.400 . S
C1020 C1023 1.386 . S
H1021 C1037 0.930 . S
H1022 C1038 0.931 . S
C1023 H1011 0.929 . S
C1023 C1017 1.390 . S
C1023 C1020 1.386 . S
C1024 C1019 1.490 . S
C1024 C1026 1.395 . S
C1024 C1027 1.403 . S
H1025 C1031 0.930 . S
C1026 H1012 0.930 . S
C1026 C1024 1.395 . S
C1026 C1029 1.403 . S
C1027 C1024 1.403 . S
C1027 C1028 1.524 . S
C1027 C1031 1.400 . S
C1028 H1013 0.960 . S
C1028 H1014 0.960 . S
C1028 H1015 0.960 . S
C1028 C1027 1.524 . S
C1029 C1026 1.403 . S
C1029 C1030 1.392 . S
C1029 C1033 1.495 . S
C1030 C1029 1.392 . S
C1030 C1031 1.385 . S
C1030 C1032 1.478 . S
C1031 H1025 0.930 . S
C1031 C1027 1.400 . S
C1031 C1030 1.385 . S
C1032 C1030 1.478 . S
C1032 C1034 1.381 . S
C1032 C1038 1.383 . S
C1033 C1029 1.495 . S
C1033 H1039 0.959 . S
C1033 H1040 0.961 . S
C1033 H1041 0.960 . S
C1034 C1032 1.381 . S
C1034 C1035 1.394 . S
C1034 H1042 0.930 . S
C1035 C1034 1.394 . S
C1035 C1036 1.383 . S
C1035 H1043 0.929 . S
C1036 C1035 1.383 . S
C1036 C1037 1.377 . S
C1037 H1021 0.930 . S
C1037 C1036 1.377 . S
C1037 C1038 1.379 . S
C1038 H1022 0.931 . S
C1038 C1032 1.383 . S
C1038 C1037 1.379 . S
H1039 C1033 0.959 . S
H1040 C1033 0.961 . S
H1041 C1033 0.960 . S
H1042 C1034 0.930 . S
H1043 C1035 0.929 . S
H1044 C1052 0.929 . S
H1045 C1054 0.930 . S
H1046 C1056 0.930 . S
H1047 C1059 0.929 . S
H1048 C1062 0.930 . S
H1049 C1064 0.960 . S
H1050 C1064 0.960 . S
H1051 C1064 0.960 . S
C1052 H1044 0.929 . S
C1052 C1053 1.377 . S
C1052 C1054 1.384 . S
C1053 C1052 1.377 . S
C1053 C1059 1.390 . S
C1054 H1045 0.930 . S
C1054 C1052 1.384 . S
C1054 C1055 1.372 . S
C1055 C1054 1.372 . S
C1055 C1056 1.400 . S
C1055 C1060 1.490 . S
C1056 H1046 0.930 . S
C1056 C1055 1.400 . S
C1056 C1059 1.386 . S
H1057 C1073 0.930 . S
H1058 C1074 0.931 . S
C1059 H1047 0.929 . S
C1059 C1053 1.390 . S
C1059 C1056 1.386 . S
C1060 C1055 1.490 . S
C1060 C1062 1.395 . S
C1060 C1063 1.403 . S
H1061 C1067 0.930 . S
C1062 H1048 0.930 . S
C1062 C1060 1.395 . S
C1062 C1065 1.403 . S
C1063 C1060 1.403 . S
C1063 C1064 1.524 . S
C1063 C1067 1.400 . S
C1064 H1049 0.960 . S
C1064 H1050 0.960 . S
C1064 H1051 0.960 . S
C1064 C1063 1.524 . S
C1065 C1062 1.403 . S
C1065 C1066 1.392 . S
C1065 C1069 1.495 . S
C1066 C1065 1.392 . S
C1066 C1067 1.385 . S
C1066 C1068 1.478 . S
C1067 H1061 0.930 . S
C1067 C1063 1.400 . S
C1067 C1066 1.385 . S
C1068 C1066 1.478 . S
C1068 C1070 1.381 . S
C1068 C1074 1.383 . S
C1069 C1065 1.495 . S
C1069 H1075 0.959 . S
C1069 H1076 0.961 . S
C1069 H1077 0.960 . S
C1070 C1068 1.381 . S
C1070 C1071 1.394 . S
C1070 H1078 0.930 . S
C1071 C1070 1.394 . S
C1071 C1072 1.383 . S
C1071 H1079 0.929 . S
C1072 C1071 1.383 . S
C1072 C1073 1.377 . S
C1073 H1057 0.930 . S
C1073 C1072 1.377 . S
C1073 C1074 1.379 . S
C1074 H1058 0.931 . S
C1074 C1068 1.383 . S
C1074 C1073 1.379 . S
H1075 C1069 0.959 . S
H1076 C1069 0.961 . S
H1077 C1069 0.960 . S
H1078 C1070 0.930 . S
H1079 C1071 0.929 . S
H1080 C1088 0.929 . S
H1081 C1090 0.930 . S
H1082 C1092 0.930 . S
H1083 C1095 0.929 . S
H1084 C1098 0.930 . S
H1085 C1100 0.960 . S
H1086 C1100 0.960 . S
H1087 C1100 0.960 . S
C1088 H1080 0.929 . S
C1088 C1089 1.377 . S
C1088 C1090 1.384 . S
C1089 C1088 1.377 . S
C1089 C1095 1.390 . S
C1090 H1081 0.930 . S
C1090 C1088 1.384 . S
C1090 C1091 1.372 . S
C1091 C1090 1.372 . S
C1091 C1092 1.400 . S
C1091 C1096 1.490 . S
C1092 H1082 0.930 . S
C1092 C1091 1.400 . S
C1092 C1095 1.386 . S
H1093 C1109 0.930 . S
H1094 C1110 0.931 . S
C1095 H1083 0.929 . S
C1095 C1089 1.390 . S
C1095 C1092 1.386 . S
C1096 C1091 1.490 . S
C1096 C1098 1.395 . S
C1096 C1099 1.403 . S
H1097 C1103 0.930 . S
C1098 H1084 0.930 . S
C1098 C1096 1.395 . S
C1098 C1101 1.403 . S
C1099 C1096 1.403 . S
C1099 C1100 1.524 . S
C1099 C1103 1.400 . S
C1100 H1085 0.960 . S
C1100 H1086 0.960 . S
C1100 H1087 0.960 . S
C1100 C1099 1.524 . S
C1101 C1098 1.403 . S
C1101 C1102 1.392 . S
C1101 C1105 1.495 . S
C1102 C1101 1.392 . S
C1102 C1103 1.385 . S
C1102 C1104 1.478 . S
C1103 H1097 0.930 . S
C1103 C1099 1.400 . S
C1103 C1102 1.385 . S
C1104 C1102 1.478 . S
C1104 C1106 1.381 . S
C1104 C1110 1.383 . S
C1105 C1101 1.495 . S
C1105 H1111 0.959 . S
C1105 H1112 0.961 . S
C1105 H1113 0.960 . S
C1106 C1104 1.381 . S
C1106 C1107 1.394 . S
C1106 H1114 0.930 . S
C1107 C1106 1.394 . S
C1107 C1108 1.383 . S
C1107 H1115 0.929 . S
C1108 C1107 1.383 . S
C1108 C1109 1.377 . S
C1109 H1093 0.930 . S
C1109 C1108 1.377 . S
C1109 C1110 1.379 . S
C1110 H1094 0.931 . S
C1110 C1104 1.383 . S
C1110 C1109 1.379 . S
H1111 C1105 0.959 . S
H1112 C1105 0.961 . S
H1113 C1105 0.960 . S
H1114 C1106 0.930 . S
H1115 C1107 0.929 . S
H1116 C1124 0.929 . S
H1117 C1126 0.930 . S
H1118 C1128 0.930 . S
H1119 C1131 0.929 . S
H1120 C1134 0.930 . S
H1121 C1136 0.960 . S
H1122 C1136 0.960 . S
H1123 C1136 0.960 . S
C1124 H1116 0.929 . S
C1124 C1125 1.377 . S
C1124 C1126 1.384 . S
C1125 C1124 1.377 . S
C1125 C1131 1.390 . S
C1126 H1117 0.930 . S
C1126 C1124 1.384 . S
C1126 C1127 1.372 . S
C1127 C1126 1.372 . S
C1127 C1128 1.400 . S
C1127 C1132 1.490 . S
C1128 H1118 0.930 . S
C1128 C1127 1.400 . S
C1128 C1131 1.386 . S
H1129 C1145 0.930 . S
H1130 C1146 0.931 . S
C1131 H1119 0.929 . S
C1131 C1125 1.390 . S
C1131 C1128 1.386 . S
C1132 C1127 1.490 . S
C1132 C1134 1.395 . S
C1132 C1135 1.403 . S
H1133 C1139 0.930 . S
C1134 H1120 0.930 . S
C1134 C1132 1.395 . S
C1134 C1137 1.403 . S
C1135 C1132 1.403 . S
C1135 C1136 1.524 . S
C1135 C1139 1.400 . S
C1136 H1121 0.960 . S
C1136 H1122 0.960 . S
C1136 H1123 0.960 . S
C1136 C1135 1.524 . S
C1137 C1134 1.403 . S
C1137 C1138 1.392 . S
C1137 C1141 1.495 . S
C1138 C1137 1.392 . S
C1138 C1139 1.385 . S
C1138 C1140 1.478 . S
C1139 H1133 0.930 . S
C1139 C1135 1.400 . S
C1139 C1138 1.385 . S
C1140 C1138 1.478 . S
C1140 C1142 1.381 . S
C1140 C1146 1.383 . S
C1141 C1137 1.495 . S
C1141 H1147 0.959 . S
C1141 H1148 0.961 . S
C1141 H1149 0.960 . S
C1142 C1140 1.381 . S
C1142 C1143 1.394 . S
C1142 H1150 0.930 . S
C1143 C1142 1.394 . S
C1143 C1144 1.383 . S
C1143 H1151 0.929 . S
C1144 C1143 1.383 . S
C1144 C1145 1.377 . S
C1145 H1129 0.930 . S
C1145 C1144 1.377 . S
C1145 C1146 1.379 . S
C1146 H1130 0.931 . S
C1146 C1140 1.383 . S
C1146 C1145 1.379 . S
H1147 C1141 0.959 . S
H1148 C1141 0.961 . S
H1149 C1141 0.960 . S
H1150 C1142 0.930 . S
H1151 C1143 0.929 . S
H1152 C1160 0.929 . S
H1153 C1162 0.930 . S
H1154 C1164 0.930 . S
H1155 C1167 0.929 . S
H1156 C1170 0.930 . S
H1157 C1172 0.960 . S
H1158 C1172 0.960 . S
H1159 C1172 0.960 . S
C1160 H1152 0.929 . S
C1160 C1161 1.377 . S
C1160 C1162 1.384 . S
C1161 C1160 1.377 . S
C1161 C1167 1.390 . S
C1162 H1153 0.930 . S
C1162 C1160 1.384 . S
C1162 C1163 1.372 . S
C1163 C1162 1.372 . S
C1163 C1164 1.400 . S
C1163 C1168 1.490 . S
C1164 H1154 0.930 . S
C1164 C1163 1.400 . S
C1164 C1167 1.386 . S
H1165 C1181 0.930 . S
H1166 C1182 0.931 . S
C1167 H1155 0.929 . S
C1167 C1161 1.390 . S
C1167 C1164 1.386 . S
C1168 C1163 1.490 . S
C1168 C1170 1.395 . S
C1168 C1171 1.403 . S
H1169 C1175 0.930 1_554 S
C1170 H1156 0.930 . S
C1170 C1168 1.395 . S
C1170 C1173 1.403 1_656 S
C1171 C1168 1.403 . S
C1171 C1172 1.524 . S
C1171 C1175 1.400 1_655 S
C1172 H1157 0.960 . S
C1172 H1158 0.960 . S
C1172 H1159 0.960 . S
C1172 C1171 1.524 . S
C1173 C1170 1.403 1_454 S
C1173 C1174 1.392 . S
C1173 C1177 1.495 . S
C1174 C1173 1.392 . S
C1174 C1175 1.385 1_554 S
C1174 C1176 1.478 . S
C1175 H1169 0.930 1_556 S
C1175 C1171 1.400 1_455 S
C1175 C1174 1.385 1_556 S
C1176 C1174 1.478 . S
C1176 C1178 1.381 . S
C1176 C1182 1.383 . S
C1177 C1173 1.495 . S
C1177 H1183 0.959 . S
C1177 H1184 0.961 . S
C1177 H1185 0.960 . S
C1178 C1176 1.381 . S
C1178 C1179 1.394 . S
C1178 H1186 0.930 . S
C1179 C1178 1.394 . S
C1179 C1180 1.383 . S
C1179 H1187 0.929 . S
C1180 C1179 1.383 . S
C1180 C1181 1.377 . S
C1181 H1165 0.930 . S
C1181 C1180 1.377 . S
C1181 C1182 1.379 . S
C1182 H1166 0.931 . S
C1182 C1176 1.383 . S
C1182 C1181 1.379 . S
H1183 C1177 0.959 . S
H1184 C1177 0.961 . S
H1185 C1177 0.960 . S
H1186 C1178 0.930 . S
H1187 C1179 0.929 . S
H1188 C1196 0.929 . S
H1189 C1198 0.930 . S
H1190 C1200 0.930 . S
H1191 C1203 0.929 . S
H1192 C1206 0.930 . S
H1193 C1208 0.960 1_554 S
H1194 C1208 0.960 . S
H1195 C1208 0.960 1_554 S
C1196 H1188 0.929 . S
C1196 C1197 1.377 . S
C1196 C1198 1.384 . S
C1197 C1196 1.377 . S
C1197 C1203 1.390 . S
C1198 H1189 0.930 . S
C1198 C1196 1.384 . S
C1198 C1199 1.372 . S
C1199 C1198 1.372 . S
C1199 C1200 1.400 . S
C1199 C1204 1.490 . S
C1200 H1190 0.930 . S
C1200 C1199 1.400 . S
C1200 C1203 1.386 . S
H1201 C1217 0.930 . S
H1202 C1218 0.931 . S
C1203 H1191 0.929 . S
C1203 C1197 1.390 . S
C1203 C1200 1.386 . S
C1204 C1199 1.490 . S
C1204 C1206 1.395 . S
C1204 C1207 1.403 . S
H1205 C1211 0.930 . S
C1206 H1192 0.930 . S
C1206 C1204 1.395 . S
C1206 C1209 1.403 . S
C1207 C1204 1.403 . S
C1207 C1208 1.524 . S
C1207 C1211 1.400 1_556 S
C1208 H1193 0.960 1_556 S
C1208 H1194 0.960 . S
C1208 H1195 0.960 1_556 S
C1208 C1207 1.524 . S
C1209 C1206 1.403 . S
C1209 C1210 1.392 1_556 S
C1209 C1213 1.495 . S
C1210 C1209 1.392 1_554 S
C1210 C1211 1.385 . S
C1210 C1212 1.478 . S
C1211 H1205 0.930 . S
C1211 C1207 1.400 1_554 S
C1211 C1210 1.385 . S
C1212 C1210 1.478 . S
C1212 C1214 1.381 . S
C1212 C1218 1.383 . S
C1213 C1209 1.495 . S
C1213 H1219 0.959 . S
C1213 H1220 0.961 . S
C1213 H1221 0.960 . S
C1214 C1212 1.381 . S
C1214 C1215 1.394 . S
C1214 H1222 0.915 1_554 S
C1215 C1214 1.394 . S
C1215 C1216 1.383 . S
C1215 H1223 0.929 . S
C1216 C1215 1.383 . S
C1216 C1217 1.377 . S
C1217 H1201 0.930 . S
C1217 C1216 1.377 . S
C1217 C1218 1.379 . S
C1218 H1202 0.931 . S
C1218 C1212 1.383 . S
C1218 C1217 1.379 . S
H1219 C1213 0.959 . S
H1220 C1213 0.961 . S
H1221 C1213 0.960 . S
H1222 C1214 0.915 1_556 S
H1223 C1215 0.929 . S
H1224 C1232 0.929 . S
H1225 C1234 0.930 . S
H1226 C1236 0.930 . S
H1227 C1239 0.929 . S
H1228 C1242 0.930 . S
H1229 C1244 0.960 . S
H1230 C1244 0.960 1_545 S
H1231 C1244 0.960 . S
C1232 H1224 0.929 . S
C1232 C1233 1.377 . S
C1232 C1234 1.384 . S
C1233 C1232 1.377 . S
C1233 C1239 1.390 . S
C1234 H1225 0.930 . S
C1234 C1232 1.384 . S
C1234 C1235 1.372 . S
C1235 C1234 1.372 . S
C1235 C1236 1.400 . S
C1235 C1240 1.490 . S
C1236 H1226 0.930 . S
C1236 C1235 1.400 . S
C1236 C1239 1.386 . S
H1237 C1253 0.930 . S
H1238 C1254 0.931 1_556 S
C1239 H1227 0.929 . S
C1239 C1233 1.390 . S
C1239 C1236 1.386 . S
C1240 C1235 1.490 . S
C1240 C1242 1.395 . S
C1240 C1243 1.403 1_545 S
H1241 C1247 0.930 . S
C1242 H1228 0.930 . S
C1242 C1240 1.395 . S
C1242 C1245 1.403 1_556 S
C1243 C1240 1.403 1_565 S
C1243 C1244 1.524 . S
C1243 C1247 1.400 . S
C1244 H1229 0.960 . S
C1244 H1230 0.960 1_565 S
C1244 H1231 0.960 . S
C1244 C1243 1.524 . S
C1245 C1242 1.403 1_554 S
C1245 C1246 1.392 1_544 S
C1245 C1249 1.495 . S
C1246 C1245 1.392 1_566 S
C1246 C1247 1.385 . S
C1246 C1248 1.478 1_556 S
C1247 H1241 0.930 . S
C1247 C1243 1.400 . S
C1247 C1246 1.385 . S
C1248 C1246 1.478 1_554 S
C1248 C1250 1.381 . S
C1248 C1254 1.383 . S
C1249 C1245 1.495 . S
C1249 H1255 0.959 . S
C1249 H1256 0.961 . S
C1249 H1257 0.960 . S
C1250 C1248 1.381 . S
C1250 C1251 1.394 . S
C1250 H1258 0.930 . S
C1251 C1250 1.394 . S
C1251 C1252 1.383 . S
C1251 H1259 0.929 . S
C1252 C1251 1.383 . S
C1252 C1253 1.377 . S
C1253 H1237 0.930 . S
C1253 C1252 1.377 . S
C1253 C1254 1.379 . S
C1254 H1238 0.931 1_554 S
C1254 C1248 1.383 . S
C1254 C1253 1.379 . S
H1255 C1249 0.959 . S
H1256 C1249 0.961 . S
H1257 C1249 0.960 . S
H1258 C1250 0.930 . S
H1259 C1251 0.929 . S
H1260 C1268 0.929 . S
H1261 C1270 0.930 . S
H1262 C1272 0.930 . S
H1263 C1275 0.929 . S
H1264 C1278 0.929 . S
H1265 C1280 0.960 . S
H1266 C1280 0.960 . S
H1267 C1280 0.960 . S
C1268 H1260 0.929 . S
C1268 C1269 1.377 . S
C1268 C1270 1.384 . S
C1269 C1268 1.377 . S
C1269 C1275 1.390 . S
C1270 H1261 0.930 . S
C1270 C1268 1.384 . S
C1270 C1271 1.372 . S
C1271 C1270 1.372 . S
C1271 C1272 1.400 . S
C1271 C1276 1.490 . S
C1272 H1262 0.930 . S
C1272 C1271 1.400 . S
C1272 C1275 1.386 . S
H1273 C1289 0.930 . S
H1274 C1290 0.931 . S
C1275 H1263 0.929 . S
C1275 C1269 1.390 . S
C1275 C1272 1.386 . S
C1276 C1271 1.490 . S
C1276 C1278 1.398 1_545 S
C1276 C1279 1.403 1_556 S
H1277 C1283 0.930 . S
C1278 H1264 0.929 . S
C1278 C1276 1.398 1_565 S
C1278 C1281 1.401 . S
C1279 C1276 1.403 1_554 S
C1279 C1280 1.524 . S
C1279 C1283 1.400 . S
C1280 H1265 0.960 . S
C1280 H1266 0.960 . S
C1280 H1267 0.960 . S
C1280 C1279 1.524 . S
C1281 C1278 1.401 . S
C1281 C1282 1.392 1_556 S
C1281 C1285 1.495 . S
C1282 C1281 1.392 1_554 S
C1282 C1283 1.385 1_565 S
C1282 C1284 1.478 . S
C1283 H1277 0.930 . S
C1283 C1279 1.400 . S
C1283 C1282 1.385 1_545 S
C1284 C1282 1.478 . S
C1284 C1286 1.381 . S
C1284 C1290 1.383 . S
C1285 C1281 1.495 . S
C1285 H1291 0.959 . S
C1285 H1292 0.961 . S
C1285 H1293 0.960 . S
C1286 C1284 1.381 . S
C1286 C1287 1.394 . S
C1286 H1294 0.930 . S
C1287 C1286 1.394 . S
C1287 C1288 1.383 . S
C1287 H1295 0.929 . S
C1288 C1287 1.383 . S
C1288 C1289 1.377 . S
C1289 H1273 0.930 . S
C1289 C1288 1.377 . S
C1289 C1290 1.379 . S
C1290 H1274 0.931 . S
C1290 C1284 1.383 . S
C1290 C1289 1.379 . S
H1291 C1285 0.959 . S
H1292 C1285 0.961 . S
H1293 C1285 0.960 . S
H1294 C1286 0.930 . S
H1295 C1287 0.929 . S
H1296 C1304 0.929 . S
H1297 C1306 0.930 . S
H1298 C1308 0.930 . S
H1299 C1311 0.929 . S
H1300 C1314 0.930 . S
H1301 C1316 0.960 . S
H1302 C1316 0.960 . S
H1303 C1316 0.960 . S
C1304 H1296 0.929 . S
C1304 C1305 1.377 . S
C1304 C1306 1.384 . S
C1305 C1304 1.377 . S
C1305 C1311 1.390 . S
C1306 H1297 0.930 . S
C1306 C1304 1.384 . S
C1306 C1307 1.372 . S
C1307 C1306 1.372 . S
C1307 C1308 1.400 . S
C1307 C1312 1.490 . S
C1308 H1298 0.930 . S
C1308 C1307 1.400 . S
C1308 C1311 1.386 . S
H1309 C1325 0.930 . S
H1310 C1326 0.931 . S
C1311 H1299 0.929 . S
C1311 C1305 1.390 . S
C1311 C1308 1.386 . S
C1312 C1307 1.490 . S
C1312 C1314 1.395 . S
C1312 C1315 1.403 . S
H1313 C1319 0.930 1_556 S
C1314 H1300 0.930 . S
C1314 C1312 1.395 . S
C1314 C1317 1.403 1_455 S
C1315 C1312 1.403 . S
C1315 C1316 1.524 . S
C1315 C1319 1.400 1_455 S
C1316 H1301 0.960 . S
C1316 H1302 0.960 . S
C1316 H1303 0.960 . S
C1316 C1315 1.524 . S
C1317 C1314 1.403 1_655 S
C1317 C1318 1.392 . S
C1317 C1321 1.495 . S
C1318 C1317 1.392 . S
C1318 C1319 1.385 . S
C1318 C1320 1.478 1_554 S
C1319 H1313 0.930 1_554 S
C1319 C1315 1.400 1_655 S
C1319 C1318 1.385 . S
C1320 C1318 1.478 1_556 S
C1320 C1322 1.381 . S
C1320 C1326 1.383 . S
C1321 C1317 1.495 . S
C1321 H1327 0.959 . S
C1321 H1328 0.961 1_554 S
C1321 H1329 0.960 . S
C1322 C1320 1.381 . S
C1322 C1323 1.394 . S
C1322 H1330 0.930 1_556 S
C1323 C1322 1.394 . S
C1323 C1324 1.383 . S
C1323 H1331 0.929 . S
C1324 C1323 1.383 . S
C1324 C1325 1.377 . S
C1325 H1309 0.930 . S
C1325 C1324 1.377 . S
C1325 C1326 1.379 . S
C1326 H1310 0.931 . S
C1326 C1320 1.383 . S
C1326 C1325 1.379 . S
H1327 C1321 0.959 . S
H1328 C1321 0.961 1_556 S
H1329 C1321 0.960 . S
H1330 C1322 0.930 1_554 S
H1331 C1323 0.929 . S
H1332 C1340 0.929 . S
H1333 C1342 0.930 . S
H1334 C1344 0.930 . S
H1335 C1347 0.929 . S
H1336 C1350 0.930 . S
H1337 C1352 0.960 . S
H1338 C1352 0.960 . S
H1339 C1352 0.960 1_554 S
C1340 H1332 0.929 . S
C1340 C1341 1.377 . S
C1340 C1342 1.384 . S
C1341 C1340 1.377 . S
C1341 C1347 1.390 . S
C1342 H1333 0.930 . S
C1342 C1340 1.384 . S
C1342 C1343 1.372 . S
C1343 C1342 1.372 . S
C1343 C1344 1.400 . S
C1343 C1348 1.490 . S
C1344 H1334 0.930 . S
C1344 C1343 1.400 . S
C1344 C1347 1.386 . S
H1345 C1361 0.930 . S
H1346 C1362 0.931 . S
C1347 H1335 0.929 . S
C1347 C1341 1.390 . S
C1347 C1344 1.386 . S
C1348 C1343 1.490 . S
C1348 C1350 1.395 . S
C1348 C1351 1.403 . S
H1349 C1355 0.930 . S
C1350 H1336 0.930 . S
C1350 C1348 1.395 . S
C1350 C1353 1.403 . S
C1351 C1348 1.403 . S
C1351 C1352 1.524 1_554 S
C1351 C1355 1.400 1_554 S
C1352 H1337 0.960 . S
C1352 H1338 0.960 . S
C1352 H1339 0.960 1_556 S
C1352 C1351 1.524 1_556 S
C1353 C1350 1.403 . S
C1353 C1354 1.392 1_554 S
C1353 C1357 1.495 . S
C1354 C1353 1.392 1_556 S
C1354 C1355 1.385 . S
C1354 C1356 1.478 . S
C1355 H1349 0.930 . S
C1355 C1351 1.400 1_556 S
C1355 C1354 1.385 . S
C1356 C1354 1.478 . S
C1356 C1358 1.381 . S
C1356 C1362 1.383 . S
C1357 C1353 1.495 . S
C1357 H1363 0.959 . S
C1357 H1364 0.961 . S
C1357 H1365 0.978 . S
C1358 C1356 1.381 . S
C1358 C1359 1.394 . S
C1358 H1366 0.930 . S
C1359 C1358 1.394 . S
C1359 C1360 1.383 . S
C1359 H1367 0.929 . S
C1360 C1359 1.383 . S
C1360 C1361 1.377 . S
C1361 H1345 0.930 . S
C1361 C1360 1.377 . S
C1361 C1362 1.379 . S
C1362 H1346 0.931 . S
C1362 C1356 1.383 . S
C1362 C1361 1.379 . S
H1363 C1357 0.959 . S
H1364 C1357 0.961 . S
H1365 C1357 0.978 . S
H1366 C1358 0.930 . S
H1367 C1359 0.929 . S
H1368 C1376 0.929 . S
H1369 C1378 0.930 . S
H1370 C1380 0.930 . S
H1371 C1383 0.929 . S
H1372 C1386 0.930 . S
H1373 C1388 0.960 . S
H1374 C1388 0.960 . S
H1375 C1388 0.960 . S
C1376 H1368 0.929 . S
C1376 C1377 1.377 . S
C1376 C1378 1.384 . S
C1377 C1376 1.377 . S
C1377 C1383 1.390 . S
C1378 H1369 0.930 . S
C1378 C1376 1.384 . S
C1378 C1379 1.372 . S
C1379 C1378 1.372 . S
C1379 C1380 1.400 . S
C1379 C1384 1.490 . S
C1380 H1370 0.930 . S
C1380 C1379 1.400 . S
C1380 C1383 1.386 . S
H1381 C1397 0.930 . S
H1382 C1398 0.931 . S
C1383 H1371 0.929 . S
C1383 C1377 1.390 . S
C1383 C1380 1.386 . S
C1384 C1379 1.490 . S
C1384 C1386 1.395 . S
C1384 C1387 1.403 . S
H1385 C1391 0.930 . S
C1386 H1372 0.930 . S
C1386 C1384 1.395 . S
C1386 C1389 1.403 . S
C1387 C1384 1.403 . S
C1387 C1388 1.524 . S
C1387 C1391 1.400 . S
C1388 H1373 0.960 . S
C1388 H1374 0.960 . S
C1388 H1375 0.960 . S
C1388 C1387 1.524 . S
C1389 C1386 1.403 . S
C1389 C1390 1.392 . S
C1389 C1393 1.495 . S
C1390 C1389 1.392 . S
C1390 C1391 1.385 . S
C1390 C1392 1.478 . S
C1391 H1385 0.930 . S
C1391 C1387 1.400 . S
C1391 C1390 1.385 . S
C1392 C1390 1.478 . S
C1392 C1394 1.381 . S
C1392 C1398 1.383 . S
C1393 C1389 1.495 . S
C1393 H1399 0.959 . S
C1393 H1400 0.961 . S
C1393 H1401 0.960 . S
C1394 C1392 1.381 . S
C1394 C1395 1.394 . S
C1394 H1402 0.930 . S
C1395 C1394 1.394 . S
C1395 C1396 1.383 . S
C1395 H1403 0.929 . S
C1396 C1395 1.383 . S
C1396 C1397 1.377 . S
C1397 H1381 0.930 . S
C1397 C1396 1.377 . S
C1397 C1398 1.379 . S
C1398 H1382 0.931 . S
C1398 C1392 1.383 . S
C1398 C1397 1.379 . S
H1399 C1393 0.959 . S
H1400 C1393 0.961 . S
H1401 C1393 0.960 . S
H1402 C1394 0.930 . S
H1403 C1395 0.929 . S
H1404 C1412 0.929 . S
H1405 C1414 0.930 . S
H1406 C1416 0.930 . S
H1407 C1419 0.929 . S
H1408 C1422 0.930 . S
H1409 C1424 0.960 . S
H1410 C1424 0.960 . S
H1411 C1424 0.960 . S
C1412 H1404 0.929 . S
C1412 C1413 1.377 . S
C1412 C1414 1.384 . S
C1413 C1412 1.377 . S
C1413 C1419 1.390 . S
C1414 H1405 0.930 . S
C1414 C1412 1.384 . S
C1414 C1415 1.372 . S
C1415 C1414 1.372 . S
C1415 C1416 1.400 . S
C1415 C1420 1.490 . S
C1416 H1406 0.930 . S
C1416 C1415 1.400 . S
C1416 C1419 1.386 . S
H1417 C1433 0.930 . S
H1418 C1434 0.931 . S
C1419 H1407 0.929 . S
C1419 C1413 1.390 . S
C1419 C1416 1.386 . S
C1420 C1415 1.490 . S
C1420 C1422 1.395 . S
C1420 C1423 1.403 . S
H1421 C1427 0.930 . S
C1422 H1408 0.930 . S
C1422 C1420 1.395 . S
C1422 C1425 1.403 . S
C1423 C1420 1.403 . S
C1423 C1424 1.524 . S
C1423 C1427 1.400 . S
C1424 H1409 0.960 . S
C1424 H1410 0.960 . S
C1424 H1411 0.960 . S
C1424 C1423 1.524 . S
C1425 C1422 1.403 . S
C1425 C1426 1.392 . S
C1425 C1429 1.495 . S
C1426 C1425 1.392 . S
C1426 C1427 1.385 . S
C1426 C1428 1.478 . S
C1427 H1421 0.930 . S
C1427 C1423 1.400 . S
C1427 C1426 1.385 . S
C1428 C1426 1.478 . S
C1428 C1430 1.381 . S
C1428 C1434 1.383 . S
C1429 C1425 1.495 . S
C1429 H1435 0.959 . S
C1429 H1436 0.961 . S
C1429 H1437 0.960 . S
C1430 C1428 1.381 . S
C1430 C1431 1.394 . S
C1430 H1438 0.930 . S
C1431 C1430 1.394 . S
C1431 C1432 1.383 . S
C1431 H1439 0.929 . S
C1432 C1431 1.383 . S
C1432 C1433 1.377 . S
C1433 H1417 0.930 . S
C1433 C1432 1.377 . S
C1433 C1434 1.379 . S
C1434 H1418 0.931 . S
C1434 C1428 1.383 . S
C1434 C1433 1.379 . S
H1435 C1429 0.959 . S
H1436 C1429 0.961 . S
H1437 C1429 0.960 . S
H1438 C1430 0.930 . S
H1439 C1431 0.929 . S
H1440 C1448 0.929 . S
H1441 C1450 0.930 . S
H1442 C1452 0.930 . S
H1443 C1455 0.929 . S
H1444 C1458 0.930 . S
H1445 C1460 0.960 . S
H1446 C1460 0.960 . S
H1447 C1460 0.960 . S
C1448 H1440 0.929 . S
C1448 C1449 1.377 . S
C1448 C1450 1.384 . S
C1449 C1448 1.377 . S
C1449 C1455 1.390 . S
C1450 H1441 0.930 . S
C1450 C1448 1.384 . S
C1450 C1451 1.372 . S
C1451 C1450 1.372 . S
C1451 C1452 1.400 . S
C1451 C1456 1.490 . S
C1452 H1442 0.930 . S
C1452 C1451 1.400 . S
C1452 C1455 1.386 . S
H1453 C1469 0.930 . S
H1454 C1470 0.931 . S
C1455 H1443 0.929 . S
C1455 C1449 1.390 . S
C1455 C1452 1.386 . S
C1456 C1451 1.490 . S
C1456 C1458 1.395 . S
C1456 C1459 1.403 . S
H1457 C1463 0.930 . S
C1458 H1444 0.930 . S
C1458 C1456 1.395 . S
C1458 C1461 1.403 . S
C1459 C1456 1.403 . S
C1459 C1460 1.524 . S
C1459 C1463 1.400 . S
C1460 H1445 0.960 . S
C1460 H1446 0.960 . S
C1460 H1447 0.960 . S
C1460 C1459 1.524 . S
C1461 C1458 1.403 . S
C1461 C1462 1.392 . S
C1461 C1465 1.495 . S
C1462 C1461 1.392 . S
C1462 C1463 1.385 . S
C1462 C1464 1.478 . S
C1463 H1457 0.930 . S
C1463 C1459 1.400 . S
C1463 C1462 1.385 . S
C1464 C1462 1.478 . S
C1464 C1466 1.381 . S
C1464 C1470 1.383 . S
C1465 C1461 1.495 . S
C1465 H1471 0.959 . S
C1465 H1472 0.961 . S
C1465 H1473 0.960 . S
C1466 C1464 1.381 . S
C1466 C1467 1.394 . S
C1466 H1474 0.930 . S
C1467 C1466 1.394 . S
C1467 C1468 1.383 . S
C1467 H1475 0.929 . S
C1468 C1467 1.383 . S
C1468 C1469 1.377 . S
C1469 H1453 0.930 . S
C1469 C1468 1.377 . S
C1469 C1470 1.379 . S
C1470 H1454 0.931 . S
C1470 C1464 1.383 . S
C1470 C1469 1.379 . S
H1471 C1465 0.959 . S
H1472 C1465 0.961 . S
H1473 C1465 0.960 . S
H1474 C1466 0.930 . S
H1475 C1467 0.929 . S
H1476 C1484 0.929 . S
H1477 C1486 0.930 . S
H1478 C1488 0.930 . S
H1479 C1491 0.929 . S
H1480 C1494 0.930 . S
H1481 C1496 0.960 . S
H1482 C1496 0.960 . S
H1483 C1496 0.960 . S
C1484 H1476 0.929 . S
C1484 C1485 1.377 . S
C1484 C1486 1.384 . S
C1485 C1484 1.377 . S
C1485 C1491 1.390 . S
C1486 H1477 0.930 . S
C1486 C1484 1.384 . S
C1486 C1487 1.372 . S
C1487 C1486 1.372 . S
C1487 C1488 1.400 . S
C1487 C1492 1.490 . S
C1488 H1478 0.930 . S
C1488 C1487 1.400 . S
C1488 C1491 1.386 . S
H1489 C1505 0.930 . S
H1490 C1506 0.931 . S
C1491 H1479 0.929 . S
C1491 C1485 1.390 . S
C1491 C1488 1.386 . S
C1492 C1487 1.490 . S
C1492 C1494 1.395 . S
C1492 C1495 1.403 . S
H1493 C1499 0.930 . S
C1494 H1480 0.930 . S
C1494 C1492 1.395 . S
C1494 C1497 1.403 . S
C1495 C1492 1.403 . S
C1495 C1496 1.524 . S
C1495 C1499 1.400 . S
C1496 H1481 0.960 . S
C1496 H1482 0.960 . S
C1496 H1483 0.960 . S
C1496 C1495 1.524 . S
C1497 C1494 1.403 . S
C1497 C1498 1.392 . S
C1497 C1501 1.495 . S
C1498 C1497 1.392 . S
C1498 C1499 1.385 . S
C1498 C1500 1.478 . S
C1499 H1493 0.930 . S
C1499 C1495 1.400 . S
C1499 C1498 1.385 . S
C1500 C1498 1.478 . S
C1500 C1502 1.381 . S
C1500 C1506 1.383 . S
C1501 C1497 1.495 . S
C1501 H1507 0.959 . S
C1501 H1508 0.961 . S
C1501 H1509 0.960 . S
C1502 C1500 1.381 . S
C1502 C1503 1.394 . S
C1502 H1510 0.930 . S
C1503 C1502 1.394 . S
C1503 C1504 1.383 . S
C1503 H1511 0.929 . S
C1504 C1503 1.383 . S
C1504 C1505 1.377 . S
C1505 H1489 0.930 . S
C1505 C1504 1.377 . S
C1505 C1506 1.379 . S
C1506 H1490 0.931 . S
C1506 C1500 1.383 . S
C1506 C1505 1.379 . S
H1507 C1501 0.959 . S
H1508 C1501 0.961 . S
H1509 C1501 0.960 . S
H1510 C1502 0.930 . S
H1511 C1503 0.929 . S
H1512 C1520 0.929 . S
H1513 C1522 0.930 . S
H1514 C1524 0.930 . S
H1515 C1527 0.929 . S
H1516 C1530 0.930 . S
H1517 C1532 0.960 . S
H1518 C1532 0.960 . S
H1519 C1532 0.960 . S
C1520 H1512 0.929 . S
C1520 C1521 1.377 . S
C1520 C1522 1.384 . S
C1521 C1520 1.377 . S
C1521 C1527 1.390 . S
C1522 H1513 0.930 . S
C1522 C1520 1.384 . S
C1522 C1523 1.372 . S
C1523 C1522 1.372 . S
C1523 C1524 1.400 . S
C1523 C1528 1.490 . S
C1524 H1514 0.930 . S
C1524 C1523 1.400 . S
C1524 C1527 1.386 . S
H1525 C1541 0.930 . S
H1526 C1542 0.931 . S
C1527 H1515 0.929 . S
C1527 C1521 1.390 . S
C1527 C1524 1.386 . S
C1528 C1523 1.490 . S
C1528 C1530 1.395 . S
C1528 C1531 1.403 . S
H1529 C1535 0.930 . S
C1530 H1516 0.930 . S
C1530 C1528 1.395 . S
C1530 C1533 1.403 . S
C1531 C1528 1.403 . S
C1531 C1532 1.524 . S
C1531 C1535 1.400 . S
C1532 H1517 0.960 . S
C1532 H1518 0.960 . S
C1532 H1519 0.960 . S
C1532 C1531 1.524 . S
C1533 C1530 1.403 . S
C1533 C1534 1.392 . S
C1533 C1537 1.495 . S
C1534 C1533 1.392 . S
C1534 C1535 1.385 . S
C1534 C1536 1.478 . S
C1535 H1529 0.930 . S
C1535 C1531 1.400 . S
C1535 C1534 1.385 . S
C1536 C1534 1.478 . S
C1536 C1538 1.381 . S
C1536 C1542 1.383 . S
C1537 C1533 1.495 . S
C1537 H1543 0.959 . S
C1537 H1544 0.961 . S
C1537 H1545 0.960 . S
C1538 C1536 1.381 . S
C1538 C1539 1.394 . S
C1538 H1546 0.930 . S
C1539 C1538 1.394 . S
C1539 C1540 1.383 . S
C1539 H1547 0.929 . S
C1540 C1539 1.383 . S
C1540 C1541 1.377 . S
C1541 H1525 0.930 . S
C1541 C1540 1.377 . S
C1541 C1542 1.379 . S
C1542 H1526 0.931 . S
C1542 C1536 1.383 . S
C1542 C1541 1.379 . S
H1543 C1537 0.959 . S
H1544 C1537 0.961 . S
H1545 C1537 0.960 . S
H1546 C1538 0.930 . S
H1547 C1539 0.929 . S
H1548 C1556 0.929 . S
H1549 C1558 0.930 . S
H1550 C1560 0.930 . S
H1551 C1563 0.929 . S
H1552 C1566 0.930 . S
H1553 C1568 0.960 . S
H1554 C1568 0.960 . S
H1555 C1568 0.960 . S
C1556 H1548 0.929 . S
C1556 C1557 1.377 . S
C1556 C1558 1.384 . S
C1557 C1556 1.377 . S
C1557 C1563 1.390 . S
C1558 H1549 0.930 . S
C1558 C1556 1.384 . S
C1558 C1559 1.372 . S
C1559 C1558 1.372 . S
C1559 C1560 1.400 . S
C1559 C1564 1.490 . S
C1560 H1550 0.930 . S
C1560 C1559 1.400 . S
C1560 C1563 1.386 . S
H1561 C1577 0.930 . S
H1562 C1578 0.931 . S
C1563 H1551 0.929 . S
C1563 C1557 1.390 . S
C1563 C1560 1.386 . S
C1564 C1559 1.490 . S
C1564 C1566 1.395 . S
C1564 C1567 1.403 . S
H1565 C1571 0.930 . S
C1566 H1552 0.930 . S
C1566 C1564 1.395 . S
C1566 C1569 1.403 . S
C1567 C1564 1.403 . S
C1567 C1568 1.524 . S
C1567 C1571 1.400 . S
C1568 H1553 0.960 . S
C1568 H1554 0.960 . S
C1568 H1555 0.960 . S
C1568 C1567 1.524 . S
C1569 C1566 1.403 . S
C1569 C1570 1.392 . S
C1569 C1573 1.495 . S
C1570 C1569 1.392 . S
C1570 C1571 1.385 . S
C1570 C1572 1.478 . S
C1571 H1565 0.930 . S
C1571 C1567 1.400 . S
C1571 C1570 1.385 . S
C1572 C1570 1.478 . S
C1572 C1574 1.381 . S
C1572 C1578 1.383 . S
C1573 C1569 1.495 . S
C1573 H1579 0.959 . S
C1573 H1580 0.961 . S
C1573 H1581 0.960 . S
C1574 C1572 1.381 . S
C1574 C1575 1.394 . S
C1574 H1582 0.930 . S
C1575 C1574 1.394 . S
C1575 C1576 1.383 . S
C1575 H1583 0.929 . S
C1576 C1575 1.383 . S
C1576 C1577 1.377 . S
C1577 H1561 0.930 . S
C1577 C1576 1.377 . S
C1577 C1578 1.379 . S
C1578 H1562 0.931 . S
C1578 C1572 1.383 . S
C1578 C1577 1.379 . S
H1579 C1573 0.959 . S
H1580 C1573 0.961 . S
H1581 C1573 0.960 . S
H1582 C1574 0.930 . S
H1583 C1575 0.929 . S
H1584 C1592 0.929 . S
H1585 C1594 0.930 . S
H1586 C1596 0.930 . S
H1587 C1599 0.929 . S
H1588 C1602 0.930 . S
H1589 C1604 0.960 . S
H1590 C1604 0.960 . S
H1591 C1604 0.960 . S
C1592 H1584 0.929 . S
C1592 C1593 1.377 . S
C1592 C1594 1.384 . S
C1593 C1592 1.377 . S
C1593 C1599 1.390 . S
C1594 H1585 0.930 . S
C1594 C1592 1.384 . S
C1594 C1595 1.372 . S
C1595 C1594 1.372 . S
C1595 C1596 1.400 . S
C1595 C1600 1.490 . S
C1596 H1586 0.930 . S
C1596 C1595 1.400 . S
C1596 C1599 1.386 . S
H1597 C1613 0.930 . S
H1598 C1614 0.931 . S
C1599 H1587 0.929 . S
C1599 C1593 1.390 . S
C1599 C1596 1.386 . S
C1600 C1595 1.490 . S
C1600 C1602 1.395 . S
C1600 C1603 1.403 . S
H1601 C1607 0.930 . S
C1602 H1588 0.930 . S
C1602 C1600 1.395 . S
C1602 C1605 1.403 . S
C1603 C1600 1.403 . S
C1603 C1604 1.524 . S
C1603 C1607 1.400 . S
C1604 H1589 0.960 . S
C1604 H1590 0.960 . S
C1604 H1591 0.960 . S
C1604 C1603 1.524 . S
C1605 C1602 1.403 . S
C1605 C1606 1.392 . S
C1605 C1609 1.495 . S
C1606 C1605 1.392 . S
C1606 C1607 1.385 . S
C1606 C1608 1.478 . S
C1607 H1601 0.930 . S
C1607 C1603 1.400 . S
C1607 C1606 1.385 . S
C1608 C1606 1.478 . S
C1608 C1610 1.381 . S
C1608 C1614 1.383 . S
C1609 C1605 1.495 . S
C1609 H1615 0.959 . S
C1609 H1616 0.961 . S
C1609 H1617 0.960 . S
C1610 C1608 1.381 . S
C1610 C1611 1.394 . S
C1610 H1618 0.930 . S
C1611 C1610 1.394 . S
C1611 C1612 1.383 . S
C1611 H1619 0.929 . S
C1612 C1611 1.383 . S
C1612 C1613 1.377 . S
C1613 H1597 0.930 . S
C1613 C1612 1.377 . S
C1613 C1614 1.379 . S
C1614 H1598 0.931 . S
C1614 C1608 1.383 . S
C1614 C1613 1.379 . S
H1615 C1609 0.959 . S
H1616 C1609 0.961 . S
H1617 C1609 0.960 . S
H1618 C1610 0.930 . S
H1619 C1611 0.929 . S
H1620 C1628 0.929 . S
H1621 C1630 0.930 . S
H1622 C1632 0.930 . S
H1623 C1635 0.929 . S
H1624 C1638 0.930 . S
H1625 C1640 0.960 . S
H1626 C1640 0.960 . S
H1627 C1640 0.960 . S
C1628 H1620 0.929 . S
C1628 C1629 1.377 . S
C1628 C1630 1.384 . S
C1629 C1628 1.377 . S
C1629 C1635 1.390 . S
C1630 H1621 0.930 . S
C1630 C1628 1.384 . S
C1630 C1631 1.372 . S
C1631 C1630 1.372 . S
C1631 C1632 1.400 . S
C1631 C1636 1.490 . S
C1632 H1622 0.930 . S
C1632 C1631 1.400 . S
C1632 C1635 1.386 . S
H1633 C1649 0.930 . S
H1634 C1650 0.931 . S
C1635 H1623 0.929 . S
C1635 C1629 1.390 . S
C1635 C1632 1.386 . S
C1636 C1631 1.490 . S
C1636 C1638 1.395 . S
C1636 C1639 1.403 . S
H1637 C1643 0.930 . S
C1638 H1624 0.930 . S
C1638 C1636 1.395 . S
C1638 C1641 1.403 . S
C1639 C1636 1.403 . S
C1639 C1640 1.524 . S
C1639 C1643 1.400 . S
C1640 H1625 0.960 . S
C1640 H1626 0.960 . S
C1640 H1627 0.960 . S
C1640 C1639 1.524 . S
C1641 C1638 1.403 . S
C1641 C1642 1.392 . S
C1641 C1645 1.495 . S
C1642 C1641 1.392 . S
C1642 C1643 1.385 . S
C1642 C1644 1.478 . S
C1643 H1637 0.930 . S
C1643 C1639 1.400 . S
C1643 C1642 1.385 . S
C1644 C1642 1.478 . S
C1644 C1646 1.381 . S
C1644 C1650 1.383 . S
C1645 C1641 1.495 . S
C1645 H1651 0.959 . S
C1645 H1652 0.961 . S
C1645 H1653 0.960 . S
C1646 C1644 1.381 . S
C1646 C1647 1.394 . S
C1646 H1654 0.930 . S
C1647 C1646 1.394 . S
C1647 C1648 1.383 . S
C1647 H1655 0.929 . S
C1648 C1647 1.383 . S
C1648 C1649 1.377 . S
C1649 H1633 0.930 . S
C1649 C1648 1.377 . S
C1649 C1650 1.379 . S
C1650 H1634 0.931 . S
C1650 C1644 1.383 . S
C1650 C1649 1.379 . S
H1651 C1645 0.959 . S
H1652 C1645 0.961 . S
H1653 C1645 0.960 . S
H1654 C1646 0.930 . S
H1655 C1647 0.929 . S
H1656 C1664 0.929 . S
H1657 C1666 0.930 . S
H1658 C1668 0.930 . S
H1659 C1671 0.929 . S
H1660 C1674 0.930 . S
H1661 C1676 0.960 . S
H1662 C1676 0.960 . S
H1663 C1676 0.960 . S
C1664 H1656 0.929 . S
C1664 C1665 1.377 . S
C1664 C1666 1.384 . S
C1665 C1664 1.377 . S
C1665 C1671 1.390 . S
C1666 H1657 0.930 . S
C1666 C1664 1.384 . S
C1666 C1667 1.372 . S
C1667 C1666 1.372 . S
C1667 C1668 1.400 . S
C1667 C1672 1.490 . S
C1668 H1658 0.930 . S
C1668 C1667 1.400 . S
C1668 C1671 1.386 . S
H1669 C1685 0.930 . S
H1670 C1686 0.931 . S
C1671 H1659 0.929 . S
C1671 C1665 1.390 . S
C1671 C1668 1.386 . S
C1672 C1667 1.490 . S
C1672 C1674 1.395 . S
C1672 C1675 1.403 . S
H1673 C1679 0.930 . S
C1674 H1660 0.930 . S
C1674 C1672 1.395 . S
C1674 C1677 1.403 . S
C1675 C1672 1.403 . S
C1675 C1676 1.524 . S
C1675 C1679 1.400 . S
C1676 H1661 0.960 . S
C1676 H1662 0.960 . S
C1676 H1663 0.960 . S
C1676 C1675 1.524 . S
C1677 C1674 1.403 . S
C1677 C1678 1.392 . S
C1677 C1681 1.495 . S
C1678 C1677 1.392 . S
C1678 C1679 1.385 . S
C1678 C1680 1.478 . S
C1679 H1673 0.930 . S
C1679 C1675 1.400 . S
C1679 C1678 1.385 . S
C1680 C1678 1.478 . S
C1680 C1682 1.381 . S
C1680 C1686 1.383 . S
C1681 C1677 1.495 . S
C1681 H1687 0.959 . S
C1681 H1688 0.961 . S
C1681 H1689 0.960 . S
C1682 C1680 1.381 . S
C1682 C1683 1.394 . S
C1682 H1690 0.930 . S
C1683 C1682 1.394 . S
C1683 C1684 1.383 . S
C1683 H1691 0.929 . S
C1684 C1683 1.383 . S
C1684 C1685 1.377 . S
C1685 H1669 0.930 . S
C1685 C1684 1.377 . S
C1685 C1686 1.379 . S
C1686 H1670 0.931 . S
C1686 C1680 1.383 . S
C1686 C1685 1.379 . S
H1687 C1681 0.959 . S
H1688 C1681 0.961 . S
H1689 C1681 0.960 . S
H1690 C1682 0.930 . S
H1691 C1683 0.929 . S
H1692 C1700 0.929 . S
H1693 C1702 0.930 . S
H1694 C1704 0.930 . S
H1695 C1707 0.929 . S
H1696 C1710 0.930 . S
H1697 C1712 0.960 . S
H1698 C1712 0.960 . S
H1699 C1712 0.960 . S
C1700 H1692 0.929 . S
C1700 C1701 1.377 . S
C1700 C1702 1.384 . S
C1701 C1700 1.377 . S
C1701 C1707 1.390 . S
C1702 H1693 0.930 . S
C1702 C1700 1.384 . S
C1702 C1703 1.372 . S
C1703 C1702 1.372 . S
C1703 C1704 1.400 . S
C1703 C1708 1.490 . S
C1704 H1694 0.930 . S
C1704 C1703 1.400 . S
C1704 C1707 1.386 . S
H1705 C1721 0.930 . S
H1706 C1722 0.931 . S
C1707 H1695 0.929 . S
C1707 C1701 1.390 . S
C1707 C1704 1.386 . S
C1708 C1703 1.490 . S
C1708 C1710 1.395 . S
C1708 C1711 1.403 . S
H1709 C1715 0.930 . S
C1710 H1696 0.930 . S
C1710 C1708 1.395 . S
C1710 C1713 1.403 . S
C1711 C1708 1.403 . S
C1711 C1712 1.524 . S
C1711 C1715 1.400 . S
C1712 H1697 0.960 . S
C1712 H1698 0.960 . S
C1712 H1699 0.960 . S
C1712 C1711 1.524 . S
C1713 C1710 1.403 . S
C1713 C1714 1.392 . S
C1713 C1717 1.495 . S
C1714 C1713 1.392 . S
C1714 C1715 1.385 . S
C1714 C1716 1.478 . S
C1715 H1709 0.930 . S
C1715 C1711 1.400 . S
C1715 C1714 1.385 . S
C1716 C1714 1.478 . S
C1716 C1718 1.381 . S
C1716 C1722 1.383 . S
C1717 C1713 1.495 . S
C1717 H1723 0.959 . S
C1717 H1724 0.961 . S
C1717 H1725 0.960 . S
C1718 C1716 1.381 . S
C1718 C1719 1.394 . S
C1718 H1726 0.930 . S
C1719 C1718 1.394 . S
C1719 C1720 1.383 . S
C1719 H1727 0.929 . S
C1720 C1719 1.383 . S
C1720 C1721 1.377 . S
C1721 H1705 0.930 . S
C1721 C1720 1.377 . S
C1721 C1722 1.379 . S
C1722 H1706 0.931 . S
C1722 C1716 1.383 . S
C1722 C1721 1.379 . S
H1723 C1717 0.959 . S
H1724 C1717 0.961 . S
H1725 C1717 0.960 . S
H1726 C1718 0.930 . S
H1727 C1719 0.929 . S
H1728 C1736 0.929 . S
H1729 C1738 0.930 . S
H1730 C1740 0.930 . S
H1731 C1743 0.929 . S
H1732 C1746 0.930 . S
H1733 C1748 0.960 . S
H1734 C1748 0.960 . S
H1735 C1748 0.960 . S
C1736 H1728 0.929 . S
C1736 C1737 1.377 . S
C1736 C1738 1.384 . S
C1737 C1736 1.377 . S
C1737 C1743 1.390 . S
C1738 H1729 0.930 . S
C1738 C1736 1.384 . S
C1738 C1739 1.372 . S
C1739 C1738 1.372 . S
C1739 C1740 1.400 . S
C1739 C1744 1.490 . S
C1740 H1730 0.930 . S
C1740 C1739 1.400 . S
C1740 C1743 1.386 . S
H1741 C1757 0.930 . S
H1742 C1758 0.931 . S
C1743 H1731 0.929 . S
C1743 C1737 1.390 . S
C1743 C1740 1.386 . S
C1744 C1739 1.490 . S
C1744 C1746 1.395 . S
C1744 C1747 1.403 . S
H1745 C1751 0.930 . S
C1746 H1732 0.930 . S
C1746 C1744 1.395 . S
C1746 C1749 1.403 . S
C1747 C1744 1.403 . S
C1747 C1748 1.524 . S
C1747 C1751 1.400 . S
C1748 H1733 0.960 . S
C1748 H1734 0.960 . S
C1748 H1735 0.960 . S
C1748 C1747 1.524 . S
C1749 C1746 1.403 . S
C1749 C1750 1.392 . S
C1749 C1753 1.495 . S
C1750 C1749 1.392 . S
C1750 C1751 1.385 . S
C1750 C1752 1.478 . S
C1751 H1745 0.930 . S
C1751 C1747 1.400 . S
C1751 C1750 1.385 . S
C1752 C1750 1.478 . S
C1752 C1754 1.381 . S
C1752 C1758 1.383 . S
C1753 C1749 1.495 . S
C1753 H1759 0.959 . S
C1753 H1760 0.961 . S
C1753 H1761 0.960 . S
C1754 C1752 1.381 . S
C1754 C1755 1.394 . S
C1754 H1762 0.930 . S
C1755 C1754 1.394 . S
C1755 C1756 1.383 . S
C1755 H1763 0.929 . S
C1756 C1755 1.383 . S
C1756 C1757 1.377 . S
C1757 H1741 0.930 . S
C1757 C1756 1.377 . S
C1757 C1758 1.379 . S
C1758 H1742 0.931 . S
C1758 C1752 1.383 . S
C1758 C1757 1.379 . S
H1759 C1753 0.959 . S
H1760 C1753 0.961 . S
H1761 C1753 0.960 . S
H1762 C1754 0.930 . S
H1763 C1755 0.929 . S
H1764 C1772 0.929 . S
H1765 C1774 0.930 . S
H1766 C1776 0.930 . S
H1767 C1779 0.929 . S
H1768 C1782 0.930 . S
H1769 C1784 0.960 . S
H1770 C1784 0.960 . S
H1771 C1784 0.960 . S
C1772 H1764 0.929 . S
C1772 C1773 1.377 . S
C1772 C1774 1.384 . S
C1773 C1772 1.377 . S
C1773 C1779 1.390 . S
C1774 H1765 0.930 . S
C1774 C1772 1.384 . S
C1774 C1775 1.372 . S
C1775 C1774 1.372 . S
C1775 C1776 1.400 . S
C1775 C1780 1.490 . S
C1776 H1766 0.930 . S
C1776 C1775 1.400 . S
C1776 C1779 1.386 . S
H1777 C1793 0.930 . S
H1778 C1794 0.931 . S
C1779 H1767 0.929 . S
C1779 C1773 1.390 . S
C1779 C1776 1.386 . S
C1780 C1775 1.490 . S
C1780 C1782 1.395 . S
C1780 C1783 1.403 . S
H1781 C1787 0.930 . S
C1782 H1768 0.930 . S
C1782 C1780 1.395 . S
C1782 C1785 1.403 . S
C1783 C1780 1.403 . S
C1783 C1784 1.524 . S
C1783 C1787 1.400 . S
C1784 H1769 0.960 . S
C1784 H1770 0.960 . S
C1784 H1771 0.960 . S
C1784 C1783 1.524 . S
C1785 C1782 1.403 . S
C1785 C1786 1.392 . S
C1785 C1789 1.495 . S
C1786 C1785 1.392 . S
C1786 C1787 1.385 . S
C1786 C1788 1.478 . S
C1787 H1781 0.930 . S
C1787 C1783 1.400 . S
C1787 C1786 1.385 . S
C1788 C1786 1.478 . S
C1788 C1790 1.381 . S
C1788 C1794 1.383 . S
C1789 C1785 1.495 . S
C1789 H1795 0.959 . S
C1789 H1796 0.961 . S
C1789 H1797 0.960 . S
C1790 C1788 1.381 . S
C1790 C1791 1.394 . S
C1790 H1798 0.930 . S
C1791 C1790 1.394 . S
C1791 C1792 1.383 . S
C1791 H1799 0.929 . S
C1792 C1791 1.383 . S
C1792 C1793 1.377 . S
C1793 H1777 0.930 . S
C1793 C1792 1.377 . S
C1793 C1794 1.379 . S
C1794 H1778 0.931 . S
C1794 C1788 1.383 . S
C1794 C1793 1.379 . S
H1795 C1789 0.959 . S
H1796 C1789 0.961 . S
H1797 C1789 0.960 . S
H1798 C1790 0.930 . S
H1799 C1791 0.929 . S
H1800 C1808 0.929 . S
H1801 C1810 0.930 . S
H1802 C1812 0.930 . S
H1803 C1815 0.929 . S
H1804 C1818 0.930 . S
H1805 C1820 0.960 . S
H1806 C1820 0.960 . S
H1807 C1820 0.960 . S
C1808 H1800 0.929 . S
C1808 C1809 1.377 . S
C1808 C1810 1.384 . S
C1809 C1808 1.377 . S
C1809 C1815 1.390 . S
C1810 H1801 0.930 . S
C1810 C1808 1.384 . S
C1810 C1811 1.372 . S
C1811 C1810 1.372 . S
C1811 C1812 1.400 . S
C1811 C1816 1.490 . S
C1812 H1802 0.930 . S
C1812 C1811 1.400 . S
C1812 C1815 1.386 . S
H1813 C1829 0.930 . S
H1814 C1830 0.931 . S
C1815 H1803 0.929 . S
C1815 C1809 1.390 . S
C1815 C1812 1.386 . S
C1816 C1811 1.490 . S
C1816 C1818 1.395 . S
C1816 C1819 1.403 . S
H1817 C1823 0.930 . S
C1818 H1804 0.930 . S
C1818 C1816 1.395 . S
C1818 C1821 1.403 . S
C1819 C1816 1.403 . S
C1819 C1820 1.524 . S
C1819 C1823 1.400 . S
C1820 H1805 0.960 . S
C1820 H1806 0.960 . S
C1820 H1807 0.960 . S
C1820 C1819 1.524 . S
C1821 C1818 1.403 . S
C1821 C1822 1.392 . S
C1821 C1825 1.495 . S
C1822 C1821 1.392 . S
C1822 C1823 1.385 . S
C1822 C1824 1.478 . S
C1823 H1817 0.930 . S
C1823 C1819 1.400 . S
C1823 C1822 1.385 . S
C1824 C1822 1.478 . S
C1824 C1826 1.381 . S
C1824 C1830 1.383 . S
C1825 C1821 1.495 . S
C1825 H1831 0.959 . S
C1825 H1832 0.961 . S
C1825 H1833 0.960 . S
C1826 C1824 1.381 . S
C1826 C1827 1.394 . S
C1826 H1834 0.930 . S
C1827 C1826 1.394 . S
C1827 C1828 1.383 . S
C1827 H1835 0.929 . S
C1828 C1827 1.383 . S
C1828 C1829 1.377 . S
C1829 H1813 0.930 . S
C1829 C1828 1.377 . S
C1829 C1830 1.379 . S
C1830 H1814 0.931 . S
C1830 C1824 1.383 . S
C1830 C1829 1.379 . S
H1831 C1825 0.959 . S
H1832 C1825 0.961 . S
H1833 C1825 0.960 . S
H1834 C1826 0.930 . S
H1835 C1827 0.929 . S
H1836 C1844 0.929 . S
H1837 C1846 0.930 . S
H1838 C1848 0.930 . S
H1839 C1851 0.929 . S
H1840 C1854 0.930 . S
H1841 C1856 0.960 . S
H1842 C1856 0.960 . S
H1843 C1856 0.960 . S
C1844 H1836 0.929 . S
C1844 C1845 1.377 . S
C1844 C1846 1.384 . S
C1845 C1844 1.377 . S
C1845 C1851 1.390 . S
C1846 H1837 0.930 . S
C1846 C1844 1.384 . S
C1846 C1847 1.372 . S
C1847 C1846 1.372 . S
C1847 C1848 1.400 . S
C1847 C1852 1.490 . S
C1848 H1838 0.930 . S
C1848 C1847 1.400 . S
C1848 C1851 1.386 . S
H1849 C1865 0.930 . S
H1850 C1866 0.931 . S
C1851 H1839 0.929 . S
C1851 C1845 1.390 . S
C1851 C1848 1.386 . S
C1852 C1847 1.490 . S
C1852 C1854 1.395 . S
C1852 C1855 1.403 . S
H1853 C1859 0.930 . S
C1854 H1840 0.930 . S
C1854 C1852 1.395 . S
C1854 C1857 1.403 . S
C1855 C1852 1.403 . S
C1855 C1856 1.524 . S
C1855 C1859 1.400 . S
C1856 H1841 0.960 . S
C1856 H1842 0.960 . S
C1856 H1843 0.960 . S
C1856 C1855 1.524 . S
C1857 C1854 1.403 . S
C1857 C1858 1.392 . S
C1857 C1861 1.495 . S
C1858 C1857 1.392 . S
C1858 C1859 1.385 . S
C1858 C1860 1.478 . S
C1859 H1853 0.930 . S
C1859 C1855 1.400 . S
C1859 C1858 1.385 . S
C1860 C1858 1.478 . S
C1860 C1862 1.381 . S
C1860 C1866 1.383 . S
C1861 C1857 1.495 . S
C1861 H1867 0.959 . S
C1861 H1868 0.961 . S
C1861 H1869 0.960 . S
C1862 C1860 1.381 . S
C1862 C1863 1.394 . S
C1862 H1870 0.930 . S
C1863 C1862 1.394 . S
C1863 C1864 1.383 . S
C1863 H1871 0.929 . S
C1864 C1863 1.383 . S
C1864 C1865 1.377 . S
C1865 H1849 0.930 . S
C1865 C1864 1.377 . S
C1865 C1866 1.379 . S
C1866 H1850 0.931 . S
C1866 C1860 1.383 . S
C1866 C1865 1.379 . S
H1867 C1861 0.959 . S
H1868 C1861 0.961 . S
H1869 C1861 0.960 . S
H1870 C1862 0.930 . S
H1871 C1863 0.929 . S
H1872 C1880 0.929 . S
H1873 C1882 0.930 . S
H1874 C1884 0.930 . S
H1875 C1887 0.929 . S
H1876 C1890 0.930 . S
H1877 C1892 0.960 . S
H1878 C1892 0.960 . S
H1879 C1892 0.960 . S
C1880 H1872 0.929 . S
C1880 C1881 1.377 . S
C1880 C1882 1.384 . S
C1881 C1880 1.377 . S
C1881 C1887 1.390 . S
C1882 H1873 0.930 . S
C1882 C1880 1.384 . S
C1882 C1883 1.372 . S
C1883 C1882 1.372 . S
C1883 C1884 1.400 . S
C1883 C1888 1.490 . S
C1884 H1874 0.930 . S
C1884 C1883 1.400 . S
C1884 C1887 1.386 . S
H1885 C1901 0.930 . S
H1886 C1902 0.931 . S
C1887 H1875 0.929 . S
C1887 C1881 1.390 . S
C1887 C1884 1.386 . S
C1888 C1883 1.490 . S
C1888 C1890 1.395 . S
C1888 C1891 1.403 . S
H1889 C1895 0.930 . S
C1890 H1876 0.930 . S
C1890 C1888 1.395 . S
C1890 C1893 1.403 . S
C1891 C1888 1.403 . S
C1891 C1892 1.524 . S
C1891 C1895 1.400 . S
C1892 H1877 0.960 . S
C1892 H1878 0.960 . S
C1892 H1879 0.960 . S
C1892 C1891 1.524 . S
C1893 C1890 1.403 . S
C1893 C1894 1.392 . S
C1893 C1897 1.495 . S
C1894 C1893 1.392 . S
C1894 C1895 1.385 . S
C1894 C1896 1.478 . S
C1895 H1889 0.930 . S
C1895 C1891 1.400 . S
C1895 C1894 1.385 . S
C1896 C1894 1.478 . S
C1896 C1898 1.381 . S
C1896 C1902 1.383 . S
C1897 C1893 1.495 . S
C1897 H1903 0.959 . S
C1897 H1904 0.961 . S
C1897 H1905 0.960 . S
C1898 C1896 1.381 . S
C1898 C1899 1.394 . S
C1898 H1906 0.930 . S
C1899 C1898 1.394 . S
C1899 C1900 1.383 . S
C1899 H1907 0.929 . S
C1900 C1899 1.383 . S
C1900 C1901 1.377 . S
C1901 H1885 0.930 . S
C1901 C1900 1.377 . S
C1901 C1902 1.379 . S
C1902 H1886 0.931 . S
C1902 C1896 1.383 . S
C1902 C1901 1.379 . S
H1903 C1897 0.959 . S
H1904 C1897 0.961 . S
H1905 C1897 0.960 . S
H1906 C1898 0.930 . S
H1907 C1899 0.929 . S
H1908 C1916 0.929 . S
H1909 C1918 0.930 . S
H1910 C1920 0.930 . S
H1911 C1923 0.929 . S
H1912 C1926 0.930 . S
H1913 C1928 0.960 . S
H1914 C1928 0.960 . S
H1915 C1928 0.960 . S
C1916 H1908 0.929 . S
C1916 C1917 1.377 . S
C1916 C1918 1.384 . S
C1917 C1916 1.377 . S
C1917 C1923 1.390 . S
C1918 H1909 0.930 . S
C1918 C1916 1.384 . S
C1918 C1919 1.372 . S
C1919 C1918 1.372 . S
C1919 C1920 1.400 . S
C1919 C1924 1.490 . S
C1920 H1910 0.930 . S
C1920 C1919 1.400 . S
C1920 C1923 1.386 . S
H1921 C1937 0.930 . S
H1922 C1938 0.931 . S
C1923 H1911 0.929 . S
C1923 C1917 1.390 . S
C1923 C1920 1.386 . S
C1924 C1919 1.490 . S
C1924 C1926 1.395 . S
C1924 C1927 1.403 . S
H1925 C1931 0.930 . S
C1926 H1912 0.930 . S
C1926 C1924 1.395 . S
C1926 C1929 1.403 . S
C1927 C1924 1.403 . S
C1927 C1928 1.524 . S
C1927 C1931 1.400 . S
C1928 H1913 0.960 . S
C1928 H1914 0.960 . S
C1928 H1915 0.960 . S
C1928 C1927 1.524 . S
C1929 C1926 1.403 . S
C1929 C1930 1.392 . S
C1929 C1933 1.495 . S
C1930 C1929 1.392 . S
C1930 C1931 1.385 . S
C1930 C1932 1.478 . S
C1931 H1925 0.930 . S
C1931 C1927 1.400 . S
C1931 C1930 1.385 . S
C1932 C1930 1.478 . S
C1932 C1934 1.381 . S
C1932 C1938 1.383 . S
C1933 C1929 1.495 . S
C1933 H1939 0.959 . S
C1933 H1940 0.961 . S
C1933 H1941 0.960 . S
C1934 C1932 1.381 . S
C1934 C1935 1.394 . S
C1934 H1942 0.930 . S
C1935 C1934 1.394 . S
C1935 C1936 1.383 . S
C1935 H1943 0.929 . S
C1936 C1935 1.383 . S
C1936 C1937 1.377 . S
C1937 H1921 0.930 . S
C1937 C1936 1.377 . S
C1937 C1938 1.379 . S
C1938 H1922 0.931 . S
C1938 C1932 1.383 . S
C1938 C1937 1.379 . S
H1939 C1933 0.959 . S
H1940 C1933 0.961 . S
H1941 C1933 0.960 . S
H1942 C1934 0.930 . S
H1943 C1935 0.929 . S
H1944 C1952 0.929 . S
H1945 C1954 0.930 . S
H1946 C1956 0.930 . S
H1947 C1959 0.929 . S
H1948 C1962 0.930 . S
H1949 C1964 0.960 . S
H1950 C1964 0.960 . S
H1951 C1964 0.960 . S
C1952 H1944 0.929 . S
C1952 C1953 1.377 . S
C1952 C1954 1.384 . S
C1953 C1952 1.377 . S
C1953 C1959 1.390 . S
C1954 H1945 0.930 . S
C1954 C1952 1.384 . S
C1954 C1955 1.372 . S
C1955 C1954 1.372 . S
C1955 C1956 1.400 . S
C1955 C1960 1.490 . S
C1956 H1946 0.930 . S
C1956 C1955 1.400 . S
C1956 C1959 1.386 . S
H1957 C1973 0.930 . S
H1958 C1974 0.931 . S
C1959 H1947 0.929 . S
C1959 C1953 1.390 . S
C1959 C1956 1.386 . S
C1960 C1955 1.490 . S
C1960 C1962 1.395 . S
C1960 C1963 1.403 . S
H1961 C1967 0.930 . S
C1962 H1948 0.930 . S
C1962 C1960 1.395 . S
C1962 C1965 1.403 . S
C1963 C1960 1.403 . S
C1963 C1964 1.524 . S
C1963 C1967 1.400 . S
C1964 H1949 0.960 . S
C1964 H1950 0.960 . S
C1964 H1951 0.960 . S
C1964 C1963 1.524 . S
C1965 C1962 1.403 . S
C1965 C1966 1.392 . S
C1965 C1969 1.495 . S
C1966 C1965 1.392 . S
C1966 C1967 1.385 . S
C1966 C1968 1.478 . S
C1967 H1961 0.930 . S
C1967 C1963 1.400 . S
C1967 C1966 1.385 . S
C1968 C1966 1.478 . S
C1968 C1970 1.381 . S
C1968 C1974 1.383 . S
C1969 C1965 1.495 . S
C1969 H1975 0.959 . S
C1969 H1976 0.961 . S
C1969 H1977 0.960 . S
C1970 C1968 1.381 . S
C1970 C1971 1.394 . S
C1970 H1978 0.930 . S
C1971 C1970 1.394 . S
C1971 C1972 1.383 . S
C1971 H1979 0.929 . S
C1972 C1971 1.383 . S
C1972 C1973 1.377 . S
C1973 H1957 0.930 . S
C1973 C1972 1.377 . S
C1973 C1974 1.379 . S
C1974 H1958 0.931 . S
C1974 C1968 1.383 . S
C1974 C1973 1.379 . S
H1975 C1969 0.959 . S
H1976 C1969 0.961 . S
H1977 C1969 0.960 . S
H1978 C1970 0.930 . S
H1979 C1971 0.929 . S
H1980 C1988 0.929 . S
H1981 C1990 0.930 . S
H1982 C1992 0.930 . S
H1983 C1995 0.929 . S
H1984 C1998 0.930 . S
H1985 C2000 0.960 . S
H1986 C2000 0.960 . S
H1987 C2000 0.960 . S
C1988 H1980 0.929 . S
C1988 C1989 1.377 . S
C1988 C1990 1.384 . S
C1989 C1988 1.377 . S
C1989 C1995 1.390 . S
C1990 H1981 0.930 . S
C1990 C1988 1.384 . S
C1990 C1991 1.372 . S
C1991 C1990 1.372 . S
C1991 C1992 1.400 . S
C1991 C1996 1.490 . S
C1992 H1982 0.930 . S
C1992 C1991 1.400 . S
C1992 C1995 1.386 . S
H1993 C2009 0.930 . S
H1994 C2010 0.931 . S
C1995 H1983 0.929 . S
C1995 C1989 1.390 . S
C1995 C1992 1.386 . S
C1996 C1991 1.490 . S
C1996 C1998 1.395 . S
C1996 C1999 1.403 . S
H1997 C2003 0.930 . S
C1998 H1984 0.930 . S
C1998 C1996 1.395 . S
C1998 C2001 1.403 . S
C1999 C1996 1.403 . S
C1999 C2000 1.524 . S
C1999 C2003 1.400 . S
C2000 H1985 0.960 . S
C2000 H1986 0.960 . S
C2000 H1987 0.960 . S
C2000 C1999 1.524 . S
C2001 C1998 1.403 . S
C2001 C2002 1.392 . S
C2001 C2005 1.495 . S
C2002 C2001 1.392 . S
C2002 C2003 1.385 . S
C2002 C2004 1.478 . S
C2003 H1997 0.930 . S
C2003 C1999 1.400 . S
C2003 C2002 1.385 . S
C2004 C2002 1.478 . S
C2004 C2006 1.381 . S
C2004 C2010 1.383 . S
C2005 C2001 1.495 . S
C2005 H2011 0.959 . S
C2005 H2012 0.961 . S
C2005 H2013 0.960 . S
C2006 C2004 1.381 . S
C2006 C2007 1.394 . S
C2006 H2014 0.930 . S
C2007 C2006 1.394 . S
C2007 C2008 1.383 . S
C2007 H2015 0.929 . S
C2008 C2007 1.383 . S
C2008 C2009 1.377 . S
C2009 H1993 0.930 . S
C2009 C2008 1.377 . S
C2009 C2010 1.379 . S
C2010 H1994 0.931 . S
C2010 C2004 1.383 . S
C2010 C2009 1.379 . S
H2011 C2005 0.959 . S
H2012 C2005 0.961 . S
H2013 C2005 0.960 . S
H2014 C2006 0.930 . S
H2015 C2007 0.929 . S
H2016 C2024 0.929 . S
H2017 C2026 0.930 . S
H2018 C2028 0.930 . S
H2019 C2031 0.929 . S
H2020 C2034 0.930 . S
H2021 C2036 0.960 . S
H2022 C2036 0.960 . S
H2023 C2036 0.960 . S
C2024 H2016 0.929 . S
C2024 C2025 1.377 1_655 S
C2024 C2026 1.384 . S
C2025 C2024 1.377 1_455 S
C2025 C2031 1.390 . S
C2026 H2017 0.930 . S
C2026 C2024 1.384 . S
C2026 C2027 1.372 1_655 S
C2027 C2026 1.372 1_455 S
C2027 C2028 1.400 . S
C2027 C2032 1.490 . S
C2028 H2018 0.930 . S
C2028 C2027 1.400 . S
C2028 C2031 1.386 . S
H2029 C2045 0.930 . S
H2030 C2046 0.931 . S
C2031 H2019 0.929 . S
C2031 C2025 1.390 . S
C2031 C2028 1.386 . S
C2032 C2027 1.490 . S
C2032 C2034 1.395 1_455 S
C2032 C2035 1.403 . S
H2033 C2039 0.930 1_556 S
C2034 H2020 0.930 . S
C2034 C2032 1.395 1_655 S
C2034 C2037 1.403 . S
C2035 C2032 1.403 . S
C2035 C2036 1.524 . S
C2035 C2039 1.400 . S
C2036 H2021 0.960 . S
C2036 H2022 0.960 . S
C2036 H2023 0.960 . S
C2036 C2035 1.524 . S
C2037 C2034 1.403 . S
C2037 C2038 1.402 1_554 S
C2037 C2041 1.495 1_554 S
C2038 C2037 1.402 1_556 S
C2038 C2039 1.376 1_656 S
C2038 C2040 1.477 . S
C2039 H2033 0.930 1_554 S
C2039 C2035 1.400 . S
C2039 C2038 1.376 1_454 S
C2040 C2038 1.477 . S
C2040 C2042 1.381 . S
C2040 C2046 1.383 1_655 S
C2041 C2037 1.495 1_556 S
C2041 H2047 0.957 . S
C2041 H2048 0.961 . S
C2041 H2049 0.960 . S
C2042 C2040 1.381 . S
C2042 C2043 1.394 . S
C2042 H2050 0.930 . S
C2043 C2042 1.394 . S
C2043 C2044 1.383 . S
C2043 H2051 0.929 . S
C2044 C2043 1.383 . S
C2044 C2045 1.377 1_655 S
C2045 H2029 0.930 . S
C2045 C2044 1.377 1_455 S
C2045 C2046 1.379 . S
C2046 H2030 0.931 . S
C2046 C2040 1.383 1_455 S
C2046 C2045 1.379 . S
H2047 C2041 0.957 . S
H2048 C2041 0.961 . S
H2049 C2041 0.960 . S
H2050 C2042 0.930 . S
H2051 C2043 0.929 . S
H2052 C2060 0.929 . S
H2053 C2062 0.930 . S
H2054 C2064 0.930 . S
H2055 C2067 0.929 . S
H2056 C2070 0.930 . S
H2057 C2072 0.960 1_556 S
H2058 C2072 0.960 . S
H2059 C2072 0.960 . S
C2060 H2052 0.929 . S
C2060 C2061 1.377 . S
C2060 C2062 1.384 . S
C2061 C2060 1.377 . S
C2061 C2067 1.390 . S
C2062 H2053 0.930 . S
C2062 C2060 1.384 . S
C2062 C2063 1.372 . S
C2063 C2062 1.372 . S
C2063 C2064 1.400 . S
C2063 C2068 1.490 . S
C2064 H2054 0.930 . S
C2064 C2063 1.400 . S
C2064 C2067 1.386 . S
H2065 C2081 0.930 . S
H2066 C2082 0.931 . S
C2067 H2055 0.929 . S
C2067 C2061 1.390 . S
C2067 C2064 1.386 . S
C2068 C2063 1.490 . S
C2068 C2070 1.395 . S
C2068 C2071 1.403 . S
H2069 C2075 0.930 . S
C2070 H2056 0.930 . S
C2070 C2068 1.395 . S
C2070 C2073 1.403 1_554 S
C2071 C2068 1.403 . S
C2071 C2072 1.524 . S
C2071 C2075 1.400 1_554 S
C2072 H2057 0.960 1_554 S
C2072 H2058 0.960 . S
C2072 H2059 0.960 . S
C2072 C2071 1.524 . S
C2073 C2070 1.403 1_556 S
C2073 C2074 1.392 . S
C2073 C2077 1.495 . S
C2074 C2073 1.392 . S
C2074 C2075 1.385 . S
C2074 C2076 1.478 . S
C2075 H2069 0.930 . S
C2075 C2071 1.400 1_556 S
C2075 C2074 1.385 . S
C2076 C2074 1.478 . S
C2076 C2078 1.381 . S
C2076 C2082 1.383 . S
C2077 C2073 1.495 . S
C2077 H2083 0.959 . S
C2077 H2084 0.961 . S
C2077 H2085 0.960 . S
C2078 C2076 1.381 . S
C2078 C2079 1.394 . S
C2078 H2086 0.930 . S
C2079 C2078 1.394 . S
C2079 C2080 1.383 . S
C2079 H2087 0.929 . S
C2080 C2079 1.383 . S
C2080 C2081 1.377 . S
C2081 H2065 0.930 . S
C2081 C2080 1.377 . S
C2081 C2082 1.379 . S
C2082 H2066 0.931 . S
C2082 C2076 1.383 . S
C2082 C2081 1.379 . S
H2083 C2077 0.959 . S
H2084 C2077 0.961 . S
H2085 C2077 0.960 . S
H2086 C2078 0.930 . S
H2087 C2079 0.929 . S
H2088 C2096 0.929 . S
H2089 C2098 0.930 . S
H2090 C2100 0.930 1_545 S
H2091 C2103 0.929 . S
H2092 C2106 0.930 . S
H2093 C2108 0.960 . S
H2094 C2108 0.960 . S
H2095 C2108 0.960 . S
C2096 H2088 0.929 . S
C2096 C2097 1.377 . S
C2096 C2098 1.384 . S
C2097 C2096 1.377 . S
C2097 C2103 1.390 . S
C2098 H2089 0.930 . S
C2098 C2096 1.384 . S
C2098 C2099 1.372 . S
C2099 C2098 1.372 . S
C2099 C2100 1.400 . S
C2099 C2104 1.498 . S
C2100 H2090 0.930 1_565 S
C2100 C2099 1.400 . S
C2100 C2103 1.386 . S
H2101 C2117 0.930 . S
H2102 C2118 0.931 . S
C2103 H2091 0.929 . S
C2103 C2097 1.390 . S
C2103 C2100 1.386 . S
C2104 C2099 1.498 . S
C2104 C2106 1.416 . S
C2104 C2107 1.374 1_565 S
H2105 C2111 0.930 . S
C2106 H2092 0.930 . S
C2106 C2104 1.416 . S
C2106 C2109 1.403 1_554 S
C2107 C2104 1.374 1_545 S
C2107 C2108 1.524 . S
C2107 C2111 1.400 1_554 S
C2108 H2093 0.960 . S
C2108 H2094 0.960 . S
C2108 H2095 0.960 . S
C2108 C2107 1.524 . S
C2109 C2106 1.403 1_556 S
C2109 C2110 1.392 1_565 S
C2109 C2113 1.495 . S
C2110 C2109 1.392 1_545 S
C2110 C2111 1.385 . S
C2110 C2112 1.478 . S
C2111 H2105 0.930 . S
C2111 C2107 1.400 1_556 S
C2111 C2110 1.385 . S
C2112 C2110 1.478 . S
C2112 C2114 1.381 . S
C2112 C2118 1.383 . S
C2113 C2109 1.495 . S
C2113 H2119 0.959 . S
C2113 H2120 0.961 . S
C2113 H2121 0.960 . S
C2114 C2112 1.381 . S
C2114 C2115 1.394 . S
C2114 H2122 0.930 . S
C2115 C2114 1.394 . S
C2115 C2116 1.383 . S
C2115 H2123 0.929 . S
C2116 C2115 1.383 . S
C2116 C2117 1.377 . S
C2117 H2101 0.930 . S
C2117 C2116 1.377 . S
C2117 C2118 1.379 . S
C2118 H2102 0.931 . S
C2118 C2112 1.383 . S
C2118 C2117 1.379 . S
H2119 C2113 0.959 . S
H2120 C2113 0.961 . S
H2121 C2113 0.960 . S
H2122 C2114 0.930 . S
H2123 C2115 0.929 . S
H2124 C2132 0.929 . S
H2125 C2134 0.930 . S
H2126 C2136 0.930 . S
H2127 C2139 0.929 . S
H2128 C2142 0.930 . S
H2129 C2144 0.960 . S
H2130 C2144 0.960 1_556 S
H2131 C2144 0.960 1_556 S
C2132 H2124 0.929 . S
C2132 C2133 1.386 . S
C2132 C2134 1.384 . S
C2133 C2132 1.386 . S
C2133 C2139 1.382 1_655 S
C2134 H2125 0.930 . S
C2134 C2132 1.384 . S
C2134 C2135 1.372 1_655 S
C2135 C2134 1.372 1_455 S
C2135 C2136 1.400 . S
C2135 C2140 1.490 1_556 S
C2136 H2126 0.930 . S
C2136 C2135 1.400 . S
C2136 C2139 1.386 . S
H2137 C2153 0.930 . S
H2138 C2154 0.931 . S
C2139 H2127 0.929 . S
C2139 C2133 1.382 1_455 S
C2139 C2136 1.386 . S
C2140 C2135 1.490 1_554 S
C2140 C2142 1.395 1_455 S
C2140 C2143 1.403 . S
H2141 C2147 0.930 . S
C2142 H2128 0.930 . S
C2142 C2140 1.395 1_655 S
C2142 C2145 1.403 . S
C2143 C2140 1.403 . S
C2143 C2144 1.524 . S
C2143 C2147 1.400 . S
C2144 H2129 0.960 . S
C2144 H2130 0.960 1_554 S
C2144 H2131 0.960 1_554 S
C2144 C2143 1.524 . S
C2145 C2142 1.403 . S
C2145 C2146 1.392 1_655 S
C2145 C2149 1.495 . S
C2146 C2145 1.392 1_455 S
C2146 C2147 1.385 . S
C2146 C2148 1.478 . S
C2147 H2141 0.930 . S
C2147 C2143 1.400 . S
C2147 C2146 1.385 . S
C2148 C2146 1.478 . S
C2148 C2150 1.381 1_455 S
C2148 C2154 1.383 . S
C2149 C2145 1.495 . S
C2149 H2155 0.959 . S
C2149 H2156 0.961 . S
C2149 H2157 0.960 . S
C2150 C2148 1.381 1_655 S
C2150 C2151 1.394 . S
C2150 H2158 0.930 . S
C2151 C2150 1.394 . S
C2151 C2152 1.383 1_655 S
C2151 H2159 0.929 . S
C2152 C2151 1.383 1_455 S
C2152 C2153 1.377 . S
C2153 H2137 0.930 . S
C2153 C2152 1.377 . S
C2153 C2154 1.379 . S
C2154 H2138 0.931 . S
C2154 C2148 1.383 . S
C2154 C2153 1.379 . S
H2155 C2149 0.959 . S
H2156 C2149 0.961 . S
H2157 C2149 0.960 . S
H2158 C2150 0.930 . S
H2159 C2151 0.929 . S
H2160 C2168 0.929 . S
H2161 C2170 0.930 . S
H2162 C2172 0.930 . S
H2163 C2175 0.929 . S
H2164 C2178 0.930 . S
H2165 C2180 0.960 . S
H2166 C2180 0.960 . S
H2167 C2180 0.960 . S
C2168 H2160 0.929 . S
C2168 C2169 1.377 . S
C2168 C2170 1.384 . S
C2169 C2168 1.377 . S
C2169 C2175 1.390 . S
C2170 H2161 0.930 . S
C2170 C2168 1.384 . S
C2170 C2171 1.372 . S
C2171 C2170 1.372 . S
C2171 C2172 1.400 . S
C2171 C2176 1.490 . S
C2172 H2162 0.930 . S
C2172 C2171 1.400 . S
C2172 C2175 1.386 . S
H2173 C2189 0.930 . S
H2174 C2190 0.931 . S
C2175 H2163 0.929 . S
C2175 C2169 1.390 . S
C2175 C2172 1.386 . S
C2176 C2171 1.490 . S
C2176 C2178 1.395 . S
C2176 C2179 1.403 . S
H2177 C2183 0.930 . S
C2178 H2164 0.930 . S
C2178 C2176 1.395 . S
C2178 C2181 1.403 . S
C2179 C2176 1.403 . S
C2179 C2180 1.524 . S
C2179 C2183 1.400 . S
C2180 H2165 0.960 . S
C2180 H2166 0.960 . S
C2180 H2167 0.960 . S
C2180 C2179 1.524 . S
C2181 C2178 1.403 . S
C2181 C2182 1.392 . S
C2181 C2185 1.495 . S
C2182 C2181 1.392 . S
C2182 C2183 1.385 . S
C2182 C2184 1.478 1_554 S
C2183 H2177 0.930 . S
C2183 C2179 1.400 . S
C2183 C2182 1.385 . S
C2184 C2182 1.478 1_556 S
C2184 C2186 1.381 . S
C2184 C2190 1.383 . S
C2185 C2181 1.495 . S
C2185 H2191 0.959 . S
C2185 H2192 0.961 . S
C2185 H2193 0.960 . S
C2186 C2184 1.381 . S
C2186 C2187 1.394 . S
C2186 H2194 0.930 . S
C2187 C2186 1.394 . S
C2187 C2188 1.383 . S
C2187 H2195 0.929 . S
C2188 C2187 1.383 . S
C2188 C2189 1.377 . S
C2189 H2173 0.930 . S
C2189 C2188 1.377 . S
C2189 C2190 1.379 . S
C2190 H2174 0.931 . S
C2190 C2184 1.383 . S
C2190 C2189 1.379 . S
H2191 C2185 0.959 . S
H2192 C2185 0.961 . S
H2193 C2185 0.960 . S
H2194 C2186 0.930 . S
H2195 C2187 0.929 . S
H2196 C2204 0.929 . S
H2197 C2206 0.929 1_545 S
H2198 C2208 0.936 . S
H2199 C2211 0.929 . S
H2200 C2214 0.930 . S
H2201 C2216 0.960 . S
H2202 C2216 0.960 . S
H2203 C2216 0.960 . S
C2204 H2196 0.929 . S
C2204 C2205 1.377 . S
C2204 C2206 1.383 . S
C2205 C2204 1.377 . S
C2205 C2211 1.390 . S
C2206 H2197 0.929 1_565 S
C2206 C2204 1.383 . S
C2206 C2207 1.335 1_565 S
C2207 C2206 1.335 1_545 S
C2207 C2208 1.419 1_545 S
C2207 C2212 1.512 . S
C2208 H2198 0.936 . S
C2208 C2207 1.419 1_565 S
C2208 C2211 1.386 . S
H2209 C2225 0.930 . S
H2210 C2226 0.931 . S
C2211 H2199 0.929 . S
C2211 C2205 1.390 . S
C2211 C2208 1.386 . S
C2212 C2207 1.512 . S
C2212 C2214 1.395 1_545 S
C2212 C2215 1.403 . S
H2213 C2219 0.930 1_556 S
C2214 H2200 0.930 . S
C2214 C2212 1.395 1_565 S
C2214 C2217 1.403 1_554 S
C2215 C2212 1.403 . S
C2215 C2216 1.524 . S
C2215 C2219 1.400 . S
C2216 H2201 0.960 . S
C2216 H2202 0.960 . S
C2216 H2203 0.960 . S
C2216 C2215 1.524 . S
C2217 C2214 1.403 1_556 S
C2217 C2218 1.392 1_565 S
C2217 C2221 1.495 . S
C2218 C2217 1.392 1_545 S
C2218 C2219 1.385 1_556 S
C2218 C2220 1.478 . S
C2219 H2213 0.930 1_554 S
C2219 C2215 1.400 . S
C2219 C2218 1.385 1_554 S
C2220 C2218 1.478 . S
C2220 C2222 1.381 . S
C2220 C2226 1.383 . S
C2221 C2217 1.495 . S
C2221 H2227 0.959 . S
C2221 H2228 0.961 . S
C2221 H2229 0.960 . S
C2222 C2220 1.381 . S
C2222 C2223 1.394 . S
C2222 H2230 0.930 . S
C2223 C2222 1.394 . S
C2223 C2224 1.383 . S
C2223 H2231 0.929 . S
C2224 C2223 1.383 . S
C2224 C2225 1.377 . S
C2225 H2209 0.930 . S
C2225 C2224 1.377 . S
C2225 C2226 1.379 . S
C2226 H2210 0.931 . S
C2226 C2220 1.383 . S
C2226 C2225 1.379 . S
H2227 C2221 0.959 . S
H2228 C2221 0.961 . S
H2229 C2221 0.960 . S
H2230 C2222 0.930 . S
H2231 C2223 0.929 . S
H2232 C2240 0.929 . S
H2233 C2242 0.930 . S
H2234 C2244 0.930 . S
H2235 C2247 0.929 . S
H2236 C2250 0.930 . S
H2237 C2252 0.960 . S
H2238 C2252 0.960 . S
H2239 C2252 0.960 . S
C2240 H2232 0.929 . S
C2240 C2241 1.377 . S
C2240 C2242 1.384 . S
C2241 C2240 1.377 . S
C2241 C2247 1.390 . S
C2242 H2233 0.930 . S
C2242 C2240 1.384 . S
C2242 C2243 1.372 . S
C2243 C2242 1.372 . S
C2243 C2244 1.400 . S
C2243 C2248 1.490 . S
C2244 H2234 0.930 . S
C2244 C2243 1.400 . S
C2244 C2247 1.386 . S
H2245 C2261 0.930 . S
H2246 C2262 0.931 . S
C2247 H2235 0.929 . S
C2247 C2241 1.390 . S
C2247 C2244 1.386 . S
C2248 C2243 1.490 . S
C2248 C2250 1.395 . S
C2248 C2251 1.403 . S
H2249 C2255 0.930 . S
C2250 H2236 0.930 . S
C2250 C2248 1.395 . S
C2250 C2253 1.403 . S
C2251 C2248 1.403 . S
C2251 C2252 1.524 . S
C2251 C2255 1.400 . S
C2252 H2237 0.960 . S
C2252 H2238 0.960 . S
C2252 H2239 0.960 . S
C2252 C2251 1.524 . S
C2253 C2250 1.403 . S
C2253 C2254 1.392 . S
C2253 C2257 1.495 . S
C2254 C2253 1.392 . S
C2254 C2255 1.385 . S
C2254 C2256 1.478 . S
C2255 H2249 0.930 . S
C2255 C2251 1.400 . S
C2255 C2254 1.385 . S
C2256 C2254 1.478 . S
C2256 C2258 1.381 . S
C2256 C2262 1.383 . S
C2257 C2253 1.495 . S
C2257 H2263 0.959 . S
C2257 H2264 0.961 . S
C2257 H2265 0.960 . S
C2258 C2256 1.381 . S
C2258 C2259 1.394 . S
C2258 H2266 0.930 . S
C2259 C2258 1.394 . S
C2259 C2260 1.383 . S
C2259 H2267 0.929 . S
C2260 C2259 1.383 . S
C2260 C2261 1.377 . S
C2261 H2245 0.930 . S
C2261 C2260 1.377 . S
C2261 C2262 1.379 . S
C2262 H2246 0.931 . S
C2262 C2256 1.383 . S
C2262 C2261 1.379 . S
H2263 C2257 0.959 . S
H2264 C2257 0.961 . S
H2265 C2257 0.960 . S
H2266 C2258 0.930 . S
H2267 C2259 0.929 . S
H2268 C2276 0.929 . S
H2269 C2278 0.930 . S
H2270 C2280 0.930 . S
H2271 C2283 0.929 . S
H2272 C2286 0.930 . S
H2273 C2288 0.960 . S
H2274 C2288 0.960 . S
H2275 C2288 0.960 . S
C2276 H2268 0.929 . S
C2276 C2277 1.377 . S
C2276 C2278 1.384 . S
C2277 C2276 1.377 . S
C2277 C2283 1.390 . S
C2278 H2269 0.930 . S
C2278 C2276 1.384 . S
C2278 C2279 1.372 . S
C2279 C2278 1.372 . S
C2279 C2280 1.400 . S
C2279 C2284 1.490 . S
C2280 H2270 0.930 . S
C2280 C2279 1.400 . S
C2280 C2283 1.386 . S
H2281 C2297 0.930 . S
H2282 C2298 0.931 . S
C2283 H2271 0.929 . S
C2283 C2277 1.390 . S
C2283 C2280 1.386 . S
C2284 C2279 1.490 . S
C2284 C2286 1.395 . S
C2284 C2287 1.403 . S
H2285 C2291 0.930 . S
C2286 H2272 0.930 . S
C2286 C2284 1.395 . S
C2286 C2289 1.403 . S
C2287 C2284 1.403 . S
C2287 C2288 1.524 . S
C2287 C2291 1.400 . S
C2288 H2273 0.960 . S
C2288 H2274 0.960 . S
C2288 H2275 0.960 . S
C2288 C2287 1.524 . S
C2289 C2286 1.403 . S
C2289 C2290 1.392 . S
C2289 C2293 1.495 . S
C2290 C2289 1.392 . S
C2290 C2291 1.385 . S
C2290 C2292 1.478 . S
C2291 H2285 0.930 . S
C2291 C2287 1.400 . S
C2291 C2290 1.385 . S
C2292 C2290 1.478 . S
C2292 C2294 1.381 . S
C2292 C2298 1.383 . S
C2293 C2289 1.495 . S
C2293 H2299 0.959 . S
C2293 H2300 0.961 . S
C2293 H2301 0.960 . S
C2294 C2292 1.381 . S
C2294 C2295 1.394 . S
C2294 H2302 0.930 . S
C2295 C2294 1.394 . S
C2295 C2296 1.383 . S
C2295 H2303 0.929 . S
C2296 C2295 1.383 . S
C2296 C2297 1.377 . S
C2297 H2281 0.930 . S
C2297 C2296 1.377 . S
C2297 C2298 1.379 . S
C2298 H2282 0.931 . S
C2298 C2292 1.383 . S
C2298 C2297 1.379 . S
H2299 C2293 0.959 . S
H2300 C2293 0.961 . S
H2301 C2293 0.960 . S
H2302 C2294 0.930 . S
H2303 C2295 0.929 . S
H2304 C2312 0.929 . S
H2305 C2314 0.930 . S
H2306 C2316 0.930 . S
H2307 C2319 0.929 . S
H2308 C2322 0.930 . S
H2309 C2324 0.960 . S
H2310 C2324 0.960 . S
H2311 C2324 0.960 . S
C2312 H2304 0.929 . S
C2312 C2313 1.377 . S
C2312 C2314 1.384 . S
C2313 C2312 1.377 . S
C2313 C2319 1.390 . S
C2314 H2305 0.930 . S
C2314 C2312 1.384 . S
C2314 C2315 1.372 . S
C2315 C2314 1.372 . S
C2315 C2316 1.400 . S
C2315 C2320 1.490 . S
C2316 H2306 0.930 . S
C2316 C2315 1.400 . S
C2316 C2319 1.386 . S
H2317 C2333 0.930 . S
H2318 C2334 0.931 . S
C2319 H2307 0.929 . S
C2319 C2313 1.390 . S
C2319 C2316 1.386 . S
C2320 C2315 1.490 . S
C2320 C2322 1.395 . S
C2320 C2323 1.403 . S
H2321 C2327 0.930 . S
C2322 H2308 0.930 . S
C2322 C2320 1.395 . S
C2322 C2325 1.403 . S
C2323 C2320 1.403 . S
C2323 C2324 1.524 . S
C2323 C2327 1.400 . S
C2324 H2309 0.960 . S
C2324 H2310 0.960 . S
C2324 H2311 0.960 . S
C2324 C2323 1.524 . S
C2325 C2322 1.403 . S
C2325 C2326 1.392 . S
C2325 C2329 1.495 . S
C2326 C2325 1.392 . S
C2326 C2327 1.385 . S
C2326 C2328 1.478 . S
C2327 H2321 0.930 . S
C2327 C2323 1.400 . S
C2327 C2326 1.385 . S
C2328 C2326 1.478 . S
C2328 C2330 1.381 . S
C2328 C2334 1.383 . S
C2329 C2325 1.495 . S
C2329 H2335 0.959 . S
C2329 H2336 0.961 . S
C2329 H2337 0.960 . S
C2330 C2328 1.381 . S
C2330 C2331 1.394 . S
C2330 H2338 0.930 . S
C2331 C2330 1.394 . S
C2331 C2332 1.383 . S
C2331 H2339 0.929 . S
C2332 C2331 1.383 . S
C2332 C2333 1.377 . S
C2333 H2317 0.930 . S
C2333 C2332 1.377 . S
C2333 C2334 1.379 . S
C2334 H2318 0.931 . S
C2334 C2328 1.383 . S
C2334 C2333 1.379 . S
H2335 C2329 0.959 . S
H2336 C2329 0.961 . S
H2337 C2329 0.960 . S
H2338 C2330 0.930 . S
H2339 C2331 0.929 . S
H2340 C2348 0.929 . S
H2341 C2350 0.930 . S
H2342 C2352 0.930 . S
H2343 C2355 0.929 . S
H2344 C2358 0.930 . S
H2345 C2360 0.960 . S
H2346 C2360 0.960 . S
H2347 C2360 0.960 . S
C2348 H2340 0.929 . S
C2348 C2349 1.377 . S
C2348 C2350 1.384 . S
C2349 C2348 1.377 . S
C2349 C2355 1.390 . S
C2350 H2341 0.930 . S
C2350 C2348 1.384 . S
C2350 C2351 1.372 . S
C2351 C2350 1.372 . S
C2351 C2352 1.400 . S
C2351 C2356 1.490 . S
C2352 H2342 0.930 . S
C2352 C2351 1.400 . S
C2352 C2355 1.386 . S
H2353 C2369 0.930 . S
H2354 C2370 0.931 . S
C2355 H2343 0.929 . S
C2355 C2349 1.390 . S
C2355 C2352 1.386 . S
C2356 C2351 1.490 . S
C2356 C2358 1.395 . S
C2356 C2359 1.403 . S
H2357 C2363 0.930 . S
C2358 H2344 0.930 . S
C2358 C2356 1.395 . S
C2358 C2361 1.403 . S
C2359 C2356 1.403 . S
C2359 C2360 1.524 . S
C2359 C2363 1.400 . S
C2360 H2345 0.960 . S
C2360 H2346 0.960 . S
C2360 H2347 0.960 . S
C2360 C2359 1.524 . S
C2361 C2358 1.403 . S
C2361 C2362 1.392 . S
C2361 C2365 1.495 . S
C2362 C2361 1.392 . S
C2362 C2363 1.385 . S
C2362 C2364 1.478 . S
C2363 H2357 0.930 . S
C2363 C2359 1.400 . S
C2363 C2362 1.385 . S
C2364 C2362 1.478 . S
C2364 C2366 1.381 . S
C2364 C2370 1.383 . S
C2365 C2361 1.495 . S
C2365 H2371 0.959 . S
C2365 H2372 0.961 . S
C2365 H2373 0.960 . S
C2366 C2364 1.381 . S
C2366 C2367 1.394 . S
C2366 H2374 0.930 . S
C2367 C2366 1.394 . S
C2367 C2368 1.383 . S
C2367 H2375 0.929 . S
C2368 C2367 1.383 . S
C2368 C2369 1.377 . S
C2369 H2353 0.930 . S
C2369 C2368 1.377 . S
C2369 C2370 1.379 . S
C2370 H2354 0.931 . S
C2370 C2364 1.383 . S
C2370 C2369 1.379 . S
H2371 C2365 0.959 . S
H2372 C2365 0.961 . S
H2373 C2365 0.960 . S
H2374 C2366 0.930 . S
H2375 C2367 0.929 . S
H2376 C2384 0.929 . S
H2377 C2386 0.930 . S
H2378 C2388 0.930 . S
H2379 C2391 0.929 . S
H2380 C2394 0.930 . S
H2381 C2396 0.960 . S
H2382 C2396 0.960 . S
H2383 C2396 0.960 . S
C2384 H2376 0.929 . S
C2384 C2385 1.377 . S
C2384 C2386 1.384 . S
C2385 C2384 1.377 . S
C2385 C2391 1.390 . S
C2386 H2377 0.930 . S
C2386 C2384 1.384 . S
C2386 C2387 1.372 . S
C2387 C2386 1.372 . S
C2387 C2388 1.400 . S
C2387 C2392 1.490 . S
C2388 H2378 0.930 . S
C2388 C2387 1.400 . S
C2388 C2391 1.386 . S
H2389 C2405 0.930 . S
H2390 C2406 0.931 . S
C2391 H2379 0.929 . S
C2391 C2385 1.390 . S
C2391 C2388 1.386 . S
C2392 C2387 1.490 . S
C2392 C2394 1.395 . S
C2392 C2395 1.403 . S
H2393 C2399 0.930 . S
C2394 H2380 0.930 . S
C2394 C2392 1.395 . S
C2394 C2397 1.403 . S
C2395 C2392 1.403 . S
C2395 C2396 1.524 . S
C2395 C2399 1.400 . S
C2396 H2381 0.960 . S
C2396 H2382 0.960 . S
C2396 H2383 0.960 . S
C2396 C2395 1.524 . S
C2397 C2394 1.403 . S
C2397 C2398 1.392 . S
C2397 C2401 1.495 . S
C2398 C2397 1.392 . S
C2398 C2399 1.385 . S
C2398 C2400 1.478 . S
C2399 H2393 0.930 . S
C2399 C2395 1.400 . S
C2399 C2398 1.385 . S
C2400 C2398 1.478 . S
C2400 C2402 1.381 . S
C2400 C2406 1.383 . S
C2401 C2397 1.495 . S
C2401 H2407 0.959 . S
C2401 H2408 0.961 . S
C2401 H2409 0.960 . S
C2402 C2400 1.381 . S
C2402 C2403 1.394 . S
C2402 H2410 0.930 . S
C2403 C2402 1.394 . S
C2403 C2404 1.383 . S
C2403 H2411 0.929 . S
C2404 C2403 1.383 . S
C2404 C2405 1.377 . S
C2405 H2389 0.930 . S
C2405 C2404 1.377 . S
C2405 C2406 1.379 . S
C2406 H2390 0.931 . S
C2406 C2400 1.383 . S
C2406 C2405 1.379 . S
H2407 C2401 0.959 . S
H2408 C2401 0.961 . S
H2409 C2401 0.960 . S
H2410 C2402 0.930 . S
H2411 C2403 0.929 . S
H2412 C2420 0.929 . S
H2413 C2422 0.930 . S
H2414 C2424 0.930 . S
H2415 C2427 0.929 . S
H2416 C2430 0.930 . S
H2417 C2432 0.960 . S
H2418 C2432 0.960 . S
H2419 C2432 0.960 . S
C2420 H2412 0.929 . S
C2420 C2421 1.377 . S
C2420 C2422 1.384 . S
C2421 C2420 1.377 . S
C2421 C2427 1.390 . S
C2422 H2413 0.930 . S
C2422 C2420 1.384 . S
C2422 C2423 1.372 . S
C2423 C2422 1.372 . S
C2423 C2424 1.400 . S
C2423 C2428 1.490 . S
C2424 H2414 0.930 . S
C2424 C2423 1.400 . S
C2424 C2427 1.386 . S
H2425 C2441 0.930 . S
H2426 C2442 0.931 . S
C2427 H2415 0.929 . S
C2427 C2421 1.390 . S
C2427 C2424 1.386 . S
C2428 C2423 1.490 . S
C2428 C2430 1.395 . S
C2428 C2431 1.403 . S
H2429 C2435 0.930 . S
C2430 H2416 0.930 . S
C2430 C2428 1.395 . S
C2430 C2433 1.403 . S
C2431 C2428 1.403 . S
C2431 C2432 1.524 . S
C2431 C2435 1.400 . S
C2432 H2417 0.960 . S
C2432 H2418 0.960 . S
C2432 H2419 0.960 . S
C2432 C2431 1.524 . S
C2433 C2430 1.403 . S
C2433 C2434 1.392 . S
C2433 C2437 1.495 . S
C2434 C2433 1.392 . S
C2434 C2435 1.385 . S
C2434 C2436 1.478 . S
C2435 H2429 0.930 . S
C2435 C2431 1.400 . S
C2435 C2434 1.385 . S
C2436 C2434 1.478 . S
C2436 C2438 1.381 . S
C2436 C2442 1.383 . S
C2437 C2433 1.495 . S
C2437 H2443 0.959 . S
C2437 H2444 0.961 . S
C2437 H2445 0.960 . S
C2438 C2436 1.381 . S
C2438 C2439 1.394 . S
C2438 H2446 0.930 . S
C2439 C2438 1.394 . S
C2439 C2440 1.383 . S
C2439 H2447 0.929 . S
C2440 C2439 1.383 . S
C2440 C2441 1.377 . S
C2441 H2425 0.930 . S
C2441 C2440 1.377 . S
C2441 C2442 1.379 . S
C2442 H2426 0.931 . S
C2442 C2436 1.383 . S
C2442 C2441 1.379 . S
H2443 C2437 0.959 . S
H2444 C2437 0.961 . S
H2445 C2437 0.960 . S
H2446 C2438 0.930 . S
H2447 C2439 0.929 . S
H2448 C2456 0.929 . S
H2449 C2458 0.930 . S
H2450 C2460 0.930 . S
H2451 C2463 0.929 . S
H2452 C2466 0.930 . S
H2453 C2468 0.960 . S
H2454 C2468 0.960 . S
H2455 C2468 0.960 . S
C2456 H2448 0.929 . S
C2456 C2457 1.377 . S
C2456 C2458 1.384 . S
C2457 C2456 1.377 . S
C2457 C2463 1.390 . S
C2458 H2449 0.930 . S
C2458 C2456 1.384 . S
C2458 C2459 1.372 . S
C2459 C2458 1.372 . S
C2459 C2460 1.400 . S
C2459 C2464 1.490 . S
C2460 H2450 0.930 . S
C2460 C2459 1.400 . S
C2460 C2463 1.386 . S
H2461 C2477 0.930 . S
H2462 C2478 0.931 . S
C2463 H2451 0.929 . S
C2463 C2457 1.390 . S
C2463 C2460 1.386 . S
C2464 C2459 1.490 . S
C2464 C2466 1.395 . S
C2464 C2467 1.403 . S
H2465 C2471 0.930 . S
C2466 H2452 0.930 . S
C2466 C2464 1.395 . S
C2466 C2469 1.403 . S
C2467 C2464 1.403 . S
C2467 C2468 1.524 . S
C2467 C2471 1.400 . S
C2468 H2453 0.960 . S
C2468 H2454 0.960 . S
C2468 H2455 0.960 . S
C2468 C2467 1.524 . S
C2469 C2466 1.403 . S
C2469 C2470 1.392 . S
C2469 C2473 1.495 . S
C2470 C2469 1.392 . S
C2470 C2471 1.385 . S
C2470 C2472 1.478 . S
C2471 H2465 0.930 . S
C2471 C2467 1.400 . S
C2471 C2470 1.385 . S
C2472 C2470 1.478 . S
C2472 C2474 1.381 . S
C2472 C2478 1.383 . S
C2473 C2469 1.495 . S
C2473 H2479 0.959 . S
C2473 H2480 0.961 . S
C2473 H2481 0.960 . S
C2474 C2472 1.381 . S
C2474 C2475 1.394 . S
C2474 H2482 0.930 . S
C2475 C2474 1.394 . S
C2475 C2476 1.383 . S
C2475 H2483 0.929 . S
C2476 C2475 1.383 . S
C2476 C2477 1.377 . S
C2477 H2461 0.930 . S
C2477 C2476 1.377 . S
C2477 C2478 1.379 . S
C2478 H2462 0.931 . S
C2478 C2472 1.383 . S
C2478 C2477 1.379 . S
H2479 C2473 0.959 . S
H2480 C2473 0.961 . S
H2481 C2473 0.960 . S
H2482 C2474 0.930 . S
H2483 C2475 0.929 . S
H2484 C2492 0.929 . S
H2485 C2494 0.930 . S
H2486 C2496 0.930 . S
H2487 C2499 0.929 . S
H2488 C2502 0.930 . S
H2489 C2504 0.960 . S
H2490 C2504 0.960 . S
H2491 C2504 0.960 . S
C2492 H2484 0.929 . S
C2492 C2493 1.377 . S
C2492 C2494 1.384 . S
C2493 C2492 1.377 . S
C2493 C2499 1.390 . S
C2494 H2485 0.930 . S
C2494 C2492 1.384 . S
C2494 C2495 1.372 . S
C2495 C2494 1.372 . S
C2495 C2496 1.400 . S
C2495 C2500 1.490 . S
C2496 H2486 0.930 . S
C2496 C2495 1.400 . S
C2496 C2499 1.386 . S
H2497 C2513 0.930 . S
H2498 C2514 0.931 . S
C2499 H2487 0.929 . S
C2499 C2493 1.390 . S
C2499 C2496 1.386 . S
C2500 C2495 1.490 . S
C2500 C2502 1.395 . S
C2500 C2503 1.403 . S
H2501 C2507 0.930 . S
C2502 H2488 0.930 . S
C2502 C2500 1.395 . S
C2502 C2505 1.403 . S
C2503 C2500 1.403 . S
C2503 C2504 1.524 . S
C2503 C2507 1.400 . S
C2504 H2489 0.960 . S
C2504 H2490 0.960 . S
C2504 H2491 0.960 . S
C2504 C2503 1.524 . S
C2505 C2502 1.403 . S
C2505 C2506 1.392 . S
C2505 C2509 1.495 . S
C2506 C2505 1.392 . S
C2506 C2507 1.385 . S
C2506 C2508 1.478 . S
C2507 H2501 0.930 . S
C2507 C2503 1.400 . S
C2507 C2506 1.385 . S
C2508 C2506 1.478 . S
C2508 C2510 1.381 . S
C2508 C2514 1.383 . S
C2509 C2505 1.495 . S
C2509 H2515 0.959 . S
C2509 H2516 0.961 . S
C2509 H2517 0.960 . S
C2510 C2508 1.381 . S
C2510 C2511 1.394 . S
C2510 H2518 0.930 . S
C2511 C2510 1.394 . S
C2511 C2512 1.383 . S
C2511 H2519 0.929 . S
C2512 C2511 1.383 . S
C2512 C2513 1.377 . S
C2513 H2497 0.930 . S
C2513 C2512 1.377 . S
C2513 C2514 1.379 . S
C2514 H2498 0.931 . S
C2514 C2508 1.383 . S
C2514 C2513 1.379 . S
H2515 C2509 0.959 . S
H2516 C2509 0.961 . S
H2517 C2509 0.960 . S
H2518 C2510 0.930 . S
H2519 C2511 0.929 . S
H2520 C2528 0.929 . S
H2521 C2530 0.930 . S
H2522 C2532 0.930 . S
H2523 C2535 0.929 . S
H2524 C2538 0.930 . S
H2525 C2540 0.960 . S
H2526 C2540 0.960 . S
H2527 C2540 0.960 . S
C2528 H2520 0.929 . S
C2528 C2529 1.377 . S
C2528 C2530 1.384 . S
C2529 C2528 1.377 . S
C2529 C2535 1.390 . S
C2530 H2521 0.930 . S
C2530 C2528 1.384 . S
C2530 C2531 1.372 . S
C2531 C2530 1.372 . S
C2531 C2532 1.400 . S
C2531 C2536 1.490 . S
C2532 H2522 0.930 . S
C2532 C2531 1.400 . S
C2532 C2535 1.386 . S
H2533 C2549 0.930 . S
H2534 C2550 0.931 . S
C2535 H2523 0.929 . S
C2535 C2529 1.390 . S
C2535 C2532 1.386 . S
C2536 C2531 1.490 . S
C2536 C2538 1.395 . S
C2536 C2539 1.403 . S
H2537 C2543 0.930 . S
C2538 H2524 0.930 . S
C2538 C2536 1.395 . S
C2538 C2541 1.403 . S
C2539 C2536 1.403 . S
C2539 C2540 1.524 . S
C2539 C2543 1.400 . S
C2540 H2525 0.960 . S
C2540 H2526 0.960 . S
C2540 H2527 0.960 . S
C2540 C2539 1.524 . S
C2541 C2538 1.403 . S
C2541 C2542 1.392 . S
C2541 C2545 1.495 . S
C2542 C2541 1.392 . S
C2542 C2543 1.385 . S
C2542 C2544 1.478 . S
C2543 H2537 0.930 . S
C2543 C2539 1.400 . S
C2543 C2542 1.385 . S
C2544 C2542 1.478 . S
C2544 C2546 1.381 . S
C2544 C2550 1.383 . S
C2545 C2541 1.495 . S
C2545 H2551 0.959 . S
C2545 H2552 0.961 . S
C2545 H2553 0.960 . S
C2546 C2544 1.381 . S
C2546 C2547 1.394 . S
C2546 H2554 0.930 . S
C2547 C2546 1.394 . S
C2547 C2548 1.383 . S
C2547 H2555 0.929 . S
C2548 C2547 1.383 . S
C2548 C2549 1.377 . S
C2549 H2533 0.930 . S
C2549 C2548 1.377 . S
C2549 C2550 1.379 . S
C2550 H2534 0.931 . S
C2550 C2544 1.383 . S
C2550 C2549 1.379 . S
H2551 C2545 0.959 . S
H2552 C2545 0.961 . S
H2553 C2545 0.960 . S
H2554 C2546 0.930 . S
H2555 C2547 0.929 . S
H2556 C2564 0.929 . S
H2557 C2566 0.930 . S
H2558 C2568 0.930 . S
H2559 C2571 0.929 . S
H2560 C2574 0.930 . S
H2561 C2576 0.960 . S
H2562 C2576 0.960 . S
H2563 C2576 0.960 . S
C2564 H2556 0.929 . S
C2564 C2565 1.377 . S
C2564 C2566 1.384 . S
C2565 C2564 1.377 . S
C2565 C2571 1.390 . S
C2566 H2557 0.930 . S
C2566 C2564 1.384 . S
C2566 C2567 1.372 . S
C2567 C2566 1.372 . S
C2567 C2568 1.400 . S
C2567 C2572 1.490 . S
C2568 H2558 0.930 . S
C2568 C2567 1.400 . S
C2568 C2571 1.386 . S
H2569 C2585 0.930 . S
H2570 C2586 0.931 . S
C2571 H2559 0.929 . S
C2571 C2565 1.390 . S
C2571 C2568 1.386 . S
C2572 C2567 1.490 . S
C2572 C2574 1.395 . S
C2572 C2575 1.403 . S
H2573 C2579 0.930 . S
C2574 H2560 0.930 . S
C2574 C2572 1.395 . S
C2574 C2577 1.403 . S
C2575 C2572 1.403 . S
C2575 C2576 1.524 . S
C2575 C2579 1.400 . S
C2576 H2561 0.960 . S
C2576 H2562 0.960 . S
C2576 H2563 0.960 . S
C2576 C2575 1.524 . S
C2577 C2574 1.403 . S
C2577 C2578 1.392 . S
C2577 C2581 1.495 . S
C2578 C2577 1.392 . S
C2578 C2579 1.385 . S
C2578 C2580 1.478 . S
C2579 H2573 0.930 . S
C2579 C2575 1.400 . S
C2579 C2578 1.385 . S
C2580 C2578 1.478 . S
C2580 C2582 1.381 . S
C2580 C2586 1.383 . S
C2581 C2577 1.495 . S
C2581 H2587 0.959 . S
C2581 H2588 0.961 . S
C2581 H2589 0.960 . S
C2582 C2580 1.381 . S
C2582 C2583 1.394 . S
C2582 H2590 0.930 . S
C2583 C2582 1.394 . S
C2583 C2584 1.383 . S
C2583 H2591 0.929 . S
C2584 C2583 1.383 . S
C2584 C2585 1.377 . S
C2585 H2569 0.930 . S
C2585 C2584 1.377 . S
C2585 C2586 1.379 . S
C2586 H2570 0.931 . S
C2586 C2580 1.383 . S
C2586 C2585 1.379 . S
H2587 C2581 0.959 . S
H2588 C2581 0.961 . S
H2589 C2581 0.960 . S
H2590 C2582 0.930 . S
H2591 C2583 0.929 . S
H2592 C2600 0.929 . S
H2593 C2602 0.930 . S
H2594 C2604 0.930 . S
H2595 C2607 0.929 . S
H2596 C2610 0.930 . S
H2597 C2612 0.960 . S
H2598 C2612 0.960 . S
H2599 C2612 0.960 . S
C2600 H2592 0.929 . S
C2600 C2601 1.377 . S
C2600 C2602 1.384 . S
C2601 C2600 1.377 . S
C2601 C2607 1.390 . S
C2602 H2593 0.930 . S
C2602 C2600 1.384 . S
C2602 C2603 1.372 . S
C2603 C2602 1.372 . S
C2603 C2604 1.400 . S
C2603 C2608 1.490 . S
C2604 H2594 0.930 . S
C2604 C2603 1.400 . S
C2604 C2607 1.386 . S
H2605 C2621 0.930 . S
H2606 C2622 0.931 . S
C2607 H2595 0.929 . S
C2607 C2601 1.390 . S
C2607 C2604 1.386 . S
C2608 C2603 1.490 . S
C2608 C2610 1.395 . S
C2608 C2611 1.403 . S
H2609 C2615 0.930 . S
C2610 H2596 0.930 . S
C2610 C2608 1.395 . S
C2610 C2613 1.403 . S
C2611 C2608 1.403 . S
C2611 C2612 1.524 . S
C2611 C2615 1.400 . S
C2612 H2597 0.960 . S
C2612 H2598 0.960 . S
C2612 H2599 0.960 . S
C2612 C2611 1.524 . S
C2613 C2610 1.403 . S
C2613 C2614 1.392 . S
C2613 C2617 1.495 . S
C2614 C2613 1.392 . S
C2614 C2615 1.385 . S
C2614 C2616 1.478 . S
C2615 H2609 0.930 . S
C2615 C2611 1.400 . S
C2615 C2614 1.385 . S
C2616 C2614 1.478 . S
C2616 C2618 1.381 . S
C2616 C2622 1.383 . S
C2617 C2613 1.495 . S
C2617 H2623 0.959 . S
C2617 H2624 0.961 . S
C2617 H2625 0.960 . S
C2618 C2616 1.381 . S
C2618 C2619 1.394 . S
C2618 H2626 0.930 . S
C2619 C2618 1.394 . S
C2619 C2620 1.383 . S
C2619 H2627 0.929 . S
C2620 C2619 1.383 . S
C2620 C2621 1.377 . S
C2621 H2605 0.930 . S
C2621 C2620 1.377 . S
C2621 C2622 1.379 . S
C2622 H2606 0.931 . S
C2622 C2616 1.383 . S
C2622 C2621 1.379 . S
H2623 C2617 0.959 . S
H2624 C2617 0.961 . S
H2625 C2617 0.960 . S
H2626 C2618 0.930 . S
H2627 C2619 0.929 . S
H2628 C2636 0.929 . S
H2629 C2638 0.930 . S
H2630 C2640 0.930 . S
H2631 C2643 0.929 . S
H2632 C2646 0.930 . S
H2633 C2648 0.960 . S
H2634 C2648 0.960 . S
H2635 C2648 0.960 . S
C2636 H2628 0.929 . S
C2636 C2637 1.377 . S
C2636 C2638 1.384 . S
C2637 C2636 1.377 . S
C2637 C2643 1.390 . S
C2638 H2629 0.930 . S
C2638 C2636 1.384 . S
C2638 C2639 1.372 . S
C2639 C2638 1.372 . S
C2639 C2640 1.400 . S
C2639 C2644 1.490 . S
C2640 H2630 0.930 . S
C2640 C2639 1.400 . S
C2640 C2643 1.386 . S
H2641 C2657 0.930 . S
H2642 C2658 0.931 . S
C2643 H2631 0.929 . S
C2643 C2637 1.390 . S
C2643 C2640 1.386 . S
C2644 C2639 1.490 . S
C2644 C2646 1.395 . S
C2644 C2647 1.403 . S
H2645 C2651 0.930 . S
C2646 H2632 0.930 . S
C2646 C2644 1.395 . S
C2646 C2649 1.403 . S
C2647 C2644 1.403 . S
C2647 C2648 1.524 . S
C2647 C2651 1.400 . S
C2648 H2633 0.960 . S
C2648 H2634 0.960 . S
C2648 H2635 0.960 . S
C2648 C2647 1.524 . S
C2649 C2646 1.403 . S
C2649 C2650 1.392 . S
C2649 C2653 1.495 . S
C2650 C2649 1.392 . S
C2650 C2651 1.385 . S
C2650 C2652 1.478 . S
C2651 H2645 0.930 . S
C2651 C2647 1.400 . S
C2651 C2650 1.385 . S
C2652 C2650 1.478 . S
C2652 C2654 1.381 . S
C2652 C2658 1.383 . S
C2653 C2649 1.495 . S
C2653 H2659 0.959 . S
C2653 H2660 0.961 . S
C2653 H2661 0.960 . S
C2654 C2652 1.381 . S
C2654 C2655 1.394 . S
C2654 H2662 0.930 . S
C2655 C2654 1.394 . S
C2655 C2656 1.383 . S
C2655 H2663 0.929 . S
C2656 C2655 1.383 . S
C2656 C2657 1.377 . S
C2657 H2641 0.930 . S
C2657 C2656 1.377 . S
C2657 C2658 1.379 . S
C2658 H2642 0.931 . S
C2658 C2652 1.383 . S
C2658 C2657 1.379 . S
H2659 C2653 0.959 . S
H2660 C2653 0.961 . S
H2661 C2653 0.960 . S
H2662 C2654 0.930 . S
H2663 C2655 0.929 . S
C729 C539 2.452 . S
C748 C19 2.450 . S
C765 C58 1.576 . S
C784 C578 1.573 . S
C801 C99 2.043 . S
C820 C498 2.087 . S
C837 C98 1.393 . S
C856 C298 1.394 . S
C873 C338 1.767 . S
C892 C18 1.754 . S
C909 C59 2.132 . S
C928 C258 2.162 . S
C945 C130 2.042 . S
C964 C409 2.067 . S
C981 C169 1.255 . S
C1000 C449 1.246 . S
C1017 C369 1.718 . S
C1036 C210 1.660 . S
C1053 C649 1.589 . S
C1072 C209 1.588 . S
C1089 C129 2.077 . S
C1108 C690 2.043 . S
C1125 C610 2.470 . S
C1144 C170 2.460 . S
C1161 C339 1.902 . S
C1180 C538 1.935 . S
C1197 C259 2.337 . S
C1216 C579 2.335 . S
C1233 C299 2.664 . S
C1252 C499 2.670 . S
C1269 C370 2.807 . S
C1288 C650 2.787 . S
C1305 C689 2.100 . S
C1324 C410 2.049 . S
C1341 C609 2.450 . S
C1360 C450 2.411 . S
C1377 C9 1.314 . S
C1396 C178 1.290 . S
C1413 C219 1.722 . S
C1432 C50 1.720 . S
C1449 C139 1.518 . S
C1468 C89 1.370 . S
C1485 C179 1.792 . S
C1504 C90 1.815 . S
C1521 C218 1.519 . S
C1540 C10 1.576 . S
C1557 C138 1.429 . S
C1576 C49 1.469 . S
C1593 C419 1.885 . S
C1612 C250 1.846 . S
C1629 C459 1.953 . S
C1648 C290 1.934 . S
C1665 C379 1.943 . S
C1684 C330 1.845 . S
C1701 C418 1.379 . S
C1720 C329 1.363 . S
C1737 C458 1.340 . S
C1756 C249 1.368 . S
C1773 C378 1.357 . S
C1792 C289 1.321 . S
C1809 C658 1.492 . S
C1828 C489 1.466 . S
C1845 C699 1.833 . S
C1864 C530 1.794 . S
C1881 C569 1.517 . S
C1900 C619 1.609 . S
C1917 C570 2.000 . S
C1936 C659 2.018 . S
C1953 C490 1.752 . S
C1972 C698 1.620 . S
C1989 C618 1.474 . S
C2008 C529 1.507 . S
C2025 C15 1.284 . S
C2044 C6 1.283 1_655 S
C2061 C46 1.415 . S
C2080 C55 1.428 . S
C2097 C95 1.401 . S
C2116 C86 1.377 . S
C2133 C126 1.339 1_655 S
C2152 C135 1.323 . S
C2169 C166 1.339 . S
C2188 C175 1.352 . S
C2205 C215 1.507 . S
C2224 C206 1.481 . S
C2241 C255 1.503 . S
C2260 C246 1.502 . S
C2277 C286 1.300 . S
C2296 C295 1.303 . S
C2313 C335 1.624 . S
C2332 C326 1.636 . S
C2349 C366 1.243 . S
C2368 C375 1.233 . S
C2385 C406 1.520 . S
C2404 C415 1.539 . S
C2421 C446 1.362 . S
C2440 C455 1.349 . S
C2457 C486 1.242 . S
C2476 C495 1.229 . S
C2493 C526 1.377 . S
C2512 C535 1.391 . S
C2529 C575 1.355 . S
C2548 C566 1.344 . S
C2565 C615 1.359 . S
C2584 C606 1.336 . S
C2601 C646 1.284 . S
C2620 C655 1.263 . S
C2637 C686 1.423 . S
C2656 C695 1.411 . S
