# Generated by pormake.
# Topology rob, (6)-cn, num edge types: 1
# Building blocks:
#     Node 0, Type 0, BuildingBlock: KUMJIN_clean_sbu_1, # of connection points: 6
#     Node 1, Type 0, BuildingBlock: KUMJIN_clean_sbu_1, # of connection points: 6
#     Node 2, Type 0, BuildingBlock: KUMJIN_clean_sbu_1, # of connection points: 6
#     Node 3, Type 0, BuildingBlock: KUMJIN_clean_sbu_1, # of connection points: 6
#     Edge 4, Type (0, 0), BuildingBlock: UVAHIK_clean_linker_0, # of connection points: 2
#     Edge 5, Type (0, 0), BuildingBlock: UVAHIK_clean_linker_0, # of connection points: 2
#     Edge 6, Type (0, 0), BuildingBlock: UVAHIK_clean_linker_0, # of connection points: 2
#     Edge 7, Type (0, 0), BuildingBlock: UVAHIK_clean_linker_0, # of connection points: 2
#     Edge 8, Type (0, 0), BuildingBlock: UVAHIK_clean_linker_0, # of connection points: 2
#     Edge 9, Type (0, 0), BuildingBlock: UVAHIK_clean_linker_0, # of connection points: 2
#     Edge 10, Type (0, 0), BuildingBlock: UVAHIK_clean_linker_0, # of connection points: 2
#     Edge 11, Type (0, 0), BuildingBlock: UVAHIK_clean_linker_0, # of connection points: 2
#     Edge 12, Type (0, 0), BuildingBlock: UVAHIK_clean_linker_0, # of connection points: 2
#     Edge 13, Type (0, 0), BuildingBlock: UVAHIK_clean_linker_0, # of connection points: 2
#     Edge 14, Type (0, 0), BuildingBlock: UVAHIK_clean_linker_0, # of connection points: 2
#     Edge 15, Type (0, 0), BuildingBlock: UVAHIK_clean_linker_0, # of connection points: 2
# Relax obj value: 0.016
# Max RMSD: 0.098
# Mean RMSD: 0.098
data_MOF--net-rob--node1-KUMJIN_clean_sbu_1--edge1-UVAHIK_clean_linker_0
_symmetry_space_group_name_H-M    P1
_symmetry_Int_Tables_number       1
_symmetry_cell_setting            triclinic
loop_
_symmetry_equiv_pos_as_xyz
'x, y, z'
_cell_length_a     23.086122
_cell_length_b     31.393969
_cell_length_c     41.980237
_cell_angle_alpha  109.29842
_cell_angle_beta   90.003537
_cell_angle_gamma 89.865628
loop_
_atom_site_label
_atom_site_type_symbol
_atom_site_fract_x
_atom_site_fract_y
_atom_site_fract_z
_atom_type_partial_charge
Eu0 Eu 0.32794 0.19261 0.97733 0.0
C1 C 0.17034 0.37018 0.04493 0.0
N2 N 0.2206 0.35809 0.05652 0.0
C3 C 0.25407 0.43449 0.07327 0.0
C4 C 0.16026 0.41526 0.0468 0.0
C5 C 0.26189 0.38944 0.07109 0.0
C6 C 0.20314 0.44745 0.06093 0.0
C7 C 0.07531 0.34904 0.01995 0.0
C8 C 0.12832 0.33749 0.03165 0.0
C9 C 0.06539 0.39381 0.02143 0.0
C10 C 0.10774 0.42682 0.0348 0.0
Eu11 Eu 0.23064 0.28121 0.0509 0.0
N12 N 0.1396 0.29423 0.02997 0.0
C13 C 0.03382 0.31523 0.00717 0.0
C14 C 0.0986 0.26146 0.01864 0.0
C15 C 0.04539 0.27134 0.00674 0.0
H16 H 0.30048 0.37974 0.08154 0.0
H17 H 0.01329 0.24512 0.99729 0.0
H18 H 0.30292 0.08925 0.98011 0.0
H19 H 0.53127 0.28847 1.00017 0.0
H20 H 0.10697 0.2276 0.01844 0.0
H21 H 0.99257 0.32273 0.99788 0.0
H22 H 0.43452 0.26714 0.97592 0.0
H23 H 0.28709 0.45925 0.08468 0.0
H24 H 0.02498 0.40331 0.01244 0.0
H25 H 0.0993 0.46126 0.03595 0.0
H26 H 0.35239 0.03175 0.99909 0.0
H27 H 0.19707 0.48242 0.06279 0.0
H28 H 0.58053 0.24189 0.02939 0.0
N29 N 0.37215 0.13611 0.99464 0.0
C30 C 0.42646 0.14481 0.00761 0.0
C31 C 0.37359 0.06344 1.00172 0.0
C32 C 0.4559 0.11333 0.01919 0.0
C33 C 0.34576 0.0959 0.99098 0.0
C34 C 0.42871 0.07233 0.01615 0.0
N35 N 0.42383 0.21416 0.99656 0.0
C36 C 0.45315 0.2488 0.99102 0.0
C37 C 0.50944 0.19471 0.02186 0.0
C38 C 0.45252 0.18534 0.00924 0.0
C39 C 0.53685 0.2335 0.02 0.0
C40 C 0.50908 0.26004 1.00372 0.0
H41 H 0.44999 0.04725 0.02468 0.0
H42 H 0.53449 0.10008 0.04258 0.0
H43 H 0.58156 0.17116 0.0447 0.0
O44 O 0.37262 0.18982 0.92985 0.0
O45 O 0.32245 0.18672 0.03002 0.0
O46 O 0.32041 0.26095 0.06152 0.0
O47 O 0.32822 0.13082 0.93413 0.0
O48 O 0.33082 0.2682 0.98478 0.0
O49 O 0.32246 0.2993 0.04226 0.0
O50 O 0.18949 0.25725 0.0888 0.0
O51 O 0.21371 0.27985 0.99709 0.0
O52 O 0.24077 0.20968 0.9601 0.0
O53 O 0.21855 0.32629 0.10269 0.0
O54 O 0.20446 0.20741 0.0357 0.0
O55 O 0.23997 0.164 0.98272 0.0
C56 C 0.33198 0.21907 0.05865 0.0
C57 C 0.37415 0.12052 0.88016 0.0
C58 C 0.41996 0.1119 0.82563 0.0
C59 C 0.40027 0.06696 0.81362 0.0
C60 C 0.35582 0.07538 0.86738 0.0
C61 C 0.36875 0.04895 0.83438 0.0
C62 C 0.40632 0.13875 0.85912 0.0
C63 C 0.33879 0.30206 0.01305 0.0
C64 C 0.35837 0.14779 0.9152 0.0
C65 C 0.51142 0.12363 0.03323 0.0
C66 C 0.5381 0.16422 0.03459 0.0
C67 C 0.2121 0.24791 0.96741 0.0
C68 C 0.13422 0.3122 0.12958 0.0
C69 C 0.0635 0.31164 0.17288 0.0
C70 C 0.02743 0.34005 0.16171 0.0
C71 C 0.09745 0.34067 0.1191 0.0
C72 C 0.11718 0.29784 0.15659 0.0
C73 C 0.04439 0.35438 0.13503 0.0
C74 C 0.20515 0.17057 0.00888 0.0
C75 C 0.18976 0.29686 0.11211 0.0
H76 H 0.40849 0.04569 0.78786 0.0
H77 H 0.33103 0.06038 0.88284 0.0
H78 H 0.35395 0.01434 0.82475 0.0
H79 H 0.42103 0.17341 0.86882 0.0
H80 H 0.98638 0.35187 0.17398 0.0
H81 H 0.10977 0.35255 0.09872 0.0
H82 H 0.1453 0.27559 0.16459 0.0
H83 H 0.01641 0.37641 0.12679 0.0
Eu84 Eu 0.79488 0.69939 0.96194 0.0
C85 C 0.59354 0.82599 0.99437 0.0
N86 N 0.64501 0.83818 0.01039 0.0
C87 C 0.64326 0.90797 0.99888 0.0
C88 C 0.56573 0.85396 0.9788 0.0
C89 C 0.66951 0.87892 0.01366 0.0
C90 C 0.59143 0.89525 0.98108 0.0
C91 C 0.51493 0.77217 0.97753 0.0
C92 C 0.5689 0.78531 0.99349 0.0
C93 C 0.48801 0.79915 0.96095 0.0
C94 C 0.51335 0.83993 0.96158 0.0
Eu95 Eu 0.68809 0.78656 0.03313 0.0
N96 N 0.59617 0.75975 0.0096 0.0
C97 C 0.48868 0.7331 0.9797 0.0
C98 C 0.56772 0.72454 0.0148 0.0
C99 C 0.51457 0.7098 0.9991 0.0
H100 H 0.70989 0.88848 0.02715 0.0
H101 H 0.4931 0.68101 1.00253 0.0
H102 H 0.71635 0.60805 0.92154 0.0
H103 H 0.01794 0.70791 0.00684 0.0
H104 H 0.58495 0.70834 0.03173 0.0
H105 H 0.44722 0.72188 0.96782 0.0
H106 H 0.92818 0.73663 0.98868 0.0
H107 H 0.66315 0.93998 1.00104 0.0
H108 H 0.44689 0.78929 0.94824 0.0
H109 H 0.49166 0.86071 0.94911 0.0
H110 H 0.71598 0.52627 0.91369 0.0
H111 H 0.57141 0.91768 0.96944 0.0
H112 H 0.02335 0.62849 0.00531 0.0
N113 N 0.79381 0.62061 0.9503 0.0
C114 C 0.83991 0.60259 0.96142 0.0
C115 C 0.75086 0.54742 0.92743 0.0
C116 C 0.84248 0.55606 0.9568 0.0
C117 C 0.75077 0.59369 0.93223 0.0
C118 C 0.79654 0.5286 0.94019 0.0
N119 N 0.88316 0.67455 0.97833 0.0
C120 C 0.9304 0.70196 0.988 0.0
C121 C 0.93659 0.61235 0.98537 0.0
C122 C 0.88629 0.6303 0.97553 0.0
C123 C 0.98396 0.64096 0.99742 0.0
C124 C 0.9811 0.68581 0.99829 0.0
H125 H 0.79679 0.49269 0.93618 0.0
H126 H 0.894 0.50271 0.96488 0.0
H127 H 0.97644 0.55204 0.98991 0.0
O128 O 0.8204 0.73435 0.92688 0.0
O129 O 0.82337 0.71162 0.01595 0.0
O130 O 0.7605 0.75844 0.05638 0.0
O131 O 0.82914 0.66186 0.9121 0.0
O132 O 0.82684 0.77127 0.98514 0.0
O133 O 0.77422 0.81937 0.03078 0.0
O134 O 0.62771 0.79794 0.07605 0.0
O135 O 0.70577 0.78928 0.98023 0.0
O136 O 0.70411 0.71507 0.94944 0.0
O137 O 0.69387 0.84785 0.07703 0.0
O138 O 0.69036 0.7122 0.02881 0.0
O139 O 0.70406 0.6801 0.97196 0.0
C140 C 0.80701 0.73289 0.04727 0.0
C141 C 0.81158 0.69258 0.86893 0.0
C142 C 0.8294 0.69169 0.81136 0.0
C143 C 0.77071 0.68112 0.80376 0.0
C144 C 0.75344 0.68151 0.86076 0.0
C145 C 0.73303 0.67627 0.82839 0.0
C146 C 0.84937 0.69785 0.84429 0.0
C147 C 0.81852 0.80999 0.00966 0.0
C148 C 0.83382 0.69727 0.90268 0.0
C149 C 0.89143 0.53831 0.96795 0.0
C150 C 0.93841 0.56639 0.98217 0.0
C151 C 0.69117 0.75678 0.95258 0.0
C152 C 0.63128 0.86572 0.12636 0.0
C153 C 0.58403 0.87663 0.18092 0.0
C154 C 0.59865 0.92272 0.1908 0.0
C155 C 0.6448 0.91186 0.13703 0.0
C156 C 0.60059 0.84816 0.14837 0.0
C157 C 0.62844 0.94008 0.16897 0.0
C158 C 0.68867 0.67684 1.00114 0.0
C159 C 0.65134 0.83639 0.09276 0.0
H160 H 0.7539 0.67677 0.7788 0.0
H161 H 0.72417 0.67648 0.87933 0.0
H162 H 0.68797 0.66803 0.82227 0.0
H163 H 0.89458 0.70559 0.85053 0.0
H164 H 0.58802 0.94546 0.21576 0.0
H165 H 0.66828 0.9262 0.12066 0.0
H166 H 0.58997 0.81258 0.14026 0.0
H167 H 0.63941 0.97557 0.17701 0.0
Eu168 Eu 0.32154 0.7938 0.53665 0.0
C169 C 0.16279 0.61448 0.4708 0.0
N170 N 0.21423 0.62706 0.46099 0.0
C171 C 0.25035 0.55154 0.4477 0.0
C172 C 0.15354 0.5698 0.47009 0.0
C173 C 0.25708 0.5961 0.44841 0.0
C174 C 0.19854 0.53841 0.4589 0.0
C175 C 0.06349 0.63367 0.48905 0.0
C176 C 0.11831 0.64593 0.48016 0.0
C177 C 0.05451 0.58951 0.4892 0.0
C178 C 0.09945 0.55766 0.47979 0.0
Eu179 Eu 0.22213 0.70313 0.46359 0.0
N180 N 0.12859 0.68854 0.4802 0.0
C181 C 0.01929 0.66614 0.49729 0.0
C182 C 0.08507 0.71977 0.4867 0.0
C183 C 0.03002 0.70925 0.49582 0.0
H184 H 0.29608 0.60563 0.43833 0.0
H185 H 0.99586 0.73432 0.50158 0.0
H186 H 0.29139 0.89494 0.53111 0.0
H187 H 0.52346 0.69565 0.50734 0.0
H188 H 0.09315 0.75293 0.48525 0.0
H189 H 0.97659 0.65808 0.50433 0.0
H190 H 0.42869 0.7176 0.53443 0.0
H191 H 0.2848 0.52723 0.4381 0.0
H192 H 0.0128 0.5795 0.49619 0.0
H193 H 0.09163 0.52354 0.47956 0.0
H194 H 0.33634 0.95049 0.50826 0.0
H195 H 0.1932 0.50375 0.458 0.0
H196 H 0.56896 0.74174 0.47653 0.0
N197 N 0.36129 0.84855 0.51611 0.0
C198 C 0.41483 0.83954 0.50194 0.0
C199 C 0.35872 0.91938 0.50623 0.0
C200 C 0.44166 0.86987 0.48823 0.0
C201 C 0.33347 0.88808 0.51917 0.0
C202 C 0.41284 0.91009 0.49047 0.0
N203 N 0.41554 0.77106 0.51455 0.0
C204 C 0.44564 0.73592 0.5189 0.0
C205 C 0.4978 0.78938 0.48605 0.0
C206 C 0.44217 0.79938 0.50057 0.0
C207 C 0.52619 0.75058 0.48736 0.0
C208 C 0.5005 0.7243 0.50452 0.0
H209 H 0.43208 0.93426 0.48024 0.0
H210 H 0.51718 0.8818 0.46175 0.0
H211 H 0.56652 0.81158 0.46007 0.0
O212 O 0.37855 0.80429 0.58065 0.0
O213 O 0.31171 0.79639 0.48313 0.0
O214 O 0.31322 0.72162 0.45397 0.0
O215 O 0.31464 0.85556 0.58038 0.0
O216 O 0.32324 0.71996 0.53309 0.0
O217 O 0.31251 0.68612 0.47618 0.0
O218 O 0.18245 0.7246 0.42381 0.0
O219 O 0.19073 0.7148 0.51728 0.0
O220 O 0.248 0.76547 0.55867 0.0
O221 O 0.2164 0.65705 0.41189 0.0
O222 O 0.19897 0.77755 0.47783 0.0
O223 O 0.23066 0.81883 0.53225 0.0
C224 C 0.32448 0.76302 0.4556 0.0
C225 C 0.37437 0.87172 0.63097 0.0
C226 C 0.42264 0.88105 0.68499 0.0
C227 C 0.40656 0.92693 0.696 0.0
C228 C 0.35925 0.91762 0.64275 0.0
C229 C 0.37536 0.94495 0.675 0.0
C230 C 0.40622 0.85349 0.65222 0.0
C231 C 0.32623 0.68402 0.50594 0.0
C232 C 0.35546 0.84326 0.59689 0.0
C233 C 0.49608 0.8591 0.47269 0.0
C234 C 0.52405 0.81899 0.4716 0.0
C235 C 0.20392 0.73764 0.5489 0.0
C236 C 0.13384 0.66605 0.38172 0.0
C237 C 0.07066 0.65695 0.33327 0.0
C238 C 0.03665 0.62646 0.34321 0.0
C239 C 0.09925 0.63535 0.39104 0.0
C240 C 0.11897 0.67723 0.35294 0.0
C241 C 0.05075 0.616 0.37205 0.0
C242 C 0.19621 0.8126 0.50594 0.0
C243 C 0.18669 0.68474 0.40102 0.0
H244 H 0.41724 0.94894 0.72117 0.0
H245 H 0.33485 0.93247 0.62701 0.0
H246 H 0.36324 0.98027 0.68388 0.0
H247 H 0.41813 0.8181 0.64329 0.0
H248 H 0.99904 0.61076 0.32863 0.0
H249 H 0.11021 0.6256 0.41262 0.0
H250 H 0.14578 0.70049 0.34531 0.0
H251 H 0.02443 0.59236 0.37947 0.0
Eu252 Eu 0.80481 0.2904 0.55268 0.0
C253 C 0.60085 0.15713 0.50417 0.0
N254 N 0.65591 0.1507 0.49217 0.0
C255 C 0.65761 0.07672 0.49687 0.0
C256 C 0.57253 0.12391 0.5142 0.0
C257 C 0.68409 0.11087 0.48755 0.0
C258 C 0.60179 0.08343 0.51058 0.0
C259 C 0.51553 0.2047 0.51823 0.0
C260 C 0.57307 0.19714 0.50636 0.0
C261 C 0.48762 0.17236 0.52928 0.0
C262 C 0.51605 0.13204 0.52725 0.0
Eu263 Eu 0.69908 0.21024 0.47827 0.0
N264 N 0.6013 0.22766 0.49539 0.0
C265 C 0.48722 0.24391 0.51771 0.0
C266 C 0.5721 0.26383 0.49211 0.0
C267 C 0.51529 0.27317 0.50397 0.0
H268 H 0.72723 0.10579 0.477 0.0
H269 H 0.49289 0.30252 0.502 0.0
H270 H 0.73989 0.39326 0.57579 0.0
H271 H 0.03178 0.25285 0.52013 0.0
H272 H 0.59181 0.2851 0.47962 0.0
H273 H 0.44302 0.251 0.52661 0.0
H274 H 0.93344 0.24002 0.53901 0.0
H275 H 0.68029 0.04535 0.49359 0.0
H276 H 0.44362 0.1778 0.53877 0.0
H277 H 0.49369 0.10711 0.53538 0.0
H278 H 0.7527 0.46614 0.56665 0.0
H279 H 0.58148 0.05702 0.51794 0.0
H280 H 0.05164 0.32166 0.50552 0.0
N281 N 0.81549 0.36352 0.54826 0.0
C282 C 0.86612 0.37166 0.5348 0.0
C283 C 0.7845 0.4396 0.55698 0.0
C284 C 0.87678 0.41371 0.53057 0.0
C285 C 0.77664 0.39773 0.56136 0.0
C286 C 0.8343 0.44735 0.54089 0.0
N287 N 0.8987 0.30017 0.53404 0.0
C288 C 0.94218 0.26998 0.53255 0.0
C289 C 0.96453 0.34804 0.51712 0.0
C290 C 0.90944 0.33931 0.52803 0.0
C291 C 0.00865 0.3161 0.5137 0.0
C292 C 0.99764 0.27722 0.52196 0.0
H293 H 0.84078 0.48008 0.53806 0.0
H294 H 0.93915 0.45352 0.514 0.0
H295 H 0.0161 0.396 0.50232 0.0
O296 O 0.84212 0.26805 0.59264 0.0
O297 O 0.83997 0.26382 0.49869 0.0
O298 O 0.75581 0.26487 0.47151 0.0
O299 O 0.82187 0.3382 0.60279 0.0
O300 O 0.81543 0.21438 0.53845 0.0
O301 O 0.78765 0.18001 0.48227 0.0
O302 O 0.64893 0.20373 0.43307 0.0
O303 O 0.70208 0.20132 0.53 0.0
O304 O 0.71327 0.2742 0.56437 0.0
O305 O 0.72114 0.1587 0.42983 0.0
O306 O 0.69549 0.28653 0.49072 0.0
O307 O 0.71347 0.31583 0.5478 0.0
C308 C 0.81218 0.26253 0.47118 0.0
C309 C 0.90264 0.32174 0.63093 0.0
C310 C 0.96779 0.32664 0.67777 0.0
C311 C 0.00743 0.35073 0.6649 0.0
C312 C 0.94279 0.34606 0.61861 0.0
C313 C 0.99505 0.36009 0.63537 0.0
C314 C 0.91562 0.3116 0.66037 0.0
C315 C 0.81853 0.18131 0.50917 0.0
C316 C 0.84628 0.30871 0.6141 0.0
C317 C 0.93042 0.42158 0.51772 0.0
C318 C 0.97428 0.38886 0.51111 0.0
C319 C 0.69448 0.23312 0.55921 0.0
C320 C 0.64441 0.13423 0.38946 0.0
C321 C 0.58529 0.11168 0.33814 0.0
C322 C 0.57217 0.07109 0.34398 0.0
C323 C 0.63059 0.09378 0.39494 0.0
C324 C 0.62224 0.14273 0.36099 0.0
C325 C 0.59491 0.06225 0.37209 0.0
C326 C 0.68876 0.31828 0.5202 0.0
C327 C 0.67856 0.16986 0.41375 0.0
H328 H 0.04805 0.36232 0.67773 0.0
H329 H 0.93343 0.35492 0.59638 0.0
H330 H 0.02573 0.3788 0.6257 0.0
H331 H 0.8845 0.29336 0.67026 0.0
H332 H 0.54332 0.04657 0.32731 0.0
H333 H 0.64676 0.08681 0.41692 0.0
H334 H 0.6337 0.17397 0.35686 0.0
H335 H 0.58405 0.03111 0.37646 0.0
C336 C 0.62461 0.61061 0.97348 0.0
C337 C 0.65599 0.63664 1.00189 0.0
C338 C 0.59113 0.57415 0.9747 0.0
C339 C 0.51634 0.52932 0.03458 0.0
H340 H 0.5129 0.41798 0.95856 0.0
C341 C 0.40323 0.36805 0.04083 0.0
C342 C 0.37251 0.34178 0.01221 0.0
C343 C 0.437 0.40443 0.03969 0.0
C344 C 0.51278 0.44903 0.97984 0.0
H345 H 0.67665 0.64513 0.05394 0.0
H346 H 0.61828 0.5812 0.05613 0.0
H347 H 0.57479 0.47982 0.95641 0.0
H348 H 0.35285 0.33316 0.95999 0.0
H349 H 0.41156 0.3969 0.95799 0.0
H350 H 0.45424 0.49858 0.05798 0.0
C351 C 0.61939 0.58909 0.0329 0.0
C352 C 0.54837 0.48447 0.97864 0.0
C353 C 0.65306 0.62553 0.03162 0.0
C354 C 0.37614 0.35275 0.98243 0.0
C355 C 0.41001 0.38913 0.98126 0.0
C356 C 0.48071 0.49389 0.03578 0.0
C357 C 0.58781 0.56306 1.00448 0.0
C358 C 0.55061 0.52507 0.00599 0.0
C359 C 0.4411 0.4153 0.00985 0.0
C360 C 0.47847 0.45328 0.00842 0.0
H361 H 0.62443 0.6192 0.95054 0.0
H362 H 0.56654 0.55541 0.95255 0.0
H363 H 0.51625 0.56038 0.05585 0.0
H364 H 0.40226 0.3599 0.06396 0.0
H365 H 0.46105 0.42336 0.06201 0.0
C366 C 0.39398 0.61941 0.48086 0.0
C367 C 0.35978 0.64501 0.50815 0.0
C368 C 0.42915 0.58469 0.48379 0.0
C369 C 0.4528 0.50937 0.53407 0.0
H370 H 0.60715 0.49871 0.49569 0.0
C371 C 0.62383 0.38291 0.55104 0.0
C372 C 0.65388 0.35831 0.52161 0.0
C373 C 0.58885 0.41955 0.55141 0.0
C374 C 0.56406 0.50107 0.50635 0.0
H375 H 0.33529 0.65445 0.55984 0.0
H376 H 0.3973 0.59386 0.56515 0.0
H377 H 0.54284 0.55849 0.49198 0.0
H378 H 0.67177 0.35291 0.46972 0.0
H379 H 0.61075 0.41646 0.47028 0.0
H380 H 0.47419 0.45166 0.54828 0.0
C381 C 0.39626 0.60021 0.54132 0.0
C382 C 0.52714 0.53523 0.50415 0.0
C383 C 0.36103 0.63499 0.53836 0.0
C384 C 0.649 0.37127 0.49275 0.0
C385 C 0.6144 0.40788 0.49316 0.0
C386 C 0.48984 0.47515 0.53631 0.0
C387 C 0.43123 0.57502 0.51417 0.0
C388 C 0.47086 0.53948 0.51762 0.0
C389 C 0.58369 0.43231 0.52241 0.0
C390 C 0.54563 0.47034 0.52212 0.0
H391 H 0.39483 0.62696 0.45749 0.0
H392 H 0.45501 0.56557 0.46227 0.0
H393 H 0.40953 0.51153 0.54446 0.0
H394 H 0.62665 0.37339 0.57355 0.0
H395 H 0.56602 0.43797 0.57439 0.0
C396 C 0.16563 0.09206 0.98249 0.0
C397 C 0.16454 0.13385 0.00871 0.0
C398 C 0.12865 0.05711 0.98318 0.0
C399 C 0.99233 0.03442 0.02072 0.0
H400 H 0.05388 0.91304 0.9982 0.0
C401 C 0.85689 0.8886 0.03785 0.0
C402 C 0.86108 0.84642 0.0122 0.0
C403 C 0.89498 0.9236 0.03865 0.0
C404 C 0.03575 0.94662 1.00422 0.0
H405 H 0.12263 0.17161 0.05603 0.0
H406 H 0.05845 0.11083 0.05708 0.0
H407 H 0.11697 0.97411 0.99592 0.0
H408 H 0.90947 0.80819 0.9674 0.0
H409 H 0.97467 0.86903 0.96857 0.0
H410 H 0.91095 0.00696 0.02861 0.0
C411 C 0.08775 0.10516 0.03591 0.0
C412 C 0.07199 0.98163 1.0029 0.0
C413 C 0.1249 0.13997 0.03535 0.0
C414 C 0.90492 0.84 0.98773 0.0
C415 C 0.94271 0.87496 0.98846 0.0
C416 C 0.95599 -0.00063 0.02188 0.0
C417 C 0.0894 0.06323 0.00997 0.0
C418 C 0.0507 0.02593 0.01109 0.0
C419 C 0.93806 0.91734 0.01376 0.0
C420 C 0.97719 0.95497 0.01358 0.0
H421 H 0.19533 0.0861 0.96148 0.0
H422 H 0.13048 0.02535 0.96259 0.0
H423 H 0.97442 0.06809 0.0268 0.0
H424 H 0.82384 0.89483 0.05718 0.0
H425 H 0.89066 0.95558 0.05881 0.0
C426 C 0.85978 0.10422 0.47825 0.0
C427 C 0.85692 0.14258 0.50741 0.0
C428 C 0.8952 0.06755 0.47741 0.0
C429 C 0.97019 0.01626 0.53413 0.0
H430 H 0.06009 0.95339 0.45439 0.0
C431 C 0.15108 0.88875 0.53474 0.0
C432 C 0.15502 0.84927 0.5065 0.0
C433 C 0.11345 0.9237 0.53458 0.0
C434 C 0.03477 0.97029 0.47674 0.0
H435 H 0.89046 0.1726 0.55832 0.0
H436 H 0.95241 0.10947 0.55654 0.0
H437 H 0.99674 0.01558 0.45406 0.0
H438 H 0.12152 0.81566 0.45603 0.0
H439 H 0.05594 0.87628 0.456 0.0
H440 H 0.00853 0.97124 0.5569 0.0
C441 C 0.92637 0.10714 0.53457 0.0
C442 C 0.99839 0.0059 0.47652 0.0
C443 C 0.89097 0.14358 0.53546 0.0
C444 C 0.11998 0.84553 0.47825 0.0
C445 C 0.08251 0.88047 0.47809 0.0
C446 C 0.00664 0.98076 0.53437 0.0
C447 C 0.92866 0.06849 0.50567 0.0
C448 C 0.96591 0.02953 0.5053 0.0
C449 C 0.07893 0.92005 0.50618 0.0
C450 C 0.03958 0.95747 0.50574 0.0
H451 H 0.83429 0.10226 0.45615 0.0
H452 H 0.89563 0.03816 0.45481 0.0
H453 H 0.94498 0.03313 0.55653 0.0
H454 H 0.17742 0.89295 0.55692 0.0
H455 H 0.11217 0.95397 0.55651 0.0
C456 C 0.55088 0.08847 0.27763 0.0
C457 C 0.55947 0.12238 0.309 0.0
C458 C 0.52647 0.0988 0.2505 0.0
C459 C 0.44092 0.18805 0.23071 0.0
H460 H 0.49268 0.12514 0.1393 0.0
C461 C 0.37652 0.24289 0.11645 0.0
C462 C 0.35755 0.2083 0.0875 0.0
C463 C 0.40136 0.23257 0.14344 0.0
C464 C 0.47759 0.14279 0.1647 0.0
H465 H 0.54785 0.19387 0.33624 0.0
H466 H 0.5082 0.21208 0.28883 0.0
H467 H 0.53613 0.10692 0.18622 0.0
H468 H 0.34773 0.13589 0.06498 0.0
H469 H 0.39304 0.11784 0.11142 0.0
H470 H 0.3833 0.22457 0.20902 0.0
C471 C 0.51918 0.17726 0.28523 0.0
C472 C 0.50226 0.13223 0.19163 0.0
C473 C 0.54298 0.16687 0.3124 0.0
C474 C 0.36341 0.16326 0.08638 0.0
C475 C 0.38913 0.1529 0.11308 0.0
C476 C 0.41682 0.19898 0.20382 0.0
C477 C 0.51032 0.14338 0.2539 0.0
C478 C 0.48417 0.15462 0.22506 0.0
C479 C 0.4083 0.18744 0.14193 0.0
C480 C 0.43472 0.17636 0.17052 0.0
H481 H 0.56349 0.0539 0.27386 0.0
H482 H 0.51971 0.07161 0.22697 0.0
H483 H 0.42489 0.20545 0.25591 0.0
H484 H 0.37249 0.27798 0.11823 0.0
H485 H 0.41593 0.2599 0.16532 0.0
C486 C 0.56821 0.81749 0.20902 0.0
C487 C 0.55304 0.85909 0.20531 0.0
C488 C 0.54328 0.80398 0.23468 0.0
C489 C 0.47837 0.85288 0.31879 0.0
H490 H 0.41639 0.73362 0.30537 0.0
C491 C 0.34678 0.815 0.42302 0.0
C492 C 0.35152 0.77218 0.4265 0.0
C493 C 0.37261 0.82387 0.39573 0.0
C494 C 0.43433 0.7669 0.30977 0.0
H495 H 0.49648 0.91736 0.22437 0.0
H496 H 0.45437 0.89431 0.26921 0.0
H497 H 0.45882 0.75095 0.25772 0.0
H498 H 0.38745 0.70506 0.4042 0.0
H499 H 0.4336 0.72064 0.35691 0.0
H500 H 0.4554 0.8689 0.37075 0.0
C501 C 0.4862 0.8725 0.25268 0.0
C502 C 0.45846 0.77681 0.28235 0.0
C503 C 0.5105 0.88572 0.22695 0.0
C504 C 0.38265 0.73834 0.40205 0.0
C505 C 0.40893 0.74728 0.37484 0.0
C506 C 0.455 0.84287 0.34621 0.0
C507 C 0.50306 0.83195 0.25731 0.0
C508 C 0.47997 0.82015 0.28648 0.0
C509 C 0.40426 0.7902 0.37123 0.0
C510 C 0.4318 0.79994 0.34208 0.0
H511 H 0.60102 0.7962 0.19302 0.0
H512 H 0.55715 0.77252 0.23764 0.0
H513 H 0.49562 0.88635 0.32293 0.0
H514 H 0.32246 0.84162 0.4412 0.0
H515 H 0.36687 0.85707 0.39362 0.0
C516 C 0.62774 0.73575 0.90128 0.0
C517 C 0.66384 0.76731 0.92415 0.0
C518 C 0.60172 0.74579 0.87444 0.0
C519 C 0.563 0.84266 0.84611 0.0
H520 H 0.54986 0.75109 0.75785 0.0
C521 C 0.49856 0.88889 0.72951 0.0
C522 C 0.45528 0.86273 0.70839 0.0
C523 C 0.52475 0.87474 0.75432 0.0
C524 C 0.5528 0.77691 0.78242 0.0
H525 H 0.70122 0.83401 0.93686 0.0
H526 H 0.65649 0.85154 0.89006 0.0
H527 H 0.59345 0.73185 0.80449 0.0
H528 H 0.40774 0.79986 0.696 0.0
H529 H 0.45433 0.77475 0.7392 0.0
H530 H 0.52321 0.88784 0.82402 0.0
C531 C 0.64739 0.8192 0.89295 0.0
C532 C 0.57764 0.76589 0.80921 0.0
C533 C 0.67329 0.80915 0.91975 0.0
C534 C 0.44108 0.82077 0.71166 0.0
C535 C 0.46766 0.80643 0.73649 0.0
C536 C 0.53865 0.8537 0.81934 0.0
C537 C 0.61118 0.78769 0.86989 0.0
C538 C 0.58343 0.79875 0.8414 0.0
C539 C 0.5088 0.83383 0.75865 0.0
C540 C 0.5336 0.82112 0.78709 0.0
H541 H 0.61918 0.7034 0.90432 0.0
H542 H 0.57352 0.72092 0.85756 0.0
H543 H 0.56535 0.86861 0.87064 0.0
H544 H 0.51172 0.92084 0.72721 0.0
H545 H 0.55727 0.89615 0.7704 0.0
C546 C 0.63901 0.25721 0.61357 0.0
C547 C 0.66446 0.22263 0.58686 0.0
C548 C 0.61145 0.24749 0.64005 0.0
C549 C 0.55195 0.15152 0.6639 0.0
H550 H 0.56324 0.2365 0.75494 0.0
C551 C 0.49365 0.10195 0.77973 0.0
C552 C 0.45359 0.12991 0.80252 0.0
C553 C 0.51979 0.1159 0.75488 0.0
C554 C 0.55943 0.21265 0.72961 0.0
H555 H 0.68154 0.15079 0.56712 0.0
H556 H 0.63518 0.13382 0.61354 0.0
H557 H 0.60728 0.25481 0.70815 0.0
H558 H 0.41244 0.1958 0.8181 0.0
H559 H 0.45975 0.22071 0.77499 0.0
H560 H 0.5058 0.10882 0.68569 0.0
C561 C 0.63481 0.1684 0.61379 0.0
C562 C 0.5844 0.22315 0.70269 0.0
C563 C 0.66171 0.1781 0.58713 0.0
C564 C 0.44317 0.17345 0.80108 0.0
C565 C 0.47004 0.18766 0.77633 0.0
C566 C 0.52785 0.14081 0.69084 0.0
C567 C 0.60931 0.20297 0.64071 0.0
C568 C 0.58131 0.19258 0.66943 0.0
C569 C 0.50737 0.15847 0.75242 0.0
C570 C 0.53162 0.17109 0.72399 0.0
H571 H 0.63994 0.29186 0.61389 0.0
H572 H 0.59142 0.27493 0.65984 0.0
H573 H 0.54721 0.12755 0.6387 0.0
H574 H 0.50404 0.06871 0.78062 0.0
H575 H 0.54936 0.09308 0.73725 0.0
C576 C 0.84698 0.76115 0.10593 0.0
C577 C 0.84261 0.72653 0.07462 0.0
C578 C 0.87873 0.75456 0.13231 0.0
C579 C 0.92343 0.66561 0.16476 0.0
H580 H 0.03203 0.75349 0.21967 0.0
C581 C 0.04775 0.6303 0.27175 0.0
C582 C 0.05568 0.66629 0.30191 0.0
C583 C 0.0282 0.63817 0.24272 0.0
C584 C 1.00134 0.72882 0.20487 0.0
H585 H 0.86749 0.65779 0.04653 0.0
H586 H 0.92266 0.64611 0.09264 0.0
H587 H 0.98527 0.76662 0.17147 0.0
H588 H 0.05094 0.73878 0.32536 0.0
H589 H 0.01478 0.75274 0.27491 0.0
H590 H 0.9371 0.62857 0.19853 0.0
C591 C 0.90201 0.67849 0.09664 0.0
C592 C 0.97481 0.7363 0.17717 0.0
C593 C 0.87094 0.68531 0.07013 0.0
C594 C 0.04543 0.71052 0.30229 0.0
C595 C 0.02491 0.71841 0.27331 0.0
C596 C 0.94924 0.65841 0.19264 0.0
C597 C 0.90589 0.71294 0.12807 0.0
C598 C 0.93561 0.70473 0.15685 0.0
C599 C 0.01503 0.68221 0.24327 0.0
C600 C 0.98866 0.68986 0.21311 0.0
H601 H 0.82569 0.79333 0.11006 0.0
H602 H 0.8806 0.78156 0.15634 0.0
H603 H 0.89264 0.64106 0.14988 0.0
H604 H 0.05608 0.5959 0.27075 0.0
H605 H 0.02282 0.60952 0.21992 0.0
C606 C 0.90471 0.26257 0.4393 0.0
C607 C 0.84388 0.26171 0.44022 0.0
C608 C 0.93383 0.2632 0.41017 0.0
C609 C 0.91531 0.23489 0.31818 0.0
H610 H 0.0347 0.32419 0.32527 0.0
C611 C 0.98681 0.28525 0.20436 0.0
C612 C 0.04477 0.29733 0.20176 0.0
C613 C 0.96744 0.27577 0.23281 0.0
C614 C 1.00225 0.29845 0.32281 0.0
H615 H 0.76598 0.25938 0.41069 0.0
H616 H 0.8166 0.25987 0.36002 0.0
H617 H 0.99158 0.31728 0.37646 0.0
H618 H 0.12831 0.30753 0.22668 0.0
H619 H 0.09471 0.29007 0.27623 0.0
H620 H 0.9255 0.21609 0.26467 0.0
C621 C 0.8419 0.26031 0.38186 0.0
C622 C 0.97745 0.2946 0.35219 0.0
C623 C 0.81288 0.2603 0.41104 0.0
C624 C 0.08344 0.29813 0.22783 0.0
C625 C 0.06401 0.28863 0.2564 0.0
C626 C 0.94033 0.2385 0.28887 0.0
C627 C 0.90268 0.26203 0.38111 0.0
C628 C 0.93288 0.26338 0.35016 0.0
C629 C 1.00552 0.27793 0.25945 0.0
C630 C 0.98329 0.27095 0.29074 0.0
H631 H 0.92989 0.26276 0.461 0.0
H632 H 0.98073 0.26408 0.41025 0.0
H633 H 0.88177 0.20996 0.31582 0.0
H634 H 0.95603 0.28371 0.18454 0.0
H635 H 0.922 0.26815 0.23433 0.0
C636 C 0.99688 0.35498 0.73837 0.0
C637 C 0.98091 0.31866 0.70987 0.0
C638 C 0.01405 0.34765 0.76801 0.0
C639 C 0.01854 0.26169 0.81179 0.0
H640 H 0.14717 0.33495 0.8589 0.0
C641 C 0.16108 0.21968 0.9116 0.0
C642 C 0.1769 0.25585 0.9404 0.0
C643 C 0.13077 0.22749 0.88521 0.0
C644 C 0.11076 0.3146 0.84631 0.0
H645 H 0.9687 0.24633 0.6901 0.0
H646 H 1.00062 0.23303 0.74163 0.0
H647 H 0.10654 0.3478 0.8095 0.0
H648 H 0.17244 0.32855 0.96419 0.0
H649 H 0.11948 0.34206 0.91819 0.0
H650 H 0.02469 0.22749 0.8483 0.0
C651 C 0.99874 0.2674 0.74143 0.0
C652 C 0.08722 0.32203 0.81797 0.0
C653 C 0.98065 0.27489 0.71185 0.0
C654 C 0.1606 0.29988 0.94252 0.0
C655 C 0.13066 0.30769 0.91604 0.0
C656 C 0.04261 0.25394 0.84003 0.0
C657 C 0.01669 0.30366 0.76972 0.0
C658 C 0.0407 0.29578 0.80031 0.0
C659 C 0.11613 0.27165 0.8869 0.0
C660 C 0.08894 0.28038 0.85759 0.0
H661 H 0.99656 0.38914 0.73761 0.0
H662 H 0.02588 0.37656 0.7895 0.0
H663 H 0.98234 0.24116 0.79914 0.0
H664 H 0.17272 0.18532 0.90924 0.0
H665 H 0.12052 0.19909 0.86297 0.0
C666 C 0.13391 0.69243 0.5706 0.0
C667 C 0.16635 0.73198 0.57589 0.0
C668 C 0.09819 0.68747 0.59606 0.0
C669 C 0.07662 0.72868 0.68823 0.0
H670 H 0.92056 0.68314 0.66634 0.0
C671 C 0.90919 0.73137 0.79159 0.0
C672 C 0.86976 0.69544 0.78481 0.0
C673 C 0.9463 0.7352 0.7663 0.0
C674 C 0.96428 0.69527 0.67289 0.0
H675 H 0.18758 0.79707 0.61252 0.0
H676 H 0.12583 0.78818 0.65707 0.0
H677 H 0.98354 0.69047 0.62189 0.0
H678 H 0.83972 0.63453 0.74654 0.0
H679 H 0.90507 0.64056 0.70267 0.0
H680 H 0.05787 0.73295 0.73911 0.0
C681 C 0.1279 0.76101 0.63313 0.0
C682 C 1.00033 0.69958 0.64736 0.0
C683 C 0.1632 0.76611 0.60756 0.0
C684 C 0.86892 0.66304 0.75237 0.0
C685 C 0.90634 0.66661 0.72719 0.0
C686 C 0.04075 0.72402 0.71374 0.0
C687 C 0.09478 0.72171 0.62763 0.0
C688 C 0.05683 0.7165 0.65474 0.0
C689 C 0.94526 0.70294 0.73369 0.0
C690 C 0.98396 0.70739 0.70646 0.0
H691 H 0.13715 0.6648 0.54713 0.0
H692 H 0.07408 0.65642 0.59123 0.0
H693 H 0.12023 0.74125 0.69464 0.0
H694 H 0.9105 0.75707 0.81627 0.0
H695 H 0.97498 0.764 0.77218 0.0
loop_
_geom_bond_atom_site_label_1
_geom_bond_atom_site_label_2
_geom_bond_distance
_geom_bond_site_symmetry_2
_ccdc_geom_bond_type
Eu0 N29 2.600 . S
Eu0 N35 2.562 . S
Eu0 O44 2.462 . S
Eu0 O45 2.373 1_556 S
Eu0 O47 2.432 . S
Eu0 O48 2.291 . S
Eu0 O52 2.335 . S
Eu0 O55 2.372 . S
Eu0 C64 2.787 . S
C1 N2 1.365 . S
C1 C4 1.405 . S
C1 C8 1.448 . S
N2 C1 1.365 . S
N2 C5 1.319 . S
N2 Eu11 2.600 . S
C3 C5 1.397 . S
C3 C6 1.367 . S
C3 H23 0.931 . S
C4 C1 1.405 . S
C4 C6 1.403 . S
C4 C10 1.439 . S
C5 N2 1.319 . S
C5 C3 1.397 . S
C5 H16 0.930 . S
C6 C3 1.367 . S
C6 C4 1.403 . S
C6 H27 0.929 . S
C7 C8 1.430 . S
C7 C9 1.387 1_454 S
C7 C13 1.404 1_454 S
C8 C1 1.448 . S
C8 C7 1.430 . S
C8 N12 1.351 . S
C9 C7 1.387 1_656 S
C9 C10 1.374 1_656 S
C9 H24 0.931 . S
C10 C4 1.439 . S
C10 C9 1.374 1_454 S
C10 H25 0.931 1_455 S
Eu11 N2 2.600 . S
Eu11 N12 2.562 . S
Eu11 O46 2.335 . S
Eu11 O49 2.372 . S
Eu11 O50 2.462 . S
Eu11 O51 2.373 1_554 S
Eu11 O53 2.432 . S
Eu11 O54 2.291 . S
Eu11 C75 2.787 . S
N12 C8 1.351 . S
N12 Eu11 2.562 . S
N12 C14 1.325 . S
C13 C7 1.404 1_656 S
C13 C15 1.366 . S
C13 H21 0.930 . S
C14 N12 1.325 . S
C14 C15 1.416 1_454 S
C14 H20 0.929 . S
C15 C13 1.366 . S
C15 C14 1.416 1_656 S
C15 H17 0.930 . S
H16 C5 0.930 . S
H17 C15 0.930 . S
H18 C33 0.930 . S
H19 C40 0.930 . S
H20 C14 0.929 . S
H21 C13 0.930 . S
H22 C36 0.929 . S
H23 C3 0.931 . S
H24 C9 0.931 . S
H25 C10 0.931 1_655 S
H26 C31 0.931 . S
H27 C6 0.929 . S
H28 C39 0.930 . S
N29 Eu0 2.600 . S
N29 C30 1.365 . S
N29 C33 1.319 . S
C30 N29 1.365 . S
C30 C32 1.405 . S
C30 C38 1.448 . S
C31 H26 0.931 . S
C31 C33 1.397 . S
C31 C34 1.367 . S
C32 C30 1.405 . S
C32 C34 1.403 . S
C32 C65 1.439 . S
C33 H18 0.930 . S
C33 N29 1.319 . S
C33 C31 1.397 . S
C34 C31 1.367 . S
C34 C32 1.403 . S
C34 H41 0.929 . S
N35 Eu0 2.562 . S
N35 C36 1.325 . S
N35 C38 1.351 . S
C36 H22 0.929 . S
C36 N35 1.325 . S
C36 C40 1.416 1_556 S
C37 C38 1.430 . S
C37 C39 1.404 1_556 S
C37 C66 1.387 1_556 S
C38 C30 1.448 . S
C38 N35 1.351 . S
C38 C37 1.430 . S
C39 H28 0.930 . S
C39 C37 1.404 1_554 S
C39 C40 1.366 . S
C40 H19 0.930 . S
C40 C36 1.416 1_554 S
C40 C39 1.366 . S
H41 C34 0.929 . S
H42 C65 0.931 . S
H43 C66 0.931 . S
O44 Eu0 2.462 . S
O44 C64 1.252 . S
O45 Eu0 2.373 1_554 S
O45 C56 1.249 . S
O46 Eu11 2.335 . S
O46 C56 1.264 . S
O47 Eu0 2.432 . S
O47 C64 1.268 . S
O48 Eu0 2.291 . S
O48 C63 1.255 1_556 S
O49 Eu11 2.372 . S
O49 C63 1.257 . S
O50 Eu11 2.462 . S
O50 C75 1.252 . S
O51 Eu11 2.373 1_556 S
O51 C67 1.249 . S
O52 Eu0 2.335 . S
O52 C67 1.264 . S
O53 Eu11 2.432 . S
O53 C75 1.268 . S
O54 Eu11 2.291 . S
O54 C74 1.255 1_554 S
O55 Eu0 2.372 . S
O55 C74 1.257 . S
C56 O45 1.249 . S
C56 O46 1.264 . S
C57 C60 1.382 . S
C57 C62 1.390 . S
C57 C64 1.506 . S
C58 C59 1.398 . S
C58 C62 1.392 . S
C59 C58 1.398 . S
C59 C61 1.372 . S
C59 H76 0.931 . S
C60 C57 1.382 . S
C60 C61 1.390 . S
C60 H77 0.931 . S
C61 C59 1.372 . S
C61 C60 1.390 . S
C61 H78 0.929 . S
C62 C57 1.390 . S
C62 C58 1.392 . S
C62 H79 0.930 . S
C63 O48 1.255 1_554 S
C63 O49 1.257 . S
C64 Eu0 2.787 . S
C64 O44 1.252 . S
C64 O47 1.268 . S
C64 C57 1.506 . S
C65 C32 1.439 . S
C65 H42 0.931 . S
C65 C66 1.374 1_556 S
C66 C37 1.387 1_554 S
C66 H43 0.931 . S
C66 C65 1.374 1_554 S
C67 O51 1.249 . S
C67 O52 1.264 . S
C68 C71 1.382 . S
C68 C72 1.390 . S
C68 C75 1.506 . S
C69 C70 1.398 . S
C69 C72 1.392 . S
C70 C69 1.398 . S
C70 C73 1.372 . S
C70 H80 0.931 . S
C71 C68 1.382 . S
C71 C73 1.390 . S
C71 H81 0.931 . S
C72 C68 1.390 . S
C72 C69 1.392 . S
C72 H82 0.930 . S
C73 C70 1.372 . S
C73 C71 1.390 . S
C73 H83 0.929 . S
C74 O54 1.255 1_556 S
C74 O55 1.257 . S
C75 Eu11 2.787 . S
C75 O50 1.252 . S
C75 O53 1.268 . S
C75 C68 1.506 . S
H76 C59 0.931 . S
H77 C60 0.931 . S
H78 C61 0.929 . S
H79 C62 0.930 . S
H80 C70 0.931 . S
H81 C71 0.931 . S
H82 C72 0.930 . S
H83 C73 0.929 . S
Eu84 N113 2.600 . S
Eu84 N119 2.562 . S
Eu84 O128 2.462 . S
Eu84 O129 2.373 1_556 S
Eu84 O131 2.432 . S
Eu84 O132 2.291 . S
Eu84 O136 2.335 . S
Eu84 O139 2.372 . S
Eu84 C148 2.787 . S
C85 N86 1.365 . S
C85 C88 1.405 . S
C85 C92 1.448 . S
N86 C85 1.365 . S
N86 C89 1.319 . S
N86 Eu95 2.600 . S
C87 C89 1.397 . S
C87 C90 1.367 . S
C87 H107 0.931 . S
C88 C85 1.405 . S
C88 C90 1.403 . S
C88 C94 1.439 . S
C89 N86 1.319 . S
C89 C87 1.397 . S
C89 H100 0.930 . S
C90 C87 1.367 . S
C90 C88 1.403 . S
C90 H111 0.929 . S
C91 C92 1.430 . S
C91 C93 1.387 1_554 S
C91 C97 1.404 1_554 S
C92 C85 1.448 . S
C92 C91 1.430 . S
C92 N96 1.351 . S
C93 C91 1.387 1_556 S
C93 C94 1.374 1_556 S
C93 H108 0.931 . S
C94 C88 1.439 . S
C94 C93 1.374 1_554 S
C94 H109 0.931 . S
Eu95 N86 2.600 . S
Eu95 N96 2.562 . S
Eu95 O130 2.335 . S
Eu95 O133 2.372 . S
Eu95 O134 2.462 . S
Eu95 O135 2.373 1_554 S
Eu95 O137 2.432 . S
Eu95 O138 2.291 . S
Eu95 C159 2.787 . S
N96 C92 1.351 . S
N96 Eu95 2.562 . S
N96 C98 1.325 . S
C97 C91 1.404 1_556 S
C97 C99 1.366 . S
C97 H105 0.930 . S
C98 N96 1.325 . S
C98 C99 1.416 1_554 S
C98 H104 0.929 . S
C99 C97 1.366 . S
C99 C98 1.416 1_556 S
C99 H101 0.930 . S
H100 C89 0.930 . S
H101 C99 0.930 . S
H102 C117 0.930 . S
H103 C124 0.930 . S
H104 C98 0.929 . S
H105 C97 0.930 . S
H106 C120 0.929 . S
H107 C87 0.931 . S
H108 C93 0.931 . S
H109 C94 0.931 . S
H110 C115 0.931 . S
H111 C90 0.929 . S
H112 C123 0.930 . S
N113 Eu84 2.600 . S
N113 C114 1.365 . S
N113 C117 1.319 . S
C114 N113 1.365 . S
C114 C116 1.405 . S
C114 C122 1.448 . S
C115 H110 0.931 . S
C115 C117 1.397 . S
C115 C118 1.367 . S
C116 C114 1.405 . S
C116 C118 1.403 . S
C116 C149 1.439 . S
C117 H102 0.930 . S
C117 N113 1.319 . S
C117 C115 1.397 . S
C118 C115 1.367 . S
C118 C116 1.403 . S
C118 H125 0.929 . S
N119 Eu84 2.562 . S
N119 C120 1.325 . S
N119 C122 1.351 . S
C120 H106 0.929 . S
C120 N119 1.325 . S
C120 C124 1.416 1_656 S
C121 C122 1.430 . S
C121 C123 1.404 1_656 S
C121 C150 1.387 1_656 S
C122 C114 1.448 . S
C122 N119 1.351 . S
C122 C121 1.430 . S
C123 H112 0.930 . S
C123 C121 1.404 1_454 S
C123 C124 1.366 . S
C124 H103 0.930 . S
C124 C120 1.416 1_454 S
C124 C123 1.366 . S
H125 C118 0.929 . S
H126 C149 0.931 1_455 S
H127 C150 0.931 . S
O128 Eu84 2.462 . S
O128 C148 1.252 . S
O129 Eu84 2.373 1_554 S
O129 C140 1.249 . S
O130 Eu95 2.335 . S
O130 C140 1.264 . S
O131 Eu84 2.432 . S
O131 C148 1.268 . S
O132 Eu84 2.291 . S
O132 C147 1.255 1_556 S
O133 Eu95 2.372 . S
O133 C147 1.257 . S
O134 Eu95 2.462 . S
O134 C159 1.252 . S
O135 Eu95 2.373 1_556 S
O135 C151 1.249 . S
O136 Eu84 2.335 . S
O136 C151 1.264 . S
O137 Eu95 2.432 . S
O137 C159 1.268 . S
O138 Eu95 2.291 . S
O138 C158 1.255 1_554 S
O139 Eu84 2.372 . S
O139 C158 1.257 . S
C140 O129 1.249 . S
C140 O130 1.264 . S
C141 C144 1.382 . S
C141 C146 1.390 . S
C141 C148 1.506 . S
C142 C143 1.398 . S
C142 C146 1.392 . S
C143 C142 1.398 . S
C143 C145 1.372 . S
C143 H160 0.931 . S
C144 C141 1.382 . S
C144 C145 1.390 . S
C144 H161 0.931 . S
C145 C143 1.372 . S
C145 C144 1.390 . S
C145 H162 0.929 . S
C146 C141 1.390 . S
C146 C142 1.392 . S
C146 H163 0.930 . S
C147 O132 1.255 1_554 S
C147 O133 1.257 . S
C148 Eu84 2.787 . S
C148 O128 1.252 . S
C148 O131 1.268 . S
C148 C141 1.506 . S
C149 C116 1.439 . S
C149 H126 0.931 1_655 S
C149 C150 1.374 1_656 S
C150 C121 1.387 1_454 S
C150 H127 0.931 . S
C150 C149 1.374 1_454 S
C151 O135 1.249 . S
C151 O136 1.264 . S
C152 C155 1.382 . S
C152 C156 1.390 . S
C152 C159 1.506 . S
C153 C154 1.398 . S
C153 C156 1.392 . S
C154 C153 1.398 . S
C154 C157 1.372 . S
C154 H164 0.931 . S
C155 C152 1.382 . S
C155 C157 1.390 . S
C155 H165 0.931 . S
C156 C152 1.390 . S
C156 C153 1.392 . S
C156 H166 0.930 . S
C157 C154 1.372 . S
C157 C155 1.390 . S
C157 H167 0.929 . S
C158 O138 1.255 1_556 S
C158 O139 1.257 . S
C159 Eu95 2.787 . S
C159 O134 1.252 . S
C159 O137 1.268 . S
C159 C152 1.506 . S
H160 C143 0.931 . S
H161 C144 0.931 . S
H162 C145 0.929 . S
H163 C146 0.930 . S
H164 C154 0.931 . S
H165 C155 0.931 . S
H166 C156 0.930 . S
H167 C157 0.929 . S
Eu168 N197 2.600 . S
Eu168 N203 2.562 . S
Eu168 O212 2.462 . S
Eu168 O213 2.373 . S
Eu168 O215 2.432 . S
Eu168 O216 2.291 . S
Eu168 O220 2.335 . S
Eu168 O223 2.372 . S
Eu168 C232 2.787 . S
C169 N170 1.365 . S
C169 C172 1.405 . S
C169 C176 1.448 . S
N170 C169 1.365 . S
N170 C173 1.319 . S
N170 Eu179 2.600 . S
C171 C173 1.397 . S
C171 C174 1.367 . S
C171 H191 0.931 . S
C172 C169 1.405 . S
C172 C174 1.403 . S
C172 C178 1.439 . S
C173 N170 1.319 . S
C173 C171 1.397 . S
C173 H184 0.930 . S
C174 C171 1.367 . S
C174 C172 1.403 . S
C174 H195 0.929 . S
C175 C176 1.430 . S
C175 C177 1.387 1_455 S
C175 C181 1.404 1_455 S
C176 C169 1.448 . S
C176 C175 1.430 . S
C176 N180 1.351 . S
C177 C175 1.387 1_655 S
C177 C178 1.374 1_655 S
C177 H192 0.931 . S
C178 C172 1.439 . S
C178 C177 1.374 1_455 S
C178 H193 0.931 1_455 S
Eu179 N170 2.600 . S
Eu179 N180 2.562 . S
Eu179 O214 2.335 . S
Eu179 O217 2.372 . S
Eu179 O218 2.462 . S
Eu179 O219 2.373 . S
Eu179 O221 2.432 . S
Eu179 O222 2.291 . S
Eu179 C243 2.787 . S
N180 C176 1.351 . S
N180 Eu179 2.562 . S
N180 C182 1.325 . S
C181 C175 1.404 1_655 S
C181 C183 1.366 . S
C181 H189 0.930 . S
C182 N180 1.325 . S
C182 C183 1.416 1_455 S
C182 H188 0.929 . S
C183 C181 1.366 . S
C183 C182 1.416 1_655 S
C183 H185 0.930 . S
H184 C173 0.930 . S
H185 C183 0.930 . S
H186 C201 0.930 . S
H187 C208 0.930 . S
H188 C182 0.929 . S
H189 C181 0.930 . S
H190 C204 0.929 . S
H191 C171 0.931 . S
H192 C177 0.931 . S
H193 C178 0.931 1_655 S
H194 C199 0.931 . S
H195 C174 0.929 . S
H196 C207 0.930 . S
N197 Eu168 2.600 . S
N197 C198 1.365 . S
N197 C201 1.319 . S
C198 N197 1.365 . S
C198 C200 1.405 . S
C198 C206 1.448 . S
C199 H194 0.931 . S
C199 C201 1.397 . S
C199 C202 1.367 . S
C200 C198 1.405 . S
C200 C202 1.403 . S
C200 C233 1.439 . S
C201 H186 0.930 . S
C201 N197 1.319 . S
C201 C199 1.397 . S
C202 C199 1.367 . S
C202 C200 1.403 . S
C202 H209 0.929 . S
N203 Eu168 2.562 . S
N203 C204 1.325 . S
N203 C206 1.351 . S
C204 H190 0.929 . S
C204 N203 1.325 . S
C204 C208 1.416 . S
C205 C206 1.430 . S
C205 C207 1.404 . S
C205 C234 1.387 . S
C206 C198 1.448 . S
C206 N203 1.351 . S
C206 C205 1.430 . S
C207 H196 0.930 . S
C207 C205 1.404 . S
C207 C208 1.366 . S
C208 H187 0.930 . S
C208 C204 1.416 . S
C208 C207 1.366 . S
H209 C202 0.929 . S
H210 C233 0.931 . S
H211 C234 0.931 . S
O212 Eu168 2.462 . S
O212 C232 1.252 . S
O213 Eu168 2.373 . S
O213 C224 1.249 . S
O214 Eu179 2.335 . S
O214 C224 1.264 . S
O215 Eu168 2.432 . S
O215 C232 1.268 . S
O216 Eu168 2.291 . S
O216 C231 1.255 . S
O217 Eu179 2.372 . S
O217 C231 1.257 . S
O218 Eu179 2.462 . S
O218 C243 1.252 . S
O219 Eu179 2.373 . S
O219 C235 1.249 . S
O220 Eu168 2.335 . S
O220 C235 1.264 . S
O221 Eu179 2.432 . S
O221 C243 1.268 . S
O222 Eu179 2.291 . S
O222 C242 1.255 . S
O223 Eu168 2.372 . S
O223 C242 1.257 . S
C224 O213 1.249 . S
C224 O214 1.264 . S
C225 C228 1.382 . S
C225 C230 1.390 . S
C225 C232 1.506 . S
C226 C227 1.398 . S
C226 C230 1.392 . S
C227 C226 1.398 . S
C227 C229 1.372 . S
C227 H244 0.931 . S
C228 C225 1.382 . S
C228 C229 1.390 . S
C228 H245 0.931 . S
C229 C227 1.372 . S
C229 C228 1.390 . S
C229 H246 0.929 . S
C230 C225 1.390 . S
C230 C226 1.392 . S
C230 H247 0.930 . S
C231 O216 1.255 . S
C231 O217 1.257 . S
C232 Eu168 2.787 . S
C232 O212 1.252 . S
C232 O215 1.268 . S
C232 C225 1.506 . S
C233 C200 1.439 . S
C233 H210 0.931 . S
C233 C234 1.374 . S
C234 C205 1.387 . S
C234 H211 0.931 . S
C234 C233 1.374 . S
C235 O219 1.249 . S
C235 O220 1.264 . S
C236 C239 1.382 . S
C236 C240 1.390 . S
C236 C243 1.506 . S
C237 C238 1.398 . S
C237 C240 1.392 . S
C238 C237 1.398 . S
C238 C241 1.372 . S
C238 H248 0.931 . S
C239 C236 1.382 . S
C239 C241 1.390 . S
C239 H249 0.931 . S
C240 C236 1.390 . S
C240 C237 1.392 . S
C240 H250 0.930 . S
C241 C238 1.372 . S
C241 C239 1.390 . S
C241 H251 0.929 . S
C242 O222 1.255 . S
C242 O223 1.257 . S
C243 Eu179 2.787 . S
C243 O218 1.252 . S
C243 O221 1.268 . S
C243 C236 1.506 . S
H244 C227 0.931 . S
H245 C228 0.931 . S
H246 C229 0.929 . S
H247 C230 0.930 . S
H248 C238 0.931 . S
H249 C239 0.931 . S
H250 C240 0.930 . S
H251 C241 0.929 . S
Eu252 N281 2.600 . S
Eu252 N287 2.562 . S
Eu252 O296 2.462 . S
Eu252 O297 2.373 . S
Eu252 O299 2.432 . S
Eu252 O300 2.291 . S
Eu252 O304 2.335 . S
Eu252 O307 2.372 . S
Eu252 C316 2.787 . S
C253 N254 1.365 . S
C253 C256 1.405 . S
C253 C260 1.448 . S
N254 C253 1.365 . S
N254 C257 1.319 . S
N254 Eu263 2.600 . S
C255 C257 1.397 . S
C255 C258 1.367 . S
C255 H275 0.931 . S
C256 C253 1.405 . S
C256 C258 1.403 . S
C256 C262 1.439 . S
C257 N254 1.319 . S
C257 C255 1.397 . S
C257 H268 0.930 . S
C258 C255 1.367 . S
C258 C256 1.403 . S
C258 H279 0.929 . S
C259 C260 1.430 . S
C259 C261 1.387 . S
C259 C265 1.404 . S
C260 C253 1.448 . S
C260 C259 1.430 . S
C260 N264 1.351 . S
C261 C259 1.387 . S
C261 C262 1.374 . S
C261 H276 0.931 . S
C262 C256 1.439 . S
C262 C261 1.374 . S
C262 H277 0.931 . S
Eu263 N254 2.600 . S
Eu263 N264 2.562 . S
Eu263 O298 2.335 . S
Eu263 O301 2.372 . S
Eu263 O302 2.462 . S
Eu263 O303 2.373 . S
Eu263 O305 2.432 . S
Eu263 O306 2.291 . S
Eu263 C327 2.787 . S
N264 C260 1.351 . S
N264 Eu263 2.562 . S
N264 C266 1.325 . S
C265 C259 1.404 . S
C265 C267 1.366 . S
C265 H273 0.930 . S
C266 N264 1.325 . S
C266 C267 1.416 . S
C266 H272 0.929 . S
C267 C265 1.366 . S
C267 C266 1.416 . S
C267 H269 0.930 . S
H268 C257 0.930 . S
H269 C267 0.930 . S
H270 C285 0.930 . S
H271 C292 0.930 . S
H272 C266 0.929 . S
H273 C265 0.930 . S
H274 C288 0.929 . S
H275 C255 0.931 . S
H276 C261 0.931 . S
H277 C262 0.931 . S
H278 C283 0.931 . S
H279 C258 0.929 . S
H280 C291 0.930 . S
N281 Eu252 2.600 . S
N281 C282 1.365 . S
N281 C285 1.319 . S
C282 N281 1.365 . S
C282 C284 1.405 . S
C282 C290 1.448 . S
C283 H278 0.931 . S
C283 C285 1.397 . S
C283 C286 1.367 . S
C284 C282 1.405 . S
C284 C286 1.403 . S
C284 C317 1.439 . S
C285 H270 0.930 . S
C285 N281 1.319 . S
C285 C283 1.397 . S
C286 C283 1.367 . S
C286 C284 1.403 . S
C286 H293 0.929 . S
N287 Eu252 2.562 . S
N287 C288 1.325 . S
N287 C290 1.351 . S
C288 H274 0.929 . S
C288 N287 1.325 . S
C288 C292 1.416 1_655 S
C289 C290 1.430 . S
C289 C291 1.404 1_655 S
C289 C318 1.387 1_655 S
C290 C282 1.448 . S
C290 N287 1.351 . S
C290 C289 1.430 . S
C291 H280 0.930 . S
C291 C289 1.404 1_455 S
C291 C292 1.366 . S
C292 H271 0.930 . S
C292 C288 1.416 1_455 S
C292 C291 1.366 . S
H293 C286 0.929 . S
H294 C317 0.931 1_455 S
H295 C318 0.931 . S
O296 Eu252 2.462 . S
O296 C316 1.252 . S
O297 Eu252 2.373 . S
O297 C308 1.249 . S
O298 Eu263 2.335 . S
O298 C308 1.264 . S
O299 Eu252 2.432 . S
O299 C316 1.268 . S
O300 Eu252 2.291 . S
O300 C315 1.255 . S
O301 Eu263 2.372 . S
O301 C315 1.257 . S
O302 Eu263 2.462 . S
O302 C327 1.252 . S
O303 Eu263 2.373 . S
O303 C319 1.249 . S
O304 Eu252 2.335 . S
O304 C319 1.264 . S
O305 Eu263 2.432 . S
O305 C327 1.268 . S
O306 Eu263 2.291 . S
O306 C326 1.255 . S
O307 Eu252 2.372 . S
O307 C326 1.257 . S
C308 O297 1.249 . S
C308 O298 1.264 . S
C309 C312 1.382 . S
C309 C314 1.390 . S
C309 C316 1.506 . S
C310 C311 1.398 . S
C310 C314 1.392 . S
C311 C310 1.398 . S
C311 C313 1.372 . S
C311 H328 0.931 . S
C312 C309 1.382 . S
C312 C313 1.390 . S
C312 H329 0.931 . S
C313 C311 1.372 . S
C313 C312 1.390 . S
C313 H330 0.929 . S
C314 C309 1.390 . S
C314 C310 1.392 . S
C314 H331 0.930 . S
C315 O300 1.255 . S
C315 O301 1.257 . S
C316 Eu252 2.787 . S
C316 O296 1.252 . S
C316 O299 1.268 . S
C316 C309 1.506 . S
C317 C284 1.439 . S
C317 H294 0.931 1_655 S
C317 C318 1.374 1_655 S
C318 C289 1.387 1_455 S
C318 H295 0.931 . S
C318 C317 1.374 1_455 S
C319 O303 1.249 . S
C319 O304 1.264 . S
C320 C323 1.382 . S
C320 C324 1.390 . S
C320 C327 1.506 . S
C321 C322 1.398 . S
C321 C324 1.392 . S
C322 C321 1.398 . S
C322 C325 1.372 . S
C322 H332 0.931 . S
C323 C320 1.382 . S
C323 C325 1.390 . S
C323 H333 0.931 . S
C324 C320 1.390 . S
C324 C321 1.392 . S
C324 H334 0.930 . S
C325 C322 1.372 . S
C325 C323 1.390 . S
C325 H335 0.929 . S
C326 O306 1.255 . S
C326 O307 1.257 . S
C327 Eu263 2.787 . S
C327 O302 1.252 . S
C327 O305 1.268 . S
C327 C320 1.506 . S
H328 C311 0.931 . S
H329 C312 0.931 . S
H330 C313 0.929 . S
H331 C314 0.930 . S
H332 C322 0.931 . S
H333 C323 0.931 . S
H334 C324 0.930 . S
H335 C325 0.929 . S
C336 C337 1.361 . S
C336 C338 1.327 . S
C336 H361 0.950 . S
C337 C336 1.361 . S
C337 C353 1.330 1_556 S
C338 C336 1.327 . S
C338 C357 1.432 . S
C338 H362 0.950 . S
C339 C356 1.574 . S
C339 C358 1.367 . S
C339 H363 0.949 . S
H340 C344 0.949 . S
C341 C342 1.349 . S
C341 C343 1.327 . S
C341 H364 0.950 . S
C342 C341 1.349 . S
C342 C354 1.349 1_554 S
C343 C341 1.327 . S
C343 C359 1.451 . S
C343 H365 0.950 . S
C344 H340 0.949 . S
C344 C352 1.574 . S
C344 C360 1.355 1_556 S
H345 C353 0.950 . S
H346 C351 0.950 . S
H347 C352 0.949 . S
H348 C354 0.950 . S
H349 C355 0.950 . S
H350 C356 0.949 . S
C351 H346 0.950 . S
C351 C353 1.327 . S
C351 C357 1.427 1_554 S
C352 C344 1.574 . S
C352 H347 0.949 . S
C352 C358 1.369 1_556 S
C353 C337 1.330 1_554 S
C353 H345 0.950 . S
C353 C351 1.327 . S
C354 C342 1.349 1_556 S
C354 H348 0.950 . S
C354 C355 1.327 . S
C355 H349 0.950 . S
C355 C354 1.327 . S
C355 C359 1.416 1_556 S
C356 C339 1.574 . S
C356 H350 0.949 . S
C356 C360 1.378 . S
C357 C338 1.432 . S
C357 C351 1.427 1_556 S
C357 C358 1.522 1_556 S
C358 C339 1.367 . S
C358 C352 1.369 1_554 S
C358 C357 1.522 1_554 S
C359 C343 1.451 . S
C359 C355 1.416 1_554 S
C359 C360 1.520 . S
C360 C344 1.355 1_554 S
C360 C356 1.378 . S
C360 C359 1.520 . S
H361 C336 0.950 . S
H362 C338 0.950 . S
H363 C339 0.949 . S
H364 C341 0.950 . S
H365 C343 0.950 . S
C366 C367 1.349 . S
C366 C368 1.327 . S
C366 H391 0.950 . S
C367 C366 1.349 . S
C367 C383 1.349 . S
C368 C366 1.327 . S
C368 C387 1.429 . S
C368 H392 0.950 . S
C369 C386 1.574 . S
C369 C388 1.368 . S
C369 H393 0.949 . S
H370 C374 0.949 . S
C371 C372 1.349 . S
C371 C373 1.327 . S
C371 H394 0.950 . S
C372 C371 1.349 . S
C372 C384 1.349 . S
C373 C371 1.327 . S
C373 C389 1.429 . S
C373 H395 0.950 . S
C374 H370 0.949 . S
C374 C382 1.574 . S
C374 C390 1.368 . S
H375 C383 0.950 . S
H376 C381 0.950 . S
H377 C382 0.949 . S
H378 C384 0.950 . S
H379 C385 0.950 . S
H380 C386 0.949 . S
C381 H376 0.950 . S
C381 C383 1.327 . S
C381 C387 1.429 . S
C382 C374 1.574 . S
C382 H377 0.949 . S
C382 C388 1.368 . S
C383 C367 1.349 . S
C383 H375 0.950 . S
C383 C381 1.327 . S
C384 C372 1.349 . S
C384 H378 0.950 . S
C384 C385 1.327 . S
C385 H379 0.950 . S
C385 C384 1.327 . S
C385 C389 1.429 . S
C386 C369 1.574 . S
C386 H380 0.949 . S
C386 C390 1.368 . S
C387 C368 1.429 . S
C387 C381 1.429 . S
C387 C388 1.523 . S
C388 C369 1.368 . S
C388 C382 1.368 . S
C388 C387 1.523 . S
C389 C373 1.429 . S
C389 C385 1.429 . S
C389 C390 1.523 . S
C390 C374 1.368 . S
C390 C386 1.368 . S
C390 C389 1.523 . S
H391 C366 0.950 . S
H392 C368 0.950 . S
H393 C369 0.949 . S
H394 C371 0.950 . S
H395 C373 0.950 . S
C396 C397 1.362 . S
C396 C398 1.327 . S
C396 H421 0.950 . S
C397 C396 1.362 . S
C397 C413 1.329 1_556 S
C398 C396 1.327 . S
C398 C417 1.432 . S
C398 H422 0.950 . S
C399 C416 1.574 1_455 S
C399 C418 1.367 . S
C399 H423 0.949 . S
H400 C404 0.949 . S
C401 C402 1.349 . S
C401 C403 1.327 . S
C401 H424 0.950 . S
C402 C401 1.349 . S
C402 C414 1.349 1_554 S
C403 C401 1.327 . S
C403 C419 1.452 . S
C403 H425 0.950 . S
C404 H400 0.949 . S
C404 C412 1.574 1_655 S
C404 C420 1.354 1_556 S
H405 C413 0.950 . S
H406 C411 0.950 . S
H407 C412 0.949 . S
H408 C414 0.950 . S
H409 C415 0.950 . S
H410 C416 0.949 . S
C411 H406 0.950 . S
C411 C413 1.327 . S
C411 C417 1.426 1_554 S
C412 C404 1.574 1_455 S
C412 H407 0.949 . S
C412 C418 1.369 1_566 S
C413 C397 1.329 1_554 S
C413 H405 0.950 . S
C413 C411 1.327 . S
C414 C402 1.349 1_556 S
C414 H408 0.950 . S
C414 C415 1.327 . S
C415 H409 0.950 . S
C415 C414 1.327 . S
C415 C419 1.414 1_556 S
C416 C399 1.574 1_655 S
C416 H410 0.949 . S
C416 C420 1.379 1_545 S
C417 C398 1.432 . S
C417 C411 1.426 1_556 S
C417 C418 1.522 1_556 S
C418 C399 1.367 . S
C418 C412 1.369 1_544 S
C418 C417 1.522 1_554 S
C419 C403 1.452 . S
C419 C415 1.414 1_554 S
C419 C420 1.520 . S
C420 C404 1.354 1_554 S
C420 C416 1.379 1_565 S
C420 C419 1.520 . S
H421 C396 0.950 . S
H422 C398 0.950 . S
H423 C399 0.949 . S
H424 C401 0.950 . S
H425 C403 0.950 . S
C426 C427 1.349 . S
C426 C428 1.327 . S
C426 H451 0.950 . S
C427 C426 1.349 . S
C427 C443 1.349 . S
C428 C426 1.327 . S
C428 C447 1.429 . S
C428 H452 0.950 . S
C429 C446 1.574 . S
C429 C448 1.368 1_565 S
C429 H453 0.949 . S
H430 C434 0.949 . S
C431 C432 1.349 . S
C431 C433 1.327 . S
C431 H454 0.950 . S
C432 C431 1.349 . S
C432 C444 1.349 . S
C433 C431 1.327 . S
C433 C449 1.429 . S
C433 H455 0.950 . S
C434 H430 0.949 . S
C434 C442 1.574 . S
C434 C450 1.368 1_545 S
H435 C443 0.950 . S
H436 C441 0.950 . S
H437 C442 0.949 . S
H438 C444 0.950 . S
H439 C445 0.950 . S
H440 C446 0.949 . S
C441 H436 0.950 . S
C441 C443 1.327 . S
C441 C447 1.429 . S
C442 C434 1.574 . S
C442 H437 0.949 . S
C442 C448 1.368 1_455 S
C443 C427 1.349 . S
C443 H435 0.950 . S
C443 C441 1.327 . S
C444 C432 1.349 . S
C444 H438 0.950 . S
C444 C445 1.327 . S
C445 H439 0.950 . S
C445 C444 1.327 . S
C445 C449 1.429 . S
C446 C429 1.574 . S
C446 H440 0.949 . S
C446 C450 1.368 1_655 S
C447 C428 1.429 . S
C447 C441 1.429 . S
C447 C448 1.523 . S
C448 C429 1.368 1_545 S
C448 C442 1.368 1_655 S
C448 C447 1.523 . S
C449 C433 1.429 . S
C449 C445 1.429 . S
C449 C450 1.523 . S
C450 C434 1.368 1_565 S
C450 C446 1.368 1_455 S
C450 C449 1.523 . S
H451 C426 0.950 . S
H452 C428 0.950 . S
H453 C429 0.949 . S
H454 C431 0.950 . S
H455 C433 0.950 . S
C456 C457 1.349 . S
C456 C458 1.327 . S
C456 H481 0.950 . S
C457 C456 1.349 . S
C457 C473 1.349 . S
C458 C456 1.327 . S
C458 C477 1.429 . S
C458 H482 0.950 . S
C459 C476 1.574 . S
C459 C478 1.368 . S
C459 H483 0.949 . S
H460 C464 0.949 . S
C461 C462 1.349 . S
C461 C463 1.327 . S
C461 H484 0.950 . S
C462 C461 1.349 . S
C462 C474 1.349 . S
C463 C461 1.327 . S
C463 C479 1.429 . S
C463 H485 0.950 . S
C464 H460 0.949 . S
C464 C472 1.574 . S
C464 C480 1.368 . S
H465 C473 0.950 . S
H466 C471 0.950 . S
H467 C472 0.949 . S
H468 C474 0.950 . S
H469 C475 0.950 . S
H470 C476 0.949 . S
C471 H466 0.950 . S
C471 C473 1.327 . S
C471 C477 1.429 . S
C472 C464 1.574 . S
C472 H467 0.949 . S
C472 C478 1.368 . S
C473 C457 1.349 . S
C473 H465 0.950 . S
C473 C471 1.327 . S
C474 C462 1.349 . S
C474 H468 0.950 . S
C474 C475 1.327 . S
C475 H469 0.950 . S
C475 C474 1.327 . S
C475 C479 1.429 . S
C476 C459 1.574 . S
C476 H470 0.949 . S
C476 C480 1.368 . S
C477 C458 1.429 . S
C477 C471 1.429 . S
C477 C478 1.523 . S
C478 C459 1.368 . S
C478 C472 1.368 . S
C478 C477 1.523 . S
C479 C463 1.429 . S
C479 C475 1.429 . S
C479 C480 1.523 . S
C480 C464 1.368 . S
C480 C476 1.368 . S
C480 C479 1.523 . S
H481 C456 0.950 . S
H482 C458 0.950 . S
H483 C459 0.949 . S
H484 C461 0.950 . S
H485 C463 0.950 . S
C486 C487 1.349 . S
C486 C488 1.327 . S
C486 H511 0.950 . S
C487 C486 1.349 . S
C487 C503 1.349 . S
C488 C486 1.327 . S
C488 C507 1.429 . S
C488 H512 0.950 . S
C489 C506 1.574 . S
C489 C508 1.368 . S
C489 H513 0.949 . S
H490 C494 0.949 . S
C491 C492 1.349 . S
C491 C493 1.327 . S
C491 H514 0.950 . S
C492 C491 1.349 . S
C492 C504 1.349 . S
C493 C491 1.327 . S
C493 C509 1.429 . S
C493 H515 0.950 . S
C494 H490 0.949 . S
C494 C502 1.574 . S
C494 C510 1.368 . S
H495 C503 0.950 . S
H496 C501 0.950 . S
H497 C502 0.949 . S
H498 C504 0.950 . S
H499 C505 0.950 . S
H500 C506 0.949 . S
C501 H496 0.950 . S
C501 C503 1.327 . S
C501 C507 1.429 . S
C502 C494 1.574 . S
C502 H497 0.949 . S
C502 C508 1.368 . S
C503 C487 1.349 . S
C503 H495 0.950 . S
C503 C501 1.327 . S
C504 C492 1.349 . S
C504 H498 0.950 . S
C504 C505 1.327 . S
C505 H499 0.950 . S
C505 C504 1.327 . S
C505 C509 1.429 . S
C506 C489 1.574 . S
C506 H500 0.949 . S
C506 C510 1.368 . S
C507 C488 1.429 . S
C507 C501 1.429 . S
C507 C508 1.523 . S
C508 C489 1.368 . S
C508 C502 1.368 . S
C508 C507 1.523 . S
C509 C493 1.429 . S
C509 C505 1.429 . S
C509 C510 1.523 . S
C510 C494 1.368 . S
C510 C506 1.368 . S
C510 C509 1.523 . S
H511 C486 0.950 . S
H512 C488 0.950 . S
H513 C489 0.949 . S
H514 C491 0.950 . S
H515 C493 0.950 . S
C516 C517 1.349 . S
C516 C518 1.327 . S
C516 H541 0.950 . S
C517 C516 1.349 . S
C517 C533 1.349 . S
C518 C516 1.327 . S
C518 C537 1.429 . S
C518 H542 0.950 . S
C519 C536 1.574 . S
C519 C538 1.368 . S
C519 H543 0.949 . S
H520 C524 0.949 . S
C521 C522 1.349 . S
C521 C523 1.327 . S
C521 H544 0.950 . S
C522 C521 1.349 . S
C522 C534 1.349 . S
C523 C521 1.327 . S
C523 C539 1.429 . S
C523 H545 0.950 . S
C524 H520 0.949 . S
C524 C532 1.574 . S
C524 C540 1.368 . S
H525 C533 0.950 . S
H526 C531 0.950 . S
H527 C532 0.949 . S
H528 C534 0.950 . S
H529 C535 0.950 . S
H530 C536 0.949 . S
C531 H526 0.950 . S
C531 C533 1.327 . S
C531 C537 1.429 . S
C532 C524 1.574 . S
C532 H527 0.949 . S
C532 C538 1.368 . S
C533 C517 1.349 . S
C533 H525 0.950 . S
C533 C531 1.327 . S
C534 C522 1.349 . S
C534 H528 0.950 . S
C534 C535 1.327 . S
C535 H529 0.950 . S
C535 C534 1.327 . S
C535 C539 1.429 . S
C536 C519 1.574 . S
C536 H530 0.949 . S
C536 C540 1.368 . S
C537 C518 1.429 . S
C537 C531 1.429 . S
C537 C538 1.523 . S
C538 C519 1.368 . S
C538 C532 1.368 . S
C538 C537 1.523 . S
C539 C523 1.429 . S
C539 C535 1.429 . S
C539 C540 1.523 . S
C540 C524 1.368 . S
C540 C536 1.368 . S
C540 C539 1.523 . S
H541 C516 0.950 . S
H542 C518 0.950 . S
H543 C519 0.949 . S
H544 C521 0.950 . S
H545 C523 0.950 . S
C546 C547 1.349 . S
C546 C548 1.327 . S
C546 H571 0.950 . S
C547 C546 1.349 . S
C547 C563 1.349 . S
C548 C546 1.327 . S
C548 C567 1.429 . S
C548 H572 0.950 . S
C549 C566 1.574 . S
C549 C568 1.368 . S
C549 H573 0.949 . S
H550 C554 0.949 . S
C551 C552 1.349 . S
C551 C553 1.327 . S
C551 H574 0.950 . S
C552 C551 1.349 . S
C552 C564 1.349 . S
C553 C551 1.327 . S
C553 C569 1.429 . S
C553 H575 0.950 . S
C554 H550 0.949 . S
C554 C562 1.574 . S
C554 C570 1.368 . S
H555 C563 0.950 . S
H556 C561 0.950 . S
H557 C562 0.949 . S
H558 C564 0.950 . S
H559 C565 0.950 . S
H560 C566 0.949 . S
C561 H556 0.950 . S
C561 C563 1.327 . S
C561 C567 1.429 . S
C562 C554 1.574 . S
C562 H557 0.949 . S
C562 C568 1.368 . S
C563 C547 1.349 . S
C563 H555 0.950 . S
C563 C561 1.327 . S
C564 C552 1.349 . S
C564 H558 0.950 . S
C564 C565 1.327 . S
C565 H559 0.950 . S
C565 C564 1.327 . S
C565 C569 1.429 . S
C566 C549 1.574 . S
C566 H560 0.949 . S
C566 C570 1.368 . S
C567 C548 1.429 . S
C567 C561 1.429 . S
C567 C568 1.523 . S
C568 C549 1.368 . S
C568 C562 1.368 . S
C568 C567 1.523 . S
C569 C553 1.429 . S
C569 C565 1.429 . S
C569 C570 1.523 . S
C570 C554 1.368 . S
C570 C566 1.368 . S
C570 C569 1.523 . S
H571 C546 0.950 . S
H572 C548 0.950 . S
H573 C549 0.949 . S
H574 C551 0.950 . S
H575 C553 0.950 . S
C576 C577 1.349 . S
C576 C578 1.327 . S
C576 H601 0.950 . S
C577 C576 1.349 . S
C577 C593 1.349 . S
C578 C576 1.327 . S
C578 C597 1.429 . S
C578 H602 0.950 . S
C579 C596 1.574 . S
C579 C598 1.368 . S
C579 H603 0.949 . S
H580 C584 0.949 . S
C581 C582 1.349 . S
C581 C583 1.327 . S
C581 H604 0.950 . S
C582 C581 1.349 . S
C582 C594 1.349 . S
C583 C581 1.327 . S
C583 C599 1.429 1_455 S
C583 H605 0.950 . S
C584 H580 0.949 . S
C584 C592 1.574 . S
C584 C600 1.368 . S
H585 C593 0.950 . S
H586 C591 0.950 . S
H587 C592 0.949 . S
H588 C594 0.950 . S
H589 C595 0.950 . S
H590 C596 0.949 1_455 S
C591 H586 0.950 . S
C591 C593 1.327 . S
C591 C597 1.429 . S
C592 C584 1.574 . S
C592 H587 0.949 . S
C592 C598 1.368 . S
C593 C577 1.349 . S
C593 H585 0.950 . S
C593 C591 1.327 . S
C594 C582 1.349 . S
C594 H588 0.950 . S
C594 C595 1.327 1_455 S
C595 H589 0.950 . S
C595 C594 1.327 1_655 S
C595 C599 1.429 . S
C596 C579 1.574 . S
C596 H590 0.949 1_655 S
C596 C600 1.368 . S
C597 C578 1.429 . S
C597 C591 1.429 . S
C597 C598 1.523 . S
C598 C579 1.368 . S
C598 C592 1.368 . S
C598 C597 1.523 . S
C599 C583 1.429 1_655 S
C599 C595 1.429 . S
C599 C600 1.523 . S
C600 C584 1.368 . S
C600 C596 1.368 . S
C600 C599 1.523 . S
H601 C576 0.950 . S
H602 C578 0.950 . S
H603 C579 0.949 . S
H604 C581 0.950 . S
H605 C583 0.950 . S
C606 C607 1.349 . S
C606 C608 1.327 . S
C606 H631 0.950 . S
C607 C606 1.349 . S
C607 C623 1.349 . S
C608 C606 1.327 . S
C608 C627 1.429 . S
C608 H632 0.950 . S
C609 C626 1.574 . S
C609 C628 1.368 . S
C609 H633 0.949 . S
H610 C614 0.949 . S
C611 C612 1.349 1_655 S
C611 C613 1.327 . S
C611 H634 0.950 . S
C612 C611 1.349 1_455 S
C612 C624 1.349 . S
C613 C611 1.327 . S
C613 C629 1.429 . S
C613 H635 0.950 . S
C614 H610 0.949 . S
C614 C622 1.574 1_455 S
C614 C630 1.368 1_455 S
H615 C623 0.950 . S
H616 C621 0.950 . S
H617 C622 0.949 . S
H618 C624 0.950 . S
H619 C625 0.950 . S
H620 C626 0.949 . S
C621 H616 0.950 . S
C621 C623 1.327 . S
C621 C627 1.429 . S
C622 C614 1.574 1_655 S
C622 H617 0.949 . S
C622 C628 1.368 . S
C623 C607 1.349 . S
C623 H615 0.950 . S
C623 C621 1.327 . S
C624 C612 1.349 . S
C624 H618 0.950 . S
C624 C625 1.327 . S
C625 H619 0.950 . S
C625 C624 1.327 . S
C625 C629 1.429 1_455 S
C626 C609 1.574 . S
C626 H620 0.949 . S
C626 C630 1.368 . S
C627 C608 1.429 . S
C627 C621 1.429 . S
C627 C628 1.523 . S
C628 C609 1.368 . S
C628 C622 1.368 . S
C628 C627 1.523 . S
C629 C613 1.429 . S
C629 C625 1.429 1_655 S
C629 C630 1.523 . S
C630 C614 1.368 1_655 S
C630 C626 1.368 . S
C630 C629 1.523 . S
H631 C606 0.950 . S
H632 C608 0.950 . S
H633 C609 0.949 . S
H634 C611 0.950 . S
H635 C613 0.950 . S
C636 C637 1.349 . S
C636 C638 1.327 . S
C636 H661 0.950 . S
C637 C636 1.349 . S
C637 C653 1.349 . S
C638 C636 1.327 . S
C638 C657 1.429 1_655 S
C638 H662 0.950 . S
C639 C656 1.574 . S
C639 C658 1.368 . S
C639 H663 0.949 . S
H640 C644 0.949 . S
C641 C642 1.349 . S
C641 C643 1.327 . S
C641 H664 0.950 . S
C642 C641 1.349 . S
C642 C654 1.349 . S
C643 C641 1.327 . S
C643 C659 1.429 . S
C643 H665 0.950 . S
C644 H640 0.949 . S
C644 C652 1.574 . S
C644 C660 1.368 . S
H645 C653 0.950 . S
H646 C651 0.950 . S
H647 C652 0.949 1_655 S
H648 C654 0.950 . S
H649 C655 0.950 . S
H650 C656 0.949 . S
C651 H646 0.950 . S
C651 C653 1.327 1_455 S
C651 C657 1.429 . S
C652 C644 1.574 . S
C652 H647 0.949 1_455 S
C652 C658 1.368 . S
C653 C637 1.349 . S
C653 H645 0.950 . S
C653 C651 1.327 1_655 S
C654 C642 1.349 . S
C654 H648 0.950 . S
C654 C655 1.327 . S
C655 H649 0.950 . S
C655 C654 1.327 . S
C655 C659 1.429 . S
C656 C639 1.574 . S
C656 H650 0.949 . S
C656 C660 1.368 . S
C657 C638 1.429 1_455 S
C657 C651 1.429 . S
C657 C658 1.523 . S
C658 C639 1.368 . S
C658 C652 1.368 . S
C658 C657 1.523 . S
C659 C643 1.429 . S
C659 C655 1.429 . S
C659 C660 1.523 . S
C660 C644 1.368 . S
C660 C656 1.368 . S
C660 C659 1.523 . S
H661 C636 0.950 . S
H662 C638 0.950 . S
H663 C639 0.949 . S
H664 C641 0.950 . S
H665 C643 0.950 . S
C666 C667 1.349 . S
C666 C668 1.327 . S
C666 H691 0.950 . S
C667 C666 1.349 . S
C667 C683 1.349 . S
C668 C666 1.327 . S
C668 C687 1.429 . S
C668 H692 0.950 . S
C669 C686 1.574 . S
C669 C688 1.368 . S
C669 H693 0.949 . S
H670 C674 0.949 . S
C671 C672 1.349 . S
C671 C673 1.327 . S
C671 H694 0.950 . S
C672 C671 1.349 . S
C672 C684 1.349 . S
C673 C671 1.327 . S
C673 C689 1.429 1_655 S
C673 H695 0.950 . S
C674 H670 0.949 . S
C674 C682 1.574 . S
C674 C690 1.368 . S
H675 C683 0.950 . S
H676 C681 0.950 . S
H677 C682 0.949 . S
H678 C684 0.949 1_455 S
H679 C685 0.950 . S
H680 C686 0.949 1_655 S
C681 H676 0.950 . S
C681 C683 1.327 . S
C681 C687 1.429 . S
C682 C674 1.574 . S
C682 H677 0.949 . S
C682 C688 1.368 . S
C683 C667 1.349 . S
C683 H675 0.950 . S
C683 C681 1.327 . S
C684 C672 1.349 . S
C684 H678 0.949 1_655 S
C684 C685 1.327 1_655 S
C685 H679 0.950 . S
C685 C684 1.327 1_455 S
C685 C689 1.429 . S
C686 C669 1.574 . S
C686 H680 0.949 1_455 S
C686 C690 1.368 . S
C687 C668 1.429 . S
C687 C681 1.429 . S
C687 C688 1.523 . S
C688 C669 1.368 . S
C688 C682 1.368 . S
C688 C687 1.523 . S
C689 C673 1.429 1_455 S
C689 C685 1.429 . S
C689 C690 1.523 . S
C690 C674 1.368 . S
C690 C686 1.368 . S
C690 C689 1.523 . S
H691 C666 0.950 . S
H692 C668 0.950 . S
H693 C669 0.949 . S
H694 C671 0.950 . S
H695 C673 0.950 . S
C337 C158 1.512 . S
C342 C63 1.501 . S
C367 C231 1.501 . S
C372 C326 1.501 . S
C397 C74 1.512 . S
C402 C147 1.501 . S
C427 C315 1.501 . S
C432 C242 1.501 . S
C457 C321 1.184 . S
C462 C56 1.266 . S
C487 C153 1.184 . S
C492 C224 1.266 . S
C517 C151 1.266 . S
C522 C226 1.184 . S
C547 C319 1.266 . S
C552 C58 1.184 . S
C577 C140 1.266 . S
C582 C237 1.184 . S
C607 C308 1.266 . S
C612 C69 1.184 . S
C637 C310 1.184 . S
C642 C67 1.266 . S
C667 C235 1.266 . S
C672 C142 1.184 . S
