# Generated by pormake.
# Topology fci, (5)-cn, num edge types: 1
# Building blocks:
#     Node 0, Type 0, BuildingBlock: BEQFEK_clean_sbu_0, # of connection points: 5
#     Node 1, Type 0, BuildingBlock: BEQFEK_clean_sbu_0, # of connection points: 5
#     Node 2, Type 0, BuildingBlock: BEQFEK_clean_sbu_0, # of connection points: 5
#     Node 3, Type 0, BuildingBlock: BEQFEK_clean_sbu_0, # of connection points: 5
#     Node 4, Type 0, BuildingBlock: BEQFEK_clean_sbu_0, # of connection points: 5
#     Node 5, Type 0, BuildingBlock: BEQFEK_clean_sbu_0, # of connection points: 5
#     Node 6, Type 0, BuildingBlock: BEQFEK_clean_sbu_0, # of connection points: 5
#     Node 7, Type 0, BuildingBlock: BEQFEK_clean_sbu_0, # of connection points: 5
#     Node 8, Type 0, BuildingBlock: BEQFEK_clean_sbu_0, # of connection points: 5
#     Node 9, Type 0, BuildingBlock: BEQFEK_clean_sbu_0, # of connection points: 5
#     Node 10, Type 0, BuildingBlock: BEQFEK_clean_sbu_0, # of connection points: 5
#     Node 11, Type 0, BuildingBlock: BEQFEK_clean_sbu_0, # of connection points: 5
#     Node 12, Type 0, BuildingBlock: BEQFEK_clean_sbu_0, # of connection points: 5
#     Node 13, Type 0, BuildingBlock: BEQFEK_clean_sbu_0, # of connection points: 5
#     Node 14, Type 0, BuildingBlock: BEQFEK_clean_sbu_0, # of connection points: 5
#     Node 15, Type 0, BuildingBlock: BEQFEK_clean_sbu_0, # of connection points: 5
#     Node 16, Type 0, BuildingBlock: BEQFEK_clean_sbu_0, # of connection points: 5
#     Node 17, Type 0, BuildingBlock: BEQFEK_clean_sbu_0, # of connection points: 5
#     Node 18, Type 0, BuildingBlock: BEQFEK_clean_sbu_0, # of connection points: 5
#     Node 19, Type 0, BuildingBlock: BEQFEK_clean_sbu_0, # of connection points: 5
#     Node 20, Type 0, BuildingBlock: BEQFEK_clean_sbu_0, # of connection points: 5
#     Node 21, Type 0, BuildingBlock: BEQFEK_clean_sbu_0, # of connection points: 5
#     Node 22, Type 0, BuildingBlock: BEQFEK_clean_sbu_0, # of connection points: 5
#     Node 23, Type 0, BuildingBlock: BEQFEK_clean_sbu_0, # of connection points: 5
#     Edge 24, Type (0, 0), BuildingBlock: UVAHIK_clean_linker_0, # of connection points: 2
#     Edge 25, Type (0, 0), BuildingBlock: UVAHIK_clean_linker_0, # of connection points: 2
#     Edge 26, Type (0, 0), BuildingBlock: UVAHIK_clean_linker_0, # of connection points: 2
#     Edge 27, Type (0, 0), BuildingBlock: UVAHIK_clean_linker_0, # of connection points: 2
#     Edge 28, Type (0, 0), BuildingBlock: UVAHIK_clean_linker_0, # of connection points: 2
#     Edge 29, Type (0, 0), BuildingBlock: UVAHIK_clean_linker_0, # of connection points: 2
#     Edge 30, Type (0, 0), BuildingBlock: UVAHIK_clean_linker_0, # of connection points: 2
#     Edge 31, Type (0, 0), BuildingBlock: UVAHIK_clean_linker_0, # of connection points: 2
#     Edge 32, Type (0, 0), BuildingBlock: UVAHIK_clean_linker_0, # of connection points: 2
#     Edge 33, Type (0, 0), BuildingBlock: UVAHIK_clean_linker_0, # of connection points: 2
#     Edge 34, Type (0, 0), BuildingBlock: UVAHIK_clean_linker_0, # of connection points: 2
#     Edge 35, Type (0, 0), BuildingBlock: UVAHIK_clean_linker_0, # of connection points: 2
#     Edge 36, Type (0, 0), BuildingBlock: UVAHIK_clean_linker_0, # of connection points: 2
#     Edge 37, Type (0, 0), BuildingBlock: UVAHIK_clean_linker_0, # of connection points: 2
#     Edge 38, Type (0, 0), BuildingBlock: UVAHIK_clean_linker_0, # of connection points: 2
#     Edge 39, Type (0, 0), BuildingBlock: UVAHIK_clean_linker_0, # of connection points: 2
#     Edge 40, Type (0, 0), BuildingBlock: UVAHIK_clean_linker_0, # of connection points: 2
#     Edge 41, Type (0, 0), BuildingBlock: UVAHIK_clean_linker_0, # of connection points: 2
#     Edge 42, Type (0, 0), BuildingBlock: UVAHIK_clean_linker_0, # of connection points: 2
#     Edge 43, Type (0, 0), BuildingBlock: UVAHIK_clean_linker_0, # of connection points: 2
#     Edge 44, Type (0, 0), BuildingBlock: UVAHIK_clean_linker_0, # of connection points: 2
#     Edge 45, Type (0, 0), BuildingBlock: UVAHIK_clean_linker_0, # of connection points: 2
#     Edge 46, Type (0, 0), BuildingBlock: UVAHIK_clean_linker_0, # of connection points: 2
#     Edge 47, Type (0, 0), BuildingBlock: UVAHIK_clean_linker_0, # of connection points: 2
#     Edge 48, Type (0, 0), BuildingBlock: UVAHIK_clean_linker_0, # of connection points: 2
#     Edge 49, Type (0, 0), BuildingBlock: UVAHIK_clean_linker_0, # of connection points: 2
#     Edge 50, Type (0, 0), BuildingBlock: UVAHIK_clean_linker_0, # of connection points: 2
#     Edge 51, Type (0, 0), BuildingBlock: UVAHIK_clean_linker_0, # of connection points: 2
#     Edge 52, Type (0, 0), BuildingBlock: UVAHIK_clean_linker_0, # of connection points: 2
#     Edge 53, Type (0, 0), BuildingBlock: UVAHIK_clean_linker_0, # of connection points: 2
#     Edge 54, Type (0, 0), BuildingBlock: UVAHIK_clean_linker_0, # of connection points: 2
#     Edge 55, Type (0, 0), BuildingBlock: UVAHIK_clean_linker_0, # of connection points: 2
#     Edge 56, Type (0, 0), BuildingBlock: UVAHIK_clean_linker_0, # of connection points: 2
#     Edge 57, Type (0, 0), BuildingBlock: UVAHIK_clean_linker_0, # of connection points: 2
#     Edge 58, Type (0, 0), BuildingBlock: UVAHIK_clean_linker_0, # of connection points: 2
#     Edge 59, Type (0, 0), BuildingBlock: UVAHIK_clean_linker_0, # of connection points: 2
#     Edge 60, Type (0, 0), BuildingBlock: UVAHIK_clean_linker_0, # of connection points: 2
#     Edge 61, Type (0, 0), BuildingBlock: UVAHIK_clean_linker_0, # of connection points: 2
#     Edge 62, Type (0, 0), BuildingBlock: UVAHIK_clean_linker_0, # of connection points: 2
#     Edge 63, Type (0, 0), BuildingBlock: UVAHIK_clean_linker_0, # of connection points: 2
#     Edge 64, Type (0, 0), BuildingBlock: UVAHIK_clean_linker_0, # of connection points: 2
#     Edge 65, Type (0, 0), BuildingBlock: UVAHIK_clean_linker_0, # of connection points: 2
#     Edge 66, Type (0, 0), BuildingBlock: UVAHIK_clean_linker_0, # of connection points: 2
#     Edge 67, Type (0, 0), BuildingBlock: UVAHIK_clean_linker_0, # of connection points: 2
#     Edge 68, Type (0, 0), BuildingBlock: UVAHIK_clean_linker_0, # of connection points: 2
#     Edge 69, Type (0, 0), BuildingBlock: UVAHIK_clean_linker_0, # of connection points: 2
#     Edge 70, Type (0, 0), BuildingBlock: UVAHIK_clean_linker_0, # of connection points: 2
#     Edge 71, Type (0, 0), BuildingBlock: UVAHIK_clean_linker_0, # of connection points: 2
#     Edge 72, Type (0, 0), BuildingBlock: UVAHIK_clean_linker_0, # of connection points: 2
#     Edge 73, Type (0, 0), BuildingBlock: UVAHIK_clean_linker_0, # of connection points: 2
#     Edge 74, Type (0, 0), BuildingBlock: UVAHIK_clean_linker_0, # of connection points: 2
#     Edge 75, Type (0, 0), BuildingBlock: UVAHIK_clean_linker_0, # of connection points: 2
#     Edge 76, Type (0, 0), BuildingBlock: UVAHIK_clean_linker_0, # of connection points: 2
#     Edge 77, Type (0, 0), BuildingBlock: UVAHIK_clean_linker_0, # of connection points: 2
#     Edge 78, Type (0, 0), BuildingBlock: UVAHIK_clean_linker_0, # of connection points: 2
#     Edge 79, Type (0, 0), BuildingBlock: UVAHIK_clean_linker_0, # of connection points: 2
#     Edge 80, Type (0, 0), BuildingBlock: UVAHIK_clean_linker_0, # of connection points: 2
#     Edge 81, Type (0, 0), BuildingBlock: UVAHIK_clean_linker_0, # of connection points: 2
#     Edge 82, Type (0, 0), BuildingBlock: UVAHIK_clean_linker_0, # of connection points: 2
#     Edge 83, Type (0, 0), BuildingBlock: UVAHIK_clean_linker_0, # of connection points: 2
# Relax obj value: 0.876
# Max RMSD: 0.355
# Mean RMSD: 0.318
data_MOF--net-fci--node1-BEQFEK_clean_sbu_0--edge1-UVAHIK_clean_linker_0
_symmetry_space_group_name_H-M    P1
_symmetry_Int_Tables_number       1
_symmetry_cell_setting            triclinic
loop_
_symmetry_equiv_pos_as_xyz
'x, y, z'
_cell_length_a     66.635862
_cell_length_b     66.637984
_cell_length_c     66.633991
_cell_angle_alpha  89.189563
_cell_angle_beta   89.182245
_cell_angle_gamma 89.207207
loop_
_atom_site_label
_atom_site_type_symbol
_atom_site_fract_x
_atom_site_fract_y
_atom_site_fract_z
_atom_type_partial_charge
Co0 Co 0.21402 0.13215 0.6182 0.0
Co1 Co 0.24161 0.11792 0.58239 0.0
C2 C 0.21993 0.08878 0.60954 0.0
O3 O 0.21236 0.103 0.61971 0.0
O4 O 0.23145 0.09202 0.59446 0.0
C5 C 0.1969 0.13316 0.65795 0.0
O6 O 0.2042 0.11479 0.65924 0.0
C7 C 0.28124 0.105 0.56806 0.0
C8 C 0.28076 0.11472 0.53629 0.0
C9 C 0.29347 0.1073 0.55106 0.0
N10 N 0.26261 0.11152 0.56363 0.0
N11 N 0.26227 0.11676 0.54446 0.0
C12 C 0.28686 0.09685 0.5883 0.0
H13 H 0.27411 0.08837 0.59495 0.0
H14 H 0.29 0.10934 0.59854 0.0
H15 H 0.30032 0.0869 0.5872 0.0
C16 C 0.24983 0.15446 0.62845 0.0
N17 N 0.24084 0.14032 0.61767 0.0
N18 N 0.25187 0.13622 0.60166 0.0
C19 C 0.26772 0.14869 0.60119 0.0
C20 C 0.26721 0.16014 0.61842 0.0
C21 C 0.24027 0.16462 0.64611 0.0
H22 H 0.22662 0.17293 0.64117 0.0
H23 H 0.23564 0.15315 0.65741 0.0
H24 H 0.25062 0.17528 0.65314 0.0
O25 O 0.20066 0.14266 0.59367 0.0
O26 O 0.21952 0.132 0.56802 0.0
H27 H 0.27304 0.14895 0.56924 0.0
H28 H 0.28656 0.16775 0.58251 0.0
C29 C 0.28111 0.15211 0.58324 0.0
H30 H 0.29446 0.14216 0.58432 0.0
H31 H 0.24978 0.12299 0.5373 0.0
O32 O 0.1995 0.14327 0.64181 0.0
C33 C 0.20425 0.14159 0.57485 0.0
Co34 Co 0.52861 0.44643 0.28471 0.0
Co35 Co 0.53025 0.48731 0.26066 0.0
C36 C 0.56306 0.47324 0.28894 0.0
O37 O 0.55368 0.45754 0.29425 0.0
O38 O 0.55611 0.48528 0.27568 0.0
C39 C 0.53618 0.41193 0.30988 0.0
O40 O 0.55492 0.41765 0.30823 0.0
C41 C 0.52869 0.53005 0.26513 0.0
C42 C 0.51483 0.54125 0.23723 0.0
C43 C 0.52006 0.54705 0.25637 0.0
N44 N 0.52774 0.5148 0.25222 0.0
N45 N 0.52007 0.52172 0.23526 0.0
C46 C 0.53705 0.52786 0.28582 0.0
H47 H 0.55233 0.52117 0.28487 0.0
H48 H 0.52753 0.51758 0.29495 0.0
H49 H 0.53824 0.54253 0.29333 0.0
C50 C 0.4913 0.46455 0.30067 0.0
N51 N 0.50784 0.46515 0.28887 0.0
N52 N 0.50742 0.48151 0.27762 0.0
C53 C 0.4899 0.49134 0.2812 0.0
C54 C 0.47926 0.48113 0.29616 0.0
C55 C 0.48778 0.44886 0.3166 0.0
H56 H 0.4817 0.43526 0.30959 0.0
H57 H 0.50216 0.44471 0.32383 0.0
H58 H 0.47704 0.45423 0.32827 0.0
O59 O 0.53028 0.43982 0.25569 0.0
O60 O 0.53094 0.46837 0.23788 0.0
H61 H 0.48754 0.50717 0.25307 0.0
H62 H 0.46555 0.50917 0.269 0.0
C63 C 0.4822 0.50859 0.2688 0.0
H64 H 0.48767 0.52279 0.27496 0.0
H65 H 0.51685 0.51279 0.22302 0.0
O66 O 0.52266 0.42167 0.30046 0.0
C67 C 0.53086 0.44921 0.23885 0.0
Co68 Co 0.27761 0.86001 0.11728 0.0
Co69 Co 0.25523 0.87288 0.07792 0.0
C70 C 0.27362 0.90303 0.10473 0.0
O71 O 0.27947 0.88924 0.11668 0.0
O72 O 0.26422 0.89921 0.08876 0.0
C73 C 0.2918 0.86098 0.15803 0.0
O74 O 0.28764 0.88028 0.15678 0.0
C75 C 0.2193 0.88669 0.05697 0.0
C76 C 0.22309 0.87151 0.02795 0.0
C77 C 0.20912 0.88223 0.03938 0.0
N78 N 0.23765 0.87808 0.05609 0.0
N79 N 0.24008 0.86962 0.03843 0.0
C80 C 0.21217 0.89864 0.07461 0.0
H81 H 0.22516 0.90474 0.08264 0.0
H82 H 0.20384 0.8889 0.08537 0.0
H83 H 0.20229 0.91125 0.06965 0.0
C84 C 0.24028 0.83868 0.12533 0.0
N85 N 0.25087 0.85214 0.1145 0.0
N86 N 0.24169 0.85616 0.09752 0.0
C87 C 0.22521 0.84457 0.09673 0.0
C88 C 0.22364 0.83342 0.11447 0.0
C89 C 0.24783 0.82864 0.14405 0.0
H90 H 0.25141 0.84021 0.15521 0.0
H91 H 0.23673 0.81815 0.15071 0.0
H92 H 0.26186 0.82018 0.1405 0.0
O93 O 0.29409 0.84797 0.09542 0.0
O94 O 0.27882 0.85763 0.06738 0.0
H95 H 0.20389 0.82807 0.07919 0.0
H96 H 0.20186 0.8547 0.07721 0.0
C97 C 0.21271 0.84204 0.07844 0.0
H98 H 0.22244 0.84183 0.06482 0.0
H99 H 0.25278 0.8613 0.03414 0.0
O100 O 0.28859 0.84989 0.14307 0.0
C101 C 0.29292 0.84818 0.07633 0.0
Co102 Co 0.98388 0.55307 0.77375 0.0
Co103 Co 0.97612 0.51223 0.75194 0.0
C104 C 0.94733 0.52847 0.78253 0.0
O105 O 0.95845 0.54337 0.78559 0.0
O106 O 0.9519 0.51552 0.7694 0.0
C107 C 0.98953 0.57202 0.80955 0.0
O108 O 0.98426 0.55385 0.81524 0.0
C109 C 0.9707 0.46925 0.75378 0.0
C110 C 0.98641 0.45854 0.72655 0.0
C111 C 0.97805 0.45198 0.74464 0.0
N112 N 0.9755 0.48523 0.74225 0.0
N113 N 0.98419 0.47869 0.72559 0.0
C114 C 0.95972 0.47075 0.7735 0.0
H115 H 0.96888 0.47921 0.78422 0.0
H116 H 0.95592 0.45581 0.77989 0.0
H117 H 0.94541 0.47909 0.77126 0.0
C118 C 0.02216 0.53243 0.78378 0.0
N119 N 0.00391 0.53285 0.77525 0.0
N120 N 0.00065 0.51549 0.76673 0.0
C121 C 0.01676 0.50336 0.77003 0.0
C122 C 0.03077 0.51365 0.78094 0.0
C123 C 0.03092 0.54946 0.79502 0.0
H124 H 0.02678 0.56396 0.78775 0.0
H125 H 0.02501 0.54918 0.81065 0.0
H126 H 0.04747 0.54832 0.79571 0.0
O127 O 0.98093 0.5611 0.74523 0.0
O128 O 0.97506 0.53242 0.72941 0.0
H129 H 0.03464 0.47643 0.76508 0.0
H130 H 0.00826 0.47268 0.76958 0.0
C131 C 0.01939 0.48258 0.76219 0.0
H132 H 0.017 0.48277 0.7458 0.0
H133 H 0.99017 0.48804 0.71438 0.0
O134 O 0.99083 0.57608 0.79087 0.0
C135 C 0.9775 0.55141 0.72929 0.0
Co136 Co 0.71252 0.36648 0.37072 0.0
Co137 Co 0.74103 0.37778 0.40577 0.0
C138 C 0.71964 0.40905 0.38087 0.0
O139 O 0.71141 0.39568 0.37057 0.0
O140 O 0.73141 0.40461 0.3952 0.0
C141 C 0.69325 0.36793 0.33226 0.0
O142 O 0.6989 0.38674 0.33189 0.0
C143 C 0.78096 0.3887 0.41878 0.0
C144 C 0.78058 0.37904 0.45058 0.0
C145 C 0.79317 0.38624 0.43543 0.0
N146 N 0.76237 0.38263 0.42378 0.0
N147 N 0.7621 0.37735 0.44295 0.0
C148 C 0.78657 0.39679 0.39841 0.0
H149 H 0.77373 0.40538 0.39202 0.0
H150 H 0.79005 0.38426 0.38813 0.0
H151 H 0.79988 0.40658 0.39922 0.0
C152 C 0.74754 0.34309 0.3578 0.0
N153 N 0.73916 0.35716 0.36962 0.0
N154 N 0.75069 0.36007 0.38516 0.0
C155 C 0.76638 0.34701 0.38417 0.0
C156 C 0.76503 0.3361 0.36663 0.0
C157 C 0.73803 0.33535 0.33928 0.0
H158 H 0.72509 0.32585 0.34363 0.0
H159 H 0.73239 0.34814 0.33004 0.0
H160 H 0.74885 0.32639 0.33016 0.0
O161 O 0.69953 0.35533 0.39531 0.0
O162 O 0.71895 0.36391 0.4206 0.0
H163 H 0.7723 0.34551 0.41588 0.0
H164 H 0.78373 0.32557 0.40154 0.0
C165 C 0.77975 0.3418 0.40142 0.0
H166 H 0.7939 0.35023 0.39986 0.0
H167 H 0.74961 0.37152 0.45051 0.0
O168 O 0.69748 0.35684 0.34735 0.0
C169 C 0.70346 0.35526 0.41398 0.0
Co170 Co 0.46105 0.94379 0.20997 0.0
Co171 Co 0.45619 0.98499 0.2321 0.0
C172 C 0.42629 0.9706 0.20186 0.0
O173 O 0.43651 0.95484 0.19809 0.0
O174 O 0.43176 0.98292 0.21507 0.0
C175 C 0.45513 0.90734 0.18896 0.0
O176 O 0.43616 0.91111 0.19328 0.0
C177 C 0.45543 0.02825 0.22844 0.0
C178 C 0.4683 0.03807 0.25691 0.0
C179 C 0.46302 0.04493 0.2379 0.0
N180 N 0.45712 0.01224 0.24082 0.0
N181 N 0.46415 0.01832 0.25812 0.0
C182 C 0.44733 0.02713 0.20763 0.0
H183 H 0.43251 0.01981 0.2082 0.0
H184 H 0.45757 0.01782 0.1982 0.0
H185 H 0.44523 0.04223 0.2007 0.0
C186 C 0.49922 0.96149 0.1969 0.0
N187 N 0.48165 0.96244 0.20705 0.0
N188 N 0.48047 0.9793 0.21708 0.0
C189 C 0.49782 0.98927 0.21413 0.0
C190 C 0.51006 0.97842 0.2011 0.0
C191 C 0.50571 0.94427 0.18406 0.0
H192 H 0.50695 0.93051 0.19355 0.0
H193 H 0.49417 0.94164 0.17259 0.0
H194 H 0.52041 0.94701 0.17655 0.0
O195 O 0.45725 0.93706 0.23882 0.0
O196 O 0.45428 0.96584 0.25527 0.0
H197 H 0.49848 0.00827 0.23973 0.0
H198 H 0.51905 0.01202 0.22225 0.0
C199 C 0.50283 0.00872 0.22364 0.0
H200 H 0.49443 0.02097 0.21605 0.0
H201 H 0.46767 0.00875 0.27012 0.0
O202 O 0.46843 0.91914 0.19518 0.0
C203 C 0.45503 0.94669 0.25515 0.0
Co204 Co 0.78563 0.6327 0.87378 0.0
Co205 Co 0.76322 0.61687 0.91249 0.0
C206 C 0.78408 0.58906 0.88356 0.0
O207 O 0.78929 0.60378 0.87252 0.0
O208 O 0.77406 0.59159 0.89978 0.0
C209 C 0.8 0.63448 0.83294 0.0
O210 O 0.7953 0.61541 0.83295 0.0
C211 C 0.72547 0.60419 0.93087 0.0
C212 C 0.73029 0.61061 0.96279 0.0
C213 C 0.71541 0.60558 0.94938 0.0
N214 N 0.74477 0.60913 0.93334 0.0
N215 N 0.74773 0.61225 0.95256 0.0
C216 C 0.71701 0.59982 0.9107 0.0
H217 H 0.72876 0.60097 0.8988 0.0
H218 H 0.70443 0.61027 0.90714 0.0
H219 H 0.71122 0.58429 0.91079 0.0
C220 C 0.74765 0.65344 0.8671 0.0
N221 N 0.75851 0.63948 0.87701 0.0
N222 N 0.74967 0.63513 0.89429 0.0
C223 C 0.73334 0.64728 0.89636 0.0
C224 C 0.73136 0.6589 0.87902 0.0
C225 C 0.754 0.66285 0.84754 0.0
H226 H 0.76654 0.67325 0.85013 0.0
H227 H 0.7594 0.65103 0.83714 0.0
H228 H 0.74142 0.67131 0.84048 0.0
O229 O 0.80043 0.64391 0.89664 0.0
O230 O 0.78576 0.63162 0.92437 0.0
H231 H 0.73211 0.64641 0.92876 0.0
H232 H 0.71956 0.66773 0.91739 0.0
C233 C 0.72281 0.65142 0.91594 0.0
H234 H 0.70821 0.64367 0.91649 0.0
H235 H 0.76128 0.61703 0.95844 0.0
O236 O 0.79692 0.64466 0.84872 0.0
C237 C 0.79916 0.64229 0.91571 0.0
Co238 Co 0.0239 0.04888 0.70607 0.0
Co239 Co 0.02701 0.00893 0.73134 0.0
C240 C 0.05847 0.02042 0.70065 0.0
O241 O 0.04881 0.03631 0.6959 0.0
O242 O 0.05213 0.00862 0.71445 0.0
C243 C 0.03175 0.0816 0.67898 0.0
O244 O 0.05053 0.07618 0.68185 0.0
C245 C 0.0244 0.96582 0.7328 0.0
C246 C 0.01518 0.95934 0.76414 0.0
C247 C 0.01808 0.95048 0.74558 0.0
N248 N 0.02495 0.98288 0.74323 0.0
N249 N 0.01999 0.97886 0.76211 0.0
C250 C 0.02677 0.96509 0.71042 0.0
H251 H 0.02654 0.98042 0.70372 0.0
H252 H 0.01469 0.95613 0.70379 0.0
H253 H 0.04136 0.95776 0.70662 0.0
C254 C 0.98508 0.03217 0.69532 0.0
N255 N 0.00276 0.03071 0.70475 0.0
N256 N 0.0033 0.0142 0.71582 0.0
C257 C 0.98553 0.00483 0.71405 0.0
C258 C 0.97355 0.01586 0.70093 0.0
C259 C 0.97955 0.04884 0.68106 0.0
H260 H 0.97733 0.06291 0.68958 0.0
H261 H 0.99198 0.05119 0.67007 0.0
H262 H 0.96566 0.04558 0.67281 0.0
O263 O 0.02644 0.05769 0.73421 0.0
O264 O 0.02896 0.02956 0.75254 0.0
H265 H 0.96243 0.98638 0.72751 0.0
H266 H 0.9844 0.97308 0.71888 0.0
C267 C 0.97904 0.98698 0.72627 0.0
H268 H 0.98533 0.98758 0.74153 0.0
H269 H 0.01845 0.98967 0.77323 0.0
O270 O 0.01791 0.07246 0.68855 0.0
C271 C 0.02824 0.04867 0.75114 0.0
Co272 Co 0.61909 0.2136 0.13303 0.0
Co273 Co 0.58192 0.24033 0.12089 0.0
C274 C 0.6078 0.2192 0.0903 0.0
O275 O 0.61894 0.212 0.10394 0.0
O276 O 0.59261 0.23032 0.09434 0.0
C277 C 0.65838 0.19531 0.1314 0.0
O278 O 0.65802 0.20113 0.11249 0.0
C279 C 0.56599 0.27958 0.10886 0.0
C280 C 0.53453 0.27801 0.11942 0.0
C281 C 0.54866 0.2912 0.11158 0.0
N282 N 0.56236 0.26081 0.11546 0.0
N283 N 0.54336 0.25981 0.12124 0.0
C284 C 0.58579 0.28591 0.10013 0.0
H285 H 0.59274 0.27333 0.09165 0.0
H286 H 0.59617 0.28965 0.11232 0.0
H287 H 0.58391 0.29921 0.09008 0.0
C288 C 0.62971 0.2494 0.15488 0.0
N289 N 0.61842 0.24035 0.14123 0.0
N290 N 0.60205 0.25111 0.13798 0.0
C291 C 0.60199 0.26697 0.15044 0.0
C292 C 0.61967 0.26656 0.16125 0.0
C293 C 0.64889 0.24076 0.16287 0.0
H294 H 0.64545 0.22794 0.17311 0.0
H295 H 0.65833 0.23508 0.15028 0.0
H296 H 0.65741 0.25212 0.17114 0.0
O297 O 0.59547 0.19974 0.14478 0.0
O298 O 0.56876 0.21798 0.13585 0.0
H299 H 0.5699 0.2713 0.15215 0.0
H300 H 0.58354 0.28365 0.17145 0.0
C301 C 0.58379 0.27951 0.15538 0.0
H302 H 0.58415 0.2936 0.1464 0.0
H303 H 0.53679 0.24706 0.1276 0.0
O304 O 0.64345 0.19933 0.14283 0.0
C305 C 0.57654 0.20286 0.14492 0.0
Co306 Co 0.55188 0.77721 0.97543 0.0
Co307 Co 0.51193 0.7532 0.97314 0.0
C308 C 0.52229 0.78667 0.94386 0.0
O309 O 0.5383 0.79071 0.95299 0.0
O310 O 0.51123 0.77211 0.94936 0.0
C311 C 0.58543 0.80265 0.96795 0.0
O312 O 0.57971 0.80134 0.94923 0.0
C313 C 0.46866 0.75315 0.97491 0.0
C314 C 0.46146 0.72222 0.98458 0.0
C315 C 0.45287 0.74094 0.9807 0.0
N316 N 0.48573 0.74223 0.97542 0.0
N317 N 0.48133 0.72362 0.98076 0.0
C318 C 0.46808 0.77548 0.97187 0.0
H319 H 0.48294 0.78199 0.97488 0.0
H320 H 0.45662 0.78257 0.98183 0.0
H321 H 0.4641 0.77896 0.95607 0.0
C322 C 0.53523 0.78738 0.01515 0.0
N323 N 0.53449 0.77724 0.99787 0.0
N324 N 0.51785 0.76685 0.99751 0.0
C325 C 0.50782 0.76956 0.01508 0.0
C326 C 0.51841 0.78283 0.02666 0.0
C327 C 0.55146 0.80171 0.02016 0.0
H328 H 0.56611 0.79359 0.02015 0.0
H329 H 0.55223 0.81369 0.00844 0.0
H330 H 0.54891 0.80855 0.03507 0.0
O331 O 0.56023 0.74937 0.96845 0.0
O332 O 0.53222 0.73153 0.96854 0.0
H333 H 0.48541 0.7604 0.03698 0.0
H334 H 0.47582 0.76953 0.01354 0.0
C335 C 0.48802 0.76051 0.02051 0.0
H336 H 0.48744 0.74491 0.01507 0.0
H337 H 0.49199 0.71221 0.98298 0.0
O338 O 0.576 0.79293 0.98155 0.0
C339 C 0.55124 0.73273 0.96661 0.0
Co340 Co 0.87014 0.78918 0.62645 0.0
Co341 Co 0.90925 0.76516 0.61489 0.0
C342 C 0.88343 0.78572 0.5839 0.0
O343 O 0.87118 0.79161 0.59739 0.0
O344 O 0.89918 0.77557 0.58822 0.0
C345 C 0.82938 0.80443 0.62539 0.0
O346 O 0.82994 0.799 0.60651 0.0
C347 C 0.92884 0.72731 0.60389 0.0
C348 C 0.95945 0.73158 0.61512 0.0
C349 C 0.94694 0.71721 0.60735 0.0
N350 N 0.93051 0.74633 0.61007 0.0
N351 N 0.94901 0.74894 0.61624 0.0
C352 C 0.91018 0.71941 0.59476 0.0
H353 H 0.90246 0.73157 0.58618 0.0
H354 H 0.89966 0.71426 0.60672 0.0
H355 H 0.9138 0.70667 0.58471 0.0
C356 C 0.86086 0.75237 0.64828 0.0
N357 N 0.87205 0.76225 0.63456 0.0
N358 N 0.88916 0.75256 0.63166 0.0
C359 C 0.88976 0.73662 0.64448 0.0
C360 C 0.87171 0.73587 0.65514 0.0
C361 C 0.84113 0.75995 0.65635 0.0
H362 H 0.83148 0.76486 0.64374 0.0
H363 H 0.83325 0.74818 0.66525 0.0
H364 H 0.84369 0.77306 0.66603 0.0
O365 O 0.89229 0.8042 0.6387 0.0
O366 O 0.92028 0.78777 0.63005 0.0
H367 H 0.92193 0.73454 0.64697 0.0
H368 H 0.90824 0.72062 0.66595 0.0
C369 C 0.90852 0.72524 0.64989 0.0
H370 H 0.90967 0.71142 0.6409 0.0
H371 H 0.95413 0.7622 0.62242 0.0
O372 O 0.84472 0.80149 0.63622 0.0
C373 C 0.91133 0.80214 0.63906 0.0
Co374 Co 0.94713 0.21128 0.45424 0.0
Co375 Co 0.98872 0.23298 0.4529 0.0
C376 C 0.97561 0.20441 0.42072 0.0
O377 O 0.95922 0.20031 0.4297 0.0
O378 O 0.9878 0.21706 0.42759 0.0
C379 C 0.91185 0.18824 0.44691 0.0
O380 O 0.91874 0.18804 0.42834 0.0
C381 C 0.03168 0.22779 0.45595 0.0
C382 C 0.04179 0.25688 0.46724 0.0
C383 C 0.04825 0.23736 0.4636 0.0
N384 N 0.01605 0.24074 0.45589 0.0
N385 N 0.02229 0.2583 0.46213 0.0
C386 C 0.03034 0.20647 0.44927 0.0
H387 H 0.02143 0.1977 0.46043 0.0
H388 H 0.0454 0.19944 0.44723 0.0
H389 H 0.02256 0.20595 0.43474 0.0
C390 C 0.96317 0.1951 0.49218 0.0
N391 N 0.96469 0.20675 0.47558 0.0
N392 N 0.98145 0.21692 0.47598 0.0
C393 C 0.99069 0.21271 0.49348 0.0
C394 C 0.97961 0.1985 0.50416 0.0
C395 C 0.94688 0.18014 0.49568 0.0
H396 H 0.93329 0.188 0.50158 0.0
H397 H 0.94301 0.17305 0.48131 0.0
H398 H 0.95148 0.16825 0.50656 0.0
O399 O 0.94135 0.24045 0.45158 0.0
O400 O 0.9703 0.25672 0.45101 0.0
H401 H 0.00844 0.23924 0.4954 0.0
H402 H 0.00878 0.22344 0.51759 0.0
C403 C 0.0086 0.22349 0.50093 0.0
H404 H 0.02245 0.21584 0.49552 0.0
H405 H 0.01296 0.27083 0.46417 0.0
O406 O 0.92144 0.19758 0.46013 0.0
C407 C 0.95115 0.25676 0.45071 0.0
Co408 Co 0.11503 0.28085 0.86272 0.0
Co409 Co 0.07764 0.25521 0.87527 0.0
C410 C 0.10409 0.274 0.90568 0.0
O411 O 0.11483 0.28175 0.89185 0.0
O412 O 0.08911 0.26308 0.90187 0.0
C413 C 0.15471 0.29777 0.86337 0.0
O414 O 0.1542 0.29287 0.88253 0.0
C415 C 0.05844 0.2164 0.8838 0.0
C416 C 0.02681 0.22413 0.87763 0.0
C417 C 0.03959 0.20792 0.88147 0.0
N418 N 0.0568 0.23634 0.88055 0.0
N419 N 0.03773 0.24092 0.87759 0.0
C420 C 0.07804 0.20584 0.88761 0.0
H421 H 0.0907 0.21643 0.88633 0.0
H422 H 0.08041 0.19328 0.87707 0.0
H423 H 0.0778 0.19944 0.90307 0.0
C424 C 0.12501 0.24546 0.83935 0.0
N425 N 0.11389 0.25429 0.85378 0.0
N426 N 0.09724 0.24419 0.85682 0.0
C427 C 0.09679 0.22921 0.84332 0.0
C428 C 0.11458 0.2293 0.83222 0.0
C429 C 0.14416 0.25377 0.83094 0.0
H430 H 0.15394 0.25826 0.84339 0.0
H431 H 0.15231 0.24259 0.82157 0.0
H432 H 0.14074 0.26729 0.82162 0.0
O433 O 0.09192 0.29604 0.85157 0.0
O434 O 0.06516 0.27881 0.86151 0.0
H435 H 0.06456 0.22618 0.8433 0.0
H436 H 0.07726 0.21757 0.82094 0.0
C437 C 0.0782 0.21842 0.83753 0.0
H438 H 0.07884 0.20278 0.84338 0.0
H439 H 0.03239 0.25534 0.87414 0.0
O440 O 0.13973 0.29398 0.8525 0.0
C441 C 0.07297 0.29365 0.85216 0.0
Co442 Co 0.44792 0.28154 0.53137 0.0
Co443 Co 0.48918 0.25818 0.53278 0.0
C444 C 0.47509 0.28667 0.56539 0.0
O445 O 0.45929 0.29169 0.55606 0.0
O446 O 0.48721 0.27341 0.55857 0.0
C447 C 0.41293 0.30576 0.53945 0.0
O448 O 0.41879 0.30398 0.55814 0.0
C449 C 0.53202 0.26304 0.53016 0.0
C450 C 0.54336 0.23419 0.51841 0.0
C451 C 0.54912 0.25367 0.52239 0.0
N452 N 0.51677 0.25006 0.52997 0.0
N453 N 0.52374 0.23263 0.52346 0.0
C454 C 0.52982 0.28426 0.53712 0.0
H455 H 0.52075 0.29309 0.52621 0.0
H456 H 0.54458 0.2914 0.53907 0.0
H457 H 0.52183 0.28452 0.55178 0.0
C458 C 0.46506 0.29693 0.49339 0.0
N459 N 0.46619 0.28555 0.51018 0.0
N460 N 0.48288 0.27479 0.50983 0.0
C461 C 0.49249 0.27838 0.49218 0.0
C462 C 0.48168 0.29272 0.48132 0.0
C463 C 0.44878 0.31217 0.4896 0.0
H464 H 0.43523 0.30443 0.48432 0.0
H465 H 0.4448 0.31995 0.50374 0.0
H466 H 0.45344 0.32349 0.47817 0.0
O467 O 0.44173 0.25253 0.53369 0.0
O468 O 0.47047 0.23505 0.53404 0.0
H469 H 0.51088 0.26654 0.46805 0.0
H470 H 0.52422 0.27382 0.48993 0.0
C471 C 0.51036 0.26671 0.4847 0.0
H472 H 0.50982 0.25105 0.49041 0.0
H473 H 0.51486 0.22013 0.52114 0.0
O474 O 0.42283 0.29679 0.52573 0.0
C475 C 0.4513 0.2358 0.53434 0.0
Co476 Co 0.36495 0.71297 0.3693 0.0
Co477 Co 0.40161 0.73952 0.38 0.0
C478 C 0.3755 0.71961 0.41162 0.0
O479 O 0.36445 0.71214 0.39839 0.0
O480 O 0.39063 0.73031 0.40698 0.0
C481 C 0.32683 0.69223 0.36967 0.0
O482 O 0.32693 0.69441 0.38923 0.0
C483 C 0.41647 0.77895 0.39013 0.0
C484 C 0.44826 0.77687 0.38061 0.0
C485 C 0.43367 0.79033 0.38738 0.0
N486 N 0.42063 0.76 0.38461 0.0
N487 N 0.43979 0.75872 0.37942 0.0
C488 C 0.39633 0.78567 0.39794 0.0
H489 H 0.38631 0.78937 0.38525 0.0
H490 H 0.39771 0.79911 0.40745 0.0
H491 H 0.38927 0.77332 0.40675 0.0
C492 C 0.3537 0.74819 0.34562 0.0
N493 N 0.36519 0.73948 0.35975 0.0
N494 N 0.38145 0.75009 0.3622 0.0
C495 C 0.38126 0.76545 0.34868 0.0
C496 C 0.36353 0.76486 0.33798 0.0
C497 C 0.33451 0.73961 0.33837 0.0
H498 H 0.32542 0.73414 0.35136 0.0
H499 H 0.32562 0.75097 0.32984 0.0
H500 H 0.33797 0.72669 0.32851 0.0
O501 O 0.38889 0.69875 0.35851 0.0
O502 O 0.41542 0.71681 0.3662 0.0
H503 H 0.39952 0.78107 0.32665 0.0
H504 H 0.39845 0.79215 0.35093 0.0
C505 C 0.39923 0.77767 0.34301 0.0
H506 H 0.41327 0.76958 0.34702 0.0
H507 H 0.44678 0.74576 0.37394 0.0
O508 O 0.34132 0.69892 0.35905 0.0
C509 C 0.40776 0.70159 0.35799 0.0
Co510 Co 0.06033 0.71336 0.02625 0.0
Co511 Co 0.01669 0.7324 0.02579 0.0
C512 C 0.03187 0.71098 0.062 0.0
O513 O 0.04883 0.70839 0.05335 0.0
O514 O 0.01738 0.71966 0.05299 0.0
C515 C 0.08789 0.68123 0.03457 0.0
O516 O 0.07425 0.67683 0.04829 0.0
C517 C 0.97277 0.73257 0.02529 0.0
C518 C 0.96636 0.75666 0.00315 0.0
C519 C 0.95742 0.74114 0.01394 0.0
N520 N 0.99 0.74191 0.02058 0.0
N521 N 0.98594 0.75674 0.00785 0.0
C522 C 0.97139 0.71568 0.04028 0.0
H523 H 0.97955 0.71969 0.05398 0.0
H524 H 0.97864 0.70201 0.03399 0.0
H525 H 0.9556 0.71258 0.04466 0.0
C526 C 0.04553 0.69352 0.99036 0.0
N527 N 0.04255 0.70557 0.00619 0.0
N528 N 0.02431 0.7134 0.00559 0.0
C529 C 0.01508 0.70638 0.98921 0.0
C530 C 0.02824 0.6936 0.9791 0.0
C531 C 0.06516 0.68349 0.98524 0.0
H532 H 0.07744 0.69448 0.98628 0.0
H533 H 0.06805 0.67116 0.99622 0.0
H534 H 0.06527 0.67725 0.9699 0.0
O535 O 0.06588 0.74212 0.02265 0.0
O536 O 0.03522 0.7559 0.02453 0.0
H537 H 0.99246 0.7277 0.98056 0.0
H538 H 0.98938 0.70321 0.96991 0.0
C539 C 0.99396 0.71135 0.98346 0.0
H540 H 0.98369 0.70708 0.99595 0.0
H541 H 0.99678 0.76597 0.00125 0.0
O542 O 0.0855 0.69692 0.0237 0.0
C543 C 0.05424 0.75747 0.02273 0.0
Co544 Co 0.12967 0.61755 0.20945 0.0
Co545 Co 0.1178 0.5801 0.2359 0.0
C546 C 0.0869 0.6081 0.21817 0.0
O547 O 0.10053 0.61877 0.21016 0.0
O548 O 0.09098 0.5924 0.22857 0.0
C549 C 0.12939 0.65299 0.18405 0.0
O550 O 0.11099 0.64771 0.17997 0.0
C551 C 0.10774 0.56219 0.27493 0.0
C552 C 0.11938 0.53126 0.27142 0.0
C553 C 0.11175 0.54448 0.28564 0.0
N554 N 0.11353 0.55962 0.25572 0.0
N555 N 0.11994 0.54093 0.25359 0.0
C556 C 0.09854 0.58133 0.28246 0.0
H557 H 0.08945 0.58857 0.27048 0.0
H558 H 0.11048 0.59196 0.28634 0.0
H559 H 0.08893 0.57847 0.29591 0.0
C560 C 0.15346 0.62669 0.24445 0.0
N561 N 0.13955 0.61559 0.23556 0.0
N562 N 0.13635 0.59915 0.24623 0.0
C563 C 0.14913 0.59884 0.26185 0.0
C564 C 0.16013 0.61642 0.26134 0.0
C565 C 0.16078 0.64636 0.23629 0.0
H566 H 0.1479 0.65554 0.23086 0.0
H567 H 0.16876 0.65487 0.24787 0.0
H568 H 0.17113 0.64359 0.2234 0.0
O569 O 0.13946 0.59423 0.19386 0.0
O570 O 0.13043 0.56744 0.21191 0.0
H571 H 0.16977 0.58037 0.27893 0.0
H572 H 0.14459 0.58118 0.28855 0.0
C573 C 0.15376 0.5807 0.27458 0.0
H574 H 0.15054 0.5668 0.26638 0.0
H575 H 0.12594 0.53518 0.24027 0.0
O576 O 0.13979 0.64216 0.19596 0.0
C577 C 0.1388 0.57526 0.19641 0.0
Co578 Co 0.62748 0.87091 0.78713 0.0
Co579 Co 0.61412 0.9088 0.76199 0.0
C580 C 0.58427 0.88257 0.78335 0.0
O581 O 0.59835 0.87125 0.78967 0.0
O582 O 0.58778 0.89811 0.77256 0.0
C583 C 0.62688 0.83075 0.80365 0.0
O584 O 0.60807 0.83109 0.79803 0.0
C585 C 0.60237 0.92765 0.72403 0.0
C586 C 0.61536 0.9577 0.72696 0.0
C587 C 0.60685 0.94511 0.71307 0.0
N588 N 0.60893 0.92971 0.74287 0.0
N589 N 0.61605 0.94795 0.74471 0.0
C590 C 0.59211 0.90914 0.71723 0.0
H591 H 0.58433 0.90179 0.73015 0.0
H592 H 0.60331 0.89823 0.71128 0.0
H593 H 0.58106 0.91291 0.7054 0.0
C594 C 0.64881 0.86102 0.74998 0.0
N595 N 0.63528 0.87229 0.76004 0.0
N596 N 0.6313 0.88881 0.74969 0.0
C597 C 0.64315 0.88895 0.73302 0.0
C598 C 0.65431 0.87118 0.73254 0.0
C599 C 0.65758 0.84173 0.7579 0.0
H600 H 0.66765 0.84496 0.77054 0.0
H601 H 0.64536 0.83201 0.76367 0.0
H602 H 0.66618 0.8336 0.74609 0.0
O603 O 0.63921 0.89378 0.80148 0.0
O604 O 0.62907 0.92075 0.78424 0.0
H605 H 0.66302 0.907 0.7145 0.0
H606 H 0.63729 0.90758 0.70725 0.0
C607 C 0.64734 0.90722 0.72035 0.0
H608 H 0.64501 0.92101 0.7292 0.0
H609 H 0.62279 0.95319 0.75764 0.0
O610 O 0.63776 0.84598 0.80016 0.0
C611 C 0.63867 0.91275 0.79876 0.0
Co612 Co 0.77934 0.98463 0.55125 0.0
Co613 Co 0.75596 0.97733 0.51165 0.0
C614 C 0.78947 0.94986 0.52539 0.0
O615 O 0.79276 0.96047 0.54066 0.0
O616 O 0.77539 0.95423 0.51331 0.0
C617 C 0.7959 0.98309 0.59081 0.0
O618 O 0.78456 0.96723 0.59314 0.0
C619 C 0.75673 0.97604 0.46852 0.0
C620 C 0.72546 0.98299 0.4601 0.0
C621 C 0.74461 0.97994 0.45216 0.0
N622 N 0.74536 0.9768 0.48528 0.0
N623 N 0.72656 0.98047 0.48018 0.0
C624 C 0.77921 0.9748 0.46857 0.0
H625 H 0.78506 0.97836 0.48358 0.0
H626 H 0.78576 0.98528 0.45724 0.0
H627 H 0.78407 0.95932 0.46469 0.0
C628 C 0.78883 0.02267 0.53058 0.0
N629 N 0.77958 0.00486 0.53141 0.0
N630 N 0.76898 0.00258 0.51512 0.0
C631 C 0.77062 0.0194 0.50366 0.0
C632 C 0.78338 0.03257 0.51299 0.0
C633 C 0.80387 0.0291 0.5456 0.0
H634 H 0.81384 0.01622 0.54956 0.0
H635 H 0.81327 0.04154 0.53978 0.0
H636 H 0.79587 0.03396 0.55946 0.0
O637 O 0.75119 0.97956 0.56014 0.0
O638 O 0.73433 0.97392 0.53217 0.0
H639 H 0.75742 0.03992 0.48208 0.0
H640 H 0.76753 0.01707 0.47188 0.0
C641 C 0.75921 0.02353 0.48483 0.0
H642 H 0.74416 0.01674 0.48592 0.0
H643 H 0.71476 0.98257 0.49044 0.0
O644 O 0.7953 0.99301 0.5744 0.0
C645 C 0.73494 0.97557 0.5512 0.0
Co646 Co 0.86201 0.11813 0.27762 0.0
Co647 Co 0.87522 0.07908 0.25492 0.0
C648 C 0.90516 0.10779 0.27109 0.0
O649 O 0.89113 0.11905 0.27765 0.0
O650 O 0.90153 0.09151 0.2621 0.0
C651 C 0.86201 0.15908 0.29064 0.0
O652 O 0.88062 0.15877 0.2839 0.0
C653 C 0.88497 0.05859 0.21728 0.0
C654 C 0.87876 0.02712 0.22568 0.0
C655 C 0.88311 0.03948 0.20925 0.0
N656 N 0.88106 0.05746 0.23713 0.0
N657 N 0.87804 0.03851 0.24216 0.0
C658 C 0.88882 0.07798 0.20635 0.0
H659 H 0.87858 0.07991 0.19348 0.0
H660 H 0.90445 0.07781 0.20038 0.0
H661 H 0.88708 0.09088 0.21658 0.0
C662 C 0.83815 0.12486 0.24188 0.0
N663 N 0.85274 0.11471 0.25153 0.0
N664 N 0.85625 0.09746 0.24266 0.0
C665 C 0.84297 0.09567 0.22762 0.0
C666 C 0.83141 0.11314 0.22645 0.0
C667 C 0.82967 0.14464 0.24851 0.0
H668 H 0.82025 0.14232 0.2622 0.0
H669 H 0.84208 0.15478 0.25228 0.0
H670 H 0.82043 0.15186 0.23664 0.0
O671 O 0.85193 0.09572 0.29473 0.0
O672 O 0.86203 0.06784 0.2794 0.0
H673 H 0.82156 0.07498 0.2161 0.0
H674 H 0.84479 0.07599 0.2025 0.0
C675 C 0.83804 0.0763 0.21778 0.0
H676 H 0.84359 0.0633 0.22673 0.0
H677 H 0.87411 0.03356 0.2566 0.0
O678 O 0.8514 0.14346 0.28922 0.0
C679 C 0.85289 0.07662 0.29381 0.0
Co680 Co 0.70934 0.02197 0.05587 0.0
Co681 Co 0.73162 0.02531 0.01415 0.0
C682 C 0.70271 0.05734 0.02929 0.0
O683 O 0.69864 0.04744 0.04522 0.0
O684 O 0.71556 0.05089 0.01653 0.0
C685 C 0.68808 0.0294 0.09252 0.0
O686 O 0.69311 0.04806 0.08859 0.0
C687 C 0.72698 0.02389 0.97129 0.0
C688 C 0.75631 0.01262 0.96019 0.0
C689 C 0.73673 0.01654 0.95429 0.0
N690 N 0.73987 0.02347 0.9866 0.0
N691 N 0.75758 0.01727 0.97977 0.0
C692 C 0.7055 0.03062 0.97336 0.0
H693 H 0.69691 0.01912 0.98192 0.0
H694 H 0.69856 0.03337 0.95852 0.0
H695 H 0.70459 0.04477 0.98183 0.0
C696 C 0.69456 0.98479 0.03843 0.0
N697 N 0.70535 0.00169 0.03727 0.0
N698 N 0.71582 0.00204 0.02039 0.0
C699 C 0.71267 0.98472 0.01068 0.0
C700 C 0.69889 0.97338 0.02162 0.0
C701 C 0.67984 0.98022 0.055 0.0
H702 H 0.67159 0.99412 0.05929 0.0
H703 H 0.66884 0.96885 0.05047 0.0
H704 H 0.68808 0.97451 0.06831 0.0
O705 O 0.73842 0.02338 0.06178 0.0
O706 O 0.75491 0.02594 0.03251 0.0
H707 H 0.72518 0.96126 0.99209 0.0
H708 H 0.71695 0.98348 0.9789 0.0
C709 C 0.72441 0.97789 0.99266 0.0
H710 H 0.73987 0.98371 0.99305 0.0
H711 H 0.7701 0.01483 0.98875 0.0
O712 O 0.69421 0.01563 0.08086 0.0
C713 C 0.75477 0.02478 0.05166 0.0
Co714 Co 0.36371 0.37099 0.7137 0.0
Co715 Co 0.37583 0.40821 0.7388 0.0
C716 C 0.40644 0.37962 0.72097 0.0
O717 O 0.39285 0.36887 0.7137 0.0
O718 O 0.40228 0.39548 0.73074 0.0
C719 C 0.36246 0.33738 0.68722 0.0
O720 O 0.38013 0.3437 0.68108 0.0
C721 C 0.3853 0.42625 0.77743 0.0
C722 C 0.37956 0.45835 0.77087 0.0
C723 C 0.38389 0.44499 0.78647 0.0
N724 N 0.38129 0.42857 0.75779 0.0
N725 N 0.37847 0.44785 0.75386 0.0
C726 C 0.38891 0.40618 0.78722 0.0
H727 H 0.37889 0.40416 0.8005 0.0
H728 H 0.40466 0.40526 0.79237 0.0
H729 H 0.38663 0.3939 0.77647 0.0
C730 C 0.33893 0.36251 0.74899 0.0
N731 N 0.3536 0.37306 0.73997 0.0
N732 N 0.3567 0.38959 0.74998 0.0
C733 C 0.34308 0.39054 0.76523 0.0
C734 C 0.33164 0.37325 0.76522 0.0
C735 C 0.33093 0.34331 0.74113 0.0
H736 H 0.32131 0.34668 0.72802 0.0
H737 H 0.34356 0.33348 0.73614 0.0
H738 H 0.32195 0.33524 0.75276 0.0
O739 O 0.35428 0.39461 0.69784 0.0
O740 O 0.3633 0.42129 0.71505 0.0
H741 H 0.32156 0.4107 0.77892 0.0
H742 H 0.34473 0.40796 0.79187 0.0
C743 C 0.33805 0.40912 0.77677 0.0
H744 H 0.34371 0.42265 0.76882 0.0
H745 H 0.37462 0.45371 0.73981 0.0
O746 O 0.35302 0.34688 0.70088 0.0
C747 C 0.35491 0.41358 0.69996 0.0
Co748 Co 0.2791 0.52309 0.44701 0.0
Co749 Co 0.25644 0.52642 0.48849 0.0
C750 C 0.2822 0.55963 0.47234 0.0
O751 O 0.28597 0.54998 0.45638 0.0
O752 O 0.27127 0.55224 0.48633 0.0
C753 C 0.30313 0.53137 0.41193 0.0
O754 O 0.29823 0.55007 0.41588 0.0
C755 C 0.25783 0.52539 0.53174 0.0
C756 C 0.22764 0.51508 0.54074 0.0
C757 C 0.24645 0.5192 0.54823 0.0
N758 N 0.24639 0.52471 0.51535 0.0
N759 N 0.22818 0.51907 0.52085 0.0
C760 C 0.27999 0.52891 0.53097 0.0
H761 H 0.28583 0.52833 0.51533 0.0
H762 H 0.28806 0.5176 0.54034 0.0
H763 H 0.28302 0.54397 0.53704 0.0
C764 C 0.29622 0.487 0.46658 0.0
N765 N 0.28442 0.50355 0.46694 0.0
N766 N 0.2738 0.50376 0.48372 0.0
C767 C 0.27796 0.48677 0.49427 0.0
C768 C 0.29245 0.47572 0.48386 0.0
C769 C 0.31118 0.48255 0.45021 0.0
H770 H 0.31899 0.49651 0.44565 0.0
H771 H 0.32253 0.47124 0.45507 0.0
H772 H 0.3032 0.47688 0.43698 0.0
O773 O 0.25038 0.52214 0.44001 0.0
O774 O 0.23387 0.52646 0.46907 0.0
H775 H 0.2666 0.46327 0.51378 0.0
H776 H 0.27391 0.48569 0.52617 0.0
C777 C 0.26662 0.4799 0.51262 0.0
H778 H 0.2509 0.48544 0.51216 0.0
H779 H 0.21656 0.51659 0.51088 0.0
O780 O 0.29592 0.51736 0.42285 0.0
C781 C 0.23408 0.52403 0.4501 0.0
Co782 Co 0.2148 0.45947 0.94533 0.0
Co783 Co 0.23569 0.45466 0.98707 0.0
C784 C 0.21065 0.42207 0.97063 0.0
O785 O 0.20801 0.43223 0.9546 0.0
O786 O 0.22061 0.429 0.98507 0.0
C787 C 0.18244 0.45657 0.91839 0.0
O788 O 0.17594 0.44424 0.93251 0.0
C789 C 0.23326 0.45571 0.03036 0.0
C790 C 0.26362 0.46505 0.03873 0.0
C791 C 0.24446 0.46185 0.0465 0.0
N792 N 0.24509 0.45569 0.01388 0.0
N793 N 0.26341 0.46066 0.01906 0.0
C794 C 0.21099 0.45295 0.02984 0.0
H795 H 0.20561 0.45286 0.01417 0.0
H796 H 0.20306 0.465 0.03825 0.0
H797 H 0.20724 0.43839 0.03716 0.0
C798 C 0.19799 0.49585 0.96433 0.0
N799 N 0.20893 0.47872 0.96511 0.0
N800 N 0.2188 0.47779 0.98207 0.0
C801 C 0.2149 0.49479 0.99235 0.0
C802 C 0.2014 0.50662 0.98159 0.0
C803 C 0.1845 0.50158 0.94736 0.0
H804 H 0.17469 0.4888 0.94399 0.0
H805 H 0.17489 0.5148 0.95094 0.0
H806 H 0.19375 0.5049 0.93377 0.0
O807 O 0.24371 0.46049 0.93867 0.0
O808 O 0.25901 0.45493 0.9678 0.0
H809 H 0.22665 0.51775 0.01129 0.0
H810 H 0.2179 0.49577 0.02426 0.0
C811 C 0.22592 0.50115 0.01059 0.0
H812 H 0.24141 0.49494 0.01038 0.0
H813 H 0.27533 0.46258 0.00892 0.0
O814 O 0.19911 0.46527 0.92066 0.0
C815 C 0.25964 0.4581 0.94886 0.0
C816 C 0.33413 0.31344 0.68417 0.0
C817 C 0.35359 0.31933 0.67846 0.0
C818 C 0.32569 0.29638 0.67603 0.0
C819 C 0.33876 0.24857 0.65225 0.0
H820 H 0.28294 0.25001 0.63649 0.0
C821 C 0.27645 0.19571 0.61176 0.0
C822 C 0.27927 0.17785 0.62276 0.0
C823 C 0.28669 0.21299 0.61691 0.0
C824 C 0.2986 0.24941 0.64062 0.0
H825 H 0.37946 0.3119 0.65972 0.0
H826 H 0.36466 0.28201 0.6455 0.0
H827 H 0.29847 0.28046 0.64836 0.0
H828 H 0.29468 0.16369 0.64764 0.0
H829 H 0.31271 0.19396 0.6568 0.0
H830 H 0.33883 0.21746 0.64455 0.0
C831 C 0.35601 0.2906 0.65636 0.0
C832 C 0.30743 0.26679 0.64762 0.0
C833 C 0.36444 0.30776 0.66443 0.0
C834 C 0.29257 0.17734 0.63885 0.0
C835 C 0.30288 0.1946 0.644 0.0
C836 C 0.32989 0.23113 0.64534 0.0
C837 C 0.33654 0.28477 0.66206 0.0
C838 C 0.32754 0.26652 0.65368 0.0
C839 C 0.29987 0.21267 0.63322 0.0
C840 C 0.30967 0.23134 0.63959 0.0
H841 H 0.32538 0.32198 0.69498 0.0
H842 H 0.31076 0.2921 0.68092 0.0
H843 H 0.35425 0.24788 0.65694 0.0
H844 H 0.26601 0.19638 0.59944 0.0
H845 H 0.28418 0.22665 0.60825 0.0
C846 C 0.32344 0.50685 0.39157 0.0
C847 C 0.31869 0.52682 0.39653 0.0
C848 C 0.33943 0.50252 0.37845 0.0
C849 C 0.38752 0.52266 0.36211 0.0
H850 H 0.38506 0.48386 0.31944 0.0
C851 C 0.45605 0.50693 0.31095 0.0
C852 C 0.45975 0.48696 0.30546 0.0
C853 C 0.43796 0.51241 0.32033 0.0
C854 C 0.38608 0.49456 0.33144 0.0
H855 H 0.32663 0.55792 0.39109 0.0
H856 H 0.35466 0.5503 0.36838 0.0
H857 H 0.35477 0.4921 0.33888 0.0
H858 H 0.44724 0.45716 0.30482 0.0
H859 H 0.41603 0.46643 0.32208 0.0
H860 H 0.41884 0.52469 0.35536 0.0
C861 C 0.34601 0.53803 0.37469 0.0
C862 C 0.3687 0.49933 0.34249 0.0
C863 C 0.32989 0.54238 0.38762 0.0
C864 C 0.44489 0.47261 0.30921 0.0
C865 C 0.42688 0.47802 0.31883 0.0
C866 C 0.40493 0.51774 0.35125 0.0
C867 C 0.35112 0.51806 0.37022 0.0
C868 C 0.36927 0.51341 0.35794 0.0
C869 C 0.42323 0.49798 0.32467 0.0
C870 C 0.40447 0.50359 0.33579 0.0
H871 H 0.31509 0.49452 0.39818 0.0
H872 H 0.34313 0.48698 0.37535 0.0
H873 H 0.38847 0.53334 0.37416 0.0
H874 H 0.4673 0.51829 0.30833 0.0
H875 H 0.43557 0.52799 0.32424 0.0
C876 C 0.19776 0.81576 0.13523 0.0
C877 C 0.21089 0.81591 0.11861 0.0
C878 C 0.18729 0.79837 0.14045 0.0
C879 C 0.19129 0.74367 0.1355 0.0
H880 H 0.13652 0.74438 0.15597 0.0
C881 C 0.15774 0.67691 0.17933 0.0
C882 C 0.13792 0.67154 0.17518 0.0
C883 C 0.16581 0.69448 0.17117 0.0
C884 C 0.15176 0.74392 0.15011 0.0
H885 H 0.22348 0.79836 0.09432 0.0
H886 H 0.20491 0.76801 0.10312 0.0
H887 H 0.15146 0.77544 0.14325 0.0
H888 H 0.11101 0.68046 0.15919 0.0
H889 H 0.1252 0.71117 0.14486 0.0
H890 H 0.19164 0.71221 0.1423 0.0
C891 C 0.20273 0.78122 0.11222 0.0
C892 C 0.16037 0.76173 0.14301 0.0
C893 C 0.21318 0.7986 0.10704 0.0
C894 C 0.12634 0.68416 0.16268 0.0
C895 C 0.13441 0.70181 0.15456 0.0
C896 C 0.18272 0.72591 0.14264 0.0
C897 C 0.18992 0.7808 0.12918 0.0
C898 C 0.18029 0.76181 0.13576 0.0
C899 C 0.15425 0.70713 0.1587 0.0
C900 C 0.16293 0.72587 0.15021 0.0
H901 H 0.19604 0.82894 0.14447 0.0
H902 H 0.17775 0.79846 0.15374 0.0
H903 H 0.20674 0.74325 0.13024 0.0
H904 H 0.16705 0.66758 0.18896 0.0
H905 H 0.18105 0.69832 0.17488 0.0
C906 C 0.15179 0.45075 0.89827 0.0
C907 C 0.16991 0.46092 0.90066 0.0
C908 C 0.13942 0.45525 0.88207 0.0
C909 C 0.12728 0.49581 0.84631 0.0
H910 H 0.09669 0.45426 0.82102 0.0
C911 C 0.06784 0.51451 0.78648 0.0
C912 C 0.04922 0.5055 0.79017 0.0
C913 C 0.08483 0.50793 0.79688 0.0
C914 C 0.10512 0.46602 0.82795 0.0
H915 H 0.18946 0.48355 0.88767 0.0
H916 H 0.16781 0.49135 0.8592 0.0
H917 H 0.12268 0.44494 0.84497 0.0
H918 H 0.03374 0.48207 0.80669 0.0
H919 H 0.06338 0.47043 0.82484 0.0
H920 H 0.10939 0.51691 0.82962 0.0
C921 C 0.16313 0.48 0.87001 0.0
C922 C 0.11998 0.4607 0.84168 0.0
C923 C 0.17557 0.47548 0.88627 0.0
C924 C 0.048 0.4892 0.80363 0.0
C925 C 0.06497 0.48253 0.81394 0.0
C926 C 0.11245 0.50113 0.83252 0.0
C927 C 0.14485 0.47002 0.86782 0.0
C928 C 0.13089 0.47555 0.8514 0.0
C929 C 0.08349 0.49208 0.81097 0.0
C930 C 0.10089 0.48631 0.82356 0.0
H931 H 0.14697 0.43946 0.90908 0.0
H932 H 0.12529 0.44751 0.88104 0.0
H933 H 0.13525 0.50763 0.85367 0.0
H934 H 0.06915 0.52687 0.77582 0.0
H935 H 0.09896 0.51538 0.79408 0.0
C936 C 0.76686 0.29981 0.35826 0.0
C937 C 0.77671 0.31797 0.36119 0.0
C938 C 0.77769 0.28273 0.35257 0.0
C939 C 0.82406 0.26703 0.32704 0.0
H940 H 0.81085 0.21475 0.34945 0.0
C941 C 0.8655 0.19424 0.3028 0.0
C942 C 0.85345 0.17742 0.29983 0.0
C943 C 0.85742 0.21151 0.31164 0.0
C944 C 0.8146 0.22922 0.34293 0.0
H945 H 0.80549 0.33258 0.3613 0.0
H946 H 0.82465 0.30253 0.35119 0.0
H947 H 0.79466 0.24476 0.36301 0.0
H948 H 0.82345 0.16558 0.30365 0.0
H949 H 0.80932 0.19575 0.31878 0.0
H950 H 0.84366 0.25147 0.30665 0.0
C951 C 0.80851 0.3016 0.35307 0.0
C952 C 0.80537 0.2464 0.35074 0.0
C953 C 0.79763 0.3187 0.35891 0.0
C954 C 0.83317 0.17824 0.30583 0.0
C955 C 0.8251 0.1955 0.31463 0.0
C956 C 0.83326 0.24982 0.31918 0.0
C957 C 0.7986 0.28346 0.34973 0.0
C958 C 0.80977 0.26546 0.34267 0.0
C959 C 0.83713 0.21232 0.31767 0.0
C960 C 0.82839 0.2307 0.32684 0.0
H961 H 0.75075 0.29884 0.36031 0.0
H962 H 0.76961 0.26903 0.34996 0.0
H963 H 0.82758 0.2815 0.32038 0.0
H964 H 0.88121 0.19407 0.29841 0.0
H965 H 0.86714 0.22414 0.31396 0.0
C966 C 0.66758 0.00485 0.11255 0.0
C967 C 0.67319 0.02479 0.10855 0.0
C968 C 0.65171 0.00066 0.12581 0.0
C969 C 0.60502 0.02352 0.14369 0.0
H970 H 0.60352 0.97801 0.18061 0.0
C971 C 0.53124 0.98883 0.17192 0.0
C972 C 0.5296 0.98428 0.19246 0.0
C973 C 0.54961 0.99467 0.16358 0.0
C974 C 0.60379 0.99088 0.17049 0.0
H975 H 0.66724 0.05589 0.11616 0.0
H976 H 0.63948 0.04853 0.13926 0.0
H977 H 0.63512 0.98678 0.16367 0.0
H978 H 0.54552 0.98184 0.22046 0.0
H979 H 0.57796 0.99191 0.20581 0.0
H980 H 0.57367 0.0274 0.15017 0.0
C981 C 0.64728 0.03619 0.13199 0.0
C982 C 0.62181 0.99581 0.16072 0.0
C983 C 0.66324 0.04037 0.11883 0.0
C984 C 0.54657 0.98539 0.20457 0.0
C985 C 0.56504 0.99105 0.19619 0.0
C986 C 0.58701 0.01848 0.1533 0.0
C987 C 0.64106 0.01633 0.13525 0.0
C988 C 0.62254 0.01206 0.14706 0.0
C989 C 0.5667 0.99586 0.17563 0.0
C990 C 0.58615 0.00196 0.16658 0.0
H991 H 0.67499 0.9925 0.10493 0.0
H992 H 0.64717 0.98522 0.12792 0.0
H993 H 0.60507 0.03599 0.13309 0.0
H994 H 0.51826 0.98799 0.16238 0.0
H995 H 0.55052 0.99803 0.14764 0.0
C996 C 0.65563 0.81243 0.81964 0.0
C997 C 0.63538 0.8129 0.81406 0.0
C998 C 0.66369 0.79568 0.82959 0.0
C999 C 0.6562 0.74166 0.8378 0.0
H1000 H 0.69527 0.74879 0.87961 0.0
C1001 C 0.69722 0.67453 0.87602 0.0
C1002 C 0.71813 0.67656 0.87605 0.0
C1003 C 0.68487 0.6911 0.87151 0.0
C1004 C 0.68436 0.74657 0.86798 0.0
H1005 H 0.60766 0.79617 0.81462 0.0
H1006 H 0.62177 0.7669 0.8321 0.0
H1007 H 0.67776 0.778 0.86552 0.0
H1008 H 0.74263 0.69739 0.8728 0.0
H1009 H 0.72121 0.72631 0.8649 0.0
H1010 H 0.66317 0.71024 0.83999 0.0
C1011 C 0.63143 0.77945 0.82862 0.0
C1012 C 0.67439 0.76328 0.85986 0.0
C1013 C 0.62334 0.79625 0.81866 0.0
C1014 C 0.72652 0.69548 0.87254 0.0
C1015 C 0.71424 0.71203 0.86823 0.0
C1016 C 0.66615 0.72491 0.84597 0.0
C1017 C 0.65169 0.77901 0.83422 0.0
C1018 C 0.66058 0.76107 0.84433 0.0
C1019 C 0.69332 0.70997 0.86733 0.0
C1020 C 0.6807 0.72727 0.86078 0.0
H1021 H 0.66534 0.82497 0.81624 0.0
H1022 H 0.67945 0.79566 0.83334 0.0
H1023 H 0.64575 0.73946 0.82575 0.0
H1024 H 0.69051 0.66003 0.87886 0.0
H1025 H 0.66877 0.68915 0.87109 0.0
C1026 C 0.81175 0.97744 0.62442 0.0
C1027 C 0.81085 0.98813 0.60611 0.0
C1028 C 0.82706 0.98107 0.63801 0.0
C1029 C 0.86746 0.01726 0.64943 0.0
H1030 H 0.89262 0.97084 0.67479 0.0
C1031 C 0.9376 0.02604 0.69747 0.0
C1032 C 0.95289 0.01164 0.69474 0.0
C1033 C 0.91845 0.02286 0.69 0.0
C1034 C 0.88585 0.98396 0.66775 0.0
H1035 H 0.82501 0.0114 0.58797 0.0
H1036 H 0.85183 0.01733 0.61127 0.0
H1037 H 0.86258 0.96661 0.65504 0.0
H1038 H 0.96027 0.98239 0.68287 0.0
H1039 H 0.92702 0.97697 0.66914 0.0
H1040 H 0.89135 0.03444 0.66101 0.0
C1041 C 0.84056 0.00642 0.61544 0.0
C1042 C 0.8684 0.98158 0.65665 0.0
C1043 C 0.82521 0.00292 0.60196 0.0
C1044 C 0.94861 0.99367 0.68513 0.0
C1045 C 0.92953 0.99056 0.6774 0.0
C1046 C 0.88499 0.0196 0.66032 0.0
C1047 C 0.84186 0.99538 0.63353 0.0
C1048 C 0.85919 0.99816 0.64704 0.0
C1049 C 0.91428 0.0053 0.67941 0.0
C1050 C 0.89462 0.00294 0.66938 0.0
H1051 H 0.80084 0.96603 0.62812 0.0
H1052 H 0.82739 0.97252 0.65195 0.0
H1053 H 0.86059 0.03043 0.64256 0.0
H1054 H 0.94058 0.0399 0.70512 0.0
H1055 H 0.907 0.03432 0.69228 0.0
C1056 C 0.62473 0.29982 0.17716 0.0
C1057 C 0.62439 0.27882 0.17879 0.0
C1058 C 0.62967 0.31133 0.19374 0.0
C1059 C 0.63285 0.30921 0.24906 0.0
H1060 H 0.67328 0.35008 0.24186 0.0
C1061 C 0.67802 0.33898 0.3148 0.0
C1062 C 0.68281 0.35944 0.31495 0.0
C1063 C 0.66873 0.33076 0.29823 0.0
C1064 C 0.66172 0.33896 0.24409 0.0
H1065 H 0.62782 0.25334 0.19903 0.0
H1066 H 0.63667 0.27331 0.22789 0.0
H1067 H 0.66051 0.33294 0.21265 0.0
H1068 H 0.68131 0.38741 0.29793 0.0
H1069 H 0.66493 0.37305 0.26902 0.0
H1070 H 0.63425 0.31497 0.2805 0.0
C1071 C 0.6332 0.28096 0.21389 0.0
C1072 C 0.65442 0.32915 0.22735 0.0
C1073 C 0.6284 0.26951 0.19733 0.0
C1074 C 0.67789 0.37157 0.29825 0.0
C1075 C 0.66857 0.36334 0.28166 0.0
C1076 C 0.6401 0.31904 0.26577 0.0
C1077 C 0.63405 0.30198 0.21225 0.0
C1078 C 0.64021 0.31388 0.22971 0.0
C1079 C 0.66398 0.34281 0.28143 0.0
C1080 C 0.65492 0.33374 0.26352 0.0
H1081 H 0.62148 0.30727 0.16299 0.0
H1082 H 0.63002 0.32752 0.1921 0.0
H1083 H 0.62163 0.29775 0.2513 0.0
H1084 H 0.68168 0.32919 0.32738 0.0
H1085 H 0.6657 0.31483 0.29842 0.0
C1086 C 0.50622 0.81379 0.04343 0.0
C1087 C 0.51113 0.79331 0.04472 0.0
C1088 C 0.49912 0.82395 0.06032 0.0
C1089 C 0.49949 0.82301 0.11512 0.0
H1090 H 0.45435 0.85998 0.10968 0.0
C1091 C 0.48111 0.88661 0.17086 0.0
C1092 C 0.46081 0.89077 0.17536 0.0
C1093 C 0.48642 0.87224 0.1566 0.0
C1094 C 0.46682 0.84955 0.11153 0.0
H1095 H 0.51275 0.76724 0.06435 0.0
H1096 H 0.50042 0.78511 0.09422 0.0
H1097 H 0.46495 0.83962 0.08122 0.0
H1098 H 0.43019 0.88252 0.16898 0.0
H1099 H 0.4395 0.85748 0.14403 0.0
H1100 H 0.50154 0.83325 0.14538 0.0
C1101 C 0.50204 0.79329 0.08014 0.0
C1102 C 0.473 0.83804 0.09517 0.0
C1103 C 0.50898 0.78307 0.06313 0.0
C1104 C 0.44596 0.87974 0.16581 0.0
C1105 C 0.45127 0.86546 0.15145 0.0
C1106 C 0.4934 0.83468 0.13146 0.0
C1107 C 0.49694 0.81382 0.07885 0.0
C1108 C 0.48955 0.82485 0.09671 0.0
C1109 C 0.47154 0.8618 0.14645 0.0
C1110 C 0.47713 0.84822 0.12976 0.0
H1111 H 0.50781 0.82191 0.02931 0.0
H1112 H 0.49557 0.83982 0.05893 0.0
H1113 H 0.51236 0.81303 0.11669 0.0
H1114 H 0.49292 0.89481 0.17798 0.0
H1115 H 0.50216 0.86988 0.15294 0.0
C1116 C 0.86586 0.7033 0.67325 0.0
C1117 C 0.86742 0.72424 0.67365 0.0
C1118 C 0.85991 0.69268 0.69057 0.0
C1119 C 0.83186 0.70089 0.73786 0.0
H1120 H 0.85437 0.64934 0.75417 0.0
C1121 C 0.81258 0.66475 0.81431 0.0
C1122 C 0.80858 0.6441 0.81469 0.0
C1123 C 0.82048 0.6739 0.79702 0.0
C1124 C 0.84782 0.66364 0.74968 0.0
H1125 H 0.86563 0.75047 0.69241 0.0
H1126 H 0.85552 0.73204 0.72266 0.0
H1127 H 0.8675 0.66634 0.72406 0.0
H1128 H 0.80989 0.61682 0.79727 0.0
H1129 H 0.82356 0.6329 0.76701 0.0
H1130 H 0.81221 0.69829 0.76336 0.0
C1131 C 0.85821 0.72379 0.70897 0.0
C1132 C 0.85534 0.67336 0.73245 0.0
C1133 C 0.86405 0.73433 0.69172 0.0
C1134 C 0.8128 0.63277 0.79746 0.0
C1135 C 0.82075 0.64193 0.78016 0.0
C1136 C 0.8244 0.69122 0.75503 0.0
C1137 C 0.85558 0.70291 0.70849 0.0
C1138 C 0.84753 0.69218 0.72647 0.0
C1139 C 0.82456 0.66262 0.77973 0.0
C1140 C 0.83238 0.67257 0.76122 0.0
H1141 H 0.86856 0.69528 0.65942 0.0
H1142 H 0.858 0.6766 0.68973 0.0
H1143 H 0.82519 0.71515 0.7334 0.0
H1144 H 0.80956 0.67389 0.82734 0.0
H1145 H 0.82351 0.68982 0.79724 0.0
C1146 C 0.9706 0.18548 0.53859 0.0
C1147 C 0.98499 0.18834 0.52327 0.0
C1148 C 0.97566 0.17519 0.55628 0.0
C1149 C 0.01376 0.13938 0.57627 0.0
H1150 H 0.99155 0.15483 0.628 0.0
C1151 C 0.0416 0.10366 0.6499 0.0
C1152 C 0.02664 0.09652 0.66315 0.0
C1153 C 0.03657 0.11614 0.63368 0.0
C1154 C 0.99778 0.15031 0.61362 0.0
H1155 H 0.01598 0.18293 0.51445 0.0
H1156 H 0.0251 0.16573 0.54553 0.0
H1157 H 0.98274 0.17427 0.59793 0.0
H1158 H 0.99474 0.09754 0.67021 0.0
H1159 H 0.98602 0.11955 0.64192 0.0
H1160 H 0.02895 0.11558 0.59199 0.0
C1161 C 0.00975 0.17098 0.54381 0.0
C1162 C 0.99269 0.16138 0.59639 0.0
C1163 C 0.00463 0.18109 0.52609 0.0
C1164 C 0.00662 0.10277 0.66026 0.0
C1165 C 0.00162 0.11543 0.64412 0.0
C1166 C 0.01897 0.12847 0.59348 0.0
C1167 C 0.99529 0.16767 0.55904 0.0
C1168 C 0.00064 0.15605 0.57749 0.0
C1169 C 0.0165 0.1219 0.63045 0.0
C1170 C 0.01106 0.13382 0.61233 0.0
H1171 H 0.9554 0.19115 0.53685 0.0
H1172 H 0.96409 0.17278 0.56759 0.0
H1173 H 0.01981 0.13452 0.56194 0.0
H1174 H 0.05716 0.09917 0.6517 0.0
H1175 H 0.04837 0.12112 0.62351 0.0
C1176 C 0.17946 0.16228 0.67429 0.0
C1177 C 0.18626 0.14224 0.67528 0.0
C1178 C 0.1699 0.17105 0.69082 0.0
C1179 C 0.14323 0.15968 0.73846 0.0
H1180 H 0.16008 0.21305 0.75257 0.0
C1181 C 0.1221 0.19752 0.81401 0.0
C1182 C 0.11906 0.21837 0.81359 0.0
C1183 C 0.12849 0.18758 0.79664 0.0
C1184 C 0.15493 0.19827 0.74869 0.0
H1185 H 0.18804 0.11559 0.6943 0.0
H1186 H 0.17143 0.131 0.72322 0.0
H1187 H 0.17472 0.197 0.7232 0.0
H1188 H 0.1187 0.24509 0.79479 0.0
H1189 H 0.12934 0.2278 0.76434 0.0
H1190 H 0.12343 0.161 0.76406 0.0
C1191 C 0.17337 0.13984 0.70959 0.0
C1192 C 0.16337 0.18906 0.73185 0.0
C1193 C 0.183 0.13107 0.69306 0.0
C1194 C 0.12136 0.22902 0.79545 0.0
C1195 C 0.12754 0.21912 0.77809 0.0
C1196 C 0.13469 0.16895 0.75531 0.0
C1197 C 0.16689 0.15999 0.7087 0.0
C1198 C 0.15762 0.16968 0.72653 0.0
C1199 C 0.13173 0.19837 0.77859 0.0
C1200 C 0.14043 0.18839 0.76059 0.0
H1201 H 0.18166 0.17129 0.6608 0.0
H1202 H 0.16483 0.18653 0.6896 0.0
H1203 H 0.13839 0.14478 0.73462 0.0
H1204 H 0.1203 0.18909 0.82793 0.0
H1205 H 0.13165 0.17161 0.79757 0.0
C1206 C 0.5066 0.30841 0.45777 0.0
C1207 C 0.48701 0.30175 0.46158 0.0
C1208 C 0.51156 0.31761 0.43944 0.0
C1209 C 0.48904 0.34665 0.3985 0.0
H1210 H 0.53933 0.33539 0.37061 0.0
C1211 C 0.5106 0.38927 0.32578 0.0
C1212 C 0.53055 0.39577 0.32425 0.0
C1213 C 0.50493 0.37537 0.34062 0.0
C1214 C 0.5253 0.33882 0.37829 0.0
H1215 H 0.45741 0.29876 0.44905 0.0
H1216 H 0.46594 0.31525 0.41706 0.0
H1217 H 0.53013 0.31566 0.40041 0.0
H1218 H 0.5603 0.39231 0.33674 0.0
H1219 H 0.55035 0.36848 0.36286 0.0
H1220 H 0.48445 0.37024 0.37694 0.0
C1221 C 0.47743 0.31348 0.42831 0.0
C1222 C 0.52002 0.32748 0.39532 0.0
C1223 C 0.47253 0.30411 0.4466 0.0
C1224 C 0.54482 0.38758 0.33746 0.0
C1225 C 0.53912 0.3738 0.3524 0.0
C1226 C 0.49438 0.35809 0.38158 0.0
C1227 C 0.49696 0.32045 0.42461 0.0
C1228 C 0.50194 0.33144 0.40572 0.0
C1229 C 0.51904 0.36775 0.35437 0.0
C1230 C 0.51269 0.35449 0.3714 0.0
H1231 H 0.51799 0.30696 0.46916 0.0
H1232 H 0.52666 0.32306 0.43711 0.0
H1233 H 0.47513 0.35021 0.40636 0.0
H1234 H 0.49926 0.39521 0.31574 0.0
H1235 H 0.48941 0.37077 0.34147 0.0
C1236 C 0.3571 0.79704 0.31916 0.0
C1237 C 0.35859 0.77602 0.31938 0.0
C1238 C 0.35081 0.80731 0.30182 0.0
C1239 C 0.32184 0.79864 0.25614 0.0
H1240 H 0.34533 0.8482 0.23649 0.0
C1241 C 0.30341 0.83131 0.17837 0.0
C1242 C 0.30001 0.85212 0.17672 0.0
C1243 C 0.31095 0.82284 0.19603 0.0
C1244 C 0.33849 0.83448 0.24194 0.0
H1245 H 0.35634 0.7493 0.30149 0.0
H1246 H 0.34548 0.76709 0.27128 0.0
H1247 H 0.35834 0.83204 0.26694 0.0
H1248 H 0.30202 0.88039 0.19229 0.0
H1249 H 0.31508 0.86551 0.22325 0.0
H1250 H 0.30204 0.80097 0.23125 0.0
C1251 C 0.3485 0.77568 0.28456 0.0
C1252 C 0.34593 0.82524 0.25935 0.0
C1253 C 0.35473 0.76549 0.30181 0.0
C1254 C 0.30446 0.8643 0.19309 0.0
C1255 C 0.31206 0.85581 0.21078 0.0
C1256 C 0.31443 0.80784 0.23879 0.0
C1257 C 0.34602 0.79665 0.28447 0.0
C1258 C 0.33783 0.80709 0.26649 0.0
C1259 C 0.31527 0.83497 0.21247 0.0
C1260 C 0.3228 0.82574 0.23136 0.0
H1261 H 0.36019 0.80542 0.33256 0.0
H1262 H 0.34904 0.82348 0.30221 0.0
H1263 H 0.31494 0.78492 0.26151 0.0
H1264 H 0.3002 0.8215 0.16602 0.0
H1265 H 0.31354 0.80677 0.19676 0.0
C1266 C 0.99961 0.57976 0.84434 0.0
C1267 C 0.99535 0.5866 0.82481 0.0
C1268 C 0.00497 0.59319 0.85909 0.0
C1269 C 0.99875 0.64461 0.87489 0.0
H1270 H 0.04323 0.63123 0.90977 0.0
C1271 C 0.01976 0.69347 0.94268 0.0
C1272 C 0.025 0.6829 0.96023 0.0
C1273 C 0.0174 0.68328 0.92467 0.0
C1274 C 0.03066 0.63511 0.90028 0.0
H1275 H 0.99337 0.61288 0.80535 0.0
H1276 H 0.00242 0.63663 0.83152 0.0
H1277 H 0.03715 0.61074 0.88054 0.0
H1278 H 0.0317 0.65364 0.97307 0.0
H1279 H 0.02721 0.63568 0.94182 0.0
H1280 H 0.99176 0.66852 0.89507 0.0
C1281 C 0.0017 0.62077 0.83522 0.0
C1282 C 0.02727 0.62345 0.88348 0.0
C1283 C 0.9966 0.60722 0.82029 0.0
C1284 C 0.02774 0.66205 0.95963 0.0
C1285 C 0.02531 0.65185 0.94171 0.0
C1286 C 0.00204 0.65622 0.89183 0.0
C1287 C 0.006 0.61382 0.85473 0.0
C1288 C 0.01104 0.62781 0.87088 0.0
C1289 C 0.02024 0.66234 0.92397 0.0
C1290 C 0.01777 0.65131 0.90497 0.0
H1291 H 0.99887 0.56396 0.84829 0.0
H1292 H 0.00797 0.58746 0.87406 0.0
H1293 H 0.98604 0.64819 0.86547 0.0
H1294 H 0.0178 0.70964 0.94284 0.0
H1295 H 0.01368 0.69183 0.91126 0.0
C1296 C 0.30976 0.68073 0.33884 0.0
C1297 C 0.30971 0.68274 0.3598 0.0
C1298 C 0.29342 0.67246 0.32928 0.0
C1299 C 0.2487 0.64118 0.33729 0.0
H1300 H 0.23157 0.66745 0.28801 0.0
C1301 C 0.17582 0.62158 0.29475 0.0
C1302 C 0.17748 0.62147 0.27373 0.0
C1303 C 0.19189 0.62793 0.30627 0.0
C1304 C 0.23629 0.65981 0.30164 0.0
H1305 H 0.29257 0.67727 0.38722 0.0
H1306 H 0.26382 0.66295 0.3704 0.0
H1307 H 0.25955 0.68089 0.3063 0.0
H1308 H 0.1975 0.62627 0.24829 0.0
H1309 H 0.2255 0.63735 0.26828 0.0
H1310 H 0.22524 0.62011 0.33251 0.0
C1311 C 0.27664 0.66765 0.36143 0.0
C1312 C 0.25233 0.66751 0.31212 0.0
C1313 C 0.29306 0.67595 0.37104 0.0
C1314 C 0.1957 0.6268 0.26446 0.0
C1315 C 0.21169 0.63312 0.2759 0.0
C1316 C 0.23255 0.63347 0.32677 0.0
C1317 C 0.27657 0.66604 0.34041 0.0
C1318 C 0.2589 0.65816 0.32992 0.0
C1319 C 0.20983 0.63419 0.2969 0.0
C1320 C 0.22638 0.64257 0.30869 0.0
H1321 H 0.32239 0.68569 0.32973 0.0
H1322 H 0.294 0.67108 0.3131 0.0
H1323 H 0.2535 0.63358 0.35091 0.0
H1324 H 0.1619 0.61739 0.30218 0.0
H1325 H 0.19003 0.6286 0.32242 0.0
C1326 C 0.66959 0.86599 0.69849 0.0
C1327 C 0.67173 0.86668 0.71938 0.0
C1328 C 0.68618 0.86147 0.68616 0.0
C1329 C 0.74151 0.86106 0.68537 0.0
H1330 H 0.73699 0.81911 0.646 0.0
C1331 C 0.81034 0.81863 0.65459 0.0
C1332 C 0.81097 0.81351 0.63421 0.0
C1333 C 0.79299 0.82704 0.6631 0.0
C1334 C 0.73843 0.83109 0.65668 0.0
H1335 H 0.69271 0.86418 0.74382 0.0
H1336 H 0.72162 0.85617 0.72242 0.0
H1337 H 0.70705 0.83082 0.66416 0.0
H1338 H 0.79389 0.81328 0.60674 0.0
H1339 H 0.76353 0.82812 0.62165 0.0
H1340 H 0.77288 0.86116 0.67819 0.0
C1341 C 0.70724 0.85902 0.71549 0.0
C1342 C 0.72129 0.83779 0.66707 0.0
C1343 C 0.69068 0.86336 0.72776 0.0
C1344 C 0.79386 0.81704 0.6225 0.0
C1345 C 0.77645 0.82546 0.63105 0.0
C1346 C 0.7586 0.85443 0.67496 0.0
C1347 C 0.70516 0.85792 0.69458 0.0
C1348 C 0.72276 0.8525 0.68185 0.0
C1349 C 0.77585 0.83056 0.65145 0.0
C1350 C 0.75734 0.83904 0.66085 0.0
H1351 H 0.65508 0.86871 0.69178 0.0
H1352 H 0.6842 0.86086 0.67008 0.0
H1353 H 0.74301 0.87269 0.69642 0.0
H1354 H 0.82321 0.81602 0.66407 0.0
H1355 H 0.7929 0.83044 0.67895 0.0
C1356 C 0.79169 0.06868 0.51769 0.0
C1357 C 0.79096 0.05196 0.50517 0.0
C1358 C 0.80095 0.08628 0.51103 0.0
C1359 C 0.81993 0.11355 0.46607 0.0
H1360 H 0.86017 0.13277 0.50231 0.0
C1361 C 0.88616 0.16242 0.4395 0.0
C1362 C 0.89411 0.17632 0.45279 0.0
C1363 C 0.87063 0.14979 0.4457 0.0
C1364 C 0.84874 0.12796 0.49212 0.0
H1365 H 0.79847 0.0407 0.47563 0.0
H1366 H 0.81446 0.07154 0.46385 0.0
H1367 H 0.83769 0.10634 0.51341 0.0
H1368 H 0.89128 0.18865 0.48267 0.0
H1369 H 0.86383 0.16703 0.49332 0.0
H1370 H 0.83114 0.13504 0.44468 0.0
C1371 C 0.80784 0.0711 0.47879 0.0
C1372 C 0.83585 0.11275 0.4985 0.0
C1373 C 0.7987 0.05346 0.48552 0.0
C1374 C 0.88561 0.17795 0.47213 0.0
C1375 C 0.86995 0.16546 0.47827 0.0
C1376 C 0.83272 0.12892 0.45973 0.0
C1377 C 0.8095 0.08752 0.49165 0.0
C1378 C 0.82156 0.10513 0.48544 0.0
C1379 C 0.86256 0.15091 0.46529 0.0
C1380 C 0.84754 0.13605 0.47256 0.0
H1381 H 0.78552 0.06795 0.53281 0.0
H1382 H 0.80178 0.09879 0.52117 0.0
H1383 H 0.8089 0.10809 0.45576 0.0
H1384 H 0.89239 0.16077 0.4245 0.0
H1385 H 0.86553 0.13862 0.43537 0.0
C1386 C 0.814 0.11655 0.19361 0.0
C1387 C 0.81313 0.11662 0.21464 0.0
C1388 C 0.79697 0.12172 0.18252 0.0
C1389 C 0.74174 0.12795 0.18638 0.0
H1390 H 0.74901 0.16935 0.14555 0.0
C1391 C 0.67677 0.1787 0.15974 0.0
C1392 C 0.67593 0.18411 0.13931 0.0
C1393 C 0.69332 0.16811 0.16723 0.0
C1394 C 0.74673 0.15754 0.15665 0.0
H1395 H 0.79381 0.1207 0.2407 0.0
H1396 H 0.76411 0.12979 0.22146 0.0
H1397 H 0.77829 0.15393 0.16135 0.0
H1398 H 0.69177 0.18251 0.11068 0.0
H1399 H 0.72063 0.1639 0.12377 0.0
H1400 H 0.71018 0.13183 0.182 0.0
C1401 C 0.77783 0.12586 0.21343 0.0
C1402 C 0.76352 0.14869 0.16568 0.0
C1403 C 0.79484 0.12087 0.22446 0.0
C1404 C 0.69199 0.17864 0.12652 0.0
C1405 C 0.70856 0.16803 0.13402 0.0
C1406 C 0.72497 0.13675 0.17733 0.0
C1407 C 0.77879 0.12673 0.19236 0.0
C1408 C 0.76117 0.13412 0.18095 0.0
C1409 C 0.70942 0.16267 0.15447 0.0
C1410 C 0.72726 0.15197 0.16268 0.0
H1411 H 0.82798 0.11316 0.18581 0.0
H1412 H 0.79806 0.12207 0.16628 0.0
H1413 H 0.73949 0.11653 0.1979 0.0
H1414 H 0.66469 0.18275 0.17002 0.0
H1415 H 0.69367 0.16453 0.18312 0.0
C1416 C 0.6079 0.81783 0.9933 0.0
C1417 C 0.6012 0.81691 0.97343 0.0
C1418 C 0.6214 0.83255 0.99886 0.0
C1419 C 0.65638 0.87116 0.97821 0.0
H1420 H 0.64456 0.89751 0.02862 0.0
C1421 C 0.68379 0.95042 0.99683 0.0
C1422 C 0.69058 0.95369 0.01634 0.0
C1423 C 0.67529 0.93212 0.99192 0.0
C1424 C 0.64824 0.89013 0.01464 0.0
H1425 H 0.60391 0.83033 0.94368 0.0
H1426 H 0.62701 0.85625 0.95344 0.0
H1427 H 0.62553 0.8682 0.01944 0.0
H1428 H 0.69457 0.94023 0.04582 0.0
H1429 H 0.67927 0.90831 0.03737 0.0
H1430 H 0.67862 0.89367 0.97318 0.0
C1431 C 0.62218 0.84541 0.9647 0.0
C1432 C 0.63738 0.87327 0.00938 0.0
C1433 C 0.60881 0.83059 0.95911 0.0
C1434 C 0.68908 0.93821 0.03077 0.0
C1435 C 0.68041 0.91995 0.02592 0.0
C1436 C 0.66713 0.88813 0.98341 0.0
C1437 C 0.62839 0.84679 0.98471 0.0
C1438 C 0.64113 0.86371 0.99098 0.0
C1439 C 0.6733 0.91678 0.00648 0.0
C1440 C 0.663 0.89792 0.00157 0.0
H1441 H 0.60244 0.8074 0.00467 0.0
H1442 H 0.62616 0.83292 0.01432 0.0
H1443 H 0.65992 0.86396 0.9641 0.0
H1444 H 0.6846 0.96219 0.98548 0.0
H1445 H 0.66972 0.9302 0.97689 0.0
C1446 C 0.17363 0.31136 0.8336 0.0
C1447 C 0.17274 0.30715 0.85431 0.0
C1448 C 0.19077 0.31978 0.82489 0.0
C1449 C 0.23645 0.34801 0.83604 0.0
H1450 H 0.25509 0.32621 0.78535 0.0
C1451 C 0.31298 0.36759 0.7976 0.0
C1452 C 0.31295 0.36927 0.77661 0.0
C1453 C 0.29567 0.36145 0.80803 0.0
C1454 C 0.24995 0.33265 0.79938 0.0
H1455 H 0.18907 0.30875 0.88218 0.0
H1456 H 0.21913 0.32333 0.86686 0.0
H1457 H 0.22543 0.31241 0.80174 0.0
H1458 H 0.29471 0.36764 0.75008 0.0
H1459 H 0.26449 0.35718 0.76815 0.0
H1460 H 0.26115 0.36826 0.83358 0.0
C1461 C 0.20647 0.32026 0.85743 0.0
C1462 C 0.23296 0.32472 0.80878 0.0
C1463 C 0.18929 0.31179 0.86617 0.0
C1464 C 0.29516 0.36596 0.76626 0.0
C1465 C 0.27792 0.35992 0.77661 0.0
C1466 C 0.25353 0.35598 0.82659 0.0
C1467 C 0.20744 0.32418 0.83666 0.0
C1468 C 0.22588 0.33242 0.82711 0.0
C1469 C 0.27812 0.35704 0.79754 0.0
C1470 C 0.26032 0.34851 0.80804 0.0
H1471 H 0.16113 0.30804 0.82404 0.0
H1472 H 0.19094 0.32291 0.80889 0.0
H1473 H 0.23127 0.35434 0.8501 0.0
H1474 H 0.32659 0.3702 0.80582 0.0
H1475 H 0.29628 0.35936 0.82416 0.0
C1476 C 0.30853 0.45296 0.50927 0.0
C1477 C 0.30149 0.45613 0.48971 0.0
C1478 C 0.31778 0.43475 0.51463 0.0
C1479 C 0.34634 0.39325 0.49264 0.0
H1480 H 0.33617 0.36643 0.54373 0.0
C1481 C 0.38944 0.32105 0.51433 0.0
C1482 C 0.39644 0.31984 0.53411 0.0
C1483 C 0.3753 0.33572 0.50883 0.0
C1484 C 0.3393 0.37381 0.52947 0.0
H1485 H 0.2977 0.44257 0.46069 0.0
H1486 H 0.31428 0.41086 0.4699 0.0
H1487 H 0.3163 0.3961 0.53437 0.0
H1488 H 0.39358 0.33263 0.56379 0.0
H1489 H 0.36937 0.35849 0.55411 0.0
H1490 H 0.36978 0.37159 0.48794 0.0
C1491 C 0.31281 0.4225 0.48103 0.0
C1492 C 0.32788 0.39076 0.52411 0.0
C1493 C 0.30341 0.44064 0.47574 0.0
C1494 C 0.38847 0.33313 0.54843 0.0
C1495 C 0.37447 0.34791 0.54288 0.0
C1496 C 0.35787 0.37643 0.49806 0.0
C1497 C 0.32026 0.41944 0.50047 0.0
C1498 C 0.33142 0.40075 0.50572 0.0
C1499 C 0.36798 0.34963 0.52293 0.0
C1500 C 0.35464 0.3666 0.51663 0.0
H1501 H 0.30735 0.46474 0.52027 0.0
H1502 H 0.32357 0.4329 0.52966 0.0
H1503 H 0.34959 0.4008 0.47849 0.0
H1504 H 0.39518 0.31092 0.50297 0.0
H1505 H 0.37033 0.33633 0.49342 0.0
C1506 C 0.19388 0.54278 0.97354 0.0
C1507 C 0.19314 0.52653 0.98715 0.0
C1508 C 0.18561 0.56142 0.97875 0.0
C1509 C 0.16799 0.5913 0.02242 0.0
H1510 H 0.1351 0.61901 0.98298 0.0
C1511 C 0.10753 0.65018 0.04321 0.0
C1512 C 0.10431 0.66667 0.03023 0.0
C1513 C 0.12137 0.63509 0.03817 0.0
C1514 C 0.14453 0.61168 0.99407 0.0
H1515 H 0.18364 0.51697 0.01692 0.0
H1516 H 0.16899 0.54942 0.02603 0.0
H1517 H 0.15352 0.58865 0.97365 0.0
H1518 H 0.11368 0.68067 0.0021 0.0
H1519 H 0.13793 0.65425 0.99329 0.0
H1520 H 0.15852 0.61407 0.04298 0.0
C1521 C 0.17614 0.54793 0.01142 0.0
C1522 C 0.15509 0.59424 0.98872 0.0
C1523 C 0.18442 0.52932 0.0062 0.0
C1524 C 0.11581 0.66815 0.01243 0.0
C1525 C 0.12959 0.65296 0.00731 0.0
C1526 C 0.1574 0.60871 0.02778 0.0
C1527 C 0.17648 0.56418 0.9977 0.0
C1528 C 0.16667 0.58364 0.00293 0.0
C1529 C 0.13226 0.63609 0.01997 0.0
C1530 C 0.14527 0.6189 0.01376 0.0
H1531 H 0.20091 0.54107 0.9589 0.0
H1532 H 0.18642 0.5737 0.96795 0.0
H1533 H 0.17709 0.58372 0.03362 0.0
H1534 H 0.09896 0.6486 0.05706 0.0
H1535 H 0.1229 0.62221 0.04816 0.0
C1536 C 0.09377 0.00675 0.70009 0.0
C1537 C 0.0777 0.01621 0.69012 0.0
C1538 C 0.11275 0.00549 0.69081 0.0
C1539 C 0.14023 0.00991 0.64248 0.0
H1540 H 0.17839 0.04106 0.67181 0.0
C1541 C 0.19688 0.06095 0.60357 0.0
C1542 C 0.21284 0.06854 0.61445 0.0
C1543 C 0.18452 0.04627 0.61213 0.0
C1544 C 0.16839 0.03173 0.66347 0.0
H1545 H 0.06841 0.0304 0.66223 0.0
H1546 H 0.10129 0.02773 0.64591 0.0
H1547 H 0.14799 0.0298 0.68849 0.0
H1548 H 0.2298 0.06563 0.64176 0.0
H1549 H 0.20924 0.03889 0.65618 0.0
H1550 H 0.16037 0.01214 0.61729 0.0
C1551 C 0.09934 0.02147 0.6609 0.0
C1552 C 0.15083 0.02535 0.67312 0.0
C1553 C 0.08057 0.02315 0.67031 0.0
C1554 C 0.21764 0.05978 0.63303 0.0
C1555 C 0.2056 0.04473 0.64141 0.0
C1556 C 0.15802 0.01594 0.63289 0.0
C1557 C 0.11575 0.01316 0.67125 0.0
C1558 C 0.13618 0.01519 0.66247 0.0
C1559 C 0.18806 0.03876 0.63168 0.0
C1560 C 0.17189 0.02783 0.64295 0.0
H1561 H 0.09195 0.00132 0.7154 0.0
H1562 H 0.12521 0.9991 0.69911 0.0
H1563 H 0.12921 0.0019 0.63401 0.0
H1564 H 0.19268 0.06784 0.58939 0.0
H1565 H 0.17117 0.04232 0.60409 0.0
C1566 C 0.59753 0.48805 0.28882 0.0
C1567 C 0.58211 0.47764 0.2989 0.0
C1568 C 0.61611 0.49054 0.29801 0.0
C1569 C 0.64205 0.48874 0.34649 0.0
H1570 H 0.68383 0.45867 0.31873 0.0
C1571 C 0.69655 0.43746 0.38695 0.0
C1572 C 0.71344 0.42984 0.37676 0.0
C1573 C 0.68497 0.4528 0.37827 0.0
C1574 C 0.67278 0.46776 0.32662 0.0
H1575 H 0.57349 0.46284 0.32684 0.0
H1576 H 0.60561 0.46758 0.34296 0.0
H1577 H 0.65369 0.46851 0.30105 0.0
H1578 H 0.7329 0.43341 0.35078 0.0
H1579 H 0.71348 0.46115 0.33611 0.0
H1580 H 0.66078 0.48748 0.37229 0.0
C1581 C 0.60348 0.47367 0.32796 0.0
C1582 C 0.65539 0.47333 0.31639 0.0
C1583 C 0.58518 0.47075 0.31864 0.0
C1584 C 0.71999 0.43928 0.35897 0.0
C1585 C 0.70864 0.45492 0.35044 0.0
C1586 C 0.65963 0.48352 0.35665 0.0
C1587 C 0.61926 0.48319 0.31761 0.0
C1588 C 0.63945 0.48287 0.32655 0.0
C1589 C 0.69018 0.46086 0.35924 0.0
C1590 C 0.67471 0.47187 0.3472 0.0
H1591 H 0.59551 0.49353 0.27359 0.0
H1592 H 0.62814 0.4978 0.2897 0.0
H1593 H 0.63 0.49632 0.35457 0.0
H1594 H 0.69104 0.43007 0.4005 0.0
H1595 H 0.67088 0.45673 0.38557 0.0
C1596 C 0.39133 0.9848 0.19897 0.0
C1597 C 0.40781 0.97451 0.19041 0.0
C1598 C 0.37322 0.9865 0.18861 0.0
C1599 C 0.34993 0.98224 0.13902 0.0
H1600 H 0.30829 0.95248 0.16693 0.0
C1601 C 0.29719 0.93074 0.09885 0.0
C1602 C 0.28019 0.92341 0.10894 0.0
C1603 C 0.30856 0.94577 0.10741 0.0
C1604 C 0.31928 0.96145 0.15892 0.0
H1605 H 0.41881 0.95919 0.16386 0.0
H1606 H 0.38746 0.96257 0.14567 0.0
H1607 H 0.33725 0.96333 0.18517 0.0
H1608 H 0.26034 0.92719 0.13457 0.0
H1609 H 0.27924 0.95452 0.14887 0.0
H1610 H 0.33228 0.97999 0.11261 0.0
C1611 C 0.38841 0.96916 0.1604 0.0
C1612 C 0.336 0.9676 0.16948 0.0
C1613 C 0.40627 0.96703 0.1709 0.0
C1614 C 0.27338 0.9328 0.12649 0.0
C1615 C 0.28444 0.9482 0.13481 0.0
C1616 C 0.33299 0.97645 0.12849 0.0
C1617 C 0.37157 0.97845 0.16932 0.0
C1618 C 0.35191 0.97714 0.15942 0.0
C1619 C 0.30295 0.95389 0.12614 0.0
C1620 C 0.31794 0.96499 0.13806 0.0
H1621 H 0.39215 0.99072 0.21399 0.0
H1622 H 0.36036 0.99363 0.19582 0.0
H1623 H 0.36196 0.98978 0.13098 0.0
H1624 H 0.30288 0.9234 0.08548 0.0
H1625 H 0.32271 0.9495 0.10022 0.0
C1626 C 0.793 0.56378 0.85804 0.0
C1627 C 0.79263 0.56935 0.87828 0.0
C1628 C 0.80733 0.55001 0.85102 0.0
C1629 C 0.8589 0.5428 0.86089 0.0
H1630 H 0.85839 0.50513 0.81714 0.0
C1631 C 0.93119 0.52784 0.81627 0.0
C1632 C 0.92951 0.52568 0.79549 0.0
C1633 C 0.91428 0.5265 0.82878 0.0
C1634 C 0.85884 0.51576 0.82924 0.0
H1635 H 0.80537 0.56348 0.9075 0.0
H1636 H 0.83077 0.53956 0.89517 0.0
H1637 H 0.82726 0.51291 0.83548 0.0
H1638 H 0.90917 0.51979 0.77135 0.0
H1639 H 0.87922 0.51899 0.79289 0.0
H1640 H 0.88967 0.54739 0.85381 0.0
C1641 C 0.81985 0.54569 0.88477 0.0
C1642 C 0.84102 0.51998 0.83991 0.0
C1643 C 0.80524 0.55924 0.89186 0.0
C1644 C 0.91075 0.52155 0.78738 0.0
C1645 C 0.89363 0.52089 0.79983 0.0
C1646 C 0.87652 0.53897 0.85003 0.0
C1647 C 0.82176 0.54192 0.8641 0.0
C1648 C 0.84084 0.53386 0.85558 0.0
C1649 C 0.8951 0.52377 0.82071 0.0
C1650 C 0.87673 0.52573 0.83373 0.0
H1651 H 0.78348 0.57152 0.84729 0.0
H1652 H 0.80849 0.54749 0.83502 0.0
H1653 H 0.85915 0.55394 0.87258 0.0
H1654 H 0.94564 0.53063 0.82287 0.0
H1655 H 0.9163 0.52804 0.84476 0.0
C1656 C 0.67252 0.07936 0.03381 0.0
C1657 C 0.69185 0.07649 0.02558 0.0
C1658 C 0.66243 0.09769 0.03145 0.0
C1659 C 0.67205 0.14986 0.03006 0.0
H1660 H 0.61559 0.15543 0.01748 0.0
C1661 C 0.62959 0.21711 0.06007 0.0
C1662 C 0.61168 0.21187 0.06997 0.0
C1663 C 0.63804 0.20451 0.04552 0.0
C1664 C 0.63136 0.1542 0.02107 0.0
H1665 H 0.71562 0.09037 0.00798 0.0
H1666 H 0.69819 0.12299 0.00463 0.0
H1667 H 0.6336 0.12425 0.00976 0.0
H1668 H 0.58769 0.19042 0.07157 0.0
H1669 H 0.60252 0.16807 0.04692 0.0
H1670 H 0.66969 0.17871 0.0432 0.0
C1671 C 0.69079 0.11079 0.01254 0.0
C1672 C 0.64168 0.13639 0.01648 0.0
C1673 C 0.70073 0.0922 0.01448 0.0
C1674 C 0.60132 0.19495 0.06378 0.0
C1675 C 0.60997 0.18208 0.04961 0.0
C1676 C 0.66168 0.16748 0.03505 0.0
C1677 C 0.67161 0.1137 0.02115 0.0
C1678 C 0.66192 0.13382 0.0216 0.0
C1679 C 0.62908 0.18606 0.04121 0.0
C1680 C 0.64095 0.16961 0.03138 0.0
H1681 H 0.66524 0.06746 0.0423 0.0
H1682 H 0.64778 0.09963 0.03847 0.0
H1683 H 0.68763 0.14817 0.03432 0.0
H1684 H 0.63793 0.23001 0.06483 0.0
H1685 H 0.6524 0.20848 0.03891 0.0
C1686 C 0.51345 0.79098 0.90776 0.0
C1687 C 0.51671 0.79939 0.92656 0.0
C1688 C 0.51178 0.80338 0.89069 0.0
C1689 C 0.52755 0.85425 0.87407 0.0
H1690 H 0.50529 0.83738 0.82371 0.0
C1691 C 0.55369 0.8926 0.80271 0.0
C1692 C 0.56401 0.87826 0.79114 0.0
C1693 C 0.53906 0.88648 0.81672 0.0
C1694 C 0.51129 0.84247 0.83774 0.0
H1695 H 0.51895 0.82708 0.94286 0.0
H1696 H 0.51459 0.84879 0.91351 0.0
H1697 H 0.49605 0.81974 0.85483 0.0
H1698 H 0.5656 0.84692 0.78313 0.0
H1699 H 0.53983 0.83632 0.80709 0.0
H1700 H 0.54316 0.87657 0.857 0.0
C1701 C 0.51439 0.8327 0.9115 0.0
C1702 C 0.50621 0.83223 0.85557 0.0
C1703 C 0.51669 0.82031 0.92839 0.0
C1704 C 0.55773 0.85824 0.79185 0.0
C1705 C 0.54294 0.85219 0.80559 0.0
C1706 C 0.53232 0.86464 0.85638 0.0
C1707 C 0.51287 0.82444 0.89224 0.0
C1708 C 0.51493 0.83746 0.87389 0.0
C1709 C 0.53446 0.86601 0.81909 0.0
C1710 C 0.5249 0.85839 0.83791 0.0
H1711 H 0.51352 0.77484 0.90606 0.0
H1712 H 0.51085 0.79631 0.87622 0.0
H1713 H 0.53497 0.85865 0.88763 0.0
H1714 H 0.55845 0.90808 0.80255 0.0
H1715 H 0.53263 0.89747 0.82686 0.0
C1716 C 0.86067 0.79483 0.55619 0.0
C1717 C 0.88029 0.79398 0.5636 0.0
C1718 C 0.85523 0.80946 0.54204 0.0
C1719 C 0.86713 0.86086 0.53711 0.0
H1720 H 0.82514 0.86263 0.49746 0.0
C1721 C 0.82343 0.93403 0.5242 0.0
C1722 C 0.8027 0.93242 0.52152 0.0
C1723 C 0.83603 0.91726 0.52214 0.0
C1724 C 0.83678 0.86244 0.50863 0.0
H1725 H 0.91017 0.80599 0.56041 0.0
H1726 H 0.90061 0.83185 0.53575 0.0
H1727 H 0.84258 0.8309 0.50485 0.0
H1728 H 0.77881 0.91239 0.51391 0.0
H1729 H 0.80047 0.88266 0.51176 0.0
H1730 H 0.86036 0.89155 0.54256 0.0
C1731 C 0.88948 0.82114 0.5408 0.0
C1732 C 0.84694 0.84429 0.51262 0.0
C1733 C 0.895 0.80624 0.55477 0.0
C1734 C 0.79479 0.91393 0.51606 0.0
C1735 C 0.80732 0.89695 0.51464 0.0
C1736 C 0.85677 0.87882 0.53345 0.0
C1737 C 0.86926 0.82369 0.53536 0.0
C1738 C 0.86186 0.84324 0.5273 0.0
C1739 C 0.8281 0.89827 0.51811 0.0
C1740 C 0.84103 0.8798 0.51956 0.0
H1741 H 0.84906 0.78557 0.56291 0.0
H1742 H 0.83954 0.81107 0.5382 0.0
H1743 H 0.87824 0.86048 0.54883 0.0
H1744 H 0.8299 0.94828 0.52805 0.0
H1745 H 0.85196 0.91918 0.52422 0.0
C1746 C 0.97873 0.20208 0.38357 0.0
C1747 C 0.9809 0.19321 0.40259 0.0
C1748 C 0.98025 0.19031 0.36637 0.0
C1749 C 0.97179 0.13793 0.35255 0.0
H1750 H 0.98383 0.15861 0.29913 0.0
C1751 C 0.93821 0.09941 0.28638 0.0
C1752 C 0.92573 0.11326 0.27633 0.0
C1753 C 0.95407 0.10624 0.29794 0.0
C1754 C 0.98067 0.15248 0.31397 0.0
H1755 H 0.98764 0.16572 0.41888 0.0
H1756 H 0.99113 0.1452 0.3889 0.0
H1757 H 0.99485 0.17694 0.32843 0.0
H1758 H 0.9214 0.14456 0.26821 0.0
H1759 H 0.94901 0.15643 0.28799 0.0
H1760 H 0.95676 0.11409 0.33826 0.0
C1761 C 0.98771 0.16105 0.38709 0.0
C1762 C 0.98685 0.16305 0.33076 0.0
C1763 C 0.98587 0.17277 0.40425 0.0
C1764 C 0.93084 0.13362 0.27589 0.0
C1765 C 0.94675 0.14039 0.2872 0.0
C1766 C 0.96574 0.12735 0.33582 0.0
C1767 C 0.98412 0.16949 0.36797 0.0
C1768 C 0.98168 0.15636 0.35026 0.0
C1769 C 0.9577 0.12694 0.2994 0.0
C1770 C 0.96928 0.13497 0.31634 0.0
H1771 H 0.97472 0.21784 0.38207 0.0
H1772 H 0.97711 0.19733 0.35198 0.0
H1773 H 0.96727 0.13234 0.36724 0.0
H1774 H 0.93447 0.08365 0.28703 0.0
H1775 H 0.96244 0.09549 0.30699 0.0
C1776 C 0.1016 0.29726 0.93399 0.0
C1777 C 0.10916 0.27918 0.92627 0.0
C1778 C 0.11229 0.3075 0.94846 0.0
C1779 C 0.13889 0.32886 0.97769 0.0
H1780 H 0.19289 0.32965 0.95524 0.0
C1781 C 0.19576 0.3934 0.99061 0.0
C1782 C 0.20184 0.40186 0.97208 0.0
C1783 C 0.18587 0.37493 0.9913 0.0
C1784 C 0.17798 0.32942 0.96195 0.0
H1785 H 0.13247 0.25646 0.9289 0.0
H1786 H 0.15076 0.27382 0.95485 0.0
H1787 H 0.17091 0.30226 0.94736 0.0
H1788 H 0.20306 0.39735 0.93991 0.0
H1789 H 0.18636 0.36518 0.94116 0.0
H1790 H 0.14581 0.35706 0.99099 0.0
C1791 C 0.13682 0.28038 0.94952 0.0
C1792 C 0.16537 0.31358 0.95762 0.0
C1793 C 0.12622 0.27027 0.93489 0.0
C1794 C 0.19851 0.39125 0.95441 0.0
C1795 C 0.18906 0.37275 0.95513 0.0
C1796 C 0.15161 0.34474 0.98209 0.0
C1797 C 0.13077 0.2998 0.95537 0.0
C1798 C 0.14534 0.31354 0.96465 0.0
C1799 C 0.18243 0.36448 0.97351 0.0
C1800 C 0.17093 0.3456 0.97343 0.0
H1801 H 0.0887 0.30458 0.92721 0.0
H1802 H 0.10716 0.32242 0.95247 0.0
H1803 H 0.12365 0.32917 0.98355 0.0
H1804 H 0.19805 0.40135 0.00444 0.0
H1805 H 0.18082 0.36887 0.00564 0.0
C1806 C 0.43605 0.38503 0.69914 0.0
C1807 C 0.42717 0.37452 0.71521 0.0
C1808 C 0.4514 0.37604 0.68778 0.0
C1809 C 0.46519 0.32409 0.67451 0.0
H1810 H 0.49643 0.35213 0.63371 0.0
C1811 C 0.48894 0.28657 0.60025 0.0
C1812 C 0.47932 0.29677 0.5844 0.0
C1813 C 0.49075 0.29575 0.61892 0.0
C1814 C 0.48807 0.34403 0.64522 0.0
H1815 H 0.42862 0.34761 0.73363 0.0
H1816 H 0.45653 0.33248 0.71487 0.0
H1817 H 0.48638 0.36951 0.66435 0.0
H1818 H 0.46537 0.32492 0.57511 0.0
H1819 H 0.46898 0.34103 0.60743 0.0
H1820 H 0.46654 0.29882 0.65506 0.0
C1821 C 0.45116 0.34723 0.7103 0.0
C1822 C 0.48213 0.354 0.66271 0.0
C1823 C 0.43541 0.35601 0.72132 0.0
C1824 C 0.47269 0.31665 0.58713 0.0
C1825 C 0.47495 0.32595 0.60555 0.0
C1826 C 0.4715 0.31404 0.65725 0.0
C1827 C 0.45832 0.35645 0.69249 0.0
C1828 C 0.4696 0.34454 0.67707 0.0
C1829 C 0.48351 0.31544 0.62177 0.0
C1830 C 0.48209 0.32423 0.64201 0.0
H1831 H 0.42962 0.39918 0.69398 0.0
H1832 H 0.45629 0.38373 0.6742 0.0
H1833 H 0.45541 0.31618 0.68492 0.0
H1834 H 0.49418 0.27123 0.59849 0.0
H1835 H 0.49728 0.28732 0.63128 0.0
C1836 C 0.35304 0.72027 0.44128 0.0
C1837 C 0.37111 0.71365 0.43245 0.0
C1838 C 0.34349 0.70852 0.456 0.0
C1839 C 0.3189 0.67187 0.46273 0.0
H1840 H 0.34179 0.62894 0.49537 0.0
C1841 C 0.29518 0.5911 0.45677 0.0
C1842 C 0.29046 0.57997 0.47421 0.0
C1843 C 0.30327 0.61017 0.45807 0.0
C1844 C 0.33506 0.64105 0.48665 0.0
H1845 H 0.39453 0.69093 0.43332 0.0
H1846 H 0.37784 0.67016 0.45861 0.0
H1847 H 0.36089 0.65968 0.4892 0.0
H1848 H 0.29067 0.58002 0.50675 0.0
H1849 H 0.30556 0.61354 0.50899 0.0
H1850 H 0.29369 0.6528 0.45916 0.0
C1851 C 0.37107 0.68453 0.45471 0.0
C1852 C 0.34601 0.65858 0.48301 0.0
C1853 C 0.38075 0.69647 0.44022 0.0
C1854 C 0.29407 0.58835 0.49307 0.0
C1855 C 0.30262 0.60741 0.49437 0.0
C1856 C 0.30809 0.6544 0.46628 0.0
C1857 C 0.35163 0.6897 0.46162 0.0
C1858 C 0.33841 0.67383 0.47026 0.0
C1859 C 0.30715 0.61849 0.47683 0.0
C1860 C 0.31643 0.6385 0.47751 0.0
H1861 H 0.34526 0.73339 0.43532 0.0
H1862 H 0.32878 0.7132 0.4614 0.0
H1863 H 0.31256 0.68306 0.45263 0.0
H1864 H 0.29251 0.58511 0.44203 0.0
H1865 H 0.30686 0.61832 0.44432 0.0
C1866 C 0.04612 0.70008 0.09478 0.0
C1867 C 0.0292 0.70326 0.08277 0.0
C1868 C 0.04418 0.69157 0.11391 0.0
C1869 C 0.01443 0.6566 0.14301 0.0
H1870 H 0.04802 0.67536 0.18567 0.0
C1871 C 0.05816 0.63162 0.22063 0.0
C1872 C 0.06622 0.61366 0.21311 0.0
C1873 C 0.04396 0.64258 0.20962 0.0
C1874 C 0.03803 0.67003 0.1743 0.0
H1875 H 0.99689 0.70016 0.08148 0.0
H1876 H 0.99356 0.68477 0.11507 0.0
H1877 H 0.04244 0.69652 0.15641 0.0
H1878 H 0.06444 0.59189 0.18952 0.0
H1879 H 0.04008 0.61101 0.17003 0.0
H1880 H 0.01078 0.62964 0.16057 0.0
C1881 C 0.00827 0.68914 0.1096 0.0
C1882 C 0.03506 0.68215 0.15736 0.0
C1883 C 0.01018 0.69801 0.09046 0.0
C1884 C 0.05812 0.60555 0.19576 0.0
C1885 C 0.04417 0.61664 0.18455 0.0
C1886 C 0.0174 0.64439 0.16005 0.0
C1887 C 0.0253 0.68579 0.12146 0.0
C1888 C 0.02407 0.67516 0.14114 0.0
C1889 C 0.03809 0.63599 0.19062 0.0
C1890 C 0.03004 0.65058 0.17548 0.0
H1891 H 0.06097 0.70397 0.08932 0.0
H1892 H 0.05763 0.68888 0.12255 0.0
H1893 H 0.00583 0.65086 0.13073 0.0
H1894 H 0.06441 0.63824 0.23389 0.0
H1895 H 0.03916 0.65715 0.21502 0.0
C1896 C 0.32524 0.10667 0.5307 0.0
C1897 C 0.3157 0.10848 0.54956 0.0
C1898 C 0.34489 0.1133 0.52766 0.0
C1899 C 0.38902 0.13553 0.5534 0.0
H1900 H 0.38855 0.17161 0.50727 0.0
C1901 C 0.41879 0.2181 0.53105 0.0
C1902 C 0.43951 0.21707 0.53471 0.0
C1903 C 0.40735 0.20078 0.53102 0.0
C1904 C 0.38904 0.16148 0.52011 0.0
H1905 H 0.32029 0.11732 0.58041 0.0
H1906 H 0.35404 0.12886 0.57513 0.0
H1907 H 0.36269 0.14652 0.511 0.0
H1908 H 0.46441 0.19686 0.54139 0.0
H1909 H 0.44409 0.16634 0.54165 0.0
H1910 H 0.41476 0.15165 0.56306 0.0
C1911 C 0.34655 0.12206 0.56267 0.0
C1912 C 0.37433 0.14688 0.52216 0.0
C1913 C 0.32697 0.11534 0.56572 0.0
C1914 C 0.44849 0.19817 0.53848 0.0
C1915 C 0.4369 0.18072 0.53867 0.0
C1916 C 0.40382 0.15019 0.55132 0.0
C1917 C 0.35539 0.12208 0.54339 0.0
C1918 C 0.37364 0.13421 0.53921 0.0
C1919 C 0.41623 0.1819 0.53476 0.0
C1920 C 0.40343 0.16383 0.53506 0.0
H1921 H 0.31704 0.10132 0.51795 0.0
H1922 H 0.3514 0.11267 0.51269 0.0
H1923 H 0.3891 0.12583 0.56659 0.0
H1924 H 0.4113 0.23234 0.52808 0.0
H1925 H 0.39139 0.20223 0.52834 0.0
C1926 C 0.50324 0.56278 0.28613 0.0
C1927 C 0.51175 0.5649 0.2668 0.0
C1928 C 0.49369 0.57888 0.29543 0.0
C1929 C 0.46168 0.60913 0.30499 0.0
H1930 H 0.48022 0.66402 0.304 0.0
C1931 C 0.41182 0.67261 0.33491 0.0
C1932 C 0.42069 0.68721 0.34681 0.0
C1933 C 0.42364 0.65901 0.32415 0.0
C1934 C 0.47495 0.64872 0.3045 0.0
H1935 H 0.51643 0.58561 0.2419 0.0
H1936 H 0.49918 0.61403 0.25818 0.0
H1937 H 0.50017 0.63781 0.28719 0.0
H1938 H 0.44905 0.69919 0.3564 0.0
H1939 H 0.46981 0.6749 0.3379 0.0
H1940 H 0.43687 0.61961 0.32264 0.0
C1941 C 0.50054 0.59988 0.26627 0.0
C1942 C 0.48624 0.63379 0.2947 0.0
C1943 C 0.51032 0.58364 0.25694 0.0
C1944 C 0.44175 0.68805 0.34745 0.0
C1945 C 0.45364 0.67426 0.33672 0.0
C1946 C 0.4505 0.62393 0.31477 0.0
C1947 C 0.49183 0.59751 0.28552 0.0
C1948 C 0.47977 0.61379 0.29501 0.0
C1949 C 0.44467 0.65945 0.32512 0.0
C1950 C 0.45695 0.64391 0.31466 0.0
H1951 H 0.50317 0.54846 0.29395 0.0
H1952 H 0.48734 0.57658 0.31033 0.0
H1953 H 0.45608 0.59394 0.30526 0.0
H1954 H 0.39566 0.67169 0.33378 0.0
H1955 H 0.41623 0.6481 0.31502 0.0
C1956 C 0.0555 0.7937 0.0321 0.0
C1957 C 0.06329 0.77749 0.02104 0.0
C1958 C 0.06574 0.81191 0.03236 0.0
C1959 C 0.10312 0.84308 0.00679 0.0
H1960 H 0.12618 0.851 0.05906 0.0
C1961 C 0.18084 0.87604 0.01616 0.0
C1962 C 0.18715 0.8823 0.03513 0.0
C1963 C 0.16109 0.87014 0.01319 0.0
C1964 C 0.11953 0.84969 0.04443 0.0
H1965 H 0.08699 0.76792 0.00057 0.0
H1966 H 0.10446 0.79992 0.0005 0.0
H1967 H 0.09902 0.82759 0.05558 0.0
H1968 H 0.17608 0.88968 0.06509 0.0
H1969 H 0.14185 0.88112 0.05942 0.0
H1970 H 0.12361 0.86502 0.99546 0.0
C1971 C 0.09063 0.79848 0.00913 0.0
C1972 C 0.10395 0.8361 0.04248 0.0
C1973 C 0.08074 0.78016 0.00931 0.0
C1974 C 0.17243 0.88489 0.05028 0.0
C1975 C 0.15252 0.87954 0.04712 0.0
C1976 C 0.11838 0.8571 0.00878 0.0
C1977 C 0.08352 0.81431 0.02105 0.0
C1978 C 0.09623 0.83206 0.02354 0.0
C1979 C 0.14685 0.87084 0.02897 0.0
C1980 C 0.12751 0.85988 0.02748 0.0
H1981 H 0.0421 0.79196 0.04132 0.0
H1982 H 0.06011 0.82391 0.04177 0.0
H1983 H 0.09725 0.84025 0.99203 0.0
H1984 H 0.19153 0.87414 0.00391 0.0
H1985 H 0.15757 0.86359 0.99892 0.0
C1986 C 0.03898 0.30599 0.84114 0.0
C1987 C 0.06001 0.30761 0.84047 0.0
C1988 C 0.02695 0.31856 0.82919 0.0
C1989 C 0.02861 0.35122 0.78386 0.0
H1990 H 0.98422 0.37982 0.8092 0.0
C1991 C 0.98834 0.43152 0.77462 0.0
C1992 C 0.98251 0.43231 0.75442 0.0
C1993 C 0.99403 0.41344 0.78367 0.0
C1994 C 0.99641 0.37174 0.80185 0.0
H1995 H 0.08483 0.32376 0.82664 0.0
H1996 H 0.06388 0.34564 0.80601 0.0
H1997 H 0.00199 0.35347 0.82791 0.0
H1998 H 0.97916 0.41478 0.72758 0.0
H1999 H 0.98975 0.38285 0.74346 0.0
H2000 H 0.02358 0.37019 0.75812 0.0
C2001 C 0.0567 0.33451 0.81559 0.0
C2002 C 0.00652 0.35661 0.81252 0.0
C2003 C 0.0687 0.3221 0.82762 0.0
C2004 C 0.98311 0.41454 0.7433 0.0
C2005 C 0.98917 0.39634 0.75234 0.0
C2006 C 0.01839 0.36627 0.77313 0.0
C2007 C 0.03571 0.33284 0.81619 0.0
C2008 C 0.02315 0.34666 0.80387 0.0
C2009 C 0.99464 0.39568 0.77265 0.0
C2010 C 0.00264 0.37712 0.78228 0.0
H2011 H 0.0318 0.29494 0.85081 0.0
H2012 H 0.0108 0.31694 0.82994 0.0
H2013 H 0.04121 0.34358 0.77672 0.0
H2014 H 0.98935 0.44496 0.78341 0.0
H2015 H 0.99884 0.41353 0.79913 0.0
C2016 C 0.8267 0.37743 0.42012 0.0
C2017 C 0.81539 0.38514 0.43629 0.0
C2018 C 0.84657 0.37112 0.42275 0.0
C2019 C 0.8755 0.34884 0.46344 0.0
H2020 H 0.9151 0.34117 0.42091 0.0
C2021 C 0.94891 0.29437 0.44569 0.0
C2022 C 0.93967 0.27597 0.4503 0.0
C2023 C 0.93759 0.3123 0.44553 0.0
C2024 C 0.90442 0.34348 0.43309 0.0
H2025 H 0.81667 0.39407 0.46736 0.0
H2026 H 0.85155 0.38345 0.47188 0.0
H2027 H 0.88913 0.36727 0.4173 0.0
H2028 H 0.91136 0.26207 0.45853 0.0
H2029 H 0.89194 0.29304 0.45836 0.0
H2030 H 0.89025 0.32459 0.47885 0.0
C2031 C 0.84492 0.38189 0.45724 0.0
C2032 C 0.88945 0.3583 0.43097 0.0
C2033 C 0.82498 0.38809 0.45464 0.0
C2034 C 0.91901 0.27591 0.45487 0.0
C2035 C 0.90787 0.29372 0.45496 0.0
C2036 C 0.8904 0.3341 0.46553 0.0
C2037 C 0.85561 0.37234 0.44162 0.0
C2038 C 0.87428 0.36054 0.44575 0.0
C2039 C 0.91698 0.31211 0.45035 0.0
C2040 C 0.90443 0.33065 0.45 0.0
H2041 H 0.81988 0.37451 0.40588 0.0
H2042 H 0.85417 0.36365 0.41041 0.0
H2043 H 0.86407 0.34994 0.4751 0.0
H2044 H 0.96479 0.2949 0.44208 0.0
H2045 H 0.94494 0.3263 0.44184 0.0
C2046 C 0.47923 0.06313 0.20897 0.0
C2047 C 0.47064 0.06363 0.22835 0.0
C2048 C 0.48885 0.0798 0.20083 0.0
C2049 C 0.52163 0.1095 0.19455 0.0
H2050 H 0.50297 0.16478 0.19716 0.0
C2051 C 0.57218 0.17356 0.16835 0.0
C2052 C 0.56352 0.18865 0.15618 0.0
C2053 C 0.56018 0.1598 0.17869 0.0
C2054 C 0.5083 0.14938 0.19626 0.0
H2055 H 0.46559 0.08217 0.25443 0.0
H2056 H 0.48284 0.11157 0.24015 0.0
H2057 H 0.48238 0.13796 0.21196 0.0
H2058 H 0.53531 0.20144 0.14583 0.0
H2059 H 0.5143 0.177 0.16364 0.0
H2060 H 0.54721 0.12054 0.17854 0.0
C2061 C 0.48159 0.09825 0.23116 0.0
C2062 C 0.49662 0.1341 0.20489 0.0
C2063 C 0.47179 0.08144 0.23933 0.0
C2064 C 0.54248 0.18994 0.155 0.0
C2065 C 0.53042 0.17604 0.16533 0.0
C2066 C 0.53324 0.12467 0.18601 0.0
C2067 C 0.49062 0.09737 0.21197 0.0
C2068 C 0.5031 0.11397 0.20388 0.0
C2069 C 0.53918 0.16065 0.17705 0.0
C2070 C 0.52672 0.14479 0.18667 0.0
H2071 H 0.47952 0.04958 0.20026 0.0
H2072 H 0.49548 0.07871 0.18594 0.0
H2073 H 0.5272 0.09417 0.1938 0.0
H2074 H 0.58832 0.17228 0.16987 0.0
H2075 H 0.56739 0.14838 0.18791 0.0
C2076 C 0.5567 0.69539 0.96888 0.0
C2077 C 0.56341 0.71444 0.96266 0.0
C2078 C 0.56913 0.67842 0.9666 0.0
C2079 C 0.61288 0.65869 0.93866 0.0
H2080 H 0.62682 0.63014 0.98776 0.0
C2081 C 0.67867 0.60217 0.94029 0.0
C2082 C 0.6935 0.60879 0.9534 0.0
C2083 C 0.65895 0.60963 0.94178 0.0
C2084 C 0.62283 0.63773 0.97387 0.0
H2085 H 0.58795 0.73052 0.94838 0.0
H2086 H 0.60936 0.7009 0.94399 0.0
H2087 H 0.59902 0.65458 0.98799 0.0
H2088 H 0.69818 0.62613 0.98033 0.0
H2089 H 0.66396 0.63847 0.98316 0.0
H2090 H 0.63721 0.64256 0.92472 0.0
C2091 C 0.5946 0.69909 0.95076 0.0
C2092 C 0.6069 0.65164 0.97398 0.0
C2093 C 0.5824 0.71606 0.95341 0.0
C2094 C 0.68743 0.62093 0.96961 0.0
C2095 C 0.6677 0.62802 0.97133 0.0
C2096 C 0.62859 0.64458 0.93848 0.0
C2097 C 0.58824 0.68017 0.95761 0.0
C2098 C 0.60229 0.66277 0.95655 0.0
C2099 C 0.6535 0.62322 0.95688 0.0
C2100 C 0.63419 0.63451 0.95624 0.0
H2101 H 0.54215 0.69371 0.97612 0.0
H2102 H 0.56392 0.66397 0.97201 0.0
H2103 H 0.60954 0.66702 0.92501 0.0
H2104 H 0.6822 0.59178 0.92846 0.0
H2105 H 0.64812 0.6053 0.93072 0.0
C2106 C 0.99023 0.926 0.74563 0.0
C2107 C 0.00971 0.93116 0.73937 0.0
C2108 C 0.98048 0.91005 0.73677 0.0
C2109 C 0.98681 0.86507 0.70575 0.0
H2110 H 0.93472 0.88096 0.68518 0.0
C2111 C 0.94415 0.81692 0.64903 0.0
C2112 C 0.92312 0.8163 0.65093 0.0
C2113 C 0.95518 0.83007 0.66063 0.0
C2114 C 0.94907 0.87609 0.69108 0.0
H2115 H 0.03497 0.92273 0.72036 0.0
H2116 H 0.01792 0.89466 0.70488 0.0
H2117 H 0.95327 0.90418 0.70544 0.0
H2118 H 0.89726 0.82871 0.66682 0.0
H2119 H 0.91642 0.85112 0.68732 0.0
H2120 H 0.98252 0.83686 0.69155 0.0
C2121 C 0.01014 0.90306 0.71649 0.0
C2122 C 0.95971 0.88944 0.70268 0.0
C2123 C 0.01985 0.91916 0.72524 0.0
C2124 C 0.91341 0.82898 0.66477 0.0
C2125 C 0.92443 0.84193 0.6765 0.0
C2126 C 0.97604 0.85157 0.6943 0.0
C2127 C 0.99011 0.89884 0.72166 0.0
C2128 C 0.97869 0.8841 0.71011 0.0
C2129 C 0.94544 0.84274 0.67453 0.0
C2130 C 0.95703 0.85694 0.68679 0.0
H2131 H 0.98206 0.93505 0.75648 0.0
H2132 H 0.96512 0.90693 0.74123 0.0
H2133 H 0.0014 0.86058 0.71136 0.0
H2134 H 0.95209 0.80736 0.63848 0.0
H2135 H 0.9713 0.83048 0.65848 0.0
C2136 C 0.5273 0.32229 0.11085 0.0
C2137 C 0.54644 0.31336 0.1126 0.0
C2138 C 0.52376 0.34195 0.11722 0.0
C2139 C 0.51779 0.37172 0.15045 0.0
H2140 H 0.55789 0.41305 0.15443 0.0
C2141 C 0.52689 0.41666 0.22137 0.0
C2142 C 0.53077 0.43733 0.22021 0.0
C2143 C 0.5265 0.40519 0.20408 0.0
C2144 C 0.54635 0.40186 0.1532 0.0
H2145 H 0.57718 0.31891 0.1212 0.0
H2146 H 0.57106 0.35268 0.13226 0.0
H2147 H 0.56158 0.38738 0.1287 0.0
H2148 H 0.53735 0.46213 0.19982 0.0
H2149 H 0.53696 0.44179 0.1694 0.0
H2150 H 0.50292 0.38576 0.1753 0.0
C2151 C 0.55877 0.34475 0.12565 0.0
C2152 C 0.54854 0.38706 0.13858 0.0
C2153 C 0.56232 0.32516 0.1192 0.0
C2154 C 0.53431 0.44625 0.20123 0.0
C2155 C 0.53412 0.43463 0.18383 0.0
C2156 C 0.51562 0.38646 0.165 0.0
C2157 C 0.53925 0.35303 0.12569 0.0
C2158 C 0.5347 0.37134 0.13758 0.0
C2159 C 0.53008 0.414 0.18512 0.0
C2160 C 0.53032 0.40116 0.1671 0.0
H2161 H 0.51477 0.31364 0.10573 0.0
H2162 H 0.50861 0.34802 0.11664 0.0
H2163 H 0.50688 0.35982 0.15031 0.0
H2164 H 0.52407 0.40925 0.23568 0.0
H2165 H 0.52375 0.38925 0.20562 0.0
C2166 C 0.42485 0.74238 0.00578 0.0
C2167 C 0.4325 0.74767 0.98675 0.0
C2168 C 0.40727 0.75147 0.01313 0.0
C2169 C 0.37742 0.79811 0.0062 0.0
H2170 H 0.34162 0.77228 0.04465 0.0
C2171 C 0.3091 0.83868 0.04345 0.0
C2172 C 0.30776 0.8364 0.06445 0.0
C2173 C 0.32276 0.82706 0.0323 0.0
C2174 C 0.35153 0.77967 0.03394 0.0
H2175 H 0.42704 0.76518 0.95973 0.0
H2176 H 0.39595 0.7807 0.97226 0.0
H2177 H 0.36728 0.75234 0.02728 0.0
H2178 H 0.31969 0.82002 0.09014 0.0
H2179 H 0.34335 0.79974 0.07065 0.0
H2180 H 0.36158 0.82545 0.01295 0.0
C2181 C 0.40385 0.77008 0.98185 0.0
C2182 C 0.36626 0.76828 0.02402 0.0
C2183 C 0.42156 0.76112 0.9746 0.0
C2184 C 0.32036 0.82224 0.07401 0.0
C2185 C 0.3338 0.81047 0.06284 0.0
C2186 C 0.36253 0.80945 0.01597 0.0
C2187 C 0.39682 0.76584 0.00146 0.0
C2188 C 0.37967 0.77742 0.01032 0.0
C2189 C 0.33513 0.81275 0.04189 0.0
C2190 C 0.34972 0.80042 0.03023 0.0
H2191 H 0.4331 0.73214 0.01549 0.0
H2192 H 0.4025 0.74796 0.02836 0.0
H2193 H 0.38765 0.80577 0.99602 0.0
H2194 H 0.2996 0.84944 0.03562 0.0
H2195 H 0.32346 0.82907 0.01614 0.0
C2196 C 0.9595 0.56399 0.69892 0.0
C2197 C 0.97706 0.56268 0.7102 0.0
C2198 C 0.95836 0.57722 0.68244 0.0
C2199 C 0.98324 0.62344 0.66333 0.0
H2200 H 0.94609 0.61811 0.61952 0.0
C2201 C 0.97132 0.68849 0.60854 0.0
C2202 C 0.95125 0.6953 0.60877 0.0
C2203 C 0.97627 0.66913 0.6153 0.0
C2204 C 0.95666 0.61967 0.63158 0.0
H2205 H 0.00762 0.57275 0.71259 0.0
H2206 H 0.00625 0.59477 0.68315 0.0
H2207 H 0.95209 0.58963 0.64235 0.0
H2208 H 0.92056 0.68627 0.61518 0.0
H2209 H 0.92918 0.6526 0.62634 0.0
H2210 H 0.98771 0.65343 0.65267 0.0
C2211 C 0.99294 0.58649 0.68738 0.0
C2212 C 0.95999 0.60345 0.64479 0.0
C2213 C 0.99386 0.57373 0.70413 0.0
C2214 C 0.93612 0.68165 0.61424 0.0
C2215 C 0.94107 0.66222 0.62081 0.0
C2216 C 0.98019 0.63943 0.64997 0.0
C2217 C 0.97494 0.58906 0.67675 0.0
C2218 C 0.973 0.60527 0.66114 0.0
C2219 C 0.96124 0.65613 0.62233 0.0
C2220 C 0.96657 0.6379 0.63422 0.0
H2221 H 0.94634 0.55562 0.7035 0.0
H2222 H 0.94416 0.57886 0.67487 0.0
H2223 H 0.99296 0.62579 0.67593 0.0
H2224 H 0.98334 0.69857 0.60437 0.0
H2225 H 0.99196 0.66472 0.61615 0.0
C2226 C 0.08509 0.23889 0.4707 0.0
C2227 C 0.06712 0.22809 0.47108 0.0
C2228 C 0.10259 0.23052 0.47898 0.0
C2229 C 0.13098 0.21349 0.51152 0.0
H2230 H 0.14414 0.15722 0.50356 0.0
C2231 C 0.1761 0.1659 0.56811 0.0
C2232 C 0.19069 0.15233 0.56077 0.0
C2233 C 0.16347 0.17636 0.55497 0.0
C2234 C 0.14085 0.17301 0.50574 0.0
H2235 H 0.0532 0.20061 0.48191 0.0
H2236 H 0.08357 0.18588 0.49543 0.0
H2237 H 0.1178 0.17334 0.48367 0.0
H2238 H 0.20347 0.13917 0.53377 0.0
H2239 H 0.1811 0.15728 0.5108 0.0
H2240 H 0.15359 0.21298 0.53408 0.0
C2241 C 0.08436 0.20052 0.4882 0.0
C2242 C 0.12571 0.18219 0.49445 0.0
C2243 C 0.06693 0.20895 0.48022 0.0
C2244 C 0.19236 0.14947 0.53993 0.0
C2245 C 0.17956 0.15981 0.52678 0.0
C2246 C 0.14601 0.20425 0.52296 0.0
C2247 C 0.10236 0.21119 0.48774 0.0
C2248 C 0.12032 0.20239 0.49755 0.0
C2249 C 0.16501 0.17339 0.53418 0.0
C2250 C 0.15079 0.1838 0.52048 0.0
H2251 H 0.08558 0.25383 0.4641 0.0
H2252 H 0.11626 0.23913 0.47857 0.0
H2253 H 0.12705 0.22904 0.5143 0.0
H2254 H 0.17442 0.16855 0.58405 0.0
H2255 H 0.1522 0.18649 0.56114 0.0
C2256 C 0.04567 0.1703 0.88432 0.0
C2257 C 0.03482 0.18683 0.87652 0.0
C2258 C 0.0431 0.15107 0.87654 0.0
C2259 C 0.01027 0.12175 0.84294 0.0
H2260 H 0.06013 0.09614 0.8258 0.0
C2261 C 0.01973 0.08017 0.76929 0.0
C2262 C 0.02841 0.06084 0.76953 0.0
C2263 C 0.01932 0.09173 0.78656 0.0
C2264 C 0.04608 0.10287 0.83083 0.0
H2265 H 0.01139 0.19562 0.85567 0.0
H2266 H 0.00698 0.1626 0.84234 0.0
H2267 H 0.06083 0.12338 0.84998 0.0
H2268 H 0.04365 0.03852 0.78802 0.0
H2269 H 0.04357 0.05929 0.81826 0.0
H2270 H 0.99574 0.10226 0.82257 0.0
C2271 C 0.01753 0.16427 0.8544 0.0
C2272 C 0.04644 0.11842 0.84473 0.0
C2273 C 0.02015 0.18336 0.86206 0.0
C2274 C 0.03683 0.05336 0.78743 0.0
C2275 C 0.03681 0.06519 0.80467 0.0
C2276 C 0.00996 0.10644 0.82889 0.0
C2277 C 0.02937 0.14797 0.86107 0.0
C2278 C 0.0286 0.1286 0.85029 0.0
C2279 C 0.02787 0.0844 0.80437 0.0
C2280 C 0.02792 0.0974 0.82217 0.0
H2281 H 0.05643 0.17217 0.8961 0.0
H2282 H 0.05216 0.13873 0.8823 0.0
H2283 H 0.99622 0.12894 0.84726 0.0
H2284 H 0.01301 0.08632 0.75579 0.0
H2285 H 0.01256 0.10661 0.7859 0.0
C2286 C 0.56718 0.28243 0.50608 0.0
C2287 C 0.56787 0.26322 0.51506 0.0
C2288 C 0.58456 0.29132 0.49856 0.0
C2289 C 0.63272 0.27999 0.47581 0.0
H2290 H 0.64286 0.33622 0.48556 0.0
C2291 C 0.69162 0.34603 0.44892 0.0
C2292 C 0.69018 0.34398 0.42801 0.0
C2293 C 0.67913 0.33502 0.46195 0.0
C2294 C 0.64043 0.32045 0.4829 0.0
H2295 H 0.58722 0.23777 0.52205 0.0
H2296 H 0.61785 0.25327 0.50828 0.0
H2297 H 0.61662 0.31895 0.5048 0.0
H2298 H 0.67467 0.32849 0.40445 0.0
H2299 H 0.65308 0.30936 0.42712 0.0
H2300 H 0.65598 0.28172 0.45333 0.0
C2301 C 0.60379 0.26159 0.50774 0.0
C2302 C 0.62535 0.31061 0.49381 0.0
C2303 C 0.58632 0.25276 0.5156 0.0
C2304 C 0.67614 0.33054 0.42046 0.0
C2305 C 0.66389 0.3194 0.43345 0.0
C2306 C 0.64765 0.2899 0.46473 0.0
C2307 C 0.60304 0.28104 0.49928 0.0
C2308 C 0.62103 0.29043 0.49003 0.0
C2309 C 0.6652 0.32154 0.45431 0.0
C2310 C 0.65132 0.31035 0.46784 0.0
H2311 H 0.55313 0.29051 0.50427 0.0
H2312 H 0.58341 0.30605 0.49153 0.0
H2313 H 0.62962 0.26447 0.47252 0.0
H2314 H 0.70231 0.35621 0.45522 0.0
H2315 H 0.68045 0.33695 0.47799 0.0
C2316 C 0.41981 0.82424 0.37766 0.0
C2317 C 0.43555 0.81243 0.38555 0.0
C2318 C 0.42326 0.84377 0.37075 0.0
C2319 C 0.43317 0.88595 0.35696 0.0
H2320 H 0.48076 0.88431 0.32286 0.0
C2321 C 0.44933 0.9443 0.29264 0.0
C2322 C 0.45414 0.93508 0.27428 0.0
C2323 C 0.44881 0.93295 0.31054 0.0
C2324 C 0.4675 0.88511 0.33243 0.0
H2325 H 0.46678 0.81258 0.39411 0.0
H2326 H 0.47275 0.8469 0.38241 0.0
H2327 H 0.47609 0.85862 0.34858 0.0
H2328 H 0.46227 0.90672 0.26043 0.0
H2329 H 0.46136 0.88721 0.29134 0.0
H2330 H 0.42402 0.91176 0.33959 0.0
C2331 C 0.4578 0.84089 0.3812 0.0
C2332 C 0.46492 0.87051 0.3474 0.0
C2333 C 0.45436 0.82127 0.38802 0.0
C2334 C 0.45849 0.91438 0.27423 0.0
C2335 C 0.45817 0.90318 0.29202 0.0
C2336 C 0.43576 0.9006 0.3419 0.0
C2337 C 0.44254 0.85199 0.37154 0.0
C2338 C 0.44732 0.87023 0.3593 0.0
C2339 C 0.45339 0.9123 0.31038 0.0
C2340 C 0.45255 0.89975 0.32893 0.0
H2341 H 0.40524 0.81799 0.37507 0.0
H2342 H 0.41118 0.8517 0.36321 0.0
H2343 H 0.41959 0.88636 0.36608 0.0
H2344 H 0.4459 0.96021 0.29318 0.0
H2345 H 0.44503 0.94034 0.32449 0.0
C2346 C 0.93466 0.71188 0.009 0.0
C2347 C 0.93753 0.73278 0.00921 0.0
C2348 C 0.91691 0.70397 0.00181 0.0
C2349 C 0.88415 0.70966 0.96252 0.0
H2350 H 0.84472 0.67811 0.99186 0.0
C2351 C 0.81986 0.67255 0.92088 0.0
C2352 C 0.81305 0.65388 0.92794 0.0
C2353 C 0.83295 0.68375 0.93227 0.0
C2354 C 0.85572 0.68663 0.98336 0.0
H2355 H 0.92405 0.76164 0.00161 0.0
H2356 H 0.89328 0.74757 0.9881 0.0
H2357 H 0.87118 0.69491 0.01003 0.0
H2358 H 0.81446 0.63223 0.95241 0.0
H2359 H 0.83837 0.6511 0.97181 0.0
H2360 H 0.87006 0.70042 0.93577 0.0
C2361 C 0.90458 0.73753 0.99431 0.0
C2362 C 0.87068 0.69644 0.99384 0.0
C2363 C 0.92216 0.74552 0.002 0.0
C2364 C 0.81949 0.64662 0.94666 0.0
C2365 C 0.83306 0.65759 0.95785 0.0
C2366 C 0.86956 0.6995 0.95199 0.0
C2367 C 0.90197 0.71669 0.99403 0.0
C2368 C 0.88497 0.70797 0.98346 0.0
C2369 C 0.84005 0.67631 0.95077 0.0
C2370 C 0.85514 0.68774 0.96222 0.0
H2371 H 0.94648 0.70145 0.01314 0.0
H2372 H 0.91537 0.68782 0.0012 0.0
H2373 H 0.89532 0.71821 0.95423 0.0
H2374 H 0.81483 0.67867 0.90664 0.0
H2375 H 0.83741 0.69831 0.92649 0.0
C2376 C 0.11874 0.55682 0.32043 0.0
C2377 C 0.11373 0.54108 0.30762 0.0
C2378 C 0.12555 0.55274 0.33983 0.0
C2379 C 0.15633 0.51531 0.36353 0.0
H2380 H 0.14616 0.54458 0.41257 0.0
C2381 C 0.21044 0.50579 0.4288 0.0
C2382 C 0.21511 0.52315 0.43927 0.0
C2383 C 0.19385 0.50561 0.41625 0.0
C2384 C 0.14932 0.53637 0.39897 0.0
H2385 H 0.1106 0.50881 0.30584 0.0
H2386 H 0.12293 0.50173 0.33957 0.0
H2387 H 0.12349 0.549 0.38425 0.0
H2388 H 0.20615 0.55375 0.44546 0.0
H2389 H 0.1778 0.55402 0.42263 0.0
H2390 H 0.18284 0.50384 0.37718 0.0
C2391 C 0.12144 0.51721 0.33455 0.0
C2392 C 0.13621 0.53879 0.38284 0.0
C2393 C 0.11436 0.52129 0.31526 0.0
C2394 C 0.20263 0.54016 0.43759 0.0
C2395 C 0.18632 0.5402 0.42457 0.0
C2396 C 0.16961 0.51319 0.37942 0.0
C2397 C 0.12782 0.53286 0.34671 0.0
C2398 C 0.13975 0.52845 0.36489 0.0
C2399 C 0.18199 0.52306 0.41331 0.0
C2400 C 0.16651 0.52389 0.3973 0.0
H2401 H 0.11909 0.57219 0.31518 0.0
H2402 H 0.13062 0.56507 0.3488 0.0
H2403 H 0.15968 0.50747 0.34972 0.0
H2404 H 0.21988 0.49247 0.43004 0.0
H2405 H 0.19072 0.49191 0.40842 0.0
C2406 C 0.70113 0.96027 0.55713 0.0
C2407 C 0.71638 0.97309 0.56332 0.0
C2408 C 0.68408 0.95726 0.56928 0.0
C2409 C 0.65127 0.97869 0.60669 0.0
H2410 H 0.64997 0.92704 0.63406 0.0
C2411 C 0.61343 0.96789 0.68371 0.0
C2412 C 0.60895 0.94849 0.69095 0.0
C2413 C 0.62114 0.97087 0.66431 0.0
C2414 C 0.64951 0.94137 0.62623 0.0
H2415 H 0.72539 0.99344 0.58654 0.0
H2416 H 0.69527 0.98865 0.60738 0.0
H2417 H 0.67383 0.93252 0.60672 0.0
H2418 H 0.60729 0.91728 0.68197 0.0
H2419 H 0.61888 0.92272 0.64809 0.0
H2420 H 0.62695 0.98768 0.62594 0.0
C2421 C 0.69669 0.98077 0.59331 0.0
C2422 C 0.66337 0.94449 0.61062 0.0
C2423 C 0.71394 0.98337 0.58147 0.0
C2424 C 0.61031 0.9325 0.6774 0.0
C2425 C 0.6175 0.93557 0.6578 0.0
C2426 C 0.63703 0.97544 0.62198 0.0
C2427 C 0.68178 0.96751 0.58744 0.0
C2428 C 0.66477 0.96334 0.6012 0.0
C2429 C 0.62415 0.95458 0.65135 0.0
C2430 C 0.63644 0.95696 0.63252 0.0
H2431 H 0.70267 0.95213 0.54322 0.0
H2432 H 0.67277 0.94686 0.5646 0.0
H2433 H 0.65211 0.99334 0.5995 0.0
H2434 H 0.61241 0.98068 0.69354 0.0
H2435 H 0.62605 0.98579 0.66016 0.0
C2436 C 0.8448 0.04361 0.31054 0.0
C2437 C 0.84184 0.06452 0.30903 0.0
C2438 C 0.83337 0.03217 0.32415 0.0
C2439 C 0.7852 0.03235 0.35126 0.0
H2440 H 0.81105 0.99599 0.38905 0.0
C2441 C 0.74582 0.00412 0.4234 0.0
C2442 C 0.75161 0.98555 0.43177 0.0
C2443 C 0.75531 0.01139 0.406 0.0
C2444 C 0.80348 0.0057 0.37833 0.0
H2445 H 0.82459 0.08978 0.3207 0.0
H2446 H 0.80462 0.06978 0.34421 0.0
H2447 H 0.8312 0.01327 0.36355 0.0
H2448 H 0.77053 0.95922 0.42783 0.0
H2449 H 0.78671 0.97154 0.39699 0.0
H2450 H 0.75748 0.02485 0.36588 0.0
C2451 C 0.81575 0.06227 0.33486 0.0
C2452 C 0.81508 0.01568 0.36379 0.0
C2453 C 0.82733 0.07373 0.32151 0.0
C2454 C 0.76601 0.97371 0.42172 0.0
C2455 C 0.77536 0.98086 0.40418 0.0
C2456 C 0.77355 0.02219 0.36562 0.0
C2457 C 0.81857 0.04139 0.33623 0.0
C2458 C 0.8061 0.02942 0.35041 0.0
C2459 C 0.77061 0.0001 0.39647 0.0
C2460 C 0.78258 0.00906 0.37964 0.0
H2461 H 0.85584 0.03606 0.30113 0.0
H2462 H 0.83581 0.01608 0.32493 0.0
H2463 H 0.77787 0.04265 0.34089 0.0
H2464 H 0.73487 0.01361 0.43101 0.0
H2465 H 0.75138 0.02635 0.40071 0.0
C2466 C 0.77473 0.0144 0.08141 0.0
C2467 C 0.77389 0.02422 0.06265 0.0
C2468 C 0.79242 0.01397 0.09229 0.0
C2469 C 0.83553 0.04278 0.10313 0.0
H2470 H 0.85353 0.99362 0.12949 0.0
C2471 C 0.88736 0.04475 0.17162 0.0
C2472 C 0.87921 0.03403 0.18809 0.0
C2473 C 0.88038 0.0416 0.15217 0.0
C2474 C 0.84881 0.00748 0.12217 0.0
H2475 H 0.79097 0.04119 0.04047 0.0
H2476 H 0.822 0.04107 0.06009 0.0
H2477 H 0.82929 0.99212 0.10246 0.0
H2478 H 0.8588 0.01011 0.19656 0.0
H2479 H 0.84691 0.00463 0.16312 0.0
H2480 H 0.85379 0.0583 0.12386 0.0
C2481 C 0.80892 0.03344 0.06607 0.0
C2482 C 0.83501 0.00659 0.10666 0.0
C2483 C 0.79123 0.0335 0.05489 0.0
C2484 C 0.86538 0.01882 0.18437 0.0
C2485 C 0.85856 0.01558 0.16504 0.0
C2486 C 0.84921 0.0437 0.11882 0.0
C2487 C 0.80963 0.02362 0.08485 0.0
C2488 C 0.82761 0.02428 0.09759 0.0
C2489 C 0.86545 0.02737 0.14879 0.0
C2490 C 0.85527 0.0261 0.12913 0.0
H2491 H 0.76167 0.007 0.08773 0.0
H2492 H 0.79249 0.00652 0.10686 0.0
H2493 H 0.82998 0.05664 0.09641 0.0
H2494 H 0.89875 0.05587 0.17367 0.0
H2495 H 0.8863 0.05063 0.13987 0.0
C2496 C 0.73836 0.00978 0.9173 0.0
C2497 C 0.72759 0.00936 0.9356 0.0
C2498 C 0.73003 0.00189 0.89994 0.0
C2499 C 0.7126 0.9701 0.87156 0.0
H2500 H 0.65654 0.98113 0.86011 0.0
C2501 C 0.66341 0.91715 0.82628 0.0
C2502 C 0.64998 0.9257 0.81238 0.0
C2503 C 0.67434 0.92931 0.83893 0.0
C2504 C 0.67227 0.97808 0.86292 0.0
H2505 H 0.70027 0.9987 0.95018 0.0
H2506 H 0.68558 0.98597 0.92006 0.0
H2507 H 0.67309 -0.0003 0.88635 0.0
H2508 H 0.63765 0.9538 0.8008 0.0
H2509 H 0.65657 0.975 0.82314 0.0
H2510 H 0.71156 0.94798 0.84856 0.0
C2511 C 0.70017 0.99292 0.91895 0.0
C2512 C 0.6817 0.98863 0.878 0.0
C2513 C 0.70857 0.00048 0.93623 0.0
C2514 C 0.6478 0.94671 0.81138 0.0
C2515 C 0.65862 0.95887 0.82418 0.0
C2516 C 0.70309 0.95938 0.85659 0.0
C2517 C 0.71077 0.99352 0.90063 0.0
C2518 C 0.70182 0.98444 0.88275 0.0
C2519 C 0.67199 0.95028 0.83808 0.0
C2520 C 0.68272 0.963 0.8524 0.0
H2521 H 0.75322 0.01615 0.91645 0.0
H2522 H 0.73857 0.00235 0.88599 0.0
H2523 H 0.72808 0.96651 0.87501 0.0
H2524 H 0.66554 0.90103 0.82741 0.0
H2525 H 0.68432 0.92225 0.84969 0.0
C2526 C 0.28075 0.47109 0.92061 0.0
C2527 C 0.27917 0.45931 0.93817 0.0
C2528 C 0.29861 0.47149 0.90952 0.0
C2529 C 0.34002 0.43994 0.89517 0.0
H2530 H 0.35955 0.48902 0.87026 0.0
C2531 C 0.38935 0.43778 0.82354 0.0
C2532 C 0.38095 0.44967 0.8081 0.0
C2533 C 0.38332 0.44053 0.84357 0.0
C2534 C 0.35441 0.47517 0.87719 0.0
H2535 H 0.29517 0.439 0.95819 0.0
H2536 H 0.3265 0.43914 0.93819 0.0
H2537 H 0.33617 0.49083 0.89874 0.0
H2538 H 0.36119 0.47519 0.80204 0.0
H2539 H 0.35095 0.48 0.83651 0.0
H2540 H 0.35699 0.42427 0.87267 0.0
C2541 C 0.31388 0.44829 0.9333 0.0
C2542 C 0.3411 0.47622 0.89351 0.0
C2543 C 0.29603 0.44824 0.94471 0.0
C2544 C 0.3679 0.46556 0.8134 0.0
C2545 C 0.36205 0.46841 0.83331 0.0
C2546 C 0.35324 0.43888 0.8787 0.0
C2547 C 0.31525 0.45985 0.91553 0.0
C2548 C 0.33307 0.45865 0.90205 0.0
C2549 C 0.36914 0.45553 0.84857 0.0
C2550 C 0.35978 0.45651 0.86893 0.0
H2551 H 0.26805 0.47988 0.91527 0.0
H2552 H 0.29914 0.48031 0.89573 0.0
H2553 H 0.33398 0.42617 0.90143 0.0
H2554 H 0.40022 0.42608 0.82025 0.0
H2555 H 0.38937 0.43062 0.85507 0.0
C2556 C 0.33046 0.41847 0.67216 0.0
C2557 C 0.34426 0.42674 0.68539 0.0
C2558 C 0.3191 0.43083 0.6595 0.0
C2559 C 0.31789 0.47904 0.63355 0.0
H2560 H 0.26055 0.47018 0.63153 0.0
C2561 C 0.26815 0.52378 0.57822 0.0
C2562 C 0.2542 0.51237 0.56787 0.0
C2563 C 0.27775 0.51577 0.59512 0.0
C2564 C 0.27655 0.47277 0.63178 0.0
H2565 H 0.35732 0.4545 0.69527 0.0
H2566 H 0.33769 0.47613 0.67262 0.0
H2567 H 0.2809 0.45107 0.65539 0.0
H2568 H 0.23861 0.48408 0.56753 0.0
H2569 H 0.25548 0.46994 0.59665 0.0
H2570 H 0.31383 0.50001 0.60933 0.0
C2571 C 0.33562 0.46004 0.67232 0.0
C2572 C 0.28817 0.46187 0.6455 0.0
C2573 C 0.34682 0.44767 0.68526 0.0
C2574 C 0.2492 0.49327 0.57532 0.0
C2575 C 0.25889 0.48519 0.59208 0.0
C2576 C 0.30631 0.48978 0.61962 0.0
C2577 C 0.32144 0.45173 0.65956 0.0
C2578 C 0.30899 0.46464 0.64626 0.0
C2579 C 0.27363 0.49614 0.60194 0.0
C2580 C 0.28553 0.4865 0.61829 0.0
H2581 H 0.32805 0.40243 0.67188 0.0
H2582 H 0.30846 0.42403 0.64959 0.0
H2583 H 0.33395 0.48137 0.63379 0.0
H2584 H 0.272 0.5387 0.57295 0.0
H2585 H 0.28868 0.52481 0.6026 0.0
C2586 C 0.24174 0.48985 0.07067 0.0
C2587 C 0.23634 0.47037 0.06533 0.0
C2588 C 0.23154 0.49969 0.08616 0.0
C2589 C 0.1995 0.49417 0.13071 0.0
H2590 H 0.17804 0.54609 0.11409 0.0
C2591 C 0.14621 0.54128 0.18182 0.0
C2592 C 0.1489 0.56218 0.18145 0.0
C2593 C 0.15634 0.52907 0.16795 0.0
C2594 C 0.18413 0.53177 0.11913 0.0
H2595 H 0.21723 0.44528 0.07294 0.0
H2596 H 0.19947 0.46251 0.1004 0.0
H2597 H 0.19806 0.52641 0.09056 0.0
H2598 H 0.16458 0.58656 0.16638 0.0
H2599 H 0.18256 0.56538 0.14277 0.0
H2600 H 0.18603 0.49976 0.1595 0.0
C2601 C 0.21143 0.47018 0.09238 0.0
C2602 C 0.19555 0.52048 0.1056 0.0
C2603 C 0.22151 0.46038 0.07667 0.0
C2604 C 0.16195 0.57056 0.16697 0.0
C2605 C 0.17221 0.55837 0.15331 0.0
C2606 C 0.18827 0.50562 0.14441 0.0
C2607 C 0.21593 0.49016 0.09679 0.0
C2608 C 0.2035 0.50168 0.11129 0.0
C2609 C 0.16952 0.53747 0.15354 0.0
C2610 C 0.18061 0.52468 0.13884 0.0
H2611 H 0.25306 0.49793 0.06213 0.0
H2612 H 0.23544 0.51502 0.08944 0.0
H2613 H 0.2055 0.47969 0.13543 0.0
H2614 H 0.13623 0.53436 0.19278 0.0
H2615 H 0.15371 0.51307 0.16843 0.0
loop_
_geom_bond_atom_site_label_1
_geom_bond_atom_site_label_2
_geom_bond_distance
_geom_bond_site_symmetry_2
_ccdc_geom_bond_type
Co0 O3 1.970 . S
Co0 N17 1.989 . S
Co0 O25 1.967 . S
Co0 O32 1.920 . S
Co1 O4 1.966 . S
Co1 N10 2.022 . S
Co1 N18 1.993 . S
Co1 O26 1.941 . S
C2 O3 1.258 . S
C2 O4 1.263 . S
O3 Co0 1.970 . S
O3 C2 1.258 . S
O4 Co1 1.966 . S
O4 C2 1.263 . S
C5 O6 1.235 . S
C5 O32 1.289 . S
O6 C5 1.235 . S
C7 C9 1.400 . S
C7 N10 1.351 . S
C7 C12 1.501 . S
C8 C9 1.387 . S
C8 N11 1.341 . S
C9 C7 1.400 . S
C9 C8 1.387 . S
N10 Co1 2.022 . S
N10 C7 1.351 . S
N10 N11 1.365 . S
N11 C8 1.341 . S
N11 N10 1.365 . S
N11 H31 0.862 . S
C12 C7 1.501 . S
C12 H13 0.961 . S
C12 H14 0.961 . S
C12 H15 0.960 . S
H13 C12 0.961 . S
H14 C12 0.961 . S
H15 C12 0.960 . S
C16 N17 1.342 . S
C16 C20 1.401 . S
C16 C21 1.499 . S
N17 Co0 1.989 . S
N17 C16 1.342 . S
N17 N18 1.388 . S
N18 Co1 1.993 . S
N18 N17 1.388 . S
N18 C19 1.346 . S
C19 N18 1.346 . S
C19 C20 1.396 . S
C19 C29 1.510 . S
C20 C16 1.401 . S
C20 C19 1.396 . S
C21 C16 1.499 . S
C21 H22 0.959 . S
C21 H23 0.960 . S
C21 H24 0.961 . S
H22 C21 0.959 . S
H23 C21 0.960 . S
H24 C21 0.961 . S
O25 Co0 1.967 . S
O25 C33 1.258 . S
O26 Co1 1.941 . S
O26 C33 1.266 . S
H27 C29 0.959 . S
H28 C29 0.961 . S
C29 C19 1.510 . S
C29 H27 0.959 . S
C29 H28 0.961 . S
C29 H30 0.960 . S
H30 C29 0.960 . S
H31 N11 0.862 . S
O32 Co0 1.920 . S
O32 C5 1.289 . S
C33 O25 1.258 . S
C33 O26 1.266 . S
Co34 O37 1.970 . S
Co34 N51 1.989 . S
Co34 O59 1.967 . S
Co34 O66 1.920 . S
Co35 O38 1.966 . S
Co35 N44 2.022 . S
Co35 N52 1.993 . S
Co35 O60 1.941 . S
C36 O37 1.258 . S
C36 O38 1.263 . S
O37 Co34 1.970 . S
O37 C36 1.258 . S
O38 Co35 1.966 . S
O38 C36 1.263 . S
C39 O40 1.235 . S
C39 O66 1.289 . S
O40 C39 1.235 . S
C41 C43 1.400 . S
C41 N44 1.351 . S
C41 C46 1.501 . S
C42 C43 1.387 . S
C42 N45 1.341 . S
C43 C41 1.400 . S
C43 C42 1.387 . S
N44 Co35 2.022 . S
N44 C41 1.351 . S
N44 N45 1.365 . S
N45 C42 1.341 . S
N45 N44 1.365 . S
N45 H65 0.862 . S
C46 C41 1.501 . S
C46 H47 0.961 . S
C46 H48 0.961 . S
C46 H49 0.960 . S
H47 C46 0.961 . S
H48 C46 0.961 . S
H49 C46 0.960 . S
C50 N51 1.342 . S
C50 C54 1.401 . S
C50 C55 1.499 . S
N51 Co34 1.989 . S
N51 C50 1.342 . S
N51 N52 1.388 . S
N52 Co35 1.993 . S
N52 N51 1.388 . S
N52 C53 1.346 . S
C53 N52 1.346 . S
C53 C54 1.396 . S
C53 C63 1.510 . S
C54 C50 1.401 . S
C54 C53 1.396 . S
C55 C50 1.499 . S
C55 H56 0.959 . S
C55 H57 0.960 . S
C55 H58 0.961 . S
H56 C55 0.959 . S
H57 C55 0.960 . S
H58 C55 0.961 . S
O59 Co34 1.967 . S
O59 C67 1.258 . S
O60 Co35 1.941 . S
O60 C67 1.266 . S
H61 C63 0.959 . S
H62 C63 0.961 . S
C63 C53 1.510 . S
C63 H61 0.959 . S
C63 H62 0.961 . S
C63 H64 0.960 . S
H64 C63 0.960 . S
H65 N45 0.862 . S
O66 Co34 1.920 . S
O66 C39 1.289 . S
C67 O59 1.258 . S
C67 O60 1.266 . S
Co68 O71 1.970 . S
Co68 N85 1.989 . S
Co68 O93 1.967 . S
Co68 O100 1.920 . S
Co69 O72 1.966 . S
Co69 N78 2.022 . S
Co69 N86 1.993 . S
Co69 O94 1.941 . S
C70 O71 1.258 . S
C70 O72 1.263 . S
O71 Co68 1.970 . S
O71 C70 1.258 . S
O72 Co69 1.966 . S
O72 C70 1.263 . S
C73 O74 1.235 . S
C73 O100 1.289 . S
O74 C73 1.235 . S
C75 C77 1.400 . S
C75 N78 1.351 . S
C75 C80 1.501 . S
C76 C77 1.387 . S
C76 N79 1.341 . S
C77 C75 1.400 . S
C77 C76 1.387 . S
N78 Co69 2.022 . S
N78 C75 1.351 . S
N78 N79 1.365 . S
N79 C76 1.341 . S
N79 N78 1.365 . S
N79 H99 0.862 . S
C80 C75 1.501 . S
C80 H81 0.961 . S
C80 H82 0.961 . S
C80 H83 0.960 . S
H81 C80 0.961 . S
H82 C80 0.961 . S
H83 C80 0.960 . S
C84 N85 1.342 . S
C84 C88 1.401 . S
C84 C89 1.499 . S
N85 Co68 1.989 . S
N85 C84 1.342 . S
N85 N86 1.388 . S
N86 Co69 1.993 . S
N86 N85 1.388 . S
N86 C87 1.346 . S
C87 N86 1.346 . S
C87 C88 1.396 . S
C87 C97 1.510 . S
C88 C84 1.401 . S
C88 C87 1.396 . S
C89 C84 1.499 . S
C89 H90 0.959 . S
C89 H91 0.960 . S
C89 H92 0.961 . S
H90 C89 0.959 . S
H91 C89 0.960 . S
H92 C89 0.961 . S
O93 Co68 1.967 . S
O93 C101 1.258 . S
O94 Co69 1.941 . S
O94 C101 1.266 . S
H95 C97 0.959 . S
H96 C97 0.961 . S
C97 C87 1.510 . S
C97 H95 0.959 . S
C97 H96 0.961 . S
C97 H98 0.960 . S
H98 C97 0.960 . S
H99 N79 0.862 . S
O100 Co68 1.920 . S
O100 C73 1.289 . S
C101 O93 1.258 . S
C101 O94 1.266 . S
Co102 O105 1.970 . S
Co102 N119 1.989 1_655 S
Co102 O127 1.967 . S
Co102 O134 1.920 1_655 S
Co103 O106 1.966 . S
Co103 N112 2.022 . S
Co103 N120 1.993 1_655 S
Co103 O128 1.941 . S
C104 O105 1.258 . S
C104 O106 1.263 . S
O105 Co102 1.970 . S
O105 C104 1.258 . S
O106 Co103 1.966 . S
O106 C104 1.263 . S
C107 O108 1.235 1_455 S
C107 O134 1.289 . S
O108 C107 1.235 1_655 S
C109 C111 1.400 . S
C109 N112 1.351 . S
C109 C114 1.501 . S
C110 C111 1.387 1_455 S
C110 N113 1.341 . S
C111 C109 1.400 . S
C111 C110 1.387 1_655 S
N112 Co103 2.022 . S
N112 C109 1.351 . S
N112 N113 1.365 1_655 S
N113 C110 1.341 . S
N113 N112 1.365 1_455 S
N113 H133 0.862 . S
C114 C109 1.501 . S
C114 H115 0.961 . S
C114 H116 0.961 . S
C114 H117 0.960 . S
H115 C114 0.961 . S
H116 C114 0.961 . S
H117 C114 0.960 . S
C118 N119 1.342 . S
C118 C122 1.401 . S
C118 C123 1.499 . S
N119 Co102 1.989 1_455 S
N119 C118 1.342 . S
N119 N120 1.388 . S
N120 Co103 1.993 1_455 S
N120 N119 1.388 . S
N120 C121 1.346 . S
C121 N120 1.346 . S
C121 C122 1.396 . S
C121 C131 1.510 . S
C122 C118 1.401 . S
C122 C121 1.396 . S
C123 C118 1.499 . S
C123 H124 0.959 . S
C123 H125 0.960 . S
C123 H126 0.961 . S
H124 C123 0.959 . S
H125 C123 0.960 . S
H126 C123 0.961 . S
O127 Co102 1.967 . S
O127 C135 1.258 . S
O128 Co103 1.941 . S
O128 C135 1.266 . S
H129 C131 0.959 . S
H130 C131 0.961 . S
C131 C121 1.510 . S
C131 H129 0.959 . S
C131 H130 0.961 . S
C131 H132 0.960 . S
H132 C131 0.960 . S
H133 N113 0.862 . S
O134 Co102 1.920 1_455 S
O134 C107 1.289 . S
C135 O127 1.258 . S
C135 O128 1.266 . S
Co136 O139 1.970 . S
Co136 N153 1.989 . S
Co136 O161 1.967 . S
Co136 O168 1.920 . S
Co137 O140 1.966 . S
Co137 N146 2.022 . S
Co137 N154 1.993 . S
Co137 O162 1.941 . S
C138 O139 1.258 . S
C138 O140 1.263 . S
O139 Co136 1.970 . S
O139 C138 1.258 . S
O140 Co137 1.966 . S
O140 C138 1.263 . S
C141 O142 1.235 . S
C141 O168 1.289 . S
O142 C141 1.235 . S
C143 C145 1.400 . S
C143 N146 1.351 . S
C143 C148 1.501 . S
C144 C145 1.387 . S
C144 N147 1.341 . S
C145 C143 1.400 . S
C145 C144 1.387 . S
N146 Co137 2.022 . S
N146 C143 1.351 . S
N146 N147 1.365 . S
N147 C144 1.341 . S
N147 N146 1.365 . S
N147 H167 0.862 . S
C148 C143 1.501 . S
C148 H149 0.961 . S
C148 H150 0.961 . S
C148 H151 0.960 . S
H149 C148 0.961 . S
H150 C148 0.961 . S
H151 C148 0.960 . S
C152 N153 1.342 . S
C152 C156 1.401 . S
C152 C157 1.499 . S
N153 Co136 1.989 . S
N153 C152 1.342 . S
N153 N154 1.388 . S
N154 Co137 1.993 . S
N154 N153 1.388 . S
N154 C155 1.346 . S
C155 N154 1.346 . S
C155 C156 1.396 . S
C155 C165 1.510 . S
C156 C152 1.401 . S
C156 C155 1.396 . S
C157 C152 1.499 . S
C157 H158 0.959 . S
C157 H159 0.960 . S
C157 H160 0.961 . S
H158 C157 0.959 . S
H159 C157 0.960 . S
H160 C157 0.961 . S
O161 Co136 1.967 . S
O161 C169 1.258 . S
O162 Co137 1.941 . S
O162 C169 1.266 . S
H163 C165 0.959 . S
H164 C165 0.961 . S
C165 C155 1.510 . S
C165 H163 0.959 . S
C165 H164 0.961 . S
C165 H166 0.960 . S
H166 C165 0.960 . S
H167 N147 0.862 . S
O168 Co136 1.920 . S
O168 C141 1.289 . S
C169 O161 1.258 . S
C169 O162 1.266 . S
Co170 O173 1.970 . S
Co170 N187 1.989 . S
Co170 O195 1.967 . S
Co170 O202 1.920 . S
Co171 O174 1.966 . S
Co171 N180 2.022 1_565 S
Co171 N188 1.993 . S
Co171 O196 1.941 . S
C172 O173 1.258 . S
C172 O174 1.263 . S
O173 Co170 1.970 . S
O173 C172 1.258 . S
O174 Co171 1.966 . S
O174 C172 1.263 . S
C175 O176 1.235 . S
C175 O202 1.289 . S
O176 C175 1.235 . S
C177 C179 1.400 . S
C177 N180 1.351 . S
C177 C182 1.501 . S
C178 C179 1.387 . S
C178 N181 1.341 . S
C179 C177 1.400 . S
C179 C178 1.387 . S
N180 Co171 2.022 1_545 S
N180 C177 1.351 . S
N180 N181 1.365 . S
N181 C178 1.341 . S
N181 N180 1.365 . S
N181 H201 0.862 . S
C182 C177 1.501 . S
C182 H183 0.961 . S
C182 H184 0.961 . S
C182 H185 0.960 . S
H183 C182 0.961 . S
H184 C182 0.961 . S
H185 C182 0.960 . S
C186 N187 1.342 . S
C186 C190 1.401 . S
C186 C191 1.499 . S
N187 Co170 1.989 . S
N187 C186 1.342 . S
N187 N188 1.388 . S
N188 Co171 1.993 . S
N188 N187 1.388 . S
N188 C189 1.346 . S
C189 N188 1.346 . S
C189 C190 1.396 . S
C189 C199 1.510 1_565 S
C190 C186 1.401 . S
C190 C189 1.396 . S
C191 C186 1.499 . S
C191 H192 0.959 . S
C191 H193 0.960 . S
C191 H194 0.961 . S
H192 C191 0.959 . S
H193 C191 0.960 . S
H194 C191 0.961 . S
O195 Co170 1.967 . S
O195 C203 1.258 . S
O196 Co171 1.941 . S
O196 C203 1.266 . S
H197 C199 0.959 . S
H198 C199 0.961 . S
C199 C189 1.510 1_545 S
C199 H197 0.959 . S
C199 H198 0.961 . S
C199 H200 0.960 . S
H200 C199 0.960 . S
H201 N181 0.862 . S
O202 Co170 1.920 . S
O202 C175 1.289 . S
C203 O195 1.258 . S
C203 O196 1.266 . S
Co204 O207 1.970 . S
Co204 N221 1.989 . S
Co204 O229 1.967 . S
Co204 O236 1.920 . S
Co205 O208 1.966 . S
Co205 N214 2.022 . S
Co205 N222 1.993 . S
Co205 O230 1.941 . S
C206 O207 1.258 . S
C206 O208 1.263 . S
O207 Co204 1.970 . S
O207 C206 1.258 . S
O208 Co205 1.966 . S
O208 C206 1.263 . S
C209 O210 1.235 . S
C209 O236 1.289 . S
O210 C209 1.235 . S
C211 C213 1.400 . S
C211 N214 1.351 . S
C211 C216 1.501 . S
C212 C213 1.387 . S
C212 N215 1.341 . S
C213 C211 1.400 . S
C213 C212 1.387 . S
N214 Co205 2.022 . S
N214 C211 1.351 . S
N214 N215 1.365 . S
N215 C212 1.341 . S
N215 N214 1.365 . S
N215 H235 0.862 . S
C216 C211 1.501 . S
C216 H217 0.961 . S
C216 H218 0.961 . S
C216 H219 0.960 . S
H217 C216 0.961 . S
H218 C216 0.961 . S
H219 C216 0.960 . S
C220 N221 1.342 . S
C220 C224 1.401 . S
C220 C225 1.499 . S
N221 Co204 1.989 . S
N221 C220 1.342 . S
N221 N222 1.388 . S
N222 Co205 1.993 . S
N222 N221 1.388 . S
N222 C223 1.346 . S
C223 N222 1.346 . S
C223 C224 1.396 . S
C223 C233 1.510 . S
C224 C220 1.401 . S
C224 C223 1.396 . S
C225 C220 1.499 . S
C225 H226 0.959 . S
C225 H227 0.960 . S
C225 H228 0.961 . S
H226 C225 0.959 . S
H227 C225 0.960 . S
H228 C225 0.961 . S
O229 Co204 1.967 . S
O229 C237 1.258 . S
O230 Co205 1.941 . S
O230 C237 1.266 . S
H231 C233 0.959 . S
H232 C233 0.961 . S
C233 C223 1.510 . S
C233 H231 0.959 . S
C233 H232 0.961 . S
C233 H234 0.960 . S
H234 C233 0.960 . S
H235 N215 0.862 . S
O236 Co204 1.920 . S
O236 C209 1.289 . S
C237 O229 1.258 . S
C237 O230 1.266 . S
Co238 O241 1.970 . S
Co238 N255 1.989 1_455 S
Co238 O263 1.967 . S
Co238 O270 1.920 1_455 S
Co239 O242 1.966 . S
Co239 N248 2.022 1_545 S
Co239 N256 1.993 1_455 S
Co239 O264 1.941 . S
C240 O241 1.258 . S
C240 O242 1.263 . S
O241 Co238 1.970 . S
O241 C240 1.258 . S
O242 Co239 1.966 . S
O242 C240 1.263 . S
C243 O244 1.236 1_655 S
C243 O270 1.288 . S
O244 C243 1.236 1_455 S
C245 C247 1.400 . S
C245 N248 1.351 . S
C245 C250 1.501 . S
C246 C247 1.387 1_655 S
C246 N249 1.341 . S
C247 C245 1.400 . S
C247 C246 1.387 1_455 S
N248 Co239 2.022 1_565 S
N248 C245 1.351 . S
N248 N249 1.365 1_455 S
N249 C246 1.341 . S
N249 N248 1.365 1_655 S
N249 H269 0.862 . S
C250 C245 1.501 . S
C250 H251 0.961 . S
C250 H252 0.961 . S
C250 H253 0.960 . S
H251 C250 0.961 . S
H252 C250 0.961 . S
H253 C250 0.960 . S
C254 N255 1.342 . S
C254 C258 1.401 . S
C254 C259 1.499 . S
N255 Co238 1.989 1_655 S
N255 C254 1.342 . S
N255 N256 1.388 . S
N256 Co239 1.993 1_655 S
N256 N255 1.388 . S
N256 C257 1.346 . S
C257 N256 1.346 . S
C257 C258 1.396 . S
C257 C267 1.510 1_545 S
C258 C254 1.401 . S
C258 C257 1.396 . S
C259 C254 1.499 . S
C259 H260 0.959 . S
C259 H261 0.960 . S
C259 H262 0.961 . S
H260 C259 0.959 . S
H261 C259 0.960 . S
H262 C259 0.961 . S
O263 Co238 1.967 . S
O263 C271 1.258 . S
O264 Co239 1.941 . S
O264 C271 1.266 . S
H265 C267 0.959 . S
H266 C267 0.961 . S
C267 C257 1.510 1_565 S
C267 H265 0.959 . S
C267 H266 0.961 . S
C267 H268 0.960 . S
H268 C267 0.960 . S
H269 N249 0.862 . S
O270 Co238 1.920 1_655 S
O270 C243 1.288 . S
C271 O263 1.258 . S
C271 O264 1.266 . S
Co272 O275 1.970 . S
Co272 N289 1.989 . S
Co272 O297 1.967 . S
Co272 O304 1.920 . S
Co273 O276 1.966 . S
Co273 N282 2.022 . S
Co273 N290 1.993 . S
Co273 O298 1.941 . S
C274 O275 1.258 . S
C274 O276 1.263 . S
O275 Co272 1.970 . S
O275 C274 1.258 . S
O276 Co273 1.966 . S
O276 C274 1.263 . S
C277 O278 1.235 . S
C277 O304 1.289 . S
O278 C277 1.235 . S
C279 C281 1.400 . S
C279 N282 1.351 . S
C279 C284 1.501 . S
C280 C281 1.387 . S
C280 N283 1.341 . S
C281 C279 1.400 . S
C281 C280 1.387 . S
N282 Co273 2.022 . S
N282 C279 1.351 . S
N282 N283 1.365 . S
N283 C280 1.341 . S
N283 N282 1.365 . S
N283 H303 0.862 . S
C284 C279 1.501 . S
C284 H285 0.961 . S
C284 H286 0.961 . S
C284 H287 0.960 . S
H285 C284 0.961 . S
H286 C284 0.961 . S
H287 C284 0.960 . S
C288 N289 1.342 . S
C288 C292 1.401 . S
C288 C293 1.499 . S
N289 Co272 1.989 . S
N289 C288 1.342 . S
N289 N290 1.388 . S
N290 Co273 1.993 . S
N290 N289 1.388 . S
N290 C291 1.346 . S
C291 N290 1.346 . S
C291 C292 1.396 . S
C291 C301 1.510 . S
C292 C288 1.401 . S
C292 C291 1.396 . S
C293 C288 1.499 . S
C293 H294 0.959 . S
C293 H295 0.960 . S
C293 H296 0.961 . S
H294 C293 0.959 . S
H295 C293 0.960 . S
H296 C293 0.961 . S
O297 Co272 1.967 . S
O297 C305 1.258 . S
O298 Co273 1.941 . S
O298 C305 1.266 . S
H299 C301 0.959 . S
H300 C301 0.961 . S
C301 C291 1.510 . S
C301 H299 0.959 . S
C301 H300 0.961 . S
C301 H302 0.960 . S
H302 C301 0.960 . S
H303 N283 0.862 . S
O304 Co272 1.920 . S
O304 C277 1.289 . S
C305 O297 1.258 . S
C305 O298 1.266 . S
Co306 O309 1.970 . S
Co306 N323 1.989 1_556 S
Co306 O331 1.967 . S
Co306 O338 1.920 1_556 S
Co307 O310 1.966 . S
Co307 N316 2.022 . S
Co307 N324 1.993 1_556 S
Co307 O332 1.941 . S
C308 O309 1.258 . S
C308 O310 1.263 . S
O309 Co306 1.970 . S
O309 C308 1.258 . S
O310 Co307 1.966 . S
O310 C308 1.263 . S
C311 O312 1.235 1_554 S
C311 O338 1.289 . S
O312 C311 1.235 1_556 S
C313 C315 1.400 . S
C313 N316 1.351 . S
C313 C318 1.501 . S
C314 C315 1.387 1_554 S
C314 N317 1.341 . S
C315 C313 1.400 . S
C315 C314 1.387 1_556 S
N316 Co307 2.022 . S
N316 C313 1.351 . S
N316 N317 1.365 1_556 S
N317 C314 1.341 . S
N317 N316 1.365 1_554 S
N317 H337 0.862 . S
C318 C313 1.501 . S
C318 H319 0.961 . S
C318 H320 0.961 . S
C318 H321 0.960 . S
H319 C318 0.961 . S
H320 C318 0.961 . S
H321 C318 0.960 . S
C322 N323 1.342 . S
C322 C326 1.401 . S
C322 C327 1.499 . S
N323 Co306 1.989 1_554 S
N323 C322 1.342 . S
N323 N324 1.388 . S
N324 Co307 1.993 1_554 S
N324 N323 1.388 . S
N324 C325 1.346 . S
C325 N324 1.346 . S
C325 C326 1.396 . S
C325 C335 1.510 . S
C326 C322 1.401 . S
C326 C325 1.396 . S
C327 C322 1.499 . S
C327 H328 0.959 . S
C327 H329 0.960 . S
C327 H330 0.961 . S
H328 C327 0.959 . S
H329 C327 0.960 . S
H330 C327 0.961 . S
O331 Co306 1.967 . S
O331 C339 1.258 . S
O332 Co307 1.941 . S
O332 C339 1.266 . S
H333 C335 0.959 . S
H334 C335 0.961 . S
C335 C325 1.510 . S
C335 H333 0.959 . S
C335 H334 0.961 . S
C335 H336 0.960 . S
H336 C335 0.960 . S
H337 N317 0.862 . S
O338 Co306 1.920 1_554 S
O338 C311 1.289 . S
C339 O331 1.258 . S
C339 O332 1.266 . S
Co340 O343 1.970 . S
Co340 N357 1.989 . S
Co340 O365 1.967 . S
Co340 O372 1.920 . S
Co341 O344 1.966 . S
Co341 N350 2.022 . S
Co341 N358 1.993 . S
Co341 O366 1.941 . S
C342 O343 1.258 . S
C342 O344 1.263 . S
O343 Co340 1.970 . S
O343 C342 1.258 . S
O344 Co341 1.966 . S
O344 C342 1.263 . S
C345 O346 1.235 . S
C345 O372 1.289 . S
O346 C345 1.235 . S
C347 C349 1.400 . S
C347 N350 1.351 . S
C347 C352 1.501 . S
C348 C349 1.387 . S
C348 N351 1.341 . S
C349 C347 1.400 . S
C349 C348 1.387 . S
N350 Co341 2.022 . S
N350 C347 1.351 . S
N350 N351 1.365 . S
N351 C348 1.341 . S
N351 N350 1.365 . S
N351 H371 0.862 . S
C352 C347 1.501 . S
C352 H353 0.961 . S
C352 H354 0.961 . S
C352 H355 0.960 . S
H353 C352 0.961 . S
H354 C352 0.961 . S
H355 C352 0.960 . S
C356 N357 1.342 . S
C356 C360 1.401 . S
C356 C361 1.499 . S
N357 Co340 1.989 . S
N357 C356 1.342 . S
N357 N358 1.388 . S
N358 Co341 1.993 . S
N358 N357 1.388 . S
N358 C359 1.346 . S
C359 N358 1.346 . S
C359 C360 1.396 . S
C359 C369 1.510 . S
C360 C356 1.401 . S
C360 C359 1.396 . S
C361 C356 1.499 . S
C361 H362 0.959 . S
C361 H363 0.960 . S
C361 H364 0.961 . S
H362 C361 0.959 . S
H363 C361 0.960 . S
H364 C361 0.961 . S
O365 Co340 1.967 . S
O365 C373 1.258 . S
O366 Co341 1.941 . S
O366 C373 1.266 . S
H367 C369 0.959 . S
H368 C369 0.961 . S
C369 C359 1.510 . S
C369 H367 0.959 . S
C369 H368 0.961 . S
C369 H370 0.960 . S
H370 C369 0.960 . S
H371 N351 0.862 . S
O372 Co340 1.920 . S
O372 C345 1.289 . S
C373 O365 1.258 . S
C373 O366 1.266 . S
Co374 O377 1.970 . S
Co374 N391 1.989 . S
Co374 O399 1.967 . S
Co374 O406 1.920 . S
Co375 O378 1.966 . S
Co375 N384 2.022 1_655 S
Co375 N392 1.993 . S
Co375 O400 1.941 . S
C376 O377 1.258 . S
C376 O378 1.263 . S
O377 Co374 1.970 . S
O377 C376 1.258 . S
O378 Co375 1.966 . S
O378 C376 1.263 . S
C379 O380 1.235 . S
C379 O406 1.289 . S
O380 C379 1.235 . S
C381 C383 1.400 . S
C381 N384 1.351 . S
C381 C386 1.501 . S
C382 C383 1.387 . S
C382 N385 1.341 . S
C383 C381 1.400 . S
C383 C382 1.387 . S
N384 Co375 2.022 1_455 S
N384 C381 1.351 . S
N384 N385 1.365 . S
N385 C382 1.341 . S
N385 N384 1.365 . S
N385 H405 0.862 . S
C386 C381 1.501 . S
C386 H387 0.961 . S
C386 H388 0.961 . S
C386 H389 0.960 . S
H387 C386 0.961 . S
H388 C386 0.961 . S
H389 C386 0.960 . S
C390 N391 1.342 . S
C390 C394 1.401 . S
C390 C395 1.499 . S
N391 Co374 1.989 . S
N391 C390 1.342 . S
N391 N392 1.388 . S
N392 Co375 1.993 . S
N392 N391 1.388 . S
N392 C393 1.346 . S
C393 N392 1.346 . S
C393 C394 1.396 . S
C393 C403 1.510 1_655 S
C394 C390 1.401 . S
C394 C393 1.396 . S
C395 C390 1.499 . S
C395 H396 0.959 . S
C395 H397 0.960 . S
C395 H398 0.961 . S
H396 C395 0.959 . S
H397 C395 0.960 . S
H398 C395 0.961 . S
O399 Co374 1.967 . S
O399 C407 1.258 . S
O400 Co375 1.941 . S
O400 C407 1.266 . S
H401 C403 0.959 . S
H402 C403 0.961 . S
C403 C393 1.510 1_455 S
C403 H401 0.959 . S
C403 H402 0.961 . S
C403 H404 0.960 . S
H404 C403 0.960 . S
H405 N385 0.862 . S
O406 Co374 1.920 . S
O406 C379 1.289 . S
C407 O399 1.258 . S
C407 O400 1.266 . S
Co408 O411 1.970 . S
Co408 N425 1.989 . S
Co408 O433 1.967 . S
Co408 O440 1.920 . S
Co409 O412 1.966 . S
Co409 N418 2.022 . S
Co409 N426 1.993 . S
Co409 O434 1.941 . S
C410 O411 1.258 . S
C410 O412 1.263 . S
O411 Co408 1.970 . S
O411 C410 1.258 . S
O412 Co409 1.966 . S
O412 C410 1.263 . S
C413 O414 1.235 . S
C413 O440 1.289 . S
O414 C413 1.235 . S
C415 C417 1.400 . S
C415 N418 1.351 . S
C415 C420 1.501 . S
C416 C417 1.387 . S
C416 N419 1.341 . S
C417 C415 1.400 . S
C417 C416 1.387 . S
N418 Co409 2.022 . S
N418 C415 1.351 . S
N418 N419 1.365 . S
N419 C416 1.341 . S
N419 N418 1.365 . S
N419 H439 0.862 . S
C420 C415 1.501 . S
C420 H421 0.961 . S
C420 H422 0.961 . S
C420 H423 0.960 . S
H421 C420 0.961 . S
H422 C420 0.961 . S
H423 C420 0.960 . S
C424 N425 1.342 . S
C424 C428 1.401 . S
C424 C429 1.499 . S
N425 Co408 1.989 . S
N425 C424 1.342 . S
N425 N426 1.388 . S
N426 Co409 1.993 . S
N426 N425 1.388 . S
N426 C427 1.346 . S
C427 N426 1.346 . S
C427 C428 1.396 . S
C427 C437 1.510 . S
C428 C424 1.401 . S
C428 C427 1.396 . S
C429 C424 1.499 . S
C429 H430 0.959 . S
C429 H431 0.960 . S
C429 H432 0.961 . S
H430 C429 0.959 . S
H431 C429 0.960 . S
H432 C429 0.961 . S
O433 Co408 1.967 . S
O433 C441 1.258 . S
O434 Co409 1.941 . S
O434 C441 1.266 . S
H435 C437 0.959 . S
H436 C437 0.961 . S
C437 C427 1.510 . S
C437 H435 0.959 . S
C437 H436 0.961 . S
C437 H438 0.960 . S
H438 C437 0.960 . S
H439 N419 0.862 . S
O440 Co408 1.920 . S
O440 C413 1.289 . S
C441 O433 1.258 . S
C441 O434 1.266 . S
Co442 O445 1.970 . S
Co442 N459 1.989 . S
Co442 O467 1.967 . S
Co442 O474 1.920 . S
Co443 O446 1.966 . S
Co443 N452 2.022 . S
Co443 N460 1.993 . S
Co443 O468 1.941 . S
C444 O445 1.258 . S
C444 O446 1.263 . S
O445 Co442 1.970 . S
O445 C444 1.258 . S
O446 Co443 1.966 . S
O446 C444 1.263 . S
C447 O448 1.235 . S
C447 O474 1.289 . S
O448 C447 1.235 . S
C449 C451 1.400 . S
C449 N452 1.351 . S
C449 C454 1.501 . S
C450 C451 1.387 . S
C450 N453 1.341 . S
C451 C449 1.400 . S
C451 C450 1.387 . S
N452 Co443 2.022 . S
N452 C449 1.351 . S
N452 N453 1.365 . S
N453 C450 1.341 . S
N453 N452 1.365 . S
N453 H473 0.862 . S
C454 C449 1.501 . S
C454 H455 0.961 . S
C454 H456 0.961 . S
C454 H457 0.960 . S
H455 C454 0.961 . S
H456 C454 0.961 . S
H457 C454 0.960 . S
C458 N459 1.342 . S
C458 C462 1.401 . S
C458 C463 1.499 . S
N459 Co442 1.989 . S
N459 C458 1.342 . S
N459 N460 1.388 . S
N460 Co443 1.993 . S
N460 N459 1.388 . S
N460 C461 1.346 . S
C461 N460 1.346 . S
C461 C462 1.396 . S
C461 C471 1.510 . S
C462 C458 1.401 . S
C462 C461 1.396 . S
C463 C458 1.499 . S
C463 H464 0.959 . S
C463 H465 0.960 . S
C463 H466 0.961 . S
H464 C463 0.959 . S
H465 C463 0.960 . S
H466 C463 0.961 . S
O467 Co442 1.967 . S
O467 C475 1.258 . S
O468 Co443 1.941 . S
O468 C475 1.266 . S
H469 C471 0.959 . S
H470 C471 0.961 . S
C471 C461 1.510 . S
C471 H469 0.959 . S
C471 H470 0.961 . S
C471 H472 0.960 . S
H472 C471 0.960 . S
H473 N453 0.862 . S
O474 Co442 1.920 . S
O474 C447 1.289 . S
C475 O467 1.258 . S
C475 O468 1.266 . S
Co476 O479 1.970 . S
Co476 N493 1.989 . S
Co476 O501 1.967 . S
Co476 O508 1.920 . S
Co477 O480 1.966 . S
Co477 N486 2.022 . S
Co477 N494 1.993 . S
Co477 O502 1.941 . S
C478 O479 1.258 . S
C478 O480 1.263 . S
O479 Co476 1.970 . S
O479 C478 1.258 . S
O480 Co477 1.966 . S
O480 C478 1.263 . S
C481 O482 1.235 . S
C481 O508 1.289 . S
O482 C481 1.235 . S
C483 C485 1.400 . S
C483 N486 1.351 . S
C483 C488 1.501 . S
C484 C485 1.387 . S
C484 N487 1.341 . S
C485 C483 1.400 . S
C485 C484 1.387 . S
N486 Co477 2.022 . S
N486 C483 1.351 . S
N486 N487 1.365 . S
N487 C484 1.341 . S
N487 N486 1.365 . S
N487 H507 0.862 . S
C488 C483 1.501 . S
C488 H489 0.961 . S
C488 H490 0.961 . S
C488 H491 0.960 . S
H489 C488 0.961 . S
H490 C488 0.961 . S
H491 C488 0.960 . S
C492 N493 1.342 . S
C492 C496 1.401 . S
C492 C497 1.499 . S
N493 Co476 1.989 . S
N493 C492 1.342 . S
N493 N494 1.388 . S
N494 Co477 1.993 . S
N494 N493 1.388 . S
N494 C495 1.346 . S
C495 N494 1.346 . S
C495 C496 1.396 . S
C495 C505 1.510 . S
C496 C492 1.401 . S
C496 C495 1.396 . S
C497 C492 1.499 . S
C497 H498 0.959 . S
C497 H499 0.960 . S
C497 H500 0.961 . S
H498 C497 0.959 . S
H499 C497 0.960 . S
H500 C497 0.961 . S
O501 Co476 1.967 . S
O501 C509 1.258 . S
O502 Co477 1.941 . S
O502 C509 1.266 . S
H503 C505 0.959 . S
H504 C505 0.961 . S
C505 C495 1.510 . S
C505 H503 0.959 . S
C505 H504 0.961 . S
C505 H506 0.960 . S
H506 C505 0.960 . S
H507 N487 0.862 . S
O508 Co476 1.920 . S
O508 C481 1.289 . S
C509 O501 1.258 . S
C509 O502 1.266 . S
Co510 O513 1.970 . S
Co510 N527 1.989 1_554 S
Co510 O535 1.967 . S
Co510 O542 1.920 1_554 S
Co511 O514 1.966 . S
Co511 N520 2.022 1_455 S
Co511 N528 1.993 1_554 S
Co511 O536 1.941 . S
C512 O513 1.258 . S
C512 O514 1.263 . S
O513 Co510 1.970 . S
O513 C512 1.258 . S
O514 Co511 1.966 . S
O514 C512 1.263 . S
C515 O516 1.236 1_556 S
C515 O542 1.288 . S
O516 C515 1.236 1_554 S
C517 C519 1.400 . S
C517 N520 1.351 . S
C517 C522 1.501 . S
C518 C519 1.387 1_556 S
C518 N521 1.341 . S
C519 C517 1.400 . S
C519 C518 1.387 1_554 S
N520 Co511 2.022 1_655 S
N520 C517 1.351 . S
N520 N521 1.365 1_554 S
N521 C518 1.341 . S
N521 N520 1.365 1_556 S
N521 H541 0.862 . S
C522 C517 1.501 . S
C522 H523 0.961 . S
C522 H524 0.961 . S
C522 H525 0.960 . S
H523 C522 0.961 . S
H524 C522 0.961 . S
H525 C522 0.960 . S
C526 N527 1.342 . S
C526 C530 1.401 . S
C526 C531 1.499 . S
N527 Co510 1.989 1_556 S
N527 C526 1.342 . S
N527 N528 1.388 . S
N528 Co511 1.993 1_556 S
N528 N527 1.388 . S
N528 C529 1.346 . S
C529 N528 1.346 . S
C529 C530 1.396 . S
C529 C539 1.510 1_455 S
C530 C526 1.401 . S
C530 C529 1.396 . S
C531 C526 1.499 . S
C531 H532 0.959 . S
C531 H533 0.960 . S
C531 H534 0.961 . S
H532 C531 0.959 . S
H533 C531 0.960 . S
H534 C531 0.961 . S
O535 Co510 1.967 . S
O535 C543 1.258 . S
O536 Co511 1.941 . S
O536 C543 1.266 . S
H537 C539 0.959 . S
H538 C539 0.961 . S
C539 C529 1.510 1_655 S
C539 H537 0.959 . S
C539 H538 0.961 . S
C539 H540 0.960 . S
H540 C539 0.960 . S
H541 N521 0.862 . S
O542 Co510 1.920 1_556 S
O542 C515 1.288 . S
C543 O535 1.258 . S
C543 O536 1.266 . S
Co544 O547 1.970 . S
Co544 N561 1.989 . S
Co544 O569 1.967 . S
Co544 O576 1.920 . S
Co545 O548 1.966 . S
Co545 N554 2.022 . S
Co545 N562 1.993 . S
Co545 O570 1.941 . S
C546 O547 1.258 . S
C546 O548 1.263 . S
O547 Co544 1.970 . S
O547 C546 1.258 . S
O548 Co545 1.966 . S
O548 C546 1.263 . S
C549 O550 1.235 . S
C549 O576 1.289 . S
O550 C549 1.235 . S
C551 C553 1.400 . S
C551 N554 1.351 . S
C551 C556 1.501 . S
C552 C553 1.387 . S
C552 N555 1.341 . S
C553 C551 1.400 . S
C553 C552 1.387 . S
N554 Co545 2.022 . S
N554 C551 1.351 . S
N554 N555 1.365 . S
N555 C552 1.341 . S
N555 N554 1.365 . S
N555 H575 0.862 . S
C556 C551 1.501 . S
C556 H557 0.961 . S
C556 H558 0.961 . S
C556 H559 0.960 . S
H557 C556 0.961 . S
H558 C556 0.961 . S
H559 C556 0.960 . S
C560 N561 1.342 . S
C560 C564 1.401 . S
C560 C565 1.499 . S
N561 Co544 1.989 . S
N561 C560 1.342 . S
N561 N562 1.388 . S
N562 Co545 1.993 . S
N562 N561 1.388 . S
N562 C563 1.346 . S
C563 N562 1.346 . S
C563 C564 1.396 . S
C563 C573 1.510 . S
C564 C560 1.401 . S
C564 C563 1.396 . S
C565 C560 1.499 . S
C565 H566 0.959 . S
C565 H567 0.960 . S
C565 H568 0.961 . S
H566 C565 0.959 . S
H567 C565 0.960 . S
H568 C565 0.961 . S
O569 Co544 1.967 . S
O569 C577 1.258 . S
O570 Co545 1.941 . S
O570 C577 1.266 . S
H571 C573 0.959 . S
H572 C573 0.961 . S
C573 C563 1.510 . S
C573 H571 0.959 . S
C573 H572 0.961 . S
C573 H574 0.960 . S
H574 C573 0.960 . S
H575 N555 0.862 . S
O576 Co544 1.920 . S
O576 C549 1.289 . S
C577 O569 1.258 . S
C577 O570 1.266 . S
Co578 O581 1.970 . S
Co578 N595 1.989 . S
Co578 O603 1.967 . S
Co578 O610 1.920 . S
Co579 O582 1.966 . S
Co579 N588 2.022 . S
Co579 N596 1.993 . S
Co579 O604 1.941 . S
C580 O581 1.258 . S
C580 O582 1.263 . S
O581 Co578 1.970 . S
O581 C580 1.258 . S
O582 Co579 1.966 . S
O582 C580 1.263 . S
C583 O584 1.235 . S
C583 O610 1.289 . S
O584 C583 1.235 . S
C585 C587 1.400 . S
C585 N588 1.351 . S
C585 C590 1.501 . S
C586 C587 1.387 . S
C586 N589 1.341 . S
C587 C585 1.400 . S
C587 C586 1.387 . S
N588 Co579 2.022 . S
N588 C585 1.351 . S
N588 N589 1.365 . S
N589 C586 1.341 . S
N589 N588 1.365 . S
N589 H609 0.862 . S
C590 C585 1.501 . S
C590 H591 0.961 . S
C590 H592 0.961 . S
C590 H593 0.960 . S
H591 C590 0.961 . S
H592 C590 0.961 . S
H593 C590 0.960 . S
C594 N595 1.342 . S
C594 C598 1.401 . S
C594 C599 1.499 . S
N595 Co578 1.989 . S
N595 C594 1.342 . S
N595 N596 1.388 . S
N596 Co579 1.993 . S
N596 N595 1.388 . S
N596 C597 1.346 . S
C597 N596 1.346 . S
C597 C598 1.396 . S
C597 C607 1.510 . S
C598 C594 1.401 . S
C598 C597 1.396 . S
C599 C594 1.499 . S
C599 H600 0.959 . S
C599 H601 0.960 . S
C599 H602 0.961 . S
H600 C599 0.959 . S
H601 C599 0.960 . S
H602 C599 0.961 . S
O603 Co578 1.967 . S
O603 C611 1.258 . S
O604 Co579 1.941 . S
O604 C611 1.266 . S
H605 C607 0.959 . S
H606 C607 0.961 . S
C607 C597 1.510 . S
C607 H605 0.959 . S
C607 H606 0.961 . S
C607 H608 0.960 . S
H608 C607 0.960 . S
H609 N589 0.862 . S
O610 Co578 1.920 . S
O610 C583 1.289 . S
C611 O603 1.258 . S
C611 O604 1.266 . S
Co612 O615 1.970 . S
Co612 N629 1.989 1_565 S
Co612 O637 1.967 . S
Co612 O644 1.920 1_565 S
Co613 O616 1.966 . S
Co613 N622 2.022 . S
Co613 N630 1.993 1_565 S
Co613 O638 1.941 . S
C614 O615 1.258 . S
C614 O616 1.263 . S
O615 Co612 1.970 . S
O615 C614 1.258 . S
O616 Co613 1.966 . S
O616 C614 1.263 . S
C617 O618 1.235 1_545 S
C617 O644 1.289 . S
O618 C617 1.235 1_565 S
C619 C621 1.400 . S
C619 N622 1.351 . S
C619 C624 1.501 . S
C620 C621 1.387 1_545 S
C620 N623 1.341 . S
C621 C619 1.400 . S
C621 C620 1.387 1_565 S
N622 Co613 2.022 . S
N622 C619 1.351 . S
N622 N623 1.365 1_565 S
N623 C620 1.341 . S
N623 N622 1.365 1_545 S
N623 H643 0.862 . S
C624 C619 1.501 . S
C624 H625 0.961 . S
C624 H626 0.961 . S
C624 H627 0.960 . S
H625 C624 0.961 . S
H626 C624 0.961 . S
H627 C624 0.960 . S
C628 N629 1.342 . S
C628 C632 1.401 . S
C628 C633 1.499 . S
N629 Co612 1.989 1_545 S
N629 C628 1.342 . S
N629 N630 1.388 . S
N630 Co613 1.993 1_545 S
N630 N629 1.388 . S
N630 C631 1.346 . S
C631 N630 1.346 . S
C631 C632 1.396 . S
C631 C641 1.510 . S
C632 C628 1.401 . S
C632 C631 1.396 . S
C633 C628 1.499 . S
C633 H634 0.959 . S
C633 H635 0.960 . S
C633 H636 0.961 . S
H634 C633 0.959 . S
H635 C633 0.960 . S
H636 C633 0.961 . S
O637 Co612 1.967 . S
O637 C645 1.258 . S
O638 Co613 1.941 . S
O638 C645 1.266 . S
H639 C641 0.959 . S
H640 C641 0.961 . S
C641 C631 1.510 . S
C641 H639 0.959 . S
C641 H640 0.961 . S
C641 H642 0.960 . S
H642 C641 0.960 . S
H643 N623 0.862 . S
O644 Co612 1.920 1_545 S
O644 C617 1.289 . S
C645 O637 1.258 . S
C645 O638 1.266 . S
Co646 O649 1.970 . S
Co646 N663 1.989 . S
Co646 O671 1.967 . S
Co646 O678 1.920 . S
Co647 O650 1.966 . S
Co647 N656 2.022 . S
Co647 N664 1.993 . S
Co647 O672 1.941 . S
C648 O649 1.258 . S
C648 O650 1.263 . S
O649 Co646 1.970 . S
O649 C648 1.258 . S
O650 Co647 1.966 . S
O650 C648 1.263 . S
C651 O652 1.235 . S
C651 O678 1.289 . S
O652 C651 1.235 . S
C653 C655 1.400 . S
C653 N656 1.351 . S
C653 C658 1.501 . S
C654 C655 1.387 . S
C654 N657 1.341 . S
C655 C653 1.400 . S
C655 C654 1.387 . S
N656 Co647 2.022 . S
N656 C653 1.351 . S
N656 N657 1.365 . S
N657 C654 1.341 . S
N657 N656 1.365 . S
N657 H677 0.862 . S
C658 C653 1.501 . S
C658 H659 0.961 . S
C658 H660 0.961 . S
C658 H661 0.960 . S
H659 C658 0.961 . S
H660 C658 0.961 . S
H661 C658 0.960 . S
C662 N663 1.342 . S
C662 C666 1.401 . S
C662 C667 1.499 . S
N663 Co646 1.989 . S
N663 C662 1.342 . S
N663 N664 1.388 . S
N664 Co647 1.993 . S
N664 N663 1.388 . S
N664 C665 1.346 . S
C665 N664 1.346 . S
C665 C666 1.396 . S
C665 C675 1.510 . S
C666 C662 1.401 . S
C666 C665 1.396 . S
C667 C662 1.499 . S
C667 H668 0.959 . S
C667 H669 0.960 . S
C667 H670 0.961 . S
H668 C667 0.959 . S
H669 C667 0.960 . S
H670 C667 0.961 . S
O671 Co646 1.967 . S
O671 C679 1.258 . S
O672 Co647 1.941 . S
O672 C679 1.266 . S
H673 C675 0.959 . S
H674 C675 0.961 . S
C675 C665 1.510 . S
C675 H673 0.959 . S
C675 H674 0.961 . S
C675 H676 0.960 . S
H676 C675 0.960 . S
H677 N657 0.862 . S
O678 Co646 1.920 . S
O678 C651 1.289 . S
C679 O671 1.258 . S
C679 O672 1.266 . S
Co680 O683 1.970 . S
Co680 N697 1.989 1_545 S
Co680 O705 1.967 . S
Co680 O712 1.920 1_545 S
Co681 O684 1.966 . S
Co681 N690 2.022 1_554 S
Co681 N698 1.993 1_545 S
Co681 O706 1.941 . S
C682 O683 1.258 . S
C682 O684 1.263 . S
O683 Co680 1.970 . S
O683 C682 1.258 . S
O684 Co681 1.966 . S
O684 C682 1.263 . S
C685 O686 1.236 1_565 S
C685 O712 1.288 . S
O686 C685 1.236 1_545 S
C687 C689 1.400 . S
C687 N690 1.351 . S
C687 C692 1.501 . S
C688 C689 1.387 1_565 S
C688 N691 1.341 . S
C689 C687 1.400 . S
C689 C688 1.387 1_545 S
N690 Co681 2.022 1_556 S
N690 C687 1.351 . S
N690 N691 1.365 1_545 S
N691 C688 1.341 . S
N691 N690 1.365 1_565 S
N691 H711 0.862 . S
C692 C687 1.501 . S
C692 H693 0.961 . S
C692 H694 0.961 . S
C692 H695 0.960 . S
H693 C692 0.961 . S
H694 C692 0.961 . S
H695 C692 0.960 . S
C696 N697 1.342 . S
C696 C700 1.401 . S
C696 C701 1.499 . S
N697 Co680 1.989 1_565 S
N697 C696 1.342 . S
N697 N698 1.388 . S
N698 Co681 1.993 1_565 S
N698 N697 1.388 . S
N698 C699 1.346 . S
C699 N698 1.346 . S
C699 C700 1.396 . S
C699 C709 1.510 1_554 S
C700 C696 1.401 . S
C700 C699 1.396 . S
C701 C696 1.499 . S
C701 H702 0.959 . S
C701 H703 0.960 . S
C701 H704 0.961 . S
H702 C701 0.959 . S
H703 C701 0.960 . S
H704 C701 0.961 . S
O705 Co680 1.967 . S
O705 C713 1.258 . S
O706 Co681 1.941 . S
O706 C713 1.266 . S
H707 C709 0.959 . S
H708 C709 0.961 . S
C709 C699 1.510 1_556 S
C709 H707 0.959 . S
C709 H708 0.961 . S
C709 H710 0.960 . S
H710 C709 0.960 . S
H711 N691 0.862 . S
O712 Co680 1.920 1_565 S
O712 C685 1.288 . S
C713 O705 1.258 . S
C713 O706 1.266 . S
Co714 O717 1.970 . S
Co714 N731 1.989 . S
Co714 O739 1.967 . S
Co714 O746 1.920 . S
Co715 O718 1.966 . S
Co715 N724 2.022 . S
Co715 N732 1.993 . S
Co715 O740 1.941 . S
C716 O717 1.258 . S
C716 O718 1.263 . S
O717 Co714 1.970 . S
O717 C716 1.258 . S
O718 Co715 1.966 . S
O718 C716 1.263 . S
C719 O720 1.235 . S
C719 O746 1.289 . S
O720 C719 1.235 . S
C721 C723 1.400 . S
C721 N724 1.351 . S
C721 C726 1.501 . S
C722 C723 1.387 . S
C722 N725 1.341 . S
C723 C721 1.400 . S
C723 C722 1.387 . S
N724 Co715 2.022 . S
N724 C721 1.351 . S
N724 N725 1.365 . S
N725 C722 1.341 . S
N725 N724 1.365 . S
N725 H745 0.862 . S
C726 C721 1.501 . S
C726 H727 0.961 . S
C726 H728 0.961 . S
C726 H729 0.960 . S
H727 C726 0.961 . S
H728 C726 0.961 . S
H729 C726 0.960 . S
C730 N731 1.342 . S
C730 C734 1.401 . S
C730 C735 1.499 . S
N731 Co714 1.989 . S
N731 C730 1.342 . S
N731 N732 1.388 . S
N732 Co715 1.993 . S
N732 N731 1.388 . S
N732 C733 1.346 . S
C733 N732 1.346 . S
C733 C734 1.396 . S
C733 C743 1.510 . S
C734 C730 1.401 . S
C734 C733 1.396 . S
C735 C730 1.499 . S
C735 H736 0.959 . S
C735 H737 0.960 . S
C735 H738 0.961 . S
H736 C735 0.959 . S
H737 C735 0.960 . S
H738 C735 0.961 . S
O739 Co714 1.967 . S
O739 C747 1.258 . S
O740 Co715 1.941 . S
O740 C747 1.266 . S
H741 C743 0.959 . S
H742 C743 0.961 . S
C743 C733 1.510 . S
C743 H741 0.959 . S
C743 H742 0.961 . S
C743 H744 0.960 . S
H744 C743 0.960 . S
H745 N725 0.862 . S
O746 Co714 1.920 . S
O746 C719 1.289 . S
C747 O739 1.258 . S
C747 O740 1.266 . S
Co748 O751 1.970 . S
Co748 N765 1.989 . S
Co748 O773 1.967 . S
Co748 O780 1.920 . S
Co749 O752 1.966 . S
Co749 N758 2.022 . S
Co749 N766 1.993 . S
Co749 O774 1.941 . S
C750 O751 1.258 . S
C750 O752 1.263 . S
O751 Co748 1.970 . S
O751 C750 1.258 . S
O752 Co749 1.966 . S
O752 C750 1.263 . S
C753 O754 1.235 . S
C753 O780 1.289 . S
O754 C753 1.235 . S
C755 C757 1.400 . S
C755 N758 1.351 . S
C755 C760 1.501 . S
C756 C757 1.387 . S
C756 N759 1.341 . S
C757 C755 1.400 . S
C757 C756 1.387 . S
N758 Co749 2.022 . S
N758 C755 1.351 . S
N758 N759 1.365 . S
N759 C756 1.341 . S
N759 N758 1.365 . S
N759 H779 0.862 . S
C760 C755 1.501 . S
C760 H761 0.961 . S
C760 H762 0.961 . S
C760 H763 0.960 . S
H761 C760 0.961 . S
H762 C760 0.961 . S
H763 C760 0.960 . S
C764 N765 1.342 . S
C764 C768 1.401 . S
C764 C769 1.499 . S
N765 Co748 1.989 . S
N765 C764 1.342 . S
N765 N766 1.388 . S
N766 Co749 1.993 . S
N766 N765 1.388 . S
N766 C767 1.346 . S
C767 N766 1.346 . S
C767 C768 1.396 . S
C767 C777 1.510 . S
C768 C764 1.401 . S
C768 C767 1.396 . S
C769 C764 1.499 . S
C769 H770 0.959 . S
C769 H771 0.960 . S
C769 H772 0.961 . S
H770 C769 0.959 . S
H771 C769 0.960 . S
H772 C769 0.961 . S
O773 Co748 1.967 . S
O773 C781 1.258 . S
O774 Co749 1.941 . S
O774 C781 1.266 . S
H775 C777 0.959 . S
H776 C777 0.961 . S
C777 C767 1.510 . S
C777 H775 0.959 . S
C777 H776 0.961 . S
C777 H778 0.960 . S
H778 C777 0.960 . S
H779 N759 0.862 . S
O780 Co748 1.920 . S
O780 C753 1.289 . S
C781 O773 1.258 . S
C781 O774 1.266 . S
Co782 O785 1.970 . S
Co782 N799 1.989 . S
Co782 O807 1.967 . S
Co782 O814 1.920 . S
Co783 O786 1.966 . S
Co783 N792 2.022 1_556 S
Co783 N800 1.993 . S
Co783 O808 1.941 . S
C784 O785 1.258 . S
C784 O786 1.263 . S
O785 Co782 1.970 . S
O785 C784 1.258 . S
O786 Co783 1.966 . S
O786 C784 1.263 . S
C787 O788 1.235 . S
C787 O814 1.289 . S
O788 C787 1.235 . S
C789 C791 1.400 . S
C789 N792 1.351 . S
C789 C794 1.501 . S
C790 C791 1.387 . S
C790 N793 1.341 . S
C791 C789 1.400 . S
C791 C790 1.387 . S
N792 Co783 2.022 1_554 S
N792 C789 1.351 . S
N792 N793 1.365 . S
N793 C790 1.341 . S
N793 N792 1.365 . S
N793 H813 0.862 . S
C794 C789 1.501 . S
C794 H795 0.961 . S
C794 H796 0.961 . S
C794 H797 0.960 . S
H795 C794 0.961 . S
H796 C794 0.961 . S
H797 C794 0.960 . S
C798 N799 1.342 . S
C798 C802 1.401 . S
C798 C803 1.499 . S
N799 Co782 1.989 . S
N799 C798 1.342 . S
N799 N800 1.388 . S
N800 Co783 1.993 . S
N800 N799 1.388 . S
N800 C801 1.346 . S
C801 N800 1.346 . S
C801 C802 1.396 . S
C801 C811 1.510 1_556 S
C802 C798 1.401 . S
C802 C801 1.396 . S
C803 C798 1.499 . S
C803 H804 0.959 . S
C803 H805 0.960 . S
C803 H806 0.961 . S
H804 C803 0.959 . S
H805 C803 0.960 . S
H806 C803 0.961 . S
O807 Co782 1.967 . S
O807 C815 1.258 . S
O808 Co783 1.941 . S
O808 C815 1.266 . S
H809 C811 0.959 . S
H810 C811 0.961 . S
C811 C801 1.510 1_554 S
C811 H809 0.959 . S
C811 H810 0.961 . S
C811 H812 0.960 . S
H812 C811 0.960 . S
H813 N793 0.862 . S
O814 Co782 1.920 . S
O814 C787 1.289 . S
C815 O807 1.258 . S
C815 O808 1.266 . S
C816 C817 1.349 . S
C816 C818 1.327 . S
C816 H841 0.950 . S
C817 C816 1.349 . S
C817 C833 1.349 . S
C818 C816 1.327 . S
C818 C837 1.429 . S
C818 H842 0.950 . S
C819 C836 1.574 . S
C819 C838 1.368 . S
C819 H843 0.949 . S
H820 C824 0.949 . S
C821 C822 1.349 . S
C821 C823 1.327 . S
C821 H844 0.950 . S
C822 C821 1.349 . S
C822 C834 1.349 . S
C823 C821 1.327 . S
C823 C839 1.429 . S
C823 H845 0.950 . S
C824 H820 0.949 . S
C824 C832 1.574 . S
C824 C840 1.368 . S
H825 C833 0.950 . S
H826 C831 0.950 . S
H827 C832 0.949 . S
H828 C834 0.950 . S
H829 C835 0.950 . S
H830 C836 0.949 . S
C831 H826 0.950 . S
C831 C833 1.327 . S
C831 C837 1.429 . S
C832 C824 1.574 . S
C832 H827 0.949 . S
C832 C838 1.368 . S
C833 C817 1.349 . S
C833 H825 0.950 . S
C833 C831 1.327 . S
C834 C822 1.349 . S
C834 H828 0.950 . S
C834 C835 1.327 . S
C835 H829 0.950 . S
C835 C834 1.327 . S
C835 C839 1.429 . S
C836 C819 1.574 . S
C836 H830 0.949 . S
C836 C840 1.368 . S
C837 C818 1.429 . S
C837 C831 1.429 . S
C837 C838 1.523 . S
C838 C819 1.368 . S
C838 C832 1.368 . S
C838 C837 1.523 . S
C839 C823 1.429 . S
C839 C835 1.429 . S
C839 C840 1.523 . S
C840 C824 1.368 . S
C840 C836 1.368 . S
C840 C839 1.523 . S
H841 C816 0.950 . S
H842 C818 0.950 . S
H843 C819 0.949 . S
H844 C821 0.950 . S
H845 C823 0.950 . S
C846 C847 1.349 . S
C846 C848 1.327 . S
C846 H871 0.950 . S
C847 C846 1.349 . S
C847 C863 1.349 . S
C848 C846 1.327 . S
C848 C867 1.429 . S
C848 H872 0.950 . S
C849 C866 1.574 . S
C849 C868 1.368 . S
C849 H873 0.949 . S
H850 C854 0.949 . S
C851 C852 1.349 . S
C851 C853 1.327 . S
C851 H874 0.950 . S
C852 C851 1.349 . S
C852 C864 1.349 . S
C853 C851 1.327 . S
C853 C869 1.429 . S
C853 H875 0.950 . S
C854 H850 0.949 . S
C854 C862 1.574 . S
C854 C870 1.368 . S
H855 C863 0.950 . S
H856 C861 0.950 . S
H857 C862 0.949 . S
H858 C864 0.950 . S
H859 C865 0.950 . S
H860 C866 0.949 . S
C861 H856 0.950 . S
C861 C863 1.327 . S
C861 C867 1.429 . S
C862 C854 1.574 . S
C862 H857 0.949 . S
C862 C868 1.368 . S
C863 C847 1.349 . S
C863 H855 0.950 . S
C863 C861 1.327 . S
C864 C852 1.349 . S
C864 H858 0.950 . S
C864 C865 1.327 . S
C865 H859 0.950 . S
C865 C864 1.327 . S
C865 C869 1.429 . S
C866 C849 1.574 . S
C866 H860 0.949 . S
C866 C870 1.368 . S
C867 C848 1.429 . S
C867 C861 1.429 . S
C867 C868 1.523 . S
C868 C849 1.368 . S
C868 C862 1.368 . S
C868 C867 1.523 . S
C869 C853 1.429 . S
C869 C865 1.429 . S
C869 C870 1.523 . S
C870 C854 1.368 . S
C870 C866 1.368 . S
C870 C869 1.523 . S
H871 C846 0.950 . S
H872 C848 0.950 . S
H873 C849 0.949 . S
H874 C851 0.950 . S
H875 C853 0.950 . S
C876 C877 1.349 . S
C876 C878 1.327 . S
C876 H901 0.950 . S
C877 C876 1.349 . S
C877 C893 1.349 . S
C878 C876 1.327 . S
C878 C897 1.429 . S
C878 H902 0.950 . S
C879 C896 1.574 . S
C879 C898 1.368 . S
C879 H903 0.949 . S
H880 C884 0.949 . S
C881 C882 1.349 . S
C881 C883 1.327 . S
C881 H904 0.950 . S
C882 C881 1.349 . S
C882 C894 1.349 . S
C883 C881 1.327 . S
C883 C899 1.429 . S
C883 H905 0.950 . S
C884 H880 0.949 . S
C884 C892 1.574 . S
C884 C900 1.368 . S
H885 C893 0.950 . S
H886 C891 0.950 . S
H887 C892 0.949 . S
H888 C894 0.950 . S
H889 C895 0.950 . S
H890 C896 0.949 . S
C891 H886 0.950 . S
C891 C893 1.327 . S
C891 C897 1.429 . S
C892 C884 1.574 . S
C892 H887 0.949 . S
C892 C898 1.368 . S
C893 C877 1.349 . S
C893 H885 0.950 . S
C893 C891 1.327 . S
C894 C882 1.349 . S
C894 H888 0.950 . S
C894 C895 1.327 . S
C895 H889 0.950 . S
C895 C894 1.327 . S
C895 C899 1.429 . S
C896 C879 1.574 . S
C896 H890 0.949 . S
C896 C900 1.368 . S
C897 C878 1.429 . S
C897 C891 1.429 . S
C897 C898 1.523 . S
C898 C879 1.368 . S
C898 C892 1.368 . S
C898 C897 1.523 . S
C899 C883 1.429 . S
C899 C895 1.429 . S
C899 C900 1.523 . S
C900 C884 1.368 . S
C900 C896 1.368 . S
C900 C899 1.523 . S
H901 C876 0.950 . S
H902 C878 0.950 . S
H903 C879 0.949 . S
H904 C881 0.950 . S
H905 C883 0.950 . S
C906 C907 1.349 . S
C906 C908 1.327 . S
C906 H931 0.950 . S
C907 C906 1.349 . S
C907 C923 1.349 . S
C908 C906 1.327 . S
C908 C927 1.429 . S
C908 H932 0.950 . S
C909 C926 1.574 . S
C909 C928 1.368 . S
C909 H933 0.949 . S
H910 C914 0.949 . S
C911 C912 1.349 . S
C911 C913 1.327 . S
C911 H934 0.950 . S
C912 C911 1.349 . S
C912 C924 1.349 . S
C913 C911 1.327 . S
C913 C929 1.429 . S
C913 H935 0.950 . S
C914 H910 0.949 . S
C914 C922 1.574 . S
C914 C930 1.368 . S
H915 C923 0.950 . S
H916 C921 0.950 . S
H917 C922 0.949 . S
H918 C924 0.950 . S
H919 C925 0.950 . S
H920 C926 0.949 . S
C921 H916 0.950 . S
C921 C923 1.327 . S
C921 C927 1.429 . S
C922 C914 1.574 . S
C922 H917 0.949 . S
C922 C928 1.368 . S
C923 C907 1.349 . S
C923 H915 0.950 . S
C923 C921 1.327 . S
C924 C912 1.349 . S
C924 H918 0.950 . S
C924 C925 1.327 . S
C925 H919 0.950 . S
C925 C924 1.327 . S
C925 C929 1.429 . S
C926 C909 1.574 . S
C926 H920 0.949 . S
C926 C930 1.368 . S
C927 C908 1.429 . S
C927 C921 1.429 . S
C927 C928 1.523 . S
C928 C909 1.368 . S
C928 C922 1.368 . S
C928 C927 1.523 . S
C929 C913 1.429 . S
C929 C925 1.429 . S
C929 C930 1.523 . S
C930 C914 1.368 . S
C930 C926 1.368 . S
C930 C929 1.523 . S
H931 C906 0.950 . S
H932 C908 0.950 . S
H933 C909 0.949 . S
H934 C911 0.950 . S
H935 C913 0.950 . S
C936 C937 1.349 . S
C936 C938 1.327 . S
C936 H961 0.950 . S
C937 C936 1.349 . S
C937 C953 1.349 . S
C938 C936 1.327 . S
C938 C957 1.429 . S
C938 H962 0.950 . S
C939 C956 1.574 . S
C939 C958 1.368 . S
C939 H963 0.949 . S
H940 C944 0.949 . S
C941 C942 1.349 . S
C941 C943 1.327 . S
C941 H964 0.950 . S
C942 C941 1.349 . S
C942 C954 1.349 . S
C943 C941 1.327 . S
C943 C959 1.429 . S
C943 H965 0.950 . S
C944 H940 0.949 . S
C944 C952 1.574 . S
C944 C960 1.368 . S
H945 C953 0.950 . S
H946 C951 0.950 . S
H947 C952 0.949 . S
H948 C954 0.950 . S
H949 C955 0.950 . S
H950 C956 0.949 . S
C951 H946 0.950 . S
C951 C953 1.327 . S
C951 C957 1.429 . S
C952 C944 1.574 . S
C952 H947 0.949 . S
C952 C958 1.368 . S
C953 C937 1.349 . S
C953 H945 0.950 . S
C953 C951 1.327 . S
C954 C942 1.349 . S
C954 H948 0.950 . S
C954 C955 1.327 . S
C955 H949 0.950 . S
C955 C954 1.327 . S
C955 C959 1.429 . S
C956 C939 1.574 . S
C956 H950 0.949 . S
C956 C960 1.368 . S
C957 C938 1.429 . S
C957 C951 1.429 . S
C957 C958 1.523 . S
C958 C939 1.368 . S
C958 C952 1.368 . S
C958 C957 1.523 . S
C959 C943 1.429 . S
C959 C955 1.429 . S
C959 C960 1.523 . S
C960 C944 1.368 . S
C960 C956 1.368 . S
C960 C959 1.523 . S
H961 C936 0.950 . S
H962 C938 0.950 . S
H963 C939 0.949 . S
H964 C941 0.950 . S
H965 C943 0.950 . S
C966 C967 1.371 . S
C966 C968 1.327 . S
C966 H991 0.950 . S
C967 C966 1.371 . S
C967 C983 1.331 1_565 S
C968 C966 1.327 . S
C968 C987 1.429 . S
C968 H992 0.950 . S
C969 C986 1.574 . S
C969 C988 1.368 1_545 S
C969 H993 0.949 . S
H970 C974 0.949 . S
C971 C972 1.349 . S
C971 C973 1.327 . S
C971 H994 0.950 1_565 S
C972 C971 1.349 . S
C972 C984 1.349 . S
C973 C971 1.327 . S
C973 C989 1.429 . S
C973 H995 0.950 1_565 S
C974 H970 0.949 . S
C974 C982 1.574 . S
C974 C990 1.368 . S
H975 C983 0.950 . S
H976 C981 0.950 . S
H977 C982 0.949 . S
H978 C984 0.950 . S
H979 C985 0.950 . S
H980 C986 0.949 . S
C981 H976 0.950 . S
C981 C983 1.327 . S
C981 C987 1.429 1_545 S
C982 C974 1.574 . S
C982 H977 0.949 . S
C982 C988 1.368 . S
C983 C967 1.331 1_545 S
C983 H975 0.950 . S
C983 C981 1.327 . S
C984 C972 1.349 . S
C984 H978 0.950 . S
C984 C985 1.327 . S
C985 H979 0.950 . S
C985 C984 1.327 . S
C985 C989 1.429 . S
C986 C969 1.574 . S
C986 H980 0.949 . S
C986 C990 1.368 1_545 S
C987 C968 1.429 . S
C987 C981 1.429 1_565 S
C987 C988 1.523 . S
C988 C969 1.368 1_565 S
C988 C982 1.368 . S
C988 C987 1.523 . S
C989 C973 1.429 . S
C989 C985 1.429 . S
C989 C990 1.523 . S
C990 C974 1.368 . S
C990 C986 1.368 1_565 S
C990 C989 1.523 . S
H991 C966 0.950 . S
H992 C968 0.950 . S
H993 C969 0.949 . S
H994 C971 0.950 1_545 S
H995 C973 0.950 1_545 S
C996 C997 1.349 . S
C996 C998 1.327 . S
C996 H1021 0.950 . S
C997 C996 1.349 . S
C997 C1013 1.349 . S
C998 C996 1.327 . S
C998 C1017 1.429 . S
C998 H1022 0.950 . S
C999 C1016 1.574 . S
C999 C1018 1.368 . S
C999 H1023 0.949 . S
H1000 C1004 0.949 . S
C1001 C1002 1.349 . S
C1001 C1003 1.327 . S
C1001 H1024 0.950 . S
C1002 C1001 1.349 . S
C1002 C1014 1.349 . S
C1003 C1001 1.327 . S
C1003 C1019 1.429 . S
C1003 H1025 0.950 . S
C1004 H1000 0.949 . S
C1004 C1012 1.574 . S
C1004 C1020 1.368 . S
H1005 C1013 0.950 . S
H1006 C1011 0.950 . S
H1007 C1012 0.949 . S
H1008 C1014 0.950 . S
H1009 C1015 0.950 . S
H1010 C1016 0.949 . S
C1011 H1006 0.950 . S
C1011 C1013 1.327 . S
C1011 C1017 1.429 . S
C1012 C1004 1.574 . S
C1012 H1007 0.949 . S
C1012 C1018 1.368 . S
C1013 C997 1.349 . S
C1013 H1005 0.950 . S
C1013 C1011 1.327 . S
C1014 C1002 1.349 . S
C1014 H1008 0.950 . S
C1014 C1015 1.327 . S
C1015 H1009 0.950 . S
C1015 C1014 1.327 . S
C1015 C1019 1.429 . S
C1016 C999 1.574 . S
C1016 H1010 0.949 . S
C1016 C1020 1.368 . S
C1017 C998 1.429 . S
C1017 C1011 1.429 . S
C1017 C1018 1.523 . S
C1018 C999 1.368 . S
C1018 C1012 1.368 . S
C1018 C1017 1.523 . S
C1019 C1003 1.429 . S
C1019 C1015 1.429 . S
C1019 C1020 1.523 . S
C1020 C1004 1.368 . S
C1020 C1016 1.368 . S
C1020 C1019 1.523 . S
H1021 C996 0.950 . S
H1022 C998 0.950 . S
H1023 C999 0.949 . S
H1024 C1001 0.950 . S
H1025 C1003 0.950 . S
C1026 C1027 1.349 1_565 S
C1026 C1028 1.327 . S
C1026 H1051 0.950 . S
C1027 C1026 1.349 1_545 S
C1027 C1043 1.349 . S
C1028 C1026 1.327 . S
C1028 C1047 1.429 1_565 S
C1028 H1052 0.950 . S
C1029 C1046 1.574 . S
C1029 C1048 1.368 . S
C1029 H1053 0.949 . S
H1030 C1034 0.949 . S
C1031 C1032 1.349 . S
C1031 C1033 1.327 . S
C1031 H1054 0.950 . S
C1032 C1031 1.349 . S
C1032 C1044 1.349 . S
C1033 C1031 1.327 . S
C1033 C1049 1.429 . S
C1033 H1055 0.950 . S
C1034 H1030 0.949 . S
C1034 C1042 1.574 . S
C1034 C1050 1.368 1_565 S
H1035 C1043 0.950 . S
H1036 C1041 0.950 . S
H1037 C1042 0.949 . S
H1038 C1044 0.950 1_565 S
H1039 C1045 0.950 1_565 S
H1040 C1046 0.949 . S
C1041 H1036 0.950 . S
C1041 C1043 1.327 . S
C1041 C1047 1.429 . S
C1042 C1034 1.574 . S
C1042 H1037 0.949 . S
C1042 C1048 1.368 1_565 S
C1043 C1027 1.349 . S
C1043 H1035 0.950 . S
C1043 C1041 1.327 . S
C1044 C1032 1.349 . S
C1044 H1038 0.950 1_545 S
C1044 C1045 1.327 . S
C1045 H1039 0.950 1_545 S
C1045 C1044 1.327 . S
C1045 C1049 1.429 . S
C1046 C1029 1.574 . S
C1046 H1040 0.949 . S
C1046 C1050 1.368 . S
C1047 C1028 1.429 1_545 S
C1047 C1041 1.429 . S
C1047 C1048 1.523 . S
C1048 C1029 1.368 . S
C1048 C1042 1.368 1_545 S
C1048 C1047 1.523 . S
C1049 C1033 1.429 . S
C1049 C1045 1.429 . S
C1049 C1050 1.523 . S
C1050 C1034 1.368 1_545 S
C1050 C1046 1.368 . S
C1050 C1049 1.523 . S
H1051 C1026 0.950 . S
H1052 C1028 0.950 . S
H1053 C1029 0.949 . S
H1054 C1031 0.950 . S
H1055 C1033 0.950 . S
C1056 C1057 1.349 . S
C1056 C1058 1.327 . S
C1056 H1081 0.950 . S
C1057 C1056 1.349 . S
C1057 C1073 1.349 . S
C1058 C1056 1.327 . S
C1058 C1077 1.429 . S
C1058 H1082 0.950 . S
C1059 C1076 1.574 . S
C1059 C1078 1.368 . S
C1059 H1083 0.949 . S
H1060 C1064 0.949 . S
C1061 C1062 1.349 . S
C1061 C1063 1.327 . S
C1061 H1084 0.950 . S
C1062 C1061 1.349 . S
C1062 C1074 1.349 . S
C1063 C1061 1.327 . S
C1063 C1079 1.429 . S
C1063 H1085 0.950 . S
C1064 H1060 0.949 . S
C1064 C1072 1.574 . S
C1064 C1080 1.368 . S
H1065 C1073 0.950 . S
H1066 C1071 0.950 . S
H1067 C1072 0.949 . S
H1068 C1074 0.950 . S
H1069 C1075 0.950 . S
H1070 C1076 0.949 . S
C1071 H1066 0.950 . S
C1071 C1073 1.327 . S
C1071 C1077 1.429 . S
C1072 C1064 1.574 . S
C1072 H1067 0.949 . S
C1072 C1078 1.368 . S
C1073 C1057 1.349 . S
C1073 H1065 0.950 . S
C1073 C1071 1.327 . S
C1074 C1062 1.349 . S
C1074 H1068 0.950 . S
C1074 C1075 1.327 . S
C1075 H1069 0.950 . S
C1075 C1074 1.327 . S
C1075 C1079 1.429 . S
C1076 C1059 1.574 . S
C1076 H1070 0.949 . S
C1076 C1080 1.368 . S
C1077 C1058 1.429 . S
C1077 C1071 1.429 . S
C1077 C1078 1.523 . S
C1078 C1059 1.368 . S
C1078 C1072 1.368 . S
C1078 C1077 1.523 . S
C1079 C1063 1.429 . S
C1079 C1075 1.429 . S
C1079 C1080 1.523 . S
C1080 C1064 1.368 . S
C1080 C1076 1.368 . S
C1080 C1079 1.523 . S
H1081 C1056 0.950 . S
H1082 C1058 0.950 . S
H1083 C1059 0.949 . S
H1084 C1061 0.950 . S
H1085 C1063 0.950 . S
C1086 C1087 1.349 . S
C1086 C1088 1.327 . S
C1086 H1111 0.950 . S
C1087 C1086 1.349 . S
C1087 C1103 1.349 . S
C1088 C1086 1.327 . S
C1088 C1107 1.429 . S
C1088 H1112 0.950 . S
C1089 C1106 1.574 . S
C1089 C1108 1.368 . S
C1089 H1113 0.949 . S
H1090 C1094 0.949 . S
C1091 C1092 1.349 . S
C1091 C1093 1.327 . S
C1091 H1114 0.950 . S
C1092 C1091 1.349 . S
C1092 C1104 1.349 . S
C1093 C1091 1.327 . S
C1093 C1109 1.429 . S
C1093 H1115 0.950 . S
C1094 H1090 0.949 . S
C1094 C1102 1.574 . S
C1094 C1110 1.368 . S
H1095 C1103 0.950 . S
H1096 C1101 0.950 . S
H1097 C1102 0.949 . S
H1098 C1104 0.950 . S
H1099 C1105 0.950 . S
H1100 C1106 0.949 . S
C1101 H1096 0.950 . S
C1101 C1103 1.327 . S
C1101 C1107 1.429 . S
C1102 C1094 1.574 . S
C1102 H1097 0.949 . S
C1102 C1108 1.368 . S
C1103 C1087 1.349 . S
C1103 H1095 0.950 . S
C1103 C1101 1.327 . S
C1104 C1092 1.349 . S
C1104 H1098 0.950 . S
C1104 C1105 1.327 . S
C1105 H1099 0.950 . S
C1105 C1104 1.327 . S
C1105 C1109 1.429 . S
C1106 C1089 1.574 . S
C1106 H1100 0.949 . S
C1106 C1110 1.368 . S
C1107 C1088 1.429 . S
C1107 C1101 1.429 . S
C1107 C1108 1.523 . S
C1108 C1089 1.368 . S
C1108 C1102 1.368 . S
C1108 C1107 1.523 . S
C1109 C1093 1.429 . S
C1109 C1105 1.429 . S
C1109 C1110 1.523 . S
C1110 C1094 1.368 . S
C1110 C1106 1.368 . S
C1110 C1109 1.523 . S
H1111 C1086 0.950 . S
H1112 C1088 0.950 . S
H1113 C1089 0.949 . S
H1114 C1091 0.950 . S
H1115 C1093 0.950 . S
C1116 C1117 1.349 . S
C1116 C1118 1.327 . S
C1116 H1141 0.950 . S
C1117 C1116 1.349 . S
C1117 C1133 1.349 . S
C1118 C1116 1.327 . S
C1118 C1137 1.429 . S
C1118 H1142 0.950 . S
C1119 C1136 1.574 . S
C1119 C1138 1.368 . S
C1119 H1143 0.949 . S
H1120 C1124 0.949 . S
C1121 C1122 1.349 . S
C1121 C1123 1.327 . S
C1121 H1144 0.950 . S
C1122 C1121 1.349 . S
C1122 C1134 1.349 . S
C1123 C1121 1.327 . S
C1123 C1139 1.429 . S
C1123 H1145 0.950 . S
C1124 H1120 0.949 . S
C1124 C1132 1.574 . S
C1124 C1140 1.368 . S
H1125 C1133 0.950 . S
H1126 C1131 0.950 . S
H1127 C1132 0.949 . S
H1128 C1134 0.950 . S
H1129 C1135 0.950 . S
H1130 C1136 0.949 . S
C1131 H1126 0.950 . S
C1131 C1133 1.327 . S
C1131 C1137 1.429 . S
C1132 C1124 1.574 . S
C1132 H1127 0.949 . S
C1132 C1138 1.368 . S
C1133 C1117 1.349 . S
C1133 H1125 0.950 . S
C1133 C1131 1.327 . S
C1134 C1122 1.349 . S
C1134 H1128 0.950 . S
C1134 C1135 1.327 . S
C1135 H1129 0.950 . S
C1135 C1134 1.327 . S
C1135 C1139 1.429 . S
C1136 C1119 1.574 . S
C1136 H1130 0.949 . S
C1136 C1140 1.368 . S
C1137 C1118 1.429 . S
C1137 C1131 1.429 . S
C1137 C1138 1.523 . S
C1138 C1119 1.368 . S
C1138 C1132 1.368 . S
C1138 C1137 1.523 . S
C1139 C1123 1.429 . S
C1139 C1135 1.429 . S
C1139 C1140 1.523 . S
C1140 C1124 1.368 . S
C1140 C1136 1.368 . S
C1140 C1139 1.523 . S
H1141 C1116 0.950 . S
H1142 C1118 0.950 . S
H1143 C1119 0.949 . S
H1144 C1121 0.950 . S
H1145 C1123 0.950 . S
C1146 C1147 1.349 . S
C1146 C1148 1.327 . S
C1146 H1171 0.950 . S
C1147 C1146 1.349 . S
C1147 C1163 1.349 . S
C1148 C1146 1.327 . S
C1148 C1167 1.429 . S
C1148 H1172 0.950 . S
C1149 C1166 1.574 . S
C1149 C1168 1.368 . S
C1149 H1173 0.949 . S
H1150 C1154 0.949 . S
C1151 C1152 1.344 1_455 S
C1151 C1153 1.327 . S
C1151 H1174 0.950 . S
C1152 C1151 1.344 1_655 S
C1152 C1164 1.357 . S
C1153 C1151 1.327 . S
C1153 C1169 1.429 1_455 S
C1153 H1175 0.950 . S
C1154 H1150 0.949 . S
C1154 C1162 1.574 . S
C1154 C1170 1.368 . S
H1155 C1163 0.950 . S
H1156 C1161 0.950 . S
H1157 C1162 0.949 . S
H1158 C1164 0.950 . S
H1159 C1165 0.950 . S
H1160 C1166 0.949 1_455 S
C1161 H1156 0.950 . S
C1161 C1163 1.327 . S
C1161 C1167 1.429 . S
C1162 C1154 1.574 . S
C1162 H1157 0.949 . S
C1162 C1168 1.368 . S
C1163 C1147 1.349 . S
C1163 H1155 0.950 . S
C1163 C1161 1.327 . S
C1164 C1152 1.357 . S
C1164 H1158 0.950 . S
C1164 C1165 1.327 . S
C1165 H1159 0.950 . S
C1165 C1164 1.327 . S
C1165 C1169 1.429 . S
C1166 C1149 1.574 . S
C1166 H1160 0.949 1_655 S
C1166 C1170 1.368 . S
C1167 C1148 1.429 . S
C1167 C1161 1.429 . S
C1167 C1168 1.523 . S
C1168 C1149 1.368 . S
C1168 C1162 1.368 . S
C1168 C1167 1.523 . S
C1169 C1153 1.429 1_655 S
C1169 C1165 1.429 . S
C1169 C1170 1.523 . S
C1170 C1154 1.368 . S
C1170 C1166 1.368 . S
C1170 C1169 1.523 . S
H1171 C1146 0.950 . S
H1172 C1148 0.950 . S
H1173 C1149 0.949 . S
H1174 C1151 0.950 . S
H1175 C1153 0.950 . S
C1176 C1177 1.349 . S
C1176 C1178 1.327 . S
C1176 H1201 0.950 . S
C1177 C1176 1.349 . S
C1177 C1193 1.349 . S
C1178 C1176 1.327 . S
C1178 C1197 1.429 . S
C1178 H1202 0.950 . S
C1179 C1196 1.574 . S
C1179 C1198 1.368 . S
C1179 H1203 0.949 . S
H1180 C1184 0.949 . S
C1181 C1182 1.349 . S
C1181 C1183 1.327 . S
C1181 H1204 0.950 . S
C1182 C1181 1.349 . S
C1182 C1194 1.349 . S
C1183 C1181 1.327 . S
C1183 C1199 1.429 . S
C1183 H1205 0.950 . S
C1184 H1180 0.949 . S
C1184 C1192 1.574 . S
C1184 C1200 1.368 . S
H1185 C1193 0.950 . S
H1186 C1191 0.950 . S
H1187 C1192 0.949 . S
H1188 C1194 0.950 . S
H1189 C1195 0.950 . S
H1190 C1196 0.949 . S
C1191 H1186 0.950 . S
C1191 C1193 1.327 . S
C1191 C1197 1.429 . S
C1192 C1184 1.574 . S
C1192 H1187 0.949 . S
C1192 C1198 1.368 . S
C1193 C1177 1.349 . S
C1193 H1185 0.950 . S
C1193 C1191 1.327 . S
C1194 C1182 1.349 . S
C1194 H1188 0.950 . S
C1194 C1195 1.327 . S
C1195 H1189 0.950 . S
C1195 C1194 1.327 . S
C1195 C1199 1.429 . S
C1196 C1179 1.574 . S
C1196 H1190 0.949 . S
C1196 C1200 1.368 . S
C1197 C1178 1.429 . S
C1197 C1191 1.429 . S
C1197 C1198 1.523 . S
C1198 C1179 1.368 . S
C1198 C1192 1.368 . S
C1198 C1197 1.523 . S
C1199 C1183 1.429 . S
C1199 C1195 1.429 . S
C1199 C1200 1.523 . S
C1200 C1184 1.368 . S
C1200 C1196 1.368 . S
C1200 C1199 1.523 . S
H1201 C1176 0.950 . S
H1202 C1178 0.950 . S
H1203 C1179 0.949 . S
H1204 C1181 0.950 . S
H1205 C1183 0.950 . S
C1206 C1207 1.349 . S
C1206 C1208 1.327 . S
C1206 H1231 0.950 . S
C1207 C1206 1.349 . S
C1207 C1223 1.349 . S
C1208 C1206 1.327 . S
C1208 C1227 1.429 . S
C1208 H1232 0.950 . S
C1209 C1226 1.574 . S
C1209 C1228 1.368 . S
C1209 H1233 0.949 . S
H1210 C1214 0.949 . S
C1211 C1212 1.349 . S
C1211 C1213 1.327 . S
C1211 H1234 0.950 . S
C1212 C1211 1.349 . S
C1212 C1224 1.349 . S
C1213 C1211 1.327 . S
C1213 C1229 1.429 . S
C1213 H1235 0.950 . S
C1214 H1210 0.949 . S
C1214 C1222 1.574 . S
C1214 C1230 1.368 . S
H1215 C1223 0.950 . S
H1216 C1221 0.950 . S
H1217 C1222 0.949 . S
H1218 C1224 0.950 . S
H1219 C1225 0.950 . S
H1220 C1226 0.949 . S
C1221 H1216 0.950 . S
C1221 C1223 1.327 . S
C1221 C1227 1.429 . S
C1222 C1214 1.574 . S
C1222 H1217 0.949 . S
C1222 C1228 1.368 . S
C1223 C1207 1.349 . S
C1223 H1215 0.950 . S
C1223 C1221 1.327 . S
C1224 C1212 1.349 . S
C1224 H1218 0.950 . S
C1224 C1225 1.327 . S
C1225 H1219 0.950 . S
C1225 C1224 1.327 . S
C1225 C1229 1.429 . S
C1226 C1209 1.574 . S
C1226 H1220 0.949 . S
C1226 C1230 1.368 . S
C1227 C1208 1.429 . S
C1227 C1221 1.429 . S
C1227 C1228 1.523 . S
C1228 C1209 1.368 . S
C1228 C1222 1.368 . S
C1228 C1227 1.523 . S
C1229 C1213 1.429 . S
C1229 C1225 1.429 . S
C1229 C1230 1.523 . S
C1230 C1214 1.368 . S
C1230 C1226 1.368 . S
C1230 C1229 1.523 . S
H1231 C1206 0.950 . S
H1232 C1208 0.950 . S
H1233 C1209 0.949 . S
H1234 C1211 0.950 . S
H1235 C1213 0.950 . S
C1236 C1237 1.349 . S
C1236 C1238 1.327 . S
C1236 H1261 0.950 . S
C1237 C1236 1.349 . S
C1237 C1253 1.349 . S
C1238 C1236 1.327 . S
C1238 C1257 1.429 . S
C1238 H1262 0.950 . S
C1239 C1256 1.574 . S
C1239 C1258 1.368 . S
C1239 H1263 0.949 . S
H1240 C1244 0.949 . S
C1241 C1242 1.349 . S
C1241 C1243 1.327 . S
C1241 H1264 0.950 . S
C1242 C1241 1.349 . S
C1242 C1254 1.349 . S
C1243 C1241 1.327 . S
C1243 C1259 1.429 . S
C1243 H1265 0.950 . S
C1244 H1240 0.949 . S
C1244 C1252 1.574 . S
C1244 C1260 1.368 . S
H1245 C1253 0.950 . S
H1246 C1251 0.950 . S
H1247 C1252 0.949 . S
H1248 C1254 0.950 . S
H1249 C1255 0.950 . S
H1250 C1256 0.949 . S
C1251 H1246 0.950 . S
C1251 C1253 1.327 . S
C1251 C1257 1.429 . S
C1252 C1244 1.574 . S
C1252 H1247 0.949 . S
C1252 C1258 1.368 . S
C1253 C1237 1.349 . S
C1253 H1245 0.950 . S
C1253 C1251 1.327 . S
C1254 C1242 1.349 . S
C1254 H1248 0.950 . S
C1254 C1255 1.327 . S
C1255 H1249 0.950 . S
C1255 C1254 1.327 . S
C1255 C1259 1.429 . S
C1256 C1239 1.574 . S
C1256 H1250 0.949 . S
C1256 C1260 1.368 . S
C1257 C1238 1.429 . S
C1257 C1251 1.429 . S
C1257 C1258 1.523 . S
C1258 C1239 1.368 . S
C1258 C1252 1.368 . S
C1258 C1257 1.523 . S
C1259 C1243 1.429 . S
C1259 C1255 1.429 . S
C1259 C1260 1.523 . S
C1260 C1244 1.368 . S
C1260 C1256 1.368 . S
C1260 C1259 1.523 . S
H1261 C1236 0.950 . S
H1262 C1238 0.950 . S
H1263 C1239 0.949 . S
H1264 C1241 0.950 . S
H1265 C1243 0.950 . S
C1266 C1267 1.349 . S
C1266 C1268 1.327 . S
C1266 H1291 0.950 . S
C1267 C1266 1.349 . S
C1267 C1283 1.349 1_455 S
C1268 C1266 1.327 . S
C1268 C1287 1.429 . S
C1268 H1292 0.950 . S
C1269 C1286 1.574 . S
C1269 C1288 1.368 . S
C1269 H1293 0.949 1_455 S
H1270 C1274 0.949 . S
C1271 C1272 1.349 . S
C1271 C1273 1.327 . S
C1271 H1294 0.950 . S
C1272 C1271 1.349 . S
C1272 C1284 1.349 . S
C1273 C1271 1.327 . S
C1273 C1289 1.429 . S
C1273 H1295 0.950 . S
C1274 H1270 0.949 . S
C1274 C1282 1.574 . S
C1274 C1290 1.368 . S
H1275 C1283 0.950 . S
H1276 C1281 0.950 . S
H1277 C1282 0.949 . S
H1278 C1284 0.950 . S
H1279 C1285 0.950 . S
H1280 C1286 0.949 . S
C1281 H1276 0.950 . S
C1281 C1283 1.327 . S
C1281 C1287 1.429 1_655 S
C1282 C1274 1.574 . S
C1282 H1277 0.949 . S
C1282 C1288 1.368 . S
C1283 C1267 1.349 1_655 S
C1283 H1275 0.950 . S
C1283 C1281 1.327 . S
C1284 C1272 1.349 . S
C1284 H1278 0.950 . S
C1284 C1285 1.327 . S
C1285 H1279 0.950 . S
C1285 C1284 1.327 . S
C1285 C1289 1.429 . S
C1286 C1269 1.574 . S
C1286 H1280 0.949 . S
C1286 C1290 1.368 . S
C1287 C1268 1.429 . S
C1287 C1281 1.429 1_455 S
C1287 C1288 1.523 . S
C1288 C1269 1.368 . S
C1288 C1282 1.368 . S
C1288 C1287 1.523 . S
C1289 C1273 1.429 . S
C1289 C1285 1.429 . S
C1289 C1290 1.523 . S
C1290 C1274 1.368 . S
C1290 C1286 1.368 . S
C1290 C1289 1.523 . S
H1291 C1266 0.950 . S
H1292 C1268 0.950 . S
H1293 C1269 0.949 1_655 S
H1294 C1271 0.950 . S
H1295 C1273 0.950 . S
C1296 C1297 1.349 . S
C1296 C1298 1.327 . S
C1296 H1321 0.950 . S
C1297 C1296 1.349 . S
C1297 C1313 1.349 . S
C1298 C1296 1.327 . S
C1298 C1317 1.429 . S
C1298 H1322 0.950 . S
C1299 C1316 1.574 . S
C1299 C1318 1.368 . S
C1299 H1323 0.949 . S
H1300 C1304 0.949 . S
C1301 C1302 1.349 . S
C1301 C1303 1.327 . S
C1301 H1324 0.950 . S
C1302 C1301 1.349 . S
C1302 C1314 1.349 . S
C1303 C1301 1.327 . S
C1303 C1319 1.429 . S
C1303 H1325 0.950 . S
C1304 H1300 0.949 . S
C1304 C1312 1.574 . S
C1304 C1320 1.368 . S
H1305 C1313 0.950 . S
H1306 C1311 0.950 . S
H1307 C1312 0.949 . S
H1308 C1314 0.950 . S
H1309 C1315 0.950 . S
H1310 C1316 0.949 . S
C1311 H1306 0.950 . S
C1311 C1313 1.327 . S
C1311 C1317 1.429 . S
C1312 C1304 1.574 . S
C1312 H1307 0.949 . S
C1312 C1318 1.368 . S
C1313 C1297 1.349 . S
C1313 H1305 0.950 . S
C1313 C1311 1.327 . S
C1314 C1302 1.349 . S
C1314 H1308 0.950 . S
C1314 C1315 1.327 . S
C1315 H1309 0.950 . S
C1315 C1314 1.327 . S
C1315 C1319 1.429 . S
C1316 C1299 1.574 . S
C1316 H1310 0.949 . S
C1316 C1320 1.368 . S
C1317 C1298 1.429 . S
C1317 C1311 1.429 . S
C1317 C1318 1.523 . S
C1318 C1299 1.368 . S
C1318 C1312 1.368 . S
C1318 C1317 1.523 . S
C1319 C1303 1.429 . S
C1319 C1315 1.429 . S
C1319 C1320 1.523 . S
C1320 C1304 1.368 . S
C1320 C1316 1.368 . S
C1320 C1319 1.523 . S
H1321 C1296 0.950 . S
H1322 C1298 0.950 . S
H1323 C1299 0.949 . S
H1324 C1301 0.950 . S
H1325 C1303 0.950 . S
C1326 C1327 1.349 . S
C1326 C1328 1.327 . S
C1326 H1351 0.950 . S
C1327 C1326 1.349 . S
C1327 C1343 1.349 . S
C1328 C1326 1.327 . S
C1328 C1347 1.429 . S
C1328 H1352 0.950 . S
C1329 C1346 1.574 . S
C1329 C1348 1.368 . S
C1329 H1353 0.949 . S
H1330 C1334 0.949 . S
C1331 C1332 1.349 . S
C1331 C1333 1.327 . S
C1331 H1354 0.950 . S
C1332 C1331 1.349 . S
C1332 C1344 1.349 . S
C1333 C1331 1.327 . S
C1333 C1349 1.429 . S
C1333 H1355 0.950 . S
C1334 H1330 0.949 . S
C1334 C1342 1.574 . S
C1334 C1350 1.368 . S
H1335 C1343 0.950 . S
H1336 C1341 0.950 . S
H1337 C1342 0.949 . S
H1338 C1344 0.950 . S
H1339 C1345 0.950 . S
H1340 C1346 0.949 . S
C1341 H1336 0.950 . S
C1341 C1343 1.327 . S
C1341 C1347 1.429 . S
C1342 C1334 1.574 . S
C1342 H1337 0.949 . S
C1342 C1348 1.368 . S
C1343 C1327 1.349 . S
C1343 H1335 0.950 . S
C1343 C1341 1.327 . S
C1344 C1332 1.349 . S
C1344 H1338 0.950 . S
C1344 C1345 1.327 . S
C1345 H1339 0.950 . S
C1345 C1344 1.327 . S
C1345 C1349 1.429 . S
C1346 C1329 1.574 . S
C1346 H1340 0.949 . S
C1346 C1350 1.368 . S
C1347 C1328 1.429 . S
C1347 C1341 1.429 . S
C1347 C1348 1.523 . S
C1348 C1329 1.368 . S
C1348 C1342 1.368 . S
C1348 C1347 1.523 . S
C1349 C1333 1.429 . S
C1349 C1345 1.429 . S
C1349 C1350 1.523 . S
C1350 C1334 1.368 . S
C1350 C1346 1.368 . S
C1350 C1349 1.523 . S
H1351 C1326 0.950 . S
H1352 C1328 0.950 . S
H1353 C1329 0.949 . S
H1354 C1331 0.950 . S
H1355 C1333 0.950 . S
C1356 C1357 1.349 . S
C1356 C1358 1.327 . S
C1356 H1381 0.950 . S
C1357 C1356 1.349 . S
C1357 C1373 1.349 . S
C1358 C1356 1.327 . S
C1358 C1377 1.429 . S
C1358 H1382 0.950 . S
C1359 C1376 1.574 . S
C1359 C1378 1.368 . S
C1359 H1383 0.949 . S
H1360 C1364 0.949 . S
C1361 C1362 1.349 . S
C1361 C1363 1.327 . S
C1361 H1384 0.950 . S
C1362 C1361 1.349 . S
C1362 C1374 1.349 . S
C1363 C1361 1.327 . S
C1363 C1379 1.429 . S
C1363 H1385 0.950 . S
C1364 H1360 0.949 . S
C1364 C1372 1.574 . S
C1364 C1380 1.368 . S
H1365 C1373 0.950 . S
H1366 C1371 0.950 . S
H1367 C1372 0.949 . S
H1368 C1374 0.950 . S
H1369 C1375 0.950 . S
H1370 C1376 0.949 . S
C1371 H1366 0.950 . S
C1371 C1373 1.327 . S
C1371 C1377 1.429 . S
C1372 C1364 1.574 . S
C1372 H1367 0.949 . S
C1372 C1378 1.368 . S
C1373 C1357 1.349 . S
C1373 H1365 0.950 . S
C1373 C1371 1.327 . S
C1374 C1362 1.349 . S
C1374 H1368 0.950 . S
C1374 C1375 1.327 . S
C1375 H1369 0.950 . S
C1375 C1374 1.327 . S
C1375 C1379 1.429 . S
C1376 C1359 1.574 . S
C1376 H1370 0.949 . S
C1376 C1380 1.368 . S
C1377 C1358 1.429 . S
C1377 C1371 1.429 . S
C1377 C1378 1.523 . S
C1378 C1359 1.368 . S
C1378 C1372 1.368 . S
C1378 C1377 1.523 . S
C1379 C1363 1.429 . S
C1379 C1375 1.429 . S
C1379 C1380 1.523 . S
C1380 C1364 1.368 . S
C1380 C1376 1.368 . S
C1380 C1379 1.523 . S
H1381 C1356 0.950 . S
H1382 C1358 0.950 . S
H1383 C1359 0.949 . S
H1384 C1361 0.950 . S
H1385 C1363 0.950 . S
C1386 C1387 1.349 . S
C1386 C1388 1.327 . S
C1386 H1411 0.950 . S
C1387 C1386 1.349 . S
C1387 C1403 1.349 . S
C1388 C1386 1.327 . S
C1388 C1407 1.429 . S
C1388 H1412 0.950 . S
C1389 C1406 1.574 . S
C1389 C1408 1.368 . S
C1389 H1413 0.949 . S
H1390 C1394 0.949 . S
C1391 C1392 1.349 . S
C1391 C1393 1.327 . S
C1391 H1414 0.950 . S
C1392 C1391 1.349 . S
C1392 C1404 1.349 . S
C1393 C1391 1.327 . S
C1393 C1409 1.429 . S
C1393 H1415 0.950 . S
C1394 H1390 0.949 . S
C1394 C1402 1.574 . S
C1394 C1410 1.368 . S
H1395 C1403 0.950 . S
H1396 C1401 0.950 . S
H1397 C1402 0.949 . S
H1398 C1404 0.950 . S
H1399 C1405 0.950 . S
H1400 C1406 0.949 . S
C1401 H1396 0.950 . S
C1401 C1403 1.327 . S
C1401 C1407 1.429 . S
C1402 C1394 1.574 . S
C1402 H1397 0.949 . S
C1402 C1408 1.368 . S
C1403 C1387 1.349 . S
C1403 H1395 0.950 . S
C1403 C1401 1.327 . S
C1404 C1392 1.349 . S
C1404 H1398 0.950 . S
C1404 C1405 1.327 . S
C1405 H1399 0.950 . S
C1405 C1404 1.327 . S
C1405 C1409 1.429 . S
C1406 C1389 1.574 . S
C1406 H1400 0.949 . S
C1406 C1410 1.368 . S
C1407 C1388 1.429 . S
C1407 C1401 1.429 . S
C1407 C1408 1.523 . S
C1408 C1389 1.368 . S
C1408 C1402 1.368 . S
C1408 C1407 1.523 . S
C1409 C1393 1.429 . S
C1409 C1405 1.429 . S
C1409 C1410 1.523 . S
C1410 C1394 1.368 . S
C1410 C1406 1.368 . S
C1410 C1409 1.523 . S
H1411 C1386 0.950 . S
H1412 C1388 0.950 . S
H1413 C1389 0.949 . S
H1414 C1391 0.950 . S
H1415 C1393 0.950 . S
C1416 C1417 1.349 . S
C1416 C1418 1.327 . S
C1416 H1441 0.950 . S
C1417 C1416 1.349 . S
C1417 C1433 1.349 1_554 S
C1418 C1416 1.327 . S
C1418 C1437 1.429 . S
C1418 H1442 0.950 . S
C1419 C1436 1.574 . S
C1419 C1438 1.368 1_556 S
C1419 H1443 0.949 . S
H1420 C1424 0.949 . S
C1421 C1422 1.349 . S
C1421 C1423 1.327 . S
C1421 H1444 0.950 1_554 S
C1422 C1421 1.349 . S
C1422 C1434 1.349 . S
C1423 C1421 1.327 . S
C1423 C1439 1.429 . S
C1423 H1445 0.950 1_554 S
C1424 H1420 0.949 . S
C1424 C1432 1.574 . S
C1424 C1440 1.368 . S
H1425 C1433 0.950 . S
H1426 C1431 0.950 . S
H1427 C1432 0.949 . S
H1428 C1434 0.950 . S
H1429 C1435 0.950 . S
H1430 C1436 0.949 . S
C1431 H1426 0.950 . S
C1431 C1433 1.327 . S
C1431 C1437 1.429 1_556 S
C1432 C1424 1.574 . S
C1432 H1427 0.949 . S
C1432 C1438 1.368 . S
C1433 C1417 1.349 1_556 S
C1433 H1425 0.950 . S
C1433 C1431 1.327 . S
C1434 C1422 1.349 . S
C1434 H1428 0.950 . S
C1434 C1435 1.327 . S
C1435 H1429 0.950 . S
C1435 C1434 1.327 . S
C1435 C1439 1.429 . S
C1436 C1419 1.574 . S
C1436 H1430 0.949 . S
C1436 C1440 1.368 1_556 S
C1437 C1418 1.429 . S
C1437 C1431 1.429 1_554 S
C1437 C1438 1.523 . S
C1438 C1419 1.368 1_554 S
C1438 C1432 1.368 . S
C1438 C1437 1.523 . S
C1439 C1423 1.429 . S
C1439 C1435 1.429 . S
C1439 C1440 1.523 . S
C1440 C1424 1.368 . S
C1440 C1436 1.368 1_554 S
C1440 C1439 1.523 . S
H1441 C1416 0.950 . S
H1442 C1418 0.950 . S
H1443 C1419 0.949 . S
H1444 C1421 0.950 1_556 S
H1445 C1423 0.950 1_556 S
C1446 C1447 1.349 . S
C1446 C1448 1.327 . S
C1446 H1471 0.950 . S
C1447 C1446 1.349 . S
C1447 C1463 1.349 . S
C1448 C1446 1.327 . S
C1448 C1467 1.429 . S
C1448 H1472 0.950 . S
C1449 C1466 1.574 . S
C1449 C1468 1.368 . S
C1449 H1473 0.949 . S
H1450 C1454 0.949 . S
C1451 C1452 1.349 . S
C1451 C1453 1.327 . S
C1451 H1474 0.950 . S
C1452 C1451 1.349 . S
C1452 C1464 1.349 . S
C1453 C1451 1.327 . S
C1453 C1469 1.429 . S
C1453 H1475 0.950 . S
C1454 H1450 0.949 . S
C1454 C1462 1.574 . S
C1454 C1470 1.368 . S
H1455 C1463 0.950 . S
H1456 C1461 0.950 . S
H1457 C1462 0.949 . S
H1458 C1464 0.950 . S
H1459 C1465 0.950 . S
H1460 C1466 0.949 . S
C1461 H1456 0.950 . S
C1461 C1463 1.327 . S
C1461 C1467 1.429 . S
C1462 C1454 1.574 . S
C1462 H1457 0.949 . S
C1462 C1468 1.368 . S
C1463 C1447 1.349 . S
C1463 H1455 0.950 . S
C1463 C1461 1.327 . S
C1464 C1452 1.349 . S
C1464 H1458 0.950 . S
C1464 C1465 1.327 . S
C1465 H1459 0.950 . S
C1465 C1464 1.327 . S
C1465 C1469 1.429 . S
C1466 C1449 1.574 . S
C1466 H1460 0.949 . S
C1466 C1470 1.368 . S
C1467 C1448 1.429 . S
C1467 C1461 1.429 . S
C1467 C1468 1.523 . S
C1468 C1449 1.368 . S
C1468 C1462 1.368 . S
C1468 C1467 1.523 . S
C1469 C1453 1.429 . S
C1469 C1465 1.429 . S
C1469 C1470 1.523 . S
C1470 C1454 1.368 . S
C1470 C1466 1.368 . S
C1470 C1469 1.523 . S
H1471 C1446 0.950 . S
H1472 C1448 0.950 . S
H1473 C1449 0.949 . S
H1474 C1451 0.950 . S
H1475 C1453 0.950 . S
C1476 C1477 1.349 . S
C1476 C1478 1.327 . S
C1476 H1501 0.950 . S
C1477 C1476 1.349 . S
C1477 C1493 1.349 . S
C1478 C1476 1.327 . S
C1478 C1497 1.429 . S
C1478 H1502 0.950 . S
C1479 C1496 1.574 . S
C1479 C1498 1.368 . S
C1479 H1503 0.949 . S
H1480 C1484 0.949 . S
C1481 C1482 1.349 . S
C1481 C1483 1.327 . S
C1481 H1504 0.950 . S
C1482 C1481 1.349 . S
C1482 C1494 1.349 . S
C1483 C1481 1.327 . S
C1483 C1499 1.429 . S
C1483 H1505 0.950 . S
C1484 H1480 0.949 . S
C1484 C1492 1.574 . S
C1484 C1500 1.368 . S
H1485 C1493 0.950 . S
H1486 C1491 0.950 . S
H1487 C1492 0.949 . S
H1488 C1494 0.950 . S
H1489 C1495 0.950 . S
H1490 C1496 0.949 . S
C1491 H1486 0.950 . S
C1491 C1493 1.327 . S
C1491 C1497 1.429 . S
C1492 C1484 1.574 . S
C1492 H1487 0.949 . S
C1492 C1498 1.368 . S
C1493 C1477 1.349 . S
C1493 H1485 0.950 . S
C1493 C1491 1.327 . S
C1494 C1482 1.349 . S
C1494 H1488 0.950 . S
C1494 C1495 1.327 . S
C1495 H1489 0.950 . S
C1495 C1494 1.327 . S
C1495 C1499 1.429 . S
C1496 C1479 1.574 . S
C1496 H1490 0.949 . S
C1496 C1500 1.368 . S
C1497 C1478 1.429 . S
C1497 C1491 1.429 . S
C1497 C1498 1.523 . S
C1498 C1479 1.368 . S
C1498 C1492 1.368 . S
C1498 C1497 1.523 . S
C1499 C1483 1.429 . S
C1499 C1495 1.429 . S
C1499 C1500 1.523 . S
C1500 C1484 1.368 . S
C1500 C1496 1.368 . S
C1500 C1499 1.523 . S
H1501 C1476 0.950 . S
H1502 C1478 0.950 . S
H1503 C1479 0.949 . S
H1504 C1481 0.950 . S
H1505 C1483 0.950 . S
C1506 C1507 1.349 . S
C1506 C1508 1.327 . S
C1506 H1531 0.950 . S
C1507 C1506 1.349 . S
C1507 C1523 1.369 . S
C1508 C1506 1.327 . S
C1508 C1527 1.429 . S
C1508 H1532 0.950 . S
C1509 C1526 1.574 . S
C1509 C1528 1.368 1_554 S
C1509 H1533 0.949 . S
H1510 C1514 0.949 . S
C1511 C1512 1.327 1_554 S
C1511 C1513 1.327 . S
C1511 H1534 0.950 . S
C1512 C1511 1.327 1_556 S
C1512 C1524 1.374 . S
C1513 C1511 1.327 . S
C1513 C1529 1.429 1_554 S
C1513 H1535 0.950 . S
C1514 H1510 0.949 . S
C1514 C1522 1.574 . S
C1514 C1530 1.368 . S
H1515 C1523 0.932 1_554 S
H1516 C1521 0.950 . S
H1517 C1522 0.949 . S
H1518 C1524 0.950 . S
H1519 C1525 0.950 . S
H1520 C1526 0.949 . S
C1521 H1516 0.950 . S
C1521 C1523 1.324 1_554 S
C1521 C1527 1.429 1_554 S
C1522 C1514 1.574 . S
C1522 H1517 0.949 . S
C1522 C1528 1.368 . S
C1523 C1507 1.369 . S
C1523 H1515 0.932 1_556 S
C1523 C1521 1.324 1_556 S
C1524 C1512 1.374 . S
C1524 H1518 0.950 . S
C1524 C1525 1.327 . S
C1525 H1519 0.950 . S
C1525 C1524 1.327 . S
C1525 C1529 1.429 . S
C1526 C1509 1.574 . S
C1526 H1520 0.949 . S
C1526 C1530 1.368 1_554 S
C1527 C1508 1.429 . S
C1527 C1521 1.429 1_556 S
C1527 C1528 1.523 . S
C1528 C1509 1.368 1_556 S
C1528 C1522 1.368 . S
C1528 C1527 1.523 . S
C1529 C1513 1.429 1_556 S
C1529 C1525 1.429 . S
C1529 C1530 1.523 . S
C1530 C1514 1.368 . S
C1530 C1526 1.368 1_556 S
C1530 C1529 1.523 . S
H1531 C1506 0.950 . S
H1532 C1508 0.950 . S
H1533 C1509 0.949 . S
H1534 C1511 0.950 . S
H1535 C1513 0.950 . S
C1536 C1537 1.349 . S
C1536 C1538 1.327 . S
C1536 H1561 0.950 . S
C1537 C1536 1.349 . S
C1537 C1553 1.349 . S
C1538 C1536 1.327 . S
C1538 C1557 1.429 . S
C1538 H1562 0.950 . S
C1539 C1556 1.574 . S
C1539 C1558 1.368 . S
C1539 H1563 0.949 . S
H1540 C1544 0.949 . S
C1541 C1542 1.349 . S
C1541 C1543 1.327 . S
C1541 H1564 0.950 . S
C1542 C1541 1.349 . S
C1542 C1554 1.349 . S
C1543 C1541 1.327 . S
C1543 C1559 1.429 . S
C1543 H1565 0.950 . S
C1544 H1540 0.949 . S
C1544 C1552 1.574 . S
C1544 C1560 1.368 . S
H1545 C1553 0.950 . S
H1546 C1551 0.950 . S
H1547 C1552 0.949 . S
H1548 C1554 0.950 . S
H1549 C1555 0.950 . S
H1550 C1556 0.949 . S
C1551 H1546 0.950 . S
C1551 C1553 1.327 . S
C1551 C1557 1.429 . S
C1552 C1544 1.574 . S
C1552 H1547 0.949 . S
C1552 C1558 1.368 . S
C1553 C1537 1.349 . S
C1553 H1545 0.950 . S
C1553 C1551 1.327 . S
C1554 C1542 1.349 . S
C1554 H1548 0.950 . S
C1554 C1555 1.327 . S
C1555 H1549 0.950 . S
C1555 C1554 1.327 . S
C1555 C1559 1.429 . S
C1556 C1539 1.574 . S
C1556 H1550 0.949 . S
C1556 C1560 1.368 . S
C1557 C1538 1.429 . S
C1557 C1551 1.429 . S
C1557 C1558 1.523 . S
C1558 C1539 1.368 . S
C1558 C1552 1.368 . S
C1558 C1557 1.523 . S
C1559 C1543 1.429 . S
C1559 C1555 1.429 . S
C1559 C1560 1.523 . S
C1560 C1544 1.368 . S
C1560 C1556 1.368 . S
C1560 C1559 1.523 . S
H1561 C1536 0.950 . S
H1562 C1538 0.950 . S
H1563 C1539 0.949 . S
H1564 C1541 0.950 . S
H1565 C1543 0.950 . S
C1566 C1567 1.349 . S
C1566 C1568 1.327 . S
C1566 H1591 0.950 . S
C1567 C1566 1.349 . S
C1567 C1583 1.349 . S
C1568 C1566 1.327 . S
C1568 C1587 1.429 . S
C1568 H1592 0.950 . S
C1569 C1586 1.574 . S
C1569 C1588 1.368 . S
C1569 H1593 0.949 . S
H1570 C1574 0.949 . S
C1571 C1572 1.349 . S
C1571 C1573 1.327 . S
C1571 H1594 0.950 . S
C1572 C1571 1.349 . S
C1572 C1584 1.349 . S
C1573 C1571 1.327 . S
C1573 C1589 1.429 . S
C1573 H1595 0.950 . S
C1574 H1570 0.949 . S
C1574 C1582 1.574 . S
C1574 C1590 1.368 . S
H1575 C1583 0.950 . S
H1576 C1581 0.950 . S
H1577 C1582 0.949 . S
H1578 C1584 0.950 . S
H1579 C1585 0.950 . S
H1580 C1586 0.949 . S
C1581 H1576 0.950 . S
C1581 C1583 1.327 . S
C1581 C1587 1.429 . S
C1582 C1574 1.574 . S
C1582 H1577 0.949 . S
C1582 C1588 1.368 . S
C1583 C1567 1.349 . S
C1583 H1575 0.950 . S
C1583 C1581 1.327 . S
C1584 C1572 1.349 . S
C1584 H1578 0.950 . S
C1584 C1585 1.327 . S
C1585 H1579 0.950 . S
C1585 C1584 1.327 . S
C1585 C1589 1.429 . S
C1586 C1569 1.574 . S
C1586 H1580 0.949 . S
C1586 C1590 1.368 . S
C1587 C1568 1.429 . S
C1587 C1581 1.429 . S
C1587 C1588 1.523 . S
C1588 C1569 1.368 . S
C1588 C1582 1.368 . S
C1588 C1587 1.523 . S
C1589 C1573 1.429 . S
C1589 C1585 1.429 . S
C1589 C1590 1.523 . S
C1590 C1574 1.368 . S
C1590 C1586 1.368 . S
C1590 C1589 1.523 . S
H1591 C1566 0.950 . S
H1592 C1568 0.950 . S
H1593 C1569 0.949 . S
H1594 C1571 0.950 . S
H1595 C1573 0.950 . S
C1596 C1597 1.349 . S
C1596 C1598 1.327 . S
C1596 H1621 0.950 . S
C1597 C1596 1.349 . S
C1597 C1613 1.349 . S
C1598 C1596 1.327 . S
C1598 C1617 1.429 . S
C1598 H1622 0.950 . S
C1599 C1616 1.574 . S
C1599 C1618 1.368 . S
C1599 H1623 0.949 . S
H1600 C1604 0.949 . S
C1601 C1602 1.349 . S
C1601 C1603 1.327 . S
C1601 H1624 0.950 . S
C1602 C1601 1.349 . S
C1602 C1614 1.349 . S
C1603 C1601 1.327 . S
C1603 C1619 1.429 . S
C1603 H1625 0.950 . S
C1604 H1600 0.949 . S
C1604 C1612 1.574 . S
C1604 C1620 1.368 . S
H1605 C1613 0.950 . S
H1606 C1611 0.950 . S
H1607 C1612 0.949 . S
H1608 C1614 0.950 . S
H1609 C1615 0.950 . S
H1610 C1616 0.949 . S
C1611 H1606 0.950 . S
C1611 C1613 1.327 . S
C1611 C1617 1.429 . S
C1612 C1604 1.574 . S
C1612 H1607 0.949 . S
C1612 C1618 1.368 . S
C1613 C1597 1.349 . S
C1613 H1605 0.950 . S
C1613 C1611 1.327 . S
C1614 C1602 1.349 . S
C1614 H1608 0.950 . S
C1614 C1615 1.327 . S
C1615 H1609 0.950 . S
C1615 C1614 1.327 . S
C1615 C1619 1.429 . S
C1616 C1599 1.574 . S
C1616 H1610 0.949 . S
C1616 C1620 1.368 . S
C1617 C1598 1.429 . S
C1617 C1611 1.429 . S
C1617 C1618 1.523 . S
C1618 C1599 1.368 . S
C1618 C1612 1.368 . S
C1618 C1617 1.523 . S
C1619 C1603 1.429 . S
C1619 C1615 1.429 . S
C1619 C1620 1.523 . S
C1620 C1604 1.368 . S
C1620 C1616 1.368 . S
C1620 C1619 1.523 . S
H1621 C1596 0.950 . S
H1622 C1598 0.950 . S
H1623 C1599 0.949 . S
H1624 C1601 0.950 . S
H1625 C1603 0.950 . S
C1626 C1627 1.349 . S
C1626 C1628 1.327 . S
C1626 H1651 0.950 . S
C1627 C1626 1.349 . S
C1627 C1643 1.349 . S
C1628 C1626 1.327 . S
C1628 C1647 1.429 . S
C1628 H1652 0.950 . S
C1629 C1646 1.574 . S
C1629 C1648 1.368 . S
C1629 H1653 0.949 . S
H1630 C1634 0.949 . S
C1631 C1632 1.349 . S
C1631 C1633 1.327 . S
C1631 H1654 0.950 . S
C1632 C1631 1.349 . S
C1632 C1644 1.349 . S
C1633 C1631 1.327 . S
C1633 C1649 1.429 . S
C1633 H1655 0.950 . S
C1634 H1630 0.949 . S
C1634 C1642 1.574 . S
C1634 C1650 1.368 . S
H1635 C1643 0.950 . S
H1636 C1641 0.950 . S
H1637 C1642 0.949 . S
H1638 C1644 0.950 . S
H1639 C1645 0.950 . S
H1640 C1646 0.949 . S
C1641 H1636 0.950 . S
C1641 C1643 1.327 . S
C1641 C1647 1.429 . S
C1642 C1634 1.574 . S
C1642 H1637 0.949 . S
C1642 C1648 1.368 . S
C1643 C1627 1.349 . S
C1643 H1635 0.950 . S
C1643 C1641 1.327 . S
C1644 C1632 1.349 . S
C1644 H1638 0.950 . S
C1644 C1645 1.327 . S
C1645 H1639 0.950 . S
C1645 C1644 1.327 . S
C1645 C1649 1.429 . S
C1646 C1629 1.574 . S
C1646 H1640 0.949 . S
C1646 C1650 1.368 . S
C1647 C1628 1.429 . S
C1647 C1641 1.429 . S
C1647 C1648 1.523 . S
C1648 C1629 1.368 . S
C1648 C1642 1.368 . S
C1648 C1647 1.523 . S
C1649 C1633 1.429 . S
C1649 C1645 1.429 . S
C1649 C1650 1.523 . S
C1650 C1634 1.368 . S
C1650 C1646 1.368 . S
C1650 C1649 1.523 . S
H1651 C1626 0.950 . S
H1652 C1628 0.950 . S
H1653 C1629 0.949 . S
H1654 C1631 0.950 . S
H1655 C1633 0.950 . S
C1656 C1657 1.349 . S
C1656 C1658 1.327 . S
C1656 H1681 0.950 . S
C1657 C1656 1.349 . S
C1657 C1673 1.349 . S
C1658 C1656 1.327 . S
C1658 C1677 1.429 . S
C1658 H1682 0.950 . S
C1659 C1676 1.574 . S
C1659 C1678 1.368 . S
C1659 H1683 0.949 . S
H1660 C1664 0.949 . S
C1661 C1662 1.349 . S
C1661 C1663 1.327 . S
C1661 H1684 0.950 . S
C1662 C1661 1.349 . S
C1662 C1674 1.349 . S
C1663 C1661 1.327 . S
C1663 C1679 1.429 . S
C1663 H1685 0.950 . S
C1664 H1660 0.949 . S
C1664 C1672 1.574 . S
C1664 C1680 1.368 . S
H1665 C1673 0.950 . S
H1666 C1671 0.950 . S
H1667 C1672 0.949 . S
H1668 C1674 0.950 . S
H1669 C1675 0.950 . S
H1670 C1676 0.949 . S
C1671 H1666 0.950 . S
C1671 C1673 1.327 . S
C1671 C1677 1.429 . S
C1672 C1664 1.574 . S
C1672 H1667 0.949 . S
C1672 C1678 1.368 . S
C1673 C1657 1.349 . S
C1673 H1665 0.950 . S
C1673 C1671 1.327 . S
C1674 C1662 1.349 . S
C1674 H1668 0.950 . S
C1674 C1675 1.327 . S
C1675 H1669 0.950 . S
C1675 C1674 1.327 . S
C1675 C1679 1.429 . S
C1676 C1659 1.574 . S
C1676 H1670 0.949 . S
C1676 C1680 1.368 . S
C1677 C1658 1.429 . S
C1677 C1671 1.429 . S
C1677 C1678 1.523 . S
C1678 C1659 1.368 . S
C1678 C1672 1.368 . S
C1678 C1677 1.523 . S
C1679 C1663 1.429 . S
C1679 C1675 1.429 . S
C1679 C1680 1.523 . S
C1680 C1664 1.368 . S
C1680 C1676 1.368 . S
C1680 C1679 1.523 . S
H1681 C1656 0.950 . S
H1682 C1658 0.950 . S
H1683 C1659 0.949 . S
H1684 C1661 0.950 . S
H1685 C1663 0.950 . S
C1686 C1687 1.349 . S
C1686 C1688 1.327 . S
C1686 H1711 0.950 . S
C1687 C1686 1.349 . S
C1687 C1703 1.349 . S
C1688 C1686 1.327 . S
C1688 C1707 1.429 . S
C1688 H1712 0.950 . S
C1689 C1706 1.574 . S
C1689 C1708 1.368 . S
C1689 H1713 0.949 . S
H1690 C1694 0.949 . S
C1691 C1692 1.349 . S
C1691 C1693 1.327 . S
C1691 H1714 0.950 . S
C1692 C1691 1.349 . S
C1692 C1704 1.349 . S
C1693 C1691 1.327 . S
C1693 C1709 1.429 . S
C1693 H1715 0.950 . S
C1694 H1690 0.949 . S
C1694 C1702 1.574 . S
C1694 C1710 1.368 . S
H1695 C1703 0.950 . S
H1696 C1701 0.950 . S
H1697 C1702 0.949 . S
H1698 C1704 0.950 . S
H1699 C1705 0.950 . S
H1700 C1706 0.949 . S
C1701 H1696 0.950 . S
C1701 C1703 1.327 . S
C1701 C1707 1.429 . S
C1702 C1694 1.574 . S
C1702 H1697 0.949 . S
C1702 C1708 1.368 . S
C1703 C1687 1.349 . S
C1703 H1695 0.950 . S
C1703 C1701 1.327 . S
C1704 C1692 1.349 . S
C1704 H1698 0.950 . S
C1704 C1705 1.327 . S
C1705 H1699 0.950 . S
C1705 C1704 1.327 . S
C1705 C1709 1.429 . S
C1706 C1689 1.574 . S
C1706 H1700 0.949 . S
C1706 C1710 1.368 . S
C1707 C1688 1.429 . S
C1707 C1701 1.429 . S
C1707 C1708 1.523 . S
C1708 C1689 1.368 . S
C1708 C1702 1.368 . S
C1708 C1707 1.523 . S
C1709 C1693 1.429 . S
C1709 C1705 1.429 . S
C1709 C1710 1.523 . S
C1710 C1694 1.368 . S
C1710 C1706 1.368 . S
C1710 C1709 1.523 . S
H1711 C1686 0.950 . S
H1712 C1688 0.950 . S
H1713 C1689 0.949 . S
H1714 C1691 0.950 . S
H1715 C1693 0.950 . S
C1716 C1717 1.349 . S
C1716 C1718 1.327 . S
C1716 H1741 0.950 . S
C1717 C1716 1.349 . S
C1717 C1733 1.349 . S
C1718 C1716 1.327 . S
C1718 C1737 1.429 . S
C1718 H1742 0.950 . S
C1719 C1736 1.574 . S
C1719 C1738 1.368 . S
C1719 H1743 0.949 . S
H1720 C1724 0.949 . S
C1721 C1722 1.349 . S
C1721 C1723 1.327 . S
C1721 H1744 0.950 . S
C1722 C1721 1.349 . S
C1722 C1734 1.349 . S
C1723 C1721 1.327 . S
C1723 C1739 1.429 . S
C1723 H1745 0.950 . S
C1724 H1720 0.949 . S
C1724 C1732 1.574 . S
C1724 C1740 1.368 . S
H1725 C1733 0.950 . S
H1726 C1731 0.950 . S
H1727 C1732 0.949 . S
H1728 C1734 0.950 . S
H1729 C1735 0.950 . S
H1730 C1736 0.949 . S
C1731 H1726 0.950 . S
C1731 C1733 1.327 . S
C1731 C1737 1.429 . S
C1732 C1724 1.574 . S
C1732 H1727 0.949 . S
C1732 C1738 1.368 . S
C1733 C1717 1.349 . S
C1733 H1725 0.950 . S
C1733 C1731 1.327 . S
C1734 C1722 1.349 . S
C1734 H1728 0.950 . S
C1734 C1735 1.327 . S
C1735 H1729 0.950 . S
C1735 C1734 1.327 . S
C1735 C1739 1.429 . S
C1736 C1719 1.574 . S
C1736 H1730 0.949 . S
C1736 C1740 1.368 . S
C1737 C1718 1.429 . S
C1737 C1731 1.429 . S
C1737 C1738 1.523 . S
C1738 C1719 1.368 . S
C1738 C1732 1.368 . S
C1738 C1737 1.523 . S
C1739 C1723 1.429 . S
C1739 C1735 1.429 . S
C1739 C1740 1.523 . S
C1740 C1724 1.368 . S
C1740 C1736 1.368 . S
C1740 C1739 1.523 . S
H1741 C1716 0.950 . S
H1742 C1718 0.950 . S
H1743 C1719 0.949 . S
H1744 C1721 0.950 . S
H1745 C1723 0.950 . S
C1746 C1747 1.349 . S
C1746 C1748 1.327 . S
C1746 H1771 0.950 . S
C1747 C1746 1.349 . S
C1747 C1763 1.349 . S
C1748 C1746 1.327 . S
C1748 C1767 1.429 . S
C1748 H1772 0.950 . S
C1749 C1766 1.574 . S
C1749 C1768 1.368 . S
C1749 H1773 0.949 . S
H1750 C1754 0.949 . S
C1751 C1752 1.349 . S
C1751 C1753 1.327 . S
C1751 H1774 0.950 . S
C1752 C1751 1.349 . S
C1752 C1764 1.349 . S
C1753 C1751 1.327 . S
C1753 C1769 1.429 . S
C1753 H1775 0.950 . S
C1754 H1750 0.949 . S
C1754 C1762 1.574 . S
C1754 C1770 1.368 . S
H1755 C1763 0.950 . S
H1756 C1761 0.950 . S
H1757 C1762 0.949 . S
H1758 C1764 0.950 . S
H1759 C1765 0.950 . S
H1760 C1766 0.949 . S
C1761 H1756 0.950 . S
C1761 C1763 1.327 . S
C1761 C1767 1.429 . S
C1762 C1754 1.574 . S
C1762 H1757 0.949 . S
C1762 C1768 1.368 . S
C1763 C1747 1.349 . S
C1763 H1755 0.950 . S
C1763 C1761 1.327 . S
C1764 C1752 1.349 . S
C1764 H1758 0.950 . S
C1764 C1765 1.327 . S
C1765 H1759 0.950 . S
C1765 C1764 1.327 . S
C1765 C1769 1.429 . S
C1766 C1749 1.574 . S
C1766 H1760 0.949 . S
C1766 C1770 1.368 . S
C1767 C1748 1.429 . S
C1767 C1761 1.429 . S
C1767 C1768 1.523 . S
C1768 C1749 1.368 . S
C1768 C1762 1.368 . S
C1768 C1767 1.523 . S
C1769 C1753 1.429 . S
C1769 C1765 1.429 . S
C1769 C1770 1.523 . S
C1770 C1754 1.368 . S
C1770 C1766 1.368 . S
C1770 C1769 1.523 . S
H1771 C1746 0.950 . S
H1772 C1748 0.950 . S
H1773 C1749 0.949 . S
H1774 C1751 0.950 . S
H1775 C1753 0.950 . S
C1776 C1777 1.349 . S
C1776 C1778 1.327 . S
C1776 H1801 0.950 . S
C1777 C1776 1.349 . S
C1777 C1793 1.349 . S
C1778 C1776 1.327 . S
C1778 C1797 1.429 . S
C1778 H1802 0.950 . S
C1779 C1796 1.574 . S
C1779 C1798 1.368 . S
C1779 H1803 0.949 . S
H1780 C1784 0.949 . S
C1781 C1782 1.349 . S
C1781 C1783 1.327 . S
C1781 H1804 0.950 . S
C1782 C1781 1.349 . S
C1782 C1794 1.349 . S
C1783 C1781 1.327 . S
C1783 C1799 1.429 . S
C1783 H1805 0.950 . S
C1784 H1780 0.949 . S
C1784 C1792 1.574 . S
C1784 C1800 1.368 . S
H1785 C1793 0.950 . S
H1786 C1791 0.950 . S
H1787 C1792 0.949 . S
H1788 C1794 0.950 . S
H1789 C1795 0.950 . S
H1790 C1796 0.949 . S
C1791 H1786 0.950 . S
C1791 C1793 1.327 . S
C1791 C1797 1.429 . S
C1792 C1784 1.574 . S
C1792 H1787 0.949 . S
C1792 C1798 1.368 . S
C1793 C1777 1.349 . S
C1793 H1785 0.950 . S
C1793 C1791 1.327 . S
C1794 C1782 1.349 . S
C1794 H1788 0.950 . S
C1794 C1795 1.327 . S
C1795 H1789 0.950 . S
C1795 C1794 1.327 . S
C1795 C1799 1.429 . S
C1796 C1779 1.574 . S
C1796 H1790 0.949 . S
C1796 C1800 1.368 . S
C1797 C1778 1.429 . S
C1797 C1791 1.429 . S
C1797 C1798 1.523 . S
C1798 C1779 1.368 . S
C1798 C1792 1.368 . S
C1798 C1797 1.523 . S
C1799 C1783 1.429 . S
C1799 C1795 1.429 . S
C1799 C1800 1.523 . S
C1800 C1784 1.368 . S
C1800 C1796 1.368 . S
C1800 C1799 1.523 . S
H1801 C1776 0.950 . S
H1802 C1778 0.950 . S
H1803 C1779 0.949 . S
H1804 C1781 0.950 . S
H1805 C1783 0.950 . S
C1806 C1807 1.349 . S
C1806 C1808 1.327 . S
C1806 H1831 0.950 . S
C1807 C1806 1.349 . S
C1807 C1823 1.349 . S
C1808 C1806 1.327 . S
C1808 C1827 1.429 . S
C1808 H1832 0.950 . S
C1809 C1826 1.574 . S
C1809 C1828 1.368 . S
C1809 H1833 0.949 . S
H1810 C1814 0.949 . S
C1811 C1812 1.349 . S
C1811 C1813 1.327 . S
C1811 H1834 0.950 . S
C1812 C1811 1.349 . S
C1812 C1824 1.349 . S
C1813 C1811 1.327 . S
C1813 C1829 1.429 . S
C1813 H1835 0.950 . S
C1814 H1810 0.949 . S
C1814 C1822 1.574 . S
C1814 C1830 1.368 . S
H1815 C1823 0.950 . S
H1816 C1821 0.950 . S
H1817 C1822 0.949 . S
H1818 C1824 0.950 . S
H1819 C1825 0.950 . S
H1820 C1826 0.949 . S
C1821 H1816 0.950 . S
C1821 C1823 1.327 . S
C1821 C1827 1.429 . S
C1822 C1814 1.574 . S
C1822 H1817 0.949 . S
C1822 C1828 1.368 . S
C1823 C1807 1.349 . S
C1823 H1815 0.950 . S
C1823 C1821 1.327 . S
C1824 C1812 1.349 . S
C1824 H1818 0.950 . S
C1824 C1825 1.327 . S
C1825 H1819 0.950 . S
C1825 C1824 1.327 . S
C1825 C1829 1.429 . S
C1826 C1809 1.574 . S
C1826 H1820 0.949 . S
C1826 C1830 1.368 . S
C1827 C1808 1.429 . S
C1827 C1821 1.429 . S
C1827 C1828 1.523 . S
C1828 C1809 1.368 . S
C1828 C1822 1.368 . S
C1828 C1827 1.523 . S
C1829 C1813 1.429 . S
C1829 C1825 1.429 . S
C1829 C1830 1.523 . S
C1830 C1814 1.368 . S
C1830 C1826 1.368 . S
C1830 C1829 1.523 . S
H1831 C1806 0.950 . S
H1832 C1808 0.950 . S
H1833 C1809 0.949 . S
H1834 C1811 0.950 . S
H1835 C1813 0.950 . S
C1836 C1837 1.349 . S
C1836 C1838 1.327 . S
C1836 H1861 0.950 . S
C1837 C1836 1.349 . S
C1837 C1853 1.349 . S
C1838 C1836 1.327 . S
C1838 C1857 1.429 . S
C1838 H1862 0.950 . S
C1839 C1856 1.574 . S
C1839 C1858 1.368 . S
C1839 H1863 0.949 . S
H1840 C1844 0.949 . S
C1841 C1842 1.349 . S
C1841 C1843 1.327 . S
C1841 H1864 0.950 . S
C1842 C1841 1.349 . S
C1842 C1854 1.349 . S
C1843 C1841 1.327 . S
C1843 C1859 1.429 . S
C1843 H1865 0.950 . S
C1844 H1840 0.949 . S
C1844 C1852 1.574 . S
C1844 C1860 1.368 . S
H1845 C1853 0.950 . S
H1846 C1851 0.950 . S
H1847 C1852 0.949 . S
H1848 C1854 0.950 . S
H1849 C1855 0.950 . S
H1850 C1856 0.949 . S
C1851 H1846 0.950 . S
C1851 C1853 1.327 . S
C1851 C1857 1.429 . S
C1852 C1844 1.574 . S
C1852 H1847 0.949 . S
C1852 C1858 1.368 . S
C1853 C1837 1.349 . S
C1853 H1845 0.950 . S
C1853 C1851 1.327 . S
C1854 C1842 1.349 . S
C1854 H1848 0.950 . S
C1854 C1855 1.327 . S
C1855 H1849 0.950 . S
C1855 C1854 1.327 . S
C1855 C1859 1.429 . S
C1856 C1839 1.574 . S
C1856 H1850 0.949 . S
C1856 C1860 1.368 . S
C1857 C1838 1.429 . S
C1857 C1851 1.429 . S
C1857 C1858 1.523 . S
C1858 C1839 1.368 . S
C1858 C1852 1.368 . S
C1858 C1857 1.523 . S
C1859 C1843 1.429 . S
C1859 C1855 1.429 . S
C1859 C1860 1.523 . S
C1860 C1844 1.368 . S
C1860 C1856 1.368 . S
C1860 C1859 1.523 . S
H1861 C1836 0.950 . S
H1862 C1838 0.950 . S
H1863 C1839 0.949 . S
H1864 C1841 0.950 . S
H1865 C1843 0.950 . S
C1866 C1867 1.349 . S
C1866 C1868 1.327 . S
C1866 H1891 0.950 . S
C1867 C1866 1.349 . S
C1867 C1883 1.349 . S
C1868 C1866 1.327 . S
C1868 C1887 1.429 . S
C1868 H1892 0.950 . S
C1869 C1886 1.574 . S
C1869 C1888 1.368 . S
C1869 H1893 0.949 . S
H1870 C1874 0.949 . S
C1871 C1872 1.349 . S
C1871 C1873 1.327 . S
C1871 H1894 0.950 . S
C1872 C1871 1.349 . S
C1872 C1884 1.349 . S
C1873 C1871 1.327 . S
C1873 C1889 1.429 . S
C1873 H1895 0.950 . S
C1874 H1870 0.949 . S
C1874 C1882 1.574 . S
C1874 C1890 1.368 . S
H1875 C1883 0.950 . S
H1876 C1881 0.950 . S
H1877 C1882 0.949 . S
H1878 C1884 0.950 . S
H1879 C1885 0.950 . S
H1880 C1886 0.949 . S
C1881 H1876 0.950 . S
C1881 C1883 1.327 . S
C1881 C1887 1.429 . S
C1882 C1874 1.574 . S
C1882 H1877 0.949 . S
C1882 C1888 1.368 . S
C1883 C1867 1.349 . S
C1883 H1875 0.950 . S
C1883 C1881 1.327 . S
C1884 C1872 1.349 . S
C1884 H1878 0.950 . S
C1884 C1885 1.327 . S
C1885 H1879 0.950 . S
C1885 C1884 1.327 . S
C1885 C1889 1.429 . S
C1886 C1869 1.574 . S
C1886 H1880 0.949 . S
C1886 C1890 1.368 . S
C1887 C1868 1.429 . S
C1887 C1881 1.429 . S
C1887 C1888 1.523 . S
C1888 C1869 1.368 . S
C1888 C1882 1.368 . S
C1888 C1887 1.523 . S
C1889 C1873 1.429 . S
C1889 C1885 1.429 . S
C1889 C1890 1.523 . S
C1890 C1874 1.368 . S
C1890 C1886 1.368 . S
C1890 C1889 1.523 . S
H1891 C1866 0.950 . S
H1892 C1868 0.950 . S
H1893 C1869 0.949 . S
H1894 C1871 0.950 . S
H1895 C1873 0.950 . S
C1896 C1897 1.349 . S
C1896 C1898 1.327 . S
C1896 H1921 0.950 . S
C1897 C1896 1.349 . S
C1897 C1913 1.349 . S
C1898 C1896 1.327 . S
C1898 C1917 1.429 . S
C1898 H1922 0.950 . S
C1899 C1916 1.574 . S
C1899 C1918 1.368 . S
C1899 H1923 0.949 . S
H1900 C1904 0.949 . S
C1901 C1902 1.349 . S
C1901 C1903 1.327 . S
C1901 H1924 0.950 . S
C1902 C1901 1.349 . S
C1902 C1914 1.349 . S
C1903 C1901 1.327 . S
C1903 C1919 1.429 . S
C1903 H1925 0.950 . S
C1904 H1900 0.949 . S
C1904 C1912 1.574 . S
C1904 C1920 1.368 . S
H1905 C1913 0.950 . S
H1906 C1911 0.950 . S
H1907 C1912 0.949 . S
H1908 C1914 0.950 . S
H1909 C1915 0.950 . S
H1910 C1916 0.949 . S
C1911 H1906 0.950 . S
C1911 C1913 1.327 . S
C1911 C1917 1.429 . S
C1912 C1904 1.574 . S
C1912 H1907 0.949 . S
C1912 C1918 1.368 . S
C1913 C1897 1.349 . S
C1913 H1905 0.950 . S
C1913 C1911 1.327 . S
C1914 C1902 1.349 . S
C1914 H1908 0.950 . S
C1914 C1915 1.327 . S
C1915 H1909 0.950 . S
C1915 C1914 1.327 . S
C1915 C1919 1.429 . S
C1916 C1899 1.574 . S
C1916 H1910 0.949 . S
C1916 C1920 1.368 . S
C1917 C1898 1.429 . S
C1917 C1911 1.429 . S
C1917 C1918 1.523 . S
C1918 C1899 1.368 . S
C1918 C1912 1.368 . S
C1918 C1917 1.523 . S
C1919 C1903 1.429 . S
C1919 C1915 1.429 . S
C1919 C1920 1.523 . S
C1920 C1904 1.368 . S
C1920 C1916 1.368 . S
C1920 C1919 1.523 . S
H1921 C1896 0.950 . S
H1922 C1898 0.950 . S
H1923 C1899 0.949 . S
H1924 C1901 0.950 . S
H1925 C1903 0.950 . S
C1926 C1927 1.349 . S
C1926 C1928 1.327 . S
C1926 H1951 0.950 . S
C1927 C1926 1.349 . S
C1927 C1943 1.349 . S
C1928 C1926 1.327 . S
C1928 C1947 1.429 . S
C1928 H1952 0.950 . S
C1929 C1946 1.574 . S
C1929 C1948 1.368 . S
C1929 H1953 0.949 . S
H1930 C1934 0.949 . S
C1931 C1932 1.349 . S
C1931 C1933 1.327 . S
C1931 H1954 0.950 . S
C1932 C1931 1.349 . S
C1932 C1944 1.349 . S
C1933 C1931 1.327 . S
C1933 C1949 1.429 . S
C1933 H1955 0.950 . S
C1934 H1930 0.949 . S
C1934 C1942 1.574 . S
C1934 C1950 1.368 . S
H1935 C1943 0.950 . S
H1936 C1941 0.950 . S
H1937 C1942 0.949 . S
H1938 C1944 0.950 . S
H1939 C1945 0.950 . S
H1940 C1946 0.949 . S
C1941 H1936 0.950 . S
C1941 C1943 1.327 . S
C1941 C1947 1.429 . S
C1942 C1934 1.574 . S
C1942 H1937 0.949 . S
C1942 C1948 1.368 . S
C1943 C1927 1.349 . S
C1943 H1935 0.950 . S
C1943 C1941 1.327 . S
C1944 C1932 1.349 . S
C1944 H1938 0.950 . S
C1944 C1945 1.327 . S
C1945 H1939 0.950 . S
C1945 C1944 1.327 . S
C1945 C1949 1.429 . S
C1946 C1929 1.574 . S
C1946 H1940 0.949 . S
C1946 C1950 1.368 . S
C1947 C1928 1.429 . S
C1947 C1941 1.429 . S
C1947 C1948 1.523 . S
C1948 C1929 1.368 . S
C1948 C1942 1.368 . S
C1948 C1947 1.523 . S
C1949 C1933 1.429 . S
C1949 C1945 1.429 . S
C1949 C1950 1.523 . S
C1950 C1934 1.368 . S
C1950 C1946 1.368 . S
C1950 C1949 1.523 . S
H1951 C1926 0.950 . S
H1952 C1928 0.950 . S
H1953 C1929 0.949 . S
H1954 C1931 0.950 . S
H1955 C1933 0.950 . S
C1956 C1957 1.349 . S
C1956 C1958 1.327 . S
C1956 H1981 0.950 . S
C1957 C1956 1.349 . S
C1957 C1973 1.349 1_554 S
C1958 C1956 1.327 . S
C1958 C1977 1.429 . S
C1958 H1982 0.950 . S
C1959 C1976 1.574 . S
C1959 C1978 1.368 . S
C1959 H1983 0.949 1_554 S
H1960 C1964 0.949 . S
C1961 C1962 1.349 . S
C1961 C1963 1.327 . S
C1961 H1984 0.950 . S
C1962 C1961 1.349 . S
C1962 C1974 1.349 . S
C1963 C1961 1.327 . S
C1963 C1979 1.429 . S
C1963 H1985 0.950 . S
C1964 H1960 0.949 . S
C1964 C1972 1.574 . S
C1964 C1980 1.368 . S
H1965 C1973 0.950 . S
H1966 C1971 0.950 . S
H1967 C1972 0.949 . S
H1968 C1974 0.950 . S
H1969 C1975 0.950 . S
H1970 C1976 0.949 1_556 S
C1971 H1966 0.950 . S
C1971 C1973 1.327 . S
C1971 C1977 1.429 1_556 S
C1972 C1964 1.574 . S
C1972 H1967 0.949 . S
C1972 C1978 1.368 . S
C1973 C1957 1.349 1_556 S
C1973 H1965 0.950 . S
C1973 C1971 1.327 . S
C1974 C1962 1.349 . S
C1974 H1968 0.950 . S
C1974 C1975 1.327 . S
C1975 H1969 0.950 . S
C1975 C1974 1.327 . S
C1975 C1979 1.429 . S
C1976 C1959 1.574 . S
C1976 H1970 0.949 1_554 S
C1976 C1980 1.368 . S
C1977 C1958 1.429 . S
C1977 C1971 1.429 1_554 S
C1977 C1978 1.523 . S
C1978 C1959 1.368 . S
C1978 C1972 1.368 . S
C1978 C1977 1.523 . S
C1979 C1963 1.429 . S
C1979 C1975 1.429 . S
C1979 C1980 1.523 . S
C1980 C1964 1.368 . S
C1980 C1976 1.368 . S
C1980 C1979 1.523 . S
H1981 C1956 0.950 . S
H1982 C1958 0.950 . S
H1983 C1959 0.949 1_556 S
H1984 C1961 0.950 . S
H1985 C1963 0.950 . S
C1986 C1987 1.349 . S
C1986 C1988 1.327 . S
C1986 H2011 0.950 . S
C1987 C1986 1.349 . S
C1987 C2003 1.349 . S
C1988 C1986 1.327 . S
C1988 C2007 1.429 . S
C1988 H2012 0.950 . S
C1989 C2006 1.574 . S
C1989 C2008 1.368 . S
C1989 H2013 0.949 . S
H1990 C1994 0.949 . S
C1991 C1992 1.349 1_455 S
C1991 C1993 1.327 . S
C1991 H2014 0.950 . S
C1992 C1991 1.349 1_655 S
C1992 C2004 1.349 . S
C1993 C1991 1.327 . S
C1993 C2009 1.429 . S
C1993 H2015 0.950 . S
C1994 H1990 0.949 . S
C1994 C2002 1.574 . S
C1994 C2010 1.368 . S
H1995 C2003 0.950 . S
H1996 C2001 0.950 . S
H1997 C2002 0.949 . S
H1998 C2004 0.950 . S
H1999 C2005 0.949 1_655 S
H2000 C2006 0.949 . S
C2001 H1996 0.950 . S
C2001 C2003 1.327 . S
C2001 C2007 1.429 . S
C2002 C1994 1.574 . S
C2002 H1997 0.949 . S
C2002 C2008 1.368 . S
C2003 C1987 1.349 . S
C2003 H1995 0.950 . S
C2003 C2001 1.327 . S
C2004 C1992 1.349 . S
C2004 H1998 0.950 . S
C2004 C2005 1.327 1_655 S
C2005 H1999 0.949 1_455 S
C2005 C2004 1.327 1_455 S
C2005 C2009 1.429 . S
C2006 C1989 1.574 . S
C2006 H2000 0.949 . S
C2006 C2010 1.368 . S
C2007 C1988 1.429 . S
C2007 C2001 1.429 . S
C2007 C2008 1.523 . S
C2008 C1989 1.368 . S
C2008 C2002 1.368 . S
C2008 C2007 1.523 . S
C2009 C1993 1.429 . S
C2009 C2005 1.429 . S
C2009 C2010 1.523 . S
C2010 C1994 1.368 . S
C2010 C2006 1.368 . S
C2010 C2009 1.523 . S
H2011 C1986 0.950 . S
H2012 C1988 0.950 . S
H2013 C1989 0.949 . S
H2014 C1991 0.950 . S
H2015 C1993 0.950 . S
C2016 C2017 1.349 . S
C2016 C2018 1.327 . S
C2016 H2041 0.950 . S
C2017 C2016 1.349 . S
C2017 C2033 1.349 . S
C2018 C2016 1.327 . S
C2018 C2037 1.429 . S
C2018 H2042 0.950 . S
C2019 C2036 1.574 . S
C2019 C2038 1.368 . S
C2019 H2043 0.949 . S
H2020 C2024 0.949 . S
C2021 C2022 1.349 . S
C2021 C2023 1.327 . S
C2021 H2044 0.950 . S
C2022 C2021 1.349 . S
C2022 C2034 1.349 . S
C2023 C2021 1.327 . S
C2023 C2039 1.429 . S
C2023 H2045 0.950 . S
C2024 H2020 0.949 . S
C2024 C2032 1.574 . S
C2024 C2040 1.368 . S
H2025 C2033 0.950 . S
H2026 C2031 0.950 . S
H2027 C2032 0.949 . S
H2028 C2034 0.950 . S
H2029 C2035 0.950 . S
H2030 C2036 0.949 . S
C2031 H2026 0.950 . S
C2031 C2033 1.327 . S
C2031 C2037 1.429 . S
C2032 C2024 1.574 . S
C2032 H2027 0.949 . S
C2032 C2038 1.368 . S
C2033 C2017 1.349 . S
C2033 H2025 0.950 . S
C2033 C2031 1.327 . S
C2034 C2022 1.349 . S
C2034 H2028 0.950 . S
C2034 C2035 1.327 . S
C2035 H2029 0.950 . S
C2035 C2034 1.327 . S
C2035 C2039 1.429 . S
C2036 C2019 1.574 . S
C2036 H2030 0.949 . S
C2036 C2040 1.368 . S
C2037 C2018 1.429 . S
C2037 C2031 1.429 . S
C2037 C2038 1.523 . S
C2038 C2019 1.368 . S
C2038 C2032 1.368 . S
C2038 C2037 1.523 . S
C2039 C2023 1.429 . S
C2039 C2035 1.429 . S
C2039 C2040 1.523 . S
C2040 C2024 1.368 . S
C2040 C2036 1.368 . S
C2040 C2039 1.523 . S
H2041 C2016 0.950 . S
H2042 C2018 0.950 . S
H2043 C2019 0.949 . S
H2044 C2021 0.950 . S
H2045 C2023 0.950 . S
C2046 C2047 1.349 . S
C2046 C2048 1.327 . S
C2046 H2071 0.950 . S
C2047 C2046 1.349 . S
C2047 C2063 1.349 . S
C2048 C2046 1.327 . S
C2048 C2067 1.429 . S
C2048 H2072 0.950 . S
C2049 C2066 1.574 . S
C2049 C2068 1.368 . S
C2049 H2073 0.949 . S
H2050 C2054 0.949 . S
C2051 C2052 1.349 . S
C2051 C2053 1.327 . S
C2051 H2074 0.950 . S
C2052 C2051 1.349 . S
C2052 C2064 1.349 . S
C2053 C2051 1.327 . S
C2053 C2069 1.429 . S
C2053 H2075 0.950 . S
C2054 H2050 0.949 . S
C2054 C2062 1.574 . S
C2054 C2070 1.368 . S
H2055 C2063 0.950 . S
H2056 C2061 0.950 . S
H2057 C2062 0.949 . S
H2058 C2064 0.950 . S
H2059 C2065 0.950 . S
H2060 C2066 0.949 . S
C2061 H2056 0.950 . S
C2061 C2063 1.327 . S
C2061 C2067 1.429 . S
C2062 C2054 1.574 . S
C2062 H2057 0.949 . S
C2062 C2068 1.368 . S
C2063 C2047 1.349 . S
C2063 H2055 0.950 . S
C2063 C2061 1.327 . S
C2064 C2052 1.349 . S
C2064 H2058 0.950 . S
C2064 C2065 1.327 . S
C2065 H2059 0.950 . S
C2065 C2064 1.327 . S
C2065 C2069 1.429 . S
C2066 C2049 1.574 . S
C2066 H2060 0.949 . S
C2066 C2070 1.368 . S
C2067 C2048 1.429 . S
C2067 C2061 1.429 . S
C2067 C2068 1.523 . S
C2068 C2049 1.368 . S
C2068 C2062 1.368 . S
C2068 C2067 1.523 . S
C2069 C2053 1.429 . S
C2069 C2065 1.429 . S
C2069 C2070 1.523 . S
C2070 C2054 1.368 . S
C2070 C2066 1.368 . S
C2070 C2069 1.523 . S
H2071 C2046 0.950 . S
H2072 C2048 0.950 . S
H2073 C2049 0.949 . S
H2074 C2051 0.950 . S
H2075 C2053 0.950 . S
C2076 C2077 1.349 . S
C2076 C2078 1.327 . S
C2076 H2101 0.950 . S
C2077 C2076 1.349 . S
C2077 C2093 1.349 . S
C2078 C2076 1.327 . S
C2078 C2097 1.429 . S
C2078 H2102 0.950 . S
C2079 C2096 1.574 . S
C2079 C2098 1.368 . S
C2079 H2103 0.949 . S
H2080 C2084 0.949 . S
C2081 C2082 1.349 . S
C2081 C2083 1.327 . S
C2081 H2104 0.950 . S
C2082 C2081 1.349 . S
C2082 C2094 1.349 . S
C2083 C2081 1.327 . S
C2083 C2099 1.429 . S
C2083 H2105 0.950 . S
C2084 H2080 0.949 . S
C2084 C2092 1.574 . S
C2084 C2100 1.368 . S
H2085 C2093 0.950 . S
H2086 C2091 0.950 . S
H2087 C2092 0.949 . S
H2088 C2094 0.950 . S
H2089 C2095 0.950 . S
H2090 C2096 0.949 . S
C2091 H2086 0.950 . S
C2091 C2093 1.327 . S
C2091 C2097 1.429 . S
C2092 C2084 1.574 . S
C2092 H2087 0.949 . S
C2092 C2098 1.368 . S
C2093 C2077 1.349 . S
C2093 H2085 0.950 . S
C2093 C2091 1.327 . S
C2094 C2082 1.349 . S
C2094 H2088 0.950 . S
C2094 C2095 1.327 . S
C2095 H2089 0.950 . S
C2095 C2094 1.327 . S
C2095 C2099 1.429 . S
C2096 C2079 1.574 . S
C2096 H2090 0.949 . S
C2096 C2100 1.368 . S
C2097 C2078 1.429 . S
C2097 C2091 1.429 . S
C2097 C2098 1.523 . S
C2098 C2079 1.368 . S
C2098 C2092 1.368 . S
C2098 C2097 1.523 . S
C2099 C2083 1.429 . S
C2099 C2095 1.429 . S
C2099 C2100 1.523 . S
C2100 C2084 1.368 . S
C2100 C2096 1.368 . S
C2100 C2099 1.523 . S
H2101 C2076 0.950 . S
H2102 C2078 0.950 . S
H2103 C2079 0.949 . S
H2104 C2081 0.950 . S
H2105 C2083 0.950 . S
C2106 C2107 1.343 . S
C2106 C2108 1.327 . S
C2106 H2131 0.950 . S
C2107 C2106 1.343 . S
C2107 C2123 1.352 1_655 S
C2108 C2106 1.327 . S
C2108 C2127 1.429 . S
C2108 H2132 0.950 . S
C2109 C2126 1.574 . S
C2109 C2128 1.368 . S
C2109 H2133 0.949 . S
H2110 C2114 0.949 . S
C2111 C2112 1.349 . S
C2111 C2113 1.327 . S
C2111 H2134 0.950 . S
C2112 C2111 1.349 . S
C2112 C2124 1.349 . S
C2113 C2111 1.327 . S
C2113 C2129 1.429 . S
C2113 H2135 0.950 . S
C2114 H2110 0.949 . S
C2114 C2122 1.574 . S
C2114 C2130 1.368 . S
H2115 C2123 0.950 . S
H2116 C2121 0.950 . S
H2117 C2122 0.949 . S
H2118 C2124 0.950 . S
H2119 C2125 0.950 . S
H2120 C2126 0.949 . S
C2121 H2116 0.950 . S
C2121 C2123 1.327 . S
C2121 C2127 1.429 1_455 S
C2122 C2114 1.574 . S
C2122 H2117 0.949 . S
C2122 C2128 1.368 . S
C2123 C2107 1.352 1_455 S
C2123 H2115 0.950 . S
C2123 C2121 1.327 . S
C2124 C2112 1.349 . S
C2124 H2118 0.950 . S
C2124 C2125 1.327 . S
C2125 H2119 0.950 . S
C2125 C2124 1.327 . S
C2125 C2129 1.429 . S
C2126 C2109 1.574 . S
C2126 H2120 0.949 . S
C2126 C2130 1.368 . S
C2127 C2108 1.429 . S
C2127 C2121 1.429 1_655 S
C2127 C2128 1.523 . S
C2128 C2109 1.368 . S
C2128 C2122 1.368 . S
C2128 C2127 1.523 . S
C2129 C2113 1.429 . S
C2129 C2125 1.429 . S
C2129 C2130 1.523 . S
C2130 C2114 1.368 . S
C2130 C2126 1.368 . S
C2130 C2129 1.523 . S
H2131 C2106 0.950 . S
H2132 C2108 0.950 . S
H2133 C2109 0.949 . S
H2134 C2111 0.950 . S
H2135 C2113 0.950 . S
C2136 C2137 1.349 . S
C2136 C2138 1.327 . S
C2136 H2161 0.950 . S
C2137 C2136 1.349 . S
C2137 C2153 1.349 . S
C2138 C2136 1.327 . S
C2138 C2157 1.429 . S
C2138 H2162 0.950 . S
C2139 C2156 1.574 . S
C2139 C2158 1.368 . S
C2139 H2163 0.949 . S
H2140 C2144 0.949 . S
C2141 C2142 1.349 . S
C2141 C2143 1.327 . S
C2141 H2164 0.950 . S
C2142 C2141 1.349 . S
C2142 C2154 1.349 . S
C2143 C2141 1.327 . S
C2143 C2159 1.429 . S
C2143 H2165 0.950 . S
C2144 H2140 0.949 . S
C2144 C2152 1.574 . S
C2144 C2160 1.368 . S
H2145 C2153 0.950 . S
H2146 C2151 0.950 . S
H2147 C2152 0.949 . S
H2148 C2154 0.950 . S
H2149 C2155 0.950 . S
H2150 C2156 0.949 . S
C2151 H2146 0.950 . S
C2151 C2153 1.327 . S
C2151 C2157 1.429 . S
C2152 C2144 1.574 . S
C2152 H2147 0.949 . S
C2152 C2158 1.368 . S
C2153 C2137 1.349 . S
C2153 H2145 0.950 . S
C2153 C2151 1.327 . S
C2154 C2142 1.349 . S
C2154 H2148 0.950 . S
C2154 C2155 1.327 . S
C2155 H2149 0.950 . S
C2155 C2154 1.327 . S
C2155 C2159 1.429 . S
C2156 C2139 1.574 . S
C2156 H2150 0.949 . S
C2156 C2160 1.368 . S
C2157 C2138 1.429 . S
C2157 C2151 1.429 . S
C2157 C2158 1.523 . S
C2158 C2139 1.368 . S
C2158 C2152 1.368 . S
C2158 C2157 1.523 . S
C2159 C2143 1.429 . S
C2159 C2155 1.429 . S
C2159 C2160 1.523 . S
C2160 C2144 1.368 . S
C2160 C2156 1.368 . S
C2160 C2159 1.523 . S
H2161 C2136 0.950 . S
H2162 C2138 0.950 . S
H2163 C2139 0.949 . S
H2164 C2141 0.950 . S
H2165 C2143 0.950 . S
C2166 C2167 1.349 1_554 S
C2166 C2168 1.327 . S
C2166 H2191 0.950 . S
C2167 C2166 1.349 1_556 S
C2167 C2183 1.349 . S
C2168 C2166 1.327 . S
C2168 C2187 1.429 . S
C2168 H2192 0.950 . S
C2169 C2186 1.574 . S
C2169 C2188 1.368 . S
C2169 H2193 0.983 . S
H2170 C2174 0.949 . S
C2171 C2172 1.349 . S
C2171 C2173 1.327 . S
C2171 H2194 0.950 . S
C2172 C2171 1.349 . S
C2172 C2184 1.349 . S
C2173 C2171 1.327 . S
C2173 C2189 1.429 . S
C2173 H2195 0.950 . S
C2174 H2170 0.949 . S
C2174 C2182 1.574 . S
C2174 C2190 1.368 . S
H2175 C2183 0.950 . S
H2176 C2181 0.950 . S
H2177 C2182 0.949 . S
H2178 C2184 0.950 . S
H2179 C2185 0.950 . S
H2180 C2186 0.949 . S
C2181 H2176 0.950 . S
C2181 C2183 1.327 . S
C2181 C2187 1.429 1_556 S
C2182 C2174 1.574 . S
C2182 H2177 0.949 . S
C2182 C2188 1.368 . S
C2183 C2167 1.349 . S
C2183 H2175 0.950 . S
C2183 C2181 1.327 . S
C2184 C2172 1.349 . S
C2184 H2178 0.950 . S
C2184 C2185 1.327 . S
C2185 H2179 0.950 . S
C2185 C2184 1.327 . S
C2185 C2189 1.429 . S
C2186 C2169 1.574 . S
C2186 H2180 0.949 . S
C2186 C2190 1.368 . S
C2187 C2168 1.429 . S
C2187 C2181 1.429 1_554 S
C2187 C2188 1.523 . S
C2188 C2169 1.368 . S
C2188 C2182 1.368 . S
C2188 C2187 1.523 . S
C2189 C2173 1.429 . S
C2189 C2185 1.429 . S
C2189 C2190 1.523 . S
C2190 C2174 1.368 . S
C2190 C2186 1.368 . S
C2190 C2189 1.523 . S
H2191 C2166 0.950 . S
H2192 C2168 0.950 . S
H2193 C2169 0.983 . S
H2194 C2171 0.950 . S
H2195 C2173 0.950 . S
C2196 C2197 1.349 . S
C2196 C2198 1.327 . S
C2196 H2221 0.950 . S
C2197 C2196 1.349 . S
C2197 C2213 1.349 . S
C2198 C2196 1.327 . S
C2198 C2217 1.429 . S
C2198 H2222 0.950 . S
C2199 C2216 1.574 . S
C2199 C2218 1.368 . S
C2199 H2223 0.949 . S
H2200 C2204 0.949 . S
C2201 C2202 1.349 . S
C2201 C2203 1.327 . S
C2201 H2224 0.950 . S
C2202 C2201 1.349 . S
C2202 C2214 1.349 . S
C2203 C2201 1.327 . S
C2203 C2219 1.429 . S
C2203 H2225 0.950 . S
C2204 H2200 0.949 . S
C2204 C2212 1.574 . S
C2204 C2220 1.368 . S
H2205 C2213 0.950 1_455 S
H2206 C2211 0.950 . S
H2207 C2212 0.949 . S
H2208 C2214 0.950 . S
H2209 C2215 0.950 . S
H2210 C2216 0.949 . S
C2211 H2206 0.950 . S
C2211 C2213 1.327 . S
C2211 C2217 1.429 . S
C2212 C2204 1.574 . S
C2212 H2207 0.949 . S
C2212 C2218 1.368 . S
C2213 C2197 1.349 . S
C2213 H2205 0.950 1_655 S
C2213 C2211 1.327 . S
C2214 C2202 1.349 . S
C2214 H2208 0.950 . S
C2214 C2215 1.327 . S
C2215 H2209 0.950 . S
C2215 C2214 1.327 . S
C2215 C2219 1.429 . S
C2216 C2199 1.574 . S
C2216 H2210 0.949 . S
C2216 C2220 1.368 . S
C2217 C2198 1.429 . S
C2217 C2211 1.429 . S
C2217 C2218 1.523 . S
C2218 C2199 1.368 . S
C2218 C2212 1.368 . S
C2218 C2217 1.523 . S
C2219 C2203 1.429 . S
C2219 C2215 1.429 . S
C2219 C2220 1.523 . S
C2220 C2204 1.368 . S
C2220 C2216 1.368 . S
C2220 C2219 1.523 . S
H2221 C2196 0.950 . S
H2222 C2198 0.950 . S
H2223 C2199 0.949 . S
H2224 C2201 0.950 . S
H2225 C2203 0.950 . S
C2226 C2227 1.349 . S
C2226 C2228 1.327 . S
C2226 H2251 0.950 . S
C2227 C2226 1.349 . S
C2227 C2243 1.349 . S
C2228 C2226 1.327 . S
C2228 C2247 1.429 . S
C2228 H2252 0.950 . S
C2229 C2246 1.574 . S
C2229 C2248 1.368 . S
C2229 H2253 0.949 . S
H2230 C2234 0.949 . S
C2231 C2232 1.349 . S
C2231 C2233 1.327 . S
C2231 H2254 0.950 . S
C2232 C2231 1.349 . S
C2232 C2244 1.349 . S
C2233 C2231 1.327 . S
C2233 C2249 1.429 . S
C2233 H2255 0.950 . S
C2234 H2230 0.949 . S
C2234 C2242 1.574 . S
C2234 C2250 1.368 . S
H2235 C2243 0.950 . S
H2236 C2241 0.950 . S
H2237 C2242 0.949 . S
H2238 C2244 0.950 . S
H2239 C2245 0.950 . S
H2240 C2246 0.949 . S
C2241 H2236 0.950 . S
C2241 C2243 1.327 . S
C2241 C2247 1.429 . S
C2242 C2234 1.574 . S
C2242 H2237 0.949 . S
C2242 C2248 1.368 . S
C2243 C2227 1.349 . S
C2243 H2235 0.950 . S
C2243 C2241 1.327 . S
C2244 C2232 1.349 . S
C2244 H2238 0.950 . S
C2244 C2245 1.327 . S
C2245 H2239 0.950 . S
C2245 C2244 1.327 . S
C2245 C2249 1.429 . S
C2246 C2229 1.574 . S
C2246 H2240 0.949 . S
C2246 C2250 1.368 . S
C2247 C2228 1.429 . S
C2247 C2241 1.429 . S
C2247 C2248 1.523 . S
C2248 C2229 1.368 . S
C2248 C2242 1.368 . S
C2248 C2247 1.523 . S
C2249 C2233 1.429 . S
C2249 C2245 1.429 . S
C2249 C2250 1.523 . S
C2250 C2234 1.368 . S
C2250 C2246 1.368 . S
C2250 C2249 1.523 . S
H2251 C2226 0.950 . S
H2252 C2228 0.950 . S
H2253 C2229 0.949 . S
H2254 C2231 0.950 . S
H2255 C2233 0.950 . S
C2256 C2257 1.349 . S
C2256 C2258 1.327 . S
C2256 H2281 0.950 . S
C2257 C2256 1.349 . S
C2257 C2273 1.349 . S
C2258 C2256 1.327 . S
C2258 C2277 1.429 . S
C2258 H2282 0.950 . S
C2259 C2276 1.574 . S
C2259 C2278 1.368 . S
C2259 H2283 0.949 . S
H2260 C2264 0.949 . S
C2261 C2262 1.349 . S
C2261 C2263 1.327 . S
C2261 H2284 0.950 . S
C2262 C2261 1.349 . S
C2262 C2274 1.349 . S
C2263 C2261 1.327 . S
C2263 C2279 1.429 . S
C2263 H2285 0.950 . S
C2264 H2260 0.949 . S
C2264 C2272 1.574 . S
C2264 C2280 1.368 . S
H2265 C2273 0.950 . S
H2266 C2271 0.950 . S
H2267 C2272 0.949 . S
H2268 C2274 0.944 1_655 S
H2269 C2275 0.950 . S
H2270 C2276 0.949 . S
C2271 H2266 0.950 . S
C2271 C2273 1.327 . S
C2271 C2277 1.429 . S
C2272 C2264 1.574 . S
C2272 H2267 0.949 . S
C2272 C2278 1.368 . S
C2273 C2257 1.349 . S
C2273 H2265 0.950 . S
C2273 C2271 1.327 . S
C2274 C2262 1.349 . S
C2274 H2268 0.944 1_455 S
C2274 C2275 1.327 . S
C2275 H2269 0.950 . S
C2275 C2274 1.327 . S
C2275 C2279 1.429 . S
C2276 C2259 1.574 . S
C2276 H2270 0.949 . S
C2276 C2280 1.368 . S
C2277 C2258 1.429 . S
C2277 C2271 1.429 . S
C2277 C2278 1.523 . S
C2278 C2259 1.368 . S
C2278 C2272 1.368 . S
C2278 C2277 1.523 . S
C2279 C2263 1.429 . S
C2279 C2275 1.429 . S
C2279 C2280 1.523 . S
C2280 C2264 1.368 . S
C2280 C2276 1.368 . S
C2280 C2279 1.523 . S
H2281 C2256 0.950 . S
H2282 C2258 0.950 . S
H2283 C2259 0.949 . S
H2284 C2261 0.950 . S
H2285 C2263 0.950 . S
C2286 C2287 1.349 . S
C2286 C2288 1.327 . S
C2286 H2311 0.950 . S
C2287 C2286 1.349 . S
C2287 C2303 1.349 . S
C2288 C2286 1.327 . S
C2288 C2307 1.429 . S
C2288 H2312 0.950 . S
C2289 C2306 1.574 . S
C2289 C2308 1.368 . S
C2289 H2313 0.949 . S
H2290 C2294 0.949 . S
C2291 C2292 1.349 . S
C2291 C2293 1.327 . S
C2291 H2314 0.950 . S
C2292 C2291 1.349 . S
C2292 C2304 1.349 . S
C2293 C2291 1.327 . S
C2293 C2309 1.429 . S
C2293 H2315 0.950 . S
C2294 H2290 0.949 . S
C2294 C2302 1.574 . S
C2294 C2310 1.368 . S
H2295 C2303 0.950 . S
H2296 C2301 0.950 . S
H2297 C2302 0.949 . S
H2298 C2304 0.950 . S
H2299 C2305 0.950 . S
H2300 C2306 0.949 . S
C2301 H2296 0.950 . S
C2301 C2303 1.327 . S
C2301 C2307 1.429 . S
C2302 C2294 1.574 . S
C2302 H2297 0.949 . S
C2302 C2308 1.368 . S
C2303 C2287 1.349 . S
C2303 H2295 0.950 . S
C2303 C2301 1.327 . S
C2304 C2292 1.349 . S
C2304 H2298 0.950 . S
C2304 C2305 1.327 . S
C2305 H2299 0.950 . S
C2305 C2304 1.327 . S
C2305 C2309 1.429 . S
C2306 C2289 1.574 . S
C2306 H2300 0.949 . S
C2306 C2310 1.368 . S
C2307 C2288 1.429 . S
C2307 C2301 1.429 . S
C2307 C2308 1.523 . S
C2308 C2289 1.368 . S
C2308 C2302 1.368 . S
C2308 C2307 1.523 . S
C2309 C2293 1.429 . S
C2309 C2305 1.429 . S
C2309 C2310 1.523 . S
C2310 C2294 1.368 . S
C2310 C2306 1.368 . S
C2310 C2309 1.523 . S
H2311 C2286 0.950 . S
H2312 C2288 0.950 . S
H2313 C2289 0.949 . S
H2314 C2291 0.950 . S
H2315 C2293 0.950 . S
C2316 C2317 1.349 . S
C2316 C2318 1.327 . S
C2316 H2341 0.950 . S
C2317 C2316 1.349 . S
C2317 C2333 1.349 . S
C2318 C2316 1.327 . S
C2318 C2337 1.429 . S
C2318 H2342 0.950 . S
C2319 C2336 1.574 . S
C2319 C2338 1.368 . S
C2319 H2343 0.949 . S
H2320 C2324 0.949 . S
C2321 C2322 1.349 . S
C2321 C2323 1.327 . S
C2321 H2344 0.950 . S
C2322 C2321 1.349 . S
C2322 C2334 1.349 . S
C2323 C2321 1.327 . S
C2323 C2339 1.429 . S
C2323 H2345 0.950 . S
C2324 H2320 0.949 . S
C2324 C2332 1.574 . S
C2324 C2340 1.368 . S
H2325 C2333 0.950 . S
H2326 C2331 0.950 . S
H2327 C2332 0.949 . S
H2328 C2334 0.950 . S
H2329 C2335 0.950 . S
H2330 C2336 0.949 . S
C2331 H2326 0.950 . S
C2331 C2333 1.327 . S
C2331 C2337 1.429 . S
C2332 C2324 1.574 . S
C2332 H2327 0.949 . S
C2332 C2338 1.368 . S
C2333 C2317 1.349 . S
C2333 H2325 0.950 . S
C2333 C2331 1.327 . S
C2334 C2322 1.349 . S
C2334 H2328 0.950 . S
C2334 C2335 1.327 . S
C2335 H2329 0.950 . S
C2335 C2334 1.327 . S
C2335 C2339 1.429 . S
C2336 C2319 1.574 . S
C2336 H2330 0.949 . S
C2336 C2340 1.368 . S
C2337 C2318 1.429 . S
C2337 C2331 1.429 . S
C2337 C2338 1.523 . S
C2338 C2319 1.368 . S
C2338 C2332 1.368 . S
C2338 C2337 1.523 . S
C2339 C2323 1.429 . S
C2339 C2335 1.429 . S
C2339 C2340 1.523 . S
C2340 C2324 1.368 . S
C2340 C2336 1.368 . S
C2340 C2339 1.523 . S
H2341 C2316 0.950 . S
H2342 C2318 0.950 . S
H2343 C2319 0.949 . S
H2344 C2321 0.950 . S
H2345 C2323 0.950 . S
C2346 C2347 1.349 1_554 S
C2346 C2348 1.327 1_554 S
C2346 H2371 0.950 . S
C2347 C2346 1.349 1_556 S
C2347 C2363 1.346 . S
C2348 C2346 1.327 1_556 S
C2348 C2367 1.429 . S
C2348 H2372 0.950 . S
C2349 C2366 1.574 . S
C2349 C2368 1.368 . S
C2349 H2373 0.949 . S
H2350 C2354 0.949 . S
C2351 C2352 1.349 . S
C2351 C2353 1.327 . S
C2351 H2374 0.950 . S
C2352 C2351 1.349 . S
C2352 C2364 1.349 . S
C2353 C2351 1.327 . S
C2353 C2369 1.429 . S
C2353 H2375 0.950 . S
C2354 H2350 0.949 . S
C2354 C2362 1.574 . S
C2354 C2370 1.368 . S
H2355 C2363 0.950 . S
H2356 C2361 0.950 . S
H2357 C2362 0.949 . S
H2358 C2364 0.950 . S
H2359 C2365 0.950 . S
H2360 C2366 0.949 . S
C2361 H2356 0.950 . S
C2361 C2363 1.327 . S
C2361 C2367 1.429 . S
C2362 C2354 1.574 . S
C2362 H2357 0.949 . S
C2362 C2368 1.368 . S
C2363 C2347 1.346 . S
C2363 H2355 0.950 . S
C2363 C2361 1.327 . S
C2364 C2352 1.349 . S
C2364 H2358 0.950 . S
C2364 C2365 1.327 . S
C2365 H2359 0.950 . S
C2365 C2364 1.327 . S
C2365 C2369 1.429 . S
C2366 C2349 1.574 . S
C2366 H2360 0.949 . S
C2366 C2370 1.368 . S
C2367 C2348 1.429 . S
C2367 C2361 1.429 . S
C2367 C2368 1.523 . S
C2368 C2349 1.368 . S
C2368 C2362 1.368 . S
C2368 C2367 1.523 . S
C2369 C2353 1.429 . S
C2369 C2365 1.429 . S
C2369 C2370 1.523 . S
C2370 C2354 1.368 . S
C2370 C2366 1.368 . S
C2370 C2369 1.523 . S
H2371 C2346 0.950 . S
H2372 C2348 0.950 . S
H2373 C2349 0.949 . S
H2374 C2351 0.950 . S
H2375 C2353 0.950 . S
C2376 C2377 1.349 . S
C2376 C2378 1.327 . S
C2376 H2401 0.950 . S
C2377 C2376 1.349 . S
C2377 C2393 1.349 . S
C2378 C2376 1.327 . S
C2378 C2397 1.429 . S
C2378 H2402 0.950 . S
C2379 C2396 1.574 . S
C2379 C2398 1.368 . S
C2379 H2403 0.949 . S
H2380 C2384 0.949 . S
C2381 C2382 1.349 . S
C2381 C2383 1.327 . S
C2381 H2404 0.950 . S
C2382 C2381 1.349 . S
C2382 C2394 1.349 . S
C2383 C2381 1.327 . S
C2383 C2399 1.429 . S
C2383 H2405 0.950 . S
C2384 H2380 0.949 . S
C2384 C2392 1.574 . S
C2384 C2400 1.368 . S
H2385 C2393 0.950 . S
H2386 C2391 0.950 . S
H2387 C2392 0.949 . S
H2388 C2394 0.950 . S
H2389 C2395 0.950 . S
H2390 C2396 0.949 . S
C2391 H2386 0.950 . S
C2391 C2393 1.327 . S
C2391 C2397 1.429 . S
C2392 C2384 1.574 . S
C2392 H2387 0.949 . S
C2392 C2398 1.368 . S
C2393 C2377 1.349 . S
C2393 H2385 0.950 . S
C2393 C2391 1.327 . S
C2394 C2382 1.349 . S
C2394 H2388 0.950 . S
C2394 C2395 1.327 . S
C2395 H2389 0.950 . S
C2395 C2394 1.327 . S
C2395 C2399 1.429 . S
C2396 C2379 1.574 . S
C2396 H2390 0.949 . S
C2396 C2400 1.368 . S
C2397 C2378 1.429 . S
C2397 C2391 1.429 . S
C2397 C2398 1.523 . S
C2398 C2379 1.368 . S
C2398 C2392 1.368 . S
C2398 C2397 1.523 . S
C2399 C2383 1.429 . S
C2399 C2395 1.429 . S
C2399 C2400 1.523 . S
C2400 C2384 1.368 . S
C2400 C2396 1.368 . S
C2400 C2399 1.523 . S
H2401 C2376 0.950 . S
H2402 C2378 0.950 . S
H2403 C2379 0.949 . S
H2404 C2381 0.950 . S
H2405 C2383 0.950 . S
C2406 C2407 1.349 . S
C2406 C2408 1.327 . S
C2406 H2431 0.950 . S
C2407 C2406 1.349 . S
C2407 C2423 1.349 1_565 S
C2408 C2406 1.327 . S
C2408 C2427 1.429 . S
C2408 H2432 0.950 . S
C2409 C2426 1.574 . S
C2409 C2428 1.368 . S
C2409 H2433 0.949 1_565 S
H2410 C2414 0.949 . S
C2411 C2412 1.349 . S
C2411 C2413 1.327 . S
C2411 H2434 0.950 . S
C2412 C2411 1.349 . S
C2412 C2424 1.349 . S
C2413 C2411 1.327 . S
C2413 C2429 1.429 . S
C2413 H2435 0.950 . S
C2414 H2410 0.949 . S
C2414 C2422 1.574 . S
C2414 C2430 1.368 . S
H2415 C2423 0.950 . S
H2416 C2421 0.950 . S
H2417 C2422 0.949 . S
H2418 C2424 0.950 . S
H2419 C2425 0.950 . S
H2420 C2426 0.949 . S
C2421 H2416 0.950 . S
C2421 C2423 1.327 . S
C2421 C2427 1.429 1_545 S
C2422 C2414 1.574 . S
C2422 H2417 0.949 . S
C2422 C2428 1.368 . S
C2423 C2407 1.349 1_545 S
C2423 H2415 0.950 . S
C2423 C2421 1.327 . S
C2424 C2412 1.349 . S
C2424 H2418 0.950 . S
C2424 C2425 1.327 . S
C2425 H2419 0.950 . S
C2425 C2424 1.327 . S
C2425 C2429 1.429 . S
C2426 C2409 1.574 . S
C2426 H2420 0.949 . S
C2426 C2430 1.368 . S
C2427 C2408 1.429 . S
C2427 C2421 1.429 1_565 S
C2427 C2428 1.523 . S
C2428 C2409 1.368 . S
C2428 C2422 1.368 . S
C2428 C2427 1.523 . S
C2429 C2413 1.429 . S
C2429 C2425 1.429 . S
C2429 C2430 1.523 . S
C2430 C2414 1.368 . S
C2430 C2426 1.368 . S
C2430 C2429 1.523 . S
H2431 C2406 0.950 . S
H2432 C2408 0.950 . S
H2433 C2409 0.949 1_545 S
H2434 C2411 0.950 . S
H2435 C2413 0.950 . S
C2436 C2437 1.349 . S
C2436 C2438 1.327 . S
C2436 H2461 0.950 . S
C2437 C2436 1.349 . S
C2437 C2453 1.349 . S
C2438 C2436 1.327 . S
C2438 C2457 1.429 . S
C2438 H2462 0.950 . S
C2439 C2456 1.574 . S
C2439 C2458 1.368 . S
C2439 H2463 0.949 . S
H2440 C2444 0.991 . S
C2441 C2442 1.349 1_545 S
C2441 C2443 1.327 . S
C2441 H2464 0.950 . S
C2442 C2441 1.349 1_565 S
C2442 C2454 1.349 . S
C2443 C2441 1.327 . S
C2443 C2459 1.429 . S
C2443 H2465 0.950 . S
C2444 H2440 0.991 . S
C2444 C2452 1.574 . S
C2444 C2460 1.368 . S
H2445 C2453 0.950 . S
H2446 C2451 0.950 . S
H2447 C2452 0.949 . S
H2448 C2454 0.950 . S
H2449 C2455 0.950 . S
H2450 C2456 0.949 . S
C2451 H2446 0.950 . S
C2451 C2453 1.327 . S
C2451 C2457 1.429 . S
C2452 C2444 1.574 . S
C2452 H2447 0.949 . S
C2452 C2458 1.368 . S
C2453 C2437 1.349 . S
C2453 H2445 0.950 . S
C2453 C2451 1.327 . S
C2454 C2442 1.349 . S
C2454 H2448 0.950 . S
C2454 C2455 1.327 . S
C2455 H2449 0.950 . S
C2455 C2454 1.327 . S
C2455 C2459 1.429 1_565 S
C2456 C2439 1.574 . S
C2456 H2450 0.949 . S
C2456 C2460 1.368 . S
C2457 C2438 1.429 . S
C2457 C2451 1.429 . S
C2457 C2458 1.523 . S
C2458 C2439 1.368 . S
C2458 C2452 1.368 . S
C2458 C2457 1.523 . S
C2459 C2443 1.429 . S
C2459 C2455 1.429 1_545 S
C2459 C2460 1.523 . S
C2460 C2444 1.368 . S
C2460 C2456 1.368 . S
C2460 C2459 1.523 . S
H2461 C2436 0.950 . S
H2462 C2438 0.950 . S
H2463 C2439 0.949 . S
H2464 C2441 0.950 . S
H2465 C2443 0.950 . S
C2466 C2467 1.349 1_565 S
C2466 C2468 1.327 . S
C2466 H2491 0.950 . S
C2467 C2466 1.349 1_545 S
C2467 C2483 1.349 . S
C2468 C2466 1.327 . S
C2468 C2487 1.429 1_565 S
C2468 H2492 0.950 . S
C2469 C2486 1.574 . S
C2469 C2488 1.368 . S
C2469 H2493 0.949 . S
H2470 C2474 0.949 . S
C2471 C2472 1.349 . S
C2471 C2473 1.327 . S
C2471 H2494 0.950 . S
C2472 C2471 1.349 . S
C2472 C2484 1.349 . S
C2473 C2471 1.327 . S
C2473 C2489 1.429 . S
C2473 H2495 0.950 . S
C2474 H2470 0.949 . S
C2474 C2482 1.574 . S
C2474 C2490 1.368 . S
H2475 C2483 0.950 . S
H2476 C2481 0.950 . S
H2477 C2482 0.949 1_565 S
H2478 C2484 0.950 . S
H2479 C2485 0.950 . S
H2480 C2486 0.949 . S
C2481 H2476 0.950 . S
C2481 C2483 1.327 . S
C2481 C2487 1.429 . S
C2482 C2474 1.574 . S
C2482 H2477 0.949 1_545 S
C2482 C2488 1.368 . S
C2483 C2467 1.349 . S
C2483 H2475 0.950 . S
C2483 C2481 1.327 . S
C2484 C2472 1.349 . S
C2484 H2478 0.950 . S
C2484 C2485 1.327 . S
C2485 H2479 0.950 . S
C2485 C2484 1.327 . S
C2485 C2489 1.429 . S
C2486 C2469 1.574 . S
C2486 H2480 0.949 . S
C2486 C2490 1.368 . S
C2487 C2468 1.429 1_545 S
C2487 C2481 1.429 . S
C2487 C2488 1.523 . S
C2488 C2469 1.368 . S
C2488 C2482 1.368 . S
C2488 C2487 1.523 . S
C2489 C2473 1.429 . S
C2489 C2485 1.429 . S
C2489 C2490 1.523 . S
C2490 C2474 1.368 . S
C2490 C2486 1.368 . S
C2490 C2489 1.523 . S
H2491 C2466 0.950 . S
H2492 C2468 0.950 . S
H2493 C2469 0.949 . S
H2494 C2471 0.950 . S
H2495 C2473 0.950 . S
C2496 C2497 1.350 1_545 S
C2496 C2498 1.327 1_545 S
C2496 H2521 0.950 . S
C2497 C2496 1.350 1_565 S
C2497 C2513 1.345 . S
C2498 C2496 1.327 1_565 S
C2498 C2517 1.429 . S
C2498 H2522 0.952 . S
C2499 C2516 1.574 . S
C2499 C2518 1.368 . S
C2499 H2523 0.949 . S
H2500 C2504 0.949 . S
C2501 C2502 1.349 . S
C2501 C2503 1.327 . S
C2501 H2524 0.950 . S
C2502 C2501 1.349 . S
C2502 C2514 1.349 . S
C2503 C2501 1.327 . S
C2503 C2519 1.429 . S
C2503 H2525 0.950 . S
C2504 H2500 0.949 . S
C2504 C2512 1.574 . S
C2504 C2520 1.368 . S
H2505 C2513 0.950 . S
H2506 C2511 0.950 . S
H2507 C2512 0.949 . S
H2508 C2514 0.950 . S
H2509 C2515 0.950 . S
H2510 C2516 0.949 . S
C2511 H2506 0.950 . S
C2511 C2513 1.327 . S
C2511 C2517 1.429 . S
C2512 C2504 1.574 . S
C2512 H2507 0.949 . S
C2512 C2518 1.368 . S
C2513 C2497 1.345 . S
C2513 H2505 0.950 . S
C2513 C2511 1.327 . S
C2514 C2502 1.349 . S
C2514 H2508 0.950 . S
C2514 C2515 1.327 . S
C2515 H2509 0.950 . S
C2515 C2514 1.327 . S
C2515 C2519 1.429 . S
C2516 C2499 1.574 . S
C2516 H2510 0.949 . S
C2516 C2520 1.368 . S
C2517 C2498 1.429 . S
C2517 C2511 1.429 . S
C2517 C2518 1.523 . S
C2518 C2499 1.368 . S
C2518 C2512 1.368 . S
C2518 C2517 1.523 . S
C2519 C2503 1.429 . S
C2519 C2515 1.429 . S
C2519 C2520 1.523 . S
C2520 C2504 1.368 . S
C2520 C2516 1.368 . S
C2520 C2519 1.523 . S
H2521 C2496 0.950 . S
H2522 C2498 0.952 . S
H2523 C2499 0.949 . S
H2524 C2501 0.950 . S
H2525 C2503 0.950 . S
C2526 C2527 1.349 . S
C2526 C2528 1.327 . S
C2526 H2551 0.950 . S
C2527 C2526 1.349 . S
C2527 C2543 1.349 . S
C2528 C2526 1.327 . S
C2528 C2547 1.429 . S
C2528 H2552 0.950 . S
C2529 C2546 1.574 . S
C2529 C2548 1.368 . S
C2529 H2553 0.949 . S
H2530 C2534 0.949 . S
C2531 C2532 1.349 . S
C2531 C2533 1.327 . S
C2531 H2554 0.950 . S
C2532 C2531 1.349 . S
C2532 C2544 1.349 . S
C2533 C2531 1.327 . S
C2533 C2549 1.429 . S
C2533 H2555 0.950 . S
C2534 H2530 0.949 . S
C2534 C2542 1.574 . S
C2534 C2550 1.368 . S
H2535 C2543 0.950 . S
H2536 C2541 0.950 . S
H2537 C2542 0.949 . S
H2538 C2544 0.950 . S
H2539 C2545 0.950 . S
H2540 C2546 0.949 . S
C2541 H2536 0.950 . S
C2541 C2543 1.327 . S
C2541 C2547 1.429 . S
C2542 C2534 1.574 . S
C2542 H2537 0.949 . S
C2542 C2548 1.368 . S
C2543 C2527 1.349 . S
C2543 H2535 0.950 . S
C2543 C2541 1.327 . S
C2544 C2532 1.349 . S
C2544 H2538 0.950 . S
C2544 C2545 1.327 . S
C2545 H2539 0.950 . S
C2545 C2544 1.327 . S
C2545 C2549 1.429 . S
C2546 C2529 1.574 . S
C2546 H2540 0.949 . S
C2546 C2550 1.368 . S
C2547 C2528 1.429 . S
C2547 C2541 1.429 . S
C2547 C2548 1.523 . S
C2548 C2529 1.368 . S
C2548 C2542 1.368 . S
C2548 C2547 1.523 . S
C2549 C2533 1.429 . S
C2549 C2545 1.429 . S
C2549 C2550 1.523 . S
C2550 C2534 1.368 . S
C2550 C2546 1.368 . S
C2550 C2549 1.523 . S
H2551 C2526 0.950 . S
H2552 C2528 0.950 . S
H2553 C2529 0.949 . S
H2554 C2531 0.950 . S
H2555 C2533 0.950 . S
C2556 C2557 1.349 . S
C2556 C2558 1.327 . S
C2556 H2581 0.950 . S
C2557 C2556 1.349 . S
C2557 C2573 1.349 . S
C2558 C2556 1.327 . S
C2558 C2577 1.429 . S
C2558 H2582 0.950 . S
C2559 C2576 1.574 . S
C2559 C2578 1.368 . S
C2559 H2583 0.949 . S
H2560 C2564 0.949 . S
C2561 C2562 1.349 . S
C2561 C2563 1.327 . S
C2561 H2584 0.950 . S
C2562 C2561 1.349 . S
C2562 C2574 1.349 . S
C2563 C2561 1.327 . S
C2563 C2579 1.429 . S
C2563 H2585 0.950 . S
C2564 H2560 0.949 . S
C2564 C2572 1.574 . S
C2564 C2580 1.368 . S
H2565 C2573 0.950 . S
H2566 C2571 0.950 . S
H2567 C2572 0.949 . S
H2568 C2574 0.950 . S
H2569 C2575 0.950 . S
H2570 C2576 0.949 . S
C2571 H2566 0.950 . S
C2571 C2573 1.327 . S
C2571 C2577 1.429 . S
C2572 C2564 1.574 . S
C2572 H2567 0.949 . S
C2572 C2578 1.368 . S
C2573 C2557 1.349 . S
C2573 H2565 0.950 . S
C2573 C2571 1.327 . S
C2574 C2562 1.349 . S
C2574 H2568 0.950 . S
C2574 C2575 1.327 . S
C2575 H2569 0.950 . S
C2575 C2574 1.327 . S
C2575 C2579 1.429 . S
C2576 C2559 1.574 . S
C2576 H2570 0.949 . S
C2576 C2580 1.368 . S
C2577 C2558 1.429 . S
C2577 C2571 1.429 . S
C2577 C2578 1.523 . S
C2578 C2559 1.368 . S
C2578 C2572 1.368 . S
C2578 C2577 1.523 . S
C2579 C2563 1.429 . S
C2579 C2575 1.429 . S
C2579 C2580 1.523 . S
C2580 C2564 1.368 . S
C2580 C2576 1.368 . S
C2580 C2579 1.523 . S
H2581 C2556 0.950 . S
H2582 C2558 0.950 . S
H2583 C2559 0.949 . S
H2584 C2561 0.950 . S
H2585 C2563 0.950 . S
C2586 C2587 1.349 . S
C2586 C2588 1.327 . S
C2586 H2611 0.950 . S
C2587 C2586 1.349 . S
C2587 C2603 1.349 . S
C2588 C2586 1.327 . S
C2588 C2607 1.429 . S
C2588 H2612 0.950 . S
C2589 C2606 1.574 . S
C2589 C2608 1.368 . S
C2589 H2613 0.949 . S
H2590 C2594 0.949 . S
C2591 C2592 1.349 . S
C2591 C2593 1.327 . S
C2591 H2614 0.950 . S
C2592 C2591 1.349 . S
C2592 C2604 1.349 . S
C2593 C2591 1.327 . S
C2593 C2609 1.429 . S
C2593 H2615 0.950 . S
C2594 H2590 0.949 . S
C2594 C2602 1.574 . S
C2594 C2610 1.368 . S
H2595 C2603 0.950 . S
H2596 C2601 0.950 . S
H2597 C2602 0.949 . S
H2598 C2604 0.950 . S
H2599 C2605 0.950 . S
H2600 C2606 0.949 . S
C2601 H2596 0.950 . S
C2601 C2603 1.327 . S
C2601 C2607 1.429 . S
C2602 C2594 1.574 . S
C2602 H2597 0.949 . S
C2602 C2608 1.368 . S
C2603 C2587 1.349 . S
C2603 H2595 0.950 . S
C2603 C2601 1.327 . S
C2604 C2592 1.349 . S
C2604 H2598 0.950 . S
C2604 C2605 1.327 . S
C2605 H2599 0.950 . S
C2605 C2604 1.327 . S
C2605 C2609 1.429 . S
C2606 C2589 1.574 . S
C2606 H2600 0.949 . S
C2606 C2610 1.368 . S
C2607 C2588 1.429 . S
C2607 C2601 1.429 . S
C2607 C2608 1.523 . S
C2608 C2589 1.368 . S
C2608 C2602 1.368 . S
C2608 C2607 1.523 . S
C2609 C2593 1.429 . S
C2609 C2605 1.429 . S
C2609 C2610 1.523 . S
C2610 C2594 1.368 . S
C2610 C2606 1.368 . S
C2610 C2609 1.523 . S
H2611 C2586 0.950 . S
H2612 C2588 0.950 . S
H2613 C2589 0.949 . S
H2614 C2591 0.950 . S
H2615 C2593 0.950 . S
C817 C719 0.652 . S
C822 C20 0.648 . S
C847 C753 0.489 . S
C852 C54 0.439 . S
C877 C88 0.646 . S
C882 C549 0.650 . S
C907 C787 0.475 . S
C912 C122 0.447 . S
C937 C156 0.539 . S
C942 C651 0.547 . S
C967 C685 0.515 . S
C972 C190 0.459 . S
C997 C583 0.560 . S
C1002 C224 0.553 . S
C1027 C617 0.431 . S
C1032 C258 0.325 . S
C1057 C292 0.648 . S
C1062 C141 0.652 . S
C1087 C326 0.453 . S
C1092 C175 0.476 . S
C1117 C360 0.553 . S
C1122 C209 0.560 . S
C1147 C394 0.461 . S
C1152 C243 0.515 . S
C1177 C5 0.650 . S
C1182 C428 0.646 . S
C1207 C462 0.439 . S
C1212 C39 0.489 . S
C1237 C496 0.539 . S
C1242 C73 0.547 . S
C1267 C107 0.431 . S
C1272 C530 0.325 . S
C1297 C481 0.652 . S
C1302 C564 0.648 . S
C1327 C598 0.553 . S
C1332 C345 0.560 . S
C1357 C632 0.453 . S
C1362 C379 0.476 . S
C1387 C666 0.646 . S
C1392 C277 0.650 . S
C1417 C311 0.431 . S
C1422 C700 0.325 . S
C1447 C413 0.547 . S
C1452 C734 0.539 . S
C1477 C768 0.439 . S
C1482 C447 0.489 . S
C1507 C802 0.461 . S
C1512 C515 0.515 . S
C1537 C240 1.928 . S
C1542 C2 1.721 . S
C1567 C36 1.622 . S
C1572 C138 1.469 . S
C1597 C172 1.839 . S
C1602 C70 1.663 . S
C1627 C206 1.729 . S
C1632 C104 1.947 . S
C1657 C682 1.928 . S
C1662 C274 1.721 . S
C1687 C308 1.940 . S
C1692 C580 1.734 . S
C1717 C342 1.729 . S
C1722 C614 1.947 . S
C1747 C376 1.839 . S
C1752 C648 1.663 . S
C1777 C410 1.663 . S
C1782 C784 1.839 . S
C1807 C716 1.469 . S
C1812 C444 1.622 . S
C1837 C478 1.469 . S
C1842 C750 1.622 . S
C1867 C512 1.928 . S
C1872 C546 1.721 . S
C1897 C9 1.056 . S
C1902 C475 1.313 . S
C1927 C43 1.316 . S
C1932 C509 1.453 . S
C1957 C543 1.013 . S
C1962 C77 0.869 . S
C1987 C441 1.327 . S
C1992 C111 1.235 . S
C2017 C145 0.874 . S
C2022 C407 1.012 . S
C2047 C179 1.341 . S
C2052 C305 1.473 . S
C2077 C339 1.185 . S
C2082 C213 0.983 . S
C2107 C247 1.301 1_655 S
C2112 C373 1.402 . S
C2137 C281 1.056 . S
C2142 C67 1.313 . S
C2167 C315 1.235 . S
C2172 C101 1.324 . S
C2197 C135 1.185 . S
C2202 C349 0.983 . S
C2227 C383 1.341 . S
C2232 C33 1.473 . S
C2257 C417 0.868 . S
C2262 C271 1.014 . S
C2287 C451 1.316 . S
C2292 C169 1.453 . S
C2317 C485 0.874 . S
C2322 C203 1.012 . S
C2347 C519 1.301 1_556 S
C2352 C237 1.402 . S
C2377 C553 1.056 . S
C2382 C781 1.313 . S
C2407 C645 1.185 . S
C2412 C587 0.983 . S
C2437 C679 1.327 . S
C2442 C621 1.235 . S
C2467 C713 1.013 . S
C2472 C655 0.869 . S
C2497 C689 1.301 1_565 S
C2502 C611 1.402 . S
C2527 C815 1.012 . S
C2532 C723 0.874 . S
C2557 C747 1.453 . S
C2562 C757 1.316 . S
C2587 C791 1.341 . S
C2592 C577 1.473 . S
