# Generated by pormake.
# Topology uku, (4)-cn, num edge types: 1
# Building blocks:
#     Node 0, Type 0, BuildingBlock: ICAMEG_clean_sbu_1, # of connection points: 4
#     Node 1, Type 0, BuildingBlock: ICAMEG_clean_sbu_1, # of connection points: 4
#     Node 2, Type 0, BuildingBlock: ICAMEG_clean_sbu_1, # of connection points: 4
#     Node 3, Type 0, BuildingBlock: ICAMEG_clean_sbu_1, # of connection points: 4
#     Node 4, Type 0, BuildingBlock: ICAMEG_clean_sbu_1, # of connection points: 4
#     Node 5, Type 0, BuildingBlock: ICAMEG_clean_sbu_1, # of connection points: 4
#     Node 6, Type 0, BuildingBlock: ICAMEG_clean_sbu_1, # of connection points: 4
#     Node 7, Type 0, BuildingBlock: ICAMEG_clean_sbu_1, # of connection points: 4
#     Node 8, Type 0, BuildingBlock: ICAMEG_clean_sbu_1, # of connection points: 4
#     Node 9, Type 0, BuildingBlock: ICAMEG_clean_sbu_1, # of connection points: 4
#     Node 10, Type 0, BuildingBlock: ICAMEG_clean_sbu_1, # of connection points: 4
#     Node 11, Type 0, BuildingBlock: ICAMEG_clean_sbu_1, # of connection points: 4
#     Edge 12, Type (0, 0), BuildingBlock: XIVTED_clean_linker_0, # of connection points: 2
#     Edge 13, Type (0, 0), BuildingBlock: XIVTED_clean_linker_0, # of connection points: 2
#     Edge 14, Type (0, 0), BuildingBlock: XIVTED_clean_linker_0, # of connection points: 2
#     Edge 15, Type (0, 0), BuildingBlock: XIVTED_clean_linker_0, # of connection points: 2
#     Edge 16, Type (0, 0), BuildingBlock: XIVTED_clean_linker_0, # of connection points: 2
#     Edge 17, Type (0, 0), BuildingBlock: XIVTED_clean_linker_0, # of connection points: 2
#     Edge 18, Type (0, 0), BuildingBlock: XIVTED_clean_linker_0, # of connection points: 2
#     Edge 19, Type (0, 0), BuildingBlock: XIVTED_clean_linker_0, # of connection points: 2
#     Edge 20, Type (0, 0), BuildingBlock: XIVTED_clean_linker_0, # of connection points: 2
#     Edge 21, Type (0, 0), BuildingBlock: XIVTED_clean_linker_0, # of connection points: 2
#     Edge 22, Type (0, 0), BuildingBlock: XIVTED_clean_linker_0, # of connection points: 2
#     Edge 23, Type (0, 0), BuildingBlock: XIVTED_clean_linker_0, # of connection points: 2
#     Edge 24, Type (0, 0), BuildingBlock: XIVTED_clean_linker_0, # of connection points: 2
#     Edge 25, Type (0, 0), BuildingBlock: XIVTED_clean_linker_0, # of connection points: 2
#     Edge 26, Type (0, 0), BuildingBlock: XIVTED_clean_linker_0, # of connection points: 2
#     Edge 27, Type (0, 0), BuildingBlock: XIVTED_clean_linker_0, # of connection points: 2
#     Edge 28, Type (0, 0), BuildingBlock: XIVTED_clean_linker_0, # of connection points: 2
#     Edge 29, Type (0, 0), BuildingBlock: XIVTED_clean_linker_0, # of connection points: 2
#     Edge 30, Type (0, 0), BuildingBlock: XIVTED_clean_linker_0, # of connection points: 2
#     Edge 31, Type (0, 0), BuildingBlock: XIVTED_clean_linker_0, # of connection points: 2
#     Edge 32, Type (0, 0), BuildingBlock: XIVTED_clean_linker_0, # of connection points: 2
#     Edge 33, Type (0, 0), BuildingBlock: XIVTED_clean_linker_0, # of connection points: 2
#     Edge 34, Type (0, 0), BuildingBlock: XIVTED_clean_linker_0, # of connection points: 2
#     Edge 35, Type (0, 0), BuildingBlock: XIVTED_clean_linker_0, # of connection points: 2
# Relax obj value: 0.340
# Max RMSD: 0.222
# Mean RMSD: 0.222
data_MOF--net-uku--node1-ICAMEG_clean_sbu_1--edge1-XIVTED_clean_linker_0
_symmetry_space_group_name_H-M    P1
_symmetry_Int_Tables_number       1
_symmetry_cell_setting            triclinic
loop_
_symmetry_equiv_pos_as_xyz
'x, y, z'
_cell_length_a     43.364583
_cell_length_b     43.354765
_cell_length_c     43.353575
_cell_angle_alpha  90.00243
_cell_angle_beta   89.989823
_cell_angle_gamma 90.004135
loop_
_atom_site_label
_atom_site_type_symbol
_atom_site_fract_x
_atom_site_fract_y
_atom_site_fract_z
_atom_type_partial_charge
Co0 Co 0.06211 0.14958 0.66324 0.0
Co1 Co 0.11056 0.18886 0.61416 0.0
O2 O 0.07301 0.16533 0.62255 0.0
C3 C 0.05435 0.09314 0.62394 0.0
O4 O 0.08188 0.09702 0.61193 0.0
C5 C 0.06078 0.22837 0.59027 0.0
O6 O 0.04741 0.22572 0.61731 0.0
O7 O 0.10212 0.21774 0.64908 0.0
O8 O 0.07883 0.18706 0.68362 0.0
H9 H 0.20956 0.24261 0.64137 0.0
H10 H 0.01514 0.15312 0.61373 0.0
O11 O 0.04414 0.11177 0.64416 0.0
H12 H 0.97412 0.21687 0.69852 0.0
H13 H 0.99331 0.09603 0.74008 0.0
H14 H 0.09346 0.14745 0.72397 0.0
H15 H 0.02372 0.18968 0.70418 0.0
H16 H 0.0072 0.11689 0.68902 0.0
O17 O 0.08685 0.21583 0.58544 0.0
H18 H 0.16237 0.21266 0.65196 0.0
H19 H 0.13797 0.21584 0.55714 0.0
H20 H 0.08038 0.12715 0.77547 0.0
H21 H 0.96532 0.17972 0.60715 0.0
H22 H 0.02998 0.10122 0.78378 0.0
H23 H 0.94454 0.21196 0.6497 0.0
O24 O 0.10326 0.12918 0.66727 0.0
H25 H 0.08339 0.12686 0.52005 0.0
H26 H 0.16597 0.15362 0.59349 0.0
H27 H 0.17674 0.11685 0.55147 0.0
H28 H 0.13528 0.1033 0.51433 0.0
H29 H 0.07355 0.16331 0.5626 0.0
H30 H 0.18478 0.24604 0.54555 0.0
H31 H 0.22101 0.25951 0.58783 0.0
O32 O 0.13481 0.16207 0.64245 0.0
C33 C 0.09165 0.21237 0.67607 0.0
C34 C 0.19399 0.23682 0.62273 0.0
C35 C 0.18006 0.23878 0.56896 0.0
N36 N 0.14755 0.21235 0.60517 0.0
C37 C 0.16728 0.2198 0.62858 0.0
C38 C 0.15355 0.22175 0.57568 0.0
C39 C 0.20039 0.24632 0.59269 0.0
C40 C 0.00614 0.1669 0.63246 0.0
N41 N 0.02236 0.16983 0.65933 0.0
C42 C 0.97795 0.18198 0.62856 0.0
C43 C 0.96634 0.20011 0.65242 0.0
C44 C 0.98294 0.20291 0.6798 0.0
C45 C 0.01108 0.18754 0.68284 0.0
C46 C 0.01533 0.1073 0.73675 0.0
C47 C 0.07143 0.13631 0.72742 0.0
C48 C 0.02337 0.11908 0.70786 0.0
N49 N 0.05107 0.1335 0.70353 0.0
C50 C 0.06418 0.12481 0.75663 0.0
C51 C 0.03591 0.11024 0.76127 0.0
C52 C 0.13014 0.13894 0.66002 0.0
C53 C 0.10166 0.13263 0.53605 0.0
C54 C 0.14778 0.14774 0.57753 0.0
C55 C 0.15403 0.12697 0.55371 0.0
C56 C 0.13077 0.11939 0.53287 0.0
N57 N 0.11919 0.16068 0.58047 0.0
C58 C 0.09626 0.15334 0.56013 0.0
Co59 Co 0.92687 0.8465 0.66193 0.0
Co60 Co 0.88397 0.79721 0.6163 0.0
O61 O 0.91806 0.82646 0.62247 0.0
C62 C 0.9393 0.89576 0.6133 0.0
O63 O 0.93317 0.87727 0.59016 0.0
C64 C 0.93894 0.76361 0.59496 0.0
O65 O 0.95173 0.77027 0.62159 0.0
O66 O 0.89649 0.77254 0.65302 0.0
O67 O 0.91673 0.80799 0.68476 0.0
H68 H 0.79373 0.73207 0.64866 0.0
H69 H 0.97415 0.84343 0.61147 0.0
O70 O 0.93741 0.88654 0.64115 0.0
H71 H 0.02433 0.79836 0.70278 0.0
H72 H 0.98555 0.91576 0.73453 0.0
H73 H 0.89572 0.84699 0.7228 0.0
H74 H 0.97106 0.81774 0.7059 0.0
H75 H 0.97542 0.88966 0.68501 0.0
O76 O 0.91129 0.77171 0.58948 0.0
H77 H 0.8362 0.76911 0.65643 0.0
H78 H 0.86059 0.76242 0.56178 0.0
H79 H 0.90517 0.8724 0.77281 0.0
H80 H 0.02741 0.82475 0.60744 0.0
H81 H 0.95036 0.90707 0.77891 0.0
H82 H 0.05298 0.80191 0.6533 0.0
O83 O 0.88324 0.86042 0.66509 0.0
H84 H 0.90086 0.8521 0.51553 0.0
H85 H 0.82426 0.82372 0.59465 0.0
H86 H 0.80795 0.85437 0.54964 0.0
H87 H 0.84636 0.86869 0.50962 0.0
H88 H 0.91628 0.82183 0.56111 0.0
H89 H 0.81853 0.72512 0.55303 0.0
H90 H 0.78468 0.70981 0.59665 0.0
O91 O 0.85602 0.82234 0.64282 0.0
C92 C 0.90706 0.78084 0.67918 0.0
C93 C 0.80827 0.73862 0.62946 0.0
C94 C 0.82222 0.73469 0.57579 0.0
N95 N 0.85071 0.76808 0.60955 0.0
C96 C 0.8323 0.75965 0.6337 0.0
C97 C 0.84604 0.75577 0.5809 0.0
C98 C 0.80322 0.72612 0.60027 0.0
C99 C 0.98509 0.83429 0.63175 0.0
N100 N 0.9695 0.83255 0.65909 0.0
C101 C 0.0153 0.8234 0.62924 0.0
C102 C 0.0296 0.81049 0.65493 0.0
C103 C 0.01354 0.8085 0.68268 0.0
C104 C 0.98333 0.81956 0.6843 0.0
C105 C 0.96581 0.90066 0.73218 0.0
C106 C 0.91556 0.86188 0.72533 0.0
C107 C 0.95991 0.88588 0.70417 0.0
N108 N 0.93513 0.86661 0.70108 0.0
C109 C 0.92073 0.87628 0.75367 0.0
C110 C 0.94607 0.89576 0.75707 0.0
C111 C 0.8578 0.84703 0.6587 0.0
C112 C 0.88391 0.846 0.53281 0.0
C113 C 0.8412 0.83012 0.57753 0.0
C114 C 0.83178 0.84735 0.55199 0.0
C115 C 0.85333 0.85533 0.52952 0.0
N116 N 0.87124 0.82108 0.58062 0.0
C117 C 0.89248 0.82878 0.55864 0.0
Co118 Co 0.07147 0.84797 0.34098 0.0
Co119 Co 0.11899 0.80385 0.38746 0.0
O120 O 0.08284 0.83035 0.38094 0.0
C121 C 0.05838 0.89865 0.38787 0.0
O122 O 0.06617 0.88148 0.41151 0.0
C123 C 0.06696 0.76709 0.41075 0.0
O124 O 0.05338 0.772 0.38413 0.0
O125 O 0.10785 0.77706 0.35179 0.0
O126 O 0.08307 0.80907 0.3196 0.0
H127 H 0.21332 0.74446 0.35569 0.0
H128 H 0.0263 0.84474 0.39336 0.0
O129 O 0.05954 0.88832 0.36037 0.0
H130 H 0.97568 0.79227 0.30635 0.0
H131 H 0.00612 0.91032 0.26786 0.0
H132 H 0.10011 0.84724 0.27886 0.0
H133 H 0.02753 0.81454 0.30023 0.0
H134 H 0.01969 0.8872 0.31804 0.0
O135 O 0.09401 0.77735 0.41558 0.0
H136 H 0.16814 0.77801 0.34745 0.0
H137 H 0.14567 0.77272 0.44267 0.0
H138 H 0.08724 0.86968 0.2282 0.0
H139 H 0.97446 0.82317 0.40037 0.0
H140 H 0.03994 0.90148 0.22247 0.0
H141 H 0.94867 0.79659 0.35668 0.0
O142 O 0.11407 0.86419 0.33528 0.0
H143 H 0.09979 0.8606 0.48679 0.0
H144 H 0.17687 0.83552 0.40701 0.0
H145 H 0.19162 0.86879 0.45069 0.0
H146 H 0.15297 0.88146 0.49104 0.0
H147 H 0.08589 0.82778 0.44249 0.0
H148 H 0.19049 0.73892 0.4519 0.0
H149 H 0.22474 0.72468 0.40823 0.0
O150 O 0.1445 0.82996 0.35957 0.0
C151 C 0.09551 0.78322 0.32582 0.0
C152 C 0.19862 0.75058 0.37492 0.0
C153 C 0.18578 0.74743 0.42891 0.0
N154 N 0.15441 0.77748 0.39459 0.0
C155 C 0.17304 0.76963 0.37041 0.0
C156 C 0.1604 0.76652 0.42353 0.0
C157 C 0.205 0.73946 0.4044 0.0
C158 C 0.01521 0.83396 0.374 0.0
N159 N 0.02988 0.83177 0.34617 0.0
C160 C 0.98583 0.82144 0.3782 0.0
C161 C 0.97142 0.80645 0.35373 0.0
C162 C 0.98655 0.80401 0.3255 0.0
C163 C 0.01595 0.81674 0.32218 0.0
C164 C 0.02676 0.89645 0.27005 0.0
C165 C 0.07938 0.86088 0.27651 0.0
C166 C 0.03461 0.88338 0.29843 0.0
N167 N 0.06055 0.86568 0.30132 0.0
C168 C 0.07226 0.87361 0.24778 0.0
C169 C 0.04574 0.89148 0.24459 0.0
C170 C 0.14055 0.8532 0.342 0.0
C171 C 0.11685 0.85524 0.46936 0.0
C172 C 0.15981 0.84118 0.42427 0.0
C173 C 0.16836 0.85991 0.44906 0.0
C174 C 0.14667 0.86697 0.47171 0.0
N175 N 0.13049 0.8298 0.42209 0.0
C176 C 0.10914 0.83658 0.44426 0.0
Co177 Co 0.93181 0.14729 0.33378 0.0
Co178 Co 0.88733 0.19286 0.3806 0.0
O179 O 0.92338 0.16677 0.37342 0.0
C180 C 0.93984 0.09368 0.37691 0.0
O181 O 0.91246 0.0983 0.389 0.0
C182 C 0.93965 0.23058 0.40197 0.0
O183 O 0.95259 0.22579 0.375 0.0
O184 O 0.89752 0.21884 0.34399 0.0
O185 O 0.91509 0.18335 0.31076 0.0
H186 H 0.79183 0.25112 0.35039 0.0
H187 H 0.98156 0.15367 0.3802 0.0
O188 O 0.94978 0.1109 0.35535 0.0
H189 H 0.01944 0.20839 0.28796 0.0
H190 H 0.99485 0.08452 0.25902 0.0
H191 H 0.89721 0.14053 0.27519 0.0
H192 H 0.96881 0.18255 0.28747 0.0
H193 H 0.98438 0.11067 0.30844 0.0
O194 O 0.91288 0.21998 0.40755 0.0
H195 H 0.83694 0.2176 0.34155 0.0
H196 H 0.86205 0.22496 0.43595 0.0
H197 H 0.90684 0.11489 0.22535 0.0
H198 H 0.03246 0.17899 0.38162 0.0
H199 H 0.95597 0.08662 0.21701 0.0
H200 H 0.05167 0.20668 0.33529 0.0
O201 O 0.89006 0.12799 0.33382 0.0
H202 H 0.91132 0.1352 0.47825 0.0
H203 H 0.82992 0.16272 0.40379 0.0
H204 H 0.81716 0.12954 0.44819 0.0
H205 H 0.85802 0.11564 0.48585 0.0
H206 H 0.92312 0.16809 0.43337 0.0
H207 H 0.81735 0.25877 0.44577 0.0
H208 H 0.78181 0.27194 0.40282 0.0
O209 O 0.86107 0.16585 0.35417 0.0
C210 C 0.90559 0.21044 0.31696 0.0
C211 C 0.8071 0.24547 0.36931 0.0
C212 C 0.82145 0.2498 0.42283 0.0
N213 N 0.85197 0.21916 0.38825 0.0
C214 C 0.83263 0.22644 0.36446 0.0
C215 C 0.84676 0.23071 0.41712 0.0
C216 C 0.80151 0.25717 0.39873 0.0
C217 C 0.98988 0.16543 0.35985 0.0
N218 N 0.97223 0.16657 0.33376 0.0
C219 C 0.01868 0.17982 0.36083 0.0
C220 C 0.02941 0.1954 0.33485 0.0
C221 C 0.01133 0.1964 0.3083 0.0
C222 C 0.98262 0.1818 0.30818 0.0
C223 C 0.97338 0.0968 0.26236 0.0
C224 C 0.91871 0.12841 0.2717 0.0
C225 C 0.96728 0.11159 0.29032 0.0
N226 N 0.94027 0.12726 0.29465 0.0
C227 C 0.924 0.11388 0.24344 0.0
C228 C 0.95156 0.098 0.23879 0.0
C229 C 0.86397 0.14034 0.33978 0.0
C230 C 0.8933 0.14115 0.46204 0.0
C231 C 0.84785 0.15665 0.41998 0.0
C232 C 0.84047 0.13792 0.44513 0.0
C233 C 0.8634 0.13015 0.46627 0.0
N234 N 0.87721 0.16742 0.41602 0.0
C235 C 0.89982 0.15984 0.43662 0.0
Co236 Co 0.66231 0.07201 0.15184 0.0
Co237 Co 0.61498 0.11614 0.19839 0.0
O238 O 0.62213 0.08146 0.17008 0.0
C239 C 0.6157 0.05898 0.1008 0.0
O240 O 0.59186 0.06565 0.11817 0.0
C241 C 0.5924 0.06208 0.23262 0.0
O242 O 0.6193 0.0492 0.22738 0.0
O243 O 0.65064 0.10404 0.22473 0.0
O244 O 0.6836 0.08274 0.19107 0.0
H245 H 0.64513 0.20752 0.26302 0.0
H246 H 0.61141 0.02518 0.15377 0.0
O247 O 0.64315 0.06083 0.11116 0.0
H248 H 0.70033 0.97527 0.20363 0.0
H249 H 0.73728 0.0115 0.08682 0.0
H250 H 0.72334 0.10279 0.15324 0.0
H251 H 0.70471 0.02807 0.18324 0.0
H252 H 0.68681 0.02246 0.11065 0.0
O253 O 0.58711 0.08942 0.22339 0.0
H254 H 0.65417 0.16432 0.22713 0.0
H255 H 0.55923 0.14043 0.2305 0.0
H256 H 0.77428 0.09252 0.13011 0.0
H257 H 0.60614 0.97239 0.17348 0.0
H258 H 0.78149 0.04658 0.09663 0.0
H259 H 0.65079 0.94695 0.19873 0.0
O260 O 0.66637 0.11538 0.13725 0.0
H261 H 0.5164 0.09848 0.13994 0.0
H262 H 0.59468 0.17538 0.16979 0.0
H263 H 0.55101 0.19121 0.13704 0.0
H264 H 0.51142 0.15265 0.12196 0.0
H265 H 0.56067 0.08353 0.17232 0.0
H266 H 0.5492 0.18326 0.26659 0.0
H267 H 0.59232 0.21723 0.28299 0.0
O268 O 0.64258 0.14348 0.17377 0.0
C269 C 0.67701 0.09308 0.21775 0.0
C270 C 0.62613 0.19294 0.25597 0.0
C271 C 0.5723 0.1793 0.25801 0.0
N272 N 0.60722 0.15002 0.22655 0.0
C273 C 0.6311 0.16849 0.23559 0.0
C274 C 0.57813 0.15505 0.23762 0.0
C275 C 0.5965 0.19836 0.26719 0.0
C276 C 0.63119 0.01428 0.16398 0.0
N277 N 0.65858 0.02968 0.16649 0.0
C278 C 0.62797 0.98434 0.17544 0.0
C279 C 0.65298 0.97012 0.18969 0.0
C280 C 0.68077 0.98599 0.19245 0.0
C281 C 0.68311 0.01593 0.1808 0.0
C282 C 0.73444 0.03155 0.10142 0.0
C283 C 0.72635 0.08264 0.13886 0.0
C284 C 0.7059 0.03793 0.11491 0.0
N285 N 0.70219 0.06311 0.13353 0.0
C286 C 0.75522 0.07699 0.12575 0.0
C287 C 0.75924 0.05124 0.10694 0.0
C288 C 0.65953 0.14112 0.14985 0.0
C289 C 0.5335 0.1155 0.14635 0.0
C290 C 0.57774 0.15837 0.16309 0.0
C291 C 0.55296 0.16752 0.14466 0.0
C292 C 0.53073 0.14588 0.13625 0.0
N293 N 0.58033 0.1285 0.17288 0.0
C294 C 0.55858 0.10719 0.16477 0.0
Co295 Co 0.33661 0.93422 0.14856 0.0
Co296 Co 0.38494 0.88649 0.18963 0.0
O297 O 0.37684 0.92365 0.16555 0.0
C298 C 0.3764 0.93913 0.09263 0.0
O299 O 0.38538 0.91047 0.09656 0.0
C300 C 0.40666 0.93704 0.22932 0.0
O301 O 0.37947 0.94986 0.22564 0.0
O302 O 0.34907 0.89485 0.2172 0.0
O303 O 0.31513 0.91812 0.18581 0.0
H304 H 0.35713 0.78778 0.24362 0.0
H305 H 0.3859 0.98148 0.15255 0.0
O306 O 0.35717 0.95141 0.11107 0.0
H307 H 0.29939 0.02305 0.21357 0.0
H308 H 0.26198 0.00202 0.09093 0.0
H309 H 0.2758 0.90309 0.14533 0.0
H310 H 0.29466 0.97292 0.18713 0.0
H311 H 0.31225 0.98839 0.11378 0.0
O312 O 0.41238 0.91091 0.21728 0.0
H313 H 0.34701 0.83447 0.21273 0.0
H314 H 0.44133 0.86015 0.21886 0.0
H315 H 0.22508 0.91591 0.12302 0.0
H316 H 0.39156 0.0318 0.17845 0.0
H317 H 0.21793 0.96569 0.09558 0.0
H318 H 0.34813 0.05286 0.2093 0.0
O319 O 0.33298 0.89266 0.12886 0.0
H320 H 0.48057 0.91437 0.13037 0.0
H321 H 0.40763 0.83094 0.15589 0.0
H322 H 0.45103 0.82035 0.12068 0.0
H323 H 0.48792 0.86224 0.10777 0.0
H324 H 0.43669 0.92401 0.16525 0.0
H325 H 0.45244 0.81385 0.25003 0.0
H326 H 0.41018 0.77723 0.26249 0.0
O327 O 0.3579 0.86159 0.16215 0.0
C328 C 0.32223 0.90539 0.21132 0.0
C329 C 0.37576 0.80351 0.23827 0.0
C330 C 0.42924 0.81817 0.2419 0.0
N331 N 0.39359 0.84988 0.21382 0.0
C332 C 0.37018 0.82994 0.22072 0.0
C333 C 0.4228 0.84438 0.22431 0.0
C334 C 0.40552 0.79763 0.24887 0.0
C335 C 0.36678 0.99062 0.16569 0.0
N336 N 0.33993 0.97431 0.16822 0.0
C337 C 0.37017 0.01908 0.1804 0.0
C338 C 0.34581 0.03085 0.19775 0.0
C339 C 0.31848 0.01413 0.20018 0.0
C340 C 0.31595 0.98571 0.18521 0.0
C341 C 0.2648 0.98028 0.10287 0.0
C342 C 0.27283 0.92487 0.13357 0.0
C343 C 0.29323 0.9724 0.1158 0.0
N344 N 0.2969 0.94505 0.13104 0.0
C345 C 0.24407 0.93197 0.12092 0.0
C346 C 0.24009 0.95989 0.1055 0.0
C347 C 0.3406 0.86593 0.13876 0.0
C348 C 0.46468 0.89591 0.13586 0.0
C349 C 0.42348 0.84931 0.15026 0.0
C350 C 0.44807 0.84316 0.13038 0.0
C351 C 0.46878 0.86667 0.12316 0.0
N352 N 0.41966 0.87803 0.16268 0.0
C353 C 0.43984 0.9012 0.15567 0.0
Co354 Co 0.66155 0.93501 0.846 0.0
Co355 Co 0.61199 0.88678 0.80692 0.0
O356 O 0.62072 0.92428 0.8305 0.0
C357 C 0.62288 0.94255 0.90297 0.0
O358 O 0.61034 0.9153 0.89877 0.0
C359 C 0.58861 0.93684 0.76748 0.0
O360 O 0.61577 0.94995 0.77021 0.0
O361 O 0.64694 0.89483 0.77795 0.0
O362 O 0.68154 0.91851 0.80823 0.0
H363 H 0.63811 0.78746 0.75318 0.0
H364 H 0.61208 0.98204 0.84317 0.0
O365 O 0.64295 0.95277 0.88418 0.0
H366 H 0.69641 0.0235 0.77912 0.0
H367 H 0.73914 0.0032 0.89924 0.0
H368 H 0.72212 0.90337 0.84746 0.0
H369 H 0.70225 0.9737 0.80594 0.0
H370 H 0.68788 0.98969 0.87867 0.0
O371 O 0.58349 0.9108 0.77997 0.0
H372 H 0.64922 0.83454 0.78312 0.0
H373 H 0.55468 0.85998 0.77998 0.0
H374 H 0.77382 0.91606 0.86745 0.0
H375 H 0.60532 0.03206 0.81696 0.0
H376 H 0.78259 0.9663 0.89357 0.0
H377 H 0.64765 0.05306 0.78457 0.0
O378 O 0.66562 0.89372 0.86609 0.0
H379 H 0.51813 0.91478 0.86893 0.0
H380 H 0.59094 0.83159 0.84227 0.0
H381 H 0.54883 0.82118 0.87906 0.0
H382 H 0.51201 0.86295 0.89255 0.0
H383 H 0.56074 0.92426 0.83246 0.0
H384 H 0.54258 0.81329 0.74978 0.0
H385 H 0.58446 0.77659 0.73629 0.0
O386 O 0.64007 0.86226 0.83367 0.0
C387 C 0.6739 0.90545 0.78307 0.0
C388 C 0.61965 0.80323 0.75898 0.0
C389 C 0.56605 0.81776 0.75703 0.0
N390 N 0.6026 0.84988 0.78344 0.0
C391 C 0.62579 0.82989 0.77599 0.0
C392 C 0.57305 0.84419 0.77406 0.0
C393 C 0.58955 0.79716 0.74949 0.0
C394 C 0.63071 0.99113 0.82932 0.0
N395 N 0.65755 0.97492 0.82608 0.0
C396 C 0.6267 0.01943 0.81446 0.0
C397 C 0.65044 0.03117 0.79624 0.0
C398 C 0.67779 0.01458 0.79315 0.0
C399 C 0.68093 0.98632 0.80829 0.0
C400 C 0.73561 0.98125 0.88789 0.0
C401 C 0.72577 0.92533 0.85868 0.0
C402 C 0.7066 0.97342 0.87629 0.0
N403 N 0.70202 0.9458 0.86178 0.0
C404 C 0.75509 0.93236 0.87001 0.0
C405 C 0.75999 0.96054 0.88469 0.0
C406 C 0.65797 0.86686 0.85654 0.0
C407 C 0.53398 0.89637 0.86318 0.0
C408 C 0.5751 0.84991 0.84813 0.0
C409 C 0.55124 0.84386 0.86891 0.0
C410 C 0.53058 0.8673 0.87645 0.0
N411 N 0.57825 0.87847 0.83515 0.0
C412 C 0.5581 0.90157 0.84246 0.0
Co413 Co 0.33463 0.06623 0.84826 0.0
Co414 Co 0.38009 0.11189 0.80211 0.0
O415 O 0.37382 0.07605 0.82861 0.0
C416 C 0.37612 0.06363 0.90335 0.0
O417 O 0.38353 0.09274 0.89949 0.0
C418 C 0.40133 0.05945 0.76458 0.0
O419 O 0.37449 0.04645 0.76985 0.0
O420 O 0.34321 0.10118 0.77678 0.0
O421 O 0.31092 0.08082 0.81172 0.0
H422 H 0.34786 0.20672 0.74382 0.0
H423 H 0.38356 0.01871 0.84333 0.0
O424 O 0.35733 0.05041 0.88511 0.0
H425 H 0.29367 0.97494 0.78915 0.0
H426 H 0.26346 0.00099 0.91285 0.0
H427 H 0.27418 0.09771 0.85395 0.0
H428 H 0.29048 0.02612 0.81376 0.0
H429 H 0.31228 0.01352 0.88649 0.0
O430 O 0.40689 0.08639 0.77477 0.0
H431 H 0.34009 0.16172 0.77776 0.0
H432 H 0.43458 0.13752 0.76885 0.0
H433 H 0.22488 0.08598 0.87977 0.0
H434 H 0.3877 0.96737 0.81922 0.0
H435 H 0.21929 0.03731 0.90949 0.0
H436 H 0.34255 0.94519 0.79181 0.0
O437 O 0.33222 0.10858 0.86633 0.0
H438 H 0.47878 0.08938 0.85856 0.0
H439 H 0.40317 0.16982 0.83133 0.0
H440 H 0.44788 0.18332 0.86376 0.0
H441 H 0.48613 0.14295 0.87751 0.0
H442 H 0.43358 0.07684 0.82642 0.0
H443 H 0.44332 0.18212 0.7346 0.0
H444 H 0.39979 0.21715 0.72199 0.0
O445 O 0.35382 0.13794 0.82937 0.0
C446 C 0.31664 0.09146 0.78494 0.0
C447 C 0.36703 0.19167 0.74922 0.0
C448 C 0.4206 0.17784 0.74401 0.0
N449 N 0.3869 0.14716 0.77545 0.0
C450 C 0.36279 0.16621 0.76848 0.0
C451 C 0.41549 0.15258 0.76334 0.0
C452 C 0.39617 0.19749 0.73695 0.0
C453 C 0.36371 0.00909 0.83172 0.0
N454 N 0.33677 0.02536 0.83008 0.0
C455 C 0.36623 0.98005 0.818 0.0
C456 C 0.34092 0.96765 0.80257 0.0
C457 C 0.3135 0.98435 0.80106 0.0
C458 C 0.31184 0.01335 0.81498 0.0
C459 C 0.26559 0.02224 0.89993 0.0
C460 C 0.27188 0.0764 0.86669 0.0
C461 C 0.29321 0.0295 0.885 0.0
N462 N 0.29601 0.05623 0.86852 0.0
C463 C 0.24393 0.06992 0.88133 0.0
C464 C 0.24082 0.04263 0.89802 0.0
C465 C 0.3385 0.13478 0.85431 0.0
C466 C 0.46231 0.10719 0.85268 0.0
C467 C 0.4196 0.1521 0.83735 0.0
C468 C 0.44494 0.15989 0.85565 0.0
C469 C 0.4664 0.13724 0.86334 0.0
N470 N 0.41579 0.12259 0.82692 0.0
C471 C 0.4367 0.10025 0.83442 0.0
Co472 Co 0.14977 0.66345 0.07042 0.0
Co473 Co 0.19876 0.61826 0.11401 0.0
O474 O 0.1698 0.62403 0.07966 0.0
C475 C 0.10091 0.61452 0.05798 0.0
O476 O 0.11951 0.59157 0.06445 0.0
C477 C 0.23266 0.59529 0.05975 0.0
O478 O 0.22622 0.62151 0.04602 0.0
O479 O 0.22364 0.65459 0.10086 0.0
O480 O 0.18814 0.68643 0.08091 0.0
H481 H 0.26356 0.65216 0.20392 0.0
H482 H 0.15325 0.61282 0.02331 0.0
O483 O 0.10992 0.64246 0.0596 0.0
H484 H 0.19919 0.70388 0.97341 0.0
H485 H 0.08111 0.73548 0.01042 0.0
H486 H 0.14879 0.72454 0.10116 0.0
H487 H 0.17923 0.70718 0.02647 0.0
H488 H 0.10716 0.68608 0.02123 0.0
O489 O 0.2243 0.59074 0.08748 0.0
H490 H 0.22681 0.65922 0.16108 0.0
H491 H 0.23309 0.56402 0.13878 0.0
H492 H 0.12342 0.77443 0.09103 0.0
H493 H 0.17253 0.60862 0.97027 0.0
H494 H 0.08929 0.78013 0.04538 0.0
H495 H 0.1958 0.65435 0.94484 0.0
O496 O 0.1353 0.66687 0.11389 0.0
H497 H 0.14341 0.51752 0.09861 0.0
H498 H 0.17195 0.59769 0.17403 0.0
H499 H 0.14096 0.55315 0.19097 0.0
H500 H 0.12656 0.51259 0.15315 0.0
H501 H 0.17401 0.56267 0.08256 0.0
H502 H 0.27008 0.55598 0.18124 0.0
H503 H 0.28546 0.60023 0.21423 0.0
O504 O 0.17361 0.64536 0.14133 0.0
C505 C 0.21534 0.68079 0.09039 0.0
C506 C 0.25697 0.63268 0.18976 0.0
C507 C 0.26066 0.5787 0.17701 0.0
N508 N 0.22765 0.61202 0.14759 0.0
C509 C 0.23612 0.63652 0.16552 0.0
C510 C 0.23976 0.58341 0.15296 0.0
C511 C 0.26927 0.60354 0.19551 0.0
C512 C 0.16259 0.63305 0.01243 0.0
N513 N 0.16424 0.66042 0.02797 0.0
C514 C 0.17381 0.63043 0.98234 0.0
C515 C 0.18696 0.65606 0.96812 0.0
C516 C 0.18887 0.68384 0.98414 0.0
C517 C 0.17747 0.68556 0.01422 0.0
C518 C 0.09597 0.7333 0.03035 0.0
C519 C 0.13413 0.72689 0.08113 0.0
C520 C 0.11072 0.70536 0.03664 0.0
N521 N 0.12968 0.7025 0.06168 0.0
C522 C 0.11976 0.75517 0.07557 0.0
C523 C 0.10058 0.75834 0.04997 0.0
C524 C 0.14875 0.66094 0.13939 0.0
C525 C 0.14952 0.53504 0.11531 0.0
C526 C 0.16548 0.58036 0.15734 0.0
C527 C 0.14808 0.55508 0.16712 0.0
C528 C 0.14005 0.53231 0.1459 0.0
N529 N 0.17464 0.58293 0.12727 0.0
C530 C 0.16692 0.56064 0.10637 0.0
Co531 Co 0.15124 0.337 0.92779 0.0
Co532 Co 0.19847 0.38321 0.88327 0.0
O533 O 0.17008 0.37687 0.91807 0.0
C534 C 0.10098 0.38445 0.94093 0.0
O535 O 0.1187 0.40806 0.93432 0.0
C536 C 0.2326 0.40716 0.93694 0.0
O537 O 0.22702 0.38083 0.95083 0.0
O538 O 0.22447 0.34753 0.89612 0.0
O539 O 0.19006 0.31504 0.91694 0.0
H540 H 0.26293 0.35077 0.79255 0.0
H541 H 0.15415 0.38803 0.97447 0.0
O542 O 0.11093 0.35685 0.93904 0.0
H543 H 0.20263 0.2984 0.02451 0.0
H544 H 0.08523 0.26335 0.98886 0.0
H545 H 0.1516 0.27578 0.89732 0.0
H546 H 0.18214 0.29425 0.97173 0.0
H547 H 0.10982 0.31339 0.97759 0.0
O548 O 0.22365 0.41147 0.90936 0.0
H549 H 0.22692 0.34287 0.83588 0.0
H550 H 0.23104 0.43825 0.8579 0.0
H551 H 0.1277 0.22526 0.90791 0.0
H552 H 0.17392 0.39307 0.02725 0.0
H553 H 0.09423 0.21881 0.95397 0.0
H554 H 0.19848 0.34806 0.05275 0.0
O555 O 0.13637 0.33298 0.88451 0.0
H556 H 0.14061 0.48245 0.89914 0.0
H557 H 0.1703 0.40281 0.82357 0.0
H558 H 0.13793 0.44647 0.80692 0.0
H559 H 0.12294 0.48675 0.84481 0.0
H560 H 0.17262 0.4382 0.91491 0.0
H561 H 0.26727 0.44714 0.81495 0.0
H562 H 0.28335 0.40322 0.78185 0.0
O563 O 0.17369 0.35536 0.85638 0.0
C564 C 0.21694 0.32121 0.90689 0.0
C565 C 0.25602 0.37011 0.80675 0.0
C566 C 0.2585 0.42419 0.81935 0.0
N567 N 0.22673 0.3901 0.84927 0.0
C568 C 0.23558 0.36579 0.83127 0.0
C569 C 0.23803 0.419 0.84368 0.0
C570 C 0.2675 0.39954 0.80078 0.0
C571 C 0.16405 0.3681 0.9854 0.0
N572 N 0.16611 0.34065 0.97004 0.0
C573 C 0.17555 0.37119 0.01533 0.0
C574 C 0.18942 0.34598 0.02959 0.0
C575 C 0.19175 0.31812 0.01375 0.0
C576 C 0.18005 0.31592 0.98382 0.0
C577 C 0.09981 0.26585 0.96875 0.0
C578 C 0.13723 0.2731 0.91752 0.0
C579 C 0.11373 0.29416 0.9622 0.0
N580 N 0.13234 0.29744 0.93694 0.0
C581 C 0.12369 0.24446 0.92335 0.0
C582 C 0.10488 0.24087 0.94917 0.0
C583 C 0.14933 0.3391 0.85878 0.0
C584 C 0.14699 0.46505 0.88241 0.0
C585 C 0.16362 0.42005 0.84029 0.0
C586 C 0.14542 0.44482 0.83068 0.0
C587 C 0.13705 0.46743 0.85194 0.0
N588 N 0.17325 0.41784 0.87024 0.0
C589 C 0.16519 0.43997 0.89118 0.0
Co590 Co 0.85016 0.66801 0.93533 0.0
Co591 Co 0.80515 0.62032 0.89102 0.0
O592 O 0.83099 0.62818 0.92711 0.0
C593 C 0.90414 0.62539 0.94339 0.0
O594 O 0.89968 0.61332 0.91597 0.0
C595 C 0.76714 0.59979 0.94349 0.0
O596 O 0.77196 0.6269 0.95611 0.0
O597 O 0.77903 0.6571 0.90024 0.0
O598 O 0.8139 0.69059 0.91856 0.0
H599 H 0.74785 0.64863 0.79436 0.0
H600 H 0.8443 0.62169 0.98527 0.0
O601 O 0.88674 0.6468 0.95334 0.0
H602 H 0.78871 0.71349 0.02291 0.0
H603 H 0.91219 0.74354 0.99816 0.0
H604 H 0.85622 0.72662 0.90061 0.0
H605 H 0.8145 0.71408 0.97224 0.0
H606 H 0.88666 0.69379 0.98776 0.0
O607 O 0.77783 0.59383 0.91683 0.0
H608 H 0.7809 0.65837 0.83963 0.0
H609 H 0.7733 0.56447 0.86652 0.0
H610 H 0.88122 0.7768 0.91018 0.0
H611 H 0.81905 0.62017 0.03621 0.0
H612 H 0.90946 0.78551 0.95926 0.0
H613 H 0.79092 0.66628 0.0553 0.0
O614 O 0.86943 0.66807 0.89351 0.0
H615 H 0.86284 0.52334 0.9175 0.0
H616 H 0.8357 0.59593 0.8343 0.0
H617 H 0.86912 0.5514 0.82274 0.0
H618 H 0.88284 0.51467 0.86451 0.0
H619 H 0.82972 0.56834 0.92809 0.0
H620 H 0.73996 0.55377 0.82168 0.0
H621 H 0.72715 0.59601 0.78515 0.0
O622 O 0.83236 0.64625 0.86453 0.0
C623 C 0.78708 0.6842 0.90845 0.0
C624 C 0.75334 0.63002 0.81006 0.0
C625 C 0.74888 0.57678 0.82542 0.0
N626 N 0.77919 0.61197 0.85557 0.0
C627 C 0.7721 0.63538 0.83569 0.0
C628 C 0.7677 0.583 0.85081 0.0
C629 C 0.74171 0.60049 0.80493 0.0
C630 C 0.83234 0.64195 0.99352 0.0
N631 N 0.83093 0.66797 0.97578 0.0
C632 C 0.818 0.64091 0.02235 0.0
C633 C 0.80217 0.66676 0.03302 0.0
C634 C 0.8009 0.69325 0.01485 0.0
C635 C 0.81546 0.69342 0.98611 0.0
C636 C 0.89992 0.74003 0.97671 0.0
C637 C 0.86834 0.73027 0.92209 0.0
C638 C 0.88549 0.71188 0.97064 0.0
N639 N 0.86982 0.70734 0.94366 0.0
C640 C 0.88251 0.75872 0.92735 0.0
C641 C 0.89837 0.76358 0.95488 0.0
C642 C 0.8575 0.66127 0.86741 0.0
C643 C 0.85699 0.53915 0.89909 0.0
C644 C 0.8417 0.58017 0.85262 0.0
C645 C 0.86056 0.55493 0.84592 0.0
C646 C 0.86823 0.53432 0.86937 0.0
N647 N 0.83071 0.58473 0.88182 0.0
C648 C 0.83816 0.56463 0.90493 0.0
Co649 Co 0.84734 0.33853 0.06648 0.0
Co650 Co 0.80873 0.38798 0.11517 0.0
O651 O 0.83209 0.37938 0.07752 0.0
C652 C 0.90432 0.37709 0.0588 0.0
O653 O 0.90036 0.38937 0.08621 0.0
C654 C 0.76924 0.41213 0.06551 0.0
O655 O 0.77164 0.38504 0.05217 0.0
O656 O 0.77949 0.35331 0.10689 0.0
O657 O 0.80962 0.3186 0.08317 0.0
H658 H 0.75519 0.36133 0.21445 0.0
H659 H 0.84448 0.3882 0.01964 0.0
O660 O 0.88544 0.35711 0.04856 0.0
H661 H 0.77947 0.30447 0.97846 0.0
H662 H 0.89975 0.26117 0.99739 0.0
H663 H 0.84872 0.2777 0.09769 0.0
H664 H 0.80661 0.29828 0.02803 0.0
H665 H 0.87954 0.31245 0.01142 0.0
O666 O 0.78193 0.41692 0.09152 0.0
H667 H 0.78481 0.35043 0.16712 0.0
H668 H 0.78235 0.44526 0.14262 0.0
H669 H 0.86837 0.22599 0.08448 0.0
H670 H 0.81794 0.39531 0.96985 0.0
H671 H 0.89411 0.21746 0.034 0.0
H672 H 0.78506 0.35329 0.94899 0.0
O673 O 0.86767 0.33411 0.10762 0.0
H674 H 0.87142 0.48154 0.08768 0.0
H675 H 0.84437 0.40836 0.17042 0.0
H676 H 0.88155 0.45007 0.18103 0.0
H677 H 0.89525 0.48707 0.13948 0.0
H678 H 0.83457 0.43932 0.07801 0.0
H679 H 0.75248 0.45715 0.18958 0.0
H680 H 0.73882 0.41502 0.22593 0.0
O681 O 0.83534 0.35948 0.13933 0.0
C682 C 0.7845 0.32632 0.09624 0.0
C683 C 0.76107 0.3799 0.19883 0.0
C684 C 0.75951 0.43367 0.18485 0.0
N685 N 0.78546 0.39721 0.15224 0.0
C686 C 0.7779 0.37388 0.17203 0.0
C687 C 0.77635 0.42678 0.15826 0.0
C688 C 0.75187 0.41002 0.20524 0.0
C689 C 0.83044 0.3697 0.01059 0.0
N690 N 0.82714 0.34283 0.02674 0.0
C691 C 0.81538 0.3739 0.98243 0.0
C692 C 0.79689 0.35034 0.97077 0.0
C693 C 0.79372 0.32296 0.98731 0.0
C694 C 0.80906 0.31961 0.01543 0.0
C695 C 0.88857 0.26459 0.01945 0.0
C696 C 0.85979 0.27416 0.07563 0.0
C697 C 0.87717 0.29361 0.02757 0.0
N698 N 0.86287 0.29806 0.05532 0.0
C699 C 0.87092 0.24483 0.0683 0.0
C700 C 0.88538 0.24007 0.03999 0.0
C701 C 0.85815 0.34153 0.13455 0.0
C702 C 0.86559 0.46561 0.10599 0.0
C703 C 0.85032 0.42427 0.1522 0.0
C704 C 0.87132 0.4479 0.15836 0.0
C705 C 0.87898 0.46867 0.13505 0.0
N706 N 0.83724 0.42144 0.12366 0.0
C707 C 0.84466 0.44171 0.10068 0.0
H708 H 0.00181 0.24225 0.40416 0.0
H709 H -8e-05 0.24545 0.5874 0.0
H710 H 0.91891 0.24673 0.45918 0.0
H711 H 0.08278 0.23994 0.5324 0.0
H712 H 0.97057 0.25707 0.54071 0.0
H713 H 0.03224 0.25262 0.45045 0.0
C714 C 0.98996 0.24605 0.42583 0.0
C715 C 0.95783 0.24303 0.42793 0.0
C716 C 0.99526 0.25382 0.53894 0.0
C717 C 0.99248 0.25449 0.48101 0.0
C718 C 0.01205 0.24728 0.56562 0.0
C719 C 0.04374 0.24115 0.5637 0.0
C720 C 0.01028 0.25406 0.51018 0.0
C721 C 0.05826 0.24398 0.53488 0.0
C722 C 0.00735 0.25186 0.4523 0.0
C723 C 0.9437 0.24832 0.4566 0.0
N724 N 0.04135 0.24977 0.5092 0.0
N725 N 0.96114 0.25331 0.48209 0.0
H726 H 0.08847 0.7527 0.4682 0.0
H727 H 0.91917 0.74501 0.53812 0.0
H728 H 0.00528 0.75339 0.41346 0.0
H729 H 0.00169 0.75596 0.59279 0.0
H730 H 0.95103 0.7354 0.49282 0.0
H731 H 0.05773 0.74132 0.51388 0.0
C732 C 0.06377 0.74996 0.46567 0.0
C733 C 0.04934 0.75455 0.43704 0.0
C734 C 0.96219 0.73942 0.51481 0.0
C735 C 0.01402 0.74174 0.48935 0.0
C736 C 0.94401 0.74488 0.54073 0.0
C737 C 0.95782 0.75186 0.56919 0.0
C738 C 0.9944 0.74112 0.51729 0.0
C739 C 0.99008 0.75098 0.57125 0.0
C740 C 0.04624 0.74349 0.49181 0.0
C741 C 0.01733 0.75034 0.43511 0.0
N742 N 0.00731 0.74621 0.5455 0.0
N743 N 0.00068 0.74462 0.46103 0.0
H744 H 0.4079 0.99833 0.245 0.0
H745 H 0.59095 -4e-05 0.24451 0.0
H746 H 0.46451 0.91641 0.24303 0.0
H747 H 0.53444 0.08194 0.24723 0.0
H748 H 0.54513 0.96885 0.25477 0.0
H749 H 0.45375 0.02891 0.25672 0.0
C750 C 0.42984 0.98668 0.24765 0.0
C751 C 0.4325 0.95487 0.24244 0.0
C752 C 0.54284 0.99369 0.25363 0.0
C753 C 0.48506 0.98972 0.25544 0.0
C754 C 0.56903 0.01148 0.24784 0.0
C755 C 0.56641 0.04353 0.24443 0.0
C756 C 0.51386 0.00809 0.2558 0.0
C757 C 0.53744 0.05722 0.24915 0.0
C758 C 0.45605 0.00417 0.25425 0.0
C759 C 0.46149 0.94098 0.24632 0.0
N760 N 0.51222 0.03939 0.25412 0.0
N761 N 0.48671 0.95855 0.25211 0.0
H762 H 0.58634 0.99781 0.75063 0.0
H763 H 0.40317 0.99731 0.75276 0.0
H764 H 0.53067 0.91536 0.75547 0.0
H765 H 0.45876 0.07986 0.74872 0.0
H766 H 0.44927 0.96658 0.74254 0.0
H767 H 0.53999 0.02759 0.73882 0.0
C768 C 0.56449 0.98586 0.74861 0.0
C769 C 0.56227 0.95416 0.75461 0.0
C770 C 0.45129 0.99146 0.74336 0.0
C771 C 0.50913 0.9881 0.74147 0.0
C772 C 0.42493 0.00903 0.74908 0.0
C773 C 0.42723 0.04114 0.75219 0.0
C774 C 0.48011 0.00614 0.74091 0.0
C775 C 0.45601 0.05509 0.74706 0.0
C776 C 0.53799 0.0029 0.74195 0.0
C777 C 0.53337 0.93987 0.75154 0.0
N778 N 0.4814 0.03748 0.74216 0.0
N779 N 0.50787 0.95702 0.74564 0.0
H780 H 0.24893 0.46368 0.91448 0.0
H781 H 0.25061 0.53909 0.08176 0.0
H782 H 0.24284 0.41172 0.99926 0.0
H783 H 0.2415 0.59096 0.99721 0.0
H784 H 0.26077 0.49273 0.05166 0.0
H785 H 0.25918 0.51021 0.94431 0.0
C786 C 0.25024 0.46193 0.93938 0.0
C787 C 0.24447 0.43384 0.95445 0.0
C788 C 0.25702 0.51433 0.03969 0.0
C789 C 0.25602 0.48715 0.98869 0.0
C790 C 0.25125 0.54086 0.05685 0.0
C791 C 0.24464 0.56886 0.04194 0.0
C792 C 0.25608 0.51573 0.00739 0.0
C793 C 0.24618 0.56982 0.00964 0.0
C794 C 0.25606 0.48856 0.95637 0.0
C795 C 0.24686 0.43292 0.9867 0.0
N796 N 0.2513 0.54349 0.99341 0.0
N797 N 0.25202 0.45933 0.00279 0.0
H798 H 0.75597 0.59808 0.00577 0.0
H799 H 0.7515 0.41487 0.00483 0.0
H800 H 0.75025 0.54265 0.92321 0.0
H801 H 0.75841 0.47019 0.08737 0.0
H802 H 0.73984 0.46149 0.97539 0.0
H803 H 0.74556 0.55202 0.03657 0.0
C804 C 0.75187 0.57638 0.99408 0.0
C805 C 0.75457 0.57408 0.96193 0.0
C806 C 0.7434 0.46336 4e-05 0.0
C807 C 0.74308 0.52126 0.99698 0.0
C808 C 0.74998 0.43671 0.01687 0.0
C809 C 0.7565 0.43873 0.04848 0.0
C810 C 0.74354 0.49218 0.01493 0.0
C811 C 0.75405 0.46763 0.06291 0.0
C812 C 0.74605 0.55004 0.01168 0.0
C813 C 0.74892 0.54538 0.948 0.0
N814 N 0.74823 0.49327 0.04595 0.0
N815 N 0.74393 0.52002 0.96563 0.0
H816 H 0.13288 0.09799 0.70859 0.0
H817 H 0.31568 0.11716 0.72686 0.0
H818 H 0.19057 0.1483 0.64477 0.0
H819 H 0.2577 0.07034 0.79306 0.0
H820 H 0.27088 0.12324 0.69315 0.0
H821 H 0.17927 0.08164 0.73631 0.0
C822 C 0.15524 0.10519 0.70008 0.0
C823 C 0.15771 0.12482 0.67445 0.0
C824 C 0.26806 0.11141 0.71496 0.0
C825 C 0.21084 0.10644 0.70621 0.0
C826 C 0.29367 0.10791 0.73421 0.0
C827 C 0.29052 0.09342 0.76298 0.0
C828 C 0.23909 0.10038 0.72454 0.0
C829 C 0.26133 0.08186 0.77121 0.0
C830 C 0.18173 0.09598 0.716 0.0
C831 C 0.18739 0.13342 0.66455 0.0
N832 N 0.23677 0.08577 0.75221 0.0
N833 N 0.21269 0.12441 0.68057 0.0
H834 H 0.73006 0.93372 0.78165 0.0
H835 H 0.7987 0.82599 0.64995 0.0
H836 H 0.67461 0.86771 0.73171 0.0
H837 H 0.85063 0.89643 0.69766 0.0
H838 H 0.75197 0.84374 0.6758 0.0
H839 H 0.77276 0.92343 0.74727 0.0
C840 C 0.72662 0.91729 0.76318 0.0
C841 C 0.69854 0.90149 0.75973 0.0
C842 C 0.77353 0.85549 0.68035 0.0
C843 C 0.74811 0.88911 0.72028 0.0
C844 C 0.80031 0.84539 0.66561 0.0
C845 C 0.82884 0.85956 0.67181 0.0
C846 C 0.77524 0.87985 0.70157 0.0
C847 C 0.82929 0.88465 0.69223 0.0
C848 C 0.75122 0.91136 0.74352 0.0
C849 C 0.69579 0.88043 0.73528 0.0
N850 N 0.80297 0.89379 0.70654 0.0
N851 N 0.72043 0.87456 0.71667 0.0
H852 H 0.32365 0.8737 0.26639 0.0
H853 H 0.14328 0.89819 0.2974 0.0
H854 H 0.2638 0.929 0.20902 0.0
H855 H 0.20112 0.83804 0.3519 0.0
H856 H 0.18883 0.91491 0.26885 0.0
H857 H 0.28052 0.86527 0.30184 0.0
C858 C 0.30161 0.88433 0.26138 0.0
C859 C 0.29739 0.90192 0.23453 0.0
C860 C 0.19157 0.89825 0.28725 0.0
C861 C 0.24795 0.8923 0.27493 0.0
C862 C 0.16555 0.88876 0.30366 0.0
C863 C 0.16823 0.86644 0.32695 0.0
C864 C 0.2205 0.88532 0.29411 0.0
C865 C 0.1978 0.85511 0.33399 0.0
C866 C 0.27697 0.87946 0.2816 0.0
C867 C 0.26823 0.91511 0.22928 0.0
N868 N 0.22271 0.86448 0.31748 0.0
N869 N 0.24466 0.90988 0.24916 0.0
H870 H 0.67766 0.12154 0.27452 0.0
H871 H 0.85843 0.09276 0.29807 0.0
H872 H 0.73403 0.0664 0.21357 0.0
H873 H 0.80428 0.15611 0.3527 0.0
H874 H 0.81112 0.07551 0.27264 0.0
H875 H 0.72194 0.12721 0.30902 0.0
C876 C 0.69915 0.11027 0.26857 0.0
C877 C 0.70213 0.09375 0.24089 0.0
C878 C 0.80961 0.09293 0.29048 0.0
C879 C 0.75292 0.10025 0.2802 0.0
C880 C 0.83662 0.10271 0.30508 0.0
C881 C 0.83547 0.12621 0.3273 0.0
C882 C 0.78127 0.10672 0.29818 0.0
C883 C 0.80644 0.13817 0.33548 0.0
C884 C 0.72446 0.11357 0.28824 0.0
C885 C 0.73061 0.0796 0.23447 0.0
N886 N 0.7806 0.12852 0.32073 0.0
N887 N 0.75491 0.0834 0.25381 0.0
H888 H 0.69984 0.14725 0.10139 0.0
H889 H 0.73207 0.32654 0.13248 0.0
H890 H 0.65106 0.20054 0.17007 0.0
H891 H 0.78383 0.26951 0.06923 0.0
H892 H 0.69744 0.28278 0.1421 0.0
H893 H 0.72603 0.1941 0.08468 0.0
C894 C 0.69438 0.16881 0.11279 0.0
C895 C 0.67338 0.16979 0.13738 0.0
C896 C 0.71622 0.28008 0.12586 0.0
C897 C 0.70356 0.22365 0.11847 0.0
C898 C 0.73592 0.30507 0.12029 0.0
C899 C 0.76105 0.30176 0.10013 0.0
C900 C 0.72169 0.25171 0.11107 0.0
C901 C 0.76493 0.2733 0.08506 0.0
C902 C 0.70941 0.19561 0.10327 0.0
C903 C 0.66723 0.19854 0.15116 0.0
N904 N 0.74564 0.24945 0.09097 0.0
N905 N 0.68244 0.22426 0.14169 0.0
H906 H 0.20757 0.73861 0.06613 0.0
H907 H 0.35762 0.80585 0.14749 0.0
H908 H 0.27354 0.68272 0.11566 0.0
H909 H 0.29232 0.86215 0.09758 0.0
H910 H 0.33079 0.75991 0.13002 0.0
H911 H 0.24158 0.78287 0.07166 0.0
C912 C 0.22937 0.73547 0.0779 0.0
C913 C 0.23752 0.7068 0.09071 0.0
C914 C 0.32248 0.78225 0.12256 0.0
C915 C 0.27659 0.7578 0.09728 0.0
C916 C 0.33786 0.80863 0.13249 0.0
C917 C 0.32707 0.83809 0.12427 0.0
C918 C 0.29586 0.78516 0.10445 0.0
C919 C 0.30142 0.83999 0.10462 0.0
C920 C 0.2488 0.76088 0.08103 0.0
C921 C 0.26618 0.70433 0.10554 0.0
N922 N 0.28644 0.81389 0.0957 0.0
N923 N 0.28452 0.72958 0.10868 0.0
H924 H 0.79489 0.74358 0.92812 0.0
H925 H 0.64267 0.80633 0.84726 0.0
H926 H 0.72913 0.68448 0.88213 0.0
H927 H 0.70662 0.86412 0.89725 0.0
H928 H 0.67108 0.76101 0.86412 0.0
H929 H 0.76039 0.78699 0.92093 0.0
C930 C 0.77305 0.73956 0.9167 0.0
C931 C 0.76502 0.71015 0.90561 0.0
C932 C 0.67872 0.78355 0.87171 0.0
C933 C 0.7253 0.76034 0.89706 0.0
C934 C 0.66246 0.80956 0.86214 0.0
C935 C 0.6724 0.83927 0.87059 0.0
C936 C 0.70532 0.78714 0.88972 0.0
C937 C 0.69814 0.84177 0.89004 0.0
C938 C 0.75331 0.76452 0.91262 0.0
C939 C 0.73635 0.70667 0.89101 0.0
N940 N 0.7139 0.81606 0.89865 0.0
N941 N 0.71763 0.73154 0.88692 0.0
H942 H 0.3531 0.19451 0.84017 0.0
H943 H 0.21177 0.26426 0.93363 0.0
H944 H 0.29485 0.14033 0.90019 0.0
H945 H 0.27328 0.31911 0.87762 0.0
H946 H 0.24544 0.22001 0.92654 0.0
H947 H 0.32795 0.24109 0.85845 0.0
C948 C 0.33527 0.19234 0.85751 0.0
C949 C 0.32593 0.16326 0.86843 0.0
C950 C 0.25181 0.24179 0.91609 0.0
C951 C 0.29666 0.21692 0.88925 0.0
C952 C 0.23257 0.2672 0.92013 0.0
C953 C 0.23949 0.29554 0.90595 0.0
C954 C 0.27811 0.2445 0.89747 0.0
C955 C 0.2669 0.29776 0.88888 0.0
C956 C 0.32087 0.21909 0.86793 0.0
C957 C 0.30275 0.16217 0.891 0.0
N958 N 0.28501 0.27246 0.88481 0.0
N959 N 0.28864 0.18859 0.90037 0.0
H960 H 0.06602 0.78476 0.27005 0.0
H961 H 0.16811 0.65007 0.19855 0.0
H962 H 0.12971 0.7298 0.32343 0.0
H963 H 0.1009 0.70201 0.14644 0.0
H964 H 0.15058 0.67536 0.24546 0.0
H965 H 0.07449 0.75105 0.22606 0.0
C966 C 0.08153 0.76537 0.27272 0.0
C967 C 0.0974 0.76033 0.30054 0.0
C968 C 0.13944 0.68102 0.22384 0.0
C969 C 0.10747 0.72171 0.24981 0.0
C970 C 0.14943 0.66657 0.19693 0.0
C971 C 0.13612 0.67404 0.16832 0.0
C972 C 0.1161 0.70335 0.22225 0.0
C973 C 0.11194 0.69557 0.16789 0.0
C974 C 0.08637 0.74612 0.24747 0.0
C975 C 0.11706 0.73468 0.30247 0.0
N976 N 0.10292 0.70967 0.1944 0.0
N977 N 0.12181 0.71654 0.27732 0.0
H978 H 0.0645 0.21268 0.73284 0.0
H979 H 0.16897 0.34808 0.79928 0.0
H980 H 0.12796 0.26472 0.67632 0.0
H981 H 0.10123 0.29829 0.85282 0.0
H982 H 0.15133 0.32137 0.75307 0.0
H983 H 0.07451 0.24731 0.77546 0.0
C984 C 0.08032 0.23163 0.72917 0.0
C985 C 0.09549 0.23563 0.7008 0.0
C986 C 0.14013 0.31652 0.77486 0.0
C987 C 0.1075 0.27539 0.75022 0.0
C988 C 0.15017 0.33177 0.80135 0.0
C989 C 0.13673 0.32528 0.83018 0.0
C990 C 0.11657 0.29448 0.77713 0.0
C991 C 0.1124 0.30398 0.83122 0.0
C992 C 0.08607 0.25144 0.75371 0.0
C993 C 0.11575 0.26071 0.69773 0.0
N994 N 0.10331 0.28919 0.80514 0.0
N995 N 0.12144 0.27947 0.72229 0.0
H996 H 0.84388 0.64511 0.808 0.0
H997 H 0.93344 0.78775 0.73611 0.0
H998 H 0.90296 0.70523 0.86111 0.0
H999 H 0.87932 0.72379 0.68217 0.0
H1000 H 0.92748 0.75444 0.7808 0.0
H1001 H 0.86162 0.66986 0.76098 0.0
C1002 C 0.86093 0.66325 0.80983 0.0
C1003 C 0.8717 0.67327 0.83874 0.0
C1004 C 0.9172 0.74746 0.75914 0.0
C1005 C 0.89184 0.7021 0.78462 0.0
C1006 C 0.92059 0.7665 0.73348 0.0
C1007 C 0.90661 0.75876 0.70526 0.0
C1008 C 0.89945 0.72054 0.75679 0.0
C1009 C 0.89038 0.73081 0.70343 0.0
C1010 C 0.87103 0.67742 0.78285 0.0
C1011 C 0.8939 0.69681 0.83943 0.0
N1012 N 0.88694 0.7129 0.72895 0.0
N1013 N 0.90293 0.71072 0.81278 0.0
H1014 H 0.92429 0.20155 0.25739 0.0
H1015 H 0.8499 0.35719 0.19511 0.0
H1016 H 0.88171 0.26943 0.31667 0.0
H1017 H 0.89728 0.29157 0.13699 0.0
H1018 H 0.86578 0.32805 0.24028 0.0
H1019 H 0.91846 0.23634 0.21397 0.0
C1020 C 0.91389 0.22389 0.26143 0.0
C1021 C 0.90337 0.23246 0.29091 0.0
C1022 C 0.87303 0.32019 0.21771 0.0
C1023 C 0.89643 0.27253 0.24074 0.0
C1024 C 0.86403 0.33688 0.19178 0.0
C1025 C 0.872 0.32669 0.16202 0.0
C1026 C 0.88995 0.2929 0.214 0.0
C1027 C 0.89048 0.30026 0.15939 0.0
C1028 C 0.91061 0.2438 0.23647 0.0
C1029 C 0.8901 0.26177 0.29443 0.0
N1030 N 0.89851 0.28407 0.18504 0.0
N1031 N 0.88679 0.28066 0.26957 0.0
H1032 H 0.99473 0.08321 0.64059 0.0
H1033 H 0.97837 0.91501 0.56716 0.0
H1034 H 0.06894 0.04198 0.58845 0.0
H1035 H 0.92993 0.94669 0.64806 0.0
H1036 H 0.00505 0.96522 0.56438 0.0
H1037 H 0.96393 0.03726 0.63238 0.0
C1038 C 0.0046 0.06454 0.62725 0.0
C1039 C 0.03483 0.06629 0.61573 0.0
C1040 C 0.98826 0.96118 0.58242 0.0
C1041 C 0.99922 0.01333 0.60612 0.0
C1042 C 0.97287 0.93276 0.58386 0.0
C1043 C 0.95197 0.92684 0.60788 0.0
C1044 C 0.98208 0.98379 0.6048 0.0
C1045 C 0.94594 0.95034 0.62923 0.0
C1046 C 0.98688 0.03826 0.62257 0.0
C1047 C 0.0459 0.04147 0.59805 0.0
N1048 N 0.9609 0.97771 0.62718 0.0
N1049 N 0.02816 0.01578 0.59398 0.0
H1050 H 0.92476 0.04318 0.41313 0.0
H1051 H 0.06706 0.94854 0.35164 0.0
H1052 H -0.00018 0.08393 0.36186 0.0
H1053 H 0.01932 0.91873 0.43364 0.0
H1054 H 0.04054 0.99796 0.35462 0.0
H1055 H 0.95683 0.99699 0.42153 0.0
C1056 C 0.948 0.04262 0.40402 0.0
C1057 C 0.95935 0.06722 0.38623 0.0
C1058 C 0.0361 0.98086 0.37229 0.0
C1059 C 0.9958 0.01474 0.39553 0.0
C1060 C 0.05124 0.95266 0.37055 0.0
C1061 C 0.04542 0.92971 0.39249 0.0
C1062 C 0.0143 0.98599 0.39569 0.0
C1063 C 0.02459 0.93608 0.41647 0.0
C1064 C 0.96626 0.01633 0.40884 0.0
C1065 C 0.98974 0.06534 0.37513 0.0
N1066 N 0.00929 0.96356 0.41719 0.0
N1067 N 0.00665 0.03947 0.37961 0.0
H1068 H 0.58612 0.9283 0.95334 0.0
H1069 H 0.65346 0.06636 0.0517 0.0
H1070 H 0.64314 0.00062 0.91532 0.0
H1071 H 0.56925 0.02131 0.07948 0.0
H1072 H 0.65075 0.04004 0.00216 0.0
H1073 H 0.57961 0.95953 0.00041 0.0
C1074 C 0.59701 0.95074 0.95472 0.0
C1075 C 0.61563 0.96156 0.9305 0.0
C1076 C 0.63258 0.03612 0.01885 0.0
C1077 C 0.60844 0.99708 0.98404 0.0
C1078 C 0.63415 0.05116 0.04714 0.0
C1079 C 0.61149 0.04607 0.06959 0.0
C1080 C 0.60854 0.01519 0.01307 0.0
C1081 C 0.58701 0.02603 0.06257 0.0
C1082 C 0.59323 0.96854 0.98151 0.0
C1083 C 0.62902 0.99093 0.93348 0.0
N1084 N 0.58639 0.01088 0.035 0.0
N1085 N 0.62544 0.00739 0.9598 0.0
H1086 H 0.39771 0.91791 0.03682 0.0
H1087 H 0.39446 0.08598 0.95974 0.0
H1088 H 0.37755 0.00162 0.08676 0.0
H1089 H 0.3814 0.00137 0.909 0.0
H1090 H 0.4032 0.05555 0.00673 0.0
H1091 H 0.40654 0.9488 0.99015 0.0
C1092 C 0.39571 0.94278 0.0381 0.0
C1093 C 0.38643 0.9572 0.06552 0.0
C1094 C 0.3989 0.04371 0.98516 0.0
C1095 C 0.39661 0.99254 0.01251 0.0
C1096 C 0.39409 0.06104 0.95836 0.0
C1097 C 0.38678 0.04616 0.9306 0.0
C1098 C 0.39676 0.01136 0.98398 0.0
C1099 C 0.38653 0.01376 0.93007 0.0
C1100 C 0.40061 0.96036 0.01148 0.0
C1101 C 0.38419 0.98953 0.06593 0.0
N1102 N 0.39119 0.99745 0.9564 0.0
N1103 N 0.38902 0.00609 0.03979 0.0
H1104 H 0.91304 0.63949 0.00375 0.0
H1105 H 0.08224 0.56834 0.01872 0.0
H1106 H 0.95524 0.59007 0.92823 0.0
H1107 H 0.04953 0.6484 0.06784 0.0
H1108 H 0.03193 0.56488 0.99231 0.0
H1109 H 0.95885 0.63068 0.03464 0.0
C1110 C 0.93188 0.62657 0.99364 0.0
C1111 C 0.93051 0.61608 0.96302 0.0
C1112 C 0.03577 0.58287 0.00921 0.0
C1113 C 0.98326 0.60585 0.99865 0.0
C1114 C 0.06425 0.5847 0.02442 0.0
C1115 C 0.06988 0.60871 0.04542 0.0
C1116 C 0.01284 0.60482 0.0157 0.0
C1117 C 0.0461 0.62961 0.05174 0.0
C1118 C 0.95806 0.62155 0.01139 0.0
C1119 C 0.95548 0.59886 0.9516 0.0
N1120 N 0.01867 0.62717 0.03696 0.0
N1121 N 0.9811 0.59454 0.96935 0.0
H1122 H 0.05109 0.34808 0.93243 0.0
H1123 H 0.95508 0.41321 0.07318 0.0
H1124 H 0.0807 0.43036 0.97981 0.0
H1125 H 0.91573 0.35808 0.00013 0.0
H1126 H 0.00179 0.42007 0.04151 0.0
H1127 H 0.00172 0.35099 0.95903 0.0
C1128 C 0.04695 0.36704 0.94819 0.0
C1129 C 0.06986 0.38908 0.95387 0.0
C1130 C 0.98268 0.4068 0.03244 0.0
C1131 C 0.01357 0.39221 0.9851 0.0
C1132 C 0.95609 0.40281 0.05049 0.0
C1133 C 0.93162 0.38459 0.03958 0.0
C1134 C 0.98473 0.3922 0.00353 0.0
C1135 C 0.93412 0.37185 0.00988 0.0
C1136 C 0.01876 0.36872 0.9634 0.0
C1137 C 0.06341 0.41311 0.97463 0.0
N1138 N 0.96024 0.37561 0.99315 0.0
N1139 N 0.03593 0.4138 0.98994 0.0
loop_
_geom_bond_atom_site_label_1
_geom_bond_atom_site_label_2
_geom_bond_distance
_geom_bond_site_symmetry_2
_ccdc_geom_bond_type
Co0 O2 2.143 . S
Co0 O8 2.074 . S
Co0 O11 2.093 . S
Co0 O24 2.097 . S
Co0 N41 2.151 . S
Co0 N49 2.214 . S
Co1 O2 2.160 . S
Co1 O7 2.058 . S
Co1 O17 2.057 . S
Co1 O32 2.037 . S
Co1 N36 2.145 . S
Co1 N57 2.257 . S
O2 Co0 2.143 . S
O2 Co1 2.160 . S
C3 O4 1.278 . S
C3 O11 1.224 . S
O4 C3 1.278 . S
C5 O6 1.245 . S
C5 O17 1.232 . S
O6 C5 1.245 . S
O7 Co1 2.058 . S
O7 C33 1.269 . S
O8 Co0 2.074 . S
O8 C33 1.257 . S
H9 C34 0.930 . S
H10 C40 0.930 . S
O11 Co0 2.093 . S
O11 C3 1.224 . S
H12 C44 0.929 . S
H13 C46 0.930 . S
H14 C47 0.930 . S
H15 C45 0.929 . S
H16 C48 0.928 . S
O17 Co1 2.057 . S
O17 C5 1.232 . S
H18 C37 0.929 . S
H19 C38 0.929 . S
H20 C50 0.931 . S
H21 C42 0.929 . S
H22 C51 0.930 . S
H23 C43 0.931 . S
O24 Co0 2.097 . S
O24 C52 1.214 . S
H25 C53 0.929 . S
H26 C54 0.929 . S
H27 C55 0.930 . S
H28 C56 0.929 . S
H29 C58 0.930 . S
H30 C35 0.930 . S
H31 C39 0.930 . S
O32 Co1 2.037 . S
O32 C52 1.234 . S
C33 O7 1.269 . S
C33 O8 1.257 . S
C34 H9 0.930 . S
C34 C37 1.388 . S
C34 C39 1.418 . S
C35 H30 0.930 . S
C35 C38 1.404 . S
C35 C39 1.353 . S
N36 Co1 2.145 . S
N36 C37 1.397 . S
N36 C38 1.334 . S
C37 H18 0.929 . S
C37 C34 1.388 . S
C37 N36 1.397 . S
C38 H19 0.929 . S
C38 C35 1.404 . S
C38 N36 1.334 . S
C39 H31 0.930 . S
C39 C34 1.418 . S
C39 C35 1.353 . S
C40 H10 0.930 . S
C40 N41 1.330 . S
C40 C42 1.446 1_455 S
N41 Co0 2.151 . S
N41 C40 1.330 . S
N41 C45 1.418 . S
C42 H21 0.929 . S
C42 C40 1.446 1_655 S
C42 C43 1.332 . S
C43 H23 0.931 . S
C43 C42 1.332 . S
C43 C44 1.267 . S
C44 H12 0.929 . S
C44 C43 1.267 . S
C44 C45 1.251 1_655 S
C45 H15 0.929 . S
C45 N41 1.418 . S
C45 C44 1.251 1_455 S
C46 H13 0.930 . S
C46 C48 1.406 . S
C46 C51 1.261 . S
C47 H14 0.930 . S
C47 N49 1.325 . S
C47 C50 1.357 . S
C48 H16 0.928 . S
C48 C46 1.406 . S
C48 N49 1.261 . S
N49 Co0 2.214 . S
N49 C47 1.325 . S
N49 C48 1.261 . S
C50 H20 0.931 . S
C50 C47 1.357 . S
C50 C51 1.312 . S
C51 H22 0.930 . S
C51 C46 1.261 . S
C51 C50 1.312 . S
C52 O24 1.214 . S
C52 O32 1.234 . S
C53 H25 0.929 . S
C53 C56 1.391 . S
C53 C58 1.391 . S
C54 H26 0.929 . S
C54 C55 1.390 . S
C54 N57 1.391 . S
C55 H27 0.930 . S
C55 C54 1.390 . S
C55 C56 1.392 . S
C56 H28 0.929 . S
C56 C53 1.391 . S
C56 C55 1.392 . S
N57 Co1 2.257 . S
N57 C54 1.391 . S
N57 C58 1.388 . S
C58 H29 0.930 . S
C58 C53 1.391 . S
C58 N57 1.388 . S
Co59 O61 2.143 . S
Co59 O67 2.074 . S
Co59 O70 2.093 . S
Co59 O83 2.097 . S
Co59 N100 2.151 . S
Co59 N108 2.214 . S
Co60 O61 2.160 . S
Co60 O66 2.058 . S
Co60 O76 2.057 . S
Co60 O91 2.037 . S
Co60 N95 2.145 . S
Co60 N116 2.257 . S
O61 Co59 2.143 . S
O61 Co60 2.160 . S
C62 O63 1.278 . S
C62 O70 1.224 . S
O63 C62 1.278 . S
C64 O65 1.245 . S
C64 O76 1.232 . S
O65 C64 1.245 . S
O66 Co60 2.058 . S
O66 C92 1.269 . S
O67 Co59 2.074 . S
O67 C92 1.257 . S
H68 C93 0.930 . S
H69 C99 0.930 . S
O70 Co59 2.093 . S
O70 C62 1.224 . S
H71 C103 0.929 . S
H72 C105 0.930 . S
H73 C106 0.930 . S
H74 C104 0.929 . S
H75 C107 0.928 . S
O76 Co60 2.057 . S
O76 C64 1.232 . S
H77 C96 0.929 . S
H78 C97 0.929 . S
H79 C109 0.931 . S
H80 C101 0.929 . S
H81 C110 0.930 . S
H82 C102 0.931 . S
O83 Co59 2.097 . S
O83 C111 1.214 . S
H84 C112 0.929 . S
H85 C113 0.929 . S
H86 C114 0.930 . S
H87 C115 0.929 . S
H88 C117 0.930 . S
H89 C94 0.930 . S
H90 C98 0.930 . S
O91 Co60 2.037 . S
O91 C111 1.234 . S
C92 O66 1.269 . S
C92 O67 1.257 . S
C93 H68 0.930 . S
C93 C96 1.388 . S
C93 C98 1.418 . S
C94 H89 0.930 . S
C94 C97 1.404 . S
C94 C98 1.353 . S
N95 Co60 2.145 . S
N95 C96 1.397 . S
N95 C97 1.334 . S
C96 H77 0.929 . S
C96 C93 1.388 . S
C96 N95 1.397 . S
C97 H78 0.929 . S
C97 C94 1.404 . S
C97 N95 1.334 . S
C98 H90 0.930 . S
C98 C93 1.418 . S
C98 C94 1.353 . S
C99 H69 0.930 . S
C99 N100 1.330 . S
C99 C101 1.446 1_655 S
N100 Co59 2.151 . S
N100 C99 1.330 . S
N100 C104 1.418 . S
C101 H80 0.929 . S
C101 C99 1.446 1_455 S
C101 C102 1.332 . S
C102 H82 0.931 . S
C102 C101 1.332 . S
C102 C103 1.267 . S
C103 H71 0.929 . S
C103 C102 1.267 . S
C103 C104 1.251 1_455 S
C104 H74 0.929 . S
C104 N100 1.418 . S
C104 C103 1.251 1_655 S
C105 H72 0.930 . S
C105 C107 1.406 . S
C105 C110 1.261 . S
C106 H73 0.930 . S
C106 N108 1.325 . S
C106 C109 1.357 . S
C107 H75 0.928 . S
C107 C105 1.406 . S
C107 N108 1.261 . S
N108 Co59 2.214 . S
N108 C106 1.325 . S
N108 C107 1.261 . S
C109 H79 0.931 . S
C109 C106 1.357 . S
C109 C110 1.312 . S
C110 H81 0.930 . S
C110 C105 1.261 . S
C110 C109 1.312 . S
C111 O83 1.214 . S
C111 O91 1.234 . S
C112 H84 0.929 . S
C112 C115 1.391 . S
C112 C117 1.391 . S
C113 H85 0.929 . S
C113 C114 1.390 . S
C113 N116 1.391 . S
C114 H86 0.930 . S
C114 C113 1.390 . S
C114 C115 1.392 . S
C115 H87 0.929 . S
C115 C112 1.391 . S
C115 C114 1.392 . S
N116 Co60 2.257 . S
N116 C113 1.391 . S
N116 C117 1.388 . S
C117 H88 0.930 . S
C117 C112 1.391 . S
C117 N116 1.388 . S
Co118 O120 2.143 . S
Co118 O126 2.074 . S
Co118 O129 2.093 . S
Co118 O142 2.097 . S
Co118 N159 2.151 . S
Co118 N167 2.214 . S
Co119 O120 2.160 . S
Co119 O125 2.058 . S
Co119 O135 2.057 . S
Co119 O150 2.037 . S
Co119 N154 2.145 . S
Co119 N175 2.257 . S
O120 Co118 2.143 . S
O120 Co119 2.160 . S
C121 O122 1.278 . S
C121 O129 1.224 . S
O122 C121 1.278 . S
C123 O124 1.245 . S
C123 O135 1.232 . S
O124 C123 1.245 . S
O125 Co119 2.058 . S
O125 C151 1.269 . S
O126 Co118 2.074 . S
O126 C151 1.257 . S
H127 C152 0.930 . S
H128 C158 0.930 . S
O129 Co118 2.093 . S
O129 C121 1.224 . S
H130 C162 0.929 . S
H131 C164 0.930 . S
H132 C165 0.930 . S
H133 C163 0.929 . S
H134 C166 0.928 . S
O135 Co119 2.057 . S
O135 C123 1.232 . S
H136 C155 0.929 . S
H137 C156 0.929 . S
H138 C168 0.931 . S
H139 C160 0.929 . S
H140 C169 0.930 . S
H141 C161 0.931 . S
O142 Co118 2.097 . S
O142 C170 1.214 . S
H143 C171 0.929 . S
H144 C172 0.929 . S
H145 C173 0.930 . S
H146 C174 0.929 . S
H147 C176 0.930 . S
H148 C153 0.930 . S
H149 C157 0.930 . S
O150 Co119 2.037 . S
O150 C170 1.234 . S
C151 O125 1.269 . S
C151 O126 1.257 . S
C152 H127 0.930 . S
C152 C155 1.388 . S
C152 C157 1.418 . S
C153 H148 0.930 . S
C153 C156 1.404 . S
C153 C157 1.353 . S
N154 Co119 2.145 . S
N154 C155 1.397 . S
N154 C156 1.334 . S
C155 H136 0.929 . S
C155 C152 1.388 . S
C155 N154 1.397 . S
C156 H137 0.929 . S
C156 C153 1.404 . S
C156 N154 1.334 . S
C157 H149 0.930 . S
C157 C152 1.418 . S
C157 C153 1.353 . S
C158 H128 0.930 . S
C158 N159 1.330 . S
C158 C160 1.446 1_455 S
N159 Co118 2.151 . S
N159 C158 1.330 . S
N159 C163 1.418 . S
C160 H139 0.929 . S
C160 C158 1.446 1_655 S
C160 C161 1.332 . S
C161 H141 0.931 . S
C161 C160 1.332 . S
C161 C162 1.267 . S
C162 H130 0.929 . S
C162 C161 1.267 . S
C162 C163 1.251 1_655 S
C163 H133 0.929 . S
C163 N159 1.418 . S
C163 C162 1.251 1_455 S
C164 H131 0.930 . S
C164 C166 1.406 . S
C164 C169 1.261 . S
C165 H132 0.930 . S
C165 N167 1.325 . S
C165 C168 1.357 . S
C166 H134 0.928 . S
C166 C164 1.406 . S
C166 N167 1.261 . S
N167 Co118 2.214 . S
N167 C165 1.325 . S
N167 C166 1.261 . S
C168 H138 0.931 . S
C168 C165 1.357 . S
C168 C169 1.312 . S
C169 H140 0.930 . S
C169 C164 1.261 . S
C169 C168 1.312 . S
C170 O142 1.214 . S
C170 O150 1.234 . S
C171 H143 0.929 . S
C171 C174 1.391 . S
C171 C176 1.391 . S
C172 H144 0.929 . S
C172 C173 1.390 . S
C172 N175 1.391 . S
C173 H145 0.930 . S
C173 C172 1.390 . S
C173 C174 1.392 . S
C174 H146 0.929 . S
C174 C171 1.391 . S
C174 C173 1.392 . S
N175 Co119 2.257 . S
N175 C172 1.391 . S
N175 C176 1.388 . S
C176 H147 0.930 . S
C176 C171 1.391 . S
C176 N175 1.388 . S
Co177 O179 2.143 . S
Co177 O185 2.074 . S
Co177 O188 2.093 . S
Co177 O201 2.097 . S
Co177 N218 2.151 . S
Co177 N226 2.214 . S
Co178 O179 2.160 . S
Co178 O184 2.058 . S
Co178 O194 2.057 . S
Co178 O209 2.037 . S
Co178 N213 2.145 . S
Co178 N234 2.257 . S
O179 Co177 2.143 . S
O179 Co178 2.160 . S
C180 O181 1.278 . S
C180 O188 1.224 . S
O181 C180 1.278 . S
C182 O183 1.245 . S
C182 O194 1.232 . S
O183 C182 1.245 . S
O184 Co178 2.058 . S
O184 C210 1.269 . S
O185 Co177 2.074 . S
O185 C210 1.257 . S
H186 C211 0.930 . S
H187 C217 0.930 . S
O188 Co177 2.093 . S
O188 C180 1.224 . S
H189 C221 0.929 . S
H190 C223 0.930 . S
H191 C224 0.930 . S
H192 C222 0.929 . S
H193 C225 0.928 . S
O194 Co178 2.057 . S
O194 C182 1.232 . S
H195 C214 0.929 . S
H196 C215 0.929 . S
H197 C227 0.931 . S
H198 C219 0.929 . S
H199 C228 0.930 . S
H200 C220 0.931 . S
O201 Co177 2.097 . S
O201 C229 1.214 . S
H202 C230 0.929 . S
H203 C231 0.929 . S
H204 C232 0.930 . S
H205 C233 0.929 . S
H206 C235 0.930 . S
H207 C212 0.930 . S
H208 C216 0.930 . S
O209 Co178 2.037 . S
O209 C229 1.234 . S
C210 O184 1.269 . S
C210 O185 1.257 . S
C211 H186 0.930 . S
C211 C214 1.388 . S
C211 C216 1.418 . S
C212 H207 0.930 . S
C212 C215 1.404 . S
C212 C216 1.353 . S
N213 Co178 2.145 . S
N213 C214 1.397 . S
N213 C215 1.334 . S
C214 H195 0.929 . S
C214 C211 1.388 . S
C214 N213 1.397 . S
C215 H196 0.929 . S
C215 C212 1.404 . S
C215 N213 1.334 . S
C216 H208 0.930 . S
C216 C211 1.418 . S
C216 C212 1.353 . S
C217 H187 0.930 . S
C217 N218 1.330 . S
C217 C219 1.446 1_655 S
N218 Co177 2.151 . S
N218 C217 1.330 . S
N218 C222 1.418 . S
C219 H198 0.929 . S
C219 C217 1.446 1_455 S
C219 C220 1.332 . S
C220 H200 0.931 . S
C220 C219 1.332 . S
C220 C221 1.267 . S
C221 H189 0.929 . S
C221 C220 1.267 . S
C221 C222 1.251 1_455 S
C222 H192 0.929 . S
C222 N218 1.418 . S
C222 C221 1.251 1_655 S
C223 H190 0.930 . S
C223 C225 1.406 . S
C223 C228 1.261 . S
C224 H191 0.930 . S
C224 N226 1.325 . S
C224 C227 1.357 . S
C225 H193 0.928 . S
C225 C223 1.406 . S
C225 N226 1.261 . S
N226 Co177 2.214 . S
N226 C224 1.325 . S
N226 C225 1.261 . S
C227 H197 0.931 . S
C227 C224 1.357 . S
C227 C228 1.312 . S
C228 H199 0.930 . S
C228 C223 1.261 . S
C228 C227 1.312 . S
C229 O201 1.214 . S
C229 O209 1.234 . S
C230 H202 0.929 . S
C230 C233 1.391 . S
C230 C235 1.391 . S
C231 H203 0.929 . S
C231 C232 1.390 . S
C231 N234 1.391 . S
C232 H204 0.930 . S
C232 C231 1.390 . S
C232 C233 1.392 . S
C233 H205 0.929 . S
C233 C230 1.391 . S
C233 C232 1.392 . S
N234 Co178 2.257 . S
N234 C231 1.391 . S
N234 C235 1.388 . S
C235 H206 0.930 . S
C235 C230 1.391 . S
C235 N234 1.388 . S
Co236 O238 2.143 . S
Co236 O244 2.074 . S
Co236 O247 2.093 . S
Co236 O260 2.097 . S
Co236 N277 2.151 . S
Co236 N285 2.214 . S
Co237 O238 2.160 . S
Co237 O243 2.058 . S
Co237 O253 2.057 . S
Co237 O268 2.037 . S
Co237 N272 2.145 . S
Co237 N293 2.257 . S
O238 Co236 2.143 . S
O238 Co237 2.160 . S
C239 O240 1.278 . S
C239 O247 1.224 . S
O240 C239 1.278 . S
C241 O242 1.245 . S
C241 O253 1.232 . S
O242 C241 1.245 . S
O243 Co237 2.058 . S
O243 C269 1.269 . S
O244 Co236 2.074 . S
O244 C269 1.257 . S
H245 C270 0.930 . S
H246 C276 0.930 . S
O247 Co236 2.093 . S
O247 C239 1.224 . S
H248 C280 0.929 . S
H249 C282 0.930 . S
H250 C283 0.930 . S
H251 C281 0.929 . S
H252 C284 0.928 . S
O253 Co237 2.057 . S
O253 C241 1.232 . S
H254 C273 0.929 . S
H255 C274 0.929 . S
H256 C286 0.931 . S
H257 C278 0.929 . S
H258 C287 0.930 . S
H259 C279 0.931 . S
O260 Co236 2.097 . S
O260 C288 1.214 . S
H261 C289 0.929 . S
H262 C290 0.929 . S
H263 C291 0.930 . S
H264 C292 0.929 . S
H265 C294 0.930 . S
H266 C271 0.930 . S
H267 C275 0.930 . S
O268 Co237 2.037 . S
O268 C288 1.234 . S
C269 O243 1.269 . S
C269 O244 1.257 . S
C270 H245 0.930 . S
C270 C273 1.388 . S
C270 C275 1.418 . S
C271 H266 0.930 . S
C271 C274 1.404 . S
C271 C275 1.353 . S
N272 Co237 2.145 . S
N272 C273 1.397 . S
N272 C274 1.334 . S
C273 H254 0.929 . S
C273 C270 1.388 . S
C273 N272 1.397 . S
C274 H255 0.929 . S
C274 C271 1.404 . S
C274 N272 1.334 . S
C275 H267 0.930 . S
C275 C270 1.418 . S
C275 C271 1.353 . S
C276 H246 0.930 . S
C276 N277 1.330 . S
C276 C278 1.446 1_545 S
N277 Co236 2.151 . S
N277 C276 1.330 . S
N277 C281 1.418 . S
C278 H257 0.929 . S
C278 C276 1.446 1_565 S
C278 C279 1.332 . S
C279 H259 0.931 . S
C279 C278 1.332 . S
C279 C280 1.267 . S
C280 H248 0.929 . S
C280 C279 1.267 . S
C280 C281 1.251 1_565 S
C281 H251 0.929 . S
C281 N277 1.418 . S
C281 C280 1.251 1_545 S
C282 H249 0.930 . S
C282 C284 1.406 . S
C282 C287 1.261 . S
C283 H250 0.930 . S
C283 N285 1.325 . S
C283 C286 1.357 . S
C284 H252 0.928 . S
C284 C282 1.406 . S
C284 N285 1.261 . S
N285 Co236 2.214 . S
N285 C283 1.325 . S
N285 C284 1.261 . S
C286 H256 0.931 . S
C286 C283 1.357 . S
C286 C287 1.312 . S
C287 H258 0.930 . S
C287 C282 1.261 . S
C287 C286 1.312 . S
C288 O260 1.214 . S
C288 O268 1.234 . S
C289 H261 0.929 . S
C289 C292 1.391 . S
C289 C294 1.391 . S
C290 H262 0.929 . S
C290 C291 1.390 . S
C290 N293 1.391 . S
C291 H263 0.930 . S
C291 C290 1.390 . S
C291 C292 1.392 . S
C292 H264 0.929 . S
C292 C289 1.391 . S
C292 C291 1.392 . S
N293 Co237 2.257 . S
N293 C290 1.391 . S
N293 C294 1.388 . S
C294 H265 0.930 . S
C294 C289 1.391 . S
C294 N293 1.388 . S
Co295 O297 2.143 . S
Co295 O303 2.074 . S
Co295 O306 2.093 . S
Co295 O319 2.097 . S
Co295 N336 2.151 . S
Co295 N344 2.214 . S
Co296 O297 2.160 . S
Co296 O302 2.058 . S
Co296 O312 2.057 . S
Co296 O327 2.037 . S
Co296 N331 2.145 . S
Co296 N352 2.257 . S
O297 Co295 2.143 . S
O297 Co296 2.160 . S
C298 O299 1.278 . S
C298 O306 1.224 . S
O299 C298 1.278 . S
C300 O301 1.245 . S
C300 O312 1.232 . S
O301 C300 1.245 . S
O302 Co296 2.058 . S
O302 C328 1.269 . S
O303 Co295 2.074 . S
O303 C328 1.257 . S
H304 C329 0.930 . S
H305 C335 0.930 . S
O306 Co295 2.093 . S
O306 C298 1.224 . S
H307 C339 0.929 . S
H308 C341 0.930 . S
H309 C342 0.930 . S
H310 C340 0.929 . S
H311 C343 0.928 . S
O312 Co296 2.057 . S
O312 C300 1.232 . S
H313 C332 0.929 . S
H314 C333 0.929 . S
H315 C345 0.931 . S
H316 C337 0.929 . S
H317 C346 0.930 . S
H318 C338 0.931 . S
O319 Co295 2.097 . S
O319 C347 1.214 . S
H320 C348 0.929 . S
H321 C349 0.929 . S
H322 C350 0.930 . S
H323 C351 0.929 . S
H324 C353 0.930 . S
H325 C330 0.930 . S
H326 C334 0.930 . S
O327 Co296 2.037 . S
O327 C347 1.234 . S
C328 O302 1.269 . S
C328 O303 1.257 . S
C329 H304 0.930 . S
C329 C332 1.388 . S
C329 C334 1.418 . S
C330 H325 0.930 . S
C330 C333 1.404 . S
C330 C334 1.353 . S
N331 Co296 2.145 . S
N331 C332 1.397 . S
N331 C333 1.334 . S
C332 H313 0.929 . S
C332 C329 1.388 . S
C332 N331 1.397 . S
C333 H314 0.929 . S
C333 C330 1.404 . S
C333 N331 1.334 . S
C334 H326 0.930 . S
C334 C329 1.418 . S
C334 C330 1.353 . S
C335 H305 0.930 . S
C335 N336 1.330 . S
C335 C337 1.446 1_565 S
N336 Co295 2.151 . S
N336 C335 1.330 . S
N336 C340 1.418 . S
C337 H316 0.929 . S
C337 C335 1.446 1_545 S
C337 C338 1.332 . S
C338 H318 0.931 . S
C338 C337 1.332 . S
C338 C339 1.267 . S
C339 H307 0.929 . S
C339 C338 1.267 . S
C339 C340 1.251 1_545 S
C340 H310 0.929 . S
C340 N336 1.418 . S
C340 C339 1.251 1_565 S
C341 H308 0.930 . S
C341 C343 1.406 . S
C341 C346 1.261 . S
C342 H309 0.930 . S
C342 N344 1.325 . S
C342 C345 1.357 . S
C343 H311 0.928 . S
C343 C341 1.406 . S
C343 N344 1.261 . S
N344 Co295 2.214 . S
N344 C342 1.325 . S
N344 C343 1.261 . S
C345 H315 0.931 . S
C345 C342 1.357 . S
C345 C346 1.312 . S
C346 H317 0.930 . S
C346 C341 1.261 . S
C346 C345 1.312 . S
C347 O319 1.214 . S
C347 O327 1.234 . S
C348 H320 0.929 . S
C348 C351 1.391 . S
C348 C353 1.391 . S
C349 H321 0.929 . S
C349 C350 1.390 . S
C349 N352 1.391 . S
C350 H322 0.930 . S
C350 C349 1.390 . S
C350 C351 1.392 . S
C351 H323 0.929 . S
C351 C348 1.391 . S
C351 C350 1.392 . S
N352 Co296 2.257 . S
N352 C349 1.391 . S
N352 C353 1.388 . S
C353 H324 0.930 . S
C353 C348 1.391 . S
C353 N352 1.388 . S
Co354 O356 2.143 . S
Co354 O362 2.074 . S
Co354 O365 2.093 . S
Co354 O378 2.097 . S
Co354 N395 2.151 . S
Co354 N403 2.214 . S
Co355 O356 2.160 . S
Co355 O361 2.058 . S
Co355 O371 2.057 . S
Co355 O386 2.037 . S
Co355 N390 2.145 . S
Co355 N411 2.257 . S
O356 Co354 2.143 . S
O356 Co355 2.160 . S
C357 O358 1.278 . S
C357 O365 1.224 . S
O358 C357 1.278 . S
C359 O360 1.245 . S
C359 O371 1.232 . S
O360 C359 1.245 . S
O361 Co355 2.058 . S
O361 C387 1.269 . S
O362 Co354 2.074 . S
O362 C387 1.257 . S
H363 C388 0.930 . S
H364 C394 0.930 . S
O365 Co354 2.093 . S
O365 C357 1.224 . S
H366 C398 0.929 . S
H367 C400 0.930 . S
H368 C401 0.930 . S
H369 C399 0.929 . S
H370 C402 0.928 . S
O371 Co355 2.057 . S
O371 C359 1.232 . S
H372 C391 0.929 . S
H373 C392 0.929 . S
H374 C404 0.931 . S
H375 C396 0.929 . S
H376 C405 0.930 . S
H377 C397 0.931 . S
O378 Co354 2.097 . S
O378 C406 1.214 . S
H379 C407 0.929 . S
H380 C408 0.929 . S
H381 C409 0.930 . S
H382 C410 0.929 . S
H383 C412 0.930 . S
H384 C389 0.930 . S
H385 C393 0.930 . S
O386 Co355 2.037 . S
O386 C406 1.234 . S
C387 O361 1.269 . S
C387 O362 1.257 . S
C388 H363 0.930 . S
C388 C391 1.388 . S
C388 C393 1.418 . S
C389 H384 0.930 . S
C389 C392 1.404 . S
C389 C393 1.353 . S
N390 Co355 2.145 . S
N390 C391 1.397 . S
N390 C392 1.334 . S
C391 H372 0.929 . S
C391 C388 1.388 . S
C391 N390 1.397 . S
C392 H373 0.929 . S
C392 C389 1.404 . S
C392 N390 1.334 . S
C393 H385 0.930 . S
C393 C388 1.418 . S
C393 C389 1.353 . S
C394 H364 0.930 . S
C394 N395 1.330 . S
C394 C396 1.446 1_565 S
N395 Co354 2.151 . S
N395 C394 1.330 . S
N395 C399 1.418 . S
C396 H375 0.929 . S
C396 C394 1.446 1_545 S
C396 C397 1.332 . S
C397 H377 0.931 . S
C397 C396 1.332 . S
C397 C398 1.267 . S
C398 H366 0.929 . S
C398 C397 1.267 . S
C398 C399 1.251 1_545 S
C399 H369 0.929 . S
C399 N395 1.418 . S
C399 C398 1.251 1_565 S
C400 H367 0.930 . S
C400 C402 1.406 . S
C400 C405 1.261 . S
C401 H368 0.930 . S
C401 N403 1.325 . S
C401 C404 1.357 . S
C402 H370 0.928 . S
C402 C400 1.406 . S
C402 N403 1.261 . S
N403 Co354 2.214 . S
N403 C401 1.325 . S
N403 C402 1.261 . S
C404 H374 0.931 . S
C404 C401 1.357 . S
C404 C405 1.312 . S
C405 H376 0.930 . S
C405 C400 1.261 . S
C405 C404 1.312 . S
C406 O378 1.214 . S
C406 O386 1.234 . S
C407 H379 0.929 . S
C407 C410 1.391 . S
C407 C412 1.391 . S
C408 H380 0.929 . S
C408 C409 1.390 . S
C408 N411 1.391 . S
C409 H381 0.930 . S
C409 C408 1.390 . S
C409 C410 1.392 . S
C410 H382 0.929 . S
C410 C407 1.391 . S
C410 C409 1.392 . S
N411 Co355 2.257 . S
N411 C408 1.391 . S
N411 C412 1.388 . S
C412 H383 0.930 . S
C412 C407 1.391 . S
C412 N411 1.388 . S
Co413 O415 2.143 . S
Co413 O421 2.074 . S
Co413 O424 2.093 . S
Co413 O437 2.097 . S
Co413 N454 2.151 . S
Co413 N462 2.214 . S
Co414 O415 2.160 . S
Co414 O420 2.058 . S
Co414 O430 2.057 . S
Co414 O445 2.037 . S
Co414 N449 2.145 . S
Co414 N470 2.257 . S
O415 Co413 2.143 . S
O415 Co414 2.160 . S
C416 O417 1.278 . S
C416 O424 1.224 . S
O417 C416 1.278 . S
C418 O419 1.245 . S
C418 O430 1.232 . S
O419 C418 1.245 . S
O420 Co414 2.058 . S
O420 C446 1.269 . S
O421 Co413 2.074 . S
O421 C446 1.257 . S
H422 C447 0.930 . S
H423 C453 0.930 . S
O424 Co413 2.093 . S
O424 C416 1.224 . S
H425 C457 0.929 . S
H426 C459 0.930 . S
H427 C460 0.930 . S
H428 C458 0.929 . S
H429 C461 0.928 . S
O430 Co414 2.057 . S
O430 C418 1.232 . S
H431 C450 0.929 . S
H432 C451 0.929 . S
H433 C463 0.931 . S
H434 C455 0.929 . S
H435 C464 0.930 . S
H436 C456 0.931 . S
O437 Co413 2.097 . S
O437 C465 1.214 . S
H438 C466 0.929 . S
H439 C467 0.929 . S
H440 C468 0.930 . S
H441 C469 0.929 . S
H442 C471 0.930 . S
H443 C448 0.930 . S
H444 C452 0.930 . S
O445 Co414 2.037 . S
O445 C465 1.234 . S
C446 O420 1.269 . S
C446 O421 1.257 . S
C447 H422 0.930 . S
C447 C450 1.388 . S
C447 C452 1.418 . S
C448 H443 0.930 . S
C448 C451 1.404 . S
C448 C452 1.353 . S
N449 Co414 2.145 . S
N449 C450 1.397 . S
N449 C451 1.334 . S
C450 H431 0.929 . S
C450 C447 1.388 . S
C450 N449 1.397 . S
C451 H432 0.929 . S
C451 C448 1.404 . S
C451 N449 1.334 . S
C452 H444 0.930 . S
C452 C447 1.418 . S
C452 C448 1.353 . S
C453 H423 0.930 . S
C453 N454 1.330 . S
C453 C455 1.446 1_545 S
N454 Co413 2.151 . S
N454 C453 1.330 . S
N454 C458 1.418 . S
C455 H434 0.929 . S
C455 C453 1.446 1_565 S
C455 C456 1.332 . S
C456 H436 0.931 . S
C456 C455 1.332 . S
C456 C457 1.267 . S
C457 H425 0.929 . S
C457 C456 1.267 . S
C457 C458 1.251 1_565 S
C458 H428 0.929 . S
C458 N454 1.418 . S
C458 C457 1.251 1_545 S
C459 H426 0.930 . S
C459 C461 1.406 . S
C459 C464 1.261 . S
C460 H427 0.930 . S
C460 N462 1.325 . S
C460 C463 1.357 . S
C461 H429 0.928 . S
C461 C459 1.406 . S
C461 N462 1.261 . S
N462 Co413 2.214 . S
N462 C460 1.325 . S
N462 C461 1.261 . S
C463 H433 0.931 . S
C463 C460 1.357 . S
C463 C464 1.312 . S
C464 H435 0.930 . S
C464 C459 1.261 . S
C464 C463 1.312 . S
C465 O437 1.214 . S
C465 O445 1.234 . S
C466 H438 0.929 . S
C466 C469 1.391 . S
C466 C471 1.391 . S
C467 H439 0.929 . S
C467 C468 1.390 . S
C467 N470 1.391 . S
C468 H440 0.930 . S
C468 C467 1.390 . S
C468 C469 1.392 . S
C469 H441 0.929 . S
C469 C466 1.391 . S
C469 C468 1.392 . S
N470 Co414 2.257 . S
N470 C467 1.391 . S
N470 C471 1.388 . S
C471 H442 0.930 . S
C471 C466 1.391 . S
C471 N470 1.388 . S
Co472 O474 2.143 . S
Co472 O480 2.074 . S
Co472 O483 2.093 . S
Co472 O496 2.097 . S
Co472 N513 2.151 . S
Co472 N521 2.214 . S
Co473 O474 2.160 . S
Co473 O479 2.058 . S
Co473 O489 2.057 . S
Co473 O504 2.037 . S
Co473 N508 2.145 . S
Co473 N529 2.257 . S
O474 Co472 2.143 . S
O474 Co473 2.160 . S
C475 O476 1.278 . S
C475 O483 1.224 . S
O476 C475 1.278 . S
C477 O478 1.245 . S
C477 O489 1.232 . S
O478 C477 1.245 . S
O479 Co473 2.058 . S
O479 C505 1.269 . S
O480 Co472 2.074 . S
O480 C505 1.257 . S
H481 C506 0.930 . S
H482 C512 0.930 . S
O483 Co472 2.093 . S
O483 C475 1.224 . S
H484 C516 0.929 . S
H485 C518 0.930 . S
H486 C519 0.930 . S
H487 C517 0.929 . S
H488 C520 0.928 . S
O489 Co473 2.057 . S
O489 C477 1.232 . S
H490 C509 0.929 . S
H491 C510 0.929 . S
H492 C522 0.931 . S
H493 C514 0.929 . S
H494 C523 0.930 . S
H495 C515 0.931 . S
O496 Co472 2.097 . S
O496 C524 1.214 . S
H497 C525 0.929 . S
H498 C526 0.929 . S
H499 C527 0.930 . S
H500 C528 0.929 . S
H501 C530 0.930 . S
H502 C507 0.930 . S
H503 C511 0.930 . S
O504 Co473 2.037 . S
O504 C524 1.234 . S
C505 O479 1.269 . S
C505 O480 1.257 . S
C506 H481 0.930 . S
C506 C509 1.388 . S
C506 C511 1.418 . S
C507 H502 0.930 . S
C507 C510 1.404 . S
C507 C511 1.353 . S
N508 Co473 2.145 . S
N508 C509 1.397 . S
N508 C510 1.334 . S
C509 H490 0.929 . S
C509 C506 1.388 . S
C509 N508 1.397 . S
C510 H491 0.929 . S
C510 C507 1.404 . S
C510 N508 1.334 . S
C511 H503 0.930 . S
C511 C506 1.418 . S
C511 C507 1.353 . S
C512 H482 0.930 . S
C512 N513 1.330 . S
C512 C514 1.446 1_554 S
N513 Co472 2.151 . S
N513 C512 1.330 . S
N513 C517 1.418 . S
C514 H493 0.929 . S
C514 C512 1.446 1_556 S
C514 C515 1.332 . S
C515 H495 0.931 . S
C515 C514 1.332 . S
C515 C516 1.267 . S
C516 H484 0.929 . S
C516 C515 1.267 . S
C516 C517 1.251 1_556 S
C517 H487 0.929 . S
C517 N513 1.418 . S
C517 C516 1.251 1_554 S
C518 H485 0.930 . S
C518 C520 1.406 . S
C518 C523 1.261 . S
C519 H486 0.930 . S
C519 N521 1.325 . S
C519 C522 1.357 . S
C520 H488 0.928 . S
C520 C518 1.406 . S
C520 N521 1.261 . S
N521 Co472 2.214 . S
N521 C519 1.325 . S
N521 C520 1.261 . S
C522 H492 0.931 . S
C522 C519 1.357 . S
C522 C523 1.312 . S
C523 H494 0.930 . S
C523 C518 1.261 . S
C523 C522 1.312 . S
C524 O496 1.214 . S
C524 O504 1.234 . S
C525 H497 0.929 . S
C525 C528 1.391 . S
C525 C530 1.391 . S
C526 H498 0.929 . S
C526 C527 1.390 . S
C526 N529 1.391 . S
C527 H499 0.930 . S
C527 C526 1.390 . S
C527 C528 1.392 . S
C528 H500 0.929 . S
C528 C525 1.391 . S
C528 C527 1.392 . S
N529 Co473 2.257 . S
N529 C526 1.391 . S
N529 C530 1.388 . S
C530 H501 0.930 . S
C530 C525 1.391 . S
C530 N529 1.388 . S
Co531 O533 2.143 . S
Co531 O539 2.074 . S
Co531 O542 2.093 . S
Co531 O555 2.097 . S
Co531 N572 2.151 . S
Co531 N580 2.214 . S
Co532 O533 2.160 . S
Co532 O538 2.058 . S
Co532 O548 2.057 . S
Co532 O563 2.037 . S
Co532 N567 2.145 . S
Co532 N588 2.257 . S
O533 Co531 2.143 . S
O533 Co532 2.160 . S
C534 O535 1.278 . S
C534 O542 1.224 . S
O535 C534 1.278 . S
C536 O537 1.245 . S
C536 O548 1.232 . S
O537 C536 1.245 . S
O538 Co532 2.058 . S
O538 C564 1.269 . S
O539 Co531 2.074 . S
O539 C564 1.257 . S
H540 C565 0.930 . S
H541 C571 0.930 . S
O542 Co531 2.093 . S
O542 C534 1.224 . S
H543 C575 0.929 . S
H544 C577 0.930 . S
H545 C578 0.930 . S
H546 C576 0.929 . S
H547 C579 0.928 . S
O548 Co532 2.057 . S
O548 C536 1.232 . S
H549 C568 0.929 . S
H550 C569 0.929 . S
H551 C581 0.931 . S
H552 C573 0.929 . S
H553 C582 0.930 . S
H554 C574 0.931 . S
O555 Co531 2.097 . S
O555 C583 1.214 . S
H556 C584 0.929 . S
H557 C585 0.929 . S
H558 C586 0.930 . S
H559 C587 0.929 . S
H560 C589 0.930 . S
H561 C566 0.930 . S
H562 C570 0.930 . S
O563 Co532 2.037 . S
O563 C583 1.234 . S
C564 O538 1.269 . S
C564 O539 1.257 . S
C565 H540 0.930 . S
C565 C568 1.388 . S
C565 C570 1.418 . S
C566 H561 0.930 . S
C566 C569 1.404 . S
C566 C570 1.353 . S
N567 Co532 2.145 . S
N567 C568 1.397 . S
N567 C569 1.334 . S
C568 H549 0.929 . S
C568 C565 1.388 . S
C568 N567 1.397 . S
C569 H550 0.929 . S
C569 C566 1.404 . S
C569 N567 1.334 . S
C570 H562 0.930 . S
C570 C565 1.418 . S
C570 C566 1.353 . S
C571 H541 0.930 . S
C571 N572 1.330 . S
C571 C573 1.446 1_556 S
N572 Co531 2.151 . S
N572 C571 1.330 . S
N572 C576 1.418 . S
C573 H552 0.929 . S
C573 C571 1.446 1_554 S
C573 C574 1.332 . S
C574 H554 0.931 . S
C574 C573 1.332 . S
C574 C575 1.267 . S
C575 H543 0.929 . S
C575 C574 1.267 . S
C575 C576 1.251 1_554 S
C576 H546 0.929 . S
C576 N572 1.418 . S
C576 C575 1.251 1_556 S
C577 H544 0.930 . S
C577 C579 1.406 . S
C577 C582 1.261 . S
C578 H545 0.930 . S
C578 N580 1.325 . S
C578 C581 1.357 . S
C579 H547 0.928 . S
C579 C577 1.406 . S
C579 N580 1.261 . S
N580 Co531 2.214 . S
N580 C578 1.325 . S
N580 C579 1.261 . S
C581 H551 0.931 . S
C581 C578 1.357 . S
C581 C582 1.312 . S
C582 H553 0.930 . S
C582 C577 1.261 . S
C582 C581 1.312 . S
C583 O555 1.214 . S
C583 O563 1.234 . S
C584 H556 0.929 . S
C584 C587 1.391 . S
C584 C589 1.391 . S
C585 H557 0.929 . S
C585 C586 1.390 . S
C585 N588 1.391 . S
C586 H558 0.930 . S
C586 C585 1.390 . S
C586 C587 1.392 . S
C587 H559 0.929 . S
C587 C584 1.391 . S
C587 C586 1.392 . S
N588 Co532 2.257 . S
N588 C585 1.391 . S
N588 C589 1.388 . S
C589 H560 0.930 . S
C589 C584 1.391 . S
C589 N588 1.388 . S
Co590 O592 2.143 . S
Co590 O598 2.074 . S
Co590 O601 2.093 . S
Co590 O614 2.097 . S
Co590 N631 2.151 . S
Co590 N639 2.214 . S
Co591 O592 2.160 . S
Co591 O597 2.058 . S
Co591 O607 2.057 . S
Co591 O622 2.037 . S
Co591 N626 2.145 . S
Co591 N647 2.257 . S
O592 Co590 2.143 . S
O592 Co591 2.160 . S
C593 O594 1.278 . S
C593 O601 1.224 . S
O594 C593 1.278 . S
C595 O596 1.245 . S
C595 O607 1.232 . S
O596 C595 1.245 . S
O597 Co591 2.058 . S
O597 C623 1.269 . S
O598 Co590 2.074 . S
O598 C623 1.257 . S
H599 C624 0.930 . S
H600 C630 0.930 . S
O601 Co590 2.093 . S
O601 C593 1.224 . S
H602 C634 0.929 . S
H603 C636 0.930 . S
H604 C637 0.930 . S
H605 C635 0.929 . S
H606 C638 0.928 . S
O607 Co591 2.057 . S
O607 C595 1.232 . S
H608 C627 0.929 . S
H609 C628 0.929 . S
H610 C640 0.931 . S
H611 C632 0.929 . S
H612 C641 0.930 . S
H613 C633 0.931 . S
O614 Co590 2.097 . S
O614 C642 1.214 . S
H615 C643 0.929 . S
H616 C644 0.929 . S
H617 C645 0.930 . S
H618 C646 0.929 . S
H619 C648 0.930 . S
H620 C625 0.930 . S
H621 C629 0.930 . S
O622 Co591 2.037 . S
O622 C642 1.234 . S
C623 O597 1.269 . S
C623 O598 1.257 . S
C624 H599 0.930 . S
C624 C627 1.388 . S
C624 C629 1.418 . S
C625 H620 0.930 . S
C625 C628 1.404 . S
C625 C629 1.353 . S
N626 Co591 2.145 . S
N626 C627 1.397 . S
N626 C628 1.334 . S
C627 H608 0.929 . S
C627 C624 1.388 . S
C627 N626 1.397 . S
C628 H609 0.929 . S
C628 C625 1.404 . S
C628 N626 1.334 . S
C629 H621 0.930 . S
C629 C624 1.418 . S
C629 C625 1.353 . S
C630 H600 0.930 . S
C630 N631 1.330 . S
C630 C632 1.446 1_556 S
N631 Co590 2.151 . S
N631 C630 1.330 . S
N631 C635 1.418 . S
C632 H611 0.929 . S
C632 C630 1.446 1_554 S
C632 C633 1.332 . S
C633 H613 0.931 . S
C633 C632 1.332 . S
C633 C634 1.267 . S
C634 H602 0.929 . S
C634 C633 1.267 . S
C634 C635 1.251 1_554 S
C635 H605 0.929 . S
C635 N631 1.418 . S
C635 C634 1.251 1_556 S
C636 H603 0.930 . S
C636 C638 1.406 . S
C636 C641 1.261 . S
C637 H604 0.930 . S
C637 N639 1.325 . S
C637 C640 1.357 . S
C638 H606 0.928 . S
C638 C636 1.406 . S
C638 N639 1.261 . S
N639 Co590 2.214 . S
N639 C637 1.325 . S
N639 C638 1.261 . S
C640 H610 0.931 . S
C640 C637 1.357 . S
C640 C641 1.312 . S
C641 H612 0.930 . S
C641 C636 1.261 . S
C641 C640 1.312 . S
C642 O614 1.214 . S
C642 O622 1.234 . S
C643 H615 0.929 . S
C643 C646 1.391 . S
C643 C648 1.391 . S
C644 H616 0.929 . S
C644 C645 1.390 . S
C644 N647 1.391 . S
C645 H617 0.930 . S
C645 C644 1.390 . S
C645 C646 1.392 . S
C646 H618 0.929 . S
C646 C643 1.391 . S
C646 C645 1.392 . S
N647 Co591 2.257 . S
N647 C644 1.391 . S
N647 C648 1.388 . S
C648 H619 0.930 . S
C648 C643 1.391 . S
C648 N647 1.388 . S
Co649 O651 2.143 . S
Co649 O657 2.074 . S
Co649 O660 2.093 . S
Co649 O673 2.097 . S
Co649 N690 2.151 . S
Co649 N698 2.214 . S
Co650 O651 2.160 . S
Co650 O656 2.058 . S
Co650 O666 2.057 . S
Co650 O681 2.037 . S
Co650 N685 2.145 . S
Co650 N706 2.257 . S
O651 Co649 2.143 . S
O651 Co650 2.160 . S
C652 O653 1.278 . S
C652 O660 1.224 . S
O653 C652 1.278 . S
C654 O655 1.245 . S
C654 O666 1.232 . S
O655 C654 1.245 . S
O656 Co650 2.058 . S
O656 C682 1.269 . S
O657 Co649 2.074 . S
O657 C682 1.257 . S
H658 C683 0.930 . S
H659 C689 0.930 . S
O660 Co649 2.093 . S
O660 C652 1.224 . S
H661 C693 0.929 . S
H662 C695 0.930 . S
H663 C696 0.930 . S
H664 C694 0.929 . S
H665 C697 0.928 . S
O666 Co650 2.057 . S
O666 C654 1.232 . S
H667 C686 0.929 . S
H668 C687 0.929 . S
H669 C699 0.931 . S
H670 C691 0.929 . S
H671 C700 0.930 . S
H672 C692 0.931 . S
O673 Co649 2.097 . S
O673 C701 1.214 . S
H674 C702 0.929 . S
H675 C703 0.929 . S
H676 C704 0.930 . S
H677 C705 0.929 . S
H678 C707 0.930 . S
H679 C684 0.930 . S
H680 C688 0.930 . S
O681 Co650 2.037 . S
O681 C701 1.234 . S
C682 O656 1.269 . S
C682 O657 1.257 . S
C683 H658 0.930 . S
C683 C686 1.388 . S
C683 C688 1.418 . S
C684 H679 0.930 . S
C684 C687 1.404 . S
C684 C688 1.353 . S
N685 Co650 2.145 . S
N685 C686 1.397 . S
N685 C687 1.334 . S
C686 H667 0.929 . S
C686 C683 1.388 . S
C686 N685 1.397 . S
C687 H668 0.929 . S
C687 C684 1.404 . S
C687 N685 1.334 . S
C688 H680 0.930 . S
C688 C683 1.418 . S
C688 C684 1.353 . S
C689 H659 0.930 . S
C689 N690 1.330 . S
C689 C691 1.446 1_554 S
N690 Co649 2.151 . S
N690 C689 1.330 . S
N690 C694 1.418 . S
C691 H670 0.929 . S
C691 C689 1.446 1_556 S
C691 C692 1.332 . S
C692 H672 0.931 . S
C692 C691 1.332 . S
C692 C693 1.267 . S
C693 H661 0.929 . S
C693 C692 1.267 . S
C693 C694 1.251 1_556 S
C694 H664 0.929 . S
C694 N690 1.418 . S
C694 C693 1.251 1_554 S
C695 H662 0.930 . S
C695 C697 1.406 . S
C695 C700 1.261 . S
C696 H663 0.930 . S
C696 N698 1.325 . S
C696 C699 1.357 . S
C697 H665 0.928 . S
C697 C695 1.406 . S
C697 N698 1.261 . S
N698 Co649 2.214 . S
N698 C696 1.325 . S
N698 C697 1.261 . S
C699 H669 0.931 . S
C699 C696 1.357 . S
C699 C700 1.312 . S
C700 H671 0.930 . S
C700 C695 1.261 . S
C700 C699 1.312 . S
C701 O673 1.214 . S
C701 O681 1.234 . S
C702 H674 0.929 . S
C702 C705 1.391 . S
C702 C707 1.391 . S
C703 H675 0.929 . S
C703 C704 1.390 . S
C703 N706 1.391 . S
C704 H676 0.930 . S
C704 C703 1.390 . S
C704 C705 1.392 . S
C705 H677 0.929 . S
C705 C702 1.391 . S
C705 C704 1.392 . S
N706 Co650 2.257 . S
N706 C703 1.391 . S
N706 C707 1.388 . S
C707 H678 0.930 . S
C707 C702 1.391 . S
C707 N706 1.388 . S
H708 C714 0.930 . S
H709 C718 0.930 . S
H710 C723 0.929 . S
H711 C721 0.929 . S
H712 C716 0.929 . S
H713 C722 0.929 . S
C714 H708 0.930 . S
C714 C715 1.367 . S
C714 C722 1.378 1_655 S
C715 C714 1.367 . S
C715 C723 1.433 . S
C716 H712 0.929 . S
C716 C718 1.378 1_655 S
C716 C720 1.350 1_655 S
C717 C720 1.463 1_655 S
C717 C722 1.350 1_655 S
C717 N725 1.427 . S
C718 H709 0.930 . S
C718 C716 1.378 1_455 S
C718 C719 1.367 . S
C719 C718 1.367 . S
C719 C721 1.433 . S
C720 C716 1.350 1_455 S
C720 C717 1.463 1_455 S
C720 N724 1.427 . S
C721 H711 0.929 . S
C721 C719 1.433 . S
C721 N724 1.384 . S
C722 H713 0.929 . S
C722 C714 1.378 1_455 S
C722 C717 1.350 1_455 S
C723 H710 0.929 . S
C723 C715 1.433 . S
C723 N725 1.384 . S
N724 C720 1.427 . S
N724 C721 1.384 . S
N725 C717 1.427 . S
N725 C723 1.384 . S
H726 C732 0.930 . S
H727 C736 0.930 . S
H728 C741 0.929 . S
H729 C739 0.929 . S
H730 C734 0.929 . S
H731 C740 0.929 . S
C732 H726 0.930 . S
C732 C733 1.367 . S
C732 C740 1.378 . S
C733 C732 1.367 . S
C733 C741 1.433 . S
C734 H730 0.929 . S
C734 C736 1.378 . S
C734 C738 1.350 . S
C735 C738 1.463 1_455 S
C735 C740 1.350 . S
C735 N743 1.436 . S
C736 H727 0.930 . S
C736 C734 1.378 . S
C736 C737 1.367 . S
C737 C736 1.367 . S
C737 C739 1.433 . S
C738 C734 1.350 . S
C738 C735 1.463 1_655 S
C738 N742 1.436 . S
C739 H729 0.929 . S
C739 C737 1.433 . S
C739 N742 1.400 . S
C740 H731 0.929 . S
C740 C732 1.378 . S
C740 C735 1.350 . S
C741 H728 0.929 . S
C741 C733 1.433 . S
C741 N743 1.400 . S
N742 C738 1.436 . S
N742 C739 1.400 . S
N743 C735 1.436 . S
N743 C741 1.400 . S
H744 C750 0.930 . S
H745 C754 0.930 . S
H746 C759 0.929 . S
H747 C757 0.929 . S
H748 C752 0.929 . S
H749 C758 0.929 . S
C750 H744 0.930 . S
C750 C751 1.367 . S
C750 C758 1.378 . S
C751 C750 1.367 . S
C751 C759 1.433 . S
C752 H748 0.929 . S
C752 C754 1.378 . S
C752 C756 1.350 . S
C753 C756 1.463 1_565 S
C753 C758 1.350 . S
C753 N761 1.427 . S
C754 H745 0.930 . S
C754 C752 1.378 . S
C754 C755 1.367 . S
C755 C754 1.367 . S
C755 C757 1.433 . S
C756 C752 1.350 . S
C756 C753 1.463 1_545 S
C756 N760 1.427 . S
C757 H747 0.929 . S
C757 C755 1.433 . S
C757 N760 1.384 . S
C758 H749 0.929 . S
C758 C750 1.378 . S
C758 C753 1.350 . S
C759 H746 0.929 . S
C759 C751 1.433 . S
C759 N761 1.384 . S
N760 C756 1.427 . S
N760 C757 1.384 . S
N761 C753 1.427 . S
N761 C759 1.384 . S
H762 C768 0.930 . S
H763 C772 0.930 . S
H764 C777 0.929 . S
H765 C775 0.929 . S
H766 C770 0.929 . S
H767 C776 0.929 . S
C768 H762 0.930 . S
C768 C769 1.367 . S
C768 C776 1.378 1_565 S
C769 C768 1.367 . S
C769 C777 1.433 . S
C770 H766 0.929 . S
C770 C772 1.378 1_565 S
C770 C774 1.350 1_565 S
C771 C774 1.463 1_565 S
C771 C776 1.350 1_565 S
C771 N779 1.427 . S
C772 H763 0.930 . S
C772 C770 1.378 1_545 S
C772 C773 1.367 . S
C773 C772 1.367 . S
C773 C775 1.433 . S
C774 C770 1.350 1_545 S
C774 C771 1.463 1_545 S
C774 N778 1.427 . S
C775 H765 0.929 . S
C775 C773 1.433 . S
C775 N778 1.384 . S
C776 H767 0.929 . S
C776 C768 1.378 1_545 S
C776 C771 1.350 1_545 S
C777 H764 0.929 . S
C777 C769 1.433 . S
C777 N779 1.384 . S
N778 C774 1.427 . S
N778 C775 1.384 . S
N779 C771 1.427 . S
N779 C777 1.384 . S
H780 C786 0.930 . S
H781 C790 0.930 . S
H782 C795 0.929 . S
H783 C793 0.929 . S
H784 C788 0.929 . S
H785 C794 0.929 . S
C786 H780 0.930 . S
C786 C787 1.367 . S
C786 C794 1.378 . S
C787 C786 1.367 . S
C787 C795 1.433 . S
C788 H784 0.929 . S
C788 C790 1.378 . S
C788 C792 1.350 . S
C789 C792 1.463 1_556 S
C789 C794 1.350 . S
C789 N797 1.427 1_556 S
C790 H781 0.930 . S
C790 C788 1.378 . S
C790 C791 1.367 . S
C791 C790 1.367 . S
C791 C793 1.433 . S
C792 C788 1.350 . S
C792 C789 1.463 1_554 S
C792 N796 1.427 1_554 S
C793 H783 0.929 . S
C793 C791 1.433 . S
C793 N796 1.384 1_554 S
C794 H785 0.929 . S
C794 C786 1.378 . S
C794 C789 1.350 . S
C795 H782 0.929 . S
C795 C787 1.433 . S
C795 N797 1.384 1_556 S
N796 C792 1.427 1_556 S
N796 C793 1.384 1_556 S
N797 C789 1.427 1_554 S
N797 C795 1.384 1_554 S
H798 C804 0.930 . S
H799 C808 0.930 . S
H800 C813 0.929 . S
H801 C811 0.929 . S
H802 C806 0.929 . S
H803 C812 0.929 . S
C804 H798 0.930 . S
C804 C805 1.367 . S
C804 C812 1.378 1_556 S
C805 C804 1.367 . S
C805 C813 1.433 . S
C806 H802 0.929 . S
C806 C808 1.378 1_556 S
C806 C810 1.350 1_556 S
C807 C810 1.463 1_556 S
C807 C812 1.350 1_556 S
C807 N815 1.427 . S
C808 H799 0.930 . S
C808 C806 1.378 1_554 S
C808 C809 1.367 . S
C809 C808 1.367 . S
C809 C811 1.433 . S
C810 C806 1.350 1_554 S
C810 C807 1.463 1_554 S
C810 N814 1.427 . S
C811 H801 0.929 . S
C811 C809 1.433 . S
C811 N814 1.384 . S
C812 H803 0.929 . S
C812 C804 1.378 1_554 S
C812 C807 1.350 1_554 S
C813 H800 0.929 . S
C813 C805 1.433 . S
C813 N815 1.384 . S
N814 C810 1.427 . S
N814 C811 1.384 . S
N815 C807 1.427 . S
N815 C813 1.384 . S
H816 C822 0.930 . S
H817 C826 0.930 . S
H818 C831 0.929 . S
H819 C829 0.929 . S
H820 C824 0.929 . S
H821 C830 0.929 . S
C822 H816 0.930 . S
C822 C823 1.367 . S
C822 C830 1.378 . S
C823 C822 1.367 . S
C823 C831 1.433 . S
C824 H820 0.929 . S
C824 C826 1.378 . S
C824 C828 1.350 . S
C825 C828 1.463 . S
C825 C830 1.350 . S
C825 N833 1.427 . S
C826 H817 0.930 . S
C826 C824 1.378 . S
C826 C827 1.367 . S
C827 C826 1.367 . S
C827 C829 1.433 . S
C828 C824 1.350 . S
C828 C825 1.463 . S
C828 N832 1.427 . S
C829 H819 0.929 . S
C829 C827 1.433 . S
C829 N832 1.384 . S
C830 H821 0.929 . S
C830 C822 1.378 . S
C830 C825 1.350 . S
C831 H818 0.929 . S
C831 C823 1.433 . S
C831 N833 1.384 . S
N832 C828 1.427 . S
N832 C829 1.384 . S
N833 C825 1.427 . S
N833 C831 1.384 . S
H834 C840 0.930 . S
H835 C844 0.930 . S
H836 C849 0.929 . S
H837 C847 0.929 . S
H838 C842 0.929 . S
H839 C848 0.929 . S
C840 H834 0.930 . S
C840 C841 1.367 . S
C840 C848 1.378 . S
C841 C840 1.367 . S
C841 C849 1.433 . S
C842 H838 0.929 . S
C842 C844 1.378 . S
C842 C846 1.350 . S
C843 C846 1.463 . S
C843 C848 1.350 . S
C843 N851 1.427 . S
C844 H835 0.930 . S
C844 C842 1.378 . S
C844 C845 1.367 . S
C845 C844 1.367 . S
C845 C847 1.433 . S
C846 C842 1.350 . S
C846 C843 1.463 . S
C846 N850 1.427 . S
C847 H837 0.929 . S
C847 C845 1.433 . S
C847 N850 1.384 . S
C848 H839 0.929 . S
C848 C840 1.378 . S
C848 C843 1.350 . S
C849 H836 0.929 . S
C849 C841 1.433 . S
C849 N851 1.384 . S
N850 C846 1.427 . S
N850 C847 1.384 . S
N851 C843 1.427 . S
N851 C849 1.384 . S
H852 C858 0.930 . S
H853 C862 0.930 . S
H854 C867 0.929 . S
H855 C865 0.929 . S
H856 C860 0.929 . S
H857 C866 0.929 . S
C858 H852 0.930 . S
C858 C859 1.367 . S
C858 C866 1.378 . S
C859 C858 1.367 . S
C859 C867 1.433 . S
C860 H856 0.929 . S
C860 C862 1.378 . S
C860 C864 1.350 . S
C861 C864 1.463 . S
C861 C866 1.350 . S
C861 N869 1.427 . S
C862 H853 0.930 . S
C862 C860 1.378 . S
C862 C863 1.367 . S
C863 C862 1.367 . S
C863 C865 1.433 . S
C864 C860 1.350 . S
C864 C861 1.463 . S
C864 N868 1.427 . S
C865 H855 0.929 . S
C865 C863 1.433 . S
C865 N868 1.384 . S
C866 H857 0.929 . S
C866 C858 1.378 . S
C866 C861 1.350 . S
C867 H854 0.929 . S
C867 C859 1.433 . S
C867 N869 1.384 . S
N868 C864 1.427 . S
N868 C865 1.384 . S
N869 C861 1.427 . S
N869 C867 1.384 . S
H870 C876 0.930 . S
H871 C880 0.930 . S
H872 C885 0.929 . S
H873 C883 0.929 . S
H874 C878 0.929 . S
H875 C884 0.929 . S
C876 H870 0.930 . S
C876 C877 1.367 . S
C876 C884 1.378 . S
C877 C876 1.367 . S
C877 C885 1.433 . S
C878 H874 0.929 . S
C878 C880 1.378 . S
C878 C882 1.350 . S
C879 C882 1.463 . S
C879 C884 1.350 . S
C879 N887 1.427 . S
C880 H871 0.930 . S
C880 C878 1.378 . S
C880 C881 1.367 . S
C881 C880 1.367 . S
C881 C883 1.433 . S
C882 C878 1.350 . S
C882 C879 1.463 . S
C882 N886 1.427 . S
C883 H873 0.929 . S
C883 C881 1.433 . S
C883 N886 1.384 . S
C884 H875 0.929 . S
C884 C876 1.378 . S
C884 C879 1.350 . S
C885 H872 0.929 . S
C885 C877 1.433 . S
C885 N887 1.384 . S
N886 C882 1.427 . S
N886 C883 1.384 . S
N887 C879 1.427 . S
N887 C885 1.384 . S
H888 C894 0.930 . S
H889 C898 0.930 . S
H890 C903 0.929 . S
H891 C901 0.929 . S
H892 C896 0.929 . S
H893 C902 0.929 . S
C894 H888 0.930 . S
C894 C895 1.367 . S
C894 C902 1.378 . S
C895 C894 1.367 . S
C895 C903 1.433 . S
C896 H892 0.929 . S
C896 C898 1.378 . S
C896 C900 1.350 . S
C897 C900 1.463 . S
C897 C902 1.350 . S
C897 N905 1.427 . S
C898 H889 0.930 . S
C898 C896 1.378 . S
C898 C899 1.367 . S
C899 C898 1.367 . S
C899 C901 1.433 . S
C900 C896 1.350 . S
C900 C897 1.463 . S
C900 N904 1.427 . S
C901 H891 0.929 . S
C901 C899 1.433 . S
C901 N904 1.384 . S
C902 H893 0.929 . S
C902 C894 1.378 . S
C902 C897 1.350 . S
C903 H890 0.929 . S
C903 C895 1.433 . S
C903 N905 1.384 . S
N904 C900 1.427 . S
N904 C901 1.384 . S
N905 C897 1.427 . S
N905 C903 1.384 . S
H906 C912 0.930 . S
H907 C916 0.930 . S
H908 C921 0.929 . S
H909 C919 0.929 . S
H910 C914 0.929 . S
H911 C920 0.929 . S
C912 H906 0.930 . S
C912 C913 1.367 . S
C912 C920 1.378 . S
C913 C912 1.367 . S
C913 C921 1.433 . S
C914 H910 0.929 . S
C914 C916 1.378 . S
C914 C918 1.350 . S
C915 C918 1.463 . S
C915 C920 1.350 . S
C915 N923 1.427 . S
C916 H907 0.930 . S
C916 C914 1.378 . S
C916 C917 1.367 . S
C917 C916 1.367 . S
C917 C919 1.433 . S
C918 C914 1.350 . S
C918 C915 1.463 . S
C918 N922 1.427 . S
C919 H909 0.929 . S
C919 C917 1.433 . S
C919 N922 1.384 . S
C920 H911 0.929 . S
C920 C912 1.378 . S
C920 C915 1.350 . S
C921 H908 0.929 . S
C921 C913 1.433 . S
C921 N923 1.384 . S
N922 C918 1.427 . S
N922 C919 1.384 . S
N923 C915 1.427 . S
N923 C921 1.384 . S
H924 C930 0.930 . S
H925 C934 0.930 . S
H926 C939 0.929 . S
H927 C937 0.929 . S
H928 C932 0.929 . S
H929 C938 0.929 . S
C930 H924 0.930 . S
C930 C931 1.367 . S
C930 C938 1.378 . S
C931 C930 1.367 . S
C931 C939 1.433 . S
C932 H928 0.929 . S
C932 C934 1.378 . S
C932 C936 1.350 . S
C933 C936 1.463 . S
C933 C938 1.350 . S
C933 N941 1.427 . S
C934 H925 0.930 . S
C934 C932 1.378 . S
C934 C935 1.367 . S
C935 C934 1.367 . S
C935 C937 1.433 . S
C936 C932 1.350 . S
C936 C933 1.463 . S
C936 N940 1.427 . S
C937 H927 0.929 . S
C937 C935 1.433 . S
C937 N940 1.384 . S
C938 H929 0.929 . S
C938 C930 1.378 . S
C938 C933 1.350 . S
C939 H926 0.929 . S
C939 C931 1.433 . S
C939 N941 1.384 . S
N940 C936 1.427 . S
N940 C937 1.384 . S
N941 C933 1.427 . S
N941 C939 1.384 . S
H942 C948 0.930 . S
H943 C952 0.930 . S
H944 C957 0.929 . S
H945 C955 0.929 . S
H946 C950 0.929 . S
H947 C956 0.929 . S
C948 H942 0.930 . S
C948 C949 1.367 . S
C948 C956 1.378 . S
C949 C948 1.367 . S
C949 C957 1.433 . S
C950 H946 0.929 . S
C950 C952 1.378 . S
C950 C954 1.350 . S
C951 C954 1.463 . S
C951 C956 1.350 . S
C951 N959 1.427 . S
C952 H943 0.930 . S
C952 C950 1.378 . S
C952 C953 1.367 . S
C953 C952 1.367 . S
C953 C955 1.433 . S
C954 C950 1.350 . S
C954 C951 1.463 . S
C954 N958 1.427 . S
C955 H945 0.929 . S
C955 C953 1.433 . S
C955 N958 1.384 . S
C956 H947 0.929 . S
C956 C948 1.378 . S
C956 C951 1.350 . S
C957 H944 0.929 . S
C957 C949 1.433 . S
C957 N959 1.384 . S
N958 C954 1.427 . S
N958 C955 1.384 . S
N959 C951 1.427 . S
N959 C957 1.384 . S
H960 C966 0.930 . S
H961 C970 0.930 . S
H962 C975 0.929 . S
H963 C973 0.929 . S
H964 C968 0.929 . S
H965 C974 0.929 . S
C966 H960 0.930 . S
C966 C967 1.367 . S
C966 C974 1.378 . S
C967 C966 1.367 . S
C967 C975 1.433 . S
C968 H964 0.929 . S
C968 C970 1.378 . S
C968 C972 1.350 . S
C969 C972 1.463 . S
C969 C974 1.350 . S
C969 N977 1.427 . S
C970 H961 0.930 . S
C970 C968 1.378 . S
C970 C971 1.367 . S
C971 C970 1.367 . S
C971 C973 1.433 . S
C972 C968 1.350 . S
C972 C969 1.463 . S
C972 N976 1.427 . S
C973 H963 0.929 . S
C973 C971 1.433 . S
C973 N976 1.384 . S
C974 H965 0.929 . S
C974 C966 1.378 . S
C974 C969 1.350 . S
C975 H962 0.929 . S
C975 C967 1.433 . S
C975 N977 1.384 . S
N976 C972 1.427 . S
N976 C973 1.384 . S
N977 C969 1.427 . S
N977 C975 1.384 . S
H978 C984 0.930 . S
H979 C988 0.930 . S
H980 C993 0.929 . S
H981 C991 0.929 . S
H982 C986 0.929 . S
H983 C992 0.929 . S
C984 H978 0.930 . S
C984 C985 1.367 . S
C984 C992 1.378 . S
C985 C984 1.367 . S
C985 C993 1.433 . S
C986 H982 0.929 . S
C986 C988 1.378 . S
C986 C990 1.350 . S
C987 C990 1.463 . S
C987 C992 1.350 . S
C987 N995 1.427 . S
C988 H979 0.930 . S
C988 C986 1.378 . S
C988 C989 1.367 . S
C989 C988 1.367 . S
C989 C991 1.433 . S
C990 C986 1.350 . S
C990 C987 1.463 . S
C990 N994 1.427 . S
C991 H981 0.929 . S
C991 C989 1.433 . S
C991 N994 1.384 . S
C992 H983 0.929 . S
C992 C984 1.378 . S
C992 C987 1.350 . S
C993 H980 0.929 . S
C993 C985 1.433 . S
C993 N995 1.384 . S
N994 C990 1.427 . S
N994 C991 1.384 . S
N995 C987 1.427 . S
N995 C993 1.384 . S
H996 C1002 0.930 . S
H997 C1006 0.930 . S
H998 C1011 0.929 . S
H999 C1009 0.929 . S
H1000 C1004 0.929 . S
H1001 C1010 0.929 . S
C1002 H996 0.930 . S
C1002 C1003 1.367 . S
C1002 C1010 1.378 . S
C1003 C1002 1.367 . S
C1003 C1011 1.433 . S
C1004 H1000 0.929 . S
C1004 C1006 1.378 . S
C1004 C1008 1.350 . S
C1005 C1008 1.463 . S
C1005 C1010 1.350 . S
C1005 N1013 1.427 . S
C1006 H997 0.930 . S
C1006 C1004 1.378 . S
C1006 C1007 1.367 . S
C1007 C1006 1.367 . S
C1007 C1009 1.433 . S
C1008 C1004 1.350 . S
C1008 C1005 1.463 . S
C1008 N1012 1.427 . S
C1009 H999 0.929 . S
C1009 C1007 1.433 . S
C1009 N1012 1.384 . S
C1010 H1001 0.929 . S
C1010 C1002 1.378 . S
C1010 C1005 1.350 . S
C1011 H998 0.929 . S
C1011 C1003 1.433 . S
C1011 N1013 1.384 . S
N1012 C1008 1.427 . S
N1012 C1009 1.384 . S
N1013 C1005 1.427 . S
N1013 C1011 1.384 . S
H1014 C1020 0.930 . S
H1015 C1024 0.930 . S
H1016 C1029 0.929 . S
H1017 C1027 0.929 . S
H1018 C1022 0.929 . S
H1019 C1028 0.929 . S
C1020 H1014 0.930 . S
C1020 C1021 1.367 . S
C1020 C1028 1.378 . S
C1021 C1020 1.367 . S
C1021 C1029 1.433 . S
C1022 H1018 0.929 . S
C1022 C1024 1.378 . S
C1022 C1026 1.350 . S
C1023 C1026 1.463 . S
C1023 C1028 1.350 . S
C1023 N1031 1.427 . S
C1024 H1015 0.930 . S
C1024 C1022 1.378 . S
C1024 C1025 1.367 . S
C1025 C1024 1.367 . S
C1025 C1027 1.433 . S
C1026 C1022 1.350 . S
C1026 C1023 1.463 . S
C1026 N1030 1.427 . S
C1027 H1017 0.929 . S
C1027 C1025 1.433 . S
C1027 N1030 1.384 . S
C1028 H1019 0.929 . S
C1028 C1020 1.378 . S
C1028 C1023 1.350 . S
C1029 H1016 0.929 . S
C1029 C1021 1.433 . S
C1029 N1031 1.384 . S
N1030 C1026 1.427 . S
N1030 C1027 1.384 . S
N1031 C1023 1.427 . S
N1031 C1029 1.384 . S
H1032 C1038 0.930 . S
H1033 C1042 0.930 . S
H1034 C1047 0.929 . S
H1035 C1045 0.929 . S
H1036 C1040 0.929 1_455 S
H1037 C1046 0.929 1_655 S
C1038 H1032 0.930 . S
C1038 C1039 1.367 . S
C1038 C1046 1.378 . S
C1039 C1038 1.367 . S
C1039 C1047 1.433 . S
C1040 H1036 0.929 1_655 S
C1040 C1042 1.378 . S
C1040 C1044 1.350 . S
C1041 C1044 1.463 1_445 S
C1041 C1046 1.350 . S
C1041 N1049 1.427 . S
C1042 H1033 0.930 . S
C1042 C1040 1.378 . S
C1042 C1043 1.367 . S
C1043 C1042 1.367 . S
C1043 C1045 1.433 . S
C1044 C1040 1.350 . S
C1044 C1041 1.463 1_665 S
C1044 N1048 1.427 . S
C1045 H1035 0.929 . S
C1045 C1043 1.433 . S
C1045 N1048 1.384 . S
C1046 H1037 0.929 1_455 S
C1046 C1038 1.378 . S
C1046 C1041 1.350 . S
C1047 H1034 0.929 . S
C1047 C1039 1.433 . S
C1047 N1049 1.384 . S
N1048 C1044 1.427 . S
N1048 C1045 1.384 . S
N1049 C1041 1.427 . S
N1049 C1047 1.384 . S
H1050 C1056 0.930 . S
H1051 C1060 0.930 . S
H1052 C1065 0.929 . S
H1053 C1063 0.929 . S
H1054 C1058 0.929 . S
H1055 C1064 0.929 . S
C1056 H1050 0.930 . S
C1056 C1057 1.367 . S
C1056 C1064 1.378 . S
C1057 C1056 1.367 . S
C1057 C1065 1.433 . S
C1058 H1054 0.929 . S
C1058 C1060 1.378 . S
C1058 C1062 1.350 . S
C1059 C1062 1.463 1_645 S
C1059 C1064 1.350 . S
C1059 N1067 1.427 . S
C1060 H1051 0.930 . S
C1060 C1058 1.378 . S
C1060 C1061 1.367 . S
C1061 C1060 1.367 . S
C1061 C1063 1.433 . S
C1062 C1058 1.350 . S
C1062 C1059 1.463 1_465 S
C1062 N1066 1.427 . S
C1063 H1053 0.929 . S
C1063 C1061 1.433 . S
C1063 N1066 1.384 . S
C1064 H1055 0.929 . S
C1064 C1056 1.378 . S
C1064 C1059 1.350 . S
C1065 H1052 0.929 . S
C1065 C1057 1.433 . S
C1065 N1067 1.384 . S
N1066 C1062 1.427 . S
N1066 C1063 1.384 . S
N1067 C1059 1.427 . S
N1067 C1065 1.384 . S
H1068 C1074 0.930 . S
H1069 C1078 0.930 . S
H1070 C1083 0.929 . S
H1071 C1081 0.929 . S
H1072 C1076 0.929 . S
H1073 C1082 0.929 . S
C1074 H1068 0.930 . S
C1074 C1075 1.367 . S
C1074 C1082 1.378 . S
C1075 C1074 1.367 . S
C1075 C1083 1.433 . S
C1076 H1072 0.929 . S
C1076 C1078 1.378 . S
C1076 C1080 1.350 . S
C1077 C1080 1.463 1_566 S
C1077 C1082 1.350 . S
C1077 N1085 1.427 1_565 S
C1078 H1069 0.930 . S
C1078 C1076 1.378 . S
C1078 C1079 1.367 . S
C1079 C1078 1.367 . S
C1079 C1081 1.433 . S
C1080 C1076 1.350 . S
C1080 C1077 1.463 1_544 S
C1080 N1084 1.427 1_545 S
C1081 H1071 0.929 . S
C1081 C1079 1.433 . S
C1081 N1084 1.384 1_545 S
C1082 H1073 0.929 . S
C1082 C1074 1.378 . S
C1082 C1077 1.350 . S
C1083 H1070 0.929 . S
C1083 C1075 1.433 . S
C1083 N1085 1.384 1_565 S
N1084 C1080 1.427 1_565 S
N1084 C1081 1.384 1_565 S
N1085 C1077 1.427 1_545 S
N1085 C1083 1.384 1_545 S
H1086 C1092 0.930 . S
H1087 C1096 0.930 . S
H1088 C1101 0.929 . S
H1089 C1099 0.929 . S
H1090 C1094 0.922 1_554 S
H1091 C1100 0.922 1_556 S
C1092 H1086 0.930 . S
C1092 C1093 1.367 . S
C1092 C1100 1.378 . S
C1093 C1092 1.367 . S
C1093 C1101 1.433 . S
C1094 H1090 0.922 1_556 S
C1094 C1096 1.378 . S
C1094 C1098 1.350 . S
C1095 C1098 1.463 1_564 S
C1095 C1100 1.350 . S
C1095 N1103 1.427 1_565 S
C1096 H1087 0.930 . S
C1096 C1094 1.378 . S
C1096 C1097 1.367 . S
C1097 C1096 1.367 . S
C1097 C1099 1.433 . S
C1098 C1094 1.350 . S
C1098 C1095 1.463 1_546 S
C1098 N1102 1.427 1_545 S
C1099 H1089 0.929 . S
C1099 C1097 1.433 . S
C1099 N1102 1.384 1_545 S
C1100 H1091 0.922 1_554 S
C1100 C1092 1.378 . S
C1100 C1095 1.350 . S
C1101 H1088 0.929 . S
C1101 C1093 1.433 . S
C1101 N1103 1.384 1_565 S
N1102 C1098 1.427 1_565 S
N1102 C1099 1.384 1_565 S
N1103 C1095 1.427 1_545 S
N1103 C1101 1.384 1_545 S
H1104 C1110 0.930 . S
H1105 C1114 0.930 . S
H1106 C1119 0.929 . S
H1107 C1117 0.929 . S
H1108 C1112 0.929 1_556 S
H1109 C1118 0.929 1_554 S
C1110 H1104 0.930 . S
C1110 C1111 1.367 . S
C1110 C1118 1.378 . S
C1111 C1110 1.367 . S
C1111 C1119 1.433 . S
C1112 H1108 0.929 1_554 S
C1112 C1114 1.378 . S
C1112 C1116 1.350 . S
C1113 C1116 1.463 1_656 S
C1113 C1118 1.350 . S
C1113 N1121 1.427 . S
C1114 H1105 0.930 . S
C1114 C1112 1.378 . S
C1114 C1115 1.367 . S
C1115 C1114 1.367 . S
C1115 C1117 1.433 . S
C1116 C1112 1.350 . S
C1116 C1113 1.463 1_454 S
C1116 N1120 1.427 . S
C1117 H1107 0.929 . S
C1117 C1115 1.433 . S
C1117 N1120 1.384 . S
C1118 H1109 0.929 1_556 S
C1118 C1110 1.378 . S
C1118 C1113 1.350 . S
C1119 H1106 0.929 . S
C1119 C1111 1.433 . S
C1119 N1121 1.384 . S
N1120 C1116 1.427 . S
N1120 C1117 1.384 . S
N1121 C1113 1.427 . S
N1121 C1119 1.384 . S
H1122 C1128 0.930 . S
H1123 C1132 0.930 . S
H1124 C1137 0.929 . S
H1125 C1135 0.929 . S
H1126 C1130 0.929 1_556 S
H1127 C1136 0.929 1_554 S
C1128 H1122 0.930 . S
C1128 C1129 1.367 . S
C1128 C1136 1.378 . S
C1129 C1128 1.367 . S
C1129 C1137 1.433 . S
C1130 H1126 0.929 1_554 S
C1130 C1132 1.378 . S
C1130 C1134 1.350 . S
C1131 C1134 1.463 1_456 S
C1131 C1136 1.350 . S
C1131 N1139 1.427 . S
C1132 H1123 0.930 . S
C1132 C1130 1.378 . S
C1132 C1133 1.367 . S
C1133 C1132 1.367 . S
C1133 C1135 1.433 . S
C1134 C1130 1.350 . S
C1134 C1131 1.463 1_654 S
C1134 N1138 1.427 . S
C1135 H1125 0.929 . S
C1135 C1133 1.433 . S
C1135 N1138 1.384 . S
C1136 H1127 0.929 1_556 S
C1136 C1128 1.378 . S
C1136 C1131 1.350 . S
C1137 H1124 0.929 . S
C1137 C1129 1.433 . S
C1137 N1139 1.384 . S
N1138 C1134 1.427 . S
N1138 C1135 1.384 . S
N1139 C1131 1.427 . S
N1139 C1137 1.384 . S
C715 C182 0.963 . S
C719 C5 0.969 . S
C733 C123 0.978 . S
C737 C64 0.970 . S
C751 C300 0.962 . S
C755 C241 0.976 . S
C769 C359 0.967 . S
C773 C418 0.963 . S
C787 C536 0.975 . S
C791 C477 0.975 . S
C805 C595 0.965 . S
C809 C654 0.965 . S
C823 C52 1.195 . S
C827 C446 1.162 . S
C841 C387 1.162 . S
C845 C111 1.197 . S
C859 C328 1.159 . S
C863 C170 1.194 . S
C877 C269 1.145 . S
C881 C229 1.194 . S
C895 C288 1.194 . S
C899 C682 1.147 . S
C913 C505 1.146 . S
C917 C347 1.197 . S
C931 C623 1.153 . S
C935 C406 1.198 . S
C949 C465 1.198 . S
C953 C564 1.157 . S
C967 C151 1.163 . S
C971 C524 1.197 . S
C985 C33 1.148 . S
C989 C583 1.198 . S
C1003 C642 1.198 . S
C1007 C92 1.158 . S
C1021 C210 1.144 . S
C1025 C701 1.196 . S
C1039 C3 1.278 . S
C1043 C62 1.281 . S
C1057 C180 1.280 . S
C1061 C121 1.276 . S
C1075 C357 1.278 . S
C1079 C239 1.276 . S
C1093 C298 1.278 . S
C1097 C416 1.276 . S
C1111 C593 1.278 . S
C1115 C475 1.281 . S
C1129 C534 1.278 . S
C1133 C652 1.281 . S
