# Generated by pormake.
# Topology xbj, (5)-cn, num edge types: 1
# Building blocks:
#     Node 0, Type 0, BuildingBlock: BEQFEK_clean_sbu_0, # of connection points: 5
#     Node 1, Type 0, BuildingBlock: BEQFEK_clean_sbu_0, # of connection points: 5
#     Node 2, Type 0, BuildingBlock: BEQFEK_clean_sbu_0, # of connection points: 5
#     Node 3, Type 0, BuildingBlock: BEQFEK_clean_sbu_0, # of connection points: 5
#     Node 4, Type 0, BuildingBlock: BEQFEK_clean_sbu_0, # of connection points: 5
#     Node 5, Type 0, BuildingBlock: BEQFEK_clean_sbu_0, # of connection points: 5
#     Node 6, Type 0, BuildingBlock: BEQFEK_clean_sbu_0, # of connection points: 5
#     Node 7, Type 0, BuildingBlock: BEQFEK_clean_sbu_0, # of connection points: 5
#     Edge 8, Type (0, 0), BuildingBlock: XUDNAN_clean_linker_2, # of connection points: 2
#     Edge 9, Type (0, 0), BuildingBlock: XUDNAN_clean_linker_2, # of connection points: 2
#     Edge 10, Type (0, 0), BuildingBlock: XUDNAN_clean_linker_2, # of connection points: 2
#     Edge 11, Type (0, 0), BuildingBlock: XUDNAN_clean_linker_2, # of connection points: 2
#     Edge 12, Type (0, 0), BuildingBlock: XUDNAN_clean_linker_2, # of connection points: 2
#     Edge 13, Type (0, 0), BuildingBlock: XUDNAN_clean_linker_2, # of connection points: 2
#     Edge 14, Type (0, 0), BuildingBlock: XUDNAN_clean_linker_2, # of connection points: 2
#     Edge 15, Type (0, 0), BuildingBlock: XUDNAN_clean_linker_2, # of connection points: 2
#     Edge 16, Type (0, 0), BuildingBlock: XUDNAN_clean_linker_2, # of connection points: 2
#     Edge 17, Type (0, 0), BuildingBlock: XUDNAN_clean_linker_2, # of connection points: 2
#     Edge 18, Type (0, 0), BuildingBlock: XUDNAN_clean_linker_2, # of connection points: 2
#     Edge 19, Type (0, 0), BuildingBlock: XUDNAN_clean_linker_2, # of connection points: 2
#     Edge 20, Type (0, 0), BuildingBlock: XUDNAN_clean_linker_2, # of connection points: 2
#     Edge 21, Type (0, 0), BuildingBlock: XUDNAN_clean_linker_2, # of connection points: 2
#     Edge 22, Type (0, 0), BuildingBlock: XUDNAN_clean_linker_2, # of connection points: 2
#     Edge 23, Type (0, 0), BuildingBlock: XUDNAN_clean_linker_2, # of connection points: 2
#     Edge 24, Type (0, 0), BuildingBlock: XUDNAN_clean_linker_2, # of connection points: 2
#     Edge 25, Type (0, 0), BuildingBlock: XUDNAN_clean_linker_2, # of connection points: 2
#     Edge 26, Type (0, 0), BuildingBlock: XUDNAN_clean_linker_2, # of connection points: 2
#     Edge 27, Type (0, 0), BuildingBlock: XUDNAN_clean_linker_2, # of connection points: 2
# Relax obj value: 0.045
# Max RMSD: 0.114
# Mean RMSD: 0.111
data_MOF--net-xbj--node1-BEQFEK_clean_sbu_0--edge1-XUDNAN_clean_linker_2
_symmetry_space_group_name_H-M    P1
_symmetry_Int_Tables_number       1
_symmetry_cell_setting            triclinic
loop_
_symmetry_equiv_pos_as_xyz
'x, y, z'
_cell_length_a     19.621244
_cell_length_b     19.623834
_cell_length_c     110.34313
_cell_angle_alpha  91.228368
_cell_angle_beta   91.257229
_cell_angle_gamma 90.002477
loop_
_atom_site_label
_atom_site_type_symbol
_atom_site_fract_x
_atom_site_fract_y
_atom_site_fract_z
_atom_type_partial_charge
Co0 Co 0.23178 0.82312 0.04684 0.0
Co1 Co 0.07274 0.80601 0.04195 0.0
C2 C 0.14536 0.93872 0.03835 0.0
O3 O 0.20214 0.91426 0.04204 0.0
O4 O 0.09082 0.90302 0.0379 0.0
C5 C 0.37578 0.8578 0.04709 0.0
O6 O 0.35829 0.90038 0.03853 0.0
C7 C 0.92254 0.82001 0.04498 0.0
C8 C 0.88893 0.71723 0.03883 0.0
C9 C 0.86557 0.77828 0.04366 0.0
N10 N 0.97729 0.78479 0.04116 0.0
N11 N 0.9564 0.72386 0.03732 0.0
C12 C 0.92578 0.88956 0.05074 0.0
H13 H 0.97903 0.9027 0.05348 0.0
H14 H 0.89242 0.89225 0.05874 0.0
H15 H 0.9068 0.92726 0.04412 0.0
C16 C 0.19326 0.7742 0.07072 0.0
N17 N 0.17676 0.79114 0.05929 0.0
N18 N 0.11067 0.78351 0.05743 0.0
C19 C 0.0831 0.76044 0.06767 0.0
C20 C 0.13456 0.75386 0.07641 0.0
C21 C 0.26336 0.7818 0.07622 0.0
H22 H 0.28486 0.83187 0.07381 0.0
H23 H 0.26318 0.77828 0.08624 0.0
H24 H 0.29675 0.74137 0.07243 0.0
O25 O 0.22542 0.76421 0.03216 0.0
O26 O 0.11429 0.75025 0.0289 0.0
H27 H 0.9931 0.70898 0.06108 0.0
H28 H 1.00054 0.71423 0.07736 0.0
C29 C 0.00961 0.74187 0.06888 0.0
H30 H 0.97835 0.78892 0.06885 0.0
H31 H 0.98876 0.68574 0.03409 0.0
O32 O 0.32983 0.82258 0.05198 0.0
C33 C 0.1757 0.73961 0.02591 0.0
Co34 Co 0.59314 0.77335 0.29271 0.0
Co35 Co 0.61431 0.61406 0.29336 0.0
C36 C 0.51555 0.6749 0.27602 0.0
O37 O 0.52762 0.73533 0.28006 0.0
O38 O 0.54472 0.62328 0.28061 0.0
C39 C 0.57149 0.91768 0.28792 0.0
O40 O 0.57801 0.90077 0.27641 0.0
C41 C 0.59586 0.46417 0.29438 0.0
C42 C 0.69211 0.43464 0.30364 0.0
C43 C 0.63133 0.40881 0.29891 0.0
N44 N 0.634 0.52046 0.2964 0.0
N45 N 0.69184 0.50216 0.30177 0.0
C46 C 0.52532 0.46438 0.28898 0.0
H47 H 0.49811 0.51139 0.29185 0.0
H48 H 0.4963 0.41874 0.29165 0.0
H49 H 0.52867 0.46408 0.27896 0.0
C50 C 0.59099 0.75097 0.31934 0.0
N51 N 0.5894 0.7275 0.30775 0.0
N52 N 0.59035 0.66055 0.30772 0.0
C53 C 0.5887 0.63912 0.3192 0.0
C54 C 0.59089 0.69553 0.32703 0.0
C55 C 0.60237 0.8243 0.32284 0.0
H56 H 0.63524 0.84883 0.31615 0.0
H57 H 0.55254 0.85101 0.32286 0.0
H58 H 0.62681 0.82994 0.33197 0.0
O59 O 0.68495 0.76492 0.28586 0.0
O60 O 0.69889 0.65282 0.28706 0.0
H61 H 0.63636 0.54326 0.32276 0.0
H62 H 0.56235 0.56062 0.33169 0.0
C63 C 0.58458 0.56577 0.32259 0.0
H64 H 0.5526 0.5371 0.31583 0.0
H65 H 0.73044 0.5362 0.30446 0.0
O66 O 0.57451 0.87157 0.29583 0.0
C67 C 0.72065 0.71145 0.28427 0.0
Co68 Co 0.74317 0.29944 0.5472 0.0
Co69 Co 0.5853 0.27357 0.54902 0.0
C70 C 0.64073 0.3891 0.53484 0.0
O71 O 0.70249 0.37458 0.53764 0.0
O72 O 0.59093 0.35515 0.53888 0.0
C73 C 0.89128 0.34537 0.54967 0.0
O74 O 0.87656 0.40868 0.5527 0.0
C75 C 0.43445 0.28295 0.54988 0.0
C76 C 0.41114 0.18603 0.55877 0.0
C77 C 0.381 0.24249 0.55359 0.0
N78 N 0.49344 0.25177 0.55283 0.0
N79 N 0.47898 0.19415 0.5582 0.0
C80 C 0.43017 0.34526 0.54234 0.0
H81 H 0.45402 0.33417 0.53349 0.0
H82 H 0.4596 0.38709 0.54691 0.0
H83 H 0.37685 0.36183 0.54069 0.0
C84 C 0.73408 0.29485 0.57394 0.0
N85 N 0.70557 0.29252 0.56273 0.0
N86 N 0.63917 0.28526 0.56354 0.0
C87 C 0.62296 0.28607 0.57536 0.0
C88 C 0.68264 0.29119 0.58237 0.0
C89 C 0.80943 0.29552 0.57639 0.0
H90 H 0.83526 0.26272 0.5696 0.0
H91 H 0.82875 0.34834 0.5756 0.0
H92 H 0.82232 0.2768 0.58557 0.0
O93 O 0.72635 0.21622 0.53779 0.0
O94 O 0.61586 0.19535 0.53865 0.0
H95 H 0.53208 0.23563 0.58064 0.0
H96 H 0.54931 0.31424 0.58886 0.0
C97 C 0.55146 0.28838 0.57983 0.0
H98 H 0.51801 0.31609 0.57339 0.0
H99 H 0.5156 0.15925 0.56114 0.0
O100 O 0.84386 0.30228 0.54766 0.0
C101 C 0.67478 0.18016 0.53485 0.0
Co102 Co 0.08823 0.26828 0.79696 0.0
Co103 Co 0.09278 0.10842 0.79601 0.0
C104 C 0.96652 0.17907 0.78944 0.0
O105 O 0.99664 0.23629 0.79112 0.0
O106 O 0.99644 0.12282 0.79163 0.0
C107 C 0.05797 0.4115 0.79416 0.0
O108 O 0.03188 0.39303 0.78352 0.0
C109 C 0.07835 0.95831 0.79773 0.0
C110 C 0.18641 0.92991 0.80076 0.0
C111 C 0.12112 0.90349 0.79996 0.0
N112 N 0.11693 0.01484 0.79731 0.0
N113 N 0.18145 0.99724 0.79895 0.0
C114 C 0.00217 0.95829 0.797 0.0
H115 H 0.98217 0.99874 0.80314 0.0
H116 H 0.9808 0.90817 0.79943 0.0
H117 H 0.98542 0.97056 0.78762 0.0
C118 C 0.13479 0.24354 0.82225 0.0
N119 N 0.11731 0.22138 0.81096 0.0
N120 N 0.11579 0.15445 0.81072 0.0
C121 C 0.13039 0.13174 0.82191 0.0
C122 C 0.14359 0.18739 0.82959 0.0
C123 C 0.14392 0.31704 0.8258 0.0
H124 H 0.17057 0.34395 0.81855 0.0
H125 H 0.09307 0.34086 0.8269 0.0
H126 H 0.17372 0.32308 0.83442 0.0
O127 O 0.15041 0.25455 0.78326 0.0
O128 O 0.14459 0.14169 0.78216 0.0
H129 H 0.17243 0.03178 0.82348 0.0
H130 H 0.11433 0.05469 0.8353 0.0
C131 C 0.12422 0.05884 0.82549 0.0
H132 H 0.08196 0.03376 0.82028 0.0
H133 H 0.22196 0.03173 0.79922 0.0
O134 O 0.08345 0.36658 0.80102 0.0
C135 C 0.16431 0.19812 0.77798 0.0
Co136 Co 0.10815 0.30203 0.95072 0.0
Co137 Co 0.27035 0.29862 0.95093 0.0
C138 C 0.19667 0.42501 0.95742 0.0
O139 O 0.13927 0.3948 0.9561 0.0
O140 O 0.2525 0.39473 0.95511 0.0
C141 C 0.97579 0.35375 0.94354 0.0
O142 O 0.01155 0.40544 0.93976 0.0
C143 C 0.41978 0.32392 0.94897 0.0
C144 C 0.45804 0.21878 0.9465 0.0
C145 C 0.47903 0.28619 0.94713 0.0
N146 N 0.36643 0.28069 0.94916 0.0
N147 N 0.38997 0.21795 0.94779 0.0
C148 C 0.41405 0.39883 0.95154 0.0
H149 H 0.38038 0.40757 0.95935 0.0
H150 H 0.39059 0.42382 0.94355 0.0
H151 H 0.46431 0.4223 0.95375 0.0
C152 C 0.13021 0.25204 0.92548 0.0
N153 N 0.15371 0.27212 0.93656 0.0
N154 N 0.22084 0.27288 0.93657 0.0
C155 C 0.24206 0.25516 0.92541 0.0
C156 C 0.18547 0.24056 0.91805 0.0
C157 C 0.05635 0.24253 0.92223 0.0
H158 H 0.02924 0.22092 0.92998 0.0
H159 H 0.0335 0.29283 0.92019 0.0
H160 H 0.04946 0.20822 0.91417 0.0
O161 O 0.12808 0.24192 0.96443 0.0
O162 O 0.24129 0.24643 0.96512 0.0
H163 H 0.34141 0.2115 0.92402 0.0
H164 H 0.31787 0.26549 0.91161 0.0
C165 C 0.31462 0.25914 0.92155 0.0
H166 H 0.34061 0.30283 0.92619 0.0
H167 H 0.35937 0.17447 0.94764 0.0
O168 O 0.00685 0.30361 0.94825 0.0
C169 C 0.18498 0.22739 0.96948 0.0
Co170 Co 0.08297 0.6105 0.19645 0.0
Co171 Co 0.09584 0.7727 0.19753 0.0
C172 C 0.00953 0.69936 0.21467 0.0
O173 O 0.02742 0.64252 0.20998 0.0
O174 O 0.02804 0.75594 0.21033 0.0
C175 C 0.01775 0.4787 0.19793 0.0
O176 O 0.96992 0.51479 0.20319 0.0
C177 C 0.05876 0.91881 0.19579 0.0
C178 C 0.15987 0.96683 0.19429 0.0
C179 C 0.091 0.9821 0.19499 0.0
N180 N 0.10653 0.86952 0.19568 0.0
N181 N 0.1668 0.8987 0.19476 0.0
C182 C 0.98406 0.90394 0.19607 0.0
H183 H 0.97377 0.85124 0.19264 0.0
H184 H 0.95487 0.9408 0.19051 0.0
H185 H 0.96684 0.9078 0.20557 0.0
C186 C 0.05968 0.63751 0.17077 0.0
N187 N 0.06581 0.66028 0.1823 0.0
N188 N 0.07363 0.72696 0.18248 0.0
C189 C 0.07396 0.74855 0.17095 0.0
C190 C 0.06557 0.69235 0.16312 0.0
C191 C 0.05399 0.56364 0.16722 0.0
H192 H 0.01433 0.53929 0.17268 0.0
H193 H 0.04048 0.55667 0.15745 0.0
H194 H 0.10323 0.53794 0.16921 0.0
O195 O 0.17744 0.62512 0.20214 0.0
O196 O 0.18369 0.73797 0.20425 0.0
H197 H 0.14279 0.83299 0.17208 0.0
H198 H 0.09769 0.82514 0.15771 0.0
C199 C 0.09327 0.81945 0.16763 0.0
H200 H 0.05438 0.85563 0.17105 0.0
H201 H 0.21281 0.87211 0.19457 0.0
O202 O 0.06972 0.50932 0.19397 0.0
C203 C 0.20971 0.6789 0.20547 0.0
Co204 Co 0.56899 0.78879 0.44928 0.0
Co205 Co 0.7297 0.75996 0.44973 0.0
C206 C 0.66818 0.87959 0.46293 0.0
O207 O 0.60727 0.86626 0.45935 0.0
O208 O 0.71815 0.84305 0.45957 0.0
C209 C 0.43396 0.84722 0.45196 0.0
O210 O 0.46702 0.89189 0.4589 0.0
C211 C 0.8762 0.79199 0.44758 0.0
C212 C 0.92363 0.69007 0.4475 0.0
C213 C 0.93926 0.75903 0.44742 0.0
N214 N 0.82641 0.74482 0.44792 0.0
N215 N 0.85524 0.68395 0.44779 0.0
C216 C 0.86243 0.8667 0.44664 0.0
H217 H 0.81086 0.87532 0.44263 0.0
H218 H 0.90126 0.89132 0.44102 0.0
H219 H 0.86433 0.89058 0.45583 0.0
C220 C 0.59165 0.76918 0.42293 0.0
N221 N 0.61545 0.77582 0.43445 0.0
N222 N 0.68195 0.76637 0.43464 0.0
C223 C 0.70286 0.7557 0.42323 0.0
C224 C 0.64633 0.75614 0.41539 0.0
C225 C 0.51731 0.76732 0.41957 0.0
H226 H 0.4894 0.73765 0.42631 0.0
H227 H 0.49697 0.82008 0.41974 0.0
H228 H 0.50785 0.74398 0.41045 0.0
O229 O 0.58101 0.70787 0.45926 0.0
O230 O 0.6922 0.68553 0.45963 0.0
H231 H 0.79337 0.69504 0.42282 0.0
H232 H 0.78351 0.75129 0.41009 0.0
C233 C 0.77596 0.74614 0.41996 0.0
H234 H 0.80776 0.78497 0.42482 0.0
H235 H 0.82831 0.63826 0.44813 0.0
O236 O 0.46752 0.80023 0.44664 0.0
C237 C 0.63161 0.67246 0.46287 0.0
Co238 Co 0.57226 0.15211 0.70002 0.0
Co239 Co 0.58257 0.31356 0.70468 0.0
C240 C 0.45424 0.23453 0.70889 0.0
O241 O 0.48001 0.17882 0.70498 0.0
O242 O 0.48816 0.29004 0.70925 0.0
C243 C 0.5251 0.01807 0.69118 0.0
O244 O 0.47124 0.0512 0.68718 0.0
C245 C 0.55315 0.46336 0.70251 0.0
C246 C 0.6568 0.50581 0.70502 0.0
C247 C 0.59001 0.52431 0.7024 0.0
N248 N 0.59672 0.41158 0.70474 0.0
N249 N 0.65836 0.43781 0.70639 0.0
C250 C 0.47775 0.45432 0.70087 0.0
H251 H 0.45966 0.41269 0.70659 0.0
H252 H 0.46575 0.44041 0.69126 0.0
H253 H 0.45015 0.50176 0.70335 0.0
C254 C 0.62244 0.19225 0.67607 0.0
N255 N 0.60262 0.20756 0.68742 0.0
N256 N 0.60428 0.27422 0.68916 0.0
C257 C 0.62375 0.3034 0.67884 0.0
C258 C 0.63671 0.25251 0.67024 0.0
C259 C 0.62967 0.12104 0.67115 0.0
H260 H 0.65029 0.08756 0.67832 0.0
H261 H 0.57864 0.10149 0.66827 0.0
H262 H 0.66384 0.11904 0.66327 0.0
O263 O 0.6305 0.16438 0.71451 0.0
O264 O 0.64251 0.27586 0.71781 0.0
H265 H 0.66811 0.40205 0.6818 0.0
H266 H 0.62577 0.39114 0.66718 0.0
C267 C 0.62368 0.37869 0.67692 0.0
H268 H 0.57645 0.40113 0.68057 0.0
H269 H 0.70195 0.40896 0.70816 0.0
O270 O 0.5739 0.05146 0.69625 0.0
C271 C 0.65432 0.21442 0.72076 0.0
H272 H 0.04796 0.80123 0.09377 0.0
H273 H 0.20914 0.65477 0.08725 0.0
H274 H 0.20556 0.62 0.10864 0.0
H275 H 0.10339 0.85468 0.12312 0.0
H276 H 0.01928 0.86259 0.12924 0.0
H277 H 0.03157 0.87344 0.11327 0.0
H278 H 0.94222 0.77915 0.10825 0.0
H279 H 0.92925 0.76835 0.12422 0.0
H280 H 0.95245 0.69626 0.11479 0.0
H281 H 0.19029 0.60707 0.13077 0.0
H282 H 0.16148 0.61331 0.15241 0.0
H283 H 0.00621 0.7644 0.14463 0.0
C284 C 0.08156 0.76106 0.09684 0.0
C285 C 0.12887 0.73046 0.08896 0.0
C286 C 0.17291 0.67887 0.09325 0.0
C287 C 0.17103 0.65872 0.10533 0.0
C288 C 0.12442 0.69043 0.11294 0.0
C289 C 0.08009 0.74012 0.10888 0.0
C290 C 0.03634 0.76731 0.11905 0.0
C291 C 0.0484 0.84405 0.1213 0.0
C292 C 0.96057 0.75182 0.11642 0.0
C293 C 0.06388 0.72595 0.1295 0.0
C294 C 0.11455 0.68185 0.12574 0.0
C295 C 0.14994 0.6405 0.1338 0.0
C296 C 0.13303 0.64417 0.14604 0.0
C297 C 0.08093 0.68846 0.15008 0.0
C298 C 0.04587 0.72976 0.1417 0.0
H299 H 0.57537 0.81763 0.39678 0.0
H300 H 0.71074 0.6487 0.4047 0.0
H301 H 0.71285 0.61757 0.38298 0.0
H302 H 0.47473 0.72306 0.37384 0.0
H303 H 0.46116 0.79607 0.36445 0.0
H304 H 0.47246 0.80742 0.38062 0.0
H305 H 0.57233 0.89077 0.37722 0.0
H306 H 0.56169 0.87926 0.36105 0.0
H307 H 0.64327 0.8631 0.36824 0.0
H308 H 0.7072 0.6095 0.36061 0.0
H309 H 0.68273 0.61494 0.33874 0.0
H310 H 0.53724 0.77775 0.3451 0.0
C311 C 0.60498 0.77383 0.39392 0.0
C312 C 0.64429 0.73651 0.40236 0.0
C313 C 0.68212 0.67931 0.39833 0.0
C314 C 0.68323 0.66092 0.38603 0.0
C315 C 0.64478 0.69921 0.37791 0.0
C316 C 0.60527 0.75362 0.38166 0.0
C317 C 0.56648 0.78405 0.37102 0.0
C318 C 0.48911 0.77722 0.37258 0.0
C319 C 0.5872 0.85872 0.36929 0.0
C320 C 0.59119 0.73861 0.36073 0.0
C321 C 0.63699 0.69071 0.36495 0.0
C322 C 0.67002 0.64548 0.35721 0.0
C323 C 0.65514 0.64849 0.3448 0.0
C324 C 0.60628 0.69508 0.34024 0.0
C325 C 0.57424 0.74109 0.34834 0.0
H326 H 0.61469 0.21157 0.59823 0.0
H327 H 0.76484 0.37327 0.59678 0.0
H328 H 0.77629 0.37403 0.61913 0.0
H329 H 0.52938 0.28262 0.62384 0.0
H330 H 0.50957 0.20102 0.63009 0.0
H331 H 0.51851 0.20884 0.61398 0.0
H332 H 0.61033 0.11385 0.61417 0.0
H333 H 0.60217 0.10624 0.63032 0.0
H334 H 0.68435 0.12314 0.62404 0.0
H335 H 0.77028 0.35779 0.64162 0.0
H336 H 0.73946 0.33382 0.66271 0.0
H337 H 0.58437 0.19175 0.64946 0.0
C338 C 0.64976 0.24737 0.60261 0.0
C339 C 0.68954 0.29183 0.59577 0.0
C340 C 0.73515 0.3376 0.60184 0.0
C341 C 0.74173 0.33862 0.61452 0.0
C342 C 0.7016 0.29417 0.62099 0.0
C343 C 0.65586 0.25002 0.61525 0.0
C344 C 0.61521 0.21097 0.62432 0.0
C345 C 0.53864 0.22684 0.62298 0.0
C346 C 0.62886 0.13398 0.62314 0.0
C347 C 0.645 0.2403 0.63607 0.0
C348 C 0.6955 0.28742 0.63395 0.0
C349 C 0.73053 0.32133 0.64339 0.0
C350 C 0.71253 0.30763 0.65531 0.0
C351 C 0.6592 0.26151 0.65766 0.0
C352 C 0.62573 0.22681 0.64791 0.0
H353 H 0.10899 0.29384 0.89945 0.0
H354 H 0.26213 0.14112 0.90752 0.0
H355 H 0.26867 0.11127 0.88569 0.0
H356 H 0.02158 0.19579 0.87527 0.0
H357 H 0.00406 0.26991 0.86635 0.0
H358 H 0.01073 0.27786 0.88263 0.0
H359 H 0.10393 0.3703 0.88063 0.0
H360 H 0.0982 0.36201 0.86435 0.0
H361 H 0.17912 0.35094 0.8721 0.0
H362 H 0.26193 0.10149 0.86303 0.0
H363 H 0.23784 0.10809 0.84099 0.0
H364 H 0.08542 0.26354 0.84773 0.0
C365 C 0.143 0.25336 0.89662 0.0
C366 C 0.18521 0.21973 0.9051 0.0
C367 C 0.22991 0.16779 0.90109 0.0
C368 C 0.23382 0.15044 0.88874 0.0
C369 C 0.19228 0.18526 0.88057 0.0
C370 C 0.14725 0.23518 0.88433 0.0
C371 C 0.10857 0.26499 0.87366 0.0
C372 C 0.03168 0.25129 0.87453 0.0
C373 C 0.12337 0.3416 0.87263 0.0
C374 C 0.13935 0.22446 0.86332 0.0
C375 C 0.18764 0.17886 0.8675 0.0
C376 C 0.22384 0.13658 0.85965 0.0
C377 C 0.20979 0.14057 0.84718 0.0
C378 C 0.15986 0.18621 0.84272 0.0
C379 C 0.12441 0.22875 0.85091 0.0
H380 H 0.08661 0.66181 0.01197 0.0
H381 H 0.29611 0.73341 0.01389 0.0
H382 H 0.31842 0.67487 0.99439 0.0
H383 H 0.1242 0.49785 0.00081 0.0
H384 H 0.049 0.49084 0.99118 0.0
H385 H 0.04816 0.5446 0.00457 0.0
H386 H 0.01125 0.64676 0.99141 0.0
H387 H 0.01328 0.59328 0.97794 0.0
H388 H 0.06275 0.67069 0.97886 0.0
H389 H 0.32044 0.60298 0.9755 0.0
H390 H 0.30606 0.51138 0.96003 0.0
H391 H 0.09562 0.48591 0.97044 0.0
C392 C 0.13701 0.66576 0.00823 0.0
C393 C 0.18953 0.70237 0.01444 0.0
C394 C 0.25506 0.70549 0.00932 0.0
C395 C 0.26807 0.67305 -0.00182 0.0
C396 C 0.21505 0.63778 0.99226 0.0
C397 C 0.15102 0.63334 0.99716 0.0
C398 C 0.10482 0.58697 0.98955 0.0
C399 C 0.08015 0.52649 0.99697 0.0
C400 C 0.04445 0.62683 0.98412 0.0
C401 C 0.15359 0.5643 0.97981 0.0
C402 C 0.21645 0.59537 0.98139 0.0
C403 C 0.27127 0.57877 0.97409 0.0
C404 C 0.26259 0.52667 0.96531 0.0
C405 C 0.19981 0.49127 0.96404 0.0
C406 C 0.14393 0.51261 0.97104 0.0
H407 H 0.75422 0.8034 0.26706 0.0
H408 H 0.82718 0.62352 0.2855 0.0
H409 H 0.91791 0.60994 0.27061 0.0
H410 H 0.76772 0.74076 0.23869 0.0
H411 H 0.79705 0.81664 0.23149 0.0
H412 H 0.7477 0.82371 0.24499 0.0
H413 H 0.84299 0.895 0.25577 0.0
H414 H 0.89222 0.88981 0.24217 0.0
H415 H 0.92888 0.86243 0.25637 0.0
H416 H 0.98167 0.60026 0.25198 0.0
H417 H 0.02872 0.60371 0.23159 0.0
H418 H 0.91952 0.79205 0.22479 0.0
C419 C 0.7914 0.7632 0.26828 0.0
C420 C 0.78416 0.71469 0.27745 0.0
C421 C 0.83217 0.6613 0.27856 0.0
C422 C 0.88386 0.65322 0.27015 0.0
C423 C 0.88714 0.69932 0.26077 0.0
C424 C 0.84339 0.75426 0.25989 0.0
C425 C 0.85368 0.79174 0.24816 0.0
C426 C 0.7876 0.79324 0.24038 0.0
C427 C 0.88109 0.86404 0.25077 0.0
C428 C 0.90724 0.74691 0.24233 0.0
C429 C 0.9259 0.6943 0.24985 0.0
C430 C 0.96899 0.64215 0.24612 0.0
C431 C 0.99465 0.64413 0.23445 0.0
C432 C 0.97763 0.69816 0.22662 0.0
C433 C 0.93381 0.75062 0.23065 0.0
H434 H 0.7277 0.60689 0.47695 0.0
H435 H 0.50916 0.62645 0.47072 0.0
H436 H 0.48858 0.56035 0.48898 0.0
H437 H 0.72252 0.43249 0.48858 0.0
H438 H 0.79031 0.44922 0.49953 0.0
H439 H 0.78753 0.49427 0.48548 0.0
H440 H 0.79083 0.60884 0.4976 0.0
H441 H 0.79185 0.56418 0.51169 0.0
H442 H 0.72652 0.62649 0.50866 0.0
H443 H 0.49104 0.50106 0.50868 0.0
H444 H 0.51626 0.43629 0.52709 0.0
H445 H 0.73306 0.45294 0.52048 0.0
C446 C 0.67552 0.59595 0.47925 0.0
C447 C 0.62008 0.62212 0.4724 0.0
C448 C 0.55255 0.60715 0.47582 0.0
C449 C 0.54024 0.56991 0.48622 0.0
C450 C 0.59593 0.54757 0.49306 0.0
C451 C 0.66221 0.55871 0.48962 0.0
C452 C 0.71278 0.5294 0.49868 0.0
C453 C 0.75581 0.47298 0.49271 0.0
C454 C 0.75816 0.5856 0.5045 0.0
C455 C 0.66442 0.50062 0.50779 0.0
C456 C 0.59732 0.51219 0.5044 0.0
C457 C 0.54337 0.49097 0.51138 0.0
C458 C 0.55829 0.45442 0.52186 0.0
C459 C 0.6266 0.43894 0.52523 0.0
C460 C 0.68029 0.46406 0.51822 0.0
H461 H 0.90642 0.28323 0.77709 0.0
H462 H 0.88117 0.06986 0.78567 0.0
H463 H 0.78941 0.05978 0.77013 0.0
H464 H 0.72158 0.3184 0.76874 0.0
H465 H 0.74626 0.37316 0.75668 0.0
H466 H 0.79915 0.36743 0.77019 0.0
H467 H 0.90196 0.33535 0.75692 0.0
H468 H 0.84937 0.33913 0.7434 0.0
H469 H 0.89587 0.26233 0.74675 0.0
H470 H 0.71769 0.06667 0.7515 0.0
H471 H 0.66016 0.0927 0.73217 0.0
H472 H 0.73134 0.30215 0.73539 0.0
C473 C 0.87967 0.2351 0.77608 0.0
C474 C 0.90083 0.17734 0.78264 0.0
C475 C 0.86565 0.11485 0.7808 0.0
C476 C 0.81349 0.10862 0.77198 0.0
C477 C 0.79681 0.16547 0.76517 0.0
C478 C 0.82784 0.22793 0.76726 0.0
C479 C 0.80562 0.279 0.75784 0.0
C480 C 0.76576 0.33798 0.76372 0.0
C481 C 0.86686 0.30546 0.75082 0.0
C482 C 0.75958 0.23458 0.74982 0.0
C483 C 0.75482 0.16953 0.7543 0.0
C484 C 0.71974 0.11779 0.74804 0.0
C485 C 0.68782 0.13306 0.73698 0.0
C486 C 0.6911 0.19962 0.73225 0.0
C487 C 0.72735 0.25103 0.73881 0.0
H488 H 0.24434 0.29742 0.7681 0.0
H489 H 0.15671 0.09713 0.76077 0.0
H490 H 0.20547 0.09571 0.74043 0.0
H491 H 0.22758 0.36212 0.7369 0.0
H492 H 0.30901 0.40468 0.73777 0.0
H493 H 0.26018 0.39484 0.75127 0.0
H494 H 0.36247 0.33463 0.76179 0.0
H495 H 0.41171 0.34559 0.74842 0.0
H496 H 0.40072 0.26167 0.75442 0.0
H497 H 0.26922 0.11082 0.72169 0.0
H498 H 0.35798 0.13424 0.70691 0.0
H499 H 0.40709 0.3238 0.72617 0.0
C500 C 0.23491 0.25368 0.76215 0.0
C501 C 0.19662 0.19751 0.76601 0.0
C502 C 0.18622 0.14065 0.75805 0.0
C503 C 0.21294 0.13967 0.7464 0.0
C504 C 0.25018 0.19581 0.74284 0.0
C505 C 0.26209 0.25141 0.75051 0.0
C506 C 0.31029 0.30148 0.74489 0.0
C507 C 0.27461 0.36983 0.74257 0.0
C508 C 0.37513 0.31137 0.75285 0.0
C509 C 0.32528 0.26409 0.73307 0.0
C510 C 0.2886 0.2041 0.73196 0.0
C511 C 0.29768 0.15804 0.72236 0.0
C512 C 0.34813 0.17187 0.71398 0.0
C513 C 0.3893 0.23091 0.71536 0.0
C514 C 0.3755 0.27898 0.72472 0.0
H515 H 0.27038 0.77477 0.22057 0.0
H516 H 0.28789 0.56456 0.20789 0.0
H517 H 0.37288 0.54318 0.22411 0.0
H518 H 0.45388 0.79574 0.23099 0.0
H519 H 0.42958 0.84755 0.24387 0.0
H520 H 0.37954 0.84948 0.22998 0.0
H521 H 0.27212 0.81888 0.24196 0.0
H522 H 0.32189 0.81486 0.25581 0.0
H523 H 0.27178 0.74235 0.25071 0.0
H524 H 0.43937 0.53897 0.24336 0.0
H525 H 0.49824 0.55595 0.26305 0.0
H526 H 0.4396 0.76961 0.26341 0.0
C527 C 0.29408 0.72498 0.22089 0.0
C528 C 0.2725 0.67131 0.21295 0.0
C529 C 0.30368 0.60647 0.21385 0.0
C530 C 0.35189 0.59376 0.22306 0.0
C531 C 0.36884 0.64661 0.23119 0.0
C532 C 0.34222 0.71138 0.23006 0.0
C533 C 0.36527 0.75761 0.24055 0.0
C534 C 0.40973 0.81605 0.23608 0.0
C535 C 0.30411 0.785 0.24767 0.0
C536 C 0.4069 0.70791 0.24797 0.0
C537 C 0.40832 0.64431 0.24236 0.0
C538 C 0.43988 0.58885 0.24774 0.0
C539 C 0.4726 0.599 0.25901 0.0
C540 C 0.47381 0.66426 0.26481 0.0
C541 C 0.43991 0.71923 0.25921 0.0
H542 H 0.57423 0.95378 0.4761 0.0
H543 H 0.79172 0.91941 0.47235 0.0
H544 H 0.81447 0.98642 0.49098 0.0
H545 H 0.59087 0.12978 0.48816 0.0
H546 H 0.521 0.12052 0.49834 0.0
H547 H 0.52174 0.0723 0.48427 0.0
H548 H 0.50868 0.96097 0.49621 0.0
H549 H 0.50968 0.00871 0.51034 0.0
H550 H 0.57037 0.94105 0.50795 0.0
H551 H 0.81467 0.048 0.51055 0.0
H552 H 0.79397 0.12021 0.52855 0.0
H553 H 0.57682 0.1194 0.51987 0.0
C554 C 0.6267 0.96164 0.47904 0.0
C555 C 0.68113 0.93102 0.47271 0.0
C556 C 0.74904 0.94222 0.47696 0.0
C557 C 0.7626 0.97984 0.48762 0.0
C558 C 0.70783 0.00659 0.4939 0.0
C559 C 0.64136 0.9996 0.48968 0.0
C560 C 0.59232 0.03464 0.49825 0.0
C561 C 0.55425 0.09277 0.49187 0.0
C562 C 0.54232 0.98325 0.50349 0.0
C563 C 0.64188 0.06181 0.50793 0.0
C564 C 0.70808 0.04411 0.50525 0.0
C565 C 0.76317 0.06287 0.51272 0.0
C566 C 0.75077 0.10362 0.52296 0.0
C567 C 0.68382 0.12571 0.52559 0.0
C568 C 0.62843 0.10283 0.51816 0.0
H569 H 0.05639 0.98462 0.02092 0.0
H570 H 0.24182 0.03819 0.04108 0.0
H571 H 0.26584 0.12706 0.02637 0.0
H572 H 0.12127 0.99026 0.99337 0.0
H573 H 0.04963 0.02738 0.98542 0.0
H574 H 0.03617 0.97979 -0.00111 0.0
H575 H 0.97541 0.08269 0.00898 0.0
H576 H 0.98651 0.13026 0.99536 0.0
H577 H 0.01712 0.16458 0.00975 0.0
H578 H 0.28386 0.18895 0.00746 0.0
H579 H 0.28484 0.23625 0.98697 0.0
H580 H 0.08639 0.14602 0.97901 0.0
C581 C 0.10011 0.01743 0.02259 0.0
C582 C 0.14719 0.00458 0.03215 0.0
C583 C 0.20497 0.04729 0.03383 0.0
C584 C 0.21915 0.09784 0.02551 0.0
C585 C 0.1745 0.1057 0.01566 0.0
C586 C 0.11506 0.06816 0.01433 0.0
C587 C 0.07956 0.08176 0.00227 0.0
C588 C 0.07122 0.01587 0.99454 0.0
C589 C 0.01056 0.11694 0.00421 0.0
C590 C 0.13027 0.12976 0.9968 0.0
C591 C 0.18441 0.14313 0.00471 0.0
C592 C 0.24087 0.18053 0.0013 0.0
C593 C 0.24135 0.20636 0.98958 0.0
C594 C 0.18558 0.19496 0.98142 0.0
C595 C 0.12933 0.15622 0.98512 0.0
H596 H 0.77713 0.87981 0.03696 0.0
H597 H 0.79562 0.70061 0.05904 0.0
H598 H 0.67412 0.71023 0.06428 0.0
H599 H 0.6476 0.97196 0.0556 0.0
H600 H 0.60253 0.00239 0.04237 0.0
H601 H 0.69328 0.98839 0.04197 0.0
H602 H 0.67626 0.90811 0.0232 0.0
H603 H 0.58565 0.92157 0.02358 0.0
H604 H 0.61944 0.83623 0.02405 0.0
H605 H 0.54965 0.73264 0.06569 0.0
H606 H 0.42877 0.76221 0.06233 0.0
H607 H 0.48813 0.92389 0.03844 0.0
C608 C 0.75577 0.84408 0.04319 0.0
C609 C 0.79552 0.7902 0.04781 0.0
C610 C 0.76578 0.74262 0.05556 0.0
C611 C 0.69701 0.74784 0.0586 0.0
C612 C 0.6585 0.80062 0.05371 0.0
C613 C 0.6866 0.84788 0.04615 0.0
C614 C 0.63215 0.895 0.04109 0.0
C615 C 0.64465 0.96882 0.04553 0.0
C616 C 0.62815 0.88987 0.02716 0.0
C617 C 0.569 0.86549 0.04671 0.0
C618 C 0.58565 0.81201 0.05415 0.0
C619 C 0.53598 0.77485 0.05997 0.0
C620 C 0.46735 0.79204 0.05799 0.0
C621 C 0.44875 0.84536 0.05011 0.0
C622 C 0.50058 0.88311 0.04456 0.0
H623 H 0.59672 0.32096 0.28018 0.0
H624 H 0.62029 0.33584 0.31927 0.0
H625 H 0.59432 0.213 0.32074 0.0
H626 H 0.46136 0.18765 0.27878 0.0
H627 H 0.49792 0.14496 0.26584 0.0
H628 H 0.50785 0.23581 0.26795 0.0
H629 H 0.63896 0.22246 0.26692 0.0
H630 H 0.62949 0.13174 0.26486 0.0
H631 H 0.68224 0.16559 0.27714 0.0
H632 H 0.5747 0.08858 0.31796 0.0
H633 H 0.56989 0.96843 0.31116 0.0
H634 H 0.56534 0.03137 0.27365 0.0
C635 C 0.59446 0.29835 0.28903 0.0
C636 C 0.60911 0.33742 0.29965 0.0
C637 C 0.60832 0.30638 0.31108 0.0
C638 C 0.59343 0.2369 0.31199 0.0
C639 C 0.58028 0.19918 0.30135 0.0
C640 C 0.58098 0.22856 0.29007 0.0
C641 C 0.57233 0.17502 0.28003 0.0
C642 C 0.5059 0.18655 0.27272 0.0
C643 C 0.63446 0.17363 0.27175 0.0
C644 C 0.56835 0.11093 0.28743 0.0
C645 C 0.57171 0.12634 0.2997 0.0
C646 C 0.57149 0.07584 0.30837 0.0
C647 C 0.56883 0.00761 0.3044 0.0
C648 C 0.56733 0.99024 0.29186 0.0
C649 C 0.5661 0.04288 0.28329 0.0
H650 H 0.29891 0.35376 0.55817 0.0
H651 H 0.29698 0.14615 0.54386 0.0
H652 H 0.17254 0.15301 0.54046 0.0
H653 H 0.14432 0.34153 0.57417 0.0
H654 H 0.11559 0.42676 0.57105 0.0
H655 H 0.20544 0.40804 0.57161 0.0
H656 H 0.21788 0.45452 0.54998 0.0
H657 H 0.12803 0.47368 0.54937 0.0
H658 H 0.16492 0.42024 0.53776 0.0
H659 H 0.05022 0.1793 0.53934 0.0
H660 H 0.93345 0.22258 0.54079 0.0
H661 H 0.01077 0.41436 0.55602 0.0
C662 C 0.27219 0.31045 0.55409 0.0
C663 C 0.30728 0.24973 0.55107 0.0
C664 C 0.27079 0.19315 0.54614 0.0
C665 C 0.20029 0.19666 0.54415 0.0
C666 C 0.16701 0.25701 0.54723 0.0
C667 C 0.20138 0.31296 0.55211 0.0
C668 C 0.15214 0.37025 0.55515 0.0
C669 C 0.15453 0.38764 0.56881 0.0
C670 C 0.16661 0.43342 0.54761 0.0
C671 C 0.08484 0.33726 0.55132 0.0
C672 C 0.0951 0.27211 0.54672 0.0
C673 C 0.04139 0.23035 0.54286 0.0
C674 C 0.9751 0.25553 0.54377 0.0
C675 C 0.96269 0.322 0.54854 0.0
C676 C 0.01855 0.36356 0.55228 0.0
H677 H 0.05281 0.81379 0.78476 0.0
H678 H 0.15387 0.83274 0.81997 0.0
H679 H 0.13719 0.70963 0.82316 0.0
H680 H 0.92925 0.67748 0.79244 0.0
H681 H 0.93786 0.63456 0.77794 0.0
H682 H 0.94808 0.72576 0.7792 0.0
H683 H 0.06729 0.71532 0.76969 0.0
H684 H 0.05766 0.62425 0.76848 0.0
H685 H 0.13035 0.66054 0.77654 0.0
H686 H 0.11961 0.58476 0.82182 0.0
H687 H 0.1055 0.46401 0.81585 0.0
H688 H 0.01938 0.52354 0.78105 0.0
C689 C 0.0694 0.79201 0.79326 0.0
C690 C 0.10338 0.83224 0.80225 0.0
C691 C 0.12698 0.80233 0.81309 0.0
C692 C 0.11756 0.73271 0.81498 0.0
C693 C 0.08504 0.69382 0.80587 0.0
C694 C 0.06134 0.72216 0.79521 0.0
C695 C 0.0346 0.66762 0.78639 0.0
C696 C 0.95788 0.67692 0.78385 0.0
C697 C 0.0749 0.66691 0.77458 0.0
C698 C 0.04851 0.60423 0.79366 0.0
C699 C 0.07666 0.62076 0.80493 0.0
C700 C 0.09694 0.5711 0.81307 0.0
C701 C 0.08888 0.50258 0.80957 0.0
C702 C 0.06131 0.48419 0.79797 0.0
C703 C 0.04011 0.5359 0.79 0.0
H704 H 0.88532 0.26036 0.95228 0.0
H705 H 0.89486 0.44984 0.93277 0.0
H706 H 0.76914 0.45369 0.93164 0.0
H707 H 0.73975 0.18945 0.93585 0.0
H708 H 0.70422 0.15149 0.94904 0.0
H709 H 0.79501 0.16318 0.94815 0.0
H710 H 0.7953 0.23155 0.9685 0.0
H711 H 0.70448 0.2203 0.96943 0.0
H712 H 0.74053 0.30482 0.97009 0.0
H713 H 0.64192 0.43646 0.93247 0.0
H714 H 0.52311 0.39955 0.93531 0.0
H715 H 0.59613 0.22347 0.95483 0.0
C716 C 0.86105 0.30255 0.94772 0.0
C717 C 0.90017 0.3548 0.9426 0.0
C718 C 0.86618 0.4092 0.93677 0.0
C719 C 0.79471 0.41187 0.93607 0.0
C720 C 0.75774 0.35983 0.94128 0.0
C721 C 0.78972 0.30616 0.94698 0.0
C722 C 0.73809 0.25706 0.95193 0.0
C723 C 0.74467 0.1861 0.94588 0.0
C724 C 0.74503 0.25324 0.96581 0.0
C725 C 0.67212 0.29152 0.94813 0.0
C726 C 0.68455 0.3507 0.94198 0.0
C727 C 0.63159 0.39071 0.93742 0.0
C728 C 0.56417 0.3698 0.93922 0.0
C729 C 0.55019 0.30987 0.94565 0.0
C730 C 0.60516 0.27007 0.95003 0.0
H731 H 0.14697 0.09692 0.18567 0.0
H732 H 0.97384 0.02923 0.2061 0.0
H733 H 0.93239 0.14718 0.20753 0.0
H734 H 0.17745 0.24624 0.20342 0.0
H735 H 0.20283 0.29752 0.19093 0.0
H736 H 0.21517 0.20664 0.19029 0.0
H737 H 0.14573 0.19911 0.17006 0.0
H738 H 0.1333 0.2901 0.17063 0.0
H739 H 0.06073 0.23388 0.16934 0.0
H740 H 0.9126 0.27394 0.20774 0.0
H741 H 0.91803 0.39934 0.2073 0.0
H742 H 0.10696 0.38638 0.18761 0.0
C743 C 0.09971 0.10659 0.19029 0.0
C744 C 0.06256 0.05264 0.19537 0.0
C745 C 1.00182 0.06824 0.20158 0.0
C746 C 0.97817 0.13567 0.20259 0.0
C747 C 0.01606 0.18734 0.19747 0.0
C748 C 0.0757 0.17365 0.19147 0.0
C749 C 0.10915 0.23889 0.18744 0.0
C750 C 0.18036 0.24783 0.19338 0.0
C751 C 0.1124 0.24058 0.17354 0.0
C752 C 0.05949 0.29155 0.19226 0.0
C753 C 0.00582 0.26064 0.19791 0.0
C754 C 0.95423 0.29863 0.20329 0.0
C755 C 0.95782 0.37 0.20298 0.0
C756 C 0.0129 0.40304 0.19742 0.0
C757 C 0.06405 0.36289 0.19191 0.0
H758 H 0.05657 0.70273 0.43845 0.0
H759 H 0.98285 0.87858 0.45876 0.0
H760 H 0.09946 0.92345 0.46057 0.0
H761 H 0.20673 0.68075 0.45642 0.0
H762 H 0.25955 0.65468 0.44399 0.0
H763 H 0.16913 0.6391 0.44317 0.0
H764 H 0.16046 0.7042 0.42302 0.0
H765 H 0.25098 0.71993 0.42378 0.0
H766 H 0.19233 0.79022 0.42247 0.0
H767 H 0.22477 0.94672 0.4613 0.0
H768 H 0.35027 0.94548 0.46126 0.0
H769 H 0.34569 0.75322 0.44102 0.0
C770 C 0.06481 0.75123 0.44312 0.0
C771 C 0.0095 0.78825 0.44804 0.0
C772 C 0.02303 0.85066 0.45435 0.0
C773 C 0.08964 0.8763 0.45557 0.0
C774 C 0.14271 0.8388 0.45055 0.0
C775 C 0.13122 0.77751 0.44447 0.0
C776 C 0.19794 0.74559 0.44052 0.0
C777 C 0.20897 0.67591 0.44638 0.0
C778 C 0.20056 0.73965 0.42662 0.0
C779 C 0.24871 0.79804 0.4455 0.0
C780 C 0.21556 0.85158 0.45118 0.0
C781 C 0.25127 0.90528 0.45681 0.0
C782 C 0.32273 0.90403 0.45674 0.0
C783 C 0.35819 0.84937 0.45112 0.0
C784 C 0.3203 0.79604 0.44532 0.0
H785 H 0.61201 0.93202 0.70346 0.0
H786 H 0.44019 0.93231 0.67801 0.0
H787 H 0.43783 0.80641 0.67803 0.0
H788 H 0.69533 0.78077 0.69137 0.0
H789 H 0.72149 0.75115 0.70611 0.0
H790 H 0.71137 0.84108 0.70366 0.0
H791 H 0.62712 0.84894 0.72138 0.0
H792 H 0.63661 0.75897 0.72383 0.0
H793 H 0.55306 0.7945 0.72116 0.0
H794 H 0.4548 0.67971 0.68076 0.0
H795 H 0.48841 0.56313 0.68617 0.0
H796 H 0.6447 0.64521 0.7108 0.0
C797 C 0.57434 0.90565 0.69778 0.0
C798 C 0.52648 0.94226 0.69067 0.0
C799 C 0.47747 0.90558 0.68351 0.0
C800 C 0.47572 0.83398 0.68346 0.0
C801 C 0.52304 0.79955 0.69069 0.0
C802 C 0.57141 0.83417 0.69772 0.0
C803 C 0.61526 0.78509 0.70493 0.0
C804 C 0.6903 0.78981 0.70129 0.0
C805 C 0.60752 0.79764 0.71864 0.0
C806 C 0.58396 0.71748 0.70086 0.0
C807 C 0.53103 0.72689 0.69261 0.0
C808 C 0.4954 0.67186 0.68738 0.0
C809 C 0.51421 0.60556 0.69068 0.0
C810 C 0.56748 0.59456 0.6993 0.0
C811 C 0.60297 0.65168 0.70434 0.0
loop_
_geom_bond_atom_site_label_1
_geom_bond_atom_site_label_2
_geom_bond_distance
_geom_bond_site_symmetry_2
_ccdc_geom_bond_type
Co0 O3 1.970 . S
Co0 N17 1.989 . S
Co0 O25 1.967 . S
Co0 O32 1.920 . S
Co1 O4 1.966 . S
Co1 N10 2.022 1_455 S
Co1 N18 1.993 . S
Co1 O26 1.941 . S
C2 O3 1.258 . S
C2 O4 1.263 . S
O3 Co0 1.970 . S
O3 C2 1.258 . S
O4 Co1 1.966 . S
O4 C2 1.263 . S
C5 O6 1.235 . S
C5 O32 1.289 . S
O6 C5 1.235 . S
C7 C9 1.400 . S
C7 N10 1.351 . S
C7 C12 1.501 . S
C8 C9 1.387 . S
C8 N11 1.341 . S
C9 C7 1.400 . S
C9 C8 1.387 . S
N10 Co1 2.022 1_655 S
N10 C7 1.351 . S
N10 N11 1.365 . S
N11 C8 1.341 . S
N11 N10 1.365 . S
N11 H31 0.862 . S
C12 C7 1.501 . S
C12 H13 0.961 . S
C12 H14 0.961 . S
C12 H15 0.960 . S
H13 C12 0.961 . S
H14 C12 0.961 . S
H15 C12 0.960 . S
C16 N17 1.342 . S
C16 C20 1.401 . S
C16 C21 1.499 . S
N17 Co0 1.989 . S
N17 C16 1.342 . S
N17 N18 1.388 . S
N18 Co1 1.993 . S
N18 N17 1.388 . S
N18 C19 1.346 . S
C19 N18 1.346 . S
C19 C20 1.396 . S
C19 C29 1.510 1_455 S
C20 C16 1.401 . S
C20 C19 1.396 . S
C21 C16 1.499 . S
C21 H22 0.959 . S
C21 H23 0.960 . S
C21 H24 0.961 . S
H22 C21 0.959 . S
H23 C21 0.960 . S
H24 C21 0.961 . S
O25 Co0 1.967 . S
O25 C33 1.258 . S
O26 Co1 1.941 . S
O26 C33 1.266 . S
H27 C29 0.959 . S
H28 C29 0.961 . S
C29 C19 1.510 1_655 S
C29 H27 0.959 . S
C29 H28 0.961 . S
C29 H30 0.960 . S
H30 C29 0.960 . S
H31 N11 0.862 . S
O32 Co0 1.920 . S
O32 C5 1.289 . S
C33 O25 1.258 . S
C33 O26 1.266 . S
Co34 O37 1.970 . S
Co34 N51 1.989 . S
Co34 O59 1.967 . S
Co34 O66 1.920 . S
Co35 O38 1.966 . S
Co35 N44 2.022 . S
Co35 N52 1.993 . S
Co35 O60 1.941 . S
C36 O37 1.258 . S
C36 O38 1.263 . S
O37 Co34 1.970 . S
O37 C36 1.258 . S
O38 Co35 1.966 . S
O38 C36 1.263 . S
C39 O40 1.235 . S
C39 O66 1.289 . S
O40 C39 1.235 . S
C41 C43 1.400 . S
C41 N44 1.351 . S
C41 C46 1.501 . S
C42 C43 1.387 . S
C42 N45 1.341 . S
C43 C41 1.400 . S
C43 C42 1.387 . S
N44 Co35 2.022 . S
N44 C41 1.351 . S
N44 N45 1.365 . S
N45 C42 1.341 . S
N45 N44 1.365 . S
N45 H65 0.862 . S
C46 C41 1.501 . S
C46 H47 0.961 . S
C46 H48 0.961 . S
C46 H49 0.960 . S
H47 C46 0.961 . S
H48 C46 0.961 . S
H49 C46 0.960 . S
C50 N51 1.342 . S
C50 C54 1.401 . S
C50 C55 1.499 . S
N51 Co34 1.989 . S
N51 C50 1.342 . S
N51 N52 1.388 . S
N52 Co35 1.993 . S
N52 N51 1.388 . S
N52 C53 1.346 . S
C53 N52 1.346 . S
C53 C54 1.396 . S
C53 C63 1.510 . S
C54 C50 1.401 . S
C54 C53 1.396 . S
C55 C50 1.499 . S
C55 H56 0.959 . S
C55 H57 0.960 . S
C55 H58 0.961 . S
H56 C55 0.959 . S
H57 C55 0.960 . S
H58 C55 0.961 . S
O59 Co34 1.967 . S
O59 C67 1.258 . S
O60 Co35 1.941 . S
O60 C67 1.266 . S
H61 C63 0.959 . S
H62 C63 0.961 . S
C63 C53 1.510 . S
C63 H61 0.959 . S
C63 H62 0.961 . S
C63 H64 0.960 . S
H64 C63 0.960 . S
H65 N45 0.862 . S
O66 Co34 1.920 . S
O66 C39 1.289 . S
C67 O59 1.258 . S
C67 O60 1.266 . S
Co68 O71 1.970 . S
Co68 N85 1.989 . S
Co68 O93 1.967 . S
Co68 O100 1.920 . S
Co69 O72 1.966 . S
Co69 N78 2.022 . S
Co69 N86 1.993 . S
Co69 O94 1.941 . S
C70 O71 1.258 . S
C70 O72 1.263 . S
O71 Co68 1.970 . S
O71 C70 1.258 . S
O72 Co69 1.966 . S
O72 C70 1.263 . S
C73 O74 1.235 . S
C73 O100 1.289 . S
O74 C73 1.235 . S
C75 C77 1.400 . S
C75 N78 1.351 . S
C75 C80 1.501 . S
C76 C77 1.387 . S
C76 N79 1.341 . S
C77 C75 1.400 . S
C77 C76 1.387 . S
N78 Co69 2.022 . S
N78 C75 1.351 . S
N78 N79 1.365 . S
N79 C76 1.341 . S
N79 N78 1.365 . S
N79 H99 0.862 . S
C80 C75 1.501 . S
C80 H81 0.961 . S
C80 H82 0.961 . S
C80 H83 0.960 . S
H81 C80 0.961 . S
H82 C80 0.961 . S
H83 C80 0.960 . S
C84 N85 1.342 . S
C84 C88 1.401 . S
C84 C89 1.499 . S
N85 Co68 1.989 . S
N85 C84 1.342 . S
N85 N86 1.388 . S
N86 Co69 1.993 . S
N86 N85 1.388 . S
N86 C87 1.346 . S
C87 N86 1.346 . S
C87 C88 1.396 . S
C87 C97 1.510 . S
C88 C84 1.401 . S
C88 C87 1.396 . S
C89 C84 1.499 . S
C89 H90 0.959 . S
C89 H91 0.960 . S
C89 H92 0.961 . S
H90 C89 0.959 . S
H91 C89 0.960 . S
H92 C89 0.961 . S
O93 Co68 1.967 . S
O93 C101 1.258 . S
O94 Co69 1.941 . S
O94 C101 1.266 . S
H95 C97 0.959 . S
H96 C97 0.961 . S
C97 C87 1.510 . S
C97 H95 0.959 . S
C97 H96 0.961 . S
C97 H98 0.960 . S
H98 C97 0.960 . S
H99 N79 0.862 . S
O100 Co68 1.920 . S
O100 C73 1.289 . S
C101 O93 1.258 . S
C101 O94 1.266 . S
Co102 O105 1.970 . S
Co102 N119 1.989 . S
Co102 O127 1.967 . S
Co102 O134 1.920 . S
Co103 O106 1.966 . S
Co103 N112 2.022 . S
Co103 N120 1.993 . S
Co103 O128 1.941 . S
C104 O105 1.258 . S
C104 O106 1.263 . S
O105 Co102 1.970 . S
O105 C104 1.258 . S
O106 Co103 1.966 . S
O106 C104 1.263 . S
C107 O108 1.235 . S
C107 O134 1.289 . S
O108 C107 1.235 . S
C109 C111 1.400 . S
C109 N112 1.351 1_565 S
C109 C114 1.500 1_455 S
C110 C111 1.387 . S
C110 N113 1.341 . S
C111 C109 1.400 . S
C111 C110 1.387 . S
N112 Co103 2.022 . S
N112 C109 1.351 1_545 S
N112 N113 1.365 1_545 S
N113 C110 1.341 . S
N113 N112 1.365 1_565 S
N113 H133 0.862 1_565 S
C114 C109 1.500 1_655 S
C114 H115 0.948 1_665 S
C114 H116 0.965 . S
C114 H117 0.970 . S
H115 C114 0.948 1_445 S
H116 C114 0.965 . S
H117 C114 0.970 . S
C118 N119 1.342 . S
C118 C122 1.401 . S
C118 C123 1.499 . S
N119 Co102 1.989 . S
N119 C118 1.342 . S
N119 N120 1.388 . S
N120 Co103 1.993 . S
N120 N119 1.388 . S
N120 C121 1.346 . S
C121 N120 1.346 . S
C121 C122 1.396 . S
C121 C131 1.510 . S
C122 C118 1.401 . S
C122 C121 1.396 . S
C123 C118 1.499 . S
C123 H124 0.959 . S
C123 H125 0.960 . S
C123 H126 0.961 . S
H124 C123 0.959 . S
H125 C123 0.960 . S
H126 C123 0.961 . S
O127 Co102 1.967 . S
O127 C135 1.258 . S
O128 Co103 1.941 . S
O128 C135 1.266 . S
H129 C131 0.959 . S
H130 C131 0.961 . S
C131 C121 1.510 . S
C131 H129 0.959 . S
C131 H130 0.961 . S
C131 H132 0.960 . S
H132 C131 0.960 . S
H133 N113 0.862 1_545 S
O134 Co102 1.920 . S
O134 C107 1.289 . S
C135 O127 1.258 . S
C135 O128 1.266 . S
Co136 O139 1.970 . S
Co136 N153 1.989 . S
Co136 O161 1.967 . S
Co136 O168 1.920 1_455 S
Co137 O140 1.966 . S
Co137 N146 2.022 . S
Co137 N154 1.993 . S
Co137 O162 1.941 . S
C138 O139 1.258 . S
C138 O140 1.263 . S
O139 Co136 1.970 . S
O139 C138 1.258 . S
O140 Co137 1.966 . S
O140 C138 1.263 . S
C141 O142 1.235 . S
C141 O168 1.289 . S
O142 C141 1.235 . S
C143 C145 1.400 . S
C143 N146 1.351 . S
C143 C148 1.501 . S
C144 C145 1.387 . S
C144 N147 1.341 . S
C145 C143 1.400 . S
C145 C144 1.387 . S
N146 Co137 2.022 . S
N146 C143 1.351 . S
N146 N147 1.365 . S
N147 C144 1.341 . S
N147 N146 1.365 . S
N147 H167 0.862 . S
C148 C143 1.501 . S
C148 H149 0.961 . S
C148 H150 0.961 . S
C148 H151 0.960 . S
H149 C148 0.961 . S
H150 C148 0.961 . S
H151 C148 0.960 . S
C152 N153 1.342 . S
C152 C156 1.401 . S
C152 C157 1.499 . S
N153 Co136 1.989 . S
N153 C152 1.342 . S
N153 N154 1.388 . S
N154 Co137 1.993 . S
N154 N153 1.388 . S
N154 C155 1.346 . S
C155 N154 1.346 . S
C155 C156 1.396 . S
C155 C165 1.510 . S
C156 C152 1.401 . S
C156 C155 1.396 . S
C157 C152 1.499 . S
C157 H158 0.959 . S
C157 H159 0.960 . S
C157 H160 0.961 . S
H158 C157 0.959 . S
H159 C157 0.960 . S
H160 C157 0.961 . S
O161 Co136 1.967 . S
O161 C169 1.258 . S
O162 Co137 1.941 . S
O162 C169 1.266 . S
H163 C165 0.959 . S
H164 C165 0.961 . S
C165 C155 1.510 . S
C165 H163 0.959 . S
C165 H164 0.961 . S
C165 H166 0.960 . S
H166 C165 0.960 . S
H167 N147 0.862 . S
O168 Co136 1.920 1_655 S
O168 C141 1.289 . S
C169 O161 1.258 . S
C169 O162 1.266 . S
Co170 O173 1.970 . S
Co170 N187 1.989 . S
Co170 O195 1.967 . S
Co170 O202 1.920 . S
Co171 O174 1.966 . S
Co171 N180 2.022 . S
Co171 N188 1.993 . S
Co171 O196 1.941 . S
C172 O173 1.258 . S
C172 O174 1.263 . S
O173 Co170 1.970 . S
O173 C172 1.258 . S
O174 Co171 1.966 . S
O174 C172 1.263 . S
C175 O176 1.235 . S
C175 O202 1.289 . S
O176 C175 1.235 . S
C177 C179 1.400 1_565 S
C177 N180 1.351 . S
C177 C182 1.501 1_455 S
C178 C179 1.387 . S
C178 N181 1.341 1_545 S
C179 C177 1.400 1_545 S
C179 C178 1.387 . S
N180 Co171 2.022 . S
N180 C177 1.351 . S
N180 N181 1.365 . S
N181 C178 1.341 1_565 S
N181 N180 1.365 . S
N181 H201 0.862 . S
C182 C177 1.501 1_655 S
C182 H183 0.961 . S
C182 H184 0.961 . S
C182 H185 0.960 . S
H183 C182 0.961 . S
H184 C182 0.961 . S
H185 C182 0.960 . S
C186 N187 1.342 . S
C186 C190 1.401 . S
C186 C191 1.499 . S
N187 Co170 1.989 . S
N187 C186 1.342 . S
N187 N188 1.388 . S
N188 Co171 1.993 . S
N188 N187 1.388 . S
N188 C189 1.346 . S
C189 N188 1.346 . S
C189 C190 1.396 . S
C189 C199 1.510 . S
C190 C186 1.401 . S
C190 C189 1.396 . S
C191 C186 1.499 . S
C191 H192 0.959 . S
C191 H193 0.960 . S
C191 H194 0.961 . S
H192 C191 0.959 . S
H193 C191 0.960 . S
H194 C191 0.961 . S
O195 Co170 1.967 . S
O195 C203 1.258 . S
O196 Co171 1.941 . S
O196 C203 1.266 . S
H197 C199 0.959 . S
H198 C199 0.961 . S
C199 C189 1.510 . S
C199 H197 0.959 . S
C199 H198 0.961 . S
C199 H200 0.960 . S
H200 C199 0.960 . S
H201 N181 0.862 . S
O202 Co170 1.920 . S
O202 C175 1.289 . S
C203 O195 1.258 . S
C203 O196 1.266 . S
Co204 O207 1.970 . S
Co204 N221 1.989 . S
Co204 O229 1.967 . S
Co204 O236 1.920 . S
Co205 O208 1.966 . S
Co205 N214 2.022 . S
Co205 N222 1.993 . S
Co205 O230 1.941 . S
C206 O207 1.258 . S
C206 O208 1.263 . S
O207 Co204 1.970 . S
O207 C206 1.258 . S
O208 Co205 1.966 . S
O208 C206 1.263 . S
C209 O210 1.235 . S
C209 O236 1.289 . S
O210 C209 1.235 . S
C211 C213 1.400 . S
C211 N214 1.351 . S
C211 C216 1.501 . S
C212 C213 1.387 . S
C212 N215 1.341 . S
C213 C211 1.400 . S
C213 C212 1.387 . S
N214 Co205 2.022 . S
N214 C211 1.351 . S
N214 N215 1.365 . S
N215 C212 1.341 . S
N215 N214 1.365 . S
N215 H235 0.862 . S
C216 C211 1.501 . S
C216 H217 0.961 . S
C216 H218 0.961 . S
C216 H219 0.960 . S
H217 C216 0.961 . S
H218 C216 0.961 . S
H219 C216 0.960 . S
C220 N221 1.342 . S
C220 C224 1.401 . S
C220 C225 1.499 . S
N221 Co204 1.989 . S
N221 C220 1.342 . S
N221 N222 1.388 . S
N222 Co205 1.993 . S
N222 N221 1.388 . S
N222 C223 1.346 . S
C223 N222 1.346 . S
C223 C224 1.396 . S
C223 C233 1.510 . S
C224 C220 1.401 . S
C224 C223 1.396 . S
C225 C220 1.499 . S
C225 H226 0.959 . S
C225 H227 0.960 . S
C225 H228 0.961 . S
H226 C225 0.959 . S
H227 C225 0.960 . S
H228 C225 0.961 . S
O229 Co204 1.967 . S
O229 C237 1.258 . S
O230 Co205 1.941 . S
O230 C237 1.266 . S
H231 C233 0.959 . S
H232 C233 0.961 . S
C233 C223 1.510 . S
C233 H231 0.959 . S
C233 H232 0.961 . S
C233 H234 0.960 . S
H234 C233 0.960 . S
H235 N215 0.862 . S
O236 Co204 1.920 . S
O236 C209 1.289 . S
C237 O229 1.258 . S
C237 O230 1.266 . S
Co238 O241 1.970 . S
Co238 N255 1.989 . S
Co238 O263 1.967 . S
Co238 O270 1.920 . S
Co239 O242 1.966 . S
Co239 N248 2.022 . S
Co239 N256 1.993 . S
Co239 O264 1.941 . S
C240 O241 1.258 . S
C240 O242 1.263 . S
O241 Co238 1.970 . S
O241 C240 1.258 . S
O242 Co239 1.966 . S
O242 C240 1.263 . S
C243 O244 1.235 . S
C243 O270 1.289 . S
O244 C243 1.235 . S
C245 C247 1.400 . S
C245 N248 1.351 . S
C245 C250 1.501 . S
C246 C247 1.387 . S
C246 N249 1.341 . S
C247 C245 1.400 . S
C247 C246 1.387 . S
N248 Co239 2.022 . S
N248 C245 1.351 . S
N248 N249 1.365 . S
N249 C246 1.341 . S
N249 N248 1.365 . S
N249 H269 0.862 . S
C250 C245 1.501 . S
C250 H251 0.961 . S
C250 H252 0.961 . S
C250 H253 0.960 . S
H251 C250 0.961 . S
H252 C250 0.961 . S
H253 C250 0.960 . S
C254 N255 1.342 . S
C254 C258 1.401 . S
C254 C259 1.499 . S
N255 Co238 1.989 . S
N255 C254 1.342 . S
N255 N256 1.388 . S
N256 Co239 1.993 . S
N256 N255 1.388 . S
N256 C257 1.346 . S
C257 N256 1.346 . S
C257 C258 1.396 . S
C257 C267 1.510 . S
C258 C254 1.401 . S
C258 C257 1.396 . S
C259 C254 1.499 . S
C259 H260 0.959 . S
C259 H261 0.960 . S
C259 H262 0.961 . S
H260 C259 0.959 . S
H261 C259 0.960 . S
H262 C259 0.961 . S
O263 Co238 1.967 . S
O263 C271 1.258 . S
O264 Co239 1.941 . S
O264 C271 1.266 . S
H265 C267 0.959 . S
H266 C267 0.961 . S
C267 C257 1.510 . S
C267 H265 0.959 . S
C267 H266 0.961 . S
C267 H268 0.960 . S
H268 C267 0.960 . S
H269 N249 0.862 . S
O270 Co238 1.920 . S
O270 C243 1.289 . S
C271 O263 1.258 . S
C271 O264 1.266 . S
H272 C284 0.930 . S
H273 C286 0.930 . S
H274 C287 0.930 . S
H275 C291 0.959 . S
H276 C291 0.959 . S
H277 C291 0.961 . S
H278 C292 0.960 . S
H279 C292 0.961 . S
H280 C292 0.959 . S
H281 C295 0.929 . S
H282 C296 0.931 . S
H283 C298 0.930 . S
C284 H272 0.930 . S
C284 C285 1.399 . S
C284 C289 1.399 . S
C285 C284 1.399 . S
C285 C286 1.376 . S
C286 H273 0.930 . S
C286 C285 1.376 . S
C286 C287 1.388 . S
C287 H274 0.930 . S
C287 C286 1.388 . S
C287 C288 1.390 . S
C288 C287 1.390 . S
C288 C289 1.394 . S
C288 C294 1.465 . S
C289 C284 1.399 . S
C289 C288 1.394 . S
C289 C290 1.516 . S
C290 C289 1.516 . S
C290 C291 1.502 . S
C290 C292 1.561 1_455 S
C290 C293 1.526 . S
C291 H275 0.959 . S
C291 H276 0.959 . S
C291 H277 0.961 . S
C291 C290 1.502 . S
C292 H278 0.960 . S
C292 H279 0.961 . S
C292 H280 0.959 . S
C292 C290 1.561 1_655 S
C293 C290 1.526 . S
C293 C294 1.396 . S
C293 C298 1.390 . S
C294 C288 1.465 . S
C294 C293 1.396 . S
C294 C295 1.399 . S
C295 H281 0.929 . S
C295 C294 1.399 . S
C295 C296 1.385 . S
C296 H282 0.931 . S
C296 C295 1.385 . S
C296 C297 1.389 . S
C297 C296 1.389 . S
C297 C298 1.387 . S
C298 H283 0.930 . S
C298 C293 1.390 . S
C298 C297 1.387 . S
H299 C311 0.930 . S
H300 C313 0.930 . S
H301 C314 0.930 . S
H302 C318 0.959 . S
H303 C318 0.959 . S
H304 C318 0.961 . S
H305 C319 0.960 . S
H306 C319 0.961 . S
H307 C319 0.959 . S
H308 C322 0.929 . S
H309 C323 0.931 . S
H310 C325 0.930 . S
C311 H299 0.930 . S
C311 C312 1.399 . S
C311 C316 1.399 . S
C312 C311 1.399 . S
C312 C313 1.376 . S
C313 H300 0.930 . S
C313 C312 1.376 . S
C313 C314 1.388 . S
C314 H301 0.930 . S
C314 C313 1.388 . S
C314 C315 1.390 . S
C315 C314 1.390 . S
C315 C316 1.394 . S
C315 C321 1.465 . S
C316 C311 1.399 . S
C316 C315 1.394 . S
C316 C317 1.516 . S
C317 C316 1.516 . S
C317 C318 1.502 . S
C317 C319 1.561 . S
C317 C320 1.526 . S
C318 H302 0.959 . S
C318 H303 0.959 . S
C318 H304 0.961 . S
C318 C317 1.502 . S
C319 H305 0.960 . S
C319 H306 0.961 . S
C319 H307 0.959 . S
C319 C317 1.561 . S
C320 C317 1.526 . S
C320 C321 1.396 . S
C320 C325 1.390 . S
C321 C315 1.465 . S
C321 C320 1.396 . S
C321 C322 1.399 . S
C322 H308 0.929 . S
C322 C321 1.399 . S
C322 C323 1.385 . S
C323 H309 0.931 . S
C323 C322 1.385 . S
C323 C324 1.389 . S
C324 C323 1.389 . S
C324 C325 1.387 . S
C325 H310 0.930 . S
C325 C320 1.390 . S
C325 C324 1.387 . S
H326 C338 0.930 . S
H327 C340 0.930 . S
H328 C341 0.930 . S
H329 C345 0.959 . S
H330 C345 0.959 . S
H331 C345 0.961 . S
H332 C346 0.960 . S
H333 C346 0.961 . S
H334 C346 0.959 . S
H335 C349 0.929 . S
H336 C350 0.931 . S
H337 C352 0.930 . S
C338 H326 0.930 . S
C338 C339 1.399 . S
C338 C343 1.399 . S
C339 C338 1.399 . S
C339 C340 1.376 . S
C340 H327 0.930 . S
C340 C339 1.376 . S
C340 C341 1.388 . S
C341 H328 0.930 . S
C341 C340 1.388 . S
C341 C342 1.390 . S
C342 C341 1.390 . S
C342 C343 1.394 . S
C342 C348 1.465 . S
C343 C338 1.399 . S
C343 C342 1.394 . S
C343 C344 1.516 . S
C344 C343 1.516 . S
C344 C345 1.502 . S
C344 C346 1.561 . S
C344 C347 1.526 . S
C345 H329 0.959 . S
C345 H330 0.959 . S
C345 H331 0.961 . S
C345 C344 1.502 . S
C346 H332 0.960 . S
C346 H333 0.961 . S
C346 H334 0.959 . S
C346 C344 1.561 . S
C347 C344 1.526 . S
C347 C348 1.396 . S
C347 C352 1.390 . S
C348 C342 1.465 . S
C348 C347 1.396 . S
C348 C349 1.399 . S
C349 H335 0.929 . S
C349 C348 1.399 . S
C349 C350 1.385 . S
C350 H336 0.931 . S
C350 C349 1.385 . S
C350 C351 1.389 . S
C351 C350 1.389 . S
C351 C352 1.387 . S
C352 H337 0.930 . S
C352 C347 1.390 . S
C352 C351 1.387 . S
H353 C365 0.930 . S
H354 C367 0.930 . S
H355 C368 0.930 . S
H356 C372 0.959 . S
H357 C372 0.959 . S
H358 C372 0.961 . S
H359 C373 0.960 . S
H360 C373 0.961 . S
H361 C373 0.959 . S
H362 C376 0.929 . S
H363 C377 0.931 . S
H364 C379 0.930 . S
C365 H353 0.930 . S
C365 C366 1.399 . S
C365 C370 1.399 . S
C366 C365 1.399 . S
C366 C367 1.376 . S
C367 H354 0.930 . S
C367 C366 1.376 . S
C367 C368 1.388 . S
C368 H355 0.930 . S
C368 C367 1.388 . S
C368 C369 1.390 . S
C369 C368 1.390 . S
C369 C370 1.394 . S
C369 C375 1.465 . S
C370 C365 1.399 . S
C370 C369 1.394 . S
C370 C371 1.516 . S
C371 C370 1.516 . S
C371 C372 1.502 . S
C371 C373 1.561 . S
C371 C374 1.526 . S
C372 H356 0.959 . S
C372 H357 0.959 . S
C372 H358 0.961 . S
C372 C371 1.502 . S
C373 H359 0.960 . S
C373 H360 0.961 . S
C373 H361 0.959 . S
C373 C371 1.561 . S
C374 C371 1.526 . S
C374 C375 1.396 . S
C374 C379 1.390 . S
C375 C369 1.465 . S
C375 C374 1.396 . S
C375 C376 1.399 . S
C376 H362 0.929 . S
C376 C375 1.399 . S
C376 C377 1.385 . S
C377 H363 0.931 . S
C377 C376 1.385 . S
C377 C378 1.389 . S
C378 C377 1.389 . S
C378 C379 1.387 . S
C379 H364 0.930 . S
C379 C374 1.390 . S
C379 C378 1.387 . S
H380 C392 0.930 . S
H381 C394 0.930 . S
H382 C395 0.930 . S
H383 C399 0.959 . S
H384 C399 0.959 . S
H385 C399 0.961 1_655 S
H386 C400 0.960 . S
H387 C400 0.961 . S
H388 C400 0.959 . S
H389 C403 0.929 1_554 S
H390 C404 0.931 . S
H391 C406 0.930 . S
C392 H380 0.930 . S
C392 C393 1.399 . S
C392 C397 1.399 . S
C393 C392 1.399 . S
C393 C394 1.376 . S
C394 H381 0.930 . S
C394 C393 1.376 . S
C394 C395 1.388 . S
C395 H382 0.930 . S
C395 C394 1.388 . S
C395 C396 1.390 . S
C396 C395 1.390 . S
C396 C397 1.394 . S
C396 C402 1.465 1_554 S
C397 C392 1.399 . S
C397 C396 1.394 . S
C397 C398 1.516 1_554 S
C398 C397 1.516 1_556 S
C398 C399 1.502 . S
C398 C400 1.561 . S
C398 C401 1.526 . S
C399 H383 0.959 . S
C399 H384 0.959 . S
C399 H385 0.961 1_455 S
C399 C398 1.502 . S
C400 H386 0.960 . S
C400 H387 0.961 . S
C400 H388 0.959 . S
C400 C398 1.561 . S
C401 C398 1.526 . S
C401 C402 1.396 . S
C401 C406 1.390 . S
C402 C396 1.465 1_556 S
C402 C401 1.396 . S
C402 C403 1.399 . S
C403 H389 0.929 1_556 S
C403 C402 1.399 . S
C403 C404 1.385 . S
C404 H390 0.931 . S
C404 C403 1.385 . S
C404 C405 1.389 . S
C405 C404 1.389 . S
C405 C406 1.387 . S
C406 H391 0.930 . S
C406 C401 1.390 . S
C406 C405 1.387 . S
H407 C419 0.930 . S
H408 C421 0.930 . S
H409 C422 0.930 . S
H410 C426 0.959 . S
H411 C426 0.959 . S
H412 C426 0.961 . S
H413 C427 0.960 . S
H414 C427 0.961 . S
H415 C427 0.959 . S
H416 C430 0.929 . S
H417 C431 0.931 1_455 S
H418 C433 0.930 . S
C419 H407 0.930 . S
C419 C420 1.399 . S
C419 C424 1.399 . S
C420 C419 1.399 . S
C420 C421 1.376 . S
C421 H408 0.930 . S
C421 C420 1.376 . S
C421 C422 1.388 . S
C422 H409 0.930 . S
C422 C421 1.388 . S
C422 C423 1.390 . S
C423 C422 1.390 . S
C423 C424 1.394 . S
C423 C429 1.465 . S
C424 C419 1.399 . S
C424 C423 1.394 . S
C424 C425 1.516 . S
C425 C424 1.516 . S
C425 C426 1.502 . S
C425 C427 1.561 . S
C425 C428 1.526 . S
C426 H410 0.959 . S
C426 H411 0.959 . S
C426 H412 0.961 . S
C426 C425 1.502 . S
C427 H413 0.960 . S
C427 H414 0.961 . S
C427 H415 0.959 . S
C427 C425 1.561 . S
C428 C425 1.526 . S
C428 C429 1.396 . S
C428 C433 1.390 . S
C429 C423 1.465 . S
C429 C428 1.396 . S
C429 C430 1.399 . S
C430 H416 0.929 . S
C430 C429 1.399 . S
C430 C431 1.385 . S
C431 H417 0.931 1_655 S
C431 C430 1.385 . S
C431 C432 1.389 . S
C432 C431 1.389 . S
C432 C433 1.387 . S
C433 H418 0.930 . S
C433 C428 1.390 . S
C433 C432 1.387 . S
H434 C446 0.930 . S
H435 C448 0.930 . S
H436 C449 0.930 . S
H437 C453 0.959 . S
H438 C453 0.959 . S
H439 C453 0.961 . S
H440 C454 0.960 . S
H441 C454 0.961 . S
H442 C454 0.959 . S
H443 C457 0.929 . S
H444 C458 0.931 . S
H445 C460 0.930 . S
C446 H434 0.930 . S
C446 C447 1.399 . S
C446 C451 1.399 . S
C447 C446 1.399 . S
C447 C448 1.376 . S
C448 H435 0.930 . S
C448 C447 1.376 . S
C448 C449 1.388 . S
C449 H436 0.930 . S
C449 C448 1.388 . S
C449 C450 1.390 . S
C450 C449 1.390 . S
C450 C451 1.394 . S
C450 C456 1.465 . S
C451 C446 1.399 . S
C451 C450 1.394 . S
C451 C452 1.516 . S
C452 C451 1.516 . S
C452 C453 1.502 . S
C452 C454 1.561 . S
C452 C455 1.526 . S
C453 H437 0.959 . S
C453 H438 0.959 . S
C453 H439 0.961 . S
C453 C452 1.502 . S
C454 H440 0.960 . S
C454 H441 0.961 . S
C454 H442 0.959 . S
C454 C452 1.561 . S
C455 C452 1.526 . S
C455 C456 1.396 . S
C455 C460 1.390 . S
C456 C450 1.465 . S
C456 C455 1.396 . S
C456 C457 1.399 . S
C457 H443 0.929 . S
C457 C456 1.399 . S
C457 C458 1.385 . S
C458 H444 0.931 . S
C458 C457 1.385 . S
C458 C459 1.389 . S
C459 C458 1.389 . S
C459 C460 1.387 . S
C460 H445 0.930 . S
C460 C455 1.390 . S
C460 C459 1.387 . S
H461 C473 0.930 . S
H462 C475 0.930 1_455 S
H463 C476 0.930 . S
H464 C480 0.959 . S
H465 C480 0.959 . S
H466 C480 0.961 . S
H467 C481 0.960 . S
H468 C481 0.961 . S
H469 C481 0.959 . S
H470 C484 0.929 . S
H471 C485 0.931 . S
H472 C487 0.930 . S
C473 H461 0.930 . S
C473 C474 1.399 . S
C473 C478 1.399 . S
C474 C473 1.399 . S
C474 C475 1.376 . S
C475 H462 0.930 1_655 S
C475 C474 1.376 . S
C475 C476 1.388 . S
C476 H463 0.930 . S
C476 C475 1.388 . S
C476 C477 1.390 . S
C477 C476 1.390 . S
C477 C478 1.394 . S
C477 C483 1.465 . S
C478 C473 1.399 . S
C478 C477 1.394 . S
C478 C479 1.516 . S
C479 C478 1.516 . S
C479 C480 1.502 . S
C479 C481 1.561 . S
C479 C482 1.526 . S
C480 H464 0.959 . S
C480 H465 0.959 . S
C480 H466 0.961 . S
C480 C479 1.502 . S
C481 H467 0.960 . S
C481 H468 0.961 . S
C481 H469 0.959 . S
C481 C479 1.561 . S
C482 C479 1.526 . S
C482 C483 1.396 . S
C482 C487 1.390 . S
C483 C477 1.465 . S
C483 C482 1.396 . S
C483 C484 1.399 . S
C484 H470 0.929 . S
C484 C483 1.399 . S
C484 C485 1.385 . S
C485 H471 0.931 . S
C485 C484 1.385 . S
C485 C486 1.389 . S
C486 C485 1.389 . S
C486 C487 1.387 . S
C487 H472 0.930 . S
C487 C482 1.390 . S
C487 C486 1.387 . S
H488 C500 0.930 . S
H489 C502 0.930 . S
H490 C503 0.930 . S
H491 C507 0.959 . S
H492 C507 0.959 . S
H493 C507 0.961 . S
H494 C508 0.960 . S
H495 C508 0.961 . S
H496 C508 0.959 . S
H497 C511 0.929 . S
H498 C512 0.931 . S
H499 C514 0.930 . S
C500 H488 0.930 . S
C500 C501 1.399 . S
C500 C505 1.399 . S
C501 C500 1.399 . S
C501 C502 1.376 . S
C502 H489 0.930 . S
C502 C501 1.376 . S
C502 C503 1.388 . S
C503 H490 0.930 . S
C503 C502 1.388 . S
C503 C504 1.390 . S
C504 C503 1.390 . S
C504 C505 1.394 . S
C504 C510 1.465 . S
C505 C500 1.399 . S
C505 C504 1.394 . S
C505 C506 1.516 . S
C506 C505 1.516 . S
C506 C507 1.502 . S
C506 C508 1.561 . S
C506 C509 1.526 . S
C507 H491 0.959 . S
C507 H492 0.959 . S
C507 H493 0.961 . S
C507 C506 1.502 . S
C508 H494 0.960 . S
C508 H495 0.961 . S
C508 H496 0.959 . S
C508 C506 1.561 . S
C509 C506 1.526 . S
C509 C510 1.396 . S
C509 C514 1.390 . S
C510 C504 1.465 . S
C510 C509 1.396 . S
C510 C511 1.399 . S
C511 H497 0.929 . S
C511 C510 1.399 . S
C511 C512 1.385 . S
C512 H498 0.931 . S
C512 C511 1.385 . S
C512 C513 1.389 . S
C513 C512 1.389 . S
C513 C514 1.387 . S
C514 H499 0.930 . S
C514 C509 1.390 . S
C514 C513 1.387 . S
H515 C527 0.930 . S
H516 C529 0.930 . S
H517 C530 0.930 . S
H518 C534 0.959 . S
H519 C534 0.959 . S
H520 C534 0.961 . S
H521 C535 0.960 . S
H522 C535 0.961 . S
H523 C535 0.959 . S
H524 C538 0.929 . S
H525 C539 0.931 . S
H526 C541 0.930 . S
C527 H515 0.930 . S
C527 C528 1.399 . S
C527 C532 1.399 . S
C528 C527 1.399 . S
C528 C529 1.376 . S
C529 H516 0.930 . S
C529 C528 1.376 . S
C529 C530 1.388 . S
C530 H517 0.930 . S
C530 C529 1.388 . S
C530 C531 1.390 . S
C531 C530 1.390 . S
C531 C532 1.394 . S
C531 C537 1.465 . S
C532 C527 1.399 . S
C532 C531 1.394 . S
C532 C533 1.516 . S
C533 C532 1.516 . S
C533 C534 1.502 . S
C533 C535 1.561 . S
C533 C536 1.526 . S
C534 H518 0.959 . S
C534 H519 0.959 . S
C534 H520 0.961 . S
C534 C533 1.502 . S
C535 H521 0.960 . S
C535 H522 0.961 . S
C535 H523 0.959 . S
C535 C533 1.561 . S
C536 C533 1.526 . S
C536 C537 1.396 . S
C536 C541 1.390 . S
C537 C531 1.465 . S
C537 C536 1.396 . S
C537 C538 1.399 . S
C538 H524 0.929 . S
C538 C537 1.399 . S
C538 C539 1.385 . S
C539 H525 0.931 . S
C539 C538 1.385 . S
C539 C540 1.389 . S
C540 C539 1.389 . S
C540 C541 1.387 . S
C541 H526 0.930 . S
C541 C536 1.390 . S
C541 C540 1.387 . S
H542 C554 0.930 . S
H543 C556 0.930 . S
H544 C557 0.930 1_545 S
H545 C561 0.959 1_545 S
H546 C561 0.959 . S
H547 C561 0.961 . S
H548 C562 0.960 . S
H549 C562 0.961 . S
H550 C562 0.959 . S
H551 C565 0.929 . S
H552 C566 0.931 . S
H553 C568 0.930 . S
C554 H542 0.930 . S
C554 C555 1.399 . S
C554 C559 1.399 . S
C555 C554 1.399 . S
C555 C556 1.376 . S
C556 H543 0.930 . S
C556 C555 1.376 . S
C556 C557 1.388 . S
C557 H544 0.930 1_565 S
C557 C556 1.388 . S
C557 C558 1.390 . S
C558 C557 1.390 . S
C558 C559 1.394 . S
C558 C564 1.465 1_565 S
C559 C554 1.399 . S
C559 C558 1.394 . S
C559 C560 1.516 . S
C560 C559 1.516 . S
C560 C561 1.502 . S
C560 C562 1.561 . S
C560 C563 1.526 1_565 S
C561 H545 0.959 1_565 S
C561 H546 0.959 . S
C561 H547 0.961 . S
C561 C560 1.502 . S
C562 H548 0.960 . S
C562 H549 0.961 . S
C562 H550 0.959 . S
C562 C560 1.561 . S
C563 C560 1.526 1_545 S
C563 C564 1.396 . S
C563 C568 1.390 . S
C564 C558 1.465 1_545 S
C564 C563 1.396 . S
C564 C565 1.399 . S
C565 H551 0.929 . S
C565 C564 1.399 . S
C565 C566 1.385 . S
C566 H552 0.931 . S
C566 C565 1.385 . S
C566 C567 1.389 . S
C567 C566 1.389 . S
C567 C568 1.387 . S
C568 H553 0.930 . S
C568 C563 1.390 . S
C568 C567 1.387 . S
H569 C581 0.930 . S
H570 C583 0.930 . S
H571 C584 0.930 . S
H572 C588 0.959 . S
H573 C588 0.959 . S
H574 C588 0.961 . S
H575 C589 0.960 . S
H576 C589 0.961 . S
H577 C589 0.959 . S
H578 C592 0.929 1_554 S
H579 C593 0.931 . S
H580 C595 0.930 . S
C581 H569 0.930 . S
C581 C582 1.399 . S
C581 C586 1.399 . S
C582 C581 1.399 . S
C582 C583 1.376 . S
C583 H570 0.930 . S
C583 C582 1.376 . S
C583 C584 1.388 1_565 S
C584 H571 0.930 . S
C584 C583 1.388 1_545 S
C584 C585 1.390 . S
C585 C584 1.390 . S
C585 C586 1.394 1_545 S
C585 C591 1.465 1_554 S
C586 C581 1.399 . S
C586 C585 1.394 1_565 S
C586 C587 1.516 1_554 S
C587 C586 1.516 1_556 S
C587 C588 1.502 . S
C587 C589 1.561 . S
C587 C590 1.526 1_565 S
C588 H572 0.959 . S
C588 H573 0.959 . S
C588 H574 0.961 . S
C588 C587 1.502 . S
C589 H575 0.960 . S
C589 H576 0.961 . S
C589 H577 0.959 . S
C589 C587 1.561 . S
C590 C587 1.526 1_545 S
C590 C591 1.396 . S
C590 C595 1.390 . S
C591 C585 1.465 1_556 S
C591 C590 1.396 . S
C591 C592 1.399 . S
C592 H578 0.929 1_556 S
C592 C591 1.399 . S
C592 C593 1.385 . S
C593 H579 0.931 . S
C593 C592 1.385 . S
C593 C594 1.389 . S
C594 C593 1.389 . S
C594 C595 1.387 . S
C595 H580 0.930 . S
C595 C590 1.390 . S
C595 C594 1.387 . S
H596 C608 0.930 . S
H597 C610 0.930 . S
H598 C611 0.930 . S
H599 C615 0.959 . S
H600 C615 0.959 . S
H601 C615 0.961 . S
H602 C616 0.960 . S
H603 C616 0.961 . S
H604 C616 0.959 . S
H605 C619 0.929 . S
H606 C620 0.931 . S
H607 C622 0.930 . S
C608 H596 0.930 . S
C608 C609 1.399 . S
C608 C613 1.399 . S
C609 C608 1.399 . S
C609 C610 1.376 . S
C610 H597 0.930 . S
C610 C609 1.376 . S
C610 C611 1.388 . S
C611 H598 0.930 . S
C611 C610 1.388 . S
C611 C612 1.390 . S
C612 C611 1.390 . S
C612 C613 1.394 . S
C612 C618 1.465 . S
C613 C608 1.399 . S
C613 C612 1.394 . S
C613 C614 1.516 . S
C614 C613 1.516 . S
C614 C615 1.502 . S
C614 C616 1.561 . S
C614 C617 1.526 . S
C615 H599 0.959 . S
C615 H600 0.959 . S
C615 H601 0.961 . S
C615 C614 1.502 . S
C616 H602 0.960 . S
C616 H603 0.961 . S
C616 H604 0.959 . S
C616 C614 1.561 . S
C617 C614 1.526 . S
C617 C618 1.396 . S
C617 C622 1.390 . S
C618 C612 1.465 . S
C618 C617 1.396 . S
C618 C619 1.399 . S
C619 H605 0.929 . S
C619 C618 1.399 . S
C619 C620 1.385 . S
C620 H606 0.931 . S
C620 C619 1.385 . S
C620 C621 1.389 . S
C621 C620 1.389 . S
C621 C622 1.387 . S
C622 H607 0.930 . S
C622 C617 1.390 . S
C622 C621 1.387 . S
H623 C635 0.930 . S
H624 C637 0.930 . S
H625 C638 0.930 . S
H626 C642 0.959 . S
H627 C642 0.959 . S
H628 C642 0.961 . S
H629 C643 0.960 . S
H630 C643 0.961 . S
H631 C643 0.959 . S
H632 C646 0.929 . S
H633 C647 0.931 1_565 S
H634 C649 0.930 . S
C635 H623 0.930 . S
C635 C636 1.399 . S
C635 C640 1.399 . S
C636 C635 1.399 . S
C636 C637 1.376 . S
C637 H624 0.930 . S
C637 C636 1.376 . S
C637 C638 1.388 . S
C638 H625 0.930 . S
C638 C637 1.388 . S
C638 C639 1.390 . S
C639 C638 1.390 . S
C639 C640 1.394 . S
C639 C645 1.465 . S
C640 C635 1.399 . S
C640 C639 1.394 . S
C640 C641 1.516 . S
C641 C640 1.516 . S
C641 C642 1.502 . S
C641 C643 1.561 . S
C641 C644 1.526 . S
C642 H626 0.959 . S
C642 H627 0.959 . S
C642 H628 0.961 . S
C642 C641 1.502 . S
C643 H629 0.960 . S
C643 H630 0.961 . S
C643 H631 0.959 . S
C643 C641 1.561 . S
C644 C641 1.526 . S
C644 C645 1.396 . S
C644 C649 1.390 . S
C645 C639 1.465 . S
C645 C644 1.396 . S
C645 C646 1.399 . S
C646 H632 0.929 . S
C646 C645 1.399 . S
C646 C647 1.385 . S
C647 H633 0.931 1_545 S
C647 C646 1.385 . S
C647 C648 1.385 1_545 S
C648 C647 1.385 1_565 S
C648 C649 1.377 1_565 S
C649 H634 0.930 . S
C649 C644 1.390 . S
C649 C648 1.377 1_545 S
H650 C662 0.930 . S
H651 C664 0.930 . S
H652 C665 0.930 . S
H653 C669 0.959 . S
H654 C669 0.959 . S
H655 C669 0.961 . S
H656 C670 0.960 . S
H657 C670 0.961 . S
H658 C670 0.959 . S
H659 C673 0.929 . S
H660 C674 0.931 . S
H661 C676 0.930 . S
C662 H650 0.930 . S
C662 C663 1.399 . S
C662 C667 1.399 . S
C663 C662 1.399 . S
C663 C664 1.376 . S
C664 H651 0.930 . S
C664 C663 1.376 . S
C664 C665 1.388 . S
C665 H652 0.930 . S
C665 C664 1.388 . S
C665 C666 1.390 . S
C666 C665 1.390 . S
C666 C667 1.394 . S
C666 C672 1.465 . S
C667 C662 1.399 . S
C667 C666 1.394 . S
C667 C668 1.516 . S
C668 C667 1.516 . S
C668 C669 1.502 . S
C668 C670 1.561 . S
C668 C671 1.526 . S
C669 H653 0.959 . S
C669 H654 0.959 . S
C669 H655 0.961 . S
C669 C668 1.502 . S
C670 H656 0.960 . S
C670 H657 0.961 . S
C670 H658 0.959 . S
C670 C668 1.561 . S
C671 C668 1.526 . S
C671 C672 1.396 . S
C671 C676 1.390 1_455 S
C672 C666 1.465 . S
C672 C671 1.396 . S
C672 C673 1.399 . S
C673 H659 0.929 . S
C673 C672 1.399 . S
C673 C674 1.385 1_455 S
C674 H660 0.931 . S
C674 C673 1.385 1_655 S
C674 C675 1.389 . S
C675 C674 1.389 . S
C675 C676 1.387 . S
C676 H661 0.930 . S
C676 C671 1.390 1_655 S
C676 C675 1.387 . S
H677 C689 0.930 . S
H678 C691 0.930 . S
H679 C692 0.930 . S
H680 C696 0.959 . S
H681 C696 0.959 . S
H682 C696 0.961 . S
H683 C697 0.960 . S
H684 C697 0.961 . S
H685 C697 0.959 . S
H686 C700 0.929 . S
H687 C701 0.931 . S
H688 C703 0.930 . S
C689 H677 0.930 . S
C689 C690 1.399 . S
C689 C694 1.399 . S
C690 C689 1.399 . S
C690 C691 1.376 . S
C691 H678 0.930 . S
C691 C690 1.376 . S
C691 C692 1.388 . S
C692 H679 0.930 . S
C692 C691 1.388 . S
C692 C693 1.390 . S
C693 C692 1.390 . S
C693 C694 1.394 . S
C693 C699 1.465 . S
C694 C689 1.399 . S
C694 C693 1.394 . S
C694 C695 1.516 . S
C695 C694 1.516 . S
C695 C696 1.502 1_455 S
C695 C697 1.561 . S
C695 C698 1.526 . S
C696 H680 0.959 . S
C696 H681 0.959 . S
C696 H682 0.961 . S
C696 C695 1.502 1_655 S
C697 H683 0.960 . S
C697 H684 0.961 . S
C697 H685 0.959 . S
C697 C695 1.561 . S
C698 C695 1.526 . S
C698 C699 1.396 . S
C698 C703 1.390 . S
C699 C693 1.465 . S
C699 C698 1.396 . S
C699 C700 1.399 . S
C700 H686 0.929 . S
C700 C699 1.399 . S
C700 C701 1.385 . S
C701 H687 0.931 . S
C701 C700 1.385 . S
C701 C702 1.389 . S
C702 C701 1.389 . S
C702 C703 1.387 . S
C703 H688 0.930 . S
C703 C698 1.390 . S
C703 C702 1.387 . S
H704 C716 0.930 . S
H705 C718 0.930 . S
H706 C719 0.930 . S
H707 C723 0.959 . S
H708 C723 0.959 . S
H709 C723 0.961 . S
H710 C724 0.960 . S
H711 C724 0.961 . S
H712 C724 0.959 . S
H713 C727 0.929 . S
H714 C728 0.931 . S
H715 C730 0.930 . S
C716 H704 0.930 . S
C716 C717 1.399 . S
C716 C721 1.399 . S
C717 C716 1.399 . S
C717 C718 1.376 . S
C718 H705 0.930 . S
C718 C717 1.376 . S
C718 C719 1.388 . S
C719 H706 0.930 . S
C719 C718 1.388 . S
C719 C720 1.390 . S
C720 C719 1.390 . S
C720 C721 1.394 . S
C720 C726 1.465 . S
C721 C716 1.399 . S
C721 C720 1.394 . S
C721 C722 1.516 . S
C722 C721 1.516 . S
C722 C723 1.502 . S
C722 C724 1.561 . S
C722 C725 1.526 . S
C723 H707 0.959 . S
C723 H708 0.959 . S
C723 H709 0.961 . S
C723 C722 1.502 . S
C724 H710 0.960 . S
C724 H711 0.961 . S
C724 H712 0.959 . S
C724 C722 1.561 . S
C725 C722 1.526 . S
C725 C726 1.396 . S
C725 C730 1.390 . S
C726 C720 1.465 . S
C726 C725 1.396 . S
C726 C727 1.399 . S
C727 H713 0.929 . S
C727 C726 1.399 . S
C727 C728 1.385 . S
C728 H714 0.931 . S
C728 C727 1.385 . S
C728 C729 1.389 . S
C729 C728 1.389 . S
C729 C730 1.387 . S
C730 H715 0.930 . S
C730 C725 1.390 . S
C730 C729 1.387 . S
H731 C743 0.930 . S
H732 C745 0.930 1_655 S
H733 C746 0.930 1_655 S
H734 C750 0.959 . S
H735 C750 0.959 . S
H736 C750 0.961 . S
H737 C751 0.960 . S
H738 C751 0.961 . S
H739 C751 0.959 1_655 S
H740 C754 0.929 1_655 S
H741 C755 0.931 . S
H742 C757 0.930 . S
C743 H731 0.930 . S
C743 C744 1.399 . S
C743 C748 1.399 . S
C744 C743 1.399 . S
C744 C745 1.376 . S
C745 H732 0.930 1_455 S
C745 C744 1.376 . S
C745 C746 1.388 . S
C746 H733 0.930 1_455 S
C746 C745 1.388 . S
C746 C747 1.390 . S
C747 C746 1.390 . S
C747 C748 1.394 . S
C747 C753 1.465 . S
C748 C743 1.399 . S
C748 C747 1.394 . S
C748 C749 1.516 . S
C749 C748 1.516 . S
C749 C750 1.502 . S
C749 C751 1.561 . S
C749 C752 1.526 . S
C750 H734 0.959 . S
C750 H735 0.959 . S
C750 H736 0.961 . S
C750 C749 1.502 . S
C751 H737 0.960 . S
C751 H738 0.961 . S
C751 H739 0.959 1_455 S
C751 C749 1.561 . S
C752 C749 1.526 . S
C752 C753 1.396 . S
C752 C757 1.390 . S
C753 C747 1.465 . S
C753 C752 1.396 . S
C753 C754 1.399 . S
C754 H740 0.929 1_455 S
C754 C753 1.399 . S
C754 C755 1.385 . S
C755 H741 0.931 . S
C755 C754 1.385 . S
C755 C756 1.389 . S
C756 C755 1.389 . S
C756 C757 1.387 . S
C757 H742 0.930 . S
C757 C752 1.390 . S
C757 C756 1.387 . S
H758 C770 0.930 . S
H759 C772 0.930 . S
H760 C773 0.930 . S
H761 C777 0.959 . S
H762 C777 0.959 . S
H763 C777 0.961 . S
H764 C778 0.960 . S
H765 C778 0.961 . S
H766 C778 0.959 . S
H767 C781 0.929 . S
H768 C782 0.931 . S
H769 C784 0.930 . S
C770 H758 0.930 . S
C770 C771 1.399 . S
C770 C775 1.399 . S
C771 C770 1.399 . S
C771 C772 1.376 . S
C772 H759 0.930 . S
C772 C771 1.376 . S
C772 C773 1.388 . S
C773 H760 0.930 . S
C773 C772 1.388 . S
C773 C774 1.390 . S
C774 C773 1.390 . S
C774 C775 1.394 . S
C774 C780 1.465 . S
C775 C770 1.399 . S
C775 C774 1.394 . S
C775 C776 1.516 . S
C776 C775 1.516 . S
C776 C777 1.502 . S
C776 C778 1.561 . S
C776 C779 1.526 . S
C777 H761 0.959 . S
C777 H762 0.959 . S
C777 H763 0.961 . S
C777 C776 1.502 . S
C778 H764 0.960 . S
C778 H765 0.961 . S
C778 H766 0.959 . S
C778 C776 1.561 . S
C779 C776 1.526 . S
C779 C780 1.396 . S
C779 C784 1.390 . S
C780 C774 1.465 . S
C780 C779 1.396 . S
C780 C781 1.399 . S
C781 H767 0.929 . S
C781 C780 1.399 . S
C781 C782 1.385 . S
C782 H768 0.931 . S
C782 C781 1.385 . S
C782 C783 1.389 . S
C783 C782 1.389 . S
C783 C784 1.387 . S
C784 H769 0.930 . S
C784 C779 1.390 . S
C784 C783 1.387 . S
H785 C797 0.930 . S
H786 C799 0.930 . S
H787 C800 0.930 . S
H788 C804 0.959 . S
H789 C804 0.959 . S
H790 C804 0.961 . S
H791 C805 0.960 . S
H792 C805 0.961 . S
H793 C805 0.959 . S
H794 C808 0.929 . S
H795 C809 0.931 . S
H796 C811 0.930 . S
C797 H785 0.930 . S
C797 C798 1.399 . S
C797 C802 1.399 . S
C798 C797 1.399 . S
C798 C799 1.376 . S
C799 H786 0.930 . S
C799 C798 1.376 . S
C799 C800 1.388 . S
C800 H787 0.930 . S
C800 C799 1.388 . S
C800 C801 1.390 . S
C801 C800 1.390 . S
C801 C802 1.394 . S
C801 C807 1.465 . S
C802 C797 1.399 . S
C802 C801 1.394 . S
C802 C803 1.516 . S
C803 C802 1.516 . S
C803 C804 1.502 . S
C803 C805 1.561 . S
C803 C806 1.526 . S
C804 H788 0.959 . S
C804 H789 0.959 . S
C804 H790 0.961 . S
C804 C803 1.502 . S
C805 H791 0.960 . S
C805 H792 0.961 . S
C805 H793 0.959 . S
C805 C803 1.561 . S
C806 C803 1.526 . S
C806 C807 1.396 . S
C806 C811 1.390 . S
C807 C801 1.465 . S
C807 C806 1.396 . S
C807 C808 1.399 . S
C808 H794 0.929 . S
C808 C807 1.399 . S
C808 C809 1.385 . S
C809 H795 0.931 . S
C809 C808 1.385 . S
C809 C810 1.389 . S
C810 C809 1.389 . S
C810 C811 1.387 . S
C811 H796 0.930 . S
C811 C806 1.390 . S
C811 C810 1.387 . S
C285 C20 1.466 . S
C297 C190 1.461 . S
C312 C224 1.486 . S
C324 C54 1.487 . S
C339 C88 1.436 . S
C351 C258 1.467 . S
C366 C156 1.488 . S
C378 C122 1.485 . S
C393 C33 1.171 . S
C405 C138 1.171 . S
C420 C67 1.172 . S
C432 C172 1.142 1_655 S
C447 C237 1.173 . S
C459 C70 1.158 . S
C474 C104 1.163 1_655 S
C486 C271 1.179 . S
C501 C135 1.155 . S
C513 C240 1.149 . S
C528 C203 1.158 . S
C540 C36 1.180 . S
C555 C206 1.180 . S
C567 C101 1.157 . S
C582 C2 1.176 . S
C594 C169 1.133 . S
C609 C9 1.424 . S
C621 C5 1.573 . S
C636 C43 1.440 . S
C648 C39 1.580 . S
C663 C77 1.443 . S
C675 C73 1.568 . S
C690 C111 1.439 . S
C702 C107 1.565 . S
C717 C141 1.552 . S
C729 C145 1.510 . S
C744 C179 1.498 . S
C756 C175 1.553 . S
C771 C213 1.511 1_455 S
C783 C209 1.552 . S
C798 C243 1.549 1_565 S
C810 C247 1.501 . S
