# Generated by pormake.
# Topology vmh, (6)-cn, num edge types: 1
# Building blocks:
#     Node 0, Type 0, BuildingBlock: OJICUG_clean_sbu_0, # of connection points: 6
#     Node 1, Type 0, BuildingBlock: OJICUG_clean_sbu_0, # of connection points: 6
#     Node 2, Type 0, BuildingBlock: OJICUG_clean_sbu_0, # of connection points: 6
#     Node 3, Type 0, BuildingBlock: OJICUG_clean_sbu_0, # of connection points: 6
#     Node 4, Type 0, BuildingBlock: OJICUG_clean_sbu_0, # of connection points: 6
#     Node 5, Type 0, BuildingBlock: OJICUG_clean_sbu_0, # of connection points: 6
#     Node 6, Type 0, BuildingBlock: OJICUG_clean_sbu_0, # of connection points: 6
#     Node 7, Type 0, BuildingBlock: OJICUG_clean_sbu_0, # of connection points: 6
#     Edge 8, Type (0, 0), BuildingBlock: XIVTED_clean_linker_0, # of connection points: 2
#     Edge 9, Type (0, 0), BuildingBlock: XIVTED_clean_linker_0, # of connection points: 2
#     Edge 10, Type (0, 0), BuildingBlock: XIVTED_clean_linker_0, # of connection points: 2
#     Edge 11, Type (0, 0), BuildingBlock: XIVTED_clean_linker_0, # of connection points: 2
#     Edge 12, Type (0, 0), BuildingBlock: XIVTED_clean_linker_0, # of connection points: 2
#     Edge 13, Type (0, 0), BuildingBlock: XIVTED_clean_linker_0, # of connection points: 2
#     Edge 14, Type (0, 0), BuildingBlock: XIVTED_clean_linker_0, # of connection points: 2
#     Edge 15, Type (0, 0), BuildingBlock: XIVTED_clean_linker_0, # of connection points: 2
#     Edge 16, Type (0, 0), BuildingBlock: XIVTED_clean_linker_0, # of connection points: 2
#     Edge 17, Type (0, 0), BuildingBlock: XIVTED_clean_linker_0, # of connection points: 2
#     Edge 18, Type (0, 0), BuildingBlock: XIVTED_clean_linker_0, # of connection points: 2
#     Edge 19, Type (0, 0), BuildingBlock: XIVTED_clean_linker_0, # of connection points: 2
#     Edge 20, Type (0, 0), BuildingBlock: XIVTED_clean_linker_0, # of connection points: 2
#     Edge 21, Type (0, 0), BuildingBlock: XIVTED_clean_linker_0, # of connection points: 2
#     Edge 22, Type (0, 0), BuildingBlock: XIVTED_clean_linker_0, # of connection points: 2
#     Edge 23, Type (0, 0), BuildingBlock: XIVTED_clean_linker_0, # of connection points: 2
#     Edge 24, Type (0, 0), BuildingBlock: XIVTED_clean_linker_0, # of connection points: 2
#     Edge 25, Type (0, 0), BuildingBlock: XIVTED_clean_linker_0, # of connection points: 2
#     Edge 26, Type (0, 0), BuildingBlock: XIVTED_clean_linker_0, # of connection points: 2
#     Edge 27, Type (0, 0), BuildingBlock: XIVTED_clean_linker_0, # of connection points: 2
#     Edge 28, Type (0, 0), BuildingBlock: XIVTED_clean_linker_0, # of connection points: 2
#     Edge 29, Type (0, 0), BuildingBlock: XIVTED_clean_linker_0, # of connection points: 2
#     Edge 30, Type (0, 0), BuildingBlock: XIVTED_clean_linker_0, # of connection points: 2
#     Edge 31, Type (0, 0), BuildingBlock: XIVTED_clean_linker_0, # of connection points: 2
# Relax obj value: 0.243
# Max RMSD: 0.270
# Mean RMSD: 0.270
data_MOF--net-vmh--node1-OJICUG_clean_sbu_0--edge1-XIVTED_clean_linker_0
_symmetry_space_group_name_H-M    P1
_symmetry_Int_Tables_number       1
_symmetry_cell_setting            triclinic
loop_
_symmetry_equiv_pos_as_xyz
'x, y, z'
_cell_length_a     28.524669
_cell_length_b     43.153959
_cell_length_c     30.240439
_cell_angle_alpha  89.986728
_cell_angle_beta   100.04092
_cell_angle_gamma 90.015731
loop_
_atom_site_label
_atom_site_type_symbol
_atom_site_fract_x
_atom_site_fract_y
_atom_site_fract_z
_atom_type_partial_charge
Sc0 Sc 0.23178 0.08845 0.12063 0.0
Sc1 Sc 0.24905 0.02375 0.05832 0.0
Sc2 Sc 0.30394 0.09259 0.04054 0.0
O3 O 0.26117 0.06859 0.07274 0.0
C4 C 0.23187 0.14425 0.0508 0.0
C5 C 0.14858 0.04632 0.07621 0.0
C6 C 0.23836 0.05271 0.96411 0.0
C7 C 0.26109 0.02113 0.15935 0.0
C8 C 0.33924 0.11142 0.14236 0.0
C9 C 0.35409 0.03116 0.03859 0.0
O10 O 0.22527 0.13417 0.08889 0.0
O11 O 0.17934 0.02501 0.07632 0.0
O12 O 0.2729 0.07116 0.97764 0.0
O13 O 0.2363 0.04579 0.1583 0.0
O14 O 0.33931 0.11557 0.10066 0.0
O15 O 0.31558 0.01599 0.03541 0.0
O16 O 0.30312 0.10021 0.15681 0.0
O17 O 0.27894 0.01159 0.12611 0.0
O18 O 0.35787 0.05827 0.05448 0.0
O19 O 0.16071 0.07457 0.08517 0.0
O20 O 0.25306 0.12851 0.02497 0.0
O21 O 0.21919 0.03587 0.99066 0.0
Sc22 Sc 0.76883 0.08542 0.36492 0.0
Sc23 Sc 0.75308 0.02134 0.42938 0.0
Sc24 Sc 0.69722 0.09016 0.44577 0.0
O25 O 0.74 0.06597 0.41364 0.0
C26 C 0.76943 0.14186 0.43366 0.0
C27 C 0.85281 0.04373 0.40949 0.0
C28 C 0.76436 0.05168 0.52289 0.0
C29 C 0.73958 0.01745 0.32818 0.0
C30 C 0.66107 0.10839 0.34351 0.0
C31 C 0.64851 0.02832 0.45055 0.0
O32 O 0.77638 0.13126 0.39599 0.0
O33 O 0.82235 0.0224 0.41055 0.0
O34 O 0.72963 0.0699 0.50906 0.0
O35 O 0.76349 0.04241 0.32797 0.0
O36 O 0.66055 0.11186 0.38525 0.0
O37 O 0.68723 0.01347 0.4533 0.0
O38 O 0.69734 0.09745 0.32902 0.0
O39 O 0.72275 0.00809 0.36212 0.0
O40 O 0.64382 0.05529 0.43417 0.0
O41 O 0.84029 0.07181 0.39982 0.0
O42 O 0.74714 0.12684 0.4594 0.0
O43 O 0.78343 0.03451 0.49662 0.0
Sc44 Sc 0.76174 0.9099 0.87939 0.0
Sc45 Sc 0.72018 0.97872 0.91668 0.0
Sc46 Sc 0.66729 0.909 0.93601 0.0
O47 O 0.71736 0.93289 0.91169 0.0
C48 C 0.66233 0.88126 0.84323 0.0
C49 C 0.74803 0.97259 0.82304 0.0
C50 C 0.6084 0.96438 0.89237 0.0
C51 C 0.8303 0.95782 0.9363 0.0
C52 C 0.74741 0.86362 0.95966 0.0
C53 C 0.69439 0.96073 0.00935 0.0
O54 O 0.69822 0.89482 0.83184 0.0
O55 O 0.72041 0.98513 0.84649 0.0
O56 O 0.61257 0.93511 0.89538 0.0
O57 O 0.82342 0.92914 0.92527 0.0
O58 O 0.72122 0.88239 0.97656 0.0
O59 O 0.72152 0.97539 0.98752 0.0
O60 O 0.76005 0.86885 0.92177 0.0
O61 O 0.79688 0.97786 0.93035 0.0
O62 O 0.66626 0.93954 -0.00806 0.0
O63 O 0.7691 0.94708 0.83384 0.0
O64 O 0.6628 0.87475 0.88406 0.0
O65 O 0.64347 0.9828 0.90367 0.0
Sc66 Sc 0.24003 0.90824 0.60712 0.0
Sc67 Sc 0.28069 0.97813 0.57257 0.0
Sc68 Sc 0.33398 0.90921 0.54986 0.0
O69 O 0.28398 0.93222 0.57546 0.0
C70 C 0.34019 0.88036 0.64231 0.0
C71 C 0.25283 0.9699 0.66561 0.0
C72 C 0.39265 0.96444 0.59522 0.0
C73 C 0.17092 0.9564 0.55164 0.0
C74 C 0.25503 0.86308 0.5259 0.0
C75 C 0.30546 0.96231 0.47866 0.0
O76 O 0.30393 0.89321 0.65413 0.0
O77 O 0.28089 0.98279 0.64298 0.0
O78 O 0.38877 0.93526 0.59046 0.0
O79 O 0.17825 0.92756 0.5615 0.0
O80 O 0.28028 0.88252 0.50913 0.0
O81 O 0.27918 0.97659 0.50174 0.0
O82 O 0.24256 0.8677 0.56399 0.0
O83 O 0.20391 0.97673 0.55894 0.0
O84 O 0.33325 0.94051 0.49446 0.0
O85 O 0.23158 0.94463 0.65363 0.0
O86 O 0.3399 0.87444 0.6013 0.0
O87 O 0.35733 0.98282 0.58544 0.0
Sc88 Sc 0.7385 0.58629 0.11768 0.0
Sc89 Sc 0.75415 0.5221 0.05346 0.0
Sc90 Sc 0.81019 0.59088 0.03693 0.0
O91 O 0.76733 0.56672 0.06906 0.0
C92 C 0.73824 0.64264 0.04885 0.0
C93 C 0.65431 0.54484 0.07278 0.0
C94 C 0.74367 0.55215 0.95973 0.0
C95 C 0.76669 0.51825 0.15461 0.0
C96 C 0.84634 0.60901 0.13914 0.0
C97 C 0.85914 0.5289 0.0332 0.0
O98 O 0.73151 0.63215 0.08665 0.0
O99 O 0.6846 0.52343 0.07161 0.0
O100 O 0.77823 0.57047 0.97364 0.0
O101 O 0.7431 0.54333 0.15467 0.0
O102 O 0.84659 0.61279 0.0974 0.0
O103 O 0.82039 0.51407 0.03043 0.0
O104 O 0.81013 0.59798 0.15367 0.0
O105 O 0.78381 0.50885 0.12088 0.0
O106 O 0.86369 0.5561 0.0488 0.0
O107 O 0.667 0.57289 0.08258 0.0
O108 O 0.7601 0.62745 0.02296 0.0
O109 O 0.72442 0.53507 0.98598 0.0
Sc110 Sc 0.27672 0.58837 0.36059 0.0
Sc111 Sc 0.2593 0.52386 0.42335 0.0
Sc112 Sc 0.20457 0.59286 0.44066 0.0
O113 O 0.24724 0.56863 0.40858 0.0
C114 C 0.2767 0.64432 0.4301 0.0
C115 C 0.36002 0.54652 0.40578 0.0
C116 C 0.26913 0.55286 0.51756 0.0
C117 C 0.24841 0.52079 0.32239 0.0
C118 C 0.16935 0.6113 0.33874 0.0
C119 C 0.1537 0.53138 0.44185 0.0
O120 O 0.28289 0.63423 0.3919 0.0
O121 O 0.32938 0.52519 0.40624 0.0
O122 O 0.2349 0.57144 0.50374 0.0
O123 O 0.27278 0.5456 0.32322 0.0
O124 O 0.16967 0.61592 0.3804 0.0
O125 O 0.19219 0.51617 0.44517 0.0
O126 O 0.20527 0.59982 0.32428 0.0
O127 O 0.23025 0.51141 0.35552 0.0
O128 O 0.15022 0.55877 0.4269 0.0
O129 O 0.3478 0.57471 0.39633 0.0
O130 O 0.25598 0.62851 0.45622 0.0
O131 O 0.28849 0.536 0.4912 0.0
Sc132 Sc 0.26779 0.4088 0.87392 0.0
Sc133 Sc 0.22726 0.47791 0.91119 0.0
Sc134 Sc 0.17457 0.40851 0.93197 0.0
O135 O 0.22417 0.4321 0.90668 0.0
C136 C 0.16793 0.38049 0.83933 0.0
C137 C 0.2535 0.47127 0.81714 0.0
C138 C 0.11538 0.46377 0.88852 0.0
C139 C 0.3372 0.45669 0.92984 0.0
C140 C 0.25425 0.36294 0.95492 0.0
C141 C 0.20296 0.46053 0.00452 0.0
O142 O 0.20355 0.39387 0.82712 0.0
O143 O 0.22614 0.48382 0.84081 0.0
O144 O 0.11955 0.43451 0.89167 0.0
O145 O 0.32997 0.42796 0.91925 0.0
O146 O 0.229 0.38213 0.97217 0.0
O147 O 0.22982 0.47495 0.98215 0.0
O148 O 0.26621 0.36783 0.91665 0.0
O149 O 0.304 0.47688 0.92375 0.0
O150 O 0.17446 0.43938 0.98765 0.0
O151 O 0.27489 0.44585 0.82796 0.0
O152 O 0.16942 0.37401 0.88031 0.0
O153 O 0.15055 0.48218 0.89931 0.0
Sc154 Sc 0.74556 0.40887 0.60393 0.0
Sc155 Sc 0.78645 0.47765 0.56588 0.0
Sc156 Sc 0.83882 0.40795 0.54591 0.0
O157 O 0.78931 0.43185 0.57091 0.0
C158 C 0.84527 0.3804 0.63879 0.0
C159 C 0.76016 0.47161 0.66008 0.0
C160 C 0.89832 0.46331 0.58838 0.0
C161 C 0.67637 0.45675 0.54778 0.0
C162 C 0.75868 0.36256 0.52335 0.0
C163 C 0.81072 0.45963 0.47275 0.0
O164 O 0.80974 0.39396 0.65085 0.0
O165 O 0.78756 0.48404 0.6363 0.0
O166 O 0.89404 0.43403 0.58592 0.0
O167 O 0.68339 0.42803 0.55856 0.0
O168 O 0.78429 0.38146 0.50596 0.0
O169 O 0.78379 0.47422 0.49486 0.0
O170 O 0.74675 0.36773 0.56157 0.0
O171 O 0.70975 0.47682 0.55351 0.0
O172 O 0.83916 0.43855 0.48995 0.0
O173 O 0.73881 0.44615 0.64948 0.0
O174 O 0.84374 0.3737 0.59788 0.0
O175 O 0.86315 0.48169 0.57749 0.0
H176 H 0.26634 0.08615 0.89651 0.0
H177 H 0.19205 0.95062 0.72057 0.0
H178 H 0.18108 0.00717 0.92064 0.0
H179 H 0.28881 0.02481 0.7025 0.0
H180 H 0.17546 0.97623 0.78779 0.0
H181 H 0.26024 0.07001 0.81862 0.0
C182 C 0.24564 0.06569 0.88528 0.0
C183 C 0.22532 0.04746 0.91544 0.0
C184 C 0.2001 0.987 0.76897 0.0
C185 C 0.21872 0.02876 0.82656 0.0
C186 C 0.20987 0.97231 0.7307 0.0
C187 C 0.24252 0.98535 0.70624 0.0
C188 C 0.22326 0.01486 0.78302 0.0
C189 C 0.2639 0.0137 0.72065 0.0
C190 C 0.2423 0.05646 0.8408 0.0
C191 C 0.19807 0.0216 0.89877 0.0
N192 N 0.25416 0.02741 0.75837 0.0
N193 N 0.19629 0.01268 0.85553 0.0
H194 H 0.71302 0.02843 0.78841 0.0
H195 H 0.82546 0.00843 0.56763 0.0
H196 H 0.80667 0.95348 0.7661 0.0
H197 H 0.7331 0.08416 0.58965 0.0
H198 H 0.83114 0.99358 0.64611 0.0
H199 H 0.7297 0.0537 0.72062 0.0
C200 C 0.73709 0.0173 0.76934 0.0
C201 C 0.75783 0.98855 0.78255 0.0
C202 C 0.8102 0.01373 0.63391 0.0
C203 C 0.77739 0.01742 0.70532 0.0
C204 C 0.80712 0.02231 0.58911 0.0
C205 C 0.77762 0.04701 0.57172 0.0
C206 C 0.78336 0.02986 0.66122 0.0
C207 C 0.75531 0.06444 0.60133 0.0
C208 C 0.74686 0.03183 0.73082 0.0
C209 C 0.78929 0.97542 0.75689 0.0
N210 N 0.7579 0.05516 0.64448 0.0
N211 N 0.79779 0.98985 0.71932 0.0
H212 H 0.8084 0.00265 0.28188 0.0
H213 H 0.63156 0.94456 0.06453 0.0
H214 H 0.65819 0.99125 0.28171 0.0
H215 H 0.76723 0.98912 0.06444 0.0
H216 H 0.64312 0.95092 0.14633 0.0
H217 H 0.79713 0.98369 0.20497 0.0
C218 C 0.77313 0.99547 0.2657 0.0
C219 C 0.73398 0.99877 0.28743 0.0
C220 C 0.67018 0.95923 0.12818 0.0
C221 C 0.72057 0.97805 0.19944 0.0
C222 C 0.66362 0.95577 0.08166 0.0
C223 C 0.69844 0.96651 0.05773 0.0
C224 C 0.71211 0.97302 0.15064 0.0
C225 C 0.73928 0.98078 0.08144 0.0
C226 C 0.76665 0.98492 0.22183 0.0
C227 C 0.68908 0.98898 0.26563 0.0
N228 N 0.74504 0.98348 0.12662 0.0
N229 N 0.68329 0.97947 0.22213 0.0
H230 H 0.34151 0.99219 0.20336 0.0
H231 H 0.23526 0.99569 0.42767 0.0
H232 H 0.19422 0.01059 0.20985 0.0
H233 H 0.36404 0.94468 0.42016 0.0
H234 H 0.22357 0.00382 0.34719 0.0
H235 H 0.35339 0.97409 0.28179 0.0
C236 C 0.31153 0.99156 0.22096 0.0
C237 C 0.2671 0.00326 0.20092 0.0
C238 C 0.25434 0.99073 0.36305 0.0
C239 C 0.28036 0.9835 0.28948 0.0
C240 C 0.26133 0.9864 0.40913 0.0
C241 C 0.30067 0.9695 0.43061 0.0
C242 C 0.28716 0.97839 0.33821 0.0
C243 C 0.33313 0.9578 0.40476 0.0
C244 C 0.31833 0.98151 0.26556 0.0
C245 C 0.22925 0.00224 0.22471 0.0
N246 N 0.32576 0.96258 0.35969 0.0
N247 N 0.2369 0.99295 0.26798 0.0
H248 H 0.79609 0.52729 0.69455 0.0
H249 H 0.68231 0.50902 0.91501 0.0
H250 H 0.70159 0.4529 0.71733 0.0
H251 H 0.77619 0.58394 0.89298 0.0
H252 H 0.6771 0.49372 0.83678 0.0
H253 H 0.77978 0.55285 0.76226 0.0
C254 C 0.77193 0.51634 0.71371 0.0
C255 C 0.7508 0.48767 0.70063 0.0
C256 C 0.6983 0.51379 0.84892 0.0
C257 C 0.73165 0.51689 0.77774 0.0
C258 C 0.7011 0.52263 0.89357 0.0
C259 C 0.73084 0.54724 0.91091 0.0
C260 C 0.72564 0.52957 0.82168 0.0
C261 C 0.75375 0.56431 0.88135 0.0
C262 C 0.76237 0.53104 0.75218 0.0
C263 C 0.71925 0.47477 0.72642 0.0
N264 N 0.75139 0.55479 0.83834 0.0
N265 N 0.71094 0.48937 0.76392 0.0
H266 H 0.33021 0.50939 0.56169 0.0
H267 H 0.21818 0.52714 0.78324 0.0
H268 H 0.23626 0.58399 0.58466 0.0
H269 H 0.31103 0.45221 0.75908 0.0
H270 H 0.23412 0.55275 0.7155 0.0
H271 H 0.33559 0.49365 0.63978 0.0
C272 C 0.31141 0.52282 0.5833 0.0
C273 C 0.28165 0.5475 0.56628 0.0
C274 C 0.25124 0.5308 0.72524 0.0
C275 C 0.28712 0.52935 0.65533 0.0
C276 C 0.2419 0.51607 0.76374 0.0
C277 C 0.26269 0.48725 0.77648 0.0
C278 C 0.2814 0.51653 0.69926 0.0
C279 C 0.29368 0.47421 0.75027 0.0
C280 C 0.31433 0.51374 0.62786 0.0
C281 C 0.25873 0.56434 0.59605 0.0
N282 N 0.30179 0.48885 0.71271 0.0
N283 N 0.26127 0.5546 0.63897 0.0
H284 H 0.31733 0.50871 0.27477 0.0
H285 H 0.14172 0.444 0.06104 0.0
H286 H 0.16867 0.49201 0.27701 0.0
H287 H 0.27555 0.49025 0.05809 0.0
H288 H 0.15403 0.45148 0.14262 0.0
H289 H 0.30661 0.48889 0.19841 0.0
C290 C 0.28253 0.50032 0.25919 0.0
C291 C 0.24357 0.50235 0.28144 0.0
C292 C 0.18053 0.45991 0.1239 0.0
C293 C 0.23075 0.4805 0.19406 0.0
C294 C 0.17355 0.4558 0.0775 0.0
C295 C 0.2076 0.46671 0.05282 0.0
C296 C 0.2221 0.47458 0.14549 0.0
C297 C 0.24817 0.48174 0.07568 0.0
C298 C 0.27635 0.48921 0.21564 0.0
C299 C 0.19938 0.49083 0.26048 0.0
N300 N 0.25432 0.48513 0.12077 0.0
N301 N 0.19383 0.4808 0.21726 0.0
H302 H 0.69737 0.50456 0.20093 0.0
H303 H 0.87307 0.44354 0.41716 0.0
H304 H 0.84703 0.49063 0.20075 0.0
H305 H 0.73763 0.48814 0.41809 0.0
H306 H 0.86134 0.45032 0.33547 0.0
H307 H 0.70788 0.48501 0.27749 0.0
C308 C 0.73234 0.49675 0.21697 0.0
C309 C 0.7716 0.4995 0.19526 0.0
C310 C 0.83434 0.45854 0.35376 0.0
C311 C 0.78418 0.47805 0.28286 0.0
C312 C 0.841 0.45484 0.40023 0.0
C313 C 0.80633 0.46549 0.42437 0.0
C314 C 0.79248 0.47254 0.33155 0.0
C315 C 0.76548 0.47987 0.40091 0.0
C316 C 0.7384 0.48583 0.26064 0.0
C317 C 0.81607 0.48883 0.21684 0.0
N318 N 0.75964 0.48287 0.35576 0.0
N319 N 0.82147 0.47899 0.26015 0.0
H320 H 0.43439 0.06187 0.02647 0.0
H321 H 0.52338 0.93294 0.8793 0.0
H322 H 0.35419 0.97808 0.98872 0.0
H323 H 0.58239 0.02532 0.89462 0.0
H324 H 0.45299 0.95145 0.90644 0.0
H325 H 0.48486 0.04982 0.97215 0.0
C326 C 0.42774 0.04067 0.00721 0.0
C327 C 0.3901 0.02085 0.01242 0.0
C328 C 0.48082 0.96784 0.90279 0.0
C329 C 0.44744 0.00722 0.94929 0.0
C330 C 0.52096 0.95735 0.88696 0.0
C331 C 0.56001 0.97727 0.88739 0.0
C332 C 0.48026 0.99827 0.91896 0.0
C333 C 0.55403 0.00883 0.89583 0.0
C334 C 0.45612 0.03409 0.97554 0.0
C335 C 0.38307 0.99388 0.98613 0.0
N336 N 0.51551 0.0182 0.91279 0.0
N337 N 0.41168 0.98777 0.95575 0.0
H338 H 0.41819 0.02556 0.59342 0.0
H339 H 0.6511 0.97569 0.50175 0.0
H340 H 0.47788 0.93338 0.60921 0.0
H341 H 0.56758 0.05806 0.46333 0.0
H342 H 0.60013 0.96399 0.55669 0.0
H343 H 0.48999 0.04339 0.56822 0.0
C344 C 0.44693 0.00922 0.59295 0.0
C345 C 0.44095 0.97756 0.60077 0.0
C346 C 0.59321 0.98464 0.53623 0.0
C347 C 0.52227 0.99764 0.57109 0.0
C348 C 0.62172 0.99108 0.50436 0.0
C349 C 0.61335 0.01777 0.47754 0.0
C350 C 0.55629 0.00507 0.54131 0.0
C351 C 0.57521 0.0371 0.48293 0.0
C352 C 0.48773 0.01938 0.57809 0.0
C353 C 0.48014 0.95776 0.60136 0.0
N354 N 0.54817 0.03036 0.51424 0.0
N355 N 0.51873 0.9679 0.58505 0.0
H356 H 0.85724 0.4755 0.98384 0.0
H357 H 0.08941 0.52478 0.89011 0.0
H358 H 0.94047 0.55825 0.02057 0.0
H359 H 0.03051 0.43229 0.87663 0.0
H360 H 0.01802 0.54256 0.91606 0.0
H361 H 0.90861 0.46309 0.92955 0.0
C362 C 0.88665 0.49082 0.98101 0.0
C363 C 0.89475 0.51786 0.00708 0.0
C364 C 0.02037 0.51848 0.90657 0.0
C365 C 0.95226 0.50434 0.94406 0.0
C366 C 0.06092 0.50836 0.89128 0.0
C367 C 0.06703 0.47666 0.88379 0.0
C368 C 0.98617 0.4967 0.91429 0.0
C369 C 0.02815 0.45672 0.88413 0.0
C370 C 0.91539 0.48396 0.94952 0.0
C371 C 0.933 0.53705 0.0015 0.0
N372 N 0.98979 0.46688 0.90078 0.0
N373 N 0.96023 0.52993 0.97052 0.0
H374 H 0.07173 0.56099 0.45169 0.0
H375 H 0.98323 0.43182 0.5997 0.0
H376 H 0.15324 0.47793 0.49083 0.0
H377 H 0.92412 0.52418 0.58452 0.0
H378 H 0.05285 0.4502 0.57107 0.0
H379 H 0.02009 0.54824 0.50477 0.0
C380 C 0.07842 0.5398 0.47098 0.0
C381 C 0.11688 0.52046 0.46666 0.0
C382 C 0.02515 0.4666 0.57503 0.0
C383 C 0.05825 0.50605 0.52837 0.0
C384 C 0.98548 0.4562 0.59173 0.0
C385 C 0.94662 0.47616 0.59197 0.0
C386 C 0.02548 0.497 0.55867 0.0
C387 C 0.95235 0.50767 0.58295 0.0
C388 C 0.04936 0.53282 0.50192 0.0
C389 C 0.12383 0.49341 0.49282 0.0
N390 N 0.99042 0.51696 0.56522 0.0
N391 N 0.09465 0.48695 0.52257 0.0
H392 H 0.0699 0.07967 0.03433 0.0
H393 H 0.90994 0.92575 0.97959 0.0
H394 H 0.11248 0.98912 0.08709 0.0
H395 H 0.85993 0.01796 0.94126 0.0
H396 H 0.98541 0.94841 0.0179 0.0
H397 H 0.99192 0.0579 0.00091 0.0
C398 C 0.06258 0.05547 0.03972 0.0
C399 C 0.098 0.03627 0.0634 0.0
C400 C 0.95778 0.96363 0.00106 0.0
C401 C 0.00944 0.01091 0.02432 0.0
C402 C 0.91483 0.95062 0.9789 0.0
C403 C 0.87821 0.96983 0.95723 0.0
C404 C 0.96435 0.99606 0.00126 0.0
C405 C 0.88674 0.00206 0.95777 0.0
C406 C 0.01827 0.0429 0.02022 0.0
C407 C 0.08654 0.00484 0.06874 0.0
N408 N 0.92862 0.01405 0.97928 0.0
N409 N 0.0437 0.99318 0.0491 0.0
H410 H 0.93096 0.0774 0.45159 0.0
H411 H 0.09253 0.92415 0.50617 0.0
H412 H 0.88963 0.98687 0.3981 0.0
H413 H 0.1401 0.0163 0.54773 0.0
H414 H 0.01728 0.94658 0.46699 0.0
H415 H 0.00899 0.05592 0.48541 0.0
C416 C 0.93861 0.05327 0.44607 0.0
C417 C 0.90352 0.03397 0.42209 0.0
C418 C 0.04432 0.96184 0.48474 0.0
C419 C 0.99213 0.00893 0.46167 0.0
C420 C 0.08714 0.94896 0.5074 0.0
C421 C 0.12303 0.96822 0.53026 0.0
C422 C 0.03714 0.9942 0.48517 0.0
C423 C 0.11388 0.00037 0.53034 0.0
C424 C 0.98294 0.04085 0.46582 0.0
C425 C 0.91535 0.00264 0.41665 0.0
N426 N 0.07215 0.01223 0.50829 0.0
N427 N 0.95821 0.99111 0.43653 0.0
H428 H 0.41526 0.42474 0.97642 0.0
H429 H 0.57689 0.57822 0.02864 0.0
H430 H 0.36845 0.51639 0.93162 0.0
H431 H 0.61685 0.48846 0.08577 0.0
H432 H 0.49922 0.55649 -0.00578 0.0
H433 H 0.49027 0.44748 0.01569 0.0
C434 C 0.42082 0.44949 0.97445 0.0
C435 C 0.3852 0.46855 0.95074 0.0
C436 C 0.52486 0.54166 0.01475 0.0
C437 C 0.47073 0.4949 -0.00404 0.0
C438 C 0.56897 0.55423 0.03486 0.0
C439 C 0.60357 0.5352 0.06005 0.0
C440 C 0.51544 0.50984 0.01975 0.0
C441 C 0.59146 0.50401 0.06632 0.0
C442 C 0.46347 0.46256 -0.00281 0.0
C443 C 0.3945 0.50065 0.94973 0.0
N444 N 0.54885 0.49232 0.04606 0.0
N445 N 0.43605 0.5127 0.97189 0.0
H446 H 0.59786 0.42515 0.50126 0.0
H447 H 0.43779 0.5794 0.45039 0.0
H448 H 0.64562 0.5165 0.5467 0.0
H449 H 0.39679 0.48995 0.39268 0.0
H450 H 0.51518 0.55724 0.48471 0.0
H451 H 0.52294 0.44827 0.4624 0.0
C452 C 0.59252 0.44991 0.50346 0.0
C453 C 0.62839 0.46879 0.5272 0.0
C454 C 0.48935 0.54257 0.46409 0.0
C455 C 0.54299 0.49555 0.48247 0.0
C456 C 0.44541 0.55538 0.44405 0.0
C457 C 0.41059 0.53657 0.41872 0.0
C458 C 0.49841 0.51073 0.45887 0.0
C459 C 0.42233 0.50535 0.41226 0.0
C460 C 0.54993 0.4632 0.48096 0.0
C461 C 0.61938 0.5009 0.52853 0.0
N462 N 0.4648 0.49342 0.43245 0.0
N463 N 0.57789 0.51316 0.50659 0.0
H464 H 0.35888 0.10825 0.23552 0.0
H465 H 0.64157 0.10597 0.25018 0.0
H466 H 0.4262 0.12527 0.12053 0.0
H467 H 0.5745 0.12326 0.36525 0.0
H468 H 0.56307 0.11019 0.20171 0.0
H469 H 0.43757 0.1109 0.28386 0.0
C470 C 0.3899 0.11293 0.22042 0.0
C471 C 0.3854 0.11665 0.1737 0.0
C472 C 0.56578 0.11334 0.23759 0.0
C473 C 0.47601 0.11896 0.22886 0.0
C474 C 0.61068 0.11101 0.26529 0.0
C475 C 0.61518 0.11432 0.31208 0.0
C476 C 0.52481 0.11848 0.25676 0.0
C477 C 0.57334 0.12059 0.3295 0.0
C478 C 0.43491 0.11436 0.24804 0.0
C479 C 0.42739 0.12238 0.15626 0.0
N480 N 0.53019 0.12211 0.30205 0.0
N481 N 0.47067 0.12302 0.18363 0.0
H482 H 0.64257 0.88851 0.75044 0.0
H483 H 0.35977 0.88664 0.73524 0.0
H484 H 0.57576 0.86659 0.86421 0.0
H485 H 0.42711 0.86705 0.62104 0.0
H486 H 0.43877 0.88511 0.7836 0.0
H487 H 0.56362 0.88649 0.70202 0.0
C488 C 0.61162 0.88297 0.76519 0.0
C489 C 0.61625 0.87743 0.81151 0.0
C490 C 0.43596 0.88091 0.74793 0.0
C491 C 0.52567 0.87594 0.75659 0.0
C492 C 0.39085 0.8817 0.72038 0.0
C493 C 0.38636 0.87668 0.67395 0.0
C494 C 0.47697 0.87576 0.72883 0.0
C495 C 0.42834 0.87076 0.65662 0.0
C496 C 0.56654 0.8819 0.73761 0.0
C497 C 0.57443 0.87073 0.82871 0.0
N498 N 0.47164 0.87077 0.68385 0.0
N499 N 0.53114 0.87048 0.80147 0.0
H500 H 0.86645 0.60617 0.23245 0.0
H501 H 0.14904 0.60787 0.24558 0.0
H502 H 0.93281 0.6237 0.117 0.0
H503 H 0.08262 0.62512 0.36105 0.0
H504 H 0.07009 0.61057 0.19765 0.0
H505 H 0.94525 0.61003 0.28055 0.0
C506 C 0.89725 0.61118 0.21719 0.0
C507 C 0.89245 0.61469 0.1704 0.0
C508 C 0.07301 0.61405 0.23348 0.0
C509 C 0.98315 0.61841 0.22527 0.0
C510 C 0.11817 0.6126 0.26087 0.0
C511 C 0.12301 0.6164 0.3076 0.0
C512 C 0.0321 0.61876 0.25292 0.0
C513 C 0.08119 0.62219 0.32529 0.0
C514 C 0.94232 0.6133 0.24467 0.0
C515 C 0.93418 0.6209 0.15276 0.0
N516 N 0.03776 0.62285 0.29815 0.0
N517 N 0.97749 0.62222 0.17999 0.0
H518 H 0.93117 0.3669 0.61548 0.0
H519 H 0.08199 0.36717 0.86272 0.0
H520 H 0.86754 0.38732 0.73168 0.0
H521 H 0.14569 0.38712 0.74639 0.0
H522 H 1.00383 0.3663 0.81525 0.0
H523 H 0.00933 0.36607 0.66295 0.0
C524 C 0.93334 0.37081 0.65116 0.0
C525 C 0.89211 0.37701 0.6695 0.0
C526 C 0.03485 0.3707 0.80002 0.0
C527 C 0.9827 0.37599 0.72431 0.0
C528 C 0.07984 0.37096 0.82702 0.0
C529 C 0.12109 0.37705 0.80864 0.0
C530 C 0.03049 0.37599 0.75383 0.0
C531 C 0.11523 0.38216 0.76212 0.0
C532 C 0.97833 0.37057 0.67815 0.0
C533 C 0.89799 0.38227 0.71598 0.0
N534 N 0.07083 0.38134 0.7363 0.0
N535 N 0.94238 0.38146 0.7418 0.0
H536 H 0.22719 0.19426 0.10637 0.0
H537 H 0.27932 0.30986 0.91552 0.0
H538 H 0.21945 0.1691 0.96711 0.0
H539 H 0.23708 0.34368 0.03718 0.0
H540 H 0.26853 0.257 0.94006 0.0
H541 H 0.2355 0.24884 0.08584 0.0
C542 C 0.22589 0.20026 0.0714 0.0
C543 C 0.22313 0.1771 0.03845 0.0
C544 C 0.26187 0.276 0.96152 0.0
C545 C 0.23431 0.23893 0.01523 0.0
C546 C 0.26869 0.30622 0.94781 0.0
C547 C 0.25861 0.33131 0.97406 0.0
C548 C 0.24525 0.27074 0.00195 0.0
C549 C 0.24485 0.32502 0.01565 0.0
C550 C 0.23127 0.23132 0.05983 0.0
C551 C 0.22211 0.18615 -0.0063 0.0
N552 N 0.23827 0.29531 0.02824 0.0
N553 N 0.22843 0.21626 0.98355 0.0
H554 H 0.78586 0.16643 0.51746 0.0
H555 H 0.7734 0.34297 0.44044 0.0
H556 H 0.77461 0.19165 0.37787 0.0
H557 H 0.73471 0.30972 0.56396 0.0
H558 H 0.78211 0.2892 0.41715 0.0
H559 H 0.78119 0.22092 0.53672 0.0
C560 C 0.78338 0.18354 0.49091 0.0
C561 C 0.78007 0.1745 0.44592 0.0
C562 C 0.77123 0.29379 0.44908 0.0
C563 C 0.77366 0.23696 0.46771 0.0
C564 C 0.76591 0.32441 0.46232 0.0
C565 C 0.7536 0.33091 0.50442 0.0
C566 C 0.76482 0.26963 0.47843 0.0
C567 C 0.74428 0.30594 0.53128 0.0
C568 C 0.78015 0.21462 0.50189 0.0
C569 C 0.77734 0.19767 0.41298 0.0
N570 N 0.7507 0.27644 0.51807 0.0
N571 N 0.77363 0.22797 0.42447 0.0
H572 H 0.73087 0.84383 0.04193 0.0
H573 H 0.72323 0.66742 0.96512 0.0
H574 H 0.77381 0.81107 0.92004 0.0
H575 H 0.73192 0.69231 0.10458 0.0
H576 H 0.72761 0.72198 0.94617 0.0
H577 H 0.72283 0.78996 0.06513 0.0
C578 C 0.73942 0.82537 0.02041 0.0
C579 C 0.75272 0.83202 0.97875 0.0
C580 C 0.72819 0.71559 0.9809 0.0
C581 C 0.74229 0.77062 0.00462 0.0
C582 C 0.72514 0.68446 -0.0083 0.0
C583 C 0.7278 0.67531 0.03659 0.0
C584 C 0.7338 0.73786 0.01513 0.0
C585 C 0.72975 0.69841 0.06955 0.0
C586 C 0.7345 0.79469 0.03359 0.0
C587 C 0.76341 0.80717 0.95235 0.0
N588 N 0.73324 0.72877 0.05823 0.0
N589 N 0.75734 0.7776 0.96547 0.0
H590 H 0.28183 0.69424 0.37433 0.0
H591 H 0.22769 0.81 0.56375 0.0
H592 H 0.28874 0.66938 0.51363 0.0
H593 H 0.27483 0.844 0.44442 0.0
H594 H 0.23824 0.75718 0.53905 0.0
H595 H 0.27391 0.74892 0.39463 0.0
C596 C 0.283 0.70032 0.40926 0.0
C597 C 0.28541 0.67721 0.44228 0.0
C598 C 0.24604 0.77622 0.51814 0.0
C599 C 0.27468 0.73914 0.46521 0.0
C600 C 0.23939 0.80643 0.53193 0.0
C601 C 0.25089 0.83155 0.50641 0.0
C602 C 0.2639 0.77099 0.47835 0.0
C603 C 0.26594 0.82532 0.46538 0.0
C604 C 0.27787 0.73142 0.42069 0.0
C605 C 0.2863 0.68637 0.48696 0.0
N606 N 0.27231 0.7956 0.45269 0.0
N607 N 0.28021 0.71651 0.49696 0.0
loop_
_geom_bond_atom_site_label_1
_geom_bond_atom_site_label_2
_geom_bond_distance
_geom_bond_site_symmetry_2
_ccdc_geom_bond_type
Sc0 O3 2.025 . S
Sc0 O10 2.105 . S
Sc0 O13 2.105 . S
Sc0 O16 2.105 . S
Sc0 O19 2.105 . S
Sc1 O3 2.025 . S
Sc1 O11 2.105 . S
Sc1 O15 2.105 . S
Sc1 O17 2.105 . S
Sc1 O21 2.105 1_554 S
Sc2 O3 2.025 . S
Sc2 O12 2.105 1_554 S
Sc2 O14 2.105 . S
Sc2 O18 2.105 . S
Sc2 O20 2.105 . S
O3 Sc0 2.025 . S
O3 Sc1 2.025 . S
O3 Sc2 2.025 . S
C4 O10 1.268 . S
C4 O20 1.268 . S
C5 O11 1.268 . S
C5 O19 1.268 . S
C6 O12 1.268 . S
C6 O21 1.268 . S
C7 O13 1.268 . S
C7 O17 1.268 . S
C8 O14 1.268 . S
C8 O16 1.268 . S
C9 O15 1.268 . S
C9 O18 1.268 . S
O10 Sc0 2.105 . S
O10 C4 1.268 . S
O11 Sc1 2.105 . S
O11 C5 1.268 . S
O12 Sc2 2.105 1_556 S
O12 C6 1.268 . S
O13 Sc0 2.105 . S
O13 C7 1.268 . S
O14 Sc2 2.105 . S
O14 C8 1.268 . S
O15 Sc1 2.105 . S
O15 C9 1.268 . S
O16 Sc0 2.105 . S
O16 C8 1.268 . S
O17 Sc1 2.105 . S
O17 C7 1.268 . S
O18 Sc2 2.105 . S
O18 C9 1.268 . S
O19 Sc0 2.105 . S
O19 C5 1.268 . S
O20 Sc2 2.105 . S
O20 C4 1.268 . S
O21 Sc1 2.105 1_556 S
O21 C6 1.268 . S
Sc22 O25 2.025 . S
Sc22 O32 2.105 . S
Sc22 O35 2.105 . S
Sc22 O38 2.105 . S
Sc22 O41 2.105 . S
Sc23 O25 2.025 . S
Sc23 O33 2.105 . S
Sc23 O37 2.105 . S
Sc23 O39 2.105 . S
Sc23 O43 2.105 . S
Sc24 O25 2.025 . S
Sc24 O34 2.105 . S
Sc24 O36 2.105 . S
Sc24 O40 2.105 . S
Sc24 O42 2.105 . S
O25 Sc22 2.025 . S
O25 Sc23 2.025 . S
O25 Sc24 2.025 . S
C26 O32 1.268 . S
C26 O42 1.268 . S
C27 O33 1.268 . S
C27 O41 1.268 . S
C28 O34 1.268 . S
C28 O43 1.268 . S
C29 O35 1.268 . S
C29 O39 1.268 . S
C30 O36 1.268 . S
C30 O38 1.268 . S
C31 O37 1.268 . S
C31 O40 1.268 . S
O32 Sc22 2.105 . S
O32 C26 1.268 . S
O33 Sc23 2.105 . S
O33 C27 1.268 . S
O34 Sc24 2.105 . S
O34 C28 1.268 . S
O35 Sc22 2.105 . S
O35 C29 1.268 . S
O36 Sc24 2.105 . S
O36 C30 1.268 . S
O37 Sc23 2.105 . S
O37 C31 1.268 . S
O38 Sc22 2.105 . S
O38 C30 1.268 . S
O39 Sc23 2.105 . S
O39 C29 1.268 . S
O40 Sc24 2.105 . S
O40 C31 1.268 . S
O41 Sc22 2.105 . S
O41 C27 1.268 . S
O42 Sc24 2.105 . S
O42 C26 1.268 . S
O43 Sc23 2.105 . S
O43 C28 1.268 . S
Sc44 O47 2.025 . S
Sc44 O54 2.105 . S
Sc44 O57 2.105 . S
Sc44 O60 2.105 . S
Sc44 O63 2.105 . S
Sc45 O47 2.025 . S
Sc45 O55 2.105 . S
Sc45 O59 2.105 1_556 S
Sc45 O61 2.105 . S
Sc45 O65 2.105 . S
Sc46 O47 2.025 . S
Sc46 O56 2.105 . S
Sc46 O58 2.105 . S
Sc46 O62 2.105 1_556 S
Sc46 O64 2.105 . S
O47 Sc44 2.025 . S
O47 Sc45 2.025 . S
O47 Sc46 2.025 . S
C48 O54 1.268 . S
C48 O64 1.268 . S
C49 O55 1.268 . S
C49 O63 1.268 . S
C50 O56 1.268 . S
C50 O65 1.268 . S
C51 O57 1.268 . S
C51 O61 1.268 . S
C52 O58 1.268 . S
C52 O60 1.268 . S
C53 O59 1.268 . S
C53 O62 1.268 . S
O54 Sc44 2.105 . S
O54 C48 1.268 . S
O55 Sc45 2.105 . S
O55 C49 1.268 . S
O56 Sc46 2.105 . S
O56 C50 1.268 . S
O57 Sc44 2.105 . S
O57 C51 1.268 . S
O58 Sc46 2.105 . S
O58 C52 1.268 . S
O59 Sc45 2.105 1_554 S
O59 C53 1.268 . S
O60 Sc44 2.105 . S
O60 C52 1.268 . S
O61 Sc45 2.105 . S
O61 C51 1.268 . S
O62 Sc46 2.105 1_554 S
O62 C53 1.268 . S
O63 Sc44 2.105 . S
O63 C49 1.268 . S
O64 Sc46 2.105 . S
O64 C48 1.268 . S
O65 Sc45 2.105 . S
O65 C50 1.268 . S
Sc66 O69 2.025 . S
Sc66 O76 2.105 . S
Sc66 O79 2.105 . S
Sc66 O82 2.105 . S
Sc66 O85 2.105 . S
Sc67 O69 2.025 . S
Sc67 O77 2.105 . S
Sc67 O81 2.105 . S
Sc67 O83 2.105 . S
Sc67 O87 2.105 . S
Sc68 O69 2.025 . S
Sc68 O78 2.105 . S
Sc68 O80 2.105 . S
Sc68 O84 2.105 . S
Sc68 O86 2.105 . S
O69 Sc66 2.025 . S
O69 Sc67 2.025 . S
O69 Sc68 2.025 . S
C70 O76 1.268 . S
C70 O86 1.268 . S
C71 O77 1.268 . S
C71 O85 1.268 . S
C72 O78 1.268 . S
C72 O87 1.268 . S
C73 O79 1.268 . S
C73 O83 1.268 . S
C74 O80 1.268 . S
C74 O82 1.268 . S
C75 O81 1.268 . S
C75 O84 1.268 . S
O76 Sc66 2.105 . S
O76 C70 1.268 . S
O77 Sc67 2.105 . S
O77 C71 1.268 . S
O78 Sc68 2.105 . S
O78 C72 1.268 . S
O79 Sc66 2.105 . S
O79 C73 1.268 . S
O80 Sc68 2.105 . S
O80 C74 1.268 . S
O81 Sc67 2.105 . S
O81 C75 1.268 . S
O82 Sc66 2.105 . S
O82 C74 1.268 . S
O83 Sc67 2.105 . S
O83 C73 1.268 . S
O84 Sc68 2.105 . S
O84 C75 1.268 . S
O85 Sc66 2.105 . S
O85 C71 1.268 . S
O86 Sc68 2.105 . S
O86 C70 1.268 . S
O87 Sc67 2.105 . S
O87 C72 1.268 . S
Sc88 O91 2.025 . S
Sc88 O98 2.105 . S
Sc88 O101 2.105 . S
Sc88 O104 2.105 . S
Sc88 O107 2.105 . S
Sc89 O91 2.025 . S
Sc89 O99 2.105 . S
Sc89 O103 2.105 . S
Sc89 O105 2.105 . S
Sc89 O109 2.105 1_554 S
Sc90 O91 2.025 . S
Sc90 O100 2.105 1_554 S
Sc90 O102 2.105 . S
Sc90 O106 2.105 . S
Sc90 O108 2.105 . S
O91 Sc88 2.025 . S
O91 Sc89 2.025 . S
O91 Sc90 2.025 . S
C92 O98 1.268 . S
C92 O108 1.268 . S
C93 O99 1.268 . S
C93 O107 1.268 . S
C94 O100 1.268 . S
C94 O109 1.268 . S
C95 O101 1.268 . S
C95 O105 1.268 . S
C96 O102 1.268 . S
C96 O104 1.268 . S
C97 O103 1.268 . S
C97 O106 1.268 . S
O98 Sc88 2.105 . S
O98 C92 1.268 . S
O99 Sc89 2.105 . S
O99 C93 1.268 . S
O100 Sc90 2.105 1_556 S
O100 C94 1.268 . S
O101 Sc88 2.105 . S
O101 C95 1.268 . S
O102 Sc90 2.105 . S
O102 C96 1.268 . S
O103 Sc89 2.105 . S
O103 C97 1.268 . S
O104 Sc88 2.105 . S
O104 C96 1.268 . S
O105 Sc89 2.105 . S
O105 C95 1.268 . S
O106 Sc90 2.105 . S
O106 C97 1.268 . S
O107 Sc88 2.105 . S
O107 C93 1.268 . S
O108 Sc90 2.105 . S
O108 C92 1.268 . S
O109 Sc89 2.105 1_556 S
O109 C94 1.268 . S
Sc110 O113 2.025 . S
Sc110 O120 2.105 . S
Sc110 O123 2.105 . S
Sc110 O126 2.105 . S
Sc110 O129 2.105 . S
Sc111 O113 2.025 . S
Sc111 O121 2.105 . S
Sc111 O125 2.105 . S
Sc111 O127 2.105 . S
Sc111 O131 2.105 . S
Sc112 O113 2.025 . S
Sc112 O122 2.105 . S
Sc112 O124 2.105 . S
Sc112 O128 2.105 . S
Sc112 O130 2.105 . S
O113 Sc110 2.025 . S
O113 Sc111 2.025 . S
O113 Sc112 2.025 . S
C114 O120 1.268 . S
C114 O130 1.268 . S
C115 O121 1.268 . S
C115 O129 1.268 . S
C116 O122 1.268 . S
C116 O131 1.268 . S
C117 O123 1.268 . S
C117 O127 1.268 . S
C118 O124 1.268 . S
C118 O126 1.268 . S
C119 O125 1.268 . S
C119 O128 1.268 . S
O120 Sc110 2.105 . S
O120 C114 1.268 . S
O121 Sc111 2.105 . S
O121 C115 1.268 . S
O122 Sc112 2.105 . S
O122 C116 1.268 . S
O123 Sc110 2.105 . S
O123 C117 1.268 . S
O124 Sc112 2.105 . S
O124 C118 1.268 . S
O125 Sc111 2.105 . S
O125 C119 1.268 . S
O126 Sc110 2.105 . S
O126 C118 1.268 . S
O127 Sc111 2.105 . S
O127 C117 1.268 . S
O128 Sc112 2.105 . S
O128 C119 1.268 . S
O129 Sc110 2.105 . S
O129 C115 1.268 . S
O130 Sc112 2.105 . S
O130 C114 1.268 . S
O131 Sc111 2.105 . S
O131 C116 1.268 . S
Sc132 O135 2.025 . S
Sc132 O142 2.105 . S
Sc132 O145 2.105 . S
Sc132 O148 2.105 . S
Sc132 O151 2.105 . S
Sc133 O135 2.025 . S
Sc133 O143 2.105 . S
Sc133 O147 2.105 1_556 S
Sc133 O149 2.105 . S
Sc133 O153 2.105 . S
Sc134 O135 2.025 . S
Sc134 O144 2.105 . S
Sc134 O146 2.105 . S
Sc134 O150 2.105 1_556 S
Sc134 O152 2.105 . S
O135 Sc132 2.025 . S
O135 Sc133 2.025 . S
O135 Sc134 2.025 . S
C136 O142 1.268 . S
C136 O152 1.268 . S
C137 O143 1.268 . S
C137 O151 1.268 . S
C138 O144 1.268 . S
C138 O153 1.268 . S
C139 O145 1.268 . S
C139 O149 1.268 . S
C140 O146 1.268 . S
C140 O148 1.268 . S
C141 O147 1.268 . S
C141 O150 1.268 . S
O142 Sc132 2.105 . S
O142 C136 1.268 . S
O143 Sc133 2.105 . S
O143 C137 1.268 . S
O144 Sc134 2.105 . S
O144 C138 1.268 . S
O145 Sc132 2.105 . S
O145 C139 1.268 . S
O146 Sc134 2.105 . S
O146 C140 1.268 . S
O147 Sc133 2.105 1_554 S
O147 C141 1.268 . S
O148 Sc132 2.105 . S
O148 C140 1.268 . S
O149 Sc133 2.105 . S
O149 C139 1.268 . S
O150 Sc134 2.105 1_554 S
O150 C141 1.268 . S
O151 Sc132 2.105 . S
O151 C137 1.268 . S
O152 Sc134 2.105 . S
O152 C136 1.268 . S
O153 Sc133 2.105 . S
O153 C138 1.268 . S
Sc154 O157 2.025 . S
Sc154 O164 2.105 . S
Sc154 O167 2.105 . S
Sc154 O170 2.105 . S
Sc154 O173 2.105 . S
Sc155 O157 2.025 . S
Sc155 O165 2.105 . S
Sc155 O169 2.105 . S
Sc155 O171 2.105 . S
Sc155 O175 2.105 . S
Sc156 O157 2.025 . S
Sc156 O166 2.105 . S
Sc156 O168 2.105 . S
Sc156 O172 2.105 . S
Sc156 O174 2.105 . S
O157 Sc154 2.025 . S
O157 Sc155 2.025 . S
O157 Sc156 2.025 . S
C158 O164 1.268 . S
C158 O174 1.268 . S
C159 O165 1.268 . S
C159 O173 1.268 . S
C160 O166 1.268 . S
C160 O175 1.268 . S
C161 O167 1.268 . S
C161 O171 1.268 . S
C162 O168 1.268 . S
C162 O170 1.268 . S
C163 O169 1.268 . S
C163 O172 1.268 . S
O164 Sc154 2.105 . S
O164 C158 1.268 . S
O165 Sc155 2.105 . S
O165 C159 1.268 . S
O166 Sc156 2.105 . S
O166 C160 1.268 . S
O167 Sc154 2.105 . S
O167 C161 1.268 . S
O168 Sc156 2.105 . S
O168 C162 1.268 . S
O169 Sc155 2.105 . S
O169 C163 1.268 . S
O170 Sc154 2.105 . S
O170 C162 1.268 . S
O171 Sc155 2.105 . S
O171 C161 1.268 . S
O172 Sc156 2.105 . S
O172 C163 1.268 . S
O173 Sc154 2.105 . S
O173 C159 1.268 . S
O174 Sc156 2.105 . S
O174 C158 1.268 . S
O175 Sc155 2.105 . S
O175 C160 1.268 . S
H176 C182 0.930 . S
H177 C186 0.930 . S
H178 C191 0.929 . S
H179 C189 0.929 . S
H180 C184 0.929 . S
H181 C190 0.929 . S
C182 H176 0.930 . S
C182 C183 1.367 . S
C182 C190 1.378 . S
C183 C182 1.367 . S
C183 C191 1.433 . S
C184 H180 0.929 . S
C184 C186 1.378 . S
C184 C188 1.350 1_565 S
C185 C188 1.463 . S
C185 C190 1.350 . S
C185 N193 1.427 . S
C186 H177 0.930 . S
C186 C184 1.378 . S
C186 C187 1.367 . S
C187 C186 1.367 . S
C187 C189 1.433 1_565 S
C188 C184 1.350 1_545 S
C188 C185 1.463 . S
C188 N192 1.427 . S
C189 H179 0.929 . S
C189 C187 1.433 1_545 S
C189 N192 1.384 . S
C190 H181 0.929 . S
C190 C182 1.378 . S
C190 C185 1.350 . S
C191 H178 0.929 . S
C191 C183 1.433 . S
C191 N193 1.384 . S
N192 C188 1.427 . S
N192 C189 1.384 . S
N193 C185 1.427 . S
N193 C191 1.384 . S
H194 C200 0.930 . S
H195 C204 0.930 . S
H196 C209 0.929 . S
H197 C207 0.929 . S
H198 C202 0.929 1_565 S
H199 C208 0.929 . S
C200 H194 0.930 . S
C200 C201 1.367 1_545 S
C200 C208 1.378 . S
C201 C200 1.367 1_565 S
C201 C209 1.433 . S
C202 H198 0.929 1_545 S
C202 C204 1.378 . S
C202 C206 1.350 . S
C203 C206 1.463 . S
C203 C208 1.350 . S
C203 N211 1.427 1_545 S
C204 H195 0.930 . S
C204 C202 1.378 . S
C204 C205 1.367 . S
C205 C204 1.367 . S
C205 C207 1.433 . S
C206 C202 1.350 . S
C206 C203 1.463 . S
C206 N210 1.427 . S
C207 H197 0.929 . S
C207 C205 1.433 . S
C207 N210 1.384 . S
C208 H199 0.929 . S
C208 C200 1.378 . S
C208 C203 1.350 . S
C209 H196 0.929 . S
C209 C201 1.433 . S
C209 N211 1.384 . S
N210 C206 1.427 . S
N210 C207 1.384 . S
N211 C203 1.427 1_565 S
N211 C209 1.384 . S
H212 C218 0.930 . S
H213 C222 0.930 . S
H214 C227 0.929 . S
H215 C225 0.929 . S
H216 C220 0.929 . S
H217 C226 0.929 . S
C218 H212 0.930 . S
C218 C219 1.367 . S
C218 C226 1.378 . S
C219 C218 1.367 . S
C219 C227 1.433 1_545 S
C220 H216 0.929 . S
C220 C222 1.378 . S
C220 C224 1.350 . S
C221 C224 1.463 . S
C221 C226 1.350 1_565 S
C221 N229 1.427 . S
C222 H213 0.930 . S
C222 C220 1.378 . S
C222 C223 1.367 . S
C223 C222 1.367 . S
C223 C225 1.433 . S
C224 C220 1.350 . S
C224 C221 1.463 . S
C224 N228 1.427 . S
C225 H215 0.929 . S
C225 C223 1.433 . S
C225 N228 1.384 . S
C226 H217 0.929 . S
C226 C218 1.378 . S
C226 C221 1.350 1_545 S
C227 H214 0.929 . S
C227 C219 1.433 1_565 S
C227 N229 1.384 . S
N228 C224 1.427 . S
N228 C225 1.384 . S
N229 C221 1.427 . S
N229 C227 1.384 . S
H230 C236 0.930 . S
H231 C240 0.930 . S
H232 C245 0.929 . S
H233 C243 0.929 . S
H234 C238 0.929 . S
H235 C244 0.929 . S
C236 H230 0.930 . S
C236 C237 1.367 . S
C236 C244 1.378 . S
C237 C236 1.367 . S
C237 C245 1.433 1_545 S
C238 H234 0.929 . S
C238 C240 1.378 . S
C238 C242 1.350 . S
C239 C242 1.463 . S
C239 C244 1.350 1_565 S
C239 N247 1.427 . S
C240 H231 0.930 . S
C240 C238 1.378 . S
C240 C241 1.367 . S
C241 C240 1.367 . S
C241 C243 1.433 . S
C242 C238 1.350 . S
C242 C239 1.463 . S
C242 N246 1.427 . S
C243 H233 0.929 . S
C243 C241 1.433 . S
C243 N246 1.384 . S
C244 H235 0.929 . S
C244 C236 1.378 . S
C244 C239 1.350 1_545 S
C245 H232 0.929 . S
C245 C237 1.433 1_565 S
C245 N247 1.384 . S
N246 C242 1.427 . S
N246 C243 1.384 . S
N247 C239 1.427 . S
N247 C245 1.384 . S
H248 C254 0.930 . S
H249 C258 0.930 . S
H250 C263 0.929 . S
H251 C261 0.929 . S
H252 C256 0.929 . S
H253 C262 0.929 . S
C254 H248 0.930 . S
C254 C255 1.367 . S
C254 C262 1.378 . S
C255 C254 1.367 . S
C255 C263 1.433 . S
C256 H252 0.929 . S
C256 C258 1.378 . S
C256 C260 1.350 . S
C257 C260 1.463 . S
C257 C262 1.350 . S
C257 N265 1.427 . S
C258 H249 0.930 . S
C258 C256 1.378 . S
C258 C259 1.367 . S
C259 C258 1.367 . S
C259 C261 1.433 . S
C260 C256 1.350 . S
C260 C257 1.463 . S
C260 N264 1.427 . S
C261 H251 0.929 . S
C261 C259 1.433 . S
C261 N264 1.384 . S
C262 H253 0.929 . S
C262 C254 1.378 . S
C262 C257 1.350 . S
C263 H250 0.929 . S
C263 C255 1.433 . S
C263 N265 1.384 . S
N264 C260 1.427 . S
N264 C261 1.384 . S
N265 C257 1.427 . S
N265 C263 1.384 . S
H266 C272 0.930 . S
H267 C276 0.930 . S
H268 C281 0.929 . S
H269 C279 0.929 . S
H270 C274 0.929 . S
H271 C280 0.929 . S
C272 H266 0.930 . S
C272 C273 1.367 . S
C272 C280 1.378 . S
C273 C272 1.367 . S
C273 C281 1.433 . S
C274 H270 0.929 . S
C274 C276 1.378 . S
C274 C278 1.350 . S
C275 C278 1.463 . S
C275 C280 1.350 . S
C275 N283 1.427 . S
C276 H267 0.930 . S
C276 C274 1.378 . S
C276 C277 1.367 . S
C277 C276 1.367 . S
C277 C279 1.433 . S
C278 C274 1.350 . S
C278 C275 1.463 . S
C278 N282 1.427 . S
C279 H269 0.929 . S
C279 C277 1.433 . S
C279 N282 1.384 . S
C280 H271 0.929 . S
C280 C272 1.378 . S
C280 C275 1.350 . S
C281 H268 0.929 . S
C281 C273 1.433 . S
C281 N283 1.384 . S
N282 C278 1.427 . S
N282 C279 1.384 . S
N283 C275 1.427 . S
N283 C281 1.384 . S
H284 C290 0.930 . S
H285 C294 0.930 . S
H286 C299 0.929 . S
H287 C297 0.929 . S
H288 C292 0.929 . S
H289 C298 0.929 . S
C290 H284 0.930 . S
C290 C291 1.367 . S
C290 C298 1.378 . S
C291 C290 1.367 . S
C291 C299 1.433 . S
C292 H288 0.929 . S
C292 C294 1.378 . S
C292 C296 1.350 . S
C293 C296 1.463 . S
C293 C298 1.350 . S
C293 N301 1.427 . S
C294 H285 0.930 . S
C294 C292 1.378 . S
C294 C295 1.367 . S
C295 C294 1.367 . S
C295 C297 1.433 . S
C296 C292 1.350 . S
C296 C293 1.463 . S
C296 N300 1.427 . S
C297 H287 0.929 . S
C297 C295 1.433 . S
C297 N300 1.384 . S
C298 H289 0.929 . S
C298 C290 1.378 . S
C298 C293 1.350 . S
C299 H286 0.929 . S
C299 C291 1.433 . S
C299 N301 1.384 . S
N300 C296 1.427 . S
N300 C297 1.384 . S
N301 C293 1.427 . S
N301 C299 1.384 . S
H302 C308 0.930 . S
H303 C312 0.930 . S
H304 C317 0.929 . S
H305 C315 0.929 . S
H306 C310 0.929 . S
H307 C316 0.929 . S
C308 H302 0.930 . S
C308 C309 1.367 . S
C308 C316 1.378 . S
C309 C308 1.367 . S
C309 C317 1.433 . S
C310 H306 0.929 . S
C310 C312 1.378 . S
C310 C314 1.350 . S
C311 C314 1.463 . S
C311 C316 1.350 . S
C311 N319 1.427 . S
C312 H303 0.930 . S
C312 C310 1.378 . S
C312 C313 1.367 . S
C313 C312 1.367 . S
C313 C315 1.433 . S
C314 C310 1.350 . S
C314 C311 1.463 . S
C314 N318 1.427 . S
C315 H305 0.929 . S
C315 C313 1.433 . S
C315 N318 1.384 . S
C316 H307 0.929 . S
C316 C308 1.378 . S
C316 C311 1.350 . S
C317 H304 0.929 . S
C317 C309 1.433 . S
C317 N319 1.384 . S
N318 C314 1.427 . S
N318 C315 1.384 . S
N319 C311 1.427 . S
N319 C317 1.384 . S
H320 C326 0.930 . S
H321 C330 0.930 . S
H322 C335 0.929 . S
H323 C333 0.929 . S
H324 C328 0.929 . S
H325 C334 0.929 . S
C326 H320 0.930 . S
C326 C327 1.367 . S
C326 C334 1.378 . S
C327 C326 1.367 . S
C327 C335 1.433 1_545 S
C328 H324 0.929 . S
C328 C330 1.378 . S
C328 C332 1.350 . S
C329 C332 1.463 1_544 S
C329 C334 1.350 . S
C329 N337 1.427 1_544 S
C330 H321 0.930 . S
C330 C328 1.378 . S
C330 C331 1.367 . S
C331 C330 1.367 . S
C331 C333 1.433 1_565 S
C332 C328 1.350 . S
C332 C329 1.463 1_566 S
C332 N336 1.427 1_566 S
C333 H323 0.929 . S
C333 C331 1.433 1_545 S
C333 N336 1.384 1_556 S
C334 H325 0.929 . S
C334 C326 1.378 . S
C334 C329 1.350 . S
C335 H322 0.929 . S
C335 C327 1.433 1_565 S
C335 N337 1.384 1_554 S
N336 C332 1.427 1_544 S
N336 C333 1.384 1_554 S
N337 C329 1.427 1_566 S
N337 C335 1.384 1_556 S
H338 C344 0.930 . S
H339 C348 0.930 . S
H340 C353 0.929 . S
H341 C351 0.929 . S
H342 C346 0.929 . S
H343 C352 0.929 . S
C344 H338 0.930 . S
C344 C345 1.367 1_545 S
C344 C352 1.378 . S
C345 C344 1.367 1_565 S
C345 C353 1.433 . S
C346 H342 0.929 . S
C346 C348 1.378 . S
C346 C350 1.350 1_565 S
C347 C350 1.463 1_565 S
C347 C352 1.350 1_565 S
C347 N355 1.427 . S
C348 H339 0.930 . S
C348 C346 1.378 . S
C348 C349 1.367 1_565 S
C349 C348 1.367 1_545 S
C349 C351 1.433 . S
C350 C346 1.350 1_545 S
C350 C347 1.463 1_545 S
C350 N354 1.427 . S
C351 H341 0.929 . S
C351 C349 1.433 . S
C351 N354 1.384 . S
C352 H343 0.929 . S
C352 C344 1.378 . S
C352 C347 1.350 1_545 S
C353 H340 0.929 . S
C353 C345 1.433 . S
C353 N355 1.384 . S
N354 C350 1.427 . S
N354 C351 1.384 . S
N355 C347 1.427 . S
N355 C353 1.384 . S
H356 C362 0.930 1_556 S
H357 C366 0.930 1_554 S
H358 C371 0.929 . S
H359 C369 0.929 . S
H360 C364 0.929 . S
H361 C370 0.929 . S
C362 H356 0.930 1_554 S
C362 C363 1.367 . S
C362 C370 1.378 1_554 S
C363 C362 1.367 . S
C363 C371 1.433 . S
C364 H360 0.929 . S
C364 C366 1.378 1_554 S
C364 C368 1.350 1_554 S
C365 C368 1.463 1_654 S
C365 C370 1.350 1_554 S
C365 N373 1.427 . S
C366 H357 0.930 1_556 S
C366 C364 1.378 1_556 S
C366 C367 1.367 . S
C367 C366 1.367 . S
C367 C369 1.433 . S
C368 C364 1.350 1_556 S
C368 C365 1.463 1_456 S
C368 N372 1.427 . S
C369 H359 0.929 . S
C369 C367 1.433 . S
C369 N372 1.384 . S
C370 H361 0.929 . S
C370 C362 1.378 1_556 S
C370 C365 1.350 1_556 S
C371 H358 0.929 . S
C371 C363 1.433 . S
C371 N373 1.384 . S
N372 C368 1.427 . S
N372 C369 1.384 . S
N373 C365 1.427 . S
N373 C371 1.384 . S
H374 C380 0.930 . S
H375 C384 0.930 . S
H376 C389 0.929 . S
H377 C387 0.929 . S
H378 C382 0.929 . S
H379 C388 0.929 . S
C380 H374 0.930 . S
C380 C381 1.367 . S
C380 C388 1.378 . S
C381 C380 1.367 . S
C381 C389 1.433 . S
C382 H378 0.929 . S
C382 C384 1.378 . S
C382 C386 1.350 . S
C383 C386 1.463 1_455 S
C383 C388 1.350 . S
C383 N391 1.427 . S
C384 H375 0.930 . S
C384 C382 1.378 . S
C384 C385 1.367 . S
C385 C384 1.367 . S
C385 C387 1.433 . S
C386 C382 1.350 . S
C386 C383 1.463 1_655 S
C386 N390 1.427 . S
C387 H377 0.929 . S
C387 C385 1.433 . S
C387 N390 1.384 . S
C388 H379 0.929 . S
C388 C380 1.378 . S
C388 C383 1.350 . S
C389 H376 0.929 . S
C389 C381 1.433 . S
C389 N391 1.384 . S
N390 C386 1.427 . S
N390 C387 1.384 . S
N391 C383 1.427 . S
N391 C389 1.384 . S
H392 C398 0.945 . S
H393 C402 0.945 . S
H394 C407 0.929 . S
H395 C405 0.929 . S
H396 C400 0.929 . S
H397 C406 0.929 . S
C398 H392 0.945 . S
C398 C399 1.367 . S
C398 C406 1.378 1_544 S
C399 C398 1.367 . S
C399 C407 1.433 . S
C400 H396 0.929 . S
C400 C402 1.378 1_544 S
C400 C404 1.350 1_544 S
C401 C404 1.463 1_444 S
C401 C406 1.350 1_544 S
C401 N409 1.427 . S
C402 H393 0.945 . S
C402 C400 1.378 1_566 S
C402 C403 1.367 . S
C403 C402 1.367 . S
C403 C405 1.433 . S
C404 C400 1.350 1_566 S
C404 C401 1.463 1_666 S
C404 N408 1.427 . S
C405 H395 0.929 . S
C405 C403 1.433 . S
C405 N408 1.384 . S
C406 H397 0.929 . S
C406 C398 1.378 1_566 S
C406 C401 1.350 1_566 S
C407 H394 0.929 . S
C407 C399 1.433 . S
C407 N409 1.384 . S
N408 C404 1.427 . S
N408 C405 1.384 . S
N409 C401 1.427 . S
N409 C407 1.384 . S
H410 C416 0.930 . S
H411 C420 0.930 . S
H412 C425 0.929 . S
H413 C423 0.929 . S
H414 C418 0.929 . S
H415 C424 0.929 . S
C416 H410 0.930 . S
C416 C417 1.367 . S
C416 C424 1.378 . S
C417 C416 1.367 . S
C417 C425 1.433 . S
C418 H414 0.929 . S
C418 C420 1.378 . S
C418 C422 1.350 . S
C419 C422 1.463 1_645 S
C419 C424 1.350 . S
C419 N427 1.427 . S
C420 H411 0.930 . S
C420 C418 1.378 . S
C420 C421 1.367 . S
C421 C420 1.367 . S
C421 C423 1.433 . S
C422 C418 1.350 . S
C422 C419 1.463 1_465 S
C422 N426 1.427 . S
C423 H413 0.929 . S
C423 C421 1.433 . S
C423 N426 1.384 . S
C424 H415 0.929 . S
C424 C416 1.378 . S
C424 C419 1.350 . S
C425 H412 0.929 . S
C425 C417 1.433 . S
C425 N427 1.384 . S
N426 C422 1.427 . S
N426 C423 1.384 . S
N427 C419 1.427 . S
N427 C425 1.384 . S
H428 C434 0.930 . S
H429 C438 0.930 . S
H430 C443 0.929 . S
H431 C441 0.929 . S
H432 C436 0.929 . S
H433 C442 0.929 . S
C434 H428 0.930 . S
C434 C435 1.367 1_554 S
C434 C442 1.378 . S
C435 C434 1.367 1_556 S
C435 C443 1.433 . S
C436 H432 0.929 . S
C436 C438 1.378 . S
C436 C440 1.350 1_556 S
C437 C440 1.463 1_556 S
C437 C442 1.350 1_556 S
C437 N445 1.427 . S
C438 H429 0.930 . S
C438 C436 1.378 . S
C438 C439 1.367 1_556 S
C439 C438 1.367 1_554 S
C439 C441 1.433 . S
C440 C436 1.350 1_554 S
C440 C437 1.463 1_554 S
C440 N444 1.427 . S
C441 H431 0.929 . S
C441 C439 1.433 . S
C441 N444 1.384 . S
C442 H433 0.929 . S
C442 C434 1.378 . S
C442 C437 1.350 1_554 S
C443 H430 0.929 . S
C443 C435 1.433 . S
C443 N445 1.384 . S
N444 C440 1.427 . S
N444 C441 1.384 . S
N445 C437 1.427 . S
N445 C443 1.384 . S
H446 C452 0.930 . S
H447 C456 0.930 . S
H448 C461 0.929 . S
H449 C459 0.929 . S
H450 C454 0.929 . S
H451 C460 0.929 . S
C452 H446 0.930 . S
C452 C453 1.367 . S
C452 C460 1.378 . S
C453 C452 1.367 . S
C453 C461 1.433 . S
C454 H450 0.929 . S
C454 C456 1.378 . S
C454 C458 1.350 . S
C455 C458 1.463 . S
C455 C460 1.350 . S
C455 N463 1.427 . S
C456 H447 0.930 . S
C456 C454 1.378 . S
C456 C457 1.367 . S
C457 C456 1.367 . S
C457 C459 1.433 . S
C458 C454 1.350 . S
C458 C455 1.463 . S
C458 N462 1.427 . S
C459 H449 0.929 . S
C459 C457 1.433 . S
C459 N462 1.384 . S
C460 H451 0.929 . S
C460 C452 1.378 . S
C460 C455 1.350 . S
C461 H448 0.929 . S
C461 C453 1.433 . S
C461 N463 1.384 . S
N462 C458 1.427 . S
N462 C459 1.384 . S
N463 C455 1.427 . S
N463 C461 1.384 . S
H464 C470 0.930 . S
H465 C474 0.930 . S
H466 C479 0.929 . S
H467 C477 0.929 . S
H468 C472 0.929 . S
H469 C478 0.929 . S
C470 H464 0.930 . S
C470 C471 1.367 . S
C470 C478 1.378 . S
C471 C470 1.367 . S
C471 C479 1.433 . S
C472 H468 0.929 . S
C472 C474 1.378 . S
C472 C476 1.350 . S
C473 C476 1.463 . S
C473 C478 1.350 . S
C473 N481 1.427 . S
C474 H465 0.930 . S
C474 C472 1.378 . S
C474 C475 1.367 . S
C475 C474 1.367 . S
C475 C477 1.433 . S
C476 C472 1.350 . S
C476 C473 1.463 . S
C476 N480 1.427 . S
C477 H467 0.929 . S
C477 C475 1.433 . S
C477 N480 1.384 . S
C478 H469 0.929 . S
C478 C470 1.378 . S
C478 C473 1.350 . S
C479 H466 0.929 . S
C479 C471 1.433 . S
C479 N481 1.384 . S
N480 C476 1.427 . S
N480 C477 1.384 . S
N481 C473 1.427 . S
N481 C479 1.384 . S
H482 C488 0.930 . S
H483 C492 0.930 . S
H484 C497 0.929 . S
H485 C495 0.929 . S
H486 C490 0.929 . S
H487 C496 0.929 . S
C488 H482 0.930 . S
C488 C489 1.367 . S
C488 C496 1.378 . S
C489 C488 1.367 . S
C489 C497 1.433 . S
C490 H486 0.929 . S
C490 C492 1.378 . S
C490 C494 1.350 . S
C491 C494 1.463 . S
C491 C496 1.350 . S
C491 N499 1.427 . S
C492 H483 0.930 . S
C492 C490 1.378 . S
C492 C493 1.367 . S
C493 C492 1.367 . S
C493 C495 1.433 . S
C494 C490 1.350 . S
C494 C491 1.463 . S
C494 N498 1.427 . S
C495 H485 0.929 . S
C495 C493 1.433 . S
C495 N498 1.384 . S
C496 H487 0.929 . S
C496 C488 1.378 . S
C496 C491 1.350 . S
C497 H484 0.929 . S
C497 C489 1.433 . S
C497 N499 1.384 . S
N498 C494 1.427 . S
N498 C495 1.384 . S
N499 C491 1.427 . S
N499 C497 1.384 . S
H500 C506 0.930 . S
H501 C510 0.930 . S
H502 C515 0.929 . S
H503 C513 0.929 . S
H504 C508 0.929 . S
H505 C514 0.929 . S
C506 H500 0.930 . S
C506 C507 1.367 . S
C506 C514 1.378 . S
C507 C506 1.367 . S
C507 C515 1.433 . S
C508 H504 0.929 . S
C508 C510 1.378 . S
C508 C512 1.350 . S
C509 C512 1.463 1_655 S
C509 C514 1.350 . S
C509 N517 1.427 . S
C510 H501 0.930 . S
C510 C508 1.378 . S
C510 C511 1.367 . S
C511 C510 1.367 . S
C511 C513 1.433 . S
C512 C508 1.350 . S
C512 C509 1.463 1_455 S
C512 N516 1.427 . S
C513 H503 0.929 . S
C513 C511 1.433 . S
C513 N516 1.384 . S
C514 H505 0.929 . S
C514 C506 1.378 . S
C514 C509 1.350 . S
C515 H502 0.929 . S
C515 C507 1.433 . S
C515 N517 1.384 . S
N516 C512 1.427 . S
N516 C513 1.384 . S
N517 C509 1.427 . S
N517 C515 1.384 . S
H518 C524 0.930 . S
H519 C528 0.930 . S
H520 C533 0.929 . S
H521 C531 0.929 . S
H522 C526 0.929 1_655 S
H523 C532 0.929 1_455 S
C524 H518 0.930 . S
C524 C525 1.367 . S
C524 C532 1.378 . S
C525 C524 1.367 . S
C525 C533 1.433 . S
C526 H522 0.929 1_455 S
C526 C528 1.378 . S
C526 C530 1.350 . S
C527 C530 1.463 1_655 S
C527 C532 1.350 . S
C527 N535 1.427 . S
C528 H519 0.930 . S
C528 C526 1.378 . S
C528 C529 1.367 . S
C529 C528 1.367 . S
C529 C531 1.433 . S
C530 C526 1.350 . S
C530 C527 1.463 1_455 S
C530 N534 1.427 . S
C531 H521 0.929 . S
C531 C529 1.433 . S
C531 N534 1.384 . S
C532 H523 0.929 1_655 S
C532 C524 1.378 . S
C532 C527 1.350 . S
C533 H520 0.929 . S
C533 C525 1.433 . S
C533 N535 1.384 . S
N534 C530 1.427 . S
N534 C531 1.384 . S
N535 C527 1.427 . S
N535 C533 1.384 . S
H536 C542 0.930 . S
H537 C546 0.930 . S
H538 C551 0.929 . S
H539 C549 0.929 . S
H540 C544 0.929 . S
H541 C550 0.929 . S
C542 H536 0.930 . S
C542 C543 1.367 . S
C542 C550 1.378 . S
C543 C542 1.367 . S
C543 C551 1.433 1_554 S
C544 H540 0.929 . S
C544 C546 1.378 . S
C544 C548 1.350 . S
C545 C548 1.463 1_554 S
C545 C550 1.350 . S
C545 N553 1.427 1_554 S
C546 H537 0.930 . S
C546 C544 1.378 . S
C546 C547 1.367 . S
C547 C546 1.367 . S
C547 C549 1.433 1_556 S
C548 C544 1.350 . S
C548 C545 1.463 1_556 S
C548 N552 1.427 1_556 S
C549 H539 0.929 . S
C549 C547 1.433 1_554 S
C549 N552 1.384 . S
C550 H541 0.929 . S
C550 C542 1.378 . S
C550 C545 1.350 . S
C551 H538 0.929 . S
C551 C543 1.433 1_556 S
C551 N553 1.384 . S
N552 C548 1.427 1_554 S
N552 C549 1.384 . S
N553 C545 1.427 1_556 S
N553 C551 1.384 . S
H554 C560 0.930 . S
H555 C564 0.930 . S
H556 C569 0.929 . S
H557 C567 0.929 . S
H558 C562 0.929 . S
H559 C568 0.929 . S
C560 H554 0.930 . S
C560 C561 1.367 . S
C560 C568 1.378 . S
C561 C560 1.367 . S
C561 C569 1.433 . S
C562 H558 0.929 . S
C562 C564 1.378 . S
C562 C566 1.350 . S
C563 C566 1.463 . S
C563 C568 1.350 . S
C563 N571 1.427 . S
C564 H555 0.930 . S
C564 C562 1.378 . S
C564 C565 1.367 . S
C565 C564 1.367 . S
C565 C567 1.433 . S
C566 C562 1.350 . S
C566 C563 1.463 . S
C566 N570 1.427 . S
C567 H557 0.929 . S
C567 C565 1.433 . S
C567 N570 1.384 . S
C568 H559 0.929 . S
C568 C560 1.378 . S
C568 C563 1.350 . S
C569 H556 0.929 . S
C569 C561 1.433 . S
C569 N571 1.384 . S
N570 C566 1.427 . S
N570 C567 1.384 . S
N571 C563 1.427 . S
N571 C569 1.384 . S
H572 C578 0.930 . S
H573 C582 0.930 . S
H574 C587 0.929 . S
H575 C585 0.929 . S
H576 C580 0.929 . S
H577 C586 0.929 . S
C578 H572 0.930 . S
C578 C579 1.367 1_554 S
C578 C586 1.378 . S
C579 C578 1.367 1_556 S
C579 C587 1.433 . S
C580 H576 0.929 . S
C580 C582 1.378 . S
C580 C584 1.350 1_556 S
C581 C584 1.463 1_556 S
C581 C586 1.350 1_556 S
C581 N589 1.427 . S
C582 H573 0.930 . S
C582 C580 1.378 . S
C582 C583 1.367 1_556 S
C583 C582 1.367 1_554 S
C583 C585 1.433 . S
C584 C580 1.350 1_554 S
C584 C581 1.463 1_554 S
C584 N588 1.427 . S
C585 H575 0.929 . S
C585 C583 1.433 . S
C585 N588 1.384 . S
C586 H577 0.929 . S
C586 C578 1.378 . S
C586 C581 1.350 1_554 S
C587 H574 0.929 . S
C587 C579 1.433 . S
C587 N589 1.384 . S
N588 C584 1.427 . S
N588 C585 1.384 . S
N589 C581 1.427 . S
N589 C587 1.384 . S
H590 C596 0.930 . S
H591 C600 0.930 . S
H592 C605 0.929 . S
H593 C603 0.929 . S
H594 C598 0.929 . S
H595 C604 0.929 . S
C596 H590 0.930 . S
C596 C597 1.367 . S
C596 C604 1.378 . S
C597 C596 1.367 . S
C597 C605 1.433 . S
C598 H594 0.929 . S
C598 C600 1.378 . S
C598 C602 1.350 . S
C599 C602 1.463 . S
C599 C604 1.350 . S
C599 N607 1.427 . S
C600 H591 0.930 . S
C600 C598 1.378 . S
C600 C601 1.367 . S
C601 C600 1.367 . S
C601 C603 1.433 . S
C602 C598 1.350 . S
C602 C599 1.463 . S
C602 N606 1.427 . S
C603 H593 0.929 . S
C603 C601 1.433 . S
C603 N606 1.384 . S
C604 H595 0.929 . S
C604 C596 1.378 . S
C604 C599 1.350 . S
C605 H592 0.929 . S
C605 C597 1.433 . S
C605 N607 1.384 . S
N606 C602 1.427 . S
N606 C603 1.384 . S
N607 C599 1.427 . S
N607 C605 1.384 . S
C183 C6 1.280 . S
C187 C71 1.312 . S
C201 C49 1.323 . S
C205 C28 1.276 . S
C219 C29 1.312 . S
C223 C53 1.276 . S
C237 C7 1.317 . S
C241 C75 1.285 . S
C255 C159 1.320 . S
C259 C94 1.285 . S
C273 C116 1.275 . S
C277 C137 1.323 . S
C291 C117 1.312 . S
C295 C141 1.276 . S
C309 C95 1.312 . S
C313 C163 1.280 . S
C327 C9 0.687 . S
C331 C50 0.687 . S
C345 C72 0.706 . S
C349 C31 0.706 . S
C363 C97 0.681 . S
C367 C138 0.681 . S
C381 C119 0.672 . S
C385 C160 0.672 . S
C399 C5 2.122 . S
C403 C51 2.122 . S
C417 C27 2.128 . S
C421 C73 2.128 . S
C435 C139 2.130 . S
C439 C93 2.130 . S
C453 C161 2.129 . S
C457 C115 2.129 . S
C471 C8 1.700 . S
C475 C30 1.703 . S
C489 C48 1.700 . S
C493 C70 1.703 . S
C507 C96 1.703 . S
C511 C118 1.701 . S
C525 C158 1.703 . S
C529 C136 1.700 . S
C543 C4 1.411 . S
C547 C140 1.411 . S
C561 C26 1.422 . S
C565 C162 1.422 . S
C579 C52 1.423 . S
C583 C92 1.423 . S
C597 C114 1.428 . S
C601 C74 1.428 . S
