# Generated by pormake.
# Topology umr, (4)-cn, num edge types: 1
# Building blocks:
#     Node 0, Type 0, BuildingBlock: TATPOV_clean_sbu_0, # of connection points: 4
#     Node 1, Type 0, BuildingBlock: TATPOV_clean_sbu_0, # of connection points: 4
#     Node 2, Type 0, BuildingBlock: TATPOV_clean_sbu_0, # of connection points: 4
#     Node 3, Type 0, BuildingBlock: TATPOV_clean_sbu_0, # of connection points: 4
#     Node 4, Type 0, BuildingBlock: TATPOV_clean_sbu_0, # of connection points: 4
#     Node 5, Type 0, BuildingBlock: TATPOV_clean_sbu_0, # of connection points: 4
#     Node 6, Type 0, BuildingBlock: TATPOV_clean_sbu_0, # of connection points: 4
#     Node 7, Type 0, BuildingBlock: TATPOV_clean_sbu_0, # of connection points: 4
#     Node 8, Type 0, BuildingBlock: TATPOV_clean_sbu_0, # of connection points: 4
#     Node 9, Type 0, BuildingBlock: TATPOV_clean_sbu_0, # of connection points: 4
#     Node 10, Type 0, BuildingBlock: TATPOV_clean_sbu_0, # of connection points: 4
#     Node 11, Type 0, BuildingBlock: TATPOV_clean_sbu_0, # of connection points: 4
#     Node 12, Type 0, BuildingBlock: TATPOV_clean_sbu_0, # of connection points: 4
#     Node 13, Type 0, BuildingBlock: TATPOV_clean_sbu_0, # of connection points: 4
#     Node 14, Type 0, BuildingBlock: TATPOV_clean_sbu_0, # of connection points: 4
#     Node 15, Type 0, BuildingBlock: TATPOV_clean_sbu_0, # of connection points: 4
#     Node 16, Type 0, BuildingBlock: TATPOV_clean_sbu_0, # of connection points: 4
#     Node 17, Type 0, BuildingBlock: TATPOV_clean_sbu_0, # of connection points: 4
#     Node 18, Type 0, BuildingBlock: TATPOV_clean_sbu_0, # of connection points: 4
#     Node 19, Type 0, BuildingBlock: TATPOV_clean_sbu_0, # of connection points: 4
#     Node 20, Type 0, BuildingBlock: TATPOV_clean_sbu_0, # of connection points: 4
#     Node 21, Type 0, BuildingBlock: TATPOV_clean_sbu_0, # of connection points: 4
#     Node 22, Type 0, BuildingBlock: TATPOV_clean_sbu_0, # of connection points: 4
#     Node 23, Type 0, BuildingBlock: TATPOV_clean_sbu_0, # of connection points: 4
#     Node 24, Type 0, BuildingBlock: TATPOV_clean_sbu_0, # of connection points: 4
#     Node 25, Type 0, BuildingBlock: TATPOV_clean_sbu_0, # of connection points: 4
#     Node 26, Type 0, BuildingBlock: TATPOV_clean_sbu_0, # of connection points: 4
#     Node 27, Type 0, BuildingBlock: TATPOV_clean_sbu_0, # of connection points: 4
#     Node 28, Type 0, BuildingBlock: TATPOV_clean_sbu_0, # of connection points: 4
#     Node 29, Type 0, BuildingBlock: TATPOV_clean_sbu_0, # of connection points: 4
#     Node 30, Type 0, BuildingBlock: TATPOV_clean_sbu_0, # of connection points: 4
#     Node 31, Type 0, BuildingBlock: TATPOV_clean_sbu_0, # of connection points: 4
#     Edge 32, Type (0, 0), BuildingBlock: XIVTED_clean_linker_0, # of connection points: 2
#     Edge 33, Type (0, 0), BuildingBlock: XIVTED_clean_linker_0, # of connection points: 2
#     Edge 34, Type (0, 0), BuildingBlock: XIVTED_clean_linker_0, # of connection points: 2
#     Edge 35, Type (0, 0), BuildingBlock: XIVTED_clean_linker_0, # of connection points: 2
#     Edge 36, Type (0, 0), BuildingBlock: XIVTED_clean_linker_0, # of connection points: 2
#     Edge 37, Type (0, 0), BuildingBlock: XIVTED_clean_linker_0, # of connection points: 2
#     Edge 38, Type (0, 0), BuildingBlock: XIVTED_clean_linker_0, # of connection points: 2
#     Edge 39, Type (0, 0), BuildingBlock: XIVTED_clean_linker_0, # of connection points: 2
#     Edge 40, Type (0, 0), BuildingBlock: XIVTED_clean_linker_0, # of connection points: 2
#     Edge 41, Type (0, 0), BuildingBlock: XIVTED_clean_linker_0, # of connection points: 2
#     Edge 42, Type (0, 0), BuildingBlock: XIVTED_clean_linker_0, # of connection points: 2
#     Edge 43, Type (0, 0), BuildingBlock: XIVTED_clean_linker_0, # of connection points: 2
#     Edge 44, Type (0, 0), BuildingBlock: XIVTED_clean_linker_0, # of connection points: 2
#     Edge 45, Type (0, 0), BuildingBlock: XIVTED_clean_linker_0, # of connection points: 2
#     Edge 46, Type (0, 0), BuildingBlock: XIVTED_clean_linker_0, # of connection points: 2
#     Edge 47, Type (0, 0), BuildingBlock: XIVTED_clean_linker_0, # of connection points: 2
#     Edge 48, Type (0, 0), BuildingBlock: XIVTED_clean_linker_0, # of connection points: 2
#     Edge 49, Type (0, 0), BuildingBlock: XIVTED_clean_linker_0, # of connection points: 2
#     Edge 50, Type (0, 0), BuildingBlock: XIVTED_clean_linker_0, # of connection points: 2
#     Edge 51, Type (0, 0), BuildingBlock: XIVTED_clean_linker_0, # of connection points: 2
#     Edge 52, Type (0, 0), BuildingBlock: XIVTED_clean_linker_0, # of connection points: 2
#     Edge 53, Type (0, 0), BuildingBlock: XIVTED_clean_linker_0, # of connection points: 2
#     Edge 54, Type (0, 0), BuildingBlock: XIVTED_clean_linker_0, # of connection points: 2
#     Edge 55, Type (0, 0), BuildingBlock: XIVTED_clean_linker_0, # of connection points: 2
#     Edge 56, Type (0, 0), BuildingBlock: XIVTED_clean_linker_0, # of connection points: 2
#     Edge 57, Type (0, 0), BuildingBlock: XIVTED_clean_linker_0, # of connection points: 2
#     Edge 58, Type (0, 0), BuildingBlock: XIVTED_clean_linker_0, # of connection points: 2
#     Edge 59, Type (0, 0), BuildingBlock: XIVTED_clean_linker_0, # of connection points: 2
#     Edge 60, Type (0, 0), BuildingBlock: XIVTED_clean_linker_0, # of connection points: 2
#     Edge 61, Type (0, 0), BuildingBlock: XIVTED_clean_linker_0, # of connection points: 2
#     Edge 62, Type (0, 0), BuildingBlock: XIVTED_clean_linker_0, # of connection points: 2
#     Edge 63, Type (0, 0), BuildingBlock: XIVTED_clean_linker_0, # of connection points: 2
#     Edge 64, Type (0, 0), BuildingBlock: XIVTED_clean_linker_0, # of connection points: 2
#     Edge 65, Type (0, 0), BuildingBlock: XIVTED_clean_linker_0, # of connection points: 2
#     Edge 66, Type (0, 0), BuildingBlock: XIVTED_clean_linker_0, # of connection points: 2
#     Edge 67, Type (0, 0), BuildingBlock: XIVTED_clean_linker_0, # of connection points: 2
#     Edge 68, Type (0, 0), BuildingBlock: XIVTED_clean_linker_0, # of connection points: 2
#     Edge 69, Type (0, 0), BuildingBlock: XIVTED_clean_linker_0, # of connection points: 2
#     Edge 70, Type (0, 0), BuildingBlock: XIVTED_clean_linker_0, # of connection points: 2
#     Edge 71, Type (0, 0), BuildingBlock: XIVTED_clean_linker_0, # of connection points: 2
#     Edge 72, Type (0, 0), BuildingBlock: XIVTED_clean_linker_0, # of connection points: 2
#     Edge 73, Type (0, 0), BuildingBlock: XIVTED_clean_linker_0, # of connection points: 2
#     Edge 74, Type (0, 0), BuildingBlock: XIVTED_clean_linker_0, # of connection points: 2
#     Edge 75, Type (0, 0), BuildingBlock: XIVTED_clean_linker_0, # of connection points: 2
#     Edge 76, Type (0, 0), BuildingBlock: XIVTED_clean_linker_0, # of connection points: 2
#     Edge 77, Type (0, 0), BuildingBlock: XIVTED_clean_linker_0, # of connection points: 2
#     Edge 78, Type (0, 0), BuildingBlock: XIVTED_clean_linker_0, # of connection points: 2
#     Edge 79, Type (0, 0), BuildingBlock: XIVTED_clean_linker_0, # of connection points: 2
#     Edge 80, Type (0, 0), BuildingBlock: XIVTED_clean_linker_0, # of connection points: 2
#     Edge 81, Type (0, 0), BuildingBlock: XIVTED_clean_linker_0, # of connection points: 2
#     Edge 82, Type (0, 0), BuildingBlock: XIVTED_clean_linker_0, # of connection points: 2
#     Edge 83, Type (0, 0), BuildingBlock: XIVTED_clean_linker_0, # of connection points: 2
#     Edge 84, Type (0, 0), BuildingBlock: XIVTED_clean_linker_0, # of connection points: 2
#     Edge 85, Type (0, 0), BuildingBlock: XIVTED_clean_linker_0, # of connection points: 2
#     Edge 86, Type (0, 0), BuildingBlock: XIVTED_clean_linker_0, # of connection points: 2
#     Edge 87, Type (0, 0), BuildingBlock: XIVTED_clean_linker_0, # of connection points: 2
#     Edge 88, Type (0, 0), BuildingBlock: XIVTED_clean_linker_0, # of connection points: 2
#     Edge 89, Type (0, 0), BuildingBlock: XIVTED_clean_linker_0, # of connection points: 2
#     Edge 90, Type (0, 0), BuildingBlock: XIVTED_clean_linker_0, # of connection points: 2
#     Edge 91, Type (0, 0), BuildingBlock: XIVTED_clean_linker_0, # of connection points: 2
#     Edge 92, Type (0, 0), BuildingBlock: XIVTED_clean_linker_0, # of connection points: 2
#     Edge 93, Type (0, 0), BuildingBlock: XIVTED_clean_linker_0, # of connection points: 2
#     Edge 94, Type (0, 0), BuildingBlock: XIVTED_clean_linker_0, # of connection points: 2
#     Edge 95, Type (0, 0), BuildingBlock: XIVTED_clean_linker_0, # of connection points: 2
# Relax obj value: 0.102
# Max RMSD: 0.118
# Mean RMSD: 0.118
data_MOF--net-umr--node1-TATPOV_clean_sbu_0--edge1-XIVTED_clean_linker_0
_symmetry_space_group_name_H-M    P1
_symmetry_Int_Tables_number       1
_symmetry_cell_setting            triclinic
loop_
_symmetry_equiv_pos_as_xyz
'x, y, z'
_cell_length_a     85.054201
_cell_length_b     85.116463
_cell_length_c     25.451484
_cell_angle_alpha  89.977516
_cell_angle_beta   89.946431
_cell_angle_gamma 90.006205
loop_
_atom_site_label
_atom_site_type_symbol
_atom_site_fract_x
_atom_site_fract_y
_atom_site_fract_z
_atom_type_partial_charge
Zn0 Zn 0.20664 0.28074 0.1877 0.0
Zn1 Zn 0.18079 0.29634 0.16696 0.0
O2 O 0.17682 0.27708 0.12015 0.0
O3 O 0.19811 0.26359 0.13995 0.0
O4 O 0.16161 0.31026 0.15967 0.0
O5 O 0.20297 0.28008 0.26484 0.0
O6 O 0.18018 0.2911 0.24722 0.0
C7 C 0.18534 0.26486 0.11461 0.0
C8 C 0.21388 0.30877 0.13432 0.0
O9 O 0.1989 0.30986 0.13475 0.0
O10 O 0.22052 0.29737 0.15719 0.0
C11 C 0.15857 0.31838 0.11898 0.0
O12 O 0.16793 0.31739 0.07802 0.0
C13 C 0.18976 0.28508 0.2801 0.0
Zn14 Zn 0.9744 0.9649 0.43564 0.0
Zn15 Zn 0.95944 0.93868 0.41273 0.0
O16 O 0.97911 0.9357 0.36711 0.0
O17 O 0.99198 0.95728 0.38767 0.0
O18 O 0.94642 0.9191 0.40102 0.0
O19 O 0.97472 0.96042 0.51247 0.0
O20 O 0.96406 0.93756 0.49324 0.0
C21 C 0.9911 0.94455 0.36195 0.0
C22 C 0.94615 0.97153 0.38202 0.0
O23 O 0.94549 0.95654 0.38135 0.0
O24 O 0.95731 0.97835 0.4056 0.0
C25 C 0.93313 0.91803 0.42371 0.0
O26 O 0.92829 0.92975 0.45314 0.0
C27 C 0.9698 0.94709 0.52684 0.0
Zn28 Zn 0.29694 0.72563 0.67998 0.0
Zn29 Zn 0.32186 0.70895 0.65463 0.0
O30 O 0.32589 0.72838 0.60868 0.0
O31 O 0.30541 0.74266 0.63156 0.0
O32 O 0.34031 0.69444 0.64123 0.0
O33 O 0.30196 0.72569 0.75629 0.0
O34 O 0.32396 0.71359 0.73506 0.0
C35 C 0.31786 0.74097 0.60464 0.0
C36 C 0.28782 0.69802 0.6273 0.0
O37 O 0.30273 0.69634 0.62505 0.0
O38 O 0.28199 0.70962 0.65149 0.0
C39 C 0.34011 0.68083 0.66197 0.0
O40 O 0.32792 0.67672 0.69059 0.0
C41 C 0.31507 0.71995 0.76943 0.0
Zn42 Zn 0.53465 0.05114 0.9408 0.0
Zn43 Zn 0.55085 0.07647 0.91883 0.0
O44 O 0.5316 0.08093 0.87239 0.0
O45 O 0.51762 0.06005 0.89334 0.0
O46 O 0.56547 0.09514 0.91089 0.0
O47 O 0.53423 0.05487 0.0178 0.0
O48 O 0.54572 0.07737 -0.00073 0.0
C49 C 0.51913 0.07273 0.86756 0.0
C50 C 0.56218 0.04292 0.88669 0.0
O51 O 0.56366 0.05786 0.8865 0.0
O52 O 0.55073 0.03665 0.91041 0.0
C53 C 0.57429 0.09735 0.87117 0.0
O54 O 0.57353 0.0875 0.83152 0.0
C55 C 0.53956 0.06799 0.03255 0.0
Zn56 Zn 0.2035 0.72578 0.30936 0.0
Zn57 Zn 0.17815 0.71013 0.33623 0.0
O58 O 0.17497 0.72971 0.38212 0.0
O59 O 0.1959 0.74314 0.358 0.0
O60 O 0.15943 0.69605 0.35108 0.0
O61 O 0.19819 0.72601 0.23337 0.0
O62 O 0.1758 0.71486 0.25581 0.0
C63 C 0.18352 0.74197 0.38558 0.0
C64 C 0.21199 0.69814 0.36223 0.0
O65 O 0.19704 0.69702 0.36525 0.0
O66 O 0.21813 0.70941 0.33719 0.0
C67 C 0.15872 0.68295 0.32715 0.0
O68 O 0.17005 0.67923 0.29428 0.0
C69 C 0.18478 0.72084 0.22093 0.0
Zn70 Zn 0.52946 0.96537 0.55635 0.0
Zn71 Zn 0.54402 0.93904 0.58076 0.0
O72 O 0.52432 0.93644 0.62651 0.0
O73 O 0.51179 0.95812 0.60462 0.0
O74 O 0.55699 0.91945 0.59317 0.0
O75 O 0.52908 0.96055 0.47975 0.0
O76 O 0.53931 0.9376 0.50036 0.0
C77 C 0.51244 0.94548 0.63101 0.0
C78 C 0.55772 0.97191 0.60972 0.0
O79 O 0.55814 0.95691 0.61119 0.0
O80 O 0.54668 0.97879 0.58571 0.0
C81 C 0.57075 0.91891 0.57354 0.0
O82 O 0.57595 0.9311 0.547 0.0
C83 C 0.53374 0.94705 0.46621 0.0
Zn84 Zn 0.29299 0.2807 0.80517 0.0
Zn85 Zn 0.31878 0.29629 0.82702 0.0
O86 O 0.32271 0.27697 0.87354 0.0
O87 O 0.30153 0.26346 0.8526 0.0
O88 O 0.33776 0.31048 0.83538 0.0
O89 O 0.29682 0.2803 0.72807 0.0
O90 O 0.31966 0.29108 0.74675 0.0
C91 C 0.31423 0.26469 0.87838 0.0
C92 C 0.28554 0.30854 0.85903 0.0
O93 O 0.30052 0.30966 0.85896 0.0
O94 O 0.27897 0.29718 0.83579 0.0
C95 C 0.33827 0.32241 0.80527 0.0
O96 O 0.3266 0.32477 0.77239 0.0
C97 C 0.31013 0.28523 0.71341 0.0
Zn98 Zn 0.97162 0.04897 0.04756 0.0
Zn99 Zn 0.95609 0.07471 0.06865 0.0
O100 O 0.97544 0.07888 0.11485 0.0
O101 O 0.98889 0.0576 0.09465 0.0
O102 O 0.94193 0.09372 0.07587 0.0
O103 O 0.97217 0.05245 0.9704 0.0
O104 O 0.96122 0.07526 0.98821 0.0
C105 C 0.9877 0.07039 0.11994 0.0
C106 C 0.94388 0.04163 0.10214 0.0
O107 O 0.94278 0.0566 0.10187 0.0
O108 O 0.95516 0.03501 0.07854 0.0
C109 C 0.93603 0.09843 0.119 0.0
O110 O 0.93956 0.09099 0.16266 0.0
C111 C 0.96717 0.06566 0.95521 0.0
Zn112 Zn 0.81647 0.72655 0.86287 0.0
Zn113 Zn 0.83783 0.70497 0.88684 0.0
O114 O 0.84401 0.72263 0.93825 0.0
O115 O 0.82628 0.7405 0.91784 0.0
O116 O 0.85428 0.68793 0.89629 0.0
O117 O 0.82366 0.72857 0.78908 0.0
O118 O 0.84172 0.71094 0.80862 0.0
C119 C 0.83801 0.73622 0.94496 0.0
C120 C 0.80216 0.69882 0.90281 0.0
O121 O 0.81649 0.69464 0.90832 0.0
O122 O 0.79891 0.71189 0.88173 0.0
C123 C 0.85272 0.67559 0.924 0.0
O124 O 0.83977 0.67356 0.95134 0.0
C125 C 0.83533 0.7203 0.77592 0.0
Zn126 Zn 0.03748 0.04831 0.54615 0.0
Zn127 Zn 0.05298 0.07421 0.5677 0.0
O128 O 0.03373 0.07793 0.61493 0.0
O129 O 0.02035 0.05663 0.59455 0.0
O130 O 0.06695 0.0933 0.57565 0.0
O131 O 0.03675 0.05236 0.46917 0.0
O132 O 0.04769 0.07513 0.48762 0.0
C133 C 0.02155 0.06934 0.62026 0.0
C134 C 0.06576 0.04113 0.59828 0.0
O135 O 0.06671 0.0561 0.59857 0.0
O136 O 0.05433 0.03448 0.57559 0.0
C137 C 0.07327 0.09748 0.61867 0.0
O138 O 0.07026 0.08943 0.66158 0.0
C139 C 0.04168 0.06565 0.45442 0.0
Zn140 Zn 0.7092 0.27759 0.31575 0.0
Zn141 Zn 0.6832 0.29272 0.3401 0.0
O142 O 0.68037 0.27316 0.38636 0.0
O143 O 0.70177 0.26014 0.36448 0.0
O144 O 0.66371 0.30587 0.35263 0.0
O145 O 0.70436 0.27707 0.2393 0.0
O146 O 0.68164 0.28786 0.25973 0.0
C147 C 0.68918 0.26112 0.39104 0.0
C148 C 0.71635 0.30589 0.36802 0.0
O149 O 0.70136 0.30665 0.3699 0.0
O150 O 0.72295 0.29463 0.34426 0.0
C151 C 0.66216 0.31861 0.32699 0.0
O152 O 0.67333 0.32282 0.29419 0.0
C153 C 0.69097 0.28201 0.22569 0.0
Zn154 Zn 0.46397 0.96507 0.06243 0.0
Zn155 Zn 0.44741 0.93976 0.08048 0.0
O156 O 0.46646 0.93454 0.12714 0.0
O157 O 0.48075 0.95546 0.10924 0.0
O158 O 0.43256 0.92117 0.08434 0.0
O159 O 0.46468 0.96239 0.985 0.0
O160 O 0.4527 0.93992 0.00011 0.0
C161 C 0.479 0.94254 0.13343 0.0
C162 C 0.43619 0.97288 0.11645 0.0
O163 O 0.43454 0.95797 0.11487 0.0
O164 O 0.44783 0.97926 0.09406 0.0
C165 C 0.42961 0.9128 0.12455 0.0
O166 O 0.43673 0.91593 0.16911 0.0
C167 C 0.45912 0.94958 0.96827 0.0
Zn168 Zn 0.80124 0.28235 0.68679 0.0
Zn169 Zn 0.82551 0.30022 0.66568 0.0
O170 O 0.83116 0.2815 0.6182 0.0
O171 O 0.81116 0.26619 0.6383 0.0
O172 O 0.84319 0.31612 0.65933 0.0
O173 O 0.80501 0.28168 0.76371 0.0
O174 O 0.82671 0.29473 0.74581 0.0
C175 C 0.82373 0.26859 0.61268 0.0
C176 C 0.79132 0.30972 0.63479 0.0
O177 O 0.80615 0.31212 0.63423 0.0
O178 O 0.78581 0.29775 0.65775 0.0
C179 C 0.85264 0.31777 0.62094 0.0
O180 O 0.85132 0.30851 0.57989 0.0
C181 C 0.81776 0.28778 0.77872 0.0
Zn182 Zn 0.46892 0.05187 0.44045 0.0
Zn183 Zn 0.45323 0.07777 0.42011 0.0
O184 O 0.47229 0.08162 0.37206 0.0
O185 O 0.48585 0.06035 0.39156 0.0
O186 O 0.43917 0.09683 0.41287 0.0
O187 O 0.46989 0.05579 0.51748 0.0
O188 O 0.45883 0.07858 0.49999 0.0
C189 C 0.48449 0.07309 0.36609 0.0
C190 C 0.44046 0.04467 0.38951 0.0
O191 O 0.43944 0.05964 0.38973 0.0
O192 O 0.45203 0.03802 0.41136 0.0
C193 C 0.4313 0.0999 0.37168 0.0
O194 O 0.43276 0.09073 0.33045 0.0
C195 C 0.46499 0.06904 0.53272 0.0
Zn196 Zn 0.69406 0.72764 0.13285 0.0
Zn197 Zn 0.673 0.706 0.10931 0.0
O198 O 0.66722 0.7232 0.05553 0.0
O199 O 0.68553 0.74072 0.07359 0.0
O200 O 0.6567 0.68886 0.09991 0.0
O201 O 0.68513 0.7316 0.20345 0.0
O202 O 0.66803 0.71288 0.18592 0.0
C203 C 0.67367 0.7365 0.04701 0.0
C204 C 0.70881 0.69944 0.10051 0.0
O205 O 0.69456 0.6955 0.09187 0.0
O206 O 0.71187 0.71254 0.1216 0.0
C207 C 0.6584 0.67631 0.07342 0.0
O208 O 0.67151 0.67401 0.04722 0.0
C209 C 0.6735 0.7233 0.21683 0.0
Zn210 Zn 0.04025 0.96445 0.93098 0.0
Zn211 Zn 0.05592 0.93852 0.91292 0.0
O212 O 0.03661 0.93407 0.86664 0.0
O213 O 0.02306 0.95548 0.88432 0.0
O214 O 0.06977 0.91922 0.90836 0.0
O215 O 0.03961 0.96171 0.00844 0.0
O216 O 0.05089 0.93888 -0.00661 0.0
C217 C 0.02436 0.94249 0.86029 0.0
C218 C 0.06837 0.97115 0.87682 0.0
O219 O 0.0695 0.95619 0.87841 0.0
O220 O 0.05695 0.97794 0.89914 0.0
C221 C 0.07656 0.91441 0.86685 0.0
O222 O 0.0743 0.92199 0.82252 0.0
C223 C 0.04484 0.94877 0.02522 0.0
Zn224 Zn 0.68884 0.78272 0.63175 0.0
Zn225 Zn 0.66891 0.80568 0.60776 0.0
O226 O 0.66192 0.78849 0.55611 0.0
O227 O 0.67858 0.76954 0.57567 0.0
O228 O 0.65433 0.82403 0.59399 0.0
O229 O 0.68078 0.7811 0.70449 0.0
O230 O 0.6641 0.80015 0.68587 0.0
C231 C 0.66714 0.77462 0.54872 0.0
C232 C 0.70497 0.80962 0.59412 0.0
O233 O 0.69093 0.81456 0.58775 0.0
O234 O 0.70743 0.79636 0.61505 0.0
C235 C 0.63996 0.82362 0.60781 0.0
O236 O 0.63442 0.81081 0.62998 0.0
C237 C 0.6697 0.79011 0.71795 0.0
Zn238 Zn 0.47292 0.43985 0.89171 0.0
Zn239 Zn 0.45385 0.41661 0.86531 0.0
O240 O 0.47261 0.41152 0.81715 0.0
O241 O 0.48881 0.43038 0.8413 0.0
O242 O 0.43789 0.39928 0.85315 0.0
O243 O 0.47311 0.43404 0.9673 0.0
O244 O 0.45887 0.41348 0.94491 0.0
C245 C 0.48588 0.41841 0.8133 0.0
C246 C 0.44531 0.45164 0.84429 0.0
O247 O 0.44233 0.43699 0.84027 0.0
O248 O 0.45776 0.45618 0.86678 0.0
C249 C 0.42794 0.3994 0.81589 0.0
O250 O 0.42825 0.41096 0.78167 0.0
C251 C 0.46624 0.42141 0.97955 0.0
Zn252 Zn 0.80314 0.21791 0.18864 0.0
Zn253 Zn 0.82865 0.20188 0.16646 0.0
O254 O 0.83249 0.22087 0.11807 0.0
O255 O 0.81147 0.23465 0.1389 0.0
O256 O 0.84753 0.18758 0.15862 0.0
O257 O 0.80747 0.219 0.26527 0.0
O258 O 0.82996 0.20752 0.24632 0.0
C259 C 0.82405 0.23315 0.11258 0.0
C260 C 0.79519 0.18953 0.13861 0.0
O261 O 0.81015 0.18831 0.1372 0.0
O262 O 0.78888 0.20116 0.16116 0.0
C263 C 0.85267 0.18219 0.1153 0.0
O264 O 0.84576 0.18635 0.07129 0.0
C265 C 0.8207 0.21386 0.27961 0.0
Zn266 Zn 0.03954 0.54948 0.4123 0.0
Zn267 Zn 0.05698 0.57373 0.38522 0.0
O268 O 0.03764 0.57802 0.33902 0.0
O269 O 0.02282 0.55805 0.36315 0.0
O270 O 0.07239 0.59126 0.36861 0.0
O271 O 0.03959 0.55509 0.48802 0.0
O272 O 0.05249 0.57653 0.46568 0.0
C273 C 0.02486 0.57026 0.33538 0.0
C274 C 0.06674 0.53908 0.36059 0.0
O275 O 0.06885 0.55391 0.35733 0.0
O276 O 0.05499 0.53374 0.38524 0.0
C277 C 0.07182 0.60484 0.38945 0.0
O278 O 0.06044 0.6081 0.42265 0.0
C279 C 0.04579 0.56804 0.50048 0.0
Zn280 Zn 0.71144 0.21355 0.8199 0.0
Zn281 Zn 0.68659 0.19634 0.8404 0.0
O282 O 0.68133 0.21549 0.88656 0.0
O283 O 0.70176 0.23028 0.86676 0.0
O284 O 0.66821 0.18127 0.8466 0.0
O285 O 0.70812 0.21383 0.74274 0.0
O286 O 0.68608 0.20126 0.75982 0.0
C287 C 0.68902 0.22827 0.89183 0.0
C288 C 0.72024 0.18593 0.87342 0.0
O289 O 0.70536 0.18388 0.87328 0.0
O290 O 0.72613 0.19776 0.85069 0.0
C291 C 0.65898 0.17977 0.88562 0.0
O292 O 0.6611 0.18858 0.92741 0.0
C293 C 0.69539 0.20782 0.72713 0.0
Zn294 Zn 0.03727 0.45072 0.05465 0.0
Zn295 Zn 0.05483 0.42611 0.07532 0.0
O296 O 0.03606 0.42082 0.12305 0.0
O297 O 0.02097 0.44101 0.10326 0.0
O298 O 0.07024 0.40808 0.0815 0.0
O299 O 0.03657 0.44688 0.97767 0.0
O300 O 0.04932 0.42501 -0.00462 0.0
C301 C 0.02323 0.4284 0.12875 0.0
C302 C 0.06513 0.46003 0.10579 0.0
O303 O 0.06728 0.44518 0.10614 0.0
O304 O 0.05312 0.46574 0.08362 0.0
C305 C 0.07321 0.40014 0.12264 0.0
O306 O 0.06576 0.40343 0.16651 0.0
C307 C 0.04249 0.43405 0.96255 0.0
Zn308 Zn 0.81532 0.78225 0.35805 0.0
Zn309 Zn 0.83568 0.80439 0.38571 0.0
O310 O 0.84192 0.7867 0.43669 0.0
O311 O 0.82455 0.76861 0.41505 0.0
O312 O 0.85047 0.8224 0.40189 0.0
O313 O 0.82419 0.78059 0.28616 0.0
O314 O 0.84104 0.79919 0.30773 0.0
C315 C 0.83603 0.77304 0.44308 0.0
C316 C 0.79959 0.80922 0.39607 0.0
O317 O 0.81372 0.81359 0.40458 0.0
O318 O 0.79691 0.79632 0.37315 0.0
C319 C 0.86468 0.82232 0.38625 0.0
O320 O 0.87 0.80999 0.36076 0.0
C321 C 0.83559 0.78943 0.27446 0.0
Zn322 Zn 0.46806 0.55533 0.58035 0.0
Zn323 Zn 0.44673 0.57639 0.60851 0.0
O324 O 0.46493 0.58243 0.65764 0.0
O325 O 0.48264 0.56487 0.6343 0.0
O326 O 0.42943 0.59204 0.62493 0.0
O327 O 0.46885 0.56294 0.50671 0.0
O328 O 0.45151 0.58096 0.52948 0.0
C329 C 0.47859 0.57643 0.66265 0.0
C330 C 0.44118 0.54054 0.62358 0.0
O331 O 0.43704 0.55482 0.63045 0.0
O332 O 0.45392 0.53743 0.60011 0.0
C333 C 0.43072 0.60634 0.6109 0.0
O334 O 0.44362 0.6109 0.58692 0.0
C335 C 0.46043 0.57465 0.49517 0.0
Zn336 Zn 0.29399 0.21511 0.30679 0.0
Zn337 Zn 0.31975 0.1993 0.32656 0.0
O338 O 0.32405 0.21844 0.37363 0.0
O339 O 0.3028 0.2321 0.35458 0.0
O340 O 0.33874 0.18509 0.33228 0.0
O341 O 0.29739 0.21592 0.22956 0.0
O342 O 0.32013 0.20467 0.24639 0.0
C343 C 0.31564 0.23071 0.37955 0.0
C344 C 0.2867 0.18702 0.35981 0.0
O345 O 0.30167 0.18583 0.35916 0.0
O346 O 0.2801 0.1985 0.33727 0.0
C347 C 0.34619 0.18183 0.37418 0.0
O348 O 0.3417 0.18819 0.41876 0.0
C349 C 0.31052 0.21082 0.21386 0.0
Zn350 Zn 0.52513 0.55547 0.0827 0.0
Zn351 Zn 0.54568 0.57765 0.1079 0.0
O352 O 0.52769 0.58338 0.15865 0.0
O353 O 0.51058 0.56506 0.13694 0.0
O354 O 0.56259 0.5941 0.11826 0.0
O355 O 0.52363 0.5623 0.00822 0.0
O356 O 0.53994 0.5814 0.02942 0.0
C357 C 0.51428 0.57689 0.16455 0.0
C358 C 0.55302 0.54228 0.12485 0.0
O359 O 0.55656 0.55676 0.13037 0.0
O360 O 0.54023 0.53843 0.103 0.0
C361 C 0.57473 0.59288 0.08929 0.0
O362 O 0.57576 0.58089 0.05691 0.0
C363 C 0.53132 0.57443 -0.00422 0.0
Zn364 Zn 0.20562 0.78948 0.81554 0.0
Zn365 Zn 0.18087 0.80696 0.83494 0.0
O366 O 0.17551 0.78822 0.88299 0.0
O367 O 0.19577 0.77315 0.86364 0.0
O368 O 0.16265 0.82218 0.83979 0.0
O369 O 0.20217 0.78873 0.73838 0.0
O370 O 0.18018 0.80142 0.75497 0.0
C371 C 0.18309 0.7754 0.88882 0.0
C372 C 0.21457 0.81756 0.86628 0.0
O373 O 0.19971 0.81968 0.86592 0.0
O374 O 0.22039 0.80546 0.84502 0.0
C375 C 0.15681 0.82777 0.88181 0.0
O376 O 0.16251 0.82328 0.92737 0.0
C377 C 0.1894 0.79463 0.72259 0.0
Zn378 Zn 0.97397 0.4495 0.55119 0.0
Zn379 Zn 0.95753 0.42452 0.57603 0.0
O380 O 0.97682 0.42054 0.62284 0.0
O381 O 0.99098 0.44108 0.5996 0.0
O382 O 0.94313 0.40573 0.58587 0.0
O383 O 0.97439 0.44497 0.47473 0.0
O384 O 0.96254 0.42283 0.4957 0.0
C385 C 0.98935 0.42869 0.62678 0.0
C386 C 0.94626 0.45838 0.60373 0.0
O387 O 0.94463 0.44347 0.60588 0.0
O388 O 0.95786 0.46426 0.57967 0.0
C389 C 0.93371 0.4039 0.62422 0.0
O390 O 0.93343 0.41444 0.66191 0.0
C391 C 0.96883 0.43181 0.46145 0.0
Zn392 Zn 0.29904 0.7896 0.1759 0.0
Zn393 Zn 0.32438 0.80611 0.15571 0.0
O394 O 0.32878 0.78712 0.10776 0.0
O395 O 0.30796 0.77288 0.12743 0.0
O396 O 0.34327 0.82051 0.14927 0.0
O397 O 0.30267 0.78872 0.25287 0.0
O398 O 0.32506 0.80068 0.23589 0.0
C399 C 0.32066 0.77464 0.10191 0.0
C400 C 0.29096 0.81787 0.12507 0.0
O401 O 0.3059 0.81944 0.12496 0.0
O402 O 0.28475 0.80606 0.1469 0.0
C403 C 0.34608 0.82924 0.1098 0.0
O404 O 0.33664 0.82866 0.069 0.0
C405 C 0.31565 0.79421 0.26844 0.0
Zn406 Zn 0.9779 0.54677 0.90698 0.0
Zn407 Zn 0.95998 0.5712 0.88605 0.0
O408 O 0.97874 0.57651 0.83794 0.0
O409 O 0.99415 0.55663 0.8585 0.0
O410 O 0.94448 0.58917 0.87927 0.0
O411 O 0.97839 0.55076 0.98396 0.0
O412 O 0.96546 0.5725 0.96592 0.0
C413 C 0.99171 0.56914 0.83265 0.0
C414 C 0.94989 0.53713 0.85692 0.0
O415 O 0.94754 0.55195 0.85651 0.0
O416 O 0.96213 0.53161 0.87822 0.0
C417 C 0.93225 0.5882 0.90793 0.0
O418 O 0.9304 0.5757 0.93763 0.0
C419 C 0.97232 0.56353 -0.00112 0.0
Zn420 Zn 0.20766 0.21516 0.68775 0.0
Zn421 Zn 0.18185 0.19951 0.66687 0.0
O422 O 0.17776 0.21883 0.62042 0.0
O423 O 0.199 0.23238 0.64049 0.0
O424 O 0.16281 0.18544 0.65967 0.0
O425 O 0.20405 0.21561 0.76495 0.0
O426 O 0.18126 0.20457 0.7472 0.0
C427 C 0.18621 0.23111 0.61518 0.0
C428 C 0.21491 0.18718 0.63397 0.0
O429 O 0.19994 0.18605 0.63441 0.0
O430 O 0.22153 0.19859 0.65683 0.0
C431 C 0.15716 0.18065 0.6163 0.0
O432 O 0.16365 0.18531 0.57208 0.0
C433 C 0.19086 0.21053 0.78016 0.0
Zn434 Zn 0.52994 0.43983 0.39395 0.0
Zn435 Zn 0.55004 0.41783 0.36493 0.0
O436 O 0.53128 0.41196 0.31788 0.0
O437 O 0.51437 0.43001 0.34345 0.0
O438 O 0.56713 0.40196 0.34824 0.0
O439 O 0.53029 0.43346 0.46889 0.0
O440 O 0.54584 0.41402 0.44495 0.0
C441 C 0.51772 0.4183 0.31478 0.0
C442 C 0.55644 0.45342 0.34553 0.0
O443 O 0.56009 0.43896 0.34001 0.0
O444 O 0.54403 0.45718 0.3698 0.0
C445 C 0.56741 0.38829 0.36853 0.0
O446 O 0.55588 0.38398 0.39975 0.0
C447 C 0.53806 0.42129 0.48024 0.0
H448 H 0.29426 0.3232 0.95031 0.0
H449 H 0.20503 0.32311 0.04263 0.0
H450 H 0.25441 0.31568 0.84873 0.0
H451 H 0.24492 0.31624 0.14452 0.0
H452 H 0.22295 0.3313 0.97233 0.0
H453 H 0.27628 0.33154 0.02023 0.0
C454 C 0.28179 0.32387 0.94203 0.0
C455 C 0.27578 0.31842 0.89405 0.0
C456 C 0.22774 0.32846 0.0106 0.0
C457 C 0.25519 0.32777 0.97386 0.0
C458 C 0.2175 0.32391 0.05089 0.0
C459 C 0.22354 0.31867 0.09909 0.0
C460 C 0.24407 0.32784 0.01886 0.0
C461 C 0.23981 0.31991 0.10756 0.0
C462 C 0.27152 0.32851 0.9821 0.0
C463 C 0.2595 0.31951 0.88554 0.0
N464 N 0.24953 0.32408 0.06754 0.0
N465 N 0.24975 0.32378 0.92536 0.0
H466 H 0.93787 1.0023 0.39404 0.0
H467 H 0.93582 0.0108 0.09107 0.0
H468 H 0.93208 0.96282 0.28974 0.0
H469 H 0.93074 0.0502 0.1961 0.0
H470 H 0.92806 0.99316 0.16205 0.0
H471 H 0.92894 0.01981 0.3243 0.0
C472 C 0.93425 0.99726 0.35687 0.0
C473 C 0.93602 0.98112 0.34732 0.0
C474 C 0.92819 0.00569 0.1694 0.0
C475 C 0.92623 1.00117 0.26662 0.0
C476 C 0.93257 0.01578 0.12872 0.0
C477 C 0.9342 0.03195 0.138 0.0
C478 C 0.92582 0.01177 0.2201 0.0
C479 C 0.92975 0.03779 0.18736 0.0
C480 C 0.92918 0.00728 0.31692 0.0
C481 C 0.93103 0.97521 0.29864 0.0
N482 N 0.92619 0.02766 0.22703 0.0
N483 N 0.92679 0.98528 0.2596 0.0
H484 H 0.24265 0.69032 0.34472 0.0
H485 H 0.25697 0.6911 0.64499 0.0
H486 H 0.20517 0.68471 0.45735 0.0
H487 H 0.29433 0.684 0.53293 0.0
H488 H 0.23791 0.68303 0.57869 0.0
H489 H 0.26154 0.68223 0.41155 0.0
C490 C 0.23835 0.6869 0.38315 0.0
C491 C 0.22236 0.68845 0.3958 0.0
C492 C 0.2503 0.68279 0.56883 0.0
C493 C 0.24399 0.67966 0.47312 0.0
C494 C 0.2612 0.68737 0.60681 0.0
C495 C 0.27722 0.68848 0.59414 0.0
C496 C 0.25542 0.67969 0.51737 0.0
C497 C 0.28207 0.68342 0.54424 0.0
C498 C 0.24916 0.68232 0.42143 0.0
C499 C 0.21741 0.68379 0.44604 0.0
N500 N 0.27117 0.67966 0.50717 0.0
N501 N 0.22824 0.68003 0.48333 0.0
H502 H 0.56955 0.01196 0.89881 0.0
H503 H 0.56632 0.00255 0.59651 0.0
H504 H 0.57539 0.05091 0.79228 0.0
H505 H 0.57194 0.96327 0.70186 0.0
H506 H 0.57581 0.02011 0.66524 0.0
H507 H 0.57671 0.99392 0.82828 0.0
C508 C 0.57284 0.01674 0.86092 0.0
C509 C 0.5716 0.03292 0.85109 0.0
C510 C 0.5754 0.00761 0.67306 0.0
C511 C 0.57929 0.0123 0.76953 0.0
C512 C 0.57001 0.99756 0.63369 0.0
C513 C 0.56804 0.98147 0.64385 0.0
C514 C 0.57848 1.00158 0.72341 0.0
C515 C 0.57313 0.97562 0.6925 0.0
C516 C 0.57689 0.00643 0.8205 0.0
C517 C 0.57609 0.03851 0.80143 0.0
N518 N 0.5777 0.98573 0.731 0.0
N519 N 0.5793 0.02817 0.76204 0.0
H520 H 0.738 0.69566 0.14227 0.0
H521 H 0.803 0.68109 0.99282 0.0
H522 H 0.70994 0.68349 0.00739 0.0
H523 H 0.77172 0.69693 0.87053 0.0
H524 H 0.78007 0.6735 0.04574 0.0
H525 H 0.7616 0.68789 0.09444 0.0
C526 C 0.73678 0.69078 0.10316 0.0
C527 C 0.72204 0.6903 0.0786 0.0
C528 C 0.77825 0.67839 0.00695 0.0
C529 C 0.74904 0.68161 0.02303 0.0
C530 C 0.79133 0.68253 0.97646 0.0
C531 C 0.78921 0.68995 0.92775 0.0
C532 C 0.76304 0.68168 0.98826 0.0
C533 C 0.77384 0.69151 0.90837 0.0
C534 C 0.75028 0.68626 0.07583 0.0
C535 C 0.7211 0.68401 0.02776 0.0
N536 N 0.76134 0.68762 0.93896 0.0
N537 N 0.73449 0.68037 0.00101 0.0
H538 H 0.07708 1.00177 0.88794 0.0
H539 H 0.07354 0.01027 0.58568 0.0
H540 H 0.08123 0.9623 0.78279 0.0
H541 H 0.08056 0.04967 0.68943 0.0
H542 H 0.08276 0.99265 0.65467 0.0
H543 H 0.08491 0.01929 0.81671 0.0
C544 C 0.08016 0.99674 0.85019 0.0
C545 C 0.07824 0.98061 0.84094 0.0
C546 C 0.08273 0.00517 0.66206 0.0
C547 C 0.08666 1.00065 0.75858 0.0
C548 C 0.07748 0.01526 0.62254 0.0
C549 C 0.07598 0.03142 0.63223 0.0
C550 C 0.08611 0.01126 0.7121 0.0
C551 C 0.08139 0.03727 0.68047 0.0
C552 C 0.08458 0.00677 0.80938 0.0
C553 C 0.08246 0.97469 0.79148 0.0
N554 N 0.0858 0.02714 0.71916 0.0
N555 N 0.08603 0.98477 0.75167 0.0
H556 H 0.74676 0.3147 0.35094 0.0
H557 H 0.76027 0.31586 0.65149 0.0
H558 H 0.70881 0.31954 0.46216 0.0
H559 H 0.79769 0.32363 0.54012 0.0
H560 H 0.74115 0.32305 0.58427 0.0
H561 H 0.76518 0.3238 0.41776 0.0
C562 C 0.74224 0.31815 0.38904 0.0
C563 C 0.72628 0.3161 0.40132 0.0
C564 C 0.75354 0.32364 0.57474 0.0
C565 C 0.74738 0.32606 0.47869 0.0
C566 C 0.76448 0.31957 0.61325 0.0
C567 C 0.78056 0.31892 0.60108 0.0
C568 C 0.75869 0.32665 0.52325 0.0
C569 C 0.78538 0.3239 0.55106 0.0
C570 C 0.75278 0.32332 0.42732 0.0
C571 C 0.72104 0.32085 0.45114 0.0
N572 N 0.77447 0.32713 0.51349 0.0
N573 N 0.73163 0.32518 0.48849 0.0
H574 H 0.42243 0.96429 0.2094 0.0
H575 H 0.42478 0.05352 0.30028 0.0
H576 H 0.42904 0.00396 0.10628 0.0
H577 H 0.43314 0.01364 0.40106 0.0
H578 H 0.41527 0.03563 0.23189 0.0
H579 H 0.4152 0.9824 0.28029 0.0
C580 C 0.42175 0.97676 0.20105 0.0
C581 C 0.42664 0.98268 0.15227 0.0
C582 C 0.41875 0.03085 0.26958 0.0
C583 C 0.41859 0.0034 0.23311 0.0
C584 C 0.42407 0.04106 0.30878 0.0
C585 C 0.43007 0.035 0.35595 0.0
C586 C 0.41938 0.01453 0.2779 0.0
C587 C 0.42889 0.01876 0.3648 0.0
C588 C 0.41775 0.98709 0.24166 0.0
C589 C 0.4256 0.99894 0.14367 0.0
N590 N 0.42395 0.00906 0.3258 0.0
N591 N 0.42198 0.00876 0.18397 0.0
H592 H 0.73464 0.81216 0.6331 0.0
H593 H 0.76994 0.81229 0.35699 0.0
H594 H 0.70611 0.82499 0.49995 0.0
H595 H 0.79859 0.82438 0.49063 0.0
H596 H 0.74646 0.81953 0.40691 0.0
H597 H 0.7582 0.81921 0.58329 0.0
C598 C 0.73334 0.81691 0.59384 0.0
C599 C 0.71846 0.81791 0.5704 0.0
C600 C 0.7579 0.82105 0.42488 0.0
C601 C 0.74535 0.82547 0.51257 0.0
C602 C 0.7713 0.81692 0.39638 0.0
C603 C 0.78618 0.81763 0.41993 0.0
C604 C 0.75937 0.82542 0.47784 0.0
C605 C 0.78731 0.82367 0.47107 0.0
C606 C 0.74678 0.82094 0.5654 0.0
C607 C 0.71739 0.82408 0.51941 0.0
N608 N 0.77403 0.82692 0.49891 0.0
N609 N 0.7307 0.82721 0.49158 0.0
H610 H 0.43849 0.48132 0.87652 0.0
H611 H 0.43835 0.51025 0.59035 0.0
H612 H 0.43145 0.44925 0.74769 0.0
H613 H 0.42596 0.54103 0.71832 0.0
H614 H 0.43186 0.48761 0.64523 0.0
H615 H 0.42991 0.50299 0.82057 0.0
C616 C 0.43467 0.4788 0.83681 0.0
C617 C 0.43581 0.46353 0.81647 0.0
C618 C 0.43011 0.4993 0.66095 0.0
C619 C 0.42651 0.48834 0.75157 0.0
C620 C 0.4338 0.51224 0.62957 0.0
C621 C 0.43286 0.52751 0.65008 0.0
C622 C 0.4259 0.50164 0.71375 0.0
C623 C 0.42688 0.52944 0.70105 0.0
C624 C 0.42978 0.49118 0.8048 0.0
C625 C 0.43074 0.46087 0.76481 0.0
N626 N 0.42404 0.51663 0.73169 0.0
N627 N 0.42672 0.47324 0.73361 0.0
H628 H 0.75098 0.17853 0.85669 0.0
H629 H 0.76462 0.18154 0.15669 0.0
H630 H 0.71342 0.17274 0.96884 0.0
H631 H 0.80238 0.17495 0.04575 0.0
H632 H 0.74596 0.17229 0.09088 0.0
H633 H 0.76991 0.17111 0.92423 0.0
C634 C 0.74668 0.17519 0.8952 0.0
C635 C 0.73065 0.17648 0.90748 0.0
C636 C 0.75836 0.17241 0.0812 0.0
C637 C 0.75231 0.16852 0.98564 0.0
C638 C 0.76904 0.17767 0.1189 0.0
C639 C 0.78503 0.17928 0.1063 0.0
C640 C 0.76366 0.16914 0.03006 0.0
C641 C 0.79013 0.174 0.05695 0.0
C642 C 0.75751 0.17099 0.9339 0.0
C643 C 0.7257 0.17196 0.95783 0.0
N644 N 0.77942 0.16959 0.02008 0.0
N645 N 0.73653 0.16862 -0.00445 0.0
H646 H 0.07961 0.45354 0.19933 0.0
H647 H 0.08151 0.54485 0.26688 0.0
H648 H 0.07189 0.49084 0.08764 0.0
H649 H 0.0723 0.50798 0.37903 0.0
H650 H 0.08898 0.5249 0.20206 0.0
H651 H 0.08787 0.47314 0.26438 0.0
C652 C 0.08024 0.46578 0.18784 0.0
C653 C 0.07482 0.47063 0.13839 0.0
C654 C 0.08577 0.52122 0.24138 0.0
C655 C 0.08411 0.49303 0.21245 0.0
C656 C 0.08163 0.53261 0.27853 0.0
C657 C 0.07599 0.52803 0.32805 0.0
C658 C 0.08437 0.50521 0.25414 0.0
C659 C 0.07632 0.51199 0.34094 0.0
C660 C 0.08483 0.47697 0.22509 0.0
C661 C 0.07577 0.48665 0.12567 0.0
N662 N 0.08016 0.50113 0.30395 0.0
N663 N 0.08006 0.49731 0.1627 0.0
H664 H 0.29544 0.17249 0.45128 0.0
H665 H 0.20615 0.17263 0.54256 0.0
H666 H 0.25566 0.17961 0.34909 0.0
H667 H 0.24595 0.17979 0.64463 0.0
H668 H 0.22414 0.16422 0.47276 0.0
H669 H 0.27743 0.16417 0.52119 0.0
C670 C 0.28298 0.17172 0.44287 0.0
C671 C 0.27699 0.17706 0.39473 0.0
C672 C 0.22888 0.16718 0.51097 0.0
C673 C 0.25637 0.16777 0.4745 0.0
C674 C 0.21861 0.17186 0.55097 0.0
C675 C 0.22462 0.17723 0.59904 0.0
C676 C 0.24521 0.16781 0.51939 0.0
C677 C 0.24087 0.17602 0.60774 0.0
C678 C 0.2727 0.1671 0.48293 0.0
C679 C 0.26073 0.17586 0.38604 0.0
N680 N 0.25063 0.17172 0.56799 0.0
N681 N 0.25096 0.17163 0.42584 0.0
H682 H 0.56158 0.48349 0.3774 0.0
H683 H 0.55731 0.51217 0.09171 0.0
H684 H 0.5698 0.45193 0.2479 0.0
H685 H 0.569 0.54382 0.21794 0.0
H686 H 0.56578 0.49006 0.1459 0.0
H687 H 0.56829 0.50567 0.32075 0.0
C688 C 0.56528 0.48122 0.33737 0.0
C689 C 0.56498 0.4659 0.31707 0.0
C690 C 0.56694 0.50185 0.16135 0.0
C691 C 0.57215 0.49125 0.25146 0.0
C692 C 0.56211 0.51449 0.13037 0.0
C693 C 0.56229 0.5298 0.15068 0.0
C694 C 0.57153 0.50452 0.21359 0.0
C695 C 0.56863 0.53218 0.2009 0.0
C696 C 0.5691 0.49388 0.30497 0.0
C697 C 0.56987 0.46357 0.26501 0.0
N698 N 0.5726 0.51962 0.23125 0.0
N699 N 0.57283 0.47616 0.2335 0.0
H700 H 0.29834 0.83227 0.03207 0.0
H701 H 0.20762 0.83294 0.9579 0.0
H702 H 0.26025 0.82552 0.14169 0.0
H703 H 0.24555 0.82398 0.8495 0.0
H704 H 0.2269 0.84147 0.02357 0.0
H705 H 0.27925 0.84055 0.96544 0.0
C706 C 0.28604 0.83314 0.04278 0.0
C707 C 0.2808 0.82791 0.09205 0.0
C708 C 0.23095 0.8381 0.98482 0.0
C709 C 0.25897 0.83717 0.01614 0.0
C710 C 0.21994 0.83335 0.94721 0.0
C711 C 0.22505 0.82746 0.89864 0.0
C712 C 0.2471 0.83703 0.97345 0.0
C713 C 0.24117 0.82818 0.8869 0.0
C714 C 0.27513 0.83774 0.00462 0.0
C715 C 0.26472 0.8292 0.10379 0.0
N716 N 0.25164 0.83259 0.92435 0.0
N717 N 0.25434 0.83343 0.06582 0.0
H718 H 0.93298 0.45199 0.69939 0.0
H719 H 0.93384 0.5433 0.76592 0.0
H720 H 0.93878 0.48903 0.58538 0.0
H721 H 0.94404 0.50619 0.87611 0.0
H722 H 0.92471 0.52353 0.70276 0.0
H723 H 0.9259 0.47173 0.76543 0.0
C724 C 0.93214 0.4642 0.68768 0.0
C725 C 0.93676 0.46894 0.63717 0.0
C726 C 0.92851 0.51978 0.74138 0.0
C727 C 0.92888 0.49152 0.71243 0.0
C728 C 0.93361 0.53106 0.77756 0.0
C729 C 0.93997 0.52632 0.82587 0.0
C730 C 0.92968 0.50373 0.75396 0.0
C731 C 0.93947 0.5103 0.83886 0.0
C732 C 0.92824 0.47547 0.7255 0.0
C733 C 0.93554 0.48493 0.6242 0.0
N734 N 0.93467 0.49955 0.80282 0.0
N735 N 0.932 0.49568 0.66183 0.0
H736 H 0.16256 0.26589 0.03768 0.0
H737 H 0.209 0.20539 0.86569 0.0
H738 H 0.19971 0.23659 0.0989 0.0
H739 H 0.16313 0.22185 0.81961 0.0
H740 H 0.20416 0.21483 0.95468 0.0
H741 H 0.16054 0.24841 0.96142 0.0
C742 C 0.17005 0.25562 0.03572 0.0
C743 C 0.18155 0.2529 0.07424 0.0
C744 C 0.19497 0.21611 0.9256 0.0
C745 C 0.17941 0.23299 0.98701 0.0
C746 C 0.19774 0.21069 0.87483 0.0
C747 C 0.18645 0.2129 0.83553 0.0
C748 C 0.181 0.22427 0.9368 0.0
C749 C 0.17208 0.21989 0.84912 0.0
C750 C 0.16889 0.24564 0.99215 0.0
C751 C 0.19088 0.23935 0.06972 0.0
N752 N 0.16988 0.22568 0.89848 0.0
N753 N 0.18978 0.23009 0.02652 0.0
H754 H 0.04914 0.96823 0.10796 0.0
H755 H 0.99142 0.9208 0.28839 0.0
H756 H 0.03478 0.92111 0.06893 0.0
H757 H 0.01829 0.96065 0.34269 0.0
H758 H 0.00886 0.91885 0.21201 0.0
H759 H 0.04 0.96416 0.19774 0.0
C760 C 0.04435 0.95689 0.11881 0.0
C761 C 0.04263 0.94501 0.08121 0.0
C762 C 0.01112 0.92781 0.24125 0.0
C763 C 0.03164 0.94038 0.18345 0.0
C764 C 1.00116 0.92894 0.28488 0.0
C765 C 0.00318 0.94112 0.32151 0.0
C766 C 0.02306 0.93902 0.23407 0.0
C767 C 0.01607 0.95125 0.31505 0.0
C768 C 0.03911 0.95454 0.17005 0.0
C769 C 0.03634 0.93052 0.09704 0.0
N770 N 0.02532 0.95014 0.27176 0.0
N771 N 0.03072 0.92871 0.14682 0.0
H772 H 0.30402 0.76957 0.58975 0.0
H773 H 0.34351 0.78347 0.30861 0.0
H774 H 0.34059 0.7397 0.52747 0.0
H775 H 0.29716 0.79894 0.35344 0.0
H776 H 0.34767 0.77376 0.39878 0.0
H777 H 0.30696 0.78681 0.51395 0.0
C778 C 0.31286 0.76675 0.56059 0.0
C779 C 0.32183 0.75295 0.56446 0.0
C780 C 0.33676 0.77964 0.38904 0.0
C781 C 0.32519 0.7727 0.47734 0.0
C782 C 0.33444 0.78527 0.33791 0.0
C783 C 0.31995 0.7919 0.32389 0.0
C784 C 0.32457 0.78093 0.42612 0.0
C785 C 0.30846 0.7938 0.36282 0.0
C786 C 0.31451 0.77661 0.51728 0.0
C787 C 0.33328 0.75009 0.52575 0.0
N788 N 0.31098 0.78825 0.41206 0.0
N789 N 0.33447 0.75976 0.48328 0.0
H790 H 0.49028 0.0593 0.85445 0.0
H791 H 0.47607 0.09701 0.57093 0.0
H792 H 0.52058 0.095 0.78893 0.0
H793 H 0.46082 0.05089 0.61896 0.0
H794 H 0.48614 0.10162 0.6604 0.0
H795 H 0.47303 0.06186 0.77863 0.0
C796 C 0.4932 0.06788 0.82456 0.0
C797 C 0.50712 0.0767 0.82755 0.0
C798 C 0.48025 0.09066 0.65149 0.0
C799 C 0.48735 0.07962 0.74038 0.0
C800 C 0.47441 0.08808 0.60076 0.0
C801 C 0.46772 0.07352 0.58783 0.0
C802 C 0.47906 0.07868 0.68932 0.0
C803 C 0.46601 0.06223 0.62745 0.0
C804 C 0.48332 0.06932 0.78123 0.0
C805 C 0.51008 0.08783 0.78793 0.0
N806 N 0.47171 0.06501 0.6763 0.0
N807 N 0.5004 0.0888 0.74544 0.0
H808 H 0.16089 0.78576 0.68241 0.0
H809 H 0.19886 0.7698 0.40025 0.0
H810 H 0.20828 0.79774 0.63759 0.0
H811 H 0.16099 0.74177 0.46351 0.0
H812 H 0.19714 0.78699 0.47653 0.0
H813 H 0.15603 0.77638 0.59227 0.0
C814 C 0.17008 0.78686 0.65315 0.0
C815 C 0.18503 0.79241 0.66716 0.0
C816 C 0.18904 0.77722 0.4733 0.0
C817 C 0.17959 0.78185 0.56494 0.0
C818 C 0.18999 0.76739 0.42971 0.0
C819 C 0.18029 0.75408 0.42598 0.0
C820 C 0.17832 0.77379 0.5136 0.0
C821 C 0.16885 0.75176 0.46511 0.0
C822 C 0.16735 0.78142 0.60204 0.0
C823 C 0.19663 0.79343 0.62824 0.0
N824 N 0.16833 0.76138 0.50781 0.0
N825 N 0.1937 0.78812 0.579 0.0
H826 H 0.46779 0.92136 0.92524 0.0
H827 H 0.48531 0.96189 0.64802 0.0
H828 H 0.45632 0.96921 0.88507 0.0
H829 H 0.51166 0.92216 0.70615 0.0
H830 H 0.46795 0.95997 0.72394 0.0
H831 H 0.4773 0.91723 0.83483 0.0
C832 C 0.46683 0.93082 0.89693 0.0
C833 C 0.4614 0.94567 0.91241 0.0
C834 C 0.47739 0.95152 0.71968 0.0
C835 C 0.47215 0.94107 0.80983 0.0
C836 C 0.48732 0.95258 0.67628 0.0
C837 C 0.5002 0.94238 0.67121 0.0
C838 C 0.48032 0.94019 0.75849 0.0
C839 C 0.50201 0.93041 0.70881 0.0
C840 C 0.47236 0.9285 0.84565 0.0
C841 C 0.46055 0.95762 0.87465 0.0
N842 N 0.49232 0.92979 0.75137 0.0
N843 N 0.46597 0.95509 0.82523 0.0
H844 H 0.29989 0.23632 0.89264 0.0
H845 H 0.33862 0.22111 0.17394 0.0
H846 H 0.33692 0.26543 0.95571 0.0
H847 H 0.29189 0.20699 0.12865 0.0
H848 H 0.34308 0.23096 0.08409 0.0
H849 H 0.30231 0.21899 0.96836 0.0
C850 C 0.30873 0.23896 0.92196 0.0
C851 C 0.31798 0.25258 0.91833 0.0
C852 C 0.33201 0.22537 0.09367 0.0
C853 C 0.32074 0.23272 0.00539 0.0
C854 C 0.32951 0.21965 0.14462 0.0
C855 C 0.31483 0.21335 0.15846 0.0
C856 C 0.31983 0.22446 0.05654 0.0
C857 C 0.30332 0.21188 0.11947 0.0
C858 C 0.31008 0.22904 0.96524 0.0
C859 C 0.32941 0.25518 0.95723 0.0
N860 N 0.30603 0.21748 0.07039 0.0
N861 N 0.3303 0.24547 -0.00032 0.0
H862 H 0.03098 0.09381 0.41653 0.0
H863 H 0.01635 0.05652 0.13279 0.0
H864 H 0.04584 0.04764 0.36788 0.0
H865 H 0.98669 0.09274 0.19831 0.0
H866 H 0.0337 0.05884 0.20845 0.0
H867 H 0.02109 0.09869 0.32701 0.0
C868 C 0.03259 0.08492 0.38656 0.0
C869 C 0.03911 0.07027 0.39934 0.0
C870 C 0.02353 0.06646 0.20588 0.0
C871 C 0.02796 0.07574 0.29778 0.0
C872 C 0.0136 0.06517 0.16264 0.0
C873 C 0.99982 0.0742 0.15972 0.0
C874 C 0.0197 0.07683 0.24672 0.0
C875 C 0.99708 0.0854 0.19926 0.0
C876 C 0.02686 0.08766 0.33579 0.0
C877 C 0.04077 0.05904 0.35952 0.0
N878 N 0.0068 0.08622 0.24169 0.0
N879 N 0.03516 0.06197 0.31065 0.0
H880 H 0.85821 0.72946 0.02629 0.0
H881 H 0.83005 0.80481 0.1827 0.0
H882 H 0.83084 0.76716 0.95923 0.0
H883 H 0.85715 0.76734 0.25123 0.0
H884 H 0.83615 0.79453 0.09509 0.0
H885 H 0.86358 0.74603 0.10279 0.0
C886 C 0.85357 0.7413 0.02719 0.0
C887 C 0.84375 0.74679 0.98692 0.0
C888 C 0.84116 0.78878 0.12913 0.0
C889 C 0.84975 0.76577 0.07428 0.0
C890 C 0.83781 0.79477 0.17898 0.0
C891 C 0.84322 0.78691 0.22365 0.0
C892 C 0.84966 0.77465 0.12443 0.0
C893 C 0.8529 0.77374 0.2173 0.0
C894 C 0.85662 0.75077 0.07089 0.0
C895 C 0.83817 0.7623 0.98993 0.0
N896 N 0.8556 0.76783 0.16857 0.0
N897 N 0.84105 0.77114 0.03319 0.0
H898 H 0.97797 0.09364 0.9161 0.0
H899 H 0.99315 0.05503 0.63449 0.0
H900 H 0.96292 0.04736 0.86943 0.0
H901 H 0.02237 0.09189 0.69802 0.0
H902 H 0.97573 0.05751 0.71002 0.0
H903 H 0.98804 0.09809 0.82651 0.0
C904 C 0.97634 0.08464 0.88652 0.0
C905 C 0.96971 0.07009 0.89991 0.0
C906 C 0.98583 0.06523 0.70707 0.0
C907 C 0.98111 0.07504 0.79827 0.0
C908 C 0.9958 0.06384 0.66391 0.0
C909 C 0.00946 0.07304 0.66041 0.0
C910 C 0.9895 0.07587 0.7473 0.0
C911 C 0.01208 0.08443 0.69942 0.0
C912 C 0.98219 0.08712 0.83571 0.0
C913 C 0.96805 0.0587 0.86059 0.0
N914 N 1.00232 0.08536 0.74178 0.0
N915 N 0.9738 0.06138 0.81168 0.0
H916 H 0.66594 0.26103 0.46657 0.0
H917 H 0.71416 0.20307 0.64286 0.0
H918 H 0.70511 0.23377 0.40873 0.0
H919 H 0.66739 0.2177 0.68575 0.0
H920 H 0.70946 0.21205 0.55327 0.0
H921 H 0.66432 0.24356 0.54292 0.0
C922 C 0.67399 0.2512 0.46931 0.0
C923 C 0.6859 0.24907 0.43168 0.0
C924 C 0.70004 0.21302 0.58177 0.0
C925 C 0.68418 0.22916 0.51906 0.0
C926 C 0.70274 0.20786 0.63287 0.0
C927 C 0.69115 0.2097 0.67145 0.0
C928 C 0.68582 0.22057 0.56952 0.0
C929 C 0.67657 0.21602 0.65681 0.0
C930 C 0.67305 0.24122 0.51293 0.0
C931 C 0.69593 0.23607 0.43717 0.0
N932 N 0.67442 0.22159 0.60713 0.0
N933 N 0.69501 0.2268 0.48044 0.0
H934 H 0.4766 0.92027 0.21177 0.0
H935 H 0.54046 0.96376 0.37863 0.0
H936 H 0.5083 0.95486 0.14712 0.0
H937 H 0.52054 0.91981 0.42996 0.0
H938 H 0.53076 0.95872 0.29012 0.0
H939 H 0.49405 0.91757 0.28792 0.0
C940 C 0.48739 0.92702 0.21294 0.0
C941 C 0.49081 0.93806 0.17352 0.0
C942 C 0.52877 0.94996 0.32025 0.0
C943 C 0.51069 0.93515 0.26059 0.0
C944 C 0.53435 0.95284 0.37074 0.0
C945 C 0.53126 0.94219 0.41135 0.0
C946 C 0.51956 0.93655 0.31063 0.0
C947 C 0.52322 0.92825 0.39939 0.0
C948 C 0.49734 0.92549 0.25646 0.0
C949 C 0.505 0.94644 0.17704 0.0
N950 N 0.51729 0.92599 0.35024 0.0
N951 N 0.51424 0.94501 0.22017 0.0
H952 H 0.80406 0.20682 0.36695 0.0
H953 H 0.84563 0.27187 0.53346 0.0
H954 H 0.84762 0.22768 0.31581 0.0
H955 H 0.81238 0.23891 0.59899 0.0
H956 H 0.84881 0.25454 0.4572 0.0
H957 H 0.80882 0.21668 0.45548 0.0
C958 C 0.81485 0.21317 0.37492 0.0
C959 C 0.82548 0.21645 0.33442 0.0
C960 C 0.84109 0.25097 0.48887 0.0
C961 C 0.83076 0.22836 0.43503 0.0
C962 C 0.83927 0.26085 0.53243 0.0
C963 C 0.82846 0.25701 0.57216 0.0
C964 C 0.83192 0.23727 0.485 0.0
C965 C 0.8206 0.24254 0.56884 0.0
C966 C 0.81757 0.21885 0.42539 0.0
C967 C 0.83922 0.22483 0.34637 0.0
N968 N 0.82228 0.23336 0.52566 0.0
N969 N 0.84131 0.23084 0.39548 0.0
H970 H 0.48327 0.09574 0.28868 0.0
H971 H 0.54536 0.05036 0.11876 0.0
H972 H 0.51288 0.05892 0.35037 0.0
H973 H 0.52747 0.0955 0.07083 0.0
H974 H 0.5356 0.05512 0.20745 0.0
H975 H 0.50088 0.09797 0.21268 0.0
C976 C 0.49362 0.08836 0.28685 0.0
C977 C 0.49641 0.0769 0.32547 0.0
C978 C 0.53407 0.06419 0.17805 0.0
C979 C 0.51648 0.0793 0.23856 0.0
C980 C 0.53969 0.06147 0.12747 0.0
C981 C 0.53719 0.07256 0.08774 0.0
C982 C 0.52541 0.07789 0.18861 0.0
C983 C 0.5297 0.08672 0.10072 0.0
C984 C 0.50367 0.08964 0.24344 0.0
C985 C 0.51006 0.06771 0.32112 0.0
N986 N 0.52373 0.08885 0.1499 0.0
N987 N 0.51941 0.06894 0.27811 0.0
H988 H 0.68028 0.76757 0.03472 0.0
H989 H 0.647 0.76942 0.74405 0.0
H990 H 0.65366 0.72977 0.965 0.0
H991 H 0.67823 0.8041 0.80922 0.0
H992 H 0.64289 0.75855 0.83214 0.0
H993 H 0.67354 0.7843 0.9606 0.0
C994 C 0.6729 0.76281 0.00394 0.0
C995 C 0.66783 0.74711 0.00542 0.0
C996 C 0.65025 0.76885 0.82754 0.0
C997 C 0.6601 0.76628 0.92012 0.0
C998 C 0.65243 0.77515 0.77745 0.0
C999 C 0.66284 0.7877 0.76997 0.0
C1000 C 0.65878 0.77504 0.86998 0.0
C1001 C 0.66997 0.79451 0.81384 0.0
C1002 C 0.669 0.77242 0.96168 0.0
C1003 C 0.658 0.74173 0.96504 0.0
N1004 N 0.668 0.78793 0.86202 0.0
N1005 N 0.65467 0.75123 0.92349 0.0
H1006 H 0.96366 0.96456 0.61318 0.0
H1007 H 0.02579 0.91965 0.78363 0.0
H1008 H 0.98207 0.91965 0.5651 0.0
H1009 H 0.99569 0.95612 0.84512 0.0
H1010 H 0.00826 0.91719 0.70762 0.0
H1011 H 0.97317 0.95975 0.70206 0.0
C1012 C 0.9694 0.95349 0.62186 0.0
C1013 C 0.97213 0.94249 0.58204 0.0
C1014 C 0.00533 0.92548 0.73836 0.0
C1015 C 0.98362 0.93709 0.68319 0.0
C1016 C 0.01533 0.92688 0.78181 0.0
C1017 C 0.0124 0.93834 0.82029 0.0
C1018 C 0.99243 0.9357 0.73335 0.0
C1019 C 0.99862 0.94734 0.81594 0.0
C1020 C 0.97488 0.95074 0.67257 0.0
C1021 C 0.97968 0.92837 0.59503 0.0
N1022 N 0.98933 0.94601 0.77288 0.0
N1023 N 0.98552 0.9262 0.64436 0.0
H1024 H 0.64876 0.78359 0.46536 0.0
H1025 H 0.67109 0.70602 0.30721 0.0
H1026 H 0.6718 0.74322 0.53332 0.0
H1027 H 0.6582 0.7502 0.2368 0.0
H1028 H 0.66313 0.71639 0.39351 0.0
H1029 H 0.64381 0.76831 0.3857 0.0
C1030 C 0.65248 0.77143 0.464 0.0
C1031 C 0.66109 0.7648 0.50539 0.0
C1032 C 0.66166 0.72365 0.35893 0.0
C1033 C 0.65554 0.74731 0.41453 0.0
C1034 C 0.66611 0.71771 0.30989 0.0
C1035 C 0.66535 0.72739 0.26557 0.0
C1036 C 0.6565 0.73933 0.36302 0.0
C1037 C 0.65901 0.74248 0.27055 0.0
C1038 C 0.64968 0.76272 0.41849 0.0
C1039 C 0.66547 0.74892 0.50173 0.0
N1040 N 0.65499 0.74808 0.31856 0.0
N1041 N 0.66288 0.74079 0.45671 0.0
H1042 H 0.51612 0.42863 0.80219 0.0
H1043 H 0.52444 0.394 0.51248 0.0
H1044 H 0.48212 0.39738 0.73194 0.0
H1045 H 0.54748 0.43572 0.56929 0.0
H1046 H 0.51482 0.38874 0.60201 0.0
H1047 H 0.53336 0.42465 0.72689 0.0
C1048 C 0.51235 0.42073 0.7713 0.0
C1049 C 0.49746 0.41362 0.77284 0.0
C1050 C 0.52239 0.39877 0.59512 0.0
C1051 C 0.51721 0.40907 0.68629 0.0
C1052 C 0.52801 0.40165 0.54432 0.0
C1053 C 0.53678 0.41526 0.53404 0.0
C1054 C 0.5257 0.40954 0.63545 0.0
C1055 C 0.5408 0.42507 0.57601 0.0
C1056 C 0.52224 0.41846 0.72831 0.0
C1057 C 0.4934 0.40328 0.73205 0.0
N1058 N 0.53511 0.4221 0.62483 0.0
N1059 N 0.50311 0.40151 0.68991 0.0
H1060 H 0.80016 0.29329 0.8652 0.0
H1061 H 0.84629 0.23169 0.03376 0.0
H1062 H 0.84552 0.27615 0.81634 0.0
H1063 H 0.81 0.26159 0.09754 0.0
H1064 H 0.84822 0.24921 0.95747 0.0
H1065 H 0.80522 0.28363 0.9538 0.0
C1066 C 0.81138 0.28782 0.87371 0.0
C1067 C 0.82246 0.28551 0.83379 0.0
C1068 C 0.84008 0.25209 0.98875 0.0
C1069 C 0.82814 0.27381 0.93448 0.0
C1070 C 0.83897 0.24209 0.03232 0.0
C1071 C 0.82773 0.24499 0.07163 0.0
C1072 C 0.82978 0.26495 0.98442 0.0
C1073 C 0.81861 0.25869 0.06776 0.0
C1074 C 0.81427 0.28225 0.92422 0.0
C1075 C 0.83676 0.27824 0.84643 0.0
N1076 N 0.81966 0.26798 0.02459 0.0
N1077 N 0.83907 0.27229 0.89554 0.0
H1078 H 0.02688 0.5923 0.25623 0.0
H1079 H 0.96692 0.54571 0.08489 0.0
H1080 H 0.9961 0.55677 0.32034 0.0
H1081 H 0.98317 0.5915 0.03732 0.0
H1082 H 0.97585 0.55102 0.17419 0.0
H1083 H 0.00974 0.59414 0.17908 0.0
C1084 C 0.01636 0.58514 0.25469 0.0
C1085 C 0.01313 0.5741 0.29432 0.0
C1086 C 0.97717 0.5601 0.1447 0.0
C1087 C 0.99362 0.57605 0.2061 0.0
C1088 C 0.97206 0.55705 0.09378 0.0
C1089 C 0.97435 0.56819 0.05407 0.0
C1090 C 0.98514 0.57419 0.15558 0.0
C1091 C 0.98114 0.58268 0.06722 0.0
C1092 C 0.00658 0.58621 0.21064 0.0
C1093 C 0.99926 0.56522 0.29033 0.0
N1094 N 0.98666 0.58515 0.11676 0.0
N1095 N 0.99021 0.56618 0.2466 0.0
H1096 H 0.66341 0.26945 0.1894 0.0
H1097 H 0.70067 0.2579 0.90388 0.0
H1098 H 0.70792 0.28821 0.13815 0.0
H1099 H 0.66692 0.22569 0.97074 0.0
H1100 H 0.69717 0.27514 0.97933 0.0
H1101 H 0.65882 0.25942 0.09988 0.0
C1102 C 0.67193 0.27191 0.15883 0.0
C1103 C 0.68608 0.27957 0.17084 0.0
C1104 C 0.69034 0.26442 0.97711 0.0
C1105 C 0.68098 0.26823 0.06932 0.0
C1106 C 0.69231 0.25455 0.934 0.0
C1107 C 0.68434 0.24012 0.93151 0.0
C1108 C 0.68037 0.25987 0.01831 0.0
C1109 C 0.67345 0.2366 0.97137 0.0
C1110 C 0.66939 0.26609 0.10806 0.0
C1111 C 0.6969 0.28228 0.13032 0.0
N1112 N 0.67197 0.24629 0.01369 0.0
N1113 N 0.69417 0.27653 0.08148 0.0
H1114 H 0.96097 0.44788 0.37381 0.0
H1115 H 0.02625 0.40633 0.20741 0.0
H1116 H 0.98261 0.40486 0.42577 0.0
H1117 H 0.99364 0.44002 0.14265 0.0
H1118 H 0.00879 0.40309 0.28337 0.0
H1119 H 0.97062 0.44295 0.28508 0.0
C1120 C 0.96742 0.43715 0.36596 0.0
C1121 C 0.971 0.42674 0.40675 0.0
C1122 C 0.00531 0.41093 0.25194 0.0
C1123 C 0.98271 0.42129 0.30593 0.0
C1124 C 0.01528 0.41278 0.20855 0.0
C1125 C 0.01158 0.42373 0.16914 0.0
C1126 C 0.99167 0.42018 0.25596 0.0
C1127 C 0.99716 0.4317 0.17258 0.0
C1128 C 0.97299 0.43434 0.31538 0.0
C1129 C 0.97952 0.41308 0.39499 0.0
N1130 N 0.98789 0.42996 0.21559 0.0
N1131 N 0.98544 0.41091 0.34576 0.0
H1132 H 0.82804 0.70544 0.68477 0.0
H1133 H 0.85637 0.77993 0.52385 0.0
H1134 H 0.85687 0.74217 0.74976 0.0
H1135 H 0.8284 0.74228 0.45924 0.0
H1136 H 0.86174 0.76359 0.60092 0.0
H1137 H 0.83334 0.71563 0.59646 0.0
C1138 C 0.83596 0.71532 0.68004 0.0
C1139 C 0.84215 0.72297 0.72395 0.0
C1140 C 0.85464 0.75882 0.56945 0.0
C1141 C 0.84772 0.73512 0.62401 0.0
C1142 C 0.85157 0.76815 0.52544 0.0
C1143 C 0.84161 0.76261 0.48563 0.0
C1144 C 0.84763 0.7439 0.57365 0.0
C1145 C 0.83586 0.74718 0.48952 0.0
C1146 C 0.83889 0.72124 0.62982 0.0
C1147 C 0.85204 0.73593 0.7164 0.0
N1148 N 0.83875 0.73847 0.53308 0.0
N1149 N 0.85432 0.74179 0.66735 0.0
H1150 H 0.54457 0.56431 0.90517 0.0
H1151 H 0.47255 0.59699 0.74363 0.0
H1152 H 0.51183 0.59808 0.96754 0.0
H1153 H 0.50922 0.56799 0.67755 0.0
H1154 H 0.48916 0.60165 0.82056 0.0
H1155 H 0.53474 0.56971 0.8167 0.0
C1156 C 0.53566 0.57327 0.89974 0.0
C1157 C 0.52903 0.58088 0.94307 0.0
C1158 C 0.49368 0.5945 0.78877 0.0
C1159 C 0.51717 0.58661 0.84284 0.0
C1160 C 0.48419 0.59184 0.74481 0.0
C1161 C 0.48935 0.58179 0.70464 0.0
C1162 C 0.50835 0.58697 0.79258 0.0
C1163 C 0.5046 0.57555 0.70808 0.0
C1164 C 0.52995 0.57629 0.84941 0.0
C1165 C 0.5173 0.59214 0.93464 0.0
N1166 N 0.51344 0.57804 0.75162 0.0
N1167 N 0.5115 0.59447 0.8855 0.0
H1168 H 0.33817 0.22922 0.4572 0.0
H1169 H 0.29248 0.29081 0.62709 0.0
H1170 H 0.30188 0.25931 0.39452 0.0
H1171 H 0.33775 0.2733 0.67524 0.0
H1172 H 0.29745 0.28127 0.53832 0.0
H1173 H 0.34033 0.2467 0.53346 0.0
C1174 C 0.33091 0.23967 0.45884 0.0
C1175 C 0.31959 0.24262 0.41992 0.0
C1176 C 0.3065 0.27977 0.56781 0.0
C1177 C 0.32189 0.26251 0.50711 0.0
C1178 C 0.30364 0.28525 0.61845 0.0
C1179 C 0.31471 0.28279 0.65825 0.0
C1180 C 0.32032 0.27129 0.55725 0.0
C1181 C 0.32898 0.27547 0.64532 0.0
C1182 C 0.33215 0.24963 0.50241 0.0
C1183 C 0.31056 0.25637 0.42403 0.0
N1184 N 0.33125 0.26962 0.59606 0.0
N1185 N 0.31172 0.26563 0.46721 0.0
H1186 H 0.44699 0.56498 0.40432 0.0
H1187 H 0.51974 0.59771 0.24534 0.0
H1188 H 0.47964 0.5986 0.46787 0.0
H1189 H 0.48379 0.56791 0.17905 0.0
H1190 H 0.50271 0.60242 0.32139 0.0
H1191 H 0.45716 0.57037 0.3162 0.0
C1192 C 0.4559 0.57396 0.39922 0.0
C1193 C 0.46242 0.5815 0.44283 0.0
C1194 C 0.49845 0.59507 0.28974 0.0
C1195 C 0.47473 0.58716 0.343 0.0
C1196 C 0.50817 0.59238 0.2463 0.0
C1197 C 0.50333 0.58212 0.20631 0.0
C1198 C 0.48384 0.58738 0.29321 0.0
C1199 C 0.48817 0.57565 0.20945 0.0
C1200 C 0.46184 0.57694 0.34908 0.0
C1201 C 0.47422 0.59273 0.43477 0.0
N1202 N 0.47909 0.5782 0.25245 0.0
N1203 N 0.48024 0.59501 0.38585 0.0
H1204 H 0.15759 0.73466 0.18714 0.0
H1205 H 0.1939 0.74544 0.89992 0.0
H1206 H 0.20055 0.7135 0.132 0.0
H1207 H 0.16149 0.77855 0.96909 0.0
H1208 H 0.19006 0.72807 0.9749 0.0
H1209 H 0.15293 0.74511 0.0982 0.0
C1210 C 0.16571 0.73174 0.15581 0.0
C1211 C 0.17947 0.72326 0.16654 0.0
C1212 C 0.18359 0.73902 0.97335 0.0
C1213 C 0.17434 0.73516 0.0657 0.0
C1214 C 0.18577 0.74897 0.93051 0.0
C1215 C 0.17827 0.76365 0.92873 0.0
C1216 C 0.17391 0.74377 0.01506 0.0
C1217 C 0.16765 0.76742 0.96914 0.0
C1218 C 0.16314 0.73782 0.10537 0.0
C1219 C 0.18981 0.72002 0.12511 0.0
N1220 N 0.16598 0.75765 0.01121 0.0
N1221 N 0.1871 0.72606 0.07664 0.0
H1222 H 0.01807 0.44243 0.63978 0.0
H1223 H 0.03236 0.40572 0.92464 0.0
H1224 H 0.98798 0.40672 0.70638 0.0
H1225 H 0.04656 0.45212 0.87616 0.0
H1226 H 0.02265 0.4007 0.83498 0.0
H1227 H 0.03525 0.44029 0.71593 0.0
C1228 C 0.01519 0.43393 0.66997 0.0
C1229 C 1.00134 0.42499 0.66718 0.0
C1230 C 0.02825 0.41182 0.84382 0.0
C1231 C 0.02104 0.42254 0.75467 0.0
C1232 C 0.03389 0.41463 0.89465 0.0
C1233 C 0.04018 0.42937 0.90747 0.0
C1234 C 0.02923 0.42376 0.80581 0.0
C1235 C 0.04171 0.44064 0.86769 0.0
C1236 C 0.02503 0.43274 0.71348 0.0
C1237 C 0.99842 0.41399 0.70721 0.0
N1238 N 0.0362 0.43763 0.81873 0.0
N1239 N 0.00807 0.41324 0.74984 0.0
H1240 H 0.34274 0.77682 0.02279 0.0
H1241 H 0.29877 0.7128 0.85744 0.0
H1242 H 0.30781 0.74558 0.08796 0.0
H1243 H 0.34246 0.73299 0.80469 0.0
H1244 H 0.30401 0.72252 0.94584 0.0
H1245 H 0.34522 0.75928 0.94678 0.0
C1246 C 0.33585 0.76613 0.02173 0.0
C1247 C 0.32481 0.76285 0.06132 0.0
C1248 C 0.31269 0.72455 0.91544 0.0
C1249 C 0.32748 0.74285 0.97442 0.0
C1250 C 0.3097 0.71894 0.86504 0.0
C1251 C 0.32023 0.72209 0.8241 0.0
C1252 C 0.32605 0.73388 0.92458 0.0
C1253 C 0.33415 0.73023 0.83558 0.0
C1254 C 0.33727 0.75612 0.9783 0.0
C1255 C 0.31625 0.74878 0.05793 0.0
N1256 N 0.33651 0.73619 0.88463 0.0
N1257 N 0.31758 0.73947 0.01491 0.0
H1258 H 0.02173 0.55841 0.82119 0.0
H1259 H 0.03209 0.59519 0.53465 0.0
H1260 H 0.98851 0.59083 0.75276 0.0
H1261 H 0.05382 0.55247 0.58898 0.0
H1262 H 0.02181 0.59973 0.62389 0.0
H1263 H 0.03915 0.56251 0.74642 0.0
C1264 C 0.01818 0.56659 0.79081 0.0
C1265 C 0.00345 0.57402 0.79273 0.0
C1266 C 0.02921 0.58962 0.61652 0.0
C1267 C 0.0234 0.57869 0.70665 0.0
C1268 C 0.0352 0.58713 0.5659 0.0
C1269 C 0.04379 0.57346 0.55489 0.0
C1270 C 0.03204 0.57842 0.65602 0.0
C1271 C 0.04725 0.56316 0.59617 0.0
C1272 C 0.02815 0.56892 0.7481 0.0
C1273 C 0.99966 0.5847 0.75258 0.0
N1274 N 0.04126 0.56578 0.6448 0.0
N1275 N 0.00946 0.58652 0.71064 0.0
H1276 H 0.16174 0.27433 0.31924 0.0
H1277 H 0.20016 0.25969 0.60135 0.0
H1278 H 0.20807 0.28933 0.36585 0.0
H1279 H 0.16363 0.23009 0.53757 0.0
H1280 H 0.19758 0.27703 0.5257 0.0
H1281 H 0.15722 0.26441 0.40897 0.0
C1282 C 0.17074 0.27598 0.34882 0.0
C1283 C 0.18532 0.28255 0.33539 0.0
C1284 C 0.18995 0.26687 0.52864 0.0
C1285 C 0.18028 0.27135 0.43719 0.0
C1286 C 0.19139 0.25695 0.57188 0.0
C1287 C 0.18233 0.2432 0.5753 0.0
C1288 C 0.17941 0.26305 0.4883 0.0
C1289 C 0.17099 0.24046 0.53623 0.0
C1290 C 0.16821 0.27022 0.39971 0.0
C1291 C 0.1967 0.28424 0.37472 0.0
N1292 N 0.17002 0.25017 0.4938 0.0
N1293 N 0.19398 0.27859 0.42372 0.0
H1294 H 0.48725 0.42776 0.30368 0.0
H1295 H 0.47973 0.39406 0.0123 0.0
H1296 H 0.52218 0.39772 0.23249 0.0
H1297 H 0.45781 0.43646 0.06864 0.0
H1298 H 0.48927 0.38871 0.1019 0.0
H1299 H 0.47044 0.42399 0.22729 0.0
C1300 C 0.4913 0.42014 0.27239 0.0
C1301 C 0.50634 0.41335 0.27396 0.0
C1302 C 0.48198 0.39893 0.09482 0.0
C1303 C 0.48708 0.40904 0.18625 0.0
C1304 C 0.47643 0.40189 0.04401 0.0
C1305 C 0.46799 0.41569 0.0336 0.0
C1306 C 0.47885 0.40978 0.13508 0.0
C1307 C 0.46427 0.42568 0.07542 0.0
C1308 C 0.48167 0.41801 0.22878 0.0
C1309 C 0.51078 0.40337 0.23259 0.0
N1310 N 0.46981 0.42259 0.12429 0.0
N1311 N 0.50129 0.40171 0.18989 0.0
H1312 H 0.13787 0.32461 0.19908 0.0
H1313 H 0.09141 0.39109 0.0391 0.0
H1314 H 0.14871 0.33769 0.03921 0.0
H1315 H 0.08247 0.38036 0.20222 0.0
H1316 H 0.11151 0.37065 0.03728 0.0
H1317 H 0.11661 0.34393 0.19966 0.0
C1318 C 0.13575 0.33148 0.16398 0.0
C1319 C 0.14515 0.32952 0.11904 0.0
C1320 C 0.10515 0.37273 0.07348 0.0
C1321 C 0.1208 0.35174 0.11954 0.0
C1322 C 0.09364 0.38442 0.07457 0.0
C1323 C 0.08523 0.38751 0.12096 0.0
C1324 C 0.10832 0.364 0.11908 0.0
C1325 C 0.08866 0.37844 0.16561 0.0
C1326 C 0.12361 0.34255 0.1644 0.0
C1327 C 0.14181 0.33879 0.07477 0.0
N1328 N 0.09995 0.36712 0.16357 0.0
N1329 N 0.12995 0.3495 0.07619 0.0
H1330 H 0.85768 0.8497 0.43817 0.0
H1331 H 0.93999 0.89091 0.36985 0.0
H1332 H 0.89492 0.82678 0.35202 0.0
H1333 H 0.90387 0.91253 0.46464 0.0
H1334 H 0.92357 0.86743 0.3619 0.0
H1335 H 0.87439 0.87287 0.44779 0.0
C1336 C 0.86938 0.84951 0.42141 0.0
C1337 C 0.87488 0.83625 0.39419 0.0
C1338 C 0.91924 0.87731 0.38447 0.0
C1339 C 0.89409 0.86283 0.40486 0.0
C1340 C 0.92861 0.89074 0.38895 0.0
C1341 C 0.92331 0.90373 0.41795 0.0
C1342 C 0.90444 0.87686 0.40903 0.0
C1343 C 0.90846 0.90281 0.44189 0.0
C1344 C 0.87893 0.86276 0.42689 0.0
C1345 C 0.89017 0.83671 0.37333 0.0
N1346 N 0.89955 0.88963 0.43685 0.0
N1347 N 0.89921 0.84979 0.37897 0.0
H1348 H 0.34266 0.65064 0.69804 0.0
H1349 H 0.42916 0.63725 0.58126 0.0
H1350 H 0.36797 0.6858 0.60965 0.0
H1351 H 0.40243 0.60112 0.66005 0.0
H1352 H 0.40727 0.65545 0.59377 0.0
H1353 H 0.36473 0.63263 0.68664 0.0
C1354 C 0.35286 0.6546 0.67619 0.0
C1355 C 0.35343 0.66979 0.65475 0.0
C1356 C 0.40619 0.64355 0.60837 0.0
C1357 C 0.37884 0.64915 0.64164 0.0
C1358 C 0.41871 0.63314 0.60133 0.0
C1359 C 0.41765 0.6176 0.61958 0.0
C1360 C 0.39247 0.63844 0.63397 0.0
C1361 C 0.40378 0.61297 0.64527 0.0
C1362 C 0.36547 0.64427 0.6697 0.0
C1363 C 0.36698 0.67421 0.62683 0.0
N1364 N 0.39175 0.62333 0.65167 0.0
N1365 N 0.37914 0.66395 0.62114 0.0
H1366 H 0.63681 0.17333 0.96124 0.0
H1367 H 0.59536 0.10512 0.7938 0.0
H1368 H 0.65147 0.15967 0.80538 0.0
H1369 H 0.58013 0.11894 0.94889 0.0
H1370 H 0.61552 0.12554 0.79658 0.0
H1371 H 0.61565 0.1539 0.95694 0.0
C1372 C 0.63559 0.16627 0.9261 0.0
C1373 C 0.64599 0.16814 0.88366 0.0
C1374 C 0.60774 0.12415 0.82996 0.0
C1375 C 0.62174 0.14585 0.87846 0.0
C1376 C 0.59619 0.11249 0.82837 0.0
C1377 C 0.58603 0.11026 0.87122 0.0
C1378 C 0.60921 0.13368 0.87478 0.0
C1379 C 0.5877 0.1202 0.91493 0.0
C1380 C 0.62348 0.15517 0.92365 0.0
C1381 C 0.64378 0.15865 0.83912 0.0
N1382 N 0.59909 0.13143 0.91564 0.0
N1383 N 0.63194 0.14792 0.83775 0.0
H1384 H 0.09699 0.60203 0.32267 0.0
H1385 H 0.13309 0.68659 0.39211 0.0
H1386 H 0.07508 0.63449 0.43052 0.0
H1387 H 0.15412 0.65409 0.28248 0.0
H1388 H 0.11157 0.66792 0.4062 0.0
H1389 H 0.11778 0.62122 0.30672 0.0
C1390 C 0.09651 0.61321 0.34292 0.0
C1391 C 0.08425 0.61661 0.37808 0.0
C1392 C 0.12089 0.6649 0.37901 0.0
C1393 C 0.10814 0.6387 0.36005 0.0
C1394 C 0.13319 0.67555 0.37096 0.0
C1395 C 0.14547 0.67192 0.33609 0.0
C1396 C 0.12086 0.65048 0.35205 0.0
C1397 C 0.14494 0.65742 0.30977 0.0
C1398 C 0.10842 0.62418 0.3338 0.0
C1399 C 0.08429 0.63133 0.40311 0.0
N1400 N 0.13288 0.64726 0.31833 0.0
N1401 N 0.09606 0.6418 0.39371 0.0
H1402 H 0.64759 0.85212 0.5643 0.0
H1403 H 0.56319 0.89074 0.62003 0.0
H1404 H 0.60905 0.82706 0.63633 0.0
H1405 H 0.60105 0.9147 0.54021 0.0
H1406 H 0.57987 0.86742 0.62771 0.0
H1407 H 0.63075 0.87523 0.55603 0.0
C1408 C 0.63557 0.85145 0.57826 0.0
C1409 C 0.62975 0.8376 0.60108 0.0
C1410 C 0.58452 0.87779 0.60852 0.0
C1411 C 0.61037 0.86411 0.59187 0.0
C1412 C 0.57501 0.89112 0.6042 0.0
C1413 C 0.58071 0.90472 0.57941 0.0
C1414 C 0.59988 0.87804 0.58804 0.0
C1415 C 0.59613 0.90449 0.55957 0.0
C1416 C 0.62595 0.86467 0.57355 0.0
C1417 C 0.61406 0.83747 0.61848 0.0
N1418 N 0.60515 0.8914 0.56435 0.0
N1419 N 0.60494 0.85051 0.61361 0.0
H1420 H 0.42368 0.37383 0.88029 0.0
H1421 H 0.34319 0.34789 0.74211 0.0
H1422 H 0.40369 0.39724 0.74551 0.0
H1423 H 0.36418 0.32211 0.87021 0.0
H1424 H 0.36535 0.36602 0.74337 0.0
H1425 H 0.40224 0.35468 0.87739 0.0
C1426 C 0.41483 0.37492 0.84993 0.0
C1427 C 0.41549 0.38721 0.81314 0.0
C1428 C 0.36515 0.3564 0.77121 0.0
C1429 C 0.39084 0.36534 0.80982 0.0
C1430 C 0.35246 0.34602 0.7706 0.0
C1431 C 0.35178 0.33344 0.8062 0.0
C1432 C 0.37731 0.35427 0.8078 0.0
C1433 C 0.36419 0.33165 0.84207 0.0
C1434 C 0.40258 0.36397 0.84835 0.0
C1435 C 0.40368 0.38799 0.77472 0.0
N1436 N 0.37644 0.34197 0.84203 0.0
N1437 N 0.39185 0.37726 0.77421 0.0
H1438 H 0.86731 0.16881 0.03018 0.0
H1439 H 0.92167 0.11214 0.204 0.0
H1440 H 0.868 0.16935 0.19976 0.0
H1441 H 0.92434 0.11483 0.03485 0.0
H1442 H 0.9021 0.13318 0.20325 0.0
H1443 H 0.88828 0.14914 0.031 0.0
C1444 C 0.8719 0.16485 0.06759 0.0
C1445 C 0.86583 0.17074 0.11497 0.0
C1446 C 0.90701 0.12922 0.1663 0.0
C1447 C 0.88983 0.14814 0.1162 0.0
C1448 C 0.9182 0.11718 0.1667 0.0
C1449 C 0.92466 0.11165 0.11942 0.0
C1450 C 0.90216 0.13575 0.11824 0.0
C1451 C 0.91969 0.11868 0.07229 0.0
C1452 C 0.88389 0.15361 0.06803 0.0
C1453 C 0.87228 0.16515 0.16224 0.0
N1454 N 0.9087 0.13029 0.0729 0.0
N1455 N 0.88386 0.15414 0.16164 0.0
H1456 H 0.88044 0.67542 0.86861 0.0
H1457 H 0.90506 0.58925 0.96504 0.0
H1458 H 0.85295 0.6474 0.97621 0.0
H1459 H 0.93263 0.61653 0.85557 0.0
H1460 H 0.88605 0.61062 0.96992 0.0
H1461 H 0.89992 0.65433 0.8643 0.0
C1462 C 0.87851 0.66487 0.89152 0.0
C1463 C 0.86499 0.6632 0.9228 0.0
C1464 C 0.89624 0.61196 0.94477 0.0
C1465 C 0.88727 0.63895 0.91782 0.0
C1466 C 0.90712 0.59973 0.94188 0.0
C1467 C 0.92049 0.60107 0.90979 0.0
C1468 C 0.89868 0.62571 0.9154 0.0
C1469 C 0.92249 0.61497 0.88078 0.0
C1470 C 0.88964 0.65281 0.88893 0.0
C1471 C 0.86316 0.64924 0.95154 0.0
N1472 N 0.91171 0.62675 0.88431 0.0
N1473 N 0.87414 0.63767 0.94828 0.0
H1474 H 0.14155 0.16843 0.53125 0.0
H1475 H 0.08848 0.11014 0.70374 0.0
H1476 H 0.14253 0.16698 0.70077 0.0
H1477 H 0.08411 0.11491 0.53551 0.0
H1478 H 0.10815 0.13109 0.7035 0.0
H1479 H 0.12038 0.14898 0.53195 0.0
C1480 C 0.13729 0.16408 0.56863 0.0
C1481 C 0.14389 0.16934 0.616 0.0
C1482 C 0.10284 0.12761 0.66666 0.0
C1483 C 0.11966 0.14699 0.6171 0.0
C1484 C 0.09159 0.11563 0.66677 0.0
C1485 C 0.08464 0.1107 0.61957 0.0
C1486 C 0.10725 0.13468 0.61896 0.0
C1487 C 0.08915 0.11829 0.57287 0.0
C1488 C 0.12519 0.15297 0.56901 0.0
C1489 C 0.13784 0.16327 0.66325 0.0
N1490 N 0.10021 0.12983 0.57373 0.0
N1491 N 0.12614 0.15239 0.66257 0.0
H1492 H 0.59327 0.39337 0.30623 0.0
H1493 H 0.63619 0.31319 0.38883 0.0
H1494 H 0.57271 0.35915 0.41098 0.0
H1495 H 0.65562 0.34664 0.27904 0.0
H1496 H 0.61284 0.32978 0.39756 0.0
H1497 H 0.61611 0.37627 0.29539 0.0
C1498 C 0.59352 0.38224 0.32682 0.0
C1499 C 0.58103 0.37773 0.35965 0.0
C1500 C 0.62221 0.33348 0.37153 0.0
C1501 C 0.60725 0.35807 0.34759 0.0
C1502 C 0.63557 0.32402 0.36658 0.0
C1503 C 0.64792 0.32852 0.33318 0.0
C1504 C 0.62118 0.34758 0.34295 0.0
C1505 C 0.64642 0.34268 0.30528 0.0
C1506 C 0.60659 0.37247 0.32064 0.0
C1507 C 0.58204 0.36313 0.38528 0.0
N1508 N 0.63333 0.35169 0.31084 0.0
N1509 N 0.59493 0.35386 0.37883 0.0
H1510 H 0.36664 0.83494 0.19062 0.0
H1511 H 0.41196 0.90407 0.03939 0.0
H1512 H 0.35559 0.84966 0.03259 0.0
H1513 H 0.42054 0.89206 0.20166 0.0
H1514 H 0.39234 0.88319 0.03475 0.0
H1515 H 0.38748 0.85468 0.19376 0.0
C1516 C 0.36863 0.84226 0.15645 0.0
C1517 C 0.35928 0.84064 0.11128 0.0
C1518 C 0.39852 0.88509 0.07137 0.0
C1519 C 0.38317 0.86335 0.11473 0.0
C1520 C 0.40976 0.89702 0.07408 0.0
C1521 C 0.41792 0.89989 0.12108 0.0
C1522 C 0.39538 0.87587 0.11594 0.0
C1523 C 0.41453 0.89033 0.16465 0.0
C1524 C 0.38053 0.85357 0.15834 0.0
C1525 C 0.36245 0.85049 0.06827 0.0
N1526 N 0.40352 0.87877 0.16103 0.0
N1527 N 0.37408 0.86142 0.07111 0.0
H1528 H 0.93019 0.3807 0.55029 0.0
H1529 H 0.85816 0.33924 0.69903 0.0
H1530 H 0.91162 0.39657 0.69899 0.0
H1531 H 0.87522 0.32454 0.547 0.0
H1532 H 0.87829 0.35967 0.70104 0.0
H1533 H 0.9109 0.35942 0.55 0.0
C1534 C 0.92211 0.37969 0.58303 0.0
C1535 C 0.92253 0.3905 0.6247 0.0
C1536 C 0.87765 0.35197 0.66724 0.0
C1537 C 0.90033 0.36612 0.62449 0.0
C1538 C 0.86614 0.34028 0.66604 0.0
C1539 C 0.86494 0.33013 0.6227 0.0
C1540 C 0.88811 0.35359 0.62484 0.0
C1541 C 0.87566 0.33209 0.58119 0.0
C1542 C 0.91106 0.36753 0.58276 0.0
C1543 C 0.91174 0.38855 0.66599 0.0
N1544 N 0.88677 0.34358 0.58327 0.0
N1545 N 0.90108 0.37664 0.66477 0.0
H1546 H 0.35746 0.16554 0.28932 0.0
H1547 H 0.42364 0.11973 0.45275 0.0
H1548 H 0.36526 0.17235 0.45534 0.0
H1549 H 0.41263 0.10993 0.2905 0.0
H1550 H 0.40362 0.14033 0.45301 0.0
H1551 H 0.37884 0.14643 0.28777 0.0
C1552 C 0.36369 0.16306 0.32548 0.0
C1553 C 0.35949 0.17055 0.37261 0.0
C1554 C 0.40561 0.13371 0.4173 0.0
C1555 C 0.38407 0.1486 0.37103 0.0
C1556 C 0.41708 0.12196 0.41706 0.0
C1557 C 0.41981 0.11302 0.37155 0.0
C1558 C 0.3968 0.13662 0.37168 0.0
C1559 C 0.41093 0.11647 0.32653 0.0
C1560 C 0.37591 0.15211 0.32454 0.0
C1561 C 0.36804 0.16684 0.41814 0.0
N1562 N 0.39981 0.12795 0.32778 0.0
N1563 N 0.3799 0.15612 0.41623 0.0
H1564 H 0.65796 0.64804 0.02166 0.0
H1565 H 0.57569 0.62044 0.14563 0.0
H1566 H 0.63061 0.67651 0.12829 0.0
H1567 H 0.6021 0.59324 0.03288 0.0
H1568 H 0.59597 0.64083 0.14184 0.0
H1569 H 0.63779 0.62765 0.02658 0.0
C1570 C 0.6477 0.65004 0.046 0.0
C1571 C 0.646 0.66404 0.07457 0.0
C1572 C 0.59733 0.63038 0.118 0.0
C1573 C 0.62284 0.64065 0.08062 0.0
C1574 C 0.58577 0.61871 0.12025 0.0
C1575 C 0.58716 0.6051 0.08948 0.0
C1576 C 0.61041 0.62842 0.08479 0.0
C1577 C 0.60049 0.60353 0.05727 0.0
C1578 C 0.63618 0.63837 0.04886 0.0
C1579 C 0.63243 0.66593 0.10551 0.0
N1580 N 0.61156 0.61504 0.05574 0.0
N1581 N 0.62141 0.65437 0.10777 0.0
H1582 H 0.08545 0.89743 0.95347 0.0
H1583 H 0.14397 0.84117 0.79382 0.0
H1584 H 0.0927 0.90046 0.78587 0.0
H1585 H 0.14084 0.84181 0.96311 0.0
H1586 H 0.12385 0.86157 0.78975 0.0
H1587 H 0.10429 0.87579 0.95719 0.0
C1588 C 0.09095 0.89352 0.91737 0.0
C1589 C 0.08749 0.90084 0.86926 0.0
C1590 C 0.12753 0.85724 0.8278 0.0
C1591 C 0.10913 0.87601 0.87334 0.0
C1592 C 0.13902 0.84555 0.83019 0.0
C1593 C 0.14417 0.83976 0.87894 0.0
C1594 C 0.12105 0.86321 0.87446 0.0
C1595 C 0.13728 0.84592 0.92467 0.0
C1596 C 0.10174 0.88116 0.91958 0.0
C1597 C 0.095 0.89522 0.82384 0.0
N1598 N 0.1261 0.85731 0.92131 0.0
N1599 N 0.10547 0.88317 0.82702 0.0
loop_
_geom_bond_atom_site_label_1
_geom_bond_atom_site_label_2
_geom_bond_distance
_geom_bond_site_symmetry_2
_ccdc_geom_bond_type
Zn0 O3 2.029 1_554 S
Zn0 O5 2.049 . S
Zn0 O10 2.067 . S
Zn1 O2 1.962 . S
Zn1 O4 1.986 . S
Zn1 O6 1.996 . S
Zn1 O9 1.943 . S
O2 Zn1 1.962 . S
O2 C7 1.254 1_554 S
O3 Zn0 2.029 1_556 S
O3 C7 1.270 . S
O4 Zn1 1.986 . S
O4 C11 1.262 . S
O5 Zn0 2.049 . S
O5 C13 1.260 . S
O6 Zn1 1.996 . S
O6 C13 1.257 . S
C7 O2 1.254 1_556 S
C7 O3 1.270 . S
C8 O9 1.249 . S
C8 O10 1.270 . S
O9 Zn1 1.943 . S
O9 C8 1.249 . S
O10 Zn0 2.067 . S
O10 C8 1.270 . S
C11 O4 1.262 . S
C11 O12 1.232 . S
O12 C11 1.232 . S
C13 O5 1.260 . S
C13 O6 1.257 . S
Zn14 O17 2.031 . S
Zn14 O19 2.049 . S
Zn14 O24 2.067 . S
Zn15 O16 1.962 . S
Zn15 O18 1.986 . S
Zn15 O20 1.996 . S
Zn15 O23 1.943 . S
O16 Zn15 1.962 . S
O16 C21 1.254 . S
O17 Zn14 2.031 . S
O17 C21 1.269 . S
O18 Zn15 1.986 . S
O18 C25 1.262 . S
O19 Zn14 2.049 . S
O19 C27 1.260 . S
O20 Zn15 1.996 . S
O20 C27 1.257 . S
C21 O16 1.254 . S
C21 O17 1.269 . S
C22 O23 1.249 . S
C22 O24 1.270 . S
O23 Zn15 1.943 . S
O23 C22 1.249 . S
O24 Zn14 2.067 . S
O24 C22 1.270 . S
C25 O18 1.262 . S
C25 O26 1.232 . S
O26 C25 1.232 . S
C27 O19 1.260 . S
C27 O20 1.257 . S
Zn28 O31 2.031 . S
Zn28 O33 2.049 . S
Zn28 O38 2.067 . S
Zn29 O30 1.962 . S
Zn29 O32 1.986 . S
Zn29 O34 1.996 . S
Zn29 O37 1.943 . S
O30 Zn29 1.962 . S
O30 C35 1.254 . S
O31 Zn28 2.031 . S
O31 C35 1.269 . S
O32 Zn29 1.986 . S
O32 C39 1.262 . S
O33 Zn28 2.049 . S
O33 C41 1.260 . S
O34 Zn29 1.996 . S
O34 C41 1.257 . S
C35 O30 1.254 . S
C35 O31 1.269 . S
C36 O37 1.249 . S
C36 O38 1.270 . S
O37 Zn29 1.943 . S
O37 C36 1.249 . S
O38 Zn28 2.067 . S
O38 C36 1.270 . S
C39 O32 1.262 . S
C39 O40 1.232 . S
O40 C39 1.232 . S
C41 O33 1.260 . S
C41 O34 1.257 . S
Zn42 O45 2.031 . S
Zn42 O47 2.049 . S
Zn42 O52 2.067 . S
Zn43 O44 1.962 . S
Zn43 O46 1.986 . S
Zn43 O48 1.996 . S
Zn43 O51 1.943 . S
O44 Zn43 1.962 . S
O44 C49 1.254 . S
O45 Zn42 2.031 . S
O45 C49 1.269 . S
O46 Zn43 1.986 . S
O46 C53 1.262 . S
O47 Zn42 2.049 . S
O47 C55 1.260 . S
O48 Zn43 1.996 . S
O48 C55 1.257 . S
C49 O44 1.254 . S
C49 O45 1.269 . S
C50 O51 1.249 . S
C50 O52 1.270 . S
O51 Zn43 1.943 . S
O51 C50 1.249 . S
O52 Zn42 2.067 . S
O52 C50 1.270 . S
C53 O46 1.262 . S
C53 O54 1.232 . S
O54 C53 1.232 . S
C55 O47 1.260 . S
C55 O48 1.257 . S
Zn56 O59 2.031 . S
Zn56 O61 2.049 . S
Zn56 O66 2.067 . S
Zn57 O58 1.962 . S
Zn57 O60 1.986 . S
Zn57 O62 1.996 . S
Zn57 O65 1.943 . S
O58 Zn57 1.962 . S
O58 C63 1.254 . S
O59 Zn56 2.031 . S
O59 C63 1.269 . S
O60 Zn57 1.986 . S
O60 C67 1.262 . S
O61 Zn56 2.049 . S
O61 C69 1.260 . S
O62 Zn57 1.996 . S
O62 C69 1.257 . S
C63 O58 1.254 . S
C63 O59 1.269 . S
C64 O65 1.249 . S
C64 O66 1.270 . S
O65 Zn57 1.943 . S
O65 C64 1.249 . S
O66 Zn56 2.067 . S
O66 C64 1.270 . S
C67 O60 1.262 . S
C67 O68 1.232 . S
O68 C67 1.232 . S
C69 O61 1.260 . S
C69 O62 1.257 . S
Zn70 O73 2.031 . S
Zn70 O75 2.049 . S
Zn70 O80 2.067 . S
Zn71 O72 1.962 . S
Zn71 O74 1.986 . S
Zn71 O76 1.996 . S
Zn71 O79 1.943 . S
O72 Zn71 1.962 . S
O72 C77 1.254 . S
O73 Zn70 2.031 . S
O73 C77 1.269 . S
O74 Zn71 1.986 . S
O74 C81 1.262 . S
O75 Zn70 2.049 . S
O75 C83 1.260 . S
O76 Zn71 1.996 . S
O76 C83 1.257 . S
C77 O72 1.254 . S
C77 O73 1.269 . S
C78 O79 1.249 . S
C78 O80 1.270 . S
O79 Zn71 1.943 . S
O79 C78 1.249 . S
O80 Zn70 2.067 . S
O80 C78 1.270 . S
C81 O74 1.262 . S
C81 O82 1.232 . S
O82 C81 1.232 . S
C83 O75 1.260 . S
C83 O76 1.257 . S
Zn84 O87 2.029 1_556 S
Zn84 O89 2.049 . S
Zn84 O94 2.067 . S
Zn85 O86 1.962 . S
Zn85 O88 1.986 . S
Zn85 O90 1.996 . S
Zn85 O93 1.943 . S
O86 Zn85 1.962 . S
O86 C91 1.254 1_556 S
O87 Zn84 2.029 1_554 S
O87 C91 1.270 . S
O88 Zn85 1.986 . S
O88 C95 1.262 . S
O89 Zn84 2.049 . S
O89 C97 1.260 . S
O90 Zn85 1.996 . S
O90 C97 1.257 . S
C91 O86 1.254 1_554 S
C91 O87 1.270 . S
C92 O93 1.249 . S
C92 O94 1.270 . S
O93 Zn85 1.943 . S
O93 C92 1.249 . S
O94 Zn84 2.067 . S
O94 C92 1.270 . S
C95 O88 1.262 . S
C95 O96 1.232 . S
O96 C95 1.232 . S
C97 O89 1.260 . S
C97 O90 1.257 . S
Zn98 O101 2.031 . S
Zn98 O103 2.049 . S
Zn98 O108 2.067 . S
Zn99 O100 1.962 . S
Zn99 O102 1.986 . S
Zn99 O104 1.996 . S
Zn99 O107 1.943 . S
O100 Zn99 1.962 . S
O100 C105 1.254 . S
O101 Zn98 2.031 . S
O101 C105 1.269 . S
O102 Zn99 1.986 . S
O102 C109 1.262 . S
O103 Zn98 2.049 . S
O103 C111 1.260 . S
O104 Zn99 1.996 . S
O104 C111 1.257 . S
C105 O100 1.254 . S
C105 O101 1.269 . S
C106 O107 1.249 . S
C106 O108 1.270 . S
O107 Zn99 1.943 . S
O107 C106 1.249 . S
O108 Zn98 2.067 . S
O108 C106 1.270 . S
C109 O102 1.262 . S
C109 O110 1.232 . S
O110 C109 1.232 . S
C111 O103 1.260 . S
C111 O104 1.257 . S
Zn112 O115 2.029 1_556 S
Zn112 O117 2.049 . S
Zn112 O122 2.067 . S
Zn113 O114 1.962 . S
Zn113 O116 1.986 . S
Zn113 O118 1.996 . S
Zn113 O121 1.943 . S
O114 Zn113 1.962 . S
O114 C119 1.254 1_556 S
O115 Zn112 2.029 1_554 S
O115 C119 1.270 . S
O116 Zn113 1.986 . S
O116 C123 1.262 . S
O117 Zn112 2.049 . S
O117 C125 1.260 . S
O118 Zn113 1.996 . S
O118 C125 1.257 . S
C119 O114 1.254 1_554 S
C119 O115 1.270 . S
C120 O121 1.249 . S
C120 O122 1.270 . S
O121 Zn113 1.943 . S
O121 C120 1.249 . S
O122 Zn112 2.067 . S
O122 C120 1.270 . S
C123 O116 1.262 . S
C123 O124 1.232 . S
O124 C123 1.232 . S
C125 O117 1.260 . S
C125 O118 1.257 . S
Zn126 O129 2.031 . S
Zn126 O131 2.049 . S
Zn126 O136 2.067 . S
Zn127 O128 1.962 . S
Zn127 O130 1.986 . S
Zn127 O132 1.996 . S
Zn127 O135 1.943 . S
O128 Zn127 1.962 . S
O128 C133 1.254 . S
O129 Zn126 2.031 . S
O129 C133 1.269 . S
O130 Zn127 1.986 . S
O130 C137 1.262 . S
O131 Zn126 2.049 . S
O131 C139 1.260 . S
O132 Zn127 1.996 . S
O132 C139 1.257 . S
C133 O128 1.254 . S
C133 O129 1.269 . S
C134 O135 1.249 . S
C134 O136 1.270 . S
O135 Zn127 1.943 . S
O135 C134 1.249 . S
O136 Zn126 2.067 . S
O136 C134 1.270 . S
C137 O130 1.262 . S
C137 O138 1.232 . S
O138 C137 1.232 . S
C139 O131 1.260 . S
C139 O132 1.257 . S
Zn140 O143 2.031 . S
Zn140 O145 2.049 . S
Zn140 O150 2.067 . S
Zn141 O142 1.962 . S
Zn141 O144 1.986 . S
Zn141 O146 1.996 . S
Zn141 O149 1.943 . S
O142 Zn141 1.962 . S
O142 C147 1.254 . S
O143 Zn140 2.031 . S
O143 C147 1.269 . S
O144 Zn141 1.986 . S
O144 C151 1.262 . S
O145 Zn140 2.049 . S
O145 C153 1.260 . S
O146 Zn141 1.996 . S
O146 C153 1.257 . S
C147 O142 1.254 . S
C147 O143 1.269 . S
C148 O149 1.249 . S
C148 O150 1.270 . S
O149 Zn141 1.943 . S
O149 C148 1.249 . S
O150 Zn140 2.067 . S
O150 C148 1.270 . S
C151 O144 1.262 . S
C151 O152 1.232 . S
O152 C151 1.232 . S
C153 O145 1.260 . S
C153 O146 1.257 . S
Zn154 O157 2.031 . S
Zn154 O159 2.049 . S
Zn154 O164 2.067 . S
Zn155 O156 1.962 . S
Zn155 O158 1.986 . S
Zn155 O160 1.996 . S
Zn155 O163 1.943 . S
O156 Zn155 1.962 . S
O156 C161 1.254 . S
O157 Zn154 2.031 . S
O157 C161 1.269 . S
O158 Zn155 1.986 . S
O158 C165 1.262 . S
O159 Zn154 2.049 . S
O159 C167 1.260 . S
O160 Zn155 1.996 . S
O160 C167 1.257 . S
C161 O156 1.254 . S
C161 O157 1.269 . S
C162 O163 1.249 . S
C162 O164 1.270 . S
O163 Zn155 1.943 . S
O163 C162 1.249 . S
O164 Zn154 2.067 . S
O164 C162 1.270 . S
C165 O158 1.262 . S
C165 O166 1.232 . S
O166 C165 1.232 . S
C167 O159 1.260 . S
C167 O160 1.257 . S
Zn168 O171 2.031 . S
Zn168 O173 2.049 . S
Zn168 O178 2.067 . S
Zn169 O170 1.962 . S
Zn169 O172 1.986 . S
Zn169 O174 1.996 . S
Zn169 O177 1.943 . S
O170 Zn169 1.962 . S
O170 C175 1.254 . S
O171 Zn168 2.031 . S
O171 C175 1.269 . S
O172 Zn169 1.986 . S
O172 C179 1.262 . S
O173 Zn168 2.049 . S
O173 C181 1.260 . S
O174 Zn169 1.996 . S
O174 C181 1.257 . S
C175 O170 1.254 . S
C175 O171 1.269 . S
C176 O177 1.249 . S
C176 O178 1.270 . S
O177 Zn169 1.943 . S
O177 C176 1.249 . S
O178 Zn168 2.067 . S
O178 C176 1.270 . S
C179 O172 1.262 . S
C179 O180 1.232 . S
O180 C179 1.232 . S
C181 O173 1.260 . S
C181 O174 1.257 . S
Zn182 O185 2.031 . S
Zn182 O187 2.049 . S
Zn182 O192 2.067 . S
Zn183 O184 1.962 . S
Zn183 O186 1.986 . S
Zn183 O188 1.996 . S
Zn183 O191 1.943 . S
O184 Zn183 1.962 . S
O184 C189 1.254 . S
O185 Zn182 2.031 . S
O185 C189 1.269 . S
O186 Zn183 1.986 . S
O186 C193 1.262 . S
O187 Zn182 2.049 . S
O187 C195 1.260 . S
O188 Zn183 1.996 . S
O188 C195 1.257 . S
C189 O184 1.254 . S
C189 O185 1.269 . S
C190 O191 1.249 . S
C190 O192 1.270 . S
O191 Zn183 1.943 . S
O191 C190 1.249 . S
O192 Zn182 2.067 . S
O192 C190 1.270 . S
C193 O186 1.262 . S
C193 O194 1.232 . S
O194 C193 1.232 . S
C195 O187 1.260 . S
C195 O188 1.257 . S
Zn196 O199 2.029 1_554 S
Zn196 O201 2.049 . S
Zn196 O206 2.067 . S
Zn197 O198 1.962 . S
Zn197 O200 1.986 . S
Zn197 O202 1.996 . S
Zn197 O205 1.943 . S
O198 Zn197 1.962 . S
O198 C203 1.254 1_554 S
O199 Zn196 2.029 1_556 S
O199 C203 1.270 . S
O200 Zn197 1.986 . S
O200 C207 1.262 . S
O201 Zn196 2.049 . S
O201 C209 1.260 . S
O202 Zn197 1.996 . S
O202 C209 1.257 . S
C203 O198 1.254 1_556 S
C203 O199 1.270 . S
C204 O205 1.249 . S
C204 O206 1.270 . S
O205 Zn197 1.943 . S
O205 C204 1.249 . S
O206 Zn196 2.067 . S
O206 C204 1.270 . S
C207 O200 1.262 . S
C207 O208 1.232 . S
O208 C207 1.232 . S
C209 O201 1.260 . S
C209 O202 1.257 . S
Zn210 O213 2.031 . S
Zn210 O215 2.049 . S
Zn210 O220 2.067 . S
Zn211 O212 1.962 . S
Zn211 O214 1.986 . S
Zn211 O216 1.996 . S
Zn211 O219 1.943 . S
O212 Zn211 1.962 . S
O212 C217 1.254 . S
O213 Zn210 2.031 . S
O213 C217 1.269 . S
O214 Zn211 1.986 . S
O214 C221 1.262 . S
O215 Zn210 2.049 . S
O215 C223 1.260 . S
O216 Zn211 1.996 . S
O216 C223 1.257 . S
C217 O212 1.254 . S
C217 O213 1.269 . S
C218 O219 1.249 . S
C218 O220 1.270 . S
O219 Zn211 1.943 . S
O219 C218 1.249 . S
O220 Zn210 2.067 . S
O220 C218 1.270 . S
C221 O214 1.262 . S
C221 O222 1.232 . S
O222 C221 1.232 . S
C223 O215 1.260 . S
C223 O216 1.257 . S
Zn224 O227 2.031 . S
Zn224 O229 2.049 . S
Zn224 O234 2.067 . S
Zn225 O226 1.962 . S
Zn225 O228 1.986 . S
Zn225 O230 1.996 . S
Zn225 O233 1.943 . S
O226 Zn225 1.962 . S
O226 C231 1.254 . S
O227 Zn224 2.031 . S
O227 C231 1.269 . S
O228 Zn225 1.986 . S
O228 C235 1.262 . S
O229 Zn224 2.049 . S
O229 C237 1.260 . S
O230 Zn225 1.996 . S
O230 C237 1.257 . S
C231 O226 1.254 . S
C231 O227 1.269 . S
C232 O233 1.249 . S
C232 O234 1.270 . S
O233 Zn225 1.943 . S
O233 C232 1.249 . S
O234 Zn224 2.067 . S
O234 C232 1.270 . S
C235 O228 1.262 . S
C235 O236 1.232 . S
O236 C235 1.232 . S
C237 O229 1.260 . S
C237 O230 1.257 . S
Zn238 O241 2.031 . S
Zn238 O243 2.049 . S
Zn238 O248 2.067 . S
Zn239 O240 1.962 . S
Zn239 O242 1.986 . S
Zn239 O244 1.996 . S
Zn239 O247 1.943 . S
O240 Zn239 1.962 . S
O240 C245 1.254 . S
O241 Zn238 2.031 . S
O241 C245 1.269 . S
O242 Zn239 1.986 . S
O242 C249 1.262 . S
O243 Zn238 2.049 . S
O243 C251 1.260 . S
O244 Zn239 1.996 . S
O244 C251 1.257 . S
C245 O240 1.254 . S
C245 O241 1.269 . S
C246 O247 1.249 . S
C246 O248 1.270 . S
O247 Zn239 1.943 . S
O247 C246 1.249 . S
O248 Zn238 2.067 . S
O248 C246 1.270 . S
C249 O242 1.262 . S
C249 O250 1.232 . S
O250 C249 1.232 . S
C251 O243 1.260 . S
C251 O244 1.257 . S
Zn252 O255 2.029 1_554 S
Zn252 O257 2.049 . S
Zn252 O262 2.067 . S
Zn253 O254 1.962 . S
Zn253 O256 1.986 . S
Zn253 O258 1.996 . S
Zn253 O261 1.943 . S
O254 Zn253 1.962 . S
O254 C259 1.254 1_554 S
O255 Zn252 2.029 1_556 S
O255 C259 1.270 . S
O256 Zn253 1.986 . S
O256 C263 1.262 . S
O257 Zn252 2.049 . S
O257 C265 1.260 . S
O258 Zn253 1.996 . S
O258 C265 1.257 . S
C259 O254 1.254 1_556 S
C259 O255 1.270 . S
C260 O261 1.249 . S
C260 O262 1.270 . S
O261 Zn253 1.943 . S
O261 C260 1.249 . S
O262 Zn252 2.067 . S
O262 C260 1.270 . S
C263 O256 1.262 . S
C263 O264 1.232 . S
O264 C263 1.232 . S
C265 O257 1.260 . S
C265 O258 1.257 . S
Zn266 O269 2.031 . S
Zn266 O271 2.049 . S
Zn266 O276 2.067 . S
Zn267 O268 1.962 . S
Zn267 O270 1.986 . S
Zn267 O272 1.996 . S
Zn267 O275 1.943 . S
O268 Zn267 1.962 . S
O268 C273 1.254 . S
O269 Zn266 2.031 . S
O269 C273 1.269 . S
O270 Zn267 1.986 . S
O270 C277 1.262 . S
O271 Zn266 2.049 . S
O271 C279 1.260 . S
O272 Zn267 1.996 . S
O272 C279 1.257 . S
C273 O268 1.254 . S
C273 O269 1.269 . S
C274 O275 1.249 . S
C274 O276 1.270 . S
O275 Zn267 1.943 . S
O275 C274 1.249 . S
O276 Zn266 2.067 . S
O276 C274 1.270 . S
C277 O270 1.262 . S
C277 O278 1.232 . S
O278 C277 1.232 . S
C279 O271 1.260 . S
C279 O272 1.257 . S
Zn280 O283 2.029 1_556 S
Zn280 O285 2.049 . S
Zn280 O290 2.067 . S
Zn281 O282 1.962 . S
Zn281 O284 1.986 . S
Zn281 O286 1.996 . S
Zn281 O289 1.943 . S
O282 Zn281 1.962 . S
O282 C287 1.254 1_556 S
O283 Zn280 2.029 1_554 S
O283 C287 1.270 . S
O284 Zn281 1.986 . S
O284 C291 1.262 . S
O285 Zn280 2.049 . S
O285 C293 1.260 . S
O286 Zn281 1.996 . S
O286 C293 1.257 . S
C287 O282 1.254 1_554 S
C287 O283 1.270 . S
C288 O289 1.249 . S
C288 O290 1.270 . S
O289 Zn281 1.943 . S
O289 C288 1.249 . S
O290 Zn280 2.067 . S
O290 C288 1.270 . S
C291 O284 1.262 . S
C291 O292 1.232 . S
O292 C291 1.232 . S
C293 O285 1.260 . S
C293 O286 1.257 . S
Zn294 O297 2.031 . S
Zn294 O299 2.049 . S
Zn294 O304 2.067 . S
Zn295 O296 1.962 . S
Zn295 O298 1.986 . S
Zn295 O300 1.996 . S
Zn295 O303 1.943 . S
O296 Zn295 1.962 . S
O296 C301 1.254 . S
O297 Zn294 2.031 . S
O297 C301 1.269 . S
O298 Zn295 1.986 . S
O298 C305 1.262 . S
O299 Zn294 2.049 . S
O299 C307 1.260 . S
O300 Zn295 1.996 . S
O300 C307 1.257 . S
C301 O296 1.254 . S
C301 O297 1.269 . S
C302 O303 1.249 . S
C302 O304 1.270 . S
O303 Zn295 1.943 . S
O303 C302 1.249 . S
O304 Zn294 2.067 . S
O304 C302 1.270 . S
C305 O298 1.262 . S
C305 O306 1.232 . S
O306 C305 1.232 . S
C307 O299 1.260 . S
C307 O300 1.257 . S
Zn308 O311 2.031 . S
Zn308 O313 2.049 . S
Zn308 O318 2.067 . S
Zn309 O310 1.962 . S
Zn309 O312 1.986 . S
Zn309 O314 1.996 . S
Zn309 O317 1.943 . S
O310 Zn309 1.962 . S
O310 C315 1.254 . S
O311 Zn308 2.031 . S
O311 C315 1.269 . S
O312 Zn309 1.986 . S
O312 C319 1.262 . S
O313 Zn308 2.049 . S
O313 C321 1.260 . S
O314 Zn309 1.996 . S
O314 C321 1.257 . S
C315 O310 1.254 . S
C315 O311 1.269 . S
C316 O317 1.249 . S
C316 O318 1.270 . S
O317 Zn309 1.943 . S
O317 C316 1.249 . S
O318 Zn308 2.067 . S
O318 C316 1.270 . S
C319 O312 1.262 . S
C319 O320 1.232 . S
O320 C319 1.232 . S
C321 O313 1.260 . S
C321 O314 1.257 . S
Zn322 O325 2.031 . S
Zn322 O327 2.049 . S
Zn322 O332 2.067 . S
Zn323 O324 1.962 . S
Zn323 O326 1.986 . S
Zn323 O328 1.996 . S
Zn323 O331 1.943 . S
O324 Zn323 1.962 . S
O324 C329 1.254 . S
O325 Zn322 2.031 . S
O325 C329 1.269 . S
O326 Zn323 1.986 . S
O326 C333 1.262 . S
O327 Zn322 2.049 . S
O327 C335 1.260 . S
O328 Zn323 1.996 . S
O328 C335 1.257 . S
C329 O324 1.254 . S
C329 O325 1.269 . S
C330 O331 1.249 . S
C330 O332 1.270 . S
O331 Zn323 1.943 . S
O331 C330 1.249 . S
O332 Zn322 2.067 . S
O332 C330 1.270 . S
C333 O326 1.262 . S
C333 O334 1.232 . S
O334 C333 1.232 . S
C335 O327 1.260 . S
C335 O328 1.257 . S
Zn336 O339 2.031 . S
Zn336 O341 2.049 . S
Zn336 O346 2.067 . S
Zn337 O338 1.962 . S
Zn337 O340 1.986 . S
Zn337 O342 1.996 . S
Zn337 O345 1.943 . S
O338 Zn337 1.962 . S
O338 C343 1.254 . S
O339 Zn336 2.031 . S
O339 C343 1.269 . S
O340 Zn337 1.986 . S
O340 C347 1.262 . S
O341 Zn336 2.049 . S
O341 C349 1.260 . S
O342 Zn337 1.996 . S
O342 C349 1.257 . S
C343 O338 1.254 . S
C343 O339 1.269 . S
C344 O345 1.249 . S
C344 O346 1.270 . S
O345 Zn337 1.943 . S
O345 C344 1.249 . S
O346 Zn336 2.067 . S
O346 C344 1.270 . S
C347 O340 1.262 . S
C347 O348 1.232 . S
O348 C347 1.232 . S
C349 O341 1.260 . S
C349 O342 1.257 . S
Zn350 O353 2.031 . S
Zn350 O355 2.049 . S
Zn350 O360 2.067 . S
Zn351 O352 1.962 . S
Zn351 O354 1.986 . S
Zn351 O356 1.996 . S
Zn351 O359 1.943 . S
O352 Zn351 1.962 . S
O352 C357 1.254 . S
O353 Zn350 2.031 . S
O353 C357 1.269 . S
O354 Zn351 1.986 . S
O354 C361 1.262 . S
O355 Zn350 2.049 . S
O355 C363 1.260 . S
O356 Zn351 1.996 . S
O356 C363 1.257 . S
C357 O352 1.254 . S
C357 O353 1.269 . S
C358 O359 1.249 . S
C358 O360 1.270 . S
O359 Zn351 1.943 . S
O359 C358 1.249 . S
O360 Zn350 2.067 . S
O360 C358 1.270 . S
C361 O354 1.262 . S
C361 O362 1.232 . S
O362 C361 1.232 . S
C363 O355 1.260 . S
C363 O356 1.257 . S
Zn364 O367 2.029 1_556 S
Zn364 O369 2.049 . S
Zn364 O374 2.067 . S
Zn365 O366 1.962 . S
Zn365 O368 1.986 . S
Zn365 O370 1.996 . S
Zn365 O373 1.943 . S
O366 Zn365 1.962 . S
O366 C371 1.254 1_556 S
O367 Zn364 2.029 1_554 S
O367 C371 1.270 . S
O368 Zn365 1.986 . S
O368 C375 1.262 . S
O369 Zn364 2.049 . S
O369 C377 1.260 . S
O370 Zn365 1.996 . S
O370 C377 1.257 . S
C371 O366 1.254 1_554 S
C371 O367 1.270 . S
C372 O373 1.249 . S
C372 O374 1.270 . S
O373 Zn365 1.943 . S
O373 C372 1.249 . S
O374 Zn364 2.067 . S
O374 C372 1.270 . S
C375 O368 1.262 . S
C375 O376 1.232 . S
O376 C375 1.232 . S
C377 O369 1.260 . S
C377 O370 1.257 . S
Zn378 O381 2.031 . S
Zn378 O383 2.049 . S
Zn378 O388 2.067 . S
Zn379 O380 1.962 . S
Zn379 O382 1.986 . S
Zn379 O384 1.996 . S
Zn379 O387 1.943 . S
O380 Zn379 1.962 . S
O380 C385 1.254 . S
O381 Zn378 2.031 . S
O381 C385 1.269 . S
O382 Zn379 1.986 . S
O382 C389 1.262 . S
O383 Zn378 2.049 . S
O383 C391 1.260 . S
O384 Zn379 1.996 . S
O384 C391 1.257 . S
C385 O380 1.254 . S
C385 O381 1.269 . S
C386 O387 1.249 . S
C386 O388 1.270 . S
O387 Zn379 1.943 . S
O387 C386 1.249 . S
O388 Zn378 2.067 . S
O388 C386 1.270 . S
C389 O382 1.262 . S
C389 O390 1.232 . S
O390 C389 1.232 . S
C391 O383 1.260 . S
C391 O384 1.257 . S
Zn392 O395 2.029 1_554 S
Zn392 O397 2.049 . S
Zn392 O402 2.067 . S
Zn393 O394 1.962 . S
Zn393 O396 1.986 . S
Zn393 O398 1.996 . S
Zn393 O401 1.943 . S
O394 Zn393 1.962 . S
O394 C399 1.254 1_554 S
O395 Zn392 2.029 1_556 S
O395 C399 1.270 . S
O396 Zn393 1.986 . S
O396 C403 1.262 . S
O397 Zn392 2.049 . S
O397 C405 1.260 . S
O398 Zn393 1.996 . S
O398 C405 1.257 . S
C399 O394 1.254 1_556 S
C399 O395 1.270 . S
C400 O401 1.249 . S
C400 O402 1.270 . S
O401 Zn393 1.943 . S
O401 C400 1.249 . S
O402 Zn392 2.067 . S
O402 C400 1.270 . S
C403 O396 1.262 . S
C403 O404 1.232 . S
O404 C403 1.232 . S
C405 O397 1.260 . S
C405 O398 1.257 . S
Zn406 O409 2.031 . S
Zn406 O411 2.049 . S
Zn406 O416 2.067 . S
Zn407 O408 1.962 . S
Zn407 O410 1.986 . S
Zn407 O412 1.996 . S
Zn407 O415 1.943 . S
O408 Zn407 1.962 . S
O408 C413 1.254 . S
O409 Zn406 2.031 . S
O409 C413 1.269 . S
O410 Zn407 1.986 . S
O410 C417 1.262 . S
O411 Zn406 2.049 . S
O411 C419 1.260 . S
O412 Zn407 1.996 . S
O412 C419 1.257 . S
C413 O408 1.254 . S
C413 O409 1.269 . S
C414 O415 1.249 . S
C414 O416 1.270 . S
O415 Zn407 1.943 . S
O415 C414 1.249 . S
O416 Zn406 2.067 . S
O416 C414 1.270 . S
C417 O410 1.262 . S
C417 O418 1.232 . S
O418 C417 1.232 . S
C419 O411 1.260 . S
C419 O412 1.257 . S
Zn420 O423 2.031 . S
Zn420 O425 2.049 . S
Zn420 O430 2.067 . S
Zn421 O422 1.962 . S
Zn421 O424 1.986 . S
Zn421 O426 1.996 . S
Zn421 O429 1.943 . S
O422 Zn421 1.962 . S
O422 C427 1.254 . S
O423 Zn420 2.031 . S
O423 C427 1.269 . S
O424 Zn421 1.986 . S
O424 C431 1.262 . S
O425 Zn420 2.049 . S
O425 C433 1.260 . S
O426 Zn421 1.996 . S
O426 C433 1.257 . S
C427 O422 1.254 . S
C427 O423 1.269 . S
C428 O429 1.249 . S
C428 O430 1.270 . S
O429 Zn421 1.943 . S
O429 C428 1.249 . S
O430 Zn420 2.067 . S
O430 C428 1.270 . S
C431 O424 1.262 . S
C431 O432 1.232 . S
O432 C431 1.232 . S
C433 O425 1.260 . S
C433 O426 1.257 . S
Zn434 O437 2.031 . S
Zn434 O439 2.049 . S
Zn434 O444 2.067 . S
Zn435 O436 1.962 . S
Zn435 O438 1.986 . S
Zn435 O440 1.996 . S
Zn435 O443 1.943 . S
O436 Zn435 1.962 . S
O436 C441 1.254 . S
O437 Zn434 2.031 . S
O437 C441 1.269 . S
O438 Zn435 1.986 . S
O438 C445 1.262 . S
O439 Zn434 2.049 . S
O439 C447 1.260 . S
O440 Zn435 1.996 . S
O440 C447 1.257 . S
C441 O436 1.254 . S
C441 O437 1.269 . S
C442 O443 1.249 . S
C442 O444 1.270 . S
O443 Zn435 1.943 . S
O443 C442 1.249 . S
O444 Zn434 2.067 . S
O444 C442 1.270 . S
C445 O438 1.262 . S
C445 O446 1.232 . S
O446 C445 1.232 . S
C447 O439 1.260 . S
C447 O440 1.257 . S
H448 C454 0.930 . S
H449 C458 0.930 . S
H450 C463 0.929 . S
H451 C461 0.929 . S
H452 C456 0.935 . S
H453 C462 0.935 . S
C454 H448 0.930 . S
C454 C455 1.367 . S
C454 C462 1.378 . S
C455 C454 1.367 . S
C455 C463 1.433 . S
C456 H452 0.935 . S
C456 C458 1.378 . S
C456 C460 1.350 . S
C457 C460 1.463 1_556 S
C457 C462 1.350 . S
C457 N465 1.427 . S
C458 H449 0.930 . S
C458 C456 1.378 . S
C458 C459 1.367 . S
C459 C458 1.367 . S
C459 C461 1.433 . S
C460 C456 1.350 . S
C460 C457 1.463 1_554 S
C460 N464 1.427 . S
C461 H451 0.929 . S
C461 C459 1.433 . S
C461 N464 1.384 . S
C462 H453 0.935 . S
C462 C454 1.378 . S
C462 C457 1.350 . S
C463 H450 0.929 . S
C463 C455 1.433 . S
C463 N465 1.384 . S
N464 C460 1.427 . S
N464 C461 1.384 . S
N465 C457 1.427 . S
N465 C463 1.384 . S
H466 C472 0.930 . S
H467 C476 0.930 . S
H468 C481 0.929 . S
H469 C479 0.929 . S
H470 C474 0.929 . S
H471 C480 0.929 . S
C472 H466 0.930 . S
C472 C473 1.367 . S
C472 C480 1.378 . S
C473 C472 1.367 . S
C473 C481 1.433 . S
C474 H470 0.929 . S
C474 C476 1.378 . S
C474 C478 1.350 . S
C475 C478 1.463 1_565 S
C475 C480 1.350 . S
C475 N483 1.427 . S
C476 H467 0.930 . S
C476 C474 1.378 . S
C476 C477 1.367 . S
C477 C476 1.367 . S
C477 C479 1.433 . S
C478 C474 1.350 . S
C478 C475 1.463 1_545 S
C478 N482 1.427 . S
C479 H469 0.929 . S
C479 C477 1.433 . S
C479 N482 1.384 . S
C480 H471 0.929 . S
C480 C472 1.378 . S
C480 C475 1.350 . S
C481 H468 0.929 . S
C481 C473 1.433 . S
C481 N483 1.384 . S
N482 C478 1.427 . S
N482 C479 1.384 . S
N483 C475 1.427 . S
N483 C481 1.384 . S
H484 C490 0.930 . S
H485 C494 0.930 . S
H486 C499 0.929 . S
H487 C497 0.929 . S
H488 C492 0.929 . S
H489 C498 0.929 . S
C490 H484 0.930 . S
C490 C491 1.367 . S
C490 C498 1.378 . S
C491 C490 1.367 . S
C491 C499 1.433 . S
C492 H488 0.929 . S
C492 C494 1.378 . S
C492 C496 1.350 . S
C493 C496 1.463 . S
C493 C498 1.350 . S
C493 N501 1.427 . S
C494 H485 0.930 . S
C494 C492 1.378 . S
C494 C495 1.367 . S
C495 C494 1.367 . S
C495 C497 1.433 . S
C496 C492 1.350 . S
C496 C493 1.463 . S
C496 N500 1.427 . S
C497 H487 0.929 . S
C497 C495 1.433 . S
C497 N500 1.384 . S
C498 H489 0.929 . S
C498 C490 1.378 . S
C498 C493 1.350 . S
C499 H486 0.929 . S
C499 C491 1.433 . S
C499 N501 1.384 . S
N500 C496 1.427 . S
N500 C497 1.384 . S
N501 C493 1.427 . S
N501 C499 1.384 . S
H502 C508 0.930 . S
H503 C512 0.930 . S
H504 C517 0.929 . S
H505 C515 0.929 . S
H506 C510 0.929 . S
H507 C516 0.929 . S
C508 H502 0.930 . S
C508 C509 1.367 . S
C508 C516 1.378 . S
C509 C508 1.367 . S
C509 C517 1.433 . S
C510 H506 0.929 . S
C510 C512 1.378 . S
C510 C514 1.350 . S
C511 C514 1.463 1_545 S
C511 C516 1.350 . S
C511 N519 1.427 . S
C512 H503 0.930 . S
C512 C510 1.378 . S
C512 C513 1.367 . S
C513 C512 1.367 . S
C513 C515 1.433 . S
C514 C510 1.350 . S
C514 C511 1.463 1_565 S
C514 N518 1.427 . S
C515 H505 0.929 . S
C515 C513 1.433 . S
C515 N518 1.384 . S
C516 H507 0.929 . S
C516 C508 1.378 . S
C516 C511 1.350 . S
C517 H504 0.929 . S
C517 C509 1.433 . S
C517 N519 1.384 . S
N518 C514 1.427 . S
N518 C515 1.384 . S
N519 C511 1.427 . S
N519 C517 1.384 . S
H520 C526 0.930 . S
H521 C530 0.930 . S
H522 C535 0.929 . S
H523 C533 0.929 . S
H524 C528 0.929 . S
H525 C534 0.929 . S
C526 H520 0.930 . S
C526 C527 1.367 . S
C526 C534 1.378 . S
C527 C526 1.367 . S
C527 C535 1.433 . S
C528 H524 0.929 . S
C528 C530 1.378 . S
C528 C532 1.350 . S
C529 C532 1.463 1_554 S
C529 C534 1.350 . S
C529 N537 1.427 . S
C530 H521 0.930 . S
C530 C528 1.378 . S
C530 C531 1.367 . S
C531 C530 1.367 . S
C531 C533 1.433 . S
C532 C528 1.350 . S
C532 C529 1.463 1_556 S
C532 N536 1.427 . S
C533 H523 0.929 . S
C533 C531 1.433 . S
C533 N536 1.384 . S
C534 H525 0.929 . S
C534 C526 1.378 . S
C534 C529 1.350 . S
C535 H522 0.929 . S
C535 C527 1.433 . S
C535 N537 1.384 . S
N536 C532 1.427 . S
N536 C533 1.384 . S
N537 C529 1.427 . S
N537 C535 1.384 . S
H538 C544 0.930 . S
H539 C548 0.930 . S
H540 C553 0.929 . S
H541 C551 0.929 . S
H542 C546 0.929 . S
H543 C552 0.929 . S
C544 H538 0.930 . S
C544 C545 1.367 . S
C544 C552 1.378 . S
C545 C544 1.367 . S
C545 C553 1.433 . S
C546 H542 0.929 . S
C546 C548 1.378 . S
C546 C550 1.350 . S
C547 C550 1.463 1_565 S
C547 C552 1.350 . S
C547 N555 1.427 . S
C548 H539 0.930 . S
C548 C546 1.378 . S
C548 C549 1.367 . S
C549 C548 1.367 . S
C549 C551 1.433 . S
C550 C546 1.350 . S
C550 C547 1.463 1_545 S
C550 N554 1.427 . S
C551 H541 0.929 . S
C551 C549 1.433 . S
C551 N554 1.384 . S
C552 H543 0.929 . S
C552 C544 1.378 . S
C552 C547 1.350 . S
C553 H540 0.929 . S
C553 C545 1.433 . S
C553 N555 1.384 . S
N554 C550 1.427 . S
N554 C551 1.384 . S
N555 C547 1.427 . S
N555 C553 1.384 . S
H556 C562 0.930 . S
H557 C566 0.930 . S
H558 C571 0.929 . S
H559 C569 0.929 . S
H560 C564 0.929 . S
H561 C570 0.929 . S
C562 H556 0.930 . S
C562 C563 1.367 . S
C562 C570 1.378 . S
C563 C562 1.367 . S
C563 C571 1.433 . S
C564 H560 0.929 . S
C564 C566 1.378 . S
C564 C568 1.350 . S
C565 C568 1.463 . S
C565 C570 1.350 . S
C565 N573 1.427 . S
C566 H557 0.930 . S
C566 C564 1.378 . S
C566 C567 1.367 . S
C567 C566 1.367 . S
C567 C569 1.433 . S
C568 C564 1.350 . S
C568 C565 1.463 . S
C568 N572 1.427 . S
C569 H559 0.929 . S
C569 C567 1.433 . S
C569 N572 1.384 . S
C570 H561 0.929 . S
C570 C562 1.378 . S
C570 C565 1.350 . S
C571 H558 0.929 . S
C571 C563 1.433 . S
C571 N573 1.384 . S
N572 C568 1.427 . S
N572 C569 1.384 . S
N573 C565 1.427 . S
N573 C571 1.384 . S
H574 C580 0.930 . S
H575 C584 0.930 . S
H576 C589 0.929 . S
H577 C587 0.929 . S
H578 C582 0.929 . S
H579 C588 0.929 . S
C580 H574 0.930 . S
C580 C581 1.367 . S
C580 C588 1.378 . S
C581 C580 1.367 . S
C581 C589 1.433 . S
C582 H578 0.929 . S
C582 C584 1.378 . S
C582 C586 1.350 . S
C583 C586 1.463 1_565 S
C583 C588 1.350 . S
C583 N591 1.427 . S
C584 H575 0.930 . S
C584 C582 1.378 . S
C584 C585 1.367 . S
C585 C584 1.367 . S
C585 C587 1.433 . S
C586 C582 1.350 . S
C586 C583 1.463 1_545 S
C586 N590 1.427 . S
C587 H577 0.929 . S
C587 C585 1.433 . S
C587 N590 1.384 . S
C588 H579 0.929 . S
C588 C580 1.378 . S
C588 C583 1.350 . S
C589 H576 0.929 . S
C589 C581 1.433 . S
C589 N591 1.384 . S
N590 C586 1.427 . S
N590 C587 1.384 . S
N591 C583 1.427 . S
N591 C589 1.384 . S
H592 C598 0.930 . S
H593 C602 0.930 . S
H594 C607 0.929 . S
H595 C605 0.929 . S
H596 C600 0.929 . S
H597 C606 0.929 . S
C598 H592 0.930 . S
C598 C599 1.367 . S
C598 C606 1.378 . S
C599 C598 1.367 . S
C599 C607 1.433 . S
C600 H596 0.929 . S
C600 C602 1.378 . S
C600 C604 1.350 . S
C601 C604 1.463 . S
C601 C606 1.350 . S
C601 N609 1.427 . S
C602 H593 0.930 . S
C602 C600 1.378 . S
C602 C603 1.367 . S
C603 C602 1.367 . S
C603 C605 1.433 . S
C604 C600 1.350 . S
C604 C601 1.463 . S
C604 N608 1.427 . S
C605 H595 0.929 . S
C605 C603 1.433 . S
C605 N608 1.384 . S
C606 H597 0.929 . S
C606 C598 1.378 . S
C606 C601 1.350 . S
C607 H594 0.929 . S
C607 C599 1.433 . S
C607 N609 1.384 . S
N608 C604 1.427 . S
N608 C605 1.384 . S
N609 C601 1.427 . S
N609 C607 1.384 . S
H610 C616 0.930 . S
H611 C620 0.930 . S
H612 C625 0.929 . S
H613 C623 0.929 . S
H614 C618 0.929 . S
H615 C624 0.929 . S
C616 H610 0.930 . S
C616 C617 1.367 . S
C616 C624 1.378 . S
C617 C616 1.367 . S
C617 C625 1.433 . S
C618 H614 0.929 . S
C618 C620 1.378 . S
C618 C622 1.350 . S
C619 C622 1.463 . S
C619 C624 1.350 . S
C619 N627 1.427 . S
C620 H611 0.930 . S
C620 C618 1.378 . S
C620 C621 1.367 . S
C621 C620 1.367 . S
C621 C623 1.433 . S
C622 C618 1.350 . S
C622 C619 1.463 . S
C622 N626 1.427 . S
C623 H613 0.929 . S
C623 C621 1.433 . S
C623 N626 1.384 . S
C624 H615 0.929 . S
C624 C616 1.378 . S
C624 C619 1.350 . S
C625 H612 0.929 . S
C625 C617 1.433 . S
C625 N627 1.384 . S
N626 C622 1.427 . S
N626 C623 1.384 . S
N627 C619 1.427 . S
N627 C625 1.384 . S
H628 C634 0.930 . S
H629 C638 0.930 . S
H630 C643 0.929 1_554 S
H631 C641 0.929 1_556 S
H632 C636 0.929 . S
H633 C642 0.929 . S
C634 H628 0.930 . S
C634 C635 1.367 . S
C634 C642 1.378 . S
C635 C634 1.367 . S
C635 C643 1.433 . S
C636 H632 0.929 . S
C636 C638 1.378 . S
C636 C640 1.350 . S
C637 C640 1.463 1_556 S
C637 C642 1.350 . S
C637 N645 1.427 1_556 S
C638 H629 0.930 . S
C638 C636 1.378 . S
C638 C639 1.367 . S
C639 C638 1.367 . S
C639 C641 1.433 . S
C640 C636 1.350 . S
C640 C637 1.463 1_554 S
C640 N644 1.427 1_554 S
C641 H631 0.929 1_554 S
C641 C639 1.433 . S
C641 N644 1.384 1_554 S
C642 H633 0.929 . S
C642 C634 1.378 . S
C642 C637 1.350 . S
C643 H630 0.929 1_556 S
C643 C635 1.433 . S
C643 N645 1.384 1_556 S
N644 C640 1.427 1_556 S
N644 C641 1.384 1_556 S
N645 C637 1.427 1_554 S
N645 C643 1.384 1_554 S
H646 C652 0.930 . S
H647 C656 0.930 . S
H648 C661 0.929 . S
H649 C659 0.929 . S
H650 C654 0.929 . S
H651 C660 0.929 . S
C652 H646 0.930 . S
C652 C653 1.367 . S
C652 C660 1.378 . S
C653 C652 1.367 . S
C653 C661 1.433 . S
C654 H650 0.929 . S
C654 C656 1.378 . S
C654 C658 1.350 . S
C655 C658 1.463 . S
C655 C660 1.350 . S
C655 N663 1.427 . S
C656 H647 0.930 . S
C656 C654 1.378 . S
C656 C657 1.367 . S
C657 C656 1.367 . S
C657 C659 1.433 . S
C658 C654 1.350 . S
C658 C655 1.463 . S
C658 N662 1.427 . S
C659 H649 0.929 . S
C659 C657 1.433 . S
C659 N662 1.384 . S
C660 H651 0.929 . S
C660 C652 1.378 . S
C660 C655 1.350 . S
C661 H648 0.929 . S
C661 C653 1.433 . S
C661 N663 1.384 . S
N662 C658 1.427 . S
N662 C659 1.384 . S
N663 C655 1.427 . S
N663 C661 1.384 . S
H664 C670 0.930 . S
H665 C674 0.930 . S
H666 C679 0.929 . S
H667 C677 0.929 . S
H668 C672 0.929 . S
H669 C678 0.929 . S
C670 H664 0.930 . S
C670 C671 1.367 . S
C670 C678 1.378 . S
C671 C670 1.367 . S
C671 C679 1.433 . S
C672 H668 0.929 . S
C672 C674 1.378 . S
C672 C676 1.350 . S
C673 C676 1.463 . S
C673 C678 1.350 . S
C673 N681 1.427 . S
C674 H665 0.930 . S
C674 C672 1.378 . S
C674 C675 1.367 . S
C675 C674 1.367 . S
C675 C677 1.433 . S
C676 C672 1.350 . S
C676 C673 1.463 . S
C676 N680 1.427 . S
C677 H667 0.929 . S
C677 C675 1.433 . S
C677 N680 1.384 . S
C678 H669 0.929 . S
C678 C670 1.378 . S
C678 C673 1.350 . S
C679 H666 0.929 . S
C679 C671 1.433 . S
C679 N681 1.384 . S
N680 C676 1.427 . S
N680 C677 1.384 . S
N681 C673 1.427 . S
N681 C679 1.384 . S
H682 C688 0.930 . S
H683 C692 0.930 . S
H684 C697 0.929 . S
H685 C695 0.929 . S
H686 C690 0.929 . S
H687 C696 0.929 . S
C688 H682 0.930 . S
C688 C689 1.367 . S
C688 C696 1.378 . S
C689 C688 1.367 . S
C689 C697 1.433 . S
C690 H686 0.929 . S
C690 C692 1.378 . S
C690 C694 1.350 . S
C691 C694 1.463 . S
C691 C696 1.350 . S
C691 N699 1.427 . S
C692 H683 0.930 . S
C692 C690 1.378 . S
C692 C693 1.367 . S
C693 C692 1.367 . S
C693 C695 1.433 . S
C694 C690 1.350 . S
C694 C691 1.463 . S
C694 N698 1.427 . S
C695 H685 0.929 . S
C695 C693 1.433 . S
C695 N698 1.384 . S
C696 H687 0.929 . S
C696 C688 1.378 . S
C696 C691 1.350 . S
C697 H684 0.929 . S
C697 C689 1.433 . S
C697 N699 1.384 . S
N698 C694 1.427 . S
N698 C695 1.384 . S
N699 C691 1.427 . S
N699 C697 1.384 . S
H700 C706 0.930 . S
H701 C710 0.930 . S
H702 C715 0.929 . S
H703 C713 0.929 . S
H704 C708 0.929 1_554 S
H705 C714 0.929 1_556 S
C706 H700 0.930 . S
C706 C707 1.367 . S
C706 C714 1.378 . S
C707 C706 1.367 . S
C707 C715 1.433 . S
C708 H704 0.929 1_556 S
C708 C710 1.378 . S
C708 C712 1.350 . S
C709 C712 1.463 1_554 S
C709 C714 1.350 . S
C709 N717 1.427 . S
C710 H701 0.930 . S
C710 C708 1.378 . S
C710 C711 1.367 . S
C711 C710 1.367 . S
C711 C713 1.433 . S
C712 C708 1.350 . S
C712 C709 1.463 1_556 S
C712 N716 1.427 . S
C713 H703 0.929 . S
C713 C711 1.433 . S
C713 N716 1.384 . S
C714 H705 0.929 1_554 S
C714 C706 1.378 . S
C714 C709 1.350 . S
C715 H702 0.929 . S
C715 C707 1.433 . S
C715 N717 1.384 . S
N716 C712 1.427 . S
N716 C713 1.384 . S
N717 C709 1.427 . S
N717 C715 1.384 . S
H718 C724 0.930 . S
H719 C728 0.930 . S
H720 C733 0.929 . S
H721 C731 0.929 . S
H722 C726 0.929 . S
H723 C732 0.929 . S
C724 H718 0.930 . S
C724 C725 1.367 . S
C724 C732 1.378 . S
C725 C724 1.367 . S
C725 C733 1.433 . S
C726 H722 0.929 . S
C726 C728 1.378 . S
C726 C730 1.350 . S
C727 C730 1.463 . S
C727 C732 1.350 . S
C727 N735 1.427 . S
C728 H719 0.930 . S
C728 C726 1.378 . S
C728 C729 1.367 . S
C729 C728 1.367 . S
C729 C731 1.433 . S
C730 C726 1.350 . S
C730 C727 1.463 . S
C730 N734 1.427 . S
C731 H721 0.929 . S
C731 C729 1.433 . S
C731 N734 1.384 . S
C732 H723 0.929 . S
C732 C724 1.378 . S
C732 C727 1.350 . S
C733 H720 0.929 . S
C733 C725 1.433 . S
C733 N735 1.384 . S
N734 C730 1.427 . S
N734 C731 1.384 . S
N735 C727 1.427 . S
N735 C733 1.384 . S
H736 C742 0.930 . S
H737 C746 0.930 . S
H738 C751 0.929 . S
H739 C749 0.929 . S
H740 C744 0.929 . S
H741 C750 0.929 . S
C742 H736 0.930 . S
C742 C743 1.367 . S
C742 C750 1.378 . S
C743 C742 1.367 . S
C743 C751 1.433 . S
C744 H740 0.929 . S
C744 C746 1.378 . S
C744 C748 1.350 . S
C745 C748 1.463 . S
C745 C750 1.350 . S
C745 N753 1.427 . S
C746 H737 0.930 . S
C746 C744 1.378 . S
C746 C747 1.367 . S
C747 C746 1.367 . S
C747 C749 1.433 . S
C748 C744 1.350 . S
C748 C745 1.463 . S
C748 N752 1.427 . S
C749 H739 0.929 . S
C749 C747 1.433 . S
C749 N752 1.384 . S
C750 H741 0.929 . S
C750 C742 1.378 . S
C750 C745 1.350 . S
C751 H738 0.929 . S
C751 C743 1.433 . S
C751 N753 1.384 . S
N752 C748 1.427 . S
N752 C749 1.384 . S
N753 C745 1.427 . S
N753 C751 1.384 . S
H754 C760 0.930 . S
H755 C764 0.930 . S
H756 C769 0.929 . S
H757 C767 0.929 . S
H758 C762 0.929 . S
H759 C768 0.929 . S
C760 H754 0.930 . S
C760 C761 1.367 1_554 S
C760 C768 1.378 . S
C761 C760 1.367 1_556 S
C761 C769 1.433 . S
C762 H758 0.929 . S
C762 C764 1.378 . S
C762 C766 1.350 . S
C763 C766 1.463 1_455 S
C763 C768 1.350 . S
C763 N771 1.406 1_455 S
C764 H755 0.930 . S
C764 C762 1.378 . S
C764 C765 1.367 . S
C765 C764 1.367 . S
C765 C767 1.433 . S
C766 C762 1.350 . S
C766 C763 1.463 1_655 S
C766 N770 1.433 . S
C767 H757 0.929 . S
C767 C765 1.433 . S
C767 N770 1.393 . S
C768 H759 0.929 . S
C768 C760 1.378 . S
C768 C763 1.350 . S
C769 H756 0.929 . S
C769 C761 1.433 . S
C769 N771 1.347 1_456 S
N770 C766 1.433 . S
N770 C767 1.393 . S
N771 C763 1.406 1_655 S
N771 C769 1.347 1_654 S
H772 C778 0.930 . S
H773 C782 0.930 . S
H774 C787 0.929 . S
H775 C785 0.929 . S
H776 C780 0.929 . S
H777 C786 0.929 . S
C778 H772 0.930 . S
C778 C779 1.367 . S
C778 C786 1.378 . S
C779 C778 1.367 . S
C779 C787 1.433 . S
C780 H776 0.929 . S
C780 C782 1.378 . S
C780 C784 1.350 . S
C781 C784 1.463 . S
C781 C786 1.350 . S
C781 N789 1.427 . S
C782 H773 0.930 . S
C782 C780 1.378 . S
C782 C783 1.367 . S
C783 C782 1.367 . S
C783 C785 1.433 . S
C784 C780 1.350 . S
C784 C781 1.463 . S
C784 N788 1.427 . S
C785 H775 0.929 . S
C785 C783 1.433 . S
C785 N788 1.384 . S
C786 H777 0.929 . S
C786 C778 1.378 . S
C786 C781 1.350 . S
C787 H774 0.929 . S
C787 C779 1.433 . S
C787 N789 1.384 . S
N788 C784 1.427 . S
N788 C785 1.384 . S
N789 C781 1.427 . S
N789 C787 1.384 . S
H790 C796 0.930 . S
H791 C800 0.930 . S
H792 C805 0.929 . S
H793 C803 0.929 . S
H794 C798 0.929 . S
H795 C804 0.929 . S
C796 H790 0.930 . S
C796 C797 1.367 . S
C796 C804 1.378 . S
C797 C796 1.367 . S
C797 C805 1.433 . S
C798 H794 0.929 . S
C798 C800 1.378 . S
C798 C802 1.350 . S
C799 C802 1.463 . S
C799 C804 1.350 . S
C799 N807 1.427 . S
C800 H791 0.930 . S
C800 C798 1.378 . S
C800 C801 1.367 . S
C801 C800 1.367 . S
C801 C803 1.433 . S
C802 C798 1.350 . S
C802 C799 1.463 . S
C802 N806 1.427 . S
C803 H793 0.929 . S
C803 C801 1.433 . S
C803 N806 1.384 . S
C804 H795 0.929 . S
C804 C796 1.378 . S
C804 C799 1.350 . S
C805 H792 0.929 . S
C805 C797 1.433 . S
C805 N807 1.384 . S
N806 C802 1.427 . S
N806 C803 1.384 . S
N807 C799 1.427 . S
N807 C805 1.384 . S
H808 C814 0.930 . S
H809 C818 0.930 . S
H810 C823 0.929 . S
H811 C821 0.929 . S
H812 C816 0.929 . S
H813 C822 0.929 . S
C814 H808 0.930 . S
C814 C815 1.367 . S
C814 C822 1.378 . S
C815 C814 1.367 . S
C815 C823 1.433 . S
C816 H812 0.929 . S
C816 C818 1.378 . S
C816 C820 1.350 . S
C817 C820 1.463 . S
C817 C822 1.350 . S
C817 N825 1.427 . S
C818 H809 0.930 . S
C818 C816 1.378 . S
C818 C819 1.367 . S
C819 C818 1.367 . S
C819 C821 1.433 . S
C820 C816 1.350 . S
C820 C817 1.463 . S
C820 N824 1.427 . S
C821 H811 0.929 . S
C821 C819 1.433 . S
C821 N824 1.384 . S
C822 H813 0.929 . S
C822 C814 1.378 . S
C822 C817 1.350 . S
C823 H810 0.929 . S
C823 C815 1.433 . S
C823 N825 1.384 . S
N824 C820 1.427 . S
N824 C821 1.384 . S
N825 C817 1.427 . S
N825 C823 1.384 . S
H826 C832 0.930 . S
H827 C836 0.930 . S
H828 C841 0.929 . S
H829 C839 0.929 . S
H830 C834 0.929 . S
H831 C840 0.929 . S
C832 H826 0.930 . S
C832 C833 1.367 . S
C832 C840 1.378 1_554 S
C833 C832 1.367 . S
C833 C841 1.433 . S
C834 H830 0.929 . S
C834 C836 1.378 . S
C834 C838 1.350 . S
C835 C838 1.463 . S
C835 C840 1.350 . S
C835 N843 1.427 . S
C836 H827 0.930 . S
C836 C834 1.378 . S
C836 C837 1.367 . S
C837 C836 1.367 . S
C837 C839 1.433 . S
C838 C834 1.350 . S
C838 C835 1.463 . S
C838 N842 1.427 . S
C839 H829 0.929 . S
C839 C837 1.433 . S
C839 N842 1.384 . S
C840 H831 0.929 . S
C840 C832 1.378 1_556 S
C840 C835 1.350 . S
C841 H828 0.929 . S
C841 C833 1.433 . S
C841 N843 1.384 1_554 S
N842 C838 1.427 . S
N842 C839 1.384 . S
N843 C835 1.427 . S
N843 C841 1.384 1_556 S
H844 C850 0.930 . S
H845 C854 0.930 . S
H846 C859 0.929 . S
H847 C857 0.929 . S
H848 C852 0.929 . S
H849 C858 0.929 . S
C850 H844 0.930 . S
C850 C851 1.367 . S
C850 C858 1.378 . S
C851 C850 1.367 . S
C851 C859 1.433 . S
C852 H848 0.929 . S
C852 C854 1.378 . S
C852 C856 1.350 . S
C853 C856 1.463 . S
C853 C858 1.350 . S
C853 N861 1.427 . S
C854 H845 0.930 . S
C854 C852 1.378 . S
C854 C855 1.367 . S
C855 C854 1.367 . S
C855 C857 1.433 . S
C856 C852 1.350 . S
C856 C853 1.463 . S
C856 N860 1.427 . S
C857 H847 0.929 . S
C857 C855 1.433 . S
C857 N860 1.384 . S
C858 H849 0.929 . S
C858 C850 1.378 . S
C858 C853 1.350 . S
C859 H846 0.929 . S
C859 C851 1.433 . S
C859 N861 1.384 . S
N860 C856 1.427 . S
N860 C857 1.384 . S
N861 C853 1.427 . S
N861 C859 1.384 . S
H862 C868 0.930 . S
H863 C872 0.930 . S
H864 C877 0.929 . S
H865 C875 0.929 . S
H866 C870 0.929 . S
H867 C876 0.929 . S
C868 H862 0.930 . S
C868 C869 1.367 . S
C868 C876 1.378 . S
C869 C868 1.367 . S
C869 C877 1.433 . S
C870 H866 0.929 . S
C870 C872 1.378 . S
C870 C874 1.350 . S
C871 C874 1.463 1_455 S
C871 C876 1.350 . S
C871 N879 1.427 . S
C872 H863 0.930 . S
C872 C870 1.378 . S
C872 C873 1.367 . S
C873 C872 1.367 . S
C873 C875 1.433 . S
C874 C870 1.350 . S
C874 C871 1.463 1_655 S
C874 N878 1.427 . S
C875 H865 0.929 . S
C875 C873 1.433 . S
C875 N878 1.384 . S
C876 H867 0.929 . S
C876 C868 1.378 . S
C876 C871 1.350 . S
C877 H864 0.929 . S
C877 C869 1.433 . S
C877 N879 1.384 . S
N878 C874 1.427 . S
N878 C875 1.384 . S
N879 C871 1.427 . S
N879 C877 1.384 . S
H880 C886 0.930 . S
H881 C890 0.930 . S
H882 C895 0.929 . S
H883 C893 0.929 . S
H884 C888 0.929 . S
H885 C894 0.929 . S
C886 H880 0.930 . S
C886 C887 1.367 . S
C886 C894 1.378 . S
C887 C886 1.367 . S
C887 C895 1.433 . S
C888 H884 0.929 . S
C888 C890 1.378 . S
C888 C892 1.350 . S
C889 C892 1.463 . S
C889 C894 1.350 . S
C889 N897 1.427 . S
C890 H881 0.930 . S
C890 C888 1.378 . S
C890 C891 1.367 . S
C891 C890 1.367 . S
C891 C893 1.433 . S
C892 C888 1.350 . S
C892 C889 1.463 . S
C892 N896 1.427 . S
C893 H883 0.929 . S
C893 C891 1.433 . S
C893 N896 1.384 . S
C894 H885 0.929 . S
C894 C886 1.378 . S
C894 C889 1.350 . S
C895 H882 0.929 . S
C895 C887 1.433 . S
C895 N897 1.384 . S
N896 C892 1.427 . S
N896 C893 1.384 . S
N897 C889 1.427 . S
N897 C895 1.384 . S
H898 C904 0.930 . S
H899 C908 0.930 . S
H900 C913 0.929 . S
H901 C911 0.929 . S
H902 C906 0.962 . S
H903 C912 0.918 1_455 S
C904 H898 0.930 . S
C904 C905 1.367 . S
C904 C912 1.378 1_554 S
C905 C904 1.367 . S
C905 C913 1.433 . S
C906 H902 0.962 . S
C906 C908 1.378 . S
C906 C910 1.350 . S
C907 C910 1.463 1_655 S
C907 C912 1.350 . S
C907 N915 1.427 . S
C908 H899 0.930 . S
C908 C906 1.378 . S
C908 C909 1.367 . S
C909 C908 1.367 . S
C909 C911 1.433 . S
C910 C906 1.350 . S
C910 C907 1.463 1_455 S
C910 N914 1.427 . S
C911 H901 0.929 . S
C911 C909 1.433 . S
C911 N914 1.384 . S
C912 H903 0.918 1_655 S
C912 C904 1.378 1_556 S
C912 C907 1.350 . S
C913 H900 0.929 . S
C913 C905 1.433 . S
C913 N915 1.384 1_554 S
N914 C910 1.427 . S
N914 C911 1.384 . S
N915 C907 1.427 . S
N915 C913 1.384 1_556 S
H916 C922 0.930 . S
H917 C926 0.930 . S
H918 C931 0.929 . S
H919 C929 0.929 . S
H920 C924 0.929 . S
H921 C930 0.929 . S
C922 H916 0.930 . S
C922 C923 1.367 . S
C922 C930 1.378 . S
C923 C922 1.367 . S
C923 C931 1.433 . S
C924 H920 0.929 . S
C924 C926 1.378 . S
C924 C928 1.350 . S
C925 C928 1.463 . S
C925 C930 1.350 . S
C925 N933 1.427 . S
C926 H917 0.930 . S
C926 C924 1.378 . S
C926 C927 1.367 . S
C927 C926 1.367 . S
C927 C929 1.433 . S
C928 C924 1.350 . S
C928 C925 1.463 . S
C928 N932 1.427 . S
C929 H919 0.929 . S
C929 C927 1.433 . S
C929 N932 1.384 . S
C930 H921 0.929 . S
C930 C922 1.378 . S
C930 C925 1.350 . S
C931 H918 0.929 . S
C931 C923 1.433 . S
C931 N933 1.384 . S
N932 C928 1.427 . S
N932 C929 1.384 . S
N933 C925 1.427 . S
N933 C931 1.384 . S
H934 C940 0.930 . S
H935 C944 0.930 . S
H936 C949 0.929 . S
H937 C947 0.929 . S
H938 C942 0.929 . S
H939 C948 0.929 . S
C940 H934 0.930 . S
C940 C941 1.367 . S
C940 C948 1.378 . S
C941 C940 1.367 . S
C941 C949 1.433 . S
C942 H938 0.929 . S
C942 C944 1.378 . S
C942 C946 1.350 . S
C943 C946 1.463 . S
C943 C948 1.350 . S
C943 N951 1.427 . S
C944 H935 0.930 . S
C944 C942 1.378 . S
C944 C945 1.367 . S
C945 C944 1.367 . S
C945 C947 1.433 . S
C946 C942 1.350 . S
C946 C943 1.463 . S
C946 N950 1.427 . S
C947 H937 0.929 . S
C947 C945 1.433 . S
C947 N950 1.384 . S
C948 H939 0.929 . S
C948 C940 1.378 . S
C948 C943 1.350 . S
C949 H936 0.929 . S
C949 C941 1.433 . S
C949 N951 1.384 . S
N950 C946 1.427 . S
N950 C947 1.384 . S
N951 C943 1.427 . S
N951 C949 1.384 . S
H952 C958 0.930 . S
H953 C962 0.930 . S
H954 C967 0.929 . S
H955 C965 0.929 . S
H956 C960 0.929 . S
H957 C966 0.929 . S
C958 H952 0.930 . S
C958 C959 1.367 . S
C958 C966 1.378 . S
C959 C958 1.367 . S
C959 C967 1.433 . S
C960 H956 0.929 . S
C960 C962 1.378 . S
C960 C964 1.350 . S
C961 C964 1.463 . S
C961 C966 1.350 . S
C961 N969 1.427 . S
C962 H953 0.930 . S
C962 C960 1.378 . S
C962 C963 1.367 . S
C963 C962 1.367 . S
C963 C965 1.433 . S
C964 C960 1.350 . S
C964 C961 1.463 . S
C964 N968 1.427 . S
C965 H955 0.929 . S
C965 C963 1.433 . S
C965 N968 1.384 . S
C966 H957 0.929 . S
C966 C958 1.378 . S
C966 C961 1.350 . S
C967 H954 0.929 . S
C967 C959 1.433 . S
C967 N969 1.384 . S
N968 C964 1.427 . S
N968 C965 1.384 . S
N969 C961 1.427 . S
N969 C967 1.384 . S
H970 C976 0.930 . S
H971 C980 0.930 . S
H972 C985 0.929 . S
H973 C983 0.929 . S
H974 C978 0.929 . S
H975 C984 0.929 . S
C976 H970 0.930 . S
C976 C977 1.367 . S
C976 C984 1.378 . S
C977 C976 1.367 . S
C977 C985 1.433 . S
C978 H974 0.929 . S
C978 C980 1.378 1_554 S
C978 C982 1.350 . S
C979 C982 1.463 . S
C979 C984 1.350 . S
C979 N987 1.427 . S
C980 H971 0.930 . S
C980 C978 1.378 1_556 S
C980 C981 1.367 . S
C981 C980 1.367 . S
C981 C983 1.433 . S
C982 C978 1.350 . S
C982 C979 1.463 . S
C982 N986 1.427 . S
C983 H973 0.929 . S
C983 C981 1.433 . S
C983 N986 1.384 1_556 S
C984 H975 0.929 . S
C984 C976 1.378 . S
C984 C979 1.350 . S
C985 H972 0.929 . S
C985 C977 1.433 . S
C985 N987 1.384 . S
N986 C982 1.427 . S
N986 C983 1.384 1_554 S
N987 C979 1.427 . S
N987 C985 1.384 . S
H988 C994 0.930 . S
H989 C998 0.930 . S
H990 C1003 0.929 . S
H991 C1001 0.929 . S
H992 C996 0.929 . S
H993 C1002 0.929 . S
C994 H988 0.930 . S
C994 C995 1.367 . S
C994 C1002 1.378 . S
C995 C994 1.367 . S
C995 C1003 1.433 . S
C996 H992 0.929 . S
C996 C998 1.378 . S
C996 C1000 1.350 . S
C997 C1000 1.463 . S
C997 C1002 1.350 . S
C997 N1005 1.427 . S
C998 H989 0.930 . S
C998 C996 1.378 . S
C998 C999 1.367 . S
C999 C998 1.367 . S
C999 C1001 1.433 . S
C1000 C996 1.350 . S
C1000 C997 1.463 . S
C1000 N1004 1.427 . S
C1001 H991 0.929 . S
C1001 C999 1.433 . S
C1001 N1004 1.384 . S
C1002 H993 0.929 . S
C1002 C994 1.378 . S
C1002 C997 1.350 . S
C1003 H990 0.929 . S
C1003 C995 1.433 . S
C1003 N1005 1.384 . S
N1004 C1000 1.427 . S
N1004 C1001 1.384 . S
N1005 C997 1.427 . S
N1005 C1003 1.384 . S
H1006 C1012 0.930 . S
H1007 C1016 0.930 . S
H1008 C1021 0.929 . S
H1009 C1019 0.929 . S
H1010 C1014 0.929 . S
H1011 C1020 0.929 . S
C1012 H1006 0.930 . S
C1012 C1013 1.367 . S
C1012 C1020 1.378 . S
C1013 C1012 1.367 . S
C1013 C1021 1.433 . S
C1014 H1010 0.929 . S
C1014 C1016 1.378 . S
C1014 C1018 1.350 . S
C1015 C1018 1.463 1_655 S
C1015 C1020 1.350 . S
C1015 N1023 1.427 . S
C1016 H1007 0.930 . S
C1016 C1014 1.378 . S
C1016 C1017 1.367 . S
C1017 C1016 1.367 . S
C1017 C1019 1.433 . S
C1018 C1014 1.350 . S
C1018 C1015 1.463 1_455 S
C1018 N1022 1.427 . S
C1019 H1009 0.929 . S
C1019 C1017 1.433 . S
C1019 N1022 1.384 . S
C1020 H1011 0.929 . S
C1020 C1012 1.378 . S
C1020 C1015 1.350 . S
C1021 H1008 0.929 . S
C1021 C1013 1.433 . S
C1021 N1023 1.384 . S
N1022 C1018 1.427 . S
N1022 C1019 1.384 . S
N1023 C1015 1.427 . S
N1023 C1021 1.384 . S
H1024 C1030 0.930 . S
H1025 C1034 0.930 . S
H1026 C1039 0.929 . S
H1027 C1037 0.929 . S
H1028 C1032 0.929 . S
H1029 C1038 0.929 . S
C1030 H1024 0.930 . S
C1030 C1031 1.367 . S
C1030 C1038 1.378 . S
C1031 C1030 1.367 . S
C1031 C1039 1.433 . S
C1032 H1028 0.929 . S
C1032 C1034 1.378 . S
C1032 C1036 1.350 . S
C1033 C1036 1.463 . S
C1033 C1038 1.350 . S
C1033 N1041 1.427 . S
C1034 H1025 0.930 . S
C1034 C1032 1.378 . S
C1034 C1035 1.367 . S
C1035 C1034 1.367 . S
C1035 C1037 1.433 . S
C1036 C1032 1.350 . S
C1036 C1033 1.463 . S
C1036 N1040 1.427 . S
C1037 H1027 0.929 . S
C1037 C1035 1.433 . S
C1037 N1040 1.384 . S
C1038 H1029 0.929 . S
C1038 C1030 1.378 . S
C1038 C1033 1.350 . S
C1039 H1026 0.929 . S
C1039 C1031 1.433 . S
C1039 N1041 1.384 . S
N1040 C1036 1.427 . S
N1040 C1037 1.384 . S
N1041 C1033 1.427 . S
N1041 C1039 1.384 . S
H1042 C1048 0.930 . S
H1043 C1052 0.930 . S
H1044 C1057 0.929 . S
H1045 C1055 0.929 . S
H1046 C1050 0.929 . S
H1047 C1056 0.929 . S
C1048 H1042 0.930 . S
C1048 C1049 1.367 . S
C1048 C1056 1.378 . S
C1049 C1048 1.367 . S
C1049 C1057 1.433 . S
C1050 H1046 0.929 . S
C1050 C1052 1.378 . S
C1050 C1054 1.350 . S
C1051 C1054 1.463 . S
C1051 C1056 1.350 . S
C1051 N1059 1.427 . S
C1052 H1043 0.930 . S
C1052 C1050 1.378 . S
C1052 C1053 1.367 . S
C1053 C1052 1.367 . S
C1053 C1055 1.433 . S
C1054 C1050 1.350 . S
C1054 C1051 1.463 . S
C1054 N1058 1.427 . S
C1055 H1045 0.929 . S
C1055 C1053 1.433 . S
C1055 N1058 1.384 . S
C1056 H1047 0.929 . S
C1056 C1048 1.378 . S
C1056 C1051 1.350 . S
C1057 H1044 0.929 . S
C1057 C1049 1.433 . S
C1057 N1059 1.384 . S
N1058 C1054 1.427 . S
N1058 C1055 1.384 . S
N1059 C1051 1.427 . S
N1059 C1057 1.384 . S
H1060 C1066 0.930 . S
H1061 C1070 0.930 . S
H1062 C1075 0.929 . S
H1063 C1073 0.929 . S
H1064 C1068 0.929 . S
H1065 C1074 0.929 . S
C1066 H1060 0.930 . S
C1066 C1067 1.367 . S
C1066 C1074 1.378 . S
C1067 C1066 1.367 . S
C1067 C1075 1.433 . S
C1068 H1064 0.929 . S
C1068 C1070 1.378 . S
C1068 C1072 1.350 . S
C1069 C1072 1.463 . S
C1069 C1074 1.350 . S
C1069 N1077 1.427 . S
C1070 H1061 0.930 . S
C1070 C1068 1.378 . S
C1070 C1071 1.367 . S
C1071 C1070 1.367 . S
C1071 C1073 1.433 . S
C1072 C1068 1.350 . S
C1072 C1069 1.463 . S
C1072 N1076 1.427 . S
C1073 H1063 0.929 . S
C1073 C1071 1.433 . S
C1073 N1076 1.384 . S
C1074 H1065 0.929 . S
C1074 C1066 1.378 . S
C1074 C1069 1.350 . S
C1075 H1062 0.929 . S
C1075 C1067 1.433 . S
C1075 N1077 1.384 . S
N1076 C1072 1.427 . S
N1076 C1073 1.384 . S
N1077 C1069 1.427 . S
N1077 C1075 1.384 . S
H1078 C1084 0.930 . S
H1079 C1088 0.930 . S
H1080 C1093 0.929 . S
H1081 C1091 0.929 . S
H1082 C1086 0.929 . S
H1083 C1092 0.929 . S
C1084 H1078 0.930 . S
C1084 C1085 1.367 . S
C1084 C1092 1.378 . S
C1085 C1084 1.367 . S
C1085 C1093 1.433 . S
C1086 H1082 0.929 . S
C1086 C1088 1.378 . S
C1086 C1090 1.350 . S
C1087 C1090 1.463 1_455 S
C1087 C1092 1.350 . S
C1087 N1095 1.427 . S
C1088 H1079 0.930 . S
C1088 C1086 1.378 . S
C1088 C1089 1.367 1_554 S
C1089 C1088 1.367 1_556 S
C1089 C1091 1.433 . S
C1090 C1086 1.350 . S
C1090 C1087 1.463 1_655 S
C1090 N1094 1.426 1_655 S
C1091 H1081 0.929 . S
C1091 C1089 1.433 . S
C1091 N1094 1.381 1_656 S
C1092 H1083 0.929 . S
C1092 C1084 1.378 . S
C1092 C1087 1.350 . S
C1093 H1080 0.929 . S
C1093 C1085 1.433 . S
C1093 N1095 1.384 . S
N1094 C1090 1.426 1_455 S
N1094 C1091 1.381 1_454 S
N1095 C1087 1.427 . S
N1095 C1093 1.384 . S
H1096 C1102 0.930 . S
H1097 C1106 0.930 . S
H1098 C1111 0.929 . S
H1099 C1109 0.929 . S
H1100 C1104 0.929 . S
H1101 C1110 0.929 . S
C1102 H1096 0.930 . S
C1102 C1103 1.367 . S
C1102 C1110 1.378 . S
C1103 C1102 1.367 . S
C1103 C1111 1.433 . S
C1104 H1100 0.929 . S
C1104 C1106 1.378 . S
C1104 C1108 1.350 . S
C1105 C1108 1.463 . S
C1105 C1110 1.350 . S
C1105 N1113 1.427 . S
C1106 H1097 0.930 . S
C1106 C1104 1.378 . S
C1106 C1107 1.367 . S
C1107 C1106 1.367 . S
C1107 C1109 1.433 . S
C1108 C1104 1.350 . S
C1108 C1105 1.463 . S
C1108 N1112 1.427 . S
C1109 H1099 0.929 . S
C1109 C1107 1.433 . S
C1109 N1112 1.384 . S
C1110 H1101 0.929 . S
C1110 C1102 1.378 . S
C1110 C1105 1.350 . S
C1111 H1098 0.929 . S
C1111 C1103 1.433 . S
C1111 N1113 1.384 . S
N1112 C1108 1.427 . S
N1112 C1109 1.384 . S
N1113 C1105 1.427 . S
N1113 C1111 1.384 . S
H1114 C1120 0.930 . S
H1115 C1124 0.930 . S
H1116 C1129 0.929 . S
H1117 C1127 0.929 . S
H1118 C1122 0.929 . S
H1119 C1128 0.929 . S
C1120 H1114 0.930 . S
C1120 C1121 1.367 . S
C1120 C1128 1.378 . S
C1121 C1120 1.367 . S
C1121 C1129 1.433 . S
C1122 H1118 0.929 . S
C1122 C1124 1.378 . S
C1122 C1126 1.350 . S
C1123 C1126 1.463 1_655 S
C1123 C1128 1.350 . S
C1123 N1131 1.441 . S
C1124 H1115 0.930 . S
C1124 C1122 1.378 . S
C1124 C1125 1.367 . S
C1125 C1124 1.367 . S
C1125 C1127 1.433 . S
C1126 C1122 1.350 . S
C1126 C1123 1.463 1_455 S
C1126 N1130 1.427 . S
C1127 H1117 0.929 . S
C1127 C1125 1.433 . S
C1127 N1130 1.384 . S
C1128 H1119 0.929 . S
C1128 C1120 1.378 . S
C1128 C1123 1.350 . S
C1129 H1116 0.929 . S
C1129 C1121 1.433 . S
C1129 N1131 1.417 . S
N1130 C1126 1.427 . S
N1130 C1127 1.384 . S
N1131 C1123 1.441 . S
N1131 C1129 1.417 . S
H1132 C1138 0.930 . S
H1133 C1142 0.930 . S
H1134 C1147 0.929 . S
H1135 C1145 0.929 . S
H1136 C1140 0.929 . S
H1137 C1146 0.929 . S
C1138 H1132 0.930 . S
C1138 C1139 1.367 . S
C1138 C1146 1.378 . S
C1139 C1138 1.367 . S
C1139 C1147 1.433 . S
C1140 H1136 0.929 . S
C1140 C1142 1.378 . S
C1140 C1144 1.350 . S
C1141 C1144 1.463 . S
C1141 C1146 1.350 . S
C1141 N1149 1.427 . S
C1142 H1133 0.930 . S
C1142 C1140 1.378 . S
C1142 C1143 1.367 . S
C1143 C1142 1.367 . S
C1143 C1145 1.433 . S
C1144 C1140 1.350 . S
C1144 C1141 1.463 . S
C1144 N1148 1.427 . S
C1145 H1135 0.929 . S
C1145 C1143 1.433 . S
C1145 N1148 1.384 . S
C1146 H1137 0.929 . S
C1146 C1138 1.378 . S
C1146 C1141 1.350 . S
C1147 H1134 0.929 . S
C1147 C1139 1.433 . S
C1147 N1149 1.384 . S
N1148 C1144 1.427 . S
N1148 C1145 1.384 . S
N1149 C1141 1.427 . S
N1149 C1147 1.384 . S
H1150 C1156 0.929 1_554 S
H1151 C1160 0.930 . S
H1152 C1165 0.929 . S
H1153 C1163 0.929 . S
H1154 C1158 0.929 . S
H1155 C1164 0.929 . S
C1156 H1150 0.929 1_556 S
C1156 C1157 1.367 1_556 S
C1156 C1164 1.378 . S
C1157 C1156 1.367 1_554 S
C1157 C1165 1.433 . S
C1158 H1154 0.929 . S
C1158 C1160 1.378 . S
C1158 C1162 1.350 . S
C1159 C1162 1.463 . S
C1159 C1164 1.350 . S
C1159 N1167 1.427 . S
C1160 H1151 0.930 . S
C1160 C1158 1.378 . S
C1160 C1161 1.367 . S
C1161 C1160 1.367 . S
C1161 C1163 1.433 . S
C1162 C1158 1.350 . S
C1162 C1159 1.463 . S
C1162 N1166 1.427 . S
C1163 H1153 0.929 . S
C1163 C1161 1.433 . S
C1163 N1166 1.384 . S
C1164 H1155 0.929 . S
C1164 C1156 1.378 . S
C1164 C1159 1.350 . S
C1165 H1152 0.929 . S
C1165 C1157 1.433 . S
C1165 N1167 1.384 1_554 S
N1166 C1162 1.427 . S
N1166 C1163 1.384 . S
N1167 C1159 1.427 . S
N1167 C1165 1.384 1_556 S
H1168 C1174 0.930 . S
H1169 C1178 0.930 . S
H1170 C1183 0.929 . S
H1171 C1181 0.929 . S
H1172 C1176 0.929 . S
H1173 C1182 0.929 . S
C1174 H1168 0.930 . S
C1174 C1175 1.367 . S
C1174 C1182 1.378 . S
C1175 C1174 1.367 . S
C1175 C1183 1.433 . S
C1176 H1172 0.929 . S
C1176 C1178 1.378 . S
C1176 C1180 1.350 . S
C1177 C1180 1.463 . S
C1177 C1182 1.350 . S
C1177 N1185 1.427 . S
C1178 H1169 0.930 . S
C1178 C1176 1.378 . S
C1178 C1179 1.367 . S
C1179 C1178 1.367 . S
C1179 C1181 1.433 . S
C1180 C1176 1.350 . S
C1180 C1177 1.463 . S
C1180 N1184 1.427 . S
C1181 H1171 0.929 . S
C1181 C1179 1.433 . S
C1181 N1184 1.384 . S
C1182 H1173 0.929 . S
C1182 C1174 1.378 . S
C1182 C1177 1.350 . S
C1183 H1170 0.929 . S
C1183 C1175 1.433 . S
C1183 N1185 1.384 . S
N1184 C1180 1.427 . S
N1184 C1181 1.384 . S
N1185 C1177 1.427 . S
N1185 C1183 1.384 . S
H1186 C1192 0.930 . S
H1187 C1196 0.930 . S
H1188 C1201 0.929 . S
H1189 C1199 0.929 . S
H1190 C1194 0.929 . S
H1191 C1200 0.929 . S
C1192 H1186 0.930 . S
C1192 C1193 1.367 . S
C1192 C1200 1.378 . S
C1193 C1192 1.367 . S
C1193 C1201 1.433 . S
C1194 H1190 0.929 . S
C1194 C1196 1.378 . S
C1194 C1198 1.350 . S
C1195 C1198 1.463 . S
C1195 C1200 1.350 . S
C1195 N1203 1.427 . S
C1196 H1187 0.930 . S
C1196 C1194 1.378 . S
C1196 C1197 1.367 . S
C1197 C1196 1.367 . S
C1197 C1199 1.433 . S
C1198 C1194 1.350 . S
C1198 C1195 1.463 . S
C1198 N1202 1.427 . S
C1199 H1189 0.929 . S
C1199 C1197 1.433 . S
C1199 N1202 1.384 . S
C1200 H1191 0.929 . S
C1200 C1192 1.378 . S
C1200 C1195 1.350 . S
C1201 H1188 0.929 . S
C1201 C1193 1.433 . S
C1201 N1203 1.384 . S
N1202 C1198 1.427 . S
N1202 C1199 1.384 . S
N1203 C1195 1.427 . S
N1203 C1201 1.384 . S
H1204 C1210 0.930 . S
H1205 C1214 0.930 . S
H1206 C1219 0.929 . S
H1207 C1217 0.929 . S
H1208 C1212 0.929 . S
H1209 C1218 0.929 . S
C1210 H1204 0.930 . S
C1210 C1211 1.367 . S
C1210 C1218 1.378 . S
C1211 C1210 1.367 . S
C1211 C1219 1.433 . S
C1212 H1208 0.929 . S
C1212 C1214 1.378 . S
C1212 C1216 1.350 . S
C1213 C1216 1.463 . S
C1213 C1218 1.350 . S
C1213 N1221 1.427 . S
C1214 H1205 0.930 . S
C1214 C1212 1.378 . S
C1214 C1215 1.367 . S
C1215 C1214 1.367 . S
C1215 C1217 1.433 . S
C1216 C1212 1.350 . S
C1216 C1213 1.463 . S
C1216 N1220 1.427 . S
C1217 H1207 0.929 . S
C1217 C1215 1.433 . S
C1217 N1220 1.384 . S
C1218 H1209 0.929 . S
C1218 C1210 1.378 . S
C1218 C1213 1.350 . S
C1219 H1206 0.929 . S
C1219 C1211 1.433 . S
C1219 N1221 1.384 . S
N1220 C1216 1.427 . S
N1220 C1217 1.384 . S
N1221 C1213 1.427 . S
N1221 C1219 1.384 . S
H1222 C1228 0.930 . S
H1223 C1232 0.930 . S
H1224 C1237 0.929 . S
H1225 C1235 0.929 . S
H1226 C1230 0.929 1_655 S
H1227 C1236 0.929 1_455 S
C1228 H1222 0.930 . S
C1228 C1229 1.367 . S
C1228 C1236 1.378 . S
C1229 C1228 1.367 . S
C1229 C1237 1.433 . S
C1230 H1226 0.929 1_455 S
C1230 C1232 1.378 1_556 S
C1230 C1234 1.350 . S
C1231 C1234 1.463 1_655 S
C1231 C1236 1.350 . S
C1231 N1239 1.427 . S
C1232 H1223 0.930 . S
C1232 C1230 1.378 1_554 S
C1232 C1233 1.367 . S
C1233 C1232 1.367 . S
C1233 C1235 1.433 . S
C1234 C1230 1.350 . S
C1234 C1231 1.463 1_455 S
C1234 N1238 1.427 . S
C1235 H1225 0.929 . S
C1235 C1233 1.433 . S
C1235 N1238 1.384 1_554 S
C1236 H1227 0.929 1_655 S
C1236 C1228 1.378 . S
C1236 C1231 1.350 . S
C1237 H1224 0.929 . S
C1237 C1229 1.433 . S
C1237 N1239 1.384 . S
N1238 C1234 1.427 . S
N1238 C1235 1.384 1_556 S
N1239 C1231 1.427 . S
N1239 C1237 1.384 . S
H1240 C1246 0.930 . S
H1241 C1250 0.930 . S
H1242 C1255 0.929 . S
H1243 C1253 0.929 . S
H1244 C1248 0.929 . S
H1245 C1254 0.929 . S
C1246 H1240 0.930 . S
C1246 C1247 1.367 . S
C1246 C1254 1.378 . S
C1247 C1246 1.367 . S
C1247 C1255 1.433 . S
C1248 H1244 0.929 . S
C1248 C1250 1.378 . S
C1248 C1252 1.350 . S
C1249 C1252 1.463 . S
C1249 C1254 1.350 . S
C1249 N1257 1.427 . S
C1250 H1241 0.930 . S
C1250 C1248 1.378 . S
C1250 C1251 1.367 . S
C1251 C1250 1.367 . S
C1251 C1253 1.433 . S
C1252 C1248 1.350 . S
C1252 C1249 1.463 . S
C1252 N1256 1.427 . S
C1253 H1243 0.929 . S
C1253 C1251 1.433 . S
C1253 N1256 1.384 . S
C1254 H1245 0.929 . S
C1254 C1246 1.378 . S
C1254 C1249 1.350 . S
C1255 H1242 0.929 . S
C1255 C1247 1.433 . S
C1255 N1257 1.384 . S
N1256 C1252 1.427 . S
N1256 C1253 1.384 . S
N1257 C1249 1.427 . S
N1257 C1255 1.384 . S
H1258 C1264 0.930 . S
H1259 C1268 0.930 . S
H1260 C1273 0.929 . S
H1261 C1271 0.929 . S
H1262 C1266 0.897 1_655 S
H1263 C1272 0.940 . S
C1264 H1258 0.930 . S
C1264 C1265 1.367 . S
C1264 C1272 1.378 . S
C1265 C1264 1.367 . S
C1265 C1273 1.433 . S
C1266 H1262 0.897 1_455 S
C1266 C1268 1.378 . S
C1266 C1270 1.350 . S
C1267 C1270 1.463 1_655 S
C1267 C1272 1.350 . S
C1267 N1275 1.427 . S
C1268 H1259 0.930 . S
C1268 C1266 1.378 . S
C1268 C1269 1.367 . S
C1269 C1268 1.367 . S
C1269 C1271 1.433 . S
C1270 C1266 1.350 . S
C1270 C1267 1.463 1_455 S
C1270 N1274 1.427 . S
C1271 H1261 0.929 . S
C1271 C1269 1.433 . S
C1271 N1274 1.384 . S
C1272 H1263 0.940 . S
C1272 C1264 1.378 . S
C1272 C1267 1.350 . S
C1273 H1260 0.929 . S
C1273 C1265 1.433 . S
C1273 N1275 1.384 . S
N1274 C1270 1.427 . S
N1274 C1271 1.384 . S
N1275 C1267 1.427 . S
N1275 C1273 1.384 . S
H1276 C1282 0.930 . S
H1277 C1286 0.930 . S
H1278 C1291 0.929 . S
H1279 C1289 0.929 . S
H1280 C1284 0.929 . S
H1281 C1290 0.929 . S
C1282 H1276 0.930 . S
C1282 C1283 1.367 . S
C1282 C1290 1.378 . S
C1283 C1282 1.367 . S
C1283 C1291 1.433 . S
C1284 H1280 0.929 . S
C1284 C1286 1.378 . S
C1284 C1288 1.350 . S
C1285 C1288 1.463 . S
C1285 C1290 1.350 . S
C1285 N1293 1.427 . S
C1286 H1277 0.930 . S
C1286 C1284 1.378 . S
C1286 C1287 1.367 . S
C1287 C1286 1.367 . S
C1287 C1289 1.433 . S
C1288 C1284 1.350 . S
C1288 C1285 1.463 . S
C1288 N1292 1.427 . S
C1289 H1279 0.929 . S
C1289 C1287 1.433 . S
C1289 N1292 1.384 . S
C1290 H1281 0.929 . S
C1290 C1282 1.378 . S
C1290 C1285 1.350 . S
C1291 H1278 0.929 . S
C1291 C1283 1.433 . S
C1291 N1293 1.384 . S
N1292 C1288 1.427 . S
N1292 C1289 1.384 . S
N1293 C1285 1.427 . S
N1293 C1291 1.384 . S
H1294 C1300 0.930 . S
H1295 C1304 0.930 . S
H1296 C1309 0.929 . S
H1297 C1307 0.929 . S
H1298 C1302 0.928 1_556 S
H1299 C1308 0.929 . S
C1300 H1294 0.930 . S
C1300 C1301 1.367 . S
C1300 C1308 1.378 . S
C1301 C1300 1.367 . S
C1301 C1309 1.433 . S
C1302 H1298 0.928 1_554 S
C1302 C1304 1.364 1_554 S
C1302 C1306 1.365 . S
C1303 C1306 1.463 . S
C1303 C1308 1.350 . S
C1303 N1311 1.427 . S
C1304 H1295 0.930 . S
C1304 C1302 1.364 1_556 S
C1304 C1305 1.367 . S
C1305 C1304 1.367 . S
C1305 C1307 1.433 1_556 S
C1306 C1302 1.365 . S
C1306 C1303 1.463 . S
C1306 N1310 1.427 . S
C1307 H1297 0.929 . S
C1307 C1305 1.433 1_554 S
C1307 N1310 1.384 . S
C1308 H1299 0.929 . S
C1308 C1300 1.378 . S
C1308 C1303 1.350 . S
C1309 H1296 0.929 . S
C1309 C1301 1.433 . S
C1309 N1311 1.384 . S
N1310 C1306 1.427 . S
N1310 C1307 1.384 . S
N1311 C1303 1.427 . S
N1311 C1309 1.384 . S
H1312 C1318 0.930 . S
H1313 C1322 0.930 . S
H1314 C1327 0.929 . S
H1315 C1325 0.929 . S
H1316 C1320 0.929 . S
H1317 C1326 0.929 . S
C1318 H1312 0.930 . S
C1318 C1319 1.367 . S
C1318 C1326 1.378 . S
C1319 C1318 1.367 . S
C1319 C1327 1.433 . S
C1320 H1316 0.929 . S
C1320 C1322 1.378 . S
C1320 C1324 1.350 . S
C1321 C1324 1.463 . S
C1321 C1326 1.350 . S
C1321 N1329 1.427 . S
C1322 H1313 0.930 . S
C1322 C1320 1.378 . S
C1322 C1323 1.367 . S
C1323 C1322 1.367 . S
C1323 C1325 1.433 . S
C1324 C1320 1.350 . S
C1324 C1321 1.463 . S
C1324 N1328 1.427 . S
C1325 H1315 0.929 . S
C1325 C1323 1.433 . S
C1325 N1328 1.384 . S
C1326 H1317 0.929 . S
C1326 C1318 1.378 . S
C1326 C1321 1.350 . S
C1327 H1314 0.929 . S
C1327 C1319 1.433 . S
C1327 N1329 1.384 . S
N1328 C1324 1.427 . S
N1328 C1325 1.384 . S
N1329 C1321 1.427 . S
N1329 C1327 1.384 . S
H1330 C1336 0.930 . S
H1331 C1340 0.930 . S
H1332 C1345 0.929 . S
H1333 C1343 0.929 . S
H1334 C1338 0.929 . S
H1335 C1344 0.929 . S
C1336 H1330 0.930 . S
C1336 C1337 1.367 . S
C1336 C1344 1.378 . S
C1337 C1336 1.367 . S
C1337 C1345 1.433 . S
C1338 H1334 0.929 . S
C1338 C1340 1.378 . S
C1338 C1342 1.350 . S
C1339 C1342 1.463 . S
C1339 C1344 1.350 . S
C1339 N1347 1.427 . S
C1340 H1331 0.930 . S
C1340 C1338 1.378 . S
C1340 C1341 1.367 . S
C1341 C1340 1.367 . S
C1341 C1343 1.433 . S
C1342 C1338 1.350 . S
C1342 C1339 1.463 . S
C1342 N1346 1.427 . S
C1343 H1333 0.929 . S
C1343 C1341 1.433 . S
C1343 N1346 1.384 . S
C1344 H1335 0.929 . S
C1344 C1336 1.378 . S
C1344 C1339 1.350 . S
C1345 H1332 0.929 . S
C1345 C1337 1.433 . S
C1345 N1347 1.384 . S
N1346 C1342 1.427 . S
N1346 C1343 1.384 . S
N1347 C1339 1.427 . S
N1347 C1345 1.384 . S
H1348 C1354 0.930 . S
H1349 C1358 0.930 . S
H1350 C1363 0.929 . S
H1351 C1361 0.929 . S
H1352 C1356 0.929 . S
H1353 C1362 0.929 . S
C1354 H1348 0.930 . S
C1354 C1355 1.367 . S
C1354 C1362 1.378 . S
C1355 C1354 1.367 . S
C1355 C1363 1.433 . S
C1356 H1352 0.929 . S
C1356 C1358 1.378 . S
C1356 C1360 1.350 . S
C1357 C1360 1.463 . S
C1357 C1362 1.350 . S
C1357 N1365 1.427 . S
C1358 H1349 0.930 . S
C1358 C1356 1.378 . S
C1358 C1359 1.367 . S
C1359 C1358 1.367 . S
C1359 C1361 1.433 . S
C1360 C1356 1.350 . S
C1360 C1357 1.463 . S
C1360 N1364 1.427 . S
C1361 H1351 0.929 . S
C1361 C1359 1.433 . S
C1361 N1364 1.384 . S
C1362 H1353 0.929 . S
C1362 C1354 1.378 . S
C1362 C1357 1.350 . S
C1363 H1350 0.929 . S
C1363 C1355 1.433 . S
C1363 N1365 1.384 . S
N1364 C1360 1.427 . S
N1364 C1361 1.384 . S
N1365 C1357 1.427 . S
N1365 C1363 1.384 . S
H1366 C1372 0.930 . S
H1367 C1376 0.930 . S
H1368 C1381 0.929 . S
H1369 C1379 0.929 . S
H1370 C1374 0.929 . S
H1371 C1380 0.929 . S
C1372 H1366 0.930 . S
C1372 C1373 1.367 . S
C1372 C1380 1.378 . S
C1373 C1372 1.367 . S
C1373 C1381 1.433 . S
C1374 H1370 0.929 . S
C1374 C1376 1.378 . S
C1374 C1378 1.350 . S
C1375 C1378 1.463 . S
C1375 C1380 1.350 . S
C1375 N1383 1.427 . S
C1376 H1367 0.930 . S
C1376 C1374 1.378 . S
C1376 C1377 1.367 . S
C1377 C1376 1.367 . S
C1377 C1379 1.433 . S
C1378 C1374 1.350 . S
C1378 C1375 1.463 . S
C1378 N1382 1.427 . S
C1379 H1369 0.929 . S
C1379 C1377 1.433 . S
C1379 N1382 1.384 . S
C1380 H1371 0.929 . S
C1380 C1372 1.378 . S
C1380 C1375 1.350 . S
C1381 H1368 0.929 . S
C1381 C1373 1.433 . S
C1381 N1383 1.384 . S
N1382 C1378 1.427 . S
N1382 C1379 1.384 . S
N1383 C1375 1.427 . S
N1383 C1381 1.384 . S
H1384 C1390 0.930 . S
H1385 C1394 0.930 . S
H1386 C1399 0.929 . S
H1387 C1397 0.929 . S
H1388 C1392 0.929 . S
H1389 C1398 0.929 . S
C1390 H1384 0.930 . S
C1390 C1391 1.367 . S
C1390 C1398 1.378 . S
C1391 C1390 1.367 . S
C1391 C1399 1.433 . S
C1392 H1388 0.929 . S
C1392 C1394 1.378 . S
C1392 C1396 1.350 . S
C1393 C1396 1.463 . S
C1393 C1398 1.350 . S
C1393 N1401 1.427 . S
C1394 H1385 0.930 . S
C1394 C1392 1.378 . S
C1394 C1395 1.367 . S
C1395 C1394 1.367 . S
C1395 C1397 1.433 . S
C1396 C1392 1.350 . S
C1396 C1393 1.463 . S
C1396 N1400 1.427 . S
C1397 H1387 0.929 . S
C1397 C1395 1.433 . S
C1397 N1400 1.384 . S
C1398 H1389 0.929 . S
C1398 C1390 1.378 . S
C1398 C1393 1.350 . S
C1399 H1386 0.929 . S
C1399 C1391 1.433 . S
C1399 N1401 1.384 . S
N1400 C1396 1.427 . S
N1400 C1397 1.384 . S
N1401 C1393 1.427 . S
N1401 C1399 1.384 . S
H1402 C1408 0.930 . S
H1403 C1412 0.930 . S
H1404 C1417 0.929 . S
H1405 C1415 0.929 . S
H1406 C1410 0.929 . S
H1407 C1416 0.929 . S
C1408 H1402 0.930 . S
C1408 C1409 1.367 . S
C1408 C1416 1.378 . S
C1409 C1408 1.367 . S
C1409 C1417 1.433 . S
C1410 H1406 0.929 . S
C1410 C1412 1.378 . S
C1410 C1414 1.350 . S
C1411 C1414 1.463 . S
C1411 C1416 1.350 . S
C1411 N1419 1.427 . S
C1412 H1403 0.930 . S
C1412 C1410 1.378 . S
C1412 C1413 1.367 . S
C1413 C1412 1.367 . S
C1413 C1415 1.433 . S
C1414 C1410 1.350 . S
C1414 C1411 1.463 . S
C1414 N1418 1.427 . S
C1415 H1405 0.929 . S
C1415 C1413 1.433 . S
C1415 N1418 1.384 . S
C1416 H1407 0.929 . S
C1416 C1408 1.378 . S
C1416 C1411 1.350 . S
C1417 H1404 0.929 . S
C1417 C1409 1.433 . S
C1417 N1419 1.384 . S
N1418 C1414 1.427 . S
N1418 C1415 1.384 . S
N1419 C1411 1.427 . S
N1419 C1417 1.384 . S
H1420 C1426 0.930 . S
H1421 C1430 0.930 . S
H1422 C1435 0.929 . S
H1423 C1433 0.929 . S
H1424 C1428 0.929 . S
H1425 C1434 0.929 . S
C1426 H1420 0.930 . S
C1426 C1427 1.367 . S
C1426 C1434 1.378 . S
C1427 C1426 1.367 . S
C1427 C1435 1.433 . S
C1428 H1424 0.929 . S
C1428 C1430 1.378 . S
C1428 C1432 1.350 . S
C1429 C1432 1.463 . S
C1429 C1434 1.350 . S
C1429 N1437 1.427 . S
C1430 H1421 0.930 . S
C1430 C1428 1.378 . S
C1430 C1431 1.367 . S
C1431 C1430 1.367 . S
C1431 C1433 1.433 . S
C1432 C1428 1.350 . S
C1432 C1429 1.463 . S
C1432 N1436 1.427 . S
C1433 H1423 0.929 . S
C1433 C1431 1.433 . S
C1433 N1436 1.384 . S
C1434 H1425 0.929 . S
C1434 C1426 1.378 . S
C1434 C1429 1.350 . S
C1435 H1422 0.929 . S
C1435 C1427 1.433 . S
C1435 N1437 1.384 . S
N1436 C1432 1.427 . S
N1436 C1433 1.384 . S
N1437 C1429 1.427 . S
N1437 C1435 1.384 . S
H1438 C1444 0.930 . S
H1439 C1448 0.930 . S
H1440 C1453 0.929 . S
H1441 C1451 0.929 . S
H1442 C1446 0.929 . S
H1443 C1452 0.929 . S
C1444 H1438 0.930 . S
C1444 C1445 1.367 . S
C1444 C1452 1.378 . S
C1445 C1444 1.367 . S
C1445 C1453 1.433 . S
C1446 H1442 0.929 . S
C1446 C1448 1.378 . S
C1446 C1450 1.350 . S
C1447 C1450 1.463 . S
C1447 C1452 1.350 . S
C1447 N1455 1.427 . S
C1448 H1439 0.930 . S
C1448 C1446 1.378 . S
C1448 C1449 1.367 . S
C1449 C1448 1.367 . S
C1449 C1451 1.433 . S
C1450 C1446 1.350 . S
C1450 C1447 1.463 . S
C1450 N1454 1.427 . S
C1451 H1441 0.929 . S
C1451 C1449 1.433 . S
C1451 N1454 1.384 . S
C1452 H1443 0.929 . S
C1452 C1444 1.378 . S
C1452 C1447 1.350 . S
C1453 H1440 0.929 . S
C1453 C1445 1.433 . S
C1453 N1455 1.384 . S
N1454 C1450 1.427 . S
N1454 C1451 1.384 . S
N1455 C1447 1.427 . S
N1455 C1453 1.384 . S
H1456 C1462 0.930 . S
H1457 C1466 0.930 . S
H1458 C1471 0.929 . S
H1459 C1469 0.929 . S
H1460 C1464 0.929 . S
H1461 C1470 0.929 . S
C1462 H1456 0.930 . S
C1462 C1463 1.367 . S
C1462 C1470 1.378 . S
C1463 C1462 1.367 . S
C1463 C1471 1.433 . S
C1464 H1460 0.929 . S
C1464 C1466 1.378 . S
C1464 C1468 1.350 . S
C1465 C1468 1.463 . S
C1465 C1470 1.350 . S
C1465 N1473 1.427 . S
C1466 H1457 0.930 . S
C1466 C1464 1.378 . S
C1466 C1467 1.367 . S
C1467 C1466 1.367 . S
C1467 C1469 1.433 . S
C1468 C1464 1.350 . S
C1468 C1465 1.463 . S
C1468 N1472 1.427 . S
C1469 H1459 0.929 . S
C1469 C1467 1.433 . S
C1469 N1472 1.384 . S
C1470 H1461 0.929 . S
C1470 C1462 1.378 . S
C1470 C1465 1.350 . S
C1471 H1458 0.929 . S
C1471 C1463 1.433 . S
C1471 N1473 1.384 . S
N1472 C1468 1.427 . S
N1472 C1469 1.384 . S
N1473 C1465 1.427 . S
N1473 C1471 1.384 . S
H1474 C1480 0.930 . S
H1475 C1484 0.930 . S
H1476 C1489 0.929 . S
H1477 C1487 0.929 . S
H1478 C1482 0.929 . S
H1479 C1488 0.929 . S
C1480 H1474 0.930 . S
C1480 C1481 1.367 . S
C1480 C1488 1.378 . S
C1481 C1480 1.367 . S
C1481 C1489 1.433 . S
C1482 H1478 0.929 . S
C1482 C1484 1.378 . S
C1482 C1486 1.350 . S
C1483 C1486 1.463 . S
C1483 C1488 1.350 . S
C1483 N1491 1.427 . S
C1484 H1475 0.930 . S
C1484 C1482 1.378 . S
C1484 C1485 1.367 . S
C1485 C1484 1.367 . S
C1485 C1487 1.433 . S
C1486 C1482 1.350 . S
C1486 C1483 1.463 . S
C1486 N1490 1.427 . S
C1487 H1477 0.929 . S
C1487 C1485 1.433 . S
C1487 N1490 1.384 . S
C1488 H1479 0.929 . S
C1488 C1480 1.378 . S
C1488 C1483 1.350 . S
C1489 H1476 0.929 . S
C1489 C1481 1.433 . S
C1489 N1491 1.384 . S
N1490 C1486 1.427 . S
N1490 C1487 1.384 . S
N1491 C1483 1.427 . S
N1491 C1489 1.384 . S
H1492 C1498 0.930 . S
H1493 C1502 0.930 . S
H1494 C1507 0.929 . S
H1495 C1505 0.929 . S
H1496 C1500 0.929 . S
H1497 C1506 0.929 . S
C1498 H1492 0.930 . S
C1498 C1499 1.367 . S
C1498 C1506 1.378 . S
C1499 C1498 1.367 . S
C1499 C1507 1.433 . S
C1500 H1496 0.929 . S
C1500 C1502 1.378 . S
C1500 C1504 1.350 . S
C1501 C1504 1.463 . S
C1501 C1506 1.350 . S
C1501 N1509 1.427 . S
C1502 H1493 0.930 . S
C1502 C1500 1.378 . S
C1502 C1503 1.367 . S
C1503 C1502 1.367 . S
C1503 C1505 1.433 . S
C1504 C1500 1.350 . S
C1504 C1501 1.463 . S
C1504 N1508 1.427 . S
C1505 H1495 0.929 . S
C1505 C1503 1.433 . S
C1505 N1508 1.384 . S
C1506 H1497 0.929 . S
C1506 C1498 1.378 . S
C1506 C1501 1.350 . S
C1507 H1494 0.929 . S
C1507 C1499 1.433 . S
C1507 N1509 1.384 . S
N1508 C1504 1.427 . S
N1508 C1505 1.384 . S
N1509 C1501 1.427 . S
N1509 C1507 1.384 . S
H1510 C1516 0.930 . S
H1511 C1520 0.930 . S
H1512 C1525 0.929 . S
H1513 C1523 0.929 . S
H1514 C1518 0.929 . S
H1515 C1524 0.929 . S
C1516 H1510 0.930 . S
C1516 C1517 1.367 . S
C1516 C1524 1.378 . S
C1517 C1516 1.367 . S
C1517 C1525 1.433 . S
C1518 H1514 0.929 . S
C1518 C1520 1.378 . S
C1518 C1522 1.350 . S
C1519 C1522 1.463 . S
C1519 C1524 1.350 . S
C1519 N1527 1.427 . S
C1520 H1511 0.930 . S
C1520 C1518 1.378 . S
C1520 C1521 1.367 . S
C1521 C1520 1.367 . S
C1521 C1523 1.433 . S
C1522 C1518 1.350 . S
C1522 C1519 1.463 . S
C1522 N1526 1.427 . S
C1523 H1513 0.929 . S
C1523 C1521 1.433 . S
C1523 N1526 1.384 . S
C1524 H1515 0.929 . S
C1524 C1516 1.378 . S
C1524 C1519 1.350 . S
C1525 H1512 0.929 . S
C1525 C1517 1.433 . S
C1525 N1527 1.384 . S
N1526 C1522 1.427 . S
N1526 C1523 1.384 . S
N1527 C1519 1.427 . S
N1527 C1525 1.384 . S
H1528 C1534 0.930 . S
H1529 C1538 0.930 . S
H1530 C1543 0.929 . S
H1531 C1541 0.929 . S
H1532 C1536 0.929 . S
H1533 C1542 0.929 . S
C1534 H1528 0.930 . S
C1534 C1535 1.367 . S
C1534 C1542 1.378 . S
C1535 C1534 1.367 . S
C1535 C1543 1.433 . S
C1536 H1532 0.929 . S
C1536 C1538 1.378 . S
C1536 C1540 1.350 . S
C1537 C1540 1.463 . S
C1537 C1542 1.350 . S
C1537 N1545 1.427 . S
C1538 H1529 0.930 . S
C1538 C1536 1.378 . S
C1538 C1539 1.367 . S
C1539 C1538 1.367 . S
C1539 C1541 1.433 . S
C1540 C1536 1.350 . S
C1540 C1537 1.463 . S
C1540 N1544 1.427 . S
C1541 H1531 0.929 . S
C1541 C1539 1.433 . S
C1541 N1544 1.384 . S
C1542 H1533 0.929 . S
C1542 C1534 1.378 . S
C1542 C1537 1.350 . S
C1543 H1530 0.929 . S
C1543 C1535 1.433 . S
C1543 N1545 1.384 . S
N1544 C1540 1.427 . S
N1544 C1541 1.384 . S
N1545 C1537 1.427 . S
N1545 C1543 1.384 . S
H1546 C1552 0.930 . S
H1547 C1556 0.930 . S
H1548 C1561 0.929 . S
H1549 C1559 0.929 . S
H1550 C1554 0.929 . S
H1551 C1560 0.929 . S
C1552 H1546 0.930 . S
C1552 C1553 1.367 . S
C1552 C1560 1.378 . S
C1553 C1552 1.367 . S
C1553 C1561 1.433 . S
C1554 H1550 0.929 . S
C1554 C1556 1.378 . S
C1554 C1558 1.350 . S
C1555 C1558 1.463 . S
C1555 C1560 1.350 . S
C1555 N1563 1.427 . S
C1556 H1547 0.930 . S
C1556 C1554 1.378 . S
C1556 C1557 1.367 . S
C1557 C1556 1.367 . S
C1557 C1559 1.433 . S
C1558 C1554 1.350 . S
C1558 C1555 1.463 . S
C1558 N1562 1.427 . S
C1559 H1549 0.929 . S
C1559 C1557 1.433 . S
C1559 N1562 1.384 . S
C1560 H1551 0.929 . S
C1560 C1552 1.378 . S
C1560 C1555 1.350 . S
C1561 H1548 0.929 . S
C1561 C1553 1.433 . S
C1561 N1563 1.384 . S
N1562 C1558 1.427 . S
N1562 C1559 1.384 . S
N1563 C1555 1.427 . S
N1563 C1561 1.384 . S
H1564 C1570 0.930 . S
H1565 C1574 0.930 . S
H1566 C1579 0.929 . S
H1567 C1577 0.929 . S
H1568 C1572 0.929 . S
H1569 C1578 0.929 . S
C1570 H1564 0.930 . S
C1570 C1571 1.367 . S
C1570 C1578 1.378 . S
C1571 C1570 1.367 . S
C1571 C1579 1.433 . S
C1572 H1568 0.929 . S
C1572 C1574 1.378 . S
C1572 C1576 1.350 . S
C1573 C1576 1.463 . S
C1573 C1578 1.350 . S
C1573 N1581 1.427 . S
C1574 H1565 0.930 . S
C1574 C1572 1.378 . S
C1574 C1575 1.367 . S
C1575 C1574 1.367 . S
C1575 C1577 1.433 . S
C1576 C1572 1.350 . S
C1576 C1573 1.463 . S
C1576 N1580 1.427 . S
C1577 H1567 0.929 . S
C1577 C1575 1.433 . S
C1577 N1580 1.384 . S
C1578 H1569 0.929 . S
C1578 C1570 1.378 . S
C1578 C1573 1.350 . S
C1579 H1566 0.929 . S
C1579 C1571 1.433 . S
C1579 N1581 1.384 . S
N1580 C1576 1.427 . S
N1580 C1577 1.384 . S
N1581 C1573 1.427 . S
N1581 C1579 1.384 . S
H1582 C1588 0.930 . S
H1583 C1592 0.930 . S
H1584 C1597 0.929 . S
H1585 C1595 0.929 . S
H1586 C1590 0.929 . S
H1587 C1596 0.929 . S
C1588 H1582 0.930 . S
C1588 C1589 1.367 . S
C1588 C1596 1.378 . S
C1589 C1588 1.367 . S
C1589 C1597 1.433 . S
C1590 H1586 0.929 . S
C1590 C1592 1.378 . S
C1590 C1594 1.350 . S
C1591 C1594 1.463 . S
C1591 C1596 1.350 . S
C1591 N1599 1.427 . S
C1592 H1583 0.930 . S
C1592 C1590 1.378 . S
C1592 C1593 1.367 . S
C1593 C1592 1.367 . S
C1593 C1595 1.433 . S
C1594 C1590 1.350 . S
C1594 C1591 1.463 . S
C1594 N1598 1.427 . S
C1595 H1585 0.929 . S
C1595 C1593 1.433 . S
C1595 N1598 1.384 . S
C1596 H1587 0.929 . S
C1596 C1588 1.378 . S
C1596 C1591 1.350 . S
C1597 H1584 0.929 . S
C1597 C1589 1.433 . S
C1597 N1599 1.384 . S
N1598 C1594 1.427 . S
N1598 C1595 1.384 . S
N1599 C1591 1.427 . S
N1599 C1597 1.384 . S
C455 C92 1.204 . S
C459 C8 1.185 . S
C473 C22 1.186 . S
C477 C106 1.199 . S
C491 C64 1.195 . S
C495 C36 1.189 . S
C509 C50 1.187 . S
C513 C78 1.198 . S
C527 C204 1.185 . S
C531 C120 1.204 . S
C545 C218 1.201 . S
C549 C134 1.185 . S
C563 C148 1.196 . S
C567 C176 1.188 . S
C581 C162 1.191 . S
C585 C190 1.202 . S
C599 C232 1.202 . S
C603 C316 1.185 . S
C617 C246 1.190 . S
C621 C330 1.194 . S
C635 C288 1.185 . S
C639 C260 1.201 . S
C653 C302 1.201 . S
C657 C274 1.192 . S
C671 C344 1.203 . S
C675 C428 1.189 . S
C689 C442 1.197 . S
C693 C358 1.187 . S
C707 C400 1.204 . S
C711 C372 1.186 . S
C725 C386 1.188 . S
C729 C414 1.203 . S
C743 C7 1.370 . S
C747 C433 1.314 . S
C761 C223 1.308 . S
C765 C21 1.375 . S
C779 C35 1.367 . S
C783 C405 1.292 . S
C797 C49 1.363 . S
C801 C195 1.303 . S
C815 C377 1.293 . S
C819 C63 1.371 . S
C833 C167 1.307 . S
C837 C77 1.364 . S
C851 C91 1.365 . S
C855 C349 1.293 . S
C869 C139 1.307 . S
C873 C105 1.364 . S
C887 C119 1.375 . S
C891 C321 1.306 . S
C905 C111 1.295 . S
C909 C133 1.373 . S
C923 C147 1.372 . S
C927 C293 1.313 . S
C941 C161 1.365 . S
C945 C83 1.309 . S
C959 C265 1.309 . S
C963 C175 1.375 . S
C977 C189 1.367 . S
C981 C55 1.312 . S
C995 C203 1.363 . S
C999 C237 1.298 . S
C1013 C27 1.308 . S
C1017 C217 1.364 . S
C1031 C231 1.373 . S
C1035 C209 1.313 . S
C1049 C245 1.364 . S
C1053 C447 1.296 . S
C1067 C181 1.307 . S
C1071 C259 1.375 . S
C1085 C273 1.375 . S
C1089 C419 1.307 . S
C1103 C153 1.300 . S
C1107 C287 1.363 . S
C1121 C391 1.306 . S
C1125 C301 1.375 . S
C1139 C125 1.311 . S
C1143 C315 1.374 . S
C1157 C363 1.313 . S
C1161 C329 1.369 . S
C1175 C343 1.375 . S
C1179 C97 1.306 . S
C1193 C335 1.309 . S
C1197 C357 1.375 . S
C1211 C69 1.292 . S
C1215 C371 1.370 . S
C1229 C385 1.371 . S
C1233 C307 1.293 . S
C1247 C399 1.372 . S
C1251 C41 1.313 . S
C1265 C413 1.373 . S
C1269 C279 1.295 . S
C1283 C13 1.292 . S
C1287 C427 1.369 . S
C1301 C441 1.366 . S
C1305 C251 1.292 . S
C1319 C11 1.260 . S
C1323 C305 1.259 . S
C1337 C319 1.259 . S
C1341 C25 1.259 . S
C1355 C39 1.260 . S
C1359 C333 1.258 . S
C1373 C291 1.258 . S
C1377 C53 1.259 . S
C1391 C277 1.259 . S
C1395 C67 1.260 . S
C1409 C235 1.258 . S
C1413 C81 1.260 . S
C1427 C249 1.256 . S
C1431 C95 1.262 . S
C1445 C263 1.259 . S
C1449 C109 1.259 . S
C1463 C123 1.256 . S
C1467 C417 1.262 . S
C1481 C431 1.259 . S
C1485 C137 1.259 . S
C1499 C445 1.260 . S
C1503 C151 1.259 . S
C1517 C403 1.258 . S
C1521 C165 1.261 . S
C1535 C389 1.258 . S
C1539 C179 1.261 . S
C1553 C347 1.261 . S
C1557 C193 1.258 . S
C1571 C207 1.262 . S
C1575 C361 1.256 . S
C1589 C221 1.258 . S
C1593 C375 1.261 . S
