# Generated by pormake.
# Topology som, (6)-cn, num edge types: 1
# Building blocks:
#     Node 0, Type 0, BuildingBlock: GEDQOX_clean_sbu_0, # of connection points: 6
#     Node 1, Type 0, BuildingBlock: GEDQOX_clean_sbu_0, # of connection points: 6
#     Node 2, Type 0, BuildingBlock: GEDQOX_clean_sbu_0, # of connection points: 6
#     Node 3, Type 0, BuildingBlock: GEDQOX_clean_sbu_0, # of connection points: 6
#     Node 4, Type 0, BuildingBlock: GEDQOX_clean_sbu_0, # of connection points: 6
#     Node 5, Type 0, BuildingBlock: GEDQOX_clean_sbu_0, # of connection points: 6
#     Node 6, Type 0, BuildingBlock: GEDQOX_clean_sbu_0, # of connection points: 6
#     Node 7, Type 0, BuildingBlock: GEDQOX_clean_sbu_0, # of connection points: 6
#     Node 8, Type 0, BuildingBlock: GEDQOX_clean_sbu_0, # of connection points: 6
#     Node 9, Type 0, BuildingBlock: GEDQOX_clean_sbu_0, # of connection points: 6
#     Node 10, Type 0, BuildingBlock: GEDQOX_clean_sbu_0, # of connection points: 6
#     Node 11, Type 0, BuildingBlock: GEDQOX_clean_sbu_0, # of connection points: 6
#     Node 12, Type 0, BuildingBlock: GEDQOX_clean_sbu_0, # of connection points: 6
#     Node 13, Type 0, BuildingBlock: GEDQOX_clean_sbu_0, # of connection points: 6
#     Node 14, Type 0, BuildingBlock: GEDQOX_clean_sbu_0, # of connection points: 6
#     Node 15, Type 0, BuildingBlock: GEDQOX_clean_sbu_0, # of connection points: 6
#     Node 16, Type 0, BuildingBlock: GEDQOX_clean_sbu_0, # of connection points: 6
#     Node 17, Type 0, BuildingBlock: GEDQOX_clean_sbu_0, # of connection points: 6
#     Node 18, Type 0, BuildingBlock: GEDQOX_clean_sbu_0, # of connection points: 6
#     Node 19, Type 0, BuildingBlock: GEDQOX_clean_sbu_0, # of connection points: 6
#     Node 20, Type 0, BuildingBlock: GEDQOX_clean_sbu_0, # of connection points: 6
#     Node 21, Type 0, BuildingBlock: GEDQOX_clean_sbu_0, # of connection points: 6
#     Node 22, Type 0, BuildingBlock: GEDQOX_clean_sbu_0, # of connection points: 6
#     Node 23, Type 0, BuildingBlock: GEDQOX_clean_sbu_0, # of connection points: 6
#     Node 24, Type 0, BuildingBlock: GEDQOX_clean_sbu_0, # of connection points: 6
#     Node 25, Type 0, BuildingBlock: GEDQOX_clean_sbu_0, # of connection points: 6
#     Node 26, Type 0, BuildingBlock: GEDQOX_clean_sbu_0, # of connection points: 6
#     Node 27, Type 0, BuildingBlock: GEDQOX_clean_sbu_0, # of connection points: 6
#     Node 28, Type 0, BuildingBlock: GEDQOX_clean_sbu_0, # of connection points: 6
#     Node 29, Type 0, BuildingBlock: GEDQOX_clean_sbu_0, # of connection points: 6
#     Node 30, Type 0, BuildingBlock: GEDQOX_clean_sbu_0, # of connection points: 6
#     Node 31, Type 0, BuildingBlock: GEDQOX_clean_sbu_0, # of connection points: 6
#     Edge 32, Type (0, 0), BuildingBlock: TEMPAE_clean_linker_10, # of connection points: 2
#     Edge 33, Type (0, 0), BuildingBlock: TEMPAE_clean_linker_10, # of connection points: 2
#     Edge 34, Type (0, 0), BuildingBlock: TEMPAE_clean_linker_10, # of connection points: 2
#     Edge 35, Type (0, 0), BuildingBlock: TEMPAE_clean_linker_10, # of connection points: 2
#     Edge 36, Type (0, 0), BuildingBlock: TEMPAE_clean_linker_10, # of connection points: 2
#     Edge 37, Type (0, 0), BuildingBlock: TEMPAE_clean_linker_10, # of connection points: 2
#     Edge 38, Type (0, 0), BuildingBlock: TEMPAE_clean_linker_10, # of connection points: 2
#     Edge 39, Type (0, 0), BuildingBlock: TEMPAE_clean_linker_10, # of connection points: 2
#     Edge 40, Type (0, 0), BuildingBlock: TEMPAE_clean_linker_10, # of connection points: 2
#     Edge 41, Type (0, 0), BuildingBlock: TEMPAE_clean_linker_10, # of connection points: 2
#     Edge 42, Type (0, 0), BuildingBlock: TEMPAE_clean_linker_10, # of connection points: 2
#     Edge 43, Type (0, 0), BuildingBlock: TEMPAE_clean_linker_10, # of connection points: 2
#     Edge 44, Type (0, 0), BuildingBlock: TEMPAE_clean_linker_10, # of connection points: 2
#     Edge 45, Type (0, 0), BuildingBlock: TEMPAE_clean_linker_10, # of connection points: 2
#     Edge 46, Type (0, 0), BuildingBlock: TEMPAE_clean_linker_10, # of connection points: 2
#     Edge 47, Type (0, 0), BuildingBlock: TEMPAE_clean_linker_10, # of connection points: 2
#     Edge 48, Type (0, 0), BuildingBlock: TEMPAE_clean_linker_10, # of connection points: 2
#     Edge 49, Type (0, 0), BuildingBlock: TEMPAE_clean_linker_10, # of connection points: 2
#     Edge 50, Type (0, 0), BuildingBlock: TEMPAE_clean_linker_10, # of connection points: 2
#     Edge 51, Type (0, 0), BuildingBlock: TEMPAE_clean_linker_10, # of connection points: 2
#     Edge 52, Type (0, 0), BuildingBlock: TEMPAE_clean_linker_10, # of connection points: 2
#     Edge 53, Type (0, 0), BuildingBlock: TEMPAE_clean_linker_10, # of connection points: 2
#     Edge 54, Type (0, 0), BuildingBlock: TEMPAE_clean_linker_10, # of connection points: 2
#     Edge 55, Type (0, 0), BuildingBlock: TEMPAE_clean_linker_10, # of connection points: 2
#     Edge 56, Type (0, 0), BuildingBlock: TEMPAE_clean_linker_10, # of connection points: 2
#     Edge 57, Type (0, 0), BuildingBlock: TEMPAE_clean_linker_10, # of connection points: 2
#     Edge 58, Type (0, 0), BuildingBlock: TEMPAE_clean_linker_10, # of connection points: 2
#     Edge 59, Type (0, 0), BuildingBlock: TEMPAE_clean_linker_10, # of connection points: 2
#     Edge 60, Type (0, 0), BuildingBlock: TEMPAE_clean_linker_10, # of connection points: 2
#     Edge 61, Type (0, 0), BuildingBlock: TEMPAE_clean_linker_10, # of connection points: 2
#     Edge 62, Type (0, 0), BuildingBlock: TEMPAE_clean_linker_10, # of connection points: 2
#     Edge 63, Type (0, 0), BuildingBlock: TEMPAE_clean_linker_10, # of connection points: 2
#     Edge 64, Type (0, 0), BuildingBlock: TEMPAE_clean_linker_10, # of connection points: 2
#     Edge 65, Type (0, 0), BuildingBlock: TEMPAE_clean_linker_10, # of connection points: 2
#     Edge 66, Type (0, 0), BuildingBlock: TEMPAE_clean_linker_10, # of connection points: 2
#     Edge 67, Type (0, 0), BuildingBlock: TEMPAE_clean_linker_10, # of connection points: 2
#     Edge 68, Type (0, 0), BuildingBlock: TEMPAE_clean_linker_10, # of connection points: 2
#     Edge 69, Type (0, 0), BuildingBlock: TEMPAE_clean_linker_10, # of connection points: 2
#     Edge 70, Type (0, 0), BuildingBlock: TEMPAE_clean_linker_10, # of connection points: 2
#     Edge 71, Type (0, 0), BuildingBlock: TEMPAE_clean_linker_10, # of connection points: 2
#     Edge 72, Type (0, 0), BuildingBlock: TEMPAE_clean_linker_10, # of connection points: 2
#     Edge 73, Type (0, 0), BuildingBlock: TEMPAE_clean_linker_10, # of connection points: 2
#     Edge 74, Type (0, 0), BuildingBlock: TEMPAE_clean_linker_10, # of connection points: 2
#     Edge 75, Type (0, 0), BuildingBlock: TEMPAE_clean_linker_10, # of connection points: 2
#     Edge 76, Type (0, 0), BuildingBlock: TEMPAE_clean_linker_10, # of connection points: 2
#     Edge 77, Type (0, 0), BuildingBlock: TEMPAE_clean_linker_10, # of connection points: 2
#     Edge 78, Type (0, 0), BuildingBlock: TEMPAE_clean_linker_10, # of connection points: 2
#     Edge 79, Type (0, 0), BuildingBlock: TEMPAE_clean_linker_10, # of connection points: 2
#     Edge 80, Type (0, 0), BuildingBlock: TEMPAE_clean_linker_10, # of connection points: 2
#     Edge 81, Type (0, 0), BuildingBlock: TEMPAE_clean_linker_10, # of connection points: 2
#     Edge 82, Type (0, 0), BuildingBlock: TEMPAE_clean_linker_10, # of connection points: 2
#     Edge 83, Type (0, 0), BuildingBlock: TEMPAE_clean_linker_10, # of connection points: 2
#     Edge 84, Type (0, 0), BuildingBlock: TEMPAE_clean_linker_10, # of connection points: 2
#     Edge 85, Type (0, 0), BuildingBlock: TEMPAE_clean_linker_10, # of connection points: 2
#     Edge 86, Type (0, 0), BuildingBlock: TEMPAE_clean_linker_10, # of connection points: 2
#     Edge 87, Type (0, 0), BuildingBlock: TEMPAE_clean_linker_10, # of connection points: 2
#     Edge 88, Type (0, 0), BuildingBlock: TEMPAE_clean_linker_10, # of connection points: 2
#     Edge 89, Type (0, 0), BuildingBlock: TEMPAE_clean_linker_10, # of connection points: 2
#     Edge 90, Type (0, 0), BuildingBlock: TEMPAE_clean_linker_10, # of connection points: 2
#     Edge 91, Type (0, 0), BuildingBlock: TEMPAE_clean_linker_10, # of connection points: 2
#     Edge 92, Type (0, 0), BuildingBlock: TEMPAE_clean_linker_10, # of connection points: 2
#     Edge 93, Type (0, 0), BuildingBlock: TEMPAE_clean_linker_10, # of connection points: 2
#     Edge 94, Type (0, 0), BuildingBlock: TEMPAE_clean_linker_10, # of connection points: 2
#     Edge 95, Type (0, 0), BuildingBlock: TEMPAE_clean_linker_10, # of connection points: 2
#     Edge 96, Type (0, 0), BuildingBlock: TEMPAE_clean_linker_10, # of connection points: 2
#     Edge 97, Type (0, 0), BuildingBlock: TEMPAE_clean_linker_10, # of connection points: 2
#     Edge 98, Type (0, 0), BuildingBlock: TEMPAE_clean_linker_10, # of connection points: 2
#     Edge 99, Type (0, 0), BuildingBlock: TEMPAE_clean_linker_10, # of connection points: 2
#     Edge 100, Type (0, 0), BuildingBlock: TEMPAE_clean_linker_10, # of connection points: 2
#     Edge 101, Type (0, 0), BuildingBlock: TEMPAE_clean_linker_10, # of connection points: 2
#     Edge 102, Type (0, 0), BuildingBlock: TEMPAE_clean_linker_10, # of connection points: 2
#     Edge 103, Type (0, 0), BuildingBlock: TEMPAE_clean_linker_10, # of connection points: 2
#     Edge 104, Type (0, 0), BuildingBlock: TEMPAE_clean_linker_10, # of connection points: 2
#     Edge 105, Type (0, 0), BuildingBlock: TEMPAE_clean_linker_10, # of connection points: 2
#     Edge 106, Type (0, 0), BuildingBlock: TEMPAE_clean_linker_10, # of connection points: 2
#     Edge 107, Type (0, 0), BuildingBlock: TEMPAE_clean_linker_10, # of connection points: 2
#     Edge 108, Type (0, 0), BuildingBlock: TEMPAE_clean_linker_10, # of connection points: 2
#     Edge 109, Type (0, 0), BuildingBlock: TEMPAE_clean_linker_10, # of connection points: 2
#     Edge 110, Type (0, 0), BuildingBlock: TEMPAE_clean_linker_10, # of connection points: 2
#     Edge 111, Type (0, 0), BuildingBlock: TEMPAE_clean_linker_10, # of connection points: 2
#     Edge 112, Type (0, 0), BuildingBlock: TEMPAE_clean_linker_10, # of connection points: 2
#     Edge 113, Type (0, 0), BuildingBlock: TEMPAE_clean_linker_10, # of connection points: 2
#     Edge 114, Type (0, 0), BuildingBlock: TEMPAE_clean_linker_10, # of connection points: 2
#     Edge 115, Type (0, 0), BuildingBlock: TEMPAE_clean_linker_10, # of connection points: 2
#     Edge 116, Type (0, 0), BuildingBlock: TEMPAE_clean_linker_10, # of connection points: 2
#     Edge 117, Type (0, 0), BuildingBlock: TEMPAE_clean_linker_10, # of connection points: 2
#     Edge 118, Type (0, 0), BuildingBlock: TEMPAE_clean_linker_10, # of connection points: 2
#     Edge 119, Type (0, 0), BuildingBlock: TEMPAE_clean_linker_10, # of connection points: 2
#     Edge 120, Type (0, 0), BuildingBlock: TEMPAE_clean_linker_10, # of connection points: 2
#     Edge 121, Type (0, 0), BuildingBlock: TEMPAE_clean_linker_10, # of connection points: 2
#     Edge 122, Type (0, 0), BuildingBlock: TEMPAE_clean_linker_10, # of connection points: 2
#     Edge 123, Type (0, 0), BuildingBlock: TEMPAE_clean_linker_10, # of connection points: 2
#     Edge 124, Type (0, 0), BuildingBlock: TEMPAE_clean_linker_10, # of connection points: 2
#     Edge 125, Type (0, 0), BuildingBlock: TEMPAE_clean_linker_10, # of connection points: 2
#     Edge 126, Type (0, 0), BuildingBlock: TEMPAE_clean_linker_10, # of connection points: 2
#     Edge 127, Type (0, 0), BuildingBlock: TEMPAE_clean_linker_10, # of connection points: 2
# Relax obj value: 0.188
# Max RMSD: 0.203
# Mean RMSD: 0.203
data_MOF--net-som--node1-GEDQOX_clean_sbu_0--edge1-TEMPAE_clean_linker_10
_symmetry_space_group_name_H-M    P1
_symmetry_Int_Tables_number       1
_symmetry_cell_setting            triclinic
loop_
_symmetry_equiv_pos_as_xyz
'x, y, z'
_cell_length_a     15.767934
_cell_length_b     104.79886
_cell_length_c     117.63101
_cell_angle_alpha  89.943424
_cell_angle_beta   89.976753
_cell_angle_gamma 90.02155
loop_
_atom_site_label
_atom_site_type_symbol
_atom_site_fract_x
_atom_site_fract_y
_atom_site_fract_z
_atom_type_partial_charge
Nd0 Nd 0.07647 0.49979 0.06903 0.0
Nd1 Nd 0.06453 0.52798 0.07056 0.0
C2 C 0.06851 0.47521 0.06385 0.0
C3 C 1.02577 0.4627 0.06481 0.0
C4 C 1.00832 0.45593 0.05481 0.0
C5 C 0.98251 0.44319 0.05528 0.0
C6 C 0.97335 0.43694 0.06578 0.0
C7 C 0.98614 0.44392 0.07584 0.0
C8 C 1.01262 0.45669 0.07537 0.0
C9 C 0.101 0.50903 0.09062 0.0
C10 C 0.88935 0.51306 0.07241 0.0
C11 C 0.07028 0.55277 0.07476 0.0
C12 C 0.11225 0.56532 0.07387 0.0
C13 C 0.13392 0.57177 0.0839 0.0
C14 C 0.1551 0.5847 0.08362 0.0
C15 C 0.15467 0.59146 0.0733 0.0
C16 C 0.13885 0.5848 0.06315 0.0
C17 C 0.11753 0.57184 0.06343 0.0
C18 C 1.04383 0.51859 0.04891 0.0
C19 C 0.25166 0.51483 0.06779 0.0
O20 O 1.03401 0.48411 0.05757 0.0
O21 O 0.10843 0.47968 0.07273 0.0
O22 O 0.1413 0.49938 0.08641 0.0
O23 O 1.04425 0.51293 0.08389 0.0
O24 O 0.93135 0.50297 0.06877 0.0
O25 O 0.92836 0.52358 0.07547 0.0
O26 O 0.09989 0.54423 0.08183 0.0
O27 O 1.03698 0.54784 0.06561 0.0
O28 O 0.99717 0.52742 0.05333 0.0
O29 O 0.10028 0.51496 0.0558 0.0
O30 O 0.20882 0.52462 0.07189 0.0
O31 O 0.21203 0.50468 0.06388 0.0
H32 H 1.01837 0.46032 0.04658 0.0
H33 H 0.97199 0.4381 0.04739 0.0
H34 H 0.97977 0.43932 0.08405 0.0
H35 H 1.02599 0.46166 0.08324 0.0
H36 H 0.12987 0.56699 0.09206 0.0
H37 H 0.16848 0.58954 0.09155 0.0
H38 H 0.13783 0.58977 0.05507 0.0
H39 H 0.10075 0.56715 0.05555 0.0
Nd40 Nd 0.25987 0.77949 0.06857 0.0
Nd41 Nd 0.26438 0.74967 0.07203 0.0
C42 C 0.27423 0.80365 0.06211 0.0
C43 C 0.31205 0.81625 0.06485 0.0
C44 C 0.37538 0.82136 0.05779 0.0
C45 C 0.40264 0.83398 0.05916 0.0
C46 C 0.36654 0.84188 0.06755 0.0
C47 C 0.30556 0.83657 0.07492 0.0
C48 C 0.27867 0.82392 0.07359 0.0
C49 C 0.22783 0.77124 0.09033 0.0
C50 C 0.44472 0.76518 0.07181 0.0
C51 C 0.25848 0.72673 0.08129 0.0
C52 C 0.2309 0.71354 0.07919 0.0
C53 C 0.20919 0.70592 0.08854 0.0
C54 C 0.19297 0.69294 0.0871 0.0
C55 C 0.19753 0.68739 0.07626 0.0
C56 C 0.21481 0.69514 0.06679 0.0
C57 C 0.23183 0.70816 0.06825 0.0
C58 C 0.25878 0.75492 0.04891 0.0
C59 C 0.0847 0.76414 0.06775 0.0
O60 O 0.32384 0.79458 0.05832 0.0
O61 O 0.2137 0.79939 0.06869 0.0
O62 O 0.19395 0.78127 0.08578 0.0
O63 O 0.28318 0.76648 0.08379 0.0
O64 O 0.40354 0.77607 0.07047 0.0
O65 O 0.40617 0.75407 0.07299 0.0
O66 O 0.19938 0.73532 0.08287 0.0
O67 O 0.32296 0.73091 0.07533 0.0
O68 O 0.25924 0.74346 0.0531 0.0
O69 O 0.25875 0.7628 0.05695 0.0
O70 O 0.12404 0.75504 0.07345 0.0
O71 O 0.12737 0.77335 0.06259 0.0
H72 H 0.40196 0.81573 0.05094 0.0
H73 H 0.45093 0.83763 0.05347 0.0
H74 H 0.27559 0.84234 0.0814 0.0
H75 H 0.22928 0.82035 0.07914 0.0
H76 H 0.20777 0.70993 0.09702 0.0
H77 H 0.17903 0.68714 0.0945 0.0
H78 H 0.21891 0.69102 0.05836 0.0
H79 H 0.24827 0.71392 0.06092 0.0
Nd80 Nd 0.0813 0.77949 0.19541 0.0
Nd81 Nd 0.07802 0.74953 0.19072 0.0
C82 C 0.06467 0.80314 0.20307 0.0
C83 C 1.02838 0.8158 0.20036 0.0
C84 C 0.9833 0.82239 0.2088 0.0
C85 C 0.95751 0.83501 0.20706 0.0
C86 C 0.9765 0.84137 0.19682 0.0
C87 C 1.01879 0.83458 0.18819 0.0
C88 C 1.04443 0.82192 0.18993 0.0
C89 C 0.11239 0.77245 0.17327 0.0
C90 C 0.89699 0.76498 0.19163 0.0
C91 C 0.08608 0.7267 0.18125 0.0
C92 C 0.10837 0.71336 0.18384 0.0
C93 C 0.14062 0.70571 0.1751 0.0
C94 C 0.15415 0.6927 0.17687 0.0
C95 C 0.13571 0.68706 0.18744 0.0
C96 C 0.10706 0.69487 0.19638 0.0
C97 C 0.09326 0.70793 0.19458 0.0
C98 C 0.08159 0.75412 0.21396 0.0
C99 C 0.25626 0.76423 0.19543 0.0
O100 O 1.01241 0.79392 0.20581 0.0
O101 O 0.12893 0.79924 0.19695 0.0
O102 O 0.1424 0.78265 0.17802 0.0
O103 O 0.05929 0.76705 0.17976 0.0
O104 O 0.9379 0.77572 0.19389 0.0
O105 O 0.93617 0.75409 0.18947 0.0
O106 O 0.14823 0.73498 0.18071 0.0
O107 O 1.01762 0.73125 0.18608 0.0
O108 O 0.07959 0.74276 0.2096 0.0
O109 O 0.08279 0.76207 0.20601 0.0
O110 O 0.21739 0.75561 0.18911 0.0
O111 O 0.21334 0.77291 0.20122 0.0
H112 H 0.97058 0.8179 0.21692 0.0
H113 H 0.92586 0.83996 0.21393 0.0
H114 H 1.03324 0.83911 0.18014 0.0
H115 H 0.07873 0.81707 0.18323 0.0
H116 H 0.15317 0.70974 0.16678 0.0
H117 H 0.17769 0.68697 0.16988 0.0
H118 H 0.09217 0.69078 0.2046 0.0
H119 H 0.06867 0.7137 0.20148 0.0
Nd120 Nd 0.2607 0.49975 0.19467 0.0
Nd121 Nd 0.27279 0.52779 0.19223 0.0
C122 C 0.2712 0.47512 0.19983 0.0
C123 C 0.30831 0.46255 0.19682 0.0
C124 C 0.37019 0.45702 0.20388 0.0
C125 C 0.39558 0.44434 0.20227 0.0
C126 C 0.35881 0.43687 0.19367 0.0
C127 C 0.29944 0.44254 0.18633 0.0
C128 C 0.27458 0.45524 0.18787 0.0
C129 C 0.23736 0.50822 0.17276 0.0
C130 C 0.44808 0.51293 0.19088 0.0
C131 C 0.26464 0.55236 0.18702 0.0
C132 C 0.22576 0.56507 0.18827 0.0
C133 C 0.2165 0.57259 0.17849 0.0
C134 C 0.1971 0.58553 0.17939 0.0
C135 C 0.18593 0.59119 0.1901 0.0
C136 C 0.18945 0.5835 0.19989 0.0
C137 C 0.20984 0.57052 0.19899 0.0
C138 C 0.29406 0.51938 0.21427 0.0
C139 C 0.08697 0.51471 0.19588 0.0
O140 O 0.32 0.48382 0.20441 0.0
O141 O 0.21406 0.47995 0.19304 0.0
O142 O 0.19548 0.49891 0.17725 0.0
O143 O 0.29394 0.51228 0.1794 0.0
O144 O 0.40582 0.50319 0.19522 0.0
O145 O 0.40795 0.52303 0.18697 0.0
O146 O 0.22548 0.54357 0.18114 0.0
O147 O 0.30809 0.54781 0.19554 0.0
O148 O 0.33845 0.52831 0.20959 0.0
O149 O 0.23805 0.51532 0.20752 0.0
O150 O 0.12896 0.52394 0.19075 0.0
O151 O 0.12749 0.50514 0.20069 0.0
H152 H 0.39648 0.46233 0.21094 0.0
H153 H 0.44094 0.4402 0.20812 0.0
H154 H 0.27068 0.43704 0.17955 0.0
H155 H 0.22648 0.45914 0.18229 0.0
H156 H 0.22887 0.5686 0.17016 0.0
H157 H 0.19393 0.59126 0.17173 0.0
H158 H 0.1812 0.58768 0.20823 0.0
H159 H 0.21697 0.56491 0.20667 0.0
Nd160 Nd 1.01992 0.50142 0.94103 0.0
Nd161 Nd 1.01254 0.52966 0.94547 0.0
C162 C 1.00999 0.47774 0.93324 0.0
C163 C 0.97801 0.4647 0.93499 0.0
C164 C 0.97597 0.45646 0.92564 0.0
C165 C 0.95696 0.44355 0.92707 0.0
C166 C 0.93888 0.43857 0.93793 0.0
C167 C 0.93817 0.44699 0.94728 0.0
C168 C 0.95789 0.45995 0.94582 0.0
C169 C 1.03897 0.50758 0.96371 0.0
C170 C 0.83535 0.51482 0.94581 0.0
C171 C 1.02713 0.55369 0.95242 0.0
C172 C 0.06662 0.56635 0.95062 0.0
C173 C 0.0947 0.57321 0.96013 0.0
C174 C 0.11944 0.58597 0.95909 0.0
C175 C 0.11679 0.59219 0.9485 0.0
C176 C 0.09288 0.58512 0.93884 0.0
C177 C 0.06764 0.57233 0.9399 0.0
C178 C 0.98454 0.5232 0.92309 0.0
C179 C 0.19644 0.51623 0.94113 0.0
O180 O 0.9564 0.48669 0.93033 0.0
O181 O 0.06896 0.48173 0.94018 0.0
O182 O 0.07473 0.49793 0.95883 0.0
O183 O 0.9878 0.51293 0.95699 0.0
O184 O 0.87584 0.50524 0.94093 0.0
O185 O 0.87628 0.52458 0.95027 0.0
O186 O 0.07341 0.54441 0.9565 0.0
O187 O 0.97134 0.54981 0.945 0.0
O188 O 0.94897 0.53265 0.92826 0.0
O189 O 1.04043 0.51814 0.92934 0.0
O190 O 0.15524 0.52529 0.94656 0.0
O191 O 0.15518 0.507 0.93592 0.0
H192 H 0.99227 0.45993 0.91723 0.0
H193 H 0.95983 0.4374 0.9197 0.0
H194 H 0.92342 0.44355 0.95573 0.0
H195 H 0.95945 0.46617 0.95317 0.0
H196 H 0.09433 0.56883 0.96848 0.0
H197 H 0.13887 0.59108 0.96666 0.0
H198 H 0.08995 0.58964 0.93057 0.0
H199 H 0.04607 0.56728 0.93241 0.0
Nd200 Nd 0.82772 0.27896 0.94192 0.0
Nd201 Nd 0.83335 0.24887 0.94514 0.0
C202 C 0.83788 0.30291 0.93488 0.0
C203 C 0.86665 0.31601 0.93734 0.0
C204 C 0.90161 0.32325 0.92848 0.0
C205 C 0.91722 0.33628 0.92992 0.0
C206 C 0.89796 0.34234 0.94026 0.0
C207 C 0.86649 0.33492 0.94932 0.0
C208 C 0.85097 0.32187 0.94788 0.0
C209 C 0.80563 0.27043 0.96392 0.0
C210 C 1.01296 0.26458 0.94462 0.0
C211 C 0.82541 0.2255 0.95354 0.0
C212 C 0.79187 0.21261 0.95102 0.0
C213 C 0.74026 0.20653 0.95908 0.0
C214 C 0.71477 0.19387 0.95754 0.0
C215 C 0.74085 0.18693 0.94792 0.0
C216 C 0.78991 0.1932 0.93961 0.0
C217 C 0.81516 0.20591 0.94113 0.0
C218 C 0.83423 0.25479 0.9221 0.0
C219 C 0.6529 0.26329 0.94084 0.0
O220 O 0.89462 0.29428 0.93228 0.0
O221 O 0.77482 0.2984 0.94089 0.0
O222 O 0.77222 0.2808 0.95993 0.0
O223 O 0.85655 0.26574 0.95678 0.0
O224 O 0.97171 0.27536 0.94267 0.0
O225 O 0.97481 0.25356 0.94659 0.0
O226 O 0.77044 0.23442 0.95612 0.0
O227 O 0.88883 0.22967 0.94737 0.0
O228 O 0.83432 0.24323 0.92604 0.0
O229 O 0.82922 0.2623 0.93037 0.0
O230 O 0.6922 0.25405 0.94638 0.0
O231 O 0.69555 0.27269 0.93598 0.0
H232 H 0.9135 0.31895 0.92026 0.0
H233 H 0.94063 0.3417 0.92273 0.0
H234 H 0.85221 0.33927 0.95745 0.0
H235 H 0.82411 0.31647 0.95486 0.0
H236 H 0.72124 0.21149 0.96675 0.0
H237 H 0.67549 0.18946 0.964 0.0
H238 H 0.81156 0.18815 0.93212 0.0
H239 H 0.85477 0.21034 0.93473 0.0
Nd240 Nd 1.02356 0.27811 0.82071 0.0
Nd241 Nd 1.00916 0.25034 0.81808 0.0
C242 C 1.01705 0.30258 0.82634 0.0
C243 C 0.98298 0.31547 0.82425 0.0
C244 C 0.9656 0.32326 0.83363 0.0
C245 C 0.94689 0.33617 0.83215 0.0
C246 C 0.94492 0.3416 0.82121 0.0
C247 C 0.95862 0.33362 0.81175 0.0
C248 C 0.97767 0.32067 0.81326 0.0
C249 C 1.04403 0.27007 0.79852 0.0
C250 C 0.83531 0.26544 0.81646 0.0
C251 C 1.01642 0.22562 0.81322 0.0
C252 C 0.05881 0.21312 0.81465 0.0
C253 C 0.07297 0.20562 0.80497 0.0
C254 C 0.09814 0.19288 0.80602 0.0
C255 C 0.11049 0.18741 0.81679 0.0
C256 C 0.10097 0.19508 0.8265 0.0
C257 C 0.07473 0.20783 0.82545 0.0
C258 C 0.97892 0.25873 0.83988 0.0
C259 C 0.19642 0.26291 0.82218 0.0
O260 O 0.96803 0.29396 0.83097 0.0
O261 O 0.06971 0.29788 0.81888 0.0
O262 O 0.0897 0.27878 0.8033 0.0
O263 O 0.98786 0.26604 0.80525 0.0
O264 O 0.87807 0.27491 0.82117 0.0
O265 O 0.87561 0.25549 0.81226 0.0
O266 O 0.05227 0.23437 0.8069 0.0
O267 O 0.97525 0.23033 0.82187 0.0
O268 O 0.93481 0.25011 0.83473 0.0
O269 O 1.03969 0.26254 0.83372 0.0
O270 O 0.15402 0.25364 0.81721 0.0
O271 O 0.15687 0.2728 0.82653 0.0
H272 H 0.97028 0.31947 0.84219 0.0
H273 H 0.93792 0.34201 0.83964 0.0
H274 H 0.95629 0.33744 0.8032 0.0
H275 H 0.99092 0.31484 0.80587 0.0
H276 H 0.0607 0.20944 0.79656 0.0
H277 H 0.10566 0.18718 0.79841 0.0
H278 H 0.10985 0.19104 0.8349 0.0
H279 H 0.06383 0.21336 0.83309 0.0
Nd280 Nd 0.82332 0.5008 0.82136 0.0
Nd281 Nd 0.83387 0.52882 0.81788 0.0
C282 C 0.83258 0.47663 0.82787 0.0
C283 C 0.86475 0.46374 0.82536 0.0
C284 C 0.88761 0.45586 0.83447 0.0
C285 C 0.90632 0.443 0.83268 0.0
C286 C 0.90275 0.43773 0.82169 0.0
C287 C 0.88324 0.44581 0.81248 0.0
C288 C 0.86428 0.45871 0.81429 0.0
C289 C 0.80315 0.50818 0.79892 0.0
C290 C 1.00962 0.51392 0.81721 0.0
C291 C 0.81921 0.55311 0.81167 0.0
C292 C 0.78315 0.56577 0.81455 0.0
C293 C 0.72313 0.57139 0.80727 0.0
C294 C 0.69868 0.58413 0.80874 0.0
C295 C 0.73481 0.59154 0.81742 0.0
C296 C 0.79227 0.58582 0.82498 0.0
C297 C 0.8159 0.57304 0.8236 0.0
C298 C 0.86201 0.52163 0.84007 0.0
C299 C 0.64883 0.51568 0.82221 0.0
O300 O 0.88622 0.48533 0.83129 0.0
O301 O 0.7731 0.48115 0.82128 0.0
O302 O 0.76342 0.49875 0.80359 0.0
O303 O 0.85714 0.51272 0.80567 0.0
O304 O 0.96791 0.50432 0.82187 0.0
O305 O 0.96946 0.52379 0.81284 0.0
O306 O 0.76835 0.54414 0.80804 0.0
O307 O 0.88036 0.54871 0.81803 0.0
O308 O 0.899 0.53105 0.83504 0.0
O309 O 0.80488 0.51691 0.83381 0.0
O310 O 0.69046 0.52467 0.81671 0.0
O311 O 0.69007 0.50636 0.82725 0.0
H312 H 0.8876 0.45953 0.84308 0.0
H313 H 0.91984 0.43707 0.84 0.0
H314 H 0.88116 0.44211 0.80389 0.0
H315 H 0.84684 0.46463 0.80711 0.0
H316 H 0.69767 0.56609 0.80014 0.0
H317 H 0.65472 0.58837 0.80275 0.0
H318 H 0.82054 0.59133 0.83178 0.0
H319 H 0.86241 0.56904 0.82936 0.0
Nd320 Nd 0.08123 0.99986 0.56806 0.0
Nd321 Nd 0.06884 0.02782 0.57093 0.0
C322 C 0.07032 0.97536 0.56242 0.0
C323 C 1.03185 0.96268 0.56462 0.0
C324 C 0.98762 0.95652 0.55584 0.0
C325 C 0.96325 0.94373 0.55693 0.0
C326 C 0.98301 0.93677 0.56682 0.0
C327 C 1.02407 0.94312 0.5758 0.0
C328 C 0.04828 0.95592 0.57472 0.0
C329 C 0.10171 1.00787 0.59019 0.0
C330 C 0.89486 1.01292 0.57156 0.0
C331 C 0.07681 0.05211 0.57697 0.0
C332 C 0.11515 0.06482 0.57531 0.0
C333 C 0.1458 0.07136 0.58486 0.0
C334 C 0.16683 0.08427 0.58412 0.0
C335 C 0.1575 0.09092 0.57382 0.0
C336 C 0.13211 0.08416 0.56407 0.0
C337 C 0.11081 0.07122 0.56481 0.0
C338 C 0.05044 0.02 0.54872 0.0
C339 C 0.25632 0.01484 0.56705 0.0
O340 O 1.02451 0.98425 0.55761 0.0
O341 O 0.12373 0.97987 0.56988 0.0
O342 O 0.14408 0.99866 0.58566 0.0
O343 O 0.04615 1.01203 0.58347 0.0
O344 O 0.93746 1.0038 0.56638 0.0
O345 O 0.93506 0.02239 0.57653 0.0
O346 O 0.12157 0.04319 0.58193 0.0
O347 O 1.02632 0.04777 0.56907 0.0
O348 O 1.00524 0.02883 0.55342 0.0
O349 O 0.10557 0.01577 0.55552 0.0
O350 O 0.21405 0.02458 0.57138 0.0
O351 O 0.21669 1.00475 0.56304 0.0
H352 H 0.97507 0.96143 0.54791 0.0
H353 H 0.93246 0.93913 0.54979 0.0
H354 H 1.03905 0.93811 0.58361 0.0
H355 H 0.08244 0.96037 0.58165 0.0
H356 H 0.14947 0.06664 0.59304 0.0
H357 H 0.18754 0.08919 0.59173 0.0
H358 H 0.12409 0.08905 0.55602 0.0
H359 H 0.08722 0.06641 0.5573 0.0
Nd360 Nd 0.26337 0.27871 0.5679 0.0
Nd361 Nd 0.27104 0.25043 0.57121 0.0
C362 C 0.27462 0.30292 0.56145 0.0
C363 C 0.31177 0.31564 0.56376 0.0
C364 C 0.35091 0.32229 0.55483 0.0
C365 C 0.37537 0.33503 0.55617 0.0
C366 C 0.36114 0.34146 0.56649 0.0
C367 C 0.32475 0.33464 0.57559 0.0
C368 C 0.30027 0.32186 0.57424 0.0
C369 C 0.24264 0.2714 0.59023 0.0
C370 C 0.44847 0.26513 0.57157 0.0
C371 C 0.26008 0.22633 0.57787 0.0
C372 C 0.22691 0.21333 0.5763 0.0
C373 C 0.21447 0.20582 0.58601 0.0
C374 C 0.19876 0.19278 0.58501 0.0
C375 C 0.19448 0.18702 0.57425 0.0
C376 C 0.20145 0.19468 0.56448 0.0
C377 C 0.21822 0.20777 0.56549 0.0
C378 C 0.28729 0.25774 0.54875 0.0
C379 C 0.08695 0.26393 0.56769 0.0
O380 O 0.32358 0.29395 0.55736 0.0
O381 O 0.2175 0.29861 0.56852 0.0
O382 O 0.2063 0.28118 0.58563 0.0
O383 O 0.29546 0.26645 0.58347 0.0
O384 O 0.40739 0.27495 0.56723 0.0
O385 O 0.40811 0.25514 0.57567 0.0
O386 O 0.20945 0.23523 0.58165 0.0
O387 O 0.31605 0.2305 0.57059 0.0
O388 O 0.32568 0.2481 0.55327 0.0
O389 O 0.23626 0.26261 0.55577 0.0
O390 O 0.12844 0.25468 0.57286 0.0
O391 O 0.12803 0.27335 0.56269 0.0
H392 H 0.35962 0.31776 0.54664 0.0
H393 H 0.40216 0.33998 0.54893 0.0
H394 H 0.31403 0.33922 0.58371 0.0
H395 H 0.2702 0.317 0.5813 0.0
H396 H 0.22116 0.20993 0.59441 0.0
H397 H 0.19283 0.18708 0.59266 0.0
H398 H 0.19852 0.19042 0.5561 0.0
H399 H 0.22793 0.21341 0.55787 0.0
Nd400 Nd 0.07845 0.27905 0.69424 0.0
Nd401 Nd 0.07298 0.24924 0.6907 0.0
C402 C 0.06528 0.30324 0.70062 0.0
C403 C 1.02937 0.31592 0.69774 0.0
C404 C 0.97298 0.32183 0.70534 0.0
C405 C 0.94834 0.33455 0.70373 0.0
C406 C 0.98029 0.34168 0.69455 0.0
C407 C 1.03406 0.33561 0.68669 0.0
C408 C 0.05822 0.32287 0.68825 0.0
C409 C 0.10672 0.27074 0.67244 0.0
C410 C 0.8929 0.26478 0.69111 0.0
C411 C 0.07957 0.22632 0.68145 0.0
C412 C 0.10699 0.21315 0.68374 0.0
C413 C 0.1328 0.20555 0.67458 0.0
C414 C 0.14924 0.19259 0.67617 0.0
C415 C 0.14098 0.18707 0.68698 0.0
C416 C 0.11925 0.19478 0.69629 0.0
C417 C 0.10203 0.20777 0.69468 0.0
C418 C 0.07922 0.2543 0.71383 0.0
C419 C 0.25271 0.26372 0.69486 0.0
O420 O 1.014 0.29429 0.70426 0.0
O421 O 0.12647 0.29884 0.69423 0.0
O422 O 0.14356 0.2806 0.67684 0.0
O423 O 0.05213 0.26615 0.67913 0.0
O424 O 0.93443 0.27561 0.69272 0.0
O425 O 0.93139 0.25372 0.68962 0.0
O426 O 0.13889 0.23491 0.67996 0.0
O427 O 1.01429 0.23053 0.68722 0.0
O428 O 0.07824 0.24289 0.70958 0.0
O429 O 0.07934 0.26228 0.70584 0.0
O430 O 0.21309 0.25481 0.68897 0.0
O431 O 0.21028 0.27273 0.70028 0.0
H432 H 0.95049 0.31677 0.71279 0.0
H433 H 0.90737 0.33897 0.70999 0.0
H434 H 0.05887 0.34081 0.67945 0.0
H435 H 0.10177 0.31863 0.68222 0.0
H436 H 0.13725 0.20955 0.6661 0.0
H437 H 0.16609 0.18677 0.6689 0.0
H438 H 0.11212 0.19064 0.70468 0.0
H439 H 0.08236 0.21349 0.70187 0.0
Nd440 Nd 0.2571 0.99967 0.69482 0.0
Nd441 Nd 0.26806 0.02778 0.69168 0.0
C442 C 0.26578 0.97531 0.70093 0.0
C443 C 0.30462 0.96264 0.69915 0.0
C444 C 0.31269 0.95449 0.70852 0.0
C445 C 0.33883 0.94185 0.7071 0.0
C446 C 0.35823 0.93703 0.69623 0.0
C447 C 0.35246 0.94538 0.68684 0.0
C448 C 0.32568 0.95806 0.68828 0.0
C449 C 0.23428 1.00742 0.67266 0.0
C450 C 0.44357 1.01287 0.69073 0.0
C451 C 0.25868 0.0521 0.68561 0.0
C452 C 0.22322 0.06494 0.68747 0.0
C453 C 0.19053 0.07158 0.6781 0.0
C454 C 0.17188 0.08456 0.67891 0.0
C455 C 0.18573 0.09119 0.68912 0.0
C456 C 0.21333 0.08437 0.69873 0.0
C457 C 0.23225 0.07134 0.69791 0.0
C458 C 0.28594 0.0202 0.71403 0.0
C459 C 0.08249 0.01467 0.69524 0.0
O460 O 0.3107 0.98427 0.7058 0.0
O461 O 0.21518 0.97965 0.69304 0.0
O462 O 0.19524 0.99788 0.67725 0.0
O463 O 0.28969 1.01189 0.67929 0.0
O464 O 0.40189 1.00326 0.69539 0.0
O465 O 0.40286 0.02272 0.68644 0.0
O466 O 0.21033 0.04326 0.68121 0.0
O467 O 0.31285 0.04768 0.69302 0.0
O468 O 0.32879 0.02928 0.70932 0.0
O469 O 0.23206 0.01572 0.70718 0.0
O470 O 0.1247 0.0238 0.69 0.0
O471 O 0.12256 1.00518 0.70025 0.0
H472 H 0.29583 0.95777 0.71696 0.0
H473 H 0.34077 0.93574 0.71452 0.0
H474 H 0.36795 0.9421 0.67837 0.0
H475 H 0.31971 0.96417 0.6809 0.0
H476 H 0.1833 0.06685 0.66997 0.0
H477 H 0.1493 0.08952 0.67142 0.0
H478 H 0.22474 0.08923 0.70671 0.0
H479 H 0.25755 0.06645 0.70528 0.0
Nd480 Nd 1.0184 1.00132 0.44102 0.0
Nd481 Nd 1.00847 0.0295 0.44468 0.0
C482 C 1.01029 0.97742 0.43376 0.0
C483 C 0.97779 0.96439 0.43541 0.0
C484 C 0.97602 0.95622 0.42602 0.0
C485 C 0.95693 0.94331 0.42737 0.0
C486 C 0.93847 0.93826 0.43819 0.0
C487 C 0.93734 0.94662 0.44758 0.0
C488 C 0.95718 0.95958 0.44621 0.0
C489 C 1.03811 1.00816 0.46353 0.0
C490 C 0.83283 0.01447 0.44575 0.0
C491 C 1.02066 0.05392 0.45063 0.0
C492 C 0.05777 0.06665 0.44814 0.0
C493 C 0.11932 0.07181 0.45544 0.0
C494 C 0.14483 0.08456 0.45436 0.0
C495 C 0.10869 0.09254 0.44602 0.0
C496 C 0.04949 0.0872 0.43843 0.0
C497 C 1.02436 0.07444 0.43947 0.0
C498 C 0.98138 0.02212 0.42251 0.0
C499 C 0.19377 0.0163 0.44083 0.0
O500 O 0.95814 0.98631 0.43028 0.0
O501 O 0.06656 0.98155 0.44102 0.0
O502 O 0.07524 0.99854 0.45878 0.0
O503 O 0.98583 1.0132 0.45677 0.0
O504 O 0.87368 1.00486 0.44098 0.0
O505 O 0.87362 0.02435 0.45 0.0
O506 O 0.06922 0.04498 0.45485 0.0
O507 O 0.96337 0.04945 0.4437 0.0
O508 O 0.94168 0.03129 0.42752 0.0
O509 O 1.03871 0.01762 0.42885 0.0
O510 O 0.15169 0.02543 0.44606 0.0
O511 O 0.15321 1.00691 0.43578 0.0
H512 H 0.9927 0.95973 0.41764 0.0
H513 H 0.96011 0.9372 0.41997 0.0
H514 H 0.92223 0.94313 0.45601 0.0
H515 H 0.95849 0.96576 0.45359 0.0
H516 H 0.14573 0.06611 0.46226 0.0
H517 H 0.1918 0.08822 0.46022 0.0
H518 H 1.01945 0.09303 0.43198 0.0
H519 H 0.97612 0.07084 0.43376 0.0
Nd520 Nd 0.81785 0.77843 0.44175 0.0
Nd521 Nd 0.83071 0.75055 0.44466 0.0
C522 C 0.8282 0.80278 0.43568 0.0
C523 C 0.85998 0.81574 0.43811 0.0
C524 C 0.89665 0.82278 0.42924 0.0
C525 C 0.91367 0.83578 0.43056 0.0
C526 C 0.89408 0.84204 0.4408 0.0
C527 C 0.86126 0.83482 0.44989 0.0
C528 C 0.84431 0.82179 0.44856 0.0
C529 C 0.79973 0.77068 0.46408 0.0
C530 C 1.00396 0.76551 0.44571 0.0
C531 C 0.8211 0.7259 0.44987 0.0
C532 C 0.78328 0.71332 0.44698 0.0
C533 C 0.7256 0.70755 0.45451 0.0
C534 C 0.69989 0.69488 0.45293 0.0
C535 C 0.73203 0.68763 0.44384 0.0
C536 C 0.7871 0.69356 0.43605 0.0
C537 C 0.81236 0.70625 0.43759 0.0
C538 C 0.85606 0.75862 0.42263 0.0
C539 C 0.6432 0.76346 0.44081 0.0
O540 O 0.88127 0.79411 0.43207 0.0
O541 O 0.76903 0.79816 0.44226 0.0
O542 O 0.75685 0.77981 0.45948 0.0
O543 O 0.85405 0.7664 0.45724 0.0
O544 O 0.96176 0.77446 0.44021 0.0
O545 O 0.96318 0.75616 0.45082 0.0
O546 O 0.77331 0.7346 0.45462 0.0
O547 O 0.87691 0.73074 0.44288 0.0
O548 O 0.89949 0.74975 0.42755 0.0
O549 O 0.79786 0.76268 0.42905 0.0
O550 O 0.68566 0.75389 0.44537 0.0
O551 O 0.68308 0.77338 0.43653 0.0
H552 H 0.90848 0.81835 0.42107 0.0
H553 H 0.93817 0.84106 0.42335 0.0
H554 H 0.84674 0.83931 0.45795 0.0
H555 H 0.81607 0.81658 0.45557 0.0
H556 H 0.70296 0.71267 0.46191 0.0
H557 H 0.65797 0.69056 0.45914 0.0
H558 H 0.81217 0.68828 0.42888 0.0
H559 H 0.85711 0.71035 0.43163 0.0
Nd560 Nd 1.02039 0.77796 0.31957 0.0
Nd561 Nd 1.01338 0.74835 0.31801 0.0
C562 C 1.01061 0.80298 0.32123 0.0
C563 C 0.97255 0.81576 0.32253 0.0
C564 C 0.98485 0.82265 0.33261 0.0
C565 C 0.96771 0.83573 0.33297 0.0
C566 C 0.93867 0.84217 0.32323 0.0
C567 C 0.92114 0.8351 0.31337 0.0
C568 C 0.93796 0.82203 0.31302 0.0
C569 C 0.05504 0.76745 0.29867 0.0
C570 C 0.83509 0.76373 0.31815 0.0
C571 C 1.02252 0.72478 0.31011 0.0
C572 C 0.05715 0.71193 0.31232 0.0
C573 C 0.0845 0.70463 0.30304 0.0
C574 C 0.10903 0.69193 0.30453 0.0
C575 C 0.10759 0.68634 0.31536 0.0
C576 C 0.08389 0.69377 0.32478 0.0
C577 C 0.05836 0.7065 0.32327 0.0
C578 C 1.00078 0.75497 0.34071 0.0
C579 C 0.19552 0.76301 0.32234 0.0
O580 O 1.02833 0.79574 0.33003 0.0
O581 O 0.99628 0.79666 0.31186 0.0
O582 O 0.09981 0.77641 0.30325 0.0
O583 O 0.99547 0.7641 0.30518 0.0
O584 O 0.87748 0.77399 0.32141 0.0
O585 O 0.87403 0.75321 0.31481 0.0
O586 O 0.07625 0.73376 0.30724 0.0
O587 O 0.96099 0.72883 0.31668 0.0
O588 O 1.00338 0.74332 0.33704 0.0
O589 O 1.00899 0.76252 0.33245 0.0
O590 O 0.15647 0.75303 0.3179 0.0
O591 O 0.1546 0.77337 0.32551 0.0
H592 H 1.012 0.81811 0.34004 0.0
H593 H 0.98036 0.8409 0.34076 0.0
H594 H 0.89935 0.83978 0.3057 0.0
H595 H 0.92865 0.81703 0.30506 0.0
H596 H 0.08434 0.70864 0.29454 0.0
H597 H 0.12748 0.68638 0.29717 0.0
H598 H 0.08202 0.6896 0.3332 0.0
H599 H 1.03763 0.71196 0.33057 0.0
Nd600 Nd 0.82354 1.00101 0.32094 0.0
Nd601 Nd 0.82874 0.03108 0.31749 0.0
C602 C 0.83527 0.97712 0.3279 0.0
C603 C 0.87097 0.96439 0.32564 0.0
C604 C 0.90727 0.95767 0.33471 0.0
C605 C 0.92709 0.94477 0.33357 0.0
C606 C 0.91065 0.93833 0.32334 0.0
C607 C 0.87977 0.94527 0.31398 0.0
C608 C 0.85983 0.95822 0.31513 0.0
C609 C 0.80113 1.00934 0.29893 0.0
C610 C 1.00859 0.01534 0.31767 0.0
C611 C 0.81914 0.05435 0.3089 0.0
C612 C 0.78419 0.06718 0.31121 0.0
C613 C 0.73906 0.07346 0.3026 0.0
C614 C 0.71263 0.08609 0.30401 0.0
C615 C 0.73104 0.09277 0.31408 0.0
C616 C 0.77322 0.08629 0.32292 0.0
C617 C 0.79963 0.07362 0.3215 0.0
C618 C 0.83045 0.02523 0.34057 0.0
C619 C 0.64853 0.01641 0.32154 0.0
O620 O 0.8863 0.98611 0.33148 0.0
O621 O 0.77579 0.98125 0.32108 0.0
O622 O 0.7675 0.99904 0.30303 0.0
O623 O 0.85227 1.01411 0.30601 0.0
O624 O 0.96739 1.00455 0.31968 0.0
O625 O 0.97006 0.02636 0.31578 0.0
O626 O 0.76516 0.04528 0.30634 0.0
O627 O 0.88235 0.05041 0.31522 0.0
O628 O 0.83093 0.03679 0.3366 0.0
O629 O 0.82441 0.01778 0.33228 0.0
O630 O 0.68812 0.02561 0.31599 0.0
O631 O 0.69076 1.00717 0.32668 0.0
H632 H 0.91643 0.96225 0.34287 0.0
H633 H 0.95222 0.9397 0.34086 0.0
H634 H 0.8664 0.94053 0.306 0.0
H635 H 0.83204 0.96322 0.30798 0.0
H636 H 0.72605 0.06868 0.29462 0.0
H637 H 0.67884 0.09069 0.29713 0.0
H638 H 0.78872 0.09116 0.33076 0.0
H639 H 0.83403 0.06899 0.32832 0.0
Nd640 Nd 0.58066 0.49772 0.56758 0.0
Nd641 Nd 0.58318 0.52931 0.57157 0.0
C642 C 0.57371 0.47463 0.55865 0.0
C643 C 0.53891 0.46175 0.56062 0.0
C644 C 0.52932 0.45355 0.55133 0.0
C645 C 0.50224 0.44097 0.55291 0.0
C646 C 0.48361 0.4363 0.56386 0.0
C647 C 0.49162 0.44468 0.57317 0.0
C648 C 0.51907 0.4573 0.57157 0.0
C649 C 0.58507 0.5046 0.59041 0.0
C650 C 0.40165 0.51347 0.57131 0.0
C651 C 0.59539 0.55224 0.58063 0.0
C652 C 0.61306 0.56552 0.57734 0.0
C653 C 0.66076 0.57319 0.5847 0.0
C654 C 0.67403 0.58607 0.5822 0.0
C655 C 0.63924 0.59143 0.57233 0.0
C656 C 0.59346 0.58371 0.56478 0.0
C657 C 0.58099 0.57077 0.56721 0.0
C658 C 0.58097 0.52292 0.5487 0.0
C659 C 0.76098 0.51321 0.56895 0.0
O660 O 0.51988 0.48371 0.55601 0.0
O661 O 0.6345 0.47842 0.56547 0.0
O662 O 0.58221 0.49279 0.58702 0.0
O663 O 0.58186 0.51159 0.58179 0.0
O664 O 0.43913 0.50281 0.56793 0.0
O665 O 0.44276 0.52403 0.57421 0.0
O666 O 0.65921 0.54427 0.58011 0.0
O667 O 0.52335 0.54728 0.57723 0.0
O668 O 0.57903 0.53463 0.55235 0.0
O669 O 0.58499 0.51561 0.55716 0.0
O670 O 0.72167 0.52313 0.5735 0.0
O671 O 0.72001 0.50341 0.56438 0.0
H672 H 0.54466 0.45679 0.54282 0.0
H673 H 0.49837 0.43481 0.54555 0.0
H674 H 0.47681 0.44149 0.58171 0.0
H675 H 0.52582 0.46351 0.57887 0.0
H676 H 0.68612 0.56929 0.59253 0.0
H677 H 0.70889 0.59194 0.58816 0.0
H678 H 0.56611 0.58775 0.55713 0.0
H679 H 0.54472 0.56498 0.56134 0.0
Nd680 Nd 0.76453 0.77905 0.56848 0.0
Nd681 Nd 0.77006 0.74898 0.5715 0.0
C682 C 0.77341 0.80322 0.56198 0.0
C683 C 0.81372 0.81587 0.56316 0.0
C684 C 0.81731 0.82378 0.55358 0.0
C685 C 0.84402 0.83645 0.55454 0.0
C686 C 0.86854 0.84151 0.56512 0.0
C687 C 0.86763 0.83338 0.57469 0.0
C688 C 0.84016 0.82068 0.57373 0.0
C689 C 0.73819 0.77007 0.59015 0.0
C690 C 0.94983 0.76476 0.57109 0.0
C691 C 0.76455 0.72578 0.58019 0.0
C692 C 0.73556 0.71277 0.5775 0.0
C693 C 0.69139 0.70586 0.58581 0.0
C694 C 0.67122 0.69305 0.58405 0.0
C695 C 0.69534 0.68685 0.57395 0.0
C696 C 0.73601 0.69396 0.56539 0.0
C697 C 0.75593 0.70683 0.56714 0.0
C698 C 0.76384 0.75468 0.54855 0.0
C699 C 0.58948 0.76355 0.56771 0.0
O700 O 0.81518 0.79408 0.55687 0.0
O701 O 0.72613 0.79918 0.57038 0.0
O702 O 0.70366 0.78035 0.58617 0.0
O703 O 0.79165 0.76562 0.58323 0.0
O704 O 0.90854 0.77566 0.56977 0.0
O705 O 0.91158 0.75364 0.57241 0.0
O706 O 0.70609 0.73438 0.58218 0.0
O707 O 0.82942 0.73021 0.57445 0.0
O708 O 0.76567 0.74314 0.55254 0.0
O709 O 0.76312 0.76242 0.55672 0.0
O710 O 0.62931 0.75427 0.57312 0.0
O711 O 0.63134 0.77302 0.56284 0.0
H712 H 0.79628 0.8203 0.54538 0.0
H713 H 0.84217 0.84238 0.547 0.0
H714 H 0.88726 0.83685 0.58294 0.0
H715 H 0.83773 0.81474 0.58126 0.0
H716 H 0.67457 0.71029 0.59382 0.0
H717 H 0.63828 0.68791 0.59071 0.0
H718 H 0.75572 0.68946 0.55754 0.0
H719 H 0.78953 0.71199 0.56055 0.0
Nd720 Nd 0.57699 0.77964 0.69431 0.0
Nd721 Nd 0.57276 0.74949 0.69028 0.0
C722 C 0.56256 0.8036 0.70129 0.0
C723 C 0.52713 0.81634 0.69856 0.0
C724 C 0.48445 0.82311 0.70709 0.0
C725 C 0.45953 0.83577 0.70535 0.0
C726 C 0.47679 0.842 0.69499 0.0
C727 C 0.51701 0.83504 0.68628 0.0
C728 C 0.54194 0.82234 0.68804 0.0
C729 C 0.60272 0.77165 0.67231 0.0
C730 C 0.39207 0.76504 0.69109 0.0
C731 C 0.58142 0.72645 0.68129 0.0
C732 C 0.60664 0.71323 0.68405 0.0
C733 C 0.66395 0.7069 0.67689 0.0
C734 C 0.682 0.69397 0.67853 0.0
C735 C 0.64248 0.68705 0.68732 0.0
C736 C 0.58765 0.69355 0.69477 0.0
C737 C 0.57001 0.70652 0.69317 0.0
C738 C 0.57642 0.75458 0.7134 0.0
C739 C 0.75118 0.76426 0.69471 0.0
O740 O 0.51013 0.79456 0.70441 0.0
O741 O 0.62539 0.79942 0.69505 0.0
O742 O 0.63355 0.78213 0.67639 0.0
O743 O 0.55128 0.76669 0.67922 0.0
O744 O 0.43335 0.77566 0.69371 0.0
O745 O 0.43143 0.75428 0.68849 0.0
O746 O 0.64204 0.73493 0.68019 0.0
O747 O 0.51335 0.73097 0.68625 0.0
O748 O 0.57346 0.74315 0.70921 0.0
O749 O 0.57819 0.76244 0.70536 0.0
O750 O 0.71241 0.75555 0.68848 0.0
O751 O 0.70862 0.77313 0.70029 0.0
H752 H 0.47291 0.81874 0.7153 0.0
H753 H 0.42976 0.84083 0.71231 0.0
H754 H 0.5302 0.83945 0.67814 0.0
H755 H 0.5746 0.81735 0.68128 0.0
H756 H 0.69321 0.71188 0.66983 0.0
H757 H 0.72591 0.68935 0.67278 0.0
H758 H 0.5556 0.68853 0.70158 0.0
H759 H 0.52575 0.71116 0.69886 0.0
Nd760 Nd 0.76391 0.49976 0.69429 0.0
Nd761 Nd 0.77318 0.52788 0.69118 0.0
C762 C 0.77483 0.47535 0.70022 0.0
C763 C 0.81057 0.46261 0.69744 0.0
C764 C 0.87772 0.45761 0.70391 0.0
C765 C 0.90317 0.44489 0.70257 0.0
C766 C 0.86144 0.43679 0.69483 0.0
C767 C 0.79622 0.44196 0.68808 0.0
C768 C 0.77113 0.45469 0.68937 0.0
C769 C 0.74184 0.50749 0.67207 0.0
C770 C 0.94966 0.51314 0.69045 0.0
C771 C 0.75851 0.55202 0.68469 0.0
C772 C 0.72764 0.56492 0.68757 0.0
C773 C 0.67688 0.57147 0.67968 0.0
C774 C 0.65906 0.58443 0.68116 0.0
C775 C 0.69269 0.59108 0.69048 0.0
C776 C 0.74002 0.58441 0.69866 0.0
C777 C 0.75698 0.57141 0.69726 0.0
C778 C 0.79116 0.52062 0.71364 0.0
C779 C 0.58859 0.51445 0.69467 0.0
O780 O 0.82518 0.48419 0.70426 0.0
O781 O 0.71606 0.47995 0.69356 0.0
O782 O 0.70326 0.49788 0.67661 0.0
O783 O 0.79634 0.51203 0.67877 0.0
O784 O 0.90834 0.5034 0.6949 0.0
O785 O 0.90937 0.52312 0.68635 0.0
O786 O 0.70318 0.54325 0.682 0.0
O787 O 0.82294 0.54755 0.6904 0.0
O788 O 0.82965 0.53017 0.70899 0.0
O789 O 0.739 0.51575 0.70675 0.0
O790 O 0.63066 0.52351 0.68932 0.0
O791 O 0.62951 0.50515 0.69983 0.0
H792 H 0.90893 0.46341 0.71027 0.0
H793 H 0.9547 0.44136 0.70778 0.0
H794 H 0.76172 0.43603 0.68213 0.0
H795 H 0.71847 0.45814 0.68433 0.0
H796 H 0.65428 0.5667 0.6721 0.0
H797 H 0.62296 0.58942 0.6747 0.0
H798 H 0.7661 0.58936 0.70594 0.0
H799 H 0.79614 0.56661 0.7035 0.0
Nd800 Nd 0.51578 0.50025 0.44209 0.0
Nd801 Nd 0.51377 0.53056 0.44542 0.0
C802 C 0.50153 0.47645 0.43486 0.0
C803 C 0.47416 0.46345 0.43796 0.0
C804 C 0.42959 0.45619 0.42992 0.0
C805 C 0.41345 0.44326 0.43188 0.0
C806 C 0.44256 0.43737 0.44185 0.0
C807 C 0.48409 0.44472 0.45012 0.0
C808 C 0.49926 0.45771 0.44824 0.0
C809 C 0.53789 0.50841 0.46417 0.0
C810 C 0.33228 0.5152 0.44481 0.0
C811 C 0.52428 0.55416 0.4533 0.0
C812 C 0.55593 0.56708 0.45026 0.0
C813 C 0.62386 0.57239 0.45636 0.0
C814 C 0.64899 0.58503 0.45451 0.0
C815 C 0.60625 0.59278 0.44658 0.0
C816 C 0.53997 0.58732 0.44019 0.0
C817 C 0.51511 0.57464 0.44201 0.0
C818 C 0.51449 0.52429 0.4224 0.0
C819 C 0.69159 0.51551 0.44171 0.0
O820 O 0.44299 0.48508 0.43313 0.0
O821 O 0.56922 0.48096 0.43987 0.0
O822 O 0.56617 0.49767 0.46025 0.0
O823 O 0.48939 0.51358 0.45697 0.0
O824 O 0.37278 0.50449 0.44232 0.0
O825 O 0.37196 0.52599 0.44731 0.0
O826 O 0.58064 0.54532 0.45558 0.0
O827 O 0.45818 0.54976 0.4478 0.0
O828 O 0.51482 0.53592 0.42613 0.0
O829 O 0.518 0.51705 0.43084 0.0
O830 O 0.6528 0.52453 0.44756 0.0
O831 O 0.64873 0.50653 0.43631 0.0
H832 H 0.41024 0.4604 0.42192 0.0
H833 H 0.38197 0.43771 0.42535 0.0
H834 H 0.50679 0.44033 0.45789 0.0
H835 H 0.53343 0.46312 0.4546 0.0
H836 H 0.65645 0.56683 0.46278 0.0
H837 H 0.70139 0.58878 0.45942 0.0
H838 H 0.50495 0.59298 0.43409 0.0
H839 H 0.46229 0.57089 0.43716 0.0
Nd840 Nd 0.31642 0.27825 0.44129 0.0
Nd841 Nd 0.32653 0.25039 0.44534 0.0
C842 C 0.3318 0.30232 0.43459 0.0
C843 C 0.36169 0.31523 0.43765 0.0
C844 C 0.41839 0.32151 0.43036 0.0
C845 C 0.43751 0.3344 0.43195 0.0
C846 C 0.39964 0.34135 0.44083 0.0
C847 C 0.34606 0.33488 0.44848 0.0
C848 C 0.32727 0.32195 0.44691 0.0
C849 C 0.2961 0.27154 0.46386 0.0
C850 C 0.50093 0.26512 0.44561 0.0
C851 C 0.31316 0.22621 0.4519 0.0
C852 C 0.27744 0.21349 0.44905 0.0
C853 C 0.21639 0.20792 0.45621 0.0
C854 C 0.19162 0.19519 0.45471 0.0
C855 C 0.22817 0.1877 0.44609 0.0
C856 C 0.28667 0.19343 0.43864 0.0
C857 C 0.31091 0.20617 0.44008 0.0
C858 C 0.35571 0.25704 0.42302 0.0
C859 C 0.14058 0.26348 0.44063 0.0
O860 O 0.38825 0.29357 0.43233 0.0
O861 O 0.26552 0.29783 0.4399 0.0
O862 O 0.25617 0.2808 0.459 0.0
O863 O 0.35004 0.26683 0.45722 0.0
O864 O 0.45924 0.27375 0.43968 0.0
O865 O 0.45955 0.25619 0.45123 0.0
O866 O 0.26175 0.23518 0.45541 0.0
O867 O 0.37461 0.23059 0.44555 0.0
O868 O 0.39329 0.24784 0.42831 0.0
O869 O 0.29824 0.26189 0.42915 0.0
O870 O 0.18198 0.25406 0.44559 0.0
O871 O 0.18134 0.2732 0.43611 0.0
H872 H 0.44558 0.31656 0.42314 0.0
H873 H 0.48041 0.33901 0.42604 0.0
H874 H 0.31529 0.33993 0.45537 0.0
H875 H 0.28316 0.31737 0.45268 0.0
H876 H 0.1902 0.21326 0.46327 0.0
H877 H 0.14684 0.19103 0.46064 0.0
H878 H 0.31513 0.18794 0.43183 0.0
H879 H 0.35816 0.21013 0.43439 0.0
Nd880 Nd 0.51578 0.27755 0.32117 0.0
Nd881 Nd 0.50518 0.24972 0.3177 0.0
C882 C 0.50125 0.30172 0.32756 0.0
C883 C 0.47347 0.31464 0.32431 0.0
C884 C 0.42695 0.32184 0.33218 0.0
C885 C 0.41109 0.33476 0.33021 0.0
C886 C 0.44212 0.34074 0.32035 0.0
C887 C 0.4853 0.33338 0.31221 0.0
C888 C 0.50066 0.32041 0.31415 0.0
C889 C 0.53595 0.27046 0.29868 0.0
C890 C 0.33032 0.26438 0.31734 0.0
C891 C 0.51691 0.22546 0.31148 0.0
C892 C 0.55733 0.21294 0.31366 0.0
C893 C 0.59108 0.20613 0.30444 0.0
C894 C 0.61657 0.19343 0.30575 0.0
C895 C 0.60911 0.18735 0.31632 0.0
C896 C 0.57912 0.19428 0.3257 0.0
C897 C 0.55334 0.207 0.32439 0.0
C898 C 0.47434 0.2569 0.33983 0.0
C899 C 0.69114 0.26267 0.32263 0.0
O900 O 0.44342 0.29312 0.32969 0.0
O901 O 0.56786 0.29705 0.32246 0.0
O902 O 0.5767 0.27968 0.30347 0.0
O903 O 0.48178 0.26587 0.3054 0.0
O904 O 0.37269 0.27332 0.32281 0.0
O905 O 0.37115 0.25516 0.31206 0.0
O906 O 0.56209 0.23453 0.30681 0.0
O907 O 0.46288 0.22969 0.319 0.0
O908 O 0.43591 0.24773 0.3346 0.0
O909 O 0.53284 0.26153 0.33371 0.0
O910 O 0.65012 0.25305 0.31795 0.0
O911 O 0.65052 0.27267 0.32659 0.0
H912 H 0.40598 0.3176 0.3401 0.0
H913 H 0.37828 0.34023 0.33667 0.0
H914 H 0.50905 0.33773 0.30448 0.0
H915 H 0.53647 0.31505 0.30791 0.0
H916 H 0.59421 0.21046 0.29608 0.0
H917 H 0.63929 0.18821 0.29841 0.0
H918 H 0.57253 0.18969 0.33391 0.0
H919 H 0.5273 0.21199 0.33165 0.0
Nd920 Nd 0.31838 0.50012 0.32151 0.0
Nd921 Nd 0.33044 0.52819 0.31957 0.0
C922 C 0.32782 0.47567 0.32711 0.0
C923 C 0.35812 0.46285 0.32376 0.0
C924 C 0.42564 0.45718 0.32968 0.0
C925 C 0.44567 0.44433 0.32797 0.0
C926 C 0.39779 0.4368 0.32042 0.0
C927 C 0.33257 0.44266 0.31415 0.0
C928 C 0.31308 0.45553 0.31578 0.0
C929 C 0.2981 0.50845 0.29943 0.0
C930 C 0.50559 0.51333 0.31764 0.0
C931 C 0.32473 0.55323 0.31606 0.0
C932 C 0.2802 0.56566 0.31683 0.0
C933 C 0.25536 0.57196 0.30683 0.0
C934 C 0.22902 0.58471 0.30714 0.0
C935 C 0.22753 0.59152 0.31746 0.0
C936 C 0.24847 0.58501 0.32754 0.0
C937 C 0.27462 0.57225 0.32723 0.0
C938 C 0.36199 0.51875 0.34097 0.0
C939 C 0.14415 0.5152 0.32271 0.0
O940 O 0.38325 0.48415 0.33048 0.0
O941 O 0.26546 0.48064 0.3213 0.0
O942 O 0.26013 0.49866 0.30376 0.0
O943 O 0.35145 0.51291 0.30636 0.0
O944 O 0.46365 0.50337 0.32162 0.0
O945 O 0.46624 0.52378 0.31437 0.0
O946 O 0.30266 0.5449 0.30832 0.0
O947 O 0.35086 0.54793 0.32547 0.0
O948 O 0.40733 0.52738 0.33602 0.0
O949 O 0.30078 0.5153 0.33477 0.0
O950 O 0.18665 0.52465 0.31799 0.0
O951 O 0.18458 0.50545 0.32721 0.0
H952 H 0.46106 0.46255 0.33595 0.0
H953 H 0.49742 0.44022 0.33279 0.0
H954 H 0.29351 0.43718 0.30837 0.0
H955 H 0.26013 0.45955 0.31114 0.0
H956 H 0.25976 0.5672 0.29868 0.0
H957 H 0.21184 0.58934 0.29924 0.0
H958 H 0.24877 0.58995 0.33562 0.0
H959 H 0.2942 0.56776 0.3351 0.0
Nd960 Nd 0.58148 0.99928 0.06759 0.0
Nd961 Nd 0.57677 0.02725 0.07281 0.0
C962 C 0.55972 0.97566 0.05991 0.0
C963 C 0.5309 0.9627 0.06317 0.0
C964 C 0.46776 0.9567 0.05668 0.0
C965 C 0.44603 0.94395 0.05868 0.0
C966 C 0.48745 0.93686 0.06718 0.0
C967 C 0.54878 0.943 0.07393 0.0
C968 C 0.57019 0.95579 0.07197 0.0
C969 C 0.60278 1.0046 0.09033 0.0
C970 C 0.40041 1.01316 0.07175 0.0
C971 C 0.5918 0.05089 0.08059 0.0
C972 C 0.61553 0.06405 0.07738 0.0
C973 C 0.67403 0.07072 0.08411 0.0
C974 C 0.68871 0.08373 0.08227 0.0
C975 C 0.64431 0.09031 0.07374 0.0
C976 C 0.58826 0.08352 0.0667 0.0
C977 C 0.57429 0.07049 0.06846 0.0
C978 C 0.55944 0.0219 0.04993 0.0
C979 C 0.76011 1.01341 0.06871 0.0
O980 O 0.50248 0.9846 0.0589 0.0
O981 O 0.63067 0.97986 0.06424 0.0
O982 O 0.63556 0.99485 0.08527 0.0
O983 O 0.55173 1.01027 0.08386 0.0
O984 O 0.44135 1.00505 0.06521 0.0
O985 O 0.44243 0.02136 0.07808 0.0
O986 O 0.65206 0.04239 0.08152 0.0
O987 O 0.52215 0.04624 0.07624 0.0
O988 O 0.52179 0.03122 0.05506 0.0
O989 O 0.60991 0.01636 0.05659 0.0
O990 O 0.71885 0.02236 0.07434 0.0
O991 O 0.71879 1.00437 0.06321 0.0
H992 H 0.43699 0.96178 0.04979 0.0
H993 H 0.39915 0.93949 0.05325 0.0
H994 H 0.58107 0.93785 0.08064 0.0
H995 H 0.61895 0.96015 0.07716 0.0
H996 H 0.70606 0.06599 0.09109 0.0
H997 H 0.73179 0.08877 0.08787 0.0
H998 H 0.55389 0.08837 0.06 0.0
H999 H 0.52906 0.06559 0.06308 0.0
Nd1000 Nd 0.76474 0.279 0.06875 0.0
Nd1001 Nd 0.76979 0.24906 0.07159 0.0
C1002 C 0.77511 0.30322 0.06246 0.0
C1003 C 0.81568 0.31584 0.06383 0.0
C1004 C 0.83761 0.32269 0.05402 0.0
C1005 C 0.86232 0.33546 0.05474 0.0
C1006 C 0.86567 0.34169 0.0653 0.0
C1007 C 0.84826 0.33464 0.07522 0.0
C1008 C 0.82307 0.32182 0.0745 0.0
C1009 C 0.73684 0.27014 0.0905 0.0
C1010 C 0.94992 0.26478 0.0714 0.0
C1011 C 0.76414 0.22572 0.0801 0.0
C1012 C 0.73784 0.2125 0.07753 0.0
C1013 C 0.6824 0.20626 0.08502 0.0
C1014 C 0.66381 0.19333 0.08361 0.0
C1015 C 0.7009 0.1863 0.07472 0.0
C1016 C 0.75379 0.1927 0.06694 0.0
C1017 C 0.77207 0.20568 0.06832 0.0
C1018 C 0.76509 0.25485 0.04858 0.0
C1019 C 0.5897 0.2637 0.06784 0.0
O1020 O 0.81724 0.2941 0.05738 0.0
O1021 O 0.72581 0.29912 0.07062 0.0
O1022 O 0.70354 0.28044 0.08636 0.0
O1023 O 0.79042 0.26554 0.08362 0.0
O1024 O 0.90857 0.27566 0.07008 0.0
O1025 O 0.91145 0.25366 0.0727 0.0
O1026 O 0.70415 0.23417 0.08175 0.0
O1027 O 0.82993 0.23033 0.07467 0.0
O1028 O 0.76714 0.24331 0.05256 0.0
O1029 O 0.76389 0.26255 0.05678 0.0
O1030 O 0.62924 0.25444 0.07332 0.0
O1031 O 0.63191 0.27308 0.0629 0.0
H1032 H 0.83216 0.3183 0.04572 0.0
H1033 H 0.87674 0.34056 0.04696 0.0
H1034 H 0.85012 0.33919 0.08348 0.0
H1035 H 0.8063 0.31677 0.08221 0.0
H1036 H 0.65514 0.21132 0.09217 0.0
H1037 H 0.62146 0.18878 0.08962 0.0
H1038 H 0.7839 0.18758 0.06004 0.0
H1039 H 0.81498 0.21025 0.06238 0.0
Nd1040 Nd 0.57801 0.28013 0.19489 0.0
Nd1041 Nd 0.58001 0.24849 0.1914 0.0
C1042 C 0.56847 0.30359 0.20302 0.0
C1043 C 0.53668 0.31654 0.20022 0.0
C1044 C 0.47438 0.3221 0.20714 0.0
C1045 C 0.44902 0.33474 0.20543 0.0
C1046 C 0.48594 0.34221 0.19678 0.0
C1047 C 0.54641 0.33649 0.1896 0.0
C1048 C 0.57151 0.3238 0.19129 0.0
C1049 C 0.58046 0.27266 0.17216 0.0
C1050 C 0.39981 0.26426 0.19216 0.0
C1051 C 0.58633 0.22558 0.18225 0.0
C1052 C 0.61202 0.21239 0.18469 0.0
C1053 C 0.63336 0.20446 0.17556 0.0
C1054 C 0.64717 0.19147 0.17733 0.0
C1055 C 0.64032 0.18621 0.18827 0.0
C1056 C 0.62365 0.19429 0.19754 0.0
C1057 C 0.60918 0.20733 0.19575 0.0
C1058 C 0.57436 0.2552 0.21417 0.0
C1059 C 0.75914 0.26422 0.19502 0.0
O1060 O 0.51186 0.29476 0.20523 0.0
O1061 O 0.63425 0.29928 0.19737 0.0
O1062 O 0.57658 0.28455 0.17528 0.0
O1063 O 0.57847 0.266 0.18096 0.0
O1064 O 0.43838 0.27438 0.19648 0.0
O1065 O 0.44119 0.25434 0.18787 0.0
O1066 O 0.64678 0.23405 0.18091 0.0
O1067 O 0.5203 0.22992 0.18783 0.0
O1068 O 0.5739 0.24346 0.21059 0.0
O1069 O 0.57936 0.26247 0.20567 0.0
O1070 O 0.72137 0.25359 0.19161 0.0
O1071 O 0.718 0.27479 0.19791 0.0
H1072 H 0.44647 0.31674 0.21408 0.0
H1073 H 0.40106 0.33871 0.21098 0.0
H1074 H 0.57678 0.34194 0.18292 0.0
H1075 H 0.61976 0.3198 0.18579 0.0
H1076 H 0.63627 0.20823 0.16699 0.0
H1077 H 0.66099 0.18544 0.17008 0.0
H1078 H 0.61798 0.19042 0.20605 0.0
H1079 H 0.59304 0.21334 0.20292 0.0
Nd1080 Nd 0.76053 0.99948 0.19426 0.0
Nd1081 Nd 0.77343 0.02745 0.19151 0.0
C1082 C 0.76532 0.97477 0.19914 0.0
C1083 C 0.80734 0.9622 0.19826 0.0
C1084 C 0.80881 0.95434 0.20789 0.0
C1085 C 0.83495 0.94163 0.20708 0.0
C1086 C 0.86069 0.93647 0.19659 0.0
C1087 C 0.86226 0.94454 0.187 0.0
C1088 C 0.83563 0.95728 0.18781 0.0
C1089 C 0.72894 1.00802 0.17258 0.0
C1090 C 0.94733 1.01227 0.18983 0.0
C1091 C 0.76403 0.05184 0.18578 0.0
C1092 C 0.7251 0.06444 0.18763 0.0
C1093 C 0.70204 0.07163 0.17808 0.0
C1094 C 0.6813 0.0845 0.17917 0.0
C1095 C 0.68318 0.09044 0.18987 0.0
C1096 C 0.7004 0.08304 0.19957 0.0
C1097 C 0.72165 0.07012 0.19846 0.0
C1098 C 0.7968 0.01959 0.21365 0.0
C1099 C 0.58593 0.01457 0.19565 0.0
O1100 O 0.79707 0.98349 0.20586 0.0
O1101 O 0.73056 0.97949 0.18999 0.0
O1102 O 0.68498 0.99935 0.17771 0.0
O1103 O 0.78972 1.01181 0.17869 0.0
O1104 O 0.90562 1.00269 0.1945 0.0
O1105 O 0.9076 0.02239 0.18593 0.0
O1106 O 0.71975 0.04296 0.18072 0.0
O1107 O 0.81465 0.04742 0.19363 0.0
O1108 O 0.83914 0.02861 0.20876 0.0
O1109 O 0.74062 0.01522 0.20705 0.0
O1110 O 0.62859 0.02413 0.19108 0.0
O1111 O 0.62603 1.00458 0.19982 0.0
H1112 H 0.78616 0.95787 0.216 0.0
H1113 H 0.83144 0.93572 0.21462 0.0
H1114 H 0.88291 0.94097 0.17881 0.0
H1115 H 0.83484 0.96313 0.18022 0.0
H1116 H 0.70442 0.06745 0.16966 0.0
H1117 H 0.66703 0.08996 0.17158 0.0
H1118 H 0.70233 0.0874 0.20791 0.0
H1119 H 0.73924 0.06476 0.20598 0.0
Nd1120 Nd 0.52196 1.00088 0.94408 0.0
Nd1121 Nd 0.5158 0.03033 0.94471 0.0
C1122 C 0.50701 0.97591 0.94359 0.0
C1123 C 0.47108 0.96313 0.94173 0.0
C1124 C 0.46961 0.95751 0.93091 0.0
C1125 C 0.45114 0.94451 0.92975 0.0
C1126 C 0.43467 0.93694 0.93939 0.0
C1127 C 0.43206 0.94278 0.95013 0.0
C1128 C 0.45003 0.95572 0.95127 0.0
C1129 C 0.55822 1.01215 0.96471 0.0
C1130 C 0.33832 0.01524 0.94452 0.0
C1131 C 0.52617 0.05414 0.95194 0.0
C1132 C 0.5586 0.06697 0.94888 0.0
C1133 C 0.62691 0.07221 0.95498 0.0
C1134 C 0.65176 0.08487 0.9532 0.0
C1135 C 0.60798 0.0926 0.9454 0.0
C1136 C 0.54145 0.08727 0.93905 0.0
C1137 C 0.51717 0.07457 0.94073 0.0
C1138 C 0.49758 0.02313 0.92227 0.0
C1139 C 0.69852 0.0154 0.94048 0.0
O1140 O 0.541 0.98241 0.9352 0.0
O1141 O 0.47826 0.98292 0.95195 0.0
O1142 O 0.6008 1.00279 0.96043 0.0
O1143 O 0.49881 0.01524 0.95812 0.0
O1144 O 0.38109 1.00525 0.94078 0.0
O1145 O 0.37721 0.02543 0.94856 0.0
O1146 O 0.58184 0.04535 0.95462 0.0
O1147 O 0.4613 0.04968 0.94622 0.0
O1148 O 0.49958 0.03486 0.92572 0.0
O1149 O 0.50752 0.01569 0.93059 0.0
O1150 O 0.65949 0.02595 0.94374 0.0
O1151 O 0.65766 1.00465 0.93853 0.0
H1152 H 0.48599 0.96299 0.92342 0.0
H1153 H 0.45233 0.94032 0.92134 0.0
H1154 H 0.42083 0.93722 0.95775 0.0
H1155 H 0.45205 0.95978 0.95974 0.0
H1156 H 0.65939 0.06664 0.9614 0.0
H1157 H 0.70275 0.0888 0.95828 0.0
H1158 H 0.5071 0.09302 0.93293 0.0
H1159 H 0.46424 0.07085 0.93589 0.0
Nd1160 Nd 0.32095 0.77785 0.9418 0.0
Nd1161 Nd 0.33451 0.75028 0.94498 0.0
C1162 C 0.32866 0.80212 0.93571 0.0
C1163 C 0.3679 0.81479 0.93696 0.0
C1164 C 0.39315 0.82124 0.92708 0.0
C1165 C 0.41402 0.83416 0.92749 0.0
C1166 C 0.41011 0.84085 0.93781 0.0
C1167 C 0.39073 0.8342 0.94786 0.0
C1168 C 0.36935 0.82124 0.94744 0.0
C1169 C 0.29837 0.77035 0.96411 0.0
C1170 C 0.50915 0.76532 0.94632 0.0
C1171 C 0.32656 0.72563 0.95015 0.0
C1172 C 0.28316 0.71315 0.9492 0.0
C1173 C 0.27213 0.70585 0.95909 0.0
C1174 C 0.24678 0.6931 0.95841 0.0
C1175 C 0.23164 0.68734 0.94781 0.0
C1176 C 0.23786 0.69486 0.93792 0.0
C1177 C 0.26387 0.70764 0.9386 0.0
C1178 C 0.36676 0.75815 0.92305 0.0
C1179 C 0.14799 0.76287 0.94051 0.0
O1180 O 0.37118 0.79315 0.93052 0.0
O1181 O 0.28087 0.79788 0.94396 0.0
O1182 O 0.25187 0.77874 0.959 0.0
O1183 O 0.35556 0.7662 0.95759 0.0
O1184 O 0.46645 0.77485 0.9417 0.0
O1185 O 0.46909 0.7553 0.95045 0.0
O1186 O 0.29433 0.73452 0.95664 0.0
O1187 O 0.36417 0.73016 0.94113 0.0
O1188 O 0.40989 0.7496 0.92844 0.0
O1189 O 0.3056 0.76211 0.92905 0.0
O1190 O 0.18992 0.75389 0.94597 0.0
O1191 O 0.18839 0.77243 0.93573 0.0
H1192 H 0.39224 0.81646 0.91892 0.0
H1193 H 0.42976 0.83906 0.91965 0.0
H1194 H 0.38707 0.83918 0.95591 0.0
H1195 H 0.34999 0.81647 0.95519 0.0
H1196 H 0.28698 0.70985 0.96734 0.0
H1197 H 0.24129 0.68761 0.96618 0.0
H1198 H 0.22676 0.69068 0.92964 0.0
H1199 H 0.27221 0.71303 0.93081 0.0
Nd1200 Nd 0.52146 0.77822 0.81873 0.0
Nd1201 Nd 0.51542 0.74859 0.8181 0.0
C1202 C 0.49578 0.80286 0.81981 0.0
C1203 C 0.48136 0.81665 0.82043 0.0
C1204 C 0.45208 0.82216 0.83054 0.0
C1205 C 0.43448 0.83521 0.83101 0.0
C1206 C 0.4474 0.84301 0.82141 0.0
C1207 C 0.47697 0.83739 0.8113 0.0
C1208 C 0.49314 0.82431 0.81079 0.0
C1209 C 0.55583 0.76703 0.79811 0.0
C1210 C 0.33817 0.76365 0.8181 0.0
C1211 C 0.52507 0.7248 0.81077 0.0
C1212 C 0.56052 0.712 0.81317 0.0
C1213 C 0.61638 0.70649 0.8053 0.0
C1214 C 0.64303 0.69385 0.80655 0.0
C1215 C 0.61384 0.68635 0.81568 0.0
C1216 C 0.56027 0.69203 0.82381 0.0
C1217 C 0.53383 0.70472 0.82257 0.0
C1218 C 0.49954 0.756 0.84056 0.0
C1219 C 0.69846 0.76373 0.82197 0.0
O1220 O 0.5307 0.79647 0.82818 0.0
O1221 O 0.47525 0.79617 0.81083 0.0
O1222 O 0.59862 0.77648 0.80226 0.0
O1223 O 0.49717 0.76382 0.80481 0.0
O1224 O 0.38091 0.77357 0.82196 0.0
O1225 O 0.37703 0.75343 0.81413 0.0
O1226 O 0.578 0.73378 0.80757 0.0
O1227 O 0.46352 0.72901 0.81727 0.0
O1228 O 0.50069 0.74423 0.83718 0.0
O1229 O 0.50873 0.76329 0.83212 0.0
O1230 O 0.659 0.75312 0.81889 0.0
O1231 O 0.65811 0.77454 0.82391 0.0
H1232 H 0.44135 0.81633 0.83802 0.0
H1233 H 0.41034 0.83916 0.83887 0.0
H1234 H 0.48925 0.84311 0.8038 0.0
H1235 H 0.51573 0.82021 0.8029 0.0
H1236 H 0.63773 0.71186 0.79796 0.0
H1237 H 0.68556 0.68989 0.80024 0.0
H1238 H 0.53596 0.68653 0.83089 0.0
H1239 H 0.49052 0.70867 0.82878 0.0
Nd1240 Nd 0.31744 1.00141 0.82178 0.0
Nd1241 Nd 0.32554 0.02965 0.81803 0.0
C1242 C 0.33101 0.97755 0.8289 0.0
C1243 C 0.36706 0.96482 0.82682 0.0
C1244 C 0.39145 0.95747 0.83622 0.0
C1245 C 0.41067 0.94456 0.83493 0.0
C1246 C 0.40648 0.93885 0.82418 0.0
C1247 C 0.38718 0.94633 0.81462 0.0
C1248 C 0.3674 0.95928 0.81593 0.0
C1249 C 0.29806 1.00832 0.79926 0.0
C1250 C 0.502 0.0148 0.81752 0.0
C1251 C 0.3122 0.05387 0.81158 0.0
C1252 C 0.27375 0.06653 0.81371 0.0
C1253 C 0.2377 0.07318 0.80456 0.0
C1254 C 0.2137 0.08596 0.80574 0.0
C1255 C 0.22535 0.09241 0.8161 0.0
C1256 C 0.2576 0.08555 0.82544 0.0
C1257 C 0.2818 0.07275 0.82426 0.0
C1258 C 0.35301 0.02249 0.84021 0.0
C1259 C 0.14072 0.01611 0.82236 0.0
O1260 O 0.38161 0.98664 0.83235 0.0
O1261 O 0.27177 0.98152 0.822 0.0
O1262 O 0.26222 0.99852 0.80389 0.0
O1263 O 0.34987 1.01335 0.80606 0.0
O1264 O 0.46109 1.00531 0.82242 0.0
O1265 O 0.46151 0.02457 0.813 0.0
O1266 O 0.26506 0.04477 0.80735 0.0
O1267 O 0.36828 0.04969 0.81885 0.0
O1268 O 0.39057 0.03189 0.8352 0.0
O1269 O 0.2965 0.01773 0.83388 0.0
O1270 O 0.18195 0.02551 0.81734 0.0
O1271 O 0.18214 1.00652 0.82701 0.0
H1272 H 0.3912 0.96156 0.84468 0.0
H1273 H 0.42503 0.93889 0.84239 0.0
H1274 H 0.38305 0.94201 0.80628 0.0
H1275 H 0.3486 0.96477 0.80854 0.0
H1276 H 0.2311 0.06863 0.79634 0.0
H1277 H 0.18766 0.09089 0.79843 0.0
H1278 H 0.26773 0.09024 0.83353 0.0
H1279 H 0.30971 0.06788 0.83147 0.0
C1280 C 0.89408 0.41785 0.07325 0.0
C1281 C 0.95669 0.42298 0.06612 0.0
C1282 C 0.8781 0.40464 0.07346 0.0
C1283 C 0.92709 0.39636 0.06656 0.0
C1284 C 0.99115 0.40151 0.05947 0.0
C1285 C 1.00476 0.41474 0.05929 0.0
C1286 C 0.80821 0.39954 0.08096 0.0
C1287 C 1.04512 0.39305 0.05203 0.0
C1288 C 0.93718 0.36093 0.07385 0.0
C1289 C 0.88166 0.35569 0.0658 0.0
C1290 C 0.95242 0.37416 0.07423 0.0
C1291 C 0.91025 0.38235 0.06648 0.0
C1292 C 0.85353 0.3771 0.05842 0.0
C1293 C 0.84003 0.36387 0.05817 0.0
C1294 C 1.01443 0.37937 0.08282 0.0
C1295 C 0.80616 0.38546 0.05012 0.0
H1296 H 0.85659 0.4242 0.0785 0.0
H1297 H 0.05405 0.41865 0.05388 0.0
H1298 H 0.76136 0.39424 0.07575 0.0
H1299 H 0.83482 0.39272 0.08723 0.0
H1300 H 0.77467 0.40725 0.08562 0.0
H1301 H 0.09436 0.39851 0.04733 0.0
H1302 H 0.07685 0.38566 0.05728 0.0
H1303 H 1.00448 0.38802 0.04578 0.0
H1304 H 0.96984 0.35465 0.07973 0.0
H1305 H 0.7957 0.35992 0.05208 0.0
H1306 H 0.982 0.38628 0.08848 0.0
H1307 H 0.06602 0.3846 0.0784 0.0
H1308 H 1.04307 0.37173 0.08813 0.0
H1309 H 0.76073 0.39158 0.05482 0.0
H1310 H 0.77036 0.37981 0.04374 0.0
H1311 H 0.85061 0.39189 0.04556 0.0
C1312 C 0.53732 0.91428 0.06964 0.0
C1313 C 0.47005 0.92296 0.06853 0.0
C1314 C 0.52264 0.90106 0.07009 0.0
C1315 C 0.43854 0.89636 0.06949 0.0
C1316 C 0.37017 0.90508 0.0687 0.0
C1317 C 0.38674 0.91826 0.06816 0.0
C1318 C 0.59739 0.89211 0.0708 0.0
C1319 C 0.27953 0.90049 0.06821 0.0
C1320 C 0.40101 0.86282 0.05816 0.0
C1321 C 0.38849 0.85575 0.06817 0.0
C1322 C 0.41836 0.87596 0.0585 0.0
C1323 C 0.42236 0.88231 0.0691 0.0
C1324 C 0.41023 0.87526 0.07925 0.0
C1325 C 0.39383 0.86208 0.07867 0.0
C1326 C 0.43123 0.88309 0.04747 0.0
C1327 C 0.41381 0.88168 0.09072 0.0
H1328 H 0.60193 0.91781 0.06978 0.0
H1329 H 0.33438 0.92491 0.06742 0.0
H1330 H 0.58938 0.88542 0.07803 0.0
H1331 H 0.6009 0.88629 0.06294 0.0
H1332 H 0.65839 0.89728 0.07185 0.0
H1333 H 0.23338 0.90849 0.06818 0.0
H1334 H 0.26969 0.89471 0.06043 0.0
H1335 H 0.26582 0.89423 0.0756 0.0
H1336 H 0.39537 0.85815 0.04998 0.0
H1337 H 0.38538 0.85672 0.08647 0.0
H1338 H 0.49279 0.88822 0.04762 0.0
H1339 H 0.38068 0.89035 0.04643 0.0
H1340 H 0.43017 0.87666 0.03998 0.0
H1341 H 0.47645 0.88631 0.09191 0.0
H1342 H 0.40314 0.87487 0.09782 0.0
H1343 H 0.36506 0.88929 0.09118 0.0
C1344 C 0.92438 0.91632 0.20454 0.0
C1345 C 0.88185 0.9226 0.19566 0.0
C1346 C 0.93913 0.90311 0.20421 0.0
C1347 C 0.91175 0.89593 0.1947 0.0
C1348 C 0.87077 0.90222 0.18557 0.0
C1349 C 0.85595 0.91544 0.18618 0.0
C1350 C 0.98308 0.89679 0.21412 0.0
C1351 C 0.84089 0.89494 0.17526 0.0
C1352 C 1.01637 0.86352 0.19057 0.0
C1353 C 0.95671 0.85522 0.19547 0.0
C1354 C 1.00161 0.87673 0.18999 0.0
C1355 C 0.92535 0.88182 0.19443 0.0
C1356 C 0.86385 0.87348 0.19911 0.0
C1357 C 0.88026 0.8603 0.19958 0.0
C1358 C 0.06872 0.88528 0.18491 0.0
C1359 C 0.78149 0.8785 0.20387 0.0
H1360 H 0.94611 0.92174 0.21181 0.0
H1361 H 0.82192 0.9201 0.17934 0.0
H1362 H 0.94071 0.88951 0.21796 0.0
H1363 H 1.04097 0.89179 0.21116 0.0
H1364 H 1.00136 0.90373 0.22082 0.0
H1365 H 0.81605 0.90135 0.16851 0.0
H1366 H 0.89356 0.88919 0.17167 0.0
H1367 H 0.78993 0.88819 0.17776 0.0
H1368 H 0.0761 0.85974 0.1875 0.0
H1369 H 0.83327 0.85396 0.20324 0.0
H1370 H 0.09367 0.89181 0.19153 0.0
H1371 H 1.04083 0.89128 0.1781 0.0
H1372 H 0.12255 0.87978 0.18129 0.0
H1373 H 0.79469 0.88481 0.21124 0.0
H1374 H 0.73847 0.87072 0.20669 0.0
H1375 H 0.74822 0.88434 0.19739 0.0
C1376 C 0.31096 0.41414 0.19221 0.0
C1377 C 0.37759 0.42298 0.19289 0.0
C1378 C 0.32671 0.40094 0.19227 0.0
C1379 C 0.41128 0.39645 0.19286 0.0
C1380 C 0.47897 0.40535 0.19321 0.0
C1381 C 0.4613 0.4185 0.19333 0.0
C1382 C 0.25263 0.39182 0.19209 0.0
C1383 C 0.57005 0.40095 0.19364 0.0
C1384 C 0.45281 0.36357 0.20541 0.0
C1385 C 0.46442 0.35604 0.19566 0.0
C1386 C 0.43461 0.37665 0.20459 0.0
C1387 C 0.42871 0.38248 0.19376 0.0
C1388 C 0.43996 0.37496 0.18387 0.0
C1389 C 0.45744 0.36185 0.18493 0.0
C1390 C 0.42257 0.38427 0.21536 0.0
C1391 C 0.43412 0.38081 0.17217 0.0
H1392 H 0.24608 0.41755 0.19201 0.0
H1393 H 0.51299 0.4253 0.19378 0.0
H1394 H 0.26004 0.38485 0.18508 0.0
H1395 H 0.2509 0.38633 0.20016 0.0
H1396 H 0.19102 0.39682 0.19104 0.0
H1397 H 0.61547 0.40905 0.19327 0.0
H1398 H 0.58142 0.39553 0.2016 0.0
H1399 H 0.5833 0.39442 0.18644 0.0
H1400 H 0.4596 0.35929 0.21375 0.0
H1401 H 0.4652 0.35612 0.17734 0.0
H1402 H 0.36052 0.38926 0.21517 0.0
H1403 H 0.47256 0.39169 0.21598 0.0
H1404 H 0.42525 0.37821 0.2231 0.0
H1405 H 0.37105 0.3853 0.17098 0.0
H1406 H 0.44396 0.37367 0.16532 0.0
H1407 H 0.48237 0.38845 0.17126 0.0
C1408 C 0.09782 0.61451 0.9557 0.0
C1409 C 0.13388 0.60617 0.94772 0.0
C1410 C 0.1125 0.62771 0.9552 0.0
C1411 C 0.16524 0.63278 0.94656 0.0
C1412 C 0.20167 0.62443 0.93844 0.0
C1413 C 0.18504 0.61123 0.93906 0.0
C1414 C 0.07145 0.63625 0.96394 0.0
C1415 C 0.2593 0.62942 0.9292 0.0
C1416 C 0.1491 0.66849 0.94044 0.0
C1417 C 0.21521 0.67337 0.94712 0.0
C1418 C 0.13257 0.65528 0.94005 0.0
C1419 C 0.18434 0.64675 0.94633 0.0
C1420 C 0.25249 0.65164 0.95284 0.0
C1421 C 0.26667 0.66486 0.95322 0.0
C1422 C 0.05869 0.65048 0.93312 0.0
C1423 C 0.31002 0.64291 0.95954 0.0
H1424 H 0.05696 0.6107 0.9623 0.0
H1425 H 0.21342 0.60485 0.9329 0.0
H1426 H 0.12079 0.64152 0.96875 0.0
H1427 H 1.0311 0.64346 0.95963 0.0
H1428 H 1.0317 0.63083 0.97007 0.0
H1429 H 0.28257 0.6217 0.92353 0.0
H1430 H 0.2253 0.63659 0.92398 0.0
H1431 H 0.31475 0.63428 0.93306 0.0
H1432 H 0.10908 0.67503 0.93573 0.0
H1433 H 0.31881 0.66856 0.95823 0.0
H1434 H 1.01293 0.64547 0.93874 0.0
H1435 H 0.08105 0.64347 0.92674 0.0
H1436 H 1.025 0.65831 0.92864 0.0
H1437 H 0.27305 0.63795 0.96624 0.0
H1438 H 0.36305 0.64815 0.96364 0.0
H1439 H 0.33694 0.63548 0.95388 0.0
C1440 C 0.69852 0.16768 0.93636 0.0
C1441 C 0.72039 0.17308 0.94688 0.0
C1442 C 0.68058 0.15458 0.93537 0.0
C1443 C 0.68428 0.14667 0.94513 0.0
C1444 C 0.70618 0.15206 0.95576 0.0
C1445 C 0.72433 0.16514 0.95649 0.0
C1446 C 0.65771 0.14917 0.92389 0.0
C1447 C 0.71069 0.14399 0.96638 0.0
C1448 C 0.56232 0.11539 0.94586 0.0
C1449 C 0.62742 0.10641 0.94454 0.0
C1450 C 0.57977 0.12852 0.94589 0.0
C1451 C 0.66419 0.13279 0.94434 0.0
C1452 C 0.72985 0.12376 0.94266 0.0
C1453 C 0.71083 0.11065 0.94292 0.0
C1454 C 0.50822 0.1378 0.94796 0.0
C1455 C 0.82034 0.12794 0.94074 0.0
H1456 H 0.69456 0.17373 0.9289 0.0
H1457 H 0.74291 0.16912 0.96462 0.0
H1458 H 0.70317 0.14154 0.92154 0.0
H1459 H 0.59378 0.14477 0.92423 0.0
H1460 H 0.65807 0.15656 0.91711 0.0
H1461 H 0.72517 0.14973 0.97407 0.0
H1462 H 0.64958 0.13896 0.96774 0.0
H1463 H 0.76048 0.1366 0.9654 0.0
H1464 H 0.49794 0.1121 0.94726 0.0
H1465 H 0.76111 0.1037 0.94184 0.0
H1466 H 0.50483 0.14484 0.94093 0.0
H1467 H 0.52028 0.14319 0.95591 0.0
H1468 H 0.44582 0.13294 0.94871 0.0
H1469 H 0.82352 0.13468 0.93348 0.0
H1470 H 0.86319 0.11976 0.93899 0.0
H1471 H 0.84404 0.13307 0.94835 0.0
C1472 C 0.19931 0.16886 0.82326 0.0
C1473 C 0.12667 0.17351 0.81779 0.0
C1474 C 0.21648 0.15567 0.82362 0.0
C1475 C 0.1585 0.14696 0.81865 0.0
C1476 C 0.08361 0.15165 0.81348 0.0
C1477 C 0.06916 0.16485 0.813 0.0
C1478 C 0.29767 0.15109 0.82903 0.0
C1479 C 1.01915 0.14272 0.80832 0.0
C1480 C 0.23459 0.11459 0.80816 0.0
C1481 C 0.20844 0.10639 0.81693 0.0
C1482 C 0.22008 0.12779 0.80873 0.0
C1483 C 0.1778 0.133 0.81828 0.0
C1484 C 0.15148 0.1248 0.8272 0.0
C1485 C 0.16762 0.11161 0.82646 0.0
C1486 C 0.24991 0.13617 0.79908 0.0
C1487 C 0.10551 0.12994 0.83747 0.0
H1488 H 0.24382 0.17557 0.82694 0.0
H1489 H 1.01245 0.16845 0.80889 0.0
H1490 H 0.28332 0.14418 0.83592 0.0
H1491 H 0.33676 0.14601 0.82263 0.0
H1492 H 0.33563 0.15905 0.83263 0.0
H1493 H 0.96224 0.14784 0.80514 0.0
H1494 H 0.04813 0.13743 0.80114 0.0
H1495 H 0.99868 0.13556 0.81472 0.0
H1496 H 0.26765 0.11069 0.80087 0.0
H1497 H 0.14689 0.10534 0.83325 0.0
H1498 H 0.29273 0.14372 0.80238 0.0
H1499 H 0.19488 0.14102 0.7951 0.0
H1500 H 0.28405 0.1307 0.79242 0.0
H1501 H 0.14736 0.13663 0.84214 0.0
H1502 H 0.08531 0.12225 0.84338 0.0
H1503 H 0.04866 0.1354 0.83477 0.0
C1504 C 0.63691 0.66503 0.80645 0.0
C1505 C 0.63556 0.67251 0.81635 0.0
C1506 C 0.65462 0.65191 0.8069 0.0
C1507 C 0.67055 0.64602 0.81751 0.0
C1508 C 0.66995 0.6535 0.82754 0.0
C1509 C 0.65264 0.66664 0.82684 0.0
C1510 C 0.6552 0.64432 0.79599 0.0
C1511 C 0.68677 0.64758 0.83902 0.0
C1512 C 0.63483 0.61009 0.81876 0.0
C1513 C 0.71793 0.60544 0.81803 0.0
C1514 C 0.61869 0.62329 0.81896 0.0
C1515 C 0.68712 0.63201 0.81809 0.0
C1516 C 0.77116 0.62732 0.81733 0.0
C1517 C 0.78556 0.6141 0.81744 0.0
C1518 C 0.52839 0.6279 0.82002 0.0
C1519 C 0.84569 0.63626 0.81608 0.0
H1520 H 0.62232 0.66938 0.79832 0.0
H1521 H 0.65282 0.67234 0.83452 0.0
H1522 H 0.71566 0.63899 0.79517 0.0
H1523 H 0.60315 0.6372 0.79614 0.0
H1524 H 0.64715 0.65047 0.78837 0.0
H1525 H 0.68511 0.65472 0.84599 0.0
H1526 H 0.63867 0.64011 0.84079 0.0
H1527 H 0.74972 0.64286 0.83904 0.0
H1528 H 0.58259 0.60338 0.81924 0.0
H1529 H 0.84978 0.61049 0.81673 0.0
H1530 H 0.51031 0.63332 0.81228 0.0
H1531 H 0.52262 0.63451 0.82734 0.0
H1532 H 0.48281 0.61992 0.82119 0.0
H1533 H 0.83942 0.64178 0.80807 0.0
H1534 H 0.90722 0.6311 0.81594 0.0
H1535 H 0.8466 0.64322 0.82317 0.0
C1536 C 0.88952 0.91771 0.56316 0.0
C1537 C 0.96538 0.92279 0.56745 0.0
C1538 C 0.8744 0.90448 0.56318 0.0
C1539 C 0.93661 0.89608 0.5676 0.0
C1540 C 1.01281 0.90115 0.57208 0.0
C1541 C 1.02626 0.91441 0.57195 0.0
C1542 C 0.79221 0.89948 0.55835 0.0
C1543 C 0.08093 0.89254 0.57682 0.0
C1544 C 0.86615 0.86246 0.5757 0.0
C1545 C 0.89109 0.85534 0.56615 0.0
C1546 C 0.88201 0.87565 0.57639 0.0
C1547 C 0.92284 0.88197 0.56725 0.0
C1548 C 0.94948 0.87484 0.55769 0.0
C1549 C 0.93395 0.86164 0.55729 0.0
C1550 C 0.85349 0.88288 0.5868 0.0
C1551 C 0.99296 0.88119 0.54774 0.0
H1552 H 0.84174 0.9241 0.55977 0.0
H1553 H 0.0857 0.91819 0.57512 0.0
H1554 H 0.80557 0.89306 0.55107 0.0
H1555 H 0.75824 0.89376 0.56486 0.0
H1556 H 0.74975 0.90727 0.55541 0.0
H1557 H 0.13511 0.89799 0.58039 0.0
H1558 H 0.05419 0.88635 0.58358 0.0
H1559 H 0.10512 0.88618 0.57001 0.0
H1560 H 0.832 0.85781 0.58254 0.0
H1561 H 0.95519 0.85626 0.54996 0.0
H1562 H 0.80461 0.89 0.58438 0.0
H1563 H 0.90761 0.88821 0.59051 0.0
H1564 H 0.82663 0.87649 0.59342 0.0
H1565 H 0.94913 0.88814 0.54373 0.0
H1566 H 1.01339 0.87422 0.54118 0.0
H1567 H 0.04934 0.88658 0.55069 0.0
C1568 C 0.45298 0.36058 0.56238 0.0
C1569 C 0.3803 0.35538 0.5675 0.0
C1570 C 0.46849 0.37378 0.56251 0.0
C1571 C 0.41023 0.38207 0.56793 0.0
C1572 C 0.33799 0.37687 0.5734 0.0
C1573 C 0.32379 0.36362 0.5731 0.0
C1574 C 0.54642 0.3789 0.5566 0.0
C1575 C 0.27439 0.38535 0.5793 0.0
C1576 C 0.48995 0.41556 0.57474 0.0
C1577 C 0.45897 0.42263 0.56547 0.0
C1578 C 0.47244 0.40245 0.57584 0.0
C1579 C 0.42341 0.39618 0.56745 0.0
C1580 C 0.38991 0.40333 0.55827 0.0
C1581 C 0.40766 0.41643 0.55743 0.0
C1582 C 0.50849 0.39522 0.58583 0.0
C1583 C 0.33718 0.39705 0.54914 0.0
H1584 H 0.49777 0.3543 0.55819 0.0
H1585 H 0.26683 0.35977 0.57695 0.0
H1586 H 0.5273 0.38534 0.54956 0.0
H1587 H 0.5849 0.38462 0.56263 0.0
H1588 H 0.58679 0.37118 0.55306 0.0
H1589 H 0.22505 0.37978 0.58387 0.0
H1590 H 0.30693 0.39168 0.58547 0.0
H1591 H 0.2427 0.39157 0.57296 0.0
H1592 H 0.53031 0.42017 0.58095 0.0
H1593 H 0.38177 0.42182 0.55037 0.0
H1594 H 0.55583 0.38818 0.58279 0.0
H1595 H 0.4576 0.38981 0.59023 0.0
H1596 H 0.53968 0.40163 0.59208 0.0
H1597 H 0.37647 0.39 0.54448 0.0
H1598 H 0.31161 0.40406 0.54293 0.0
H1599 H 0.28338 0.39178 0.553 0.0
C1600 C 1.02819 0.36424 0.6915 0.0
C1601 C 0.96207 0.35559 0.69359 0.0
C1602 C 1.0135 0.37747 0.69127 0.0
C1603 C 0.93044 0.38219 0.69305 0.0
C1604 C 0.86303 0.37348 0.69491 0.0
C1605 C 0.87974 0.3603 0.69524 0.0
C1606 C 0.08742 0.38639 0.68945 0.0
C1607 C 0.77334 0.37811 0.69666 0.0
C1608 C 0.90212 0.41604 0.70418 0.0
C1609 C 0.88246 0.42288 0.69424 0.0
C1610 C 0.9188 0.40287 0.70387 0.0
C1611 C 0.91467 0.39625 0.69341 0.0
C1612 C 0.89523 0.40305 0.68333 0.0
C1613 C 0.8799 0.41627 0.68386 0.0
C1614 C 0.93988 0.39602 0.71481 0.0
C1615 C 0.88999 0.39635 0.67201 0.0
H1616 H 0.09219 0.36068 0.69038 0.0
H1617 H 0.82827 0.35366 0.69678 0.0
H1618 H 0.07412 0.39298 0.68228 0.0
H1619 H 0.09677 0.39233 0.69715 0.0
H1620 H 0.14731 0.3812 0.68764 0.0
H1621 H 0.7275 0.37011 0.6975 0.0
H1622 H 0.7699 0.38405 0.70444 0.0
H1623 H 0.75372 0.38421 0.68941 0.0
H1624 H 0.90271 0.42092 0.71229 0.0
H1625 H 0.86605 0.42143 0.67609 0.0
H1626 H 1.00085 0.39083 0.71391 0.0
H1627 H 0.8902 0.38883 0.7167 0.0
H1628 H 0.94479 0.40264 0.72214 0.0
H1629 H 0.95157 0.39175 0.67001 0.0
H1630 H 0.8734 0.40297 0.66497 0.0
H1631 H 0.84156 0.38868 0.6724 0.0
C1632 C 0.51456 0.8641 0.68819 0.0
C1633 C 0.4568 0.85586 0.69358 0.0
C1634 C 0.49985 0.87732 0.68762 0.0
C1635 C 0.42581 0.88252 0.69262 0.0
C1636 C 0.36604 0.87423 0.69777 0.0
C1637 C 0.38212 0.86104 0.69816 0.0
C1638 C 0.56506 0.88579 0.68201 0.0
C1639 C 0.28608 0.87934 0.70315 0.0
C1640 C 0.42889 0.91689 0.70311 0.0
C1641 C 0.38096 0.92325 0.69478 0.0
C1642 C 0.44465 0.90371 0.70242 0.0
C1643 C 0.41303 0.89666 0.69308 0.0
C1644 C 0.36724 0.90306 0.68443 0.0
C1645 C 0.35135 0.91623 0.68541 0.0
C1646 C 0.49369 0.89729 0.71184 0.0
C1647 C 0.33335 0.89592 0.67426 0.0
H1648 H 0.57295 0.86026 0.68473 0.0
H1649 H 0.33633 0.85477 0.70218 0.0
H1650 H 0.53422 0.89225 0.67579 0.0
H1651 H 0.59598 0.89186 0.68852 0.0
H1652 H 0.61488 0.8802 0.67756 0.0
H1653 H 0.24429 0.87161 0.70639 0.0
H1654 H 0.3027 0.88572 0.71034 0.0
H1655 H 0.25001 0.88512 0.6969 0.0
H1656 H 0.45384 0.9222 0.71026 0.0
H1657 H 0.31349 0.92095 0.67897 0.0
H1658 H 0.54971 0.89228 0.7083 0.0
H1659 H 0.45323 0.89 0.71602 0.0
H1660 H 0.51567 0.90417 0.71839 0.0
H1661 H 0.38529 0.89059 0.67003 0.0
H1662 H 0.30345 0.90239 0.66794 0.0
H1663 H 0.28553 0.88882 0.67707 0.0
C1664 C 0.13436 0.11305 0.43525 0.0
C1665 C 0.129 0.10649 0.44565 0.0
C1666 C 0.14958 0.12628 0.43487 0.0
C1667 C 0.16073 0.13315 0.44512 0.0
C1668 C 0.15658 0.12658 0.45563 0.0
C1669 C 0.14019 0.1134 0.45577 0.0
C1670 C 0.15322 0.13292 0.42349 0.0
C1671 C 0.16856 0.13351 0.46676 0.0
C1672 C 0.27676 0.16503 0.44436 0.0
C1673 C 0.20987 0.17378 0.44535 0.0
C1674 C 0.26162 0.15182 0.4442 0.0
C1675 C 0.17736 0.1472 0.44489 0.0
C1676 C 0.10938 0.156 0.44568 0.0
C1677 C 0.12648 0.16918 0.44601 0.0
C1678 C 0.33605 0.14279 0.44358 0.0
C1679 C 1.01858 0.15149 0.44625 0.0
H1680 H 0.12699 0.10784 0.42736 0.0
H1681 H 0.13447 0.10856 0.46387 0.0
H1682 H 0.10466 0.14058 0.42315 0.0
H1683 H 0.21597 0.13754 0.42235 0.0
H1684 H 0.14235 0.12626 0.4163 0.0
H1685 H 0.16982 0.12688 0.47414 0.0
H1686 H 0.22865 0.13902 0.46663 0.0
H1687 H 0.11614 0.14042 0.46801 0.0
H1688 H 0.34144 0.16852 0.44402 0.0
H1689 H 0.07453 0.17591 0.44671 0.0
H1690 H 0.32948 0.13642 0.43611 0.0
H1691 H 0.33721 0.13664 0.45126 0.0
H1692 H 0.3976 0.14791 0.44295 0.0
H1693 H 1.00428 0.1453 0.43885 0.0
H1694 H 0.97279 0.15954 0.44636 0.0
H1695 H 1.00887 0.14566 0.45402 0.0
C1696 C 0.63 0.66916 0.44453 0.0
C1697 C 0.71279 0.67373 0.44294 0.0
C1698 C 0.61238 0.65599 0.44434 0.0
C1699 C 0.67931 0.64716 0.44271 0.0
C1700 C 0.76276 0.65174 0.44092 0.0
C1701 C 0.77837 0.66495 0.44099 0.0
C1702 C 0.52232 0.65153 0.44608 0.0
C1703 C 0.83607 0.64268 0.43926 0.0
C1704 C 0.64844 0.61388 0.45507 0.0
C1705 C 0.62787 0.60663 0.44541 0.0
C1706 C 0.66636 0.62698 0.45425 0.0
C1707 C 0.66284 0.63313 0.44354 0.0
C1708 C 0.64287 0.62589 0.43374 0.0
C1709 C 0.62573 0.61275 0.43478 0.0
C1710 C 0.68809 0.63429 0.46492 0.0
C1711 C 0.63807 0.63207 0.42216 0.0
H1712 H 0.57891 0.67589 0.44593 0.0
H1713 H 0.84268 0.6684 0.43989 0.0
H1714 H 0.50307 0.64515 0.43902 0.0
H1715 H 0.5179 0.64591 0.45406 0.0
H1716 H 0.47681 0.6596 0.44658 0.0
H1717 H 0.89681 0.64776 0.4377 0.0
H1718 H 0.84341 0.63658 0.44691 0.0
H1719 H 0.82327 0.63626 0.43197 0.0
H1720 H 0.64878 0.60937 0.46336 0.0
H1721 H 0.61091 0.60727 0.42724 0.0
H1722 H 0.63898 0.64164 0.46654 0.0
H1723 H 0.74947 0.63932 0.46383 0.0
H1724 H 0.69252 0.62799 0.4725 0.0
H1725 H 0.58335 0.63871 0.42191 0.0
H1726 H 0.63038 0.62494 0.41525 0.0
H1727 H 0.69599 0.63777 0.42047 0.0
C1728 C 0.16082 0.61098 0.32634 0.0
C1729 C 0.20928 0.6055 0.3176 0.0
C1730 C 0.14492 0.62419 0.32661 0.0
C1731 C 0.17833 0.63214 0.31796 0.0
C1732 C 0.22776 0.62668 0.30917 0.0
C1733 C 0.24265 0.61347 0.3091 0.0
C1734 C 0.09149 0.62962 0.33609 0.0
C1735 C 0.26518 0.63481 0.29983 0.0
C1736 C 0.07183 0.66374 0.31104 0.0
C1737 C 0.12459 0.67251 0.31657 0.0
C1738 C 0.08747 0.65058 0.31168 0.0
C1739 C 0.15883 0.64608 0.31779 0.0
C1740 C 0.21239 0.65493 0.32342 0.0
C1741 C 0.19398 0.66807 0.32286 0.0
C1742 C 1.02804 0.64151 0.30571 0.0
C1743 C 0.28984 0.65054 0.32985 0.0
H1744 H 0.13426 0.60491 0.33291 0.0
H1745 H 0.28177 0.6094 0.30245 0.0
H1746 H 0.12795 0.63698 0.34078 0.0
H1747 H 1.03462 0.63438 0.33249 0.0
H1748 H 0.07048 0.62219 0.34221 0.0
H1749 H 0.30171 0.6291 0.29357 0.0
H1750 H 0.21402 0.63996 0.29526 0.0
H1751 H 0.30786 0.64212 0.30355 0.0
H1752 H 1.01795 0.66723 0.30623 0.0
H1753 H 0.23493 0.67489 0.32707 0.0
H1754 H 1.00326 0.63435 0.31183 0.0
H1755 H 0.06286 0.63623 0.299 0.0
H1756 H 0.97351 0.64651 0.30172 0.0
H1757 H 0.27084 0.64398 0.33681 0.0
H1758 H 0.32595 0.65863 0.33356 0.0
H1759 H 0.33243 0.64512 0.3241 0.0
C1760 C 0.72502 0.1148 0.30581 0.0
C1761 C 0.71041 0.10661 0.31505 0.0
C1762 C 0.70769 0.12791 0.30652 0.0
C1763 C 0.67493 0.13304 0.31674 0.0
C1764 C 0.65967 0.12485 0.32611 0.0
C1765 C 0.67785 0.11174 0.32518 0.0
C1766 C 0.72524 0.13628 0.29634 0.0
C1767 C 0.62393 0.12994 0.33711 0.0
C1768 C 0.70334 0.16886 0.32092 0.0
C1769 C 0.6249 0.1735 0.31722 0.0
C1770 C 0.7199 0.15566 0.32108 0.0
C1771 C 0.65624 0.14698 0.31751 0.0
C1772 C 0.57615 0.1517 0.31404 0.0
C1773 C 0.56164 0.16492 0.31389 0.0
C1774 C 0.80612 0.15102 0.3248 0.0
C1775 C 0.50648 0.14282 0.31021 0.0
H1776 H 0.75162 0.11098 0.29802 0.0
H1777 H 0.66568 0.10548 0.33233 0.0
H1778 H 0.66676 0.14143 0.2938 0.0
H1779 H 0.7734 0.14358 0.29857 0.0
H1780 H 0.74865 0.13076 0.28892 0.0
H1781 H 0.6143 0.1223 0.34354 0.0
H1782 H 0.66742 0.13722 0.3407 0.0
H1783 H 0.56228 0.13471 0.33551 0.0
H1784 H 0.75213 0.17557 0.32346 0.0
H1785 H 0.50103 0.1686 0.31102 0.0
H1786 H 0.83775 0.14602 0.31765 0.0
H1787 H 0.79939 0.14404 0.33184 0.0
H1788 H 0.84767 0.15894 0.32768 0.0
H1789 H 0.52637 0.13779 0.30235 0.0
H1790 H 0.44623 0.14795 0.30846 0.0
H1791 H 0.49451 0.13544 0.31678 0.0
C1792 C 0.1578 0.52264 0.10619 0.0
C1793 C 0.10706 0.51239 0.10272 0.0
C1794 C 0.17877 0.52431 0.11773 0.0
C1795 C 0.14872 0.51545 0.1259 0.0
C1796 C 0.09361 0.50549 0.12242 0.0
C1797 C 0.07404 0.50403 0.11086 0.0
C1798 C 0.23701 0.53511 0.12104 0.0
C1799 C 0.05922 0.4959 0.13083 0.0
C1800 C 0.27496 0.50678 0.15232 0.0
C1801 C 0.22557 0.51223 0.16089 0.0
C1802 C 0.25334 0.50839 0.14081 0.0
C1803 C 0.18069 0.51566 0.13786 0.0
C1804 C 0.13382 0.52184 0.14653 0.0
C1805 C 0.15635 0.51993 0.15798 0.0
C1806 C 0.30507 0.50162 0.13187 0.0
C1807 C 0.05732 0.5299 0.14377 0.0
H1808 H 0.18453 0.52896 0.09981 0.0
H1809 H 1.0357 0.49602 0.1081 0.0
H1810 H 0.21445 0.53981 0.12893 0.0
H1811 H 0.30125 0.53126 0.12278 0.0
H1812 H 0.24227 0.54238 0.1142 0.0
H1813 H 1.01228 0.48934 0.1269 0.0
H1814 H 0.11217 0.49014 0.13432 0.0
H1815 H 1.02851 0.50087 0.13807 0.0
H1816 H 0.3278 0.50069 0.15464 0.0
H1817 H 0.118 0.52407 0.16468 0.0
H1818 H 0.32382 0.50838 0.12506 0.0
H1819 H 0.26611 0.49402 0.12788 0.0
H1820 H 0.36322 0.49719 0.13546 0.0
H1821 H 0.07292 0.53688 0.13699 0.0
H1822 H 1.0335 0.53516 0.15133 0.0
H1823 H 1.00561 0.52373 0.14052 0.0
C1824 C 0.2624 0.75957 0.10858 0.0
C1825 C 0.20712 0.76706 0.10206 0.0
C1826 C 0.24669 0.7575 0.12026 0.0
C1827 C 0.17411 0.76303 0.12545 0.0
C1828 C 0.11497 0.76967 0.1186 0.0
C1829 C 0.13233 0.77162 0.10705 0.0
C1830 C 0.31035 0.75011 0.1272 0.0
C1831 C 1.03642 0.77567 0.12364 0.0
C1832 C 0.09896 0.75804 0.15608 0.0
C1833 C 0.13234 0.76895 0.16134 0.0
C1834 C 0.11622 0.75543 0.14452 0.0
C1835 C 0.16689 0.76403 0.13811 0.0
C1836 C 0.20318 0.77474 0.14358 0.0
C1837 C 0.18593 0.77699 0.15508 0.0
C1838 C 0.07829 0.74373 0.13909 0.0
C1839 C 0.25711 0.78425 0.13716 0.0
H1840 H 0.31984 0.75589 0.10472 0.0
H1841 H 0.08843 0.7772 0.10198 0.0
H1842 H 0.34729 0.75679 0.13257 0.0
H1843 H 0.27765 0.74333 0.13297 0.0
H1844 H 0.3553 0.74473 0.12173 0.0
H1845 H 0.99207 0.77916 0.117 0.0
H1846 H 1.00235 0.76873 0.12911 0.0
H1847 H 0.055 0.78386 0.12907 0.0
H1848 H 0.05857 0.75167 0.16093 0.0
H1849 H 0.21292 0.78536 0.15911 0.0
H1850 H 0.12738 0.73847 0.13422 0.0
H1851 H 1.02826 0.7466 0.13298 0.0
H1852 H 0.04981 0.73719 0.14548 0.0
H1853 H 0.30989 0.7793 0.13277 0.0
H1854 H 0.28436 0.79169 0.14281 0.0
H1855 H 0.21815 0.78904 0.13056 0.0
C1856 C 0.95422 0.52343 0.85702 0.0
C1857 C 0.88169 0.51813 0.852 0.0
C1858 C 0.97226 0.52166 0.86857 0.0
C1859 C 0.91652 0.51434 0.87538 0.0
C1860 C 0.84611 0.50819 0.87021 0.0
C1861 C 0.82929 0.51018 0.85854 0.0
C1862 C 0.04813 0.5284 0.87362 0.0
C1863 C 0.78614 0.50007 0.8771 0.0
C1864 C 1.00081 0.50942 0.90555 0.0
C1865 C 0.96414 0.51986 0.91115 0.0
C1866 C 0.98144 0.50686 0.89404 0.0
C1867 C 0.92532 0.51504 0.88803 0.0
C1868 C 0.88572 0.52522 0.89387 0.0
C1869 C 0.90523 0.52744 0.90531 0.0
C1870 C 1.02291 0.49567 0.88823 0.0
C1871 C 0.82583 0.53426 0.88789 0.0
H1872 H 0.99608 0.52937 0.85197 0.0
H1873 H 0.77377 0.5059 0.85467 0.0
H1874 H 1.0262 0.53604 0.87945 0.0
H1875 H 0.0869 0.52164 0.87867 0.0
H1876 H 0.08921 0.53278 0.867 0.0
H1877 H 0.74698 0.4938 0.87159 0.0
H1878 H 0.82146 0.49408 0.88327 0.0
H1879 H 0.74292 0.50633 0.88202 0.0
H1880 H 1.04514 0.50338 0.91009 0.0
H1881 H 0.87553 0.53541 0.90961 0.0
H1882 H 0.07212 0.49916 0.88225 0.0
H1883 H 0.97559 0.49026 0.88318 0.0
H1884 H 0.05337 0.48909 0.89441 0.0
H1885 H 0.86089 0.53967 0.88127 0.0
H1886 H 0.79614 0.54119 0.89382 0.0
H1887 H 0.77478 0.52884 0.88356 0.0
C1888 C 0.87662 0.26178 0.8556 0.0
C1889 C 0.96034 0.26269 0.85169 0.0
C1890 C 0.85685 0.26328 0.86715 0.0
C1891 C 0.92273 0.26545 0.87508 0.0
C1892 C 1.00679 0.26734 0.87106 0.0
C1893 C 1.02461 0.26602 0.85935 0.0
C1894 C 0.76613 0.26148 0.87093 0.0
C1895 C 0.07899 0.2697 0.87918 0.0
C1896 C 0.85605 0.27063 0.90609 0.0
C1897 C 0.85707 0.25805 0.9102 0.0
C1898 C 0.87943 0.27335 0.89474 0.0
C1899 C 0.90546 0.26329 0.88745 0.0
C1900 C 0.90864 0.25068 0.89175 0.0
C1901 C 0.88379 0.24823 0.90297 0.0
C1902 C 0.8746 0.28691 0.89048 0.0
C1903 C 0.9369 0.23965 0.8844 0.0
H1904 H 0.82651 0.25942 0.84965 0.0
H1905 H 0.08939 0.26678 0.85633 0.0
H1906 H 0.75942 0.25205 0.87513 0.0
H1907 H 0.74806 0.26889 0.87721 0.0
H1908 H 0.7211 0.26189 0.86367 0.0
H1909 H 0.13586 0.2735 0.87474 0.0
H1910 H 0.06005 0.2765 0.88594 0.0
H1911 H 0.09655 0.26059 0.88337 0.0
H1912 H 0.83612 0.27827 0.91169 0.0
H1913 H 0.88583 0.23851 0.90612 0.0
H1914 H 0.82455 0.28766 0.88389 0.0
H1915 H 0.93538 0.2897 0.88643 0.0
H1916 H 0.86001 0.29377 0.89741 0.0
H1917 H 0.89152 0.23831 0.8773 0.0
H1918 H 0.9411 0.23056 0.88924 0.0
H1919 H 0.99994 0.2417 0.88063 0.0
C1920 C 0.18385 0.01875 0.60535 0.0
C1921 C 0.11221 1.01173 0.60213 0.0
C1922 C 0.2041 0.02051 0.61688 0.0
C1923 C 0.15284 0.01475 0.62536 0.0
C1924 C 0.0778 1.00823 0.62209 0.0
C1925 C 0.0582 1.00685 0.61049 0.0
C1926 C 0.28331 0.02781 0.61994 0.0
C1927 C 1.02132 1.00194 0.63081 0.0
C1928 C 0.25355 1.00186 0.65237 0.0
C1929 C 0.22579 1.01059 0.66052 0.0
C1930 C 0.23363 1.00349 0.64083 0.0
C1931 C 0.18303 1.01399 0.63739 0.0
C1932 C 0.15722 0.0231 0.6456 0.0
C1933 C 0.17902 0.02129 0.6571 0.0
C1934 C 0.26364 0.99364 0.63238 0.0
C1935 C 0.10381 0.03446 0.6423 0.0
H1936 H 0.22576 0.02246 0.59882 0.0
H1937 H 1.00331 1.00131 0.60794 0.0
H1938 H 0.27177 0.03415 0.62732 0.0
H1939 H 0.33396 0.02099 0.62238 0.0
H1940 H 0.30662 0.03367 0.61271 0.0
H1941 H 0.96145 0.99833 0.62701 0.0
H1942 H 0.05545 0.9938 0.63474 0.0
H1943 H 1.00543 1.00875 0.6377 0.0
H1944 H 0.28885 0.99351 0.65509 0.0
H1945 H 0.15614 0.02789 0.66349 0.0
H1946 H 0.29808 0.99834 0.6253 0.0
H1947 H 0.20819 0.98863 0.62867 0.0
H1948 H 0.3062 0.98645 0.63632 0.0
H1949 H 0.13447 0.03977 0.63525 0.0
H1950 H 0.09356 0.04108 0.64954 0.0
H1951 H 1.04114 0.03116 0.63918 0.0
C1952 C 0.22152 0.25626 0.60655 0.0
C1953 C 0.23589 0.26866 0.60251 0.0
C1954 C 0.20128 0.25409 0.61808 0.0
C1955 C 0.19726 0.26454 0.62571 0.0
C1956 C 0.21622 0.27697 0.62169 0.0
C1957 C 0.23392 0.27888 0.61013 0.0
C1958 C 0.18059 0.24072 0.62194 0.0
C1959 C 0.21534 0.28837 0.62953 0.0
C1960 C 0.06272 0.26617 0.65248 0.0
C1961 C 0.12552 0.26614 0.66087 0.0
C1962 C 0.0844 0.26471 0.64094 0.0
C1963 C 0.17052 0.26287 0.63782 0.0
C1964 C 0.23262 0.26161 0.64644 0.0
C1965 C 0.20963 0.26356 0.65785 0.0
C1966 C 1.0162 0.26618 0.63205 0.0
C1967 C 0.32441 0.25914 0.64358 0.0
H1968 H 0.22195 0.24838 0.60062 0.0
H1969 H 0.24518 0.28847 0.607 0.0
H1970 H 0.21189 0.23855 0.63016 0.0
H1971 H 0.11116 0.23987 0.62328 0.0
H1972 H 0.20009 0.23346 0.61557 0.0
H1973 H 0.23463 0.29731 0.62515 0.0
H1974 H 0.15072 0.28971 0.63307 0.0
H1975 H 0.25898 0.28674 0.63679 0.0
H1976 H 0.99775 0.26827 0.65485 0.0
H1977 H 0.25807 0.26352 0.66439 0.0
H1978 H 1.02081 0.25845 0.62565 0.0
H1979 H 1.02517 0.27538 0.62751 0.0
H1980 H 0.9516 0.26607 0.63582 0.0
H1981 H 0.3298 0.25145 0.63714 0.0
H1982 H 0.36173 0.25638 0.65121 0.0
H1983 H 0.35287 0.26789 0.63988 0.0
C1984 C 0.87849 0.02024 0.40672 0.0
C1985 C 0.96084 0.01811 0.41076 0.0
C1986 C 0.85811 0.01855 0.39522 0.0
C1987 C 0.92213 0.01488 0.38745 0.0
C1988 C 1.00408 1.01177 0.39164 0.0
C1989 C 1.02242 1.01334 0.40331 0.0
C1990 C 0.76944 0.0217 0.39128 0.0
C1991 C 0.07419 1.00776 0.3837 0.0
C1992 C 0.8479 1.00957 0.35679 0.0
C1993 C 0.85635 0.02193 0.35233 0.0
C1994 C 0.87203 1.00688 0.36812 0.0
C1995 C 0.90664 0.01672 0.375 0.0
C1996 C 0.91855 0.02902 0.37027 0.0
C1997 C 0.89248 0.03148 0.3591 0.0
C1998 C 0.858 0.99366 0.37283 0.0
C1999 C 0.9566 0.03977 0.37713 0.0
H2000 H 0.8302 0.0237 0.41252 0.0
H2001 H 0.08606 1.01159 0.40643 0.0
H2002 H 0.77021 0.0309 0.3866 0.0
H2003 H 0.74575 1.01428 0.38536 0.0
H2004 H 0.72432 0.02255 0.3985 0.0
H2005 H 0.12704 1.00307 0.38834 0.0
H2006 H 0.05013 1.00114 0.37709 0.0
H2007 H 0.09969 0.01631 0.3793 0.0
H2008 H 0.82077 1.00212 0.35154 0.0
H2009 H 0.90065 0.04099 0.35565 0.0
H2010 H 0.80632 0.99393 0.37923 0.0
H2011 H 0.91588 0.99021 0.37722 0.0
H2012 H 0.84044 0.98673 0.36609 0.0
H2013 H 0.91318 0.04233 0.38419 0.0
H2014 H 0.96818 0.04844 0.37192 0.0
H2015 H 1.01761 0.03671 0.38096 0.0
C2016 C 0.97347 0.77101 0.35637 0.0
C2017 C 0.97775 0.75834 0.35255 0.0
C2018 C 0.94949 0.7738 0.36768 0.0
C2019 C 0.92881 0.76369 0.37523 0.0
C2020 C 0.93142 0.75095 0.37125 0.0
C2021 C 0.95629 0.74846 0.36005 0.0
C2022 C 0.94839 0.78749 0.3716 0.0
C2023 C 0.90925 0.73984 0.3789 0.0
C2024 C 0.95764 0.76279 0.40703 0.0
C2025 C 0.8736 0.76284 0.41088 0.0
C2026 C 0.97708 0.76458 0.39552 0.0
C2027 C 0.91057 0.76598 0.38754 0.0
C2028 C 0.82572 0.76698 0.3915 0.0
C2029 C 0.80823 0.76555 0.4032 0.0
C2030 C 0.06858 0.76386 0.3918 0.0
C2031 C 0.75291 0.76848 0.3833 0.0
H2032 H 0.98943 0.77869 0.35057 0.0
H2033 H 0.95857 0.73866 0.35715 0.0
H2034 H 0.88938 0.78958 0.37638 0.0
H2035 H 1.00237 0.78915 0.37746 0.0
H2036 H 0.95368 0.79429 0.36438 0.0
H2037 H 0.90926 0.7306 0.37429 0.0
H2038 H 0.9557 0.73922 0.38596 0.0
H2039 H 0.84565 0.74129 0.38272 0.0
H2040 H 1.00835 0.76084 0.41301 0.0
H2041 H 0.74318 0.76563 0.40618 0.0
H2042 H 0.08271 0.77133 0.38539 0.0
H2043 H 0.08063 0.75446 0.38779 0.0
H2044 H 0.11289 0.76499 0.39907 0.0
H2045 H 0.76732 0.77593 0.37688 0.0
H2046 H 0.69294 0.771 0.38772 0.0
H2047 H 0.74316 0.75937 0.37867 0.0
C2048 C 0.56575 0.50152 0.61115 0.0
C2049 C 0.60153 0.50856 0.60226 0.0
C2050 C 0.58945 0.5037 0.62249 0.0
C2051 C 0.65321 0.51281 0.62499 0.0
C2052 C 0.68741 0.52031 0.61604 0.0
C2053 C 0.66026 0.51821 0.60476 0.0
C2054 C 0.54884 0.4958 0.63175 0.0
C2055 C 0.75637 0.52997 0.61824 0.0
C2056 C 0.674 0.52008 0.6566 0.0
C2057 C 0.73298 0.51083 0.65996 0.0
C2058 C 0.65148 0.52152 0.64508 0.0
C2059 C 0.68857 0.51345 0.63679 0.0
C2060 C 0.75221 0.50465 0.64014 0.0
C2061 C 0.77303 0.50337 0.65171 0.0
C2062 C 0.58376 0.53105 0.64193 0.0
C2063 C 0.79448 0.496 0.63161 0.0
H2064 H 0.52018 0.49408 0.6092 0.0
H2065 H 0.68881 0.52356 0.59786 0.0
H2066 H 0.59647 0.48918 0.63541 0.0
H2067 H 0.52612 0.50205 0.63872 0.0
H2068 H 0.49447 0.49009 0.62855 0.0
H2069 H 0.76566 0.53648 0.61088 0.0
H2070 H 0.74182 0.53574 0.6259 0.0
H2071 H 0.81691 0.52489 0.61987 0.0
H2072 H 0.64224 0.52572 0.66305 0.0
H2073 H 0.81796 0.49612 0.65437 0.0
H2074 H 0.52391 0.5259 0.64004 0.0
H2075 H 0.60196 0.53642 0.63418 0.0
H2076 H 0.57145 0.53794 0.64891 0.0
H2077 H 0.74808 0.48882 0.62854 0.0
H2078 H 0.84963 0.49087 0.63531 0.0
H2079 H 0.81627 0.50156 0.62413 0.0
C2080 C 0.67093 0.75725 0.60556 0.0
C2081 C 0.73081 0.76637 0.60219 0.0
C2082 C 0.65053 0.75558 0.61713 0.0
C2083 C 0.69031 0.76334 0.62543 0.0
C2084 C 0.7546 0.77201 0.62203 0.0
C2085 C 0.77361 0.77348 0.61043 0.0
C2086 C 0.58244 0.74613 0.62034 0.0
C2087 C 0.79942 0.78039 0.63056 0.0
C2088 C 0.57389 0.77473 0.6518 0.0
C2089 C 0.61398 0.76777 0.66038 0.0
C2090 C 0.59447 0.77276 0.64032 0.0
C2091 C 0.65794 0.76376 0.63738 0.0
C2092 C 0.69586 0.75628 0.64605 0.0
C2093 C 0.67342 0.7584 0.65749 0.0
C2094 C 0.55149 0.78082 0.63138 0.0
C2095 C 0.76307 0.74652 0.6433 0.0
H2096 H 0.63697 0.7519 0.59912 0.0
H2097 H 0.81925 0.78062 0.60776 0.0
H2098 H 0.60002 0.74084 0.62817 0.0
H2099 H 0.52261 0.75133 0.62211 0.0
H2100 H 0.5703 0.73917 0.61341 0.0
H2101 H 0.85335 0.78567 0.62671 0.0
H2102 H 0.75391 0.78741 0.63411 0.0
H2103 H 0.82362 0.77457 0.63774 0.0
H2104 H 0.52847 0.78205 0.65411 0.0
H2105 H 0.70523 0.75315 0.66419 0.0
H2106 H 0.5257 0.77468 0.62453 0.0
H2107 H 0.59853 0.78736 0.62745 0.0
H2108 H 0.49894 0.78663 0.63496 0.0
H2109 H 0.74084 0.74008 0.63644 0.0
H2110 H 0.78044 0.74067 0.65083 0.0
H2111 H 0.82088 0.75142 0.64015 0.0
C2112 C 0.31498 0.51365 0.36081 0.0
C2113 C 0.37952 0.51442 0.35267 0.0
C2114 C 0.33492 0.51261 0.37246 0.0
C2115 C 0.42111 0.51207 0.37592 0.0
C2116 C 0.48548 0.51144 0.36755 0.0
C2117 C 0.46401 0.51286 0.35605 0.0
C2118 C 0.26427 0.51328 0.38107 0.0
C2119 C 0.57781 0.51033 0.37077 0.0
C2120 C 0.48442 0.53035 0.40243 0.0
C2121 C 0.49469 0.52067 0.41052 0.0
C2122 C 0.45955 0.5276 0.39127 0.0
C2123 C 0.44509 0.51479 0.38798 0.0
C2124 C 0.45654 0.50488 0.39607 0.0
C2125 C 0.48078 0.50795 0.4073 0.0
C2126 C 0.44854 0.5385 0.38298 0.0
C2127 C 0.44219 0.4911 0.39293 0.0
H2128 H 0.2496 0.51487 0.35817 0.0
H2129 H 0.51389 0.51331 0.3497 0.0
H2130 H 0.27391 0.5061 0.38788 0.0
H2131 H 0.26443 0.52284 0.38513 0.0
H2132 H 0.20116 0.51169 0.37712 0.0
H2133 H 0.61804 0.50773 0.36337 0.0
H2134 H 0.60032 0.51961 0.37417 0.0
H2135 H 0.58647 0.50307 0.37754 0.0
H2136 H 0.4948 0.5402 0.40488 0.0
H2137 H 0.48802 0.50043 0.41356 0.0
H2138 H 0.38351 0.53836 0.37938 0.0
H2139 H 0.49367 0.53743 0.37581 0.0
H2140 H 0.45943 0.54795 0.387 0.0
H2141 H 0.37325 0.48936 0.39187 0.0
H2142 H 0.46646 0.48448 0.39956 0.0
H2143 H 0.47328 0.48881 0.38472 0.0
C2144 C 0.43973 0.25348 0.40549 0.0
C2145 C 0.3752 0.26027 0.41102 0.0
C2146 C 0.45773 0.25543 0.39397 0.0
C2147 C 0.41066 0.26453 0.38771 0.0
C2148 C 0.3488 0.27203 0.3934 0.0
C2149 C 0.33129 0.26975 0.405 0.0
C2150 C 0.52409 0.24717 0.38834 0.0
C2151 C 0.29885 0.28209 0.38714 0.0
C2152 C 0.50139 0.26935 0.35791 0.0
C2153 C 0.4543 0.26034 0.35176 0.0
C2154 C 0.48386 0.27163 0.36951 0.0
C2155 C 0.4186 0.26464 0.37504 0.0
C2156 C 0.36811 0.25612 0.36863 0.0
C2157 C 0.38636 0.25413 0.35712 0.0
C2158 C 0.53728 0.28112 0.37595 0.0
C2159 C 0.29786 0.24845 0.37408 0.0
H2160 H 0.4751 0.24629 0.41012 0.0
H2161 H 0.28235 0.2752 0.40928 0.0
H2162 H 0.49337 0.24084 0.382 0.0
H2163 H 0.57076 0.25317 0.38375 0.0
H2164 H 0.55877 0.24111 0.39455 0.0
H2165 H 0.26802 0.28888 0.39309 0.0
H2166 H 0.34026 0.2875 0.38122 0.0
H2167 H 0.24864 0.27744 0.382 0.0
H2168 H 0.55298 0.27436 0.35375 0.0
H2169 H 0.34849 0.24734 0.35238 0.0
H2170 H 0.58244 0.27595 0.38152 0.0
H2171 H 0.49688 0.28715 0.38149 0.0
H2172 H 0.57416 0.28738 0.37014 0.0
H2173 H 0.32541 0.24162 0.38028 0.0
H2174 H 0.2604 0.24297 0.36774 0.0
H2175 H 0.25418 0.25481 0.37881 0.0
C2176 C 0.62586 1.01119 0.15699 0.0
C2177 C 0.70936 1.01231 0.16092 0.0
C2178 C 0.60624 1.01289 0.14548 0.0
C2179 C 0.67213 0.01552 0.13766 0.0
C2180 C 0.75534 0.01785 0.14176 0.0
C2181 C 0.77306 0.01627 0.15341 0.0
C2182 C 0.5162 1.01074 0.14158 0.0
C2183 C 0.8268 0.02103 0.13372 0.0
C2184 C 0.65038 0.9982 0.10956 0.0
C2185 C 0.61868 1.00771 0.10238 0.0
C2186 C 0.66862 1.00075 0.12097 0.0
C2187 C 0.65709 1.01324 0.12531 0.0
C2188 C 0.62695 0.02301 0.118 0.0
C2189 C 0.60665 0.02007 0.10663 0.0
C2190 C 0.69904 0.98995 0.12845 0.0
C2191 C 0.61513 0.0365 0.12218 0.0
H2192 H 0.57609 1.00843 0.16287 0.0
H2193 H 0.83751 0.0173 0.15649 0.0
H2194 H 0.49668 0.01826 0.13548 0.0
H2195 H 0.51202 1.00143 0.13712 0.0
H2196 H 0.47077 1.01065 0.1488 0.0
H2197 H 0.88356 0.02463 0.1383 0.0
H2198 H 0.84505 1.01234 0.12893 0.0
H2199 H 0.80625 0.0283 0.12744 0.0
H2200 H 0.65985 0.98865 0.10627 0.0
H2201 H 0.583 0.02748 0.10103 0.0
H2202 H 0.65383 0.98848 0.13557 0.0
H2203 H 0.76149 0.99238 0.13221 0.0
H2204 H 0.70536 0.98083 0.12373 0.0
H2205 H 0.55463 0.03716 0.12695 0.0
H2206 H 0.61257 0.04341 0.11502 0.0
H2207 H 0.66705 0.03932 0.12802 0.0
C2208 C 0.69033 0.25596 0.1065 0.0
C2209 C 0.73108 0.26708 0.10274 0.0
C2210 C 0.66816 0.25441 0.11806 0.0
C2211 C 0.68775 0.26419 0.12598 0.0
C2212 C 0.73397 0.27502 0.12224 0.0
C2213 C 0.75389 0.2764 0.11067 0.0
C2214 C 0.61839 0.24277 0.12156 0.0
C2215 C 0.75819 0.28555 0.13036 0.0
C2216 C 0.55131 0.27302 0.1514 0.0
C2217 C 0.599 0.26829 0.16049 0.0
C2218 C 0.57569 0.2707 0.14009 0.0
C2219 C 0.65213 0.26405 0.1378 0.0
C2220 C 0.69885 0.25882 0.147 0.0
C2221 C 0.67085 0.26082 0.15825 0.0
C2222 C 0.52184 0.27599 0.13059 0.0
C2223 C 0.7812 0.25186 0.145 0.0
H2224 H 0.67108 0.24887 0.10033 0.0
H2225 H 0.78481 0.28504 0.10773 0.0
H2226 H 0.63973 0.23914 0.12994 0.0
H2227 H 0.55044 0.24536 0.12237 0.0
H2228 H 0.62396 0.23498 0.1152 0.0
H2229 H 0.80255 0.29252 0.12644 0.0
H2230 H 0.70035 0.29074 0.1331 0.0
H2231 H 0.78832 0.28151 0.13809 0.0
H2232 H 0.4957 0.27878 0.15315 0.0
H2233 H 0.70831 0.25729 0.16531 0.0
H2234 H 0.51126 0.26861 0.12399 0.0
H2235 H 0.55529 0.2841 0.1265 0.0
H2236 H 0.45927 0.27941 0.13369 0.0
H2237 H 0.77229 0.24418 0.13863 0.0
H2238 H 0.80689 0.2476 0.15294 0.0
H2239 H 0.82891 0.25859 0.14151 0.0
C2240 C 0.4483 0.02341 0.8569 0.0
C2241 C 0.37346 0.0187 0.85204 0.0
C2242 C 0.46726 0.0214 0.86839 0.0
C2243 C 0.40972 0.01452 0.87531 0.0
C2244 C 0.33652 1.009 0.87029 0.0
C2245 C 0.3192 1.01113 0.85866 0.0
C2246 C 0.54639 0.0274 0.87326 0.0
C2247 C 0.27406 1.00148 0.87733 0.0
C2248 C 0.49452 1.00842 0.90527 0.0
C2249 C 0.46781 0.01956 0.91078 0.0
C2250 C 0.47207 1.00613 0.89382 0.0
C2251 C 0.42045 0.01507 0.88794 0.0
C2252 C 0.38856 0.02581 0.89384 0.0
C2253 C 0.41342 0.02798 0.90509 0.0
C2254 C 0.50726 0.99457 0.88784 0.0
C2255 C 0.33204 0.03548 0.88806 0.0
H2256 H 0.49145 0.02906 0.85177 0.0
H2257 H 0.26172 1.00735 0.8549 0.0
H2258 H 0.52842 0.03544 0.87891 0.0
H2259 H 0.58187 0.02038 0.87848 0.0
H2260 H 0.58927 0.03113 0.86653 0.0
H2261 H 0.23031 0.99581 0.87192 0.0
H2262 H 0.30753 0.99496 0.88325 0.0
H2263 H 0.2357 1.00815 0.88254 0.0
H2264 H 0.53604 1.00184 0.9097 0.0
H2265 H 0.39115 0.03648 0.90941 0.0
H2266 H 0.55665 0.99761 0.88169 0.0
H2267 H 0.45673 0.98967 0.88295 0.0
H2268 H 0.53606 0.98768 0.8939 0.0
H2269 H 0.36896 0.04074 0.88154 0.0
H2270 H 0.30535 0.0425 0.89416 0.0
H2271 H 0.27882 0.03063 0.88367 0.0
C2272 C 0.42318 0.75116 0.85841 0.0
C2273 C 0.47321 0.75972 0.85219 0.0
C2274 C 0.40102 0.75356 0.86973 0.0
C2275 C 0.43115 0.76472 0.87517 0.0
C2276 C 0.47883 0.77373 0.86879 0.0
C2277 C 0.49872 0.77118 0.85729 0.0
C2278 C 0.34875 0.74376 0.87604 0.0
C2279 C 0.51242 0.78573 0.87424 0.0
C2280 C 0.33004 0.76888 0.90441 0.0
C2281 C 0.38652 0.76186 0.91116 0.0
C2282 C 0.34687 0.77091 0.89274 0.0
C2283 C 0.4216 0.76577 0.8878 0.0
C2284 C 0.48141 0.75955 0.89485 0.0
C2285 C 0.46308 0.75767 0.90638 0.0
C2286 C 0.28239 0.77785 0.88559 0.0
C2287 C 0.56235 0.75403 0.89007 0.0
H2288 H 0.40194 0.74239 0.85444 0.0
H2289 H 0.53708 0.77786 0.85247 0.0
H2290 H 0.38818 0.73917 0.8827 0.0
H2291 H 0.29434 0.74841 0.88034 0.0
H2292 H 0.32393 0.7362 0.87033 0.0
H2293 H 0.53364 0.7928 0.8678 0.0
H2294 H 0.46354 0.79018 0.87974 0.0
H2295 H 0.56733 0.78329 0.87973 0.0
H2296 H 0.27137 0.77233 0.9081 0.0
H2297 H 0.508 0.75247 0.91161 0.0
H2298 H 0.24674 0.77086 0.88038 0.0
H2299 H 0.31411 0.78458 0.87966 0.0
H2300 H 0.23642 0.78323 0.8909 0.0
H2301 H 0.54701 0.74564 0.8847 0.0
H2302 H 0.60677 0.75092 0.89686 0.0
H2303 H 0.59501 0.76112 0.88461 0.0
C2304 C 0.24617 0.66561 0.08143 0.0
C2305 C 0.19151 0.67338 0.0751 0.0
C2306 C 0.24193 0.65229 0.08064 0.0
C2307 C 0.18042 0.6466 0.0735 0.0
C2308 C 0.12497 0.65442 0.06707 0.0
C2309 C 0.13188 0.66777 0.06783 0.0
C2310 C 0.30308 0.64431 0.0875 0.0
C2311 C 0.05741 0.64868 0.05956 0.0
C2312 C 0.21274 0.61187 0.06519 0.0
C2313 C 0.16261 0.60557 0.07328 0.0
C2314 C 0.21861 0.62525 0.06507 0.0
C2315 C 0.17246 0.63247 0.07316 0.0
C2316 C 0.12101 0.62615 0.08125 0.0
C2317 C 0.11692 0.61279 0.08123 0.0
C2318 C 0.2748 0.63167 0.0564 0.0
C2319 C 0.07025 0.63349 0.08995 0.0
H2320 H 0.2929 0.66999 0.08694 0.0
H2321 H 0.0895 0.67383 0.06298 0.0
H2322 H 0.26762 0.63804 0.09344 0.0
H2323 H 0.34009 0.63803 0.08175 0.0
H2324 H 0.34798 0.65024 0.0925 0.0
H2325 H 1.01935 0.65608 0.05511 0.0
H2326 H 0.08693 0.64237 0.05312 0.0
H2327 H 1.01408 0.64269 0.06474 0.0
H2328 H 0.24823 0.60632 0.05904 0.0
H2329 H 0.07661 0.60799 0.08736 0.0
H2330 H 0.32362 0.63752 0.06076 0.0
H2331 H 0.23663 0.63824 0.05106 0.0
H2332 H 0.30715 0.6247 0.05077 0.0
H2333 H 0.11347 0.63912 0.09544 0.0
H2334 H 1.03148 0.62714 0.09545 0.0
H2335 H 1.02743 0.64034 0.08561 0.0
C2336 C 0.18056 0.66756 0.1984 0.0
C2337 C 0.14174 0.673 0.18883 0.0
C2338 C 0.18772 0.65423 0.19953 0.0
C2339 C 0.15413 0.64619 0.19096 0.0
C2340 C 0.11343 0.65166 0.1814 0.0
C2341 C 0.10804 0.66496 0.18044 0.0
C2342 C 0.23266 0.64876 0.20975 0.0
C2343 C 0.07597 0.64344 0.17214 0.0
C2344 C 0.2409 0.61293 0.1859 0.0
C2345 C 0.17885 0.60524 0.19098 0.0
C2346 C 0.23523 0.62627 0.18624 0.0
C2347 C 0.16484 0.63208 0.19161 0.0
C2348 C 0.10251 0.62435 0.19693 0.0
C2349 C 0.1108 0.61099 0.19667 0.0
C2350 C 0.3038 0.63413 0.18063 0.0
C2351 C 1.02605 0.6302 0.2026 0.0
H2352 H 0.207 0.67374 0.20488 0.0
H2353 H 0.07661 0.66911 0.17312 0.0
H2354 H 0.18943 0.64229 0.21446 0.0
H2355 H 0.28779 0.64298 0.20695 0.0
H2356 H 0.25542 0.6563 0.21564 0.0
H2357 H 1.045 0.64918 0.16537 0.0
H2358 H 0.12633 0.63753 0.16819 0.0
H2359 H 1.02837 0.63682 0.17582 0.0
H2360 H 0.29419 0.60847 0.18164 0.0
H2361 H 0.06291 0.60501 0.2006 0.0
H2362 H 0.32932 0.64124 0.18673 0.0
H2363 H 0.2768 0.6395 0.17335 0.0
H2364 H 0.35703 0.62816 0.17748 0.0
H2365 H 0.0466 0.63674 0.20948 0.0
H2366 H 0.98304 0.62288 0.20628 0.0
H2367 H 0.98989 0.63598 0.19636 0.0
C2368 C 0.97468 0.36294 0.93651 0.0
C2369 C 0.90541 0.35646 0.94129 0.0
C2370 C 0.97892 0.37633 0.93662 0.0
C2371 C 0.91232 0.38344 0.94163 0.0
C2372 C 0.84321 0.37695 0.9467 0.0
C2373 C 0.84057 0.36356 0.94647 0.0
C2374 C 0.05388 0.38288 0.93116 0.0
C2375 C 0.77081 0.38417 0.95209 0.0
C2376 C 0.95931 0.41813 0.94888 0.0
C2377 C 0.9254 0.42456 0.93944 0.0
C2378 C 0.95341 0.40479 0.94987 0.0
C2379 C 0.91358 0.39766 0.94116 0.0
C2380 C 0.87724 0.4041 0.93177 0.0
C2381 C 0.88303 0.41744 0.93107 0.0
C2382 C 0.99199 0.39828 0.96008 0.0
C2383 C 0.83431 0.39687 0.92229 0.0
H2384 H 1.02548 0.35753 0.9326 0.0
H2385 H 0.78616 0.35865 0.95002 0.0
H2386 H 1.03198 0.38884 0.92393 0.0
H2387 H 0.08489 0.38935 0.93736 0.0
H2388 H 0.10176 0.37598 0.92797 0.0
H2389 H 0.7244 0.37772 0.95628 0.0
H2390 H 0.79534 0.391 0.95849 0.0
H2391 H 0.73715 0.38981 0.94551 0.0
H2392 H 0.99309 0.42346 0.95534 0.0
H2393 H 0.855 0.4223 0.92385 0.0
H2394 H 0.04593 0.39223 0.95734 0.0
H2395 H 0.94472 0.39192 0.96418 0.0
H2396 H 1.01528 0.40522 0.9665 0.0
H2397 H 0.88158 0.39082 0.91784 0.0
H2398 H 0.80439 0.40333 0.91596 0.0
H2399 H 0.78493 0.39042 0.92578 0.0
C2400 C 0.86086 0.41694 0.81264 0.0
C2401 C 0.91409 0.42372 0.82006 0.0
C2402 C 0.86548 0.40358 0.81182 0.0
C2403 C 0.92417 0.39681 0.81864 0.0
C2404 C 0.97981 0.40362 0.82587 0.0
C2405 C 0.97435 0.41697 0.82646 0.0
C2406 C 0.8054 0.39669 0.80395 0.0
C2407 C 1.0435 0.39677 0.83326 0.0
C2408 C 0.87813 0.36243 0.82688 0.0
C2409 C 0.934 0.35565 0.81982 0.0
C2410 C 0.87323 0.37579 0.82642 0.0
C2411 C 0.92486 0.38259 0.81865 0.0
C2412 C 0.97925 0.37581 0.81123 0.0
C2413 C 0.98341 0.36244 0.81193 0.0
C2414 C 0.81431 0.38266 0.83447 0.0
C2415 C 1.03476 0.38271 0.80276 0.0
H2416 H 0.81329 0.42201 0.80777 0.0
H2417 H 1.01675 0.42213 0.83206 0.0
H2418 H 0.84054 0.38981 0.79855 0.0
H2419 H 0.75893 0.39115 0.80904 0.0
H2420 H 0.77005 0.40337 0.79835 0.0
H2421 H 0.0847 0.40348 0.83805 0.0
H2422 H 1.00978 0.39057 0.83944 0.0
H2423 H 0.08425 0.39051 0.82798 0.0
H2424 H 0.83866 0.35728 0.83287 0.0
H2425 H 1.02763 0.35734 0.80654 0.0
H2426 H 0.77033 0.38889 0.82963 0.0
H2427 H 0.85165 0.3889 0.84021 0.0
H2428 H 0.7763 0.37597 0.83974 0.0
H2429 H 0.99567 0.38909 0.79736 0.0
H2430 H 0.07012 0.37602 0.79718 0.0
H2431 H 0.08111 0.3888 0.80733 0.0
C2432 C 0.12799 0.11244 0.58198 0.0
C2433 C 0.16659 0.10501 0.57352 0.0
C2434 C 0.13242 0.12579 0.5817 0.0
C2435 C 0.17704 0.1319 0.57279 0.0
C2436 C 0.21681 0.12447 0.56427 0.0
C2437 C 0.21056 0.11109 0.56468 0.0
C2438 C 0.08839 0.13336 0.59089 0.0
C2439 C 0.26628 0.13065 0.55476 0.0
C2440 C 0.12707 0.16688 0.56711 0.0
C2441 C 0.19071 0.17295 0.5734 0.0
C2442 C 0.1221 0.15348 0.56675 0.0
C2443 C 0.18342 0.14607 0.57259 0.0
C2444 C 0.2491 0.15222 0.57868 0.0
C2445 C 0.25144 0.16558 0.5791 0.0
C2446 C 0.0503 0.14725 0.56034 0.0
C2447 C 0.31634 0.14469 0.58489 0.0
H2448 H 0.09254 0.10779 0.58871 0.0
H2449 H 0.24076 0.10538 0.55816 0.0
H2450 H 0.13433 0.13972 0.59523 0.0
H2451 H 1.03892 0.13952 0.58703 0.0
H2452 H 0.05808 0.12713 0.59737 0.0
H2453 H 0.29521 0.12352 0.54895 0.0
H2454 H 0.22403 0.13696 0.54973 0.0
H2455 H 0.3174 0.13672 0.55833 0.0
H2456 H 0.08006 0.17261 0.56273 0.0
H2457 H 0.30125 0.1703 0.58385 0.0
H2458 H 1.01197 0.14132 0.56624 0.0
H2459 H 0.07594 0.1408 0.55372 0.0
H2460 H 1.00797 0.15435 0.55622 0.0
H2461 H 0.28673 0.139 0.59179 0.0
H2462 H 0.36576 0.15093 0.58868 0.0
H2463 H 0.34739 0.13789 0.57899 0.0
C2464 C 0.08529 0.16539 0.68317 0.0
C2465 C 0.14699 0.17311 0.68823 0.0
C2466 C 0.08993 0.15206 0.68392 0.0
C2467 C 0.15898 0.14634 0.68969 0.0
C2468 C 0.22148 0.15415 0.69485 0.0
C2469 C 0.21421 0.1675 0.69417 0.0
C2470 C 1.0214 0.14411 0.67845 0.0
C2471 C 0.29685 0.14839 0.70086 0.0
C2472 C 0.13796 0.11152 0.69848 0.0
C2473 C 0.17822 0.10531 0.68941 0.0
C2474 C 0.13166 0.1249 0.69874 0.0
C2475 C 0.16745 0.1322 0.68981 0.0
C2476 C 0.20909 0.12597 0.68072 0.0
C2477 C 0.21372 0.11262 0.68062 0.0
C2478 C 0.08597 0.13122 0.7085 0.0
C2479 C 0.24876 0.1334 0.67108 0.0
H2480 H 1.03318 0.16982 0.67863 0.0
H2481 H 0.26196 0.17356 0.69802 0.0
H2482 H 0.0493 0.13795 0.67176 0.0
H2483 H 0.99206 0.13772 0.68487 0.0
H2484 H 0.97087 0.15006 0.67455 0.0
H2485 H 0.33935 0.15577 0.70453 0.0
H2486 H 0.27513 0.14199 0.70779 0.0
H2487 H 0.33395 0.14249 0.69482 0.0
H2488 H 0.11026 0.1059 0.70528 0.0
H2489 H 0.24642 0.10788 0.6737 0.0
H2490 H 1.03242 0.13703 0.70522 0.0
H2491 H 0.1296 0.13782 0.71299 0.0
H2492 H 0.06085 0.12419 0.71472 0.0
H2493 H 0.19951 0.13906 0.66662 0.0
H2494 H 0.28051 0.12711 0.66479 0.0
H2495 H 0.29616 0.14023 0.67448 0.0
C2496 C 0.97214 0.86251 0.43691 0.0
C2497 C 0.90222 0.85616 0.44166 0.0
C2498 C 0.97713 0.87589 0.43692 0.0
C2499 C 0.91063 0.88313 0.4418 0.0
C2500 C 0.84076 0.87679 0.44682 0.0
C2501 C 0.83737 0.8634 0.44669 0.0
C2502 C 0.05283 0.88229 0.4315 0.0
C2503 C 0.76844 0.88415 0.45207 0.0
C2504 C 0.9585 0.91778 0.44908 0.0
C2505 C 0.92507 0.92424 0.43963 0.0
C2506 C 0.95238 0.90444 0.45004 0.0
C2507 C 0.91289 0.89734 0.44129 0.0
C2508 C 0.87729 0.90381 0.43186 0.0
C2509 C 0.88322 0.91715 0.43119 0.0
C2510 C 0.99016 0.8979 0.4603 0.0
C2511 C 0.83481 0.89661 0.42232 0.0
H2512 H 1.0229 0.85699 0.43311 0.0
H2513 H 0.78241 0.8586 0.45022 0.0
H2514 H 1.03174 0.88827 0.42424 0.0
H2515 H 0.08404 0.88872 0.43771 0.0
H2516 H 0.10033 0.8753 0.42837 0.0
H2517 H 0.72113 0.8778 0.4562 0.0
H2518 H 0.79294 0.89095 0.4585 0.0
H2519 H 0.73584 0.88984 0.44542 0.0
H2520 H 0.99196 0.92308 0.45559 0.0
H2521 H 0.8556 0.92203 0.42396 0.0
H2522 H 1.04378 0.89175 0.4576 0.0
H2523 H 0.9423 0.89162 0.46437 0.0
H2524 H 1.01368 0.90482 0.46671 0.0
H2525 H 0.88208 0.89047 0.41798 0.0
H2526 H 0.80595 0.90309 0.41592 0.0
H2527 H 0.78467 0.89025 0.42574 0.0
C2528 C 0.99998 0.86356 0.32772 0.0
C2529 C 0.93401 0.85631 0.32301 0.0
C2530 C 0.99885 0.87691 0.32725 0.0
C2531 C 0.92996 0.8832 0.32197 0.0
C2532 C 0.86344 0.87595 0.3171 0.0
C2533 C 0.86635 0.86258 0.31765 0.0
C2534 C 0.07118 0.8843 0.33248 0.0
C2535 C 0.78877 0.88234 0.31144 0.0
C2536 C 0.88337 0.91689 0.33173 0.0
C2537 C 0.91757 0.92423 0.32287 0.0
C2538 C 0.88658 0.90355 0.33147 0.0
C2539 C 0.92525 0.89736 0.32214 0.0
C2540 C 0.96007 0.90468 0.31315 0.0
C2541 C 0.95531 0.91807 0.31358 0.0
C2542 C 0.84803 0.89608 0.34117 0.0
C2543 C 1.00256 0.89838 0.30313 0.0
H2544 H 0.05345 0.85876 0.33163 0.0
H2545 H 0.81517 0.85702 0.31401 0.0
H2546 H 0.09953 0.89081 0.32608 0.0
H2547 H 0.04713 0.8903 0.33955 0.0
H2548 H 0.12173 0.87796 0.33585 0.0
H2549 H 0.74235 0.87534 0.30805 0.0
H2550 H 0.75585 0.88864 0.3176 0.0
H2551 H 0.81111 0.88846 0.30434 0.0
H2552 H 0.85253 0.9216 0.33881 0.0
H2553 H 0.98191 0.92373 0.30673 0.0
H2554 H 0.89693 0.88995 0.34519 0.0
H2555 H 0.7975 0.88969 0.3379 0.0
H2556 H 0.82028 0.90237 0.3478 0.0
H2557 H 0.05545 0.89225 0.3061 0.0
H2558 H 1.02796 0.90544 0.29695 0.0
H2559 H 0.95668 0.89211 0.29867 0.0
C2560 C 0.7208 0.61106 0.56741 0.0
C2561 C 0.64427 0.60531 0.57056 0.0
C2562 C 0.72759 0.62441 0.56677 0.0
C2563 C 0.65672 0.63207 0.56964 0.0
C2564 C 0.57879 0.62621 0.57258 0.0
C2565 C 0.57337 0.61287 0.57291 0.0
C2566 C 0.8112 0.63031 0.5634 0.0
C2567 C 0.50226 0.63403 0.57587 0.0
C2568 C 0.70137 0.66479 0.58195 0.0
C2569 C 0.68338 0.67285 0.57275 0.0
C2570 C 0.69286 0.65153 0.58102 0.0
C2571 C 0.66606 0.64615 0.5706 0.0
C2572 C 0.64763 0.6542 0.56125 0.0
C2573 C 0.65668 0.66748 0.56243 0.0
C2574 C 0.71301 0.64327 0.5912 0.0
C2575 C 0.61913 0.64879 0.55 0.0
H2576 H 0.77546 0.60512 0.56562 0.0
H2577 H 0.51455 0.60831 0.57544 0.0
H2578 H 0.80155 0.63729 0.55641 0.0
H2579 H 0.83825 0.63561 0.57071 0.0
H2580 H 0.85801 0.62305 0.56058 0.0
H2581 H 0.44539 0.62801 0.57742 0.0
H2582 H 0.51625 0.63951 0.58372 0.0
H2583 H 0.48731 0.64104 0.56909 0.0
H2584 H 0.72374 0.66883 0.58988 0.0
H2585 H 0.64227 0.67367 0.5553 0.0
H2586 H 0.766 0.63671 0.58913 0.0
H2587 H 0.65729 0.6373 0.59342 0.0
H2588 H 0.73106 0.64899 0.59877 0.0
H2589 H 0.67073 0.64291 0.54631 0.0
H2590 H 0.60193 0.65637 0.54381 0.0
H2591 H 0.56359 0.64243 0.55123 0.0
C2592 C 0.75923 0.61259 0.69132 0.0
C2593 C 0.68553 0.60513 0.69105 0.0
C2594 C 0.75475 0.62595 0.69101 0.0
C2595 C 0.67449 0.63199 0.69071 0.0
C2596 C 0.59972 0.62448 0.69072 0.0
C2597 C 0.60617 0.6111 0.69073 0.0
C2598 C 0.83592 0.63359 0.69072 0.0
C2599 C 0.51302 0.63057 0.69061 0.0
C2600 C 0.66007 0.66703 0.69895 0.0
C2601 C 0.65445 0.67298 0.68828 0.0
C2602 C 0.66697 0.6537 0.69988 0.0
C2603 C 0.66883 0.64614 0.68991 0.0
C2604 C 0.66474 0.6521 0.67913 0.0
C2605 C 0.65711 0.66541 0.67844 0.0
C2606 C 0.67108 0.64768 0.71152 0.0
C2607 C 0.66742 0.6444 0.66829 0.0
H2608 H 0.82062 0.60792 0.6914 0.0
H2609 H 0.54927 0.60529 0.69052 0.0
H2610 H 0.83755 0.63963 0.68297 0.0
H2611 H 0.83873 0.64007 0.69815 0.0
H2612 H 0.89316 0.62741 0.69078 0.0
H2613 H 0.46125 0.62341 0.6912 0.0
H2614 H 0.50698 0.63733 0.69782 0.0
H2615 H 0.50456 0.63615 0.68267 0.0
H2616 H 0.65914 0.67279 0.70659 0.0
H2617 H 0.65128 0.66987 0.67016 0.0
H2618 H 0.72939 0.64183 0.71233 0.0
H2619 H 0.61623 0.64117 0.71272 0.0
H2620 H 0.67058 0.65489 0.71844 0.0
H2621 H 0.72476 0.63827 0.66817 0.0
H2622 H 0.66787 0.65053 0.66058 0.0
H2623 H 0.61144 0.63801 0.66788 0.0
C2624 C 0.51132 0.4161 0.44331 0.0
C2625 C 0.4369 0.42337 0.44306 0.0
C2626 C 0.50802 0.40272 0.4434 0.0
C2627 C 0.42827 0.3965 0.44351 0.0
C2628 C 0.35284 0.40386 0.44364 0.0
C2629 C 0.35806 0.41723 0.44323 0.0
C2630 C 0.58978 0.39525 0.44295 0.0
C2631 C 0.26672 0.39758 0.44399 0.0
C2632 C 0.41122 0.3629 0.43169 0.0
C2633 C 0.41113 0.35544 0.44161 0.0
C2634 C 0.41795 0.37623 0.4322 0.0
C2635 C 0.42372 0.38232 0.4429 0.0
C2636 C 0.42443 0.37488 0.45295 0.0
C2637 C 0.41838 0.36153 0.45219 0.0
C2638 C 0.4176 0.38381 0.42128 0.0
C2639 C 0.43045 0.38104 0.46451 0.0
H2640 H 0.5722 0.4209 0.44303 0.0
H2641 H 0.30065 0.42292 0.44302 0.0
H2642 H 0.59248 0.3883 0.45006 0.0
H2643 H 0.59255 0.38972 0.43492 0.0
H2644 H 0.6465 0.40152 0.4434 0.0
H2645 H 0.2145 0.40465 0.44471 0.0
H2646 H 0.25682 0.39187 0.43617 0.0
H2647 H 0.26302 0.39092 0.45132 0.0
H2648 H 0.40395 0.35835 0.42348 0.0
H2649 H 0.41932 0.35585 0.45989 0.0
H2650 H 0.47372 0.39019 0.42092 0.0
H2651 H 0.36036 0.38995 0.42095 0.0
H2652 H 0.41798 0.37758 0.41364 0.0
H2653 H 0.48865 0.38696 0.46505 0.0
H2654 H 0.43157 0.37391 0.4715 0.0
H2655 H 0.37556 0.3875 0.46582 0.0
C2656 C 0.50755 0.36197 0.3163 0.0
C2657 C 0.43541 0.35478 0.31906 0.0
C2658 C 0.5046 0.37534 0.31602 0.0
C2659 C 0.42737 0.38167 0.31841 0.0
C2660 C 0.35372 0.37444 0.3209 0.0
C2661 C 0.35879 0.36107 0.32129 0.0
C2662 C 0.58486 0.3827 0.31357 0.0
C2663 C 0.2699 0.38084 0.32333 0.0
C2664 C 0.43034 0.41567 0.32951 0.0
C2665 C 0.41141 0.42274 0.31969 0.0
C2666 C 0.43775 0.40234 0.32914 0.0
C2667 C 0.42427 0.39585 0.31875 0.0
C2668 C 0.40627 0.4029 0.30878 0.0
C2669 C 0.40084 0.41626 0.30934 0.0
C2670 C 0.45812 0.39517 0.33994 0.0
C2671 C 0.39113 0.39631 0.29756 0.0
H2672 H 0.56723 0.35714 0.31477 0.0
H2673 H 0.30285 0.35552 0.32337 0.0
H2674 H 0.57424 0.38962 0.30657 0.0
H2675 H 0.60331 0.38826 0.3212 0.0
H2676 H 0.63842 0.37635 0.3112 0.0
H2677 H 0.21765 0.37384 0.32449 0.0
H2678 H 0.27508 0.38669 0.33115 0.0
H2679 H 0.25304 0.38738 0.31626 0.0
H2680 H 0.43706 0.42049 0.3376 0.0
H2681 H 0.38764 0.42162 0.30166 0.0
H2682 H 0.51251 0.38865 0.33855 0.0
H2683 H 0.40301 0.38922 0.34246 0.0
H2684 H 0.47373 0.40168 0.34709 0.0
H2685 H 0.44713 0.39046 0.29524 0.0
H2686 H 0.37829 0.40317 0.29057 0.0
H2687 H 0.3363 0.38972 0.29833 0.0
C2688 C 0.5785 0.11194 0.07283 0.0
C2689 C 0.65173 0.10436 0.07274 0.0
C2690 C 0.58397 0.12531 0.07271 0.0
C2691 C 0.66461 0.13123 0.07227 0.0
C2692 C 0.73873 0.1236 0.07186 0.0
C2693 C 0.73144 0.11025 0.07224 0.0
C2694 C 0.50356 0.13308 0.07338 0.0
C2695 C 0.82575 0.12956 0.0712 0.0
C2696 C 0.67876 0.16614 0.06346 0.0
C2697 C 0.68844 0.17223 0.074 0.0
C2698 C 0.67048 0.1528 0.06275 0.0
C2699 C 0.67163 0.14539 0.07282 0.0
C2700 C 0.68022 0.15149 0.08348 0.0
C2701 C 0.68893 0.1648 0.08393 0.0
C2702 C 0.6615 0.14663 0.05123 0.0
C2703 C 0.68116 0.14395 0.09442 0.0
H2704 H 0.51684 0.10739 0.07337 0.0
H2705 H 0.78805 0.10438 0.07212 0.0
H2706 H 0.50481 0.13919 0.08108 0.0
H2707 H 0.49895 0.13952 0.06591 0.0
H2708 H 0.44586 0.127 0.07369 0.0
H2709 H 0.87667 0.12231 0.07031 0.0
H2710 H 0.82913 0.13621 0.06387 0.0
H2711 H 0.83804 0.13523 0.07899 0.0
H2712 H 0.67738 0.1718 0.05574 0.0
H2713 H 0.69797 0.16936 0.09211 0.0
H2714 H 0.60255 0.14086 0.0509 0.0
H2715 H 0.71536 0.14002 0.04975 0.0
H2716 H 0.65987 0.15375 0.04423 0.0
H2717 H 0.62324 0.13797 0.09505 0.0
H2718 H 0.68463 0.15019 0.10204 0.0
H2719 H 0.73647 0.13741 0.0945 0.0
C2720 C 0.69936 0.1666 0.1976 0.0
C2721 C 0.6439 0.17221 0.18976 0.0
C2722 C 0.7052 0.15325 0.19853 0.0
C2723 C 0.65304 0.14543 0.19163 0.0
C2724 C 0.59489 0.15112 0.184 0.0
C2725 C 0.59156 0.16443 0.1831 0.0
C2726 C 0.76885 0.14751 0.20663 0.0
C2727 C 0.53721 0.14314 0.17663 0.0
C2728 C 0.72406 0.11219 0.18338 0.0
C2729 C 0.67561 0.1045 0.19066 0.0
C2730 C 0.71888 0.12551 0.18385 0.0
C2731 C 0.6631 0.13133 0.19171 0.0
C2732 C 0.61437 0.12363 0.19917 0.0
C2733 C 0.62187 0.11027 0.19863 0.0
C2734 C 0.7726 0.13337 0.17583 0.0
C2735 C 0.55353 0.1295 0.20757 0.0
H2736 H 0.73983 0.17265 0.20274 0.0
H2737 H 0.54774 0.16881 0.17715 0.0
H2738 H 0.73638 0.14104 0.2127 0.0
H2739 H 0.81538 0.14168 0.20183 0.0
H2740 H 0.80378 0.1549 0.21152 0.0
H2741 H 0.49272 0.14907 0.17155 0.0
H2742 H 0.57562 0.13728 0.17071 0.0
H2743 H 0.49977 0.13649 0.18199 0.0
H2744 H 0.7669 0.10775 0.17735 0.0
H2745 H 0.58447 0.10432 0.20428 0.0
H2746 H 0.81175 0.14024 0.18072 0.0
H2747 H 0.73121 0.139 0.17009 0.0
H2748 H 0.81532 0.12738 0.17056 0.0
H2749 H 0.58896 0.13551 0.2137 0.0
H2750 H 0.51732 0.12218 0.21239 0.0
H2751 H 0.508 0.13581 0.20308 0.0
C2752 C 0.46885 0.86129 0.94563 0.0
C2753 C 0.41691 0.85493 0.93781 0.0
C2754 C 0.47321 0.87468 0.94573 0.0
C2755 C 0.42311 0.88179 0.93799 0.0
C2756 C 0.37045 0.87538 0.93013 0.0
C2757 C 0.36835 0.86203 0.93009 0.0
C2758 C 0.53099 0.88122 0.95413 0.0
C2759 C 0.31572 0.88263 0.9218 0.0
C2760 C 0.36949 0.91611 0.94524 0.0
C2761 C 0.42752 0.92286 0.93847 0.0
C2762 C 0.36759 0.90274 0.94519 0.0
C2763 C 0.42475 0.89595 0.93816 0.0
C2764 C 0.48225 0.90269 0.93114 0.0
C2765 C 0.48319 0.91606 0.93142 0.0
C2766 C 0.30485 0.89586 0.95272 0.0
C2767 C 0.54446 0.8958 0.92357 0.0
H2768 H 0.50648 0.85578 0.95158 0.0
H2769 H 0.32711 0.85712 0.92416 0.0
H2770 H 0.57532 0.88767 0.94958 0.0
H2771 H 0.49293 0.88718 0.96001 0.0
H2772 H 0.56856 0.8743 0.95922 0.0
H2773 H 0.27794 0.87619 0.91628 0.0
H2774 H 0.2716 0.889 0.92647 0.0
H2775 H 0.35601 0.88877 0.91633 0.0
H2776 H 0.32572 0.9213 0.95063 0.0
H2777 H 0.52945 0.92118 0.92635 0.0
H2778 H 0.33923 0.88979 0.95892 0.0
H2779 H 0.26433 0.88947 0.94753 0.0
H2780 H 0.26336 0.90255 0.95748 0.0
H2781 H 0.59282 0.89098 0.9289 0.0
H2782 H 0.57741 0.9024 0.91763 0.0
H2783 H 0.51189 0.88832 0.91852 0.0
C2784 C 0.45691 0.86385 0.83181 0.0
C2785 C 0.43371 0.85704 0.82202 0.0
C2786 C 0.45063 0.87718 0.83219 0.0
C2787 C 0.42146 0.8839 0.82252 0.0
C2788 C 0.39595 0.8771 0.81272 0.0
C2789 C 0.40163 0.86375 0.81263 0.0
C2790 C 0.47727 0.8841 0.84286 0.0
C2791 C 0.36446 0.88394 0.80224 0.0
C2792 C 0.34071 0.91763 0.82672 0.0
C2793 C 0.41071 0.92487 0.82329 0.0
C2794 C 0.34305 0.90428 0.8264 0.0
C2795 C 0.41765 0.89807 0.82265 0.0
C2796 C 0.48862 0.90539 0.81913 0.0
C2797 C 0.48413 0.91878 0.81944 0.0
C2798 C 0.26598 0.89682 0.83014 0.0
C2799 C 0.5693 0.89907 0.81515 0.0
H2800 H 0.48261 0.8588 0.83907 0.0
H2801 H 0.38163 0.85856 0.80512 0.0
H2802 H 0.53319 0.89019 0.84103 0.0
H2803 H 0.42561 0.89047 0.84581 0.0
H2804 H 0.4938 0.87743 0.84987 0.0
H2805 H 0.34335 0.87722 0.79551 0.0
H2806 H 0.31083 0.89032 0.80445 0.0
H2807 H 0.41584 0.89002 0.79874 0.0
H2808 H 0.28409 0.92247 0.82969 0.0
H2809 H 0.53818 0.92448 0.81685 0.0
H2810 H 0.28266 0.89051 0.83738 0.0
H2811 H 0.24378 0.89061 0.82311 0.0
H2812 H 0.21288 0.90313 0.83276 0.0
H2813 H 0.59519 0.89292 0.822 0.0
H2814 H 0.61856 0.90612 0.81265 0.0
H2815 H 0.55576 0.89281 0.80777 0.0
C2816 C 0.74803 0.50537 0.079 0.0
C2817 C 0.79648 0.51316 0.07187 0.0
C2818 C 0.65895 0.50577 0.07858 0.0
C2819 C 0.61828 0.51383 0.07058 0.0
C2820 C 0.66769 0.52155 0.06323 0.0
C2821 C 0.75634 0.52126 0.06411 0.0
C2822 C 0.6084 0.49766 0.08675 0.0
C2823 C 0.627 0.53002 0.0544 0.0
C2824 C 0.3921 0.50585 0.06199 0.0
C2825 C 0.34548 0.51495 0.0681 0.0
C2826 C 0.48092 0.50542 0.06269 0.0
C2827 C 0.52408 0.51417 0.06979 0.0
C2828 C 0.47736 0.52337 0.07598 0.0
C2829 C 0.38866 0.52371 0.07499 0.0
C2830 C 0.52861 0.49562 0.05579 0.0
C2831 C 0.52098 0.53275 0.08377 0.0
H2832 H 0.77979 0.49917 0.08503 0.0
H2833 H 0.79459 0.52722 0.05857 0.0
H2834 H 0.5644 0.50377 0.09171 0.0
H2835 H 0.56916 0.49072 0.08196 0.0
H2836 H 0.64959 0.49233 0.09276 0.0
H2837 H 0.67464 0.53497 0.04901 0.0
H2838 H 0.58497 0.52428 0.04883 0.0
H2839 H 0.58689 0.53731 0.05861 0.0
H2840 H 0.35919 0.49905 0.05663 0.0
H2841 H 0.35301 0.53068 0.07984 0.0
H2842 H 0.56546 0.4893 0.06151 0.0
H2843 H 0.57459 0.50046 0.05009 0.0
H2844 H 0.48569 0.48963 0.05054 0.0
H2845 H 0.55799 0.52752 0.0903 0.0
H2846 H 0.47537 0.53917 0.08812 0.0
H2847 H 0.5664 0.53867 0.07886 0.0
C2848 C 0.58554 0.77416 0.07748 0.0
C2849 C 0.53817 0.76523 0.07133 0.0
C2850 C 0.67471 0.77412 0.077 0.0
C2851 C 0.7169 0.76531 0.06981 0.0
C2852 C 0.66877 0.75647 0.06339 0.0
C2853 C 0.58007 0.75638 0.0644 0.0
C2854 C 0.72383 0.78336 0.0843 0.0
C2855 C 0.7109 0.74716 0.0554 0.0
C2856 C 0.94443 0.77262 0.06092 0.0
C2857 C 0.99059 0.76434 0.06795 0.0
C2858 C 0.85527 0.77301 0.06139 0.0
C2859 C 0.81139 0.76508 0.0692 0.0
C2860 C 0.85778 0.75676 0.07635 0.0
C2861 C 0.94652 0.75643 0.07558 0.0
C2862 C 0.80792 0.78182 0.05348 0.0
C2863 C 0.81376 0.7483 0.08491 0.0
H2864 H 0.55289 0.78096 0.08287 0.0
H2865 H 0.54313 0.74957 0.05954 0.0
H2866 H 0.76809 0.77804 0.08991 0.0
H2867 H 0.76271 0.78973 0.07886 0.0
H2868 H 0.68167 0.78932 0.08968 0.0
H2869 H 0.66411 0.74152 0.05044 0.0
H2870 H 0.75286 0.75233 0.04939 0.0
H2871 H 0.75129 0.74045 0.06029 0.0
H2872 H 0.97788 0.77876 0.055 0.0
H2873 H 0.98144 0.75008 0.08114 0.0
H2874 H 0.76989 0.78874 0.05847 0.0
H2875 H 0.763 0.77624 0.0482 0.0
H2876 H 0.85119 0.78722 0.04778 0.0
H2877 H 0.77526 0.7542 0.09079 0.0
H2878 H 0.85921 0.74255 0.08999 0.0
H2879 H 0.76971 0.74169 0.08051 0.0
C2880 C 0.75886 0.754 0.1953 0.0
C2881 C 0.80302 0.76503 0.19202 0.0
C2882 C 0.67009 0.75404 0.19637 0.0
C2883 C 0.62396 0.76526 0.19377 0.0
C2884 C 0.6682 0.77638 0.1903 0.0
C2885 C 0.75728 0.77619 0.18964 0.0
C2886 C 0.62572 0.74207 0.20036 0.0
C2887 C 0.62134 0.78842 0.18714 0.0
C2888 C 0.39316 0.76062 0.18539 0.0
C2889 C 0.35007 0.76464 0.19518 0.0
C2890 C 0.48196 0.76103 0.18475 0.0
C2891 C 0.52931 0.7652 0.19427 0.0
C2892 C 0.48613 0.76917 0.20424 0.0
C2893 C 0.39682 0.76903 0.20452 0.0
C2894 C 0.52506 0.75705 0.17386 0.0
C2895 C 0.53431 0.77333 0.21468 0.0
H2896 H 0.79396 0.7454 0.19732 0.0
H2897 H 0.79111 0.78474 0.1871 0.0
H2898 H 0.58419 0.74426 0.20772 0.0
H2899 H 0.58459 0.73833 0.19348 0.0
H2900 H 0.67111 0.73448 0.20287 0.0
H2901 H 0.66491 0.79617 0.1844 0.0
H2902 H 0.57612 0.78642 0.18014 0.0
H2903 H 0.5837 0.79185 0.19449 0.0
H2904 H 0.3572 0.75738 0.17809 0.0
H2905 H 0.36365 0.77208 0.21212 0.0
H2906 H 0.56546 0.74857 0.17541 0.0
H2907 H 0.56713 0.76482 0.17079 0.0
H2908 H 0.47891 0.7547 0.16704 0.0
H2909 H 0.57561 0.76543 0.21765 0.0
H2910 H 0.49144 0.77615 0.22174 0.0
H2911 H 0.57618 0.78151 0.2126 0.0
C2912 C 0.95425 0.51562 0.18461 0.0
C2913 C 0.99379 0.51446 0.19522 0.0
C2914 C 0.8657 0.51485 0.1836 0.0
C2915 C 0.8154 0.51341 0.1935 0.0
C2916 C 0.85537 0.51246 0.20427 0.0
C2917 C 0.94442 0.51269 0.20497 0.0
C2918 C 0.82613 0.51544 0.17193 0.0
C2919 C 0.80405 0.51138 0.21506 0.0
C2920 C 0.58627 0.52453 0.1915 0.0
C2921 C 0.54199 0.51293 0.19104 0.0
C2922 C 0.67501 0.5248 0.19244 0.0
C2923 C 0.721 0.5132 0.1926 0.0
C2924 C 0.67672 0.50146 0.19187 0.0
C2925 C 0.5876 0.50146 0.19128 0.0
C2926 C 0.71942 0.53751 0.1935 0.0
C2927 C 0.72353 0.48891 0.19164 0.0
H2928 H 0.99292 0.51679 0.17706 0.0
H2929 H 0.97545 0.51179 0.21316 0.0
H2930 H 0.78492 0.507 0.17057 0.0
H2931 H 0.7854 0.52403 0.17122 0.0
H2932 H 0.87446 0.51578 0.16506 0.0
H2933 H 0.84462 0.51135 0.22278 0.0
H2934 H 0.75885 0.51947 0.21564 0.0
H2935 H 0.76609 0.50247 0.21494 0.0
H2936 H 0.55128 0.53343 0.19148 0.0
H2937 H 0.55363 0.49247 0.1909 0.0
H2938 H 0.76409 0.53886 0.18632 0.0
H2939 H 0.75733 0.53774 0.20145 0.0
H2940 H 0.67424 0.54565 0.1936 0.0
H2941 H 0.76933 0.48883 0.18447 0.0
H2942 H 0.67997 0.48064 0.19071 0.0
H2943 H 0.76053 0.48768 0.19958 0.0
C2944 C 0.69533 0.50433 0.94903 0.0
C2945 C 0.74208 0.51499 0.94556 0.0
C2946 C 0.60625 0.50436 0.94847 0.0
C2947 C 0.56361 0.51507 0.94383 0.0
C2948 C 0.61124 0.52575 0.94009 0.0
C2949 C 0.69986 0.52568 0.94122 0.0
C2950 C 0.55781 0.493 0.95295 0.0
C2951 C 0.56872 0.53716 0.93472 0.0
C2952 C 0.33804 0.51023 0.93298 0.0
C2953 C 0.29026 0.51606 0.94157 0.0
C2954 C 0.42719 0.50995 0.93353 0.0
C2955 C 0.46917 0.51526 0.94307 0.0
C2956 C 0.4209 0.52095 0.95186 0.0
C2957 C 0.33224 0.52145 0.95092 0.0
C2958 C 0.4765 0.50415 0.92383 0.0
C2959 C 0.46282 0.52635 0.96234 0.0
H2960 H 0.72845 0.49606 0.95236 0.0
H2961 H 0.73655 0.53383 0.93836 0.0
H2962 H 0.5109 0.49614 0.9594 0.0
H2963 H 0.52197 0.48841 0.94595 0.0
H2964 H 0.60019 0.48576 0.95687 0.0
H2965 H 0.61525 0.54432 0.9316 0.0
H2966 H 0.52865 0.53406 0.92748 0.0
H2967 H 0.52639 0.54185 0.94099 0.0
H2968 H 0.30579 0.50606 0.92574 0.0
H2969 H 0.2955 0.5258 0.95767 0.0
H2970 H 0.51455 0.49596 0.92693 0.0
H2971 H 0.52156 0.51128 0.92032 0.0
H2972 H 0.43455 0.50079 0.91686 0.0
H2973 H 0.50196 0.51889 0.9665 0.0
H2974 H 0.41601 0.53 0.9686 0.0
H2975 H 0.506 0.53426 0.95995 0.0
C2976 C 0.51364 0.27315 0.93516 0.0
C2977 C 0.55856 0.26341 0.94071 0.0
C2978 C 0.42448 0.27363 0.93553 0.0
C2979 C 0.37907 0.2642 0.94167 0.0
C2980 C 0.424 0.2543 0.9472 0.0
C2981 C 0.51292 0.25399 0.94663 0.0
C2982 C 0.37883 0.28426 0.92941 0.0
C2983 C 0.37814 0.24409 0.95387 0.0
C2984 C 0.15447 0.27172 0.95164 0.0
C2985 C 0.10603 0.26466 0.94393 0.0
C2986 C 0.24358 0.2716 0.95105 0.0
C2987 C 0.28455 0.26463 0.9423 0.0
C2988 C 0.23514 0.25775 0.93433 0.0
C2989 C 0.14642 0.25768 0.93536 0.0
C2990 C 0.29389 0.27876 0.95989 0.0
C2991 C 0.27593 0.25051 0.92468 0.0
H2992 H 0.54809 0.28049 0.93058 0.0
H2993 H 0.54669 0.24643 0.95098 0.0
H2994 H 0.33157 0.28023 0.92342 0.0
H2995 H 0.34363 0.2902 0.93562 0.0
H2996 H 0.42299 0.29052 0.92459 0.0
H2997 H 0.42243 0.23717 0.95787 0.0
H2998 H 0.33908 0.24854 0.96064 0.0
H2999 H 0.33437 0.23878 0.94821 0.0
H3000 H 0.12265 0.27708 0.95826 0.0
H3001 H 0.10831 0.25234 0.92934 0.0
H3002 H 0.33436 0.28606 0.95574 0.0
H3003 H 0.33668 0.27208 0.96444 0.0
H3004 H 0.2525 0.28356 0.96623 0.0
H3005 H 0.31654 0.25702 0.91961 0.0
H3006 H 0.22836 0.24608 0.91895 0.0
H3007 H 0.31752 0.24289 0.92812 0.0
C3008 C 0.69664 0.27564 0.82165 0.0
C3009 C 0.74109 0.26555 0.81655 0.0
C3010 C 0.60774 0.27538 0.82257 0.0
C3011 C 0.56199 0.26478 0.81831 0.0
C3012 C 0.60639 0.25466 0.81302 0.0
C3013 C 0.69523 0.25517 0.8122 0.0
C3014 C 0.56282 0.2864 0.82822 0.0
C3015 C 0.56008 0.2432 0.80835 0.0
C3016 C 0.34037 0.25827 0.82999 0.0
C3017 C 0.2894 0.26321 0.82132 0.0
C3018 C 0.42937 0.25871 0.82912 0.0
C3019 C 0.46767 0.26427 0.81939 0.0
C3020 C 0.41573 0.26927 0.81063 0.0
C3021 C 0.32711 0.26866 0.81171 0.0
C3022 C 0.48245 0.2532 0.8386 0.0
C3023 C 0.45373 0.27532 0.80015 0.0
H3024 H 0.73136 0.28368 0.82509 0.0
H3025 H 0.7288 0.2473 0.80827 0.0
H3026 H 0.51568 0.2906 0.82229 0.0
H3027 H 0.52759 0.28295 0.83578 0.0
H3028 H 0.6074 0.29402 0.83093 0.0
H3029 H 0.60386 0.23611 0.8045 0.0
H3030 H 0.52372 0.23845 0.81524 0.0
H3031 H 0.51378 0.24627 0.8018 0.0
H3032 H 0.3106 0.25407 0.83741 0.0
H3033 H 0.28703 0.2725 0.80504 0.0
H3034 H 0.52463 0.26068 0.84215 0.0
H3035 H 0.5237 0.24551 0.83524 0.0
H3036 H 0.44303 0.24924 0.84559 0.0
H3037 H 0.49267 0.28369 0.80261 0.0
H3038 H 0.40455 0.27848 0.794 0.0
H3039 H 0.49647 0.26845 0.79583 0.0
C3040 C 0.14453 0.5249 0.82198 0.0
C3041 C 0.10296 0.51409 0.81776 0.0
C3042 C 0.23304 0.52506 0.8233 0.0
C3043 C 0.28137 0.51434 0.81987 0.0
C3044 C 0.23939 0.50345 0.81544 0.0
C3045 C 0.15035 0.50335 0.81469 0.0
C3046 C 0.2747 0.53665 0.82847 0.0
C3047 C 0.28856 0.492 0.81134 0.0
C3048 C 0.51243 0.52076 0.81251 0.0
C3049 C 0.55496 0.5156 0.82191 0.0
C3050 C 0.42369 0.52019 0.81166 0.0
C3051 C 0.37589 0.51469 0.8206 0.0
C3052 C 0.41847 0.50968 0.83024 0.0
C3053 C 0.50767 0.50999 0.83069 0.0
C3054 C 0.3812 0.52529 0.80109 0.0
C3055 C 0.36974 0.50416 0.84013 0.0
H3056 H 0.10741 0.53311 0.82456 0.0
H3057 H 0.11781 0.49498 0.81148 0.0
H3058 H 0.31572 0.53377 0.83569 0.0
H3059 H 0.31594 0.54136 0.82208 0.0
H3060 H 0.2276 0.54373 0.83157 0.0
H3061 H 0.24664 0.48452 0.80771 0.0
H3062 H 0.33497 0.49497 0.80476 0.0
H3063 H 0.32504 0.48778 0.81847 0.0
H3064 H 0.54881 0.52494 0.80562 0.0
H3065 H 0.54039 0.50603 0.83798 0.0
H3066 H 0.33897 0.53336 0.80333 0.0
H3067 H 0.34102 0.51776 0.79721 0.0
H3068 H 0.42771 0.52864 0.79465 0.0
H3069 H 0.32669 0.51152 0.84369 0.0
H3070 H 0.41221 0.5007 0.84701 0.0
H3071 H 0.32957 0.49611 0.83724 0.0
C3072 C 0.39235 1.00374 0.57082 0.0
C3073 C 0.34971 0.0148 0.56737 0.0
C3074 C 0.48101 1.00354 0.57178 0.0
C3075 C 0.52835 0.01452 0.56878 0.0
C3076 C 0.48543 0.02566 0.56506 0.0
C3077 C 0.39627 0.02575 0.56464 0.0
C3078 C 0.52387 0.99165 0.5762 0.0
C3079 C 0.5337 0.03738 0.56137 0.0
C3080 C 0.75356 0.01816 0.58 0.0
C3081 C 0.8013 1.01305 0.57106 0.0
C3082 C 0.66456 0.01859 0.57943 0.0
C3083 C 0.62275 1.01426 0.56949 0.0
C3084 C 0.67109 1.00935 0.56034 0.0
C3085 C 0.75969 1.00859 0.56132 0.0
C3086 C 0.61523 0.02351 0.58951 0.0
C3087 C 0.62932 1.00502 0.54946 0.0
H3088 H 0.35599 0.99533 0.57311 0.0
H3089 H 0.363 0.03429 0.56195 0.0
H3090 H 0.56732 0.98775 0.56965 0.0
H3091 H 0.56284 0.99401 0.58376 0.0
H3092 H 0.47762 0.9841 0.57858 0.0
H3093 H 0.49095 0.04514 0.55843 0.0
H3094 H 0.57267 0.04104 0.5685 0.0
H3095 H 0.57781 0.0349 0.55436 0.0
H3096 H 0.78581 0.02161 0.58753 0.0
H3097 H 0.79672 1.00484 0.5543 0.0
H3098 H 0.57017 0.01608 0.59249 0.0
H3099 H 0.57719 0.03195 0.58701 0.0
H3100 H 0.65717 0.02622 0.5967 0.0
H3101 H 0.58856 0.99661 0.55116 0.0
H3102 H 0.67635 1.00241 0.54282 0.0
H3103 H 0.5878 1.01268 0.54608 0.0
C3104 C 0.58363 0.25436 0.56663 0.0
C3105 C 0.54171 0.26496 0.5712 0.0
C3106 C 0.67229 0.25421 0.56558 0.0
C3107 C 0.72015 0.26469 0.56966 0.0
C3108 C 0.67784 0.27531 0.5745 0.0
C3109 C 0.58877 0.27544 0.57497 0.0
C3110 C 0.71461 0.24292 0.56 0.0
C3111 C 0.72667 0.28645 0.57931 0.0
C3112 C 0.9506 0.25812 0.57703 0.0
C3113 C 0.99333 0.26392 0.56794 0.0
C3114 C 0.86185 0.25847 0.57777 0.0
C3115 C 0.8145 0.26443 0.56903 0.0
C3116 C 0.85736 0.27008 0.5597 0.0
C3117 C 0.94646 0.26994 0.55936 0.0
C3118 C 0.81887 0.25265 0.58801 0.0
C3119 C 0.80904 0.27613 0.55003 0.0
H3120 H 0.54673 0.24633 0.56357 0.0
H3121 H 0.5559 0.28362 0.5785 0.0
H3122 H 0.75691 0.2462 0.55304 0.0
H3123 H 0.75466 0.23782 0.56628 0.0
H3124 H 0.6679 0.23606 0.55644 0.0
H3125 H 0.6844 0.2937 0.58323 0.0
H3126 H 0.77205 0.28303 0.58585 0.0
H3127 H 0.76429 0.29111 0.57251 0.0
H3128 H 0.98676 0.25359 0.58375 0.0
H3129 H 0.97944 0.27436 0.55229 0.0
H3130 H 0.77719 0.24468 0.58531 0.0
H3131 H 0.77808 0.25987 0.59222 0.0
H3132 H 0.8651 0.24894 0.59432 0.0
H3133 H 0.76586 0.26899 0.54615 0.0
H3134 H 0.85178 0.27992 0.54332 0.0
H3135 H 0.76908 0.28404 0.55324 0.0
C3136 C 0.75302 0.27517 0.68707 0.0
C3137 C 0.7992 0.26487 0.69145 0.0
C3138 C 0.66384 0.27524 0.68746 0.0
C3139 C 0.62023 0.26499 0.69274 0.0
C3140 C 0.66697 0.25468 0.69735 0.0
C3141 C 0.75574 0.25464 0.69647 0.0
C3142 C 0.61623 0.28618 0.68209 0.0
C3143 C 0.62326 0.24372 0.70329 0.0
C3144 C 0.39337 0.27052 0.70284 0.0
C3145 C 0.34662 0.26405 0.69451 0.0
C3146 C 0.48254 0.27086 0.70241 0.0
C3147 C 0.52569 0.26489 0.69327 0.0
C3148 C 0.47851 0.25854 0.68475 0.0
C3149 C 0.38982 0.25805 0.68556 0.0
C3150 C 0.53068 0.27744 0.71181 0.0
C3151 C 0.52164 0.25233 0.67471 0.0
H3152 H 0.78661 0.28306 0.68314 0.0
H3153 H 0.79146 0.24673 0.69998 0.0
H3154 H 0.5713 0.28249 0.67562 0.0
H3155 H 0.5782 0.29122 0.68863 0.0
H3156 H 0.65936 0.29318 0.67796 0.0
H3157 H 0.66906 0.23685 0.70703 0.0
H3158 H 0.58176 0.2474 0.71017 0.0
H3159 H 0.58218 0.23853 0.6972 0.0
H3160 H 0.36034 0.27515 0.70979 0.0
H3161 H 0.35416 0.25314 0.67902 0.0
H3162 H 0.56978 0.28528 0.70825 0.0
H3163 H 0.57466 0.27058 0.71592 0.0
H3164 H 0.48787 0.28145 0.7184 0.0
H3165 H 0.56132 0.25944 0.67017 0.0
H3166 H 0.47554 0.24819 0.6686 0.0
H3167 H 0.56444 0.24462 0.67769 0.0
C3168 C 0.94047 1.01346 0.70455 0.0
C3169 C 0.98933 0.01458 0.69467 0.0
C3170 C 0.85138 1.01341 0.70396 0.0
C3171 C 0.81082 1.01388 0.6932 0.0
C3172 C 0.86058 0.01475 0.6832 0.0
C3173 C 0.94926 0.01536 0.68408 0.0
C3174 C 0.80069 1.01299 0.71484 0.0
C3175 C 0.82025 0.01485 0.67157 0.0
C3176 C 0.58364 1.0016 0.69159 0.0
C3177 C 0.53746 1.013 0.69089 0.0
C3178 C 0.67272 1.00174 0.69217 0.0
C3179 C 0.71642 1.01355 0.6924 0.0
C3180 C 0.66989 0.02509 0.69179 0.0
C3181 C 0.58114 0.02466 0.69089 0.0
C3182 C 0.72013 0.98923 0.69246 0.0
C3183 C 0.71369 0.03789 0.69235 0.0
H3184 H 0.97197 1.01291 0.71272 0.0
H3185 H 0.98761 0.0161 0.67645 0.0
H3186 H 0.75539 0.02109 0.71508 0.0
H3187 H 0.76288 1.00408 0.7152 0.0
H3188 H 0.84172 1.01345 0.7225 0.0
H3189 H 0.86812 0.01488 0.66463 0.0
H3190 H 0.77895 1.00635 0.67055 0.0
H3191 H 0.77945 0.0234 0.67061 0.0
H3192 H 0.55013 0.99257 0.69158 0.0
H3193 H 0.54569 0.03351 0.69052 0.0
H3194 H 0.75624 0.98841 0.70051 0.0
H3195 H 0.76674 0.98889 0.68539 0.0
H3196 H 0.67705 0.98088 0.69174 0.0
H3197 H 0.75006 0.03864 0.7004 0.0
H3198 H 0.66825 0.04597 0.69189 0.0
H3199 H 0.7597 0.03883 0.68527 0.0
C3200 C 0.69216 1.00418 0.44919 0.0
C3201 C 0.7395 0.01468 0.44548 0.0
C3202 C 0.60301 1.00434 0.44869 0.0
C3203 C 0.56091 0.015 0.44385 0.0
C3204 C 0.60915 0.0255 0.43986 0.0
C3205 C 0.6978 0.02531 0.44094 0.0
C3206 C 0.55392 0.99317 0.45341 0.0
C3207 C 0.56727 0.03684 0.43428 0.0
C3208 C 0.33562 1.01012 0.43291 0.0
C3209 C 0.28761 0.0162 0.44134 0.0
C3210 C 0.42471 1.00977 0.43355 0.0
C3211 C 0.46646 0.01527 0.44302 0.0
C3212 C 0.41797 0.02124 0.45164 0.0
C3213 C 0.32932 0.02181 0.4506 0.0
C3214 C 0.47421 1.00367 0.42401 0.0
C3215 C 0.45961 0.02687 0.46204 0.0
H3216 H 0.72484 0.99596 0.45269 0.0
H3217 H 0.73491 0.03333 0.4379 0.0
H3218 H 0.50697 0.99656 0.45976 0.0
H3219 H 0.51808 0.98841 0.44651 0.0
H3220 H 0.59587 0.98601 0.45753 0.0
H3221 H 0.61419 0.04386 0.43103 0.0
H3222 H 0.52704 0.03361 0.4271 0.0
H3223 H 0.52519 0.04172 0.44045 0.0
H3224 H 0.30359 1.00578 0.42573 0.0
H3225 H 0.29239 0.02636 0.45723 0.0
H3226 H 0.51134 0.99548 0.42731 0.0
H3227 H 0.5201 1.01063 0.42044 0.0
H3228 H 0.43247 1.00022 0.41705 0.0
H3229 H 0.4978 0.01945 0.46642 0.0
H3230 H 0.41268 0.03079 0.46816 0.0
H3231 H 0.50366 0.03463 0.45953 0.0
C3232 C 0.50287 0.75222 0.44047 0.0
C3233 C 0.54947 0.76357 0.44128 0.0
C3234 C 0.41376 0.75234 0.44116 0.0
C3235 C 0.37069 0.764 0.44315 0.0
C3236 C 0.41793 0.77543 0.44422 0.0
C3237 C 0.50654 0.7751 0.44306 0.0
C3238 C 0.36566 0.74002 0.43958 0.0
C3239 C 0.37499 0.78798 0.44679 0.0
C3240 C 0.13882 0.76813 0.43502 0.0
C3241 C 0.09744 0.7654 0.44527 0.0
C3242 C 0.22745 0.76733 0.43414 0.0
C3243 C 0.27618 0.76434 0.4439 0.0
C3244 C 0.23453 0.76191 0.45437 0.0
C3245 C 0.14537 0.76215 0.45486 0.0
C3246 C 0.26879 0.76953 0.42272 0.0
C3247 C 0.28406 0.75918 0.46507 0.0
H3248 H 0.53606 0.7433 0.43911 0.0
H3249 H 0.54259 0.78387 0.4439 0.0
H3250 H 0.32902 0.73775 0.44737 0.0
H3251 H 0.31945 0.74105 0.43253 0.0
H3252 H 0.40832 0.73186 0.43767 0.0
H3253 H 0.42116 0.79589 0.4479 0.0
H3254 H 0.33096 0.79053 0.4398 0.0
H3255 H 0.33661 0.78709 0.45466 0.0
H3256 H 0.10157 0.77052 0.42757 0.0
H3257 H 0.11315 0.76007 0.46279 0.0
H3258 H 0.30924 0.76124 0.42048 0.0
H3259 H 0.31056 0.77803 0.42311 0.0
H3260 H 0.22153 0.771 0.41584 0.0
H3261 H 0.3175 0.74992 0.46424 0.0
H3262 H 0.24265 0.75876 0.4727 0.0
H3263 H 0.33299 0.76664 0.4664 0.0
C3264 C 0.33673 0.76123 0.33178 0.0
C3265 C 0.28861 0.76337 0.32199 0.0
C3266 C 0.4259 0.76135 0.3313 0.0
C3267 C 0.46722 0.76392 0.32083 0.0
C3268 C 0.41815 0.76629 0.31097 0.0
C3269 C 0.32932 0.76587 0.31165 0.0
C3270 C 0.47592 0.75862 0.34196 0.0
C3271 C 0.45945 0.76923 0.29969 0.0
C3272 C 0.69704 0.77511 0.32136 0.0
C3273 C 0.74091 0.76388 0.31857 0.0
C3274 C 0.60808 0.77526 0.32212 0.0
C3275 C 0.5617 0.76391 0.32012 0.0
C3276 C 0.60555 0.75257 0.31727 0.0
C3277 C 0.69444 0.7527 0.3165 0.0
C3278 C 0.56368 0.78759 0.32505 0.0
C3279 C 0.55853 0.74025 0.31513 0.0
H3280 H 0.3046 0.75928 0.33974 0.0
H3281 H 0.2914 0.76757 0.30411 0.0
H3282 H 0.51739 0.75021 0.3406 0.0
H3283 H 0.51775 0.76683 0.34397 0.0
H3284 H 0.43431 0.75673 0.3494 0.0
H3285 H 0.4122 0.77128 0.29292 0.0
H3286 H 0.50213 0.77759 0.30055 0.0
H3287 H 0.49902 0.76104 0.29695 0.0
H3288 H 0.73215 0.78381 0.32297 0.0
H3289 H 0.72752 0.74395 0.31439 0.0
H3290 H 0.5261 0.78636 0.33295 0.0
H3291 H 0.51868 0.79018 0.31818 0.0
H3292 H 0.60883 0.7956 0.32628 0.0
H3293 H 0.52164 0.73755 0.32279 0.0
H3294 H 0.60191 0.73227 0.31293 0.0
H3295 H 0.51265 0.74153 0.30807 0.0
C3296 C 0.14829 1.00535 0.31297 0.0
C3297 C 0.10205 0.01523 0.31803 0.0
C3298 C 0.23744 1.00523 0.31342 0.0
C3299 C 0.28078 0.01493 0.31949 0.0
C3300 C 0.23376 0.02474 0.32485 0.0
C3301 C 0.14507 0.0249 0.32387 0.0
C3302 C 0.28525 0.99485 0.30727 0.0
C3303 C 0.27708 0.03503 0.3317 0.0
C3304 C 0.50816 1.00875 0.32907 0.0
C3305 C 0.55448 0.01606 0.32124 0.0
C3306 C 0.419 1.00829 0.32863 0.0
C3307 C 0.37534 0.01507 0.32 0.0
C3308 C 0.42198 0.0223 0.31198 0.0
C3309 C 0.51071 0.02281 0.31277 0.0
C3310 C 0.37143 1.00071 0.33748 0.0
C3311 C 0.37817 0.02942 0.30249 0.0
H3312 H 0.11477 0.99788 0.30845 0.0
H3313 H 0.10901 0.03244 0.32793 0.0
H3314 H 0.33054 0.99916 0.30114 0.0
H3315 H 0.3229 0.98918 0.31342 0.0
H3316 H 0.24229 0.98831 0.30258 0.0
H3317 H 0.23103 0.04147 0.33596 0.0
H3318 H 0.31836 0.03065 0.33827 0.0
H3319 H 0.31831 0.04085 0.32608 0.0
H3320 H 0.54152 1.0035 0.33564 0.0
H3321 H 0.54597 0.02835 0.30657 0.0
H3322 H 0.33297 0.99317 0.33333 0.0
H3323 H 0.32687 1.00704 0.34212 0.0
H3324 H 0.41459 0.99613 0.34373 0.0
H3325 H 0.33873 0.02274 0.29744 0.0
H3326 H 0.42381 0.03422 0.29669 0.0
H3327 H 0.33502 0.03674 0.30607 0.0
C3328 C 0.26241 0.5046 0.57754 0.0
C3329 C 0.30823 0.51372 0.57138 0.0
C3330 C 0.17324 0.50453 0.57737 0.0
C3331 C 0.12925 0.51345 0.57049 0.0
C3332 C 0.17578 0.52256 0.56412 0.0
C3333 C 0.26476 0.52274 0.56482 0.0
C3334 C 0.12611 0.49498 0.58461 0.0
C3335 C 0.13164 0.53199 0.55643 0.0
C3336 C 0.90221 0.50524 0.56201 0.0
C3337 C 0.85511 0.51314 0.56926 0.0
C3338 C 0.99146 0.50534 0.56223 0.0
C3339 C 1.03461 0.51333 0.57004 0.0
C3340 C 0.98725 0.52122 0.57745 0.0
C3341 C 0.89833 0.5211 0.57691 0.0
C3342 C 1.03965 0.49699 0.55402 0.0
C3343 C 1.03048 0.52969 0.58606 0.0
H3344 H 0.29643 0.49764 0.58262 0.0
H3345 H 0.30064 0.52968 0.55995 0.0
H3346 H 0.08114 0.5 0.59032 0.0
H3347 H 0.08819 0.48854 0.57912 0.0
H3348 H 0.16956 0.48909 0.58988 0.0
H3349 H 0.17719 0.53794 0.55154 0.0
H3350 H 0.08997 0.52687 0.55036 0.0
H3351 H 0.09064 0.53839 0.56154 0.0
H3352 H 0.86938 0.49912 0.55603 0.0
H3353 H 0.86257 0.52716 0.58264 0.0
H3354 H 0.07951 0.49009 0.55878 0.0
H3355 H 0.08291 0.50293 0.54878 0.0
H3356 H 0.99684 0.49158 0.54828 0.0
H3357 H 0.0706 0.52382 0.59178 0.0
H3358 H 0.98445 0.53514 0.59131 0.0
H3359 H 0.0729 0.53656 0.58169 0.0
C3360 C 0.44988 0.77193 0.56066 0.0
C3361 C 0.49542 0.76363 0.56775 0.0
C3362 C 0.36076 0.77229 0.56094 0.0
C3363 C 0.31621 0.76433 0.56864 0.0
C3364 C 0.36189 0.75595 0.57582 0.0
C3365 C 0.45074 0.75563 0.57522 0.0
C3366 C 0.31422 0.78117 0.553 0.0
C3367 C 0.31696 0.7474 0.58423 0.0
C3368 C 0.09066 0.77365 0.57676 0.0
C3369 C 1.04313 0.76482 0.57053 0.0
C3370 C 0.17979 0.77351 0.57634 0.0
C3371 C 0.22176 0.76467 0.56916 0.0
C3372 C 0.17346 0.75595 0.56263 0.0
C3373 C 0.08475 0.75597 0.56357 0.0
C3374 C 0.22909 0.78264 0.58372 0.0
C3375 C 0.21542 0.74667 0.5546 0.0
H3376 H 0.48384 0.77813 0.55484 0.0
H3377 H 0.48527 0.74925 0.58081 0.0
H3378 H 0.26779 0.77572 0.54784 0.0
H3379 H 0.27799 0.78831 0.55798 0.0
H3380 H 0.35791 0.78632 0.54717 0.0
H3381 H 0.36192 0.74176 0.58948 0.0
H3382 H 0.27664 0.75322 0.58996 0.0
H3383 H 0.27454 0.7407 0.57966 0.0
H3384 H 0.05814 0.78044 0.58217 0.0
H3385 H 0.04759 0.74924 0.55865 0.0
H3386 H 0.26909 0.78893 0.57835 0.0
H3387 H 0.27229 0.77723 0.5894 0.0
H3388 H 0.18701 0.7887 0.58903 0.0
H3389 H 0.25543 0.75194 0.54841 0.0
H3390 H 0.16856 0.74084 0.54983 0.0
H3391 H 0.25777 0.74015 0.55939 0.0
C3392 C 0.88615 0.76538 0.68392 0.0
C3393 C 0.84453 0.76477 0.69441 0.0
C3394 C 0.97504 0.76584 0.6833 0.0
C3395 C 1.02352 0.76515 0.69342 0.0
C3396 C 0.9814 0.76433 0.70406 0.0
C3397 C 0.89214 0.76442 0.70444 0.0
C3398 C 1.017 0.76711 0.67182 0.0
C3399 C 1.03062 0.76316 0.715 0.0
C3400 C 0.25179 0.75369 0.69046 0.0
C3401 C 0.29768 0.76514 0.69135 0.0
C3402 C 0.16282 0.75355 0.69124 0.0
C3403 C 0.11819 0.76514 0.69282 0.0
C3404 C 0.16398 0.77673 0.69362 0.0
C3405 C 0.25302 0.77659 0.69294 0.0
C3406 C 0.11659 0.74096 0.69048 0.0
C3407 C 0.11883 0.78931 0.69514 0.0
H3408 H 0.84888 0.76572 0.67617 0.0
H3409 H 0.85955 0.76385 0.71254 0.0
H3410 H 0.05963 0.77554 0.67176 0.0
H3411 H 0.05669 0.7586 0.67009 0.0
H3412 H 0.97014 0.76815 0.66483 0.0
H3413 H 0.98845 0.76209 0.72251 0.0
H3414 H 0.07349 0.75477 0.71459 0.0
H3415 H 0.07097 0.77171 0.71623 0.0
H3416 H 0.28541 0.74477 0.68932 0.0
H3417 H 0.28759 0.78549 0.69364 0.0
H3418 H 0.07267 0.74104 0.68312 0.0
H3419 H 0.07764 0.73948 0.69823 0.0
H3420 H 0.16064 0.73276 0.68954 0.0
H3421 H 0.07426 0.79089 0.68797 0.0
H3422 H 0.16354 0.7975 0.69554 0.0
H3423 H 0.08069 0.78915 0.70306 0.0
C3424 C 0.09023 0.50317 0.68642 0.0
C3425 C 1.04291 0.51332 0.6908 0.0
C3426 C 0.17936 0.50336 0.68685 0.0
C3427 C 0.22147 0.51365 0.69226 0.0
C3428 C 0.17329 0.52378 0.69692 0.0
C3429 C 0.08459 0.52362 0.69592 0.0
C3430 C 0.22847 0.49262 0.68141 0.0
C3431 C 0.21532 0.53471 0.70309 0.0
C3432 C 0.44737 0.50789 0.70253 0.0
C3433 C 0.49481 0.51446 0.69432 0.0
C3434 C 0.35827 0.5077 0.70206 0.0
C3435 C 0.31588 0.5139 0.69298 0.0
C3436 C 0.36372 0.52043 0.68461 0.0
C3437 C 0.45247 0.52077 0.68546 0.0
C3438 C 0.30945 0.50095 0.71132 0.0
C3439 C 0.32129 0.5269 0.67465 0.0
H3440 H 0.05754 0.49524 0.68246 0.0
H3441 H 0.04746 0.53139 0.69943 0.0
H3442 H 0.27423 0.49653 0.67514 0.0
H3443 H 0.26568 0.48746 0.68796 0.0
H3444 H 0.1864 0.48568 0.67704 0.0
H3445 H 0.16846 0.5414 0.70686 0.0
H3446 H 0.25655 0.53099 0.70998 0.0
H3447 H 0.25644 0.54012 0.69714 0.0
H3448 H 0.47986 0.50304 0.70941 0.0
H3449 H 0.48891 0.52572 0.67901 0.0
H3450 H 0.27168 0.49304 0.70764 0.0
H3451 H 0.2642 0.50767 0.71536 0.0
H3452 H 0.35172 0.49698 0.71799 0.0
H3453 H 0.28276 0.51985 0.66987 0.0
H3454 H 0.36776 0.53132 0.66874 0.0
H3455 H 0.27745 0.53442 0.67771 0.0
C3456 C 0.83187 0.51137 0.43235 0.0
C3457 C 0.78531 0.5151 0.44192 0.0
C3458 C 0.92118 0.51138 0.43253 0.0
C3459 C 0.96453 0.51471 0.44267 0.0
C3460 C 0.91733 0.51815 0.45243 0.0
C3461 C 0.82846 0.51853 0.45188 0.0
C3462 C 0.96914 0.508 0.42185 0.0
C3463 C 0.96069 0.52137 0.46351 0.0
C3464 C 0.19327 0.50375 0.44637 0.0
C3465 C 0.23832 0.51511 0.44454 0.0
C3466 C 0.10422 0.50349 0.44583 0.0
C3467 C 0.05919 0.51477 0.44308 0.0
C3468 C 0.10456 0.52622 0.44107 0.0
C3469 C 0.19344 0.5263 0.44197 0.0
C3470 C 0.05829 0.49117 0.44835 0.0
C3471 C 0.05925 0.53838 0.43782 0.0
H3472 H 0.7985 0.50878 0.42463 0.0
H3473 H 0.79245 0.52127 0.45934 0.0
H3474 H 1.01375 0.51581 0.41962 0.0
H3475 H 1.00753 0.49929 0.42328 0.0
H3476 H 0.92619 0.50631 0.41452 0.0
H3477 H 0.9147 0.52318 0.47048 0.0
H3478 H 1.00312 0.51343 0.46609 0.0
H3479 H 1.0008 0.52998 0.46241 0.0
H3480 H 0.22763 0.49508 0.44838 0.0
H3481 H 0.228 0.53506 0.44038 0.0
H3482 H 1.02059 0.48819 0.44086 0.0
H3483 H 1.01324 0.4926 0.45549 0.0
H3484 H 0.10248 0.48331 0.45062 0.0
H3485 H 1.02071 0.53676 0.43006 0.0
H3486 H 0.1039 0.54637 0.43619 0.0
H3487 H 1.01506 0.54124 0.44469 0.0
C3488 C 1.00031 0.25228 0.44007 0.0
C3489 C 0.0468 0.26362 0.44096 0.0
C3490 C 0.91122 0.25235 0.44079 0.0
C3491 C 0.86799 0.26396 0.44293 0.0
C3492 C 0.9151 0.2754 0.44407 0.0
C3493 C 1.00375 0.27513 0.44286 0.0
C3494 C 0.86332 0.24002 0.43912 0.0
C3495 C 0.872 0.28789 0.4468 0.0
C3496 C 0.63564 0.26775 0.43488 0.0
C3497 C 0.59451 0.26493 0.44514 0.0
C3498 C 0.72434 0.26719 0.434 0.0
C3499 C 0.77343 0.26422 0.44373 0.0
C3500 C 0.73203 0.26162 0.45419 0.0
C3501 C 0.64283 0.26173 0.4547 0.0
C3502 C 0.76542 0.26961 0.4226 0.0
C3503 C 0.78189 0.25884 0.46485 0.0
H3504 H 1.03361 0.24338 0.43863 0.0
H3505 H 1.03978 0.28388 0.44377 0.0
H3506 H 0.82743 0.23761 0.44694 0.0
H3507 H 0.81648 0.24114 0.43215 0.0
H3508 H 0.90604 0.23193 0.43705 0.0
H3509 H 0.91801 0.29582 0.44788 0.0
H3510 H 0.82714 0.29047 0.43991 0.0
H3511 H 0.83448 0.2869 0.45474 0.0
H3512 H 0.59812 0.27006 0.42743 0.0
H3513 H 0.61089 0.25958 0.46265 0.0
H3514 H 0.80645 0.26141 0.42027 0.0
H3515 H 0.80658 0.27817 0.42307 0.0
H3516 H 0.71802 0.27109 0.41574 0.0
H3517 H 0.81539 0.2496 0.46396 0.0
H3518 H 0.74068 0.25836 0.4725 0.0
H3519 H 0.83079 0.26631 0.4662 0.0
C3520 C 0.18832 0.25755 0.3099 0.0
C3521 C 0.2365 0.26426 0.31792 0.0
C3522 C 0.09929 0.25718 0.31063 0.0
C3523 C 0.05769 0.26338 0.31977 0.0
C3524 C 0.10632 0.27002 0.32797 0.0
C3525 C 0.19492 0.27051 0.32687 0.0
C3526 C 0.04967 0.25028 0.30155 0.0
C3527 C 0.06487 0.27649 0.338 0.0
C3528 C 0.82615 0.27312 0.31709 0.0
C3529 C 0.78456 0.26288 0.32233 0.0
C3530 C 0.91482 0.27326 0.31599 0.0
C3531 C 0.96323 0.26315 0.32066 0.0
C3532 C 0.9213 0.25292 0.32621 0.0
C3533 C 0.83212 0.25276 0.32674 0.0
C3534 C 0.95656 0.28413 0.30967 0.0
C3535 C 0.97066 0.24221 0.33167 0.0
H3536 H 0.22016 0.25271 0.30296 0.0
H3537 H 0.23187 0.27557 0.3332 0.0
H3538 H 1.01116 0.24256 0.30542 0.0
H3539 H 1.00504 0.257 0.29739 0.0
H3540 H 0.09142 0.24605 0.29495 0.0
H3541 H 0.11194 0.28088 0.34384 0.0
H3542 H 1.02101 0.28404 0.335 0.0
H3543 H 1.02655 0.26946 0.34285 0.0
H3544 H 0.78891 0.28085 0.31353 0.0
H3545 H 0.79958 0.24484 0.33079 0.0
H3546 H 0.99554 0.28032 0.30258 0.0
H3547 H 0.99987 0.28938 0.31543 0.0
H3548 H 0.90961 0.29096 0.30614 0.0
H3549 H 1.00689 0.23694 0.3251 0.0
H3550 H 0.92887 0.23537 0.33622 0.0
H3551 H 1.01733 0.24616 0.33779 0.0
C3552 C 1.0073 0.52305 0.31453 0.0
C3553 C 0.05017 0.51511 0.32222 0.0
C3554 C 0.91869 0.52251 0.3134 0.0
C3555 C 0.87146 0.51401 0.3203 0.0
C3556 C 0.91428 0.50605 0.32816 0.0
C3557 C 1.00315 0.50661 0.32895 0.0
C3558 C 0.87564 0.53098 0.30477 0.0
C3559 C 0.8661 0.49702 0.3358 0.0
C3560 C 0.63957 0.52222 0.32513 0.0
C3561 C 0.59864 0.5134 0.3181 0.0
C3562 C 0.72823 0.52235 0.32608 0.0
C3563 C 0.77708 0.51372 0.31953 0.0
C3564 C 0.73563 0.5049 0.31226 0.0
C3565 C 0.64647 0.50469 0.3118 0.0
C3566 C 0.76955 0.53162 0.33418 0.0
C3567 C 0.78542 0.49584 0.30488 0.0
H3568 H 1.04318 0.52953 0.30918 0.0
H3569 H 1.03579 0.50041 0.3349 0.0
H3570 H 0.83642 0.52513 0.29893 0.0
H3571 H 0.83239 0.53773 0.30914 0.0
H3572 H 0.92178 0.53657 0.29965 0.0
H3573 H 0.90862 0.49167 0.34163 0.0
H3574 H 0.81935 0.50241 0.34096 0.0
H3575 H 0.83004 0.49007 0.3306 0.0
H3576 H 0.60188 0.52885 0.33009 0.0
H3577 H 0.61418 0.49791 0.30635 0.0
H3578 H 0.81156 0.53823 0.32943 0.0
H3579 H 0.80977 0.52636 0.34035 0.0
H3580 H 0.7223 0.53735 0.33898 0.0
H3581 H 0.827 0.50134 0.29904 0.0
H3582 H 0.74365 0.48957 0.29972 0.0
H3583 H 0.82713 0.48977 0.3102 0.0
C3584 C 0.89841 0.02485 0.07086 0.0
C3585 C 0.85407 1.01348 0.06881 0.0
C3586 C 0.98746 0.02504 0.07131 0.0
C3587 C 1.03334 1.01352 0.06998 0.0
C3588 C 0.98875 1.00198 0.06801 0.0
C3589 C 0.89973 1.00213 0.0673 0.0
C3590 C 1.03245 0.03759 0.07309 0.0
C3591 C 1.03504 0.98945 0.06686 0.0
C3592 C 0.26519 1.01426 0.06096 0.0
C3593 C 0.307 1.01346 0.07144 0.0
C3594 C 0.17623 0.0146 0.0604 0.0
C3595 C 0.12799 1.01356 0.07052 0.0
C3596 C 0.17031 1.01253 0.08112 0.0
C3597 C 0.25952 1.01278 0.08147 0.0
C3598 C 0.13392 0.0162 0.04898 0.0
C3599 C 0.12142 1.01098 0.09206 0.0
H3600 H 0.86344 0.03366 0.072 0.0
H3601 H 0.86572 0.99329 0.06585 0.0
H3602 H 0.07027 0.03725 0.08103 0.0
H3603 H 0.07728 0.03936 0.06598 0.0
H3604 H 0.98763 0.04575 0.07363 0.0
H3605 H 0.99101 0.98129 0.06564 0.0
H3606 H 0.07922 0.98983 0.05953 0.0
H3607 H 0.07372 0.98767 0.07458 0.0
H3608 H 0.30231 0.01488 0.05322 0.0
H3609 H 0.29223 1.01208 0.08955 0.0
H3610 H 0.091 0.02459 0.04916 0.0
H3611 H 0.09446 1.00772 0.04705 0.0
H3612 H 0.18056 0.01752 0.04199 0.0
H3613 H 0.08241 0.01959 0.09365 0.0
H3614 H 0.16379 1.00944 0.09948 0.0
H3615 H 0.07734 1.00275 0.09139 0.0
C3616 C 0.08598 0.25518 0.06499 0.0
C3617 C 1.04344 0.26488 0.07087 0.0
C3618 C 0.17465 0.25527 0.06395 0.0
C3619 C 0.22214 0.26503 0.0693 0.0
C3620 C 0.17936 0.27479 0.07536 0.0
C3621 C 0.09024 0.27473 0.07588 0.0
C3622 C 0.21743 0.24492 0.05712 0.0
C3623 C 0.22779 0.28514 0.08146 0.0
C3624 C 0.45136 0.25712 0.07634 0.0
C3625 C 0.49576 0.26392 0.06796 0.0
C3626 C 0.36256 0.25756 0.07696 0.0
C3627 C 0.31664 0.26477 0.06885 0.0
C3628 C 0.36101 0.27154 0.06027 0.0
C3629 C 0.45017 0.27115 0.06 0.0
C3630 C 0.31793 0.25041 0.08637 0.0
C3631 C 0.31424 0.27905 0.0513 0.0
H3632 H 0.0496 0.24766 0.06096 0.0
H3633 H 0.05722 0.28222 0.08043 0.0
H3634 H 0.26042 0.24922 0.05069 0.0
H3635 H 0.25682 0.2389 0.06279 0.0
H3636 H 0.17104 0.23869 0.05268 0.0
H3637 H 0.18517 0.29188 0.08598 0.0
H3638 H 0.2718 0.28081 0.08773 0.0
H3639 H 0.26689 0.29061 0.07531 0.0
H3640 H 0.48615 0.25162 0.0826 0.0
H3641 H 0.48413 0.2764 0.05349 0.0
H3642 H 0.276 0.24298 0.0827 0.0
H3643 H 0.27717 0.25705 0.09128 0.0
H3644 H 0.3631 0.24574 0.0923 0.0
H3645 H 0.27151 0.27261 0.04648 0.0
H3646 H 0.35802 0.28379 0.04522 0.0
H3647 H 0.27395 0.28643 0.05534 0.0
C3648 C 0.89715 0.27473 0.19055 0.0
C3649 C 0.8528 0.26436 0.19515 0.0
C3650 C 0.98612 0.27456 0.18976 0.0
C3651 C 1.03191 0.26397 0.19406 0.0
C3652 C 0.98718 0.25361 0.19898 0.0
C3653 C 0.89805 0.25382 0.19925 0.0
C3654 C 1.03101 0.2856 0.18411 0.0
C3655 C 1.03348 0.24237 0.20407 0.0
C3656 C 0.25867 0.25786 0.18408 0.0
C3657 C 0.30592 0.26398 0.19256 0.0
C3658 C 0.16938 0.25791 0.18438 0.0
C3659 C 0.12659 0.26383 0.19357 0.0
C3660 C 0.17436 0.26973 0.20229 0.0
C3661 C 0.26324 0.26992 0.20159 0.0
C3662 C 0.1208 0.25182 0.17476 0.0
C3663 C 0.13164 0.2758 0.21243 0.0
H3664 H 0.86198 0.28279 0.1872 0.0
H3665 H 0.86361 0.2458 0.20282 0.0
H3666 H 0.07508 0.29021 0.1902 0.0
H3667 H 0.06965 0.28206 0.17688 0.0
H3668 H 0.98607 0.29292 0.1809 0.0
H3669 H 0.98945 0.23525 0.20783 0.0
H3670 H 0.07228 0.23759 0.19746 0.0
H3671 H 0.07758 0.24572 0.21078 0.0
H3672 H 0.29147 0.25331 0.17707 0.0
H3673 H 0.29958 0.27452 0.20825 0.0
H3674 H 0.07793 0.25895 0.1708 0.0
H3675 H 0.08049 0.24397 0.17805 0.0
H3676 H 0.16338 0.24791 0.16809 0.0
H3677 H 0.09212 0.28396 0.20961 0.0
H3678 H 0.17801 0.27929 0.21881 0.0
H3679 H 0.08874 0.26881 0.21659 0.0
C3680 C 0.44856 0.024 0.18901 0.0
C3681 C 0.49182 0.01463 0.19527 0.0
C3682 C 0.35992 0.02364 0.18783 0.0
C3683 C 0.31309 1.01374 0.1931 0.0
C3684 C 0.35626 1.00433 0.19952 0.0
C3685 C 0.44503 1.00486 0.2005 0.0
C3686 C 0.31644 0.03381 0.18085 0.0
C3687 C 0.30864 0.99367 0.20534 0.0
C3688 C 0.07932 0.01953 0.19913 0.0
C3689 C 1.04037 1.01253 0.19046 0.0
C3690 C 0.16798 0.01995 0.20011 0.0
C3691 C 0.21876 1.01336 0.1921 0.0
C3692 C 0.17927 1.00638 0.18323 0.0
C3693 C 0.09017 1.00596 0.18257 0.0
C3694 C 0.20729 0.02737 0.20976 0.0
C3695 C 0.23116 0.99942 0.17442 0.0
H3696 H 0.48406 0.03152 0.18484 0.0
H3697 H 0.47778 0.99754 0.20531 0.0
H3698 H 0.27942 0.02933 0.1739 0.0
H3699 H 0.27106 0.03917 0.18624 0.0
H3700 H 0.36213 0.04068 0.17706 0.0
H3701 H 0.35141 0.9872 0.21015 0.0
H3702 H 0.26114 0.99769 0.2113 0.0
H3703 H 0.27354 0.98797 0.19894 0.0
H3704 H 1.04012 0.02458 0.20523 0.0
H3705 H 0.05942 1.00061 0.17585 0.0
H3706 H 0.24903 0.03498 0.20633 0.0
H3707 H 0.24748 0.02097 0.21499 0.0
H3708 H 0.15885 0.03184 0.21534 0.0
H3709 H 0.27255 1.00628 0.16985 0.0
H3710 H 0.19086 0.99438 0.16812 0.0
H3711 H 0.27318 0.99235 0.17861 0.0
C3712 C 0.83516 1.00568 0.94641 0.0
C3713 C 0.79204 0.01517 0.94034 0.0
C3714 C 0.92405 1.0057 0.94714 0.0
C3715 C 0.97106 0.01516 0.94128 0.0
C3716 C 0.92759 0.02456 0.93485 0.0
C3717 C 0.83834 0.02463 0.93467 0.0
C3718 C 0.9675 0.9958 0.95442 0.0
C3719 C 0.97539 0.0345 0.92813 0.0
C3720 C 0.19574 0.02279 0.95106 0.0
C3721 C 0.24454 0.01517 0.94378 0.0
C3722 C 0.10672 0.02281 0.95039 0.0
C3723 C 0.06559 0.0153 0.94203 0.0
C3724 C 0.11478 1.00774 0.93454 0.0
C3725 C 0.20354 1.00763 0.93561 0.0
C3726 C 0.05663 0.03073 0.95874 0.0
C3727 C 0.07372 0.99983 0.92535 0.0
H3728 H 0.79902 0.99847 0.95094 0.0
H3729 H 0.80471 0.03195 0.92997 0.0
H3730 H 1.01191 0.99007 0.9492 0.0
H3731 H 1.00557 1.00058 0.96112 0.0
H3732 H 0.92167 0.98923 0.95858 0.0
H3733 H 0.93235 0.04078 0.92316 0.0
H3734 H 1.01366 0.04052 0.93393 0.0
H3735 H 1.02011 0.02978 0.92218 0.0
H3736 H 0.22712 0.0286 0.95742 0.0
H3737 H 0.241 1.00182 0.92988 0.0
H3738 H 1.01237 0.02451 0.96356 0.0
H3739 H 1.01771 0.03786 0.95413 0.0
H3740 H 0.09808 0.03583 0.96487 0.0
H3741 H 1.0334 0.99233 0.92923 0.0
H3742 H 0.12115 0.99516 0.91974 0.0
H3743 H 1.03185 1.00592 0.92005 0.0
C3744 C 1.01635 0.76517 0.95182 0.0
C3745 C 0.05485 0.76327 0.94124 0.0
C3746 C 0.92783 0.76615 0.9528 0.0
C3747 C 0.87654 0.76476 0.94299 0.0
C3748 C 0.91553 0.76273 0.93227 0.0
C3749 C 1.00457 0.76226 0.93149 0.0
C3750 C 0.88924 0.76873 0.96431 0.0
C3751 C 0.86316 0.76088 0.92167 0.0
C3752 C 0.64862 0.75408 0.94778 0.0
C3753 C 0.60325 0.76544 0.9461 0.0
C3754 C 0.73728 0.75372 0.94669 0.0
C3755 C 0.78217 0.76505 0.94404 0.0
C3756 C 0.73689 0.7766 0.94252 0.0
C3757 C 0.64794 0.77664 0.94347 0.0
C3758 C 0.78283 0.74116 0.94817 0.0
C3759 C 0.78242 0.78893 0.93992 0.0
H3760 H 0.05582 0.76615 0.95932 0.0
H3761 H 1.03489 0.76085 0.92331 0.0
H3762 H 0.84815 0.77731 0.96389 0.0
H3763 H 0.84854 0.76059 0.96689 0.0
H3764 H 0.93814 0.77024 0.97098 0.0
H3765 H 0.90304 0.75903 0.91406 0.0
H3766 H 0.81899 0.75274 0.92284 0.0
H3767 H 0.824 0.76948 0.92005 0.0
H3768 H 0.61467 0.74533 0.94968 0.0
H3769 H 0.6134 0.78545 0.94214 0.0
H3770 H 0.82879 0.74184 0.95528 0.0
H3771 H 0.81945 0.7389 0.94037 0.0
H3772 H 0.73852 0.73316 0.94995 0.0
H3773 H 0.82834 0.7911 0.9468 0.0
H3774 H 0.73807 0.79711 0.93904 0.0
H3775 H 0.81915 0.78799 0.93193 0.0
C3776 C 0.20269 0.77123 0.82682 0.0
C3777 C 0.2444 0.76388 0.81858 0.0
C3778 C 0.11381 0.77118 0.82768 0.0
C3779 C 0.06534 0.7639 0.81989 0.0
C3780 C 0.1072 0.7567 0.81139 0.0
C3781 C 0.19627 0.75663 0.81094 0.0
C3782 C 0.07186 0.77876 0.83703 0.0
C3783 C 0.05789 0.7492 0.80266 0.0
C3784 C 0.83867 0.75417 0.82713 0.0
C3785 C 0.79198 0.7639 0.82191 0.0
C3786 C 0.92787 0.75421 0.82677 0.0
C3787 C 0.97084 0.76389 0.82061 0.0
C3788 C 0.92341 0.77356 0.8151 0.0
C3789 C 0.83465 0.77359 0.81603 0.0
C3790 C 0.97619 0.74398 0.83306 0.0
C3791 C 0.96621 0.78378 0.80809 0.0
H3792 H 0.23968 0.77679 0.8328 0.0
H3793 H 0.22828 0.75104 0.80449 0.0
H3794 H 1.03037 0.78621 0.8333 0.0
H3795 H 1.03098 0.7724 0.84223 0.0
H3796 H 0.11872 0.78345 0.8427 0.0
H3797 H 0.09991 0.74439 0.79641 0.0
H3798 H 1.01844 0.74186 0.80693 0.0
H3799 H 1.01417 0.75565 0.798 0.0
H3800 H 0.80541 0.74665 0.83164 0.0
H3801 H 0.79823 0.781 0.81182 0.0
H3802 H 1.0215 0.74843 0.83909 0.0
H3803 H 1.01388 0.73822 0.82698 0.0
H3804 H 0.93356 0.73749 0.83787 0.0
H3805 H 1.00414 0.79007 0.81371 0.0
H3806 H 0.91985 0.78976 0.80338 0.0
H3807 H 1.0105 0.7794 0.80189 0.0
C3808 C 0.63476 0.02257 0.82629 0.0
C3809 C 0.5949 0.015 0.8181 0.0
C3810 C 0.72333 0.02249 0.82747 0.0
C3811 C 0.77299 0.01483 0.82011 0.0
C3812 C 0.73244 1.00715 0.81181 0.0
C3813 C 0.64347 1.00722 0.81099 0.0
C3814 C 0.76371 0.03058 0.8366 0.0
C3815 C 0.78303 0.99896 0.80374 0.0
C3816 C 1.00222 0.02484 0.81548 0.0
C3817 C 0.04655 0.01605 0.82224 0.0
C3818 C 0.91343 0.02448 0.81467 0.0
C3819 C 0.86739 0.01519 0.82087 0.0
C3820 C 0.91154 1.00638 0.82783 0.0
C3821 C 1.00061 1.00687 0.82838 0.0
C3822 C 0.86887 0.03395 0.80707 0.0
C3823 C 0.86467 0.99646 0.83471 0.0
H3824 H 0.59634 0.02842 0.83189 0.0
H3825 H 0.61184 1.00128 0.80475 0.0
H3826 H 0.80524 0.02461 0.84205 0.0
H3827 H 0.80427 0.038 0.83263 0.0
H3828 H 0.71586 0.03535 0.84207 0.0
H3829 H 0.74192 0.99365 0.79771 0.0
H3830 H 0.82753 1.00501 0.79879 0.0
H3831 H 0.82173 0.992 0.80859 0.0
H3832 H 1.037 0.0319 0.81062 0.0
H3833 H 1.0342 1.00003 0.83363 0.0
H3834 H 0.8247 0.03987 0.81217 0.0
H3835 H 0.83042 0.02883 0.80063 0.0
H3836 H 0.91397 0.04038 0.8026 0.0
H3837 H 0.8217 1.00123 0.84084 0.0
H3838 H 0.90836 0.99011 0.83948 0.0
H3839 H 0.82459 0.99052 0.82906 0.0
C3840 C 0.11565 0.51175 0.03089 0.0
C3841 C 1.04232 0.51569 0.03662 0.0
C3842 C 0.11585 0.51035 0.01898 0.0
C3843 C 1.04033 0.5126 0.01274 0.0
C3844 C 0.9654 0.51609 0.0186 0.0
C3845 C 0.96766 0.51777 0.03043 0.0
C3846 C 0.19748 0.50687 0.01305 0.0
C3847 C 0.88289 0.51817 0.01236 0.0
C3848 C 0.04892 0.52099 0.98119 0.0
C3849 C 1.03644 0.50905 0.97616 0.0
C3850 C 0.05231 0.52225 0.9931 0.0
C3851 C 1.03948 0.51138 1.00009 0.0
C3852 C 1.02439 0.49936 0.99497 0.0
C3853 C 1.02487 0.4983 0.98307 0.0
C3854 C 0.07106 0.53515 0.99819 0.0
C3855 C 1.00712 0.48763 1.00207 0.0
H3856 H 0.17362 0.51024 0.03566 0.0
H3857 H 0.91074 0.52075 0.03488 0.0
H3858 H 0.18867 0.49811 0.00792 0.0
H3859 H 0.21573 0.51463 0.0071 0.0
H3860 H 0.25036 0.50528 0.01913 0.0
H3861 H 0.82927 0.5201 0.01824 0.0
H3862 H 0.88916 0.52635 0.00643 0.0
H3863 H 0.8673 0.50964 0.00718 0.0
H3864 H 0.0587 0.52926 0.97581 0.0
H3865 H 1.01483 0.48907 0.97914 0.0
H3866 H 0.12774 0.53452 1.00375 0.0
H3867 H 1.01723 0.53828 1.00358 0.0
H3868 H 0.08266 0.54254 0.99159 0.0
H3869 H 0.06319 0.48539 0.00739 0.0
H3870 H 0.99204 0.47916 0.99677 0.0
H3871 H 0.95318 0.48943 0.00791 0.0
C3872 C 0.36867 0.76692 0.98298 0.0
C3873 C 0.29449 0.76814 0.97652 0.0
C3874 C 0.36488 0.76567 0.9949 0.0
C3875 C 0.28494 0.76509 1.00042 0.0
C3876 C 0.20992 0.7661 0.99384 0.0
C3877 C 0.2157 0.76787 0.98202 0.0
C3878 C 0.4464 0.765 1.00158 0.0
C3879 C 0.12343 0.76512 0.99927 0.0
C3880 C 0.27091 0.74775 0.02881 0.0
C3881 C 0.26455 0.75783 0.03658 0.0
C3882 C 0.27833 0.75001 0.01708 0.0
C3883 C 0.27942 0.7627 0.01295 0.0
C3884 C 0.27332 0.77296 0.02077 0.0
C3885 C 0.26598 0.77041 0.03252 0.0
C3886 C 0.28438 0.73877 0.0091 0.0
C3887 C 0.27494 0.78663 0.01674 0.0
H3888 H 0.42969 0.76731 0.97874 0.0
H3889 H 0.15832 0.76881 0.97701 0.0
H3890 H 0.44581 0.77221 0.00849 0.0
H3891 H 0.45236 0.75549 1.00564 0.0
H3892 H 0.50303 0.76666 0.99615 0.0
H3893 H 0.07132 0.76606 0.99297 0.0
H3894 H 0.11699 0.75577 1.00364 0.0
H3895 H 0.11586 0.77265 1.00582 0.0
H3896 H 0.2703 0.738 0.03189 0.0
H3897 H 0.26153 0.77824 0.0385 0.0
H3898 H 0.34412 0.73929 1.00414 0.0
H3899 H 0.23115 0.73903 1.00294 0.0
H3900 H 0.28267 0.72949 0.01367 0.0
H3901 H 0.33448 0.78848 0.01198 0.0
H3902 H 0.27038 0.79352 0.02388 0.0
H3903 H 0.22155 0.78837 0.0108 0.0
C3904 C 0.98432 0.76866 0.27981 0.0
C3905 C 0.05524 0.76533 0.28632 0.0
C3906 C 0.98658 0.76788 0.26788 0.0
C3907 C 0.06053 0.76325 0.26242 0.0
C3908 C 0.13195 0.75975 0.26905 0.0
C3909 C 0.12895 0.76108 0.28093 0.0
C3910 C 0.90998 0.77203 0.26114 0.0
C3911 C 0.21124 0.7545 0.2636 0.0
C3912 C 1.04248 0.74744 0.23351 0.0
C3913 C 0.07359 0.75692 0.22622 0.0
C3914 C 1.03539 0.74956 0.24523 0.0
C3915 C 0.06192 0.76137 0.24985 0.0
C3916 C 0.09247 0.77107 0.24249 0.0
C3917 C 0.0971 0.76878 0.23071 0.0
C3918 C 1.00076 0.73906 0.25271 0.0
C3919 C 0.12148 0.78378 0.24709 0.0
H3920 H 0.928 0.77222 0.28404 0.0
H3921 H 0.18393 0.75866 0.28603 0.0
H3922 H 0.92879 0.77904 0.25453 0.0
H3923 H 0.88217 0.76369 0.2567 0.0
H3924 H 0.86037 0.77639 0.2666 0.0
H3925 H 0.26146 0.75235 0.26994 0.0
H3926 H 0.19594 0.74561 0.25891 0.0
H3927 H 0.23664 0.76144 0.25734 0.0
H3928 H 1.02323 0.73831 0.23002 0.0
H3929 H 0.12094 0.77613 0.22505 0.0
H3930 H 0.94617 0.74264 0.25773 0.0
H3931 H 0.05014 0.73595 0.25884 0.0
H3932 H 0.97967 0.73063 0.24773 0.0
H3933 H 0.06957 0.78831 0.25201 0.0
H3934 H 0.14173 0.79041 0.24024 0.0
H3935 H 0.17541 0.78234 0.25301 0.0
C3936 C 0.22946 0.51082 0.23224 0.0
C3937 C 0.29747 0.51666 0.2266 0.0
C3938 C 0.23045 0.50927 0.24413 0.0
C3939 C 0.30171 0.51347 0.25046 0.0
C3940 C 0.3717 0.51895 0.24471 0.0
C3941 C 0.36838 0.52057 0.23288 0.0
C3942 C 0.15431 0.50348 0.24994 0.0
C3943 C 0.44982 0.52323 0.25108 0.0
C3944 C 0.27688 0.52146 0.28191 0.0
C3945 C 0.30426 0.51015 0.28704 0.0
C3946 C 0.27478 0.52262 0.27 0.0
C3947 C 0.30284 0.51234 0.26312 0.0
C3948 C 0.33285 0.50103 0.26835 0.0
C3949 C 0.3319 0.5 0.28025 0.0
C3950 C 0.24098 0.53474 0.26476 0.0
C3951 C 0.36552 0.48999 0.26138 0.0
H3952 H 0.17449 0.5078 0.2274 0.0
H3953 H 0.42143 0.52499 0.22852 0.0
H3954 H 0.17379 0.49511 0.2551 0.0
H3955 H 0.12598 0.51054 0.25585 0.0
H3956 H 0.10497 0.50039 0.24379 0.0
H3957 H 0.50051 0.52669 0.24528 0.0
H3958 H 0.43312 0.53103 0.25703 0.0
H3959 H 0.47534 0.51523 0.25623 0.0
H3960 H 0.25458 0.52922 0.28722 0.0
H3961 H 0.35289 0.49125 0.28428 0.0
H3962 H 0.18621 0.5325 0.25919 0.0
H3963 H 0.29036 0.53923 0.25936 0.0
H3964 H 0.2204 0.54176 0.27128 0.0
H3965 H 0.31359 0.48605 0.25608 0.0
H3966 H 0.39139 0.4822 0.26677 0.0
H3967 H 0.41609 0.4933 0.25551 0.0
C3968 C 0.73684 0.26131 0.98114 0.0
C3969 C 0.8061 0.26754 0.97619 0.0
C3970 C 0.73202 0.25958 0.993 0.0
C3971 C 0.79735 0.26442 1.00008 0.0
C3972 C 0.86768 0.2707 0.99504 0.0
C3973 C 0.87133 0.27214 0.98314 0.0
C3974 C 0.6566 0.25267 0.99795 0.0
C3975 C 0.93871 0.27599 1.00222 0.0
C3976 C 0.74646 0.26937 0.03163 0.0
C3977 C 0.77645 0.25796 0.03637 0.0
C3978 C 0.75328 0.27167 0.01983 0.0
C3979 C 0.7931 0.26252 0.0127 0.0
C3980 C 0.82645 0.25125 0.0176 0.0
C3981 C 0.81658 0.24904 0.0293 0.0
C3982 C 0.71593 0.28373 0.01495 0.0
C3983 C 0.87135 0.24139 0.01045 0.0
H3984 H 0.68603 0.25789 0.97573 0.0
H3985 H 0.92424 0.27713 0.97927 0.0
H3986 H 0.67818 0.24418 1.00279 0.0
H3987 H 0.62281 0.259 1.004 0.0
H3988 H 0.61122 0.2495 0.99131 0.0
H3989 H 0.98846 0.28071 0.99701 0.0
H3990 H 0.91317 0.28301 0.00838 0.0
H3991 H 0.96844 0.2682 0.00721 0.0
H3992 H 0.71538 0.27627 0.03708 0.0
H3993 H 0.84082 0.24027 0.03295 0.0
H3994 H 0.66407 0.28128 0.00896 0.0
H3995 H 0.76474 0.28901 0.01004 0.0
H3996 H 0.69012 0.29012 0.02164 0.0
H3997 H 0.82582 0.23703 1.0044 0.0
H3998 H 0.89987 0.23368 0.01569 0.0
H3999 H 0.92226 0.24593 1.00534 0.0
C4000 C 0.12498 0.26736 0.78054 0.0
C4001 C 0.04679 0.26748 0.78618 0.0
C4002 C 0.12971 0.26536 0.76874 0.0
C4003 C 0.05413 0.26396 0.76235 0.0
C4004 C 0.97474 0.26428 0.76802 0.0
C4005 C 0.9721 0.26579 0.77992 0.0
C4006 C 0.2157 0.26462 0.76314 0.0
C4007 C 0.89263 0.26316 0.76152 0.0
C4008 C 0.06997 0.26961 0.73029 0.0
C4009 C 0.07352 0.25708 0.72616 0.0
C4010 C 0.06245 0.27203 0.74204 0.0
C4011 C 0.05868 0.26167 0.74981 0.0
C4012 C 0.06183 0.24902 0.74562 0.0
C4013 C 0.06917 0.2469 0.73388 0.0
C4014 C 0.05853 0.28564 0.74615 0.0
C4015 C 0.05846 0.23769 0.75355 0.0
H4016 H 0.18274 0.26864 0.78541 0.0
H4017 H 0.91152 0.26604 0.78428 0.0
H4018 H 0.22269 0.25533 0.75872 0.0
H4019 H 0.22176 0.27222 0.75663 0.0
H4020 H 0.26836 0.26565 0.76935 0.0
H4021 H 0.83625 0.2643 0.76709 0.0
H4022 H 0.89017 0.27052 0.75473 0.0
H4023 H 0.88904 0.25371 0.75731 0.0
H4024 H 0.07282 0.27751 0.72434 0.0
H4025 H 0.07147 0.23719 0.73074 0.0
H4026 H 0.11369 0.28767 0.75171 0.0
H4027 H 1.00048 0.28711 0.75132 0.0
H4028 H 0.05854 0.2926 0.73902 0.0
H4029 H 0.11322 0.238 0.75947 0.0
H4030 H 0.05971 0.22847 0.74891 0.0
H4031 H 1.00001 0.23806 0.75879 0.0
C4032 C 0.74871 0.5189 0.78151 0.0
C4033 C 0.80457 0.5102 0.78653 0.0
C4034 C 0.74568 0.52039 0.76962 0.0
C4035 C 0.79953 0.51293 0.76261 0.0
C4036 C 0.85634 0.50415 0.76773 0.0
C4037 C 0.8581 0.50289 0.77964 0.0
C4038 C 0.68465 0.52992 0.76456 0.0
C4039 C 0.91509 0.49607 0.76062 0.0
C4040 C 0.74115 0.50908 0.73123 0.0
C4041 C 0.79379 0.51819 0.72608 0.0
C4042 C 0.74267 0.50719 0.74311 0.0
C4043 C 0.79807 0.51457 0.74997 0.0
C4044 C 0.85196 0.52365 0.74474 0.0
C4045 C 0.84922 0.52532 0.7329 0.0
C4046 C 0.68453 0.49737 0.74833 0.0
C4047 C 0.91199 0.53174 0.75168 0.0
H4048 H 0.70693 0.52447 0.7869 0.0
H4049 H 0.90078 0.49609 0.78359 0.0
H4050 H 0.71987 0.53705 0.75943 0.0
H4051 H 0.64001 0.52498 0.75875 0.0
H4052 H 0.64743 0.53501 0.77116 0.0
H4053 H 0.95462 0.48958 0.76589 0.0
H4054 H 0.87774 0.49025 0.75455 0.0
H4055 H 0.95766 0.50228 0.75554 0.0
H4056 H 0.69837 0.50351 0.726 0.0
H4057 H 0.89042 0.53235 0.72898 0.0
H4058 H 0.64043 0.50207 0.75437 0.0
H4059 H 0.72211 0.49032 0.75325 0.0
H4060 H 0.64669 0.4922 0.74183 0.0
H4061 H 0.87541 0.53773 0.7577 0.0
H4062 H 0.95169 0.53808 0.74629 0.0
H4063 H 0.95441 0.52555 0.7568 0.0
C4064 C 0.97197 0.01829 0.53046 0.0
C4065 C 0.04894 0.01756 0.53636 0.0
C4066 C 0.96879 0.01665 0.51862 0.0
C4067 C 1.04495 0.01473 0.51246 0.0
C4068 C 0.12311 1.01409 0.51841 0.0
C4069 C 0.12397 0.01527 0.53033 0.0
C4070 C 0.88382 0.01689 0.51272 0.0
C4071 C 0.20598 1.01249 0.51215 0.0
C4072 C 1.03799 0.99935 0.48318 0.0
C4073 C 1.0371 1.01 0.47597 0.0
C4074 C 1.03879 1.00077 0.49504 0.0
C4075 C 1.04249 1.01315 0.49984 0.0
C4076 C 1.04289 0.02396 0.49256 0.0
C4077 C 1.03829 0.02225 0.48069 0.0
C4078 C 1.03484 0.98901 0.50245 0.0
C4079 C 0.04961 0.0373 0.49729 0.0
H4080 H 0.9139 0.02002 0.53516 0.0
H4081 H 0.18366 0.01487 0.53489 0.0
H4082 H 0.88113 0.02501 0.50669 0.0
H4083 H 0.87513 1.00802 0.50769 0.0
H4084 H 0.83028 0.01778 0.5188 0.0
H4085 H 0.26134 1.01244 0.51799 0.0
H4086 H 0.20571 1.00343 0.50729 0.0
H4087 H 0.21401 0.02036 0.50593 0.0
H4088 H 1.03655 0.98987 0.47951 0.0
H4089 H 1.03834 0.03048 0.4751 0.0
H4090 H 0.98037 0.98972 0.50839 0.0
H4091 H 0.09316 0.98828 0.50767 0.0
H4092 H 1.02812 0.98012 0.49739 0.0
H4093 H 0.99277 0.0395 0.50247 0.0
H4094 H 0.05539 0.04461 0.49048 0.0
H4095 H 0.10559 0.03802 0.50297 0.0
C4096 C 0.36476 0.27363 0.48282 0.0
C4097 C 0.29591 0.26961 0.47624 0.0
C4098 C 0.363 0.27248 0.49473 0.0
C4099 C 0.29177 0.26682 0.50009 0.0
C4100 C 0.22256 0.2626 0.49338 0.0
C4101 C 0.22491 0.26426 0.48153 0.0
C4102 C 0.43712 0.27738 0.50156 0.0
C4103 C 0.14659 0.25618 0.49871 0.0
C4104 C 0.32664 0.25154 0.52903 0.0
C4105 C 0.28837 0.26034 0.53638 0.0
C4106 C 0.32772 0.25352 0.51723 0.0
C4107 C 0.29129 0.26474 0.51265 0.0
C4108 C 0.2538 0.27381 0.52006 0.0
C4109 C 0.25202 0.27144 0.53186 0.0
C4110 C 0.36689 0.24349 0.50966 0.0
C4111 C 0.21609 0.28602 0.51554 0.0
H4112 H 0.41917 0.27791 0.47865 0.0
H4113 H 0.17171 0.26121 0.47636 0.0
H4114 H 0.41457 0.28419 0.50812 0.0
H4115 H 0.46823 0.26935 0.50608 0.0
H4116 H 0.48516 0.28223 0.49616 0.0
H4117 H 0.09884 0.25324 0.49228 0.0
H4118 H 0.16719 0.2476 0.5035 0.0
H4119 H 0.11584 0.26272 0.50486 0.0
H4120 H 0.35483 0.24294 0.53248 0.0
H4121 H 0.223 0.27831 0.53754 0.0
H4122 H 0.41995 0.24768 0.50472 0.0
H4123 H 0.31913 0.24001 0.50347 0.0
H4124 H 0.39139 0.23521 0.51456 0.0
H4125 H 0.26479 0.29139 0.51068 0.0
H4126 H 0.19128 0.29223 0.52242 0.0
H4127 H 0.1636 0.28383 0.50958 0.0
C4128 C 0.32762 1.00032 0.77976 0.0
C4129 C 0.30021 1.01021 0.78685 0.0
C4130 C 0.32639 1.00167 0.76787 0.0
C4131 C 0.29415 1.01302 0.76296 0.0
C4132 C 0.26564 0.02301 0.77015 0.0
C4133 C 0.27022 0.02155 0.78203 0.0
C4134 C 0.36006 0.99097 0.76057 0.0
C4135 C 0.22894 0.03514 0.76528 0.0
C4136 C 0.35791 0.02199 0.73278 0.0
C4137 C 0.28832 0.01771 0.72642 0.0
C4138 C 0.361 0.02038 0.74462 0.0
C4139 C 0.29202 0.01454 0.75032 0.0
C4140 C 0.22157 1.01015 0.74392 0.0
C4141 C 0.22094 1.01166 0.73202 0.0
C4142 C 0.43812 0.02496 0.75104 0.0
C4143 C 0.14623 1.00405 0.74968 0.0
H4144 H 0.35073 0.99154 0.78355 0.0
H4145 H 0.24798 0.02911 0.78756 0.0
H4146 H 0.30927 0.98736 0.75491 0.0
H4147 H 0.41193 0.99457 0.75506 0.0
H4148 H 0.38468 0.98289 0.76572 0.0
H4149 H 0.20832 0.04189 0.77201 0.0
H4150 H 0.27655 0.03996 0.75983 0.0
H4151 H 0.17361 0.03283 0.75983 0.0
H4152 H 0.41038 0.02662 0.72847 0.0
H4153 H 0.16686 1.00839 0.72713 0.0
H4154 H 0.46561 0.017 0.75606 0.0
H4155 H 0.41969 0.03254 0.75713 0.0
H4156 H 0.48787 0.02881 0.74529 0.0
H4157 H 0.16649 0.99536 0.75433 0.0
H4158 H 0.09575 1.00137 0.74354 0.0
H4159 H 0.11913 1.01072 0.75604 0.0
C4160 C 0.72369 0.76441 0.48168 0.0
C4161 C 0.79909 0.76818 0.4764 0.0
C4162 C 0.72017 0.76247 0.49349 0.0
C4163 C 0.793 0.76487 0.50022 0.0
C4164 C 0.86919 0.76886 0.49488 0.0
C4165 C 0.87173 0.77025 0.48297 0.0
C4166 C 0.63865 0.75776 0.49876 0.0
C4167 C 0.94771 0.77175 0.50174 0.0
C4168 C 0.75591 0.76994 0.53202 0.0
C4169 C 0.77348 0.75777 0.53633 0.0
C4170 C 0.76317 0.77249 0.52028 0.0
C4171 C 0.78991 0.76268 0.51277 0.0
C4172 C 0.81016 0.75051 0.51721 0.0
C4173 C 0.80095 0.74818 0.52888 0.0
C4174 C 0.74081 0.78558 0.51588 0.0
C4175 C 0.83988 0.73981 0.50959 0.0
H4176 H 0.66766 0.76282 0.47653 0.0
H4177 H 0.92974 0.77332 0.47884 0.0
H4178 H 0.65013 0.74863 0.50329 0.0
H4179 H 0.6156 0.76474 0.50513 0.0
H4180 H 0.58808 0.75622 0.49233 0.0
H4181 H 1.00069 0.77528 0.49635 0.0
H4182 H 0.93321 0.77906 0.50827 0.0
H4183 H 0.96896 0.76305 0.50628 0.0
H4184 H 0.7349 0.77738 0.53777 0.0
H4185 H 0.81557 0.73878 0.5322 0.0
H4186 H 0.6854 0.78491 0.5101 0.0
H4187 H 0.79435 0.78953 0.51086 0.0
H4188 H 0.72527 0.79234 0.52285 0.0
H4189 H 0.78848 0.73718 0.50359 0.0
H4190 H 0.85849 0.73118 0.51447 0.0
H4191 H 0.89493 0.74296 0.50442 0.0
C4192 C 0.75172 1.00788 0.23133 0.0
C4193 C 0.79969 0.01749 0.2261 0.0
C4194 C 0.75335 1.00628 0.24323 0.0
C4195 C 0.80305 0.0146 0.25001 0.0
C4196 C 0.85208 0.02422 0.24471 0.0
C4197 C 0.85034 0.02547 0.23284 0.0
C4198 C 0.70141 0.99575 0.24854 0.0
C4199 C 0.90553 0.03335 0.25159 0.0
C4200 C 0.74468 0.01909 0.28121 0.0
C4201 C 0.80572 1.01155 0.28661 0.0
C4202 C 0.74309 0.02018 0.26929 0.0
C4203 C 0.80338 1.01342 0.26267 0.0
C4204 C 0.86541 1.00583 0.26817 0.0
C4205 C 0.86582 1.005 0.2801 0.0
C4206 C 0.67661 0.02848 0.26377 0.0
C4207 C 0.9304 0.99842 0.26146 0.0
H4208 H 0.71292 1.00164 0.22614 0.0
H4209 H 0.88783 0.0329 0.22885 0.0
H4210 H 0.74213 0.98972 0.25404 0.0
H4211 H 0.65148 0.99994 0.25403 0.0
H4212 H 0.6706 0.98959 0.24207 0.0
H4213 H 0.94032 0.04027 0.24616 0.0
H4214 H 0.86461 0.03874 0.25757 0.0
H4215 H 0.95225 0.02797 0.25676 0.0
H4216 H 0.69756 0.02399 0.28631 0.0
H4217 H 0.91206 0.999 0.28435 0.0
H4218 H 0.63636 0.02263 0.25806 0.0
H4219 H 0.70752 0.0359 0.25846 0.0
H4220 H 0.6352 0.03325 0.27012 0.0
H4221 H 0.89792 0.99148 0.25583 0.0
H4222 H 0.9752 0.99315 0.26704 0.0
H4223 H 0.96728 1.00496 0.25593 0.0
C4224 C 0.50644 0.52605 0.53037 0.0
C4225 C 0.56715 0.51936 0.5367 0.0
C4226 C 0.4971 0.52402 0.51864 0.0
C4227 C 0.55228 0.51548 0.51297 0.0
C4228 C 0.61343 0.50859 0.51938 0.0
C4229 C 0.61914 0.51046 0.53124 0.0
C4230 C 0.42894 0.5312 0.51228 0.0
C4231 C 0.67506 0.49967 0.51365 0.0
C4232 C 0.49181 0.50271 0.48373 0.0
C4233 C 0.53557 0.51102 0.47648 0.0
C4234 C 0.49569 0.50416 0.4956 0.0
C4235 C 0.54656 0.51394 0.50034 0.0
C4236 C 0.59082 0.52239 0.49299 0.0
C4237 C 0.58416 0.52089 0.48112 0.0
C4238 C 0.44569 0.49516 0.50306 0.0
C4239 C 0.64674 0.53282 0.49766 0.0
H4240 H 0.46619 0.53294 0.53462 0.0
H4241 H 0.66696 0.50544 0.53613 0.0
H4242 H 0.45844 0.53793 0.50617 0.0
H4243 H 0.38942 0.52445 0.5073 0.0
H4244 H 0.38697 0.53669 0.51808 0.0
H4245 H 0.71695 0.49474 0.51984 0.0
H4246 H 0.64036 0.49238 0.50865 0.0
H4247 H 0.71519 0.50513 0.50761 0.0
H4248 H 0.45489 0.495 0.48008 0.0
H4249 H 0.61915 0.52716 0.47547 0.0
H4250 H 0.40345 0.50068 0.50879 0.0
H4251 H 0.48945 0.48958 0.50852 0.0
H4252 H 0.40645 0.48841 0.49804 0.0
H4253 H 0.60858 0.53947 0.50292 0.0
H4254 H 0.67858 0.53838 0.49084 0.0
H4255 H 0.69594 0.52863 0.50328 0.0
C4256 C 0.62073 0.75899 0.78028 0.0
C4257 C 0.55262 0.76484 0.7858 0.0
C4258 C 0.62159 0.75778 0.76839 0.0
C4259 C 0.55391 0.7629 0.7619 0.0
C4260 C 0.48524 0.76893 0.7675 0.0
C4261 C 0.48499 0.76969 0.77943 0.0
C4262 C 0.69494 0.75102 0.76277 0.0
C4263 C 0.41248 0.77466 0.76092 0.0
C4264 C 0.59778 0.76871 0.7304 0.0
C4265 C 0.56607 0.75746 0.7256 0.0
C4266 C 0.59305 0.77076 0.74222 0.0
C4267 C 0.55385 0.76148 0.74928 0.0
C4268 C 0.51818 0.75042 0.74433 0.0
C4269 C 0.52583 0.74847 0.73259 0.0
C4270 C 0.63221 0.78263 0.74721 0.0
C4271 C 0.47389 0.74045 0.75146 0.0
H4272 H 0.67322 0.75536 0.78529 0.0
H4273 H 0.43311 0.77442 0.78377 0.0
H4274 H 0.67128 0.74272 0.75784 0.0
H4275 H 0.72684 0.75754 0.75669 0.0
H4276 H 0.74247 0.74757 0.76903 0.0
H4277 H 0.36555 0.77941 0.76654 0.0
H4278 H 0.43677 0.78176 0.75472 0.0
H4279 H 0.37961 0.76711 0.756 0.0
H4280 H 0.62881 0.77566 0.72498 0.0
H4281 H 0.50023 0.73983 0.72886 0.0
H4282 H 0.68584 0.77995 0.75283 0.0
H4283 H 0.58512 0.78775 0.75253 0.0
H4284 H 0.6561 0.78924 0.74055 0.0
H4285 H 0.52033 0.73584 0.75724 0.0
H4286 H 0.4435 0.73294 0.74619 0.0
H4287 H 0.42454 0.74495 0.75685 0.0
C4288 C 0.60929 0.26369 0.281 0.0
C4289 C 0.53641 0.26844 0.28629 0.0
C4290 C 0.61276 0.26218 0.26913 0.0
C4291 C 0.54264 0.26592 0.26236 0.0
C4292 C 0.46926 0.27094 0.26772 0.0
C4293 C 0.46657 0.27196 0.27965 0.0
C4294 C 0.69116 0.25643 0.26385 0.0
C4295 C 0.39369 0.27522 0.26084 0.0
C4296 C 0.58517 0.27065 0.23057 0.0
C4297 C 0.56074 0.25877 0.22622 0.0
C4298 C 0.57817 0.27326 0.24232 0.0
C4299 C 0.54461 0.26385 0.24977 0.0
C4300 C 0.51661 0.25208 0.24526 0.0
C4301 C 0.52579 0.24965 0.2336 0.0
C4302 C 0.60897 0.28591 0.2468 0.0
C4303 C 0.4793 0.24183 0.25279 0.0
H4304 H 0.6633 0.26102 0.28619 0.0
H4305 H 0.41067 0.2758 0.28379 0.0
H4306 H 0.67414 0.24756 0.25923 0.0
H4307 H 0.71867 0.26314 0.25756 0.0
H4308 H 0.74034 0.25409 0.27028 0.0
H4309 H 0.34345 0.27953 0.26623 0.0
H4310 H 0.41375 0.28231 0.25437 0.0
H4311 H 0.36629 0.26697 0.25622 0.0
H4312 H 0.61227 0.2777 0.22489 0.0
H4313 H 0.506 0.24049 0.23026 0.0
H4314 H 0.66439 0.28436 0.25245 0.0
H4315 H 0.55875 0.29051 0.25198 0.0
H4316 H 0.62788 0.29253 0.23986 0.0
H4317 H 0.52857 0.23828 0.25873 0.0
H4318 H 0.45448 0.23362 0.24783 0.0
H4319 H 0.42693 0.24579 0.258 0.0
C4320 C 0.50924 0.02834 0.03069 0.0
C4321 C 0.55731 0.02005 0.03747 0.0
C4322 C 0.50812 0.02711 0.01882 0.0
C4323 C 0.55558 0.01728 0.01358 0.0
C4324 C 0.60301 1.00871 0.02041 0.0
C4325 C 0.6036 1.01024 0.0323 0.0
C4326 C 0.45689 0.03645 0.01186 0.0
C4327 C 0.65345 0.99799 0.01517 0.0
C4328 C 0.49245 1.00798 0.98349 0.0
C4329 C 0.55493 1.01412 0.97705 0.0
C4330 C 0.4926 1.00876 0.99541 0.0
C4331 C 0.5559 0.01606 1.00095 0.0
C4332 C 0.61851 0.02242 0.9944 0.0
C4333 C 0.6179 0.02123 0.9825 0.0
C4334 C 0.42586 1.00163 1.00207 0.0
C4335 C 0.68608 0.03048 0.99996 0.0
H4336 H 0.47305 0.03591 0.03466 0.0
H4337 H 0.64043 1.00377 0.03753 0.0
H4338 H 0.49905 0.04159 1.00584 0.0
H4339 H 0.40904 0.03127 0.00672 0.0
H4340 H 0.42359 0.04357 0.01724 0.0
H4341 H 0.68362 0.99179 0.02168 0.0
H4342 H 0.61174 0.99203 0.00974 0.0
H4343 H 0.70378 1.00198 0.00961 0.0
H4344 H 0.44471 1.0023 0.9792 0.0
H4345 H 0.66655 0.02585 0.97743 0.0
H4346 H 0.38829 1.0084 0.00728 0.0
H4347 H 0.45667 0.99483 0.00802 0.0
H4348 H 0.38189 0.99623 0.99648 0.0
H4349 H 0.65606 0.03815 1.00506 0.0
H4350 H 0.72947 0.03492 0.99365 0.0
H4351 H 0.72412 0.02455 1.00588 0.0
loop_
_geom_bond_atom_site_label_1
_geom_bond_atom_site_label_2
_geom_bond_distance
_geom_bond_site_symmetry_2
_ccdc_geom_bond_type
Nd0 C2 2.836 1_455 S
Nd0 O20 2.500 1_455 S
Nd0 O21 2.489 1_455 S
Nd0 O22 2.487 . S
Nd0 O23 2.682 . S
Nd0 O24 2.410 1_455 S
Nd0 O29 2.414 . S
Nd0 O31 2.424 . S
Nd1 C11 2.836 . S
Nd1 O23 2.414 . S
Nd1 O25 2.424 1_455 S
Nd1 O26 2.500 . S
Nd1 O27 2.492 . S
Nd1 O28 2.487 . S
Nd1 O29 2.682 . S
Nd1 O30 2.410 . S
C2 Nd0 2.836 1_655 S
C2 C3 1.498 . S
C2 O20 1.258 . S
C2 O21 1.242 . S
C3 C2 1.498 . S
C3 C4 1.366 . S
C3 C8 1.407 . S
C4 C3 1.366 . S
C4 C5 1.392 . S
C4 H32 0.930 . S
C5 C4 1.392 . S
C5 C6 1.398 . S
C5 H33 0.929 . S
C6 C5 1.398 . S
C6 C7 1.352 . S
C7 C6 1.352 . S
C7 C8 1.384 . S
C7 H34 0.930 . S
C8 C3 1.407 . S
C8 C7 1.384 . S
C8 H35 0.929 . S
C9 O22 1.241 . S
C9 O23 1.273 . S
C10 O24 1.251 . S
C10 O25 1.268 . S
C11 Nd1 2.836 . S
C11 C12 1.498 . S
C11 O26 1.258 . S
C11 O27 1.239 . S
C12 C11 1.498 . S
C12 C13 1.366 . S
C12 C17 1.407 . S
C13 C12 1.366 . S
C13 C14 1.392 . S
C13 H36 0.930 . S
C14 C13 1.392 . S
C14 C15 1.398 . S
C14 H37 0.929 . S
C15 C14 1.398 . S
C15 C16 1.352 . S
C16 C15 1.352 . S
C16 C17 1.384 . S
C16 H38 0.930 . S
C17 C12 1.407 . S
C17 C16 1.384 . S
C17 H39 0.929 . S
C18 O28 1.241 . S
C18 O29 1.273 . S
C19 O30 1.251 . S
C19 O31 1.268 . S
O20 Nd0 2.500 1_655 S
O20 C2 1.258 . S
O21 Nd0 2.489 1_655 S
O21 C2 1.242 . S
O22 Nd0 2.487 . S
O22 C9 1.241 . S
O23 Nd0 2.682 . S
O23 Nd1 2.414 . S
O23 C9 1.273 . S
O24 Nd0 2.410 1_655 S
O24 C10 1.251 . S
O25 Nd1 2.424 1_655 S
O25 C10 1.268 . S
O26 Nd1 2.500 . S
O26 C11 1.258 . S
O27 Nd1 2.492 . S
O27 C11 1.239 . S
O28 Nd1 2.487 . S
O28 C18 1.241 . S
O29 Nd0 2.414 . S
O29 Nd1 2.682 . S
O29 C18 1.273 . S
O30 Nd1 2.410 . S
O30 C19 1.251 . S
O31 Nd0 2.424 . S
O31 C19 1.268 . S
H32 C4 0.930 . S
H33 C5 0.929 . S
H34 C7 0.930 . S
H35 C8 0.929 . S
H36 C13 0.930 . S
H37 C14 0.929 . S
H38 C16 0.930 . S
H39 C17 0.929 . S
Nd40 C42 2.836 . S
Nd40 O60 2.500 . S
Nd40 O61 2.492 . S
Nd40 O62 2.487 . S
Nd40 O63 2.682 . S
Nd40 O64 2.410 . S
Nd40 O69 2.414 . S
Nd40 O71 2.424 . S
Nd41 C51 2.836 . S
Nd41 O63 2.414 . S
Nd41 O65 2.424 . S
Nd41 O66 2.500 . S
Nd41 O67 2.492 . S
Nd41 O68 2.487 . S
Nd41 O69 2.682 . S
Nd41 O70 2.410 . S
C42 Nd40 2.836 . S
C42 C43 1.498 . S
C42 O60 1.258 . S
C42 O61 1.239 . S
C43 C42 1.498 . S
C43 C44 1.366 . S
C43 C48 1.407 . S
C44 C43 1.366 . S
C44 C45 1.392 . S
C44 H72 0.930 . S
C45 C44 1.392 . S
C45 C46 1.398 . S
C45 H73 0.929 . S
C46 C45 1.398 . S
C46 C47 1.352 . S
C47 C46 1.352 . S
C47 C48 1.384 . S
C47 H74 0.930 . S
C48 C43 1.407 . S
C48 C47 1.384 . S
C48 H75 0.929 . S
C49 O62 1.241 . S
C49 O63 1.273 . S
C50 O64 1.251 . S
C50 O65 1.268 . S
C51 Nd41 2.836 . S
C51 C52 1.498 . S
C51 O66 1.258 . S
C51 O67 1.239 . S
C52 C51 1.498 . S
C52 C53 1.366 . S
C52 C57 1.407 . S
C53 C52 1.366 . S
C53 C54 1.392 . S
C53 H76 0.930 . S
C54 C53 1.392 . S
C54 C55 1.398 . S
C54 H77 0.929 1_455 S
C55 C54 1.398 . S
C55 C56 1.352 . S
C56 C55 1.352 . S
C56 C57 1.384 . S
C56 H78 0.930 . S
C57 C52 1.407 . S
C57 C56 1.384 . S
C57 H79 0.929 . S
C58 O68 1.241 . S
C58 O69 1.273 . S
C59 O70 1.251 . S
C59 O71 1.268 . S
O60 Nd40 2.500 . S
O60 C42 1.258 . S
O61 Nd40 2.492 . S
O61 C42 1.239 . S
O62 Nd40 2.487 . S
O62 C49 1.241 . S
O63 Nd40 2.682 . S
O63 Nd41 2.414 . S
O63 C49 1.273 . S
O64 Nd40 2.410 . S
O64 C50 1.251 . S
O65 Nd41 2.424 . S
O65 C50 1.268 . S
O66 Nd41 2.500 . S
O66 C51 1.258 . S
O67 Nd41 2.492 . S
O67 C51 1.239 . S
O68 Nd41 2.487 . S
O68 C58 1.241 . S
O69 Nd40 2.414 . S
O69 Nd41 2.682 . S
O69 C58 1.273 . S
O70 Nd41 2.410 . S
O70 C59 1.251 . S
O71 Nd40 2.424 . S
O71 C59 1.268 . S
H72 C44 0.930 . S
H73 C45 0.929 . S
H74 C47 0.930 . S
H75 C48 0.929 . S
H76 C53 0.930 . S
H77 C54 0.929 1_655 S
H78 C56 0.930 . S
H79 C57 0.929 . S
Nd80 C82 2.836 1_455 S
Nd80 O100 2.500 1_455 S
Nd80 O101 2.488 1_455 S
Nd80 O102 2.487 . S
Nd80 O103 2.682 . S
Nd80 O104 2.410 1_455 S
Nd80 O109 2.414 . S
Nd80 O111 2.424 . S
Nd81 C91 2.836 . S
Nd81 O103 2.414 . S
Nd81 O105 2.424 1_455 S
Nd81 O106 2.500 . S
Nd81 O107 2.492 . S
Nd81 O108 2.487 . S
Nd81 O109 2.682 . S
Nd81 O110 2.410 . S
C82 Nd80 2.836 1_655 S
C82 C83 1.498 . S
C82 O100 1.258 . S
C82 O101 1.243 . S
C83 C82 1.498 . S
C83 C84 1.366 . S
C83 C88 1.407 . S
C84 C83 1.366 . S
C84 C85 1.392 . S
C84 H112 0.930 . S
C85 C84 1.392 . S
C85 C86 1.398 . S
C85 H113 0.929 . S
C86 C85 1.398 . S
C86 C87 1.352 . S
C87 C86 1.352 . S
C87 C88 1.384 . S
C87 H114 0.930 . S
C88 C83 1.407 . S
C88 C87 1.384 . S
C88 H115 0.929 . S
C89 O102 1.241 . S
C89 O103 1.273 . S
C90 O104 1.251 . S
C90 O105 1.268 . S
C91 Nd81 2.836 . S
C91 C92 1.498 . S
C91 O106 1.258 . S
C91 O107 1.239 . S
C92 C91 1.498 . S
C92 C93 1.366 . S
C92 C97 1.407 . S
C93 C92 1.366 . S
C93 C94 1.392 . S
C93 H116 0.930 . S
C94 C93 1.392 . S
C94 C95 1.398 . S
C94 H117 0.929 . S
C95 C94 1.398 . S
C95 C96 1.352 . S
C96 C95 1.352 . S
C96 C97 1.384 . S
C96 H118 0.930 . S
C97 C92 1.407 . S
C97 C96 1.384 . S
C97 H119 0.929 . S
C98 O108 1.241 . S
C98 O109 1.273 . S
C99 O110 1.251 . S
C99 O111 1.268 . S
O100 Nd80 2.500 1_655 S
O100 C82 1.258 . S
O101 Nd80 2.488 1_655 S
O101 C82 1.243 . S
O102 Nd80 2.487 . S
O102 C89 1.241 . S
O103 Nd80 2.682 . S
O103 Nd81 2.414 . S
O103 C89 1.273 . S
O104 Nd80 2.410 1_655 S
O104 C90 1.251 . S
O105 Nd81 2.424 1_655 S
O105 C90 1.268 . S
O106 Nd81 2.500 . S
O106 C91 1.258 . S
O107 Nd81 2.492 . S
O107 C91 1.239 . S
O108 Nd81 2.487 . S
O108 C98 1.241 . S
O109 Nd80 2.414 . S
O109 Nd81 2.682 . S
O109 C98 1.273 . S
O110 Nd81 2.410 . S
O110 C99 1.251 . S
O111 Nd80 2.424 . S
O111 C99 1.268 . S
H112 C84 0.930 . S
H113 C85 0.929 . S
H114 C87 0.930 . S
H115 C88 0.929 . S
H116 C93 0.930 . S
H117 C94 0.929 . S
H118 C96 0.930 . S
H119 C97 0.929 . S
Nd120 C122 2.836 . S
Nd120 O140 2.500 . S
Nd120 O141 2.492 . S
Nd120 O142 2.487 . S
Nd120 O143 2.682 . S
Nd120 O144 2.410 . S
Nd120 O149 2.414 . S
Nd120 O151 2.424 . S
Nd121 C131 2.836 . S
Nd121 O143 2.414 . S
Nd121 O145 2.424 . S
Nd121 O146 2.500 . S
Nd121 O147 2.492 . S
Nd121 O148 2.487 . S
Nd121 O149 2.682 . S
Nd121 O150 2.410 . S
C122 Nd120 2.836 . S
C122 C123 1.498 . S
C122 O140 1.258 . S
C122 O141 1.239 . S
C123 C122 1.498 . S
C123 C124 1.366 . S
C123 C128 1.407 . S
C124 C123 1.366 . S
C124 C125 1.392 . S
C124 H152 0.930 . S
C125 C124 1.392 . S
C125 C126 1.398 . S
C125 H153 0.929 . S
C126 C125 1.398 . S
C126 C127 1.352 . S
C127 C126 1.352 . S
C127 C128 1.384 . S
C127 H154 0.930 . S
C128 C123 1.407 . S
C128 C127 1.384 . S
C128 H155 0.929 . S
C129 O142 1.241 . S
C129 O143 1.273 . S
C130 O144 1.251 . S
C130 O145 1.268 . S
C131 Nd121 2.836 . S
C131 C132 1.498 . S
C131 O146 1.258 . S
C131 O147 1.239 . S
C132 C131 1.498 . S
C132 C133 1.366 . S
C132 C137 1.407 . S
C133 C132 1.366 . S
C133 C134 1.392 . S
C133 H156 0.930 . S
C134 C133 1.392 . S
C134 C135 1.398 . S
C134 H157 0.929 1_455 S
C135 C134 1.398 . S
C135 C136 1.352 . S
C136 C135 1.352 . S
C136 C137 1.384 . S
C136 H158 0.930 . S
C137 C132 1.407 . S
C137 C136 1.384 . S
C137 H159 0.929 . S
C138 O148 1.241 . S
C138 O149 1.273 . S
C139 O150 1.251 . S
C139 O151 1.268 . S
O140 Nd120 2.500 . S
O140 C122 1.258 . S
O141 Nd120 2.492 . S
O141 C122 1.239 . S
O142 Nd120 2.487 . S
O142 C129 1.241 . S
O143 Nd120 2.682 . S
O143 Nd121 2.414 . S
O143 C129 1.273 . S
O144 Nd120 2.410 . S
O144 C130 1.251 . S
O145 Nd121 2.424 . S
O145 C130 1.268 . S
O146 Nd121 2.500 . S
O146 C131 1.258 . S
O147 Nd121 2.492 . S
O147 C131 1.239 . S
O148 Nd121 2.487 . S
O148 C138 1.241 . S
O149 Nd120 2.414 . S
O149 Nd121 2.682 . S
O149 C138 1.273 . S
O150 Nd121 2.410 . S
O150 C139 1.251 . S
O151 Nd120 2.424 . S
O151 C139 1.268 . S
H152 C124 0.930 . S
H153 C125 0.929 . S
H154 C127 0.930 . S
H155 C128 0.929 . S
H156 C133 0.930 . S
H157 C134 0.929 1_655 S
H158 C136 0.930 . S
H159 C137 0.929 . S
Nd160 C162 2.836 . S
Nd160 O180 2.500 . S
Nd160 O181 2.492 . S
Nd160 O182 2.487 . S
Nd160 O183 2.682 . S
Nd160 O184 2.410 . S
Nd160 O189 2.414 . S
Nd160 O191 2.424 1_655 S
Nd161 C171 2.836 1_655 S
Nd161 O183 2.414 . S
Nd161 O185 2.424 . S
Nd161 O186 2.500 1_655 S
Nd161 O187 2.489 1_655 S
Nd161 O188 2.487 . S
Nd161 O189 2.682 . S
Nd161 O190 2.410 1_655 S
C162 Nd160 2.836 . S
C162 C163 1.498 . S
C162 O180 1.258 . S
C162 O181 1.239 . S
C163 C162 1.498 . S
C163 C164 1.366 . S
C163 C168 1.407 . S
C164 C163 1.366 . S
C164 C165 1.392 . S
C164 H192 0.930 . S
C165 C164 1.392 . S
C165 C166 1.398 . S
C165 H193 0.929 . S
C166 C165 1.398 . S
C166 C167 1.352 . S
C167 C166 1.352 . S
C167 C168 1.384 . S
C167 H194 0.930 . S
C168 C163 1.407 . S
C168 C167 1.384 . S
C168 H195 0.929 . S
C169 O182 1.241 . S
C169 O183 1.273 . S
C170 O184 1.251 . S
C170 O185 1.268 . S
C171 Nd161 2.836 1_455 S
C171 C172 1.498 . S
C171 O186 1.258 . S
C171 O187 1.242 . S
C172 C171 1.498 . S
C172 C173 1.366 . S
C172 C177 1.407 . S
C173 C172 1.366 . S
C173 C174 1.392 . S
C173 H196 0.930 . S
C174 C173 1.392 . S
C174 C175 1.398 . S
C174 H197 0.929 . S
C175 C174 1.398 . S
C175 C176 1.352 . S
C176 C175 1.352 . S
C176 C177 1.384 . S
C176 H198 0.930 . S
C177 C172 1.407 . S
C177 C176 1.384 . S
C177 H199 0.929 . S
C178 O188 1.241 . S
C178 O189 1.273 . S
C179 O190 1.251 . S
C179 O191 1.268 . S
O180 Nd160 2.500 . S
O180 C162 1.258 . S
O181 Nd160 2.492 . S
O181 C162 1.239 . S
O182 Nd160 2.487 . S
O182 C169 1.241 . S
O183 Nd160 2.682 . S
O183 Nd161 2.414 . S
O183 C169 1.273 . S
O184 Nd160 2.410 . S
O184 C170 1.251 . S
O185 Nd161 2.424 . S
O185 C170 1.268 . S
O186 Nd161 2.500 1_455 S
O186 C171 1.258 . S
O187 Nd161 2.489 1_455 S
O187 C171 1.242 . S
O188 Nd161 2.487 . S
O188 C178 1.241 . S
O189 Nd160 2.414 . S
O189 Nd161 2.682 . S
O189 C178 1.273 . S
O190 Nd161 2.410 1_455 S
O190 C179 1.251 . S
O191 Nd160 2.424 1_455 S
O191 C179 1.268 . S
H192 C164 0.930 . S
H193 C165 0.929 . S
H194 C167 0.930 . S
H195 C168 0.929 . S
H196 C173 0.930 . S
H197 C174 0.929 . S
H198 C176 0.930 . S
H199 C177 0.929 . S
Nd200 C202 2.836 . S
Nd200 O220 2.500 . S
Nd200 O221 2.492 . S
Nd200 O222 2.487 . S
Nd200 O223 2.682 . S
Nd200 O224 2.410 . S
Nd200 O229 2.414 . S
Nd200 O231 2.424 . S
Nd201 C211 2.836 . S
Nd201 O223 2.414 . S
Nd201 O225 2.424 . S
Nd201 O226 2.500 . S
Nd201 O227 2.492 . S
Nd201 O228 2.487 . S
Nd201 O229 2.682 . S
Nd201 O230 2.410 . S
C202 Nd200 2.836 . S
C202 C203 1.498 . S
C202 O220 1.258 . S
C202 O221 1.239 . S
C203 C202 1.498 . S
C203 C204 1.366 . S
C203 C208 1.407 . S
C204 C203 1.366 . S
C204 C205 1.392 . S
C204 H232 0.930 . S
C205 C204 1.392 . S
C205 C206 1.398 . S
C205 H233 0.929 1_655 S
C206 C205 1.398 . S
C206 C207 1.352 . S
C207 C206 1.352 . S
C207 C208 1.384 . S
C207 H234 0.930 . S
C208 C203 1.407 . S
C208 C207 1.384 . S
C208 H235 0.929 . S
C209 O222 1.241 . S
C209 O223 1.273 . S
C210 O224 1.251 . S
C210 O225 1.268 . S
C211 Nd201 2.836 . S
C211 C212 1.498 . S
C211 O226 1.258 . S
C211 O227 1.239 . S
C212 C211 1.498 . S
C212 C213 1.366 . S
C212 C217 1.407 . S
C213 C212 1.366 . S
C213 C214 1.392 . S
C213 H236 0.930 . S
C214 C213 1.392 . S
C214 C215 1.398 . S
C214 H237 0.929 . S
C215 C214 1.398 . S
C215 C216 1.352 . S
C216 C215 1.352 . S
C216 C217 1.384 . S
C216 H238 0.930 . S
C217 C212 1.407 . S
C217 C216 1.384 . S
C217 H239 0.929 . S
C218 O228 1.241 . S
C218 O229 1.273 . S
C219 O230 1.251 . S
C219 O231 1.268 . S
O220 Nd200 2.500 . S
O220 C202 1.258 . S
O221 Nd200 2.492 . S
O221 C202 1.239 . S
O222 Nd200 2.487 . S
O222 C209 1.241 . S
O223 Nd200 2.682 . S
O223 Nd201 2.414 . S
O223 C209 1.273 . S
O224 Nd200 2.410 . S
O224 C210 1.251 . S
O225 Nd201 2.424 . S
O225 C210 1.268 . S
O226 Nd201 2.500 . S
O226 C211 1.258 . S
O227 Nd201 2.492 . S
O227 C211 1.239 . S
O228 Nd201 2.487 . S
O228 C218 1.241 . S
O229 Nd200 2.414 . S
O229 Nd201 2.682 . S
O229 C218 1.273 . S
O230 Nd201 2.410 . S
O230 C219 1.251 . S
O231 Nd200 2.424 . S
O231 C219 1.268 . S
H232 C204 0.930 . S
H233 C205 0.929 1_455 S
H234 C207 0.930 . S
H235 C208 0.929 . S
H236 C213 0.930 . S
H237 C214 0.929 . S
H238 C216 0.930 . S
H239 C217 0.929 . S
Nd240 C242 2.836 . S
Nd240 O260 2.500 . S
Nd240 O261 2.492 . S
Nd240 O262 2.487 . S
Nd240 O263 2.682 . S
Nd240 O264 2.410 . S
Nd240 O269 2.414 . S
Nd240 O271 2.424 1_655 S
Nd241 C251 2.836 1_655 S
Nd241 O263 2.414 . S
Nd241 O265 2.424 . S
Nd241 O266 2.500 1_655 S
Nd241 O267 2.488 1_655 S
Nd241 O268 2.487 . S
Nd241 O269 2.682 . S
Nd241 O270 2.410 1_655 S
C242 Nd240 2.836 . S
C242 C243 1.498 . S
C242 O260 1.258 . S
C242 O261 1.239 . S
C243 C242 1.498 . S
C243 C244 1.366 . S
C243 C248 1.407 . S
C244 C243 1.366 . S
C244 C245 1.392 . S
C244 H272 0.930 . S
C245 C244 1.392 . S
C245 C246 1.398 . S
C245 H273 0.929 . S
C246 C245 1.398 . S
C246 C247 1.352 . S
C247 C246 1.352 . S
C247 C248 1.384 . S
C247 H274 0.930 . S
C248 C243 1.407 . S
C248 C247 1.384 . S
C248 H275 0.929 . S
C249 O262 1.241 . S
C249 O263 1.273 . S
C250 O264 1.251 . S
C250 O265 1.268 . S
C251 Nd241 2.836 1_455 S
C251 C252 1.498 . S
C251 O266 1.258 . S
C251 O267 1.243 . S
C252 C251 1.498 . S
C252 C253 1.366 . S
C252 C257 1.407 . S
C253 C252 1.366 . S
C253 C254 1.392 . S
C253 H276 0.930 . S
C254 C253 1.392 . S
C254 C255 1.398 . S
C254 H277 0.929 . S
C255 C254 1.398 . S
C255 C256 1.352 . S
C256 C255 1.352 . S
C256 C257 1.384 . S
C256 H278 0.930 . S
C257 C252 1.407 . S
C257 C256 1.384 . S
C257 H279 0.929 . S
C258 O268 1.241 . S
C258 O269 1.273 . S
C259 O270 1.251 . S
C259 O271 1.268 . S
O260 Nd240 2.500 . S
O260 C242 1.258 . S
O261 Nd240 2.492 . S
O261 C242 1.239 . S
O262 Nd240 2.487 . S
O262 C249 1.241 . S
O263 Nd240 2.682 . S
O263 Nd241 2.414 . S
O263 C249 1.273 . S
O264 Nd240 2.410 . S
O264 C250 1.251 . S
O265 Nd241 2.424 . S
O265 C250 1.268 . S
O266 Nd241 2.500 1_455 S
O266 C251 1.258 . S
O267 Nd241 2.488 1_455 S
O267 C251 1.243 . S
O268 Nd241 2.487 . S
O268 C258 1.241 . S
O269 Nd240 2.414 . S
O269 Nd241 2.682 . S
O269 C258 1.273 . S
O270 Nd241 2.410 1_455 S
O270 C259 1.251 . S
O271 Nd240 2.424 1_455 S
O271 C259 1.268 . S
H272 C244 0.930 . S
H273 C245 0.929 . S
H274 C247 0.930 . S
H275 C248 0.929 . S
H276 C253 0.930 . S
H277 C254 0.929 . S
H278 C256 0.930 . S
H279 C257 0.929 . S
Nd280 C282 2.836 . S
Nd280 O300 2.500 . S
Nd280 O301 2.492 . S
Nd280 O302 2.487 . S
Nd280 O303 2.682 . S
Nd280 O304 2.410 . S
Nd280 O309 2.414 . S
Nd280 O311 2.424 . S
Nd281 C291 2.836 . S
Nd281 O303 2.414 . S
Nd281 O305 2.424 . S
Nd281 O306 2.500 . S
Nd281 O307 2.492 . S
Nd281 O308 2.487 . S
Nd281 O309 2.682 . S
Nd281 O310 2.410 . S
C282 Nd280 2.836 . S
C282 C283 1.498 . S
C282 O300 1.258 . S
C282 O301 1.239 . S
C283 C282 1.498 . S
C283 C284 1.366 . S
C283 C288 1.407 . S
C284 C283 1.366 . S
C284 C285 1.392 . S
C284 H312 0.930 . S
C285 C284 1.392 . S
C285 C286 1.398 . S
C285 H313 0.929 1_655 S
C286 C285 1.398 . S
C286 C287 1.352 . S
C287 C286 1.352 . S
C287 C288 1.384 . S
C287 H314 0.930 . S
C288 C283 1.407 . S
C288 C287 1.384 . S
C288 H315 0.929 . S
C289 O302 1.241 . S
C289 O303 1.273 . S
C290 O304 1.251 . S
C290 O305 1.268 . S
C291 Nd281 2.836 . S
C291 C292 1.498 . S
C291 O306 1.258 . S
C291 O307 1.239 . S
C292 C291 1.498 . S
C292 C293 1.366 . S
C292 C297 1.407 . S
C293 C292 1.366 . S
C293 C294 1.392 . S
C293 H316 0.930 . S
C294 C293 1.392 . S
C294 C295 1.398 . S
C294 H317 0.929 . S
C295 C294 1.398 . S
C295 C296 1.352 . S
C296 C295 1.352 . S
C296 C297 1.384 . S
C296 H318 0.930 . S
C297 C292 1.407 . S
C297 C296 1.384 . S
C297 H319 0.929 . S
C298 O308 1.241 . S
C298 O309 1.273 . S
C299 O310 1.251 . S
C299 O311 1.268 . S
O300 Nd280 2.500 . S
O300 C282 1.258 . S
O301 Nd280 2.492 . S
O301 C282 1.239 . S
O302 Nd280 2.487 . S
O302 C289 1.241 . S
O303 Nd280 2.682 . S
O303 Nd281 2.414 . S
O303 C289 1.273 . S
O304 Nd280 2.410 . S
O304 C290 1.251 . S
O305 Nd281 2.424 . S
O305 C290 1.268 . S
O306 Nd281 2.500 . S
O306 C291 1.258 . S
O307 Nd281 2.492 . S
O307 C291 1.239 . S
O308 Nd281 2.487 . S
O308 C298 1.241 . S
O309 Nd280 2.414 . S
O309 Nd281 2.682 . S
O309 C298 1.273 . S
O310 Nd281 2.410 . S
O310 C299 1.251 . S
O311 Nd280 2.424 . S
O311 C299 1.268 . S
H312 C284 0.930 . S
H313 C285 0.929 1_455 S
H314 C287 0.930 . S
H315 C288 0.929 . S
H316 C293 0.930 . S
H317 C294 0.929 . S
H318 C296 0.930 . S
H319 C297 0.929 . S
Nd320 C322 2.836 1_455 S
Nd320 O340 2.500 1_455 S
Nd320 O341 2.496 . S
Nd320 O342 2.487 . S
Nd320 O343 2.682 1_565 S
Nd320 O344 2.410 1_455 S
Nd320 O349 2.414 . S
Nd320 O351 2.424 . S
Nd321 C331 2.836 . S
Nd321 O343 2.414 . S
Nd321 O345 2.424 1_455 S
Nd321 O346 2.500 . S
Nd321 O347 2.492 . S
Nd321 O348 2.487 . S
Nd321 O349 2.682 1_545 S
Nd321 O350 2.410 . S
C322 Nd320 2.836 1_655 S
C322 C323 1.498 . S
C322 O340 1.258 . S
C322 O341 1.235 1_655 S
C323 C322 1.498 . S
C323 C324 1.366 . S
C323 C328 1.407 . S
C324 C323 1.366 . S
C324 C325 1.392 . S
C324 H352 0.930 . S
C325 C324 1.392 . S
C325 C326 1.398 . S
C325 H353 0.929 . S
C326 C325 1.398 . S
C326 C327 1.352 . S
C327 C326 1.352 . S
C327 C328 1.384 . S
C327 H354 0.930 . S
C328 C323 1.407 . S
C328 C327 1.384 . S
C328 H355 0.929 . S
C329 O342 1.241 . S
C329 O343 1.273 1_565 S
C330 O344 1.251 . S
C330 O345 1.268 1_565 S
C331 Nd321 2.836 . S
C331 C332 1.498 . S
C331 O346 1.258 . S
C331 O347 1.239 . S
C332 C331 1.498 . S
C332 C333 1.366 . S
C332 C337 1.407 . S
C333 C332 1.366 . S
C333 C334 1.392 . S
C333 H356 0.930 . S
C334 C333 1.392 . S
C334 C335 1.398 . S
C334 H357 0.929 . S
C335 C334 1.398 . S
C335 C336 1.352 . S
C336 C335 1.352 . S
C336 C337 1.384 . S
C336 H358 0.930 . S
C337 C332 1.407 . S
C337 C336 1.384 . S
C337 H359 0.929 . S
C338 O348 1.241 . S
C338 O349 1.273 1_545 S
C339 O350 1.251 . S
C339 O351 1.268 1_545 S
O340 Nd320 2.500 1_655 S
O340 C322 1.258 . S
O341 Nd320 2.496 . S
O341 C322 1.235 1_455 S
O342 Nd320 2.487 . S
O342 C329 1.241 . S
O343 Nd320 2.682 1_545 S
O343 Nd321 2.414 . S
O343 C329 1.273 1_545 S
O344 Nd320 2.410 1_655 S
O344 C330 1.251 . S
O345 Nd321 2.424 1_655 S
O345 C330 1.268 1_545 S
O346 Nd321 2.500 . S
O346 C331 1.258 . S
O347 Nd321 2.492 . S
O347 C331 1.239 . S
O348 Nd321 2.487 . S
O348 C338 1.241 . S
O349 Nd320 2.414 . S
O349 Nd321 2.682 1_565 S
O349 C338 1.273 1_565 S
O350 Nd321 2.410 . S
O350 C339 1.251 . S
O351 Nd320 2.424 . S
O351 C339 1.268 1_565 S
H352 C324 0.930 . S
H353 C325 0.929 . S
H354 C327 0.930 . S
H355 C328 0.929 . S
H356 C333 0.930 . S
H357 C334 0.929 . S
H358 C336 0.930 . S
H359 C337 0.929 . S
Nd360 C362 2.836 . S
Nd360 O380 2.500 . S
Nd360 O381 2.492 . S
Nd360 O382 2.487 . S
Nd360 O383 2.682 . S
Nd360 O384 2.410 . S
Nd360 O389 2.414 . S
Nd360 O391 2.424 . S
Nd361 C371 2.836 . S
Nd361 O383 2.414 . S
Nd361 O385 2.424 . S
Nd361 O386 2.500 . S
Nd361 O387 2.492 . S
Nd361 O388 2.487 . S
Nd361 O389 2.682 . S
Nd361 O390 2.410 . S
C362 Nd360 2.836 . S
C362 C363 1.498 . S
C362 O380 1.258 . S
C362 O381 1.239 . S
C363 C362 1.498 . S
C363 C364 1.366 . S
C363 C368 1.407 . S
C364 C363 1.366 . S
C364 C365 1.392 . S
C364 H392 0.930 . S
C365 C364 1.392 . S
C365 C366 1.398 . S
C365 H393 0.929 . S
C366 C365 1.398 . S
C366 C367 1.352 . S
C367 C366 1.352 . S
C367 C368 1.384 . S
C367 H394 0.930 . S
C368 C363 1.407 . S
C368 C367 1.384 . S
C368 H395 0.929 . S
C369 O382 1.241 . S
C369 O383 1.273 . S
C370 O384 1.251 . S
C370 O385 1.268 . S
C371 Nd361 2.836 . S
C371 C372 1.498 . S
C371 O386 1.258 . S
C371 O387 1.239 . S
C372 C371 1.498 . S
C372 C373 1.366 . S
C372 C377 1.407 . S
C373 C372 1.366 . S
C373 C374 1.392 . S
C373 H396 0.930 . S
C374 C373 1.392 . S
C374 C375 1.398 . S
C374 H397 0.929 1_455 S
C375 C374 1.398 . S
C375 C376 1.352 . S
C376 C375 1.352 . S
C376 C377 1.384 . S
C376 H398 0.930 . S
C377 C372 1.407 . S
C377 C376 1.384 . S
C377 H399 0.929 . S
C378 O388 1.241 . S
C378 O389 1.273 . S
C379 O390 1.251 . S
C379 O391 1.268 . S
O380 Nd360 2.500 . S
O380 C362 1.258 . S
O381 Nd360 2.492 . S
O381 C362 1.239 . S
O382 Nd360 2.487 . S
O382 C369 1.241 . S
O383 Nd360 2.682 . S
O383 Nd361 2.414 . S
O383 C369 1.273 . S
O384 Nd360 2.410 . S
O384 C370 1.251 . S
O385 Nd361 2.424 . S
O385 C370 1.268 . S
O386 Nd361 2.500 . S
O386 C371 1.258 . S
O387 Nd361 2.492 . S
O387 C371 1.239 . S
O388 Nd361 2.487 . S
O388 C378 1.241 . S
O389 Nd360 2.414 . S
O389 Nd361 2.682 . S
O389 C378 1.273 . S
O390 Nd361 2.410 . S
O390 C379 1.251 . S
O391 Nd360 2.424 . S
O391 C379 1.268 . S
H392 C364 0.930 . S
H393 C365 0.929 . S
H394 C367 0.930 . S
H395 C368 0.929 . S
H396 C373 0.930 . S
H397 C374 0.929 1_655 S
H398 C376 0.930 . S
H399 C377 0.929 . S
Nd400 C402 2.836 1_455 S
Nd400 O420 2.500 1_455 S
Nd400 O421 2.487 1_455 S
Nd400 O422 2.487 . S
Nd400 O423 2.682 . S
Nd400 O424 2.410 1_455 S
Nd400 O429 2.414 . S
Nd400 O431 2.424 . S
Nd401 C411 2.836 . S
Nd401 O423 2.414 . S
Nd401 O425 2.424 1_455 S
Nd401 O426 2.500 . S
Nd401 O427 2.492 . S
Nd401 O428 2.487 . S
Nd401 O429 2.682 . S
Nd401 O430 2.410 . S
C402 Nd400 2.836 1_655 S
C402 C403 1.498 . S
C402 O420 1.258 . S
C402 O421 1.244 . S
C403 C402 1.498 . S
C403 C404 1.366 . S
C403 C408 1.407 . S
C404 C403 1.366 . S
C404 C405 1.392 . S
C404 H432 0.930 . S
C405 C404 1.392 . S
C405 C406 1.398 . S
C405 H433 0.929 . S
C406 C405 1.398 . S
C406 C407 1.352 . S
C407 C406 1.352 . S
C407 C408 1.384 . S
C407 H434 0.930 . S
C408 C403 1.407 . S
C408 C407 1.384 . S
C408 H435 0.929 . S
C409 O422 1.241 . S
C409 O423 1.273 . S
C410 O424 1.251 . S
C410 O425 1.268 . S
C411 Nd401 2.836 . S
C411 C412 1.498 . S
C411 O426 1.258 . S
C411 O427 1.239 . S
C412 C411 1.498 . S
C412 C413 1.366 . S
C412 C417 1.407 . S
C413 C412 1.366 . S
C413 C414 1.392 . S
C413 H436 0.930 . S
C414 C413 1.392 . S
C414 C415 1.398 . S
C414 H437 0.929 . S
C415 C414 1.398 . S
C415 C416 1.352 . S
C416 C415 1.352 . S
C416 C417 1.384 . S
C416 H438 0.930 . S
C417 C412 1.407 . S
C417 C416 1.384 . S
C417 H439 0.929 . S
C418 O428 1.241 . S
C418 O429 1.273 . S
C419 O430 1.251 . S
C419 O431 1.268 . S
O420 Nd400 2.500 1_655 S
O420 C402 1.258 . S
O421 Nd400 2.487 1_655 S
O421 C402 1.244 . S
O422 Nd400 2.487 . S
O422 C409 1.241 . S
O423 Nd400 2.682 . S
O423 Nd401 2.414 . S
O423 C409 1.273 . S
O424 Nd400 2.410 1_655 S
O424 C410 1.251 . S
O425 Nd401 2.424 1_655 S
O425 C410 1.268 . S
O426 Nd401 2.500 . S
O426 C411 1.258 . S
O427 Nd401 2.492 . S
O427 C411 1.239 . S
O428 Nd401 2.487 . S
O428 C418 1.241 . S
O429 Nd400 2.414 . S
O429 Nd401 2.682 . S
O429 C418 1.273 . S
O430 Nd401 2.410 . S
O430 C419 1.251 . S
O431 Nd400 2.424 . S
O431 C419 1.268 . S
H432 C404 0.930 . S
H433 C405 0.929 . S
H434 C407 0.930 . S
H435 C408 0.929 . S
H436 C413 0.930 . S
H437 C414 0.929 . S
H438 C416 0.930 . S
H439 C417 0.929 . S
Nd440 C442 2.836 . S
Nd440 O460 2.500 . S
Nd440 O461 2.492 . S
Nd440 O462 2.487 . S
Nd440 O463 2.682 1_565 S
Nd440 O464 2.410 . S
Nd440 O469 2.414 . S
Nd440 O471 2.424 . S
Nd441 C451 2.836 . S
Nd441 O463 2.414 . S
Nd441 O465 2.424 . S
Nd441 O466 2.500 . S
Nd441 O467 2.492 . S
Nd441 O468 2.487 . S
Nd441 O469 2.682 1_545 S
Nd441 O470 2.410 . S
C442 Nd440 2.836 . S
C442 C443 1.498 . S
C442 O460 1.258 . S
C442 O461 1.239 . S
C443 C442 1.498 . S
C443 C444 1.366 . S
C443 C448 1.407 . S
C444 C443 1.366 . S
C444 C445 1.392 . S
C444 H472 0.930 . S
C445 C444 1.392 . S
C445 C446 1.398 . S
C445 H473 0.929 . S
C446 C445 1.398 . S
C446 C447 1.352 . S
C447 C446 1.352 . S
C447 C448 1.384 . S
C447 H474 0.930 . S
C448 C443 1.407 . S
C448 C447 1.384 . S
C448 H475 0.929 . S
C449 O462 1.241 . S
C449 O463 1.273 1_565 S
C450 O464 1.251 . S
C450 O465 1.268 1_565 S
C451 Nd441 2.836 . S
C451 C452 1.498 . S
C451 O466 1.258 . S
C451 O467 1.239 . S
C452 C451 1.498 . S
C452 C453 1.366 . S
C452 C457 1.407 . S
C453 C452 1.366 . S
C453 C454 1.392 . S
C453 H476 0.930 . S
C454 C453 1.392 . S
C454 C455 1.398 . S
C454 H477 0.929 1_455 S
C455 C454 1.398 . S
C455 C456 1.352 . S
C456 C455 1.352 . S
C456 C457 1.384 . S
C456 H478 0.930 . S
C457 C452 1.407 . S
C457 C456 1.384 . S
C457 H479 0.929 . S
C458 O468 1.241 . S
C458 O469 1.273 1_545 S
C459 O470 1.251 . S
C459 O471 1.268 1_545 S
O460 Nd440 2.500 . S
O460 C442 1.258 . S
O461 Nd440 2.492 . S
O461 C442 1.239 . S
O462 Nd440 2.487 . S
O462 C449 1.241 . S
O463 Nd440 2.682 1_545 S
O463 Nd441 2.414 . S
O463 C449 1.273 1_545 S
O464 Nd440 2.410 . S
O464 C450 1.251 . S
O465 Nd441 2.424 . S
O465 C450 1.268 1_545 S
O466 Nd441 2.500 . S
O466 C451 1.258 . S
O467 Nd441 2.492 . S
O467 C451 1.239 . S
O468 Nd441 2.487 . S
O468 C458 1.241 . S
O469 Nd440 2.414 . S
O469 Nd441 2.682 1_565 S
O469 C458 1.273 1_565 S
O470 Nd441 2.410 . S
O470 C459 1.251 . S
O471 Nd440 2.424 . S
O471 C459 1.268 1_565 S
H472 C444 0.930 . S
H473 C445 0.929 . S
H474 C447 0.930 . S
H475 C448 0.929 . S
H476 C453 0.930 . S
H477 C454 0.929 1_655 S
H478 C456 0.930 . S
H479 C457 0.929 . S
Nd480 C482 2.836 . S
Nd480 O500 2.500 . S
Nd480 O501 2.492 . S
Nd480 O502 2.487 . S
Nd480 O503 2.682 1_565 S
Nd480 O504 2.410 . S
Nd480 O509 2.414 . S
Nd480 O511 2.424 1_655 S
Nd481 C491 2.836 1_655 S
Nd481 O503 2.414 . S
Nd481 O505 2.424 . S
Nd481 O506 2.500 1_655 S
Nd481 O507 2.496 . S
Nd481 O508 2.487 . S
Nd481 O509 2.682 1_545 S
Nd481 O510 2.410 1_655 S
C482 Nd480 2.836 . S
C482 C483 1.498 . S
C482 O500 1.258 . S
C482 O501 1.239 . S
C483 C482 1.498 . S
C483 C484 1.366 . S
C483 C488 1.407 . S
C484 C483 1.366 . S
C484 C485 1.392 . S
C484 H512 0.930 . S
C485 C484 1.392 . S
C485 C486 1.398 . S
C485 H513 0.929 . S
C486 C485 1.398 . S
C486 C487 1.352 . S
C487 C486 1.352 . S
C487 C488 1.384 . S
C487 H514 0.930 . S
C488 C483 1.407 . S
C488 C487 1.384 . S
C488 H515 0.929 . S
C489 O502 1.241 . S
C489 O503 1.273 1_565 S
C490 O504 1.251 . S
C490 O505 1.268 1_565 S
C491 Nd481 2.836 1_455 S
C491 C492 1.498 . S
C491 O506 1.258 . S
C491 O507 1.235 1_455 S
C492 C491 1.498 . S
C492 C493 1.366 . S
C492 C497 1.407 . S
C493 C492 1.366 . S
C493 C494 1.392 . S
C493 H516 0.930 . S
C494 C493 1.392 . S
C494 C495 1.398 . S
C494 H517 0.929 . S
C495 C494 1.398 . S
C495 C496 1.352 . S
C496 C495 1.352 . S
C496 C497 1.384 . S
C496 H518 0.930 . S
C497 C492 1.407 . S
C497 C496 1.384 . S
C497 H519 0.929 . S
C498 O508 1.241 . S
C498 O509 1.273 1_545 S
C499 O510 1.251 . S
C499 O511 1.268 1_545 S
O500 Nd480 2.500 . S
O500 C482 1.258 . S
O501 Nd480 2.492 . S
O501 C482 1.239 . S
O502 Nd480 2.487 . S
O502 C489 1.241 . S
O503 Nd480 2.682 1_545 S
O503 Nd481 2.414 . S
O503 C489 1.273 1_545 S
O504 Nd480 2.410 . S
O504 C490 1.251 . S
O505 Nd481 2.424 . S
O505 C490 1.268 1_545 S
O506 Nd481 2.500 1_455 S
O506 C491 1.258 . S
O507 Nd481 2.496 . S
O507 C491 1.235 1_655 S
O508 Nd481 2.487 . S
O508 C498 1.241 . S
O509 Nd480 2.414 . S
O509 Nd481 2.682 1_565 S
O509 C498 1.273 1_565 S
O510 Nd481 2.410 1_455 S
O510 C499 1.251 . S
O511 Nd480 2.424 1_455 S
O511 C499 1.268 1_565 S
H512 C484 0.930 . S
H513 C485 0.929 . S
H514 C487 0.930 . S
H515 C488 0.929 . S
H516 C493 0.930 . S
H517 C494 0.929 . S
H518 C496 0.930 . S
H519 C497 0.929 . S
Nd520 C522 2.836 . S
Nd520 O540 2.500 . S
Nd520 O541 2.492 . S
Nd520 O542 2.487 . S
Nd520 O543 2.682 . S
Nd520 O544 2.410 . S
Nd520 O549 2.414 . S
Nd520 O551 2.424 . S
Nd521 C531 2.836 . S
Nd521 O543 2.414 . S
Nd521 O545 2.424 . S
Nd521 O546 2.500 . S
Nd521 O547 2.492 . S
Nd521 O548 2.487 . S
Nd521 O549 2.682 . S
Nd521 O550 2.410 . S
C522 Nd520 2.836 . S
C522 C523 1.498 . S
C522 O540 1.258 . S
C522 O541 1.239 . S
C523 C522 1.498 . S
C523 C524 1.366 . S
C523 C528 1.407 . S
C524 C523 1.366 . S
C524 C525 1.392 . S
C524 H552 0.930 . S
C525 C524 1.392 . S
C525 C526 1.398 . S
C525 H553 0.929 1_655 S
C526 C525 1.398 . S
C526 C527 1.352 . S
C527 C526 1.352 . S
C527 C528 1.384 . S
C527 H554 0.930 . S
C528 C523 1.407 . S
C528 C527 1.384 . S
C528 H555 0.929 . S
C529 O542 1.241 . S
C529 O543 1.273 . S
C530 O544 1.251 . S
C530 O545 1.268 . S
C531 Nd521 2.836 . S
C531 C532 1.498 . S
C531 O546 1.258 . S
C531 O547 1.239 . S
C532 C531 1.498 . S
C532 C533 1.366 . S
C532 C537 1.407 . S
C533 C532 1.366 . S
C533 C534 1.392 . S
C533 H556 0.930 . S
C534 C533 1.392 . S
C534 C535 1.398 . S
C534 H557 0.929 . S
C535 C534 1.398 . S
C535 C536 1.352 . S
C536 C535 1.352 . S
C536 C537 1.384 . S
C536 H558 0.930 . S
C537 C532 1.407 . S
C537 C536 1.384 . S
C537 H559 0.929 . S
C538 O548 1.241 . S
C538 O549 1.273 . S
C539 O550 1.251 . S
C539 O551 1.268 . S
O540 Nd520 2.500 . S
O540 C522 1.258 . S
O541 Nd520 2.492 . S
O541 C522 1.239 . S
O542 Nd520 2.487 . S
O542 C529 1.241 . S
O543 Nd520 2.682 . S
O543 Nd521 2.414 . S
O543 C529 1.273 . S
O544 Nd520 2.410 . S
O544 C530 1.251 . S
O545 Nd521 2.424 . S
O545 C530 1.268 . S
O546 Nd521 2.500 . S
O546 C531 1.258 . S
O547 Nd521 2.492 . S
O547 C531 1.239 . S
O548 Nd521 2.487 . S
O548 C538 1.241 . S
O549 Nd520 2.414 . S
O549 Nd521 2.682 . S
O549 C538 1.273 . S
O550 Nd521 2.410 . S
O550 C539 1.251 . S
O551 Nd520 2.424 . S
O551 C539 1.268 . S
H552 C524 0.930 . S
H553 C525 0.929 1_455 S
H554 C527 0.930 . S
H555 C528 0.929 . S
H556 C533 0.930 . S
H557 C534 0.929 . S
H558 C536 0.930 . S
H559 C537 0.929 . S
Nd560 C562 2.836 . S
Nd560 O580 2.500 . S
Nd560 O581 2.492 . S
Nd560 O582 2.487 . S
Nd560 O583 2.682 . S
Nd560 O584 2.410 . S
Nd560 O589 2.414 . S
Nd560 O591 2.424 1_655 S
Nd561 C571 2.836 1_655 S
Nd561 O583 2.414 . S
Nd561 O585 2.424 . S
Nd561 O586 2.500 1_655 S
Nd561 O587 2.487 1_655 S
Nd561 O588 2.487 . S
Nd561 O589 2.682 . S
Nd561 O590 2.410 1_655 S
C562 Nd560 2.836 . S
C562 C563 1.498 . S
C562 O580 1.258 . S
C562 O581 1.239 . S
C563 C562 1.498 . S
C563 C564 1.366 . S
C563 C568 1.407 . S
C564 C563 1.366 . S
C564 C565 1.392 . S
C564 H592 0.930 . S
C565 C564 1.392 . S
C565 C566 1.398 . S
C565 H593 0.929 . S
C566 C565 1.398 . S
C566 C567 1.352 . S
C567 C566 1.352 . S
C567 C568 1.384 . S
C567 H594 0.930 . S
C568 C563 1.407 . S
C568 C567 1.384 . S
C568 H595 0.929 . S
C569 O582 1.241 . S
C569 O583 1.273 . S
C570 O584 1.251 . S
C570 O585 1.268 . S
C571 Nd561 2.836 1_455 S
C571 C572 1.498 . S
C571 O586 1.258 . S
C571 O587 1.244 . S
C572 C571 1.498 . S
C572 C573 1.366 . S
C572 C577 1.407 . S
C573 C572 1.366 . S
C573 C574 1.392 . S
C573 H596 0.930 . S
C574 C573 1.392 . S
C574 C575 1.398 . S
C574 H597 0.929 . S
C575 C574 1.398 . S
C575 C576 1.352 . S
C576 C575 1.352 . S
C576 C577 1.384 . S
C576 H598 0.930 . S
C577 C572 1.407 . S
C577 C576 1.384 . S
C577 H599 0.929 . S
C578 O588 1.241 . S
C578 O589 1.273 . S
C579 O590 1.251 . S
C579 O591 1.268 . S
O580 Nd560 2.500 . S
O580 C562 1.258 . S
O581 Nd560 2.492 . S
O581 C562 1.239 . S
O582 Nd560 2.487 . S
O582 C569 1.241 . S
O583 Nd560 2.682 . S
O583 Nd561 2.414 . S
O583 C569 1.273 . S
O584 Nd560 2.410 . S
O584 C570 1.251 . S
O585 Nd561 2.424 . S
O585 C570 1.268 . S
O586 Nd561 2.500 1_455 S
O586 C571 1.258 . S
O587 Nd561 2.487 1_455 S
O587 C571 1.244 . S
O588 Nd561 2.487 . S
O588 C578 1.241 . S
O589 Nd560 2.414 . S
O589 Nd561 2.682 . S
O589 C578 1.273 . S
O590 Nd561 2.410 1_455 S
O590 C579 1.251 . S
O591 Nd560 2.424 1_455 S
O591 C579 1.268 . S
H592 C564 0.930 . S
H593 C565 0.929 . S
H594 C567 0.930 . S
H595 C568 0.929 . S
H596 C573 0.930 . S
H597 C574 0.929 . S
H598 C576 0.930 . S
H599 C577 0.929 . S
Nd600 C602 2.836 . S
Nd600 O620 2.500 . S
Nd600 O621 2.492 . S
Nd600 O622 2.487 . S
Nd600 O623 2.682 1_565 S
Nd600 O624 2.410 . S
Nd600 O629 2.414 . S
Nd600 O631 2.424 . S
Nd601 C611 2.836 . S
Nd601 O623 2.414 . S
Nd601 O625 2.424 . S
Nd601 O626 2.500 . S
Nd601 O627 2.492 . S
Nd601 O628 2.487 . S
Nd601 O629 2.682 1_545 S
Nd601 O630 2.410 . S
C602 Nd600 2.836 . S
C602 C603 1.498 . S
C602 O620 1.258 . S
C602 O621 1.239 . S
C603 C602 1.498 . S
C603 C604 1.366 . S
C603 C608 1.407 . S
C604 C603 1.366 . S
C604 C605 1.392 . S
C604 H632 0.930 . S
C605 C604 1.392 . S
C605 C606 1.398 . S
C605 H633 0.929 1_655 S
C606 C605 1.398 . S
C606 C607 1.352 . S
C607 C606 1.352 . S
C607 C608 1.384 . S
C607 H634 0.930 . S
C608 C603 1.407 . S
C608 C607 1.384 . S
C608 H635 0.929 . S
C609 O622 1.241 . S
C609 O623 1.273 1_565 S
C610 O624 1.251 . S
C610 O625 1.268 1_565 S
C611 Nd601 2.836 . S
C611 C612 1.498 . S
C611 O626 1.258 . S
C611 O627 1.239 . S
C612 C611 1.498 . S
C612 C613 1.366 . S
C612 C617 1.407 . S
C613 C612 1.366 . S
C613 C614 1.392 . S
C613 H636 0.930 . S
C614 C613 1.392 . S
C614 C615 1.398 . S
C614 H637 0.929 . S
C615 C614 1.398 . S
C615 C616 1.352 . S
C616 C615 1.352 . S
C616 C617 1.384 . S
C616 H638 0.930 . S
C617 C612 1.407 . S
C617 C616 1.384 . S
C617 H639 0.929 . S
C618 O628 1.241 . S
C618 O629 1.273 1_545 S
C619 O630 1.251 . S
C619 O631 1.268 1_545 S
O620 Nd600 2.500 . S
O620 C602 1.258 . S
O621 Nd600 2.492 . S
O621 C602 1.239 . S
O622 Nd600 2.487 . S
O622 C609 1.241 . S
O623 Nd600 2.682 1_545 S
O623 Nd601 2.414 . S
O623 C609 1.273 1_545 S
O624 Nd600 2.410 . S
O624 C610 1.251 . S
O625 Nd601 2.424 . S
O625 C610 1.268 1_545 S
O626 Nd601 2.500 . S
O626 C611 1.258 . S
O627 Nd601 2.492 . S
O627 C611 1.239 . S
O628 Nd601 2.487 . S
O628 C618 1.241 . S
O629 Nd600 2.414 . S
O629 Nd601 2.682 1_565 S
O629 C618 1.273 1_565 S
O630 Nd601 2.410 . S
O630 C619 1.251 . S
O631 Nd600 2.424 . S
O631 C619 1.268 1_565 S
H632 C604 0.930 . S
H633 C605 0.929 1_455 S
H634 C607 0.930 . S
H635 C608 0.929 . S
H636 C613 0.930 . S
H637 C614 0.929 . S
H638 C616 0.930 . S
H639 C617 0.929 . S
Nd640 C642 2.836 . S
Nd640 O660 2.500 . S
Nd640 O661 2.492 . S
Nd640 O662 2.487 . S
Nd640 O663 2.682 . S
Nd640 O664 2.410 . S
Nd640 O669 2.414 . S
Nd640 O671 2.424 . S
Nd641 C651 2.836 . S
Nd641 O663 2.414 . S
Nd641 O665 2.424 . S
Nd641 O666 2.500 . S
Nd641 O667 2.492 . S
Nd641 O668 2.487 . S
Nd641 O669 2.682 . S
Nd641 O670 2.410 . S
C642 Nd640 2.836 . S
C642 C643 1.498 . S
C642 O660 1.258 . S
C642 O661 1.239 . S
C643 C642 1.498 . S
C643 C644 1.366 . S
C643 C648 1.407 . S
C644 C643 1.366 . S
C644 C645 1.392 . S
C644 H672 0.930 . S
C645 C644 1.392 . S
C645 C646 1.398 . S
C645 H673 0.929 . S
C646 C645 1.398 . S
C646 C647 1.352 . S
C647 C646 1.352 . S
C647 C648 1.384 . S
C647 H674 0.930 . S
C648 C643 1.407 . S
C648 C647 1.384 . S
C648 H675 0.929 . S
C649 O662 1.241 . S
C649 O663 1.273 . S
C650 O664 1.251 . S
C650 O665 1.268 . S
C651 Nd641 2.836 . S
C651 C652 1.498 . S
C651 O666 1.258 . S
C651 O667 1.239 . S
C652 C651 1.498 . S
C652 C653 1.366 . S
C652 C657 1.407 . S
C653 C652 1.366 . S
C653 C654 1.392 . S
C653 H676 0.930 . S
C654 C653 1.392 . S
C654 C655 1.398 . S
C654 H677 0.929 . S
C655 C654 1.398 . S
C655 C656 1.352 . S
C656 C655 1.352 . S
C656 C657 1.384 . S
C656 H678 0.930 . S
C657 C652 1.407 . S
C657 C656 1.384 . S
C657 H679 0.929 . S
C658 O668 1.241 . S
C658 O669 1.273 . S
C659 O670 1.251 . S
C659 O671 1.268 . S
O660 Nd640 2.500 . S
O660 C642 1.258 . S
O661 Nd640 2.492 . S
O661 C642 1.239 . S
O662 Nd640 2.487 . S
O662 C649 1.241 . S
O663 Nd640 2.682 . S
O663 Nd641 2.414 . S
O663 C649 1.273 . S
O664 Nd640 2.410 . S
O664 C650 1.251 . S
O665 Nd641 2.424 . S
O665 C650 1.268 . S
O666 Nd641 2.500 . S
O666 C651 1.258 . S
O667 Nd641 2.492 . S
O667 C651 1.239 . S
O668 Nd641 2.487 . S
O668 C658 1.241 . S
O669 Nd640 2.414 . S
O669 Nd641 2.682 . S
O669 C658 1.273 . S
O670 Nd641 2.410 . S
O670 C659 1.251 . S
O671 Nd640 2.424 . S
O671 C659 1.268 . S
H672 C644 0.930 . S
H673 C645 0.929 . S
H674 C647 0.930 . S
H675 C648 0.929 . S
H676 C653 0.930 . S
H677 C654 0.929 . S
H678 C656 0.930 . S
H679 C657 0.929 . S
Nd680 C682 2.836 . S
Nd680 O700 2.500 . S
Nd680 O701 2.492 . S
Nd680 O702 2.487 . S
Nd680 O703 2.682 . S
Nd680 O704 2.410 . S
Nd680 O709 2.414 . S
Nd680 O711 2.424 . S
Nd681 C691 2.836 . S
Nd681 O703 2.414 . S
Nd681 O705 2.424 . S
Nd681 O706 2.500 . S
Nd681 O707 2.492 . S
Nd681 O708 2.487 . S
Nd681 O709 2.682 . S
Nd681 O710 2.410 . S
C682 Nd680 2.836 . S
C682 C683 1.498 . S
C682 O700 1.258 . S
C682 O701 1.239 . S
C683 C682 1.498 . S
C683 C684 1.366 . S
C683 C688 1.407 . S
C684 C683 1.366 . S
C684 C685 1.392 . S
C684 H712 0.930 . S
C685 C684 1.392 . S
C685 C686 1.398 . S
C685 H713 0.929 . S
C686 C685 1.398 . S
C686 C687 1.352 . S
C687 C686 1.352 . S
C687 C688 1.384 . S
C687 H714 0.930 . S
C688 C683 1.407 . S
C688 C687 1.384 . S
C688 H715 0.929 . S
C689 O702 1.241 . S
C689 O703 1.273 . S
C690 O704 1.251 . S
C690 O705 1.268 . S
C691 Nd681 2.836 . S
C691 C692 1.498 . S
C691 O706 1.258 . S
C691 O707 1.239 . S
C692 C691 1.498 . S
C692 C693 1.366 . S
C692 C697 1.407 . S
C693 C692 1.366 . S
C693 C694 1.392 . S
C693 H716 0.930 . S
C694 C693 1.392 . S
C694 C695 1.398 . S
C694 H717 0.929 . S
C695 C694 1.398 . S
C695 C696 1.352 . S
C696 C695 1.352 . S
C696 C697 1.384 . S
C696 H718 0.930 . S
C697 C692 1.407 . S
C697 C696 1.384 . S
C697 H719 0.929 . S
C698 O708 1.241 . S
C698 O709 1.273 . S
C699 O710 1.251 . S
C699 O711 1.268 . S
O700 Nd680 2.500 . S
O700 C682 1.258 . S
O701 Nd680 2.492 . S
O701 C682 1.239 . S
O702 Nd680 2.487 . S
O702 C689 1.241 . S
O703 Nd680 2.682 . S
O703 Nd681 2.414 . S
O703 C689 1.273 . S
O704 Nd680 2.410 . S
O704 C690 1.251 . S
O705 Nd681 2.424 . S
O705 C690 1.268 . S
O706 Nd681 2.500 . S
O706 C691 1.258 . S
O707 Nd681 2.492 . S
O707 C691 1.239 . S
O708 Nd681 2.487 . S
O708 C698 1.241 . S
O709 Nd680 2.414 . S
O709 Nd681 2.682 . S
O709 C698 1.273 . S
O710 Nd681 2.410 . S
O710 C699 1.251 . S
O711 Nd680 2.424 . S
O711 C699 1.268 . S
H712 C684 0.930 . S
H713 C685 0.929 . S
H714 C687 0.930 . S
H715 C688 0.929 . S
H716 C693 0.930 . S
H717 C694 0.929 . S
H718 C696 0.930 . S
H719 C697 0.929 . S
Nd720 C722 2.836 . S
Nd720 O740 2.500 . S
Nd720 O741 2.492 . S
Nd720 O742 2.487 . S
Nd720 O743 2.682 . S
Nd720 O744 2.410 . S
Nd720 O749 2.414 . S
Nd720 O751 2.424 . S
Nd721 C731 2.836 . S
Nd721 O743 2.414 . S
Nd721 O745 2.424 . S
Nd721 O746 2.500 . S
Nd721 O747 2.492 . S
Nd721 O748 2.487 . S
Nd721 O749 2.682 . S
Nd721 O750 2.410 . S
C722 Nd720 2.836 . S
C722 C723 1.498 . S
C722 O740 1.258 . S
C722 O741 1.239 . S
C723 C722 1.498 . S
C723 C724 1.366 . S
C723 C728 1.407 . S
C724 C723 1.366 . S
C724 C725 1.392 . S
C724 H752 0.930 . S
C725 C724 1.392 . S
C725 C726 1.398 . S
C725 H753 0.929 . S
C726 C725 1.398 . S
C726 C727 1.352 . S
C727 C726 1.352 . S
C727 C728 1.384 . S
C727 H754 0.930 . S
C728 C723 1.407 . S
C728 C727 1.384 . S
C728 H755 0.929 . S
C729 O742 1.241 . S
C729 O743 1.273 . S
C730 O744 1.251 . S
C730 O745 1.268 . S
C731 Nd721 2.836 . S
C731 C732 1.498 . S
C731 O746 1.258 . S
C731 O747 1.239 . S
C732 C731 1.498 . S
C732 C733 1.366 . S
C732 C737 1.407 . S
C733 C732 1.366 . S
C733 C734 1.392 . S
C733 H756 0.930 . S
C734 C733 1.392 . S
C734 C735 1.398 . S
C734 H757 0.929 . S
C735 C734 1.398 . S
C735 C736 1.352 . S
C736 C735 1.352 . S
C736 C737 1.384 . S
C736 H758 0.930 . S
C737 C732 1.407 . S
C737 C736 1.384 . S
C737 H759 0.929 . S
C738 O748 1.241 . S
C738 O749 1.273 . S
C739 O750 1.251 . S
C739 O751 1.268 . S
O740 Nd720 2.500 . S
O740 C722 1.258 . S
O741 Nd720 2.492 . S
O741 C722 1.239 . S
O742 Nd720 2.487 . S
O742 C729 1.241 . S
O743 Nd720 2.682 . S
O743 Nd721 2.414 . S
O743 C729 1.273 . S
O744 Nd720 2.410 . S
O744 C730 1.251 . S
O745 Nd721 2.424 . S
O745 C730 1.268 . S
O746 Nd721 2.500 . S
O746 C731 1.258 . S
O747 Nd721 2.492 . S
O747 C731 1.239 . S
O748 Nd721 2.487 . S
O748 C738 1.241 . S
O749 Nd720 2.414 . S
O749 Nd721 2.682 . S
O749 C738 1.273 . S
O750 Nd721 2.410 . S
O750 C739 1.251 . S
O751 Nd720 2.424 . S
O751 C739 1.268 . S
H752 C724 0.930 . S
H753 C725 0.929 . S
H754 C727 0.930 . S
H755 C728 0.929 . S
H756 C733 0.930 . S
H757 C734 0.929 . S
H758 C736 0.930 . S
H759 C737 0.929 . S
Nd760 C762 2.836 . S
Nd760 O780 2.500 . S
Nd760 O781 2.492 . S
Nd760 O782 2.487 . S
Nd760 O783 2.682 . S
Nd760 O784 2.410 . S
Nd760 O789 2.414 . S
Nd760 O791 2.424 . S
Nd761 C771 2.836 . S
Nd761 O783 2.414 . S
Nd761 O785 2.424 . S
Nd761 O786 2.500 . S
Nd761 O787 2.492 . S
Nd761 O788 2.487 . S
Nd761 O789 2.682 . S
Nd761 O790 2.410 . S
C762 Nd760 2.836 . S
C762 C763 1.498 . S
C762 O780 1.258 . S
C762 O781 1.239 . S
C763 C762 1.498 . S
C763 C764 1.366 . S
C763 C768 1.407 . S
C764 C763 1.366 . S
C764 C765 1.392 . S
C764 H792 0.930 . S
C765 C764 1.392 . S
C765 C766 1.398 . S
C765 H793 0.929 . S
C766 C765 1.398 . S
C766 C767 1.352 . S
C767 C766 1.352 . S
C767 C768 1.384 . S
C767 H794 0.930 . S
C768 C763 1.407 . S
C768 C767 1.384 . S
C768 H795 0.929 . S
C769 O782 1.241 . S
C769 O783 1.273 . S
C770 O784 1.251 . S
C770 O785 1.268 . S
C771 Nd761 2.836 . S
C771 C772 1.498 . S
C771 O786 1.258 . S
C771 O787 1.239 . S
C772 C771 1.498 . S
C772 C773 1.366 . S
C772 C777 1.407 . S
C773 C772 1.366 . S
C773 C774 1.392 . S
C773 H796 0.930 . S
C774 C773 1.392 . S
C774 C775 1.398 . S
C774 H797 0.929 . S
C775 C774 1.398 . S
C775 C776 1.352 . S
C776 C775 1.352 . S
C776 C777 1.384 . S
C776 H798 0.930 . S
C777 C772 1.407 . S
C777 C776 1.384 . S
C777 H799 0.929 . S
C778 O788 1.241 . S
C778 O789 1.273 . S
C779 O790 1.251 . S
C779 O791 1.268 . S
O780 Nd760 2.500 . S
O780 C762 1.258 . S
O781 Nd760 2.492 . S
O781 C762 1.239 . S
O782 Nd760 2.487 . S
O782 C769 1.241 . S
O783 Nd760 2.682 . S
O783 Nd761 2.414 . S
O783 C769 1.273 . S
O784 Nd760 2.410 . S
O784 C770 1.251 . S
O785 Nd761 2.424 . S
O785 C770 1.268 . S
O786 Nd761 2.500 . S
O786 C771 1.258 . S
O787 Nd761 2.492 . S
O787 C771 1.239 . S
O788 Nd761 2.487 . S
O788 C778 1.241 . S
O789 Nd760 2.414 . S
O789 Nd761 2.682 . S
O789 C778 1.273 . S
O790 Nd761 2.410 . S
O790 C779 1.251 . S
O791 Nd760 2.424 . S
O791 C779 1.268 . S
H792 C764 0.930 . S
H793 C765 0.929 . S
H794 C767 0.930 . S
H795 C768 0.929 . S
H796 C773 0.930 . S
H797 C774 0.929 . S
H798 C776 0.930 . S
H799 C777 0.929 . S
Nd800 C802 2.836 . S
Nd800 O820 2.500 . S
Nd800 O821 2.492 . S
Nd800 O822 2.487 . S
Nd800 O823 2.682 . S
Nd800 O824 2.410 . S
Nd800 O829 2.414 . S
Nd800 O831 2.424 . S
Nd801 C811 2.836 . S
Nd801 O823 2.414 . S
Nd801 O825 2.424 . S
Nd801 O826 2.500 . S
Nd801 O827 2.492 . S
Nd801 O828 2.487 . S
Nd801 O829 2.682 . S
Nd801 O830 2.410 . S
C802 Nd800 2.836 . S
C802 C803 1.498 . S
C802 O820 1.258 . S
C802 O821 1.239 . S
C803 C802 1.498 . S
C803 C804 1.366 . S
C803 C808 1.407 . S
C804 C803 1.366 . S
C804 C805 1.392 . S
C804 H832 0.930 . S
C805 C804 1.392 . S
C805 C806 1.398 . S
C805 H833 0.929 . S
C806 C805 1.398 . S
C806 C807 1.352 . S
C807 C806 1.352 . S
C807 C808 1.384 . S
C807 H834 0.930 . S
C808 C803 1.407 . S
C808 C807 1.384 . S
C808 H835 0.929 . S
C809 O822 1.241 . S
C809 O823 1.273 . S
C810 O824 1.251 . S
C810 O825 1.268 . S
C811 Nd801 2.836 . S
C811 C812 1.498 . S
C811 O826 1.258 . S
C811 O827 1.239 . S
C812 C811 1.498 . S
C812 C813 1.366 . S
C812 C817 1.407 . S
C813 C812 1.366 . S
C813 C814 1.392 . S
C813 H836 0.930 . S
C814 C813 1.392 . S
C814 C815 1.398 . S
C814 H837 0.929 . S
C815 C814 1.398 . S
C815 C816 1.352 . S
C816 C815 1.352 . S
C816 C817 1.384 . S
C816 H838 0.930 . S
C817 C812 1.407 . S
C817 C816 1.384 . S
C817 H839 0.929 . S
C818 O828 1.241 . S
C818 O829 1.273 . S
C819 O830 1.251 . S
C819 O831 1.268 . S
O820 Nd800 2.500 . S
O820 C802 1.258 . S
O821 Nd800 2.492 . S
O821 C802 1.239 . S
O822 Nd800 2.487 . S
O822 C809 1.241 . S
O823 Nd800 2.682 . S
O823 Nd801 2.414 . S
O823 C809 1.273 . S
O824 Nd800 2.410 . S
O824 C810 1.251 . S
O825 Nd801 2.424 . S
O825 C810 1.268 . S
O826 Nd801 2.500 . S
O826 C811 1.258 . S
O827 Nd801 2.492 . S
O827 C811 1.239 . S
O828 Nd801 2.487 . S
O828 C818 1.241 . S
O829 Nd800 2.414 . S
O829 Nd801 2.682 . S
O829 C818 1.273 . S
O830 Nd801 2.410 . S
O830 C819 1.251 . S
O831 Nd800 2.424 . S
O831 C819 1.268 . S
H832 C804 0.930 . S
H833 C805 0.929 . S
H834 C807 0.930 . S
H835 C808 0.929 . S
H836 C813 0.930 . S
H837 C814 0.929 . S
H838 C816 0.930 . S
H839 C817 0.929 . S
Nd840 C842 2.836 . S
Nd840 O860 2.500 . S
Nd840 O861 2.492 . S
Nd840 O862 2.487 . S
Nd840 O863 2.682 . S
Nd840 O864 2.410 . S
Nd840 O869 2.414 . S
Nd840 O871 2.424 . S
Nd841 C851 2.836 . S
Nd841 O863 2.414 . S
Nd841 O865 2.424 . S
Nd841 O866 2.500 . S
Nd841 O867 2.492 . S
Nd841 O868 2.487 . S
Nd841 O869 2.682 . S
Nd841 O870 2.410 . S
C842 Nd840 2.836 . S
C842 C843 1.498 . S
C842 O860 1.258 . S
C842 O861 1.239 . S
C843 C842 1.498 . S
C843 C844 1.366 . S
C843 C848 1.407 . S
C844 C843 1.366 . S
C844 C845 1.392 . S
C844 H872 0.930 . S
C845 C844 1.392 . S
C845 C846 1.398 . S
C845 H873 0.929 . S
C846 C845 1.398 . S
C846 C847 1.352 . S
C847 C846 1.352 . S
C847 C848 1.384 . S
C847 H874 0.930 . S
C848 C843 1.407 . S
C848 C847 1.384 . S
C848 H875 0.929 . S
C849 O862 1.241 . S
C849 O863 1.273 . S
C850 O864 1.251 . S
C850 O865 1.268 . S
C851 Nd841 2.836 . S
C851 C852 1.498 . S
C851 O866 1.258 . S
C851 O867 1.239 . S
C852 C851 1.498 . S
C852 C853 1.366 . S
C852 C857 1.407 . S
C853 C852 1.366 . S
C853 C854 1.392 . S
C853 H876 0.930 . S
C854 C853 1.392 . S
C854 C855 1.398 . S
C854 H877 0.929 . S
C855 C854 1.398 . S
C855 C856 1.352 . S
C856 C855 1.352 . S
C856 C857 1.384 . S
C856 H878 0.930 . S
C857 C852 1.407 . S
C857 C856 1.384 . S
C857 H879 0.929 . S
C858 O868 1.241 . S
C858 O869 1.273 . S
C859 O870 1.251 . S
C859 O871 1.268 . S
O860 Nd840 2.500 . S
O860 C842 1.258 . S
O861 Nd840 2.492 . S
O861 C842 1.239 . S
O862 Nd840 2.487 . S
O862 C849 1.241 . S
O863 Nd840 2.682 . S
O863 Nd841 2.414 . S
O863 C849 1.273 . S
O864 Nd840 2.410 . S
O864 C850 1.251 . S
O865 Nd841 2.424 . S
O865 C850 1.268 . S
O866 Nd841 2.500 . S
O866 C851 1.258 . S
O867 Nd841 2.492 . S
O867 C851 1.239 . S
O868 Nd841 2.487 . S
O868 C858 1.241 . S
O869 Nd840 2.414 . S
O869 Nd841 2.682 . S
O869 C858 1.273 . S
O870 Nd841 2.410 . S
O870 C859 1.251 . S
O871 Nd840 2.424 . S
O871 C859 1.268 . S
H872 C844 0.930 . S
H873 C845 0.929 . S
H874 C847 0.930 . S
H875 C848 0.929 . S
H876 C853 0.930 . S
H877 C854 0.929 . S
H878 C856 0.930 . S
H879 C857 0.929 . S
Nd880 C882 2.836 . S
Nd880 O900 2.500 . S
Nd880 O901 2.492 . S
Nd880 O902 2.487 . S
Nd880 O903 2.682 . S
Nd880 O904 2.410 . S
Nd880 O909 2.414 . S
Nd880 O911 2.424 . S
Nd881 C891 2.836 . S
Nd881 O903 2.414 . S
Nd881 O905 2.424 . S
Nd881 O906 2.500 . S
Nd881 O907 2.492 . S
Nd881 O908 2.487 . S
Nd881 O909 2.682 . S
Nd881 O910 2.410 . S
C882 Nd880 2.836 . S
C882 C883 1.498 . S
C882 O900 1.258 . S
C882 O901 1.239 . S
C883 C882 1.498 . S
C883 C884 1.366 . S
C883 C888 1.407 . S
C884 C883 1.366 . S
C884 C885 1.392 . S
C884 H912 0.930 . S
C885 C884 1.392 . S
C885 C886 1.398 . S
C885 H913 0.929 . S
C886 C885 1.398 . S
C886 C887 1.352 . S
C887 C886 1.352 . S
C887 C888 1.384 . S
C887 H914 0.930 . S
C888 C883 1.407 . S
C888 C887 1.384 . S
C888 H915 0.929 . S
C889 O902 1.241 . S
C889 O903 1.273 . S
C890 O904 1.251 . S
C890 O905 1.268 . S
C891 Nd881 2.836 . S
C891 C892 1.498 . S
C891 O906 1.258 . S
C891 O907 1.239 . S
C892 C891 1.498 . S
C892 C893 1.366 . S
C892 C897 1.407 . S
C893 C892 1.366 . S
C893 C894 1.392 . S
C893 H916 0.930 . S
C894 C893 1.392 . S
C894 C895 1.398 . S
C894 H917 0.929 . S
C895 C894 1.398 . S
C895 C896 1.352 . S
C896 C895 1.352 . S
C896 C897 1.384 . S
C896 H918 0.930 . S
C897 C892 1.407 . S
C897 C896 1.384 . S
C897 H919 0.929 . S
C898 O908 1.241 . S
C898 O909 1.273 . S
C899 O910 1.251 . S
C899 O911 1.268 . S
O900 Nd880 2.500 . S
O900 C882 1.258 . S
O901 Nd880 2.492 . S
O901 C882 1.239 . S
O902 Nd880 2.487 . S
O902 C889 1.241 . S
O903 Nd880 2.682 . S
O903 Nd881 2.414 . S
O903 C889 1.273 . S
O904 Nd880 2.410 . S
O904 C890 1.251 . S
O905 Nd881 2.424 . S
O905 C890 1.268 . S
O906 Nd881 2.500 . S
O906 C891 1.258 . S
O907 Nd881 2.492 . S
O907 C891 1.239 . S
O908 Nd881 2.487 . S
O908 C898 1.241 . S
O909 Nd880 2.414 . S
O909 Nd881 2.682 . S
O909 C898 1.273 . S
O910 Nd881 2.410 . S
O910 C899 1.251 . S
O911 Nd880 2.424 . S
O911 C899 1.268 . S
H912 C884 0.930 . S
H913 C885 0.929 . S
H914 C887 0.930 . S
H915 C888 0.929 . S
H916 C893 0.930 . S
H917 C894 0.929 . S
H918 C896 0.930 . S
H919 C897 0.929 . S
Nd920 C922 2.836 . S
Nd920 O940 2.500 . S
Nd920 O941 2.492 . S
Nd920 O942 2.487 . S
Nd920 O943 2.682 . S
Nd920 O944 2.410 . S
Nd920 O949 2.414 . S
Nd920 O951 2.424 . S
Nd921 C931 2.836 . S
Nd921 O943 2.414 . S
Nd921 O945 2.424 . S
Nd921 O946 2.500 . S
Nd921 O947 2.492 . S
Nd921 O948 2.487 . S
Nd921 O949 2.682 . S
Nd921 O950 2.410 . S
C922 Nd920 2.836 . S
C922 C923 1.498 . S
C922 O940 1.258 . S
C922 O941 1.239 . S
C923 C922 1.498 . S
C923 C924 1.366 . S
C923 C928 1.407 . S
C924 C923 1.366 . S
C924 C925 1.392 . S
C924 H952 0.930 . S
C925 C924 1.392 . S
C925 C926 1.398 . S
C925 H953 0.929 . S
C926 C925 1.398 . S
C926 C927 1.352 . S
C927 C926 1.352 . S
C927 C928 1.384 . S
C927 H954 0.930 . S
C928 C923 1.407 . S
C928 C927 1.384 . S
C928 H955 0.929 . S
C929 O942 1.241 . S
C929 O943 1.273 . S
C930 O944 1.251 . S
C930 O945 1.268 . S
C931 Nd921 2.836 . S
C931 C932 1.498 . S
C931 O946 1.258 . S
C931 O947 1.239 . S
C932 C931 1.498 . S
C932 C933 1.366 . S
C932 C937 1.407 . S
C933 C932 1.366 . S
C933 C934 1.392 . S
C933 H956 0.930 . S
C934 C933 1.392 . S
C934 C935 1.398 . S
C934 H957 0.929 . S
C935 C934 1.398 . S
C935 C936 1.352 . S
C936 C935 1.352 . S
C936 C937 1.384 . S
C936 H958 0.930 . S
C937 C932 1.407 . S
C937 C936 1.384 . S
C937 H959 0.929 . S
C938 O948 1.241 . S
C938 O949 1.273 . S
C939 O950 1.251 . S
C939 O951 1.268 . S
O940 Nd920 2.500 . S
O940 C922 1.258 . S
O941 Nd920 2.492 . S
O941 C922 1.239 . S
O942 Nd920 2.487 . S
O942 C929 1.241 . S
O943 Nd920 2.682 . S
O943 Nd921 2.414 . S
O943 C929 1.273 . S
O944 Nd920 2.410 . S
O944 C930 1.251 . S
O945 Nd921 2.424 . S
O945 C930 1.268 . S
O946 Nd921 2.500 . S
O946 C931 1.258 . S
O947 Nd921 2.492 . S
O947 C931 1.239 . S
O948 Nd921 2.487 . S
O948 C938 1.241 . S
O949 Nd920 2.414 . S
O949 Nd921 2.682 . S
O949 C938 1.273 . S
O950 Nd921 2.410 . S
O950 C939 1.251 . S
O951 Nd920 2.424 . S
O951 C939 1.268 . S
H952 C924 0.930 . S
H953 C925 0.929 . S
H954 C927 0.930 . S
H955 C928 0.929 . S
H956 C933 0.930 . S
H957 C934 0.929 . S
H958 C936 0.930 . S
H959 C937 0.929 . S
Nd960 C962 2.836 . S
Nd960 O980 2.500 . S
Nd960 O981 2.492 . S
Nd960 O982 2.487 . S
Nd960 O983 2.682 1_565 S
Nd960 O984 2.410 . S
Nd960 O989 2.414 . S
Nd960 O991 2.424 . S
Nd961 C971 2.836 . S
Nd961 O983 2.414 . S
Nd961 O985 2.424 . S
Nd961 O986 2.500 . S
Nd961 O987 2.492 . S
Nd961 O988 2.487 . S
Nd961 O989 2.682 1_545 S
Nd961 O990 2.410 . S
C962 Nd960 2.836 . S
C962 C963 1.498 . S
C962 O980 1.258 . S
C962 O981 1.239 . S
C963 C962 1.498 . S
C963 C964 1.366 . S
C963 C968 1.407 . S
C964 C963 1.366 . S
C964 C965 1.392 . S
C964 H992 0.930 . S
C965 C964 1.392 . S
C965 C966 1.398 . S
C965 H993 0.929 . S
C966 C965 1.398 . S
C966 C967 1.352 . S
C967 C966 1.352 . S
C967 C968 1.384 . S
C967 H994 0.930 . S
C968 C963 1.407 . S
C968 C967 1.384 . S
C968 H995 0.929 . S
C969 O982 1.241 . S
C969 O983 1.273 1_565 S
C970 O984 1.251 . S
C970 O985 1.268 1_565 S
C971 Nd961 2.836 . S
C971 C972 1.498 . S
C971 O986 1.258 . S
C971 O987 1.239 . S
C972 C971 1.498 . S
C972 C973 1.366 . S
C972 C977 1.407 . S
C973 C972 1.366 . S
C973 C974 1.392 . S
C973 H996 0.930 . S
C974 C973 1.392 . S
C974 C975 1.398 . S
C974 H997 0.929 . S
C975 C974 1.398 . S
C975 C976 1.352 . S
C976 C975 1.352 . S
C976 C977 1.384 . S
C976 H998 0.930 . S
C977 C972 1.407 . S
C977 C976 1.384 . S
C977 H999 0.929 . S
C978 O988 1.241 . S
C978 O989 1.273 1_545 S
C979 O990 1.251 . S
C979 O991 1.268 1_545 S
O980 Nd960 2.500 . S
O980 C962 1.258 . S
O981 Nd960 2.492 . S
O981 C962 1.239 . S
O982 Nd960 2.487 . S
O982 C969 1.241 . S
O983 Nd960 2.682 1_545 S
O983 Nd961 2.414 . S
O983 C969 1.273 1_545 S
O984 Nd960 2.410 . S
O984 C970 1.251 . S
O985 Nd961 2.424 . S
O985 C970 1.268 1_545 S
O986 Nd961 2.500 . S
O986 C971 1.258 . S
O987 Nd961 2.492 . S
O987 C971 1.239 . S
O988 Nd961 2.487 . S
O988 C978 1.241 . S
O989 Nd960 2.414 . S
O989 Nd961 2.682 1_565 S
O989 C978 1.273 1_565 S
O990 Nd961 2.410 . S
O990 C979 1.251 . S
O991 Nd960 2.424 . S
O991 C979 1.268 1_565 S
H992 C964 0.930 . S
H993 C965 0.929 . S
H994 C967 0.930 . S
H995 C968 0.929 . S
H996 C973 0.930 . S
H997 C974 0.929 . S
H998 C976 0.930 . S
H999 C977 0.929 . S
Nd1000 C1002 2.836 . S
Nd1000 O1020 2.500 . S
Nd1000 O1021 2.492 . S
Nd1000 O1022 2.487 . S
Nd1000 O1023 2.682 . S
Nd1000 O1024 2.410 . S
Nd1000 O1029 2.414 . S
Nd1000 O1031 2.424 . S
Nd1001 C1011 2.836 . S
Nd1001 O1023 2.414 . S
Nd1001 O1025 2.424 . S
Nd1001 O1026 2.500 . S
Nd1001 O1027 2.492 . S
Nd1001 O1028 2.487 . S
Nd1001 O1029 2.682 . S
Nd1001 O1030 2.410 . S
C1002 Nd1000 2.836 . S
C1002 C1003 1.498 . S
C1002 O1020 1.258 . S
C1002 O1021 1.239 . S
C1003 C1002 1.498 . S
C1003 C1004 1.366 . S
C1003 C1008 1.407 . S
C1004 C1003 1.366 . S
C1004 C1005 1.392 . S
C1004 H1032 0.930 . S
C1005 C1004 1.392 . S
C1005 C1006 1.398 . S
C1005 H1033 0.929 . S
C1006 C1005 1.398 . S
C1006 C1007 1.352 . S
C1007 C1006 1.352 . S
C1007 C1008 1.384 . S
C1007 H1034 0.930 . S
C1008 C1003 1.407 . S
C1008 C1007 1.384 . S
C1008 H1035 0.929 . S
C1009 O1022 1.241 . S
C1009 O1023 1.273 . S
C1010 O1024 1.251 . S
C1010 O1025 1.268 . S
C1011 Nd1001 2.836 . S
C1011 C1012 1.498 . S
C1011 O1026 1.258 . S
C1011 O1027 1.239 . S
C1012 C1011 1.498 . S
C1012 C1013 1.366 . S
C1012 C1017 1.407 . S
C1013 C1012 1.366 . S
C1013 C1014 1.392 . S
C1013 H1036 0.930 . S
C1014 C1013 1.392 . S
C1014 C1015 1.398 . S
C1014 H1037 0.929 . S
C1015 C1014 1.398 . S
C1015 C1016 1.352 . S
C1016 C1015 1.352 . S
C1016 C1017 1.384 . S
C1016 H1038 0.930 . S
C1017 C1012 1.407 . S
C1017 C1016 1.384 . S
C1017 H1039 0.929 . S
C1018 O1028 1.241 . S
C1018 O1029 1.273 . S
C1019 O1030 1.251 . S
C1019 O1031 1.268 . S
O1020 Nd1000 2.500 . S
O1020 C1002 1.258 . S
O1021 Nd1000 2.492 . S
O1021 C1002 1.239 . S
O1022 Nd1000 2.487 . S
O1022 C1009 1.241 . S
O1023 Nd1000 2.682 . S
O1023 Nd1001 2.414 . S
O1023 C1009 1.273 . S
O1024 Nd1000 2.410 . S
O1024 C1010 1.251 . S
O1025 Nd1001 2.424 . S
O1025 C1010 1.268 . S
O1026 Nd1001 2.500 . S
O1026 C1011 1.258 . S
O1027 Nd1001 2.492 . S
O1027 C1011 1.239 . S
O1028 Nd1001 2.487 . S
O1028 C1018 1.241 . S
O1029 Nd1000 2.414 . S
O1029 Nd1001 2.682 . S
O1029 C1018 1.273 . S
O1030 Nd1001 2.410 . S
O1030 C1019 1.251 . S
O1031 Nd1000 2.424 . S
O1031 C1019 1.268 . S
H1032 C1004 0.930 . S
H1033 C1005 0.929 . S
H1034 C1007 0.930 . S
H1035 C1008 0.929 . S
H1036 C1013 0.930 . S
H1037 C1014 0.929 . S
H1038 C1016 0.930 . S
H1039 C1017 0.929 . S
Nd1040 C1042 2.836 . S
Nd1040 O1060 2.500 . S
Nd1040 O1061 2.492 . S
Nd1040 O1062 2.487 . S
Nd1040 O1063 2.682 . S
Nd1040 O1064 2.410 . S
Nd1040 O1069 2.414 . S
Nd1040 O1071 2.424 . S
Nd1041 C1051 2.836 . S
Nd1041 O1063 2.414 . S
Nd1041 O1065 2.424 . S
Nd1041 O1066 2.500 . S
Nd1041 O1067 2.492 . S
Nd1041 O1068 2.487 . S
Nd1041 O1069 2.682 . S
Nd1041 O1070 2.410 . S
C1042 Nd1040 2.836 . S
C1042 C1043 1.498 . S
C1042 O1060 1.258 . S
C1042 O1061 1.239 . S
C1043 C1042 1.498 . S
C1043 C1044 1.366 . S
C1043 C1048 1.407 . S
C1044 C1043 1.366 . S
C1044 C1045 1.392 . S
C1044 H1072 0.930 . S
C1045 C1044 1.392 . S
C1045 C1046 1.398 . S
C1045 H1073 0.929 . S
C1046 C1045 1.398 . S
C1046 C1047 1.352 . S
C1047 C1046 1.352 . S
C1047 C1048 1.384 . S
C1047 H1074 0.930 . S
C1048 C1043 1.407 . S
C1048 C1047 1.384 . S
C1048 H1075 0.929 . S
C1049 O1062 1.241 . S
C1049 O1063 1.273 . S
C1050 O1064 1.251 . S
C1050 O1065 1.268 . S
C1051 Nd1041 2.836 . S
C1051 C1052 1.498 . S
C1051 O1066 1.258 . S
C1051 O1067 1.239 . S
C1052 C1051 1.498 . S
C1052 C1053 1.366 . S
C1052 C1057 1.407 . S
C1053 C1052 1.366 . S
C1053 C1054 1.392 . S
C1053 H1076 0.930 . S
C1054 C1053 1.392 . S
C1054 C1055 1.398 . S
C1054 H1077 0.929 . S
C1055 C1054 1.398 . S
C1055 C1056 1.352 . S
C1056 C1055 1.352 . S
C1056 C1057 1.384 . S
C1056 H1078 0.930 . S
C1057 C1052 1.407 . S
C1057 C1056 1.384 . S
C1057 H1079 0.929 . S
C1058 O1068 1.241 . S
C1058 O1069 1.273 . S
C1059 O1070 1.251 . S
C1059 O1071 1.268 . S
O1060 Nd1040 2.500 . S
O1060 C1042 1.258 . S
O1061 Nd1040 2.492 . S
O1061 C1042 1.239 . S
O1062 Nd1040 2.487 . S
O1062 C1049 1.241 . S
O1063 Nd1040 2.682 . S
O1063 Nd1041 2.414 . S
O1063 C1049 1.273 . S
O1064 Nd1040 2.410 . S
O1064 C1050 1.251 . S
O1065 Nd1041 2.424 . S
O1065 C1050 1.268 . S
O1066 Nd1041 2.500 . S
O1066 C1051 1.258 . S
O1067 Nd1041 2.492 . S
O1067 C1051 1.239 . S
O1068 Nd1041 2.487 . S
O1068 C1058 1.241 . S
O1069 Nd1040 2.414 . S
O1069 Nd1041 2.682 . S
O1069 C1058 1.273 . S
O1070 Nd1041 2.410 . S
O1070 C1059 1.251 . S
O1071 Nd1040 2.424 . S
O1071 C1059 1.268 . S
H1072 C1044 0.930 . S
H1073 C1045 0.929 . S
H1074 C1047 0.930 . S
H1075 C1048 0.929 . S
H1076 C1053 0.930 . S
H1077 C1054 0.929 . S
H1078 C1056 0.930 . S
H1079 C1057 0.929 . S
Nd1080 C1082 2.836 . S
Nd1080 O1100 2.500 . S
Nd1080 O1101 2.492 . S
Nd1080 O1102 2.487 . S
Nd1080 O1103 2.682 1_565 S
Nd1080 O1104 2.410 . S
Nd1080 O1109 2.414 . S
Nd1080 O1111 2.424 . S
Nd1081 C1091 2.836 . S
Nd1081 O1103 2.414 . S
Nd1081 O1105 2.424 . S
Nd1081 O1106 2.500 . S
Nd1081 O1107 2.492 . S
Nd1081 O1108 2.487 . S
Nd1081 O1109 2.682 1_545 S
Nd1081 O1110 2.410 . S
C1082 Nd1080 2.836 . S
C1082 C1083 1.498 . S
C1082 O1100 1.258 . S
C1082 O1101 1.239 . S
C1083 C1082 1.498 . S
C1083 C1084 1.366 . S
C1083 C1088 1.407 . S
C1084 C1083 1.366 . S
C1084 C1085 1.392 . S
C1084 H1112 0.930 . S
C1085 C1084 1.392 . S
C1085 C1086 1.398 . S
C1085 H1113 0.929 . S
C1086 C1085 1.398 . S
C1086 C1087 1.352 . S
C1087 C1086 1.352 . S
C1087 C1088 1.384 . S
C1087 H1114 0.930 . S
C1088 C1083 1.407 . S
C1088 C1087 1.384 . S
C1088 H1115 0.929 . S
C1089 O1102 1.241 . S
C1089 O1103 1.273 1_565 S
C1090 O1104 1.251 . S
C1090 O1105 1.268 1_565 S
C1091 Nd1081 2.836 . S
C1091 C1092 1.498 . S
C1091 O1106 1.258 . S
C1091 O1107 1.239 . S
C1092 C1091 1.498 . S
C1092 C1093 1.366 . S
C1092 C1097 1.407 . S
C1093 C1092 1.366 . S
C1093 C1094 1.392 . S
C1093 H1116 0.930 . S
C1094 C1093 1.392 . S
C1094 C1095 1.398 . S
C1094 H1117 0.929 . S
C1095 C1094 1.398 . S
C1095 C1096 1.352 . S
C1096 C1095 1.352 . S
C1096 C1097 1.384 . S
C1096 H1118 0.930 . S
C1097 C1092 1.407 . S
C1097 C1096 1.384 . S
C1097 H1119 0.929 . S
C1098 O1108 1.241 . S
C1098 O1109 1.273 1_545 S
C1099 O1110 1.251 . S
C1099 O1111 1.268 1_545 S
O1100 Nd1080 2.500 . S
O1100 C1082 1.258 . S
O1101 Nd1080 2.492 . S
O1101 C1082 1.239 . S
O1102 Nd1080 2.487 . S
O1102 C1089 1.241 . S
O1103 Nd1080 2.682 1_545 S
O1103 Nd1081 2.414 . S
O1103 C1089 1.273 1_545 S
O1104 Nd1080 2.410 . S
O1104 C1090 1.251 . S
O1105 Nd1081 2.424 . S
O1105 C1090 1.268 1_545 S
O1106 Nd1081 2.500 . S
O1106 C1091 1.258 . S
O1107 Nd1081 2.492 . S
O1107 C1091 1.239 . S
O1108 Nd1081 2.487 . S
O1108 C1098 1.241 . S
O1109 Nd1080 2.414 . S
O1109 Nd1081 2.682 1_565 S
O1109 C1098 1.273 1_565 S
O1110 Nd1081 2.410 . S
O1110 C1099 1.251 . S
O1111 Nd1080 2.424 . S
O1111 C1099 1.268 1_565 S
H1112 C1084 0.930 . S
H1113 C1085 0.929 . S
H1114 C1087 0.930 . S
H1115 C1088 0.929 . S
H1116 C1093 0.930 . S
H1117 C1094 0.929 . S
H1118 C1096 0.930 . S
H1119 C1097 0.929 . S
Nd1120 C1122 2.836 . S
Nd1120 O1140 2.500 . S
Nd1120 O1141 2.492 . S
Nd1120 O1142 2.487 . S
Nd1120 O1143 2.682 1_565 S
Nd1120 O1144 2.410 . S
Nd1120 O1149 2.414 . S
Nd1120 O1151 2.424 . S
Nd1121 C1131 2.836 . S
Nd1121 O1143 2.414 . S
Nd1121 O1145 2.424 . S
Nd1121 O1146 2.500 . S
Nd1121 O1147 2.492 . S
Nd1121 O1148 2.487 . S
Nd1121 O1149 2.682 1_545 S
Nd1121 O1150 2.410 . S
C1122 Nd1120 2.836 . S
C1122 C1123 1.498 . S
C1122 O1140 1.258 . S
C1122 O1141 1.239 . S
C1123 C1122 1.498 . S
C1123 C1124 1.366 . S
C1123 C1128 1.407 . S
C1124 C1123 1.366 . S
C1124 C1125 1.392 . S
C1124 H1152 0.930 . S
C1125 C1124 1.392 . S
C1125 C1126 1.398 . S
C1125 H1153 0.929 . S
C1126 C1125 1.398 . S
C1126 C1127 1.352 . S
C1127 C1126 1.352 . S
C1127 C1128 1.384 . S
C1127 H1154 0.930 . S
C1128 C1123 1.407 . S
C1128 C1127 1.384 . S
C1128 H1155 0.929 . S
C1129 O1142 1.241 . S
C1129 O1143 1.273 1_565 S
C1130 O1144 1.251 . S
C1130 O1145 1.268 1_565 S
C1131 Nd1121 2.836 . S
C1131 C1132 1.498 . S
C1131 O1146 1.258 . S
C1131 O1147 1.239 . S
C1132 C1131 1.498 . S
C1132 C1133 1.366 . S
C1132 C1137 1.407 . S
C1133 C1132 1.366 . S
C1133 C1134 1.392 . S
C1133 H1156 0.930 . S
C1134 C1133 1.392 . S
C1134 C1135 1.398 . S
C1134 H1157 0.929 . S
C1135 C1134 1.398 . S
C1135 C1136 1.352 . S
C1136 C1135 1.352 . S
C1136 C1137 1.384 . S
C1136 H1158 0.930 . S
C1137 C1132 1.407 . S
C1137 C1136 1.384 . S
C1137 H1159 0.929 . S
C1138 O1148 1.241 . S
C1138 O1149 1.273 1_545 S
C1139 O1150 1.251 . S
C1139 O1151 1.268 1_545 S
O1140 Nd1120 2.500 . S
O1140 C1122 1.258 . S
O1141 Nd1120 2.492 . S
O1141 C1122 1.239 . S
O1142 Nd1120 2.487 . S
O1142 C1129 1.241 . S
O1143 Nd1120 2.682 1_545 S
O1143 Nd1121 2.414 . S
O1143 C1129 1.273 1_545 S
O1144 Nd1120 2.410 . S
O1144 C1130 1.251 . S
O1145 Nd1121 2.424 . S
O1145 C1130 1.268 1_545 S
O1146 Nd1121 2.500 . S
O1146 C1131 1.258 . S
O1147 Nd1121 2.492 . S
O1147 C1131 1.239 . S
O1148 Nd1121 2.487 . S
O1148 C1138 1.241 . S
O1149 Nd1120 2.414 . S
O1149 Nd1121 2.682 1_565 S
O1149 C1138 1.273 1_565 S
O1150 Nd1121 2.410 . S
O1150 C1139 1.251 . S
O1151 Nd1120 2.424 . S
O1151 C1139 1.268 1_565 S
H1152 C1124 0.930 . S
H1153 C1125 0.929 . S
H1154 C1127 0.930 . S
H1155 C1128 0.929 . S
H1156 C1133 0.930 . S
H1157 C1134 0.929 . S
H1158 C1136 0.930 . S
H1159 C1137 0.929 . S
Nd1160 C1162 2.836 . S
Nd1160 O1180 2.500 . S
Nd1160 O1181 2.492 . S
Nd1160 O1182 2.487 . S
Nd1160 O1183 2.682 . S
Nd1160 O1184 2.410 . S
Nd1160 O1189 2.414 . S
Nd1160 O1191 2.424 . S
Nd1161 C1171 2.836 . S
Nd1161 O1183 2.414 . S
Nd1161 O1185 2.424 . S
Nd1161 O1186 2.500 . S
Nd1161 O1187 2.492 . S
Nd1161 O1188 2.487 . S
Nd1161 O1189 2.682 . S
Nd1161 O1190 2.410 . S
C1162 Nd1160 2.836 . S
C1162 C1163 1.498 . S
C1162 O1180 1.258 . S
C1162 O1181 1.239 . S
C1163 C1162 1.498 . S
C1163 C1164 1.366 . S
C1163 C1168 1.407 . S
C1164 C1163 1.366 . S
C1164 C1165 1.392 . S
C1164 H1192 0.930 . S
C1165 C1164 1.392 . S
C1165 C1166 1.398 . S
C1165 H1193 0.929 . S
C1166 C1165 1.398 . S
C1166 C1167 1.352 . S
C1167 C1166 1.352 . S
C1167 C1168 1.384 . S
C1167 H1194 0.930 . S
C1168 C1163 1.407 . S
C1168 C1167 1.384 . S
C1168 H1195 0.929 . S
C1169 O1182 1.241 . S
C1169 O1183 1.273 . S
C1170 O1184 1.251 . S
C1170 O1185 1.268 . S
C1171 Nd1161 2.836 . S
C1171 C1172 1.498 . S
C1171 O1186 1.258 . S
C1171 O1187 1.239 . S
C1172 C1171 1.498 . S
C1172 C1173 1.366 . S
C1172 C1177 1.407 . S
C1173 C1172 1.366 . S
C1173 C1174 1.392 . S
C1173 H1196 0.930 . S
C1174 C1173 1.392 . S
C1174 C1175 1.398 . S
C1174 H1197 0.929 . S
C1175 C1174 1.398 . S
C1175 C1176 1.352 . S
C1176 C1175 1.352 . S
C1176 C1177 1.384 . S
C1176 H1198 0.930 . S
C1177 C1172 1.407 . S
C1177 C1176 1.384 . S
C1177 H1199 0.929 . S
C1178 O1188 1.241 . S
C1178 O1189 1.273 . S
C1179 O1190 1.251 . S
C1179 O1191 1.268 . S
O1180 Nd1160 2.500 . S
O1180 C1162 1.258 . S
O1181 Nd1160 2.492 . S
O1181 C1162 1.239 . S
O1182 Nd1160 2.487 . S
O1182 C1169 1.241 . S
O1183 Nd1160 2.682 . S
O1183 Nd1161 2.414 . S
O1183 C1169 1.273 . S
O1184 Nd1160 2.410 . S
O1184 C1170 1.251 . S
O1185 Nd1161 2.424 . S
O1185 C1170 1.268 . S
O1186 Nd1161 2.500 . S
O1186 C1171 1.258 . S
O1187 Nd1161 2.492 . S
O1187 C1171 1.239 . S
O1188 Nd1161 2.487 . S
O1188 C1178 1.241 . S
O1189 Nd1160 2.414 . S
O1189 Nd1161 2.682 . S
O1189 C1178 1.273 . S
O1190 Nd1161 2.410 . S
O1190 C1179 1.251 . S
O1191 Nd1160 2.424 . S
O1191 C1179 1.268 . S
H1192 C1164 0.930 . S
H1193 C1165 0.929 . S
H1194 C1167 0.930 . S
H1195 C1168 0.929 . S
H1196 C1173 0.930 . S
H1197 C1174 0.929 . S
H1198 C1176 0.930 . S
H1199 C1177 0.929 . S
Nd1200 C1202 2.836 . S
Nd1200 O1220 2.500 . S
Nd1200 O1221 2.492 . S
Nd1200 O1222 2.487 . S
Nd1200 O1223 2.682 . S
Nd1200 O1224 2.410 . S
Nd1200 O1229 2.414 . S
Nd1200 O1231 2.424 . S
Nd1201 C1211 2.836 . S
Nd1201 O1223 2.414 . S
Nd1201 O1225 2.424 . S
Nd1201 O1226 2.500 . S
Nd1201 O1227 2.492 . S
Nd1201 O1228 2.487 . S
Nd1201 O1229 2.682 . S
Nd1201 O1230 2.410 . S
C1202 Nd1200 2.836 . S
C1202 C1203 1.498 . S
C1202 O1220 1.258 . S
C1202 O1221 1.239 . S
C1203 C1202 1.498 . S
C1203 C1204 1.366 . S
C1203 C1208 1.407 . S
C1204 C1203 1.366 . S
C1204 C1205 1.392 . S
C1204 H1232 0.930 . S
C1205 C1204 1.392 . S
C1205 C1206 1.398 . S
C1205 H1233 0.929 . S
C1206 C1205 1.398 . S
C1206 C1207 1.352 . S
C1207 C1206 1.352 . S
C1207 C1208 1.384 . S
C1207 H1234 0.930 . S
C1208 C1203 1.407 . S
C1208 C1207 1.384 . S
C1208 H1235 0.929 . S
C1209 O1222 1.241 . S
C1209 O1223 1.273 . S
C1210 O1224 1.251 . S
C1210 O1225 1.268 . S
C1211 Nd1201 2.836 . S
C1211 C1212 1.498 . S
C1211 O1226 1.258 . S
C1211 O1227 1.239 . S
C1212 C1211 1.498 . S
C1212 C1213 1.366 . S
C1212 C1217 1.407 . S
C1213 C1212 1.366 . S
C1213 C1214 1.392 . S
C1213 H1236 0.930 . S
C1214 C1213 1.392 . S
C1214 C1215 1.398 . S
C1214 H1237 0.929 . S
C1215 C1214 1.398 . S
C1215 C1216 1.352 . S
C1216 C1215 1.352 . S
C1216 C1217 1.384 . S
C1216 H1238 0.930 . S
C1217 C1212 1.407 . S
C1217 C1216 1.384 . S
C1217 H1239 0.929 . S
C1218 O1228 1.241 . S
C1218 O1229 1.273 . S
C1219 O1230 1.251 . S
C1219 O1231 1.268 . S
O1220 Nd1200 2.500 . S
O1220 C1202 1.258 . S
O1221 Nd1200 2.492 . S
O1221 C1202 1.239 . S
O1222 Nd1200 2.487 . S
O1222 C1209 1.241 . S
O1223 Nd1200 2.682 . S
O1223 Nd1201 2.414 . S
O1223 C1209 1.273 . S
O1224 Nd1200 2.410 . S
O1224 C1210 1.251 . S
O1225 Nd1201 2.424 . S
O1225 C1210 1.268 . S
O1226 Nd1201 2.500 . S
O1226 C1211 1.258 . S
O1227 Nd1201 2.492 . S
O1227 C1211 1.239 . S
O1228 Nd1201 2.487 . S
O1228 C1218 1.241 . S
O1229 Nd1200 2.414 . S
O1229 Nd1201 2.682 . S
O1229 C1218 1.273 . S
O1230 Nd1201 2.410 . S
O1230 C1219 1.251 . S
O1231 Nd1200 2.424 . S
O1231 C1219 1.268 . S
H1232 C1204 0.930 . S
H1233 C1205 0.929 . S
H1234 C1207 0.930 . S
H1235 C1208 0.929 . S
H1236 C1213 0.930 . S
H1237 C1214 0.929 . S
H1238 C1216 0.930 . S
H1239 C1217 0.929 . S
Nd1240 C1242 2.836 . S
Nd1240 O1260 2.500 . S
Nd1240 O1261 2.492 . S
Nd1240 O1262 2.487 . S
Nd1240 O1263 2.682 1_565 S
Nd1240 O1264 2.410 . S
Nd1240 O1269 2.414 . S
Nd1240 O1271 2.424 . S
Nd1241 C1251 2.836 . S
Nd1241 O1263 2.414 . S
Nd1241 O1265 2.424 . S
Nd1241 O1266 2.500 . S
Nd1241 O1267 2.492 . S
Nd1241 O1268 2.487 . S
Nd1241 O1269 2.682 1_545 S
Nd1241 O1270 2.410 . S
C1242 Nd1240 2.836 . S
C1242 C1243 1.498 . S
C1242 O1260 1.258 . S
C1242 O1261 1.239 . S
C1243 C1242 1.498 . S
C1243 C1244 1.366 . S
C1243 C1248 1.407 . S
C1244 C1243 1.366 . S
C1244 C1245 1.392 . S
C1244 H1272 0.930 . S
C1245 C1244 1.392 . S
C1245 C1246 1.398 . S
C1245 H1273 0.929 . S
C1246 C1245 1.398 . S
C1246 C1247 1.352 . S
C1247 C1246 1.352 . S
C1247 C1248 1.384 . S
C1247 H1274 0.930 . S
C1248 C1243 1.407 . S
C1248 C1247 1.384 . S
C1248 H1275 0.929 . S
C1249 O1262 1.241 . S
C1249 O1263 1.273 1_565 S
C1250 O1264 1.251 . S
C1250 O1265 1.268 1_565 S
C1251 Nd1241 2.836 . S
C1251 C1252 1.498 . S
C1251 O1266 1.258 . S
C1251 O1267 1.239 . S
C1252 C1251 1.498 . S
C1252 C1253 1.366 . S
C1252 C1257 1.407 . S
C1253 C1252 1.366 . S
C1253 C1254 1.392 . S
C1253 H1276 0.930 . S
C1254 C1253 1.392 . S
C1254 C1255 1.398 . S
C1254 H1277 0.929 . S
C1255 C1254 1.398 . S
C1255 C1256 1.352 . S
C1256 C1255 1.352 . S
C1256 C1257 1.384 . S
C1256 H1278 0.930 . S
C1257 C1252 1.407 . S
C1257 C1256 1.384 . S
C1257 H1279 0.929 . S
C1258 O1268 1.241 . S
C1258 O1269 1.273 1_545 S
C1259 O1270 1.251 . S
C1259 O1271 1.268 1_545 S
O1260 Nd1240 2.500 . S
O1260 C1242 1.258 . S
O1261 Nd1240 2.492 . S
O1261 C1242 1.239 . S
O1262 Nd1240 2.487 . S
O1262 C1249 1.241 . S
O1263 Nd1240 2.682 1_545 S
O1263 Nd1241 2.414 . S
O1263 C1249 1.273 1_545 S
O1264 Nd1240 2.410 . S
O1264 C1250 1.251 . S
O1265 Nd1241 2.424 . S
O1265 C1250 1.268 1_545 S
O1266 Nd1241 2.500 . S
O1266 C1251 1.258 . S
O1267 Nd1241 2.492 . S
O1267 C1251 1.239 . S
O1268 Nd1241 2.487 . S
O1268 C1258 1.241 . S
O1269 Nd1240 2.414 . S
O1269 Nd1241 2.682 1_565 S
O1269 C1258 1.273 1_565 S
O1270 Nd1241 2.410 . S
O1270 C1259 1.251 . S
O1271 Nd1240 2.424 . S
O1271 C1259 1.268 1_565 S
H1272 C1244 0.930 . S
H1273 C1245 0.929 . S
H1274 C1247 0.930 . S
H1275 C1248 0.929 . S
H1276 C1253 0.930 . S
H1277 C1254 0.929 . S
H1278 C1256 0.930 . S
H1279 C1257 0.929 . S
C1280 C1281 1.391 . S
C1280 C1282 1.394 . S
C1280 H1296 0.931 . S
C1281 C1280 1.391 . S
C1281 C1285 1.376 . S
C1282 C1280 1.394 . S
C1282 C1283 1.369 . S
C1282 C1286 1.531 . S
C1283 C1282 1.369 . S
C1283 C1284 1.410 . S
C1283 C1291 1.503 . S
C1284 C1283 1.410 . S
C1284 C1285 1.392 . S
C1284 C1287 1.511 . S
C1285 C1281 1.376 . S
C1285 C1284 1.392 . S
C1285 H1297 0.929 . S
C1286 C1282 1.531 . S
C1286 H1298 0.960 . S
C1286 H1299 0.962 . S
C1286 H1300 0.960 . S
C1287 C1284 1.511 . S
C1287 H1301 0.961 1_655 S
C1287 H1302 0.961 . S
C1287 H1303 0.961 . S
C1288 C1289 1.370 . S
C1288 C1290 1.363 . S
C1288 H1304 0.931 . S
C1289 C1288 1.370 . S
C1289 C1293 1.408 . S
C1290 C1288 1.363 . S
C1290 C1291 1.370 . S
C1290 C1294 1.524 . S
C1291 C1283 1.503 . S
C1291 C1290 1.370 . S
C1291 C1292 1.403 . S
C1292 C1291 1.403 . S
C1292 C1293 1.404 . S
C1292 C1295 1.539 . S
C1293 C1289 1.408 . S
C1293 C1292 1.404 . S
C1293 H1305 0.930 . S
C1294 C1290 1.524 . S
C1294 H1306 0.956 . S
C1294 H1307 0.961 . S
C1294 H1308 0.961 1_655 S
C1295 C1292 1.539 . S
C1295 H1309 0.958 . S
C1295 H1310 0.961 . S
C1295 H1311 0.960 . S
H1296 C1280 0.931 . S
H1297 C1285 0.929 . S
H1298 C1286 0.960 . S
H1299 C1286 0.962 . S
H1300 C1286 0.960 . S
H1301 C1287 0.961 1_455 S
H1302 C1287 0.961 . S
H1303 C1287 0.961 . S
H1304 C1288 0.931 . S
H1305 C1293 0.930 . S
H1306 C1294 0.956 . S
H1307 C1294 0.961 . S
H1308 C1294 0.961 1_455 S
H1309 C1295 0.958 . S
H1310 C1295 0.961 . S
H1311 C1295 0.960 . S
C1312 C1313 1.391 . S
C1312 C1314 1.394 . S
C1312 H1328 0.931 . S
C1313 C1312 1.391 . S
C1313 C1317 1.376 . S
C1314 C1312 1.394 . S
C1314 C1315 1.369 . S
C1314 C1318 1.531 . S
C1315 C1314 1.369 . S
C1315 C1316 1.410 . S
C1315 C1323 1.503 . S
C1316 C1315 1.410 . S
C1316 C1317 1.392 . S
C1316 C1319 1.511 . S
C1317 C1313 1.376 . S
C1317 C1316 1.392 . S
C1317 H1329 0.929 . S
C1318 C1314 1.531 . S
C1318 H1330 0.960 . S
C1318 H1331 0.962 . S
C1318 H1332 0.960 . S
C1319 C1316 1.511 . S
C1319 H1333 0.961 . S
C1319 H1334 0.961 . S
C1319 H1335 0.961 . S
C1320 C1321 1.370 . S
C1320 C1322 1.363 . S
C1320 H1336 0.931 . S
C1321 C1320 1.370 . S
C1321 C1325 1.408 . S
C1322 C1320 1.363 . S
C1322 C1323 1.370 . S
C1322 C1326 1.524 . S
C1323 C1315 1.503 . S
C1323 C1322 1.370 . S
C1323 C1324 1.403 . S
C1324 C1323 1.403 . S
C1324 C1325 1.404 . S
C1324 C1327 1.539 . S
C1325 C1321 1.408 . S
C1325 C1324 1.404 . S
C1325 H1337 0.930 . S
C1326 C1322 1.524 . S
C1326 H1338 0.956 . S
C1326 H1339 0.961 . S
C1326 H1340 0.961 . S
C1327 C1324 1.539 . S
C1327 H1341 0.958 . S
C1327 H1342 0.961 . S
C1327 H1343 0.960 . S
H1328 C1312 0.931 . S
H1329 C1317 0.929 . S
H1330 C1318 0.960 . S
H1331 C1318 0.962 . S
H1332 C1318 0.960 . S
H1333 C1319 0.961 . S
H1334 C1319 0.961 . S
H1335 C1319 0.961 . S
H1336 C1320 0.931 . S
H1337 C1325 0.930 . S
H1338 C1326 0.956 . S
H1339 C1326 0.961 . S
H1340 C1326 0.961 . S
H1341 C1327 0.958 . S
H1342 C1327 0.961 . S
H1343 C1327 0.960 . S
C1344 C1345 1.391 . S
C1344 C1346 1.394 . S
C1344 H1360 0.931 . S
C1345 C1344 1.391 . S
C1345 C1349 1.376 . S
C1346 C1344 1.394 . S
C1346 C1347 1.369 . S
C1346 C1350 1.531 . S
C1347 C1346 1.369 . S
C1347 C1348 1.410 . S
C1347 C1355 1.503 . S
C1348 C1347 1.410 . S
C1348 C1349 1.392 . S
C1348 C1351 1.511 . S
C1349 C1345 1.376 . S
C1349 C1348 1.392 . S
C1349 H1361 0.929 . S
C1350 C1346 1.531 . S
C1350 H1362 0.960 . S
C1350 H1363 0.962 . S
C1350 H1364 0.960 . S
C1351 C1348 1.511 . S
C1351 H1365 0.961 . S
C1351 H1366 0.961 . S
C1351 H1367 0.961 . S
C1352 C1353 1.370 . S
C1352 C1354 1.363 . S
C1352 H1368 0.931 . S
C1353 C1352 1.370 . S
C1353 C1357 1.408 . S
C1354 C1352 1.363 . S
C1354 C1355 1.370 . S
C1354 C1358 1.524 . S
C1355 C1347 1.503 . S
C1355 C1354 1.370 . S
C1355 C1356 1.403 . S
C1356 C1355 1.403 . S
C1356 C1357 1.404 . S
C1356 C1359 1.539 . S
C1357 C1353 1.408 . S
C1357 C1356 1.404 . S
C1357 H1369 0.930 . S
C1358 C1354 1.524 . S
C1358 H1370 0.956 1_655 S
C1358 H1371 0.961 . S
C1358 H1372 0.961 1_655 S
C1359 C1356 1.539 . S
C1359 H1373 0.958 . S
C1359 H1374 0.961 . S
C1359 H1375 0.960 . S
H1360 C1344 0.931 . S
H1361 C1349 0.929 . S
H1362 C1350 0.960 . S
H1363 C1350 0.962 . S
H1364 C1350 0.960 . S
H1365 C1351 0.961 . S
H1366 C1351 0.961 . S
H1367 C1351 0.961 . S
H1368 C1352 0.931 . S
H1369 C1357 0.930 . S
H1370 C1358 0.956 1_455 S
H1371 C1358 0.961 . S
H1372 C1358 0.961 1_455 S
H1373 C1359 0.958 . S
H1374 C1359 0.961 . S
H1375 C1359 0.960 . S
C1376 C1377 1.391 . S
C1376 C1378 1.394 . S
C1376 H1392 0.931 . S
C1377 C1376 1.391 . S
C1377 C1381 1.376 . S
C1378 C1376 1.394 . S
C1378 C1379 1.369 . S
C1378 C1382 1.531 . S
C1379 C1378 1.369 . S
C1379 C1380 1.410 . S
C1379 C1387 1.503 . S
C1380 C1379 1.410 . S
C1380 C1381 1.392 . S
C1380 C1383 1.511 . S
C1381 C1377 1.376 . S
C1381 C1380 1.392 . S
C1381 H1393 0.929 . S
C1382 C1378 1.531 . S
C1382 H1394 0.960 . S
C1382 H1395 0.962 . S
C1382 H1396 0.960 . S
C1383 C1380 1.511 . S
C1383 H1397 0.961 . S
C1383 H1398 0.961 . S
C1383 H1399 0.961 . S
C1384 C1385 1.370 . S
C1384 C1386 1.363 . S
C1384 H1400 0.931 . S
C1385 C1384 1.370 . S
C1385 C1389 1.408 . S
C1386 C1384 1.363 . S
C1386 C1387 1.370 . S
C1386 C1390 1.524 . S
C1387 C1379 1.503 . S
C1387 C1386 1.370 . S
C1387 C1388 1.403 . S
C1388 C1387 1.403 . S
C1388 C1389 1.404 . S
C1388 C1391 1.539 . S
C1389 C1385 1.408 . S
C1389 C1388 1.404 . S
C1389 H1401 0.930 . S
C1390 C1386 1.524 . S
C1390 H1402 0.956 . S
C1390 H1403 0.961 . S
C1390 H1404 0.961 . S
C1391 C1388 1.539 . S
C1391 H1405 0.958 . S
C1391 H1406 0.961 . S
C1391 H1407 0.960 . S
H1392 C1376 0.931 . S
H1393 C1381 0.929 . S
H1394 C1382 0.960 . S
H1395 C1382 0.962 . S
H1396 C1382 0.960 . S
H1397 C1383 0.961 . S
H1398 C1383 0.961 . S
H1399 C1383 0.961 . S
H1400 C1384 0.931 . S
H1401 C1389 0.930 . S
H1402 C1390 0.956 . S
H1403 C1390 0.961 . S
H1404 C1390 0.961 . S
H1405 C1391 0.958 . S
H1406 C1391 0.961 . S
H1407 C1391 0.960 . S
C1408 C1409 1.391 . S
C1408 C1410 1.394 . S
C1408 H1424 0.931 . S
C1409 C1408 1.391 . S
C1409 C1413 1.376 . S
C1410 C1408 1.394 . S
C1410 C1411 1.369 . S
C1410 C1414 1.531 . S
C1411 C1410 1.369 . S
C1411 C1412 1.410 . S
C1411 C1419 1.503 . S
C1412 C1411 1.410 . S
C1412 C1413 1.392 . S
C1412 C1415 1.511 . S
C1413 C1409 1.376 . S
C1413 C1412 1.392 . S
C1413 H1425 0.929 . S
C1414 C1410 1.531 . S
C1414 H1426 0.960 . S
C1414 H1427 0.962 . S
C1414 H1428 0.960 . S
C1415 C1412 1.511 . S
C1415 H1429 0.961 . S
C1415 H1430 0.961 . S
C1415 H1431 0.961 . S
C1416 C1417 1.370 . S
C1416 C1418 1.363 . S
C1416 H1432 0.926 1_455 S
C1417 C1416 1.370 . S
C1417 C1421 1.408 . S
C1418 C1416 1.363 . S
C1418 C1419 1.370 . S
C1418 C1422 1.524 . S
C1419 C1411 1.503 . S
C1419 C1418 1.370 . S
C1419 C1420 1.403 . S
C1420 C1419 1.403 . S
C1420 C1421 1.404 . S
C1420 C1423 1.539 . S
C1421 C1417 1.408 . S
C1421 C1420 1.404 . S
C1421 H1433 0.930 . S
C1422 C1418 1.524 . S
C1422 H1434 0.956 1_455 S
C1422 H1435 0.961 . S
C1422 H1436 0.961 1_455 S
C1423 C1420 1.539 . S
C1423 H1437 0.958 . S
C1423 H1438 0.961 . S
C1423 H1439 0.960 . S
H1424 C1408 0.931 . S
H1425 C1413 0.929 . S
H1426 C1414 0.960 . S
H1427 C1414 0.962 . S
H1428 C1414 0.960 . S
H1429 C1415 0.961 . S
H1430 C1415 0.961 . S
H1431 C1415 0.961 . S
H1432 C1416 0.926 1_655 S
H1433 C1421 0.930 . S
H1434 C1422 0.956 1_655 S
H1435 C1422 0.961 . S
H1436 C1422 0.961 1_655 S
H1437 C1423 0.958 . S
H1438 C1423 0.961 . S
H1439 C1423 0.960 . S
C1440 C1441 1.391 . S
C1440 C1442 1.394 . S
C1440 H1456 0.931 . S
C1441 C1440 1.391 . S
C1441 C1445 1.376 . S
C1442 C1440 1.394 . S
C1442 C1443 1.369 . S
C1442 C1446 1.531 . S
C1443 C1442 1.369 . S
C1443 C1444 1.410 . S
C1443 C1451 1.503 . S
C1444 C1443 1.410 . S
C1444 C1445 1.392 . S
C1444 C1447 1.511 . S
C1445 C1441 1.376 . S
C1445 C1444 1.392 . S
C1445 H1457 0.929 . S
C1446 C1442 1.531 . S
C1446 H1458 0.960 . S
C1446 H1459 0.962 . S
C1446 H1460 0.960 . S
C1447 C1444 1.511 . S
C1447 H1461 0.961 . S
C1447 H1462 0.961 . S
C1447 H1463 0.961 . S
C1448 C1449 1.370 . S
C1448 C1450 1.363 . S
C1448 H1464 0.931 . S
C1449 C1448 1.370 . S
C1449 C1453 1.408 . S
C1450 C1448 1.363 . S
C1450 C1451 1.370 . S
C1450 C1454 1.524 . S
C1451 C1443 1.503 . S
C1451 C1450 1.370 . S
C1451 C1452 1.403 . S
C1452 C1451 1.403 . S
C1452 C1453 1.404 . S
C1452 C1455 1.539 . S
C1453 C1449 1.408 . S
C1453 C1452 1.404 . S
C1453 H1465 0.930 . S
C1454 C1450 1.524 . S
C1454 H1466 0.956 . S
C1454 H1467 0.961 . S
C1454 H1468 0.961 . S
C1455 C1452 1.539 . S
C1455 H1469 0.958 . S
C1455 H1470 0.961 . S
C1455 H1471 0.960 . S
H1456 C1440 0.931 . S
H1457 C1445 0.929 . S
H1458 C1446 0.960 . S
H1459 C1446 0.962 . S
H1460 C1446 0.960 . S
H1461 C1447 0.961 . S
H1462 C1447 0.961 . S
H1463 C1447 0.961 . S
H1464 C1448 0.931 . S
H1465 C1453 0.930 . S
H1466 C1454 0.956 . S
H1467 C1454 0.961 . S
H1468 C1454 0.961 . S
H1469 C1455 0.958 . S
H1470 C1455 0.961 . S
H1471 C1455 0.960 . S
C1472 C1473 1.391 . S
C1472 C1474 1.394 . S
C1472 H1488 0.931 . S
C1473 C1472 1.391 . S
C1473 C1477 1.376 . S
C1474 C1472 1.394 . S
C1474 C1475 1.369 . S
C1474 C1478 1.531 . S
C1475 C1474 1.369 . S
C1475 C1476 1.410 . S
C1475 C1483 1.503 . S
C1476 C1475 1.410 . S
C1476 C1477 1.392 . S
C1476 C1479 1.511 1_455 S
C1477 C1473 1.376 . S
C1477 C1476 1.392 . S
C1477 H1489 0.929 . S
C1478 C1474 1.531 . S
C1478 H1490 0.960 . S
C1478 H1491 0.962 . S
C1478 H1492 0.960 . S
C1479 C1476 1.511 1_655 S
C1479 H1493 0.961 . S
C1479 H1494 0.962 . S
C1479 H1495 0.961 . S
C1480 C1481 1.370 . S
C1480 C1482 1.363 . S
C1480 H1496 0.931 . S
C1481 C1480 1.370 . S
C1481 C1485 1.408 . S
C1482 C1480 1.363 . S
C1482 C1483 1.370 . S
C1482 C1486 1.524 . S
C1483 C1475 1.503 . S
C1483 C1482 1.370 . S
C1483 C1484 1.403 . S
C1484 C1483 1.403 . S
C1484 C1485 1.404 . S
C1484 C1487 1.539 . S
C1485 C1481 1.408 . S
C1485 C1484 1.404 . S
C1485 H1497 0.930 . S
C1486 C1482 1.524 . S
C1486 H1498 0.956 . S
C1486 H1499 0.961 . S
C1486 H1500 0.961 . S
C1487 C1484 1.539 . S
C1487 H1501 0.958 . S
C1487 H1502 0.961 1_455 S
C1487 H1503 0.960 . S
H1488 C1472 0.931 . S
H1489 C1477 0.929 . S
H1490 C1478 0.960 . S
H1491 C1478 0.962 . S
H1492 C1478 0.960 . S
H1493 C1479 0.961 . S
H1494 C1479 0.962 . S
H1495 C1479 0.961 . S
H1496 C1480 0.931 . S
H1497 C1485 0.930 . S
H1498 C1486 0.956 . S
H1499 C1486 0.961 . S
H1500 C1486 0.961 . S
H1501 C1487 0.958 . S
H1502 C1487 0.961 1_655 S
H1503 C1487 0.960 . S
C1504 C1505 1.391 . S
C1504 C1506 1.394 . S
C1504 H1520 0.931 . S
C1505 C1504 1.391 . S
C1505 C1509 1.376 . S
C1506 C1504 1.394 . S
C1506 C1507 1.369 . S
C1506 C1510 1.531 . S
C1507 C1506 1.369 . S
C1507 C1508 1.410 . S
C1507 C1515 1.503 . S
C1508 C1507 1.410 . S
C1508 C1509 1.392 . S
C1508 C1511 1.511 . S
C1509 C1505 1.376 . S
C1509 C1508 1.392 . S
C1509 H1521 0.929 . S
C1510 C1506 1.531 . S
C1510 H1522 0.960 . S
C1510 H1523 0.962 . S
C1510 H1524 0.960 . S
C1511 C1508 1.511 . S
C1511 H1525 0.961 . S
C1511 H1526 0.961 . S
C1511 H1527 0.961 . S
C1512 C1513 1.370 . S
C1512 C1514 1.363 . S
C1512 H1528 0.931 . S
C1513 C1512 1.370 . S
C1513 C1517 1.408 . S
C1514 C1512 1.363 . S
C1514 C1515 1.370 . S
C1514 C1518 1.524 . S
C1515 C1507 1.503 . S
C1515 C1514 1.370 . S
C1515 C1516 1.403 . S
C1516 C1515 1.403 . S
C1516 C1517 1.404 . S
C1516 C1519 1.539 . S
C1517 C1513 1.408 . S
C1517 C1516 1.404 . S
C1517 H1529 0.930 . S
C1518 C1514 1.524 . S
C1518 H1530 0.956 . S
C1518 H1531 0.961 . S
C1518 H1532 0.961 . S
C1519 C1516 1.539 . S
C1519 H1533 0.958 . S
C1519 H1534 0.961 . S
C1519 H1535 0.960 . S
H1520 C1504 0.931 . S
H1521 C1509 0.929 . S
H1522 C1510 0.960 . S
H1523 C1510 0.962 . S
H1524 C1510 0.960 . S
H1525 C1511 0.961 . S
H1526 C1511 0.961 . S
H1527 C1511 0.961 . S
H1528 C1512 0.931 . S
H1529 C1517 0.930 . S
H1530 C1518 0.956 . S
H1531 C1518 0.961 . S
H1532 C1518 0.961 . S
H1533 C1519 0.958 . S
H1534 C1519 0.961 . S
H1535 C1519 0.960 . S
C1536 C1537 1.391 . S
C1536 C1538 1.394 . S
C1536 H1552 0.931 . S
C1537 C1536 1.391 . S
C1537 C1541 1.376 . S
C1538 C1536 1.394 . S
C1538 C1539 1.369 . S
C1538 C1542 1.531 . S
C1539 C1538 1.369 . S
C1539 C1540 1.410 . S
C1539 C1547 1.503 . S
C1540 C1539 1.410 . S
C1540 C1541 1.392 . S
C1540 C1543 1.511 1_655 S
C1541 C1537 1.376 . S
C1541 C1540 1.392 . S
C1541 H1553 0.929 . S
C1542 C1538 1.531 . S
C1542 H1554 0.960 . S
C1542 H1555 0.962 . S
C1542 H1556 0.960 . S
C1543 C1540 1.511 1_455 S
C1543 H1557 0.961 . S
C1543 H1558 0.961 . S
C1543 H1559 0.961 . S
C1544 C1545 1.370 . S
C1544 C1546 1.363 . S
C1544 H1560 0.931 . S
C1545 C1544 1.370 . S
C1545 C1549 1.408 . S
C1546 C1544 1.363 . S
C1546 C1547 1.370 . S
C1546 C1550 1.524 . S
C1547 C1539 1.503 . S
C1547 C1546 1.370 . S
C1547 C1548 1.403 . S
C1548 C1547 1.403 . S
C1548 C1549 1.404 . S
C1548 C1551 1.539 . S
C1549 C1545 1.408 . S
C1549 C1548 1.404 . S
C1549 H1561 0.930 . S
C1550 C1546 1.524 . S
C1550 H1562 0.956 . S
C1550 H1563 0.961 . S
C1550 H1564 0.961 . S
C1551 C1548 1.539 . S
C1551 H1565 0.958 . S
C1551 H1566 0.961 . S
C1551 H1567 0.960 . S
H1552 C1536 0.931 . S
H1553 C1541 0.929 . S
H1554 C1542 0.960 . S
H1555 C1542 0.962 . S
H1556 C1542 0.960 . S
H1557 C1543 0.961 . S
H1558 C1543 0.961 . S
H1559 C1543 0.961 . S
H1560 C1544 0.931 . S
H1561 C1549 0.930 . S
H1562 C1550 0.956 . S
H1563 C1550 0.961 . S
H1564 C1550 0.961 . S
H1565 C1551 0.958 . S
H1566 C1551 0.961 . S
H1567 C1551 0.960 . S
C1568 C1569 1.391 . S
C1568 C1570 1.394 . S
C1568 H1584 0.931 . S
C1569 C1568 1.391 . S
C1569 C1573 1.376 . S
C1570 C1568 1.394 . S
C1570 C1571 1.369 . S
C1570 C1574 1.531 . S
C1571 C1570 1.369 . S
C1571 C1572 1.410 . S
C1571 C1579 1.503 . S
C1572 C1571 1.410 . S
C1572 C1573 1.392 . S
C1572 C1575 1.511 . S
C1573 C1569 1.376 . S
C1573 C1572 1.392 . S
C1573 H1585 0.929 . S
C1574 C1570 1.531 . S
C1574 H1586 0.960 . S
C1574 H1587 0.962 . S
C1574 H1588 0.960 . S
C1575 C1572 1.511 . S
C1575 H1589 0.961 . S
C1575 H1590 0.961 . S
C1575 H1591 0.961 . S
C1576 C1577 1.370 . S
C1576 C1578 1.363 . S
C1576 H1592 0.931 . S
C1577 C1576 1.370 . S
C1577 C1581 1.408 . S
C1578 C1576 1.363 . S
C1578 C1579 1.370 . S
C1578 C1582 1.524 . S
C1579 C1571 1.503 . S
C1579 C1578 1.370 . S
C1579 C1580 1.403 . S
C1580 C1579 1.403 . S
C1580 C1581 1.404 . S
C1580 C1583 1.539 . S
C1581 C1577 1.408 . S
C1581 C1580 1.404 . S
C1581 H1593 0.930 . S
C1582 C1578 1.524 . S
C1582 H1594 0.956 . S
C1582 H1595 0.961 . S
C1582 H1596 0.961 . S
C1583 C1580 1.539 . S
C1583 H1597 0.958 . S
C1583 H1598 0.961 . S
C1583 H1599 0.960 . S
H1584 C1568 0.931 . S
H1585 C1573 0.929 . S
H1586 C1574 0.960 . S
H1587 C1574 0.962 . S
H1588 C1574 0.960 . S
H1589 C1575 0.961 . S
H1590 C1575 0.961 . S
H1591 C1575 0.961 . S
H1592 C1576 0.931 . S
H1593 C1581 0.930 . S
H1594 C1582 0.956 . S
H1595 C1582 0.961 . S
H1596 C1582 0.961 . S
H1597 C1583 0.958 . S
H1598 C1583 0.961 . S
H1599 C1583 0.960 . S
C1600 C1601 1.391 . S
C1600 C1602 1.394 . S
C1600 H1616 0.931 . S
C1601 C1600 1.391 . S
C1601 C1605 1.376 . S
C1602 C1600 1.394 . S
C1602 C1603 1.369 . S
C1602 C1606 1.531 1_655 S
C1603 C1602 1.369 . S
C1603 C1604 1.410 . S
C1603 C1611 1.503 . S
C1604 C1603 1.410 . S
C1604 C1605 1.392 . S
C1604 C1607 1.511 . S
C1605 C1601 1.376 . S
C1605 C1604 1.392 . S
C1605 H1617 0.929 . S
C1606 C1602 1.531 1_455 S
C1606 H1618 0.960 . S
C1606 H1619 0.962 . S
C1606 H1620 0.960 . S
C1607 C1604 1.511 . S
C1607 H1621 0.961 . S
C1607 H1622 0.961 . S
C1607 H1623 0.961 . S
C1608 C1609 1.370 . S
C1608 C1610 1.363 . S
C1608 H1624 0.931 . S
C1609 C1608 1.370 . S
C1609 C1613 1.408 . S
C1610 C1608 1.363 . S
C1610 C1611 1.370 . S
C1610 C1614 1.524 . S
C1611 C1603 1.503 . S
C1611 C1610 1.370 . S
C1611 C1612 1.403 . S
C1612 C1611 1.403 . S
C1612 C1613 1.404 . S
C1612 C1615 1.539 . S
C1613 C1609 1.408 . S
C1613 C1612 1.404 . S
C1613 H1625 0.930 . S
C1614 C1610 1.524 . S
C1614 H1626 0.956 . S
C1614 H1627 0.961 . S
C1614 H1628 0.961 . S
C1615 C1612 1.539 . S
C1615 H1629 0.958 . S
C1615 H1630 0.961 . S
C1615 H1631 0.960 . S
H1616 C1600 0.931 . S
H1617 C1605 0.929 . S
H1618 C1606 0.960 . S
H1619 C1606 0.962 . S
H1620 C1606 0.960 . S
H1621 C1607 0.961 . S
H1622 C1607 0.961 . S
H1623 C1607 0.961 . S
H1624 C1608 0.931 . S
H1625 C1613 0.930 . S
H1626 C1614 0.956 . S
H1627 C1614 0.961 . S
H1628 C1614 0.961 . S
H1629 C1615 0.958 . S
H1630 C1615 0.961 . S
H1631 C1615 0.960 . S
C1632 C1633 1.391 . S
C1632 C1634 1.394 . S
C1632 H1648 0.931 . S
C1633 C1632 1.391 . S
C1633 C1637 1.376 . S
C1634 C1632 1.394 . S
C1634 C1635 1.369 . S
C1634 C1638 1.531 . S
C1635 C1634 1.369 . S
C1635 C1636 1.410 . S
C1635 C1643 1.503 . S
C1636 C1635 1.410 . S
C1636 C1637 1.392 . S
C1636 C1639 1.511 . S
C1637 C1633 1.376 . S
C1637 C1636 1.392 . S
C1637 H1649 0.929 . S
C1638 C1634 1.531 . S
C1638 H1650 0.960 . S
C1638 H1651 0.962 . S
C1638 H1652 0.960 . S
C1639 C1636 1.511 . S
C1639 H1653 0.961 . S
C1639 H1654 0.961 . S
C1639 H1655 0.961 . S
C1640 C1641 1.370 . S
C1640 C1642 1.363 . S
C1640 H1656 0.931 . S
C1641 C1640 1.370 . S
C1641 C1645 1.408 . S
C1642 C1640 1.363 . S
C1642 C1643 1.370 . S
C1642 C1646 1.524 . S
C1643 C1635 1.503 . S
C1643 C1642 1.370 . S
C1643 C1644 1.403 . S
C1644 C1643 1.403 . S
C1644 C1645 1.404 . S
C1644 C1647 1.539 . S
C1645 C1641 1.408 . S
C1645 C1644 1.404 . S
C1645 H1657 0.930 . S
C1646 C1642 1.524 . S
C1646 H1658 0.956 . S
C1646 H1659 0.961 . S
C1646 H1660 0.961 . S
C1647 C1644 1.539 . S
C1647 H1661 0.958 . S
C1647 H1662 0.961 . S
C1647 H1663 0.960 . S
H1648 C1632 0.931 . S
H1649 C1637 0.929 . S
H1650 C1638 0.960 . S
H1651 C1638 0.962 . S
H1652 C1638 0.960 . S
H1653 C1639 0.961 . S
H1654 C1639 0.961 . S
H1655 C1639 0.961 . S
H1656 C1640 0.931 . S
H1657 C1645 0.930 . S
H1658 C1646 0.956 . S
H1659 C1646 0.961 . S
H1660 C1646 0.961 . S
H1661 C1647 0.958 . S
H1662 C1647 0.961 . S
H1663 C1647 0.960 . S
C1664 C1665 1.391 . S
C1664 C1666 1.394 . S
C1664 H1680 0.931 . S
C1665 C1664 1.391 . S
C1665 C1669 1.376 . S
C1666 C1664 1.394 . S
C1666 C1667 1.369 . S
C1666 C1670 1.531 . S
C1667 C1666 1.369 . S
C1667 C1668 1.410 . S
C1667 C1675 1.503 . S
C1668 C1667 1.410 . S
C1668 C1669 1.392 . S
C1668 C1671 1.511 . S
C1669 C1665 1.376 . S
C1669 C1668 1.392 . S
C1669 H1681 0.929 . S
C1670 C1666 1.531 . S
C1670 H1682 0.960 . S
C1670 H1683 0.962 . S
C1670 H1684 0.960 . S
C1671 C1668 1.511 . S
C1671 H1685 0.961 . S
C1671 H1686 0.961 . S
C1671 H1687 0.961 . S
C1672 C1673 1.370 . S
C1672 C1674 1.363 . S
C1672 H1688 0.931 . S
C1673 C1672 1.370 . S
C1673 C1677 1.408 . S
C1674 C1672 1.363 . S
C1674 C1675 1.370 . S
C1674 C1678 1.524 . S
C1675 C1667 1.503 . S
C1675 C1674 1.370 . S
C1675 C1676 1.403 . S
C1676 C1675 1.403 . S
C1676 C1677 1.404 . S
C1676 C1679 1.539 1_455 S
C1677 C1673 1.408 . S
C1677 C1676 1.404 . S
C1677 H1689 0.930 1_455 S
C1678 C1674 1.524 . S
C1678 H1690 0.956 . S
C1678 H1691 0.961 . S
C1678 H1692 0.961 . S
C1679 C1676 1.539 1_655 S
C1679 H1693 0.958 . S
C1679 H1694 0.961 . S
C1679 H1695 0.960 . S
H1680 C1664 0.931 . S
H1681 C1669 0.929 . S
H1682 C1670 0.960 . S
H1683 C1670 0.962 . S
H1684 C1670 0.960 . S
H1685 C1671 0.961 . S
H1686 C1671 0.961 . S
H1687 C1671 0.961 . S
H1688 C1672 0.931 . S
H1689 C1677 0.930 1_655 S
H1690 C1678 0.956 . S
H1691 C1678 0.961 . S
H1692 C1678 0.961 . S
H1693 C1679 0.958 . S
H1694 C1679 0.961 . S
H1695 C1679 0.960 . S
C1696 C1697 1.391 . S
C1696 C1698 1.394 . S
C1696 H1712 0.931 . S
C1697 C1696 1.391 . S
C1697 C1701 1.376 . S
C1698 C1696 1.394 . S
C1698 C1699 1.369 . S
C1698 C1702 1.531 . S
C1699 C1698 1.369 . S
C1699 C1700 1.410 . S
C1699 C1707 1.503 . S
C1700 C1699 1.410 . S
C1700 C1701 1.392 . S
C1700 C1703 1.511 . S
C1701 C1697 1.376 . S
C1701 C1700 1.392 . S
C1701 H1713 0.929 . S
C1702 C1698 1.531 . S
C1702 H1714 0.960 . S
C1702 H1715 0.962 . S
C1702 H1716 0.960 . S
C1703 C1700 1.511 . S
C1703 H1717 0.961 . S
C1703 H1718 0.961 . S
C1703 H1719 0.961 . S
C1704 C1705 1.370 . S
C1704 C1706 1.363 . S
C1704 H1720 0.931 . S
C1705 C1704 1.370 . S
C1705 C1709 1.408 . S
C1706 C1704 1.363 . S
C1706 C1707 1.370 . S
C1706 C1710 1.524 . S
C1707 C1699 1.503 . S
C1707 C1706 1.370 . S
C1707 C1708 1.403 . S
C1708 C1707 1.403 . S
C1708 C1709 1.404 . S
C1708 C1711 1.539 . S
C1709 C1705 1.408 . S
C1709 C1708 1.404 . S
C1709 H1721 0.930 . S
C1710 C1706 1.524 . S
C1710 H1722 0.956 . S
C1710 H1723 0.961 . S
C1710 H1724 0.961 . S
C1711 C1708 1.539 . S
C1711 H1725 0.958 . S
C1711 H1726 0.961 . S
C1711 H1727 0.960 . S
H1712 C1696 0.931 . S
H1713 C1701 0.929 . S
H1714 C1702 0.960 . S
H1715 C1702 0.962 . S
H1716 C1702 0.960 . S
H1717 C1703 0.961 . S
H1718 C1703 0.961 . S
H1719 C1703 0.961 . S
H1720 C1704 0.931 . S
H1721 C1709 0.930 . S
H1722 C1710 0.956 . S
H1723 C1710 0.961 . S
H1724 C1710 0.961 . S
H1725 C1711 0.958 . S
H1726 C1711 0.961 . S
H1727 C1711 0.960 . S
C1728 C1729 1.391 . S
C1728 C1730 1.394 . S
C1728 H1744 0.931 . S
C1729 C1728 1.391 . S
C1729 C1733 1.376 . S
C1730 C1728 1.394 . S
C1730 C1731 1.369 . S
C1730 C1734 1.531 . S
C1731 C1730 1.369 . S
C1731 C1732 1.410 . S
C1731 C1739 1.503 . S
C1732 C1731 1.410 . S
C1732 C1733 1.392 . S
C1732 C1735 1.511 . S
C1733 C1729 1.376 . S
C1733 C1732 1.392 . S
C1733 H1745 0.929 . S
C1734 C1730 1.531 . S
C1734 H1746 0.960 . S
C1734 H1747 0.962 . S
C1734 H1748 0.960 . S
C1735 C1732 1.511 . S
C1735 H1749 0.961 . S
C1735 H1750 0.961 . S
C1735 H1751 0.961 . S
C1736 C1737 1.370 . S
C1736 C1738 1.363 . S
C1736 H1752 0.931 . S
C1737 C1736 1.370 . S
C1737 C1741 1.408 . S
C1738 C1736 1.363 . S
C1738 C1739 1.370 . S
C1738 C1742 1.524 . S
C1739 C1731 1.503 . S
C1739 C1738 1.370 . S
C1739 C1740 1.403 . S
C1740 C1739 1.403 . S
C1740 C1741 1.404 . S
C1740 C1743 1.539 . S
C1741 C1737 1.408 . S
C1741 C1740 1.404 . S
C1741 H1753 0.930 . S
C1742 C1738 1.524 . S
C1742 H1754 0.956 1_455 S
C1742 H1755 0.961 . S
C1742 H1756 0.961 1_455 S
C1743 C1740 1.539 . S
C1743 H1757 0.958 . S
C1743 H1758 0.961 . S
C1743 H1759 0.960 . S
H1744 C1728 0.931 . S
H1745 C1733 0.929 . S
H1746 C1734 0.960 . S
H1747 C1734 0.962 . S
H1748 C1734 0.960 . S
H1749 C1735 0.961 . S
H1750 C1735 0.961 . S
H1751 C1735 0.961 . S
H1752 C1736 0.931 . S
H1753 C1741 0.930 . S
H1754 C1742 0.956 1_655 S
H1755 C1742 0.961 . S
H1756 C1742 0.961 1_655 S
H1757 C1743 0.958 . S
H1758 C1743 0.961 . S
H1759 C1743 0.960 . S
C1760 C1761 1.391 . S
C1760 C1762 1.394 . S
C1760 H1776 0.931 . S
C1761 C1760 1.391 . S
C1761 C1765 1.376 . S
C1762 C1760 1.394 . S
C1762 C1763 1.369 . S
C1762 C1766 1.531 . S
C1763 C1762 1.369 . S
C1763 C1764 1.410 . S
C1763 C1771 1.503 . S
C1764 C1763 1.410 . S
C1764 C1765 1.392 . S
C1764 C1767 1.511 . S
C1765 C1761 1.376 . S
C1765 C1764 1.392 . S
C1765 H1777 0.929 . S
C1766 C1762 1.531 . S
C1766 H1778 0.960 . S
C1766 H1779 0.962 . S
C1766 H1780 0.960 . S
C1767 C1764 1.511 . S
C1767 H1781 0.961 . S
C1767 H1782 0.961 . S
C1767 H1783 0.961 . S
C1768 C1769 1.370 . S
C1768 C1770 1.363 . S
C1768 H1784 0.931 . S
C1769 C1768 1.370 . S
C1769 C1773 1.408 . S
C1770 C1768 1.363 . S
C1770 C1771 1.370 . S
C1770 C1774 1.524 . S
C1771 C1763 1.503 . S
C1771 C1770 1.370 . S
C1771 C1772 1.403 . S
C1772 C1771 1.403 . S
C1772 C1773 1.404 . S
C1772 C1775 1.539 . S
C1773 C1769 1.408 . S
C1773 C1772 1.404 . S
C1773 H1785 0.930 . S
C1774 C1770 1.524 . S
C1774 H1786 0.956 . S
C1774 H1787 0.961 . S
C1774 H1788 0.961 . S
C1775 C1772 1.539 . S
C1775 H1789 0.958 . S
C1775 H1790 0.961 . S
C1775 H1791 0.960 . S
H1776 C1760 0.931 . S
H1777 C1765 0.929 . S
H1778 C1766 0.960 . S
H1779 C1766 0.962 . S
H1780 C1766 0.960 . S
H1781 C1767 0.961 . S
H1782 C1767 0.961 . S
H1783 C1767 0.961 . S
H1784 C1768 0.931 . S
H1785 C1773 0.930 . S
H1786 C1774 0.956 . S
H1787 C1774 0.961 . S
H1788 C1774 0.961 . S
H1789 C1775 0.958 . S
H1790 C1775 0.961 . S
H1791 C1775 0.960 . S
C1792 C1793 1.391 . S
C1792 C1794 1.394 . S
C1792 H1808 0.931 . S
C1793 C1792 1.391 . S
C1793 C1797 1.376 . S
C1794 C1792 1.394 . S
C1794 C1795 1.369 . S
C1794 C1798 1.531 . S
C1795 C1794 1.369 . S
C1795 C1796 1.410 . S
C1795 C1803 1.503 . S
C1796 C1795 1.410 . S
C1796 C1797 1.392 . S
C1796 C1799 1.511 . S
C1797 C1793 1.376 . S
C1797 C1796 1.392 . S
C1797 H1809 0.929 1_455 S
C1798 C1794 1.531 . S
C1798 H1810 0.960 . S
C1798 H1811 0.962 . S
C1798 H1812 0.960 . S
C1799 C1796 1.511 . S
C1799 H1813 0.961 1_455 S
C1799 H1814 0.961 . S
C1799 H1815 0.961 1_455 S
C1800 C1801 1.370 . S
C1800 C1802 1.363 . S
C1800 H1816 0.931 . S
C1801 C1800 1.370 . S
C1801 C1805 1.408 . S
C1802 C1800 1.363 . S
C1802 C1803 1.370 . S
C1802 C1806 1.524 . S
C1803 C1795 1.503 . S
C1803 C1802 1.370 . S
C1803 C1804 1.403 . S
C1804 C1803 1.403 . S
C1804 C1805 1.404 . S
C1804 C1807 1.539 . S
C1805 C1801 1.408 . S
C1805 C1804 1.404 . S
C1805 H1817 0.930 . S
C1806 C1802 1.524 . S
C1806 H1818 0.956 . S
C1806 H1819 0.961 . S
C1806 H1820 0.961 . S
C1807 C1804 1.539 . S
C1807 H1821 0.958 . S
C1807 H1822 0.961 1_455 S
C1807 H1823 0.960 1_455 S
H1808 C1792 0.931 . S
H1809 C1797 0.929 1_655 S
H1810 C1798 0.960 . S
H1811 C1798 0.962 . S
H1812 C1798 0.960 . S
H1813 C1799 0.961 1_655 S
H1814 C1799 0.961 . S
H1815 C1799 0.961 1_655 S
H1816 C1800 0.931 . S
H1817 C1805 0.930 . S
H1818 C1806 0.956 . S
H1819 C1806 0.961 . S
H1820 C1806 0.961 . S
H1821 C1807 0.958 . S
H1822 C1807 0.961 1_655 S
H1823 C1807 0.960 1_655 S
C1824 C1825 1.391 . S
C1824 C1826 1.394 . S
C1824 H1840 0.931 . S
C1825 C1824 1.391 . S
C1825 C1829 1.376 . S
C1826 C1824 1.394 . S
C1826 C1827 1.369 . S
C1826 C1830 1.531 . S
C1827 C1826 1.369 . S
C1827 C1828 1.410 . S
C1827 C1835 1.503 . S
C1828 C1827 1.410 . S
C1828 C1829 1.392 . S
C1828 C1831 1.511 . S
C1829 C1825 1.376 . S
C1829 C1828 1.392 . S
C1829 H1841 0.929 . S
C1830 C1826 1.531 . S
C1830 H1842 0.960 . S
C1830 H1843 0.962 . S
C1830 H1844 0.960 . S
C1831 C1828 1.511 . S
C1831 H1845 0.961 1_455 S
C1831 H1846 0.961 . S
C1831 H1847 0.961 . S
C1832 C1833 1.370 . S
C1832 C1834 1.363 . S
C1832 H1848 0.931 . S
C1833 C1832 1.370 . S
C1833 C1837 1.408 . S
C1834 C1832 1.363 . S
C1834 C1835 1.370 . S
C1834 C1838 1.524 . S
C1835 C1827 1.503 . S
C1835 C1834 1.370 . S
C1835 C1836 1.403 . S
C1836 C1835 1.403 . S
C1836 C1837 1.404 . S
C1836 C1839 1.539 . S
C1837 C1833 1.408 . S
C1837 C1836 1.404 . S
C1837 H1849 0.930 . S
C1838 C1834 1.524 . S
C1838 H1850 0.956 . S
C1838 H1851 0.961 . S
C1838 H1852 0.961 . S
C1839 C1836 1.539 . S
C1839 H1853 0.958 . S
C1839 H1854 0.961 . S
C1839 H1855 0.960 . S
H1840 C1824 0.931 . S
H1841 C1829 0.929 . S
H1842 C1830 0.960 . S
H1843 C1830 0.962 . S
H1844 C1830 0.960 . S
H1845 C1831 0.961 1_655 S
H1846 C1831 0.961 . S
H1847 C1831 0.961 . S
H1848 C1832 0.931 . S
H1849 C1837 0.930 . S
H1850 C1838 0.956 . S
H1851 C1838 0.961 . S
H1852 C1838 0.961 . S
H1853 C1839 0.958 . S
H1854 C1839 0.961 . S
H1855 C1839 0.960 . S
C1856 C1857 1.391 . S
C1856 C1858 1.394 . S
C1856 H1872 0.931 . S
C1857 C1856 1.391 . S
C1857 C1861 1.376 . S
C1858 C1856 1.394 . S
C1858 C1859 1.369 . S
C1858 C1862 1.531 . S
C1859 C1858 1.369 . S
C1859 C1860 1.410 . S
C1859 C1867 1.503 . S
C1860 C1859 1.410 . S
C1860 C1861 1.392 . S
C1860 C1863 1.511 . S
C1861 C1857 1.376 . S
C1861 C1860 1.392 . S
C1861 H1873 0.929 . S
C1862 C1858 1.531 . S
C1862 H1874 0.960 . S
C1862 H1875 0.962 1_655 S
C1862 H1876 0.960 . S
C1863 C1860 1.511 . S
C1863 H1877 0.961 . S
C1863 H1878 0.961 . S
C1863 H1879 0.961 . S
C1864 C1865 1.370 . S
C1864 C1866 1.363 . S
C1864 H1880 0.931 . S
C1865 C1864 1.370 . S
C1865 C1869 1.408 . S
C1866 C1864 1.363 . S
C1866 C1867 1.370 . S
C1866 C1870 1.524 . S
C1867 C1859 1.503 . S
C1867 C1866 1.370 . S
C1867 C1868 1.403 . S
C1868 C1867 1.403 . S
C1868 C1869 1.404 . S
C1868 C1871 1.539 . S
C1869 C1865 1.408 . S
C1869 C1868 1.404 . S
C1869 H1881 0.930 . S
C1870 C1866 1.524 . S
C1870 H1882 0.956 . S
C1870 H1883 0.961 . S
C1870 H1884 0.961 . S
C1871 C1868 1.539 . S
C1871 H1885 0.958 . S
C1871 H1886 0.961 . S
C1871 H1887 0.960 . S
H1872 C1856 0.931 . S
H1873 C1861 0.929 . S
H1874 C1862 0.960 . S
H1875 C1862 0.962 1_455 S
H1876 C1862 0.960 . S
H1877 C1863 0.961 . S
H1878 C1863 0.961 . S
H1879 C1863 0.961 . S
H1880 C1864 0.931 . S
H1881 C1869 0.930 . S
H1882 C1870 0.956 . S
H1883 C1870 0.961 . S
H1884 C1870 0.961 . S
H1885 C1871 0.958 . S
H1886 C1871 0.961 . S
H1887 C1871 0.960 . S
C1888 C1889 1.391 . S
C1888 C1890 1.394 . S
C1888 H1904 0.931 . S
C1889 C1888 1.391 . S
C1889 C1893 1.376 . S
C1890 C1888 1.394 . S
C1890 C1891 1.369 . S
C1890 C1894 1.531 . S
C1891 C1890 1.369 . S
C1891 C1892 1.410 . S
C1891 C1899 1.503 . S
C1892 C1891 1.410 . S
C1892 C1893 1.392 . S
C1892 C1895 1.511 1_655 S
C1893 C1889 1.376 . S
C1893 C1892 1.392 . S
C1893 H1905 0.929 1_655 S
C1894 C1890 1.531 . S
C1894 H1906 0.960 . S
C1894 H1907 0.962 . S
C1894 H1908 0.960 . S
C1895 C1892 1.511 1_455 S
C1895 H1909 0.961 . S
C1895 H1910 0.961 . S
C1895 H1911 0.961 . S
C1896 C1897 1.370 . S
C1896 C1898 1.363 . S
C1896 H1912 0.931 . S
C1897 C1896 1.370 . S
C1897 C1901 1.408 . S
C1898 C1896 1.363 . S
C1898 C1899 1.370 . S
C1898 C1902 1.524 . S
C1899 C1891 1.503 . S
C1899 C1898 1.370 . S
C1899 C1900 1.403 . S
C1900 C1899 1.403 . S
C1900 C1901 1.404 . S
C1900 C1903 1.539 . S
C1901 C1897 1.408 . S
C1901 C1900 1.404 . S
C1901 H1913 0.930 . S
C1902 C1898 1.524 . S
C1902 H1914 0.956 . S
C1902 H1915 0.961 . S
C1902 H1916 0.961 . S
C1903 C1900 1.539 . S
C1903 H1917 0.958 . S
C1903 H1918 0.961 . S
C1903 H1919 0.960 . S
H1904 C1888 0.931 . S
H1905 C1893 0.929 1_455 S
H1906 C1894 0.960 . S
H1907 C1894 0.962 . S
H1908 C1894 0.960 . S
H1909 C1895 0.961 . S
H1910 C1895 0.961 . S
H1911 C1895 0.961 . S
H1912 C1896 0.931 . S
H1913 C1901 0.930 . S
H1914 C1902 0.956 . S
H1915 C1902 0.961 . S
H1916 C1902 0.961 . S
H1917 C1903 0.958 . S
H1918 C1903 0.961 . S
H1919 C1903 0.960 . S
C1920 C1921 1.391 . S
C1920 C1922 1.394 . S
C1920 H1936 0.931 . S
C1921 C1920 1.391 . S
C1921 C1925 1.376 1_545 S
C1922 C1920 1.394 . S
C1922 C1923 1.369 . S
C1922 C1926 1.531 . S
C1923 C1922 1.369 . S
C1923 C1924 1.410 1_545 S
C1923 C1931 1.503 . S
C1924 C1923 1.410 1_565 S
C1924 C1925 1.392 . S
C1924 C1927 1.511 1_455 S
C1925 C1921 1.376 1_565 S
C1925 C1924 1.392 . S
C1925 H1937 0.929 1_455 S
C1926 C1922 1.531 . S
C1926 H1938 0.960 . S
C1926 H1939 0.962 . S
C1926 H1940 0.960 . S
C1927 C1924 1.511 1_655 S
C1927 H1941 0.961 . S
C1927 H1942 0.961 1_655 S
C1927 H1943 0.961 . S
C1928 C1929 1.311 1_565 S
C1928 C1930 1.363 . S
C1928 H1944 0.931 . S
C1929 C1928 1.311 1_545 S
C1929 C1933 1.479 . S
C1930 C1928 1.363 . S
C1930 C1931 1.370 1_565 S
C1930 C1934 1.524 . S
C1931 C1923 1.503 . S
C1931 C1930 1.370 1_545 S
C1931 C1932 1.403 . S
C1932 C1931 1.403 . S
C1932 C1933 1.404 . S
C1932 C1935 1.539 . S
C1933 C1929 1.479 . S
C1933 C1932 1.404 . S
C1933 H1945 0.930 . S
C1934 C1930 1.524 . S
C1934 H1946 0.956 . S
C1934 H1947 0.961 . S
C1934 H1948 0.961 . S
C1935 C1932 1.539 . S
C1935 H1949 0.958 . S
C1935 H1950 0.961 . S
C1935 H1951 0.960 . S
H1936 C1920 0.931 . S
H1937 C1925 0.929 1_655 S
H1938 C1926 0.960 . S
H1939 C1926 0.962 . S
H1940 C1926 0.960 . S
H1941 C1927 0.961 . S
H1942 C1927 0.961 1_455 S
H1943 C1927 0.961 . S
H1944 C1928 0.931 . S
H1945 C1933 0.930 . S
H1946 C1934 0.956 . S
H1947 C1934 0.961 . S
H1948 C1934 0.961 . S
H1949 C1935 0.958 . S
H1950 C1935 0.961 . S
H1951 C1935 0.960 . S
C1952 C1953 1.391 . S
C1952 C1954 1.394 . S
C1952 H1968 0.931 . S
C1953 C1952 1.391 . S
C1953 C1957 1.376 . S
C1954 C1952 1.394 . S
C1954 C1955 1.369 . S
C1954 C1958 1.531 . S
C1955 C1954 1.369 . S
C1955 C1956 1.410 . S
C1955 C1963 1.503 . S
C1956 C1955 1.410 . S
C1956 C1957 1.392 . S
C1956 C1959 1.511 . S
C1957 C1953 1.376 . S
C1957 C1956 1.392 . S
C1957 H1969 0.929 . S
C1958 C1954 1.531 . S
C1958 H1970 0.960 . S
C1958 H1971 0.962 . S
C1958 H1972 0.960 . S
C1959 C1956 1.511 . S
C1959 H1973 0.961 . S
C1959 H1974 0.961 . S
C1959 H1975 0.961 . S
C1960 C1961 1.370 . S
C1960 C1962 1.363 . S
C1960 H1976 0.931 1_455 S
C1961 C1960 1.370 . S
C1961 C1965 1.408 . S
C1962 C1960 1.363 . S
C1962 C1963 1.370 . S
C1962 C1966 1.524 1_455 S
C1963 C1955 1.503 . S
C1963 C1962 1.370 . S
C1963 C1964 1.403 . S
C1964 C1963 1.403 . S
C1964 C1965 1.404 . S
C1964 C1967 1.539 . S
C1965 C1961 1.408 . S
C1965 C1964 1.404 . S
C1965 H1977 0.930 . S
C1966 C1962 1.524 1_655 S
C1966 H1978 0.956 . S
C1966 H1979 0.961 1_655 S
C1966 H1980 0.961 . S
C1967 C1964 1.539 . S
C1967 H1981 0.958 . S
C1967 H1982 0.961 . S
C1967 H1983 0.960 . S
H1968 C1952 0.931 . S
H1969 C1957 0.929 . S
H1970 C1958 0.960 . S
H1971 C1958 0.962 . S
H1972 C1958 0.960 . S
H1973 C1959 0.961 . S
H1974 C1959 0.961 . S
H1975 C1959 0.961 . S
H1976 C1960 0.931 1_655 S
H1977 C1965 0.930 . S
H1978 C1966 0.956 . S
H1979 C1966 0.961 1_455 S
H1980 C1966 0.961 . S
H1981 C1967 0.958 . S
H1982 C1967 0.961 . S
H1983 C1967 0.960 . S
C1984 C1985 1.402 . S
C1984 C1986 1.394 . S
C1984 H2000 0.931 . S
C1985 C1984 1.402 . S
C1985 C1989 1.369 1_545 S
C1986 C1984 1.394 . S
C1986 C1987 1.369 . S
C1986 C1990 1.531 . S
C1987 C1986 1.369 . S
C1987 C1988 1.410 1_545 S
C1987 C1995 1.503 . S
C1988 C1987 1.410 1_565 S
C1988 C1989 1.392 . S
C1988 C1991 1.511 1_655 S
C1989 C1985 1.369 1_565 S
C1989 C1988 1.392 . S
C1989 H2001 0.929 1_655 S
C1990 C1986 1.531 . S
C1990 H2002 0.960 . S
C1990 H2003 0.962 . S
C1990 H2004 0.960 . S
C1991 C1988 1.511 1_455 S
C1991 H2005 0.961 . S
C1991 H2006 0.961 . S
C1991 H2007 0.961 1_565 S
C1992 C1993 1.381 . S
C1992 C1994 1.363 . S
C1992 H2008 0.931 . S
C1993 C1992 1.381 . S
C1993 C1997 1.396 1_565 S
C1994 C1992 1.363 . S
C1994 C1995 1.370 1_565 S
C1994 C1998 1.524 . S
C1995 C1987 1.503 . S
C1995 C1994 1.370 1_545 S
C1995 C1996 1.403 . S
C1996 C1995 1.403 . S
C1996 C1997 1.404 . S
C1996 C1999 1.539 . S
C1997 C1993 1.396 1_545 S
C1997 C1996 1.404 . S
C1997 H2009 0.930 . S
C1998 C1994 1.524 . S
C1998 H2010 0.956 . S
C1998 H2011 0.961 . S
C1998 H2012 0.961 . S
C1999 C1996 1.539 . S
C1999 H2013 0.958 . S
C1999 H2014 0.961 . S
C1999 H2015 0.960 . S
H2000 C1984 0.931 . S
H2001 C1989 0.929 1_455 S
H2002 C1990 0.960 . S
H2003 C1990 0.962 . S
H2004 C1990 0.960 . S
H2005 C1991 0.961 . S
H2006 C1991 0.961 . S
H2007 C1991 0.961 1_545 S
H2008 C1992 0.931 . S
H2009 C1997 0.930 . S
H2010 C1998 0.956 . S
H2011 C1998 0.961 . S
H2012 C1998 0.961 . S
H2013 C1999 0.958 . S
H2014 C1999 0.961 . S
H2015 C1999 0.960 . S
C2016 C2017 1.391 . S
C2016 C2018 1.394 . S
C2016 H2032 0.931 . S
C2017 C2016 1.391 . S
C2017 C2021 1.376 . S
C2018 C2016 1.394 . S
C2018 C2019 1.369 . S
C2018 C2022 1.531 . S
C2019 C2018 1.369 . S
C2019 C2020 1.410 . S
C2019 C2027 1.503 . S
C2020 C2019 1.410 . S
C2020 C2021 1.392 . S
C2020 C2023 1.511 . S
C2021 C2017 1.376 . S
C2021 C2020 1.392 . S
C2021 H2033 0.929 . S
C2022 C2018 1.531 . S
C2022 H2034 0.960 . S
C2022 H2035 0.962 . S
C2022 H2036 0.960 . S
C2023 C2020 1.511 . S
C2023 H2037 0.961 . S
C2023 H2038 0.961 . S
C2023 H2039 0.961 . S
C2024 C2025 1.370 . S
C2024 C2026 1.363 . S
C2024 H2040 0.931 . S
C2025 C2024 1.370 . S
C2025 C2029 1.408 . S
C2026 C2024 1.363 . S
C2026 C2027 1.370 . S
C2026 C2030 1.524 . S
C2027 C2019 1.503 . S
C2027 C2026 1.370 . S
C2027 C2028 1.403 . S
C2028 C2027 1.403 . S
C2028 C2029 1.404 . S
C2028 C2031 1.539 . S
C2029 C2025 1.408 . S
C2029 C2028 1.404 . S
C2029 H2041 0.930 . S
C2030 C2026 1.524 . S
C2030 H2042 0.956 1_655 S
C2030 H2043 0.961 . S
C2030 H2044 0.961 1_655 S
C2031 C2028 1.539 . S
C2031 H2045 0.958 . S
C2031 H2046 0.961 . S
C2031 H2047 0.960 . S
H2032 C2016 0.931 . S
H2033 C2021 0.929 . S
H2034 C2022 0.960 . S
H2035 C2022 0.962 . S
H2036 C2022 0.960 . S
H2037 C2023 0.961 . S
H2038 C2023 0.961 . S
H2039 C2023 0.961 . S
H2040 C2024 0.931 . S
H2041 C2029 0.930 . S
H2042 C2030 0.956 1_455 S
H2043 C2030 0.961 . S
H2044 C2030 0.961 1_455 S
H2045 C2031 0.958 . S
H2046 C2031 0.961 . S
H2047 C2031 0.960 . S
C2048 C2049 1.391 . S
C2048 C2050 1.394 . S
C2048 H2064 0.931 . S
C2049 C2048 1.391 . S
C2049 C2053 1.376 . S
C2050 C2048 1.394 . S
C2050 C2051 1.369 . S
C2050 C2054 1.531 . S
C2051 C2050 1.369 . S
C2051 C2052 1.410 . S
C2051 C2059 1.503 . S
C2052 C2051 1.410 . S
C2052 C2053 1.392 . S
C2052 C2055 1.511 . S
C2053 C2049 1.376 . S
C2053 C2052 1.392 . S
C2053 H2065 0.929 . S
C2054 C2050 1.531 . S
C2054 H2066 0.960 . S
C2054 H2067 0.962 . S
C2054 H2068 0.960 . S
C2055 C2052 1.511 . S
C2055 H2069 0.961 . S
C2055 H2070 0.961 . S
C2055 H2071 0.961 . S
C2056 C2057 1.370 . S
C2056 C2058 1.363 . S
C2056 H2072 0.931 . S
C2057 C2056 1.370 . S
C2057 C2061 1.408 . S
C2058 C2056 1.363 . S
C2058 C2059 1.370 . S
C2058 C2062 1.524 . S
C2059 C2051 1.503 . S
C2059 C2058 1.370 . S
C2059 C2060 1.403 . S
C2060 C2059 1.403 . S
C2060 C2061 1.404 . S
C2060 C2063 1.539 . S
C2061 C2057 1.408 . S
C2061 C2060 1.404 . S
C2061 H2073 0.930 . S
C2062 C2058 1.524 . S
C2062 H2074 0.956 . S
C2062 H2075 0.961 . S
C2062 H2076 0.961 . S
C2063 C2060 1.539 . S
C2063 H2077 0.958 . S
C2063 H2078 0.961 . S
C2063 H2079 0.960 . S
H2064 C2048 0.931 . S
H2065 C2053 0.929 . S
H2066 C2054 0.960 . S
H2067 C2054 0.962 . S
H2068 C2054 0.960 . S
H2069 C2055 0.961 . S
H2070 C2055 0.961 . S
H2071 C2055 0.961 . S
H2072 C2056 0.931 . S
H2073 C2061 0.930 . S
H2074 C2062 0.956 . S
H2075 C2062 0.961 . S
H2076 C2062 0.961 . S
H2077 C2063 0.958 . S
H2078 C2063 0.961 . S
H2079 C2063 0.960 . S
C2080 C2081 1.391 . S
C2080 C2082 1.394 . S
C2080 H2096 0.931 . S
C2081 C2080 1.391 . S
C2081 C2085 1.376 . S
C2082 C2080 1.394 . S
C2082 C2083 1.369 . S
C2082 C2086 1.531 . S
C2083 C2082 1.369 . S
C2083 C2084 1.410 . S
C2083 C2091 1.503 . S
C2084 C2083 1.410 . S
C2084 C2085 1.392 . S
C2084 C2087 1.511 . S
C2085 C2081 1.376 . S
C2085 C2084 1.392 . S
C2085 H2097 0.929 . S
C2086 C2082 1.531 . S
C2086 H2098 0.960 . S
C2086 H2099 0.962 . S
C2086 H2100 0.960 . S
C2087 C2084 1.511 . S
C2087 H2101 0.961 . S
C2087 H2102 0.961 . S
C2087 H2103 0.961 . S
C2088 C2089 1.370 . S
C2088 C2090 1.363 . S
C2088 H2104 0.931 . S
C2089 C2088 1.370 . S
C2089 C2093 1.408 . S
C2090 C2088 1.363 . S
C2090 C2091 1.370 . S
C2090 C2094 1.524 . S
C2091 C2083 1.503 . S
C2091 C2090 1.370 . S
C2091 C2092 1.403 . S
C2092 C2091 1.403 . S
C2092 C2093 1.404 . S
C2092 C2095 1.539 . S
C2093 C2089 1.408 . S
C2093 C2092 1.404 . S
C2093 H2105 0.930 . S
C2094 C2090 1.524 . S
C2094 H2106 0.956 . S
C2094 H2107 0.961 . S
C2094 H2108 0.961 . S
C2095 C2092 1.539 . S
C2095 H2109 0.958 . S
C2095 H2110 0.961 . S
C2095 H2111 0.960 . S
H2096 C2080 0.931 . S
H2097 C2085 0.929 . S
H2098 C2086 0.960 . S
H2099 C2086 0.962 . S
H2100 C2086 0.960 . S
H2101 C2087 0.961 . S
H2102 C2087 0.961 . S
H2103 C2087 0.961 . S
H2104 C2088 0.931 . S
H2105 C2093 0.930 . S
H2106 C2094 0.956 . S
H2107 C2094 0.961 . S
H2108 C2094 0.961 . S
H2109 C2095 0.958 . S
H2110 C2095 0.961 . S
H2111 C2095 0.960 . S
C2112 C2113 1.391 . S
C2112 C2114 1.394 . S
C2112 H2128 0.931 . S
C2113 C2112 1.391 . S
C2113 C2117 1.376 . S
C2114 C2112 1.394 . S
C2114 C2115 1.369 . S
C2114 C2118 1.531 . S
C2115 C2114 1.369 . S
C2115 C2116 1.410 . S
C2115 C2123 1.503 . S
C2116 C2115 1.410 . S
C2116 C2117 1.392 . S
C2116 C2119 1.511 . S
C2117 C2113 1.376 . S
C2117 C2116 1.392 . S
C2117 H2129 0.929 . S
C2118 C2114 1.531 . S
C2118 H2130 0.960 . S
C2118 H2131 0.962 . S
C2118 H2132 0.960 . S
C2119 C2116 1.511 . S
C2119 H2133 0.961 . S
C2119 H2134 0.961 . S
C2119 H2135 0.961 . S
C2120 C2121 1.370 . S
C2120 C2122 1.363 . S
C2120 H2136 0.931 . S
C2121 C2120 1.370 . S
C2121 C2125 1.408 . S
C2122 C2120 1.363 . S
C2122 C2123 1.370 . S
C2122 C2126 1.524 . S
C2123 C2115 1.503 . S
C2123 C2122 1.370 . S
C2123 C2124 1.403 . S
C2124 C2123 1.403 . S
C2124 C2125 1.404 . S
C2124 C2127 1.539 . S
C2125 C2121 1.408 . S
C2125 C2124 1.404 . S
C2125 H2137 0.930 . S
C2126 C2122 1.524 . S
C2126 H2138 0.956 . S
C2126 H2139 0.961 . S
C2126 H2140 0.961 . S
C2127 C2124 1.539 . S
C2127 H2141 0.958 . S
C2127 H2142 0.961 . S
C2127 H2143 0.960 . S
H2128 C2112 0.931 . S
H2129 C2117 0.929 . S
H2130 C2118 0.960 . S
H2131 C2118 0.962 . S
H2132 C2118 0.960 . S
H2133 C2119 0.961 . S
H2134 C2119 0.961 . S
H2135 C2119 0.961 . S
H2136 C2120 0.931 . S
H2137 C2125 0.930 . S
H2138 C2126 0.956 . S
H2139 C2126 0.961 . S
H2140 C2126 0.961 . S
H2141 C2127 0.958 . S
H2142 C2127 0.961 . S
H2143 C2127 0.960 . S
C2144 C2145 1.391 . S
C2144 C2146 1.394 . S
C2144 H2160 0.931 . S
C2145 C2144 1.391 . S
C2145 C2149 1.376 . S
C2146 C2144 1.394 . S
C2146 C2147 1.369 . S
C2146 C2150 1.531 . S
C2147 C2146 1.369 . S
C2147 C2148 1.410 . S
C2147 C2155 1.503 . S
C2148 C2147 1.410 . S
C2148 C2149 1.392 . S
C2148 C2151 1.511 . S
C2149 C2145 1.376 . S
C2149 C2148 1.392 . S
C2149 H2161 0.929 . S
C2150 C2146 1.531 . S
C2150 H2162 0.960 . S
C2150 H2163 0.962 . S
C2150 H2164 0.960 . S
C2151 C2148 1.511 . S
C2151 H2165 0.961 . S
C2151 H2166 0.961 . S
C2151 H2167 0.961 . S
C2152 C2153 1.370 . S
C2152 C2154 1.363 . S
C2152 H2168 0.931 . S
C2153 C2152 1.370 . S
C2153 C2157 1.408 . S
C2154 C2152 1.363 . S
C2154 C2155 1.370 . S
C2154 C2158 1.524 . S
C2155 C2147 1.503 . S
C2155 C2154 1.370 . S
C2155 C2156 1.403 . S
C2156 C2155 1.403 . S
C2156 C2157 1.404 . S
C2156 C2159 1.539 . S
C2157 C2153 1.408 . S
C2157 C2156 1.404 . S
C2157 H2169 0.930 . S
C2158 C2154 1.524 . S
C2158 H2170 0.956 . S
C2158 H2171 0.961 . S
C2158 H2172 0.961 . S
C2159 C2156 1.539 . S
C2159 H2173 0.958 . S
C2159 H2174 0.961 . S
C2159 H2175 0.960 . S
H2160 C2144 0.931 . S
H2161 C2149 0.929 . S
H2162 C2150 0.960 . S
H2163 C2150 0.962 . S
H2164 C2150 0.960 . S
H2165 C2151 0.961 . S
H2166 C2151 0.961 . S
H2167 C2151 0.961 . S
H2168 C2152 0.931 . S
H2169 C2157 0.930 . S
H2170 C2158 0.956 . S
H2171 C2158 0.961 . S
H2172 C2158 0.961 . S
H2173 C2159 0.958 . S
H2174 C2159 0.961 . S
H2175 C2159 0.960 . S
C2176 C2177 1.397 . S
C2176 C2178 1.399 . S
C2176 H2192 0.921 1_545 S
C2177 C2176 1.397 . S
C2177 C2181 1.376 . S
C2178 C2176 1.399 . S
C2178 C2179 1.369 . S
C2178 C2182 1.531 . S
C2179 C2178 1.369 . S
C2179 C2180 1.410 . S
C2179 C2187 1.503 . S
C2180 C2179 1.410 . S
C2180 C2181 1.392 . S
C2180 C2183 1.511 . S
C2181 C2177 1.376 . S
C2181 C2180 1.392 . S
C2181 H2193 0.929 . S
C2182 C2178 1.531 . S
C2182 H2194 0.964 . S
C2182 H2195 0.955 1_545 S
C2182 H2196 0.963 . S
C2183 C2180 1.511 . S
C2183 H2197 0.961 . S
C2183 H2198 0.961 . S
C2183 H2199 0.961 . S
C2184 C2185 1.370 1_565 S
C2184 C2186 1.363 . S
C2184 H2200 0.931 . S
C2185 C2184 1.370 1_545 S
C2185 C2189 1.408 . S
C2186 C2184 1.363 . S
C2186 C2187 1.370 1_565 S
C2186 C2190 1.524 . S
C2187 C2179 1.503 . S
C2187 C2186 1.370 1_545 S
C2187 C2188 1.403 . S
C2188 C2187 1.403 . S
C2188 C2189 1.404 . S
C2188 C2191 1.539 . S
C2189 C2185 1.408 . S
C2189 C2188 1.404 . S
C2189 H2201 0.930 . S
C2190 C2186 1.524 . S
C2190 H2202 0.956 . S
C2190 H2203 0.961 . S
C2190 H2204 0.961 . S
C2191 C2188 1.539 . S
C2191 H2205 0.958 . S
C2191 H2206 0.961 . S
C2191 H2207 0.960 . S
H2192 C2176 0.921 1_565 S
H2193 C2181 0.929 . S
H2194 C2182 0.964 . S
H2195 C2182 0.955 1_565 S
H2196 C2182 0.963 . S
H2197 C2183 0.961 . S
H2198 C2183 0.961 . S
H2199 C2183 0.961 . S
H2200 C2184 0.931 . S
H2201 C2189 0.930 . S
H2202 C2190 0.956 . S
H2203 C2190 0.961 . S
H2204 C2190 0.961 . S
H2205 C2191 0.958 . S
H2206 C2191 0.961 . S
H2207 C2191 0.960 . S
C2208 C2209 1.391 . S
C2208 C2210 1.394 . S
C2208 H2224 0.931 . S
C2209 C2208 1.391 . S
C2209 C2213 1.376 . S
C2210 C2208 1.394 . S
C2210 C2211 1.369 . S
C2210 C2214 1.531 . S
C2211 C2210 1.369 . S
C2211 C2212 1.410 . S
C2211 C2219 1.503 . S
C2212 C2211 1.410 . S
C2212 C2213 1.392 . S
C2212 C2215 1.511 . S
C2213 C2209 1.376 . S
C2213 C2212 1.392 . S
C2213 H2225 0.929 . S
C2214 C2210 1.531 . S
C2214 H2226 0.960 . S
C2214 H2227 0.962 . S
C2214 H2228 0.960 . S
C2215 C2212 1.511 . S
C2215 H2229 0.961 . S
C2215 H2230 0.961 . S
C2215 H2231 0.961 . S
C2216 C2217 1.370 . S
C2216 C2218 1.363 . S
C2216 H2232 0.931 . S
C2217 C2216 1.370 . S
C2217 C2221 1.408 . S
C2218 C2216 1.363 . S
C2218 C2219 1.370 . S
C2218 C2222 1.524 . S
C2219 C2211 1.503 . S
C2219 C2218 1.370 . S
C2219 C2220 1.403 . S
C2220 C2219 1.403 . S
C2220 C2221 1.404 . S
C2220 C2223 1.539 . S
C2221 C2217 1.408 . S
C2221 C2220 1.404 . S
C2221 H2233 0.930 . S
C2222 C2218 1.524 . S
C2222 H2234 0.956 . S
C2222 H2235 0.961 . S
C2222 H2236 0.961 . S
C2223 C2220 1.539 . S
C2223 H2237 0.958 . S
C2223 H2238 0.961 . S
C2223 H2239 0.960 . S
H2224 C2208 0.931 . S
H2225 C2213 0.929 . S
H2226 C2214 0.960 . S
H2227 C2214 0.962 . S
H2228 C2214 0.960 . S
H2229 C2215 0.961 . S
H2230 C2215 0.961 . S
H2231 C2215 0.961 . S
H2232 C2216 0.931 . S
H2233 C2221 0.930 . S
H2234 C2222 0.956 . S
H2235 C2222 0.961 . S
H2236 C2222 0.961 . S
H2237 C2223 0.958 . S
H2238 C2223 0.961 . S
H2239 C2223 0.960 . S
C2240 C2241 1.401 . S
C2240 C2242 1.394 . S
C2240 H2256 0.931 . S
C2241 C2240 1.401 . S
C2241 C2245 1.368 1_545 S
C2242 C2240 1.394 . S
C2242 C2243 1.369 . S
C2242 C2246 1.531 . S
C2243 C2242 1.369 . S
C2243 C2244 1.410 1_545 S
C2243 C2251 1.503 . S
C2244 C2243 1.410 1_565 S
C2244 C2245 1.392 . S
C2244 C2247 1.511 . S
C2245 C2241 1.368 1_565 S
C2245 C2244 1.392 . S
C2245 H2257 0.929 . S
C2246 C2242 1.531 . S
C2246 H2258 0.960 . S
C2246 H2259 0.962 . S
C2246 H2260 0.960 . S
C2247 C2244 1.511 . S
C2247 H2261 0.961 . S
C2247 H2262 0.961 . S
C2247 H2263 0.961 . S
C2248 C2249 1.385 . S
C2248 C2250 1.363 . S
C2248 H2264 0.931 . S
C2249 C2248 1.385 . S
C2249 C2253 1.391 1_565 S
C2250 C2248 1.363 . S
C2250 C2251 1.370 1_565 S
C2250 C2254 1.524 . S
C2251 C2243 1.503 . S
C2251 C2250 1.370 1_545 S
C2251 C2252 1.403 . S
C2252 C2251 1.403 . S
C2252 C2253 1.404 . S
C2252 C2255 1.539 . S
C2253 C2249 1.391 1_545 S
C2253 C2252 1.404 . S
C2253 H2265 0.930 . S
C2254 C2250 1.524 . S
C2254 H2266 0.956 . S
C2254 H2267 0.961 . S
C2254 H2268 0.961 . S
C2255 C2252 1.539 . S
C2255 H2269 0.958 . S
C2255 H2270 0.961 . S
C2255 H2271 0.960 . S
H2256 C2240 0.931 . S
H2257 C2245 0.929 . S
H2258 C2246 0.960 . S
H2259 C2246 0.962 . S
H2260 C2246 0.960 . S
H2261 C2247 0.961 . S
H2262 C2247 0.961 . S
H2263 C2247 0.961 . S
H2264 C2248 0.931 . S
H2265 C2253 0.930 . S
H2266 C2254 0.956 . S
H2267 C2254 0.961 . S
H2268 C2254 0.961 . S
H2269 C2255 0.958 . S
H2270 C2255 0.961 . S
H2271 C2255 0.960 . S
C2272 C2273 1.391 . S
C2272 C2274 1.394 . S
C2272 H2288 0.931 . S
C2273 C2272 1.391 . S
C2273 C2277 1.376 . S
C2274 C2272 1.394 . S
C2274 C2275 1.369 . S
C2274 C2278 1.531 . S
C2275 C2274 1.369 . S
C2275 C2276 1.410 . S
C2275 C2283 1.503 . S
C2276 C2275 1.410 . S
C2276 C2277 1.392 . S
C2276 C2279 1.511 . S
C2277 C2273 1.376 . S
C2277 C2276 1.392 . S
C2277 H2289 0.929 . S
C2278 C2274 1.531 . S
C2278 H2290 0.960 . S
C2278 H2291 0.962 . S
C2278 H2292 0.960 . S
C2279 C2276 1.511 . S
C2279 H2293 0.961 . S
C2279 H2294 0.961 . S
C2279 H2295 0.961 . S
C2280 C2281 1.370 . S
C2280 C2282 1.363 . S
C2280 H2296 0.931 . S
C2281 C2280 1.370 . S
C2281 C2285 1.408 . S
C2282 C2280 1.363 . S
C2282 C2283 1.370 . S
C2282 C2286 1.524 . S
C2283 C2275 1.503 . S
C2283 C2282 1.370 . S
C2283 C2284 1.403 . S
C2284 C2283 1.403 . S
C2284 C2285 1.404 . S
C2284 C2287 1.539 . S
C2285 C2281 1.408 . S
C2285 C2284 1.404 . S
C2285 H2297 0.930 . S
C2286 C2282 1.524 . S
C2286 H2298 0.956 . S
C2286 H2299 0.961 . S
C2286 H2300 0.961 . S
C2287 C2284 1.539 . S
C2287 H2301 0.958 . S
C2287 H2302 0.961 . S
C2287 H2303 0.960 . S
H2288 C2272 0.931 . S
H2289 C2277 0.929 . S
H2290 C2278 0.960 . S
H2291 C2278 0.962 . S
H2292 C2278 0.960 . S
H2293 C2279 0.961 . S
H2294 C2279 0.961 . S
H2295 C2279 0.961 . S
H2296 C2280 0.931 . S
H2297 C2285 0.930 . S
H2298 C2286 0.956 . S
H2299 C2286 0.961 . S
H2300 C2286 0.961 . S
H2301 C2287 0.958 . S
H2302 C2287 0.961 . S
H2303 C2287 0.960 . S
C2304 C2305 1.391 . S
C2304 C2306 1.394 . S
C2304 H2320 0.931 . S
C2305 C2304 1.391 . S
C2305 C2309 1.376 . S
C2306 C2304 1.394 . S
C2306 C2307 1.369 . S
C2306 C2310 1.531 . S
C2307 C2306 1.369 . S
C2307 C2308 1.410 . S
C2307 C2315 1.503 . S
C2308 C2307 1.410 . S
C2308 C2309 1.392 . S
C2308 C2311 1.511 1_455 S
C2309 C2305 1.376 . S
C2309 C2308 1.392 . S
C2309 H2321 0.929 1_455 S
C2310 C2306 1.531 . S
C2310 H2322 0.960 . S
C2310 H2323 0.962 . S
C2310 H2324 0.960 . S
C2311 C2308 1.511 1_655 S
C2311 H2325 0.961 . S
C2311 H2326 0.961 1_655 S
C2311 H2327 0.961 . S
C2312 C2313 1.370 . S
C2312 C2314 1.363 . S
C2312 H2328 0.931 . S
C2313 C2312 1.370 . S
C2313 C2317 1.408 . S
C2314 C2312 1.363 . S
C2314 C2315 1.370 . S
C2314 C2318 1.524 . S
C2315 C2307 1.503 . S
C2315 C2314 1.370 . S
C2315 C2316 1.403 . S
C2316 C2315 1.403 . S
C2316 C2317 1.404 . S
C2316 C2319 1.539 . S
C2317 C2313 1.408 . S
C2317 C2316 1.404 . S
C2317 H2329 0.930 . S
C2318 C2314 1.524 . S
C2318 H2330 0.956 . S
C2318 H2331 0.961 . S
C2318 H2332 0.961 . S
C2319 C2316 1.539 . S
C2319 H2333 0.958 . S
C2319 H2334 0.961 . S
C2319 H2335 0.960 . S
H2320 C2304 0.931 . S
H2321 C2309 0.929 1_655 S
H2322 C2310 0.960 . S
H2323 C2310 0.962 . S
H2324 C2310 0.960 . S
H2325 C2311 0.961 . S
H2326 C2311 0.961 1_455 S
H2327 C2311 0.961 . S
H2328 C2312 0.931 . S
H2329 C2317 0.930 . S
H2330 C2318 0.956 . S
H2331 C2318 0.961 . S
H2332 C2318 0.961 . S
H2333 C2319 0.958 . S
H2334 C2319 0.961 . S
H2335 C2319 0.960 . S
C2336 C2337 1.391 . S
C2336 C2338 1.394 . S
C2336 H2352 0.931 . S
C2337 C2336 1.391 . S
C2337 C2341 1.376 . S
C2338 C2336 1.394 . S
C2338 C2339 1.369 . S
C2338 C2342 1.531 . S
C2339 C2338 1.369 . S
C2339 C2340 1.410 . S
C2339 C2347 1.503 . S
C2340 C2339 1.410 . S
C2340 C2341 1.392 . S
C2340 C2343 1.511 . S
C2341 C2337 1.376 . S
C2341 C2340 1.392 . S
C2341 H2353 0.929 . S
C2342 C2338 1.531 . S
C2342 H2354 0.960 . S
C2342 H2355 0.962 . S
C2342 H2356 0.960 . S
C2343 C2340 1.511 . S
C2343 H2357 0.961 . S
C2343 H2358 0.961 . S
C2343 H2359 0.961 . S
C2344 C2345 1.370 . S
C2344 C2346 1.363 . S
C2344 H2360 0.931 . S
C2345 C2344 1.370 . S
C2345 C2349 1.408 1_455 S
C2346 C2344 1.363 . S
C2346 C2347 1.370 . S
C2346 C2350 1.524 . S
C2347 C2339 1.503 . S
C2347 C2346 1.370 . S
C2347 C2348 1.403 . S
C2348 C2347 1.403 . S
C2348 C2349 1.404 1_455 S
C2348 C2351 1.539 1_455 S
C2349 C2345 1.408 1_655 S
C2349 C2348 1.404 1_655 S
C2349 H2361 0.930 . S
C2350 C2346 1.524 . S
C2350 H2362 0.956 . S
C2350 H2363 0.961 . S
C2350 H2364 0.961 . S
C2351 C2348 1.539 1_655 S
C2351 H2365 0.958 . S
C2351 H2366 0.961 . S
C2351 H2367 0.960 . S
H2352 C2336 0.931 . S
H2353 C2341 0.929 . S
H2354 C2342 0.960 . S
H2355 C2342 0.962 . S
H2356 C2342 0.960 . S
H2357 C2343 0.961 . S
H2358 C2343 0.961 . S
H2359 C2343 0.961 . S
H2360 C2344 0.931 . S
H2361 C2349 0.930 . S
H2362 C2350 0.956 . S
H2363 C2350 0.961 . S
H2364 C2350 0.961 . S
H2365 C2351 0.958 . S
H2366 C2351 0.961 . S
H2367 C2351 0.960 . S
C2368 C2369 1.391 . S
C2368 C2370 1.394 . S
C2368 H2384 0.931 1_655 S
C2369 C2368 1.391 . S
C2369 C2373 1.376 . S
C2370 C2368 1.394 . S
C2370 C2371 1.369 . S
C2370 C2374 1.531 1_655 S
C2371 C2370 1.369 . S
C2371 C2372 1.410 . S
C2371 C2379 1.503 . S
C2372 C2371 1.410 . S
C2372 C2373 1.392 . S
C2372 C2375 1.511 . S
C2373 C2369 1.376 . S
C2373 C2372 1.392 . S
C2373 H2385 0.929 . S
C2374 C2370 1.531 1_455 S
C2374 H2386 0.960 1_455 S
C2374 H2387 0.962 . S
C2374 H2388 0.960 . S
C2375 C2372 1.511 . S
C2375 H2389 0.961 . S
C2375 H2390 0.961 . S
C2375 H2391 0.961 . S
C2376 C2377 1.370 . S
C2376 C2378 1.363 . S
C2376 H2392 0.931 . S
C2377 C2376 1.370 . S
C2377 C2381 1.408 . S
C2378 C2376 1.363 . S
C2378 C2379 1.370 . S
C2378 C2382 1.524 . S
C2379 C2371 1.503 . S
C2379 C2378 1.370 . S
C2379 C2380 1.403 . S
C2380 C2379 1.403 . S
C2380 C2381 1.404 . S
C2380 C2383 1.539 . S
C2381 C2377 1.408 . S
C2381 C2380 1.404 . S
C2381 H2393 0.930 . S
C2382 C2378 1.524 . S
C2382 H2394 0.956 . S
C2382 H2395 0.961 . S
C2382 H2396 0.961 . S
C2383 C2380 1.539 . S
C2383 H2397 0.958 . S
C2383 H2398 0.961 . S
C2383 H2399 0.960 . S
H2384 C2368 0.931 1_455 S
H2385 C2373 0.929 . S
H2386 C2374 0.960 1_655 S
H2387 C2374 0.962 . S
H2388 C2374 0.960 . S
H2389 C2375 0.961 . S
H2390 C2375 0.961 . S
H2391 C2375 0.961 . S
H2392 C2376 0.931 . S
H2393 C2381 0.930 . S
H2394 C2382 0.956 . S
H2395 C2382 0.961 . S
H2396 C2382 0.961 . S
H2397 C2383 0.958 . S
H2398 C2383 0.961 . S
H2399 C2383 0.960 . S
C2400 C2401 1.391 . S
C2400 C2402 1.394 . S
C2400 H2416 0.931 . S
C2401 C2400 1.391 . S
C2401 C2405 1.376 . S
C2402 C2400 1.394 . S
C2402 C2403 1.369 . S
C2402 C2406 1.531 . S
C2403 C2402 1.369 . S
C2403 C2404 1.410 . S
C2403 C2411 1.503 . S
C2404 C2403 1.410 . S
C2404 C2405 1.392 . S
C2404 C2407 1.511 1_655 S
C2405 C2401 1.376 . S
C2405 C2404 1.392 . S
C2405 H2417 0.929 1_655 S
C2406 C2402 1.531 . S
C2406 H2418 0.960 . S
C2406 H2419 0.962 . S
C2406 H2420 0.960 . S
C2407 C2404 1.511 1_455 S
C2407 H2421 0.961 . S
C2407 H2422 0.961 1_455 S
C2407 H2423 0.961 . S
C2408 C2409 1.370 . S
C2408 C2410 1.363 . S
C2408 H2424 0.931 . S
C2409 C2408 1.370 . S
C2409 C2413 1.408 . S
C2410 C2408 1.363 . S
C2410 C2411 1.370 . S
C2410 C2414 1.524 . S
C2411 C2403 1.503 . S
C2411 C2410 1.370 . S
C2411 C2412 1.403 . S
C2412 C2411 1.403 . S
C2412 C2413 1.404 . S
C2412 C2415 1.539 . S
C2413 C2409 1.408 . S
C2413 C2412 1.404 . S
C2413 H2425 0.930 . S
C2414 C2410 1.524 . S
C2414 H2426 0.956 . S
C2414 H2427 0.961 . S
C2414 H2428 0.961 . S
C2415 C2412 1.539 . S
C2415 H2429 0.958 . S
C2415 H2430 0.961 . S
C2415 H2431 0.960 . S
H2416 C2400 0.931 . S
H2417 C2405 0.929 1_455 S
H2418 C2406 0.960 . S
H2419 C2406 0.962 . S
H2420 C2406 0.960 . S
H2421 C2407 0.961 . S
H2422 C2407 0.961 1_655 S
H2423 C2407 0.961 . S
H2424 C2408 0.931 . S
H2425 C2413 0.930 . S
H2426 C2414 0.956 . S
H2427 C2414 0.961 . S
H2428 C2414 0.961 . S
H2429 C2415 0.958 . S
H2430 C2415 0.961 . S
H2431 C2415 0.960 . S
C2432 C2433 1.391 . S
C2432 C2434 1.394 . S
C2432 H2448 0.931 . S
C2433 C2432 1.391 . S
C2433 C2437 1.376 . S
C2434 C2432 1.394 . S
C2434 C2435 1.369 . S
C2434 C2438 1.531 . S
C2435 C2434 1.369 . S
C2435 C2436 1.410 . S
C2435 C2443 1.503 . S
C2436 C2435 1.410 . S
C2436 C2437 1.392 . S
C2436 C2439 1.511 . S
C2437 C2433 1.376 . S
C2437 C2436 1.392 . S
C2437 H2449 0.929 . S
C2438 C2434 1.531 . S
C2438 H2450 0.960 . S
C2438 H2451 0.962 . S
C2438 H2452 0.960 . S
C2439 C2436 1.511 . S
C2439 H2453 0.961 . S
C2439 H2454 0.961 . S
C2439 H2455 0.961 . S
C2440 C2441 1.370 . S
C2440 C2442 1.363 . S
C2440 H2456 0.931 1_455 S
C2441 C2440 1.370 . S
C2441 C2445 1.408 . S
C2442 C2440 1.363 . S
C2442 C2443 1.370 . S
C2442 C2446 1.524 . S
C2443 C2435 1.503 . S
C2443 C2442 1.370 . S
C2443 C2444 1.403 . S
C2444 C2443 1.403 . S
C2444 C2445 1.404 . S
C2444 C2447 1.539 . S
C2445 C2441 1.408 . S
C2445 C2444 1.404 . S
C2445 H2457 0.930 . S
C2446 C2442 1.524 . S
C2446 H2458 0.956 1_455 S
C2446 H2459 0.961 . S
C2446 H2460 0.961 1_455 S
C2447 C2444 1.539 . S
C2447 H2461 0.958 . S
C2447 H2462 0.961 . S
C2447 H2463 0.960 . S
H2448 C2432 0.931 . S
H2449 C2437 0.929 . S
H2450 C2438 0.960 . S
H2451 C2438 0.962 . S
H2452 C2438 0.960 . S
H2453 C2439 0.961 . S
H2454 C2439 0.961 . S
H2455 C2439 0.961 . S
H2456 C2440 0.931 1_655 S
H2457 C2445 0.930 . S
H2458 C2446 0.956 1_655 S
H2459 C2446 0.961 . S
H2460 C2446 0.961 1_655 S
H2461 C2447 0.958 . S
H2462 C2447 0.961 . S
H2463 C2447 0.960 . S
C2464 C2465 1.391 . S
C2464 C2466 1.394 . S
C2464 H2480 0.931 . S
C2465 C2464 1.391 . S
C2465 C2469 1.376 . S
C2466 C2464 1.394 . S
C2466 C2467 1.369 . S
C2466 C2470 1.531 . S
C2467 C2466 1.369 . S
C2467 C2468 1.410 . S
C2467 C2475 1.503 . S
C2468 C2467 1.410 . S
C2468 C2469 1.392 . S
C2468 C2471 1.511 . S
C2469 C2465 1.376 . S
C2469 C2468 1.392 . S
C2469 H2481 0.929 . S
C2470 C2466 1.531 . S
C2470 H2482 0.960 . S
C2470 H2483 0.962 1_455 S
C2470 H2484 0.960 . S
C2471 C2468 1.511 . S
C2471 H2485 0.961 . S
C2471 H2486 0.961 . S
C2471 H2487 0.961 . S
C2472 C2473 1.370 . S
C2472 C2474 1.363 . S
C2472 H2488 0.931 . S
C2473 C2472 1.370 . S
C2473 C2477 1.408 . S
C2474 C2472 1.363 . S
C2474 C2475 1.370 . S
C2474 C2478 1.524 . S
C2475 C2467 1.503 . S
C2475 C2474 1.370 . S
C2475 C2476 1.403 . S
C2476 C2475 1.403 . S
C2476 C2477 1.404 . S
C2476 C2479 1.539 . S
C2477 C2473 1.408 . S
C2477 C2476 1.404 . S
C2477 H2489 0.930 . S
C2478 C2474 1.524 . S
C2478 H2490 0.956 . S
C2478 H2491 0.961 . S
C2478 H2492 0.961 . S
C2479 C2476 1.539 . S
C2479 H2493 0.958 . S
C2479 H2494 0.961 . S
C2479 H2495 0.960 . S
H2480 C2464 0.931 . S
H2481 C2469 0.929 . S
H2482 C2470 0.960 . S
H2483 C2470 0.962 1_655 S
H2484 C2470 0.960 . S
H2485 C2471 0.961 . S
H2486 C2471 0.961 . S
H2487 C2471 0.961 . S
H2488 C2472 0.931 . S
H2489 C2477 0.930 . S
H2490 C2478 0.956 . S
H2491 C2478 0.961 . S
H2492 C2478 0.961 . S
H2493 C2479 0.958 . S
H2494 C2479 0.961 . S
H2495 C2479 0.960 . S
C2496 C2497 1.391 . S
C2496 C2498 1.394 . S
C2496 H2512 0.931 1_655 S
C2497 C2496 1.391 . S
C2497 C2501 1.376 . S
C2498 C2496 1.394 . S
C2498 C2499 1.369 . S
C2498 C2502 1.531 1_655 S
C2499 C2498 1.369 . S
C2499 C2500 1.410 . S
C2499 C2507 1.503 . S
C2500 C2499 1.410 . S
C2500 C2501 1.392 . S
C2500 C2503 1.511 . S
C2501 C2497 1.376 . S
C2501 C2500 1.392 . S
C2501 H2513 0.929 . S
C2502 C2498 1.531 1_455 S
C2502 H2514 0.960 1_455 S
C2502 H2515 0.962 . S
C2502 H2516 0.960 . S
C2503 C2500 1.511 . S
C2503 H2517 0.961 . S
C2503 H2518 0.961 . S
C2503 H2519 0.961 . S
C2504 C2505 1.370 . S
C2504 C2506 1.363 . S
C2504 H2520 0.931 . S
C2505 C2504 1.370 . S
C2505 C2509 1.408 . S
C2506 C2504 1.363 . S
C2506 C2507 1.370 . S
C2506 C2510 1.524 . S
C2507 C2499 1.503 . S
C2507 C2506 1.370 . S
C2507 C2508 1.403 . S
C2508 C2507 1.403 . S
C2508 C2509 1.404 . S
C2508 C2511 1.539 . S
C2509 C2505 1.408 . S
C2509 C2508 1.404 . S
C2509 H2521 0.930 . S
C2510 C2506 1.524 . S
C2510 H2522 0.956 . S
C2510 H2523 0.961 . S
C2510 H2524 0.961 . S
C2511 C2508 1.539 . S
C2511 H2525 0.958 . S
C2511 H2526 0.961 . S
C2511 H2527 0.960 . S
H2512 C2496 0.931 1_455 S
H2513 C2501 0.929 . S
H2514 C2502 0.960 1_655 S
H2515 C2502 0.962 . S
H2516 C2502 0.960 . S
H2517 C2503 0.961 . S
H2518 C2503 0.961 . S
H2519 C2503 0.961 . S
H2520 C2504 0.931 . S
H2521 C2509 0.930 . S
H2522 C2510 0.956 . S
H2523 C2510 0.961 . S
H2524 C2510 0.961 . S
H2525 C2511 0.958 . S
H2526 C2511 0.961 . S
H2527 C2511 0.960 . S
C2528 C2529 1.391 . S
C2528 C2530 1.394 . S
C2528 H2544 0.931 . S
C2529 C2528 1.391 . S
C2529 C2533 1.376 . S
C2530 C2528 1.394 . S
C2530 C2531 1.369 . S
C2530 C2534 1.531 . S
C2531 C2530 1.369 . S
C2531 C2532 1.410 . S
C2531 C2539 1.503 . S
C2532 C2531 1.410 . S
C2532 C2533 1.392 . S
C2532 C2535 1.511 . S
C2533 C2529 1.376 . S
C2533 C2532 1.392 . S
C2533 H2545 0.929 . S
C2534 C2530 1.531 . S
C2534 H2546 0.960 1_655 S
C2534 H2547 0.962 . S
C2534 H2548 0.960 1_655 S
C2535 C2532 1.511 . S
C2535 H2549 0.961 . S
C2535 H2550 0.961 . S
C2535 H2551 0.961 . S
C2536 C2537 1.370 . S
C2536 C2538 1.363 . S
C2536 H2552 0.931 . S
C2537 C2536 1.370 . S
C2537 C2541 1.408 . S
C2538 C2536 1.363 . S
C2538 C2539 1.370 . S
C2538 C2542 1.524 . S
C2539 C2531 1.503 . S
C2539 C2538 1.370 . S
C2539 C2540 1.403 . S
C2540 C2539 1.403 . S
C2540 C2541 1.404 . S
C2540 C2543 1.539 . S
C2541 C2537 1.408 . S
C2541 C2540 1.404 . S
C2541 H2553 0.930 1_655 S
C2542 C2538 1.524 . S
C2542 H2554 0.956 . S
C2542 H2555 0.961 . S
C2542 H2556 0.961 . S
C2543 C2540 1.539 . S
C2543 H2557 0.958 1_655 S
C2543 H2558 0.961 . S
C2543 H2559 0.960 . S
H2544 C2528 0.931 . S
H2545 C2533 0.929 . S
H2546 C2534 0.960 1_455 S
H2547 C2534 0.962 . S
H2548 C2534 0.960 1_455 S
H2549 C2535 0.961 . S
H2550 C2535 0.961 . S
H2551 C2535 0.961 . S
H2552 C2536 0.931 . S
H2553 C2541 0.930 1_455 S
H2554 C2542 0.956 . S
H2555 C2542 0.961 . S
H2556 C2542 0.961 . S
H2557 C2543 0.958 1_455 S
H2558 C2543 0.961 . S
H2559 C2543 0.960 . S
C2560 C2561 1.391 . S
C2560 C2562 1.394 . S
C2560 H2576 0.931 . S
C2561 C2560 1.391 . S
C2561 C2565 1.376 . S
C2562 C2560 1.394 . S
C2562 C2563 1.369 . S
C2562 C2566 1.531 . S
C2563 C2562 1.369 . S
C2563 C2564 1.410 . S
C2563 C2571 1.503 . S
C2564 C2563 1.410 . S
C2564 C2565 1.392 . S
C2564 C2567 1.511 . S
C2565 C2561 1.376 . S
C2565 C2564 1.392 . S
C2565 H2577 0.929 . S
C2566 C2562 1.531 . S
C2566 H2578 0.960 . S
C2566 H2579 0.962 . S
C2566 H2580 0.960 . S
C2567 C2564 1.511 . S
C2567 H2581 0.961 . S
C2567 H2582 0.961 . S
C2567 H2583 0.961 . S
C2568 C2569 1.370 . S
C2568 C2570 1.363 . S
C2568 H2584 0.931 . S
C2569 C2568 1.370 . S
C2569 C2573 1.408 . S
C2570 C2568 1.363 . S
C2570 C2571 1.370 . S
C2570 C2574 1.524 . S
C2571 C2563 1.503 . S
C2571 C2570 1.370 . S
C2571 C2572 1.403 . S
C2572 C2571 1.403 . S
C2572 C2573 1.404 . S
C2572 C2575 1.539 . S
C2573 C2569 1.408 . S
C2573 C2572 1.404 . S
C2573 H2585 0.930 . S
C2574 C2570 1.524 . S
C2574 H2586 0.956 . S
C2574 H2587 0.961 . S
C2574 H2588 0.961 . S
C2575 C2572 1.539 . S
C2575 H2589 0.958 . S
C2575 H2590 0.961 . S
C2575 H2591 0.960 . S
H2576 C2560 0.931 . S
H2577 C2565 0.929 . S
H2578 C2566 0.960 . S
H2579 C2566 0.962 . S
H2580 C2566 0.960 . S
H2581 C2567 0.961 . S
H2582 C2567 0.961 . S
H2583 C2567 0.961 . S
H2584 C2568 0.931 . S
H2585 C2573 0.930 . S
H2586 C2574 0.956 . S
H2587 C2574 0.961 . S
H2588 C2574 0.961 . S
H2589 C2575 0.958 . S
H2590 C2575 0.961 . S
H2591 C2575 0.960 . S
C2592 C2593 1.391 . S
C2592 C2594 1.394 . S
C2592 H2608 0.931 . S
C2593 C2592 1.391 . S
C2593 C2597 1.376 . S
C2594 C2592 1.394 . S
C2594 C2595 1.369 . S
C2594 C2598 1.531 . S
C2595 C2594 1.369 . S
C2595 C2596 1.410 . S
C2595 C2603 1.503 . S
C2596 C2595 1.410 . S
C2596 C2597 1.392 . S
C2596 C2599 1.511 . S
C2597 C2593 1.376 . S
C2597 C2596 1.392 . S
C2597 H2609 0.929 . S
C2598 C2594 1.531 . S
C2598 H2610 0.960 . S
C2598 H2611 0.962 . S
C2598 H2612 0.960 . S
C2599 C2596 1.511 . S
C2599 H2613 0.961 . S
C2599 H2614 0.961 . S
C2599 H2615 0.961 . S
C2600 C2601 1.370 . S
C2600 C2602 1.363 . S
C2600 H2616 0.931 . S
C2601 C2600 1.370 . S
C2601 C2605 1.408 . S
C2602 C2600 1.363 . S
C2602 C2603 1.370 . S
C2602 C2606 1.524 . S
C2603 C2595 1.503 . S
C2603 C2602 1.370 . S
C2603 C2604 1.403 . S
C2604 C2603 1.403 . S
C2604 C2605 1.404 . S
C2604 C2607 1.539 . S
C2605 C2601 1.408 . S
C2605 C2604 1.404 . S
C2605 H2617 0.930 . S
C2606 C2602 1.524 . S
C2606 H2618 0.956 . S
C2606 H2619 0.961 . S
C2606 H2620 0.961 . S
C2607 C2604 1.539 . S
C2607 H2621 0.958 . S
C2607 H2622 0.961 . S
C2607 H2623 0.960 . S
H2608 C2592 0.931 . S
H2609 C2597 0.929 . S
H2610 C2598 0.960 . S
H2611 C2598 0.962 . S
H2612 C2598 0.960 . S
H2613 C2599 0.961 . S
H2614 C2599 0.961 . S
H2615 C2599 0.961 . S
H2616 C2600 0.931 . S
H2617 C2605 0.930 . S
H2618 C2606 0.956 . S
H2619 C2606 0.961 . S
H2620 C2606 0.961 . S
H2621 C2607 0.958 . S
H2622 C2607 0.961 . S
H2623 C2607 0.960 . S
C2624 C2625 1.391 . S
C2624 C2626 1.394 . S
C2624 H2640 0.931 . S
C2625 C2624 1.391 . S
C2625 C2629 1.376 . S
C2626 C2624 1.394 . S
C2626 C2627 1.369 . S
C2626 C2630 1.531 . S
C2627 C2626 1.369 . S
C2627 C2628 1.410 . S
C2627 C2635 1.503 . S
C2628 C2627 1.410 . S
C2628 C2629 1.392 . S
C2628 C2631 1.511 . S
C2629 C2625 1.376 . S
C2629 C2628 1.392 . S
C2629 H2641 0.929 . S
C2630 C2626 1.531 . S
C2630 H2642 0.960 . S
C2630 H2643 0.962 . S
C2630 H2644 0.960 . S
C2631 C2628 1.511 . S
C2631 H2645 0.961 . S
C2631 H2646 0.961 . S
C2631 H2647 0.961 . S
C2632 C2633 1.370 . S
C2632 C2634 1.363 . S
C2632 H2648 0.931 . S
C2633 C2632 1.370 . S
C2633 C2637 1.408 . S
C2634 C2632 1.363 . S
C2634 C2635 1.370 . S
C2634 C2638 1.524 . S
C2635 C2627 1.503 . S
C2635 C2634 1.370 . S
C2635 C2636 1.403 . S
C2636 C2635 1.403 . S
C2636 C2637 1.404 . S
C2636 C2639 1.539 . S
C2637 C2633 1.408 . S
C2637 C2636 1.404 . S
C2637 H2649 0.930 . S
C2638 C2634 1.524 . S
C2638 H2650 0.956 . S
C2638 H2651 0.961 . S
C2638 H2652 0.961 . S
C2639 C2636 1.539 . S
C2639 H2653 0.958 . S
C2639 H2654 0.961 . S
C2639 H2655 0.960 . S
H2640 C2624 0.931 . S
H2641 C2629 0.929 . S
H2642 C2630 0.960 . S
H2643 C2630 0.962 . S
H2644 C2630 0.960 . S
H2645 C2631 0.961 . S
H2646 C2631 0.961 . S
H2647 C2631 0.961 . S
H2648 C2632 0.931 . S
H2649 C2637 0.930 . S
H2650 C2638 0.956 . S
H2651 C2638 0.961 . S
H2652 C2638 0.961 . S
H2653 C2639 0.958 . S
H2654 C2639 0.961 . S
H2655 C2639 0.960 . S
C2656 C2657 1.391 . S
C2656 C2658 1.394 . S
C2656 H2672 0.931 . S
C2657 C2656 1.391 . S
C2657 C2661 1.376 . S
C2658 C2656 1.394 . S
C2658 C2659 1.369 . S
C2658 C2662 1.531 . S
C2659 C2658 1.369 . S
C2659 C2660 1.410 . S
C2659 C2667 1.503 . S
C2660 C2659 1.410 . S
C2660 C2661 1.392 . S
C2660 C2663 1.511 . S
C2661 C2657 1.376 . S
C2661 C2660 1.392 . S
C2661 H2673 0.929 . S
C2662 C2658 1.531 . S
C2662 H2674 0.960 . S
C2662 H2675 0.962 . S
C2662 H2676 0.960 . S
C2663 C2660 1.511 . S
C2663 H2677 0.961 . S
C2663 H2678 0.961 . S
C2663 H2679 0.961 . S
C2664 C2665 1.370 . S
C2664 C2666 1.363 . S
C2664 H2680 0.931 . S
C2665 C2664 1.370 . S
C2665 C2669 1.408 . S
C2666 C2664 1.363 . S
C2666 C2667 1.370 . S
C2666 C2670 1.524 . S
C2667 C2659 1.503 . S
C2667 C2666 1.370 . S
C2667 C2668 1.403 . S
C2668 C2667 1.403 . S
C2668 C2669 1.404 . S
C2668 C2671 1.539 . S
C2669 C2665 1.408 . S
C2669 C2668 1.404 . S
C2669 H2681 0.930 . S
C2670 C2666 1.524 . S
C2670 H2682 0.956 . S
C2670 H2683 0.961 . S
C2670 H2684 0.961 . S
C2671 C2668 1.539 . S
C2671 H2685 0.958 . S
C2671 H2686 0.961 . S
C2671 H2687 0.960 . S
H2672 C2656 0.931 . S
H2673 C2661 0.929 . S
H2674 C2662 0.960 . S
H2675 C2662 0.962 . S
H2676 C2662 0.960 . S
H2677 C2663 0.961 . S
H2678 C2663 0.961 . S
H2679 C2663 0.961 . S
H2680 C2664 0.931 . S
H2681 C2669 0.930 . S
H2682 C2670 0.956 . S
H2683 C2670 0.961 . S
H2684 C2670 0.961 . S
H2685 C2671 0.958 . S
H2686 C2671 0.961 . S
H2687 C2671 0.960 . S
C2688 C2689 1.391 . S
C2688 C2690 1.394 . S
C2688 H2704 0.931 . S
C2689 C2688 1.391 . S
C2689 C2693 1.376 . S
C2690 C2688 1.394 . S
C2690 C2691 1.369 . S
C2690 C2694 1.531 . S
C2691 C2690 1.369 . S
C2691 C2692 1.410 . S
C2691 C2699 1.503 . S
C2692 C2691 1.410 . S
C2692 C2693 1.392 . S
C2692 C2695 1.511 . S
C2693 C2689 1.376 . S
C2693 C2692 1.392 . S
C2693 H2705 0.929 . S
C2694 C2690 1.531 . S
C2694 H2706 0.960 . S
C2694 H2707 0.962 . S
C2694 H2708 0.960 . S
C2695 C2692 1.511 . S
C2695 H2709 0.961 . S
C2695 H2710 0.961 . S
C2695 H2711 0.961 . S
C2696 C2697 1.370 . S
C2696 C2698 1.363 . S
C2696 H2712 0.931 . S
C2697 C2696 1.370 . S
C2697 C2701 1.408 . S
C2698 C2696 1.363 . S
C2698 C2699 1.370 . S
C2698 C2702 1.524 . S
C2699 C2691 1.503 . S
C2699 C2698 1.370 . S
C2699 C2700 1.403 . S
C2700 C2699 1.403 . S
C2700 C2701 1.404 . S
C2700 C2703 1.539 . S
C2701 C2697 1.408 . S
C2701 C2700 1.404 . S
C2701 H2713 0.930 . S
C2702 C2698 1.524 . S
C2702 H2714 0.956 . S
C2702 H2715 0.961 . S
C2702 H2716 0.961 . S
C2703 C2700 1.539 . S
C2703 H2717 0.958 . S
C2703 H2718 0.961 . S
C2703 H2719 0.960 . S
H2704 C2688 0.931 . S
H2705 C2693 0.929 . S
H2706 C2694 0.960 . S
H2707 C2694 0.962 . S
H2708 C2694 0.960 . S
H2709 C2695 0.961 . S
H2710 C2695 0.961 . S
H2711 C2695 0.961 . S
H2712 C2696 0.931 . S
H2713 C2701 0.930 . S
H2714 C2702 0.956 . S
H2715 C2702 0.961 . S
H2716 C2702 0.961 . S
H2717 C2703 0.958 . S
H2718 C2703 0.961 . S
H2719 C2703 0.960 . S
C2720 C2721 1.391 . S
C2720 C2722 1.394 . S
C2720 H2736 0.931 . S
C2721 C2720 1.391 . S
C2721 C2725 1.376 . S
C2722 C2720 1.394 . S
C2722 C2723 1.369 . S
C2722 C2726 1.531 . S
C2723 C2722 1.369 . S
C2723 C2724 1.410 . S
C2723 C2731 1.503 . S
C2724 C2723 1.410 . S
C2724 C2725 1.392 . S
C2724 C2727 1.511 . S
C2725 C2721 1.376 . S
C2725 C2724 1.392 . S
C2725 H2737 0.929 . S
C2726 C2722 1.531 . S
C2726 H2738 0.960 . S
C2726 H2739 0.962 . S
C2726 H2740 0.960 . S
C2727 C2724 1.511 . S
C2727 H2741 0.961 . S
C2727 H2742 0.961 . S
C2727 H2743 0.961 . S
C2728 C2729 1.370 . S
C2728 C2730 1.363 . S
C2728 H2744 0.931 . S
C2729 C2728 1.370 . S
C2729 C2733 1.408 . S
C2730 C2728 1.363 . S
C2730 C2731 1.370 . S
C2730 C2734 1.524 . S
C2731 C2723 1.503 . S
C2731 C2730 1.370 . S
C2731 C2732 1.403 . S
C2732 C2731 1.403 . S
C2732 C2733 1.404 . S
C2732 C2735 1.539 . S
C2733 C2729 1.408 . S
C2733 C2732 1.404 . S
C2733 H2745 0.930 . S
C2734 C2730 1.524 . S
C2734 H2746 0.956 . S
C2734 H2747 0.961 . S
C2734 H2748 0.961 . S
C2735 C2732 1.539 . S
C2735 H2749 0.958 . S
C2735 H2750 0.961 . S
C2735 H2751 0.960 . S
H2736 C2720 0.931 . S
H2737 C2725 0.929 . S
H2738 C2726 0.960 . S
H2739 C2726 0.962 . S
H2740 C2726 0.960 . S
H2741 C2727 0.961 . S
H2742 C2727 0.961 . S
H2743 C2727 0.961 . S
H2744 C2728 0.931 . S
H2745 C2733 0.930 . S
H2746 C2734 0.956 . S
H2747 C2734 0.961 . S
H2748 C2734 0.961 . S
H2749 C2735 0.958 . S
H2750 C2735 0.961 . S
H2751 C2735 0.960 . S
C2752 C2753 1.391 . S
C2752 C2754 1.394 . S
C2752 H2768 0.931 . S
C2753 C2752 1.391 . S
C2753 C2757 1.376 . S
C2754 C2752 1.394 . S
C2754 C2755 1.369 . S
C2754 C2758 1.531 . S
C2755 C2754 1.369 . S
C2755 C2756 1.410 . S
C2755 C2763 1.503 . S
C2756 C2755 1.410 . S
C2756 C2757 1.392 . S
C2756 C2759 1.511 . S
C2757 C2753 1.376 . S
C2757 C2756 1.392 . S
C2757 H2769 0.929 . S
C2758 C2754 1.531 . S
C2758 H2770 0.960 . S
C2758 H2771 0.962 . S
C2758 H2772 0.960 . S
C2759 C2756 1.511 . S
C2759 H2773 0.961 . S
C2759 H2774 0.961 . S
C2759 H2775 0.961 . S
C2760 C2761 1.370 . S
C2760 C2762 1.363 . S
C2760 H2776 0.931 . S
C2761 C2760 1.370 . S
C2761 C2765 1.408 . S
C2762 C2760 1.363 . S
C2762 C2763 1.370 . S
C2762 C2766 1.524 . S
C2763 C2755 1.503 . S
C2763 C2762 1.370 . S
C2763 C2764 1.403 . S
C2764 C2763 1.403 . S
C2764 C2765 1.404 . S
C2764 C2767 1.539 . S
C2765 C2761 1.408 . S
C2765 C2764 1.404 . S
C2765 H2777 0.930 . S
C2766 C2762 1.524 . S
C2766 H2778 0.956 . S
C2766 H2779 0.961 . S
C2766 H2780 0.961 . S
C2767 C2764 1.539 . S
C2767 H2781 0.958 . S
C2767 H2782 0.961 . S
C2767 H2783 0.960 . S
H2768 C2752 0.931 . S
H2769 C2757 0.929 . S
H2770 C2758 0.960 . S
H2771 C2758 0.962 . S
H2772 C2758 0.960 . S
H2773 C2759 0.961 . S
H2774 C2759 0.961 . S
H2775 C2759 0.961 . S
H2776 C2760 0.931 . S
H2777 C2765 0.930 . S
H2778 C2766 0.956 . S
H2779 C2766 0.961 . S
H2780 C2766 0.961 . S
H2781 C2767 0.958 . S
H2782 C2767 0.961 . S
H2783 C2767 0.960 . S
C2784 C2785 1.391 . S
C2784 C2786 1.394 . S
C2784 H2800 0.931 . S
C2785 C2784 1.391 . S
C2785 C2789 1.376 . S
C2786 C2784 1.394 . S
C2786 C2787 1.369 . S
C2786 C2790 1.531 . S
C2787 C2786 1.369 . S
C2787 C2788 1.410 . S
C2787 C2795 1.503 . S
C2788 C2787 1.410 . S
C2788 C2789 1.392 . S
C2788 C2791 1.511 . S
C2789 C2785 1.376 . S
C2789 C2788 1.392 . S
C2789 H2801 0.929 . S
C2790 C2786 1.531 . S
C2790 H2802 0.960 . S
C2790 H2803 0.962 . S
C2790 H2804 0.960 . S
C2791 C2788 1.511 . S
C2791 H2805 0.961 . S
C2791 H2806 0.961 . S
C2791 H2807 0.961 . S
C2792 C2793 1.370 . S
C2792 C2794 1.363 . S
C2792 H2808 0.931 . S
C2793 C2792 1.370 . S
C2793 C2797 1.408 . S
C2794 C2792 1.363 . S
C2794 C2795 1.370 . S
C2794 C2798 1.524 . S
C2795 C2787 1.503 . S
C2795 C2794 1.370 . S
C2795 C2796 1.403 . S
C2796 C2795 1.403 . S
C2796 C2797 1.404 . S
C2796 C2799 1.539 . S
C2797 C2793 1.408 . S
C2797 C2796 1.404 . S
C2797 H2809 0.930 . S
C2798 C2794 1.524 . S
C2798 H2810 0.956 . S
C2798 H2811 0.961 . S
C2798 H2812 0.961 . S
C2799 C2796 1.539 . S
C2799 H2813 0.958 . S
C2799 H2814 0.961 . S
C2799 H2815 0.960 . S
H2800 C2784 0.931 . S
H2801 C2789 0.929 . S
H2802 C2790 0.960 . S
H2803 C2790 0.962 . S
H2804 C2790 0.960 . S
H2805 C2791 0.961 . S
H2806 C2791 0.961 . S
H2807 C2791 0.961 . S
H2808 C2792 0.931 . S
H2809 C2797 0.930 . S
H2810 C2798 0.956 . S
H2811 C2798 0.961 . S
H2812 C2798 0.961 . S
H2813 C2799 0.958 . S
H2814 C2799 0.961 . S
H2815 C2799 0.960 . S
C2816 C2817 1.391 . S
C2816 C2818 1.394 . S
C2816 H2832 0.931 . S
C2817 C2816 1.391 . S
C2817 C2821 1.376 . S
C2818 C2816 1.394 . S
C2818 C2819 1.369 . S
C2818 C2822 1.531 . S
C2819 C2818 1.369 . S
C2819 C2820 1.410 . S
C2819 C2827 1.503 . S
C2820 C2819 1.410 . S
C2820 C2821 1.392 . S
C2820 C2823 1.511 . S
C2821 C2817 1.376 . S
C2821 C2820 1.392 . S
C2821 H2833 0.929 . S
C2822 C2818 1.531 . S
C2822 H2834 0.960 . S
C2822 H2835 0.962 . S
C2822 H2836 0.960 . S
C2823 C2820 1.511 . S
C2823 H2837 0.961 . S
C2823 H2838 0.961 . S
C2823 H2839 0.961 . S
C2824 C2825 1.370 . S
C2824 C2826 1.363 . S
C2824 H2840 0.931 . S
C2825 C2824 1.370 . S
C2825 C2829 1.408 . S
C2826 C2824 1.363 . S
C2826 C2827 1.370 . S
C2826 C2830 1.524 . S
C2827 C2819 1.503 . S
C2827 C2826 1.370 . S
C2827 C2828 1.403 . S
C2828 C2827 1.403 . S
C2828 C2829 1.404 . S
C2828 C2831 1.539 . S
C2829 C2825 1.408 . S
C2829 C2828 1.404 . S
C2829 H2841 0.930 . S
C2830 C2826 1.524 . S
C2830 H2842 0.956 . S
C2830 H2843 0.961 . S
C2830 H2844 0.961 . S
C2831 C2828 1.539 . S
C2831 H2845 0.958 . S
C2831 H2846 0.961 . S
C2831 H2847 0.960 . S
H2832 C2816 0.931 . S
H2833 C2821 0.929 . S
H2834 C2822 0.960 . S
H2835 C2822 0.962 . S
H2836 C2822 0.960 . S
H2837 C2823 0.961 . S
H2838 C2823 0.961 . S
H2839 C2823 0.961 . S
H2840 C2824 0.931 . S
H2841 C2829 0.930 . S
H2842 C2830 0.956 . S
H2843 C2830 0.961 . S
H2844 C2830 0.961 . S
H2845 C2831 0.958 . S
H2846 C2831 0.961 . S
H2847 C2831 0.960 . S
C2848 C2849 1.391 . S
C2848 C2850 1.394 . S
C2848 H2864 0.931 . S
C2849 C2848 1.391 . S
C2849 C2853 1.376 . S
C2850 C2848 1.394 . S
C2850 C2851 1.369 . S
C2850 C2854 1.531 . S
C2851 C2850 1.369 . S
C2851 C2852 1.410 . S
C2851 C2859 1.503 . S
C2852 C2851 1.410 . S
C2852 C2853 1.392 . S
C2852 C2855 1.511 . S
C2853 C2849 1.376 . S
C2853 C2852 1.392 . S
C2853 H2865 0.929 . S
C2854 C2850 1.531 . S
C2854 H2866 0.960 . S
C2854 H2867 0.962 . S
C2854 H2868 0.960 . S
C2855 C2852 1.511 . S
C2855 H2869 0.961 . S
C2855 H2870 0.961 . S
C2855 H2871 0.961 . S
C2856 C2857 1.370 . S
C2856 C2858 1.363 . S
C2856 H2872 0.931 . S
C2857 C2856 1.370 . S
C2857 C2861 1.408 . S
C2858 C2856 1.363 . S
C2858 C2859 1.370 . S
C2858 C2862 1.524 . S
C2859 C2851 1.503 . S
C2859 C2858 1.370 . S
C2859 C2860 1.403 . S
C2860 C2859 1.403 . S
C2860 C2861 1.404 . S
C2860 C2863 1.539 . S
C2861 C2857 1.408 . S
C2861 C2860 1.404 . S
C2861 H2873 0.930 . S
C2862 C2858 1.524 . S
C2862 H2874 0.956 . S
C2862 H2875 0.961 . S
C2862 H2876 0.961 . S
C2863 C2860 1.539 . S
C2863 H2877 0.958 . S
C2863 H2878 0.961 . S
C2863 H2879 0.960 . S
H2864 C2848 0.931 . S
H2865 C2853 0.929 . S
H2866 C2854 0.960 . S
H2867 C2854 0.962 . S
H2868 C2854 0.960 . S
H2869 C2855 0.961 . S
H2870 C2855 0.961 . S
H2871 C2855 0.961 . S
H2872 C2856 0.931 . S
H2873 C2861 0.930 . S
H2874 C2862 0.956 . S
H2875 C2862 0.961 . S
H2876 C2862 0.961 . S
H2877 C2863 0.958 . S
H2878 C2863 0.961 . S
H2879 C2863 0.960 . S
C2880 C2881 1.391 . S
C2880 C2882 1.394 . S
C2880 H2896 0.931 . S
C2881 C2880 1.391 . S
C2881 C2885 1.376 . S
C2882 C2880 1.394 . S
C2882 C2883 1.369 . S
C2882 C2886 1.531 . S
C2883 C2882 1.369 . S
C2883 C2884 1.410 . S
C2883 C2891 1.503 . S
C2884 C2883 1.410 . S
C2884 C2885 1.392 . S
C2884 C2887 1.511 . S
C2885 C2881 1.376 . S
C2885 C2884 1.392 . S
C2885 H2897 0.929 . S
C2886 C2882 1.531 . S
C2886 H2898 0.960 . S
C2886 H2899 0.962 . S
C2886 H2900 0.960 . S
C2887 C2884 1.511 . S
C2887 H2901 0.961 . S
C2887 H2902 0.961 . S
C2887 H2903 0.961 . S
C2888 C2889 1.370 . S
C2888 C2890 1.363 . S
C2888 H2904 0.931 . S
C2889 C2888 1.370 . S
C2889 C2893 1.408 . S
C2890 C2888 1.363 . S
C2890 C2891 1.370 . S
C2890 C2894 1.524 . S
C2891 C2883 1.503 . S
C2891 C2890 1.370 . S
C2891 C2892 1.403 . S
C2892 C2891 1.403 . S
C2892 C2893 1.404 . S
C2892 C2895 1.539 . S
C2893 C2889 1.408 . S
C2893 C2892 1.404 . S
C2893 H2905 0.930 . S
C2894 C2890 1.524 . S
C2894 H2906 0.956 . S
C2894 H2907 0.961 . S
C2894 H2908 0.961 . S
C2895 C2892 1.539 . S
C2895 H2909 0.958 . S
C2895 H2910 0.961 . S
C2895 H2911 0.960 . S
H2896 C2880 0.931 . S
H2897 C2885 0.929 . S
H2898 C2886 0.960 . S
H2899 C2886 0.962 . S
H2900 C2886 0.960 . S
H2901 C2887 0.961 . S
H2902 C2887 0.961 . S
H2903 C2887 0.961 . S
H2904 C2888 0.931 . S
H2905 C2893 0.930 . S
H2906 C2894 0.956 . S
H2907 C2894 0.961 . S
H2908 C2894 0.961 . S
H2909 C2895 0.958 . S
H2910 C2895 0.961 . S
H2911 C2895 0.960 . S
C2912 C2913 1.391 . S
C2912 C2914 1.394 . S
C2912 H2928 0.931 . S
C2913 C2912 1.391 . S
C2913 C2917 1.376 . S
C2914 C2912 1.394 . S
C2914 C2915 1.369 . S
C2914 C2918 1.531 . S
C2915 C2914 1.369 . S
C2915 C2916 1.410 . S
C2915 C2923 1.503 . S
C2916 C2915 1.410 . S
C2916 C2917 1.392 . S
C2916 C2919 1.511 . S
C2917 C2913 1.376 . S
C2917 C2916 1.392 . S
C2917 H2929 0.929 . S
C2918 C2914 1.531 . S
C2918 H2930 0.960 . S
C2918 H2931 0.962 . S
C2918 H2932 0.960 . S
C2919 C2916 1.511 . S
C2919 H2933 0.961 . S
C2919 H2934 0.961 . S
C2919 H2935 0.961 . S
C2920 C2921 1.370 . S
C2920 C2922 1.363 . S
C2920 H2936 0.931 . S
C2921 C2920 1.370 . S
C2921 C2925 1.408 . S
C2922 C2920 1.363 . S
C2922 C2923 1.370 . S
C2922 C2926 1.524 . S
C2923 C2915 1.503 . S
C2923 C2922 1.370 . S
C2923 C2924 1.403 . S
C2924 C2923 1.403 . S
C2924 C2925 1.404 . S
C2924 C2927 1.539 . S
C2925 C2921 1.408 . S
C2925 C2924 1.404 . S
C2925 H2937 0.930 . S
C2926 C2922 1.524 . S
C2926 H2938 0.956 . S
C2926 H2939 0.961 . S
C2926 H2940 0.961 . S
C2927 C2924 1.539 . S
C2927 H2941 0.958 . S
C2927 H2942 0.961 . S
C2927 H2943 0.960 . S
H2928 C2912 0.931 . S
H2929 C2917 0.929 . S
H2930 C2918 0.960 . S
H2931 C2918 0.962 . S
H2932 C2918 0.960 . S
H2933 C2919 0.961 . S
H2934 C2919 0.961 . S
H2935 C2919 0.961 . S
H2936 C2920 0.931 . S
H2937 C2925 0.930 . S
H2938 C2926 0.956 . S
H2939 C2926 0.961 . S
H2940 C2926 0.961 . S
H2941 C2927 0.958 . S
H2942 C2927 0.961 . S
H2943 C2927 0.960 . S
C2944 C2945 1.391 . S
C2944 C2946 1.394 . S
C2944 H2960 0.931 . S
C2945 C2944 1.391 . S
C2945 C2949 1.376 . S
C2946 C2944 1.394 . S
C2946 C2947 1.369 . S
C2946 C2950 1.531 . S
C2947 C2946 1.369 . S
C2947 C2948 1.410 . S
C2947 C2955 1.503 . S
C2948 C2947 1.410 . S
C2948 C2949 1.392 . S
C2948 C2951 1.511 . S
C2949 C2945 1.376 . S
C2949 C2948 1.392 . S
C2949 H2961 0.929 . S
C2950 C2946 1.531 . S
C2950 H2962 0.960 . S
C2950 H2963 0.962 . S
C2950 H2964 0.960 . S
C2951 C2948 1.511 . S
C2951 H2965 0.961 . S
C2951 H2966 0.961 . S
C2951 H2967 0.961 . S
C2952 C2953 1.370 . S
C2952 C2954 1.363 . S
C2952 H2968 0.931 . S
C2953 C2952 1.370 . S
C2953 C2957 1.408 . S
C2954 C2952 1.363 . S
C2954 C2955 1.370 . S
C2954 C2958 1.524 . S
C2955 C2947 1.503 . S
C2955 C2954 1.370 . S
C2955 C2956 1.403 . S
C2956 C2955 1.403 . S
C2956 C2957 1.404 . S
C2956 C2959 1.539 . S
C2957 C2953 1.408 . S
C2957 C2956 1.404 . S
C2957 H2969 0.930 . S
C2958 C2954 1.524 . S
C2958 H2970 0.956 . S
C2958 H2971 0.961 . S
C2958 H2972 0.961 . S
C2959 C2956 1.539 . S
C2959 H2973 0.958 . S
C2959 H2974 0.961 . S
C2959 H2975 0.960 . S
H2960 C2944 0.931 . S
H2961 C2949 0.929 . S
H2962 C2950 0.960 . S
H2963 C2950 0.962 . S
H2964 C2950 0.960 . S
H2965 C2951 0.961 . S
H2966 C2951 0.961 . S
H2967 C2951 0.961 . S
H2968 C2952 0.931 . S
H2969 C2957 0.930 . S
H2970 C2958 0.956 . S
H2971 C2958 0.961 . S
H2972 C2958 0.961 . S
H2973 C2959 0.958 . S
H2974 C2959 0.961 . S
H2975 C2959 0.960 . S
C2976 C2977 1.391 . S
C2976 C2978 1.394 . S
C2976 H2992 0.931 . S
C2977 C2976 1.391 . S
C2977 C2981 1.376 . S
C2978 C2976 1.394 . S
C2978 C2979 1.369 . S
C2978 C2982 1.531 . S
C2979 C2978 1.369 . S
C2979 C2980 1.410 . S
C2979 C2987 1.503 . S
C2980 C2979 1.410 . S
C2980 C2981 1.392 . S
C2980 C2983 1.511 . S
C2981 C2977 1.376 . S
C2981 C2980 1.392 . S
C2981 H2993 0.929 . S
C2982 C2978 1.531 . S
C2982 H2994 0.960 . S
C2982 H2995 0.962 . S
C2982 H2996 0.960 . S
C2983 C2980 1.511 . S
C2983 H2997 0.961 . S
C2983 H2998 0.961 . S
C2983 H2999 0.961 . S
C2984 C2985 1.370 . S
C2984 C2986 1.363 . S
C2984 H3000 0.931 . S
C2985 C2984 1.370 . S
C2985 C2989 1.408 . S
C2986 C2984 1.363 . S
C2986 C2987 1.370 . S
C2986 C2990 1.524 . S
C2987 C2979 1.503 . S
C2987 C2986 1.370 . S
C2987 C2988 1.403 . S
C2988 C2987 1.403 . S
C2988 C2989 1.404 . S
C2988 C2991 1.539 . S
C2989 C2985 1.408 . S
C2989 C2988 1.404 . S
C2989 H3001 0.930 . S
C2990 C2986 1.524 . S
C2990 H3002 0.956 . S
C2990 H3003 0.961 . S
C2990 H3004 0.961 . S
C2991 C2988 1.539 . S
C2991 H3005 0.958 . S
C2991 H3006 0.961 . S
C2991 H3007 0.960 . S
H2992 C2976 0.931 . S
H2993 C2981 0.929 . S
H2994 C2982 0.960 . S
H2995 C2982 0.962 . S
H2996 C2982 0.960 . S
H2997 C2983 0.961 . S
H2998 C2983 0.961 . S
H2999 C2983 0.961 . S
H3000 C2984 0.931 . S
H3001 C2989 0.930 . S
H3002 C2990 0.956 . S
H3003 C2990 0.961 . S
H3004 C2990 0.961 . S
H3005 C2991 0.958 . S
H3006 C2991 0.961 . S
H3007 C2991 0.960 . S
C3008 C3009 1.391 . S
C3008 C3010 1.394 . S
C3008 H3024 0.931 . S
C3009 C3008 1.391 . S
C3009 C3013 1.376 . S
C3010 C3008 1.394 . S
C3010 C3011 1.369 . S
C3010 C3014 1.531 . S
C3011 C3010 1.369 . S
C3011 C3012 1.410 . S
C3011 C3019 1.503 . S
C3012 C3011 1.410 . S
C3012 C3013 1.392 . S
C3012 C3015 1.511 . S
C3013 C3009 1.376 . S
C3013 C3012 1.392 . S
C3013 H3025 0.929 . S
C3014 C3010 1.531 . S
C3014 H3026 0.960 . S
C3014 H3027 0.962 . S
C3014 H3028 0.960 . S
C3015 C3012 1.511 . S
C3015 H3029 0.961 . S
C3015 H3030 0.961 . S
C3015 H3031 0.961 . S
C3016 C3017 1.370 . S
C3016 C3018 1.363 . S
C3016 H3032 0.931 . S
C3017 C3016 1.370 . S
C3017 C3021 1.408 . S
C3018 C3016 1.363 . S
C3018 C3019 1.370 . S
C3018 C3022 1.524 . S
C3019 C3011 1.503 . S
C3019 C3018 1.370 . S
C3019 C3020 1.403 . S
C3020 C3019 1.403 . S
C3020 C3021 1.404 . S
C3020 C3023 1.539 . S
C3021 C3017 1.408 . S
C3021 C3020 1.404 . S
C3021 H3033 0.930 . S
C3022 C3018 1.524 . S
C3022 H3034 0.956 . S
C3022 H3035 0.961 . S
C3022 H3036 0.961 . S
C3023 C3020 1.539 . S
C3023 H3037 0.958 . S
C3023 H3038 0.961 . S
C3023 H3039 0.960 . S
H3024 C3008 0.931 . S
H3025 C3013 0.929 . S
H3026 C3014 0.960 . S
H3027 C3014 0.962 . S
H3028 C3014 0.960 . S
H3029 C3015 0.961 . S
H3030 C3015 0.961 . S
H3031 C3015 0.961 . S
H3032 C3016 0.931 . S
H3033 C3021 0.930 . S
H3034 C3022 0.956 . S
H3035 C3022 0.961 . S
H3036 C3022 0.961 . S
H3037 C3023 0.958 . S
H3038 C3023 0.961 . S
H3039 C3023 0.960 . S
C3040 C3041 1.391 . S
C3040 C3042 1.394 . S
C3040 H3056 0.931 . S
C3041 C3040 1.391 . S
C3041 C3045 1.376 . S
C3042 C3040 1.394 . S
C3042 C3043 1.369 . S
C3042 C3046 1.531 . S
C3043 C3042 1.369 . S
C3043 C3044 1.410 . S
C3043 C3051 1.503 . S
C3044 C3043 1.410 . S
C3044 C3045 1.392 . S
C3044 C3047 1.511 . S
C3045 C3041 1.376 . S
C3045 C3044 1.392 . S
C3045 H3057 0.929 . S
C3046 C3042 1.531 . S
C3046 H3058 0.960 . S
C3046 H3059 0.962 . S
C3046 H3060 0.960 . S
C3047 C3044 1.511 . S
C3047 H3061 0.961 . S
C3047 H3062 0.961 . S
C3047 H3063 0.961 . S
C3048 C3049 1.370 . S
C3048 C3050 1.363 . S
C3048 H3064 0.931 . S
C3049 C3048 1.370 . S
C3049 C3053 1.408 . S
C3050 C3048 1.363 . S
C3050 C3051 1.370 . S
C3050 C3054 1.524 . S
C3051 C3043 1.503 . S
C3051 C3050 1.370 . S
C3051 C3052 1.403 . S
C3052 C3051 1.403 . S
C3052 C3053 1.404 . S
C3052 C3055 1.539 . S
C3053 C3049 1.408 . S
C3053 C3052 1.404 . S
C3053 H3065 0.930 . S
C3054 C3050 1.524 . S
C3054 H3066 0.956 . S
C3054 H3067 0.961 . S
C3054 H3068 0.961 . S
C3055 C3052 1.539 . S
C3055 H3069 0.958 . S
C3055 H3070 0.961 . S
C3055 H3071 0.960 . S
H3056 C3040 0.931 . S
H3057 C3045 0.929 . S
H3058 C3046 0.960 . S
H3059 C3046 0.962 . S
H3060 C3046 0.960 . S
H3061 C3047 0.961 . S
H3062 C3047 0.961 . S
H3063 C3047 0.961 . S
H3064 C3048 0.931 . S
H3065 C3053 0.930 . S
H3066 C3054 0.956 . S
H3067 C3054 0.961 . S
H3068 C3054 0.961 . S
H3069 C3055 0.958 . S
H3070 C3055 0.961 . S
H3071 C3055 0.960 . S
C3072 C3073 1.391 1_565 S
C3072 C3074 1.394 . S
C3072 H3088 0.931 . S
C3073 C3072 1.391 1_545 S
C3073 C3077 1.376 . S
C3074 C3072 1.394 . S
C3074 C3075 1.382 . S
C3074 C3078 1.531 . S
C3075 C3074 1.382 . S
C3075 C3076 1.393 1_565 S
C3075 C3083 1.506 . S
C3076 C3075 1.393 1_545 S
C3076 C3077 1.392 . S
C3076 C3079 1.511 . S
C3077 C3073 1.376 . S
C3077 C3076 1.392 . S
C3077 H3089 0.929 . S
C3078 C3074 1.531 . S
C3078 H3090 0.960 . S
C3078 H3091 0.962 . S
C3078 H3092 0.960 . S
C3079 C3076 1.511 . S
C3079 H3093 0.961 . S
C3079 H3094 0.961 . S
C3079 H3095 0.961 . S
C3080 C3081 1.388 . S
C3080 C3082 1.357 1_565 S
C3080 H3096 0.921 1_565 S
C3081 C3080 1.388 . S
C3081 C3085 1.408 . S
C3082 C3080 1.357 1_545 S
C3082 C3083 1.370 1_545 S
C3082 C3086 1.524 . S
C3083 C3075 1.506 . S
C3083 C3082 1.370 1_565 S
C3083 C3084 1.403 . S
C3084 C3083 1.403 . S
C3084 C3085 1.404 . S
C3084 C3087 1.539 . S
C3085 C3081 1.408 . S
C3085 C3084 1.404 . S
C3085 H3097 0.930 . S
C3086 C3082 1.524 . S
C3086 H3098 0.956 . S
C3086 H3099 0.961 . S
C3086 H3100 0.961 . S
C3087 C3084 1.539 . S
C3087 H3101 0.958 . S
C3087 H3102 0.961 . S
C3087 H3103 0.960 . S
H3088 C3072 0.931 . S
H3089 C3077 0.929 . S
H3090 C3078 0.960 . S
H3091 C3078 0.962 . S
H3092 C3078 0.960 . S
H3093 C3079 0.961 . S
H3094 C3079 0.961 . S
H3095 C3079 0.961 . S
H3096 C3080 0.921 1_545 S
H3097 C3085 0.930 . S
H3098 C3086 0.956 . S
H3099 C3086 0.961 . S
H3100 C3086 0.961 . S
H3101 C3087 0.958 . S
H3102 C3087 0.961 . S
H3103 C3087 0.960 . S
C3104 C3105 1.391 . S
C3104 C3106 1.394 . S
C3104 H3120 0.931 . S
C3105 C3104 1.391 . S
C3105 C3109 1.376 . S
C3106 C3104 1.394 . S
C3106 C3107 1.369 . S
C3106 C3110 1.531 . S
C3107 C3106 1.369 . S
C3107 C3108 1.410 . S
C3107 C3115 1.503 . S
C3108 C3107 1.410 . S
C3108 C3109 1.392 . S
C3108 C3111 1.511 . S
C3109 C3105 1.376 . S
C3109 C3108 1.392 . S
C3109 H3121 0.929 . S
C3110 C3106 1.531 . S
C3110 H3122 0.960 . S
C3110 H3123 0.962 . S
C3110 H3124 0.960 . S
C3111 C3108 1.511 . S
C3111 H3125 0.961 . S
C3111 H3126 0.961 . S
C3111 H3127 0.961 . S
C3112 C3113 1.370 . S
C3112 C3114 1.363 . S
C3112 H3128 0.931 . S
C3113 C3112 1.370 . S
C3113 C3117 1.408 . S
C3114 C3112 1.363 . S
C3114 C3115 1.370 . S
C3114 C3118 1.524 . S
C3115 C3107 1.503 . S
C3115 C3114 1.370 . S
C3115 C3116 1.403 . S
C3116 C3115 1.403 . S
C3116 C3117 1.404 . S
C3116 C3119 1.539 . S
C3117 C3113 1.408 . S
C3117 C3116 1.404 . S
C3117 H3129 0.930 . S
C3118 C3114 1.524 . S
C3118 H3130 0.956 . S
C3118 H3131 0.961 . S
C3118 H3132 0.961 . S
C3119 C3116 1.539 . S
C3119 H3133 0.958 . S
C3119 H3134 0.961 . S
C3119 H3135 0.960 . S
H3120 C3104 0.931 . S
H3121 C3109 0.929 . S
H3122 C3110 0.960 . S
H3123 C3110 0.962 . S
H3124 C3110 0.960 . S
H3125 C3111 0.961 . S
H3126 C3111 0.961 . S
H3127 C3111 0.961 . S
H3128 C3112 0.931 . S
H3129 C3117 0.930 . S
H3130 C3118 0.956 . S
H3131 C3118 0.961 . S
H3132 C3118 0.961 . S
H3133 C3119 0.958 . S
H3134 C3119 0.961 . S
H3135 C3119 0.960 . S
C3136 C3137 1.391 . S
C3136 C3138 1.394 . S
C3136 H3152 0.931 . S
C3137 C3136 1.391 . S
C3137 C3141 1.376 . S
C3138 C3136 1.394 . S
C3138 C3139 1.369 . S
C3138 C3142 1.531 . S
C3139 C3138 1.369 . S
C3139 C3140 1.410 . S
C3139 C3147 1.503 . S
C3140 C3139 1.410 . S
C3140 C3141 1.392 . S
C3140 C3143 1.511 . S
C3141 C3137 1.376 . S
C3141 C3140 1.392 . S
C3141 H3153 0.929 . S
C3142 C3138 1.531 . S
C3142 H3154 0.960 . S
C3142 H3155 0.962 . S
C3142 H3156 0.960 . S
C3143 C3140 1.511 . S
C3143 H3157 0.961 . S
C3143 H3158 0.961 . S
C3143 H3159 0.961 . S
C3144 C3145 1.370 . S
C3144 C3146 1.363 . S
C3144 H3160 0.931 . S
C3145 C3144 1.370 . S
C3145 C3149 1.408 . S
C3146 C3144 1.363 . S
C3146 C3147 1.370 . S
C3146 C3150 1.524 . S
C3147 C3139 1.503 . S
C3147 C3146 1.370 . S
C3147 C3148 1.403 . S
C3148 C3147 1.403 . S
C3148 C3149 1.404 . S
C3148 C3151 1.539 . S
C3149 C3145 1.408 . S
C3149 C3148 1.404 . S
C3149 H3161 0.930 . S
C3150 C3146 1.524 . S
C3150 H3162 0.956 . S
C3150 H3163 0.961 . S
C3150 H3164 0.961 . S
C3151 C3148 1.539 . S
C3151 H3165 0.958 . S
C3151 H3166 0.961 . S
C3151 H3167 0.960 . S
H3152 C3136 0.931 . S
H3153 C3141 0.929 . S
H3154 C3142 0.960 . S
H3155 C3142 0.962 . S
H3156 C3142 0.960 . S
H3157 C3143 0.961 . S
H3158 C3143 0.961 . S
H3159 C3143 0.961 . S
H3160 C3144 0.931 . S
H3161 C3149 0.930 . S
H3162 C3150 0.956 . S
H3163 C3150 0.961 . S
H3164 C3150 0.961 . S
H3165 C3151 0.958 . S
H3166 C3151 0.961 . S
H3167 C3151 0.960 . S
C3168 C3169 1.391 . S
C3168 C3170 1.394 . S
C3168 H3184 0.931 . S
C3169 C3168 1.391 . S
C3169 C3173 1.376 . S
C3170 C3168 1.394 . S
C3170 C3171 1.369 . S
C3170 C3174 1.531 . S
C3171 C3170 1.369 . S
C3171 C3172 1.410 . S
C3171 C3179 1.524 . S
C3172 C3171 1.410 . S
C3172 C3173 1.392 . S
C3172 C3175 1.511 . S
C3173 C3169 1.376 . S
C3173 C3172 1.392 . S
C3173 H3185 0.929 . S
C3174 C3170 1.531 . S
C3174 H3186 0.960 . S
C3174 H3187 0.962 1_545 S
C3174 H3188 0.960 . S
C3175 C3172 1.511 . S
C3175 H3189 0.965 . S
C3175 H3190 0.961 1_545 S
C3175 H3191 0.961 . S
C3176 C3177 1.370 . S
C3176 C3178 1.363 . S
C3176 H3192 0.931 . S
C3177 C3176 1.370 . S
C3177 C3181 1.408 1_565 S
C3178 C3176 1.363 . S
C3178 C3179 1.289 1_565 S
C3178 C3182 1.524 . S
C3179 C3171 1.524 . S
C3179 C3178 1.289 1_545 S
C3179 C3180 1.468 . S
C3180 C3179 1.468 . S
C3180 C3181 1.404 . S
C3180 C3183 1.539 . S
C3181 C3177 1.408 1_545 S
C3181 C3180 1.404 . S
C3181 H3193 0.930 . S
C3182 C3178 1.524 . S
C3182 H3194 0.956 . S
C3182 H3195 0.961 . S
C3182 H3196 0.961 . S
C3183 C3180 1.539 . S
C3183 H3197 0.958 . S
C3183 H3198 0.961 . S
C3183 H3199 0.960 . S
H3184 C3168 0.931 . S
H3185 C3173 0.929 . S
H3186 C3174 0.960 . S
H3187 C3174 0.962 1_565 S
H3188 C3174 0.960 . S
H3189 C3175 0.965 . S
H3190 C3175 0.961 1_565 S
H3191 C3175 0.961 . S
H3192 C3176 0.931 . S
H3193 C3181 0.930 . S
H3194 C3182 0.956 . S
H3195 C3182 0.961 . S
H3196 C3182 0.961 . S
H3197 C3183 0.958 . S
H3198 C3183 0.961 . S
H3199 C3183 0.960 . S
C3200 C3201 1.391 . S
C3200 C3202 1.394 . S
C3200 H3216 0.931 . S
C3201 C3200 1.391 . S
C3201 C3205 1.376 1_565 S
C3202 C3200 1.394 . S
C3202 C3203 1.360 1_565 S
C3202 C3206 1.531 . S
C3203 C3202 1.360 1_545 S
C3203 C3204 1.417 . S
C3203 C3211 1.505 . S
C3204 C3203 1.417 . S
C3204 C3205 1.392 . S
C3204 C3207 1.511 . S
C3205 C3201 1.376 1_545 S
C3205 C3204 1.392 . S
C3205 H3217 0.929 . S
C3206 C3202 1.531 . S
C3206 H3218 0.960 . S
C3206 H3219 0.962 . S
C3206 H3220 0.960 . S
C3207 C3204 1.511 . S
C3207 H3221 0.961 . S
C3207 H3222 0.961 . S
C3207 H3223 0.961 . S
C3208 C3209 1.338 1_565 S
C3208 C3210 1.373 . S
C3208 H3224 0.959 . S
C3209 C3208 1.338 1_545 S
C3209 C3213 1.408 . S
C3210 C3208 1.373 . S
C3210 C3211 1.370 1_565 S
C3210 C3214 1.524 . S
C3211 C3203 1.505 . S
C3211 C3210 1.370 1_545 S
C3211 C3212 1.403 . S
C3212 C3211 1.403 . S
C3212 C3213 1.404 . S
C3212 C3215 1.539 . S
C3213 C3209 1.408 . S
C3213 C3212 1.404 . S
C3213 H3225 0.930 . S
C3214 C3210 1.524 . S
C3214 H3226 0.956 . S
C3214 H3227 0.961 . S
C3214 H3228 0.961 . S
C3215 C3212 1.539 . S
C3215 H3229 0.958 . S
C3215 H3230 0.961 . S
C3215 H3231 0.960 . S
H3216 C3200 0.931 . S
H3217 C3205 0.929 . S
H3218 C3206 0.960 . S
H3219 C3206 0.962 . S
H3220 C3206 0.960 . S
H3221 C3207 0.961 . S
H3222 C3207 0.961 . S
H3223 C3207 0.961 . S
H3224 C3208 0.959 . S
H3225 C3213 0.930 . S
H3226 C3214 0.956 . S
H3227 C3214 0.961 . S
H3228 C3214 0.961 . S
H3229 C3215 0.958 . S
H3230 C3215 0.961 . S
H3231 C3215 0.960 . S
C3232 C3233 1.391 . S
C3232 C3234 1.394 . S
C3232 H3248 0.931 . S
C3233 C3232 1.391 . S
C3233 C3237 1.376 . S
C3234 C3232 1.394 . S
C3234 C3235 1.369 . S
C3234 C3238 1.531 . S
C3235 C3234 1.369 . S
C3235 C3236 1.410 . S
C3235 C3243 1.503 . S
C3236 C3235 1.410 . S
C3236 C3237 1.392 . S
C3236 C3239 1.511 . S
C3237 C3233 1.376 . S
C3237 C3236 1.392 . S
C3237 H3249 0.929 . S
C3238 C3234 1.531 . S
C3238 H3250 0.960 . S
C3238 H3251 0.962 . S
C3238 H3252 0.960 . S
C3239 C3236 1.511 . S
C3239 H3253 0.961 . S
C3239 H3254 0.961 . S
C3239 H3255 0.961 . S
C3240 C3241 1.370 . S
C3240 C3242 1.363 . S
C3240 H3256 0.931 . S
C3241 C3240 1.370 . S
C3241 C3245 1.408 . S
C3242 C3240 1.363 . S
C3242 C3243 1.370 . S
C3242 C3246 1.524 . S
C3243 C3235 1.503 . S
C3243 C3242 1.370 . S
C3243 C3244 1.403 . S
C3244 C3243 1.403 . S
C3244 C3245 1.404 . S
C3244 C3247 1.539 . S
C3245 C3241 1.408 . S
C3245 C3244 1.404 . S
C3245 H3257 0.930 . S
C3246 C3242 1.524 . S
C3246 H3258 0.956 . S
C3246 H3259 0.961 . S
C3246 H3260 0.961 . S
C3247 C3244 1.539 . S
C3247 H3261 0.958 . S
C3247 H3262 0.961 . S
C3247 H3263 0.960 . S
H3248 C3232 0.931 . S
H3249 C3237 0.929 . S
H3250 C3238 0.960 . S
H3251 C3238 0.962 . S
H3252 C3238 0.960 . S
H3253 C3239 0.961 . S
H3254 C3239 0.961 . S
H3255 C3239 0.961 . S
H3256 C3240 0.931 . S
H3257 C3245 0.930 . S
H3258 C3246 0.956 . S
H3259 C3246 0.961 . S
H3260 C3246 0.961 . S
H3261 C3247 0.958 . S
H3262 C3247 0.961 . S
H3263 C3247 0.960 . S
C3264 C3265 1.391 . S
C3264 C3266 1.394 . S
C3264 H3280 0.931 . S
C3265 C3264 1.391 . S
C3265 C3269 1.376 . S
C3266 C3264 1.394 . S
C3266 C3267 1.369 . S
C3266 C3270 1.531 . S
C3267 C3266 1.369 . S
C3267 C3268 1.410 . S
C3267 C3275 1.503 . S
C3268 C3267 1.410 . S
C3268 C3269 1.392 . S
C3268 C3271 1.511 . S
C3269 C3265 1.376 . S
C3269 C3268 1.392 . S
C3269 H3281 0.929 . S
C3270 C3266 1.531 . S
C3270 H3282 0.960 . S
C3270 H3283 0.962 . S
C3270 H3284 0.960 . S
C3271 C3268 1.511 . S
C3271 H3285 0.961 . S
C3271 H3286 0.961 . S
C3271 H3287 0.961 . S
C3272 C3273 1.370 . S
C3272 C3274 1.363 . S
C3272 H3288 0.931 . S
C3273 C3272 1.370 . S
C3273 C3277 1.408 . S
C3274 C3272 1.363 . S
C3274 C3275 1.370 . S
C3274 C3278 1.524 . S
C3275 C3267 1.503 . S
C3275 C3274 1.370 . S
C3275 C3276 1.403 . S
C3276 C3275 1.403 . S
C3276 C3277 1.404 . S
C3276 C3279 1.539 . S
C3277 C3273 1.408 . S
C3277 C3276 1.404 . S
C3277 H3289 0.930 . S
C3278 C3274 1.524 . S
C3278 H3290 0.956 . S
C3278 H3291 0.961 . S
C3278 H3292 0.961 . S
C3279 C3276 1.539 . S
C3279 H3293 0.958 . S
C3279 H3294 0.961 . S
C3279 H3295 0.960 . S
H3280 C3264 0.931 . S
H3281 C3269 0.929 . S
H3282 C3270 0.960 . S
H3283 C3270 0.962 . S
H3284 C3270 0.960 . S
H3285 C3271 0.961 . S
H3286 C3271 0.961 . S
H3287 C3271 0.961 . S
H3288 C3272 0.931 . S
H3289 C3277 0.930 . S
H3290 C3278 0.956 . S
H3291 C3278 0.961 . S
H3292 C3278 0.961 . S
H3293 C3279 0.958 . S
H3294 C3279 0.961 . S
H3295 C3279 0.960 . S
C3296 C3297 1.391 . S
C3296 C3298 1.394 . S
C3296 H3312 0.931 . S
C3297 C3296 1.391 . S
C3297 C3301 1.376 1_565 S
C3298 C3296 1.394 . S
C3298 C3299 1.328 1_565 S
C3298 C3302 1.531 . S
C3299 C3298 1.328 1_545 S
C3299 C3300 1.443 . S
C3299 C3307 1.511 . S
C3300 C3299 1.443 . S
C3300 C3301 1.392 . S
C3300 C3303 1.511 . S
C3301 C3297 1.376 1_545 S
C3301 C3300 1.392 . S
C3301 H3313 0.929 . S
C3302 C3298 1.531 . S
C3302 H3314 0.960 . S
C3302 H3315 0.962 . S
C3302 H3316 0.960 . S
C3303 C3300 1.511 . S
C3303 H3317 0.961 . S
C3303 H3318 0.961 . S
C3303 H3319 0.961 . S
C3304 C3305 1.370 1_565 S
C3304 C3306 1.363 . S
C3304 H3320 0.931 . S
C3305 C3304 1.370 1_545 S
C3305 C3309 1.408 . S
C3306 C3304 1.363 . S
C3306 C3307 1.370 1_565 S
C3306 C3310 1.524 . S
C3307 C3299 1.511 . S
C3307 C3306 1.370 1_545 S
C3307 C3308 1.403 . S
C3308 C3307 1.403 . S
C3308 C3309 1.404 . S
C3308 C3311 1.539 . S
C3309 C3305 1.408 . S
C3309 C3308 1.404 . S
C3309 H3321 0.930 . S
C3310 C3306 1.524 . S
C3310 H3322 0.956 . S
C3310 H3323 0.961 . S
C3310 H3324 0.961 . S
C3311 C3308 1.539 . S
C3311 H3325 0.958 . S
C3311 H3326 0.961 . S
C3311 H3327 0.960 . S
H3312 C3296 0.931 . S
H3313 C3301 0.929 . S
H3314 C3302 0.960 . S
H3315 C3302 0.962 . S
H3316 C3302 0.960 . S
H3317 C3303 0.961 . S
H3318 C3303 0.961 . S
H3319 C3303 0.961 . S
H3320 C3304 0.931 . S
H3321 C3309 0.930 . S
H3322 C3310 0.956 . S
H3323 C3310 0.961 . S
H3324 C3310 0.961 . S
H3325 C3311 0.958 . S
H3326 C3311 0.961 . S
H3327 C3311 0.960 . S
C3328 C3329 1.391 . S
C3328 C3330 1.394 . S
C3328 H3344 0.931 . S
C3329 C3328 1.391 . S
C3329 C3333 1.376 . S
C3330 C3328 1.394 . S
C3330 C3331 1.369 . S
C3330 C3334 1.531 . S
C3331 C3330 1.369 . S
C3331 C3332 1.410 . S
C3331 C3339 1.503 1_455 S
C3332 C3331 1.410 . S
C3332 C3333 1.392 . S
C3332 C3335 1.511 . S
C3333 C3329 1.376 . S
C3333 C3332 1.392 . S
C3333 H3345 0.929 . S
C3334 C3330 1.531 . S
C3334 H3346 0.960 . S
C3334 H3347 0.962 . S
C3334 H3348 0.960 . S
C3335 C3332 1.511 . S
C3335 H3349 0.961 . S
C3335 H3350 0.961 . S
C3335 H3351 0.961 . S
C3336 C3337 1.370 . S
C3336 C3338 1.363 . S
C3336 H3352 0.931 . S
C3337 C3336 1.370 . S
C3337 C3341 1.408 . S
C3338 C3336 1.363 . S
C3338 C3339 1.370 . S
C3338 C3342 1.524 . S
C3339 C3331 1.503 1_655 S
C3339 C3338 1.370 . S
C3339 C3340 1.403 . S
C3340 C3339 1.403 . S
C3340 C3341 1.404 . S
C3340 C3343 1.539 . S
C3341 C3337 1.408 . S
C3341 C3340 1.404 . S
C3341 H3353 0.930 . S
C3342 C3338 1.524 . S
C3342 H3354 0.956 1_655 S
C3342 H3355 0.961 1_655 S
C3342 H3356 0.961 . S
C3343 C3340 1.539 . S
C3343 H3357 0.958 . S
C3343 H3358 0.961 . S
C3343 H3359 0.960 1_655 S
H3344 C3328 0.931 . S
H3345 C3333 0.929 . S
H3346 C3334 0.960 . S
H3347 C3334 0.962 . S
H3348 C3334 0.960 . S
H3349 C3335 0.961 . S
H3350 C3335 0.961 . S
H3351 C3335 0.961 . S
H3352 C3336 0.931 . S
H3353 C3341 0.930 . S
H3354 C3342 0.956 1_455 S
H3355 C3342 0.961 1_455 S
H3356 C3342 0.961 . S
H3357 C3343 0.958 . S
H3358 C3343 0.961 . S
H3359 C3343 0.960 1_455 S
C3360 C3361 1.391 . S
C3360 C3362 1.394 . S
C3360 H3376 0.931 . S
C3361 C3360 1.391 . S
C3361 C3365 1.376 . S
C3362 C3360 1.394 . S
C3362 C3363 1.369 . S
C3362 C3366 1.531 . S
C3363 C3362 1.369 . S
C3363 C3364 1.410 . S
C3363 C3371 1.503 . S
C3364 C3363 1.410 . S
C3364 C3365 1.392 . S
C3364 C3367 1.511 . S
C3365 C3361 1.376 . S
C3365 C3364 1.392 . S
C3365 H3377 0.929 . S
C3366 C3362 1.531 . S
C3366 H3378 0.960 . S
C3366 H3379 0.962 . S
C3366 H3380 0.960 . S
C3367 C3364 1.511 . S
C3367 H3381 0.961 . S
C3367 H3382 0.961 . S
C3367 H3383 0.961 . S
C3368 C3369 1.370 . S
C3368 C3370 1.363 . S
C3368 H3384 0.931 . S
C3369 C3368 1.370 . S
C3369 C3373 1.408 . S
C3370 C3368 1.363 . S
C3370 C3371 1.370 . S
C3370 C3374 1.524 . S
C3371 C3363 1.503 . S
C3371 C3370 1.370 . S
C3371 C3372 1.403 . S
C3372 C3371 1.403 . S
C3372 C3373 1.404 . S
C3372 C3375 1.539 . S
C3373 C3369 1.408 . S
C3373 C3372 1.404 . S
C3373 H3385 0.930 . S
C3374 C3370 1.524 . S
C3374 H3386 0.956 . S
C3374 H3387 0.961 . S
C3374 H3388 0.961 . S
C3375 C3372 1.539 . S
C3375 H3389 0.958 . S
C3375 H3390 0.961 . S
C3375 H3391 0.960 . S
H3376 C3360 0.931 . S
H3377 C3365 0.929 . S
H3378 C3366 0.960 . S
H3379 C3366 0.962 . S
H3380 C3366 0.960 . S
H3381 C3367 0.961 . S
H3382 C3367 0.961 . S
H3383 C3367 0.961 . S
H3384 C3368 0.931 . S
H3385 C3373 0.930 . S
H3386 C3374 0.956 . S
H3387 C3374 0.961 . S
H3388 C3374 0.961 . S
H3389 C3375 0.958 . S
H3390 C3375 0.961 . S
H3391 C3375 0.960 . S
C3392 C3393 1.391 . S
C3392 C3394 1.394 . S
C3392 H3408 0.931 . S
C3393 C3392 1.391 . S
C3393 C3397 1.376 . S
C3394 C3392 1.394 . S
C3394 C3395 1.369 . S
C3394 C3398 1.531 . S
C3395 C3394 1.369 . S
C3395 C3396 1.410 . S
C3395 C3403 1.503 1_655 S
C3396 C3395 1.410 . S
C3396 C3397 1.392 . S
C3396 C3399 1.511 . S
C3397 C3393 1.376 . S
C3397 C3396 1.392 . S
C3397 H3409 0.929 . S
C3398 C3394 1.531 . S
C3398 H3410 0.960 1_655 S
C3398 H3411 0.964 . S
C3398 H3412 0.960 . S
C3399 C3396 1.511 . S
C3399 H3413 0.961 . S
C3399 H3414 0.961 1_655 S
C3399 H3415 0.961 . S
C3400 C3401 1.370 . S
C3400 C3402 1.363 . S
C3400 H3416 0.931 . S
C3401 C3400 1.370 . S
C3401 C3405 1.408 . S
C3402 C3400 1.363 . S
C3402 C3403 1.370 . S
C3402 C3406 1.524 . S
C3403 C3395 1.503 1_455 S
C3403 C3402 1.370 . S
C3403 C3404 1.403 . S
C3404 C3403 1.403 . S
C3404 C3405 1.404 . S
C3404 C3407 1.539 . S
C3405 C3401 1.408 . S
C3405 C3404 1.404 . S
C3405 H3417 0.930 . S
C3406 C3402 1.524 . S
C3406 H3418 0.956 . S
C3406 H3419 0.961 . S
C3406 H3420 0.961 . S
C3407 C3404 1.539 . S
C3407 H3421 0.958 . S
C3407 H3422 0.961 . S
C3407 H3423 0.960 . S
H3408 C3392 0.931 . S
H3409 C3397 0.929 . S
H3410 C3398 0.960 1_455 S
H3411 C3398 0.964 . S
H3412 C3398 0.960 . S
H3413 C3399 0.961 . S
H3414 C3399 0.961 1_455 S
H3415 C3399 0.961 . S
H3416 C3400 0.931 . S
H3417 C3405 0.930 . S
H3418 C3406 0.956 . S
H3419 C3406 0.961 . S
H3420 C3406 0.961 . S
H3421 C3407 0.958 . S
H3422 C3407 0.961 . S
H3423 C3407 0.960 . S
C3424 C3425 1.391 . S
C3424 C3426 1.394 . S
C3424 H3440 0.931 . S
C3425 C3424 1.391 . S
C3425 C3429 1.376 . S
C3426 C3424 1.394 . S
C3426 C3427 1.369 . S
C3426 C3430 1.531 . S
C3427 C3426 1.369 . S
C3427 C3428 1.410 . S
C3427 C3435 1.503 . S
C3428 C3427 1.410 . S
C3428 C3429 1.392 . S
C3428 C3431 1.511 . S
C3429 C3425 1.376 . S
C3429 C3428 1.392 . S
C3429 H3441 0.929 . S
C3430 C3426 1.531 . S
C3430 H3442 0.960 . S
C3430 H3443 0.962 . S
C3430 H3444 0.960 . S
C3431 C3428 1.511 . S
C3431 H3445 0.961 . S
C3431 H3446 0.961 . S
C3431 H3447 0.961 . S
C3432 C3433 1.370 . S
C3432 C3434 1.363 . S
C3432 H3448 0.931 . S
C3433 C3432 1.370 . S
C3433 C3437 1.408 . S
C3434 C3432 1.363 . S
C3434 C3435 1.370 . S
C3434 C3438 1.524 . S
C3435 C3427 1.503 . S
C3435 C3434 1.370 . S
C3435 C3436 1.403 . S
C3436 C3435 1.403 . S
C3436 C3437 1.404 . S
C3436 C3439 1.539 . S
C3437 C3433 1.408 . S
C3437 C3436 1.404 . S
C3437 H3449 0.930 . S
C3438 C3434 1.524 . S
C3438 H3450 0.956 . S
C3438 H3451 0.961 . S
C3438 H3452 0.961 . S
C3439 C3436 1.539 . S
C3439 H3453 0.958 . S
C3439 H3454 0.961 . S
C3439 H3455 0.960 . S
H3440 C3424 0.931 . S
H3441 C3429 0.929 . S
H3442 C3430 0.960 . S
H3443 C3430 0.962 . S
H3444 C3430 0.960 . S
H3445 C3431 0.961 . S
H3446 C3431 0.961 . S
H3447 C3431 0.961 . S
H3448 C3432 0.931 . S
H3449 C3437 0.930 . S
H3450 C3438 0.956 . S
H3451 C3438 0.961 . S
H3452 C3438 0.961 . S
H3453 C3439 0.958 . S
H3454 C3439 0.961 . S
H3455 C3439 0.960 . S
C3456 C3457 1.391 . S
C3456 C3458 1.394 . S
C3456 H3472 0.931 . S
C3457 C3456 1.391 . S
C3457 C3461 1.376 . S
C3458 C3456 1.394 . S
C3458 C3459 1.369 . S
C3458 C3462 1.531 . S
C3459 C3458 1.369 . S
C3459 C3460 1.410 . S
C3459 C3467 1.503 1_655 S
C3460 C3459 1.410 . S
C3460 C3461 1.392 . S
C3460 C3463 1.511 . S
C3461 C3457 1.376 . S
C3461 C3460 1.392 . S
C3461 H3473 0.929 . S
C3462 C3458 1.531 . S
C3462 H3474 0.960 . S
C3462 H3475 0.962 . S
C3462 H3476 0.960 . S
C3463 C3460 1.511 . S
C3463 H3477 0.961 . S
C3463 H3478 0.961 . S
C3463 H3479 0.961 . S
C3464 C3465 1.370 . S
C3464 C3466 1.363 . S
C3464 H3480 0.931 . S
C3465 C3464 1.370 . S
C3465 C3469 1.408 . S
C3466 C3464 1.363 . S
C3466 C3467 1.370 . S
C3466 C3470 1.524 1_455 S
C3467 C3459 1.503 1_455 S
C3467 C3466 1.370 . S
C3467 C3468 1.403 . S
C3468 C3467 1.403 . S
C3468 C3469 1.404 . S
C3468 C3471 1.539 . S
C3469 C3465 1.408 . S
C3469 C3468 1.404 . S
C3469 H3481 0.930 . S
C3470 C3466 1.524 1_655 S
C3470 H3482 0.956 . S
C3470 H3483 0.961 . S
C3470 H3484 0.961 1_655 S
C3471 C3468 1.539 . S
C3471 H3485 0.958 . S
C3471 H3486 0.961 . S
C3471 H3487 0.960 1_455 S
H3472 C3456 0.931 . S
H3473 C3461 0.929 . S
H3474 C3462 0.960 . S
H3475 C3462 0.962 . S
H3476 C3462 0.960 . S
H3477 C3463 0.961 . S
H3478 C3463 0.961 . S
H3479 C3463 0.961 . S
H3480 C3464 0.931 . S
H3481 C3469 0.930 . S
H3482 C3470 0.956 . S
H3483 C3470 0.961 . S
H3484 C3470 0.961 1_455 S
H3485 C3471 0.958 . S
H3486 C3471 0.961 . S
H3487 C3471 0.960 1_655 S
C3488 C3489 1.391 . S
C3488 C3490 1.394 . S
C3488 H3504 0.931 . S
C3489 C3488 1.391 . S
C3489 C3493 1.376 . S
C3490 C3488 1.394 . S
C3490 C3491 1.369 . S
C3490 C3494 1.531 . S
C3491 C3490 1.369 . S
C3491 C3492 1.410 . S
C3491 C3499 1.503 . S
C3492 C3491 1.410 . S
C3492 C3493 1.392 . S
C3492 C3495 1.511 . S
C3493 C3489 1.376 . S
C3493 C3492 1.392 . S
C3493 H3505 0.929 . S
C3494 C3490 1.531 . S
C3494 H3506 0.960 . S
C3494 H3507 0.962 . S
C3494 H3508 0.960 . S
C3495 C3492 1.511 . S
C3495 H3509 0.961 . S
C3495 H3510 0.961 . S
C3495 H3511 0.961 . S
C3496 C3497 1.370 . S
C3496 C3498 1.363 . S
C3496 H3512 0.931 . S
C3497 C3496 1.370 . S
C3497 C3501 1.408 . S
C3498 C3496 1.363 . S
C3498 C3499 1.370 . S
C3498 C3502 1.524 . S
C3499 C3491 1.503 . S
C3499 C3498 1.370 . S
C3499 C3500 1.403 . S
C3500 C3499 1.403 . S
C3500 C3501 1.404 . S
C3500 C3503 1.539 . S
C3501 C3497 1.408 . S
C3501 C3500 1.404 . S
C3501 H3513 0.930 . S
C3502 C3498 1.524 . S
C3502 H3514 0.956 . S
C3502 H3515 0.961 . S
C3502 H3516 0.961 . S
C3503 C3500 1.539 . S
C3503 H3517 0.958 . S
C3503 H3518 0.961 . S
C3503 H3519 0.960 . S
H3504 C3488 0.931 . S
H3505 C3493 0.929 . S
H3506 C3494 0.960 . S
H3507 C3494 0.962 . S
H3508 C3494 0.960 . S
H3509 C3495 0.961 . S
H3510 C3495 0.961 . S
H3511 C3495 0.961 . S
H3512 C3496 0.931 . S
H3513 C3501 0.930 . S
H3514 C3502 0.956 . S
H3515 C3502 0.961 . S
H3516 C3502 0.961 . S
H3517 C3503 0.958 . S
H3518 C3503 0.961 . S
H3519 C3503 0.960 . S
C3520 C3521 1.391 . S
C3520 C3522 1.394 . S
C3520 H3536 0.931 . S
C3521 C3520 1.391 . S
C3521 C3525 1.376 . S
C3522 C3520 1.394 . S
C3522 C3523 1.369 . S
C3522 C3526 1.531 . S
C3523 C3522 1.369 . S
C3523 C3524 1.410 . S
C3523 C3531 1.503 1_455 S
C3524 C3523 1.410 . S
C3524 C3525 1.392 . S
C3524 C3527 1.511 . S
C3525 C3521 1.376 . S
C3525 C3524 1.392 . S
C3525 H3537 0.929 . S
C3526 C3522 1.531 . S
C3526 H3538 0.960 1_455 S
C3526 H3539 0.962 . S
C3526 H3540 0.960 . S
C3527 C3524 1.511 . S
C3527 H3541 0.961 . S
C3527 H3542 0.961 1_455 S
C3527 H3543 0.961 . S
C3528 C3529 1.370 . S
C3528 C3530 1.363 . S
C3528 H3544 0.931 . S
C3529 C3528 1.370 . S
C3529 C3533 1.408 . S
C3530 C3528 1.363 . S
C3530 C3531 1.370 . S
C3530 C3534 1.524 . S
C3531 C3523 1.503 1_655 S
C3531 C3530 1.370 . S
C3531 C3532 1.403 . S
C3532 C3531 1.403 . S
C3532 C3533 1.404 . S
C3532 C3535 1.539 . S
C3533 C3529 1.408 . S
C3533 C3532 1.404 . S
C3533 H3545 0.930 . S
C3534 C3530 1.524 . S
C3534 H3546 0.956 . S
C3534 H3547 0.961 . S
C3534 H3548 0.961 . S
C3535 C3532 1.539 . S
C3535 H3549 0.958 . S
C3535 H3550 0.961 . S
C3535 H3551 0.960 . S
H3536 C3520 0.931 . S
H3537 C3525 0.929 . S
H3538 C3526 0.960 1_655 S
H3539 C3526 0.962 . S
H3540 C3526 0.960 . S
H3541 C3527 0.961 . S
H3542 C3527 0.961 1_655 S
H3543 C3527 0.961 . S
H3544 C3528 0.931 . S
H3545 C3533 0.930 . S
H3546 C3534 0.956 . S
H3547 C3534 0.961 . S
H3548 C3534 0.961 . S
H3549 C3535 0.958 . S
H3550 C3535 0.961 . S
H3551 C3535 0.960 . S
C3552 C3553 1.391 . S
C3552 C3554 1.394 . S
C3552 H3568 0.931 . S
C3553 C3552 1.391 . S
C3553 C3557 1.376 . S
C3554 C3552 1.394 . S
C3554 C3555 1.369 . S
C3554 C3558 1.531 . S
C3555 C3554 1.369 . S
C3555 C3556 1.410 . S
C3555 C3563 1.503 . S
C3556 C3555 1.410 . S
C3556 C3557 1.392 . S
C3556 C3559 1.511 . S
C3557 C3553 1.376 . S
C3557 C3556 1.392 . S
C3557 H3569 0.929 . S
C3558 C3554 1.531 . S
C3558 H3570 0.960 . S
C3558 H3571 0.962 . S
C3558 H3572 0.960 . S
C3559 C3556 1.511 . S
C3559 H3573 0.961 . S
C3559 H3574 0.961 . S
C3559 H3575 0.961 . S
C3560 C3561 1.370 . S
C3560 C3562 1.363 . S
C3560 H3576 0.931 . S
C3561 C3560 1.370 . S
C3561 C3565 1.408 . S
C3562 C3560 1.363 . S
C3562 C3563 1.370 . S
C3562 C3566 1.524 . S
C3563 C3555 1.503 . S
C3563 C3562 1.370 . S
C3563 C3564 1.403 . S
C3564 C3563 1.403 . S
C3564 C3565 1.404 . S
C3564 C3567 1.539 . S
C3565 C3561 1.408 . S
C3565 C3564 1.404 . S
C3565 H3577 0.930 . S
C3566 C3562 1.524 . S
C3566 H3578 0.956 . S
C3566 H3579 0.961 . S
C3566 H3580 0.961 . S
C3567 C3564 1.539 . S
C3567 H3581 0.958 . S
C3567 H3582 0.961 . S
C3567 H3583 0.960 . S
H3568 C3552 0.931 . S
H3569 C3557 0.929 . S
H3570 C3558 0.960 . S
H3571 C3558 0.962 . S
H3572 C3558 0.960 . S
H3573 C3559 0.961 . S
H3574 C3559 0.961 . S
H3575 C3559 0.961 . S
H3576 C3560 0.931 . S
H3577 C3565 0.930 . S
H3578 C3566 0.956 . S
H3579 C3566 0.961 . S
H3580 C3566 0.961 . S
H3581 C3567 0.958 . S
H3582 C3567 0.961 . S
H3583 C3567 0.960 . S
C3584 C3585 1.391 . S
C3584 C3586 1.394 . S
C3584 H3600 0.931 . S
C3585 C3584 1.391 . S
C3585 C3589 1.376 1_545 S
C3586 C3584 1.394 . S
C3586 C3587 1.433 . S
C3586 C3590 1.531 1_655 S
C3587 C3586 1.433 . S
C3587 C3588 1.356 1_545 S
C3587 C3595 1.494 1_645 S
C3588 C3587 1.356 1_565 S
C3588 C3589 1.392 . S
C3588 C3591 1.511 . S
C3589 C3585 1.376 1_565 S
C3589 C3588 1.392 . S
C3589 H3601 0.929 . S
C3590 C3586 1.531 1_455 S
C3590 H3602 0.960 . S
C3590 H3603 0.962 . S
C3590 H3604 0.960 1_455 S
C3591 C3588 1.511 . S
C3591 H3605 0.961 . S
C3591 H3606 0.961 1_655 S
C3591 H3607 0.961 . S
C3592 C3593 1.370 . S
C3592 C3594 1.373 . S
C3592 H3608 0.931 . S
C3593 C3592 1.370 . S
C3593 C3597 1.408 . S
C3594 C3592 1.373 . S
C3594 C3595 1.375 . S
C3594 C3598 1.513 1_565 S
C3595 C3587 1.494 1_465 S
C3595 C3594 1.375 . S
C3595 C3596 1.403 . S
C3596 C3595 1.403 . S
C3596 C3597 1.404 . S
C3596 C3599 1.539 . S
C3597 C3593 1.408 . S
C3597 C3596 1.404 . S
C3597 H3609 0.930 . S
C3598 C3594 1.513 1_545 S
C3598 H3610 0.956 . S
C3598 H3611 0.961 1_545 S
C3598 H3612 0.961 . S
C3599 C3596 1.539 . S
C3599 H3613 0.958 1_565 S
C3599 H3614 0.961 . S
C3599 H3615 0.960 . S
H3600 C3584 0.931 . S
H3601 C3589 0.929 . S
H3602 C3590 0.960 . S
H3603 C3590 0.962 . S
H3604 C3590 0.960 1_655 S
H3605 C3591 0.961 . S
H3606 C3591 0.961 1_455 S
H3607 C3591 0.961 . S
H3608 C3592 0.931 . S
H3609 C3597 0.930 . S
H3610 C3598 0.956 . S
H3611 C3598 0.961 1_565 S
H3612 C3598 0.961 . S
H3613 C3599 0.958 1_545 S
H3614 C3599 0.961 . S
H3615 C3599 0.960 . S
C3616 C3617 1.391 . S
C3616 C3618 1.394 . S
C3616 H3632 0.931 . S
C3617 C3616 1.391 . S
C3617 C3621 1.376 . S
C3618 C3616 1.394 . S
C3618 C3619 1.369 . S
C3618 C3622 1.531 . S
C3619 C3618 1.369 . S
C3619 C3620 1.410 . S
C3619 C3627 1.503 . S
C3620 C3619 1.410 . S
C3620 C3621 1.392 . S
C3620 C3623 1.511 . S
C3621 C3617 1.376 . S
C3621 C3620 1.392 . S
C3621 H3633 0.929 . S
C3622 C3618 1.531 . S
C3622 H3634 0.960 . S
C3622 H3635 0.962 . S
C3622 H3636 0.960 . S
C3623 C3620 1.511 . S
C3623 H3637 0.961 . S
C3623 H3638 0.961 . S
C3623 H3639 0.961 . S
C3624 C3625 1.370 . S
C3624 C3626 1.363 . S
C3624 H3640 0.931 . S
C3625 C3624 1.370 . S
C3625 C3629 1.408 . S
C3626 C3624 1.363 . S
C3626 C3627 1.370 . S
C3626 C3630 1.524 . S
C3627 C3619 1.503 . S
C3627 C3626 1.370 . S
C3627 C3628 1.403 . S
C3628 C3627 1.403 . S
C3628 C3629 1.404 . S
C3628 C3631 1.539 . S
C3629 C3625 1.408 . S
C3629 C3628 1.404 . S
C3629 H3641 0.930 . S
C3630 C3626 1.524 . S
C3630 H3642 0.956 . S
C3630 H3643 0.961 . S
C3630 H3644 0.961 . S
C3631 C3628 1.539 . S
C3631 H3645 0.958 . S
C3631 H3646 0.961 . S
C3631 H3647 0.960 . S
H3632 C3616 0.931 . S
H3633 C3621 0.929 . S
H3634 C3622 0.960 . S
H3635 C3622 0.962 . S
H3636 C3622 0.960 . S
H3637 C3623 0.961 . S
H3638 C3623 0.961 . S
H3639 C3623 0.961 . S
H3640 C3624 0.931 . S
H3641 C3629 0.930 . S
H3642 C3630 0.956 . S
H3643 C3630 0.961 . S
H3644 C3630 0.961 . S
H3645 C3631 0.958 . S
H3646 C3631 0.961 . S
H3647 C3631 0.960 . S
C3648 C3649 1.391 . S
C3648 C3650 1.394 . S
C3648 H3664 0.931 . S
C3649 C3648 1.391 . S
C3649 C3653 1.376 . S
C3650 C3648 1.394 . S
C3650 C3651 1.369 . S
C3650 C3654 1.531 . S
C3651 C3650 1.369 . S
C3651 C3652 1.410 . S
C3651 C3659 1.503 1_655 S
C3652 C3651 1.410 . S
C3652 C3653 1.392 . S
C3652 C3655 1.511 1_655 S
C3653 C3649 1.376 . S
C3653 C3652 1.392 . S
C3653 H3665 0.929 . S
C3654 C3650 1.531 . S
C3654 H3666 0.960 1_655 S
C3654 H3667 0.962 . S
C3654 H3668 0.960 . S
C3655 C3652 1.511 1_455 S
C3655 H3669 0.961 1_455 S
C3655 H3670 0.961 . S
C3655 H3671 0.961 . S
C3656 C3657 1.370 . S
C3656 C3658 1.363 . S
C3656 H3672 0.931 . S
C3657 C3656 1.370 . S
C3657 C3661 1.408 . S
C3658 C3656 1.363 . S
C3658 C3659 1.370 . S
C3658 C3662 1.524 . S
C3659 C3651 1.503 1_455 S
C3659 C3658 1.370 . S
C3659 C3660 1.403 . S
C3660 C3659 1.403 . S
C3660 C3661 1.404 . S
C3660 C3663 1.539 . S
C3661 C3657 1.408 . S
C3661 C3660 1.404 . S
C3661 H3673 0.930 . S
C3662 C3658 1.524 . S
C3662 H3674 0.956 . S
C3662 H3675 0.961 . S
C3662 H3676 0.961 . S
C3663 C3660 1.539 . S
C3663 H3677 0.958 . S
C3663 H3678 0.961 . S
C3663 H3679 0.960 . S
H3664 C3648 0.931 . S
H3665 C3653 0.929 . S
H3666 C3654 0.960 1_455 S
H3667 C3654 0.962 . S
H3668 C3654 0.960 . S
H3669 C3655 0.961 1_655 S
H3670 C3655 0.961 . S
H3671 C3655 0.961 . S
H3672 C3656 0.931 . S
H3673 C3661 0.930 . S
H3674 C3662 0.956 . S
H3675 C3662 0.961 . S
H3676 C3662 0.961 . S
H3677 C3663 0.958 . S
H3678 C3663 0.961 . S
H3679 C3663 0.960 . S
C3680 C3681 1.391 . S
C3680 C3682 1.394 . S
C3680 H3696 0.931 . S
C3681 C3680 1.391 . S
C3681 C3685 1.376 1_545 S
C3682 C3680 1.394 . S
C3682 C3683 1.349 1_545 S
C3682 C3686 1.531 . S
C3683 C3682 1.349 1_565 S
C3683 C3684 1.425 . S
C3683 C3691 1.507 . S
C3684 C3683 1.425 . S
C3684 C3685 1.392 . S
C3684 C3687 1.511 . S
C3685 C3681 1.376 1_565 S
C3685 C3684 1.392 . S
C3685 H3697 0.929 . S
C3686 C3682 1.531 . S
C3686 H3698 0.960 . S
C3686 H3699 0.962 . S
C3686 H3700 0.960 . S
C3687 C3684 1.511 . S
C3687 H3701 0.961 . S
C3687 H3702 0.961 . S
C3687 H3703 0.961 . S
C3688 C3689 1.370 1_545 S
C3688 C3690 1.363 . S
C3688 H3704 0.931 . S
C3689 C3688 1.370 1_565 S
C3689 C3693 1.408 . S
C3690 C3688 1.363 . S
C3690 C3691 1.370 1_545 S
C3690 C3694 1.524 . S
C3691 C3683 1.507 . S
C3691 C3690 1.370 1_565 S
C3691 C3692 1.403 . S
C3692 C3691 1.403 . S
C3692 C3693 1.404 . S
C3692 C3695 1.539 . S
C3693 C3689 1.408 . S
C3693 C3692 1.404 . S
C3693 H3705 0.930 . S
C3694 C3690 1.524 . S
C3694 H3706 0.956 . S
C3694 H3707 0.961 . S
C3694 H3708 0.961 . S
C3695 C3692 1.539 . S
C3695 H3709 0.958 . S
C3695 H3710 0.961 . S
C3695 H3711 0.960 . S
H3696 C3680 0.931 . S
H3697 C3685 0.929 . S
H3698 C3686 0.960 . S
H3699 C3686 0.962 . S
H3700 C3686 0.960 . S
H3701 C3687 0.961 . S
H3702 C3687 0.961 . S
H3703 C3687 0.961 . S
H3704 C3688 0.931 . S
H3705 C3693 0.930 . S
H3706 C3694 0.956 . S
H3707 C3694 0.961 . S
H3708 C3694 0.961 . S
H3709 C3695 0.958 . S
H3710 C3695 0.961 . S
H3711 C3695 0.960 . S
C3712 C3713 1.391 1_565 S
C3712 C3714 1.394 . S
C3712 H3728 0.931 . S
C3713 C3712 1.391 1_545 S
C3713 C3717 1.376 . S
C3714 C3712 1.394 . S
C3714 C3715 1.415 . S
C3714 C3718 1.531 . S
C3715 C3714 1.415 . S
C3715 C3716 1.350 1_565 S
C3715 C3723 1.515 1_655 S
C3716 C3715 1.350 1_545 S
C3716 C3717 1.392 . S
C3716 C3719 1.511 . S
C3717 C3713 1.376 . S
C3717 C3716 1.392 . S
C3717 H3729 0.929 . S
C3718 C3714 1.531 . S
C3718 H3730 0.960 . S
C3718 H3731 0.962 . S
C3718 H3732 0.960 . S
C3719 C3716 1.511 . S
C3719 H3733 0.961 . S
C3719 H3734 0.961 . S
C3719 H3735 0.961 . S
C3720 C3721 1.370 1_545 S
C3720 C3722 1.363 . S
C3720 H3736 0.931 . S
C3721 C3720 1.370 1_565 S
C3721 C3725 1.408 . S
C3722 C3720 1.363 . S
C3722 C3723 1.370 1_545 S
C3722 C3726 1.524 . S
C3723 C3715 1.515 1_455 S
C3723 C3722 1.370 1_565 S
C3723 C3724 1.403 . S
C3724 C3723 1.403 . S
C3724 C3725 1.404 . S
C3724 C3727 1.539 . S
C3725 C3721 1.408 . S
C3725 C3724 1.404 . S
C3725 H3737 0.930 . S
C3726 C3722 1.524 . S
C3726 H3738 0.956 1_455 S
C3726 H3739 0.961 1_455 S
C3726 H3740 0.961 . S
C3727 C3724 1.539 . S
C3727 H3741 0.958 1_455 S
C3727 H3742 0.961 . S
C3727 H3743 0.960 1_455 S
H3728 C3712 0.931 . S
H3729 C3717 0.929 . S
H3730 C3718 0.960 . S
H3731 C3718 0.962 . S
H3732 C3718 0.960 . S
H3733 C3719 0.961 . S
H3734 C3719 0.961 . S
H3735 C3719 0.961 . S
H3736 C3720 0.931 . S
H3737 C3725 0.930 . S
H3738 C3726 0.956 1_655 S
H3739 C3726 0.961 1_655 S
H3740 C3726 0.961 . S
H3741 C3727 0.958 1_655 S
H3742 C3727 0.961 . S
H3743 C3727 0.960 1_655 S
C3744 C3745 1.391 . S
C3744 C3746 1.394 . S
C3744 H3760 0.931 . S
C3745 C3744 1.391 . S
C3745 C3749 1.376 . S
C3746 C3744 1.394 . S
C3746 C3747 1.369 . S
C3746 C3750 1.531 . S
C3747 C3746 1.369 . S
C3747 C3748 1.410 . S
C3747 C3755 1.503 . S
C3748 C3747 1.410 . S
C3748 C3749 1.392 . S
C3748 C3751 1.511 . S
C3749 C3745 1.376 . S
C3749 C3748 1.392 . S
C3749 H3761 0.929 . S
C3750 C3746 1.531 . S
C3750 H3762 0.960 . S
C3750 H3763 0.962 . S
C3750 H3764 0.960 . S
C3751 C3748 1.511 . S
C3751 H3765 0.961 . S
C3751 H3766 0.961 . S
C3751 H3767 0.961 . S
C3752 C3753 1.370 . S
C3752 C3754 1.363 . S
C3752 H3768 0.931 . S
C3753 C3752 1.370 . S
C3753 C3757 1.408 . S
C3754 C3752 1.363 . S
C3754 C3755 1.370 . S
C3754 C3758 1.524 . S
C3755 C3747 1.503 . S
C3755 C3754 1.370 . S
C3755 C3756 1.403 . S
C3756 C3755 1.403 . S
C3756 C3757 1.404 . S
C3756 C3759 1.539 . S
C3757 C3753 1.408 . S
C3757 C3756 1.404 . S
C3757 H3769 0.930 . S
C3758 C3754 1.524 . S
C3758 H3770 0.956 . S
C3758 H3771 0.961 . S
C3758 H3772 0.961 . S
C3759 C3756 1.539 . S
C3759 H3773 0.958 . S
C3759 H3774 0.961 . S
C3759 H3775 0.960 . S
H3760 C3744 0.931 . S
H3761 C3749 0.929 . S
H3762 C3750 0.960 . S
H3763 C3750 0.962 . S
H3764 C3750 0.960 . S
H3765 C3751 0.961 . S
H3766 C3751 0.961 . S
H3767 C3751 0.961 . S
H3768 C3752 0.931 . S
H3769 C3757 0.930 . S
H3770 C3758 0.956 . S
H3771 C3758 0.961 . S
H3772 C3758 0.961 . S
H3773 C3759 0.958 . S
H3774 C3759 0.961 . S
H3775 C3759 0.960 . S
C3776 C3777 1.391 . S
C3776 C3778 1.394 . S
C3776 H3792 0.931 . S
C3777 C3776 1.391 . S
C3777 C3781 1.376 . S
C3778 C3776 1.394 . S
C3778 C3779 1.369 . S
C3778 C3782 1.531 1_455 S
C3779 C3778 1.369 . S
C3779 C3780 1.410 . S
C3779 C3787 1.503 1_455 S
C3780 C3779 1.410 . S
C3780 C3781 1.392 . S
C3780 C3783 1.511 . S
C3781 C3777 1.376 . S
C3781 C3780 1.392 . S
C3781 H3793 0.929 . S
C3782 C3778 1.531 1_655 S
C3782 H3794 0.960 . S
C3782 H3795 0.962 . S
C3782 H3796 0.960 1_655 S
C3783 C3780 1.511 . S
C3783 H3797 0.961 . S
C3783 H3798 0.961 1_455 S
C3783 H3799 0.961 . S
C3784 C3785 1.370 . S
C3784 C3786 1.363 . S
C3784 H3800 0.931 . S
C3785 C3784 1.370 . S
C3785 C3789 1.408 . S
C3786 C3784 1.363 . S
C3786 C3787 1.370 . S
C3786 C3790 1.524 . S
C3787 C3779 1.503 1_655 S
C3787 C3786 1.370 . S
C3787 C3788 1.403 . S
C3788 C3787 1.403 . S
C3788 C3789 1.404 . S
C3788 C3791 1.539 . S
C3789 C3785 1.408 . S
C3789 C3788 1.404 . S
C3789 H3801 0.930 . S
C3790 C3786 1.524 . S
C3790 H3802 0.956 . S
C3790 H3803 0.961 . S
C3790 H3804 0.961 . S
C3791 C3788 1.539 . S
C3791 H3805 0.958 . S
C3791 H3806 0.961 . S
C3791 H3807 0.960 . S
H3792 C3776 0.931 . S
H3793 C3781 0.929 . S
H3794 C3782 0.960 . S
H3795 C3782 0.962 . S
H3796 C3782 0.960 1_455 S
H3797 C3783 0.961 . S
H3798 C3783 0.961 1_655 S
H3799 C3783 0.961 . S
H3800 C3784 0.931 . S
H3801 C3789 0.930 . S
H3802 C3790 0.956 . S
H3803 C3790 0.961 . S
H3804 C3790 0.961 . S
H3805 C3791 0.958 . S
H3806 C3791 0.961 . S
H3807 C3791 0.960 . S
C3808 C3809 1.391 1_545 S
C3808 C3810 1.394 . S
C3808 H3824 0.931 . S
C3809 C3808 1.391 1_565 S
C3809 C3813 1.376 . S
C3810 C3808 1.394 . S
C3810 C3811 1.369 1_545 S
C3810 C3814 1.531 . S
C3811 C3810 1.369 1_565 S
C3811 C3812 1.410 . S
C3811 C3819 1.510 . S
C3812 C3811 1.410 . S
C3812 C3813 1.392 . S
C3812 C3815 1.511 . S
C3813 C3809 1.376 . S
C3813 C3812 1.392 . S
C3813 H3825 0.929 . S
C3814 C3810 1.531 . S
C3814 H3826 0.960 . S
C3814 H3827 0.962 . S
C3814 H3828 0.960 . S
C3815 C3812 1.511 . S
C3815 H3829 0.961 . S
C3815 H3830 0.961 . S
C3815 H3831 0.961 . S
C3816 C3817 1.370 . S
C3816 C3818 1.363 . S
C3816 H3832 0.931 . S
C3817 C3816 1.370 . S
C3817 C3821 1.408 1_545 S
C3818 C3816 1.363 . S
C3818 C3819 1.345 1_545 S
C3818 C3822 1.524 . S
C3819 C3811 1.510 . S
C3819 C3818 1.345 1_565 S
C3819 C3820 1.422 . S
C3820 C3819 1.422 . S
C3820 C3821 1.404 . S
C3820 C3823 1.539 . S
C3821 C3817 1.408 1_565 S
C3821 C3820 1.404 . S
C3821 H3833 0.930 . S
C3822 C3818 1.524 . S
C3822 H3834 0.956 . S
C3822 H3835 0.961 . S
C3822 H3836 0.961 . S
C3823 C3820 1.539 . S
C3823 H3837 0.958 . S
C3823 H3838 0.961 . S
C3823 H3839 0.960 . S
H3824 C3808 0.931 . S
H3825 C3813 0.929 . S
H3826 C3814 0.960 . S
H3827 C3814 0.962 . S
H3828 C3814 0.960 . S
H3829 C3815 0.961 . S
H3830 C3815 0.961 . S
H3831 C3815 0.961 . S
H3832 C3816 0.931 . S
H3833 C3821 0.930 . S
H3834 C3822 0.956 . S
H3835 C3822 0.961 . S
H3836 C3822 0.961 . S
H3837 C3823 0.958 . S
H3838 C3823 0.961 . S
H3839 C3823 0.960 . S
C3840 C3841 1.404 . S
C3840 C3842 1.394 . S
C3840 H3856 0.931 . S
C3841 C3840 1.404 . S
C3841 C3845 1.363 1_455 S
C3842 C3840 1.394 . S
C3842 C3843 1.369 1_455 S
C3842 C3846 1.531 . S
C3843 C3842 1.369 1_655 S
C3843 C3844 1.410 . S
C3843 C3851 1.503 1_554 S
C3844 C3843 1.410 . S
C3844 C3845 1.392 . S
C3844 C3847 1.511 . S
C3845 C3841 1.363 1_655 S
C3845 C3844 1.392 . S
C3845 H3857 0.929 . S
C3846 C3842 1.531 . S
C3846 H3858 0.960 1_554 S
C3846 H3859 0.962 . S
C3846 H3860 0.960 . S
C3847 C3844 1.511 . S
C3847 H3861 0.961 . S
C3847 H3862 0.881 1_554 S
C3847 H3863 0.961 . S
C3848 C3849 1.370 1_455 S
C3848 C3850 1.363 . S
C3848 H3864 0.931 . S
C3849 C3848 1.370 1_655 S
C3849 C3853 1.408 . S
C3850 C3848 1.363 . S
C3850 C3851 1.370 1_455 S
C3850 C3854 1.524 . S
C3851 C3843 1.503 1_556 S
C3851 C3850 1.370 1_655 S
C3851 C3852 1.403 . S
C3852 C3851 1.403 . S
C3852 C3853 1.404 . S
C3852 C3855 1.539 . S
C3853 C3849 1.408 . S
C3853 C3852 1.404 . S
C3853 H3865 0.930 . S
C3854 C3850 1.524 . S
C3854 H3866 0.980 . S
C3854 H3867 0.905 1_456 S
C3854 H3868 0.961 . S
C3855 C3852 1.539 . S
C3855 H3869 0.958 1_655 S
C3855 H3870 0.961 . S
C3855 H3871 0.971 . S
H3856 C3840 0.931 . S
H3857 C3845 0.929 . S
H3858 C3846 0.960 1_556 S
H3859 C3846 0.962 . S
H3860 C3846 0.960 . S
H3861 C3847 0.961 . S
H3862 C3847 0.881 1_556 S
H3863 C3847 0.961 . S
H3864 C3848 0.931 . S
H3865 C3853 0.930 . S
H3866 C3854 0.980 . S
H3867 C3854 0.905 1_654 S
H3868 C3854 0.961 . S
H3869 C3855 0.958 1_455 S
H3870 C3855 0.961 . S
H3871 C3855 0.971 . S
C3872 C3873 1.391 . S
C3872 C3874 1.394 . S
C3872 H3888 0.931 . S
C3873 C3872 1.391 . S
C3873 C3877 1.376 . S
C3874 C3872 1.394 . S
C3874 C3875 1.369 . S
C3874 C3878 1.531 . S
C3875 C3874 1.369 . S
C3875 C3876 1.410 . S
C3875 C3883 1.503 1_556 S
C3876 C3875 1.410 . S
C3876 C3877 1.392 . S
C3876 C3879 1.511 . S
C3877 C3873 1.376 . S
C3877 C3876 1.392 . S
C3877 H3889 0.929 . S
C3878 C3874 1.531 . S
C3878 H3890 0.960 1_556 S
C3878 H3891 0.962 . S
C3878 H3892 0.960 . S
C3879 C3876 1.511 . S
C3879 H3893 0.961 . S
C3879 H3894 0.876 1_556 S
C3879 H3895 0.961 . S
C3880 C3881 1.370 . S
C3880 C3882 1.363 . S
C3880 H3896 0.931 . S
C3881 C3880 1.370 . S
C3881 C3885 1.408 . S
C3882 C3880 1.363 . S
C3882 C3883 1.370 . S
C3882 C3886 1.524 . S
C3883 C3875 1.503 1_554 S
C3883 C3882 1.370 . S
C3883 C3884 1.403 . S
C3884 C3883 1.403 . S
C3884 C3885 1.404 . S
C3884 C3887 1.539 . S
C3885 C3881 1.408 . S
C3885 C3884 1.404 . S
C3885 H3897 0.930 . S
C3886 C3882 1.524 . S
C3886 H3898 0.979 . S
C3886 H3899 0.909 1_554 S
C3886 H3900 0.961 . S
C3887 C3884 1.539 . S
C3887 H3901 0.958 . S
C3887 H3902 0.961 . S
C3887 H3903 0.958 . S
H3888 C3872 0.931 . S
H3889 C3877 0.929 . S
H3890 C3878 0.960 1_554 S
H3891 C3878 0.962 . S
H3892 C3878 0.960 . S
H3893 C3879 0.961 . S
H3894 C3879 0.876 1_554 S
H3895 C3879 0.961 . S
H3896 C3880 0.931 . S
H3897 C3885 0.930 . S
H3898 C3886 0.979 . S
H3899 C3886 0.909 1_556 S
H3900 C3886 0.961 . S
H3901 C3887 0.958 . S
H3902 C3887 0.961 . S
H3903 C3887 0.958 . S
C3904 C3905 1.391 1_655 S
C3904 C3906 1.394 . S
C3904 H3920 0.931 . S
C3905 C3904 1.391 1_455 S
C3905 C3909 1.376 . S
C3906 C3904 1.394 . S
C3906 C3907 1.369 1_655 S
C3906 C3910 1.531 . S
C3907 C3906 1.369 1_455 S
C3907 C3908 1.410 . S
C3907 C3915 1.503 . S
C3908 C3907 1.410 . S
C3908 C3909 1.392 . S
C3908 C3911 1.511 . S
C3909 C3905 1.376 . S
C3909 C3908 1.392 . S
C3909 H3921 0.929 . S
C3910 C3906 1.531 . S
C3910 H3922 0.960 . S
C3910 H3923 0.962 . S
C3910 H3924 0.960 . S
C3911 C3908 1.511 . S
C3911 H3925 0.961 . S
C3911 H3926 0.961 . S
C3911 H3927 0.961 . S
C3912 C3913 1.370 1_655 S
C3912 C3914 1.363 . S
C3912 H3928 0.931 . S
C3913 C3912 1.370 1_455 S
C3913 C3917 1.408 . S
C3914 C3912 1.363 . S
C3914 C3915 1.370 1_655 S
C3914 C3918 1.524 . S
C3915 C3907 1.503 . S
C3915 C3914 1.370 1_455 S
C3915 C3916 1.403 . S
C3916 C3915 1.403 . S
C3916 C3917 1.404 . S
C3916 C3919 1.539 . S
C3917 C3913 1.408 . S
C3917 C3916 1.404 . S
C3917 H3929 0.930 . S
C3918 C3914 1.524 . S
C3918 H3930 0.956 . S
C3918 H3931 0.961 . S
C3918 H3932 0.961 . S
C3919 C3916 1.539 . S
C3919 H3933 0.958 . S
C3919 H3934 0.961 . S
C3919 H3935 0.960 . S
H3920 C3904 0.931 . S
H3921 C3909 0.929 . S
H3922 C3910 0.960 . S
H3923 C3910 0.962 . S
H3924 C3910 0.960 . S
H3925 C3911 0.961 . S
H3926 C3911 0.961 . S
H3927 C3911 0.961 . S
H3928 C3912 0.931 . S
H3929 C3917 0.930 . S
H3930 C3918 0.956 . S
H3931 C3918 0.961 . S
H3932 C3918 0.961 . S
H3933 C3919 0.958 . S
H3934 C3919 0.961 . S
H3935 C3919 0.960 . S
C3936 C3937 1.391 . S
C3936 C3938 1.394 . S
C3936 H3952 0.931 . S
C3937 C3936 1.391 . S
C3937 C3941 1.376 . S
C3938 C3936 1.394 . S
C3938 C3939 1.369 . S
C3938 C3942 1.531 . S
C3939 C3938 1.369 . S
C3939 C3940 1.410 . S
C3939 C3947 1.503 . S
C3940 C3939 1.410 . S
C3940 C3941 1.392 . S
C3940 C3943 1.511 . S
C3941 C3937 1.376 . S
C3941 C3940 1.392 . S
C3941 H3953 0.929 . S
C3942 C3938 1.531 . S
C3942 H3954 0.960 . S
C3942 H3955 0.962 . S
C3942 H3956 0.960 . S
C3943 C3940 1.511 . S
C3943 H3957 0.961 . S
C3943 H3958 0.961 . S
C3943 H3959 0.961 . S
C3944 C3945 1.370 . S
C3944 C3946 1.363 . S
C3944 H3960 0.931 . S
C3945 C3944 1.370 . S
C3945 C3949 1.408 . S
C3946 C3944 1.363 . S
C3946 C3947 1.370 . S
C3946 C3950 1.524 . S
C3947 C3939 1.503 . S
C3947 C3946 1.370 . S
C3947 C3948 1.403 . S
C3948 C3947 1.403 . S
C3948 C3949 1.404 . S
C3948 C3951 1.539 . S
C3949 C3945 1.408 . S
C3949 C3948 1.404 . S
C3949 H3961 0.930 . S
C3950 C3946 1.524 . S
C3950 H3962 0.956 . S
C3950 H3963 0.961 . S
C3950 H3964 0.961 . S
C3951 C3948 1.539 . S
C3951 H3965 0.958 . S
C3951 H3966 0.961 . S
C3951 H3967 0.960 . S
H3952 C3936 0.931 . S
H3953 C3941 0.929 . S
H3954 C3942 0.960 . S
H3955 C3942 0.962 . S
H3956 C3942 0.960 . S
H3957 C3943 0.961 . S
H3958 C3943 0.961 . S
H3959 C3943 0.961 . S
H3960 C3944 0.931 . S
H3961 C3949 0.930 . S
H3962 C3950 0.956 . S
H3963 C3950 0.961 . S
H3964 C3950 0.961 . S
H3965 C3951 0.958 . S
H3966 C3951 0.961 . S
H3967 C3951 0.960 . S
C3968 C3969 1.391 . S
C3968 C3970 1.394 . S
C3968 H3984 0.931 . S
C3969 C3968 1.391 . S
C3969 C3973 1.376 . S
C3970 C3968 1.394 . S
C3970 C3971 1.369 . S
C3970 C3974 1.531 . S
C3971 C3970 1.369 . S
C3971 C3972 1.410 . S
C3971 C3979 1.503 1_556 S
C3972 C3971 1.410 . S
C3972 C3973 1.392 . S
C3972 C3975 1.511 . S
C3973 C3969 1.376 . S
C3973 C3972 1.392 . S
C3973 H3985 0.929 . S
C3974 C3970 1.531 . S
C3974 H3986 0.884 1_556 S
C3974 H3987 0.962 . S
C3974 H3988 0.960 . S
C3975 C3972 1.511 . S
C3975 H3989 0.961 . S
C3975 H3990 0.961 1_556 S
C3975 H3991 0.961 . S
C3976 C3977 1.370 . S
C3976 C3978 1.363 . S
C3976 H3992 0.931 . S
C3977 C3976 1.370 . S
C3977 C3981 1.408 . S
C3978 C3976 1.363 . S
C3978 C3979 1.370 . S
C3978 C3982 1.524 . S
C3979 C3971 1.503 1_554 S
C3979 C3978 1.370 . S
C3979 C3980 1.403 . S
C3980 C3979 1.403 . S
C3980 C3981 1.404 . S
C3980 C3983 1.539 . S
C3981 C3977 1.408 . S
C3981 C3980 1.404 . S
C3981 H3993 0.930 . S
C3982 C3978 1.524 . S
C3982 H3994 0.976 . S
C3982 H3995 0.925 1_554 S
C3982 H3996 0.961 . S
C3983 C3980 1.539 . S
C3983 H3997 0.958 . S
C3983 H3998 0.961 . S
C3983 H3999 0.983 . S
H3984 C3968 0.931 . S
H3985 C3973 0.929 . S
H3986 C3974 0.884 1_554 S
H3987 C3974 0.962 . S
H3988 C3974 0.960 . S
H3989 C3975 0.961 . S
H3990 C3975 0.961 1_554 S
H3991 C3975 0.961 . S
H3992 C3976 0.931 . S
H3993 C3981 0.930 . S
H3994 C3982 0.976 . S
H3995 C3982 0.925 1_556 S
H3996 C3982 0.961 . S
H3997 C3983 0.958 . S
H3998 C3983 0.961 . S
H3999 C3983 0.983 . S
C4000 C4001 1.391 1_455 S
C4000 C4002 1.394 . S
C4000 H4016 0.931 . S
C4001 C4000 1.391 1_655 S
C4001 C4005 1.376 . S
C4002 C4000 1.394 . S
C4002 C4003 1.369 1_455 S
C4002 C4006 1.531 . S
C4003 C4002 1.369 1_655 S
C4003 C4004 1.410 . S
C4003 C4011 1.503 . S
C4004 C4003 1.410 . S
C4004 C4005 1.392 . S
C4004 C4007 1.511 . S
C4005 C4001 1.376 . S
C4005 C4004 1.392 . S
C4005 H4017 0.929 . S
C4006 C4002 1.531 . S
C4006 H4018 0.960 . S
C4006 H4019 0.962 . S
C4006 H4020 0.960 . S
C4007 C4004 1.511 . S
C4007 H4021 0.961 . S
C4007 H4022 0.961 . S
C4007 H4023 0.961 . S
C4008 C4009 1.370 . S
C4008 C4010 1.363 . S
C4008 H4024 0.931 . S
C4009 C4008 1.370 . S
C4009 C4013 1.408 1_455 S
C4010 C4008 1.363 . S
C4010 C4011 1.370 1_455 S
C4010 C4014 1.524 . S
C4011 C4003 1.503 . S
C4011 C4010 1.370 1_655 S
C4011 C4012 1.403 . S
C4012 C4011 1.403 . S
C4012 C4013 1.404 . S
C4012 C4015 1.539 . S
C4013 C4009 1.408 1_655 S
C4013 C4012 1.404 . S
C4013 H4025 0.930 . S
C4014 C4010 1.524 . S
C4014 H4026 0.956 . S
C4014 H4027 0.961 1_455 S
C4014 H4028 0.961 . S
C4015 C4012 1.539 . S
C4015 H4029 0.958 1_655 S
C4015 H4030 0.961 . S
C4015 H4031 0.960 . S
H4016 C4000 0.931 . S
H4017 C4005 0.929 . S
H4018 C4006 0.960 . S
H4019 C4006 0.962 . S
H4020 C4006 0.960 . S
H4021 C4007 0.961 . S
H4022 C4007 0.961 . S
H4023 C4007 0.961 . S
H4024 C4008 0.931 . S
H4025 C4013 0.930 . S
H4026 C4014 0.956 . S
H4027 C4014 0.961 1_655 S
H4028 C4014 0.961 . S
H4029 C4015 0.958 1_455 S
H4030 C4015 0.961 . S
H4031 C4015 0.960 . S
C4032 C4033 1.391 . S
C4032 C4034 1.394 . S
C4032 H4048 0.931 . S
C4033 C4032 1.391 . S
C4033 C4037 1.376 . S
C4034 C4032 1.394 . S
C4034 C4035 1.369 . S
C4034 C4038 1.531 . S
C4035 C4034 1.369 . S
C4035 C4036 1.410 . S
C4035 C4043 1.503 . S
C4036 C4035 1.410 . S
C4036 C4037 1.392 . S
C4036 C4039 1.511 . S
C4037 C4033 1.376 . S
C4037 C4036 1.392 . S
C4037 H4049 0.929 . S
C4038 C4034 1.531 . S
C4038 H4050 0.960 . S
C4038 H4051 0.962 . S
C4038 H4052 0.960 . S
C4039 C4036 1.511 . S
C4039 H4053 0.961 . S
C4039 H4054 0.961 . S
C4039 H4055 0.961 . S
C4040 C4041 1.370 . S
C4040 C4042 1.363 . S
C4040 H4056 0.931 . S
C4041 C4040 1.370 . S
C4041 C4045 1.408 . S
C4042 C4040 1.363 . S
C4042 C4043 1.370 . S
C4042 C4046 1.524 . S
C4043 C4035 1.503 . S
C4043 C4042 1.370 . S
C4043 C4044 1.403 . S
C4044 C4043 1.403 . S
C4044 C4045 1.404 . S
C4044 C4047 1.539 . S
C4045 C4041 1.408 . S
C4045 C4044 1.404 . S
C4045 H4057 0.930 . S
C4046 C4042 1.524 . S
C4046 H4058 0.956 . S
C4046 H4059 0.961 . S
C4046 H4060 0.961 . S
C4047 C4044 1.539 . S
C4047 H4061 0.958 . S
C4047 H4062 0.961 . S
C4047 H4063 0.960 . S
H4048 C4032 0.931 . S
H4049 C4037 0.929 . S
H4050 C4038 0.960 . S
H4051 C4038 0.962 . S
H4052 C4038 0.960 . S
H4053 C4039 0.961 . S
H4054 C4039 0.961 . S
H4055 C4039 0.961 . S
H4056 C4040 0.931 . S
H4057 C4045 0.930 . S
H4058 C4046 0.956 . S
H4059 C4046 0.961 . S
H4060 C4046 0.961 . S
H4061 C4047 0.958 . S
H4062 C4047 0.961 . S
H4063 C4047 0.960 . S
C4064 C4065 1.395 1_655 S
C4064 C4066 1.394 . S
C4064 H4080 0.931 . S
C4065 C4064 1.395 1_455 S
C4065 C4069 1.376 . S
C4066 C4064 1.394 . S
C4066 C4067 1.358 1_655 S
C4066 C4070 1.531 . S
C4067 C4066 1.358 1_455 S
C4067 C4068 1.420 . S
C4067 C4075 1.503 1_455 S
C4068 C4067 1.420 . S
C4068 C4069 1.396 . S
C4068 C4071 1.511 . S
C4069 C4065 1.376 . S
C4069 C4068 1.396 . S
C4069 H4081 0.925 1_545 S
C4070 C4066 1.531 . S
C4070 H4082 0.960 . S
C4070 H4083 0.962 1_545 S
C4070 H4084 0.960 . S
C4071 C4068 1.511 . S
C4071 H4085 0.961 1_545 S
C4071 H4086 0.961 1_545 S
C4071 H4087 0.961 . S
C4072 C4073 1.295 1_565 S
C4072 C4074 1.363 . S
C4072 H4088 0.931 . S
C4073 C4072 1.295 1_545 S
C4073 C4077 1.491 1_655 S
C4074 C4072 1.363 . S
C4074 C4075 1.371 1_565 S
C4074 C4078 1.524 . S
C4075 C4067 1.503 1_655 S
C4075 C4074 1.371 1_545 S
C4075 C4076 1.402 1_655 S
C4076 C4075 1.402 1_455 S
C4076 C4077 1.404 . S
C4076 C4079 1.539 . S
C4077 C4073 1.491 1_455 S
C4077 C4076 1.404 . S
C4077 H4089 0.930 . S
C4078 C4074 1.524 . S
C4078 H4090 0.956 . S
C4078 H4091 0.961 1_655 S
C4078 H4092 0.961 . S
C4079 C4076 1.539 . S
C4079 H4093 0.958 1_455 S
C4079 H4094 0.961 . S
C4079 H4095 0.960 . S
H4080 C4064 0.931 . S
H4081 C4069 0.925 1_565 S
H4082 C4070 0.960 . S
H4083 C4070 0.962 1_565 S
H4084 C4070 0.960 . S
H4085 C4071 0.961 1_565 S
H4086 C4071 0.961 1_565 S
H4087 C4071 0.961 . S
H4088 C4072 0.931 . S
H4089 C4077 0.930 . S
H4090 C4078 0.956 . S
H4091 C4078 0.961 1_455 S
H4092 C4078 0.961 . S
H4093 C4079 0.958 1_655 S
H4094 C4079 0.961 . S
H4095 C4079 0.960 . S
C4096 C4097 1.391 . S
C4096 C4098 1.394 . S
C4096 H4112 0.931 . S
C4097 C4096 1.391 . S
C4097 C4101 1.376 . S
C4098 C4096 1.394 . S
C4098 C4099 1.369 . S
C4098 C4102 1.531 . S
C4099 C4098 1.369 . S
C4099 C4100 1.410 . S
C4099 C4107 1.503 . S
C4100 C4099 1.410 . S
C4100 C4101 1.392 . S
C4100 C4103 1.511 . S
C4101 C4097 1.376 . S
C4101 C4100 1.392 . S
C4101 H4113 0.929 . S
C4102 C4098 1.531 . S
C4102 H4114 0.960 . S
C4102 H4115 0.962 . S
C4102 H4116 0.960 . S
C4103 C4100 1.511 . S
C4103 H4117 0.961 . S
C4103 H4118 0.961 . S
C4103 H4119 0.961 . S
C4104 C4105 1.370 . S
C4104 C4106 1.363 . S
C4104 H4120 0.931 . S
C4105 C4104 1.370 . S
C4105 C4109 1.408 . S
C4106 C4104 1.363 . S
C4106 C4107 1.370 . S
C4106 C4110 1.524 . S
C4107 C4099 1.503 . S
C4107 C4106 1.370 . S
C4107 C4108 1.403 . S
C4108 C4107 1.403 . S
C4108 C4109 1.404 . S
C4108 C4111 1.539 . S
C4109 C4105 1.408 . S
C4109 C4108 1.404 . S
C4109 H4121 0.930 . S
C4110 C4106 1.524 . S
C4110 H4122 0.956 . S
C4110 H4123 0.961 . S
C4110 H4124 0.961 . S
C4111 C4108 1.539 . S
C4111 H4125 0.958 . S
C4111 H4126 0.961 . S
C4111 H4127 0.960 . S
H4112 C4096 0.931 . S
H4113 C4101 0.929 . S
H4114 C4102 0.960 . S
H4115 C4102 0.962 . S
H4116 C4102 0.960 . S
H4117 C4103 0.961 . S
H4118 C4103 0.961 . S
H4119 C4103 0.961 . S
H4120 C4104 0.931 . S
H4121 C4109 0.930 . S
H4122 C4110 0.956 . S
H4123 C4110 0.961 . S
H4124 C4110 0.961 . S
H4125 C4111 0.958 . S
H4126 C4111 0.961 . S
H4127 C4111 0.960 . S
C4128 C4129 1.382 1_565 S
C4128 C4130 1.394 . S
C4128 H4144 0.931 . S
C4129 C4128 1.382 1_545 S
C4129 C4133 1.384 . S
C4130 C4128 1.394 . S
C4130 C4131 1.369 . S
C4130 C4134 1.531 . S
C4131 C4130 1.369 . S
C4131 C4132 1.410 1_565 S
C4131 C4139 1.503 . S
C4132 C4131 1.410 1_545 S
C4132 C4133 1.392 . S
C4132 C4135 1.511 . S
C4133 C4129 1.384 . S
C4133 C4132 1.392 . S
C4133 H4145 0.929 . S
C4134 C4130 1.531 . S
C4134 H4146 0.960 . S
C4134 H4147 0.962 . S
C4134 H4148 0.960 . S
C4135 C4132 1.511 . S
C4135 H4149 0.961 . S
C4135 H4150 0.961 . S
C4135 H4151 0.961 . S
C4136 C4137 1.349 1_545 S
C4136 C4138 1.363 . S
C4136 H4152 0.931 . S
C4137 C4136 1.349 1_565 S
C4137 C4141 1.434 . S
C4138 C4136 1.363 . S
C4138 C4139 1.370 1_545 S
C4138 C4142 1.524 . S
C4139 C4131 1.503 . S
C4139 C4138 1.370 1_565 S
C4139 C4140 1.403 . S
C4140 C4139 1.403 . S
C4140 C4141 1.404 . S
C4140 C4143 1.539 . S
C4141 C4137 1.434 . S
C4141 C4140 1.404 . S
C4141 H4153 0.930 . S
C4142 C4138 1.524 . S
C4142 H4154 0.956 . S
C4142 H4155 0.961 . S
C4142 H4156 0.961 . S
C4143 C4140 1.539 . S
C4143 H4157 0.958 . S
C4143 H4158 0.961 . S
C4143 H4159 0.960 . S
H4144 C4128 0.931 . S
H4145 C4133 0.929 . S
H4146 C4134 0.960 . S
H4147 C4134 0.962 . S
H4148 C4134 0.960 . S
H4149 C4135 0.961 . S
H4150 C4135 0.961 . S
H4151 C4135 0.961 . S
H4152 C4136 0.931 . S
H4153 C4141 0.930 . S
H4154 C4142 0.956 . S
H4155 C4142 0.961 . S
H4156 C4142 0.961 . S
H4157 C4143 0.958 . S
H4158 C4143 0.961 . S
H4159 C4143 0.960 . S
C4160 C4161 1.391 . S
C4160 C4162 1.394 . S
C4160 H4176 0.931 . S
C4161 C4160 1.391 . S
C4161 C4165 1.376 . S
C4162 C4160 1.394 . S
C4162 C4163 1.369 . S
C4162 C4166 1.531 . S
C4163 C4162 1.369 . S
C4163 C4164 1.410 . S
C4163 C4171 1.503 . S
C4164 C4163 1.410 . S
C4164 C4165 1.392 . S
C4164 C4167 1.511 . S
C4165 C4161 1.376 . S
C4165 C4164 1.392 . S
C4165 H4177 0.929 . S
C4166 C4162 1.531 . S
C4166 H4178 0.960 . S
C4166 H4179 0.962 . S
C4166 H4180 0.960 . S
C4167 C4164 1.511 . S
C4167 H4181 0.961 . S
C4167 H4182 0.961 . S
C4167 H4183 0.961 . S
C4168 C4169 1.370 . S
C4168 C4170 1.363 . S
C4168 H4184 0.931 . S
C4169 C4168 1.370 . S
C4169 C4173 1.408 . S
C4170 C4168 1.363 . S
C4170 C4171 1.370 . S
C4170 C4174 1.524 . S
C4171 C4163 1.503 . S
C4171 C4170 1.370 . S
C4171 C4172 1.403 . S
C4172 C4171 1.403 . S
C4172 C4173 1.404 . S
C4172 C4175 1.539 . S
C4173 C4169 1.408 . S
C4173 C4172 1.404 . S
C4173 H4185 0.930 . S
C4174 C4170 1.524 . S
C4174 H4186 0.956 . S
C4174 H4187 0.961 . S
C4174 H4188 0.961 . S
C4175 C4172 1.539 . S
C4175 H4189 0.958 . S
C4175 H4190 0.961 . S
C4175 H4191 0.960 . S
H4176 C4160 0.931 . S
H4177 C4165 0.929 . S
H4178 C4166 0.960 . S
H4179 C4166 0.962 . S
H4180 C4166 0.960 . S
H4181 C4167 0.961 . S
H4182 C4167 0.961 . S
H4183 C4167 0.961 . S
H4184 C4168 0.931 . S
H4185 C4173 0.930 . S
H4186 C4174 0.956 . S
H4187 C4174 0.961 . S
H4188 C4174 0.961 . S
H4189 C4175 0.958 . S
H4190 C4175 0.961 . S
H4191 C4175 0.960 . S
C4192 C4193 1.391 . S
C4192 C4194 1.394 . S
C4192 H4208 0.931 . S
C4193 C4192 1.391 . S
C4193 C4197 1.376 1_565 S
C4194 C4192 1.394 . S
C4194 C4195 1.369 . S
C4194 C4198 1.531 . S
C4195 C4194 1.369 . S
C4195 C4196 1.410 1_565 S
C4195 C4203 1.503 . S
C4196 C4195 1.410 1_545 S
C4196 C4197 1.392 . S
C4196 C4199 1.511 . S
C4197 C4193 1.376 1_545 S
C4197 C4196 1.392 . S
C4197 H4209 0.929 . S
C4198 C4194 1.531 . S
C4198 H4210 0.960 . S
C4198 H4211 0.962 . S
C4198 H4212 0.960 . S
C4199 C4196 1.511 . S
C4199 H4213 0.961 . S
C4199 H4214 0.961 . S
C4199 H4215 0.961 . S
C4200 C4201 1.380 . S
C4200 C4202 1.363 . S
C4200 H4216 0.931 . S
C4201 C4200 1.380 . S
C4201 C4205 1.397 1_545 S
C4202 C4200 1.363 . S
C4202 C4203 1.370 1_545 S
C4202 C4206 1.524 . S
C4203 C4195 1.503 . S
C4203 C4202 1.370 1_565 S
C4203 C4204 1.403 . S
C4204 C4203 1.403 . S
C4204 C4205 1.404 . S
C4204 C4207 1.539 . S
C4205 C4201 1.397 1_565 S
C4205 C4204 1.404 . S
C4205 H4217 0.930 . S
C4206 C4202 1.524 . S
C4206 H4218 0.956 . S
C4206 H4219 0.961 . S
C4206 H4220 0.961 . S
C4207 C4204 1.539 . S
C4207 H4221 0.958 . S
C4207 H4222 0.961 . S
C4207 H4223 0.960 . S
H4208 C4192 0.931 . S
H4209 C4197 0.929 . S
H4210 C4198 0.960 . S
H4211 C4198 0.962 . S
H4212 C4198 0.960 . S
H4213 C4199 0.961 . S
H4214 C4199 0.961 . S
H4215 C4199 0.961 . S
H4216 C4200 0.931 . S
H4217 C4205 0.930 . S
H4218 C4206 0.956 . S
H4219 C4206 0.961 . S
H4220 C4206 0.961 . S
H4221 C4207 0.958 . S
H4222 C4207 0.961 . S
H4223 C4207 0.960 . S
C4224 C4225 1.391 . S
C4224 C4226 1.394 . S
C4224 H4240 0.931 . S
C4225 C4224 1.391 . S
C4225 C4229 1.376 . S
C4226 C4224 1.394 . S
C4226 C4227 1.369 . S
C4226 C4230 1.531 . S
C4227 C4226 1.369 . S
C4227 C4228 1.410 . S
C4227 C4235 1.503 . S
C4228 C4227 1.410 . S
C4228 C4229 1.392 . S
C4228 C4231 1.511 . S
C4229 C4225 1.376 . S
C4229 C4228 1.392 . S
C4229 H4241 0.929 . S
C4230 C4226 1.531 . S
C4230 H4242 0.960 . S
C4230 H4243 0.962 . S
C4230 H4244 0.960 . S
C4231 C4228 1.511 . S
C4231 H4245 0.961 . S
C4231 H4246 0.961 . S
C4231 H4247 0.961 . S
C4232 C4233 1.370 . S
C4232 C4234 1.363 . S
C4232 H4248 0.931 . S
C4233 C4232 1.370 . S
C4233 C4237 1.408 . S
C4234 C4232 1.363 . S
C4234 C4235 1.370 . S
C4234 C4238 1.524 . S
C4235 C4227 1.503 . S
C4235 C4234 1.370 . S
C4235 C4236 1.403 . S
C4236 C4235 1.403 . S
C4236 C4237 1.404 . S
C4236 C4239 1.539 . S
C4237 C4233 1.408 . S
C4237 C4236 1.404 . S
C4237 H4249 0.930 . S
C4238 C4234 1.524 . S
C4238 H4250 0.956 . S
C4238 H4251 0.961 . S
C4238 H4252 0.961 . S
C4239 C4236 1.539 . S
C4239 H4253 0.958 . S
C4239 H4254 0.961 . S
C4239 H4255 0.960 . S
H4240 C4224 0.931 . S
H4241 C4229 0.929 . S
H4242 C4230 0.960 . S
H4243 C4230 0.962 . S
H4244 C4230 0.960 . S
H4245 C4231 0.961 . S
H4246 C4231 0.961 . S
H4247 C4231 0.961 . S
H4248 C4232 0.931 . S
H4249 C4237 0.930 . S
H4250 C4238 0.956 . S
H4251 C4238 0.961 . S
H4252 C4238 0.961 . S
H4253 C4239 0.958 . S
H4254 C4239 0.961 . S
H4255 C4239 0.960 . S
C4256 C4257 1.391 . S
C4256 C4258 1.394 . S
C4256 H4272 0.931 . S
C4257 C4256 1.391 . S
C4257 C4261 1.376 . S
C4258 C4256 1.394 . S
C4258 C4259 1.369 . S
C4258 C4262 1.531 . S
C4259 C4258 1.369 . S
C4259 C4260 1.410 . S
C4259 C4267 1.503 . S
C4260 C4259 1.410 . S
C4260 C4261 1.392 . S
C4260 C4263 1.511 . S
C4261 C4257 1.376 . S
C4261 C4260 1.392 . S
C4261 H4273 0.929 . S
C4262 C4258 1.531 . S
C4262 H4274 0.960 . S
C4262 H4275 0.962 . S
C4262 H4276 0.960 . S
C4263 C4260 1.511 . S
C4263 H4277 0.961 . S
C4263 H4278 0.961 . S
C4263 H4279 0.961 . S
C4264 C4265 1.370 . S
C4264 C4266 1.363 . S
C4264 H4280 0.931 . S
C4265 C4264 1.370 . S
C4265 C4269 1.408 . S
C4266 C4264 1.363 . S
C4266 C4267 1.370 . S
C4266 C4270 1.524 . S
C4267 C4259 1.503 . S
C4267 C4266 1.370 . S
C4267 C4268 1.403 . S
C4268 C4267 1.403 . S
C4268 C4269 1.404 . S
C4268 C4271 1.539 . S
C4269 C4265 1.408 . S
C4269 C4268 1.404 . S
C4269 H4281 0.930 . S
C4270 C4266 1.524 . S
C4270 H4282 0.956 . S
C4270 H4283 0.961 . S
C4270 H4284 0.961 . S
C4271 C4268 1.539 . S
C4271 H4285 0.958 . S
C4271 H4286 0.961 . S
C4271 H4287 0.960 . S
H4272 C4256 0.931 . S
H4273 C4261 0.929 . S
H4274 C4262 0.960 . S
H4275 C4262 0.962 . S
H4276 C4262 0.960 . S
H4277 C4263 0.961 . S
H4278 C4263 0.961 . S
H4279 C4263 0.961 . S
H4280 C4264 0.931 . S
H4281 C4269 0.930 . S
H4282 C4270 0.956 . S
H4283 C4270 0.961 . S
H4284 C4270 0.961 . S
H4285 C4271 0.958 . S
H4286 C4271 0.961 . S
H4287 C4271 0.960 . S
C4288 C4289 1.391 . S
C4288 C4290 1.394 . S
C4288 H4304 0.931 . S
C4289 C4288 1.391 . S
C4289 C4293 1.376 . S
C4290 C4288 1.394 . S
C4290 C4291 1.369 . S
C4290 C4294 1.531 . S
C4291 C4290 1.369 . S
C4291 C4292 1.410 . S
C4291 C4299 1.503 . S
C4292 C4291 1.410 . S
C4292 C4293 1.392 . S
C4292 C4295 1.511 . S
C4293 C4289 1.376 . S
C4293 C4292 1.392 . S
C4293 H4305 0.929 . S
C4294 C4290 1.531 . S
C4294 H4306 0.960 . S
C4294 H4307 0.962 . S
C4294 H4308 0.960 . S
C4295 C4292 1.511 . S
C4295 H4309 0.961 . S
C4295 H4310 0.961 . S
C4295 H4311 0.961 . S
C4296 C4297 1.370 . S
C4296 C4298 1.363 . S
C4296 H4312 0.931 . S
C4297 C4296 1.370 . S
C4297 C4301 1.408 . S
C4298 C4296 1.363 . S
C4298 C4299 1.370 . S
C4298 C4302 1.524 . S
C4299 C4291 1.503 . S
C4299 C4298 1.370 . S
C4299 C4300 1.403 . S
C4300 C4299 1.403 . S
C4300 C4301 1.404 . S
C4300 C4303 1.539 . S
C4301 C4297 1.408 . S
C4301 C4300 1.404 . S
C4301 H4313 0.930 . S
C4302 C4298 1.524 . S
C4302 H4314 0.956 . S
C4302 H4315 0.961 . S
C4302 H4316 0.961 . S
C4303 C4300 1.539 . S
C4303 H4317 0.958 . S
C4303 H4318 0.961 . S
C4303 H4319 0.960 . S
H4304 C4288 0.931 . S
H4305 C4293 0.929 . S
H4306 C4294 0.960 . S
H4307 C4294 0.962 . S
H4308 C4294 0.960 . S
H4309 C4295 0.961 . S
H4310 C4295 0.961 . S
H4311 C4295 0.961 . S
H4312 C4296 0.931 . S
H4313 C4301 0.930 . S
H4314 C4302 0.956 . S
H4315 C4302 0.961 . S
H4316 C4302 0.961 . S
H4317 C4303 0.958 . S
H4318 C4303 0.961 . S
H4319 C4303 0.960 . S
C4320 C4321 1.383 . S
C4320 C4322 1.394 . S
C4320 H4336 0.931 . S
C4321 C4320 1.383 . S
C4321 C4325 1.382 1_545 S
C4322 C4320 1.394 . S
C4322 C4323 1.369 . S
C4322 C4326 1.531 . S
C4323 C4322 1.369 . S
C4323 C4324 1.410 1_545 S
C4323 C4331 1.503 1_554 S
C4324 C4323 1.410 1_565 S
C4324 C4325 1.392 . S
C4324 C4327 1.511 . S
C4325 C4321 1.382 1_565 S
C4325 C4324 1.392 . S
C4325 H4337 0.929 . S
C4326 C4322 1.531 . S
C4326 H4338 0.923 1_554 S
C4326 H4339 0.962 . S
C4326 H4340 0.960 . S
C4327 C4324 1.511 . S
C4327 H4341 0.961 . S
C4327 H4342 0.961 1_554 S
C4327 H4343 0.961 . S
C4328 C4329 1.335 1_565 S
C4328 C4330 1.363 . S
C4328 H4344 0.931 . S
C4329 C4328 1.335 1_545 S
C4329 C4333 1.450 . S
C4330 C4328 1.363 . S
C4330 C4331 1.370 1_565 S
C4330 C4334 1.524 . S
C4331 C4323 1.503 1_556 S
C4331 C4330 1.370 1_545 S
C4331 C4332 1.403 . S
C4332 C4331 1.403 . S
C4332 C4333 1.404 . S
C4332 C4335 1.539 . S
C4333 C4329 1.450 . S
C4333 C4332 1.404 . S
C4333 H4345 0.930 . S
C4334 C4330 1.524 . S
C4334 H4346 0.968 . S
C4334 H4347 0.931 1_556 S
C4334 H4348 0.961 . S
C4335 C4332 1.539 . S
C4335 H4349 0.958 . S
C4335 H4350 0.961 . S
C4335 H4351 0.981 . S
H4336 C4320 0.931 . S
H4337 C4325 0.929 . S
H4338 C4326 0.923 1_556 S
H4339 C4326 0.962 . S
H4340 C4326 0.960 . S
H4341 C4327 0.961 . S
H4342 C4327 0.961 1_556 S
H4343 C4327 0.961 . S
H4344 C4328 0.931 . S
H4345 C4333 0.930 . S
H4346 C4334 0.968 . S
H4347 C4334 0.931 1_554 S
H4348 C4334 0.961 . S
H4349 C4335 0.958 . S
H4350 C4335 0.961 . S
H4351 C4335 0.981 . S
C1281 C6 2.146 . S
C1289 C1006 2.128 . S
C1313 C966 2.103 . S
C1321 C46 2.095 . S
C1345 C1086 2.079 . S
C1353 C86 2.110 . S
C1377 C126 2.125 . S
C1385 C1046 2.130 . S
C1409 C175 2.150 . S
C1417 C1175 2.123 . S
C1441 C215 2.077 . S
C1449 C1135 2.109 . S
C1473 C255 2.090 . S
C1481 C1255 2.104 . S
C1505 C1215 2.155 . S
C1513 C295 2.121 . S
C1537 C326 2.098 . S
C1545 C686 2.104 . S
C1569 C366 2.118 . S
C1577 C646 2.140 . S
C1601 C406 2.131 . S
C1609 C766 2.128 . S
C1633 C726 2.113 . S
C1641 C446 2.091 . S
C1665 C495 2.077 . S
C1673 C855 2.110 . S
C1697 C535 2.130 . S
C1705 C815 2.132 . S
C1729 C935 2.103 . S
C1737 C575 2.143 . S
C1761 C615 2.130 . S
C1769 C895 2.087 . S
C1793 C9 1.502 . S
C1801 C129 1.480 . S
C1825 C49 1.458 . S
C1833 C89 1.468 . S
C1857 C298 1.456 . S
C1865 C178 1.465 . S
C1889 C258 1.450 . S
C1897 C218 1.468 . S
C1921 C329 1.503 1_545 S
C1929 C449 1.458 1_545 S
C1953 C369 1.487 . S
C1961 C409 1.468 . S
C1985 C498 1.452 . S
C1993 C618 1.459 1_565 S
C2017 C578 1.458 . S
C2025 C538 1.474 . S
C2049 C649 1.443 . S
C2057 C769 1.473 . S
C2081 C689 1.508 . S
C2089 C729 1.485 . S
C2113 C938 1.505 . S
C2121 C818 1.491 . S
C2145 C858 1.465 . S
C2153 C898 1.471 . S
C2177 C1089 1.500 1_545 S
C2185 C969 1.488 1_545 S
C2209 C1009 1.490 . S
C2217 C1049 1.469 . S
C2241 C1258 1.456 . S
C2249 C1138 1.458 1_565 S
C2273 C1218 1.458 . S
C2281 C1178 1.461 . S
C2305 C55 2.213 . S
C2313 C15 2.189 . S
C2337 C95 2.164 . S
C2345 C135 2.210 . S
C2369 C206 2.183 . S
C2377 C166 2.205 . S
C2401 C286 2.213 . S
C2409 C246 2.187 . S
C2433 C335 2.244 . S
C2441 C375 2.221 . S
C2465 C415 2.233 . S
C2473 C455 2.224 . S
C2497 C526 2.207 . S
C2505 C486 2.239 . S
C2529 C566 2.201 . S
C2537 C606 2.235 . S
C2561 C655 2.180 . S
C2569 C695 2.204 . S
C2593 C775 2.196 . S
C2601 C735 2.196 . S
C2625 C806 2.190 . S
C2633 C846 2.195 . S
C2657 C886 2.200 . S
C2665 C926 2.191 . S
C2689 C975 2.222 . S
C2697 C1015 2.230 . S
C2721 C1055 2.194 . S
C2729 C1095 2.241 . S
C2753 C1166 2.240 . S
C2761 C1126 2.225 . S
C2785 C1206 2.186 . S
C2793 C1246 2.244 . S
C2817 C10 2.425 . S
C2825 C19 2.455 . S
C2849 C50 2.425 . S
C2857 C59 2.454 1_655 S
C2881 C90 2.452 . S
C2889 C99 2.441 . S
C2913 C139 2.425 1_655 S
C2921 C130 2.455 . S
C2945 C170 2.429 . S
C2953 C179 2.453 . S
C2977 C219 2.445 . S
C2985 C210 2.444 1_455 S
C3009 C250 2.444 . S
C3017 C259 2.447 . S
C3041 C290 2.454 1_455 S
C3049 C299 2.441 . S
C3073 C339 2.430 . S
C3081 C330 2.451 . S
C3105 C370 2.455 . S
C3113 C379 2.441 1_655 S
C3137 C410 2.428 . S
C3145 C419 2.454 . S
C3169 C459 2.459 1_655 S
C3177 C450 2.440 . S
C3201 C490 2.429 . S
C3209 C499 2.453 . S
C3233 C539 2.450 . S
C3241 C530 2.445 1_455 S
C3265 C579 2.460 . S
C3273 C570 2.440 . S
C3297 C610 2.427 1_455 S
C3305 C619 2.454 . S
C3329 C650 2.426 . S
C3337 C659 2.454 . S
C3361 C699 2.449 . S
C3369 C690 2.443 1_455 S
C3393 C739 2.423 . S
C3401 C730 2.454 . S
C3425 C770 2.428 1_455 S
C3433 C779 2.454 . S
C3457 C819 2.457 . S
C3465 C810 2.440 . S
C3489 C859 2.450 1_655 S
C3497 C850 2.444 . S
C3521 C890 2.431 . S
C3529 C899 2.450 . S
C3553 C939 2.435 1_655 S
C3561 C930 2.451 . S
C3585 C979 2.445 . S
C3593 C970 2.447 . S
C3617 C1010 2.457 1_455 S
C3625 C1019 2.440 . S
C3649 C1059 2.428 . S
C3657 C1050 2.452 . S
C3681 C1099 2.438 . S
C3689 C1090 2.450 1_455 S
C3713 C1139 2.426 . S
C3721 C1130 2.453 . S
C3745 C1179 2.424 1_655 S
C3753 C1170 2.455 . S
C3777 C1210 2.452 . S
C3785 C1219 2.444 . S
C3809 C1250 2.459 . S
C3817 C1259 2.440 1_655 S
C3841 C18 1.502 . S
C3849 C169 1.462 . S
C3873 C1169 1.441 . S
C3881 C58 1.486 . S
C3905 C569 1.446 1_455 S
C3913 C98 1.483 . S
C3937 C138 1.499 . S
C3945 C929 1.463 . S
C3969 C209 1.494 . S
C3977 C1018 1.466 . S
C4001 C249 1.501 . S
C4009 C418 1.463 . S
C4033 C289 1.491 . S
C4041 C778 1.467 . S
C4065 C338 1.441 . S
C4073 C489 1.456 1_545 S
C4097 C849 1.445 . S
C4105 C378 1.484 . S
C4129 C1249 1.453 1_545 S
C4137 C458 1.455 1_565 S
C4161 C529 1.497 . S
C4169 C698 1.465 . S
C4193 C1098 1.488 1_565 S
C4201 C609 1.454 1_545 S
C4225 C658 1.443 . S
C4233 C809 1.484 . S
C4257 C1209 1.494 . S
C4265 C738 1.466 . S
C4289 C889 1.496 . S
C4297 C1058 1.465 . S
C4321 C978 1.443 . S
C4329 C1129 1.457 1_545 S
