# Generated by pormake.
# Topology wia, (6)-cn, num edge types: 1
# Building blocks:
#     Node 0, Type 0, BuildingBlock: KUMBUR_clean_sbu_1, # of connection points: 6
#     Node 1, Type 0, BuildingBlock: KUMBUR_clean_sbu_1, # of connection points: 6
#     Node 2, Type 0, BuildingBlock: KUMBUR_clean_sbu_1, # of connection points: 6
#     Node 3, Type 0, BuildingBlock: KUMBUR_clean_sbu_1, # of connection points: 6
#     Node 4, Type 0, BuildingBlock: KUMBUR_clean_sbu_1, # of connection points: 6
#     Node 5, Type 0, BuildingBlock: KUMBUR_clean_sbu_1, # of connection points: 6
#     Node 6, Type 0, BuildingBlock: KUMBUR_clean_sbu_1, # of connection points: 6
#     Node 7, Type 0, BuildingBlock: KUMBUR_clean_sbu_1, # of connection points: 6
#     Node 8, Type 0, BuildingBlock: KUMBUR_clean_sbu_1, # of connection points: 6
#     Node 9, Type 0, BuildingBlock: KUMBUR_clean_sbu_1, # of connection points: 6
#     Node 10, Type 0, BuildingBlock: KUMBUR_clean_sbu_1, # of connection points: 6
#     Node 11, Type 0, BuildingBlock: KUMBUR_clean_sbu_1, # of connection points: 6
#     Node 12, Type 0, BuildingBlock: KUMBUR_clean_sbu_1, # of connection points: 6
#     Node 13, Type 0, BuildingBlock: KUMBUR_clean_sbu_1, # of connection points: 6
#     Node 14, Type 0, BuildingBlock: KUMBUR_clean_sbu_1, # of connection points: 6
#     Node 15, Type 0, BuildingBlock: KUMBUR_clean_sbu_1, # of connection points: 6
#     Edge 16, Type (0, 0), BuildingBlock: OJICUG_clean_linker_0, # of connection points: 2
#     Edge 17, Type (0, 0), BuildingBlock: OJICUG_clean_linker_0, # of connection points: 2
#     Edge 18, Type (0, 0), BuildingBlock: OJICUG_clean_linker_0, # of connection points: 2
#     Edge 19, Type (0, 0), BuildingBlock: OJICUG_clean_linker_0, # of connection points: 2
#     Edge 20, Type (0, 0), BuildingBlock: OJICUG_clean_linker_0, # of connection points: 2
#     Edge 21, Type (0, 0), BuildingBlock: OJICUG_clean_linker_0, # of connection points: 2
#     Edge 22, Type (0, 0), BuildingBlock: OJICUG_clean_linker_0, # of connection points: 2
#     Edge 23, Type (0, 0), BuildingBlock: OJICUG_clean_linker_0, # of connection points: 2
#     Edge 24, Type (0, 0), BuildingBlock: OJICUG_clean_linker_0, # of connection points: 2
#     Edge 25, Type (0, 0), BuildingBlock: OJICUG_clean_linker_0, # of connection points: 2
#     Edge 26, Type (0, 0), BuildingBlock: OJICUG_clean_linker_0, # of connection points: 2
#     Edge 27, Type (0, 0), BuildingBlock: OJICUG_clean_linker_0, # of connection points: 2
#     Edge 28, Type (0, 0), BuildingBlock: OJICUG_clean_linker_0, # of connection points: 2
#     Edge 29, Type (0, 0), BuildingBlock: OJICUG_clean_linker_0, # of connection points: 2
#     Edge 30, Type (0, 0), BuildingBlock: OJICUG_clean_linker_0, # of connection points: 2
#     Edge 31, Type (0, 0), BuildingBlock: OJICUG_clean_linker_0, # of connection points: 2
#     Edge 32, Type (0, 0), BuildingBlock: OJICUG_clean_linker_0, # of connection points: 2
#     Edge 33, Type (0, 0), BuildingBlock: OJICUG_clean_linker_0, # of connection points: 2
#     Edge 34, Type (0, 0), BuildingBlock: OJICUG_clean_linker_0, # of connection points: 2
#     Edge 35, Type (0, 0), BuildingBlock: OJICUG_clean_linker_0, # of connection points: 2
#     Edge 36, Type (0, 0), BuildingBlock: OJICUG_clean_linker_0, # of connection points: 2
#     Edge 37, Type (0, 0), BuildingBlock: OJICUG_clean_linker_0, # of connection points: 2
#     Edge 38, Type (0, 0), BuildingBlock: OJICUG_clean_linker_0, # of connection points: 2
#     Edge 39, Type (0, 0), BuildingBlock: OJICUG_clean_linker_0, # of connection points: 2
#     Edge 40, Type (0, 0), BuildingBlock: OJICUG_clean_linker_0, # of connection points: 2
#     Edge 41, Type (0, 0), BuildingBlock: OJICUG_clean_linker_0, # of connection points: 2
#     Edge 42, Type (0, 0), BuildingBlock: OJICUG_clean_linker_0, # of connection points: 2
#     Edge 43, Type (0, 0), BuildingBlock: OJICUG_clean_linker_0, # of connection points: 2
#     Edge 44, Type (0, 0), BuildingBlock: OJICUG_clean_linker_0, # of connection points: 2
#     Edge 45, Type (0, 0), BuildingBlock: OJICUG_clean_linker_0, # of connection points: 2
#     Edge 46, Type (0, 0), BuildingBlock: OJICUG_clean_linker_0, # of connection points: 2
#     Edge 47, Type (0, 0), BuildingBlock: OJICUG_clean_linker_0, # of connection points: 2
#     Edge 48, Type (0, 0), BuildingBlock: OJICUG_clean_linker_0, # of connection points: 2
#     Edge 49, Type (0, 0), BuildingBlock: OJICUG_clean_linker_0, # of connection points: 2
#     Edge 50, Type (0, 0), BuildingBlock: OJICUG_clean_linker_0, # of connection points: 2
#     Edge 51, Type (0, 0), BuildingBlock: OJICUG_clean_linker_0, # of connection points: 2
#     Edge 52, Type (0, 0), BuildingBlock: OJICUG_clean_linker_0, # of connection points: 2
#     Edge 53, Type (0, 0), BuildingBlock: OJICUG_clean_linker_0, # of connection points: 2
#     Edge 54, Type (0, 0), BuildingBlock: OJICUG_clean_linker_0, # of connection points: 2
#     Edge 55, Type (0, 0), BuildingBlock: OJICUG_clean_linker_0, # of connection points: 2
#     Edge 56, Type (0, 0), BuildingBlock: OJICUG_clean_linker_0, # of connection points: 2
#     Edge 57, Type (0, 0), BuildingBlock: OJICUG_clean_linker_0, # of connection points: 2
#     Edge 58, Type (0, 0), BuildingBlock: OJICUG_clean_linker_0, # of connection points: 2
#     Edge 59, Type (0, 0), BuildingBlock: OJICUG_clean_linker_0, # of connection points: 2
#     Edge 60, Type (0, 0), BuildingBlock: OJICUG_clean_linker_0, # of connection points: 2
#     Edge 61, Type (0, 0), BuildingBlock: OJICUG_clean_linker_0, # of connection points: 2
#     Edge 62, Type (0, 0), BuildingBlock: OJICUG_clean_linker_0, # of connection points: 2
#     Edge 63, Type (0, 0), BuildingBlock: OJICUG_clean_linker_0, # of connection points: 2
# Relax obj value: 0.594
# Max RMSD: 0.318
# Mean RMSD: 0.248
data_MOF--net-wia--node1-KUMBUR_clean_sbu_1--edge1-OJICUG_clean_linker_0
_symmetry_space_group_name_H-M    P1
_symmetry_Int_Tables_number       1
_symmetry_cell_setting            triclinic
loop_
_symmetry_equiv_pos_as_xyz
'x, y, z'
_cell_length_a     23.857244
_cell_length_b     24.027849
_cell_length_c     71.687272
_cell_angle_alpha  108.8679
_cell_angle_beta   89.393976
_cell_angle_gamma 97.562161
loop_
_atom_site_label
_atom_site_type_symbol
_atom_site_fract_x
_atom_site_fract_y
_atom_site_fract_z
_atom_type_partial_charge
Tb0 Tb 0.1835 0.6517 0.20604 0.0
C1 C 0.9406 0.50748 0.18335 0.0
N2 N 0.98461 0.51632 0.17206 0.0
C3 C 0.96432 0.41551 0.15068 0.0
C4 C 0.90793 0.45137 0.17926 0.0
C5 C 0.99518 0.47223 0.15529 0.0
C6 C 0.92104 0.40477 0.16289 0.0
C7 C 0.87786 0.55025 0.20923 0.0
C8 C 0.92591 0.55611 0.19804 0.0
C9 C 0.84707 0.49377 0.20613 0.0
C10 C 0.86204 0.44439 0.19113 0.0
Tb11 Tb 1.03295 0.60998 0.18061 0.0
N12 N 0.95541 0.61003 0.19993 0.0
C13 C 0.86056 0.60164 0.22242 0.0
C14 C 0.93534 0.66053 0.21135 0.0
C15 C 0.8888 0.6571 0.22319 0.0
H16 H 1.02872 0.48066 0.14589 0.0
H17 H 0.87433 0.69723 0.2327 0.0
H18 H 0.17521 0.56805 0.23554 0.0
H19 H 0.29993 0.87084 0.22047 0.0
H20 H 0.95558 0.7037 0.21152 0.0
H21 H 0.82401 0.59912 0.23136 0.0
H22 H 0.25996 0.76928 0.19979 0.0
H23 H 0.97382 0.38021 0.13771 0.0
H24 H 0.81031 0.48824 0.2147 0.0
H25 H 0.83672 0.40148 0.1884 0.0
H26 H 0.17715 0.58406 0.27132 0.0
H27 H 0.89695 0.36092 0.15922 0.0
H28 H 0.29089 0.90196 0.25671 0.0
N29 N 0.18947 0.66032 0.23891 0.0
C30 C 0.20453 0.71586 0.25166 0.0
C31 C 0.18433 0.62166 0.266 0.0
C32 C 0.20748 0.72709 0.27221 0.0
C33 C 0.18324 0.61279 0.24572 0.0
C34 C 0.19528 0.67923 0.27934 0.0
N35 N 0.22556 0.74498 0.22399 0.0
C36 C 0.25519 0.78301 0.21559 0.0
C37 C 0.24637 0.81694 0.2563 0.0
C38 C 0.22345 0.76003 0.24386 0.0
C39 C 0.27252 0.85784 0.24768 0.0
C40 C 0.27793 0.84036 0.22724 0.0
H41 H 0.19698 0.68592 0.29503 0.0
H42 H 0.22772 0.79467 0.30068 0.0
H43 H 0.26211 0.87351 0.28671 0.0
O44 O 0.22968 0.59299 0.18534 0.0
O45 O 0.15322 0.73328 0.1996 0.0
O46 O 1.05824 0.7115 0.1889 0.0
O47 O 0.27175 0.65966 0.21046 0.0
O48 O 0.16095 0.66296 0.17874 0.0
O49 O 0.10541 0.57915 0.16299 0.0
O50 O 0.95771 0.61793 0.1674 0.0
O51 O 1.06146 0.52965 0.18726 0.0
O52 O 0.15447 0.55201 0.19979 0.0
O53 O 1.03667 0.62158 0.15272 0.0
O54 O 1.05065 0.67426 0.20991 0.0
O55 O 0.10963 0.62614 0.22084 0.0
C56 C 0.10564 0.75133 0.19437 0.0
C57 C 0.30831 0.56785 0.19911 0.0
C58 C 0.379 0.54247 0.21837 0.0
C59 C 0.36628 0.48249 0.20671 0.0
C60 C 0.29754 0.50789 0.1873 0.0
C61 C 0.32608 0.46554 0.19121 0.0
C62 C 0.34991 0.58484 0.21433 0.0
C63 C 0.15025 0.61676 0.16316 0.0
C64 C 0.27694 0.6128 0.1955 0.0
C65 C 0.22584 0.78493 0.28483 0.0
C66 C 0.24541 0.82984 0.27687 0.0
C67 C 0.10769 0.51228 0.19325 0.0
C68 C 0.95301 0.57752 0.13288 0.0
C69 C 0.8669 0.54612 0.11183 0.0
C70 C 0.89698 0.50761 0.09726 0.0
C71 C 0.98198 0.53904 0.11816 0.0
C72 C 0.89538 0.57926 0.1299 0.0
C73 C 0.95367 0.50359 0.10058 0.0
C74 C 0.06884 0.6583 0.22414 0.0
C75 C 0.98193 0.61842 0.15115 0.0
H76 H 0.38715 0.44858 0.2096 0.0
H77 H 0.26664 0.49353 0.17515 0.0
H78 H 0.31681 0.41932 0.18224 0.0
H79 H 0.36012 0.63139 0.22288 0.0
H80 H 0.87799 0.48232 0.08289 0.0
H81 H 1.02645 0.53667 0.12012 0.0
H82 H 0.87348 0.60816 0.14163 0.0
H83 H 0.97628 0.47433 0.08918 0.0
Tb84 Tb 0.77685 0.8736 0.4562 0.0
C85 C 0.76168 0.9904 0.38722 0.0
N86 N 0.80038 0.9701 0.39621 0.0
C87 C 0.84124 0.927 0.36486 0.0
C88 C 0.76044 0.97896 0.36664 0.0
C89 C 0.84193 0.94139 0.3854 0.0
C90 C 0.80004 0.94548 0.35539 0.0
C91 C 0.68686 0.05156 0.3906 0.0
C92 C 0.72527 1.0256 0.39891 0.0
C93 C 0.68436 0.03934 0.37007 0.0
C94 C 0.72096 1.00286 0.35809 0.0
Tb95 Tb 0.7947 0.99253 0.42993 0.0
N96 N 0.73032 0.03768 0.41865 0.0
C97 C 0.65372 0.09069 0.40324 0.0
C98 C 0.70007 0.078 0.43114 0.0
C99 C 0.66078 0.10441 0.42364 0.0
H100 H 0.87526 0.92836 0.3925 0.0
H101 H 0.63621 0.1355 0.43357 0.0
H102 H 0.66475 0.77742 0.44003 0.0
H103 H 0.87176 0.96486 0.53006 0.0
H104 H 0.70591 0.08895 0.44693 0.0
H105 H 0.6237 0.11161 0.39745 0.0
H106 H 0.87201 0.93034 0.49363 0.0
H107 H 0.87319 0.90263 0.35637 0.0
H108 H 0.65539 0.05916 0.36343 0.0
H109 H 0.71956 0.99482 0.34232 0.0
H110 H 0.57951 0.73746 0.45328 0.0
H111 H 0.80033 0.93533 0.33952 0.0
H112 H 0.78327 0.94928 0.54714 0.0
N113 N 0.69664 0.83638 0.46792 0.0
C114 C 0.69043 0.85462 0.48764 0.0
C115 C 0.60961 0.77084 0.46326 0.0
C116 C 0.64202 0.83375 0.49609 0.0
C117 C 0.65826 0.79326 0.4557 0.0
C118 C 0.60072 0.79193 0.48354 0.0
N119 N 0.78326 0.90157 0.49011 0.0
C120 C 0.83269 0.92526 0.50093 0.0
C121 C 0.73364 0.90589 0.51998 0.0
C122 C 0.73547 0.88945 0.49926 0.0
C123 C 0.78282 0.93553 0.53117 0.0
C124 C 0.83288 0.94425 0.52158 0.0
H125 H 0.56308 0.77428 0.48943 0.0
H126 H 0.60091 0.83813 0.52357 0.0
H127 H 0.68123 0.90203 0.54457 0.0
O128 O 0.80459 0.8004 0.43456 0.0
O129 O 0.82051 0.96242 0.46974 0.0
O130 O 0.76021 1.00799 0.45898 0.0
O131 O 0.79823 0.80376 0.46492 0.0
O132 O 0.87072 0.90587 0.45342 0.0
O133 O 0.87687 0.95174 0.42926 0.0
O134 O 0.82268 0.0777 0.42859 0.0
O135 O 0.80128 0.90058 0.41417 0.0
O136 O 0.73399 0.85188 0.42747 0.0
O137 O 0.86415 0.04445 0.44827 0.0
O138 O 0.69952 0.9693 0.43542 0.0
O139 O 0.68979 0.90285 0.4533 0.0
C140 C 0.79321 1.00785 0.47321 0.0
C141 C 0.77037 0.71103 0.44122 0.0
C142 C 0.73443 0.6249 0.45085 0.0
C143 C 0.70057 0.60156 0.43348 0.0
C144 C 0.73504 0.68802 0.42414 0.0
C145 C 0.70091 0.63324 0.4202 0.0
C146 C 0.77006 0.67875 0.45433 0.0
C147 C 0.90223 0.92821 0.4411 0.0
C148 C 0.80412 0.77048 0.44685 0.0
C149 C 0.63808 0.85293 0.51672 0.0
C150 C 0.68383 0.88929 0.52868 0.0
C151 C 0.75713 0.8611 0.41201 0.0
C152 C 0.92189 0.09996 0.43205 0.0
C153 C 0.9784 0.10129 0.40361 0.0
C154 C 1.02593 0.12827 0.41614 0.0
C155 C 0.96991 0.12571 0.44449 0.0
C156 C 0.92692 0.08707 0.41165 0.0
C157 C 1.02174 0.13962 0.43652 0.0
C158 C 0.6661 0.93651 0.44453 0.0
C159 C 0.86676 0.08555 0.4401 0.0
H160 H 0.67318 0.55972 0.43044 0.0
H161 H 0.73233 0.71284 0.41415 0.0
H162 H 0.6739 0.61586 0.407 0.0
H163 H 0.79714 0.69625 0.46757 0.0
H164 H 0.06582 0.14058 0.41021 0.0
H165 H 0.96716 0.13555 0.4603 0.0
H166 H 0.89008 0.06757 0.40188 0.0
H167 H 1.0585 0.16016 0.4462 0.0
Tb168 Tb 0.68056 0.56714 0.65919 0.0
C169 C 0.4957 0.54388 0.72554 0.0
N170 N 0.49381 0.52197 0.70559 0.0
C171 C 0.43902 0.43177 0.70678 0.0
C172 C 0.47097 0.50988 0.73702 0.0
C173 C 0.46296 0.46795 0.6961 0.0
C174 C 0.44396 0.4524 0.72735 0.0
C175 C 0.51201 0.63041 0.75472 0.0
C176 C 0.51617 0.60289 0.73423 0.0
C177 C 0.49135 0.59595 0.76649 0.0
C178 C 0.47097 0.53562 0.75764 0.0
Tb179 Tb 0.53763 0.58268 0.68919 0.0
N180 N 0.53362 0.63477 0.72223 0.0
C181 C 0.5252 0.69215 0.76254 0.0
C182 C 0.54117 0.69558 0.72956 0.0
C183 C 0.53866 0.72498 0.74982 0.0
H184 H 0.45799 0.45233 0.68018 0.0
H185 H 0.54648 0.77296 0.75557 0.0
H186 H 0.71903 0.68156 0.64318 0.0
H187 H 0.68189 0.33242 0.61732 0.0
H188 H 0.55055 0.72152 0.71983 0.0
H189 H 0.52238 0.71504 0.77818 0.0
H190 H 0.7024 0.42062 0.64634 0.0
H191 H 0.41627 0.38831 0.69914 0.0
H192 H 0.48844 0.61611 0.78229 0.0
H193 H 0.45274 0.51011 0.76675 0.0
H194 H 0.71521 0.70243 0.61184 0.0
H195 H 0.42445 0.42479 0.73562 0.0
H196 H 0.65551 0.34216 0.58543 0.0
N197 N 0.68842 0.58939 0.63043 0.0
C198 C 0.67695 0.54376 0.61342 0.0
C199 C 0.70343 0.65761 0.61208 0.0
C200 C 0.67466 0.5534 0.59508 0.0
C201 C 0.70477 0.64559 0.62991 0.0
C202 C 0.68699 0.61145 0.59461 0.0
N203 N 0.67809 0.48078 0.63234 0.0
C204 C 0.68674 0.42617 0.6331 0.0
C205 C 0.66168 0.43788 0.59705 0.0
C206 C 0.67059 0.48718 0.61445 0.0
C207 C 0.66247 0.38126 0.59837 0.0
C208 C 0.67696 0.37558 0.61638 0.0
H209 H 0.68591 0.62076 0.58081 0.0
H210 H 0.65789 0.51108 0.56368 0.0
H211 H 0.6467 0.40994 0.56547 0.0
O212 O 0.76246 0.54403 0.65564 0.0
O213 O 0.60136 0.57303 0.64567 0.0
O214 O 0.54585 0.5181 0.66051 0.0
O215 O 0.74924 0.6326 0.67256 0.0
O216 O 0.65419 0.48483 0.66925 0.0
O217 O 0.56331 0.48707 0.68157 0.0
O218 O 0.49318 0.61565 0.67058 0.0
O219 O 0.61348 0.63405 0.70591 0.0
O220 O 0.66164 0.56469 0.68817 0.0
O221 O 0.4502 0.58261 0.69204 0.0
O222 O 0.57356 0.67129 0.68489 0.0
O223 O 0.65587 0.66175 0.66678 0.0
C224 C 0.55794 0.53318 0.64489 0.0
C225 C 0.83468 0.62033 0.65497 0.0
C226 C 0.9114 0.60022 0.63191 0.0
C227 C 0.92551 0.66139 0.6354 0.0
C228 C 0.85003 0.6815 0.65859 0.0
C229 C 0.8953 0.70177 0.64886 0.0
C230 C 0.86647 0.58016 0.64192 0.0
C231 C 0.60796 0.45686 0.6753 0.0
C232 C 0.78658 0.59757 0.66484 0.0
C233 C 0.66143 0.50472 0.57787 0.0
C234 C 0.65493 0.44702 0.57888 0.0
C235 C 0.6612 0.61342 0.70266 0.0
C236 C 0.42483 0.67097 0.68964 0.0
C237 C 0.37176 0.73015 0.71638 0.0
C238 C 0.39294 0.78134 0.7118 0.0
C239 C 0.44586 0.72265 0.68522 0.0
C240 C 0.38673 0.67519 0.70491 0.0
C241 C 0.42975 0.77742 0.69625 0.0
C242 C 0.61555 0.69473 0.67581 0.0
C243 C 0.44731 0.61413 0.68049 0.0
H244 H 0.95964 0.6778 0.62767 0.0
H245 H 0.82693 0.71359 0.66882 0.0
H246 H 0.90657 0.74892 0.65158 0.0
H247 H 0.85501 0.53282 0.63894 0.0
H248 H 0.38202 0.82434 0.72047 0.0
H249 H 0.47582 0.72115 0.67367 0.0
H250 H 0.36978 0.63552 0.70829 0.0
H251 H 0.44699 0.81721 0.69309 0.0
Tb252 Tb 0.83052 0.51477 0.91912 0.0
C253 C 0.73004 0.43342 -0.01219 0.0
N254 N 0.78216 0.46051 -0.01475 0.0
C255 C 0.78539 0.52369 0.01911 0.0
C256 C 0.70301 0.45203 0.00598 0.0
C257 C 0.81114 0.50294 0.00103 0.0
C258 C 0.73074 0.49891 0.0215 0.0
C259 C 0.65152 0.3546 0.9748 0.0
C260 C 0.70422 0.38531 0.97238 0.0
C261 C 0.62438 0.37364 -0.00721 0.0
C262 C 0.64987 0.42242 0.00828 0.0
Tb263 Tb 0.81794 0.41945 0.95465 0.0
N264 N 0.73015 0.36964 0.95479 0.0
C265 C 0.62713 0.30643 0.95889 0.0
C266 C 0.70763 0.32134 0.93946 0.0
C267 C 0.65545 0.28958 0.94119 0.0
H268 H 0.85483 0.52017 0.00025 0.0
H269 H 0.63731 0.25185 0.92893 0.0
H270 H 0.72044 0.5655 0.90586 0.0
H271 H 0.96341 0.35511 0.8746 0.0
H272 H 0.73003 0.30722 0.92595 0.0
H273 H 0.5866 0.28185 0.96015 0.0
H274 H 0.92083 0.40835 0.90487 0.0
H275 H 0.80841 0.55784 0.03133 0.0
H276 H 0.5836 0.351 -0.00514 0.0
H277 H 0.62854 0.43632 0.02212 0.0
H278 H 0.67847 0.56951 0.87518 0.0
H279 H 0.71111 0.51488 0.03558 0.0
H280 H 0.93454 0.36403 0.84286 0.0
N281 N 0.78487 0.51524 0.89142 0.0
C282 C 0.80781 0.48832 0.87399 0.0
C283 C 0.71476 0.54636 0.87461 0.0
C284 C 0.7853 0.48983 0.85607 0.0
C285 C 0.73844 0.54346 0.89197 0.0
C286 C 0.73856 0.51984 0.85658 0.0
N287 N 0.87065 0.45406 0.89162 0.0
C288 C 0.9093 0.41657 0.89171 0.0
C289 C 0.87488 0.425 0.85604 0.0
C290 C 0.85229 0.45681 0.87406 0.0
C291 C 0.91644 0.38943 0.85637 0.0
C292 C 0.93298 0.38448 0.87425 0.0
H293 H 0.72013 0.52212 0.84314 0.0
H294 H 0.79291 0.46152 0.82432 0.0
H295 H 0.8712 0.40438 0.82428 0.0
O296 O 0.81343 0.60298 0.9262 0.0
O297 O 0.78156 0.42772 0.90618 0.0
O298 O 0.83151 0.38617 0.92323 0.0
O299 O 0.89269 0.579 0.91436 0.0
O300 O 0.91872 0.50295 0.9292 0.0
O301 O 0.91186 0.44436 0.94981 0.0
O302 O 0.83204 0.33044 0.94602 0.0
O303 O 0.8654 0.50687 0.96723 0.0
O304 O 0.81071 0.54069 0.94991 0.0
O305 O 0.84595 0.38634 0.97625 0.0
O306 O 0.73147 0.44296 0.94647 0.0
O307 O 0.73741 0.50257 0.92626 0.0
C308 C 0.79457 0.38 0.9091 0.0
C309 C 0.85559 0.65261 0.90471 0.0
C310 C 0.8968 0.68606 0.87804 0.0
C311 C 0.84535 0.70635 0.87571 0.0
C312 C 0.80588 0.67595 0.90268 0.0
C313 C 0.80074 0.7021 0.88814 0.0
C314 C 0.90142 0.65976 0.89283 0.0
C315 C 0.94376 0.47488 0.93976 0.0
C316 C 0.85999 0.62026 0.91895 0.0
C317 C 0.80935 0.46049 0.83822 0.0
C318 C 0.85399 0.42807 0.8382 0.0
C319 C 0.85019 0.55184 0.96334 0.0
C320 C 0.90311 0.3102 0.96471 0.0
C321 C 0.96044 0.26462 -0.01782 0.0
C322 C 0.9991 0.2563 0.9669 0.0
C323 C 0.94272 0.30274 0.94976 0.0
C324 C 0.91247 0.29162 -0.0191 0.0
C325 C 0.99047 0.27586 0.9509 0.0
C326 C 0.70603 0.47262 0.93651 0.0
C327 C 0.85045 0.33469 0.9635 0.0
H328 H 0.839 0.72507 0.86418 0.0
H329 H 0.77044 0.67291 0.91203 0.0
H330 H 0.76169 0.71848 0.88633 0.0
H331 H 0.94073 0.64479 0.89524 0.0
H332 H 1.03597 0.23483 0.96734 0.0
H333 H 0.9365 0.31699 0.93714 0.0
H334 H 0.88119 0.29651 -0.00779 0.0
H335 H 1.02047 0.26956 0.93921 0.0
Tb336 Tb 0.20684 0.72142 0.81866 0.0
C337 C 0.07915 0.54777 0.74632 0.0
N338 N 0.10359 0.60494 0.74957 0.0
C339 C 0.13863 0.57697 0.71672 0.0
C340 C 0.08517 0.50281 0.7283 0.0
C341 C 0.13127 0.62023 0.73473 0.0
C342 C 0.11598 0.51797 0.71354 0.0
C343 C 1.02218 0.47552 0.75835 0.0
C344 C 1.04752 0.5341 0.7611 0.0
C345 C 1.02857 0.43071 0.74048 0.0
C346 C 1.05995 0.44431 0.72551 0.0
Tb347 Tb 0.08564 0.67014 0.7797 0.0
N348 N 1.04455 0.57795 0.77867 0.0
C349 C 0.99155 0.4637 0.77374 0.0
C350 C 1.01236 0.56732 0.79331 0.0
C351 C 0.98619 0.50991 0.79121 0.0
H352 H 0.14635 0.66581 0.73627 0.0
H353 H 0.96156 0.50142 0.80301 0.0
H354 H 0.1621 0.69663 0.86004 0.0
H355 H 0.33217 0.91127 0.80731 0.0
H356 H 1.00659 0.60302 0.80652 0.0
H357 H 0.97144 0.41923 0.7722 0.0
H358 H 0.28775 0.80656 0.79793 0.0
H359 H 0.16105 0.58937 0.70514 0.0
H360 H 1.00948 0.38537 0.7381 0.0
H361 H 0.0643 0.40924 0.71178 0.0
H362 H 0.15031 0.75672 0.89457 0.0
H363 H 0.12154 0.4847 0.6995 0.0
H364 H 0.31936 0.98043 0.8407 0.0
N365 N 0.1974 0.77053 0.85145 0.0
C366 C 0.21758 0.82936 0.85765 0.0
C367 C 0.1689 0.77776 0.88429 0.0
C368 C 0.21271 0.86517 0.87735 0.0
C369 C 0.17513 0.74395 0.86462 0.0
C370 C 0.18715 0.83877 0.89064 0.0
N371 N 0.24958 0.81701 0.82554 0.0
C372 C 0.28243 0.83641 0.81253 0.0
C373 C 0.26958 0.91328 0.85035 0.0
C374 C 0.24553 0.8532 0.84437 0.0
C375 C 0.30016 0.93452 0.83669 0.0
C376 C 0.30739 0.89565 0.8178 0.0
H377 H 0.18256 0.86477 0.90592 0.0
H378 H 0.2302 0.95406 0.89821 0.0
H379 H 0.28056 0.99627 0.87464 0.0
O380 O 0.27892 0.6859 0.80573 0.0
O381 O 0.17176 0.80156 0.81315 0.0
O382 O 0.11359 0.76967 0.78485 0.0
O383 O 0.27159 0.71417 0.83728 0.0
O384 O 0.21689 0.68398 0.78697 0.0
O385 O 0.1579 0.71645 0.77016 0.0
O386 O 1.00038 0.68193 0.78505 0.0
O387 O 0.12965 0.59502 0.78569 0.0
O388 O 0.16863 0.62771 0.81717 0.0
O389 O 1.03352 0.66828 0.75606 0.0
O390 O 0.06931 0.7187 0.81026 0.0
O391 O 0.12709 0.6837 0.82724 0.0
C392 C 0.14214 0.81471 0.79948 0.0
C393 C 0.36439 0.71671 0.825 0.0
C394 C 0.45588 0.72034 0.84053 0.0
C395 C 0.48148 0.75516 0.82959 0.0
C396 C 0.39077 0.75005 0.81366 0.0
C397 C 0.44896 0.76955 0.81611 0.0
C398 C 0.39728 0.70176 0.83825 0.0
C399 C 0.20933 0.71161 0.77448 0.0
C400 C 0.30371 0.69329 0.82258 0.0
C401 C 0.23446 0.92574 0.88323 0.0
C402 C 0.26303 0.94974 0.86978 0.0
C403 C 0.1493 0.58189 0.8012 0.0
C404 C 0.95403 0.71875 0.76343 0.0
C405 C 0.86719 0.73013 0.74822 0.0
C406 C 0.88559 0.79143 0.75323 0.0
C407 C 0.97221 0.77974 0.76828 0.0
C408 C 0.90143 0.69468 0.75391 0.0
C409 C 0.93766 0.81601 0.76333 0.0
C410 C 0.07918 0.70178 0.82527 0.0
C411 C 0.98947 0.67751 0.76685 0.0
H412 H 0.52652 0.77032 0.83125 0.0
H413 H 0.36682 0.76046 0.80281 0.0
H414 H 0.46898 0.79548 0.80741 0.0
H415 H 0.37706 0.67551 0.84687 0.0
H416 H 0.86059 0.82009 0.74896 0.0
H417 H 1.01296 0.79902 0.77563 0.0
H418 H 0.88766 0.64759 0.75066 0.0
H419 H 0.95175 0.86309 0.76697 0.0
Tb420 Tb 0.89788 0.79738 0.06422 0.0
C421 C 1.00735 0.9422 0.00961 0.0
N422 N 0.99786 0.9591 0.02915 0.0
C423 C 0.08415 1.02706 0.03563 0.0
C424 C 1.05687 0.96515 0.00223 0.0
C425 C 1.03405 1.00305 0.04215 0.0
C426 C 0.09618 1.00716 0.0156 0.0
C427 C 0.96952 0.89167 0.97645 0.0
C428 C 0.9645 0.90639 -0.00297 0.0
C429 C 1.02034 0.91074 0.96885 0.0
C430 C 0.06395 0.94765 -0.01825 0.0
Tb431 Tb 0.91653 0.91615 0.03889 0.0
N432 N 0.91558 0.89143 0.00509 0.0
C433 C 0.92232 0.86119 0.96426 0.0
C434 C 0.86798 0.86675 -0.00667 0.0
C435 C 0.87097 0.84971 0.97277 0.0
H436 H 1.02478 1.01839 0.05762 0.0
H437 H 0.83357 0.82833 0.96352 0.0
H438 H 0.8021 0.84031 0.09836 0.0
H439 H 1.06056 0.65921 0.06141 0.0
H440 H 0.82776 0.85908 -0.00019 0.0
H441 H 0.92434 0.84883 0.94836 0.0
H442 H 0.99385 0.70819 0.04788 0.0
H443 H 0.11341 0.06074 0.04605 0.0
H444 H 1.02535 0.89942 0.95308 0.0
H445 H 0.10183 0.96436 0.97572 0.0
H446 H 0.78804 0.84725 0.13296 0.0
H447 H 0.13484 1.02595 0.01055 0.0
H448 H 1.06142 0.67069 0.09701 0.0
N449 N 0.87991 0.80431 0.09645 0.0
C450 C 0.91638 0.78263 0.10581 0.0
C451 C 0.82465 0.82933 0.12554 0.0
C452 C 0.9095 0.78475 0.12559 0.0
C453 C 0.83301 0.82545 0.10583 0.0
C454 C 0.86348 0.80963 0.13557 0.0
N455 N 0.95954 0.74931 0.07566 0.0
C456 C 0.99451 0.714 0.06346 0.0
C457 C 0.99448 0.72622 0.10334 0.0
C458 C 0.95802 0.75405 0.09497 0.0
C459 C 1.0327 0.69285 0.09117 0.0
C460 C 1.03218 0.6861 0.07107 0.0
H461 H 0.85661 0.81216 0.15077 0.0
H462 H 0.94316 0.76143 0.14966 0.0
H463 H 1.01786 0.71006 0.1301 0.0
O464 O 0.86996 0.70849 0.06093 0.0
O465 O 0.89577 0.88768 0.08366 0.0
O466 O 0.95672 0.93802 0.06816 0.0
O467 O 0.83011 0.75177 0.04387 0.0
O468 O 0.99373 0.82452 0.06097 0.0
O469 O 1.00462 0.89066 0.04304 0.0
O470 O 0.88362 0.98657 0.06017 0.0
O471 O 0.87916 0.82525 0.02358 0.0
O472 O 0.93901 0.78358 0.03632 0.0
O473 O 0.89287 0.98466 0.03003 0.0
O474 O 0.82307 0.8798 0.03976 0.0
O475 O 0.81836 0.84307 0.06585 0.0
C476 C 0.93575 0.93113 0.08436 0.0
C477 C 0.77194 0.68047 0.05457 0.0
C478 C 0.72012 0.62504 0.07383 0.0
C479 C 0.66913 0.64042 0.06886 0.0
C480 C 0.72057 0.69519 0.0493 0.0
C481 C 0.6694 0.67482 0.05633 0.0
C482 C 0.77062 0.64366 0.0662 0.0
C483 C 1.0279 0.85796 0.0523 0.0
C484 C 0.82763 0.70457 0.04908 0.0
C485 C 0.94742 0.75989 0.13444 0.0
C486 C 0.98992 0.73062 0.12332 0.0
C487 C 0.9102 0.78293 0.02102 0.0
C488 C 0.91352 0.07815 0.05423 0.0
C489 C 0.95546 0.16392 0.04514 0.0
C490 C 0.97461 0.19287 0.06479 0.0
C491 C 0.93285 0.10785 0.07383 0.0
C492 C 0.92456 0.1069 0.04009 0.0
C493 C 0.96334 0.16485 0.07902 0.0
C494 C 0.79196 0.86232 0.0531 0.0
C495 C 0.88352 1.01676 0.04794 0.0
H496 H 0.62983 0.62681 0.07485 0.0
H497 H 0.71999 0.72304 0.04008 0.0
H498 H 0.6301 0.687 0.05246 0.0
H499 H 0.80981 0.63144 0.07028 0.0
H500 H 0.99851 0.2369 0.0691 0.0
H501 H 0.92476 0.08705 0.0851 0.0
H502 H 0.9086 0.08488 0.02503 0.0
H503 H 0.97838 0.18733 0.09412 0.0
Tb504 Tb 0.6838 0.66083 0.29029 0.0
C505 C 0.55677 0.7063 0.36873 0.0
N506 N 0.55039 0.65802 0.3523 0.0
C507 C 0.55105 0.59489 0.37237 0.0
C508 C 0.56346 0.7011 0.38761 0.0
C509 C 0.54364 0.60243 0.35405 0.0
C510 C 0.56237 0.64454 0.38921 0.0
C511 C 0.55138 0.81096 0.38349 0.0
C512 C 0.55102 0.76022 0.36669 0.0
C513 C 0.56125 0.80674 0.4022 0.0
C514 C 0.56761 0.75204 0.4043 0.0
Tb515 Tb 0.54765 0.67539 0.3226 0.0
N516 N 0.53947 0.76153 0.34838 0.0
C517 C 0.53887 0.86348 0.38108 0.0
C518 C 0.52035 0.81086 0.34639 0.0
C519 C 0.52192 0.86299 0.36249 0.0
H520 H 0.53172 0.56328 0.34153 0.0
H521 H 0.50883 0.90236 0.3606 0.0
H522 H 0.76529 0.78919 0.30788 0.0
H523 H 0.66085 0.506 0.21601 0.0
H524 H 0.50425 0.81062 0.33231 0.0
H525 H 0.53897 0.90354 0.39356 0.0
H526 H 0.65838 0.5363 0.25237 0.0
H527 H 0.54708 0.55074 0.37353 0.0
H528 H 0.56104 0.84471 0.41518 0.0
H529 H 0.57278 0.74914 0.41893 0.0
H530 H 0.81525 0.86568 0.29506 0.0
H531 H 0.5672 0.63867 0.40345 0.0
H532 H 0.69484 0.58003 0.19974 0.0
N533 N 0.73158 0.73332 0.2797 0.0
C534 C 0.73159 0.72291 0.25998 0.0
C535 C 0.79154 0.8259 0.28504 0.0
C536 C 0.76022 0.76454 0.25193 0.0
C537 C 0.76332 0.7826 0.29224 0.0
C538 C 0.78931 0.81723 0.2648 0.0
N539 N 0.68523 0.6277 0.25652 0.0
C540 C 0.67129 0.56943 0.24537 0.0
C541 C 0.7112 0.65245 0.22726 0.0
C542 C 0.70725 0.66798 0.2479 0.0
C543 C 0.69238 0.59388 0.21565 0.0
C544 C 0.67326 0.55195 0.22479 0.0
H545 H 0.81182 0.85043 0.25921 0.0
H546 H 0.78252 0.78241 0.22482 0.0
H547 H 0.73977 0.68395 0.20317 0.0
O548 O 0.74139 0.64746 0.31009 0.0
O549 O 0.60479 0.6073 0.27679 0.0
O550 O 0.55426 0.67837 0.29303 0.0
O551 O 0.76056 0.63137 0.2796 0.0
O552 O 0.65039 0.5702 0.29385 0.0
O553 O 0.57338 0.58115 0.31449 0.0
O554 O 0.46431 0.6934 0.32697 0.0
O555 O 0.62884 0.66933 0.3344 0.0
O556 O 0.68241 0.72602 0.31967 0.0
O557 O 0.48059 0.60642 0.30986 0.0
O558 O 0.57889 0.7622 0.31545 0.0
O559 O 0.65197 0.75061 0.29322 0.0
C560 C 0.55759 0.62976 0.27865 0.0
C561 C 0.8365 0.6737 0.30239 0.0
C562 C 0.93071 0.70147 0.29196 0.0
C563 C 0.93978 0.74959 0.30954 0.0
C564 C 0.84655 0.72144 0.32013 0.0
C565 C 0.89809 0.75895 0.32366 0.0
C566 C 0.87938 0.66332 0.28861 0.0
C567 C 0.61147 0.5473 0.30418 0.0
C568 C 0.78045 0.6375 0.29705 0.0
C569 C 0.76112 0.7509 0.23134 0.0
C570 C 0.73669 0.69486 0.21901 0.0
C571 C 0.66954 0.71193 0.33543 0.0
C572 C 0.39663 0.61515 0.32868 0.0
C573 C 0.32083 0.63345 0.35225 0.0
C574 C 0.31194 0.57279 0.3502 0.0
C575 C 0.38653 0.55444 0.32655 0.0
C576 C 0.36256 0.65401 0.34122 0.0
C577 C 0.34419 0.53348 0.33722 0.0
C578 C 0.61543 0.7851 0.30435 0.0
C579 C 0.442 0.63921 0.31805 0.0
H580 H 0.97895 0.77986 0.31228 0.0
H581 H 0.81424 0.7308 0.33101 0.0
H582 H 0.90528 0.79608 0.33721 0.0
H583 H 0.87172 0.62716 0.27476 0.0
H584 H 0.28042 0.556 0.35874 0.0
H585 H 0.41153 0.5233 0.31681 0.0
H586 H 0.37008 0.70102 0.34306 0.0
H587 H 0.33696 0.48674 0.33565 0.0
Tb588 Tb 0.94443 0.36734 0.52211 0.0
C589 C 0.94632 0.28658 0.60253 0.0
N590 N 0.97216 0.2641 0.58532 0.0
C591 C 1.04045 0.23018 0.60197 0.0
C592 C 0.96615 0.28102 0.62023 0.0
C593 C 1.01924 0.2369 0.58482 0.0
C594 C 1.01344 0.25179 0.61972 0.0
C595 C 0.87644 0.34588 0.62047 0.0
C596 C 0.90175 0.31799 0.60255 0.0
C597 C 0.89428 0.3383 0.638 0.0
C598 C 0.939 0.30582 0.63787 0.0
Tb599 Tb 0.92887 0.26831 0.55772 0.0
N600 N 0.88639 0.32507 0.58532 0.0
C601 C 0.83561 0.3825 0.62041 0.0
C602 C 0.84867 0.36377 0.58558 0.0
C603 C 0.82261 0.39243 0.60296 0.0
H604 H 1.0396 0.21841 0.57109 0.0
H605 H 0.79306 0.42294 0.60292 0.0
H606 H 0.89878 0.27897 0.4758 0.0
H607 H 0.13498 0.5209 0.54833 0.0
H608 H 0.83955 0.37524 0.57278 0.0
H609 H 0.81561 0.40515 0.63387 0.0
H610 H 1.03992 0.47031 0.55144 0.0
H611 H 0.07725 0.20779 0.60142 0.0
H612 H 0.87483 0.35874 0.65183 0.0
H613 H 0.95321 0.30148 0.65158 0.0
H614 H 0.93986 0.24602 0.44337 0.0
H615 H 1.02991 0.2465 0.63299 0.0
H616 H 0.18181 0.49308 0.5163 0.0
N617 N 0.97544 0.33083 0.49054 0.0
C618 C 1.02858 0.35522 0.48785 0.0
C619 C 0.96562 0.27591 0.45583 0.0
C620 C 1.05284 0.33903 0.46912 0.0
C621 C 0.94293 0.29383 0.47456 0.0
C622 C 1.02108 0.29781 0.45314 0.0
N623 N 1.03418 0.41293 0.52169 0.0
C624 C 1.06032 0.45754 0.53748 0.0
C625 C 0.11218 0.42671 0.50128 0.0
C626 C 1.05814 0.39865 0.50373 0.0
C627 C 0.14016 0.47071 0.51758 0.0
C628 C 0.11397 0.48639 0.53572 0.0
H629 H 1.03825 0.28417 0.43855 0.0
H630 H 0.1266 0.35351 0.4525 0.0
H631 H 0.17849 0.43016 0.48064 0.0
O632 O 0.93974 0.45826 0.53225 0.0
O633 O 0.89669 0.28124 0.50824 0.0
O634 O 0.94833 0.2526 0.52741 0.0
O635 O 0.90971 0.40554 0.50294 0.0
O636 O 1.0295 0.33945 0.52968 0.0
O637 O 1.0225 0.2816 0.55065 0.0
O638 O 0.94759 0.18074 0.55025 0.0
O639 O 0.97537 0.35606 0.57188 0.0
O640 O 0.92735 0.39416 0.55339 0.0
O641 O 0.865 0.20092 0.55945 0.0
O642 O 0.84158 0.28231 0.54752 0.0
O643 O 0.85024 0.34225 0.52721 0.0
C644 C 0.90932 0.23826 0.5137 0.0
C645 C 0.85701 0.48071 0.52063 0.0
C646 C 0.78186 0.52316 0.50961 0.0
C647 C 0.75669 0.53181 0.52796 0.0
C648 C 0.83014 0.4875 0.53865 0.0
C649 C 0.78042 0.51332 0.54229 0.0
C650 C 0.83229 0.49778 0.50612 0.0
C651 C 1.0543 0.31027 0.54002 0.0
C652 C 0.91092 0.45644 0.5168 0.0
C653 C 0.1073 0.36571 0.46676 0.0
C654 C 0.13678 0.40955 0.48276 0.0
C655 C 0.96378 0.40279 0.5679 0.0
C656 C 0.90019 0.12726 0.56974 0.0
C657 C 0.85507 0.09187 0.59547 0.0
C658 C 0.90546 0.07002 0.59802 0.0
C659 C 0.94878 0.10246 0.57202 0.0
C660 C 0.85296 0.12034 0.58114 0.0
C661 C 0.95145 0.07461 0.5862 0.0
C662 C 0.81754 0.31128 0.53701 0.0
C663 C 0.89913 0.16103 0.55576 0.0
H664 H 0.71912 0.55332 0.53127 0.0
H665 H 0.84779 0.47364 0.55003 0.0
H666 H 0.76084 0.51984 0.55636 0.0
H667 H 0.85341 0.49293 0.49231 0.0
H668 H 0.90989 0.04977 0.6093 0.0
H669 H 0.98531 0.1057 0.56314 0.0
H670 H 0.81461 0.13704 0.57875 0.0
H671 H 0.98966 0.05707 0.58821 0.0
Tb672 Tb 0.42494 0.24529 0.5489 0.0
C673 C 0.52574 0.40399 0.49598 0.0
N674 N 0.51731 0.41691 0.51549 0.0
C675 C 0.59871 0.49112 0.52269 0.0
C676 C 0.57265 0.43222 0.48889 0.0
C677 C 0.55194 0.46108 0.52891 0.0
C678 C 0.6099 0.47577 0.5026 0.0
C679 C 0.48728 0.35642 0.4628 0.0
C680 C 0.48373 0.36734 0.48328 0.0
C681 C 0.53608 0.38041 0.45537 0.0
C682 C 0.57868 0.41861 0.46844 0.0
Tb683 Tb 0.43991 0.36794 0.52499 0.0
N684 N 0.43651 0.34814 0.4913 0.0
C685 C 0.44042 0.32484 0.45061 0.0
C686 C 0.38881 0.32262 0.47965 0.0
C687 C 0.39053 0.3089 0.45914 0.0
H688 H 0.54322 0.47315 0.5444 0.0
H689 H 0.35314 0.28689 0.44996 0.0
H690 H 0.33299 0.28838 0.58445 0.0
H691 H 0.5914 0.11028 0.54455 0.0
H692 H 0.34936 0.31219 0.48613 0.0
H693 H 0.44135 0.31524 0.43478 0.0
H694 H 0.51884 0.15398 0.53136 0.0
H695 H 0.62529 0.52665 0.5334 0.0
H696 H 0.53999 0.37205 0.43966 0.0
H697 H 0.61482 0.4392 0.46263 0.0
H698 H 0.32765 0.3032 0.61994 0.0
H699 H 0.6457 0.49953 0.49778 0.0
H700 H 0.60147 0.13011 0.58057 0.0
N701 N 0.41248 0.25532 0.5816 0.0
C702 C 0.4522 0.23662 0.59067 0.0
C703 C 0.36297 0.28429 0.61189 0.0
C704 C 0.44993 0.24239 0.61086 0.0
C705 C 0.36644 0.27618 0.5917 0.0
C706 C 0.4051 0.26771 0.62158 0.0
N707 N 0.48981 0.1992 0.55965 0.0
C708 C 0.52308 0.16262 0.54709 0.0
C709 C 0.53289 0.18343 0.58746 0.0
C710 C 0.49275 0.20768 0.57923 0.0
C711 C 0.56979 0.14932 0.57484 0.0
C712 C 0.56411 0.13791 0.5545 0.0
H713 H 0.40187 0.27323 0.63715 0.0
H714 H 0.49077 0.22559 0.635 0.0
H715 H 0.56431 0.17487 0.61456 0.0
O716 O 0.39695 0.15702 0.54724 0.0
O717 O 0.42226 0.33531 0.56833 0.0
O718 O 0.48395 0.38591 0.55329 0.0
O719 O 0.35591 0.19779 0.52967 0.0
O720 O 0.52012 0.27168 0.54406 0.0
O721 O 0.52924 0.34237 0.52778 0.0
O722 O 0.40417 0.43136 0.54807 0.0
O723 O 0.4009 0.27865 0.50923 0.0
O724 O 0.46155 0.23425 0.52025 0.0
O725 O 0.41265 0.43972 0.5191 0.0
O726 O 0.34766 0.32787 0.52535 0.0
O727 O 0.34467 0.29029 0.55122 0.0
C728 C 0.46292 0.37831 0.56934 0.0
C729 C 0.29738 0.13478 0.54288 0.0
C730 C 0.23838 0.12251 0.5696 0.0
C731 C 0.19044 0.10599 0.55693 0.0
C732 C 0.2491 0.11871 0.53026 0.0
C733 C 0.1959 0.1044 0.53729 0.0
C734 C 0.29142 0.13665 0.56252 0.0
C735 C 0.55351 0.30712 0.53584 0.0
C736 C 0.35317 0.15263 0.53592 0.0
C737 C 0.49151 0.22122 0.61949 0.0
C738 C 0.53321 0.19207 0.60782 0.0
C739 C 0.42923 0.23404 0.50578 0.0
C740 C 0.42771 0.52853 0.5458 0.0
C741 C 0.46528 0.62068 0.53989 0.0
C742 C 0.48135 0.64652 0.55994 0.0
C743 C 0.44303 0.55518 0.56591 0.0
C744 C 0.438 0.56211 0.53311 0.0
C745 C 0.47012 0.61378 0.57288 0.0
C746 C 0.31739 0.30975 0.53871 0.0
C747 C 0.40164 0.46598 0.53745 0.0
H748 H 0.14924 0.09449 0.5622 0.0
H749 H 0.25256 0.1174 0.51504 0.0
H750 H 0.1589 0.09182 0.52747 0.0
H751 H 0.32817 0.14894 0.57249 0.0
H752 H 0.50228 0.69177 0.56555 0.0
H753 H 0.43415 0.53089 0.57619 0.0
H754 H 0.42374 0.54264 0.51778 0.0
H755 H 0.48227 0.63393 0.58836 0.0
Tb756 Tb 0.41476 0.8944 0.0308 0.0
C757 C 0.49002 0.84542 0.1083 0.0
N758 N 0.47553 0.80568 0.09024 0.0
C759 C 0.54622 0.74744 0.09398 0.0
C760 C 0.5349 0.83919 0.11975 0.0
C761 C 0.50113 0.75565 0.08324 0.0
C762 C 0.56385 0.78994 0.11218 0.0
C763 C 0.46643 0.92894 0.13527 0.0
C764 C 0.4564 0.88935 0.11588 0.0
C765 C 0.5134 0.92571 0.14638 0.0
C766 C 0.54757 0.88079 0.13864 0.0
Tb767 Tb 0.40331 0.82352 0.07337 0.0
N768 N 0.4105 0.88926 0.1049 0.0
C769 C 0.42735 0.96835 0.14318 0.0
C770 C 0.36957 0.92358 0.11322 0.0
C771 C 0.37812 0.96484 0.13222 0.0
H772 H 0.48769 0.72322 0.06909 0.0
H773 H 0.34654 0.99348 0.13846 0.0
H774 H 0.31978 0.80162 -0.00221 0.0
H775 H 0.61489 1.00951 0.01947 0.0
H776 H 0.33073 0.92007 0.10504 0.0
H777 H 0.43352 0.99969 0.15799 0.0
H778 H 0.52868 0.99261 0.03759 0.0
H779 H 0.56738 0.70854 0.08822 0.0
H780 H 0.52228 0.95614 0.16124 0.0
H781 H 0.58234 0.87733 0.14762 0.0
H782 H 0.31616 0.74228 0.9626 0.0
H783 H 0.5986 0.78339 0.1205 0.0
H784 H 0.62826 0.93966 -0.01374 0.0
N785 N 0.40818 0.83141 -0.00117 0.0
C786 C 0.4553 0.83355 -0.01189 0.0
C787 C 0.35581 0.76702 0.96967 0.0
C788 C 0.45489 0.80101 0.96782 0.0
C789 C 0.3582 0.80043 -0.01031 0.0
C790 C 0.40434 0.76742 0.95868 0.0
N791 N 0.49624 0.91194 0.01541 0.0
C792 C 0.53496 0.96149 0.02323 0.0
C793 C 0.54888 0.88372 -0.01428 0.0
C794 C 0.50135 0.87498 -0.00318 0.0
C795 C 0.59109 0.93147 -0.0057 0.0
C796 C 0.58353 0.97122 0.01299 0.0
H797 H 0.40163 0.74415 0.94296 0.0
H798 H 0.50403 0.78182 0.94142 0.0
H799 H 0.58703 0.8531 0.95725 0.0
O800 O 0.41069 0.94442 0.01183 0.0
O801 O 0.37287 0.80687 0.02792 0.0
O802 O 0.43111 0.77255 0.04458 0.0
O803 O 0.36634 0.96601 0.03878 0.0
O804 O 0.50241 0.87904 0.0401 0.0
O805 O 0.49694 0.8406 0.0662 0.0
O806 O 0.35397 0.73986 0.06141 0.0
O807 O 0.38261 0.90908 0.07395 0.0
O808 O 0.45102 0.9503 0.0594 0.0
O809 O 0.36452 0.78242 0.09287 0.0
O810 O 0.31584 0.84354 0.06651 0.0
O811 O 0.32158 0.87107 0.03812 0.0
C812 C 0.40033 0.76455 0.0288 0.0
C813 C 0.32231 0.97186 0.00981 0.0
C814 C 0.27848 1.00406 -0.01474 0.0
C815 C 0.23556 0.95559 -0.01845 0.0
C816 C 0.2803 0.92219 0.00515 0.0
C817 C 0.23632 0.91509 -0.00838 0.0
C818 C 0.32095 1.01303 -0.0002 0.0
C819 C 0.52805 0.86021 0.05321 0.0
C820 C 0.37314 0.97473 0.02181 0.0
C821 C 0.5035 0.80667 0.95699 0.0
C822 C 0.55073 0.84746 0.96599 0.0
C823 C 0.421 0.95367 0.07482 0.0
C824 C 0.34066 0.67828 0.08176 0.0
C825 C 0.29973 0.61239 0.09948 0.0
C826 C 0.33232 0.569 0.08874 0.0
C827 C 0.37351 0.63494 0.07113 0.0
C828 C 0.30404 0.66663 0.09581 0.0
C829 C 0.3695 0.58064 0.07475 0.0
C830 C 0.2901 0.85659 0.05211 0.0
C831 C 0.34187 0.73596 0.07871 0.0
H832 H 0.20241 0.94827 0.97048 0.0
H833 H 0.28184 0.88752 0.01136 0.0
H834 H 0.20404 0.87681 -0.01162 0.0
H835 H 0.35497 0.0496 0.00232 0.0
H836 H 0.33033 0.5272 0.0916 0.0
H837 H 0.40215 0.64303 0.06018 0.0
H838 H 0.27893 0.70035 0.10414 0.0
H839 H 0.3958 0.5478 0.06687 0.0
Tb840 Tb 0.31792 0.41053 0.94996 0.0
C841 C 0.30448 0.54191 0.88476 0.0
N842 N 0.34432 0.52183 0.89331 0.0
C843 C 0.39019 0.49047 0.86233 0.0
C844 C 0.30438 0.53501 0.86447 0.0
C845 C 0.38863 0.49894 0.88258 0.0
C846 C 0.34738 0.50774 0.85315 0.0
C847 C 0.22624 0.59892 0.88905 0.0
C848 C 0.26622 0.57323 0.89677 0.0
C849 C 0.22353 0.58932 0.86865 0.0
C850 C 0.26268 0.55749 0.85636 0.0
Tb851 Tb 0.33572 0.5346 0.92638 0.0
N852 N 0.27137 0.58251 0.91634 0.0
C853 C 0.19193 0.63531 0.90217 0.0
C854 C 0.24064 0.62101 0.92936 0.0
C855 C 0.19992 0.64731 0.92247 0.0
H856 H 0.42251 0.48616 0.88949 0.0
H857 H 0.17466 0.67661 0.93278 0.0
H858 H 0.20268 0.31663 0.93583 0.0
H859 H 0.42608 0.4904 0.02169 0.0
H860 H 0.24675 0.63011 0.94505 0.0
H861 H 0.16048 0.65571 0.89685 0.0
H862 H 0.41946 0.46039 -0.01465 0.0
H863 H 0.42469 0.47108 0.85385 0.0
H864 H 0.1926 0.60785 0.86234 0.0
H865 H 0.26144 0.55213 0.84076 0.0
H866 H 0.11831 0.27889 0.95092 0.0
H867 H 0.34898 0.50166 0.83752 0.0
H868 H 0.34039 0.47688 0.04041 0.0
N869 N 0.23894 0.37502 0.96303 0.0
C870 C 0.23608 0.3932 -0.01711 0.0
C871 C 0.15063 0.31178 0.9601 0.0
C872 C 0.18884 0.37388 -0.00774 0.0
C873 C 0.19841 0.33267 0.95158 0.0
C874 C 0.14511 0.33366 -0.01947 0.0
N875 N 0.33004 0.43567 -0.01636 0.0
C876 C 0.38149 0.456 -0.00659 0.0
C877 C 0.28554 0.44017 0.01438 0.0
C878 C 0.28358 0.42537 -0.00632 0.0
C879 C 0.33709 0.46564 0.02456 0.0
C880 C 0.38553 0.47279 0.014 0.0
H881 H 0.10832 0.31734 -0.01283 0.0
H882 H 0.15241 0.37868 0.02049 0.0
H883 H 0.23737 0.43729 0.03996 0.0
O884 O 0.34896 0.34088 0.9279 0.0
O885 O 0.36018 0.49921 0.96435 0.0
O886 O 0.29962 0.54812 0.95516 0.0
O887 O 0.3356 0.33683 0.95725 0.0
O888 O 0.41156 0.44443 0.94806 0.0
O889 O 0.41708 0.49213 0.92451 0.0
O890 O 0.36558 0.62091 0.92686 0.0
O891 O 0.34228 0.44453 0.90805 0.0
O892 O 0.27668 0.39187 0.92101 0.0
O893 O 0.40341 0.58338 0.94625 0.0
O894 O 0.24048 0.50935 0.93082 0.0
O895 O 0.2303 0.43916 0.9472 0.0
C896 C 0.32976 0.54228 0.9692 0.0
C897 C 0.31378 0.24777 0.93148 0.0
C898 C 0.28499 0.15241 0.93619 0.0
C899 C 0.24654 0.13655 0.92001 0.0
C900 C 0.27276 0.23266 0.91613 0.0
C901 C 0.24093 0.17653 0.90997 0.0
C902 C 0.32002 0.20714 0.94129 0.0
C903 C 0.44282 0.4681 0.93606 0.0
C904 C 0.34593 0.30754 0.93915 0.0
C905 C 0.18862 0.39229 0.01296 0.0
C906 C 0.23699 0.4256 0.02404 0.0
C907 C 0.30032 0.40229 0.90571 0.0
C908 C 0.46479 0.6427 0.93203 0.0
C909 C 0.52333 0.66644 0.9068 0.0
C910 C 0.57135 0.6787 0.9193 0.0
C911 C 0.51321 0.65419 0.94436 0.0
C912 C 0.47057 0.64819 0.91321 0.0
C913 C 0.56627 0.6718 0.93794 0.0
C914 C 0.20681 0.47471 0.93916 0.0
C915 C 0.40818 0.6262 0.93878 0.0
H916 H 0.21906 0.09452 0.91569 0.0
H917 H 0.26341 0.26476 0.90949 0.0
H918 H 0.21037 0.16486 0.89786 0.0
H919 H 0.35064 0.21933 0.9535 0.0
H920 H 0.61237 0.69357 0.91467 0.0
H921 H 0.50989 0.65016 0.95896 0.0
H922 H 0.43354 0.64009 0.90357 0.0
H923 H 0.60338 0.68101 0.94756 0.0
Tb924 Tb 0.28991 0.96783 0.42228 0.0
C925 C 0.19094 0.88873 0.49376 0.0
N926 N 0.24351 0.91471 0.49114 0.0
C927 C 0.25117 0.97194 0.52567 0.0
C928 C 0.16582 0.90535 0.51235 0.0
C929 C 0.27461 0.95406 0.50706 0.0
C930 C 0.19623 0.94838 0.52826 0.0
C931 C 0.10966 0.81364 0.48048 0.0
C932 C 0.16298 0.84312 0.47802 0.0
C933 C 0.08412 0.83135 0.49882 0.0
C934 C 0.11204 0.87714 0.51468 0.0
Tb935 Tb 0.27687 0.87531 0.46011 0.0
N936 N 0.18783 0.82802 0.46021 0.0
C937 C 0.0833 0.76757 0.46436 0.0
C938 C 0.16343 0.78142 0.44465 0.0
C939 C 0.11044 0.75123 0.44641 0.0
H940 H 0.31839 0.9705 0.50594 0.0
H941 H 0.09077 0.71505 0.43397 0.0
H942 H 0.17858 1.01996 0.41019 0.0
H943 H 0.41961 0.8085 0.37641 0.0
H944 H 0.1848 0.76783 0.4309 0.0
H945 H 1.04223 0.74406 0.46565 0.0
H946 H 0.38206 0.86503 0.4073 0.0
H947 H 0.27602 1.00305 0.53813 0.0
H948 H 1.04294 0.80961 0.50093 0.0
H949 H 0.09211 0.88965 0.52882 0.0
H950 H 0.13386 1.02388 0.37997 0.0
H951 H 0.1785 0.96213 0.54277 0.0
H952 H 0.38779 0.81699 0.34491 0.0
N953 N 0.24201 0.96927 0.39508 0.0
C954 C 0.26369 0.94245 0.37739 0.0
C955 C 0.17026 1.00064 0.379 0.0
C956 C 0.23946 0.9438 0.35969 0.0
C957 C 0.19552 0.99776 0.39612 0.0
C958 C 0.19253 0.97385 0.3607 0.0
N959 N 0.32882 0.90875 0.39434 0.0
C960 C 0.36843 0.87201 0.39412 0.0
C961 C 0.32972 0.87909 0.35871 0.0
C962 C 0.30867 0.91122 0.37697 0.0
C963 C 0.37126 0.84313 0.35862 0.0
C964 C 0.3897 0.83864 0.37638 0.0
H965 H 0.1728 0.97601 0.34745 0.0
H966 H 0.24418 0.91499 0.32783 0.0
H967 H 0.32289 0.85772 0.32695 0.0
O968 O 0.27349 0.05584 0.42863 0.0
O969 O 0.24688 0.87729 0.40937 0.0
O970 O 0.29633 0.84465 0.42911 0.0
O971 O 0.35502 1.03211 0.41917 0.0
O972 O 0.37751 0.95578 0.43259 0.0
O973 O 0.3706 0.9007 0.45445 0.0
O974 O 0.28429 0.78493 0.45189 0.0
O975 O 0.32373 0.96231 0.473 0.0
O976 O 0.27205 0.98775 0.45293 0.0
O977 O 0.31091 0.84281 0.48097 0.0
O978 O 0.19104 0.9001 0.45155 0.0
O979 O 0.19701 0.95616 0.43004 0.0
C980 C 0.26057 0.83262 0.41421 0.0
C981 C 0.32215 0.10556 0.40824 0.0
C982 C 0.37091 0.14242 0.38341 0.0
C983 C 0.32032 0.16182 0.37956 0.0
C984 C 0.27329 0.12808 0.40473 0.0
C985 C 0.27233 0.15535 0.39033 0.0
C986 C 0.37123 0.11425 0.39787 0.0
C987 C 0.40239 0.92969 0.44383 0.0
C988 C 0.3222 0.07318 0.42264 0.0
C989 C 0.26204 0.91422 0.34157 0.0
C990 C 0.30696 0.88176 0.34108 0.0
C991 C 0.31153 1.00369 0.46659 0.0
C992 C 0.36475 0.76579 0.46613 0.0
C993 C 0.43473 0.72279 0.47974 0.0
C994 C 0.46366 0.71261 0.46201 0.0
C995 C 0.39604 0.75823 0.44896 0.0
C996 C 0.38464 0.74883 0.48151 0.0
C997 C 0.44511 0.73136 0.44691 0.0
C998 C 0.16567 0.92803 0.44088 0.0
C999 C 0.31088 0.79024 0.46819 0.0
H1000 H 0.31737 0.18171 0.36811 0.0
H1001 H 0.23542 0.12392 0.4129 0.0
H1002 H 0.23403 0.17119 0.38739 0.0
H1003 H 0.40965 0.09937 0.40123 0.0
H1004 H 0.5006 0.69003 0.4598 0.0
H1005 H 0.3822 0.77216 0.43703 0.0
H1006 H 0.3599 0.75437 0.4946 0.0
H1007 H 0.46845 0.72436 0.43349 0.0
Tb1008 Tb 0.67646 0.10094 0.69343 0.0
C1009 C 0.54557 0.9422 0.61637 0.0
N1010 N 0.56041 1.00218 0.62299 0.0
C1011 C 0.58511 1.0 0.59018 0.0
C1012 C 0.55195 0.90859 0.59647 0.0
C1013 C 0.57706 1.03155 0.60994 0.0
C1014 C 0.57336 0.93819 0.58348 0.0
C1015 C 0.50071 0.85339 0.62262 0.0
C1016 C 0.5203 0.91472 0.62925 0.0
C1017 C 0.50929 0.81944 0.60306 0.0
C1018 C 0.53494 0.84693 0.59002 0.0
Tb1019 Tb 0.54694 0.04728 0.65593 0.0
N1020 N 0.5135 0.94859 0.64823 0.0
C1021 C 0.47155 0.82838 0.63567 0.0
C1022 C 0.48106 0.92537 0.66054 0.0
C1023 C 0.46071 0.86476 0.65457 0.0
H1024 H 0.58429 0.07946 0.6147 0.0
H1025 H 0.43639 0.84617 0.66447 0.0
H1026 H 0.6073 0.11895 0.73671 0.0
H1027 H 0.82887 0.24954 0.67048 0.0
H1028 H 0.47286 0.95341 0.6752 0.0
H1029 H 0.45571 0.78143 0.63111 0.0
H1030 H 0.76974 0.1541 0.66716 0.0
H1031 H 0.59969 1.02342 0.58007 0.0
H1032 H 0.49497 0.77215 0.59776 0.0
H1033 H 0.5399 0.82036 0.57484 0.0
H1034 H 0.59341 0.20133 0.76603 0.0
H1035 H 0.57903 0.91396 0.5681 0.0
H1036 H 0.82121 0.3372 0.69985 0.0
N1037 N 0.6577 0.17245 0.72226 0.0
C1038 C 0.68734 0.22733 0.7249 0.0
C1039 C 0.61917 0.20945 0.75442 0.0
C1040 C 0.6825 0.27552 0.74218 0.0
C1041 C 0.62606 0.16267 0.73725 0.0
C1042 C 0.64693 0.26621 0.75681 0.0
N1043 N 0.72689 0.18836 0.69367 0.0
C1044 C 0.76488 0.19253 0.67966 0.0
C1045 C 0.7572 0.29036 0.71303 0.0
C1046 C 0.72432 0.23505 0.71048 0.0
C1047 C 0.79493 0.29554 0.69838 0.0
C1048 C 0.79912 0.24625 0.68171 0.0
H1049 H 0.64203 0.30209 0.77027 0.0
H1050 H 0.71081 0.36854 0.75771 0.0
H1051 H 0.77627 0.38141 0.73225 0.0
O1052 O 0.75781 0.07616 0.68735 0.0
O1053 O 0.6436 0.17653 0.68432 0.0
O1054 O 0.56712 0.14762 0.66191 0.0
O1055 O 0.73005 0.10757 0.71724 0.0
O1056 O 0.68422 0.05311 0.66227 0.0
O1057 O 0.62362 0.08832 0.64632 0.0
O1058 O 0.46482 0.05058 0.6664 0.0
O1059 O 0.58798 0.97015 0.66149 0.0
O1060 O 0.64637 1.00308 0.68975 0.0
O1061 O 0.48268 0.05708 0.63763 0.0
O1062 O 0.54534 0.09136 0.68743 0.0
O1063 O 0.60363 0.05874 0.70426 0.0
C1064 C 0.60492 0.19114 0.67364 0.0
C1065 C 0.80263 0.04784 0.71155 0.0
C1066 C 0.88335 0.03827 0.73019 0.0
C1067 C 0.86525 0.97692 0.72506 0.0
C1068 C 0.78437 0.98682 0.70659 0.0
C1069 C 0.81599 0.95143 0.71327 0.0
C1070 C 0.852 0.07291 0.72304 0.0
C1071 C 0.67361 0.07437 0.64832 0.0
C1072 C 0.77098 0.08831 0.70594 0.0
C1073 C 0.71422 0.33111 0.74455 0.0
C1074 C 0.75162 0.33844 0.73007 0.0
C1075 C 0.61791 0.95774 0.67528 0.0
C1076 C 0.40678 0.10462 0.65432 0.0
C1077 C 0.32388 0.13693 0.64321 0.0
C1078 C 0.32669 0.18412 0.66116 0.0
C1079 C 0.40989 0.15298 0.67185 0.0
C1080 C 0.36442 0.0974 0.64005 0.0
C1081 C 0.36969 0.19221 0.67527 0.0
C1082 C 0.55223 0.0636 0.69989 0.0
C1083 C 0.44469 0.05888 0.65088 0.0
H1084 H 0.88848 0.94897 0.73039 0.0
H1085 H 0.74597 0.96682 0.69773 0.0
H1086 H 0.802 0.90429 0.7095 0.0
H1087 H 0.86597 0.12007 0.72646 0.0
H1088 H 0.29604 0.21512 0.66429 0.0
H1089 H 0.44294 0.16018 0.68293 0.0
H1090 H 0.36409 0.06124 0.62627 0.0
H1091 H 0.37185 0.22905 0.68892 0.0
Tb1092 Tb 0.17057 0.12207 0.17441 0.0
C1093 C 0.98111 0.0709 0.23405 0.0
N1094 N 0.97907 0.06172 0.21442 0.0
C1095 C 0.91609 0.97115 0.20927 0.0
C1096 C 0.9526 1.02921 0.2421 0.0
C1097 C 0.94508 1.01405 0.20205 0.0
C1098 C 0.92081 0.97813 0.22935 0.0
C1099 C 1.00452 0.13977 0.26679 0.0
C1100 C 1.00677 0.12511 0.24611 0.0
C1101 C 0.98011 0.09681 0.275 0.0
C1102 C 0.95422 0.04148 0.26264 0.0
Tb1103 Tb 1.02863 0.13261 0.20355 0.0
N1104 N 1.02754 0.16589 0.23752 0.0
C1105 C 1.02347 0.19816 0.2785 0.0
C1106 C 1.04004 0.22431 0.24886 0.0
C1107 C 1.04006 0.24093 0.26946 0.0
H1108 H 0.94194 1.00836 0.18651 0.0
H1109 H 1.05207 0.28686 0.27834 0.0
H1110 H 0.16043 0.22695 0.15356 0.0
H1111 H 0.2362 0.90379 0.14145 0.0
H1112 H 1.05107 0.25814 0.242 0.0
H1113 H 1.02249 0.21132 0.29444 0.0
H1114 H 0.22354 0.9942 0.16852 0.0
H1115 H 0.89034 0.93271 0.19935 0.0
H1116 H 0.97862 0.1069 0.29085 0.0
H1117 H 0.93351 1.00958 0.26911 0.0
H1118 H 0.15108 0.23327 0.12044 0.0
H1119 H 0.89806 0.94508 0.23495 0.0
H1120 H 0.21568 0.89675 0.10698 0.0
N1121 N 0.16436 0.13352 0.14382 0.0
C1122 C 0.16918 0.08524 0.1279 0.0
C1123 C 0.15551 0.19109 0.1223 0.0
C1124 C 0.165 0.08726 0.10849 0.0
C1125 C 0.16033 0.18698 0.14122 0.0
C1126 C 0.15694 0.14079 0.10584 0.0
N1127 N 0.1891 0.03662 0.15008 0.0
C1128 C 0.21114 0.99101 0.15373 0.0
C1129 C 0.19026 0.98449 0.1151 0.0
C1130 C 0.18135 1.03473 0.13116 0.0
C1131 C 0.2082 0.93606 0.11892 0.0
C1132 C 0.21967 0.93982 0.13833 0.0
H1133 H 0.15346 0.14414 0.09119 0.0
H1134 H 0.16701 0.03678 0.07742 0.0
H1135 H 0.18999 0.94723 0.08337 0.0
O1136 O 0.2558 0.10948 0.17388 0.0
O1137 O 0.09046 0.11821 0.15937 0.0
O1138 O 1.03479 0.06519 0.17495 0.0
O1139 O 0.23345 0.19716 0.18466 0.0
O1140 O 0.14483 0.03792 0.18383 0.0
O1141 O 1.05749 0.04041 0.19895 0.0
O1142 O 0.97092 0.14144 0.18284 0.0
O1143 O 0.10549 0.18844 0.2186 0.0
O1144 O 0.15591 0.11771 0.20334 0.0
O1145 O 0.95271 0.1645 0.21362 0.0
O1146 O 1.05859 0.21966 0.19735 0.0
O1147 O 0.14914 0.2181 0.18478 0.0
C1148 C 1.04868 0.07673 0.1588 0.0
C1149 C 0.31745 0.18393 0.16656 0.0
C1150 C 0.37385 0.15883 0.13703 0.0
C1151 C 0.40436 0.21611 0.14368 0.0
C1152 C 0.34795 0.24117 0.17291 0.0
C1153 C 0.39102 0.25717 0.16146 0.0
C1154 C 0.33033 0.14334 0.14851 0.0
C1155 C 0.10165 1.01078 0.19165 0.0
C1156 C 0.27449 0.16554 0.17916 0.0
C1157 C 0.17065 1.03641 0.09243 0.0
C1158 C 0.18345 0.98522 0.09578 0.0
C1159 C 0.15262 0.1665 0.21744 0.0
C1160 C 0.87574 0.12036 0.19161 0.0
C1161 C 0.78433 0.0958 0.20439 0.0
C1162 C 0.77203 0.04623 0.18741 0.0
C1163 C 0.86262 0.07152 0.17435 0.0
C1164 C 0.83551 0.13312 0.20621 0.0
C1165 C 0.81079 1.0348 0.17228 0.0
C1166 C 0.10424 0.24719 0.19111 0.0
C1167 C 0.93249 0.1552 0.19595 0.0
H1168 H 0.43818 0.22911 0.13512 0.0
H1169 H 0.33891 0.27319 0.18681 0.0
H1170 H 0.41454 0.30135 0.16649 0.0
H1171 H 0.30764 0.09869 0.14359 0.0
H1172 H 0.73278 1.01657 0.18591 0.0
H1173 H 0.89288 0.06059 0.1628 0.0
H1174 H 0.84534 0.17052 0.21964 0.0
H1175 H 0.80127 0.99662 0.15913 0.0
Tb1176 Tb 0.67845 0.1897 0.32127 0.0
C1177 C 0.51663 1.03077 0.25203 0.0
N1178 N 0.5391 0.08877 0.25628 0.0
C1179 C 0.55163 0.07377 0.22179 0.0
C1180 C 0.51224 0.9916 0.23245 0.0
C1181 C 0.55396 0.11123 0.24138 0.0
C1182 C 0.53137 1.01354 0.21732 0.0
C1183 C 0.46759 0.95288 0.2633 0.0
C1184 C 0.49465 1.01144 0.26722 0.0
C1185 C 0.46485 0.91319 0.24392 0.0
C1186 C 0.48728 0.93244 0.22855 0.0
Tb1187 Tb 0.54189 0.14406 0.28902 0.0
N1188 N 0.49897 0.05072 0.2859 0.0
C1189 C 0.44286 0.93654 0.27891 0.0
C1190 C 0.47107 0.03649 0.30085 0.0
C1191 C 0.44386 0.9788 0.2977 0.0
H1192 H 0.56709 0.1582 0.24448 0.0
H1193 H 0.42327 0.96712 0.3097 0.0
H1194 H 0.65762 0.16812 0.36516 0.0
H1195 H 0.78447 0.37807 0.30352 0.0
H1196 H 0.47077 0.06943 0.3152 0.0
H1197 H 0.42147 0.89198 0.27649 0.0
H1198 H 0.74334 0.27272 0.29647 0.0
H1199 H 0.56461 0.09158 0.21011 0.0
H1200 H 0.44448 0.86786 0.2406 0.0
H1201 H 0.48381 0.90164 0.21361 0.0
H1202 H 0.6582 0.23075 0.39994 0.0
H1203 H 0.52888 0.98484 0.20209 0.0
H1204 H 0.78194 0.44932 0.33726 0.0
N1205 N 0.67992 0.24102 0.35441 0.0
C1206 C 0.69857 0.30017 0.3594 0.0
C1207 C 0.66888 0.25095 0.38865 0.0
C1208 C 0.70115 0.33739 0.37923 0.0
C1209 C 0.66774 0.21569 0.36882 0.0
C1210 C 0.6848 0.31219 0.39386 0.0
N1211 N 0.71596 0.28571 0.32574 0.0
C1212 C 0.74246 0.30379 0.31123 0.0
C1213 C 0.74122 0.3832 0.34938 0.0
C1214 C 0.71838 0.323 0.3447 0.0
C1215 C 0.76405 0.40332 0.33426 0.0
C1216 C 0.76555 0.36322 0.31518 0.0
H1217 H 0.68615 0.33929 0.40927 0.0
H1218 H 0.72335 0.42744 0.39902 0.0
H1219 H 0.75844 0.46749 0.37289 0.0
O1220 O 0.75469 0.17548 0.30677 0.0
O1221 O 0.63632 0.26895 0.31732 0.0
O1222 O 0.5774 0.23762 0.28939 0.0
O1223 O 0.74852 0.18074 0.33727 0.0
O1224 O 0.67425 0.13799 0.28996 0.0
O1225 O 0.61461 0.17822 0.27588 0.0
O1226 O 0.47021 0.17471 0.30428 0.0
O1227 O 0.58015 0.06346 0.29325 0.0
O1228 O 0.64765 0.09317 0.31891 0.0
O1229 O 0.47137 0.14815 0.27256 0.0
O1230 O 0.54912 0.19212 0.32039 0.0
O1231 O 0.60753 0.15268 0.33487 0.0
C1232 C 0.60677 0.28259 0.30368 0.0
C1233 C 0.81387 0.12108 0.31838 0.0
C1234 C 0.89109 0.08019 0.32932 0.0
C1235 C 0.88291 1.03099 0.31194 0.0
C1236 C 0.806 0.07139 0.30119 0.0
C1237 C 0.84051 1.0267 0.29802 0.0
C1238 C 0.8562 0.12503 0.33231 0.0
C1239 C 0.66241 0.1581 0.27586 0.0
C1240 C 0.78025 0.17057 0.32199 0.0
C1241 C 0.72156 0.39807 0.38389 0.0
C1242 C 0.74163 0.4209 0.36901 0.0
C1243 C 0.61436 0.04916 0.30549 0.0
C1244 C 0.41551 0.22197 0.28797 0.0
C1245 C 0.34189 0.25606 0.27278 0.0
C1246 C 0.36223 0.31504 0.28387 0.0
C1247 C 0.43633 0.28098 0.29877 0.0
C1248 C 0.36794 0.21002 0.27547 0.0
C1249 C 0.4092 0.32729 0.29686 0.0
C1250 C 0.55748 0.1665 0.33329 0.0
C1251 C 0.44334 0.17123 0.28815 0.0
H1252 H 0.90897 0.99569 0.30914 0.0
H1253 H 0.77344 0.06714 0.29023 0.0
H1254 H 0.83429 0.98851 0.28475 0.0
H1255 H 0.86077 0.1627 0.34579 0.0
H1256 H 0.34292 0.35148 0.28212 0.0
H1257 H 0.47347 0.29121 0.30846 0.0
H1258 H 0.35188 0.16413 0.26742 0.0
H1259 H 0.42527 0.37282 0.30518 0.0
Tb1260 Tb 0.21386 0.19182 0.78474 0.0
C1261 C 0.1056 0.2257 0.8658 0.0
N1262 N 0.09054 0.1815 0.84865 0.0
C1263 C 0.07922 0.11054 0.86604 0.0
C1264 C 0.11157 0.21358 0.88359 0.0
C1265 C 0.07346 0.125 0.84883 0.0
C1266 C 0.09955 0.15486 0.88343 0.0
C1267 C 0.11768 0.33084 0.88373 0.0
C1268 C 0.10796 0.2834 0.86585 0.0
C1269 C 0.12938 0.31931 0.90119 0.0
C1270 C 0.12566 0.26063 0.90114 0.0
Tb1271 Tb 0.08711 0.20914 0.82101 0.0
N1272 N 0.09402 0.2924 0.84882 0.0
C1273 C 0.11164 0.38785 0.88374 0.0
C1274 C 0.07999 0.34669 0.84962 0.0
C1275 C 0.0907 0.39552 0.86681 0.0
H1276 H 1.05454 0.09068 0.83583 0.0
H1277 H 0.08179 0.43879 0.86708 0.0
H1278 H 0.29346 0.3214 0.79352 0.0
H1279 H 0.17908 1.00899 0.71618 0.0
H1280 H 1.0598 0.353 0.83718 0.0
H1281 H 0.11979 0.42551 0.89698 0.0
H1282 H 0.18773 0.05538 0.75229 0.0
H1283 H 0.06701 0.06543 0.86593 0.0
H1284 H 0.13793 0.35516 0.91498 0.0
H1285 H 0.13077 0.25185 0.91485 0.0
H1286 H 0.3304 0.38798 0.77473 0.0
H1287 H 0.10299 0.1438 0.89684 0.0
H1288 H 0.19861 0.07071 0.6945 0.0
N1289 N 0.25289 0.25445 0.76838 0.0
C1290 C 0.24544 0.23516 0.74851 0.0
C1291 C 0.30622 0.34525 0.76718 0.0
C1292 C 0.26663 0.27082 0.73711 0.0
C1293 C 0.28535 0.30755 0.77774 0.0
C1294 C 0.29607 0.32718 0.74678 0.0
N1295 N 0.20754 0.14348 0.75128 0.0
C1296 C 0.19519 0.08314 0.74306 0.0
C1297 C 0.2189 0.15247 0.71884 0.0
C1298 C 0.22186 0.17721 0.73958 0.0
C1299 C 0.20141 0.09152 0.71038 0.0
C1300 C 0.19052 0.05654 0.72256 0.0
H1301 H 0.313 0.35603 0.73858 0.0
H1302 H 0.27572 0.27468 0.7074 0.0
H1303 H 0.2339 0.1707 0.69135 0.0
O1304 O 0.26603 0.16259 0.80235 0.0
O1305 O 0.13317 0.14026 0.77294 0.0
O1306 O 0.08427 0.21055 0.79108 0.0
O1307 O 0.29819 0.18553 0.77728 0.0
O1308 O 0.18161 0.10137 0.78864 0.0
O1309 O 0.11207 0.11464 0.81215 0.0
O1310 O 1.00925 0.23126 0.83216 0.0
O1311 O 0.17241 0.20385 0.82982 0.0
O1312 O 0.21952 0.26007 0.81362 0.0
O1313 O 1.01334 0.14727 0.80872 0.0
O1314 O 0.11151 0.29555 0.81287 0.0
O1315 O 0.18248 0.28306 0.78985 0.0
C1316 C 0.08568 0.16176 0.77647 0.0
C1317 C 0.33023 0.10327 0.78208 0.0
C1318 C 0.38646 0.04313 0.75673 0.0
C1319 C 0.36692 0.99334 0.76235 0.0
C1320 C 0.31063 0.05309 0.78754 0.0
C1321 C 0.32931 0.99853 0.77777 0.0
C1322 C 0.36918 0.098 0.76708 0.0
C1323 C 0.14658 0.07953 0.80028 0.0
C1324 C 0.30743 0.16019 0.79024 0.0
C1325 C 0.26025 0.24788 0.71645 0.0
C1326 C 0.23643 0.18868 0.70731 0.0
C1327 C 0.21138 0.2472 0.82982 0.0
C1328 C 0.91972 0.17008 0.8216 0.0
C1329 C 0.83428 0.19574 0.83948 0.0
C1330 C 0.80123 0.15382 0.82391 0.0
C1331 C 0.88658 0.12687 0.80633 0.0
C1332 C 0.89319 0.20374 0.83816 0.0
C1333 C 0.8275 0.11911 0.80746 0.0
C1334 C 0.14658 0.31786 0.80122 0.0
C1335 C 0.98157 0.18251 0.82049 0.0
H1336 H 0.37978 0.95046 0.75462 0.0
H1337 H 0.28033 0.05561 0.79904 0.0
H1338 H 0.31367 0.9599 0.78187 0.0
H1339 H 0.38519 0.1369 0.7631 0.0
H1340 H 0.75556 0.14747 0.82462 0.0
H1341 H 0.90612 0.09978 0.79349 0.0
H1342 H 0.91838 0.23709 0.85012 0.0
H1343 H 0.80204 0.08624 0.79554 0.0
C1344 C 1.05457 0.8439 0.19335 0.0
C1345 C 0.10528 0.81839 0.19401 0.0
H1346 H 1.01283 0.91833 0.19233 0.0
C1347 C 0.15498 0.85892 0.19383 0.0
H1348 H 1.01435 0.81707 0.19328 0.0
C1349 C 0.15398 0.91868 0.19294 0.0
C1350 C 0.10321 0.94443 0.19256 0.0
H1351 H 0.19579 0.84417 0.19405 0.0
H1352 H 0.19414 0.94531 0.19282 0.0
C1353 C 1.05364 0.90399 0.19288 0.0
C1354 C 0.56159 0.90733 0.45566 0.0
C1355 C 0.59873 0.93762 0.44515 0.0
H1356 H 0.47635 0.88043 0.46369 0.0
C1357 C 0.56872 0.96672 0.43465 0.0
H1358 H 0.5799 0.88435 0.46427 0.0
C1359 C 0.50743 0.9645 0.43433 0.0
C1360 C 0.47029 0.93332 0.44457 0.0
H1361 H 0.59269 0.99065 0.42608 0.0
H1362 H 0.48899 0.98738 0.42566 0.0
C1363 C 0.50038 0.90514 0.45535 0.0
C1364 C 0.55565 0.28607 0.67307 0.0
C1365 C 0.60546 0.25944 0.67417 0.0
H1366 H 0.51594 0.36279 0.67279 0.0
C1367 C 0.6558 0.3006 0.67562 0.0
H1368 H 0.51494 0.25907 0.67191 0.0
C1369 C 0.65652 0.36175 0.67588 0.0
C1370 C 0.60678 0.38879 0.67513 0.0
H1371 H 0.69592 0.28501 0.67606 0.0
H1372 H 0.69733 0.3884 0.67686 0.0
C1373 C 0.55623 0.34769 0.67374 0.0
C1374 C 1.04936 0.50961 0.93063 0.0
C1375 C 1.01149 0.47666 0.9401 0.0
H1376 H 0.13503 0.53591 0.92286 0.0
C1377 C 1.0406 0.4443 0.94963 0.0
H1378 H 1.03171 0.5356 0.92291 0.0
C1379 C 0.10153 0.44424 0.94949 0.0
C1380 C 0.13944 0.47653 0.93983 0.0
H1381 H 1.01599 0.41808 0.95736 0.0
H1382 H 0.11901 0.41823 0.95718 0.0
C1383 C 0.11043 0.51 0.93068 0.0
C1384 C 0.15161 0.46372 0.78357 0.0
C1385 C 0.14804 0.5138 0.80096 0.0
H1386 H 0.15588 0.36879 0.76968 0.0
C1387 C 0.14355 0.49643 0.81833 0.0
H1388 H 0.15523 0.47152 0.76953 0.0
C1389 C 0.14211 0.43546 0.81835 0.0
C1390 C 0.14643 0.38543 0.80104 0.0
H1391 H 0.14035 0.53058 0.83235 0.0
H1392 H 0.13898 0.42804 0.83242 0.0
C1393 C 0.15195 0.4029 0.78367 0.0
C1394 C 0.19379 0.88881 0.04253 0.0
C1395 C 0.22266 0.85628 0.05202 0.0
H1396 H 0.11568 0.91468 0.03471 0.0
C1397 C 0.18482 0.82477 0.06196 0.0
H1398 H 0.2184 0.91684 0.03555 0.0
C1399 C 0.12389 0.82527 0.06213 0.0
C1400 C 0.09513 0.85722 0.05233 0.0
H1401 H 0.20241 0.79923 0.06987 0.0
H1402 H 0.09916 0.80029 0.07021 0.0
C1403 C 0.13301 0.88884 0.04252 0.0
C1404 C 0.62376 0.87164 0.28738 0.0
C1405 C 0.61486 0.85268 0.30437 0.0
H1406 H 0.62883 0.9417 0.27381 0.0
C1407 C 0.60566 0.90114 0.32157 0.0
H1408 H 0.63142 0.83872 0.27353 0.0
C1409 C 0.60556 0.96209 0.32183 0.0
C1410 C 0.61362 0.98096 0.30485 0.0
H1411 H 0.59978 0.89244 0.33538 0.0
H1412 H 0.5982 0.99498 0.33569 0.0
C1413 C 0.62213 0.93248 0.28754 0.0
C1414 C 0.71154 0.27621 0.54566 0.0
C1415 C 0.74965 0.30927 0.53629 0.0
H1416 H 0.62577 0.24912 0.55308 0.0
C1417 C 0.72052 0.34113 0.52652 0.0
H1418 H 0.7291 0.25077 0.5536 0.0
C1419 C 0.6593 0.34005 0.52619 0.0
C1420 C 0.6212 0.30701 0.5356 0.0
H1421 H 0.74534 0.36792 0.51901 0.0
H1422 H 0.64177 0.36617 0.51849 0.0
C1423 C 0.65038 0.27499 0.54526 0.0
C1424 C 0.15598 0.35537 0.19228 0.0
C1425 C 0.10539 0.31544 0.19183 0.0
H1426 H 0.19725 0.44333 0.19375 0.0
C1427 C 1.05555 0.34312 0.19199 0.0
H1428 H 0.19626 0.33922 0.19227 0.0
C1429 C 1.05622 0.40419 0.19224 0.0
C1430 C 0.1068 0.44434 0.19289 0.0
H1431 H 1.01478 0.31695 0.19165 0.0
H1432 H 1.01599 0.42029 0.19223 0.0
C1433 C 0.1566 0.41696 0.19311 0.0
C1434 C 0.06746 0.94897 0.428 0.0
C1435 C 0.09796 0.9285 0.44108 0.0
H1436 H 0.98777 0.96562 0.41748 0.0
C1437 C 1.06129 0.90872 0.45426 0.0
H1438 H 0.09093 0.96519 0.41739 0.0
C1439 C 1.00025 0.90825 0.45417 0.0
C1440 C 0.96979 0.92823 0.441 0.0
H1441 H 0.0799 0.89412 0.46515 0.0
H1442 H 0.97671 0.89226 0.46484 0.0
C1443 C 1.00641 0.949 0.42799 0.0
C1444 C 0.61707 0.8737 0.69284 0.0
C1445 C 0.61727 0.89 0.67525 0.0
H1446 H 0.61445 0.8057 0.70717 0.0
C1447 C 0.617 0.83921 0.65784 0.0
H1448 H 0.61696 0.90856 0.70689 0.0
C1449 C 0.61796 0.77866 0.65806 0.0
C1450 C 0.61693 0.76233 0.67565 0.0
H1451 H 0.61702 0.84622 0.64367 0.0
H1452 H 0.6184 0.7438 0.64401 0.0
C1453 C 0.61564 0.81287 0.69301 0.0
C1454 C 0.54072 0.44796 0.94886 0.0
C1455 C 0.51031 0.46927 0.93607 0.0
H1456 H 0.62039 0.43374 0.95967 0.0
C1457 C 0.54683 0.49269 0.92363 0.0
H1458 H 0.51713 0.43001 0.95908 0.0
C1459 C 0.60796 0.49384 0.92382 0.0
C1460 C 0.63839 0.47193 0.9365 0.0
H1461 H 0.52809 0.51055 0.91349 0.0
H1462 H 0.63153 0.51215 0.9137 0.0
C1463 C 0.60177 0.44954 0.9491 0.0
C1464 C 0.14071 0.89968 0.78234 0.0
C1465 C 0.14359 0.88285 0.79976 0.0
H1466 H 0.14119 0.96838 0.76837 0.0
C1467 C 0.14791 0.9336 0.81732 0.0
H1468 H 0.13767 0.8649 0.76817 0.0
C1469 C 0.1477 0.99458 0.81744 0.0
C1470 C 0.14554 1.01147 0.80001 0.0
H1471 H 0.15055 0.92628 0.83139 0.0
H1472 H 0.15043 1.0293 0.83161 0.0
C1473 C 0.14283 0.96091 0.78244 0.0
C1474 C 0.62768 0.84873 0.06803 0.0
C1475 C 0.59587 0.86066 0.05324 0.0
H1476 H 0.70843 0.83912 0.07988 0.0
C1477 C 0.63133 0.87266 0.03836 0.0
H1478 H 0.60518 0.83924 0.08005 0.0
C1479 C 0.69248 0.87367 0.03842 0.0
C1480 C 0.72425 0.86193 0.05324 0.0
H1481 H 0.61162 0.88072 0.02618 0.0
H1482 H 0.71504 0.88333 0.02641 0.0
C1483 C 0.6888 0.84903 0.06799 0.0
C1484 C 0.60355 0.36724 0.28651 0.0
C1485 C 0.60815 0.35073 0.30393 0.0
H1486 H 0.60261 0.43557 0.27245 0.0
C1487 C 0.6138 0.40176 0.32142 0.0
H1488 H 0.59923 0.33225 0.27238 0.0
C1489 C 0.61363 0.46273 0.32149 0.0
C1490 C 0.60999 0.47928 0.30404 0.0
H1491 H 0.61757 0.39469 0.3355 0.0
H1492 H 0.61755 0.49769 0.33562 0.0
C1493 C 0.60556 0.42839 0.28653 0.0
C1494 C 0.21866 0.32763 0.5257 0.0
C1495 C 0.24984 0.3093 0.53912 0.0
H1496 H 0.13845 0.34051 0.51477 0.0
C1497 C 0.21402 0.29011 0.55265 0.0
H1498 H 0.24158 0.34232 0.51465 0.0
C1499 C 0.15294 0.29014 0.55288 0.0
C1500 C 0.12183 0.30924 0.53959 0.0
H1501 H 0.23329 0.27474 0.56336 0.0
H1502 H 0.12995 0.27515 0.56385 0.0
C1503 C 0.1577 0.3273 0.52589 0.0
C1504 C 0.21549 0.56393 0.11275 0.0
C1505 C 0.26494 0.6052 0.1159 0.0
H1506 H 0.13935 0.53496 0.12541 0.0
C1507 C 0.27816 0.64582 0.13478 0.0
H1508 H 0.20443 0.53251 0.09819 0.0
C1509 C 0.24149 0.64751 0.15005 0.0
C1510 C 0.19044 0.60854 0.14691 0.0
H1511 H 0.31611 0.67793 0.13753 0.0
H1512 H 0.25274 0.68083 0.16428 0.0
C1513 C 0.1783 0.56556 0.12823 0.0
C1514 C 0.93479 1.03162 0.3506 0.0
C1515 C 0.9313 0.08268 0.34539 0.0
H1516 H 0.95525 0.99766 0.37351 0.0
C1517 C 0.95913 0.13759 0.35765 0.0
H1518 H 0.9146 0.98853 0.34144 0.0
C1519 C 0.98229 0.14265 0.37605 0.0
C1520 C 0.97836 0.09279 0.3823 0.0
H1521 H 0.95892 0.17751 0.35375 0.0
H1522 H 0.9977 0.18637 0.38614 0.0
C1523 C 0.95818 0.0367 0.36894 0.0
C1524 C 0.47799 0.40275 0.60573 0.0
C1525 C 0.48567 0.41931 0.58875 0.0
H1526 H 0.49511 0.42481 0.63658 0.0
C1527 C 0.51616 0.47507 0.59051 0.0
H1528 H 0.4556 0.3604 0.605 0.0
C1529 C 0.53792 0.51337 0.60888 0.0
C1530 C 0.53167 0.4955 0.62567 0.0
H1531 H 0.52307 0.48936 0.57774 0.0
H1532 H 0.56015 0.55658 0.60989 0.0
C1533 C 0.50086 0.44006 0.62394 0.0
C1534 C 0.77843 0.27777 0.8562 0.0
C1535 C 0.80924 0.233 0.85727 0.0
H1536 H 0.7483 0.35962 0.87202 0.0
C1537 C 0.82601 0.23154 0.87576 0.0
H1538 H 0.76568 0.27994 0.84202 0.0
C1539 C 0.81659 0.277 0.89287 0.0
C1540 C 0.79075 0.32521 0.89178 0.0
H1541 H 0.84995 0.19732 0.87685 0.0
H1542 H 0.83325 0.2763 0.90676 0.0
C1543 C 0.76893 0.32351 0.87338 0.0
C1544 C 0.5374 0.7348 0.88694 0.0
C1545 C 0.52496 0.67673 0.8876 0.0
H1546 H 0.52504 0.79435 0.87103 0.0
C1547 C 0.50013 0.63143 0.87092 0.0
H1548 H 0.55589 0.77047 0.89976 0.0
C1549 C 0.48194 0.64506 0.85471 0.0
C1550 C 0.48874 0.70416 0.85489 0.0
H1551 H 0.49024 0.58637 0.87118 0.0
H1552 H 0.45888 0.61008 0.84266 0.0
C1553 C 0.51946 0.74846 0.87059 0.0
C1554 C 0.99823 1.02259 0.10501 0.0
C1555 C 0.96206 0.97011 0.10368 0.0
H1556 H 1.05158 0.09875 0.12354 0.0
C1557 C 0.95335 0.95435 0.12084 0.0
H1558 H 1.00573 0.03653 0.09218 0.0
C1559 C 0.98129 0.98906 0.13868 0.0
C1560 C 1.01808 0.04101 0.13992 0.0
H1561 H 0.92601 0.9145 0.12048 0.0
H1562 H 0.97448 0.97462 0.15146 0.0
C1563 C 1.02522 0.058 0.12296 0.0
C1564 C 0.28159 0.72769 0.40233 0.0
C1565 C 0.26146 0.775 0.39816 0.0
H1566 H 0.31541 0.64553 0.39106 0.0
C1567 C 0.25112 0.76946 0.37829 0.0
H1568 H 0.28925 0.72941 0.41729 0.0
C1569 C 0.26741 0.72143 0.36311 0.0
C1570 C 0.2921 0.67697 0.36753 0.0
H1571 H 0.23451 0.80423 0.37443 0.0
H1572 H 0.26321 0.72046 0.34797 0.0
C1573 C 0.29645 0.67913 0.38722 0.0
C1574 C 0.72374 0.1238 0.62593 0.0
C1575 C 0.71636 0.07647 0.63353 0.0
H1576 H 0.77472 0.16771 0.60884 0.0
C1577 C 0.75243 1.0328 0.6278 0.0
H1578 H 0.69659 0.15831 0.63034 0.0
C1579 C 0.79584 0.03671 0.61491 0.0
C1580 C 0.80555 0.08559 0.60795 0.0
H1581 H 0.74705 0.99547 0.63331 0.0
H1582 H 0.82196 1.00136 0.61053 0.0
C1583 C 0.76843 0.12886 0.61351 0.0
C1584 C 0.95262 0.73787 0.8568 0.0
C1585 C 0.94504 0.6914 0.86496 0.0
H1586 H 1.00047 0.77694 0.83759 0.0
C1587 C 0.98378 0.64972 0.86031 0.0
H1588 H 0.92501 0.77189 0.86034 0.0
C1589 C 1.02868 0.65464 0.84804 0.0
C1590 C 1.03463 0.69982 0.83948 0.0
H1591 H 0.97902 0.61227 0.86571 0.0
H1592 H 1.05739 0.62156 0.84459 0.0
C1593 C 0.99631 0.74137 0.84392 0.0
C1594 C 0.26404 0.07593 0.61291 0.0
C1595 C 0.283 0.13169 0.62693 0.0
H1596 H 0.23328 1.02927 0.58321 0.0
C1597 C 0.26997 0.18297 0.62344 0.0
H1598 H 0.27093 1.03524 0.61542 0.0
C1599 C 0.24688 0.17915 0.60518 0.0
C1600 C 0.23611 0.12409 0.59025 0.0
H1601 H 0.28276 0.2266 0.63394 0.0
H1602 H 0.24312 0.21966 0.602 0.0
C1603 C 0.24129 0.07221 0.5946 0.0
C1604 C 0.70212 0.84537 0.38104 0.0
C1605 C 0.73607 0.82361 0.3922 0.0
H1606 H 0.65638 0.82728 0.35363 0.0
C1607 C 0.74972 0.7658 0.38429 0.0
H1608 H 0.69045 0.88957 0.38703 0.0
C1609 C 0.72715 0.72893 0.36586 0.0
C1610 C 0.69324 0.7507 0.35472 0.0
H1611 H 0.7781 0.74932 0.39229 0.0
H1612 H 0.73705 0.68387 0.36013 0.0
C1613 C 0.68217 0.80965 0.36214 0.0
C1614 C 0.356 1.02617 0.09075 0.0
C1615 C 0.41156 1.01248 0.08802 0.0
H1616 H 0.30086 0.08439 0.10812 0.0
C1617 C 0.45596 0.05171 0.09979 0.0
H1618 H 0.32107 0.99662 0.08173 0.0
C1619 C 0.44429 0.10194 0.11511 0.0
C1620 C 0.38811 0.11334 0.1187 0.0
H1621 H 0.499 0.04152 0.09797 0.0
H1622 H 0.47868 0.12963 0.12487 0.0
C1623 C 0.34443 0.07621 0.10588 0.0
C1624 C 0.75076 0.63349 0.10687 0.0
C1625 C 0.72572 0.5963 0.0888 0.0
H1626 H 0.81786 0.64901 0.12767 0.0
C1627 C 0.73379 0.53639 0.08228 0.0
H1628 H 0.7451 0.68002 0.11215 0.0
C1629 C 0.77509 0.51722 0.09156 0.0
C1630 C 0.80968 0.5583 0.10709 0.0
H1631 H 0.71418 0.50656 0.0685 0.0
H1632 H 0.78349 0.47184 0.08522 0.0
C1633 C 0.79354 0.61534 0.11568 0.0
C1634 C 0.26777 0.26621 0.86074 0.0
C1635 C 0.23749 0.28791 0.84857 0.0
H1636 H 0.31747 0.28782 0.88746 0.0
C1637 C 0.23174 0.34853 0.8546 0.0
H1638 H 0.27406 0.21991 0.85608 0.0
C1639 C 0.25231 0.38596 0.87326 0.0
C1640 C 0.28133 0.36387 0.88567 0.0
H1641 H 0.2089 0.36622 0.8453 0.0
H1642 H 0.24398 0.43151 0.87821 0.0
C1643 C 0.29126 0.30451 0.87886 0.0
C1644 C 0.95151 0.51025 0.58144 0.0
C1645 C 0.96529 0.45895 0.5847 0.0
H1646 H 0.92436 0.59559 0.5939 0.0
C1647 C 0.97155 0.45965 0.60428 0.0
H1648 H 0.94753 0.51231 0.56675 0.0
C1649 C 0.95733 0.50748 0.61996 0.0
C1650 C 0.93868 0.55628 0.61636 0.0
H1651 H 0.98326 0.4216 0.60748 0.0
H1652 H 0.9582 0.50506 0.63478 0.0
C1653 C 0.93859 0.5585 0.59708 0.0
C1654 C 0.47707 0.20601 0.35325 0.0
C1655 C 0.51451 0.16357 0.34797 0.0
H1656 H 0.4048 0.23462 0.36934 0.0
C1657 C 0.50759 0.11634 0.35562 0.0
H1658 H 0.48211 0.24345 0.34779 0.0
C1659 C 0.46151 0.10961 0.36735 0.0
C1660 C 0.42254 0.15111 0.37213 0.0
H1661 H 0.53593 0.08292 0.35164 0.0
H1662 H 0.45548 0.07069 0.37199 0.0
C1663 C 0.43226 0.20042 0.36543 0.0
C1664 C 0.47314 0.53502 0.23225 0.0
C1665 C 0.42317 0.56146 0.23449 0.0
H1666 H 0.5542 0.53481 0.24463 0.0
C1667 C 0.41667 0.60797 0.25196 0.0
H1668 H 0.47983 0.49936 0.21896 0.0
C1669 C 0.46007 0.62941 0.26637 0.0
C1670 C 0.51063 0.60418 0.26386 0.0
H1671 H 0.37819 0.62835 0.25446 0.0
H1672 H 0.45411 0.66629 0.27941 0.0
C1673 C 0.5162 0.55584 0.24687 0.0
C1674 C 0.79237 0.11638 0.48895 0.0
C1675 C 0.81833 0.06572 0.48698 0.0
H1676 H 0.80132 0.21112 0.49893 0.0
C1677 C 0.87189 0.07226 0.49604 0.0
H1678 H 0.75098 0.11266 0.48225 0.0
C1679 C 0.90063 0.12871 0.50564 0.0
C1680 C 0.87605 0.17923 0.50645 0.0
H1681 H 0.89332 1.03418 0.4946 0.0
H1682 H 0.94336 0.13277 0.51134 0.0
C1683 C 0.82121 0.1727 0.49846 0.0
C1684 C 0.30402 0.69567 0.75992 0.0
C1685 C 0.25449 0.72223 0.76135 0.0
H1686 H 0.38076 0.67852 0.74471 0.0
C1687 C 0.24706 0.75726 0.74943 0.0
H1688 H 0.31126 0.66886 0.769 0.0
C1689 C 0.28672 0.76253 0.73543 0.0
C1690 C 0.33439 0.73279 0.73314 0.0
H1691 H 0.20968 0.77915 0.75049 0.0
H1692 H 0.27872 0.78746 0.72578 0.0
C1693 C 0.34364 0.70093 0.74593 0.0
C1694 C 0.98216 0.18507 -0.00447 0.0
C1695 C 0.96762 0.24223 -0.00107 0.0
H1696 H 0.99054 0.11579 0.00762 0.0
C1697 C 0.95534 0.27589 0.01821 0.0
H1698 H 0.99169 0.15796 -0.01914 0.0
C1699 C 0.95434 0.25161 0.03351 0.0
C1700 C 0.96537 0.1931 0.02982 0.0
H1701 H 0.94484 0.32045 0.02133 0.0
H1702 H 0.94215 0.27758 0.04798 0.0
C1703 C 0.98098 0.16074 0.01082 0.0
C1704 C 0.71504 0.70159 0.72818 0.0
C1705 C 0.71309 0.6442 0.71449 0.0
H1706 H 0.76514 0.77383 0.74983 0.0
C1707 C 0.76167 0.61586 0.71197 0.0
H1708 H 0.67801 0.72438 0.73047 0.0
C1709 C 0.81168 0.64465 0.72245 0.0
C1710 C 0.81398 0.70177 0.7364 0.0
H1711 H 0.76138 0.57144 0.70165 0.0
H1712 H 0.84868 0.62186 0.71949 0.0
C1713 C 0.76508 0.73011 0.7391 0.0
C1714 C 0.35164 0.16941 0.48239 0.0
C1715 C 0.40474 0.17602 0.49182 0.0
H1716 H 0.27974 0.10905 0.46729 0.0
C1717 C 0.42995 0.12523 0.4903 0.0
H1718 H 0.33078 0.20757 0.48339 0.0
C1719 C 0.40053 0.06894 0.48112 0.0
C1720 C 0.34582 0.06242 0.47298 0.0
H1721 H 0.47096 0.12889 0.49726 0.0
H1722 H 0.41973 1.03057 0.48117 0.0
C1723 C 0.32229 0.11295 0.47312 0.0
C1724 C 0.9864 0.73746 0.26754 0.0
C1725 C 0.97239 0.69318 0.27627 0.0
H1726 H 1.02803 0.76057 0.24389 0.0
C1727 C 0.99405 0.63897 0.26867 0.0
H1728 H 0.96959 0.77932 0.27306 0.0
C1729 C 1.02814 0.62864 0.25223 0.0
C1730 C 1.03961 0.6718 0.2429 0.0
H1731 H 0.98349 0.6042 0.27518 0.0
H1732 H 1.04321 0.58596 0.24626 0.0
C1733 C 1.01943 0.72665 0.25087 0.0
C1734 C 0.27886 1.01667 0.95216 0.0
C1735 C 0.28129 0.04224 0.97279 0.0
H1736 H 0.28027 1.03199 0.92437 0.0
C1737 C 0.28663 0.10403 -0.01866 0.0
H1738 H 0.27563 0.96898 0.94529 0.0
C1739 C 0.2883 0.13983 0.9694 0.0
C1740 C 0.28555 0.11435 0.94872 0.0
H1741 H 0.28828 0.12446 -0.00277 0.0
H1742 H 0.29054 0.18738 0.97638 0.0
C1743 C 0.28132 0.05251 0.94022 0.0
C1744 C 0.98346 0.1546 0.76785 0.0
C1745 C 1.03372 0.12904 0.76504 0.0
H1746 H 0.8961 0.14484 0.75975 0.0
C1747 C 1.03371 0.07185 0.75135 0.0
H1748 H 0.98198 0.19838 0.77839 0.0
C1749 C 0.98448 0.0413 0.74039 0.0
C1750 C 0.93444 0.06744 0.74296 0.0
H1751 H 0.07178 0.05078 0.74897 0.0
H1752 H 0.98605 0.99807 0.72954 0.0
C1753 C 0.9343 0.12397 0.75707 0.0
C1754 C 0.30823 0.63663 -0.00695 0.0
C1755 C 0.34597 0.59499 -0.01351 0.0
H1756 H 0.29541 0.72216 0.01222 0.0
C1757 C 0.40024 0.60663 -0.00445 0.0
H1758 H 0.26594 0.62826 -0.01351 0.0
C1759 C 0.41758 0.66104 0.01015 0.0
C1760 C 0.38077 0.70405 0.01576 0.0
H1761 H 0.43025 0.57516 -0.00933 0.0
H1762 H 0.46039 0.67056 0.01632 0.0
C1763 C 0.3253 0.69043 0.00767 0.0
C1764 C 0.71609 0.08767 0.2511 0.0
C1765 C 0.69178 0.14059 0.25717 0.0
H1766 H 0.76326 1.03097 0.22896 0.0
C1767 C 0.69413 0.17603 0.24492 0.0
H1768 H 0.71401 0.05917 0.26018 0.0
C1769 C 0.722 0.15981 0.22715 0.0
C1770 C 0.74689 0.10737 0.22123 0.0
H1771 H 0.6755 0.21693 0.24932 0.0
H1772 H 0.72537 0.18886 0.21824 0.0
C1773 C 0.74323 0.07099 0.23316 0.0
C1774 C 0.4871 0.62603 0.50639 0.0
C1775 C 0.47225 0.65445 0.52585 0.0
H1776 H 0.48487 0.6237 0.47648 0.0
C1777 C 0.45451 0.71064 0.53063 0.0
H1778 H 0.50222 0.58322 0.50239 0.0
C1779 C 0.44595 0.73489 0.51577 0.0
C1780 C 0.45429 0.703 0.49589 0.0
H1781 H 0.44325 0.73381 0.54554 0.0
H1782 H 0.43015 0.7773 0.51977 0.0
C1783 C 0.47755 0.64961 0.49152 0.0
C1784 C 0.2532 0.17199 0.22685 0.0
C1785 C 0.20209 0.19582 0.23081 0.0
H1786 H 0.33804 0.17499 0.23625 0.0
C1787 C 0.19884 0.24466 0.24791 0.0
H1788 H 0.25732 0.13426 0.2139 0.0
C1789 C 0.24515 0.26675 0.26138 0.0
C1790 C 0.29533 0.24067 0.2577 0.0
H1791 H 0.16009 0.26422 0.25127 0.0
H1792 H 0.24085 0.30222 0.275 0.0
C1793 C 0.29946 0.19492 0.23985 0.0
C1794 C 0.85042 0.71477 -0.00812 0.0
C1795 C 0.89749 0.72596 0.00482 0.0
H1796 H 0.79858 0.6507 0.96845 0.0
C1797 C 0.93083 0.68054 0.00301 0.0
H1798 H 0.82356 0.74857 -0.00699 0.0
C1799 C 0.91608 0.6244 -0.01081 0.0
C1800 C 0.86798 0.6126 0.97673 0.0
H1801 H 0.96778 0.68794 0.01259 0.0
H1802 H 0.94191 0.58992 -0.01154 0.0
C1803 C 0.83597 0.65862 0.97787 0.0
C1804 C 0.47327 1.01156 0.73851 0.0
C1805 C 0.42457 0.03951 0.74008 0.0
H1806 H 0.55198 0.99714 0.72433 0.0
C1807 C 0.41526 0.06975 0.72679 0.0
H1808 H 0.48144 0.98793 0.74854 0.0
C1809 C 0.45585 0.07591 0.71324 0.0
C1810 C 0.50623 0.05131 0.7125 0.0
H1811 H 0.37745 0.09075 0.72741 0.0
H1812 H 0.44869 0.10219 0.70401 0.0
C1813 C 0.51379 1.01738 0.7248 0.0
C1814 C 0.74504 0.53504 0.46003 0.0
C1815 C 0.73412 0.59401 0.46557 0.0
H1816 H 0.76831 0.46581 0.46989 0.0
C1817 C 0.73058 0.62624 0.48566 0.0
H1818 H 0.74774 0.50935 0.44462 0.0
C1819 C 0.74279 0.60177 0.50005 0.0
C1820 C 0.7587 0.54464 0.49456 0.0
H1821 H 0.72138 0.67162 0.49022 0.0
H1822 H 0.74328 0.62901 0.51541 0.0
C1823 C 0.75738 0.51052 0.47446 0.0
loop_
_geom_bond_atom_site_label_1
_geom_bond_atom_site_label_2
_geom_bond_distance
_geom_bond_site_symmetry_2
_ccdc_geom_bond_type
Tb0 N29 2.617 . S
Tb0 N35 2.572 . S
Tb0 O44 2.465 . S
Tb0 O45 2.387 . S
Tb0 O47 2.428 . S
Tb0 O48 2.308 . S
Tb0 O52 2.349 . S
Tb0 O55 2.393 . S
Tb0 C64 2.802 . S
C1 N2 1.383 . S
C1 C4 1.419 . S
C1 C8 1.418 1_455 S
N2 C1 1.383 . S
N2 C5 1.334 . S
N2 Tb11 2.617 . S
C3 C5 1.390 . S
C3 C6 1.339 . S
C3 H23 0.930 . S
C4 C1 1.419 . S
C4 C6 1.416 . S
C4 C10 1.448 1_455 S
C5 N2 1.334 . S
C5 C3 1.390 . S
C5 H16 0.930 . S
C6 C3 1.339 . S
C6 C4 1.416 . S
C6 H27 0.930 . S
C7 C8 1.413 . S
C7 C9 1.427 . S
C7 C13 1.416 . S
C8 C1 1.418 1_655 S
C8 C7 1.413 . S
C8 N12 1.361 . S
C9 C7 1.427 . S
C9 C10 1.328 . S
C9 H24 0.929 . S
C10 C4 1.448 1_655 S
C10 C9 1.328 . S
C10 H25 0.930 . S
Tb11 N2 2.617 . S
Tb11 N12 2.572 1_455 S
Tb11 O46 2.349 . S
Tb11 O49 2.393 . S
Tb11 O50 2.465 1_455 S
Tb11 O51 2.387 . S
Tb11 O53 2.428 1_455 S
Tb11 O54 2.308 1_455 S
Tb11 C75 2.802 1_455 S
N12 C8 1.361 . S
N12 Tb11 2.572 1_655 S
N12 C14 1.340 . S
C13 C7 1.416 . S
C13 C15 1.332 . S
C13 H21 0.931 . S
C14 N12 1.340 . S
C14 C15 1.407 . S
C14 H20 0.930 . S
C15 C13 1.332 . S
C15 C14 1.407 . S
C15 H17 0.929 . S
H16 C5 0.930 . S
H17 C15 0.929 . S
H18 C33 0.930 . S
H19 C40 0.929 . S
H20 C14 0.930 . S
H21 C13 0.931 . S
H22 C36 0.930 . S
H23 C3 0.930 . S
H24 C9 0.929 . S
H25 C10 0.930 . S
H26 C31 0.930 . S
H27 C6 0.930 . S
H28 C39 0.931 . S
N29 Tb0 2.617 . S
N29 C30 1.379 . S
N29 C33 1.334 . S
C30 N29 1.379 . S
C30 C32 1.416 . S
C30 C38 1.424 . S
C31 H26 0.930 . S
C31 C33 1.390 . S
C31 C34 1.339 . S
C32 C30 1.416 . S
C32 C34 1.416 . S
C32 C65 1.448 . S
C33 H18 0.930 . S
C33 N29 1.334 . S
C33 C31 1.390 . S
C34 C31 1.339 . S
C34 C32 1.416 . S
C34 H41 0.930 . S
N35 Tb0 2.572 . S
N35 C36 1.340 . S
N35 C38 1.361 . S
C36 H22 0.930 . S
C36 N35 1.340 . S
C36 C40 1.407 . S
C37 C38 1.413 . S
C37 C39 1.416 . S
C37 C66 1.427 . S
C38 C30 1.424 . S
C38 N35 1.361 . S
C38 C37 1.413 . S
C39 H28 0.931 . S
C39 C37 1.416 . S
C39 C40 1.332 . S
C40 H19 0.929 . S
C40 C36 1.407 . S
C40 C39 1.332 . S
H41 C34 0.930 . S
H42 C65 0.930 . S
H43 C66 0.929 . S
O44 Tb0 2.465 . S
O44 C64 1.264 . S
O45 Tb0 2.387 . S
O45 C56 1.264 . S
O46 Tb11 2.349 . S
O46 C56 1.243 . S
O47 Tb0 2.428 . S
O47 C64 1.256 . S
O48 Tb0 2.308 . S
O48 C63 1.266 . S
O49 Tb11 2.393 . S
O49 C63 1.248 . S
O50 Tb11 2.465 1_655 S
O50 C75 1.264 . S
O51 Tb11 2.387 . S
O51 C67 1.264 . S
O52 Tb0 2.349 . S
O52 C67 1.243 . S
O53 Tb11 2.428 1_655 S
O53 C75 1.256 . S
O54 Tb11 2.308 1_655 S
O54 C74 1.266 . S
O55 Tb0 2.393 . S
O55 C74 1.248 1_455 S
C56 O45 1.264 . S
C56 O46 1.243 . S
C57 C60 1.399 . S
C57 C62 1.383 . S
C57 C64 1.496 . S
C58 C59 1.399 . S
C58 C62 1.389 . S
C59 C58 1.399 . S
C59 C61 1.380 . S
C59 H76 0.929 . S
C60 C57 1.399 . S
C60 C61 1.392 . S
C60 H77 0.929 . S
C61 C59 1.380 . S
C61 C60 1.392 . S
C61 H78 0.929 . S
C62 C57 1.383 . S
C62 C58 1.389 . S
C62 H79 0.931 . S
C63 O48 1.266 . S
C63 O49 1.248 . S
C64 Tb0 2.802 . S
C64 O44 1.264 . S
C64 O47 1.256 . S
C64 C57 1.496 . S
C65 C32 1.448 . S
C65 H42 0.930 . S
C65 C66 1.328 . S
C66 C37 1.427 . S
C66 H43 0.929 . S
C66 C65 1.328 . S
C67 O51 1.264 . S
C67 O52 1.243 . S
C68 C71 1.399 . S
C68 C72 1.383 . S
C68 C75 1.496 . S
C69 C70 1.399 . S
C69 C72 1.389 . S
C70 C69 1.399 . S
C70 C73 1.380 . S
C70 H80 0.929 . S
C71 C68 1.399 . S
C71 C73 1.392 . S
C71 H81 0.929 . S
C72 C68 1.383 . S
C72 C69 1.389 . S
C72 H82 0.931 . S
C73 C70 1.380 . S
C73 C71 1.392 . S
C73 H83 0.929 . S
C74 O54 1.266 . S
C74 O55 1.248 1_655 S
C75 Tb11 2.802 1_655 S
C75 O50 1.264 . S
C75 O53 1.256 . S
C75 C68 1.496 . S
H76 C59 0.929 . S
H77 C60 0.929 . S
H78 C61 0.929 . S
H79 C62 0.931 . S
H80 C70 0.929 . S
H81 C71 0.929 . S
H82 C72 0.931 . S
H83 C73 0.929 . S
Tb84 N113 2.617 . S
Tb84 N119 2.572 . S
Tb84 O128 2.465 . S
Tb84 O129 2.387 . S
Tb84 O131 2.428 . S
Tb84 O132 2.308 . S
Tb84 O136 2.349 . S
Tb84 O139 2.393 . S
Tb84 C148 2.802 . S
C85 N86 1.379 . S
C85 C88 1.416 . S
C85 C92 1.424 . S
N86 C85 1.379 . S
N86 C89 1.334 . S
N86 Tb95 2.617 . S
C87 C89 1.390 . S
C87 C90 1.339 . S
C87 H107 0.930 1_655 S
C88 C85 1.416 . S
C88 C90 1.416 . S
C88 C94 1.448 . S
C89 N86 1.334 . S
C89 C87 1.390 . S
C89 H100 0.930 . S
C90 C87 1.339 . S
C90 C88 1.416 . S
C90 H111 0.930 . S
C91 C92 1.413 . S
C91 C93 1.427 . S
C91 C97 1.416 . S
C92 C85 1.424 . S
C92 C91 1.413 . S
C92 N96 1.361 . S
C93 C91 1.427 . S
C93 C94 1.328 . S
C93 H108 0.929 . S
C94 C88 1.448 . S
C94 C93 1.328 . S
C94 H109 0.930 . S
Tb95 N86 2.617 . S
Tb95 N96 2.572 . S
Tb95 O130 2.349 . S
Tb95 O133 2.393 . S
Tb95 O134 2.465 . S
Tb95 O135 2.387 . S
Tb95 O137 2.428 1_565 S
Tb95 O138 2.308 . S
Tb95 C159 2.802 1_565 S
N96 C92 1.361 . S
N96 Tb95 2.572 . S
N96 C98 1.340 . S
C97 C91 1.416 . S
C97 C99 1.332 . S
C97 H105 0.931 . S
C98 N96 1.340 . S
C98 C99 1.407 . S
C98 H104 0.930 . S
C99 C97 1.332 . S
C99 C98 1.407 . S
C99 H101 0.929 . S
H100 C89 0.930 . S
H101 C99 0.929 . S
H102 C117 0.930 . S
H103 C124 0.929 1_455 S
H104 C98 0.930 . S
H105 C97 0.931 . S
H106 C120 0.930 . S
H107 C87 0.930 1_455 S
H108 C93 0.929 . S
H109 C94 0.930 . S
H110 C115 0.930 . S
H111 C90 0.930 . S
H112 C123 0.931 . S
N113 Tb84 2.617 . S
N113 C114 1.379 . S
N113 C117 1.334 . S
C114 N113 1.379 . S
C114 C116 1.416 . S
C114 C122 1.424 . S
C115 H110 0.930 . S
C115 C117 1.390 . S
C115 C118 1.339 . S
C116 C114 1.416 . S
C116 C118 1.416 . S
C116 C149 1.448 . S
C117 H102 0.930 . S
C117 N113 1.334 . S
C117 C115 1.390 . S
C118 C115 1.339 . S
C118 C116 1.416 . S
C118 H125 0.930 . S
N119 Tb84 2.572 . S
N119 C120 1.340 . S
N119 C122 1.361 . S
C120 H106 0.930 . S
C120 N119 1.340 . S
C120 C124 1.407 . S
C121 C122 1.413 . S
C121 C123 1.416 . S
C121 C150 1.427 . S
C122 C114 1.424 . S
C122 N119 1.361 . S
C122 C121 1.413 . S
C123 H112 0.931 . S
C123 C121 1.416 . S
C123 C124 1.332 . S
C124 H103 0.929 1_655 S
C124 C120 1.407 . S
C124 C123 1.332 . S
H125 C118 0.930 . S
H126 C149 0.930 . S
H127 C150 0.929 . S
O128 Tb84 2.465 . S
O128 C148 1.264 . S
O129 Tb84 2.387 . S
O129 C140 1.264 . S
O130 Tb95 2.349 . S
O130 C140 1.243 . S
O131 Tb84 2.428 . S
O131 C148 1.256 . S
O132 Tb84 2.308 . S
O132 C147 1.266 . S
O133 Tb95 2.393 . S
O133 C147 1.248 . S
O134 Tb95 2.465 . S
O134 C159 1.264 1_565 S
O135 Tb95 2.387 . S
O135 C151 1.264 . S
O136 Tb84 2.349 . S
O136 C151 1.243 . S
O137 Tb95 2.428 1_545 S
O137 C159 1.256 . S
O138 Tb95 2.308 . S
O138 C158 1.266 . S
O139 Tb84 2.393 . S
O139 C158 1.248 . S
C140 O129 1.264 . S
C140 O130 1.243 . S
C141 C144 1.399 . S
C141 C146 1.383 . S
C141 C148 1.496 . S
C142 C143 1.399 . S
C142 C146 1.389 . S
C143 C142 1.399 . S
C143 C145 1.380 . S
C143 H160 0.929 . S
C144 C141 1.399 . S
C144 C145 1.392 . S
C144 H161 0.929 . S
C145 C143 1.380 . S
C145 C144 1.392 . S
C145 H162 0.929 . S
C146 C141 1.383 . S
C146 C142 1.389 . S
C146 H163 0.931 . S
C147 O132 1.266 . S
C147 O133 1.248 . S
C148 Tb84 2.802 . S
C148 O128 1.264 . S
C148 O131 1.256 . S
C148 C141 1.496 . S
C149 C116 1.448 . S
C149 H126 0.930 . S
C149 C150 1.328 . S
C150 C121 1.427 . S
C150 H127 0.929 . S
C150 C149 1.328 . S
C151 O135 1.264 . S
C151 O136 1.243 . S
C152 C155 1.399 . S
C152 C156 1.383 . S
C152 C159 1.496 . S
C153 C154 1.399 . S
C153 C156 1.389 . S
C154 C153 1.399 . S
C154 C157 1.380 . S
C154 H164 0.929 . S
C155 C152 1.399 . S
C155 C157 1.392 . S
C155 H165 0.929 . S
C156 C152 1.383 . S
C156 C153 1.389 . S
C156 H166 0.931 . S
C157 C154 1.380 . S
C157 C155 1.392 . S
C157 H167 0.929 . S
C158 O138 1.266 . S
C158 O139 1.248 . S
C159 Tb95 2.802 1_545 S
C159 O134 1.264 1_545 S
C159 O137 1.256 . S
C159 C152 1.496 . S
H160 C143 0.929 . S
H161 C144 0.929 . S
H162 C145 0.929 . S
H163 C146 0.931 . S
H164 C154 0.929 . S
H165 C155 0.929 . S
H166 C156 0.931 . S
H167 C157 0.929 . S
Tb168 N197 2.617 . S
Tb168 N203 2.572 . S
Tb168 O212 2.465 . S
Tb168 O213 2.387 . S
Tb168 O215 2.428 . S
Tb168 O216 2.308 . S
Tb168 O220 2.349 . S
Tb168 O223 2.393 . S
Tb168 C232 2.802 . S
C169 N170 1.379 . S
C169 C172 1.416 . S
C169 C176 1.424 . S
N170 C169 1.379 . S
N170 C173 1.334 . S
N170 Tb179 2.617 . S
C171 C173 1.390 . S
C171 C174 1.339 . S
C171 H191 0.930 . S
C172 C169 1.416 . S
C172 C174 1.416 . S
C172 C178 1.448 . S
C173 N170 1.334 . S
C173 C171 1.390 . S
C173 H184 0.930 . S
C174 C171 1.339 . S
C174 C172 1.416 . S
C174 H195 0.930 . S
C175 C176 1.413 . S
C175 C177 1.427 . S
C175 C181 1.416 . S
C176 C169 1.424 . S
C176 C175 1.413 . S
C176 N180 1.361 . S
C177 C175 1.427 . S
C177 C178 1.328 . S
C177 H192 0.929 . S
C178 C172 1.448 . S
C178 C177 1.328 . S
C178 H193 0.930 . S
Tb179 N170 2.617 . S
Tb179 N180 2.572 . S
Tb179 O214 2.349 . S
Tb179 O217 2.393 . S
Tb179 O218 2.465 . S
Tb179 O219 2.387 . S
Tb179 O221 2.428 . S
Tb179 O222 2.308 . S
Tb179 C243 2.802 . S
N180 C176 1.361 . S
N180 Tb179 2.572 . S
N180 C182 1.340 . S
C181 C175 1.416 . S
C181 C183 1.332 . S
C181 H189 0.931 . S
C182 N180 1.340 . S
C182 C183 1.407 . S
C182 H188 0.930 . S
C183 C181 1.332 . S
C183 C182 1.407 . S
C183 H185 0.929 . S
H184 C173 0.930 . S
H185 C183 0.929 . S
H186 C201 0.930 . S
H187 C208 0.929 . S
H188 C182 0.930 . S
H189 C181 0.931 . S
H190 C204 0.930 . S
H191 C171 0.930 . S
H192 C177 0.929 . S
H193 C178 0.930 . S
H194 C199 0.930 . S
H195 C174 0.930 . S
H196 C207 0.931 . S
N197 Tb168 2.617 . S
N197 C198 1.379 . S
N197 C201 1.334 . S
C198 N197 1.379 . S
C198 C200 1.416 . S
C198 C206 1.424 . S
C199 H194 0.930 . S
C199 C201 1.390 . S
C199 C202 1.339 . S
C200 C198 1.416 . S
C200 C202 1.416 . S
C200 C233 1.448 . S
C201 H186 0.930 . S
C201 N197 1.334 . S
C201 C199 1.390 . S
C202 C199 1.339 . S
C202 C200 1.416 . S
C202 H209 0.930 . S
N203 Tb168 2.572 . S
N203 C204 1.340 . S
N203 C206 1.361 . S
C204 H190 0.930 . S
C204 N203 1.340 . S
C204 C208 1.407 . S
C205 C206 1.413 . S
C205 C207 1.416 . S
C205 C234 1.427 . S
C206 C198 1.424 . S
C206 N203 1.361 . S
C206 C205 1.413 . S
C207 H196 0.931 . S
C207 C205 1.416 . S
C207 C208 1.332 . S
C208 H187 0.929 . S
C208 C204 1.407 . S
C208 C207 1.332 . S
H209 C202 0.930 . S
H210 C233 0.930 . S
H211 C234 0.929 . S
O212 Tb168 2.465 . S
O212 C232 1.264 . S
O213 Tb168 2.387 . S
O213 C224 1.264 . S
O214 Tb179 2.349 . S
O214 C224 1.243 . S
O215 Tb168 2.428 . S
O215 C232 1.256 . S
O216 Tb168 2.308 . S
O216 C231 1.266 . S
O217 Tb179 2.393 . S
O217 C231 1.248 . S
O218 Tb179 2.465 . S
O218 C243 1.264 . S
O219 Tb179 2.387 . S
O219 C235 1.264 . S
O220 Tb168 2.349 . S
O220 C235 1.243 . S
O221 Tb179 2.428 . S
O221 C243 1.256 . S
O222 Tb179 2.308 . S
O222 C242 1.266 . S
O223 Tb168 2.393 . S
O223 C242 1.248 . S
C224 O213 1.264 . S
C224 O214 1.243 . S
C225 C228 1.399 . S
C225 C230 1.383 . S
C225 C232 1.496 . S
C226 C227 1.399 . S
C226 C230 1.389 . S
C227 C226 1.399 . S
C227 C229 1.380 . S
C227 H244 0.929 . S
C228 C225 1.399 . S
C228 C229 1.392 . S
C228 H245 0.929 . S
C229 C227 1.380 . S
C229 C228 1.392 . S
C229 H246 0.929 . S
C230 C225 1.383 . S
C230 C226 1.389 . S
C230 H247 0.931 . S
C231 O216 1.266 . S
C231 O217 1.248 . S
C232 Tb168 2.802 . S
C232 O212 1.264 . S
C232 O215 1.256 . S
C232 C225 1.496 . S
C233 C200 1.448 . S
C233 H210 0.930 . S
C233 C234 1.328 . S
C234 C205 1.427 . S
C234 H211 0.929 . S
C234 C233 1.328 . S
C235 O219 1.264 . S
C235 O220 1.243 . S
C236 C239 1.399 . S
C236 C240 1.383 . S
C236 C243 1.496 . S
C237 C238 1.399 . S
C237 C240 1.389 . S
C238 C237 1.399 . S
C238 C241 1.380 . S
C238 H248 0.929 . S
C239 C236 1.399 . S
C239 C241 1.392 . S
C239 H249 0.929 . S
C240 C236 1.383 . S
C240 C237 1.389 . S
C240 H250 0.931 . S
C241 C238 1.380 . S
C241 C239 1.392 . S
C241 H251 0.929 . S
C242 O222 1.266 . S
C242 O223 1.248 . S
C243 Tb179 2.802 . S
C243 O218 1.264 . S
C243 O221 1.256 . S
C243 C236 1.496 . S
H244 C227 0.929 . S
H245 C228 0.929 . S
H246 C229 0.929 . S
H247 C230 0.931 . S
H248 C238 0.929 . S
H249 C239 0.929 . S
H250 C240 0.931 . S
H251 C241 0.929 . S
Tb252 N281 2.617 . S
Tb252 N287 2.572 . S
Tb252 O296 2.465 . S
Tb252 O297 2.387 . S
Tb252 O299 2.428 . S
Tb252 O300 2.308 . S
Tb252 O304 2.349 . S
Tb252 O307 2.393 . S
Tb252 C316 2.802 . S
C253 N254 1.379 . S
C253 C256 1.416 . S
C253 C260 1.424 . S
N254 C253 1.379 . S
N254 C257 1.334 . S
N254 Tb263 2.617 1_554 S
C255 C257 1.390 . S
C255 C258 1.339 . S
C255 H275 0.930 . S
C256 C253 1.416 . S
C256 C258 1.416 . S
C256 C262 1.448 . S
C257 N254 1.334 . S
C257 C255 1.390 . S
C257 H268 0.930 . S
C258 C255 1.339 . S
C258 C256 1.416 . S
C258 H279 0.930 . S
C259 C260 1.413 . S
C259 C261 1.427 . S
C259 C265 1.416 . S
C260 C253 1.424 . S
C260 C259 1.413 . S
C260 N264 1.361 . S
C261 C259 1.427 . S
C261 C262 1.328 . S
C261 H276 0.929 . S
C262 C256 1.448 . S
C262 C261 1.328 . S
C262 H277 0.930 . S
Tb263 N254 2.617 1_556 S
Tb263 N264 2.572 1_556 S
Tb263 O298 2.349 . S
Tb263 O301 2.393 . S
Tb263 O302 2.465 . S
Tb263 O303 2.387 . S
Tb263 O305 2.428 . S
Tb263 O306 2.308 . S
Tb263 C327 2.802 . S
N264 C260 1.361 . S
N264 Tb263 2.572 1_554 S
N264 C266 1.340 . S
C265 C259 1.416 . S
C265 C267 1.332 . S
C265 H273 0.931 . S
C266 N264 1.340 . S
C266 C267 1.407 . S
C266 H272 0.930 . S
C267 C265 1.332 . S
C267 C266 1.407 . S
C267 H269 0.929 . S
H268 C257 0.930 . S
H269 C267 0.929 . S
H270 C285 0.930 . S
H271 C292 0.929 . S
H272 C266 0.930 . S
H273 C265 0.931 . S
H274 C288 0.930 . S
H275 C255 0.930 . S
H276 C261 0.929 . S
H277 C262 0.930 . S
H278 C283 0.930 . S
H279 C258 0.930 . S
H280 C291 0.931 . S
N281 Tb252 2.617 . S
N281 C282 1.379 . S
N281 C285 1.334 . S
C282 N281 1.379 . S
C282 C284 1.416 . S
C282 C290 1.424 . S
C283 H278 0.930 . S
C283 C285 1.390 . S
C283 C286 1.339 . S
C284 C282 1.416 . S
C284 C286 1.416 . S
C284 C317 1.448 . S
C285 H270 0.930 . S
C285 N281 1.334 . S
C285 C283 1.390 . S
C286 C283 1.339 . S
C286 C284 1.416 . S
C286 H293 0.930 . S
N287 Tb252 2.572 . S
N287 C288 1.340 . S
N287 C290 1.361 . S
C288 H274 0.930 . S
C288 N287 1.340 . S
C288 C292 1.407 . S
C289 C290 1.413 . S
C289 C291 1.416 . S
C289 C318 1.427 . S
C290 C282 1.424 . S
C290 N287 1.361 . S
C290 C289 1.413 . S
C291 H280 0.931 . S
C291 C289 1.416 . S
C291 C292 1.332 . S
C292 H271 0.929 . S
C292 C288 1.407 . S
C292 C291 1.332 . S
H293 C286 0.930 . S
H294 C317 0.930 . S
H295 C318 0.929 . S
O296 Tb252 2.465 . S
O296 C316 1.264 . S
O297 Tb252 2.387 . S
O297 C308 1.264 . S
O298 Tb263 2.349 . S
O298 C308 1.243 . S
O299 Tb252 2.428 . S
O299 C316 1.256 . S
O300 Tb252 2.308 . S
O300 C315 1.266 . S
O301 Tb263 2.393 . S
O301 C315 1.248 . S
O302 Tb263 2.465 . S
O302 C327 1.264 . S
O303 Tb263 2.387 . S
O303 C319 1.264 . S
O304 Tb252 2.349 . S
O304 C319 1.243 . S
O305 Tb263 2.428 . S
O305 C327 1.256 . S
O306 Tb263 2.308 . S
O306 C326 1.266 . S
O307 Tb252 2.393 . S
O307 C326 1.248 . S
C308 O297 1.264 . S
C308 O298 1.243 . S
C309 C312 1.399 . S
C309 C314 1.383 . S
C309 C316 1.496 . S
C310 C311 1.399 . S
C310 C314 1.389 . S
C311 C310 1.399 . S
C311 C313 1.380 . S
C311 H328 0.929 . S
C312 C309 1.399 . S
C312 C313 1.392 . S
C312 H329 0.929 . S
C313 C311 1.380 . S
C313 C312 1.392 . S
C313 H330 0.929 . S
C314 C309 1.383 . S
C314 C310 1.389 . S
C314 H331 0.931 . S
C315 O300 1.266 . S
C315 O301 1.248 . S
C316 Tb252 2.802 . S
C316 O296 1.264 . S
C316 O299 1.256 . S
C316 C309 1.496 . S
C317 C284 1.448 . S
C317 H294 0.930 . S
C317 C318 1.328 . S
C318 C289 1.427 . S
C318 H295 0.929 . S
C318 C317 1.328 . S
C319 O303 1.264 . S
C319 O304 1.243 . S
C320 C323 1.399 1_556 S
C320 C324 1.383 . S
C320 C327 1.496 . S
C321 C322 1.392 1_556 S
C321 C324 1.397 . S
C322 C321 1.392 1_554 S
C322 C325 1.380 . S
C322 H332 0.929 . S
C323 C320 1.399 1_554 S
C323 C325 1.392 . S
C323 H333 0.929 . S
C324 C320 1.383 . S
C324 C321 1.397 . S
C324 H334 0.931 . S
C325 C322 1.380 . S
C325 C323 1.392 . S
C325 H335 0.929 . S
C326 O306 1.266 . S
C326 O307 1.248 . S
C327 Tb263 2.802 . S
C327 O302 1.264 . S
C327 O305 1.256 . S
C327 C320 1.496 . S
H328 C311 0.929 . S
H329 C312 0.929 . S
H330 C313 0.929 . S
H331 C314 0.931 . S
H332 C322 0.929 . S
H333 C323 0.929 . S
H334 C324 0.931 . S
H335 C325 0.929 . S
Tb336 N365 2.617 . S
Tb336 N371 2.572 . S
Tb336 O380 2.465 . S
Tb336 O381 2.387 . S
Tb336 O383 2.428 . S
Tb336 O384 2.308 . S
Tb336 O388 2.349 . S
Tb336 O391 2.393 . S
Tb336 C400 2.802 . S
C337 N338 1.379 1_655 S
C337 C340 1.416 . S
C337 C344 1.424 . S
N338 C337 1.379 1_455 S
N338 C341 1.334 . S
N338 Tb347 2.617 . S
C339 C341 1.390 . S
C339 C342 1.339 . S
C339 H359 0.930 . S
C340 C337 1.416 . S
C340 C342 1.416 1_655 S
C340 C346 1.448 . S
C341 N338 1.334 . S
C341 C339 1.390 . S
C341 H352 0.930 . S
C342 C339 1.339 . S
C342 C340 1.416 1_455 S
C342 H363 0.930 . S
C343 C344 1.413 . S
C343 C345 1.427 . S
C343 C349 1.416 . S
C344 C337 1.424 . S
C344 C343 1.413 . S
C344 N348 1.361 . S
C345 C343 1.427 . S
C345 C346 1.328 . S
C345 H360 0.929 . S
C346 C340 1.448 . S
C346 C345 1.328 . S
C346 H361 0.930 . S
Tb347 N338 2.617 . S
Tb347 N348 2.572 1_455 S
Tb347 O382 2.349 . S
Tb347 O385 2.393 . S
Tb347 O386 2.465 1_455 S
Tb347 O387 2.387 . S
Tb347 O389 2.428 1_455 S
Tb347 O390 2.308 1_455 S
Tb347 C411 2.802 1_455 S
N348 C344 1.361 . S
N348 Tb347 2.572 1_655 S
N348 C350 1.340 . S
C349 C343 1.416 . S
C349 C351 1.332 . S
C349 H357 0.931 . S
C350 N348 1.340 . S
C350 C351 1.407 . S
C350 H356 0.930 . S
C351 C349 1.332 . S
C351 C350 1.407 . S
C351 H353 0.929 . S
H352 C341 0.930 . S
H353 C351 0.929 . S
H354 C369 0.930 . S
H355 C376 0.929 . S
H356 C350 0.930 . S
H357 C349 0.931 . S
H358 C372 0.930 . S
H359 C339 0.930 . S
H360 C345 0.929 . S
H361 C346 0.930 . S
H362 C367 0.931 1_655 S
H363 C342 0.930 . S
H364 C375 0.931 . S
N365 Tb336 2.617 . S
N365 C366 1.379 . S
N365 C369 1.334 . S
C366 N365 1.379 . S
C366 C368 1.416 . S
C366 C374 1.424 . S
C367 H362 0.931 1_455 S
C367 C369 1.390 . S
C367 C370 1.339 . S
C368 C366 1.416 . S
C368 C370 1.416 . S
C368 C401 1.448 . S
C369 H354 0.930 . S
C369 N365 1.334 . S
C369 C367 1.390 . S
C370 C367 1.339 . S
C370 C368 1.416 . S
C370 H377 0.930 . S
N371 Tb336 2.572 . S
N371 C372 1.340 . S
N371 C374 1.361 . S
C372 H358 0.930 . S
C372 N371 1.340 . S
C372 C376 1.407 . S
C373 C374 1.413 . S
C373 C375 1.416 . S
C373 C402 1.427 . S
C374 C366 1.424 . S
C374 N371 1.361 . S
C374 C373 1.413 . S
C375 H364 0.931 . S
C375 C373 1.416 . S
C375 C376 1.332 . S
C376 H355 0.929 . S
C376 C372 1.407 . S
C376 C375 1.332 . S
H377 C370 0.930 . S
H378 C401 0.930 . S
H379 C402 0.929 . S
O380 Tb336 2.465 . S
O380 C400 1.264 . S
O381 Tb336 2.387 . S
O381 C392 1.264 . S
O382 Tb347 2.349 . S
O382 C392 1.243 . S
O383 Tb336 2.428 . S
O383 C400 1.256 . S
O384 Tb336 2.308 . S
O384 C399 1.266 . S
O385 Tb347 2.393 . S
O385 C399 1.248 . S
O386 Tb347 2.465 1_655 S
O386 C411 1.264 . S
O387 Tb347 2.387 . S
O387 C403 1.264 . S
O388 Tb336 2.349 . S
O388 C403 1.243 . S
O389 Tb347 2.428 1_655 S
O389 C411 1.256 . S
O390 Tb347 2.308 1_655 S
O390 C410 1.266 . S
O391 Tb336 2.393 . S
O391 C410 1.248 1_455 S
C392 O381 1.264 . S
C392 O382 1.243 . S
C393 C396 1.399 . S
C393 C398 1.383 . S
C393 C400 1.496 . S
C394 C395 1.399 . S
C394 C398 1.389 . S
C395 C394 1.399 . S
C395 C397 1.380 . S
C395 H412 0.929 . S
C396 C393 1.399 . S
C396 C397 1.392 . S
C396 H413 0.929 . S
C397 C395 1.380 . S
C397 C396 1.392 . S
C397 H414 0.929 . S
C398 C393 1.383 . S
C398 C394 1.389 . S
C398 H415 0.931 . S
C399 O384 1.266 . S
C399 O385 1.248 . S
C400 Tb336 2.802 . S
C400 O380 1.264 . S
C400 O383 1.256 . S
C400 C393 1.496 . S
C401 C368 1.448 . S
C401 H378 0.930 . S
C401 C402 1.328 . S
C402 C373 1.427 . S
C402 H379 0.929 . S
C402 C401 1.328 . S
C403 O387 1.264 . S
C403 O388 1.243 . S
C404 C407 1.399 . S
C404 C408 1.383 . S
C404 C411 1.496 . S
C405 C406 1.399 . S
C405 C408 1.389 . S
C406 C405 1.399 . S
C406 C409 1.380 . S
C406 H416 0.929 . S
C407 C404 1.399 . S
C407 C409 1.392 . S
C407 H417 0.929 . S
C408 C404 1.383 . S
C408 C405 1.389 . S
C408 H418 0.931 . S
C409 C406 1.380 . S
C409 C407 1.392 . S
C409 H419 0.929 . S
C410 O390 1.266 . S
C410 O391 1.248 1_655 S
C411 Tb347 2.802 1_655 S
C411 O386 1.264 . S
C411 O389 1.256 . S
C411 C404 1.496 . S
H412 C395 0.929 . S
H413 C396 0.929 . S
H414 C397 0.929 . S
H415 C398 0.931 . S
H416 C406 0.929 . S
H417 C407 0.929 . S
H418 C408 0.931 . S
H419 C409 0.929 . S
Tb420 N449 2.617 . S
Tb420 N455 2.572 . S
Tb420 O464 2.465 . S
Tb420 O465 2.387 . S
Tb420 O467 2.428 . S
Tb420 O468 2.308 . S
Tb420 O472 2.349 . S
Tb420 O475 2.393 . S
Tb420 C484 2.802 . S
C421 N422 1.379 1_556 S
C421 C424 1.416 . S
C421 C428 1.424 . S
N422 C421 1.379 1_554 S
N422 C425 1.334 . S
N422 Tb431 2.617 . S
C423 C425 1.385 1_556 S
C423 C426 1.344 . S
C423 H443 0.929 1_556 S
C424 C421 1.416 . S
C424 C426 1.416 . S
C424 C430 1.448 . S
C425 N422 1.334 . S
C425 C423 1.385 1_554 S
C425 H436 0.930 . S
C426 C423 1.344 . S
C426 C424 1.416 . S
C426 H447 0.930 . S
C427 C428 1.413 . S
C427 C429 1.427 . S
C427 C433 1.416 . S
C428 C421 1.424 . S
C428 C427 1.413 . S
C428 N432 1.361 1_556 S
C429 C427 1.427 . S
C429 C430 1.328 . S
C429 H444 0.929 . S
C430 C424 1.448 . S
C430 C429 1.328 . S
C430 H445 0.930 . S
Tb431 N422 2.617 . S
Tb431 N432 2.572 . S
Tb431 O466 2.349 . S
Tb431 O469 2.393 . S
Tb431 O470 2.465 . S
Tb431 O471 2.387 . S
Tb431 O473 2.428 . S
Tb431 O474 2.308 . S
Tb431 C495 2.802 . S
N432 C428 1.361 1_554 S
N432 Tb431 2.572 . S
N432 C434 1.340 . S
C433 C427 1.416 . S
C433 C435 1.332 . S
C433 H441 0.931 . S
C434 N432 1.340 . S
C434 C435 1.407 1_554 S
C434 H440 0.930 . S
C435 C433 1.332 . S
C435 C434 1.407 1_556 S
C435 H437 0.929 . S
H436 C425 0.930 . S
H437 C435 0.929 . S
H438 C453 0.930 . S
H439 C460 0.929 . S
H440 C434 0.930 . S
H441 C433 0.931 . S
H442 C456 0.930 . S
H443 C423 0.929 1_554 S
H444 C429 0.929 . S
H445 C430 0.930 . S
H446 C451 0.930 . S
H447 C426 0.930 . S
H448 C459 0.931 . S
N449 Tb420 2.617 . S
N449 C450 1.379 . S
N449 C453 1.334 . S
C450 N449 1.379 . S
C450 C452 1.416 . S
C450 C458 1.424 . S
C451 H446 0.930 . S
C451 C453 1.390 . S
C451 C454 1.339 . S
C452 C450 1.416 . S
C452 C454 1.416 . S
C452 C485 1.448 . S
C453 H438 0.930 . S
C453 N449 1.334 . S
C453 C451 1.390 . S
C454 C451 1.339 . S
C454 C452 1.416 . S
C454 H461 0.930 . S
N455 Tb420 2.572 . S
N455 C456 1.340 . S
N455 C458 1.361 . S
C456 H442 0.930 . S
C456 N455 1.340 . S
C456 C460 1.407 . S
C457 C458 1.413 . S
C457 C459 1.416 . S
C457 C486 1.427 . S
C458 C450 1.424 . S
C458 N455 1.361 . S
C458 C457 1.413 . S
C459 H448 0.931 . S
C459 C457 1.416 . S
C459 C460 1.332 . S
C460 H439 0.929 . S
C460 C456 1.407 . S
C460 C459 1.332 . S
H461 C454 0.930 . S
H462 C485 0.930 . S
H463 C486 0.929 . S
O464 Tb420 2.465 . S
O464 C484 1.264 . S
O465 Tb420 2.387 . S
O465 C476 1.264 . S
O466 Tb431 2.349 . S
O466 C476 1.243 . S
O467 Tb420 2.428 . S
O467 C484 1.256 . S
O468 Tb420 2.308 . S
O468 C483 1.266 . S
O469 Tb431 2.393 . S
O469 C483 1.248 . S
O470 Tb431 2.465 . S
O470 C495 1.264 . S
O471 Tb431 2.387 . S
O471 C487 1.264 . S
O472 Tb420 2.349 . S
O472 C487 1.243 . S
O473 Tb431 2.428 . S
O473 C495 1.256 . S
O474 Tb431 2.308 . S
O474 C494 1.266 . S
O475 Tb420 2.393 . S
O475 C494 1.248 . S
C476 O465 1.264 . S
C476 O466 1.243 . S
C477 C480 1.399 . S
C477 C482 1.383 . S
C477 C484 1.496 . S
C478 C479 1.399 . S
C478 C482 1.389 . S
C479 C478 1.399 . S
C479 C481 1.380 . S
C479 H496 0.929 . S
C480 C477 1.399 . S
C480 C481 1.392 . S
C480 H497 0.929 . S
C481 C479 1.380 . S
C481 C480 1.392 . S
C481 H498 0.929 . S
C482 C477 1.383 . S
C482 C478 1.389 . S
C482 H499 0.931 . S
C483 O468 1.266 . S
C483 O469 1.248 . S
C484 Tb420 2.802 . S
C484 O464 1.264 . S
C484 O467 1.256 . S
C484 C477 1.496 . S
C485 C452 1.448 . S
C485 H462 0.930 . S
C485 C486 1.328 . S
C486 C457 1.427 . S
C486 H463 0.929 . S
C486 C485 1.328 . S
C487 O471 1.264 . S
C487 O472 1.243 . S
C488 C491 1.399 1_565 S
C488 C492 1.383 1_565 S
C488 C495 1.496 . S
C489 C490 1.399 . S
C489 C492 1.389 . S
C490 C489 1.399 . S
C490 C493 1.380 . S
C490 H500 0.929 . S
C491 C488 1.399 1_545 S
C491 C493 1.392 . S
C491 H501 0.929 . S
C492 C488 1.383 1_545 S
C492 C489 1.389 . S
C492 H502 0.927 1_545 S
C493 C490 1.380 . S
C493 C491 1.392 . S
C493 H503 0.929 . S
C494 O474 1.266 . S
C494 O475 1.248 . S
C495 Tb431 2.802 . S
C495 O470 1.264 . S
C495 O473 1.256 . S
C495 C488 1.496 . S
H496 C479 0.929 . S
H497 C480 0.929 . S
H498 C481 0.929 . S
H499 C482 0.931 . S
H500 C490 0.929 . S
H501 C491 0.929 . S
H502 C492 0.927 1_565 S
H503 C493 0.929 . S
Tb504 N533 2.617 . S
Tb504 N539 2.572 . S
Tb504 O548 2.465 . S
Tb504 O549 2.387 . S
Tb504 O551 2.428 . S
Tb504 O552 2.308 . S
Tb504 O556 2.349 . S
Tb504 O559 2.393 . S
Tb504 C568 2.802 . S
C505 N506 1.379 . S
C505 C508 1.416 . S
C505 C512 1.424 . S
N506 C505 1.379 . S
N506 C509 1.334 . S
N506 Tb515 2.617 . S
C507 C509 1.390 . S
C507 C510 1.339 . S
C507 H527 0.930 . S
C508 C505 1.416 . S
C508 C510 1.416 . S
C508 C514 1.448 . S
C509 N506 1.334 . S
C509 C507 1.390 . S
C509 H520 0.930 . S
C510 C507 1.339 . S
C510 C508 1.416 . S
C510 H531 0.930 . S
C511 C512 1.413 . S
C511 C513 1.427 . S
C511 C517 1.416 . S
C512 C505 1.424 . S
C512 C511 1.413 . S
C512 N516 1.361 . S
C513 C511 1.427 . S
C513 C514 1.328 . S
C513 H528 0.929 . S
C514 C508 1.448 . S
C514 C513 1.328 . S
C514 H529 0.930 . S
Tb515 N506 2.617 . S
Tb515 N516 2.572 . S
Tb515 O550 2.349 . S
Tb515 O553 2.393 . S
Tb515 O554 2.465 . S
Tb515 O555 2.387 . S
Tb515 O557 2.428 . S
Tb515 O558 2.308 . S
Tb515 C579 2.802 . S
N516 C512 1.361 . S
N516 Tb515 2.572 . S
N516 C518 1.340 . S
C517 C511 1.416 . S
C517 C519 1.332 . S
C517 H525 0.931 . S
C518 N516 1.340 . S
C518 C519 1.407 . S
C518 H524 0.930 . S
C519 C517 1.332 . S
C519 C518 1.407 . S
C519 H521 0.929 . S
H520 C509 0.930 . S
H521 C519 0.929 . S
H522 C537 0.930 . S
H523 C544 0.929 . S
H524 C518 0.930 . S
H525 C517 0.931 . S
H526 C540 0.930 . S
H527 C507 0.930 . S
H528 C513 0.929 . S
H529 C514 0.930 . S
H530 C535 0.930 . S
H531 C510 0.930 . S
H532 C543 0.931 . S
N533 Tb504 2.617 . S
N533 C534 1.379 . S
N533 C537 1.334 . S
C534 N533 1.379 . S
C534 C536 1.416 . S
C534 C542 1.424 . S
C535 H530 0.930 . S
C535 C537 1.390 . S
C535 C538 1.339 . S
C536 C534 1.416 . S
C536 C538 1.416 . S
C536 C569 1.448 . S
C537 H522 0.930 . S
C537 N533 1.334 . S
C537 C535 1.390 . S
C538 C535 1.339 . S
C538 C536 1.416 . S
C538 H545 0.930 . S
N539 Tb504 2.572 . S
N539 C540 1.340 . S
N539 C542 1.361 . S
C540 H526 0.930 . S
C540 N539 1.340 . S
C540 C544 1.407 . S
C541 C542 1.413 . S
C541 C543 1.416 . S
C541 C570 1.427 . S
C542 C534 1.424 . S
C542 N539 1.361 . S
C542 C541 1.413 . S
C543 H532 0.931 . S
C543 C541 1.416 . S
C543 C544 1.332 . S
C544 H523 0.929 . S
C544 C540 1.407 . S
C544 C543 1.332 . S
H545 C538 0.930 . S
H546 C569 0.930 . S
H547 C570 0.929 . S
O548 Tb504 2.465 . S
O548 C568 1.264 . S
O549 Tb504 2.387 . S
O549 C560 1.264 . S
O550 Tb515 2.349 . S
O550 C560 1.243 . S
O551 Tb504 2.428 . S
O551 C568 1.256 . S
O552 Tb504 2.308 . S
O552 C567 1.266 . S
O553 Tb515 2.393 . S
O553 C567 1.248 . S
O554 Tb515 2.465 . S
O554 C579 1.264 . S
O555 Tb515 2.387 . S
O555 C571 1.264 . S
O556 Tb504 2.349 . S
O556 C571 1.243 . S
O557 Tb515 2.428 . S
O557 C579 1.256 . S
O558 Tb515 2.308 . S
O558 C578 1.266 . S
O559 Tb504 2.393 . S
O559 C578 1.248 . S
C560 O549 1.264 . S
C560 O550 1.243 . S
C561 C564 1.399 . S
C561 C566 1.383 . S
C561 C568 1.496 . S
C562 C563 1.399 . S
C562 C566 1.389 . S
C563 C562 1.399 . S
C563 C565 1.380 . S
C563 H580 0.929 . S
C564 C561 1.399 . S
C564 C565 1.392 . S
C564 H581 0.929 . S
C565 C563 1.380 . S
C565 C564 1.392 . S
C565 H582 0.929 . S
C566 C561 1.383 . S
C566 C562 1.389 . S
C566 H583 0.931 . S
C567 O552 1.266 . S
C567 O553 1.248 . S
C568 Tb504 2.802 . S
C568 O548 1.264 . S
C568 O551 1.256 . S
C568 C561 1.496 . S
C569 C536 1.448 . S
C569 H546 0.930 . S
C569 C570 1.328 . S
C570 C541 1.427 . S
C570 H547 0.929 . S
C570 C569 1.328 . S
C571 O555 1.264 . S
C571 O556 1.243 . S
C572 C575 1.399 . S
C572 C576 1.383 . S
C572 C579 1.496 . S
C573 C574 1.399 . S
C573 C576 1.389 . S
C574 C573 1.399 . S
C574 C577 1.380 . S
C574 H584 0.929 . S
C575 C572 1.399 . S
C575 C577 1.392 . S
C575 H585 0.929 . S
C576 C572 1.383 . S
C576 C573 1.389 . S
C576 H586 0.931 . S
C577 C574 1.380 . S
C577 C575 1.392 . S
C577 H587 0.929 . S
C578 O558 1.266 . S
C578 O559 1.248 . S
C579 Tb515 2.802 . S
C579 O554 1.264 . S
C579 O557 1.256 . S
C579 C572 1.496 . S
H580 C563 0.929 . S
H581 C564 0.929 . S
H582 C565 0.929 . S
H583 C566 0.931 . S
H584 C574 0.929 . S
H585 C575 0.929 . S
H586 C576 0.931 . S
H587 C577 0.929 . S
Tb588 N617 2.617 . S
Tb588 N623 2.572 . S
Tb588 O632 2.465 . S
Tb588 O633 2.387 . S
Tb588 O635 2.428 . S
Tb588 O636 2.308 . S
Tb588 O640 2.349 . S
Tb588 O643 2.393 . S
Tb588 C652 2.802 . S
C589 N590 1.379 . S
C589 C592 1.416 . S
C589 C596 1.424 . S
N590 C589 1.379 . S
N590 C593 1.334 . S
N590 Tb599 2.617 . S
C591 C593 1.390 . S
C591 C594 1.339 . S
C591 H611 0.930 . S
C592 C589 1.416 . S
C592 C594 1.416 . S
C592 C598 1.448 . S
C593 N590 1.334 . S
C593 C591 1.390 . S
C593 H604 0.930 . S
C594 C591 1.339 . S
C594 C592 1.416 . S
C594 H615 0.930 . S
C595 C596 1.413 . S
C595 C597 1.427 . S
C595 C601 1.416 . S
C596 C589 1.424 . S
C596 C595 1.413 . S
C596 N600 1.361 . S
C597 C595 1.427 . S
C597 C598 1.328 . S
C597 H612 0.929 . S
C598 C592 1.448 . S
C598 C597 1.328 . S
C598 H613 0.930 . S
Tb599 N590 2.617 . S
Tb599 N600 2.572 . S
Tb599 O634 2.349 . S
Tb599 O637 2.393 . S
Tb599 O638 2.465 . S
Tb599 O639 2.387 . S
Tb599 O641 2.428 . S
Tb599 O642 2.308 . S
Tb599 C663 2.802 . S
N600 C596 1.361 . S
N600 Tb599 2.572 . S
N600 C602 1.340 . S
C601 C595 1.416 . S
C601 C603 1.332 . S
C601 H609 0.931 . S
C602 N600 1.340 . S
C602 C603 1.407 . S
C602 H608 0.930 . S
C603 C601 1.332 . S
C603 C602 1.407 . S
C603 H605 0.929 . S
H604 C593 0.930 . S
H605 C603 0.929 . S
H606 C621 0.930 . S
H607 C628 0.929 . S
H608 C602 0.930 . S
H609 C601 0.931 . S
H610 C624 0.930 . S
H611 C591 0.930 . S
H612 C597 0.929 . S
H613 C598 0.930 . S
H614 C619 0.930 . S
H615 C594 0.930 . S
H616 C627 0.931 . S
N617 Tb588 2.617 . S
N617 C618 1.379 . S
N617 C621 1.334 . S
C618 N617 1.379 . S
C618 C620 1.416 . S
C618 C626 1.424 . S
C619 H614 0.930 . S
C619 C621 1.390 . S
C619 C622 1.339 . S
C620 C618 1.416 . S
C620 C622 1.416 . S
C620 C653 1.448 . S
C621 H606 0.930 . S
C621 N617 1.334 . S
C621 C619 1.390 . S
C622 C619 1.339 . S
C622 C620 1.416 . S
C622 H629 0.930 . S
N623 Tb588 2.572 . S
N623 C624 1.340 . S
N623 C626 1.361 . S
C624 H610 0.930 . S
C624 N623 1.340 . S
C624 C628 1.407 . S
C625 C626 1.413 . S
C625 C627 1.416 . S
C625 C654 1.427 . S
C626 C618 1.424 . S
C626 N623 1.361 . S
C626 C625 1.413 . S
C627 H616 0.931 . S
C627 C625 1.416 . S
C627 C628 1.332 . S
C628 H607 0.929 . S
C628 C624 1.407 . S
C628 C627 1.332 . S
H629 C622 0.930 . S
H630 C653 0.930 . S
H631 C654 0.929 . S
O632 Tb588 2.465 . S
O632 C652 1.264 . S
O633 Tb588 2.387 . S
O633 C644 1.264 . S
O634 Tb599 2.349 . S
O634 C644 1.243 . S
O635 Tb588 2.428 . S
O635 C652 1.256 . S
O636 Tb588 2.308 . S
O636 C651 1.266 . S
O637 Tb599 2.393 . S
O637 C651 1.248 . S
O638 Tb599 2.465 . S
O638 C663 1.264 . S
O639 Tb599 2.387 . S
O639 C655 1.264 . S
O640 Tb588 2.349 . S
O640 C655 1.243 . S
O641 Tb599 2.428 . S
O641 C663 1.256 . S
O642 Tb599 2.308 . S
O642 C662 1.266 . S
O643 Tb588 2.393 . S
O643 C662 1.248 . S
C644 O633 1.264 . S
C644 O634 1.243 . S
C645 C648 1.399 . S
C645 C650 1.383 . S
C645 C652 1.496 . S
C646 C647 1.399 . S
C646 C650 1.389 . S
C647 C646 1.399 . S
C647 C649 1.380 . S
C647 H664 0.929 . S
C648 C645 1.399 . S
C648 C649 1.392 . S
C648 H665 0.929 . S
C649 C647 1.380 . S
C649 C648 1.392 . S
C649 H666 0.929 . S
C650 C645 1.383 . S
C650 C646 1.389 . S
C650 H667 0.931 . S
C651 O636 1.266 . S
C651 O637 1.248 . S
C652 Tb588 2.802 . S
C652 O632 1.264 . S
C652 O635 1.256 . S
C652 C645 1.496 . S
C653 C620 1.448 . S
C653 H630 0.930 . S
C653 C654 1.328 . S
C654 C625 1.427 . S
C654 H631 0.929 . S
C654 C653 1.328 . S
C655 O639 1.264 . S
C655 O640 1.243 . S
C656 C659 1.399 . S
C656 C660 1.383 . S
C656 C663 1.496 . S
C657 C658 1.399 1_545 S
C657 C660 1.389 . S
C658 C657 1.399 1_565 S
C658 C661 1.380 1_565 S
C658 H668 0.929 . S
C659 C656 1.399 . S
C659 C661 1.392 . S
C659 H669 0.929 . S
C660 C656 1.383 . S
C660 C657 1.389 . S
C660 H670 0.931 . S
C661 C658 1.380 1_545 S
C661 C659 1.392 . S
C661 H671 0.929 . S
C662 O642 1.266 . S
C662 O643 1.248 . S
C663 Tb599 2.802 . S
C663 O638 1.264 . S
C663 O641 1.256 . S
C663 C656 1.496 . S
H664 C647 0.929 . S
H665 C648 0.929 . S
H666 C649 0.929 . S
H667 C650 0.931 . S
H668 C658 0.929 . S
H669 C659 0.929 . S
H670 C660 0.931 . S
H671 C661 0.929 . S
Tb672 N701 2.617 . S
Tb672 N707 2.572 . S
Tb672 O716 2.465 . S
Tb672 O717 2.387 . S
Tb672 O719 2.428 . S
Tb672 O720 2.308 . S
Tb672 O724 2.349 . S
Tb672 O727 2.393 . S
Tb672 C736 2.802 . S
C673 N674 1.379 . S
C673 C676 1.416 . S
C673 C680 1.424 . S
N674 C673 1.379 . S
N674 C677 1.334 . S
N674 Tb683 2.617 . S
C675 C677 1.390 . S
C675 C678 1.339 . S
C675 H695 0.930 . S
C676 C673 1.416 . S
C676 C678 1.416 . S
C676 C682 1.448 . S
C677 N674 1.334 . S
C677 C675 1.390 . S
C677 H688 0.930 . S
C678 C675 1.339 . S
C678 C676 1.416 . S
C678 H699 0.930 . S
C679 C680 1.413 . S
C679 C681 1.427 . S
C679 C685 1.416 . S
C680 C673 1.424 . S
C680 C679 1.413 . S
C680 N684 1.361 . S
C681 C679 1.427 . S
C681 C682 1.328 . S
C681 H696 0.929 . S
C682 C676 1.448 . S
C682 C681 1.328 . S
C682 H697 0.930 . S
Tb683 N674 2.617 . S
Tb683 N684 2.572 . S
Tb683 O718 2.349 . S
Tb683 O721 2.393 . S
Tb683 O722 2.465 . S
Tb683 O723 2.387 . S
Tb683 O725 2.428 . S
Tb683 O726 2.308 . S
Tb683 C747 2.802 . S
N684 C680 1.361 . S
N684 Tb683 2.572 . S
N684 C686 1.340 . S
C685 C679 1.416 . S
C685 C687 1.332 . S
C685 H693 0.931 . S
C686 N684 1.340 . S
C686 C687 1.407 . S
C686 H692 0.930 . S
C687 C685 1.332 . S
C687 C686 1.407 . S
C687 H689 0.929 . S
H688 C677 0.930 . S
H689 C687 0.929 . S
H690 C705 0.930 . S
H691 C712 0.929 . S
H692 C686 0.930 . S
H693 C685 0.931 . S
H694 C708 0.930 . S
H695 C675 0.930 . S
H696 C681 0.929 . S
H697 C682 0.930 . S
H698 C703 0.930 . S
H699 C678 0.930 . S
H700 C711 0.931 . S
N701 Tb672 2.617 . S
N701 C702 1.379 . S
N701 C705 1.334 . S
C702 N701 1.379 . S
C702 C704 1.416 . S
C702 C710 1.424 . S
C703 H698 0.930 . S
C703 C705 1.390 . S
C703 C706 1.339 . S
C704 C702 1.416 . S
C704 C706 1.416 . S
C704 C737 1.448 . S
C705 H690 0.930 . S
C705 N701 1.334 . S
C705 C703 1.390 . S
C706 C703 1.339 . S
C706 C704 1.416 . S
C706 H713 0.930 . S
N707 Tb672 2.572 . S
N707 C708 1.340 . S
N707 C710 1.361 . S
C708 H694 0.930 . S
C708 N707 1.340 . S
C708 C712 1.407 . S
C709 C710 1.413 . S
C709 C711 1.416 . S
C709 C738 1.427 . S
C710 C702 1.424 . S
C710 N707 1.361 . S
C710 C709 1.413 . S
C711 H700 0.931 . S
C711 C709 1.416 . S
C711 C712 1.332 . S
C712 H691 0.929 . S
C712 C708 1.407 . S
C712 C711 1.332 . S
H713 C706 0.930 . S
H714 C737 0.930 . S
H715 C738 0.929 . S
O716 Tb672 2.465 . S
O716 C736 1.264 . S
O717 Tb672 2.387 . S
O717 C728 1.264 . S
O718 Tb683 2.349 . S
O718 C728 1.243 . S
O719 Tb672 2.428 . S
O719 C736 1.256 . S
O720 Tb672 2.308 . S
O720 C735 1.266 . S
O721 Tb683 2.393 . S
O721 C735 1.248 . S
O722 Tb683 2.465 . S
O722 C747 1.264 . S
O723 Tb683 2.387 . S
O723 C739 1.264 . S
O724 Tb672 2.349 . S
O724 C739 1.243 . S
O725 Tb683 2.428 . S
O725 C747 1.256 . S
O726 Tb683 2.308 . S
O726 C746 1.266 . S
O727 Tb672 2.393 . S
O727 C746 1.248 . S
C728 O717 1.264 . S
C728 O718 1.243 . S
C729 C732 1.399 . S
C729 C734 1.383 . S
C729 C736 1.496 . S
C730 C731 1.399 . S
C730 C734 1.389 . S
C731 C730 1.399 . S
C731 C733 1.380 . S
C731 H748 0.929 . S
C732 C729 1.399 . S
C732 C733 1.392 . S
C732 H749 0.929 . S
C733 C731 1.380 . S
C733 C732 1.392 . S
C733 H750 0.929 . S
C734 C729 1.383 . S
C734 C730 1.389 . S
C734 H751 0.931 . S
C735 O720 1.266 . S
C735 O721 1.248 . S
C736 Tb672 2.802 . S
C736 O716 1.264 . S
C736 O719 1.256 . S
C736 C729 1.496 . S
C737 C704 1.448 . S
C737 H714 0.930 . S
C737 C738 1.328 . S
C738 C709 1.427 . S
C738 H715 0.929 . S
C738 C737 1.328 . S
C739 O723 1.264 . S
C739 O724 1.243 . S
C740 C743 1.399 . S
C740 C744 1.383 . S
C740 C747 1.496 . S
C741 C742 1.399 . S
C741 C744 1.389 . S
C742 C741 1.399 . S
C742 C745 1.380 . S
C742 H752 0.929 . S
C743 C740 1.399 . S
C743 C745 1.392 . S
C743 H753 0.929 . S
C744 C740 1.383 . S
C744 C741 1.389 . S
C744 H754 0.931 . S
C745 C742 1.380 . S
C745 C743 1.392 . S
C745 H755 0.929 . S
C746 O726 1.266 . S
C746 O727 1.248 . S
C747 Tb683 2.802 . S
C747 O722 1.264 . S
C747 O725 1.256 . S
C747 C740 1.496 . S
H748 C731 0.929 . S
H749 C732 0.929 . S
H750 C733 0.929 . S
H751 C734 0.931 . S
H752 C742 0.929 . S
H753 C743 0.929 . S
H754 C744 0.931 . S
H755 C745 0.929 . S
Tb756 N785 2.617 . S
Tb756 N791 2.572 . S
Tb756 O800 2.465 . S
Tb756 O801 2.387 . S
Tb756 O803 2.428 . S
Tb756 O804 2.308 . S
Tb756 O808 2.349 . S
Tb756 O811 2.393 . S
Tb756 C820 2.802 . S
C757 N758 1.379 . S
C757 C760 1.416 . S
C757 C764 1.424 . S
N758 C757 1.379 . S
N758 C761 1.334 . S
N758 Tb767 2.617 . S
C759 C761 1.390 . S
C759 C762 1.339 . S
C759 H779 0.930 . S
C760 C757 1.416 . S
C760 C762 1.416 . S
C760 C766 1.448 . S
C761 N758 1.334 . S
C761 C759 1.390 . S
C761 H772 0.930 . S
C762 C759 1.339 . S
C762 C760 1.416 . S
C762 H783 0.930 . S
C763 C764 1.413 . S
C763 C765 1.427 . S
C763 C769 1.416 . S
C764 C757 1.424 . S
C764 C763 1.413 . S
C764 N768 1.361 . S
C765 C763 1.427 . S
C765 C766 1.328 . S
C765 H780 0.929 . S
C766 C760 1.448 . S
C766 C765 1.328 . S
C766 H781 0.930 . S
Tb767 N758 2.617 . S
Tb767 N768 2.572 . S
Tb767 O802 2.349 . S
Tb767 O805 2.393 . S
Tb767 O806 2.465 . S
Tb767 O807 2.387 . S
Tb767 O809 2.428 . S
Tb767 O810 2.308 . S
Tb767 C831 2.802 . S
N768 C764 1.361 . S
N768 Tb767 2.572 . S
N768 C770 1.340 . S
C769 C763 1.416 . S
C769 C771 1.332 . S
C769 H777 0.931 . S
C770 N768 1.340 . S
C770 C771 1.407 . S
C770 H776 0.930 . S
C771 C769 1.332 . S
C771 C770 1.407 . S
C771 H773 0.929 . S
H772 C761 0.930 . S
H773 C771 0.929 . S
H774 C789 0.930 . S
H775 C796 0.929 . S
H776 C770 0.930 . S
H777 C769 0.931 . S
H778 C792 0.930 . S
H779 C759 0.930 . S
H780 C765 0.929 . S
H781 C766 0.930 . S
H782 C787 0.930 . S
H783 C762 0.930 . S
H784 C795 0.931 . S
N785 Tb756 2.617 . S
N785 C786 1.379 1_554 S
N785 C789 1.334 . S
C786 N785 1.379 1_556 S
C786 C788 1.416 . S
C786 C794 1.424 . S
C787 H782 0.930 . S
C787 C789 1.390 1_556 S
C787 C790 1.339 . S
C788 C786 1.416 . S
C788 C790 1.416 . S
C788 C821 1.448 . S
C789 H774 0.930 . S
C789 N785 1.334 . S
C789 C787 1.390 1_554 S
C790 C787 1.339 . S
C790 C788 1.416 . S
C790 H797 0.930 . S
N791 Tb756 2.572 . S
N791 C792 1.340 . S
N791 C794 1.361 1_554 S
C792 H778 0.930 . S
C792 N791 1.340 . S
C792 C796 1.407 1_554 S
C793 C794 1.413 . S
C793 C795 1.416 . S
C793 C822 1.427 . S
C794 C786 1.424 . S
C794 N791 1.361 1_556 S
C794 C793 1.413 . S
C795 H784 0.931 . S
C795 C793 1.416 . S
C795 C796 1.332 . S
C796 H775 0.929 . S
C796 C792 1.407 1_556 S
C796 C795 1.332 . S
H797 C790 0.930 . S
H798 C821 0.930 . S
H799 C822 0.929 . S
O800 Tb756 2.465 . S
O800 C820 1.264 . S
O801 Tb756 2.387 . S
O801 C812 1.264 . S
O802 Tb767 2.349 . S
O802 C812 1.243 . S
O803 Tb756 2.428 . S
O803 C820 1.256 . S
O804 Tb756 2.308 . S
O804 C819 1.266 . S
O805 Tb767 2.393 . S
O805 C819 1.248 . S
O806 Tb767 2.465 . S
O806 C831 1.264 . S
O807 Tb767 2.387 . S
O807 C823 1.264 . S
O808 Tb756 2.349 . S
O808 C823 1.243 . S
O809 Tb767 2.428 . S
O809 C831 1.256 . S
O810 Tb767 2.308 . S
O810 C830 1.266 . S
O811 Tb756 2.393 . S
O811 C830 1.248 . S
C812 O801 1.264 . S
C812 O802 1.243 . S
C813 C816 1.399 . S
C813 C818 1.383 . S
C813 C820 1.496 . S
C814 C815 1.399 1_565 S
C814 C818 1.389 . S
C815 C814 1.399 1_545 S
C815 C817 1.380 1_545 S
C815 H832 0.929 . S
C816 C813 1.399 . S
C816 C817 1.392 . S
C816 H833 0.929 . S
C817 C815 1.380 1_565 S
C817 C816 1.392 . S
C817 H834 0.929 . S
C818 C813 1.383 . S
C818 C814 1.389 . S
C818 H835 0.931 . S
C819 O804 1.266 . S
C819 O805 1.248 . S
C820 Tb756 2.802 . S
C820 O800 1.264 . S
C820 O803 1.256 . S
C820 C813 1.496 . S
C821 C788 1.448 . S
C821 H798 0.930 . S
C821 C822 1.328 . S
C822 C793 1.427 . S
C822 H799 0.929 . S
C822 C821 1.328 . S
C823 O807 1.264 . S
C823 O808 1.243 . S
C824 C827 1.399 . S
C824 C828 1.383 . S
C824 C831 1.496 . S
C825 C826 1.399 . S
C825 C828 1.389 . S
C826 C825 1.399 . S
C826 C829 1.380 . S
C826 H836 0.929 . S
C827 C824 1.399 . S
C827 C829 1.392 . S
C827 H837 0.929 . S
C828 C824 1.383 . S
C828 C825 1.389 . S
C828 H838 0.931 . S
C829 C826 1.380 . S
C829 C827 1.392 . S
C829 H839 0.929 . S
C830 O810 1.266 . S
C830 O811 1.248 . S
C831 Tb767 2.802 . S
C831 O806 1.264 . S
C831 O809 1.256 . S
C831 C824 1.496 . S
H832 C815 0.929 . S
H833 C816 0.929 . S
H834 C817 0.929 . S
H835 C818 0.931 . S
H836 C826 0.929 . S
H837 C827 0.929 . S
H838 C828 0.931 . S
H839 C829 0.929 . S
Tb840 N869 2.617 1_556 S
Tb840 N875 2.572 1_556 S
Tb840 O884 2.465 . S
Tb840 O885 2.387 . S
Tb840 O887 2.428 . S
Tb840 O888 2.308 . S
Tb840 O892 2.349 . S
Tb840 O895 2.393 . S
Tb840 C904 2.802 . S
C841 N842 1.379 . S
C841 C844 1.416 . S
C841 C848 1.424 . S
N842 C841 1.379 . S
N842 C845 1.334 . S
N842 Tb851 2.617 . S
C843 C845 1.390 . S
C843 C846 1.339 . S
C843 H863 0.930 . S
C844 C841 1.416 . S
C844 C846 1.416 . S
C844 C850 1.448 . S
C845 N842 1.334 . S
C845 C843 1.390 . S
C845 H856 0.930 . S
C846 C843 1.339 . S
C846 C844 1.416 . S
C846 H867 0.930 . S
C847 C848 1.413 . S
C847 C849 1.427 . S
C847 C853 1.416 . S
C848 C841 1.424 . S
C848 C847 1.413 . S
C848 N852 1.361 . S
C849 C847 1.427 . S
C849 C850 1.328 . S
C849 H864 0.929 . S
C850 C844 1.448 . S
C850 C849 1.328 . S
C850 H865 0.930 . S
Tb851 N842 2.617 . S
Tb851 N852 2.572 . S
Tb851 O886 2.349 . S
Tb851 O889 2.393 . S
Tb851 O890 2.465 . S
Tb851 O891 2.387 . S
Tb851 O893 2.428 . S
Tb851 O894 2.308 . S
Tb851 C915 2.802 . S
N852 C848 1.361 . S
N852 Tb851 2.572 . S
N852 C854 1.340 . S
C853 C847 1.416 . S
C853 C855 1.332 . S
C853 H861 0.931 . S
C854 N852 1.340 . S
C854 C855 1.407 . S
C854 H860 0.930 . S
C855 C853 1.332 . S
C855 C854 1.407 . S
C855 H857 0.929 . S
H856 C845 0.930 . S
H857 C855 0.929 . S
H858 C873 0.930 1_556 S
H859 C880 0.929 . S
H860 C854 0.930 . S
H861 C853 0.931 . S
H862 C876 0.930 1_556 S
H863 C843 0.930 . S
H864 C849 0.929 . S
H865 C850 0.930 . S
H866 C871 0.930 . S
H867 C846 0.930 . S
H868 C879 0.931 . S
N869 Tb840 2.617 1_554 S
N869 C870 1.379 . S
N869 C873 1.334 . S
C870 N869 1.379 . S
C870 C872 1.416 . S
C870 C878 1.424 . S
C871 H866 0.930 . S
C871 C873 1.390 . S
C871 C874 1.339 . S
C872 C870 1.416 . S
C872 C874 1.416 . S
C872 C905 1.448 . S
C873 H858 0.930 1_554 S
C873 N869 1.334 . S
C873 C871 1.390 . S
C874 C871 1.339 . S
C874 C872 1.416 . S
C874 H881 0.930 . S
N875 Tb840 2.572 1_554 S
N875 C876 1.340 . S
N875 C878 1.361 . S
C876 H862 0.930 1_554 S
C876 N875 1.340 . S
C876 C880 1.407 . S
C877 C878 1.413 . S
C877 C879 1.416 . S
C877 C906 1.427 . S
C878 C870 1.424 . S
C878 N875 1.361 . S
C878 C877 1.413 . S
C879 H868 0.931 . S
C879 C877 1.416 . S
C879 C880 1.332 . S
C880 H859 0.929 . S
C880 C876 1.407 . S
C880 C879 1.332 . S
H881 C874 0.930 . S
H882 C905 0.930 . S
H883 C906 0.929 . S
O884 Tb840 2.465 . S
O884 C904 1.264 . S
O885 Tb840 2.387 . S
O885 C896 1.264 . S
O886 Tb851 2.349 . S
O886 C896 1.243 . S
O887 Tb840 2.428 . S
O887 C904 1.256 . S
O888 Tb840 2.308 . S
O888 C903 1.266 . S
O889 Tb851 2.393 . S
O889 C903 1.248 . S
O890 Tb851 2.465 . S
O890 C915 1.264 . S
O891 Tb851 2.387 . S
O891 C907 1.264 . S
O892 Tb840 2.349 . S
O892 C907 1.243 . S
O893 Tb851 2.428 . S
O893 C915 1.256 . S
O894 Tb851 2.308 . S
O894 C914 1.266 . S
O895 Tb840 2.393 . S
O895 C914 1.248 . S
C896 O885 1.264 . S
C896 O886 1.243 . S
C897 C900 1.399 . S
C897 C902 1.383 . S
C897 C904 1.496 . S
C898 C899 1.399 . S
C898 C902 1.389 . S
C899 C898 1.399 . S
C899 C901 1.380 . S
C899 H916 0.929 . S
C900 C897 1.399 . S
C900 C901 1.392 . S
C900 H917 0.929 . S
C901 C899 1.380 . S
C901 C900 1.392 . S
C901 H918 0.929 . S
C902 C897 1.383 . S
C902 C898 1.389 . S
C902 H919 0.931 . S
C903 O888 1.266 . S
C903 O889 1.248 . S
C904 Tb840 2.802 . S
C904 O884 1.264 . S
C904 O887 1.256 . S
C904 C897 1.496 . S
C905 C872 1.448 . S
C905 H882 0.930 . S
C905 C906 1.328 . S
C906 C877 1.427 . S
C906 H883 0.929 . S
C906 C905 1.328 . S
C907 O891 1.264 . S
C907 O892 1.243 . S
C908 C911 1.399 . S
C908 C912 1.383 . S
C908 C915 1.496 . S
C909 C910 1.399 . S
C909 C912 1.389 . S
C910 C909 1.399 . S
C910 C913 1.380 . S
C910 H920 0.929 . S
C911 C908 1.399 . S
C911 C913 1.392 . S
C911 H921 0.929 . S
C912 C908 1.383 . S
C912 C909 1.389 . S
C912 H922 0.931 . S
C913 C910 1.380 . S
C913 C911 1.392 . S
C913 H923 0.929 . S
C914 O894 1.266 . S
C914 O895 1.248 . S
C915 Tb851 2.802 . S
C915 O890 1.264 . S
C915 O893 1.256 . S
C915 C908 1.496 . S
H916 C899 0.929 . S
H917 C900 0.929 . S
H918 C901 0.929 . S
H919 C902 0.931 . S
H920 C910 0.929 . S
H921 C911 0.929 . S
H922 C912 0.931 . S
H923 C913 0.929 . S
Tb924 N953 2.617 . S
Tb924 N959 2.572 . S
Tb924 O968 2.465 1_565 S
Tb924 O969 2.387 . S
Tb924 O971 2.428 1_565 S
Tb924 O972 2.308 . S
Tb924 O976 2.349 1_565 S
Tb924 O979 2.393 . S
Tb924 C988 2.802 1_565 S
C925 N926 1.379 1_545 S
C925 C928 1.416 . S
C925 C932 1.424 1_545 S
N926 C925 1.379 1_565 S
N926 C929 1.334 . S
N926 Tb935 2.617 . S
C927 C929 1.390 1_545 S
C927 C930 1.339 . S
C927 H947 0.930 . S
C928 C925 1.416 . S
C928 C930 1.416 . S
C928 C934 1.448 . S
C929 N926 1.334 . S
C929 C927 1.390 1_565 S
C929 H940 0.930 . S
C930 C927 1.339 . S
C930 C928 1.416 . S
C930 H951 0.930 . S
C931 C932 1.413 1_545 S
C931 C933 1.427 . S
C931 C937 1.416 . S
C932 C925 1.424 1_565 S
C932 C931 1.413 1_565 S
C932 N936 1.361 . S
C933 C931 1.427 . S
C933 C934 1.328 . S
C933 H948 0.929 . S
C934 C928 1.448 . S
C934 C933 1.328 . S
C934 H949 0.930 . S
Tb935 N926 2.617 . S
Tb935 N936 2.572 . S
Tb935 O970 2.349 . S
Tb935 O973 2.393 . S
Tb935 O974 2.465 . S
Tb935 O975 2.387 1_565 S
Tb935 O977 2.428 . S
Tb935 O978 2.308 . S
Tb935 C999 2.802 . S
N936 C932 1.361 . S
N936 Tb935 2.572 . S
N936 C938 1.340 . S
C937 C931 1.416 . S
C937 C939 1.332 1_545 S
C937 H945 0.931 . S
C938 N936 1.340 . S
C938 C939 1.407 . S
C938 H944 0.930 . S
C939 C937 1.332 1_565 S
C939 C938 1.407 . S
C939 H941 0.929 . S
H940 C929 0.930 . S
H941 C939 0.929 . S
H942 C957 0.930 . S
H943 C964 0.929 . S
H944 C938 0.930 . S
H945 C937 0.931 . S
H946 C960 0.930 . S
H947 C927 0.930 . S
H948 C933 0.929 . S
H949 C934 0.930 . S
H950 C955 0.930 . S
H951 C930 0.930 . S
H952 C963 0.931 . S
N953 Tb924 2.617 . S
N953 C954 1.379 . S
N953 C957 1.334 . S
C954 N953 1.379 . S
C954 C956 1.416 . S
C954 C962 1.424 . S
C955 H950 0.930 . S
C955 C957 1.390 . S
C955 C958 1.339 . S
C956 C954 1.416 . S
C956 C958 1.416 . S
C956 C989 1.448 . S
C957 H942 0.930 . S
C957 N953 1.334 . S
C957 C955 1.390 . S
C958 C955 1.339 . S
C958 C956 1.416 . S
C958 H965 0.930 . S
N959 Tb924 2.572 . S
N959 C960 1.340 . S
N959 C962 1.361 . S
C960 H946 0.930 . S
C960 N959 1.340 . S
C960 C964 1.407 . S
C961 C962 1.413 . S
C961 C963 1.416 . S
C961 C990 1.427 . S
C962 C954 1.424 . S
C962 N959 1.361 . S
C962 C961 1.413 . S
C963 H952 0.931 . S
C963 C961 1.416 . S
C963 C964 1.332 . S
C964 H943 0.929 . S
C964 C960 1.407 . S
C964 C963 1.332 . S
H965 C958 0.930 . S
H966 C989 0.930 . S
H967 C990 0.929 . S
O968 Tb924 2.465 1_545 S
O968 C988 1.264 . S
O969 Tb924 2.387 . S
O969 C980 1.264 . S
O970 Tb935 2.349 . S
O970 C980 1.243 . S
O971 Tb924 2.428 1_545 S
O971 C988 1.256 . S
O972 Tb924 2.308 . S
O972 C987 1.266 . S
O973 Tb935 2.393 . S
O973 C987 1.248 . S
O974 Tb935 2.465 . S
O974 C999 1.264 . S
O975 Tb935 2.387 1_545 S
O975 C991 1.264 . S
O976 Tb924 2.349 1_545 S
O976 C991 1.243 . S
O977 Tb935 2.428 . S
O977 C999 1.256 . S
O978 Tb935 2.308 . S
O978 C998 1.266 . S
O979 Tb924 2.393 . S
O979 C998 1.248 . S
C980 O969 1.264 . S
C980 O970 1.243 . S
C981 C984 1.399 . S
C981 C986 1.383 . S
C981 C988 1.496 . S
C982 C983 1.399 . S
C982 C986 1.389 . S
C983 C982 1.399 . S
C983 C985 1.380 . S
C983 H1000 0.929 . S
C984 C981 1.399 . S
C984 C985 1.392 . S
C984 H1001 0.929 . S
C985 C983 1.380 . S
C985 C984 1.392 . S
C985 H1002 0.929 . S
C986 C981 1.383 . S
C986 C982 1.389 . S
C986 H1003 0.931 . S
C987 O972 1.266 . S
C987 O973 1.248 . S
C988 Tb924 2.802 1_545 S
C988 O968 1.264 . S
C988 O971 1.256 . S
C988 C981 1.496 . S
C989 C956 1.448 . S
C989 H966 0.930 . S
C989 C990 1.328 . S
C990 C961 1.427 . S
C990 H967 0.929 . S
C990 C989 1.328 . S
C991 O975 1.264 . S
C991 O976 1.243 . S
C992 C995 1.399 . S
C992 C996 1.383 . S
C992 C999 1.496 . S
C993 C994 1.399 . S
C993 C996 1.389 . S
C994 C993 1.399 . S
C994 C997 1.380 . S
C994 H1004 0.929 . S
C995 C992 1.399 . S
C995 C997 1.392 . S
C995 H1005 0.929 . S
C996 C992 1.383 . S
C996 C993 1.389 . S
C996 H1006 0.931 . S
C997 C994 1.380 . S
C997 C995 1.392 . S
C997 H1007 0.929 . S
C998 O978 1.266 . S
C998 O979 1.248 . S
C999 Tb935 2.802 . S
C999 O974 1.264 . S
C999 O977 1.256 . S
C999 C992 1.496 . S
H1000 C983 0.929 . S
H1001 C984 0.929 . S
H1002 C985 0.929 . S
H1003 C986 0.931 . S
H1004 C994 0.929 . S
H1005 C995 0.929 . S
H1006 C996 0.931 . S
H1007 C997 0.929 . S
Tb1008 N1037 2.617 . S
Tb1008 N1043 2.572 . S
Tb1008 O1052 2.465 . S
Tb1008 O1053 2.387 . S
Tb1008 O1055 2.428 . S
Tb1008 O1056 2.308 . S
Tb1008 O1060 2.349 1_545 S
Tb1008 O1063 2.393 . S
Tb1008 C1072 2.802 . S
C1009 N1010 1.379 . S
C1009 C1012 1.416 . S
C1009 C1016 1.424 . S
N1010 C1009 1.379 . S
N1010 C1013 1.334 . S
N1010 Tb1019 2.617 . S
C1011 C1013 1.390 . S
C1011 C1014 1.339 . S
C1011 H1031 0.930 . S
C1012 C1009 1.416 . S
C1012 C1014 1.416 . S
C1012 C1018 1.448 . S
C1013 N1010 1.334 . S
C1013 C1011 1.390 . S
C1013 H1024 0.930 . S
C1014 C1011 1.339 . S
C1014 C1012 1.416 . S
C1014 H1035 0.930 . S
C1015 C1016 1.413 . S
C1015 C1017 1.427 . S
C1015 C1021 1.416 . S
C1016 C1009 1.424 . S
C1016 C1015 1.413 . S
C1016 N1020 1.361 . S
C1017 C1015 1.427 . S
C1017 C1018 1.328 . S
C1017 H1032 0.929 . S
C1018 C1012 1.448 . S
C1018 C1017 1.328 . S
C1018 H1033 0.930 . S
Tb1019 N1010 2.617 . S
Tb1019 N1020 2.572 . S
Tb1019 O1054 2.349 1_565 S
Tb1019 O1057 2.393 1_565 S
Tb1019 O1058 2.465 1_565 S
Tb1019 O1059 2.387 . S
Tb1019 O1061 2.428 1_565 S
Tb1019 O1062 2.308 . S
Tb1019 C1083 2.802 1_565 S
N1020 C1016 1.361 . S
N1020 Tb1019 2.572 . S
N1020 C1022 1.340 . S
C1021 C1015 1.416 . S
C1021 C1023 1.332 . S
C1021 H1029 0.931 . S
C1022 N1020 1.340 . S
C1022 C1023 1.407 . S
C1022 H1028 0.930 . S
C1023 C1021 1.332 . S
C1023 C1022 1.407 . S
C1023 H1025 0.929 . S
H1024 C1013 0.930 . S
H1025 C1023 0.929 . S
H1026 C1041 0.930 . S
H1027 C1048 0.929 . S
H1028 C1022 0.930 . S
H1029 C1021 0.931 . S
H1030 C1044 0.930 . S
H1031 C1011 0.930 . S
H1032 C1017 0.929 . S
H1033 C1018 0.930 . S
H1034 C1039 0.930 . S
H1035 C1014 0.930 . S
H1036 C1047 0.931 . S
N1037 Tb1008 2.617 . S
N1037 C1038 1.379 . S
N1037 C1041 1.334 . S
C1038 N1037 1.379 . S
C1038 C1040 1.416 . S
C1038 C1046 1.424 . S
C1039 H1034 0.930 . S
C1039 C1041 1.390 . S
C1039 C1042 1.339 . S
C1040 C1038 1.416 . S
C1040 C1042 1.416 . S
C1040 C1073 1.448 . S
C1041 H1026 0.930 . S
C1041 N1037 1.334 . S
C1041 C1039 1.390 . S
C1042 C1039 1.339 . S
C1042 C1040 1.416 . S
C1042 H1049 0.930 . S
N1043 Tb1008 2.572 . S
N1043 C1044 1.340 . S
N1043 C1046 1.361 . S
C1044 H1030 0.930 . S
C1044 N1043 1.340 . S
C1044 C1048 1.407 . S
C1045 C1046 1.413 . S
C1045 C1047 1.416 . S
C1045 C1074 1.427 . S
C1046 C1038 1.424 . S
C1046 N1043 1.361 . S
C1046 C1045 1.413 . S
C1047 H1036 0.931 . S
C1047 C1045 1.416 . S
C1047 C1048 1.332 . S
C1048 H1027 0.929 . S
C1048 C1044 1.407 . S
C1048 C1047 1.332 . S
H1049 C1042 0.930 . S
H1050 C1073 0.930 . S
H1051 C1074 0.929 . S
O1052 Tb1008 2.465 . S
O1052 C1072 1.264 . S
O1053 Tb1008 2.387 . S
O1053 C1064 1.264 . S
O1054 Tb1019 2.349 1_545 S
O1054 C1064 1.243 . S
O1055 Tb1008 2.428 . S
O1055 C1072 1.256 . S
O1056 Tb1008 2.308 . S
O1056 C1071 1.266 . S
O1057 Tb1019 2.393 1_545 S
O1057 C1071 1.248 . S
O1058 Tb1019 2.465 1_545 S
O1058 C1083 1.264 . S
O1059 Tb1019 2.387 . S
O1059 C1075 1.264 . S
O1060 Tb1008 2.349 1_565 S
O1060 C1075 1.243 . S
O1061 Tb1019 2.428 1_545 S
O1061 C1083 1.256 . S
O1062 Tb1019 2.308 . S
O1062 C1082 1.266 1_565 S
O1063 Tb1008 2.393 . S
O1063 C1082 1.248 . S
C1064 O1053 1.264 . S
C1064 O1054 1.243 . S
C1065 C1068 1.399 . S
C1065 C1070 1.383 1_545 S
C1065 C1072 1.496 . S
C1066 C1067 1.399 . S
C1066 C1070 1.389 . S
C1067 C1066 1.399 . S
C1067 C1069 1.380 . S
C1067 H1084 0.929 . S
C1068 C1065 1.399 . S
C1068 C1069 1.392 1_545 S
C1068 H1085 0.929 . S
C1069 C1067 1.380 . S
C1069 C1068 1.392 1_565 S
C1069 H1086 0.929 . S
C1070 C1065 1.383 1_565 S
C1070 C1066 1.389 . S
C1070 H1087 0.931 . S
C1071 O1056 1.266 . S
C1071 O1057 1.248 . S
C1072 Tb1008 2.802 . S
C1072 O1052 1.264 . S
C1072 O1055 1.256 . S
C1072 C1065 1.496 . S
C1073 C1040 1.448 . S
C1073 H1050 0.930 . S
C1073 C1074 1.328 . S
C1074 C1045 1.427 . S
C1074 H1051 0.929 . S
C1074 C1073 1.328 . S
C1075 O1059 1.264 . S
C1075 O1060 1.243 . S
C1076 C1079 1.399 . S
C1076 C1080 1.383 . S
C1076 C1083 1.496 . S
C1077 C1078 1.399 . S
C1077 C1080 1.389 . S
C1078 C1077 1.399 . S
C1078 C1081 1.380 . S
C1078 H1088 0.929 . S
C1079 C1076 1.399 . S
C1079 C1081 1.392 . S
C1079 H1089 0.929 . S
C1080 C1076 1.383 . S
C1080 C1077 1.389 . S
C1080 H1090 0.931 . S
C1081 C1078 1.380 . S
C1081 C1079 1.392 . S
C1081 H1091 0.929 . S
C1082 O1062 1.266 1_545 S
C1082 O1063 1.248 . S
C1083 Tb1019 2.802 1_545 S
C1083 O1058 1.264 . S
C1083 O1061 1.256 . S
C1083 C1076 1.496 . S
H1084 C1067 0.929 . S
H1085 C1068 0.929 . S
H1086 C1069 0.929 . S
H1087 C1070 0.931 . S
H1088 C1078 0.929 . S
H1089 C1079 0.929 . S
H1090 C1080 0.931 . S
H1091 C1081 0.929 . S
Tb1092 N1121 2.617 . S
Tb1092 N1127 2.572 1_545 S
Tb1092 O1136 2.465 . S
Tb1092 O1137 2.387 1_455 S
Tb1092 O1139 2.428 . S
Tb1092 O1140 2.308 1_545 S
Tb1092 O1144 2.349 . S
Tb1092 O1147 2.393 . S
Tb1092 C1156 2.802 . S
C1093 N1094 1.379 . S
C1093 C1096 1.416 . S
C1093 C1100 1.424 . S
N1094 C1093 1.379 . S
N1094 C1097 1.334 1_455 S
N1094 Tb1103 2.617 1_455 S
C1095 C1097 1.390 1_465 S
C1095 C1098 1.339 1_565 S
C1095 H1115 0.930 . S
C1096 C1093 1.416 . S
C1096 C1098 1.416 . S
C1096 C1102 1.448 . S
C1097 N1094 1.334 1_655 S
C1097 C1095 1.390 1_645 S
C1097 H1108 0.930 1_545 S
C1098 C1095 1.339 1_545 S
C1098 C1096 1.416 . S
C1098 H1119 0.930 . S
C1099 C1100 1.413 . S
C1099 C1101 1.427 . S
C1099 C1105 1.416 . S
C1100 C1093 1.424 . S
C1100 C1099 1.413 . S
C1100 N1104 1.361 . S
C1101 C1099 1.427 . S
C1101 C1102 1.328 . S
C1101 H1116 0.929 . S
C1102 C1096 1.448 . S
C1102 C1101 1.328 . S
C1102 H1117 0.930 . S
Tb1103 N1094 2.617 1_655 S
Tb1103 N1104 2.572 1_655 S
Tb1103 O1138 2.349 . S
Tb1103 O1141 2.393 1_545 S
Tb1103 O1142 2.465 . S
Tb1103 O1143 2.387 1_655 S
Tb1103 O1145 2.428 . S
Tb1103 O1146 2.308 1_655 S
Tb1103 C1167 2.802 . S
N1104 C1100 1.361 . S
N1104 Tb1103 2.572 1_455 S
N1104 C1106 1.340 . S
C1105 C1099 1.416 . S
C1105 C1107 1.332 . S
C1105 H1113 0.931 . S
C1106 N1104 1.340 . S
C1106 C1107 1.407 . S
C1106 H1112 0.930 . S
C1107 C1105 1.332 . S
C1107 C1106 1.407 . S
C1107 H1109 0.929 . S
H1108 C1097 0.930 1_565 S
H1109 C1107 0.929 . S
H1110 C1125 0.930 . S
H1111 C1132 0.930 1_655 S
H1112 C1106 0.930 . S
H1113 C1105 0.931 . S
H1114 C1128 0.930 . S
H1115 C1095 0.930 . S
H1116 C1101 0.929 . S
H1117 C1102 0.930 . S
H1118 C1123 0.930 . S
H1119 C1098 0.930 . S
H1120 C1131 0.931 . S
N1121 Tb1092 2.617 . S
N1121 C1122 1.379 . S
N1121 C1125 1.334 . S
C1122 N1121 1.379 . S
C1122 C1124 1.416 . S
C1122 C1130 1.424 1_545 S
C1123 H1118 0.930 . S
C1123 C1125 1.390 . S
C1123 C1126 1.339 . S
C1124 C1122 1.416 . S
C1124 C1126 1.416 . S
C1124 C1157 1.448 1_455 S
C1125 H1110 0.930 . S
C1125 N1121 1.334 . S
C1125 C1123 1.390 . S
C1126 C1123 1.339 . S
C1126 C1124 1.416 . S
C1126 H1133 0.930 . S
N1127 Tb1092 2.572 1_565 S
N1127 C1128 1.340 . S
N1127 C1130 1.361 . S
C1128 H1114 0.930 . S
C1128 N1127 1.340 . S
C1128 C1132 1.407 . S
C1129 C1130 1.413 . S
C1129 C1131 1.416 1_455 S
C1129 C1158 1.427 1_455 S
C1130 C1122 1.424 1_565 S
C1130 N1127 1.361 . S
C1130 C1129 1.413 . S
C1131 H1120 0.931 . S
C1131 C1129 1.416 1_655 S
C1131 C1132 1.332 1_655 S
C1132 H1111 0.930 1_455 S
C1132 C1128 1.407 . S
C1132 C1131 1.332 1_455 S
H1133 C1126 0.930 . S
H1134 C1157 0.930 . S
H1135 C1158 0.929 . S
O1136 Tb1092 2.465 . S
O1136 C1156 1.264 . S
O1137 Tb1092 2.387 1_655 S
O1137 C1148 1.264 . S
O1138 Tb1103 2.349 . S
O1138 C1148 1.243 . S
O1139 Tb1092 2.428 . S
O1139 C1156 1.256 . S
O1140 Tb1092 2.308 1_565 S
O1140 C1155 1.266 . S
O1141 Tb1103 2.393 1_565 S
O1141 C1155 1.248 1_655 S
O1142 Tb1103 2.465 . S
O1142 C1167 1.264 . S
O1143 Tb1103 2.387 1_455 S
O1143 C1159 1.264 . S
O1144 Tb1092 2.349 . S
O1144 C1159 1.243 . S
O1145 Tb1103 2.428 . S
O1145 C1167 1.256 . S
O1146 Tb1103 2.308 1_455 S
O1146 C1166 1.266 . S
O1147 Tb1092 2.393 . S
O1147 C1166 1.248 . S
C1148 O1137 1.264 . S
C1148 O1138 1.243 . S
C1149 C1152 1.399 . S
C1149 C1154 1.383 1_545 S
C1149 C1156 1.496 . S
C1150 C1151 1.399 1_565 S
C1150 C1154 1.389 . S
C1151 C1150 1.399 1_545 S
C1151 C1153 1.380 . S
C1151 H1168 0.927 1_545 S
C1152 C1149 1.399 . S
C1152 C1153 1.392 . S
C1152 H1169 0.929 . S
C1153 C1151 1.380 . S
C1153 C1152 1.392 . S
C1153 H1170 0.929 . S
C1154 C1149 1.383 1_565 S
C1154 C1150 1.389 . S
C1154 H1171 0.931 . S
C1155 O1140 1.266 . S
C1155 O1141 1.248 1_455 S
C1156 Tb1092 2.802 . S
C1156 O1136 1.264 . S
C1156 O1139 1.256 . S
C1156 C1149 1.496 . S
C1157 C1124 1.448 1_655 S
C1157 H1134 0.930 . S
C1157 C1158 1.328 1_545 S
C1158 C1129 1.427 1_655 S
C1158 H1135 0.929 . S
C1158 C1157 1.328 1_565 S
C1159 O1143 1.264 . S
C1159 O1144 1.243 . S
C1160 C1163 1.399 . S
C1160 C1164 1.383 . S
C1160 C1167 1.496 . S
C1161 C1162 1.399 . S
C1161 C1164 1.389 . S
C1162 C1161 1.399 . S
C1162 C1165 1.380 . S
C1162 H1172 0.929 . S
C1163 C1160 1.399 . S
C1163 C1165 1.392 . S
C1163 H1173 0.929 . S
C1164 C1160 1.383 . S
C1164 C1161 1.389 . S
C1164 H1174 0.931 . S
C1165 C1162 1.380 . S
C1165 C1163 1.392 . S
C1165 H1175 0.929 . S
C1166 O1146 1.266 . S
C1166 O1147 1.248 . S
C1167 Tb1103 2.802 . S
C1167 O1142 1.264 . S
C1167 O1145 1.256 . S
C1167 C1160 1.496 . S
H1168 C1151 0.927 1_565 S
H1169 C1152 0.929 . S
H1170 C1153 0.929 . S
H1171 C1154 0.931 . S
H1172 C1162 0.929 . S
H1173 C1163 0.929 . S
H1174 C1164 0.931 . S
H1175 C1165 0.929 . S
Tb1176 N1205 2.617 . S
Tb1176 N1211 2.572 . S
Tb1176 O1220 2.465 . S
Tb1176 O1221 2.387 . S
Tb1176 O1223 2.428 . S
Tb1176 O1224 2.308 . S
Tb1176 O1228 2.349 . S
Tb1176 O1231 2.393 . S
Tb1176 C1240 2.802 . S
C1177 N1178 1.379 . S
C1177 C1180 1.416 1_545 S
C1177 C1184 1.424 . S
N1178 C1177 1.379 . S
N1178 C1181 1.334 . S
N1178 Tb1187 2.617 . S
C1179 C1181 1.390 . S
C1179 C1182 1.326 1_545 S
C1179 H1199 0.930 . S
C1180 C1177 1.416 1_565 S
C1180 C1182 1.420 . S
C1180 C1186 1.448 . S
C1181 N1178 1.334 . S
C1181 C1179 1.390 . S
C1181 H1192 0.930 . S
C1182 C1179 1.326 1_565 S
C1182 C1180 1.420 . S
C1182 H1203 0.939 . S
C1183 C1184 1.413 1_565 S
C1183 C1185 1.427 . S
C1183 C1189 1.416 . S
C1184 C1177 1.424 . S
C1184 C1183 1.413 1_545 S
C1184 N1188 1.361 . S
C1185 C1183 1.427 . S
C1185 C1186 1.328 . S
C1185 H1200 0.929 . S
C1186 C1180 1.448 . S
C1186 C1185 1.328 . S
C1186 H1201 0.930 . S
Tb1187 N1178 2.617 . S
Tb1187 N1188 2.572 . S
Tb1187 O1222 2.349 . S
Tb1187 O1225 2.393 . S
Tb1187 O1226 2.465 . S
Tb1187 O1227 2.387 . S
Tb1187 O1229 2.428 . S
Tb1187 O1230 2.308 . S
Tb1187 C1251 2.802 . S
N1188 C1184 1.361 . S
N1188 Tb1187 2.572 . S
N1188 C1190 1.340 . S
C1189 C1183 1.416 . S
C1189 C1191 1.332 1_565 S
C1189 H1197 0.931 . S
C1190 N1188 1.340 . S
C1190 C1191 1.407 . S
C1190 H1196 0.930 . S
C1191 C1189 1.332 1_545 S
C1191 C1190 1.407 . S
C1191 H1193 0.929 . S
H1192 C1181 0.930 . S
H1193 C1191 0.929 . S
H1194 C1209 0.930 . S
H1195 C1216 0.929 . S
H1196 C1190 0.930 . S
H1197 C1189 0.931 . S
H1198 C1212 0.930 . S
H1199 C1179 0.930 . S
H1200 C1185 0.929 . S
H1201 C1186 0.930 . S
H1202 C1207 0.930 . S
H1203 C1182 0.939 . S
H1204 C1215 0.931 . S
N1205 Tb1176 2.617 . S
N1205 C1206 1.379 . S
N1205 C1209 1.334 . S
C1206 N1205 1.379 . S
C1206 C1208 1.416 . S
C1206 C1214 1.424 . S
C1207 H1202 0.930 . S
C1207 C1209 1.390 . S
C1207 C1210 1.339 . S
C1208 C1206 1.416 . S
C1208 C1210 1.416 . S
C1208 C1241 1.448 . S
C1209 H1194 0.930 . S
C1209 N1205 1.334 . S
C1209 C1207 1.390 . S
C1210 C1207 1.339 . S
C1210 C1208 1.416 . S
C1210 H1217 0.930 . S
N1211 Tb1176 2.572 . S
N1211 C1212 1.340 . S
N1211 C1214 1.361 . S
C1212 H1198 0.930 . S
C1212 N1211 1.340 . S
C1212 C1216 1.407 . S
C1213 C1214 1.413 . S
C1213 C1215 1.416 . S
C1213 C1242 1.427 . S
C1214 C1206 1.424 . S
C1214 N1211 1.361 . S
C1214 C1213 1.413 . S
C1215 H1204 0.931 . S
C1215 C1213 1.416 . S
C1215 C1216 1.332 . S
C1216 H1195 0.929 . S
C1216 C1212 1.407 . S
C1216 C1215 1.332 . S
H1217 C1210 0.930 . S
H1218 C1241 0.930 . S
H1219 C1242 0.929 . S
O1220 Tb1176 2.465 . S
O1220 C1240 1.264 . S
O1221 Tb1176 2.387 . S
O1221 C1232 1.264 . S
O1222 Tb1187 2.349 . S
O1222 C1232 1.243 . S
O1223 Tb1176 2.428 . S
O1223 C1240 1.256 . S
O1224 Tb1176 2.308 . S
O1224 C1239 1.266 . S
O1225 Tb1187 2.393 . S
O1225 C1239 1.248 . S
O1226 Tb1187 2.465 . S
O1226 C1251 1.264 . S
O1227 Tb1187 2.387 . S
O1227 C1243 1.264 . S
O1228 Tb1176 2.349 . S
O1228 C1243 1.243 . S
O1229 Tb1187 2.428 . S
O1229 C1251 1.256 . S
O1230 Tb1187 2.308 . S
O1230 C1250 1.266 . S
O1231 Tb1176 2.393 . S
O1231 C1250 1.248 . S
C1232 O1221 1.264 . S
C1232 O1222 1.243 . S
C1233 C1236 1.399 . S
C1233 C1238 1.383 . S
C1233 C1240 1.496 . S
C1234 C1235 1.399 . S
C1234 C1238 1.389 . S
C1235 C1234 1.399 . S
C1235 C1237 1.380 . S
C1235 H1252 0.929 . S
C1236 C1233 1.399 . S
C1236 C1237 1.392 . S
C1236 H1253 0.929 . S
C1237 C1235 1.380 . S
C1237 C1236 1.392 . S
C1237 H1254 0.929 . S
C1238 C1233 1.383 . S
C1238 C1234 1.389 . S
C1238 H1255 0.931 . S
C1239 O1224 1.266 . S
C1239 O1225 1.248 . S
C1240 Tb1176 2.802 . S
C1240 O1220 1.264 . S
C1240 O1223 1.256 . S
C1240 C1233 1.496 . S
C1241 C1208 1.448 . S
C1241 H1218 0.930 . S
C1241 C1242 1.328 . S
C1242 C1213 1.427 . S
C1242 H1219 0.929 . S
C1242 C1241 1.328 . S
C1243 O1227 1.264 . S
C1243 O1228 1.243 . S
C1244 C1247 1.399 . S
C1244 C1248 1.383 . S
C1244 C1251 1.496 . S
C1245 C1246 1.399 . S
C1245 C1248 1.389 . S
C1246 C1245 1.399 . S
C1246 C1249 1.380 . S
C1246 H1256 0.929 . S
C1247 C1244 1.399 . S
C1247 C1249 1.392 . S
C1247 H1257 0.929 . S
C1248 C1244 1.383 . S
C1248 C1245 1.389 . S
C1248 H1258 0.931 . S
C1249 C1246 1.380 . S
C1249 C1247 1.392 . S
C1249 H1259 0.929 . S
C1250 O1230 1.266 . S
C1250 O1231 1.248 . S
C1251 Tb1187 2.802 . S
C1251 O1226 1.264 . S
C1251 O1229 1.256 . S
C1251 C1244 1.496 . S
H1252 C1235 0.929 . S
H1253 C1236 0.929 . S
H1254 C1237 0.929 . S
H1255 C1238 0.931 . S
H1256 C1246 0.929 . S
H1257 C1247 0.929 . S
H1258 C1248 0.931 . S
H1259 C1249 0.929 . S
Tb1260 N1289 2.617 . S
Tb1260 N1295 2.572 . S
Tb1260 O1304 2.465 . S
Tb1260 O1305 2.387 . S
Tb1260 O1307 2.428 . S
Tb1260 O1308 2.308 . S
Tb1260 O1312 2.349 . S
Tb1260 O1315 2.393 . S
Tb1260 C1324 2.802 . S
C1261 N1262 1.379 . S
C1261 C1264 1.416 . S
C1261 C1268 1.424 . S
N1262 C1261 1.379 . S
N1262 C1265 1.334 . S
N1262 Tb1271 2.617 . S
C1263 C1265 1.390 . S
C1263 C1266 1.339 . S
C1263 H1283 0.930 . S
C1264 C1261 1.416 . S
C1264 C1266 1.416 . S
C1264 C1270 1.448 . S
C1265 N1262 1.334 . S
C1265 C1263 1.390 . S
C1265 H1276 0.930 . S
C1266 C1263 1.339 . S
C1266 C1264 1.416 . S
C1266 H1287 0.930 . S
C1267 C1268 1.413 . S
C1267 C1269 1.427 . S
C1267 C1273 1.416 . S
C1268 C1261 1.424 . S
C1268 C1267 1.413 . S
C1268 N1272 1.361 . S
C1269 C1267 1.427 . S
C1269 C1270 1.328 . S
C1269 H1284 0.929 . S
C1270 C1264 1.448 . S
C1270 C1269 1.328 . S
C1270 H1285 0.930 . S
Tb1271 N1262 2.617 . S
Tb1271 N1272 2.572 . S
Tb1271 O1306 2.349 1_455 S
Tb1271 O1309 2.393 . S
Tb1271 O1310 2.465 1_455 S
Tb1271 O1311 2.387 . S
Tb1271 O1313 2.428 1_455 S
Tb1271 O1314 2.308 . S
Tb1271 C1335 2.802 1_455 S
N1272 C1268 1.361 . S
N1272 Tb1271 2.572 . S
N1272 C1274 1.340 . S
C1273 C1267 1.416 . S
C1273 C1275 1.332 . S
C1273 H1281 0.931 . S
C1274 N1272 1.340 . S
C1274 C1275 1.407 . S
C1274 H1280 0.930 . S
C1275 C1273 1.332 . S
C1275 C1274 1.407 . S
C1275 H1277 0.929 . S
H1276 C1265 0.930 . S
H1277 C1275 0.929 . S
H1278 C1293 0.930 . S
H1279 C1300 0.929 . S
H1280 C1274 0.930 . S
H1281 C1273 0.931 . S
H1282 C1296 0.930 . S
H1283 C1263 0.930 . S
H1284 C1269 0.929 . S
H1285 C1270 0.930 . S
H1286 C1291 0.930 . S
H1287 C1266 0.930 . S
H1288 C1299 0.931 . S
N1289 Tb1260 2.617 . S
N1289 C1290 1.379 . S
N1289 C1293 1.334 . S
C1290 N1289 1.379 . S
C1290 C1292 1.416 . S
C1290 C1298 1.424 . S
C1291 H1286 0.930 . S
C1291 C1293 1.390 . S
C1291 C1294 1.339 . S
C1292 C1290 1.416 . S
C1292 C1294 1.416 . S
C1292 C1325 1.448 . S
C1293 H1278 0.930 . S
C1293 N1289 1.334 . S
C1293 C1291 1.390 . S
C1294 C1291 1.339 . S
C1294 C1292 1.416 . S
C1294 H1301 0.930 . S
N1295 Tb1260 2.572 . S
N1295 C1296 1.340 1_545 S
N1295 C1298 1.361 . S
C1296 H1282 0.930 . S
C1296 N1295 1.340 1_565 S
C1296 C1300 1.407 . S
C1297 C1298 1.413 . S
C1297 C1299 1.416 1_545 S
C1297 C1326 1.427 . S
C1298 C1290 1.424 . S
C1298 N1295 1.361 . S
C1298 C1297 1.413 . S
C1299 H1288 0.931 . S
C1299 C1297 1.416 1_565 S
C1299 C1300 1.332 . S
C1300 H1279 0.929 . S
C1300 C1296 1.407 . S
C1300 C1299 1.332 . S
H1301 C1294 0.930 . S
H1302 C1325 0.930 . S
H1303 C1326 0.929 . S
O1304 Tb1260 2.465 . S
O1304 C1324 1.264 . S
O1305 Tb1260 2.387 . S
O1305 C1316 1.264 1_455 S
O1306 Tb1271 2.349 1_655 S
O1306 C1316 1.243 . S
O1307 Tb1260 2.428 . S
O1307 C1324 1.256 . S
O1308 Tb1260 2.308 . S
O1308 C1323 1.266 . S
O1309 Tb1271 2.393 . S
O1309 C1323 1.248 . S
O1310 Tb1271 2.465 1_655 S
O1310 C1335 1.264 . S
O1311 Tb1271 2.387 . S
O1311 C1327 1.264 . S
O1312 Tb1260 2.349 . S
O1312 C1327 1.243 . S
O1313 Tb1271 2.428 1_655 S
O1313 C1335 1.256 . S
O1314 Tb1271 2.308 . S
O1314 C1334 1.266 . S
O1315 Tb1260 2.393 . S
O1315 C1334 1.248 . S
C1316 O1305 1.264 1_655 S
C1316 O1306 1.243 . S
C1317 C1320 1.399 . S
C1317 C1322 1.383 . S
C1317 C1324 1.496 . S
C1318 C1319 1.399 . S
C1318 C1322 1.389 . S
C1319 C1318 1.399 . S
C1319 C1321 1.380 . S
C1319 H1336 0.929 . S
C1320 C1317 1.399 . S
C1320 C1321 1.392 . S
C1320 H1337 0.929 . S
C1321 C1319 1.380 . S
C1321 C1320 1.392 . S
C1321 H1338 0.929 . S
C1322 C1317 1.383 . S
C1322 C1318 1.389 . S
C1322 H1339 0.931 . S
C1323 O1308 1.266 . S
C1323 O1309 1.248 . S
C1324 Tb1260 2.802 . S
C1324 O1304 1.264 . S
C1324 O1307 1.256 . S
C1324 C1317 1.496 . S
C1325 C1292 1.448 . S
C1325 H1302 0.930 . S
C1325 C1326 1.328 . S
C1326 C1297 1.427 . S
C1326 H1303 0.929 . S
C1326 C1325 1.328 . S
C1327 O1311 1.264 . S
C1327 O1312 1.243 . S
C1328 C1331 1.399 . S
C1328 C1332 1.383 . S
C1328 C1335 1.496 . S
C1329 C1330 1.399 . S
C1329 C1332 1.389 . S
C1330 C1329 1.399 . S
C1330 C1333 1.380 . S
C1330 H1340 0.929 . S
C1331 C1328 1.399 . S
C1331 C1333 1.392 . S
C1331 H1341 0.929 . S
C1332 C1328 1.383 . S
C1332 C1329 1.389 . S
C1332 H1342 0.931 . S
C1333 C1330 1.380 . S
C1333 C1331 1.392 . S
C1333 H1343 0.929 . S
C1334 O1314 1.266 . S
C1334 O1315 1.248 . S
C1335 Tb1271 2.802 1_655 S
C1335 O1310 1.264 . S
C1335 O1313 1.256 . S
C1335 C1328 1.496 . S
H1336 C1319 0.929 . S
H1337 C1320 0.929 . S
H1338 C1321 0.929 . S
H1339 C1322 0.931 . S
H1340 C1330 0.929 . S
H1341 C1331 0.929 . S
H1342 C1332 0.931 . S
H1343 C1333 0.929 . S
C1344 C1345 1.387 . S
C1344 H1348 0.950 . S
C1344 C1353 1.390 . S
C1345 C1344 1.387 . S
C1345 C1347 1.387 . S
H1346 C1353 0.950 . S
C1347 C1345 1.387 . S
C1347 C1349 1.390 . S
C1347 H1351 0.950 . S
H1348 C1344 0.950 . S
C1349 C1347 1.390 . S
C1349 C1350 1.387 . S
C1349 H1352 0.950 . S
C1350 C1349 1.387 . S
C1350 C1353 1.387 . S
H1351 C1347 0.950 . S
H1352 C1349 0.950 . S
C1353 C1344 1.390 . S
C1353 H1346 0.950 . S
C1353 C1350 1.387 . S
C1354 C1355 1.387 . S
C1354 H1358 0.950 . S
C1354 C1363 1.390 . S
C1355 C1354 1.387 . S
C1355 C1357 1.387 . S
H1356 C1363 0.950 . S
C1357 C1355 1.387 . S
C1357 C1359 1.390 . S
C1357 H1361 0.950 . S
H1358 C1354 0.950 . S
C1359 C1357 1.390 . S
C1359 C1360 1.387 . S
C1359 H1362 0.950 . S
C1360 C1359 1.387 . S
C1360 C1363 1.387 . S
H1361 C1357 0.950 . S
H1362 C1359 0.950 . S
C1363 C1354 1.390 . S
C1363 H1356 0.950 . S
C1363 C1360 1.387 . S
C1364 C1365 1.387 . S
C1364 H1368 0.950 . S
C1364 C1373 1.390 . S
C1365 C1364 1.387 . S
C1365 C1367 1.387 . S
H1366 C1373 0.950 . S
C1367 C1365 1.387 . S
C1367 C1369 1.390 . S
C1367 H1371 0.950 . S
H1368 C1364 0.950 . S
C1369 C1367 1.390 . S
C1369 C1370 1.387 . S
C1369 H1372 0.950 . S
C1370 C1369 1.387 . S
C1370 C1373 1.387 . S
H1371 C1367 0.950 . S
H1372 C1369 0.950 . S
C1373 C1364 1.390 . S
C1373 H1366 0.950 . S
C1373 C1370 1.387 . S
C1374 C1375 1.387 . S
C1374 H1378 0.950 . S
C1374 C1383 1.390 . S
C1375 C1374 1.387 . S
C1375 C1377 1.387 . S
H1376 C1383 0.950 . S
C1377 C1375 1.387 . S
C1377 C1379 1.390 . S
C1377 H1381 0.950 . S
H1378 C1374 0.950 . S
C1379 C1377 1.390 . S
C1379 C1380 1.387 . S
C1379 H1382 0.950 . S
C1380 C1379 1.387 . S
C1380 C1383 1.387 . S
H1381 C1377 0.950 . S
H1382 C1379 0.950 . S
C1383 C1374 1.390 . S
C1383 H1376 0.950 . S
C1383 C1380 1.387 . S
C1384 C1385 1.387 . S
C1384 H1388 0.950 . S
C1384 C1393 1.390 . S
C1385 C1384 1.387 . S
C1385 C1387 1.387 . S
H1386 C1393 0.950 . S
C1387 C1385 1.387 . S
C1387 C1389 1.390 . S
C1387 H1391 0.950 . S
H1388 C1384 0.950 . S
C1389 C1387 1.390 . S
C1389 C1390 1.387 . S
C1389 H1392 0.950 . S
C1390 C1389 1.387 . S
C1390 C1393 1.387 . S
H1391 C1387 0.950 . S
H1392 C1389 0.950 . S
C1393 C1384 1.390 . S
C1393 H1386 0.950 . S
C1393 C1390 1.387 . S
C1394 C1395 1.387 . S
C1394 H1398 0.950 . S
C1394 C1403 1.390 . S
C1395 C1394 1.387 . S
C1395 C1397 1.387 . S
H1396 C1403 0.950 1_655 S
C1397 C1395 1.387 . S
C1397 C1399 1.390 . S
C1397 H1401 0.950 . S
H1398 C1394 0.950 . S
C1399 C1397 1.390 . S
C1399 C1400 1.387 1_455 S
C1399 H1402 0.950 1_455 S
C1400 C1399 1.387 1_655 S
C1400 C1403 1.387 1_655 S
H1401 C1397 0.950 . S
H1402 C1399 0.950 1_655 S
C1403 C1394 1.390 . S
C1403 H1396 0.950 1_455 S
C1403 C1400 1.387 1_455 S
C1404 C1405 1.387 . S
C1404 H1408 0.950 . S
C1404 C1413 1.390 . S
C1405 C1404 1.387 . S
C1405 C1407 1.387 . S
H1406 C1413 0.950 . S
C1407 C1405 1.387 . S
C1407 C1409 1.390 . S
C1407 H1411 0.950 . S
H1408 C1404 0.950 . S
C1409 C1407 1.390 . S
C1409 C1410 1.387 . S
C1409 H1412 0.950 . S
C1410 C1409 1.387 . S
C1410 C1413 1.387 . S
H1411 C1407 0.950 . S
H1412 C1409 0.950 . S
C1413 C1404 1.390 . S
C1413 H1406 0.950 . S
C1413 C1410 1.387 . S
C1414 C1415 1.387 . S
C1414 H1418 0.950 . S
C1414 C1423 1.390 . S
C1415 C1414 1.387 . S
C1415 C1417 1.387 . S
H1416 C1423 0.950 . S
C1417 C1415 1.387 . S
C1417 C1419 1.390 . S
C1417 H1421 0.950 . S
H1418 C1414 0.950 . S
C1419 C1417 1.390 . S
C1419 C1420 1.387 . S
C1419 H1422 0.950 . S
C1420 C1419 1.387 . S
C1420 C1423 1.387 . S
H1421 C1417 0.950 . S
H1422 C1419 0.950 . S
C1423 C1414 1.390 . S
C1423 H1416 0.950 . S
C1423 C1420 1.387 . S
C1424 C1425 1.387 . S
C1424 H1428 0.950 . S
C1424 C1433 1.390 . S
C1425 C1424 1.387 . S
C1425 C1427 1.387 . S
H1426 C1433 0.950 . S
C1427 C1425 1.387 . S
C1427 C1429 1.390 . S
C1427 H1431 0.950 . S
H1428 C1424 0.950 . S
C1429 C1427 1.390 . S
C1429 C1430 1.387 . S
C1429 H1432 0.950 . S
C1430 C1429 1.387 . S
C1430 C1433 1.387 . S
H1431 C1427 0.950 . S
H1432 C1429 0.950 . S
C1433 C1424 1.390 . S
C1433 H1426 0.950 . S
C1433 C1430 1.387 . S
C1434 C1435 1.387 . S
C1434 H1438 0.950 . S
C1434 C1443 1.390 . S
C1435 C1434 1.387 . S
C1435 C1437 1.387 . S
H1436 C1443 0.950 . S
C1437 C1435 1.387 . S
C1437 C1439 1.390 . S
C1437 H1441 0.950 . S
H1438 C1434 0.950 . S
C1439 C1437 1.390 . S
C1439 C1440 1.387 . S
C1439 H1442 0.950 . S
C1440 C1439 1.387 . S
C1440 C1443 1.387 . S
H1441 C1437 0.950 . S
H1442 C1439 0.950 . S
C1443 C1434 1.390 . S
C1443 H1436 0.950 . S
C1443 C1440 1.387 . S
C1444 C1445 1.387 . S
C1444 H1448 0.950 . S
C1444 C1453 1.390 . S
C1445 C1444 1.387 . S
C1445 C1447 1.387 . S
H1446 C1453 0.950 . S
C1447 C1445 1.387 . S
C1447 C1449 1.390 . S
C1447 H1451 0.950 . S
H1448 C1444 0.950 . S
C1449 C1447 1.390 . S
C1449 C1450 1.387 . S
C1449 H1452 0.950 . S
C1450 C1449 1.387 . S
C1450 C1453 1.387 . S
H1451 C1447 0.950 . S
H1452 C1449 0.950 . S
C1453 C1444 1.390 . S
C1453 H1446 0.950 . S
C1453 C1450 1.387 . S
C1454 C1455 1.387 . S
C1454 H1458 0.950 . S
C1454 C1463 1.390 . S
C1455 C1454 1.387 . S
C1455 C1457 1.387 . S
H1456 C1463 0.950 . S
C1457 C1455 1.387 . S
C1457 C1459 1.390 . S
C1457 H1461 0.950 . S
H1458 C1454 0.950 . S
C1459 C1457 1.390 . S
C1459 C1460 1.387 . S
C1459 H1462 0.950 . S
C1460 C1459 1.387 . S
C1460 C1463 1.387 . S
H1461 C1457 0.950 . S
H1462 C1459 0.950 . S
C1463 C1454 1.390 . S
C1463 H1456 0.950 . S
C1463 C1460 1.387 . S
C1464 C1465 1.387 . S
C1464 H1468 0.950 . S
C1464 C1473 1.390 . S
C1465 C1464 1.387 . S
C1465 C1467 1.387 . S
H1466 C1473 0.950 . S
C1467 C1465 1.387 . S
C1467 C1469 1.390 . S
C1467 H1471 0.950 . S
H1468 C1464 0.950 . S
C1469 C1467 1.390 . S
C1469 C1470 1.387 . S
C1469 H1472 0.950 . S
C1470 C1469 1.387 . S
C1470 C1473 1.387 . S
H1471 C1467 0.950 . S
H1472 C1469 0.950 . S
C1473 C1464 1.390 . S
C1473 H1466 0.950 . S
C1473 C1470 1.387 . S
C1474 C1475 1.387 . S
C1474 H1478 0.950 . S
C1474 C1483 1.390 . S
C1475 C1474 1.387 . S
C1475 C1477 1.387 . S
H1476 C1483 0.950 . S
C1477 C1475 1.387 . S
C1477 C1479 1.390 . S
C1477 H1481 0.950 . S
H1478 C1474 0.950 . S
C1479 C1477 1.390 . S
C1479 C1480 1.387 . S
C1479 H1482 0.950 . S
C1480 C1479 1.387 . S
C1480 C1483 1.387 . S
H1481 C1477 0.950 . S
H1482 C1479 0.950 . S
C1483 C1474 1.390 . S
C1483 H1476 0.950 . S
C1483 C1480 1.387 . S
C1484 C1485 1.387 . S
C1484 H1488 0.950 . S
C1484 C1493 1.390 . S
C1485 C1484 1.387 . S
C1485 C1487 1.387 . S
H1486 C1493 0.950 . S
C1487 C1485 1.387 . S
C1487 C1489 1.390 . S
C1487 H1491 0.950 . S
H1488 C1484 0.950 . S
C1489 C1487 1.390 . S
C1489 C1490 1.387 . S
C1489 H1492 0.950 . S
C1490 C1489 1.387 . S
C1490 C1493 1.387 . S
H1491 C1487 0.950 . S
H1492 C1489 0.950 . S
C1493 C1484 1.390 . S
C1493 H1486 0.950 . S
C1493 C1490 1.387 . S
C1494 C1495 1.387 . S
C1494 H1498 0.950 . S
C1494 C1503 1.390 . S
C1495 C1494 1.387 . S
C1495 C1497 1.387 . S
H1496 C1503 0.950 1_655 S
C1497 C1495 1.387 . S
C1497 C1499 1.390 . S
C1497 H1501 0.950 . S
H1498 C1494 0.950 . S
C1499 C1497 1.390 . S
C1499 C1500 1.387 1_455 S
C1499 H1502 0.950 1_455 S
C1500 C1499 1.387 1_655 S
C1500 C1503 1.387 1_655 S
H1501 C1497 0.950 . S
H1502 C1499 0.950 1_655 S
C1503 C1494 1.390 . S
C1503 H1496 0.950 1_455 S
C1503 C1500 1.387 1_455 S
C1504 C1505 1.387 . S
C1504 H1508 0.950 . S
C1504 C1513 1.390 . S
C1505 C1504 1.387 . S
C1505 C1507 1.387 . S
H1506 C1513 0.950 . S
C1507 C1505 1.387 . S
C1507 C1509 1.390 . S
C1507 H1511 0.950 . S
H1508 C1504 0.950 . S
C1509 C1507 1.390 . S
C1509 C1510 1.387 . S
C1509 H1512 0.950 . S
C1510 C1509 1.387 . S
C1510 C1513 1.387 . S
H1511 C1507 0.950 . S
H1512 C1509 0.950 . S
C1513 C1504 1.390 . S
C1513 H1506 0.950 . S
C1513 C1510 1.387 . S
C1514 C1515 1.387 . S
C1514 H1518 0.950 . S
C1514 C1523 1.390 . S
C1515 C1514 1.387 . S
C1515 C1517 1.387 . S
H1516 C1523 0.950 . S
C1517 C1515 1.387 . S
C1517 C1519 1.390 . S
C1517 H1521 0.950 . S
H1518 C1514 0.950 . S
C1519 C1517 1.390 . S
C1519 C1520 1.387 . S
C1519 H1522 0.950 . S
C1520 C1519 1.387 . S
C1520 C1523 1.387 . S
H1521 C1517 0.950 . S
H1522 C1519 0.950 . S
C1523 C1514 1.390 . S
C1523 H1516 0.950 . S
C1523 C1520 1.387 . S
C1524 C1525 1.387 . S
C1524 H1528 0.950 . S
C1524 C1533 1.390 . S
C1525 C1524 1.387 . S
C1525 C1527 1.387 . S
H1526 C1533 0.950 . S
C1527 C1525 1.387 . S
C1527 C1529 1.390 . S
C1527 H1531 0.950 . S
H1528 C1524 0.950 . S
C1529 C1527 1.390 . S
C1529 C1530 1.387 . S
C1529 H1532 0.950 . S
C1530 C1529 1.387 . S
C1530 C1533 1.387 . S
H1531 C1527 0.950 . S
H1532 C1529 0.950 . S
C1533 C1524 1.390 . S
C1533 H1526 0.950 . S
C1533 C1530 1.387 . S
C1534 C1535 1.387 . S
C1534 H1538 0.950 . S
C1534 C1543 1.390 . S
C1535 C1534 1.387 . S
C1535 C1537 1.387 . S
H1536 C1543 0.950 . S
C1537 C1535 1.387 . S
C1537 C1539 1.390 . S
C1537 H1541 0.950 . S
H1538 C1534 0.950 . S
C1539 C1537 1.390 . S
C1539 C1540 1.387 . S
C1539 H1542 0.950 . S
C1540 C1539 1.387 . S
C1540 C1543 1.387 . S
H1541 C1537 0.950 . S
H1542 C1539 0.950 . S
C1543 C1534 1.390 . S
C1543 H1536 0.950 . S
C1543 C1540 1.387 . S
C1544 C1545 1.387 . S
C1544 H1548 0.950 . S
C1544 C1553 1.390 . S
C1545 C1544 1.387 . S
C1545 C1547 1.387 . S
H1546 C1553 0.950 . S
C1547 C1545 1.387 . S
C1547 C1549 1.390 . S
C1547 H1551 0.950 . S
H1548 C1544 0.950 . S
C1549 C1547 1.390 . S
C1549 C1550 1.387 . S
C1549 H1552 0.950 . S
C1550 C1549 1.387 . S
C1550 C1553 1.387 . S
H1551 C1547 0.950 . S
H1552 C1549 0.950 . S
C1553 C1544 1.390 . S
C1553 H1546 0.950 . S
C1553 C1550 1.387 . S
C1554 C1555 1.387 1_545 S
C1554 H1558 0.950 . S
C1554 C1563 1.390 . S
C1555 C1554 1.387 1_565 S
C1555 C1557 1.387 . S
H1556 C1563 0.950 . S
C1557 C1555 1.387 . S
C1557 C1559 1.390 . S
C1557 H1561 0.950 . S
H1558 C1554 0.950 . S
C1559 C1557 1.390 . S
C1559 C1560 1.387 1_565 S
C1559 H1562 0.950 . S
C1560 C1559 1.387 1_545 S
C1560 C1563 1.387 . S
H1561 C1557 0.950 . S
H1562 C1559 0.950 . S
C1563 C1554 1.390 . S
C1563 H1556 0.950 . S
C1563 C1560 1.387 . S
C1564 C1565 1.387 . S
C1564 H1568 0.950 . S
C1564 C1573 1.390 . S
C1565 C1564 1.387 . S
C1565 C1567 1.387 . S
H1566 C1573 0.950 . S
C1567 C1565 1.387 . S
C1567 C1569 1.390 . S
C1567 H1571 0.950 . S
H1568 C1564 0.950 . S
C1569 C1567 1.390 . S
C1569 C1570 1.387 . S
C1569 H1572 0.950 . S
C1570 C1569 1.387 . S
C1570 C1573 1.387 . S
H1571 C1567 0.950 . S
H1572 C1569 0.950 . S
C1573 C1564 1.390 . S
C1573 H1566 0.950 . S
C1573 C1570 1.387 . S
C1574 C1575 1.387 . S
C1574 H1578 0.950 . S
C1574 C1583 1.390 . S
C1575 C1574 1.387 . S
C1575 C1577 1.387 1_545 S
H1576 C1583 0.950 . S
C1577 C1575 1.387 1_565 S
C1577 C1579 1.390 . S
C1577 H1581 0.950 . S
H1578 C1574 0.950 . S
C1579 C1577 1.390 . S
C1579 C1580 1.387 . S
C1579 H1582 0.950 . S
C1580 C1579 1.387 . S
C1580 C1583 1.387 1_565 S
H1581 C1577 0.950 . S
H1582 C1579 0.950 . S
C1583 C1574 1.390 . S
C1583 H1576 0.950 . S
C1583 C1580 1.387 1_545 S
C1584 C1585 1.387 . S
C1584 H1588 0.950 . S
C1584 C1593 1.390 . S
C1585 C1584 1.387 . S
C1585 C1587 1.387 . S
H1586 C1593 0.950 . S
C1587 C1585 1.387 . S
C1587 C1589 1.390 . S
C1587 H1591 0.950 . S
H1588 C1584 0.950 . S
C1589 C1587 1.390 . S
C1589 C1590 1.387 . S
C1589 H1592 0.950 . S
C1590 C1589 1.387 . S
C1590 C1593 1.387 . S
H1591 C1587 0.950 . S
H1592 C1589 0.950 . S
C1593 C1584 1.390 . S
C1593 H1586 0.950 . S
C1593 C1590 1.387 . S
C1594 C1595 1.387 . S
C1594 H1598 0.950 1_545 S
C1594 C1603 1.390 . S
C1595 C1594 1.387 . S
C1595 C1597 1.387 . S
H1596 C1603 0.950 1_565 S
C1597 C1595 1.387 . S
C1597 C1599 1.390 . S
C1597 H1601 0.950 . S
H1598 C1594 0.950 1_565 S
C1599 C1597 1.390 . S
C1599 C1600 1.387 . S
C1599 H1602 0.950 . S
C1600 C1599 1.387 . S
C1600 C1603 1.387 . S
H1601 C1597 0.950 . S
H1602 C1599 0.950 . S
C1603 C1594 1.390 . S
C1603 H1596 0.950 1_545 S
C1603 C1600 1.387 . S
C1604 C1605 1.387 . S
C1604 H1608 0.950 . S
C1604 C1613 1.390 . S
C1605 C1604 1.387 . S
C1605 C1607 1.387 . S
H1606 C1613 0.950 . S
C1607 C1605 1.387 . S
C1607 C1609 1.390 . S
C1607 H1611 0.950 . S
H1608 C1604 0.950 . S
C1609 C1607 1.390 . S
C1609 C1610 1.387 . S
C1609 H1612 0.950 . S
C1610 C1609 1.387 . S
C1610 C1613 1.387 . S
H1611 C1607 0.950 . S
H1612 C1609 0.950 . S
C1613 C1604 1.390 . S
C1613 H1606 0.950 . S
C1613 C1610 1.387 . S
C1614 C1615 1.387 . S
C1614 H1618 0.950 . S
C1614 C1623 1.390 . S
C1615 C1614 1.387 . S
C1615 C1617 1.387 . S
H1616 C1623 0.950 . S
C1617 C1615 1.387 . S
C1617 C1619 1.390 . S
C1617 H1621 0.950 . S
H1618 C1614 0.950 . S
C1619 C1617 1.390 . S
C1619 C1620 1.387 . S
C1619 H1622 0.950 . S
C1620 C1619 1.387 . S
C1620 C1623 1.387 . S
H1621 C1617 0.950 . S
H1622 C1619 0.950 . S
C1623 C1614 1.390 . S
C1623 H1616 0.950 . S
C1623 C1620 1.387 . S
C1624 C1625 1.387 . S
C1624 H1628 0.950 . S
C1624 C1633 1.390 . S
C1625 C1624 1.387 . S
C1625 C1627 1.387 . S
H1626 C1633 0.950 . S
C1627 C1625 1.387 . S
C1627 C1629 1.390 . S
C1627 H1631 0.950 . S
H1628 C1624 0.950 . S
C1629 C1627 1.390 . S
C1629 C1630 1.387 . S
C1629 H1632 0.950 . S
C1630 C1629 1.387 . S
C1630 C1633 1.387 . S
H1631 C1627 0.950 . S
H1632 C1629 0.950 . S
C1633 C1624 1.390 . S
C1633 H1626 0.950 . S
C1633 C1630 1.387 . S
C1634 C1635 1.387 . S
C1634 H1638 0.950 . S
C1634 C1643 1.390 . S
C1635 C1634 1.387 . S
C1635 C1637 1.387 . S
H1636 C1643 0.950 . S
C1637 C1635 1.387 . S
C1637 C1639 1.390 . S
C1637 H1641 0.950 . S
H1638 C1634 0.950 . S
C1639 C1637 1.390 . S
C1639 C1640 1.387 . S
C1639 H1642 0.950 . S
C1640 C1639 1.387 . S
C1640 C1643 1.387 . S
H1641 C1637 0.950 . S
H1642 C1639 0.950 . S
C1643 C1634 1.390 . S
C1643 H1636 0.950 . S
C1643 C1640 1.387 . S
C1644 C1645 1.387 . S
C1644 H1648 0.950 . S
C1644 C1653 1.390 . S
C1645 C1644 1.387 . S
C1645 C1647 1.387 . S
H1646 C1653 0.950 . S
C1647 C1645 1.387 . S
C1647 C1649 1.390 . S
C1647 H1651 0.950 . S
H1648 C1644 0.950 . S
C1649 C1647 1.390 . S
C1649 C1650 1.387 . S
C1649 H1652 0.950 . S
C1650 C1649 1.387 . S
C1650 C1653 1.387 . S
H1651 C1647 0.950 . S
H1652 C1649 0.950 . S
C1653 C1644 1.390 . S
C1653 H1646 0.950 . S
C1653 C1650 1.387 . S
C1654 C1655 1.387 . S
C1654 H1658 0.950 . S
C1654 C1663 1.390 . S
C1655 C1654 1.387 . S
C1655 C1657 1.387 . S
H1656 C1663 0.950 . S
C1657 C1655 1.387 . S
C1657 C1659 1.390 . S
C1657 H1661 0.950 . S
H1658 C1654 0.950 . S
C1659 C1657 1.390 . S
C1659 C1660 1.387 . S
C1659 H1662 0.950 . S
C1660 C1659 1.387 . S
C1660 C1663 1.387 . S
H1661 C1657 0.950 . S
H1662 C1659 0.950 . S
C1663 C1654 1.390 . S
C1663 H1656 0.950 . S
C1663 C1660 1.387 . S
C1664 C1665 1.387 . S
C1664 H1668 0.950 . S
C1664 C1673 1.390 . S
C1665 C1664 1.387 . S
C1665 C1667 1.387 . S
H1666 C1673 0.950 . S
C1667 C1665 1.387 . S
C1667 C1669 1.390 . S
C1667 H1671 0.950 . S
H1668 C1664 0.950 . S
C1669 C1667 1.390 . S
C1669 C1670 1.387 . S
C1669 H1672 0.950 . S
C1670 C1669 1.387 . S
C1670 C1673 1.387 . S
H1671 C1667 0.950 . S
H1672 C1669 0.950 . S
C1673 C1664 1.390 . S
C1673 H1666 0.950 . S
C1673 C1670 1.387 . S
C1674 C1675 1.387 . S
C1674 H1678 0.950 1_545 S
C1674 C1683 1.390 . S
C1675 C1674 1.387 . S
C1675 C1677 1.387 . S
H1676 C1683 0.950 . S
C1677 C1675 1.387 . S
C1677 C1679 1.390 . S
C1677 H1681 0.950 . S
H1678 C1674 0.950 1_565 S
C1679 C1677 1.390 . S
C1679 C1680 1.387 . S
C1679 H1682 0.950 . S
C1680 C1679 1.387 . S
C1680 C1683 1.387 . S
H1681 C1677 0.950 . S
H1682 C1679 0.950 . S
C1683 C1674 1.390 . S
C1683 H1676 0.950 . S
C1683 C1680 1.387 . S
C1684 C1685 1.387 . S
C1684 H1688 0.950 . S
C1684 C1693 1.390 . S
C1685 C1684 1.387 . S
C1685 C1687 1.387 . S
H1686 C1693 0.950 . S
C1687 C1685 1.387 . S
C1687 C1689 1.390 . S
C1687 H1691 0.950 . S
H1688 C1684 0.950 . S
C1689 C1687 1.390 . S
C1689 C1690 1.387 . S
C1689 H1692 0.950 . S
C1690 C1689 1.387 . S
C1690 C1693 1.387 . S
H1691 C1687 0.950 . S
H1692 C1689 0.950 . S
C1693 C1684 1.390 . S
C1693 H1686 0.950 . S
C1693 C1690 1.387 . S
C1694 C1695 1.387 . S
C1694 H1698 0.950 1_554 S
C1694 C1703 1.390 . S
C1695 C1694 1.387 . S
C1695 C1697 1.387 . S
H1696 C1703 0.950 . S
C1697 C1695 1.387 . S
C1697 C1699 1.390 . S
C1697 H1701 0.950 . S
H1698 C1694 0.950 1_556 S
C1699 C1697 1.390 . S
C1699 C1700 1.387 . S
C1699 H1702 0.950 . S
C1700 C1699 1.387 . S
C1700 C1703 1.387 . S
H1701 C1697 0.950 . S
H1702 C1699 0.950 . S
C1703 C1694 1.390 . S
C1703 H1696 0.950 . S
C1703 C1700 1.387 . S
C1704 C1705 1.387 . S
C1704 H1708 0.950 . S
C1704 C1713 1.390 . S
C1705 C1704 1.387 . S
C1705 C1707 1.387 . S
H1706 C1713 0.950 . S
C1707 C1705 1.387 . S
C1707 C1709 1.390 . S
C1707 H1711 0.950 . S
H1708 C1704 0.950 . S
C1709 C1707 1.390 . S
C1709 C1710 1.387 . S
C1709 H1712 0.950 . S
C1710 C1709 1.387 . S
C1710 C1713 1.387 . S
H1711 C1707 0.950 . S
H1712 C1709 0.950 . S
C1713 C1704 1.390 . S
C1713 H1706 0.950 . S
C1713 C1710 1.387 . S
C1714 C1715 1.387 . S
C1714 H1718 0.950 . S
C1714 C1723 1.390 . S
C1715 C1714 1.387 . S
C1715 C1717 1.387 . S
H1716 C1723 0.950 . S
C1717 C1715 1.387 . S
C1717 C1719 1.390 . S
C1717 H1721 0.950 . S
H1718 C1714 0.950 . S
C1719 C1717 1.390 . S
C1719 C1720 1.387 . S
C1719 H1722 0.950 . S
C1720 C1719 1.387 . S
C1720 C1723 1.387 . S
H1721 C1717 0.950 . S
H1722 C1719 0.950 . S
C1723 C1714 1.390 . S
C1723 H1716 0.950 . S
C1723 C1720 1.387 . S
C1724 C1725 1.387 . S
C1724 H1728 0.950 . S
C1724 C1733 1.390 . S
C1725 C1724 1.387 . S
C1725 C1727 1.387 . S
H1726 C1733 0.950 . S
C1727 C1725 1.387 . S
C1727 C1729 1.390 . S
C1727 H1731 0.950 . S
H1728 C1724 0.950 . S
C1729 C1727 1.390 . S
C1729 C1730 1.387 . S
C1729 H1732 0.950 . S
C1730 C1729 1.387 . S
C1730 C1733 1.387 . S
H1731 C1727 0.950 . S
H1732 C1729 0.950 . S
C1733 C1724 1.390 . S
C1733 H1726 0.950 . S
C1733 C1730 1.387 . S
C1734 C1735 1.387 1_556 S
C1734 H1738 0.950 1_545 S
C1734 C1743 1.390 . S
C1735 C1734 1.387 1_554 S
C1735 C1737 1.387 . S
H1736 C1743 0.950 . S
C1737 C1735 1.387 . S
C1737 C1739 1.390 . S
C1737 H1741 0.950 . S
H1738 C1734 0.950 1_565 S
C1739 C1737 1.390 . S
C1739 C1740 1.387 1_554 S
C1739 H1742 0.950 . S
C1740 C1739 1.387 1_556 S
C1740 C1743 1.387 . S
H1741 C1737 0.950 . S
H1742 C1739 0.950 . S
C1743 C1734 1.390 . S
C1743 H1736 0.950 . S
C1743 C1740 1.387 . S
C1744 C1745 1.387 . S
C1744 H1748 0.950 . S
C1744 C1753 1.390 . S
C1745 C1744 1.387 . S
C1745 C1747 1.387 . S
H1746 C1753 0.951 . S
C1747 C1745 1.387 . S
C1747 C1749 1.390 . S
C1747 H1751 0.950 . S
H1748 C1744 0.950 . S
C1749 C1747 1.390 . S
C1749 C1750 1.387 . S
C1749 H1752 0.950 . S
C1750 C1749 1.387 . S
C1750 C1753 1.387 . S
H1751 C1747 0.950 . S
H1752 C1749 0.950 . S
C1753 C1744 1.390 . S
C1753 H1746 0.951 . S
C1753 C1750 1.387 . S
C1754 C1755 1.387 . S
C1754 H1758 0.950 . S
C1754 C1763 1.390 1_556 S
C1755 C1754 1.387 . S
C1755 C1757 1.387 1_556 S
H1756 C1763 0.950 . S
C1757 C1755 1.387 1_554 S
C1757 C1759 1.390 . S
C1757 H1761 0.950 . S
H1758 C1754 0.950 . S
C1759 C1757 1.390 . S
C1759 C1760 1.387 . S
C1759 H1762 0.950 . S
C1760 C1759 1.387 . S
C1760 C1763 1.387 . S
H1761 C1757 0.950 . S
H1762 C1759 0.950 . S
C1763 C1754 1.390 1_554 S
C1763 H1756 0.950 . S
C1763 C1760 1.387 . S
C1764 C1765 1.387 . S
C1764 H1768 0.950 . S
C1764 C1773 1.390 . S
C1765 C1764 1.387 . S
C1765 C1767 1.387 . S
H1766 C1773 0.950 . S
C1767 C1765 1.387 . S
C1767 C1769 1.390 . S
C1767 H1771 0.950 . S
H1768 C1764 0.950 . S
C1769 C1767 1.390 . S
C1769 C1770 1.387 . S
C1769 H1772 0.950 . S
C1770 C1769 1.387 . S
C1770 C1773 1.387 . S
H1771 C1767 0.950 . S
H1772 C1769 0.950 . S
C1773 C1764 1.390 . S
C1773 H1766 0.950 . S
C1773 C1770 1.387 . S
C1774 C1775 1.387 . S
C1774 H1778 0.950 . S
C1774 C1783 1.390 . S
C1775 C1774 1.387 . S
C1775 C1777 1.387 . S
H1776 C1783 0.950 . S
C1777 C1775 1.387 . S
C1777 C1779 1.390 . S
C1777 H1781 0.950 . S
H1778 C1774 0.950 . S
C1779 C1777 1.390 . S
C1779 C1780 1.387 . S
C1779 H1782 0.950 . S
C1780 C1779 1.387 . S
C1780 C1783 1.387 . S
H1781 C1777 0.950 . S
H1782 C1779 0.950 . S
C1783 C1774 1.390 . S
C1783 H1776 0.950 . S
C1783 C1780 1.387 . S
C1784 C1785 1.387 . S
C1784 H1788 0.950 . S
C1784 C1793 1.390 . S
C1785 C1784 1.387 . S
C1785 C1787 1.387 . S
H1786 C1793 0.950 . S
C1787 C1785 1.387 . S
C1787 C1789 1.390 . S
C1787 H1791 0.950 . S
H1788 C1784 0.950 . S
C1789 C1787 1.390 . S
C1789 C1790 1.387 . S
C1789 H1792 0.950 . S
C1790 C1789 1.387 . S
C1790 C1793 1.387 . S
H1791 C1787 0.950 . S
H1792 C1789 0.950 . S
C1793 C1784 1.390 . S
C1793 H1786 0.950 . S
C1793 C1790 1.387 . S
C1794 C1795 1.387 . S
C1794 H1798 0.950 . S
C1794 C1803 1.390 1_554 S
C1795 C1794 1.387 . S
C1795 C1797 1.387 . S
H1796 C1803 0.950 . S
C1797 C1795 1.387 . S
C1797 C1799 1.390 . S
C1797 H1801 0.950 . S
H1798 C1794 0.950 . S
C1799 C1797 1.390 . S
C1799 C1800 1.387 1_554 S
C1799 H1802 0.950 . S
C1800 C1799 1.387 1_556 S
C1800 C1803 1.387 . S
H1801 C1797 0.950 . S
H1802 C1799 0.950 . S
C1803 C1794 1.390 1_556 S
C1803 H1796 0.950 . S
C1803 C1800 1.387 . S
C1804 C1805 1.387 1_565 S
C1804 H1808 0.950 . S
C1804 C1813 1.390 . S
C1805 C1804 1.387 1_545 S
C1805 C1807 1.387 . S
H1806 C1813 0.950 . S
C1807 C1805 1.387 . S
C1807 C1809 1.390 . S
C1807 H1811 0.950 . S
H1808 C1804 0.950 . S
C1809 C1807 1.390 . S
C1809 C1810 1.387 . S
C1809 H1812 0.950 . S
C1810 C1809 1.387 . S
C1810 C1813 1.387 1_545 S
H1811 C1807 0.950 . S
H1812 C1809 0.950 . S
C1813 C1804 1.390 . S
C1813 H1806 0.950 . S
C1813 C1810 1.387 1_565 S
C1814 C1815 1.387 . S
C1814 H1818 0.950 . S
C1814 C1823 1.390 . S
C1815 C1814 1.387 . S
C1815 C1817 1.387 . S
H1816 C1823 0.950 . S
C1817 C1815 1.387 . S
C1817 C1819 1.390 . S
C1817 H1821 0.950 . S
H1818 C1814 0.950 . S
C1819 C1817 1.390 . S
C1819 C1820 1.387 . S
C1819 H1822 0.950 . S
C1820 C1819 1.387 . S
C1820 C1823 1.387 . S
H1821 C1817 0.950 . S
H1822 C1819 0.950 . S
C1823 C1814 1.390 . S
C1823 H1816 0.950 . S
C1823 C1820 1.387 . S
C1345 C56 3.796 . S
C1350 C1155 3.758 . S
C1355 C158 3.862 . S
C1360 C987 3.647 . S
C1365 C1064 3.796 . S
C1370 C231 3.759 . S
C1375 C315 3.645 1_455 S
C1380 C914 3.862 . S
C1385 C403 3.796 . S
C1390 C1334 3.758 . S
C1395 C830 3.645 . S
C1400 C483 3.862 . S
C1405 C578 3.758 . S
C1410 C1243 3.796 1_565 S
C1415 C662 3.647 . S
C1420 C735 3.862 . S
C1425 C1166 1.745 . S
C1430 C67 1.798 . S
C1435 C998 1.796 . S
C1440 C147 1.773 1_455 S
C1445 C1075 1.798 . S
C1450 C242 1.745 . S
C1455 C903 1.771 . S
C1460 C326 1.799 . S
C1465 C392 1.797 . S
C1470 C1323 1.742 1_565 S
C1475 C819 1.799 . S
C1480 C494 1.771 . S
C1485 C1232 1.798 . S
C1490 C567 1.742 . S
C1495 C746 1.774 . S
C1500 C651 1.796 . S
C1505 C825 1.205 . S
C1510 C63 1.343 . S
C1515 C1234 0.801 . S
C1520 C153 0.763 . S
C1525 C728 1.589 . S
C1530 C224 1.664 . S
C1535 C1329 0.560 . S
C1540 C308 0.396 . S
C1545 C909 0.770 . S
C1550 C394 0.806 . S
C1555 C476 1.587 . S
C1560 C1148 1.665 . S
C1565 C980 0.394 . S
C1570 C573 0.555 . S
C1575 C1071 1.340 . S
C1580 C657 1.200 1_565 S
C1585 C310 1.199 . S
C1590 C410 1.340 . S
C1595 C1077 0.802 . S
C1600 C730 0.765 . S
C1605 C151 1.588 . S
C1610 C571 1.665 . S
C1615 C823 0.394 . S
C1620 C1150 0.557 . S
C1625 C478 0.771 . S
C1630 C69 0.807 . S
C1635 C1327 1.665 . S
C1640 C907 1.589 . S
C1645 C655 0.396 . S
C1650 C226 0.559 . S
C1655 C1250 1.340 . S
C1660 C982 1.199 . S
C1665 C58 1.489 . S
C1670 C560 1.812 . S
C1675 C140 1.247 1_545 S
C1680 C644 1.320 . S
C1685 C399 1.649 . S
C1690 C237 1.276 . S
C1695 C321 1.481 1_554 S
C1700 C489 1.643 . S
C1705 C235 1.813 . S
C1710 C405 1.490 . S
C1715 C739 1.250 . S
C1720 C991 1.321 . S
C1725 C562 1.273 . S
C1730 C74 1.647 . S
C1735 C814 1.491 1_545 S
C1740 C898 1.644 . S
C1745 C1316 1.813 . S
C1750 C1066 1.490 1_545 S
C1755 C896 1.251 . S
C1760 C812 1.320 . S
C1765 C1239 1.649 . S
C1770 C1161 1.274 . S
C1775 C741 1.644 . S
C1780 C993 1.488 . S
C1785 C1159 1.812 . S
C1790 C1245 1.489 . S
C1795 C487 1.250 . S
C1800 C319 1.320 . S
C1805 C1318 1.276 . S
C1810 C1082 1.649 . S
C1815 C142 1.644 . S
C1820 C646 1.488 . S
