# Generated by pormake.
# Topology unj, (4)-cn, num edge types: 1
# Building blocks:
#     Node 0, Type 0, BuildingBlock: UXUYUI_clean_sbu_0, # of connection points: 4
#     Node 1, Type 0, BuildingBlock: UXUYUI_clean_sbu_0, # of connection points: 4
#     Node 2, Type 0, BuildingBlock: UXUYUI_clean_sbu_0, # of connection points: 4
#     Node 3, Type 0, BuildingBlock: UXUYUI_clean_sbu_0, # of connection points: 4
#     Node 4, Type 0, BuildingBlock: UXUYUI_clean_sbu_0, # of connection points: 4
#     Node 5, Type 0, BuildingBlock: UXUYUI_clean_sbu_0, # of connection points: 4
#     Edge 6, Type (0, 0), BuildingBlock: OJICUG_clean_linker_0, # of connection points: 2
#     Edge 7, Type (0, 0), BuildingBlock: OJICUG_clean_linker_0, # of connection points: 2
#     Edge 8, Type (0, 0), BuildingBlock: OJICUG_clean_linker_0, # of connection points: 2
#     Edge 9, Type (0, 0), BuildingBlock: OJICUG_clean_linker_0, # of connection points: 2
#     Edge 10, Type (0, 0), BuildingBlock: OJICUG_clean_linker_0, # of connection points: 2
#     Edge 11, Type (0, 0), BuildingBlock: OJICUG_clean_linker_0, # of connection points: 2
#     Edge 12, Type (0, 0), BuildingBlock: OJICUG_clean_linker_0, # of connection points: 2
#     Edge 13, Type (0, 0), BuildingBlock: OJICUG_clean_linker_0, # of connection points: 2
#     Edge 14, Type (0, 0), BuildingBlock: OJICUG_clean_linker_0, # of connection points: 2
#     Edge 15, Type (0, 0), BuildingBlock: OJICUG_clean_linker_0, # of connection points: 2
#     Edge 16, Type (0, 0), BuildingBlock: OJICUG_clean_linker_0, # of connection points: 2
#     Edge 17, Type (0, 0), BuildingBlock: OJICUG_clean_linker_0, # of connection points: 2
# Relax obj value: 0.030
# Max RMSD: 0.052
# Mean RMSD: 0.052
data_MOF--net-unj--node1-UXUYUI_clean_sbu_0--edge1-OJICUG_clean_linker_0
_symmetry_space_group_name_H-M    P1
_symmetry_Int_Tables_number       1
_symmetry_cell_setting            triclinic
loop_
_symmetry_equiv_pos_as_xyz
'x, y, z'
_cell_length_a     41.428989
_cell_length_b     41.443258
_cell_length_c     40.202288
_cell_angle_alpha  89.999852
_cell_angle_beta   90.096366
_cell_angle_gamma 120.00253
loop_
_atom_site_label
_atom_site_type_symbol
_atom_site_fract_x
_atom_site_fract_y
_atom_site_fract_z
_atom_type_partial_charge
Li0 Li 0.46335 0.20823 0.58111 0.0
Li1 Li 0.513 0.24567 0.62098 0.0
Li2 Li 0.46337 0.26134 0.60561 0.0
Li3 Li 0.51346 0.27363 0.56611 0.0
C4 C 0.433 0.1824 0.64065 0.0
N5 N 0.38202 0.11175 0.66257 0.0
C6 C 0.44465 0.16252 0.66063 0.0
C7 C 0.39536 0.16656 0.63218 0.0
C8 C 0.41846 0.12679 0.67139 0.0
C9 C 0.37004 0.13074 0.64339 0.0
C10 C 0.54831 0.22499 0.56993 0.0
C11 C 0.61406 0.25177 0.55901 0.0
N12 N 0.60953 0.21698 0.55726 0.0
C13 C 0.54425 0.18948 0.5675 0.0
C14 C 0.58344 0.25638 0.56522 0.0
C15 C 0.57555 0.18602 0.56131 0.0
C16 C 0.40979 0.15109 0.53889 0.0
N17 N 0.43384 0.1586 0.56465 0.0
C18 C 0.41854 0.09489 0.56701 0.0
C19 C 0.43843 0.13139 0.57881 0.0
C20 C 0.39386 0.08623 0.54009 0.0
C21 C 0.38936 0.11488 0.52617 0.0
H22 H 0.40692 0.17332 0.52785 0.0
H23 H 0.45786 0.13813 0.59914 0.0
C24 C 0.55357 0.26936 0.68123 0.0
N25 N 0.54344 0.24425 0.65601 0.0
C26 C 0.5765 0.26968 0.70689 0.0
C27 C 0.57705 0.21742 0.68083 0.0
C28 C 0.55423 0.21821 0.65563 0.0
C29 C 0.58871 0.24356 0.70683 0.0
H30 H 0.54391 0.28924 0.68136 0.0
H31 H 0.54493 0.19784 0.63589 0.0
C32 C 0.43461 0.25848 0.54558 0.0
N33 N 0.38598 0.28094 0.52283 0.0
C34 C 0.44795 0.29121 0.52702 0.0
C35 C 0.3965 0.23693 0.55221 0.0
C36 C 0.42292 0.30214 0.51582 0.0
C37 C 0.37238 0.24883 0.54061 0.0
C38 C 0.54864 0.32865 0.61853 0.0
C39 C 0.54499 0.35985 0.62486 0.0
C40 C 0.58385 0.33191 0.62027 0.0
C41 C 0.57673 0.39394 0.63216 0.0
C42 C 0.61491 0.36645 0.6277 0.0
N43 N 0.61075 0.39652 0.63338 0.0
C44 C 0.40848 0.26459 0.64602 0.0
C45 C 0.44043 0.31466 0.60835 0.0
C46 C 0.38815 0.28064 0.65829 0.0
N47 N 0.43408 0.28182 0.62156 0.0
C48 C 0.42071 0.33159 0.61973 0.0
C49 C 0.39436 0.31479 0.64528 0.0
H50 H 0.40426 0.2387 0.65639 0.0
H51 H 0.46117 0.32793 0.58911 0.0
C52 C 0.54953 0.28962 0.50392 0.0
N53 N 0.54406 0.30549 0.53132 0.0
C54 C 0.57186 0.31186 0.47787 0.0
C55 C 0.58235 0.36635 0.50864 0.0
C56 C 0.55954 0.34305 0.5339 0.0
C57 C 0.58882 0.35088 0.48005 0.0
H58 H 0.53646 0.25961 0.50233 0.0
H59 H 0.5541 0.35507 0.55545 0.0
O60 O 0.45831 0.21721 0.62953 0.0
O61 O 0.51782 0.22881 0.57581 0.0
O62 O 0.45876 0.24759 0.55713 0.0
O63 O 0.51777 0.29508 0.61123 0.0
H64 H 0.47364 0.17445 0.66757 0.0
H65 H 0.38586 0.18166 0.61692 0.0
H66 H 0.42712 0.11099 0.6867 0.0
H67 H 0.34087 0.11803 0.63682 0.0
H68 H 0.64139 0.27587 0.5554 0.0
H69 H 0.51728 0.16482 0.57055 0.0
H70 H 0.58707 0.28403 0.56585 0.0
H71 H 0.57281 0.1587 0.55965 0.0
H72 H 0.42252 0.07368 0.57889 0.0
H73 H 0.37101 0.10962 0.50514 0.0
H74 H 0.58419 0.28985 0.72678 0.0
H75 H 0.58583 0.19683 0.67972 0.0
H76 H 0.47734 0.30815 0.52155 0.0
H77 H 0.3857 0.21139 0.5663 0.0
H78 H 0.43287 0.32753 0.5016 0.0
H79 H 0.34284 0.23255 0.54574 0.0
H80 H 0.51798 0.35785 0.62406 0.0
H81 H 0.58714 0.30793 0.61654 0.0
H82 H 0.57431 0.41833 0.63691 0.0
H83 H 0.6423 0.3693 0.62911 0.0
H84 H 0.36849 0.26691 0.67829 0.0
H85 H 0.42609 0.35761 0.6086 0.0
H86 H 0.57535 0.29854 0.4561 0.0
H87 H 0.59501 0.3962 0.51173 0.0
Li88 Li 0.27371 0.50166 0.78343 0.0
Li89 Li 0.26358 0.45476 0.74282 0.0
Li90 Li 0.24711 0.5019 0.72999 0.0
Li91 Li 0.21081 0.45344 0.76922 0.0
C92 C 0.32356 0.54592 0.73382 0.0
N93 N 0.37609 0.61982 0.72312 0.0
C94 C 0.35468 0.55525 0.71399 0.0
C95 C 0.31921 0.57419 0.74827 0.0
C96 C 0.38092 0.59277 0.70886 0.0
C97 C 0.34605 0.61137 0.74255 0.0
C98 C 0.27435 0.44006 0.80865 0.0
C99 C 0.28664 0.41016 0.85446 0.0
N100 N 0.32284 0.42607 0.84475 0.0
C101 C 0.31168 0.45611 0.79911 0.0
C102 C 0.26169 0.4169 0.83653 0.0
C103 C 0.33575 0.4487 0.81768 0.0
C104 C 0.2889 0.53765 0.84571 0.0
N105 N 0.30512 0.53162 0.81889 0.0
C106 C 0.36567 0.56922 0.8426 0.0
C107 C 0.34271 0.5466 0.81701 0.0
C108 C 0.34979 0.57625 0.87053 0.0
C109 C 0.31082 0.55994 0.87201 0.0
H110 H 0.25892 0.52528 0.84655 0.0
H111 H 0.35495 0.54115 0.79556 0.0
C112 C 0.30624 0.44056 0.69765 0.0
N113 N 0.28341 0.42592 0.72435 0.0
C114 C 0.32351 0.42218 0.68382 0.0
C115 C 0.29268 0.37341 0.7247 0.0
C116 C 0.27608 0.39283 0.73782 0.0
C117 C 0.31711 0.38829 0.69755 0.0
H118 H 0.3113 0.46678 0.68731 0.0
H119 H 0.25788 0.3818 0.75913 0.0
C120 C 0.20095 0.51443 0.77228 0.0
N121 N 0.14202 0.52771 0.76807 0.0
C122 C 0.17536 0.49928 0.74613 0.0
C123 C 0.19659 0.53634 0.79627 0.0
C124 C 0.14575 0.50631 0.74444 0.0
C125 C 0.16661 0.54274 0.79371 0.0
C126 C 0.19643 0.41116 0.71128 0.0
C127 C 0.18208 0.4024 0.67899 0.0
C128 C 0.18938 0.3825 0.7336 0.0
C129 C 0.16089 0.36504 0.66952 0.0
C130 C 0.16809 0.3455 0.72318 0.0
N131 N 0.1544 0.3376 0.69163 0.0
C132 C 0.24335 0.52132 0.6635 0.0
C133 C 0.24784 0.56582 0.70304 0.0
C134 C 0.2429 0.54337 0.6374 0.0
N135 N 0.24584 0.53288 0.69552 0.0
C136 C 0.24764 0.58879 0.67775 0.0
C137 C 0.24527 0.57772 0.64439 0.0
H138 H 0.24199 0.49506 0.65827 0.0
H139 H 0.24969 0.57438 0.72869 0.0
C140 C 0.15861 0.41954 0.82057 0.0
N141 N 0.16195 0.42358 0.787 0.0
C142 C 0.12339 0.39996 0.83519 0.0
C143 C 0.09575 0.38861 0.78036 0.0
C144 C 0.13147 0.40859 0.76682 0.0
C145 C 0.09135 0.38435 0.81501 0.0
H146 H 0.18335 0.43204 0.83599 0.0
H147 H 0.1348 0.41273 0.74023 0.0
O148 O 0.29766 0.50924 0.73892 0.0
O149 O 0.25014 0.44693 0.79103 0.0
O150 O 0.23007 0.5078 0.77472 0.0
O151 O 0.21734 0.44768 0.72071 0.0
H152 H 0.35855 0.53372 0.7027 0.0
H153 H 0.29545 0.56759 0.76384 0.0
H154 H 0.40514 0.60038 0.69356 0.0
H155 H 0.343 0.63351 0.75358 0.0
H156 H 0.27721 0.39229 0.87611 0.0
H157 H 0.32201 0.47404 0.77757 0.0
H158 H 0.23286 0.40429 0.84423 0.0
H159 H 0.3647 0.46093 0.81057 0.0
H160 H 0.39553 0.5808 0.84068 0.0
H161 H 0.29748 0.56487 0.89298 0.0
H162 H 0.34168 0.43437 0.66258 0.0
H163 H 0.28723 0.34756 0.73625 0.0
H164 H 0.17826 0.48228 0.72731 0.0
H165 H 0.21617 0.54826 0.81667 0.0
H166 H 0.12573 0.49474 0.72435 0.0
H167 H 0.16288 0.55964 0.81211 0.0
H168 H 0.18727 0.42427 0.66143 0.0
H169 H 0.2001 0.38865 0.75872 0.0
H170 H 0.14962 0.35786 0.6446 0.0
H171 H 0.16243 0.32306 0.7402 0.0
H172 H 0.24146 0.53396 0.61202 0.0
H173 H 0.24904 0.61481 0.68429 0.0
H174 H 0.12125 0.39708 0.862 0.0
H175 H 0.07181 0.37753 0.76394 0.0
Li176 Li 0.822 0.25887 0.91522 0.0
Li177 Li 0.78476 0.27019 0.95412 0.0
Li178 Li 0.76877 0.20684 0.9407 0.0
Li179 Li 0.75927 0.2442 0.90027 0.0
C180 C 0.83532 0.23011 0.97321 0.0
N181 N 0.87717 0.19855 0.99332 0.0
C182 C 0.84907 0.23535 1.0057 0.0
C183 C 0.84287 0.20883 0.95092 0.0
C184 C 0.87018 0.21916 0.0154 0.0
C185 C 0.86407 0.19311 0.96157 0.0
C186 C 0.83167 0.32967 0.913 0.0
C187 C 0.86614 0.3929 0.89298 0.0
N188 N 0.89029 0.40185 0.9189 0.0
C189 C 0.85681 0.33951 0.93947 0.0
C190 C 0.83633 0.35656 0.88957 0.0
C191 C 0.88627 0.37613 0.942 0.0
C192 C 0.87557 0.27823 0.86478 0.0
N193 N 0.87128 0.27825 0.89827 0.0
C194 C 0.93727 0.30937 0.90634 0.0
C195 C 0.9012 0.29334 0.9191 0.0
C196 C 0.94272 0.31024 0.87177 0.0
C197 C 0.91119 0.29414 0.85091 0.0
H198 H 0.85126 0.26645 0.84881 0.0
H199 H 0.89714 0.29344 0.94563 0.0
C200 C 0.78723 0.29189 0.02081 0.0
N201 N 0.78548 0.30181 0.98893 0.0
C202 C 0.78799 0.31417 0.04723 0.0
C203 C 0.78505 0.35639 1.00748 0.0
C204 C 0.7843 0.3333 0.98186 0.0
C205 C 0.78694 0.34697 0.04072 0.0
H206 H 0.78809 0.26667 0.02567 0.0
H207 H 0.78274 0.34052 0.95631 0.0
C208 C 0.75957 0.18259 0.87437 0.0
N209 N 0.71231 0.12088 0.83684 0.0
C210 C 0.72221 0.16045 0.88351 0.0
C211 C 0.7729 0.17335 0.84616 0.0
C212 C 0.69877 0.12937 0.86422 0.0
C213 C 0.74857 0.14203 0.8275 0.0
C214 C 0.70836 0.23759 0.94905 0.0
C215 C 0.67661 0.2152 0.96796 0.0
C216 C 0.71311 0.27059 0.93509 0.0
C217 C 0.65013 0.22625 0.97268 0.0
C218 C 0.68601 0.28067 0.94038 0.0
N219 N 0.65534 0.25849 0.95892 0.0
C220 C 0.72558 0.14952 0.98522 0.0
C221 C 0.7564 0.13239 0.94533 0.0
C222 C 0.70821 0.11377 0.99883 0.0
N223 N 0.74879 0.15798 0.95877 0.0
C224 C 0.7397 0.09627 0.95824 0.0
C225 C 0.7149 0.08646 0.98513 0.0
H226 H 0.72031 0.17055 0.99553 0.0
H227 H 0.7749 0.13978 0.92423 0.0
C228 C 0.74432 0.26705 0.83882 0.0
N229 N 0.72824 0.24312 0.86464 0.0
C230 C 0.72246 0.26755 0.81252 0.0
C231 C 0.66801 0.21852 0.83977 0.0
C232 C 0.69087 0.21904 0.86554 0.0
C233 C 0.68372 0.24306 0.8128 0.0
H234 H 0.77414 0.28577 0.83871 0.0
H235 H 0.6787 0.20036 0.88641 0.0
O236 O 0.81449 0.24575 0.96354 0.0
O237 O 0.80266 0.29395 0.90977 0.0
O238 O 0.78317 0.2133 0.89271 0.0
O239 O 0.73447 0.22701 0.94432 0.0
H240 H 0.84349 0.25177 0.02324 0.0
H241 H 0.83262 0.20455 0.92564 0.0
H242 H 0.881 0.22299 0.04048 0.0
H243 H 0.87012 0.17658 0.94458 0.0
H244 H 0.87008 0.414 0.87501 0.0
H245 H 0.85365 0.31915 0.95791 0.0
H246 H 0.81708 0.3494 0.86895 0.0
H247 H 0.90593 0.3841 0.96235 0.0
H248 H 0.96063 0.32099 0.92343 0.0
H249 H 0.91399 0.29466 0.82412 0.0
H250 H 0.78982 0.30602 0.07245 0.0
H251 H 0.78361 0.38108 1.00131 0.0
H252 H 0.71138 0.16709 0.90529 0.0
H253 H 0.80176 0.19023 0.83876 0.0
H254 H 0.6698 0.112 0.87101 0.0
H255 H 0.7585 0.13455 0.80559 0.0
H256 H 0.67244 0.18951 0.97886 0.0
H257 H 0.73735 0.28821 0.92023 0.0
H258 H 0.62542 0.20918 0.98728 0.0
H259 H 0.68935 0.30613 0.92972 0.0
H260 H 0.68976 0.10759 0.01988 0.0
H261 H 0.74539 0.07601 0.94673 0.0
H262 H 0.7358 0.28661 0.79203 0.0
H263 H 0.63825 0.19952 0.84126 0.0
Li264 Li 0.56963 0.81344 0.07765 0.0
Li265 Li 0.52025 0.77572 0.1177 0.0
Li266 Li 0.57076 0.76116 0.10254 0.0
Li267 Li 0.52039 0.7478 0.06301 0.0
C268 C 0.59918 0.84046 0.13699 0.0
N269 N 0.64786 0.91219 0.15821 0.0
C270 C 0.58611 0.85988 0.15586 0.0
C271 C 0.63706 0.85734 0.12924 0.0
C272 C 0.61116 0.89616 0.16629 0.0
C273 C 0.66121 0.89369 0.14008 0.0
C274 C 0.48382 0.79407 0.06516 0.0
C275 C 0.41754 0.7643 0.05548 0.0
N276 N 0.42087 0.79821 0.05001 0.0
C277 C 0.48663 0.82859 0.05903 0.0
C278 C 0.44904 0.76163 0.06305 0.0
C279 C 0.45447 0.83012 0.05158 0.0
C280 C 0.62396 0.87143 0.03677 0.0
N281 N 0.5983 0.86306 0.06118 0.0
C282 C 0.61119 0.92605 0.06258 0.0
C283 C 0.59166 0.88946 0.07414 0.0
C284 C 0.63764 0.93561 0.03712 0.0
C285 C 0.6441 0.90774 0.02433 0.0
H286 H 0.62844 0.84982 0.02665 0.0
H287 H 0.57097 0.882 0.09342 0.0
C288 C 0.48429 0.75549 0.17995 0.0
N289 N 0.48981 0.77695 0.15263 0.0
C290 C 0.46203 0.75542 0.20607 0.0
C291 C 0.45187 0.79981 0.17556 0.0
C292 C 0.47452 0.79921 0.15019 0.0
C293 C 0.44531 0.77771 0.20405 0.0
H294 H 0.49723 0.73843 0.18144 0.0
H295 H 0.48001 0.81672 0.12866 0.0
C296 C 0.59967 0.76416 0.04269 0.0
N297 N 0.64934 0.74287 0.0205 0.0
C298 C 0.58703 0.7318 0.02367 0.0
C299 C 0.63761 0.78594 0.05008 0.0
C300 C 0.61259 0.72146 0.01276 0.0
C301 C 0.66227 0.77462 0.03875 0.0
C302 C 0.48648 0.69251 0.11539 0.0
C303 C 0.49125 0.66162 0.11923 0.0
C304 C 0.45111 0.68831 0.11971 0.0
C305 C 0.46041 0.6269 0.12655 0.0
C306 C 0.42097 0.65316 0.12706 0.0
N307 N 0.42618 0.62342 0.13024 0.0
C308 C 0.62593 0.76015 0.14411 0.0
C309 C 0.59721 0.71027 0.10564 0.0
C310 C 0.64775 0.74588 0.15672 0.0
N311 N 0.60128 0.74221 0.11904 0.0
C312 C 0.61856 0.69517 0.11731 0.0
C313 C 0.64415 0.71291 0.14331 0.0
H314 H 0.62845 0.78536 0.15451 0.0
H315 H 0.57707 0.69629 0.08603 0.0
C316 C 0.48302 0.7318 1.00152 0.0
N317 N 0.48974 0.71582 0.02817 0.0
C318 C 0.46031 0.70974 0.97551 0.0
C319 C 0.45234 0.65519 1.00458 0.0
C320 C 0.47535 0.67832 0.02993 0.0
C321 C 0.44445 0.67084 0.97694 0.0
H322 H 0.49513 0.76174 1.0006 0.0
H323 H 0.48193 0.66631 0.05082 0.0
O324 O 0.57499 0.80512 0.12617 0.0
O325 O 0.51512 0.79217 0.07253 0.0
O326 O 0.57501 0.77446 0.05395 0.0
O327 O 0.5165 0.72673 0.10831 0.0
H328 H 0.5569 0.84718 0.16218 0.0
H329 H 0.64763 0.84263 0.11479 0.0
H330 H 0.60141 0.91161 0.18075 0.0
H331 H 0.69055 0.90719 0.13407 0.0
H332 H 0.39047 0.73938 0.05379 0.0
H333 H 0.51331 0.85398 0.06011 0.0
H334 H 0.44639 0.73461 0.06666 0.0
H335 H 0.45624 0.85668 0.04699 0.0
H336 H 0.60564 0.94664 0.07355 0.0
H337 H 0.66386 0.91369 1.00442 0.0
H338 H 0.45842 0.73847 0.22776 0.0
H339 H 0.43939 0.81719 0.17265 0.0
H340 H 0.55778 0.71471 0.01763 0.0
H341 H 0.64785 0.81114 0.06463 0.0
H342 H 0.60318 0.69637 0.99818 0.0
H343 H 0.69167 0.79106 0.04449 0.0
H344 H 0.51843 0.66432 0.11644 0.0
H345 H 0.44695 0.71197 0.11791 0.0
H346 H 0.4637 0.60274 0.12935 0.0
H347 H 0.39345 0.64957 0.1304 0.0
H348 H 0.66729 0.76056 0.17665 0.0
H349 H 0.61442 0.66939 0.10661 0.0
H350 H 0.45479 0.72294 0.95474 0.0
H351 H 0.44129 0.62541 1.00635 0.0
Li352 Li 0.76699 0.56696 0.24352 0.0
Li353 Li 0.75617 0.51929 0.28394 0.0
Li354 Li 0.82126 0.56611 0.27 0.0
Li355 Li 0.78114 0.51683 0.23134 0.0
C356 C 0.76308 0.58208 0.31441 0.0
N357 N 0.72396 0.59664 0.36201 0.0
C358 C 0.7279 0.57708 0.30703 0.0
C359 C 0.77841 0.59458 0.346 0.0
C360 C 0.70855 0.58456 0.33141 0.0
C361 C 0.75819 0.60176 0.36973 0.0
C362 C 0.69543 0.48734 0.24459 0.0
C363 C 0.64689 0.42512 0.25852 0.0
N364 N 0.62112 0.43613 0.25552 0.0
C365 C 0.66841 0.49799 0.24153 0.0
C366 C 0.68456 0.45056 0.25304 0.0
C367 C 0.63101 0.4717 0.24719 0.0
C368 C 0.72953 0.58586 0.19618 0.0
N369 N 0.75024 0.59814 0.22442 0.0
C370 C 0.7437 0.65228 0.22535 0.0
C371 C 0.75807 0.63096 0.23883 0.0
C372 C 0.72119 0.63974 0.1967 0.0
C373 C 0.71453 0.6062 0.1819 0.0
H374 H 0.72394 0.55973 0.18519 0.0
H375 H 0.77503 0.64033 0.26108 0.0
C376 C 0.73891 0.47323 0.34036 0.0
N377 N 0.72545 0.49038 0.32051 0.0
C378 C 0.71772 0.45099 0.36691 0.0
C379 C 0.66925 0.46467 0.35235 0.0
C380 C 0.69153 0.48694 0.32637 0.0
C381 C 0.68216 0.44618 0.37307 0.0
H382 H 0.76618 0.4768 0.33557 0.0
H383 H 0.6813 0.50089 0.31056 0.0
C384 C 0.8346 0.60663 0.21051 0.0
N385 N 0.87832 0.67851 0.18736 0.0
C386 C 0.84765 0.61285 0.1778 0.0
C387 C 0.84373 0.63695 0.23146 0.0
C388 C 0.86975 0.64941 0.16656 0.0
C389 C 0.86587 0.67307 0.21928 0.0
C390 C 0.81064 0.48714 0.26888 0.0
C391 C 0.84764 0.50005 0.25973 0.0
C392 C 0.78548 0.44885 0.26993 0.0
C393 C 0.85876 0.47435 0.25134 0.0
C394 C 0.79768 0.42404 0.26132 0.0
N395 N 0.83375 0.4372 0.25226 0.0
C396 C 0.8751 0.59663 0.32061 0.0
C397 C 0.90079 0.61055 0.26638 0.0
C398 C 0.91065 0.61582 0.33476 0.0
N399 N 0.87081 0.59458 0.28703 0.0
C400 C 0.93687 0.63008 0.27945 0.0
C401 C 0.94219 0.63283 0.31411 0.0
H402 H 0.85085 0.58286 0.33641 0.0
H403 H 0.89679 0.60758 0.23975 0.0
C404 C 0.75075 0.45445 0.18763 0.0
N405 N 0.78246 0.48588 0.19682 0.0
C406 C 0.75165 0.43142 0.16277 0.0
C407 C 0.81778 0.47385 0.15676 0.0
C408 C 0.81558 0.49607 0.1818 0.0
C409 C 0.7855 0.44094 0.147 0.0
H410 H 0.72466 0.4473 0.19939 0.0
H411 H 0.84034 0.52138 0.18946 0.0
O412 O 0.78246 0.57481 0.29087 0.0
O413 O 0.73221 0.51273 0.23913 0.0
O414 O 0.81272 0.57096 0.22171 0.0
O415 O 0.79898 0.51189 0.27631 0.0
H416 H 0.71538 0.56702 0.28289 0.0
H417 H 0.80565 0.59879 0.35217 0.0
H418 H 0.68121 0.58062 0.32604 0.0
H419 H 0.76973 0.61143 0.39428 0.0
H420 H 0.63817 0.39666 0.2653 0.0
H421 H 0.67618 0.52627 0.23509 0.0
H422 H 0.70504 0.44188 0.25584 0.0
H423 H 0.60986 0.47962 0.24503 0.0
H424 H 0.75009 0.67823 0.23728 0.0
H425 H 0.69703 0.59518 0.16006 0.0
H426 H 0.72927 0.43799 0.38255 0.0
H427 H 0.64189 0.46151 0.35569 0.0
H428 H 0.84076 0.58963 0.16128 0.0
H429 H 0.83393 0.63269 0.25687 0.0
H430 H 0.88007 0.65465 0.14129 0.0
H431 H 0.87316 0.69679 0.23522 0.0
H432 H 0.86744 0.52959 0.25869 0.0
H433 H 0.75683 0.43839 0.27719 0.0
H434 H 0.88725 0.48395 0.24398 0.0
H435 H 0.77847 0.39433 0.26184 0.0
H436 H 0.91337 0.61734 0.36159 0.0
H437 H 0.96037 0.64209 0.26259 0.0
H438 H 0.72596 0.40674 0.15559 0.0
H439 H 0.84451 0.48214 0.14546 0.0
Li440 Li 0.21286 0.76237 0.41327 0.0
Li441 Li 0.2522 0.7524 0.45237 0.0
Li442 Li 0.26718 0.81692 0.43976 0.0
Li443 Li 0.27792 0.77973 0.39957 0.0
C444 C 0.19949 0.79003 0.47221 0.0
N445 N 0.15613 0.81915 0.49412 0.0
C446 C 0.18567 0.78326 0.50467 0.0
C447 C 0.19131 0.81164 0.45088 0.0
C448 C 0.16377 0.79821 0.51528 0.0
C449 C 0.16934 0.82611 0.46243 0.0
C450 C 0.22241 0.693 0.41294 0.0
C451 C 0.23458 0.64208 0.41828 0.0
N452 N 0.19792 0.61865 0.42503 0.0
C453 C 0.18479 0.66836 0.41959 0.0
C454 C 0.24748 0.67974 0.41196 0.0
C455 C 0.17298 0.63089 0.42575 0.0
C456 C 0.1587 0.74081 0.36276 0.0
N457 N 0.16338 0.74176 0.39627 0.0
C458 C 0.09741 0.70985 0.40459 0.0
C459 C 0.13367 0.72661 0.41723 0.0
C460 C 0.09162 0.70836 0.37002 0.0
C461 C 0.12292 0.72432 0.34903 0.0
H462 H 0.18278 0.75218 0.34667 0.0
H463 H 0.13806 0.72694 0.44376 0.0
C464 C 0.28306 0.72549 0.50056 0.0
N465 N 0.25067 0.72024 0.4871 0.0
C466 C 0.28252 0.70234 0.52601 0.0
C467 C 0.21521 0.66899 0.52371 0.0
C468 C 0.21707 0.69299 0.49841 0.0
C469 C 0.24828 0.67357 0.53789 0.0
H470 H 0.30938 0.74785 0.49179 0.0
H471 H 0.19169 0.69002 0.48787 0.0
C472 C 0.27219 0.83701 0.36961 0.0
N473 N 0.3126 0.89255 0.32386 0.0
C474 C 0.30804 0.86573 0.37744 0.0
C475 C 0.25685 0.83658 0.33851 0.0
C476 C 0.32804 0.89353 0.35399 0.0
C477 C 0.27773 0.8649 0.31572 0.0
C478 C 0.3379 0.80661 0.44036 0.0
C479 C 0.36599 0.84388 0.44325 0.0
C480 C 0.34746 0.77937 0.43351 0.0
C481 C 0.40314 0.8533 0.43887 0.0
C482 C 0.38491 0.78991 0.42926 0.0
N483 N 0.41175 0.82635 0.43199 0.0
C484 C 0.30569 0.87264 0.487 0.0
C485 C 0.27844 0.891 0.44456 0.0
C486 C 0.32211 0.90805 0.50128 0.0
N487 N 0.285 0.86505 0.45882 0.0
C488 C 0.29426 0.92683 0.45808 0.0
C489 C 0.31698 0.93591 0.48652 0.0
H490 H 0.31007 0.8513 0.49798 0.0
H491 H 0.26162 0.88414 0.42226 0.0
C492 C 0.29501 0.75089 0.34309 0.0
N493 N 0.30892 0.78107 0.3635 0.0
C494 C 0.31631 0.74969 0.3167 0.0
C495 C 0.36583 0.8108 0.33263 0.0
C496 C 0.34346 0.81093 0.35847 0.0
C497 C 0.3524 0.77987 0.31127 0.0
H498 H 0.26728 0.72768 0.34726 0.0
H499 H 0.35401 0.83481 0.37468 0.0
O500 O 0.22114 0.77572 0.46162 0.0
O501 O 0.23461 0.72989 0.4073 0.0
O502 O 0.25216 0.80941 0.39218 0.0
O503 O 0.30133 0.79686 0.44448 0.0
H504 H 0.19181 0.76661 0.52147 0.0
H505 H 0.20171 0.81715 0.42566 0.0
H506 H 0.15286 0.79318 0.54034 0.0
H507 H 0.16278 0.84286 0.44619 0.0
H508 H 0.25371 0.63148 0.41776 0.0
H509 H 0.16499 0.67809 0.42037 0.0
H510 H 0.27655 0.69827 0.40631 0.0
H511 H 0.14399 0.61157 0.43119 0.0
H512 H 0.07418 0.69815 0.42173 0.0
H513 H 0.11982 0.72321 0.32223 0.0
H514 H 0.30868 0.70676 0.53612 0.0
H515 H 0.18821 0.64758 0.53252 0.0
H516 H 0.32048 0.86637 0.40124 0.0
H517 H 0.2291 0.81468 0.33203 0.0
H518 H 0.35587 0.91583 0.35972 0.0
H519 H 0.26619 0.8649 0.29156 0.0
H520 H 0.35924 0.8654 0.44859 0.0
H521 H 0.32615 0.75043 0.43132 0.0
H522 H 0.42512 0.88205 0.44088 0.0
H523 H 0.39264 0.76911 0.42377 0.0
H524 H 0.33884 0.91362 0.52354 0.0
H525 H 0.28971 0.94749 0.44582 0.0
H526 H 0.30443 0.72553 0.30056 0.0
H527 H 0.39359 0.83452 0.32982 0.0
C528 C 0.33665 0.03153 0.51538 0.0
C529 C 0.37389 0.04778 0.52615 0.0
H530 H 0.28928 0.98332 0.49481 0.0
C531 C 0.39216 0.02701 0.52345 0.0
H532 H 0.32161 0.04658 0.51742 0.0
C533 C 0.37364 0.99084 0.51067 0.0
C534 C 0.33636 0.97446 0.50013 0.0
H535 H 0.42107 0.0389 0.53078 0.0
H536 H 0.38878 0.97589 0.50856 0.0
C537 C 0.3181 0.99527 0.50246 0.0
C538 C 0.3931 0.37226 0.663 0.0
C539 C 0.37431 0.33336 0.65875 0.0
H540 H 0.38999 0.41989 0.67884 0.0
C541 C 0.33645 0.31256 0.66757 0.0
H542 H 0.42245 0.3891 0.65716 0.0
C543 C 0.31783 0.33028 0.68018 0.0
C544 C 0.33663 0.36921 0.68416 0.0
H545 H 0.32101 0.28262 0.66426 0.0
H546 H 0.28855 0.31356 0.68633 0.0
C547 C 0.37449 0.38994 0.67548 0.0
C548 C 1.00961 0.3618 0.87169 0.0
C549 C 0.98102 0.32868 0.85758 0.0
H550 H 0.06659 0.40537 0.86921 0.0
C551 C 0.98925 0.31371 0.82961 0.0
H552 H 1.00416 0.37455 0.89283 0.0
C553 C 0.02507 0.33158 0.81593 0.0
C554 C 0.05354 0.36473 0.83001 0.0
H555 H 0.9681 0.28797 0.81841 0.0
H556 H 0.03058 0.31925 0.79449 0.0
C557 C 0.04543 0.37954 0.85812 0.0
C558 C 0.6956 0.99138 0.01505 0.0
C559 C 0.65765 0.9742 0.0236 0.0
H560 H 0.74357 0.04042 0.9966 0.0
C561 C 0.63877 0.99419 0.01912 0.0
H562 H 0.7111 0.97697 0.01854 0.0
C563 C 0.65738 0.03051 1.00671 0.0
C564 C 0.69534 0.04778 0.99834 0.0
H565 H 0.60937 0.98158 0.02477 0.0
H566 H 0.64183 0.04487 1.00319 0.0
C567 C 0.71422 0.02776 1.00251 0.0
C568 C 0.7001 0.66326 0.14838 0.0
C569 C 0.70362 0.66066 0.18294 0.0
H570 H 0.67911 0.68223 0.10879 0.0
C571 C 0.68888 0.67694 0.2043 0.0
H572 H 0.7117 0.65165 0.13119 0.0
C573 C 0.67035 0.69462 0.19143 0.0
C574 C 0.666 0.69634 0.15691 0.0
H575 H 0.69058 0.675 0.23104 0.0
H576 H 0.65836 0.70588 0.20859 0.0
C577 C 0.68146 0.68082 0.13553 0.0
C578 C 0.04436 0.70427 0.32823 0.0
C579 C 0.05321 0.68939 0.35593 0.0
H580 H 1.00239 0.69848 0.29365 0.0
C581 C 0.02517 0.65591 0.36983 0.0
H582 H 0.06515 0.73026 0.31718 0.0
C583 C 0.98922 0.63773 0.35637 0.0
C584 C 0.98038 0.65253 0.32863 0.0
H585 H 0.03115 0.64329 0.39077 0.0
H586 H 0.96853 0.61163 0.36733 0.0
C587 C 1.00839 0.68605 0.31474 0.0
C588 C 0.6362 0.36604 0.43469 0.0
C589 C 0.61285 0.37531 0.45268 0.0
H590 H 0.67566 0.38048 0.39528 0.0
C591 C 0.61274 0.40822 0.44435 0.0
H592 H 0.63745 0.34121 0.44062 0.0
C593 C 0.63545 0.43131 0.41889 0.0
C594 C 0.65858 0.42192 0.40072 0.0
H595 H 0.5948 0.41609 0.45726 0.0
H596 H 0.63498 0.4567 0.41364 0.0
C597 C 0.65863 0.38895 0.40896 0.0
C598 C 0.22237 0.61028 0.56398 0.0
C599 C 0.24718 0.64891 0.56522 0.0
H600 H 0.20222 0.5575 0.58802 0.0
C601 C 0.27119 0.6639 0.59272 0.0
H602 H 0.20374 0.59786 0.543 0.0
C603 C 0.27046 0.64081 0.61837 0.0
C604 C 0.24579 0.60216 0.6171 0.0
H605 H 0.29037 0.69359 0.59459 0.0
H606 H 0.28958 0.65322 0.63905 0.0
C607 C 0.22177 0.58713 0.58959 0.0
C608 C 0.63032 0.20956 0.77289 0.0
C609 C 0.65974 0.2432 0.78532 0.0
H610 H 0.58471 0.18328 0.73869 0.0
C611 C 0.66575 0.27696 0.77157 0.0
H612 H 0.62516 0.18306 0.78269 0.0
C613 C 0.64274 0.27708 0.74615 0.0
C614 C 0.61325 0.24344 0.7338 0.0
H615 H 0.68793 0.30337 0.7808 0.0
H616 H 0.64826 0.30355 0.73596 0.0
C617 C 0.60738 0.20968 0.74741 0.0
C618 C 0.3641 0.59061 0.93127 0.0
C619 C 0.37382 0.60061 0.89784 0.0
H620 H 0.37873 0.60497 0.98244 0.0
C621 C 0.40682 0.63399 0.89063 0.0
H622 H 0.33901 0.56492 0.93762 0.0
C623 C 0.42959 0.65686 0.91626 0.0
C624 C 0.42003 0.64674 0.9497 0.0
H625 H 0.41488 0.64264 0.86511 0.0
H626 H 0.45498 0.68225 0.90989 0.0
C627 C 0.38703 0.61336 0.95692 0.0
C628 C 0.7666 0.35521 0.0974 0.0
C629 C 0.78745 0.37105 0.06837 0.0
H630 H 0.74995 0.36476 0.14506 0.0
C631 C 0.80837 0.4101 0.06575 0.0
H632 H 0.74992 0.32526 0.10012 0.0
C633 C 0.80811 0.43275 0.09138 0.0
C634 C 0.78686 0.4169 0.12022 0.0
H635 H 0.82509 0.4232 0.04388 0.0
H636 H 0.82402 0.46271 0.08831 0.0
C637 C 0.76628 0.37787 0.12301 0.0
C638 C 0.37522 0.74593 0.27487 0.0
C639 C 0.37594 0.77916 0.28361 0.0
H640 H 0.39584 0.7192 0.24276 0.0
C641 C 0.39964 0.81184 0.26589 0.0
H642 H 0.3577 0.72031 0.2882 0.0
C643 C 0.42219 0.81139 0.24032 0.0
C644 C 0.42142 0.77816 0.23151 0.0
H645 H 0.40063 0.83786 0.27156 0.0
H646 H 0.44054 0.83728 0.22769 0.0
C647 C 0.39757 0.74541 0.24909 0.0
loop_
_geom_bond_atom_site_label_1
_geom_bond_atom_site_label_2
_geom_bond_distance
_geom_bond_site_symmetry_2
_ccdc_geom_bond_type
Li0 N17 1.990 . S
Li0 O60 1.956 . S
Li0 O61 1.970 . S
Li0 O62 1.961 . S
Li1 N25 1.990 . S
Li1 O60 1.970 . S
Li1 O61 1.956 . S
Li1 O63 1.961 . S
Li2 N47 1.990 . S
Li2 O60 1.961 . S
Li2 O62 1.956 . S
Li2 O63 1.970 . S
Li3 N53 1.990 . S
Li3 O61 1.961 . S
Li3 O62 1.970 . S
Li3 O63 1.956 . S
C4 C6 1.348 . S
C4 C7 1.356 . S
C4 O60 1.325 . S
N5 C8 1.314 . S
N5 C9 1.279 . S
C6 C4 1.348 . S
C6 C8 1.353 . S
C6 H64 0.929 . S
C7 C4 1.356 . S
C7 C9 1.358 . S
C7 H65 0.930 . S
C8 N5 1.314 . S
C8 C6 1.353 . S
C8 H66 0.930 . S
C9 N5 1.279 . S
C9 C7 1.358 . S
C9 H67 0.930 . S
C10 C13 1.348 . S
C10 C14 1.356 . S
C10 O61 1.325 . S
C11 N12 1.279 . S
C11 C14 1.358 . S
C11 H68 0.930 . S
N12 C11 1.279 . S
N12 C15 1.314 . S
C13 C10 1.348 . S
C13 C15 1.353 . S
C13 H69 0.929 . S
C14 C10 1.356 . S
C14 C11 1.358 . S
C14 H70 0.930 . S
C15 N12 1.314 . S
C15 C13 1.353 . S
C15 H71 0.930 . S
C16 N17 1.314 . S
C16 C21 1.353 . S
C16 H22 0.930 . S
N17 Li0 1.990 . S
N17 C16 1.314 . S
N17 C19 1.279 . S
C18 C19 1.358 . S
C18 C20 1.356 . S
C18 H72 0.930 . S
C19 N17 1.279 . S
C19 C18 1.358 . S
C19 H23 0.930 . S
C20 C18 1.356 . S
C20 C21 1.348 . S
C21 C16 1.353 . S
C21 C20 1.348 . S
C21 H73 0.929 . S
H22 C16 0.930 . S
H23 C19 0.930 . S
C24 N25 1.314 . S
C24 C26 1.353 . S
C24 H30 0.930 . S
N25 Li1 1.990 . S
N25 C24 1.314 . S
N25 C28 1.279 . S
C26 C24 1.353 . S
C26 C29 1.348 . S
C26 H74 0.929 . S
C27 C28 1.358 . S
C27 C29 1.356 . S
C27 H75 0.930 . S
C28 N25 1.279 . S
C28 C27 1.358 . S
C28 H31 0.930 . S
C29 C26 1.348 . S
C29 C27 1.356 . S
H30 C24 0.930 . S
H31 C28 0.930 . S
C32 C34 1.348 . S
C32 C35 1.356 . S
C32 O62 1.325 . S
N33 C36 1.314 . S
N33 C37 1.279 . S
C34 C32 1.348 . S
C34 C36 1.353 . S
C34 H76 0.929 . S
C35 C32 1.356 . S
C35 C37 1.358 . S
C35 H77 0.930 . S
C36 N33 1.314 . S
C36 C34 1.353 . S
C36 H78 0.930 . S
C37 N33 1.279 . S
C37 C35 1.358 . S
C37 H79 0.930 . S
C38 C39 1.348 . S
C38 C40 1.356 . S
C38 O63 1.325 . S
C39 C38 1.348 . S
C39 C41 1.353 . S
C39 H80 0.929 . S
C40 C38 1.356 . S
C40 C42 1.358 . S
C40 H81 0.930 . S
C41 C39 1.353 . S
C41 N43 1.314 . S
C41 H82 0.930 . S
C42 C40 1.358 . S
C42 N43 1.279 . S
C42 H83 0.930 . S
N43 C41 1.314 . S
N43 C42 1.279 . S
C44 C46 1.353 . S
C44 N47 1.314 . S
C44 H50 0.930 . S
C45 N47 1.279 . S
C45 C48 1.358 . S
C45 H51 0.930 . S
C46 C44 1.353 . S
C46 C49 1.348 . S
C46 H84 0.929 . S
N47 Li2 1.990 . S
N47 C44 1.314 . S
N47 C45 1.279 . S
C48 C45 1.358 . S
C48 C49 1.356 . S
C48 H85 0.930 . S
C49 C46 1.348 . S
C49 C48 1.356 . S
H50 C44 0.930 . S
H51 C45 0.930 . S
C52 N53 1.314 . S
C52 C54 1.353 . S
C52 H58 0.930 . S
N53 Li3 1.990 . S
N53 C52 1.314 . S
N53 C56 1.279 . S
C54 C52 1.353 . S
C54 C57 1.348 . S
C54 H86 0.929 . S
C55 C56 1.358 . S
C55 C57 1.356 . S
C55 H87 0.930 . S
C56 N53 1.279 . S
C56 C55 1.358 . S
C56 H59 0.930 . S
C57 C54 1.348 . S
C57 C55 1.356 . S
H58 C52 0.930 . S
H59 C56 0.930 . S
O60 Li0 1.956 . S
O60 Li1 1.970 . S
O60 Li2 1.961 . S
O60 C4 1.325 . S
O61 Li0 1.970 . S
O61 Li1 1.956 . S
O61 Li3 1.961 . S
O61 C10 1.325 . S
O62 Li0 1.961 . S
O62 Li2 1.956 . S
O62 Li3 1.970 . S
O62 C32 1.325 . S
O63 Li1 1.961 . S
O63 Li2 1.970 . S
O63 Li3 1.956 . S
O63 C38 1.325 . S
H64 C6 0.929 . S
H65 C7 0.930 . S
H66 C8 0.930 . S
H67 C9 0.930 . S
H68 C11 0.930 . S
H69 C13 0.929 . S
H70 C14 0.930 . S
H71 C15 0.930 . S
H72 C18 0.930 . S
H73 C21 0.929 . S
H74 C26 0.929 . S
H75 C27 0.930 . S
H76 C34 0.929 . S
H77 C35 0.930 . S
H78 C36 0.930 . S
H79 C37 0.930 . S
H80 C39 0.929 . S
H81 C40 0.930 . S
H82 C41 0.930 . S
H83 C42 0.930 . S
H84 C46 0.929 . S
H85 C48 0.930 . S
H86 C54 0.929 . S
H87 C55 0.930 . S
Li88 N105 1.990 . S
Li88 O148 1.956 . S
Li88 O149 1.970 . S
Li88 O150 1.961 . S
Li89 N113 1.990 . S
Li89 O148 1.970 . S
Li89 O149 1.956 . S
Li89 O151 1.961 . S
Li90 N135 1.990 . S
Li90 O148 1.961 . S
Li90 O150 1.956 . S
Li90 O151 1.970 . S
Li91 N141 1.990 . S
Li91 O149 1.961 . S
Li91 O150 1.970 . S
Li91 O151 1.956 . S
C92 C94 1.348 . S
C92 C95 1.356 . S
C92 O148 1.325 . S
N93 C96 1.314 . S
N93 C97 1.279 . S
C94 C92 1.348 . S
C94 C96 1.353 . S
C94 H152 0.929 . S
C95 C92 1.356 . S
C95 C97 1.358 . S
C95 H153 0.930 . S
C96 N93 1.314 . S
C96 C94 1.353 . S
C96 H154 0.930 . S
C97 N93 1.279 . S
C97 C95 1.358 . S
C97 H155 0.930 . S
C98 C101 1.348 . S
C98 C102 1.356 . S
C98 O149 1.325 . S
C99 N100 1.279 . S
C99 C102 1.358 . S
C99 H156 0.930 . S
N100 C99 1.279 . S
N100 C103 1.314 . S
C101 C98 1.348 . S
C101 C103 1.353 . S
C101 H157 0.929 . S
C102 C98 1.356 . S
C102 C99 1.358 . S
C102 H158 0.930 . S
C103 N100 1.314 . S
C103 C101 1.353 . S
C103 H159 0.930 . S
C104 N105 1.314 . S
C104 C109 1.353 . S
C104 H110 0.930 . S
N105 Li88 1.990 . S
N105 C104 1.314 . S
N105 C107 1.279 . S
C106 C107 1.358 . S
C106 C108 1.356 . S
C106 H160 0.930 . S
C107 N105 1.279 . S
C107 C106 1.358 . S
C107 H111 0.930 . S
C108 C106 1.356 . S
C108 C109 1.348 . S
C109 C104 1.353 . S
C109 C108 1.348 . S
C109 H161 0.929 . S
H110 C104 0.930 . S
H111 C107 0.930 . S
C112 N113 1.314 . S
C112 C114 1.353 . S
C112 H118 0.930 . S
N113 Li89 1.990 . S
N113 C112 1.314 . S
N113 C116 1.279 . S
C114 C112 1.353 . S
C114 C117 1.348 . S
C114 H162 0.929 . S
C115 C116 1.358 . S
C115 C117 1.356 . S
C115 H163 0.930 . S
C116 N113 1.279 . S
C116 C115 1.358 . S
C116 H119 0.930 . S
C117 C114 1.348 . S
C117 C115 1.356 . S
H118 C112 0.930 . S
H119 C116 0.930 . S
C120 C122 1.348 . S
C120 C123 1.356 . S
C120 O150 1.325 . S
N121 C124 1.314 . S
N121 C125 1.279 . S
C122 C120 1.348 . S
C122 C124 1.353 . S
C122 H164 0.929 . S
C123 C120 1.356 . S
C123 C125 1.358 . S
C123 H165 0.930 . S
C124 N121 1.314 . S
C124 C122 1.353 . S
C124 H166 0.930 . S
C125 N121 1.279 . S
C125 C123 1.358 . S
C125 H167 0.930 . S
C126 C127 1.348 . S
C126 C128 1.356 . S
C126 O151 1.325 . S
C127 C126 1.348 . S
C127 C129 1.353 . S
C127 H168 0.929 . S
C128 C126 1.356 . S
C128 C130 1.358 . S
C128 H169 0.930 . S
C129 C127 1.353 . S
C129 N131 1.314 . S
C129 H170 0.930 . S
C130 C128 1.358 . S
C130 N131 1.279 . S
C130 H171 0.930 . S
N131 C129 1.314 . S
N131 C130 1.279 . S
C132 C134 1.353 . S
C132 N135 1.314 . S
C132 H138 0.930 . S
C133 N135 1.279 . S
C133 C136 1.358 . S
C133 H139 0.930 . S
C134 C132 1.353 . S
C134 C137 1.348 . S
C134 H172 0.929 . S
N135 Li90 1.990 . S
N135 C132 1.314 . S
N135 C133 1.279 . S
C136 C133 1.358 . S
C136 C137 1.356 . S
C136 H173 0.930 . S
C137 C134 1.348 . S
C137 C136 1.356 . S
H138 C132 0.930 . S
H139 C133 0.930 . S
C140 N141 1.314 . S
C140 C142 1.353 . S
C140 H146 0.930 . S
N141 Li91 1.990 . S
N141 C140 1.314 . S
N141 C144 1.279 . S
C142 C140 1.353 . S
C142 C145 1.348 . S
C142 H174 0.929 . S
C143 C144 1.358 . S
C143 C145 1.356 . S
C143 H175 0.930 . S
C144 N141 1.279 . S
C144 C143 1.358 . S
C144 H147 0.930 . S
C145 C142 1.348 . S
C145 C143 1.356 . S
H146 C140 0.930 . S
H147 C144 0.930 . S
O148 Li88 1.956 . S
O148 Li89 1.970 . S
O148 Li90 1.961 . S
O148 C92 1.325 . S
O149 Li88 1.970 . S
O149 Li89 1.956 . S
O149 Li91 1.961 . S
O149 C98 1.325 . S
O150 Li88 1.961 . S
O150 Li90 1.956 . S
O150 Li91 1.970 . S
O150 C120 1.325 . S
O151 Li89 1.961 . S
O151 Li90 1.970 . S
O151 Li91 1.956 . S
O151 C126 1.325 . S
H152 C94 0.929 . S
H153 C95 0.930 . S
H154 C96 0.930 . S
H155 C97 0.930 . S
H156 C99 0.930 . S
H157 C101 0.929 . S
H158 C102 0.930 . S
H159 C103 0.930 . S
H160 C106 0.930 . S
H161 C109 0.929 . S
H162 C114 0.929 . S
H163 C115 0.930 . S
H164 C122 0.929 . S
H165 C123 0.930 . S
H166 C124 0.930 . S
H167 C125 0.930 . S
H168 C127 0.929 . S
H169 C128 0.930 . S
H170 C129 0.930 . S
H171 C130 0.930 . S
H172 C134 0.929 . S
H173 C136 0.930 . S
H174 C142 0.929 . S
H175 C143 0.930 . S
Li176 N193 1.990 . S
Li176 O236 1.956 . S
Li176 O237 1.970 . S
Li176 O238 1.961 . S
Li177 N201 1.990 . S
Li177 O236 1.970 . S
Li177 O237 1.956 . S
Li177 O239 1.961 . S
Li178 N223 1.990 . S
Li178 O236 1.961 . S
Li178 O238 1.956 . S
Li178 O239 1.970 . S
Li179 N229 1.990 . S
Li179 O237 1.961 . S
Li179 O238 1.970 . S
Li179 O239 1.956 . S
C180 C182 1.348 . S
C180 C183 1.356 . S
C180 O236 1.325 . S
N181 C184 1.314 . S
N181 C185 1.279 1_554 S
C182 C180 1.348 . S
C182 C184 1.353 1_556 S
C182 H240 0.929 . S
C183 C180 1.356 . S
C183 C185 1.358 . S
C183 H241 0.930 . S
C184 N181 1.314 . S
C184 C182 1.353 1_554 S
C184 H242 0.930 . S
C185 N181 1.279 1_556 S
C185 C183 1.358 . S
C185 H243 0.930 . S
C186 C189 1.348 . S
C186 C190 1.356 . S
C186 O237 1.325 . S
C187 N188 1.279 . S
C187 C190 1.358 . S
C187 H244 0.930 . S
N188 C187 1.279 . S
N188 C191 1.314 . S
C189 C186 1.348 . S
C189 C191 1.353 . S
C189 H245 0.929 . S
C190 C186 1.356 . S
C190 C187 1.358 . S
C190 H246 0.930 . S
C191 N188 1.314 . S
C191 C189 1.353 . S
C191 H247 0.930 . S
C192 N193 1.314 . S
C192 C197 1.353 . S
C192 H198 0.930 . S
N193 Li176 1.990 . S
N193 C192 1.314 . S
N193 C195 1.279 . S
C194 C195 1.358 . S
C194 C196 1.356 . S
C194 H248 0.930 . S
C195 N193 1.279 . S
C195 C194 1.358 . S
C195 H199 0.930 . S
C196 C194 1.356 . S
C196 C197 1.348 . S
C197 C192 1.353 . S
C197 C196 1.348 . S
C197 H249 0.929 . S
H198 C192 0.930 . S
H199 C195 0.930 . S
C200 N201 1.314 1_554 S
C200 C202 1.353 . S
C200 H206 0.930 . S
N201 Li177 1.990 . S
N201 C200 1.314 1_556 S
N201 C204 1.279 . S
C202 C200 1.353 . S
C202 C205 1.348 . S
C202 H250 0.929 . S
C203 C204 1.358 1_554 S
C203 C205 1.356 . S
C203 H251 0.930 . S
C204 N201 1.279 . S
C204 C203 1.358 1_556 S
C204 H207 0.930 . S
C205 C202 1.348 . S
C205 C203 1.356 . S
H206 C200 0.930 . S
H207 C204 0.930 . S
C208 C210 1.348 . S
C208 C211 1.356 . S
C208 O238 1.325 . S
N209 C212 1.314 . S
N209 C213 1.279 . S
C210 C208 1.348 . S
C210 C212 1.353 . S
C210 H252 0.929 . S
C211 C208 1.356 . S
C211 C213 1.358 . S
C211 H253 0.930 . S
C212 N209 1.314 . S
C212 C210 1.353 . S
C212 H254 0.930 . S
C213 N209 1.279 . S
C213 C211 1.358 . S
C213 H255 0.930 . S
C214 C215 1.348 . S
C214 C216 1.356 . S
C214 O239 1.325 . S
C215 C214 1.348 . S
C215 C217 1.353 . S
C215 H256 0.929 . S
C216 C214 1.356 . S
C216 C218 1.358 . S
C216 H257 0.930 . S
C217 C215 1.353 . S
C217 N219 1.314 . S
C217 H258 0.930 . S
C218 C216 1.358 . S
C218 N219 1.279 . S
C218 H259 0.930 . S
N219 C217 1.314 . S
N219 C218 1.279 . S
C220 C222 1.353 . S
C220 N223 1.314 . S
C220 H226 0.930 . S
C221 N223 1.279 . S
C221 C224 1.358 . S
C221 H227 0.930 . S
C222 C220 1.353 . S
C222 C225 1.348 . S
C222 H260 0.929 1_556 S
N223 Li178 1.990 . S
N223 C220 1.314 . S
N223 C221 1.279 . S
C224 C221 1.358 . S
C224 C225 1.356 . S
C224 H261 0.930 . S
C225 C222 1.348 . S
C225 C224 1.356 . S
H226 C220 0.930 . S
H227 C221 0.930 . S
C228 N229 1.314 . S
C228 C230 1.353 . S
C228 H234 0.930 . S
N229 Li179 1.990 . S
N229 C228 1.314 . S
N229 C232 1.279 . S
C230 C228 1.353 . S
C230 C233 1.348 . S
C230 H262 0.929 . S
C231 C232 1.358 . S
C231 C233 1.356 . S
C231 H263 0.930 . S
C232 N229 1.279 . S
C232 C231 1.358 . S
C232 H235 0.930 . S
C233 C230 1.348 . S
C233 C231 1.356 . S
H234 C228 0.930 . S
H235 C232 0.930 . S
O236 Li176 1.956 . S
O236 Li177 1.970 . S
O236 Li178 1.961 . S
O236 C180 1.325 . S
O237 Li176 1.970 . S
O237 Li177 1.956 . S
O237 Li179 1.961 . S
O237 C186 1.325 . S
O238 Li176 1.961 . S
O238 Li178 1.956 . S
O238 Li179 1.970 . S
O238 C208 1.325 . S
O239 Li177 1.961 . S
O239 Li178 1.970 . S
O239 Li179 1.956 . S
O239 C214 1.325 . S
H240 C182 0.929 . S
H241 C183 0.930 . S
H242 C184 0.930 . S
H243 C185 0.930 . S
H244 C187 0.930 . S
H245 C189 0.929 . S
H246 C190 0.930 . S
H247 C191 0.930 . S
H248 C194 0.930 . S
H249 C197 0.929 . S
H250 C202 0.929 . S
H251 C203 0.930 . S
H252 C210 0.929 . S
H253 C211 0.930 . S
H254 C212 0.930 . S
H255 C213 0.930 . S
H256 C215 0.929 . S
H257 C216 0.930 . S
H258 C217 0.930 . S
H259 C218 0.930 . S
H260 C222 0.929 1_554 S
H261 C224 0.930 . S
H262 C230 0.929 . S
H263 C231 0.930 . S
Li264 N281 1.990 . S
Li264 O324 1.956 . S
Li264 O325 1.970 . S
Li264 O326 1.961 . S
Li265 N289 1.990 . S
Li265 O324 1.970 . S
Li265 O325 1.956 . S
Li265 O327 1.961 . S
Li266 N311 1.990 . S
Li266 O324 1.961 . S
Li266 O326 1.956 . S
Li266 O327 1.970 . S
Li267 N317 1.990 . S
Li267 O325 1.961 . S
Li267 O326 1.970 . S
Li267 O327 1.956 . S
C268 C270 1.348 . S
C268 C271 1.356 . S
C268 O324 1.325 . S
N269 C272 1.314 . S
N269 C273 1.279 . S
C270 C268 1.348 . S
C270 C272 1.353 . S
C270 H328 0.929 . S
C271 C268 1.356 . S
C271 C273 1.358 . S
C271 H329 0.930 . S
C272 N269 1.314 . S
C272 C270 1.353 . S
C272 H330 0.930 . S
C273 N269 1.279 . S
C273 C271 1.358 . S
C273 H331 0.930 . S
C274 C277 1.348 . S
C274 C278 1.356 . S
C274 O325 1.325 . S
C275 N276 1.279 . S
C275 C278 1.358 . S
C275 H332 0.930 . S
N276 C275 1.279 . S
N276 C279 1.314 . S
C277 C274 1.348 . S
C277 C279 1.353 . S
C277 H333 0.929 . S
C278 C274 1.356 . S
C278 C275 1.358 . S
C278 H334 0.930 . S
C279 N276 1.314 . S
C279 C277 1.353 . S
C279 H335 0.930 . S
C280 N281 1.314 . S
C280 C285 1.353 . S
C280 H286 0.930 . S
N281 Li264 1.990 . S
N281 C280 1.314 . S
N281 C283 1.279 . S
C282 C283 1.358 . S
C282 C284 1.356 . S
C282 H336 0.930 . S
C283 N281 1.279 . S
C283 C282 1.358 . S
C283 H287 0.930 . S
C284 C282 1.356 . S
C284 C285 1.348 . S
C285 C280 1.353 . S
C285 C284 1.348 . S
C285 H337 0.929 1_554 S
H286 C280 0.930 . S
H287 C283 0.930 . S
C288 N289 1.314 . S
C288 C290 1.353 . S
C288 H294 0.930 . S
N289 Li265 1.990 . S
N289 C288 1.314 . S
N289 C292 1.279 . S
C290 C288 1.353 . S
C290 C293 1.348 . S
C290 H338 0.929 . S
C291 C292 1.358 . S
C291 C293 1.356 . S
C291 H339 0.930 . S
C292 N289 1.279 . S
C292 C291 1.358 . S
C292 H295 0.930 . S
C293 C290 1.348 . S
C293 C291 1.356 . S
H294 C288 0.930 . S
H295 C292 0.930 . S
C296 C298 1.348 . S
C296 C299 1.356 . S
C296 O326 1.325 . S
N297 C300 1.314 . S
N297 C301 1.279 1_556 S
C298 C296 1.348 . S
C298 C300 1.353 1_554 S
C298 H340 0.929 . S
C299 C296 1.356 . S
C299 C301 1.358 . S
C299 H341 0.930 . S
C300 N297 1.314 . S
C300 C298 1.353 1_556 S
C300 H342 0.930 . S
C301 N297 1.279 1_554 S
C301 C299 1.358 . S
C301 H343 0.930 . S
C302 C303 1.348 . S
C302 C304 1.356 . S
C302 O327 1.325 . S
C303 C302 1.348 . S
C303 C305 1.353 . S
C303 H344 0.929 . S
C304 C302 1.356 . S
C304 C306 1.358 . S
C304 H345 0.930 . S
C305 C303 1.353 . S
C305 N307 1.314 . S
C305 H346 0.930 . S
C306 C304 1.358 . S
C306 N307 1.279 . S
C306 H347 0.930 . S
N307 C305 1.314 . S
N307 C306 1.279 . S
C308 C310 1.353 . S
C308 N311 1.314 . S
C308 H314 0.930 . S
C309 N311 1.279 . S
C309 C312 1.358 . S
C309 H315 0.930 . S
C310 C308 1.353 . S
C310 C313 1.348 . S
C310 H348 0.929 . S
N311 Li266 1.990 . S
N311 C308 1.314 . S
N311 C309 1.279 . S
C312 C309 1.358 . S
C312 C313 1.356 . S
C312 H349 0.930 . S
C313 C310 1.348 . S
C313 C312 1.356 . S
H314 C308 0.930 . S
H315 C309 0.930 . S
C316 N317 1.314 1_556 S
C316 C318 1.353 . S
C316 H322 0.930 . S
N317 Li267 1.990 . S
N317 C316 1.314 1_554 S
N317 C320 1.279 . S
C318 C316 1.353 . S
C318 C321 1.348 . S
C318 H350 0.929 . S
C319 C320 1.358 1_556 S
C319 C321 1.356 . S
C319 H351 0.930 . S
C320 N317 1.279 . S
C320 C319 1.358 1_554 S
C320 H323 0.930 . S
C321 C318 1.348 . S
C321 C319 1.356 . S
H322 C316 0.930 . S
H323 C320 0.930 . S
O324 Li264 1.956 . S
O324 Li265 1.970 . S
O324 Li266 1.961 . S
O324 C268 1.325 . S
O325 Li264 1.970 . S
O325 Li265 1.956 . S
O325 Li267 1.961 . S
O325 C274 1.325 . S
O326 Li264 1.961 . S
O326 Li266 1.956 . S
O326 Li267 1.970 . S
O326 C296 1.325 . S
O327 Li265 1.961 . S
O327 Li266 1.970 . S
O327 Li267 1.956 . S
O327 C302 1.325 . S
H328 C270 0.929 . S
H329 C271 0.930 . S
H330 C272 0.930 . S
H331 C273 0.930 . S
H332 C275 0.930 . S
H333 C277 0.929 . S
H334 C278 0.930 . S
H335 C279 0.930 . S
H336 C282 0.930 . S
H337 C285 0.929 1_556 S
H338 C290 0.929 . S
H339 C291 0.930 . S
H340 C298 0.929 . S
H341 C299 0.930 . S
H342 C300 0.930 . S
H343 C301 0.930 . S
H344 C303 0.929 . S
H345 C304 0.930 . S
H346 C305 0.930 . S
H347 C306 0.930 . S
H348 C310 0.929 . S
H349 C312 0.930 . S
H350 C318 0.929 . S
H351 C319 0.930 . S
Li352 N369 1.990 . S
Li352 O412 1.956 . S
Li352 O413 1.970 . S
Li352 O414 1.961 . S
Li353 N377 1.990 . S
Li353 O412 1.970 . S
Li353 O413 1.956 . S
Li353 O415 1.961 . S
Li354 N399 1.990 . S
Li354 O412 1.961 . S
Li354 O414 1.956 . S
Li354 O415 1.970 . S
Li355 N405 1.990 . S
Li355 O413 1.961 . S
Li355 O414 1.970 . S
Li355 O415 1.956 . S
C356 C358 1.348 . S
C356 C359 1.356 . S
C356 O412 1.325 . S
N357 C360 1.314 . S
N357 C361 1.279 . S
C358 C356 1.348 . S
C358 C360 1.353 . S
C358 H416 0.929 . S
C359 C356 1.356 . S
C359 C361 1.358 . S
C359 H417 0.930 . S
C360 N357 1.314 . S
C360 C358 1.353 . S
C360 H418 0.930 . S
C361 N357 1.279 . S
C361 C359 1.358 . S
C361 H419 0.930 . S
C362 C365 1.348 . S
C362 C366 1.356 . S
C362 O413 1.325 . S
C363 N364 1.279 . S
C363 C366 1.358 . S
C363 H420 0.930 . S
N364 C363 1.279 . S
N364 C367 1.314 . S
C365 C362 1.348 . S
C365 C367 1.353 . S
C365 H421 0.929 . S
C366 C362 1.356 . S
C366 C363 1.358 . S
C366 H422 0.930 . S
C367 N364 1.314 . S
C367 C365 1.353 . S
C367 H423 0.930 . S
C368 N369 1.314 . S
C368 C373 1.353 . S
C368 H374 0.930 . S
N369 Li352 1.990 . S
N369 C368 1.314 . S
N369 C371 1.279 . S
C370 C371 1.358 . S
C370 C372 1.356 . S
C370 H424 0.930 . S
C371 N369 1.279 . S
C371 C370 1.358 . S
C371 H375 0.930 . S
C372 C370 1.356 . S
C372 C373 1.348 . S
C373 C368 1.353 . S
C373 C372 1.348 . S
C373 H425 0.929 . S
H374 C368 0.930 . S
H375 C371 0.930 . S
C376 N377 1.314 . S
C376 C378 1.353 . S
C376 H382 0.930 . S
N377 Li353 1.990 . S
N377 C376 1.314 . S
N377 C380 1.279 . S
C378 C376 1.353 . S
C378 C381 1.348 . S
C378 H426 0.929 . S
C379 C380 1.358 . S
C379 C381 1.356 . S
C379 H427 0.930 . S
C380 N377 1.279 . S
C380 C379 1.358 . S
C380 H383 0.930 . S
C381 C378 1.348 . S
C381 C379 1.356 . S
H382 C376 0.930 . S
H383 C380 0.930 . S
C384 C386 1.348 . S
C384 C387 1.356 . S
C384 O414 1.325 . S
N385 C388 1.314 . S
N385 C389 1.279 . S
C386 C384 1.348 . S
C386 C388 1.353 . S
C386 H428 0.929 . S
C387 C384 1.356 . S
C387 C389 1.358 . S
C387 H429 0.930 . S
C388 N385 1.314 . S
C388 C386 1.353 . S
C388 H430 0.930 . S
C389 N385 1.279 . S
C389 C387 1.358 . S
C389 H431 0.930 . S
C390 C391 1.348 . S
C390 C392 1.356 . S
C390 O415 1.325 . S
C391 C390 1.348 . S
C391 C393 1.353 . S
C391 H432 0.929 . S
C392 C390 1.356 . S
C392 C394 1.358 . S
C392 H433 0.930 . S
C393 C391 1.353 . S
C393 N395 1.314 . S
C393 H434 0.930 . S
C394 C392 1.358 . S
C394 N395 1.279 . S
C394 H435 0.930 . S
N395 C393 1.314 . S
N395 C394 1.279 . S
C396 C398 1.353 . S
C396 N399 1.314 . S
C396 H402 0.930 . S
C397 N399 1.279 . S
C397 C400 1.358 . S
C397 H403 0.930 . S
C398 C396 1.353 . S
C398 C401 1.348 . S
C398 H436 0.929 . S
N399 Li354 1.990 . S
N399 C396 1.314 . S
N399 C397 1.279 . S
C400 C397 1.358 . S
C400 C401 1.356 . S
C400 H437 0.930 . S
C401 C398 1.348 . S
C401 C400 1.356 . S
H402 C396 0.930 . S
H403 C397 0.930 . S
C404 N405 1.314 . S
C404 C406 1.353 . S
C404 H410 0.930 . S
N405 Li355 1.990 . S
N405 C404 1.314 . S
N405 C408 1.279 . S
C406 C404 1.353 . S
C406 C409 1.348 . S
C406 H438 0.929 . S
C407 C408 1.358 . S
C407 C409 1.356 . S
C407 H439 0.930 . S
C408 N405 1.279 . S
C408 C407 1.358 . S
C408 H411 0.930 . S
C409 C406 1.348 . S
C409 C407 1.356 . S
H410 C404 0.930 . S
H411 C408 0.930 . S
O412 Li352 1.956 . S
O412 Li353 1.970 . S
O412 Li354 1.961 . S
O412 C356 1.325 . S
O413 Li352 1.970 . S
O413 Li353 1.956 . S
O413 Li355 1.961 . S
O413 C362 1.325 . S
O414 Li352 1.961 . S
O414 Li354 1.956 . S
O414 Li355 1.970 . S
O414 C384 1.325 . S
O415 Li353 1.961 . S
O415 Li354 1.970 . S
O415 Li355 1.956 . S
O415 C390 1.325 . S
H416 C358 0.929 . S
H417 C359 0.930 . S
H418 C360 0.930 . S
H419 C361 0.930 . S
H420 C363 0.930 . S
H421 C365 0.929 . S
H422 C366 0.930 . S
H423 C367 0.930 . S
H424 C370 0.930 . S
H425 C373 0.929 . S
H426 C378 0.929 . S
H427 C379 0.930 . S
H428 C386 0.929 . S
H429 C387 0.930 . S
H430 C388 0.930 . S
H431 C389 0.930 . S
H432 C391 0.929 . S
H433 C392 0.930 . S
H434 C393 0.930 . S
H435 C394 0.930 . S
H436 C398 0.929 . S
H437 C400 0.930 . S
H438 C406 0.929 . S
H439 C407 0.930 . S
Li440 N457 1.990 . S
Li440 O500 1.956 . S
Li440 O501 1.970 . S
Li440 O502 1.961 . S
Li441 N465 1.990 . S
Li441 O500 1.970 . S
Li441 O501 1.956 . S
Li441 O503 1.961 . S
Li442 N487 1.990 . S
Li442 O500 1.961 . S
Li442 O502 1.956 . S
Li442 O503 1.970 . S
Li443 N493 1.990 . S
Li443 O501 1.961 . S
Li443 O502 1.970 . S
Li443 O503 1.956 . S
C444 C446 1.348 . S
C444 C447 1.356 . S
C444 O500 1.325 . S
N445 C448 1.314 . S
N445 C449 1.279 . S
C446 C444 1.348 . S
C446 C448 1.353 . S
C446 H504 0.929 . S
C447 C444 1.356 . S
C447 C449 1.358 . S
C447 H505 0.930 . S
C448 N445 1.314 . S
C448 C446 1.353 . S
C448 H506 0.930 . S
C449 N445 1.279 . S
C449 C447 1.358 . S
C449 H507 0.930 . S
C450 C453 1.348 . S
C450 C454 1.356 . S
C450 O501 1.325 . S
C451 N452 1.279 . S
C451 C454 1.358 . S
C451 H508 0.930 . S
N452 C451 1.279 . S
N452 C455 1.314 . S
C453 C450 1.348 . S
C453 C455 1.353 . S
C453 H509 0.929 . S
C454 C450 1.356 . S
C454 C451 1.358 . S
C454 H510 0.930 . S
C455 N452 1.314 . S
C455 C453 1.353 . S
C455 H511 0.930 . S
C456 N457 1.314 . S
C456 C461 1.353 . S
C456 H462 0.930 . S
N457 Li440 1.990 . S
N457 C456 1.314 . S
N457 C459 1.279 . S
C458 C459 1.358 . S
C458 C460 1.356 . S
C458 H512 0.930 . S
C459 N457 1.279 . S
C459 C458 1.358 . S
C459 H463 0.930 . S
C460 C458 1.356 . S
C460 C461 1.348 . S
C461 C456 1.353 . S
C461 C460 1.348 . S
C461 H513 0.929 . S
H462 C456 0.930 . S
H463 C459 0.930 . S
C464 N465 1.314 . S
C464 C466 1.353 . S
C464 H470 0.930 . S
N465 Li441 1.990 . S
N465 C464 1.314 . S
N465 C468 1.279 . S
C466 C464 1.353 . S
C466 C469 1.348 . S
C466 H514 0.929 . S
C467 C468 1.358 . S
C467 C469 1.356 . S
C467 H515 0.930 . S
C468 N465 1.279 . S
C468 C467 1.358 . S
C468 H471 0.930 . S
C469 C466 1.348 . S
C469 C467 1.356 . S
H470 C464 0.930 . S
H471 C468 0.930 . S
C472 C474 1.348 . S
C472 C475 1.356 . S
C472 O502 1.325 . S
N473 C476 1.314 . S
N473 C477 1.279 . S
C474 C472 1.348 . S
C474 C476 1.353 . S
C474 H516 0.929 . S
C475 C472 1.356 . S
C475 C477 1.358 . S
C475 H517 0.930 . S
C476 N473 1.314 . S
C476 C474 1.353 . S
C476 H518 0.930 . S
C477 N473 1.279 . S
C477 C475 1.358 . S
C477 H519 0.930 . S
C478 C479 1.348 . S
C478 C480 1.356 . S
C478 O503 1.325 . S
C479 C478 1.348 . S
C479 C481 1.353 . S
C479 H520 0.929 . S
C480 C478 1.356 . S
C480 C482 1.358 . S
C480 H521 0.930 . S
C481 C479 1.353 . S
C481 N483 1.314 . S
C481 H522 0.930 . S
C482 C480 1.358 . S
C482 N483 1.279 . S
C482 H523 0.930 . S
N483 C481 1.314 . S
N483 C482 1.279 . S
C484 C486 1.353 . S
C484 N487 1.314 . S
C484 H490 0.930 . S
C485 N487 1.279 . S
C485 C488 1.358 . S
C485 H491 0.930 . S
C486 C484 1.353 . S
C486 C489 1.348 . S
C486 H524 0.929 . S
N487 Li442 1.990 . S
N487 C484 1.314 . S
N487 C485 1.279 . S
C488 C485 1.358 . S
C488 C489 1.356 . S
C488 H525 0.930 . S
C489 C486 1.348 . S
C489 C488 1.356 . S
H490 C484 0.930 . S
H491 C485 0.930 . S
C492 N493 1.314 . S
C492 C494 1.353 . S
C492 H498 0.930 . S
N493 Li443 1.990 . S
N493 C492 1.314 . S
N493 C496 1.279 . S
C494 C492 1.353 . S
C494 C497 1.348 . S
C494 H526 0.929 . S
C495 C496 1.358 . S
C495 C497 1.356 . S
C495 H527 0.930 . S
C496 N493 1.279 . S
C496 C495 1.358 . S
C496 H499 0.930 . S
C497 C494 1.348 . S
C497 C495 1.356 . S
H498 C492 0.930 . S
H499 C496 0.930 . S
O500 Li440 1.956 . S
O500 Li441 1.970 . S
O500 Li442 1.961 . S
O500 C444 1.325 . S
O501 Li440 1.970 . S
O501 Li441 1.956 . S
O501 Li443 1.961 . S
O501 C450 1.325 . S
O502 Li440 1.961 . S
O502 Li442 1.956 . S
O502 Li443 1.970 . S
O502 C472 1.325 . S
O503 Li441 1.961 . S
O503 Li442 1.970 . S
O503 Li443 1.956 . S
O503 C478 1.325 . S
H504 C446 0.929 . S
H505 C447 0.930 . S
H506 C448 0.930 . S
H507 C449 0.930 . S
H508 C451 0.930 . S
H509 C453 0.929 . S
H510 C454 0.930 . S
H511 C455 0.930 . S
H512 C458 0.930 . S
H513 C461 0.929 . S
H514 C466 0.929 . S
H515 C467 0.930 . S
H516 C474 0.929 . S
H517 C475 0.930 . S
H518 C476 0.930 . S
H519 C477 0.930 . S
H520 C479 0.929 . S
H521 C480 0.930 . S
H522 C481 0.930 . S
H523 C482 0.930 . S
H524 C486 0.929 . S
H525 C488 0.930 . S
H526 C494 0.929 . S
H527 C495 0.930 . S
C528 C529 1.387 . S
C528 H532 0.950 . S
C528 C537 1.390 1_545 S
C529 C528 1.387 . S
C529 C531 1.387 . S
H530 C537 0.950 . S
C531 C529 1.387 . S
C531 C533 1.390 1_545 S
C531 H535 0.950 . S
H532 C528 0.950 . S
C533 C531 1.390 1_565 S
C533 C534 1.387 . S
C533 H536 0.950 . S
C534 C533 1.387 . S
C534 C537 1.387 . S
H535 C531 0.950 . S
H536 C533 0.950 . S
C537 C528 1.390 1_565 S
C537 H530 0.950 . S
C537 C534 1.387 . S
C538 C539 1.387 . S
C538 H542 0.950 . S
C538 C547 1.390 . S
C539 C538 1.387 . S
C539 C541 1.387 . S
H540 C547 0.950 . S
C541 C539 1.387 . S
C541 C543 1.390 . S
C541 H545 0.950 . S
H542 C538 0.950 . S
C543 C541 1.390 . S
C543 C544 1.387 . S
C543 H546 0.950 . S
C544 C543 1.387 . S
C544 C547 1.387 . S
H545 C541 0.950 . S
H546 C543 0.950 . S
C547 C538 1.390 . S
C547 H540 0.950 . S
C547 C544 1.387 . S
C548 C549 1.387 . S
C548 H552 0.950 . S
C548 C557 1.390 1_655 S
C549 C548 1.387 . S
C549 C551 1.387 . S
H550 C557 0.950 . S
C551 C549 1.387 . S
C551 C553 1.390 1_655 S
C551 H555 0.950 . S
H552 C548 0.950 . S
C553 C551 1.390 1_455 S
C553 C554 1.387 . S
C553 H556 0.950 . S
C554 C553 1.387 . S
C554 C557 1.387 . S
H555 C551 0.950 . S
H556 C553 0.950 . S
C557 C548 1.390 1_455 S
C557 H550 0.950 . S
C557 C554 1.387 . S
C558 C559 1.387 . S
C558 H562 0.950 . S
C558 C567 1.390 1_564 S
C559 C558 1.387 . S
C559 C561 1.387 . S
H560 C567 0.950 . S
C561 C559 1.387 . S
C561 C563 1.390 1_564 S
C561 H565 0.950 . S
H562 C558 0.950 . S
C563 C561 1.390 1_546 S
C563 C564 1.387 . S
C563 H566 0.950 . S
C564 C563 1.387 . S
C564 C567 1.387 . S
H565 C561 0.950 . S
H566 C563 0.950 . S
C567 C558 1.390 1_546 S
C567 H560 0.950 . S
C567 C564 1.387 . S
C568 C569 1.387 . S
C568 H572 0.950 . S
C568 C577 1.390 . S
C569 C568 1.387 . S
C569 C571 1.387 . S
H570 C577 0.950 . S
C571 C569 1.387 . S
C571 C573 1.390 . S
C571 H575 0.950 . S
H572 C568 0.950 . S
C573 C571 1.390 . S
C573 C574 1.387 . S
C573 H576 0.950 . S
C574 C573 1.387 . S
C574 C577 1.387 . S
H575 C571 0.950 . S
H576 C573 0.950 . S
C577 C568 1.390 . S
C577 H570 0.950 . S
C577 C574 1.387 . S
C578 C579 1.387 . S
C578 H582 0.950 . S
C578 C587 1.390 1_455 S
C579 C578 1.387 . S
C579 C581 1.387 . S
H580 C587 0.950 . S
C581 C579 1.387 . S
C581 C583 1.390 1_455 S
C581 H585 0.950 . S
H582 C578 0.950 . S
C583 C581 1.390 1_655 S
C583 C584 1.387 . S
C583 H586 0.950 . S
C584 C583 1.387 . S
C584 C587 1.387 . S
H585 C581 0.950 . S
H586 C583 0.950 . S
C587 C578 1.390 1_655 S
C587 H580 0.950 . S
C587 C584 1.387 . S
C588 C589 1.387 . S
C588 H592 0.950 . S
C588 C597 1.390 . S
C589 C588 1.387 . S
C589 C591 1.387 . S
H590 C597 0.950 . S
C591 C589 1.387 . S
C591 C593 1.390 . S
C591 H595 0.950 . S
H592 C588 0.950 . S
C593 C591 1.390 . S
C593 C594 1.387 . S
C593 H596 0.950 . S
C594 C593 1.387 . S
C594 C597 1.387 . S
H595 C591 0.950 . S
H596 C593 0.950 . S
C597 C588 1.390 . S
C597 H590 0.950 . S
C597 C594 1.387 . S
C598 C599 1.387 . S
C598 H602 0.950 . S
C598 C607 1.390 . S
C599 C598 1.387 . S
C599 C601 1.387 . S
H600 C607 0.950 . S
C601 C599 1.387 . S
C601 C603 1.390 . S
C601 H605 0.950 . S
H602 C598 0.950 . S
C603 C601 1.390 . S
C603 C604 1.387 . S
C603 H606 0.950 . S
C604 C603 1.387 . S
C604 C607 1.387 . S
H605 C601 0.950 . S
H606 C603 0.950 . S
C607 C598 1.390 . S
C607 H600 0.950 . S
C607 C604 1.387 . S
C608 C609 1.387 . S
C608 H612 0.950 . S
C608 C617 1.390 . S
C609 C608 1.387 . S
C609 C611 1.387 . S
H610 C617 0.950 . S
C611 C609 1.387 . S
C611 C613 1.390 . S
C611 H615 0.950 . S
H612 C608 0.950 . S
C613 C611 1.390 . S
C613 C614 1.387 . S
C613 H616 0.950 . S
C614 C613 1.387 . S
C614 C617 1.387 . S
H615 C611 0.950 . S
H616 C613 0.950 . S
C617 C608 1.390 . S
C617 H610 0.950 . S
C617 C614 1.387 . S
C618 C619 1.387 . S
C618 H622 0.950 . S
C618 C627 1.390 . S
C619 C618 1.387 . S
C619 C621 1.387 . S
H620 C627 0.950 . S
C621 C619 1.387 . S
C621 C623 1.390 . S
C621 H625 0.950 . S
H622 C618 0.950 . S
C623 C621 1.390 . S
C623 C624 1.387 . S
C623 H626 0.950 . S
C624 C623 1.387 . S
C624 C627 1.387 . S
H625 C621 0.950 . S
H626 C623 0.950 . S
C627 C618 1.390 . S
C627 H620 0.950 . S
C627 C624 1.387 . S
C628 C629 1.387 . S
C628 H632 0.950 . S
C628 C637 1.390 . S
C629 C628 1.387 . S
C629 C631 1.387 . S
H630 C637 0.950 . S
C631 C629 1.387 . S
C631 C633 1.390 . S
C631 H635 0.950 . S
H632 C628 0.950 . S
C633 C631 1.390 . S
C633 C634 1.387 . S
C633 H636 0.950 . S
C634 C633 1.387 . S
C634 C637 1.387 . S
H635 C631 0.950 . S
H636 C633 0.950 . S
C637 C628 1.390 . S
C637 H630 0.950 . S
C637 C634 1.387 . S
C638 C639 1.387 . S
C638 H642 0.950 . S
C638 C647 1.390 . S
C639 C638 1.387 . S
C639 C641 1.387 . S
H640 C647 0.950 . S
C641 C639 1.387 . S
C641 C643 1.390 . S
C641 H645 0.950 . S
H642 C638 0.950 . S
C643 C641 1.390 . S
C643 C644 1.387 . S
C643 H646 0.950 . S
C644 C643 1.387 . S
C644 C647 1.387 . S
H645 C641 0.950 . S
H646 C643 0.950 . S
C647 C638 1.390 . S
C647 H640 0.950 . S
C647 C644 1.387 . S
C529 C20 1.393 . S
C534 C489 1.393 . S
C539 C49 1.393 . S
C544 C117 1.393 . S
C549 C196 1.392 . S
C554 C145 1.393 . S
C559 C284 1.393 . S
C564 C225 1.393 . S
C569 C372 1.393 . S
C574 C313 1.393 . S
C579 C460 1.393 . S
C584 C401 1.393 . S
C589 C57 1.576 . S
C594 C381 1.576 . S
C599 C469 1.576 . S
C604 C137 1.576 . S
C609 C233 1.576 . S
C614 C29 1.576 . S
C619 C108 1.576 . S
C624 C321 1.576 . S
C629 C205 1.576 . S
C634 C409 1.576 . S
C639 C497 1.576 . S
C644 C293 1.576 . S
