# Generated by pormake.
# Topology wjz, (5)-cn, num edge types: 1
# Building blocks:
#     Node 0, Type 0, BuildingBlock: XOMCOT_clean_sbu_1, # of connection points: 5
#     Node 1, Type 0, BuildingBlock: XOMCOT_clean_sbu_1, # of connection points: 5
#     Node 2, Type 0, BuildingBlock: XOMCOT_clean_sbu_1, # of connection points: 5
#     Node 3, Type 0, BuildingBlock: XOMCOT_clean_sbu_1, # of connection points: 5
#     Node 4, Type 0, BuildingBlock: XOMCOT_clean_sbu_1, # of connection points: 5
#     Node 5, Type 0, BuildingBlock: XOMCOT_clean_sbu_1, # of connection points: 5
#     Node 6, Type 0, BuildingBlock: XOMCOT_clean_sbu_1, # of connection points: 5
#     Node 7, Type 0, BuildingBlock: XOMCOT_clean_sbu_1, # of connection points: 5
#     Node 8, Type 0, BuildingBlock: XOMCOT_clean_sbu_1, # of connection points: 5
#     Node 9, Type 0, BuildingBlock: XOMCOT_clean_sbu_1, # of connection points: 5
#     Node 10, Type 0, BuildingBlock: XOMCOT_clean_sbu_1, # of connection points: 5
#     Node 11, Type 0, BuildingBlock: XOMCOT_clean_sbu_1, # of connection points: 5
#     Edge 12, Type (0, 0), BuildingBlock: MIFKUJ_clean_linker_0, # of connection points: 2
#     Edge 13, Type (0, 0), BuildingBlock: MIFKUJ_clean_linker_0, # of connection points: 2
#     Edge 14, Type (0, 0), BuildingBlock: MIFKUJ_clean_linker_0, # of connection points: 2
#     Edge 15, Type (0, 0), BuildingBlock: MIFKUJ_clean_linker_0, # of connection points: 2
#     Edge 16, Type (0, 0), BuildingBlock: MIFKUJ_clean_linker_0, # of connection points: 2
#     Edge 17, Type (0, 0), BuildingBlock: MIFKUJ_clean_linker_0, # of connection points: 2
#     Edge 18, Type (0, 0), BuildingBlock: MIFKUJ_clean_linker_0, # of connection points: 2
#     Edge 19, Type (0, 0), BuildingBlock: MIFKUJ_clean_linker_0, # of connection points: 2
#     Edge 20, Type (0, 0), BuildingBlock: MIFKUJ_clean_linker_0, # of connection points: 2
#     Edge 21, Type (0, 0), BuildingBlock: MIFKUJ_clean_linker_0, # of connection points: 2
#     Edge 22, Type (0, 0), BuildingBlock: MIFKUJ_clean_linker_0, # of connection points: 2
#     Edge 23, Type (0, 0), BuildingBlock: MIFKUJ_clean_linker_0, # of connection points: 2
#     Edge 24, Type (0, 0), BuildingBlock: MIFKUJ_clean_linker_0, # of connection points: 2
#     Edge 25, Type (0, 0), BuildingBlock: MIFKUJ_clean_linker_0, # of connection points: 2
#     Edge 26, Type (0, 0), BuildingBlock: MIFKUJ_clean_linker_0, # of connection points: 2
#     Edge 27, Type (0, 0), BuildingBlock: MIFKUJ_clean_linker_0, # of connection points: 2
#     Edge 28, Type (0, 0), BuildingBlock: MIFKUJ_clean_linker_0, # of connection points: 2
#     Edge 29, Type (0, 0), BuildingBlock: MIFKUJ_clean_linker_0, # of connection points: 2
#     Edge 30, Type (0, 0), BuildingBlock: MIFKUJ_clean_linker_0, # of connection points: 2
#     Edge 31, Type (0, 0), BuildingBlock: MIFKUJ_clean_linker_0, # of connection points: 2
#     Edge 32, Type (0, 0), BuildingBlock: MIFKUJ_clean_linker_0, # of connection points: 2
#     Edge 33, Type (0, 0), BuildingBlock: MIFKUJ_clean_linker_0, # of connection points: 2
#     Edge 34, Type (0, 0), BuildingBlock: MIFKUJ_clean_linker_0, # of connection points: 2
#     Edge 35, Type (0, 0), BuildingBlock: MIFKUJ_clean_linker_0, # of connection points: 2
#     Edge 36, Type (0, 0), BuildingBlock: MIFKUJ_clean_linker_0, # of connection points: 2
#     Edge 37, Type (0, 0), BuildingBlock: MIFKUJ_clean_linker_0, # of connection points: 2
#     Edge 38, Type (0, 0), BuildingBlock: MIFKUJ_clean_linker_0, # of connection points: 2
#     Edge 39, Type (0, 0), BuildingBlock: MIFKUJ_clean_linker_0, # of connection points: 2
#     Edge 40, Type (0, 0), BuildingBlock: MIFKUJ_clean_linker_0, # of connection points: 2
#     Edge 41, Type (0, 0), BuildingBlock: MIFKUJ_clean_linker_0, # of connection points: 2
# Relax obj value: 0.169
# Max RMSD: 0.189
# Mean RMSD: 0.189
data_MOF--net-wjz--node1-XOMCOT_clean_sbu_1--edge1-MIFKUJ_clean_linker_0
_symmetry_space_group_name_H-M    P1
_symmetry_Int_Tables_number       1
_symmetry_cell_setting            triclinic
loop_
_symmetry_equiv_pos_as_xyz
'x, y, z'
_cell_length_a     93.19381
_cell_length_b     93.170827
_cell_length_c     21.839874
_cell_angle_alpha  90.026038
_cell_angle_beta   90.014649
_cell_angle_gamma 119.9925
loop_
_atom_site_label
_atom_site_type_symbol
_atom_site_fract_x
_atom_site_fract_y
_atom_site_fract_z
_atom_type_partial_charge
C0 C 0.31844 0.45283 0.05133 0.0
C1 C 0.31603 0.44963 0.98958 0.0
N2 N 0.32415 0.46416 0.95942 0.0
N3 N 0.32811 0.46928 0.05997 0.0
C4 C 0.33131 0.47588 0.00326 0.0
H5 H 0.31351 0.44377 0.08775 0.0
Co6 Co 0.33488 0.47944 0.13559 0.0
C7 C 0.3684 0.50805 0.11457 0.0
O8 O 0.37376 0.50427 0.1643 0.0
N9 N 0.34108 0.48967 0.21306 0.0
C10 C 0.34794 0.50878 0.28581 0.0
C11 C 0.34624 0.50581 0.22397 0.0
C12 C 0.33906 0.48299 0.26957 0.0
N13 N 0.34336 0.49436 0.31469 0.0
O14 O 0.32151 0.48928 0.12512 0.0
H15 H 0.34819 0.51486 0.18913 0.0
H16 H 0.33355 0.46991 0.27808 0.0
O17 O 0.35332 0.499 0.09779 0.0
C18 C 0.30606 0.48 0.13356 0.0
O19 O 0.30031 0.46431 0.147 0.0
N20 N 0.3474 0.46878 0.14534 0.0
C21 C 0.36248 0.44949 0.15622 0.0
C22 C 0.36815 0.4623 0.11314 0.0
C23 C 0.36015 0.47147 0.1072 0.0
C24 C 0.34095 0.45554 0.18407 0.0
C25 C 0.3485 0.44593 0.1913 0.0
H26 H 0.36385 0.48024 0.07009 0.0
H27 H 0.32943 0.45188 0.20741 0.0
H28 H 0.33898 0.48899 0.99423 0.0
H29 H 0.30874 0.43755 0.96865 0.0
H30 H 0.35191 0.52062 0.30751 0.0
H31 H 0.37829 0.4648 0.08255 0.0
H32 H 0.34331 0.43572 0.22343 0.0
C33 C 0.86881 0.3205 0.1794 0.0
C34 C 0.87036 0.32007 0.11693 0.0
N35 N 0.86074 0.32536 0.09049 0.0
N36 N 0.85844 0.32622 0.19232 0.0
C37 C 0.85353 0.3288 0.13746 0.0
H38 H 0.87506 0.31709 0.21315 0.0
Co39 Co 0.85263 0.33029 0.26864 0.0
C40 C 0.85424 0.36287 0.25696 0.0
O41 O 0.86011 0.36723 0.31278 0.0
N42 N 0.84627 0.33405 0.34612 0.0
C43 C 0.83113 0.33734 0.41766 0.0
C44 C 0.83278 0.33556 0.35618 0.0
C45 C 0.85247 0.33474 0.4027 0.0
N46 N 0.84357 0.33685 0.44699 0.0
O47 O 0.82985 0.31646 0.24971 0.0
H48 H 0.82463 0.3355 0.32081 0.0
H49 H 0.86322 0.33366 0.41189 0.0
O50 O 0.85134 0.34894 0.23524 0.0
C51 C 0.82333 0.30088 0.24368 0.0
O52 O 0.83295 0.29432 0.24281 0.0
N53 N 0.87526 0.3433 0.28746 0.0
C54 C 0.90894 0.35882 0.3146 0.0
C55 C 0.90272 0.3665 0.27634 0.0
C56 C 0.88588 0.35836 0.26207 0.0
C57 C 0.8813 0.33527 0.32168 0.0
C58 C 0.89806 0.34289 0.3367 0.0
H59 H 0.8817 0.36397 0.22872 0.0
H60 H 0.87299 0.32275 0.33712 0.0
H61 H 0.84467 0.33297 0.13243 0.0
H62 H 0.87827 0.31648 0.09324 0.0
H63 H 0.82127 0.33847 0.439 0.0
H64 H 0.91089 0.37847 0.25589 0.0
H65 H 0.90245 0.33638 0.36529 0.0
C66 C 0.5473 0.86342 0.36216 0.0
C67 C 0.54998 0.86296 0.30043 0.0
N68 N 0.53515 0.85453 0.27247 0.0
N69 N 0.53086 0.85555 0.37282 0.0
C70 C 0.52375 0.85006 0.31739 0.0
H71 H 0.55671 0.86933 0.39706 0.0
Co72 Co 0.52111 0.85354 0.44895 0.0
C73 C 0.49539 0.8624 0.41951 0.0
O74 O 0.50057 0.87331 0.46426 0.0
N75 N 0.51127 0.85068 0.52713 0.0
C76 C 0.49296 0.84293 0.60344 0.0
C77 C 0.49517 0.84502 0.54128 0.0
C78 C 0.51823 0.85063 0.58159 0.0
N79 N 0.50749 0.84648 0.62865 0.0
O80 O 0.5098 0.8303 0.44159 0.0
H81 H 0.48524 0.84151 0.5088 0.0
H82 H 0.53074 0.85293 0.58665 0.0
O83 O 0.5024 0.85382 0.40978 0.0
C84 C 0.51828 0.82359 0.45604 0.0
O85 O 0.53406 0.83318 0.46903 0.0
N86 N 0.53307 0.87691 0.4568 0.0
C87 C 0.55152 0.91123 0.47074 0.0
C88 C 0.54151 0.90423 0.41906 0.0
C89 C 0.53271 0.88705 0.41219 0.0
C90 C 0.54384 0.88363 0.50457 0.0
C91 C 0.55295 0.90074 0.51308 0.0
H92 H 0.52554 0.88189 0.37094 0.0
H93 H 0.54576 0.87584 0.53572 0.0
H94 H 0.5105 0.84327 0.30986 0.0
H95 H 0.5619 0.86837 0.27781 0.0
H96 H 0.48138 0.83835 0.62796 0.0
H97 H 0.54065 0.91195 0.38388 0.0
H98 H 0.56094 0.90567 0.55275 0.0
C99 C 0.68379 0.54849 0.54244 0.0
C100 C 0.68694 0.55174 0.48096 0.0
N101 N 0.67801 0.53743 0.45008 0.0
N102 N 0.67284 0.53226 0.55012 0.0
C103 C 0.66966 0.52579 0.49311 0.0
H104 H 0.68884 0.55744 0.57925 0.0
Co105 Co 0.664 0.52267 0.62504 0.0
C106 C 0.63076 0.4947 0.59552 0.0
O107 O 0.62449 0.49939 0.63996 0.0
N108 N 0.65576 0.51302 0.70254 0.0
C109 C 0.64771 0.49437 0.77758 0.0
C110 C 0.64901 0.4967 0.71546 0.0
C111 C 0.65911 0.52036 0.75831 0.0
N112 N 0.65419 0.50929 0.80467 0.0
O113 O 0.67743 0.51278 0.62644 0.0
H114 H 0.64629 0.48709 0.68215 0.0
H115 H 0.66646 0.53355 0.76533 0.0
O116 O 0.64632 0.50296 0.58449 0.0
C117 C 0.69062 0.52185 0.65636 0.0
O118 O 0.69348 0.53647 0.67493 0.0
N119 N 0.65164 0.53362 0.62428 0.0
C120 C 0.63729 0.55365 0.62229 0.0
C121 C 0.63272 0.541 0.57904 0.0
C122 C 0.64041 0.53144 0.57969 0.0
C123 C 0.657 0.54661 0.66383 0.0
C124 C 0.64977 0.55658 0.66453 0.0
H125 H 0.63766 0.52266 0.54304 0.0
H126 H 0.66749 0.54983 0.69303 0.0
H127 H 0.66093 0.51293 0.48302 0.0
H128 H 0.69507 0.56371 0.46057 0.0
H129 H 0.64305 0.48261 0.80078 0.0
H130 H 0.6237 0.53888 0.54375 0.0
H131 H 0.65404 0.56658 0.6975 0.0
C132 C 0.13867 0.68628 0.72333 0.0
C133 C 0.14061 0.69033 0.66219 0.0
N134 N 0.14617 0.68123 0.63344 0.0
N135 N 0.14291 0.67463 0.7333 0.0
C136 C 0.14762 0.67194 0.67799 0.0
H137 H 0.13385 0.69102 0.75803 0.0
Co138 Co 0.1406 0.66421 0.80816 0.0
C139 C 0.13332 0.63065 0.77278 0.0
O140 O 0.12079 0.62438 0.81126 0.0
N141 N 0.139 0.65444 0.88578 0.0
C142 C 0.14567 0.64355 0.96409 0.0
C143 C 0.14578 0.64509 0.90169 0.0
C144 C 0.13574 0.65918 0.9403 0.0
N145 N 0.13942 0.6525 0.98857 0.0
O146 O 0.16377 0.67639 0.81993 0.0
H147 H 0.15199 0.64091 0.87082 0.0
H148 H 0.13209 0.66843 0.94493 0.0
O149 O 0.14244 0.64638 0.76771 0.0
C150 C 0.16746 0.68966 0.8486 0.0
O151 O 0.15567 0.6932 0.85881 0.0
N152 N 0.11738 0.65306 0.79725 0.0
C153 C 0.08336 0.63964 0.78069 0.0
C154 C 0.09276 0.63677 0.73762 0.0
C155 C 0.10982 0.64396 0.74589 0.0
C156 C 0.10853 0.65681 0.83732 0.0
C157 C 0.09147 0.65002 0.83056 0.0
H158 H 0.11695 0.64237 0.71033 0.0
H159 H 0.11472 0.66562 0.87347 0.0
H160 H 0.15165 0.66304 0.67037 0.0
H161 H 0.13736 0.69874 0.64038 0.0
H162 H 0.15114 0.63752 0.98951 0.0
H163 H 0.08704 0.62937 0.69712 0.0
H164 H 0.08472 0.65291 0.86407 0.0
C165 C 0.45175 0.13322 0.83492 0.0
C166 C 0.44897 0.1325 0.77287 0.0
N167 N 0.46375 0.1396 0.74427 0.0
N168 N 0.46818 0.14063 0.84517 0.0
C169 C 0.47519 0.1445 0.7892 0.0
H170 H 0.4424 0.12857 0.87039 0.0
Co171 Co 0.47813 0.14405 0.92113 0.0
C172 C 0.50568 0.13743 0.90332 0.0
O173 O 0.50132 0.12859 0.95387 0.0
N174 N 0.48835 0.14819 0.99864 0.0
C175 C 0.5079 0.16066 0.06979 0.0
C176 C 0.5046 0.15903 0.00825 0.0
C177 C 0.48195 0.14395 0.05568 0.0
N178 N 0.49361 0.15117 0.09977 0.0
O179 O 0.48881 0.16734 0.90985 0.0
H180 H 0.51353 0.16575 0.97262 0.0
H181 H 0.46892 0.13658 0.06536 0.0
O182 O 0.49729 0.14402 0.88458 0.0
C183 C 0.48016 0.17439 0.91129 0.0
O184 O 0.46394 0.16522 0.91283 0.0
N185 N 0.46669 0.1209 0.93256 0.0
C186 C 0.44642 0.08676 0.94677 0.0
C187 C 0.45893 0.09317 0.90238 0.0
C188 C 0.46866 0.11027 0.89499 0.0
C189 C 0.45372 0.11483 0.97242 0.0
C190 C 0.4437 0.09781 0.98158 0.0
H191 H 0.47738 0.11484 0.85758 0.0
H192 H 0.45059 0.12319 0.99517 0.0
H193 H 0.48841 0.15049 0.78149 0.0
H194 H 0.43701 0.12725 0.75063 0.0
H195 H 0.51989 0.16847 0.09057 0.0
H196 H 0.46113 0.08506 0.87319 0.0
H197 H 0.43357 0.09334 0.01397 0.0
C198 C 0.54719 0.68841 0.81454 0.0
C199 C 0.54998 0.69079 0.87652 0.0
N200 N 0.53541 0.68163 0.90557 0.0
N201 N 0.53097 0.67778 0.80477 0.0
C202 C 0.52408 0.67395 0.86092 0.0
H203 H 0.55639 0.69394 0.77877 0.0
Co204 Co 0.52128 0.6707 0.72899 0.0
C205 C 0.4938 0.6365 0.74878 0.0
O206 O 0.49809 0.63153 0.69926 0.0
N207 N 0.51143 0.66418 0.65126 0.0
C208 C 0.49254 0.65698 0.57731 0.0
C209 C 0.49515 0.65821 0.6394 0.0
C210 C 0.51851 0.66717 0.59526 0.0
N211 N 0.50729 0.66269 0.5498 0.0
O212 O 0.5104 0.68302 0.73784 0.0
H213 H 0.48581 0.65563 0.67373 0.0
H214 H 0.53165 0.67314 0.58717 0.0
O215 O 0.50218 0.65163 0.76581 0.0
C216 C 0.51896 0.69774 0.71814 0.0
O217 O 0.5344 0.70304 0.702 0.0
N218 N 0.53304 0.6593 0.71977 0.0
C219 C 0.55275 0.64503 0.70158 0.0
C220 C 0.54017 0.63863 0.74571 0.0
C221 C 0.53079 0.64629 0.7555 0.0
C222 C 0.54631 0.66664 0.68136 0.0
C223 C 0.55613 0.65952 0.67045 0.0
H224 H 0.52196 0.64188 0.79255 0.0
H225 H 0.54954 0.67833 0.66009 0.0
H226 H 0.51098 0.66584 0.8689 0.0
H227 H 0.56185 0.69841 0.8984 0.0
H228 H 0.48088 0.65306 0.55419 0.0
H229 H 0.53783 0.62801 0.77328 0.0
H230 H 0.56618 0.66524 0.63772 0.0
C231 C 0.86574 0.54539 0.96079 0.0
C232 C 0.8666 0.54787 0.02308 0.0
N233 N 0.85849 0.53294 0.05066 0.0
N234 N 0.85726 0.52899 0.94927 0.0
C235 C 0.85293 0.52173 0.00476 0.0
H236 H 0.87065 0.55494 0.92611 0.0
Co237 Co 0.85153 0.51895 0.87314 0.0
C238 C 0.85676 0.49012 0.8822 0.0
O239 O 0.86286 0.49269 0.82643 0.0
N240 N 0.84506 0.50867 0.79598 0.0
C241 C 0.83042 0.48945 0.72595 0.0
C242 C 0.83312 0.49272 0.78739 0.0
C243 C 0.84894 0.51494 0.73872 0.0
N244 N 0.84041 0.50348 0.69518 0.0
O245 O 0.8288 0.5085 0.89414 0.0
H246 H 0.82665 0.48396 0.82376 0.0
H247 H 0.85729 0.52781 0.72878 0.0
O248 O 0.85229 0.49986 0.9055 0.0
C249 C 0.82182 0.51717 0.89848 0.0
O250 O 0.83094 0.5334 0.89588 0.0
N251 N 0.87409 0.5301 0.85192 0.0
C252 C 0.90737 0.55016 0.82134 0.0
C253 C 0.90241 0.5368 0.86163 0.0
C254 C 0.88576 0.52719 0.87764 0.0
C255 C 0.87887 0.5437 0.81596 0.0
C256 C 0.89541 0.55374 0.79912 0.0
H257 H 0.88253 0.51791 0.91258 0.0
H258 H 0.86982 0.54702 0.80151 0.0
H259 H 0.8457 0.50847 0.01118 0.0
H260 H 0.87233 0.55975 0.04605 0.0
H261 H 0.82172 0.47762 0.70587 0.0
H262 H 0.91142 0.53419 0.88241 0.0
H263 H 0.8988 0.56426 0.76938 0.0
C264 C 0.31938 0.86732 0.13714 0.0
C265 C 0.31814 0.86862 0.1994 0.0
N266 N 0.32461 0.86022 0.22708 0.0
N267 N 0.32677 0.85832 0.12591 0.0
C268 C 0.32968 0.85404 0.18151 0.0
H269 H 0.31516 0.87259 0.10223 0.0
Co270 Co 0.33142 0.85305 0.04969 0.0
C271 C 0.36468 0.85687 0.06133 0.0
O272 O 0.36897 0.86471 0.0086 0.0
N273 N 0.33562 0.84708 0.97218 0.0
C274 C 0.33996 0.83234 0.90177 0.0
C275 C 0.33879 0.83456 0.96325 0.0
C276 C 0.33448 0.85193 0.91492 0.0
N277 N 0.33722 0.84329 0.87135 0.0
O278 O 0.31776 0.83019 0.06721 0.0
H279 H 0.33997 0.82728 -0.00062 0.0
H280 H 0.33095 0.86104 0.90459 0.0
O281 O 0.35024 0.85195 0.0832 0.0
C282 C 0.30217 0.8241 0.06895 0.0
O283 O 0.29603 0.83398 0.0617 0.0
N284 N 0.34428 0.8759 0.03317 0.0
C285 C 0.35907 0.91011 0.01735 0.0
C286 C 0.36568 0.90347 0.05874 0.0
C287 C 0.35789 0.88639 0.06704 0.0
C288 C 0.33717 0.88223 0.99537 0.0
C289 C 0.3446 0.89928 0.98543 0.0
H290 H 0.3624 0.88178 0.10313 0.0
H291 H 0.32518 0.8741 0.97535 0.0
H292 H 0.33557 0.84667 0.18844 0.0
H293 H 0.31268 0.87502 0.22247 0.0
H294 H 0.34253 0.8233 0.88123 0.0
H295 H 0.37659 0.91144 0.08561 0.0
H296 H 0.33865 0.90396 0.9553 0.0
C297 C 0.45358 0.31718 0.29515 0.0
C298 C 0.45121 0.31506 0.35737 0.0
N299 N 0.46619 0.32197 0.38457 0.0
N300 N 0.46996 0.32545 0.28344 0.0
C301 C 0.47732 0.32805 0.33857 0.0
H302 H 0.444 0.31313 0.26062 0.0
Co303 Co 0.47976 0.33167 0.20744 0.0
C304 C 0.50869 0.36503 0.22582 0.0
O305 O 0.50487 0.37009 0.17541 0.0
N306 N 0.4898 0.33739 0.12993 0.0
C307 C 0.50877 0.34288 0.05776 0.0
C308 C 0.50576 0.34161 0.11951 0.0
C309 C 0.48326 0.3356 0.07331 0.0
N310 N 0.49458 0.33904 0.02885 0.0
O311 O 0.48912 0.31789 0.21746 0.0
H312 H 0.51455 0.34302 0.15466 0.0
H313 H 0.47039 0.33127 0.06407 0.0
O314 O 0.4996 0.35009 0.24397 0.0
C315 C 0.47932 0.30253 0.20892 0.0
O316 O 0.46347 0.29725 0.20101 0.0
N317 N 0.46947 0.34452 0.19734 0.0
C318 C 0.45051 0.35992 0.18535 0.0
C319 C 0.46342 0.36568 0.22809 0.0
C320 C 0.47243 0.35752 0.23463 0.0
C321 C 0.45614 0.33802 0.15897 0.0
C322 C 0.4467 0.34571 0.1512 0.0
H323 H 0.48131 0.36132 0.27145 0.0
H324 H 0.45234 0.32637 0.13623 0.0
H325 H 0.4906 0.33417 0.34474 0.0
H326 H 0.43938 0.30923 0.38068 0.0
H327 H 0.52026 0.34554 0.0358 0.0
H328 H 0.46614 0.37603 0.25791 0.0
H329 H 0.43643 0.34048 0.1193 0.0
C330 C 0.14195 0.45675 0.44481 0.0
C331 C 0.1435 0.45423 0.50589 0.0
N332 N 0.14735 0.46826 0.53672 0.0
N333 N 0.14481 0.47229 0.43685 0.0
C334 C 0.14824 0.47907 0.49348 0.0
H335 H 0.13855 0.44771 0.40857 0.0
Co336 Co 0.14294 0.48078 0.36188 0.0
C337 C 0.13329 0.50514 0.40048 0.0
O338 O 0.12057 0.49824 0.36292 0.0
N339 N 0.14189 0.4894 0.28447 0.0
C340 C 0.14743 0.50723 0.20793 0.0
C341 C 0.14635 0.50522 0.27013 0.0
C342 C 0.14127 0.48238 0.22946 0.0
N343 N 0.14441 0.49288 0.18202 0.0
O344 O 0.1663 0.49259 0.35393 0.0
H345 H 0.1502 0.51531 0.30207 0.0
H346 H 0.14001 0.47025 0.22469 0.0
O347 O 0.14346 0.49971 0.40347 0.0
C348 C 0.17057 0.4831 0.32787 0.0
O349 O 0.15906 0.46769 0.31683 0.0
N350 N 0.1196 0.46787 0.36855 0.0
C351 C 0.08538 0.44712 0.377 0.0
C352 C 0.09426 0.45778 0.42524 0.0
C353 C 0.11141 0.46777 0.4207 0.0
C354 C 0.11124 0.45675 0.32308 0.0
C355 C 0.09409 0.44642 0.32592 0.0
H356 H 0.11804 0.47561 0.45907 0.0
H357 H 0.11779 0.45553 0.28477 0.0
H358 H 0.1506 0.49144 0.50316 0.0
H359 H 0.14172 0.44283 0.52584 0.0
H360 H 0.15104 0.51873 0.18422 0.0
H361 H 0.08804 0.45828 0.46639 0.0
H362 H 0.08772 0.43811 0.28813 0.0
C363 C 0.68906 0.13638 0.65884 0.0
C364 C 0.69252 0.13749 0.72037 0.0
N365 N 0.68559 0.14554 0.7478 0.0
N366 N 0.67995 0.14361 0.64731 0.0
C367 C 0.67811 0.14918 0.70219 0.0
H368 H 0.69263 0.13034 0.62471 0.0
Co369 Co 0.67161 0.14404 0.57076 0.0
C370 C 0.65147 0.15927 0.59768 0.0
O371 O 0.65928 0.17042 0.55489 0.0
N372 N 0.66345 0.14421 0.49321 0.0
C373 C 0.64703 0.14009 0.41348 0.0
C374 C 0.64759 0.13847 0.47589 0.0
C375 C 0.67224 0.14893 0.44071 0.0
N376 N 0.66255 0.14661 0.39144 0.0
O377 O 0.68629 0.16714 0.56564 0.0
H378 H 0.63705 0.13305 0.50643 0.0
H379 H 0.68548 0.15379 0.43865 0.0
O380 O 0.65517 0.14804 0.6078 0.0
C381 C 0.70148 0.17242 0.55456 0.0
O382 O 0.70673 0.16172 0.55056 0.0
N383 N 0.65778 0.12127 0.57439 0.0
C384 C 0.63969 0.08691 0.5701 0.0
C385 C 0.63442 0.09571 0.60698 0.0
C386 C 0.64378 0.11299 0.60907 0.0
C387 C 0.66312 0.11291 0.53871 0.0
C388 C 0.65428 0.09569 0.53593 0.0
H389 H 0.63978 0.11958 0.63872 0.0
H390 H 0.67435 0.11974 0.51216 0.0
H391 H 0.67134 0.15569 0.70854 0.0
H392 H 0.69914 0.13225 0.7432 0.0
H393 H 0.63599 0.13618 0.38618 0.0
H394 H 0.6233 0.08929 0.63452 0.0
H395 H 0.65867 0.08932 0.50658 0.0
H396 H 0.34163 0.46789 0.37443 0.0
H397 H 0.33825 0.46244 0.48421 0.0
H398 H 0.33958 0.50881 0.51418 0.0
H399 H 0.34236 0.51418 0.40449 0.0
H400 H 0.35964 0.50248 0.59695 0.0
H401 H 0.30382 0.47576 0.5162 0.0
H402 H 0.2814 0.45695 0.44665 0.0
H403 H 0.28524 0.41569 0.51392 0.0
H404 H 0.30787 0.43432 0.58328 0.0
H405 H 0.32918 0.49157 0.8981 0.0
H406 H 0.33233 0.49613 0.78768 0.0
H407 H 0.32489 0.44697 0.76174 0.0
H408 H 0.32179 0.44233 0.87228 0.0
H409 H 0.30826 0.45417 0.67638 0.0
H410 H 0.36343 0.479 0.75295 0.0
H411 H 0.38579 0.49631 0.82531 0.0
H412 H 0.38386 0.53933 0.76718 0.0
H413 H 0.36143 0.52223 0.69442 0.0
C414 C 0.34103 0.47689 0.40399 0.0
C415 C 0.34211 0.49143 0.37996 0.0
C416 C 0.33922 0.47378 0.46688 0.0
C417 C 0.33858 0.48519 0.50706 0.0
C418 C 0.3401 0.49989 0.48377 0.0
C419 C 0.34174 0.50294 0.42085 0.0
C420 C 0.33589 0.48159 0.57331 0.0
C421 C 0.34834 0.49204 0.6144 0.0
C422 C 0.32135 0.46768 0.59575 0.0
C423 C 0.30765 0.45646 0.55446 0.0
C424 C 0.29998 0.4627 0.5158 0.0
C425 C 0.28721 0.45207 0.47648 0.0
C426 C 0.28193 0.43514 0.47574 0.0
C427 C 0.28936 0.42881 0.51447 0.0
C428 C 0.30215 0.43939 0.55383 0.0
C429 C 0.3283 0.48176 0.86902 0.0
C430 C 0.32536 0.46663 0.8941 0.0
C431 C 0.33005 0.48436 0.80589 0.0
C432 C 0.32904 0.47195 0.76664 0.0
C433 C 0.32569 0.45669 0.79127 0.0
C434 C 0.32389 0.45406 0.85444 0.0
C435 C 0.33194 0.47512 0.70008 0.0
C436 C 0.31957 0.4646 0.65893 0.0
C437 C 0.34665 0.48879 0.67745 0.0
C438 C 0.36069 0.49933 0.71864 0.0
C439 C 0.36779 0.49216 0.75559 0.0
C440 C 0.38047 0.50192 0.79662 0.0
C441 C 0.38621 0.51888 0.80092 0.0
C442 C 0.3794 0.52618 0.76372 0.0
C443 C 0.36674 0.51647 0.72241 0.0
H444 H 0.39593 0.52633 0.83313 0.0
H445 H 0.27204 0.42693 0.44526 0.0
H446 H 0.86936 0.31242 0.99507 0.0
H447 H 0.86715 0.31681 0.88639 0.0
H448 H 0.84551 0.34706 0.9292 0.0
H449 H 0.84828 0.34343 0.03805 0.0
H450 H 0.82823 0.32095 0.83651 0.0
H451 H 0.88167 0.36704 0.88616 0.0
H452 H 0.90977 0.38057 0.93041 0.0
H453 H 0.92293 0.35229 0.81134 0.0
H454 H 0.89481 0.3384 0.76693 0.0
H455 H 0.83221 0.34979 0.53303 0.0
H456 H 0.83555 0.34955 0.64371 0.0
H457 H 0.86464 0.32567 0.62021 0.0
H458 H 0.86123 0.32562 0.50986 0.0
H459 H 0.87814 0.35038 0.70512 0.0
H460 H 0.82497 0.30282 0.66109 0.0
H461 H 0.7968 0.28808 0.61738 0.0
H462 H 0.78317 0.318 0.72491 0.0
H463 H 0.81129 0.33294 0.7693 0.0
C464 C 0.8643 0.32016 0.98185 0.0
C465 C 0.85902 0.32754 0.026 0.0
C466 C 0.86297 0.32258 0.91957 0.0
C467 C 0.8562 0.33227 0.90019 0.0
C468 C 0.8507 0.33947 0.9436 0.0
C469 C 0.85223 0.33727 0.00595 0.0
C470 C 0.8549 0.33481 0.83433 0.0
C471 C 0.83911 0.32763 0.8078 0.0
C472 C 0.86915 0.34321 0.7972 0.0
C473 C 0.88608 0.35157 0.82364 0.0
C474 C 0.89051 0.3636 0.86979 0.0
C475 C 0.90645 0.37135 0.89483 0.0
C476 C 0.91811 0.36726 0.87383 0.0
C477 C 0.91387 0.35543 0.82762 0.0
C478 C 0.89794 0.34763 0.80244 0.0
C479 C 0.83925 0.34441 0.55121 0.0
C480 C 0.84632 0.3376 0.51216 0.0
C481 C 0.84119 0.34434 0.61452 0.0
C482 C 0.8502 0.33744 0.63997 0.0
C483 C 0.85768 0.33109 0.60131 0.0
C484 C 0.85576 0.33115 0.53805 0.0
C485 C 0.85146 0.3364 0.70702 0.0
C486 C 0.86725 0.34384 0.73381 0.0
C487 C 0.8372 0.32811 0.74434 0.0
C488 C 0.82027 0.3191 0.71803 0.0
C489 C 0.81599 0.30633 0.67511 0.0
C490 C 0.80004 0.29792 0.65028 0.0
C491 C 0.78823 0.30217 0.66806 0.0
C492 C 0.79234 0.31475 0.71107 0.0
C493 C 0.80827 0.32316 0.73622 0.0
H494 H 0.7759 0.29567 0.64867 0.0
H495 H 0.93045 0.37328 0.89327 0.0
H496 H 0.51134 0.8268 0.2174 0.0
H497 H 0.50676 0.82178 0.10695 0.0
H498 H 0.54721 0.8712 0.07171 0.0
H499 H 0.55222 0.8758 0.18157 0.0
H500 H 0.49753 0.83319 0.02283 0.0
H501 H 0.56617 0.87504 0.94028 0.0
H502 H 0.59427 0.88241 0.9744 0.0
H503 H 0.57415 0.83788 0.08149 0.0
H504 H 0.54596 0.83012 0.04736 0.0
H505 H 0.49627 0.85681 0.72213 0.0
H506 H 0.50105 0.85527 0.83118 0.0
H507 H 0.52983 0.83184 0.78906 0.0
H508 H 0.52576 0.83432 0.67931 0.0
H509 H 0.54399 0.85097 0.87606 0.0
H510 H 0.48838 0.80978 0.84835 0.0
H511 H 0.45948 0.79711 0.81257 0.0
H512 H 0.45207 0.83064 0.92521 0.0
H513 H 0.48101 0.8437 0.96092 0.0
C514 C 0.51925 0.83651 0.18579 0.0
C515 C 0.53222 0.85162 0.20778 0.0
C516 C 0.51666 0.83366 0.12274 0.0
C517 C 0.52683 0.84598 0.08053 0.0
C518 C 0.53952 0.86125 0.10286 0.0
C519 C 0.54234 0.86394 0.16571 0.0
C520 C 0.52386 0.84323 0.01333 0.0
C521 C 0.5077 0.83699 0.99085 0.0
C522 C 0.53696 0.84751 0.97117 0.0
C523 C 0.55392 0.85207 0.99161 0.0
C524 C 0.56774 0.86678 0.97088 0.0
C525 C 0.58369 0.87104 0.99028 0.0
C526 C 0.58598 0.86064 0.03022 0.0
C527 C 0.57235 0.84595 0.05073 0.0
C528 C 0.55638 0.84163 0.03143 0.0
C529 C 0.50359 0.85132 0.73637 0.0
C530 C 0.51058 0.84561 0.69263 0.0
C531 C 0.50623 0.85031 0.79869 0.0
C532 C 0.51543 0.843 0.81886 0.0
C533 C 0.52264 0.83748 0.77495 0.0
C534 C 0.52034 0.8389 0.71231 0.0
C535 C 0.51777 0.84157 0.88567 0.0
C536 C 0.53381 0.84699 0.90806 0.0
C537 C 0.50442 0.8357 0.92772 0.0
C538 C 0.48692 0.82779 0.90699 0.0
C539 C 0.48062 0.81452 0.86522 0.0
C540 C 0.46422 0.80726 0.84497 0.0
C541 C 0.45395 0.81308 0.86657 0.0
C542 C 0.46004 0.82615 0.90855 0.0
C543 C 0.47644 0.83347 0.92886 0.0
H544 H 0.44125 0.80746 0.85083 0.0
H545 H 0.59834 0.86396 0.04519 0.0
H546 H 0.65719 0.49012 0.89154 0.0
H547 H 0.66168 0.49581 0.00078 0.0
H548 H 0.66282 0.54222 0.97476 0.0
H549 H 0.65806 0.53652 0.86486 0.0
H550 H 0.68796 0.54499 0.05096 0.0
H551 H 0.62845 0.50982 0.03487 0.0
H552 H 0.60306 0.48483 5e-05 0.0
H553 H 0.61773 0.45404 0.09635 0.0
H554 H 0.64316 0.47883 0.13177 0.0
H555 H 0.68039 0.55964 0.36517 0.0
H556 H 0.67714 0.55553 0.2545 0.0
H557 H 0.66951 0.50614 0.27596 0.0
H558 H 0.67244 0.51013 0.38697 0.0
H559 H 0.64761 0.50533 0.20077 0.0
H560 H 0.70643 0.53913 0.21847 0.0
H561 H 0.73291 0.56322 0.25061 0.0
H562 H 0.72134 0.59566 0.14947 0.0
H563 H 0.69467 0.57177 0.11738 0.0
C564 C 0.6582 0.50146 0.90882 0.0
C565 C 0.6571 0.51279 0.86927 0.0
C566 C 0.66086 0.50472 0.97137 0.0
C567 C 0.6624 0.51934 0.99589 0.0
C568 C 0.66164 0.53086 0.95665 0.0
C569 C 0.65896 0.52759 0.89388 0.0
C570 C 0.66469 0.52243 0.06268 0.0
C571 C 0.67904 0.53649 0.08385 0.0
C572 C 0.65327 0.51104 0.10539 0.0
C573 C 0.63773 0.49616 0.08566 0.0
C574 C 0.62625 0.49771 0.04854 0.0
C575 C 0.61184 0.48358 0.02878 0.0
C576 C 0.60877 0.46785 0.04595 0.0
C577 C 0.62007 0.46622 0.08321 0.0
C578 C 0.63445 0.4803 0.10333 0.0
C579 C 0.67823 0.54799 0.34621 0.0
C580 C 0.67672 0.53522 0.38468 0.0
C581 C 0.67638 0.54565 0.28291 0.0
C582 C 0.6733 0.5306 0.25671 0.0
C583 C 0.67188 0.51786 0.29509 0.0
C584 C 0.67353 0.52013 0.35847 0.0
C585 C 0.67097 0.52793 0.18955 0.0
C586 C 0.65657 0.51392 0.16817 0.0
C587 C 0.68246 0.53928 0.14674 0.0
C588 C 0.69847 0.55368 0.16605 0.0
C589 C 0.70947 0.55142 0.2035 0.0
C590 C 0.72452 0.56503 0.22163 0.0
C591 C 0.72878 0.58096 0.20224 0.0
C592 C 0.71801 0.58331 0.16454 0.0
C593 C 0.70293 0.56974 0.14633 0.0
H594 H 0.74045 0.59149 0.2163 0.0
H595 H 0.59764 0.45692 0.03043 0.0
H596 H 0.13673 0.63268 0.08334 0.0
H597 H 0.13842 0.63913 0.19213 0.0
H598 H 0.14283 0.68638 0.14959 0.0
H599 H 0.14186 0.68029 0.04021 0.0
H600 H 0.16482 0.68995 0.23456 0.0
H601 H 0.10673 0.65402 0.20684 0.0
H602 H 0.08119 0.6289 0.1742 0.0
H603 H 0.09244 0.59922 0.2935 0.0
H604 H 0.11819 0.62411 0.32614 0.0
H605 H 0.15016 0.70392 0.54662 0.0
H606 H 0.14998 0.70056 0.43578 0.0
H607 H 0.14719 0.65334 0.45991 0.0
H608 H 0.14642 0.65606 0.57054 0.0
H609 H 0.12357 0.65099 0.38347 0.0
H610 H 0.18239 0.68697 0.4071 0.0
H611 H 0.20798 0.71217 0.4389 0.0
H612 H 0.19486 0.74198 0.32838 0.0
H613 H 0.16913 0.71696 0.29622 0.0
C614 C 0.1381 0.64447 0.097 0.0
C615 C 0.13916 0.65595 0.05287 0.0
C616 C 0.1389 0.64808 0.15933 0.0
C617 C 0.14055 0.66316 0.17915 0.0
C618 C 0.14148 0.67463 0.13535 0.0
C619 C 0.14075 0.67104 0.07278 0.0
C620 C 0.14177 0.66705 0.24559 0.0
C621 C 0.15565 0.68158 0.26706 0.0
C622 C 0.12998 0.65596 0.28814 0.0
C623 C 0.1145 0.64094 0.26846 0.0
C624 C 0.10384 0.64212 0.2257 0.0
C625 C 0.08931 0.62792 0.20727 0.0
C626 C 0.08522 0.61247 0.23162 0.0
C627 C 0.09564 0.61119 0.27457 0.0
C628 C 0.1102 0.62535 0.29308 0.0
C629 C 0.14945 0.69277 0.52863 0.0
C630 C 0.14806 0.68018 0.56812 0.0
C631 C 0.14955 0.69097 0.46506 0.0
C632 C 0.14848 0.67664 0.43963 0.0
C633 C 0.14784 0.6644 0.47874 0.0
C634 C 0.14759 0.6661 0.54221 0.0
C635 C 0.14675 0.67373 0.37252 0.0
C636 C 0.13271 0.6594 0.35094 0.0
C637 C 0.15835 0.68503 0.33001 0.0
C638 C 0.17374 0.7001 0.34982 0.0
C639 C 0.18489 0.69891 0.39002 0.0
C640 C 0.19945 0.71316 0.40793 0.0
C641 C 0.20304 0.72867 0.38573 0.0
C642 C 0.19207 0.72996 0.34551 0.0
C643 C 0.17751 0.71575 0.32736 0.0
H644 H 0.21432 0.73969 0.39961 0.0
H645 H 0.07396 0.6015 0.21731 0.0
H646 H 0.49079 0.16337 0.68539 0.0
H647 H 0.49608 0.16542 0.57518 0.0
H648 H 0.4487 0.12143 0.5457 0.0
H649 H 0.4435 0.11911 0.65594 0.0
H650 H 0.47374 0.12073 0.48266 0.0
H651 H 0.45345 0.15856 0.51342 0.0
H652 H 0.45273 0.18222 0.56086 0.0
H653 H 0.50243 0.21509 0.49973 0.0
H654 H 0.50353 0.19158 0.45265 0.0
H655 H 0.46776 0.12653 0.16183 0.0
H656 H 0.46301 0.12487 0.27189 0.0
H657 H 0.50913 0.17055 0.2972 0.0
H658 H 0.51367 0.17275 0.18705 0.0
H659 H 0.48512 0.17057 0.36289 0.0
H660 H 0.50567 0.13315 0.33201 0.0
H661 H 0.50679 0.10967 0.28495 0.0
H662 H 0.45731 0.07626 0.34681 0.0
H663 H 0.4558 0.09959 0.39356 0.0
C664 C 0.48155 0.15409 0.65548 0.0
C665 C 0.46671 0.14109 0.67933 0.0
C666 C 0.48452 0.15535 0.59253 0.0
C667 C 0.47271 0.14364 0.55239 0.0
C668 C 0.45794 0.13061 0.57601 0.0
C669 C 0.45493 0.12939 0.6389 0.0
C670 C 0.47587 0.14482 0.48575 0.0
C671 C 0.47602 0.13152 0.45623 0.0
C672 C 0.47928 0.15912 0.45187 0.0
C673 C 0.47863 0.17328 0.48008 0.0
C674 C 0.46428 0.17081 0.51056 0.0
C675 C 0.46379 0.1842 0.53729 0.0
C676 C 0.47754 0.20014 0.53346 0.0
C677 C 0.4918 0.20273 0.50274 0.0
C678 C 0.49235 0.18938 0.47599 0.0
C679 C 0.47686 0.13632 0.19053 0.0
C680 C 0.49109 0.1498 0.16514 0.0
C681 C 0.47419 0.13524 0.25363 0.0
C682 C 0.48581 0.14749 0.29275 0.0
C683 C 0.50005 0.16093 0.26779 0.0
C684 C 0.5027 0.16205 0.20468 0.0
C685 C 0.48296 0.14645 0.35966 0.0
C686 C 0.48287 0.15978 0.38927 0.0
C687 C 0.47968 0.13221 0.3937 0.0
C688 C 0.48057 0.11815 0.36578 0.0
C689 C 0.49497 0.12082 0.33517 0.0
C690 C 0.49569 0.10753 0.30862 0.0
C691 C 0.48211 0.09149 0.31274 0.0
C692 C 0.46781 0.0887 0.34358 0.0
C693 C 0.46702 0.10194 0.37016 0.0
H694 H 0.48269 0.08123 0.29217 0.0
H695 H 0.47714 0.21049 0.55417 0.0
H696 H 0.48806 0.64233 0.46004 0.0
H697 H 0.49345 0.646 0.34965 0.0
H698 H 0.539 0.69166 0.38363 0.0
H699 H 0.53365 0.68802 0.49401 0.0
H700 H 0.51887 0.69366 0.29037 0.0
H701 H 0.54235 0.66008 0.34829 0.0
H702 H 0.54254 0.63624 0.39643 0.0
H703 H 0.50262 0.60288 0.27966 0.0
H704 H 0.50203 0.62652 0.23135 0.0
H705 H 0.55349 0.70416 0.99295 0.0
H706 H 0.54892 0.70117 0.10345 0.0
H707 H 0.50614 0.65275 0.07633 0.0
H708 H 0.51095 0.65541 0.96602 0.0
H709 H 0.52535 0.65246 0.1673 0.0
H710 H 0.50172 0.68587 0.10931 0.0
H711 H 0.50123 0.7096 0.06158 0.0
H712 H 0.54093 0.74315 0.17876 0.0
H713 H 0.54183 0.71963 0.22661 0.0
C714 C 0.49919 0.65314 0.44377 0.0
C715 C 0.51051 0.66482 0.48527 0.0
C716 C 0.50229 0.65518 0.381 0.0
C717 C 0.51668 0.66902 0.35886 0.0
C718 C 0.52788 0.68086 0.40009 0.0
C719 C 0.52489 0.6787 0.46294 0.0
C720 C 0.51998 0.67113 0.2925 0.0
C721 C 0.52054 0.68481 0.26342 0.0
C722 C 0.52174 0.65932 0.25764 0.0
C723 C 0.52204 0.64507 0.28663 0.0
C724 C 0.53351 0.64765 0.33326 0.0
C725 C 0.53371 0.63418 0.3605 0.0
C726 C 0.52257 0.61805 0.34123 0.0
C727 C 0.51123 0.61537 0.29459 0.0
C728 C 0.51096 0.62881 0.26722 0.0
C729 C 0.54318 0.69283 0.01049 0.0
C730 C 0.53256 0.68005 0.97062 0.0
C731 C 0.5405 0.69121 0.0736 0.0
C732 C 0.52709 0.67681 0.09794 0.0
C733 C 0.51652 0.66398 0.05838 0.0
C734 C 0.5192 0.6656 0.9953 0.0
C735 C 0.52421 0.67499 0.16478 0.0
C736 C 0.52372 0.66135 0.19407 0.0
C737 C 0.52247 0.68682 0.1998 0.0
C738 C 0.52196 0.70099 0.17107 0.0
C739 C 0.51045 0.69832 0.12453 0.0
C740 C 0.51008 0.71173 0.09752 0.0
C741 C 0.52107 0.72787 0.117 0.0
C742 C 0.53244 0.73064 0.16364 0.0
C743 C 0.53288 0.71727 0.19075 0.0
H744 H 0.52076 0.73824 0.09605 0.0
H745 H 0.52276 0.60764 0.36235 0.0
H746 H 0.86539 0.52861 0.63126 0.0
H747 H 0.86688 0.53294 0.52107 0.0
H748 H 0.82001 0.48797 0.49855 0.0
H749 H 0.818 0.48375 0.60904 0.0
H750 H 0.84559 0.49157 0.41646 0.0
H751 H 0.8193 0.52132 0.48709 0.0
H752 H 0.81627 0.54106 0.55327 0.0
H753 H 0.86234 0.58086 0.48596 0.0
H754 H 0.86582 0.56128 0.42013 0.0
H755 H 0.83345 0.50583 0.10563 0.0
H756 H 0.82944 0.50022 0.21529 0.0
H757 H 0.87339 0.54703 0.25269 0.0
H758 H 0.87764 0.55266 0.14305 0.0
H759 H 0.84784 0.54168 0.32768 0.0
H760 H 0.87395 0.51158 0.25622 0.0
H761 H 0.87719 0.49147 0.19295 0.0
H762 H 0.8317 0.45186 0.26509 0.0
H763 H 0.82783 0.47178 0.32668 0.0
C764 C 0.85524 0.51971 0.60339 0.0
C765 C 0.8415 0.50587 0.62969 0.0
C766 C 0.8562 0.52217 0.54022 0.0
C767 C 0.84352 0.51081 0.502 0.0
C768 C 0.82994 0.49683 0.52752 0.0
C769 C 0.82888 0.49443 0.59081 0.0
C770 C 0.84447 0.51365 0.43529 0.0
C771 C 0.84581 0.50236 0.39671 0.0
C772 C 0.84508 0.52792 0.41028 0.0
C773 C 0.8429 0.5398 0.44903 0.0
C774 C 0.82886 0.53425 0.48671 0.0
C775 C 0.82705 0.54542 0.52414 0.0
C776 C 0.83912 0.5622 0.52391 0.0
C777 C 0.85301 0.56785 0.48612 0.0
C778 C 0.8549 0.55673 0.4487 0.0
C779 C 0.84237 0.51487 0.13701 0.0
C780 C 0.85594 0.52967 0.1154 0.0
C781 C 0.84 0.51167 0.19973 0.0
C782 C 0.85119 0.52316 0.242 0.0
C783 C 0.86459 0.53803 0.22075 0.0
C784 C 0.86698 0.54124 0.15805 0.0
C785 C 0.84905 0.51962 0.30844 0.0
C786 C 0.84751 0.53081 0.34713 0.0
C787 C 0.84824 0.50521 0.3335 0.0
C788 C 0.85047 0.49324 0.29549 0.0
C789 C 0.86449 0.49862 0.25781 0.0
C790 C 0.86644 0.48724 0.22215 0.0
C791 C 0.8546 0.4704 0.22452 0.0
C792 C 0.84079 0.46491 0.26263 0.0
C793 C 0.83869 0.47625 0.29783 0.0
H794 H 0.85618 0.46161 0.1971 0.0
H795 H 0.8377 0.57083 0.55293 0.0
H796 H 0.32344 0.83396 0.28464 0.0
H797 H 0.32599 0.83091 0.39477 0.0
H798 H 0.33128 0.87904 0.426 0.0
H799 H 0.32893 0.88225 0.31581 0.0
H800 H 0.35466 0.874 0.4886 0.0
H801 H 0.29553 0.84606 0.45619 0.0
H802 H 0.26929 0.82577 0.407 0.0
H803 H 0.27653 0.78596 0.46706 0.0
H804 H 0.30294 0.80604 0.51591 0.0
H805 H 0.3425 0.87062 0.80856 0.0
H806 H 0.34067 0.87313 0.69808 0.0
H807 H 0.32936 0.82254 0.67471 0.0
H808 H 0.33041 0.81968 0.78537 0.0
H809 H 0.30941 0.82836 0.60689 0.0
H810 H 0.36784 0.85512 0.63954 0.0
H811 H 0.39466 0.8747 0.68678 0.0
H812 H 0.38967 0.91571 0.62471 0.0
H813 H 0.3627 0.89636 0.57772 0.0
C814 C 0.32525 0.84393 0.31496 0.0
C815 C 0.32596 0.85834 0.29176 0.0
C816 C 0.32659 0.84212 0.37778 0.0
C817 C 0.32871 0.85472 0.41831 0.0
C818 C 0.32961 0.86918 0.3953 0.0
C819 C 0.32813 0.87094 0.33254 0.0
C820 C 0.33005 0.85283 0.48483 0.0
C821 C 0.34471 0.86416 0.51476 0.0
C822 C 0.31723 0.83966 0.51818 0.0
C823 C 0.3013 0.82757 0.48916 0.0
C824 C 0.29159 0.83299 0.45847 0.0
C825 C 0.27668 0.82152 0.43074 0.0
C826 C 0.27127 0.80459 0.43375 0.0
C827 C 0.28075 0.79908 0.46468 0.0
C828 C 0.29568 0.8105 0.49245 0.0
C829 C 0.33947 0.85997 0.78007 0.0
C830 C 0.33659 0.84494 0.80597 0.0
C831 C 0.33863 0.86149 0.71681 0.0
C832 C 0.33508 0.84808 0.67813 0.0
C833 C 0.33218 0.83306 0.70375 0.0
C834 C 0.33294 0.8315 0.76703 0.0
C835 C 0.33402 0.84961 0.61105 0.0
C836 C 0.31941 0.8382 0.5809 0.0
C837 C 0.34696 0.8626 0.57735 0.0
C838 C 0.36317 0.87428 0.60562 0.0
C839 C 0.37239 0.86831 0.63639 0.0
C840 C 0.38764 0.87937 0.66303 0.0
C841 C 0.39385 0.89643 0.65889 0.0
C842 C 0.38484 0.90248 0.62795 0.0
C843 C 0.36958 0.89148 0.60124 0.0
H844 H 0.40566 0.90497 0.67954 0.0
H845 H 0.25972 0.79574 0.41223 0.0
H846 H 0.51651 0.35729 0.94107 0.0
H847 H 0.51216 0.35419 0.83022 0.0
H848 H 0.46213 0.31434 0.85901 0.0
H849 H 0.46652 0.31719 0.9698 0.0
H850 H 0.47897 0.30709 0.77126 0.0
H851 H 0.46867 0.35167 0.82042 0.0
H852 H 0.47546 0.37874 0.86431 0.0
H853 H 0.51816 0.40304 0.74777 0.0
H854 H 0.51175 0.37608 0.70377 0.0
H855 H 0.44615 0.30185 0.47438 0.0
H856 H 0.45171 0.30469 0.58423 0.0
H857 H 0.49982 0.3474 0.55127 0.0
H858 H 0.49407 0.3451 0.44179 0.0
H859 H 0.48477 0.35337 0.64127 0.0
H860 H 0.49561 0.30989 0.59019 0.0
H861 H 0.49004 0.28322 0.54617 0.0
H862 H 0.44814 0.25726 0.66531 0.0
H863 H 0.45331 0.28381 0.70946 0.0
C864 C 0.50461 0.34787 0.92365 0.0
C865 C 0.49182 0.33755 0.96391 0.0
C866 C 0.50212 0.34616 0.8605 0.0
C867 C 0.48678 0.33413 0.83669 0.0
C868 C 0.47403 0.32374 0.8767 0.0
C869 C 0.47649 0.3255 0.93987 0.0
C870 C 0.48406 0.33232 0.76991 0.0
C871 C 0.48001 0.31711 0.74278 0.0
C872 C 0.48598 0.34561 0.73292 0.0
C873 C 0.48982 0.36184 0.75926 0.0
C874 C 0.47959 0.36277 0.80452 0.0
C875 C 0.48335 0.3781 0.82935 0.0
C876 C 0.49726 0.39259 0.80896 0.0
C877 C 0.50741 0.3918 0.76359 0.0
C878 C 0.50371 0.3765 0.73865 0.0
C879 C 0.45787 0.3119 0.49047 0.0
C880 C 0.46967 0.32322 0.44918 0.0
C881 C 0.46111 0.3134 0.55323 0.0
C882 C 0.47626 0.32614 0.57577 0.0
C883 C 0.48808 0.33743 0.53474 0.0
C884 C 0.48482 0.33599 0.47206 0.0
C885 C 0.47957 0.32807 0.64236 0.0
C886 C 0.48374 0.34332 0.66954 0.0
C887 C 0.47794 0.31486 0.67928 0.0
C888 C 0.47475 0.29886 0.65269 0.0
C889 C 0.48511 0.29851 0.60662 0.0
C890 C 0.48205 0.28341 0.58172 0.0
C891 C 0.46872 0.26856 0.60281 0.0
C892 C 0.45845 0.26878 0.64895 0.0
C893 C 0.46145 0.28385 0.67397 0.0
H894 H 0.46638 0.25688 0.5835 0.0
H895 H 0.50014 0.40445 0.82823 0.0
H896 H 0.1322 0.4632 0.12338 0.0
H897 H 0.13453 0.45874 0.01425 0.0
H898 H 0.16216 0.51154 0.98532 0.0
H899 H 0.1605 0.51619 0.09372 0.0
H900 H 0.13552 0.49481 0.9052 0.0
H901 H 0.18234 0.49183 0.97924 0.0
H902 H 0.19703 0.4817 0.04436 0.0
H903 H 0.16654 0.43248 0.97392 0.0
H904 H 0.15151 0.44228 0.9089 0.0
H905 H 0.16238 0.49759 0.59879 0.0
H906 H 0.16294 0.50144 0.7096 0.0
H907 H 0.13623 0.44851 0.73533 0.0
H908 H 0.13528 0.44444 0.62498 0.0
H909 H 0.16233 0.46491 0.81768 0.0
H910 H 0.11656 0.46886 0.73855 0.0
H911 H 0.10184 0.47937 0.67577 0.0
H912 H 0.12996 0.52731 0.75927 0.0
H913 H 0.14538 0.5173 0.82074 0.0
C914 C 0.13899 0.47388 0.09414 0.0
C915 C 0.14602 0.49007 0.11789 0.0
C916 C 0.14027 0.47129 0.0317 0.0
C917 C 0.14851 0.48482 0.99186 0.0
C918 C 0.15566 0.50094 0.01532 0.0
C919 C 0.15456 0.50355 0.07758 0.0
C920 C 0.14911 0.48231 0.92518 0.0
C921 C 0.14158 0.48849 0.88584 0.0
C922 C 0.1567 0.47372 0.9005 0.0
C923 C 0.16566 0.46776 0.93973 0.0
C924 C 0.17865 0.47881 0.97809 0.0
C925 C 0.18707 0.47314 0.01488 0.0
C926 C 0.18268 0.45644 0.01346 0.0
C927 C 0.1699 0.4454 0.97507 0.0
C928 C 0.16144 0.45101 0.93819 0.0
C929 C 0.15653 0.48673 0.62774 0.0
C930 C 0.14866 0.47067 0.60236 0.0
C931 C 0.15693 0.48898 0.69116 0.0
C932 C 0.14946 0.47527 0.7305 0.0
C933 C 0.14208 0.45927 0.70571 0.0
C934 C 0.14161 0.45698 0.64236 0.0
C935 C 0.14886 0.47757 0.79742 0.0
C936 C 0.15632 0.4713 0.83688 0.0
C937 C 0.14125 0.48618 0.82227 0.0
C938 C 0.13234 0.49237 0.78367 0.0
C939 C 0.11986 0.48173 0.74275 0.0
C940 C 0.11136 0.4876 0.70743 0.0
C941 C 0.115 0.50401 0.7134 0.0
C942 C 0.12716 0.51459 0.75468 0.0
C943 C 0.13586 0.50886 0.78948 0.0
H944 H 0.10838 0.50852 0.68611 0.0
H945 H 0.1892 0.45207 0.04196 0.0
H946 H 0.70688 0.14626 0.83445 0.0
H947 H 0.70502 0.14884 0.94484 0.0
H948 H 0.6623 0.15461 0.92 0.0
H949 H 0.66369 0.15154 0.80947 0.0
H950 H 0.68601 0.17707 0.00684 0.0
H951 H 0.65566 0.11853 0.96038 0.0
H952 H 0.65216 0.09269 0.91543 0.0
H953 H 0.69232 0.09689 0.02525 0.0
H954 H 0.69621 0.12291 0.07021 0.0
H955 H 0.64891 0.15576 0.30142 0.0
H956 H 0.65613 0.15905 0.19268 0.0
H957 H 0.6945 0.14715 0.229 0.0
H958 H 0.68716 0.14367 0.33786 0.0
H959 H 0.67485 0.12888 0.13668 0.0
H960 H 0.70724 0.18717 0.17781 0.0
H961 H 0.71407 0.21473 0.21692 0.0
H962 H 0.6725 0.21163 0.12022 0.0
H963 H 0.66573 0.18426 0.07899 0.0
C964 C 0.69701 0.14798 0.85216 0.0
C965 C 0.68532 0.14847 0.81266 0.0
C966 C 0.69605 0.14956 0.91537 0.0
C967 C 0.68344 0.15176 0.94049 0.0
C968 C 0.67214 0.15294 0.90136 0.0
C969 C 0.673 0.15122 0.83806 0.0
C970 C 0.68164 0.1521 0.00775 0.0
C971 C 0.68337 0.16648 0.03525 0.0
C972 C 0.67875 0.13846 0.04483 0.0
C973 C 0.67634 0.12276 0.01817 0.0
C974 C 0.66383 0.11402 0.97456 0.0
C975 C 0.66176 0.09933 0.94915 0.0
C976 C 0.67204 0.09318 0.96734 0.0
C977 C 0.68438 0.10169 0.01113 0.0
C978 C 0.68652 0.1164 0.03662 0.0
C979 C 0.6589 0.15389 0.28618 0.0
C980 C 0.66743 0.1494 0.32805 0.0
C981 C 0.66317 0.15599 0.22421 0.0
C982 C 0.67597 0.15351 0.20278 0.0
C983 C 0.68465 0.14922 0.24462 0.0
C984 C 0.68048 0.14727 0.30676 0.0
C985 C 0.67916 0.15386 0.13609 0.0
C986 C 0.6776 0.13954 0.10851 0.0
C987 C 0.68241 0.16762 0.09907 0.0
C988 C 0.68589 0.18364 0.12586 0.0
C989 C 0.6995 0.19233 0.16524 0.0
C990 C 0.70344 0.20797 0.18734 0.0
C991 C 0.69367 0.21488 0.17137 0.0
C992 C 0.68003 0.20624 0.13267 0.0
C993 C 0.67622 0.19074 0.10952 0.0
H994 H 0.69668 0.22693 0.18891 0.0
H995 H 0.67042 0.0818 0.94762 0.0
H996 H 0.47955 0.60293 0.74729 0.0
H997 H 0.45649 0.58292 0.80946 0.0
H998 H 0.4527 0.6227 0.89475 0.0
H999 H 0.47637 0.6429 0.83444 0.0
H1000 H 0.44943 0.60191 0.97744 0.0
H1001 H 0.42224 0.59559 0.78495 0.0
H1002 H 0.41862 0.59197 0.67298 0.0
H1003 H 0.41887 0.54609 0.68542 0.0
H1004 H 0.42277 0.54962 0.7973 0.0
H1005 H 0.36092 0.52291 0.02166 0.0
H1006 H 0.38028 0.54688 0.96072 0.0
H1007 H 0.42131 0.54892 0.06005 0.0
H1008 H 0.40207 0.52546 0.12238 0.0
H1009 H 0.40279 0.55167 0.88423 0.0
H1010 H 0.45342 0.58727 0.07085 0.0
H1011 H 0.45498 0.59248 0.18204 0.0
H1012 H 0.40481 0.58274 0.18147 0.0
H1013 H 0.40304 0.57773 0.07015 0.0
C1014 C 0.47376 0.60742 0.77908 0.0
C1015 C 0.47968 0.62445 0.78583 0.0
C1016 C 0.46049 0.59595 0.81431 0.0
C1017 C 0.45258 0.60126 0.8558 0.0
C1018 C 0.45854 0.61831 0.86282 0.0
C1019 C 0.47204 0.62982 0.82834 0.0
C1020 C 0.4385 0.58897 0.89325 0.0
C1021 C 0.4392 0.59094 0.95708 0.0
C1022 C 0.42488 0.57491 0.86667 0.0
C1023 C 0.42269 0.57281 0.79941 0.0
C1024 C 0.42157 0.58476 0.76371 0.0
C1025 C 0.41949 0.58274 0.70029 0.0
C1026 C 0.41849 0.56879 0.67211 0.0
C1027 C 0.41962 0.55687 0.70728 0.0
C1028 C 0.42172 0.55886 0.7707 0.0
C1029 C 0.37407 0.52855 0.03071 0.0
C1030 C 0.37997 0.52239 0.07711 0.0
C1031 C 0.38512 0.54224 0.99583 0.0
C1032 C 0.40225 0.54992 0.00653 0.0
C1033 C 0.40814 0.54354 0.05208 0.0
C1034 C 0.39712 0.53003 0.08746 0.0
C1035 C 0.41409 0.5642 0.96868 0.0
C1036 C 0.41295 0.56264 0.9047 0.0
C1037 C 0.42705 0.57885 0.99516 0.0
C1038 C 0.42806 0.58199 0.06215 0.0
C1039 C 0.44275 0.58632 0.09437 0.0
C1040 C 0.44366 0.58922 0.15745 0.0
C1041 C 0.42999 0.58789 0.18883 0.0
C1042 C 0.41538 0.5837 0.15715 0.0
C1043 C 0.41441 0.58081 0.09407 0.0
H1044 H 0.43072 0.59013 0.23767 0.0
H1045 H 0.41685 0.56723 0.62302 0.0
H1046 H 0.84754 0.36005 0.13433 0.0
H1047 H 0.84592 0.3802 0.06769 0.0
H1048 H 0.85512 0.41248 0.22235 0.0
H1049 H 0.85675 0.39235 0.28964 0.0
H1050 H 0.82945 0.40926 0.14214 0.0
H1051 H 0.88635 0.42004 0.13229 0.0
H1052 H 0.90691 0.41118 0.11448 0.0
H1053 H 0.88888 0.39669 0.93092 0.0
H1054 H 0.86807 0.40529 0.94794 0.0
H1055 H 0.85447 0.48661 0.0064 0.0
H1056 H 0.85245 0.4636 0.06661 0.0
H1057 H 0.85376 0.4391 0.90056 0.0
H1058 H 0.85642 0.46242 0.84027 0.0
H1059 H 0.87229 0.43625 0.98099 0.0
H1060 H 0.81776 0.4277 0.98175 0.0
H1061 H 0.79565 0.43459 0.99544 0.0
H1062 H 0.80596 0.44159 0.18815 0.0
H1063 H 0.82826 0.43487 0.17543 0.0
C1064 C 0.84911 0.37136 0.15437 0.0
C1065 C 0.8524 0.37466 0.21724 0.0
C1066 C 0.84819 0.38286 0.11616 0.0
C1067 C 0.85053 0.39784 0.14017 0.0
C1068 C 0.85329 0.40096 0.20313 0.0
C1069 C 0.8543 0.38949 0.24137 0.0
C1070 C 0.85084 0.41059 0.09927 0.0
C1071 C 0.83888 0.41534 0.10725 0.0
C1072 C 0.86277 0.41791 0.05229 0.0
C1073 C 0.87559 0.41319 0.04153 0.0
C1074 C 0.88673 0.4149 0.08822 0.0
C1075 C 0.89843 0.40993 0.07827 0.0
C1076 C 0.89918 0.40334 0.02165 0.0
C1077 C 0.88828 0.40177 0.97477 0.0
C1078 C 0.87655 0.40672 0.98451 0.0
C1079 C 0.85428 0.4763 0.98274 0.0
C1080 C 0.85552 0.47624 0.91865 0.0
C1081 C 0.85306 0.46312 0.01717 0.0
C1082 C 0.85264 0.44947 0.98803 0.0
C1083 C 0.85402 0.44948 0.92402 0.0
C1084 C 0.85552 0.46279 0.88963 0.0
C1085 C 0.85105 0.43532 0.02446 0.0
C1086 C 0.86275 0.43021 0.01554 0.0
C1087 C 0.8386 0.4274 0.06965 0.0
C1088 C 0.82494 0.43112 0.07749 0.0
C1089 C 0.81544 0.43087 0.02697 0.0
C1090 C 0.80283 0.4347 0.03456 0.0
C1091 C 0.79947 0.43863 0.09257 0.0
C1092 C 0.80863 0.43862 0.14318 0.0
C1093 C 0.82126 0.43481 0.13581 0.0
H1094 H 0.78971 0.4416 0.09835 0.0
H1095 H 0.90823 0.39948 0.01409 0.0
H1096 H 0.39805 0.87223 0.04358 0.0
H1097 H 0.41837 0.86931 0.10445 0.0
H1098 H 0.37922 0.8332 0.2191 0.0
H1099 H 0.35885 0.83655 0.1596 0.0
H1100 H 0.40294 0.85329 0.28753 0.0
H1101 H 0.40006 0.82218 0.11224 0.0
H1102 H 0.39994 0.81581 0.00261 0.0
H1103 H 0.45002 0.85585 0.98518 0.0
H1104 H 0.45036 0.86264 0.09451 0.0
H1105 H 0.47672 0.83641 0.34288 0.0
H1106 H 0.45238 0.83156 0.2838 0.0
H1107 H 0.45784 0.87762 0.35098 0.0
H1108 H 0.48174 0.88222 0.41165 0.0
H1109 H 0.44796 0.84685 0.19449 0.0
H1110 H 0.42138 0.87586 0.36595 0.0
H1111 H 0.41938 0.87846 0.47759 0.0
H1112 H 0.42436 0.83557 0.50646 0.0
H1113 H 0.42613 0.83255 0.395 0.0
C1114 C 0.39375 0.86358 0.08151 0.0
C1115 C 0.37687 0.85461 0.09683 0.0
C1116 C 0.40538 0.86185 0.11606 0.0
C1117 C 0.40031 0.85083 0.16576 0.0
C1118 C 0.38342 0.84175 0.18087 0.0
C1119 C 0.37179 0.84366 0.14683 0.0
C1120 C 0.41279 0.84948 0.20371 0.0
C1121 C 0.41272 0.85177 0.26721 0.0
C1122 C 0.42529 0.84702 0.17747 0.0
C1123 C 0.42518 0.843 0.11158 0.0
C1124 C 0.41101 0.82971 0.08495 0.0
C1125 C 0.41091 0.82602 0.02286 0.0
C1126 C 0.42495 0.83545 0.98692 0.0
C1127 C 0.43914 0.84857 0.01306 0.0
C1128 C 0.4393 0.85234 0.07512 0.0
C1129 C 0.47268 0.84547 0.34515 0.0
C1130 C 0.48103 0.85963 0.38226 0.0
C1131 C 0.45879 0.84269 0.31135 0.0
C1132 C 0.4531 0.85407 0.3138 0.0
C1133 C 0.46172 0.86843 0.34964 0.0
C1134 C 0.47544 0.8711 0.38405 0.0
C1135 C 0.4384 0.85122 0.2779 0.0
C1136 C 0.43806 0.84816 0.21485 0.0
C1137 C 0.42521 0.85241 0.30483 0.0
C1138 C 0.42403 0.85407 0.37204 0.0
C1139 C 0.42197 0.86693 0.39608 0.0
C1140 C 0.42089 0.86849 0.45935 0.0
C1141 C 0.42179 0.85722 0.49909 0.0
C1142 C 0.42372 0.84433 0.47564 0.0
C1143 C 0.42478 0.8427 0.41241 0.0
H1144 H 0.42096 0.85845 0.54806 0.0
H1145 H 0.42483 0.83257 0.93885 0.0
H1146 H 0.52411 0.39866 0.22122 0.0
H1147 H 0.54684 0.41851 0.28502 0.0
H1148 H 0.54815 0.37836 0.37849 0.0
H1149 H 0.52478 0.35833 0.31633 0.0
H1150 H 0.55129 0.39992 0.45786 0.0
H1151 H 0.57846 0.4035 0.27023 0.0
H1152 H 0.58215 0.40585 0.15819 0.0
H1153 H 0.58705 0.45417 0.1632 0.0
H1154 H 0.58321 0.45205 0.27519 0.0
H1155 H 0.63953 0.47866 0.51123 0.0
H1156 H 0.62097 0.45414 0.45078 0.0
H1157 H 0.57867 0.45355 0.53386 0.0
H1158 H 0.59703 0.47761 0.59547 0.0
H1159 H 0.59951 0.44924 0.3669 0.0
H1160 H 0.54626 0.41505 0.54581 0.0
H1161 H 0.54307 0.41053 0.65739 0.0
H1162 H 0.59314 0.42032 0.6708 0.0
H1163 H 0.59655 0.42459 0.55919 0.0
C1164 C 0.52929 0.39404 0.2551 0.0
C1165 C 0.52276 0.37695 0.26354 0.0
C1166 C 0.54237 0.40542 0.29136 0.0
C1167 C 0.54949 0.39997 0.33567 0.0
C1168 C 0.54293 0.38287 0.34437 0.0
C1169 C 0.52961 0.37145 0.30879 0.0
C1170 C 0.56339 0.4122 0.37411 0.0
C1171 C 0.5619 0.41064 0.43801 0.0
C1172 C 0.57751 0.42594 0.34822 0.0
C1173 C 0.58044 0.42756 0.28111 0.0
C1174 C 0.58029 0.41461 0.24742 0.0
C1175 C 0.5824 0.4159 0.18392 0.0
C1176 C 0.58477 0.43012 0.15358 0.0
C1177 C 0.5852 0.44315 0.18675 0.0
C1178 C 0.5831 0.44193 0.25028 0.0
C1179 C 0.62626 0.47322 0.51681 0.0
C1180 C 0.61974 0.48 0.55837 0.0
C1181 C 0.61568 0.45923 0.48224 0.0
C1182 C 0.59842 0.45181 0.48853 0.0
C1183 C 0.59193 0.45875 0.52937 0.0
C1184 C 0.60247 0.4726 0.5643 0.0
C1185 C 0.58708 0.43727 0.4507 0.0
C1186 C 0.58905 0.43839 0.38686 0.0
C1187 C 0.57366 0.4229 0.47675 0.0
C1188 C 0.5717 0.42028 0.54405 0.0
C1189 C 0.55657 0.41616 0.57248 0.0
C1190 C 0.55473 0.41365 0.63578 0.0
C1191 C 0.56791 0.41519 0.67118 0.0
C1192 C 0.58296 0.41919 0.64335 0.0
C1193 C 0.58486 0.42167 0.58006 0.0
H1194 H 0.56646 0.41325 0.72017 0.0
H1195 H 0.58629 0.43102 0.10436 0.0
H1196 H 0.16259 0.53091 0.44195 0.0
H1197 H 0.16648 0.55518 0.49993 0.0
H1198 H 0.11348 0.53509 0.50247 0.0
H1199 H 0.1097 0.51147 0.44202 0.0
H1200 H 0.12722 0.56592 0.47977 0.0
H1201 H 0.13745 0.53285 0.62237 0.0
H1202 H 0.15176 0.51837 0.65947 0.0
H1203 H 0.19731 0.5647 0.67342 0.0
H1204 H 0.18344 0.57943 0.63357 0.0
H1205 H 0.11158 0.59835 0.74749 0.0
H1206 H 0.11568 0.57983 0.67992 0.0
H1207 H 0.16556 0.61875 0.64239 0.0
H1208 H 0.16145 0.63765 0.70923 0.0
H1209 H 0.15799 0.58246 0.67644 0.0
H1210 H 0.14463 0.615 0.53919 0.0
H1211 H 0.12793 0.62731 0.50524 0.0
H1212 H 0.08501 0.57892 0.49048 0.0
H1213 H 0.10128 0.56629 0.52628 0.0
C1214 C 0.15183 0.53175 0.45508 0.0
C1215 C 0.13586 0.5194 0.43763 0.0
C1216 C 0.15404 0.54558 0.48818 0.0
C1217 C 0.14026 0.54692 0.50601 0.0
C1218 C 0.12432 0.53444 0.48889 0.0
C1219 C 0.12215 0.52089 0.4546 0.0
C1220 C 0.14215 0.56115 0.54291 0.0
C1221 C 0.13394 0.56947 0.52282 0.0
C1222 C 0.15118 0.56604 0.59863 0.0
C1223 C 0.15944 0.55724 0.62414 0.0
C1224 C 0.15056 0.53996 0.63275 0.0
C1225 C 0.15861 0.53169 0.65421 0.0
C1226 C 0.17543 0.5406 0.66895 0.0
C1227 C 0.18427 0.55781 0.66195 0.0
C1228 C 0.17634 0.56612 0.63961 0.0
C1229 C 0.12347 0.60298 0.72522 0.0
C1230 C 0.1362 0.61945 0.73358 0.0
C1231 C 0.12577 0.59239 0.68666 0.0
C1232 C 0.1409 0.59799 0.65644 0.0
C1233 C 0.15382 0.61427 0.66564 0.0
C1234 C 0.15142 0.62503 0.70348 0.0
C1235 C 0.14275 0.58677 0.61365 0.0
C1236 C 0.15159 0.57904 0.63275 0.0
C1237 C 0.13396 0.58208 0.55775 0.0
C1238 C 0.12417 0.5897 0.536 0.0
C1239 C 0.13159 0.60698 0.52943 0.0
C1240 C 0.12221 0.61402 0.50969 0.0
C1241 C 0.10545 0.60392 0.49559 0.0
C1242 C 0.098 0.58674 0.50139 0.0
C1243 C 0.10729 0.57963 0.52149 0.0
H1244 H 0.09824 0.60942 0.48013 0.0
H1245 H 0.18161 0.53417 0.68583 0.0
H1246 H 0.63669 0.14223 0.70192 0.0
H1247 H 0.61206 0.13959 0.75187 0.0
H1248 H 0.60948 0.17204 0.61694 0.0
H1249 H 0.63441 0.17508 0.56745 0.0
H1250 H 0.60236 0.17858 0.72877 0.0
H1251 H 0.58497 0.13007 0.60532 0.0
H1252 H 0.58609 0.10566 0.56796 0.0
H1253 H 0.57476 0.08454 0.74832 0.0
H1254 H 0.57384 0.10896 0.78702 0.0
H1255 H 0.51879 0.15545 0.79847 0.0
H1256 H 0.54347 0.15973 0.74331 0.0
H1257 H 0.55034 0.12917 0.87494 0.0
H1258 H 0.52564 0.12465 0.92985 0.0
H1259 H 0.55467 0.12186 0.75892 0.0
H1260 H 0.57328 0.17091 0.88282 0.0
H1261 H 0.57274 0.19557 0.92067 0.0
H1262 H 0.58173 0.21563 0.73866 0.0
H1263 H 0.58209 0.19095 0.69957 0.0
C1264 C 0.63093 0.14887 0.68302 0.0
C1265 C 0.63735 0.15871 0.63035 0.0
C1266 C 0.61684 0.14732 0.71153 0.0
C1267 C 0.60874 0.15533 0.6873 0.0
C1268 C 0.6155 0.16568 0.63614 0.0
C1269 C 0.62972 0.16739 0.60791 0.0
C1270 C 0.59298 0.1525 0.71441 0.0
C1271 C 0.59184 0.1662 0.73454 0.0
C1272 C 0.57934 0.13631 0.72263 0.0
C1273 C 0.57946 0.12141 0.69916 0.0
C1274 C 0.5828 0.12026 0.63708 0.0
C1275 C 0.5834 0.10642 0.61567 0.0
C1276 C 0.58053 0.09358 0.65577 0.0
C1277 C 0.57699 0.09451 0.71733 0.0
C1278 C 0.57641 0.10834 0.73901 0.0
C1279 C 0.52552 0.14959 0.81555 0.0
C1280 C 0.5203 0.13976 0.86868 0.0
C1281 C 0.53965 0.1521 0.7841 0.0
C1282 C 0.54881 0.14489 0.80544 0.0
C1283 C 0.54344 0.13484 0.85775 0.0
C1284 C 0.52934 0.13232 0.88917 0.0
C1285 C 0.56413 0.14792 0.7739 0.0
C1286 C 0.56516 0.13424 0.7528 0.0
C1287 C 0.57763 0.16412 0.76467 0.0
C1288 C 0.57754 0.17901 0.78818 0.0
C1289 C 0.57502 0.18052 0.8508 0.0
C1290 C 0.57476 0.19451 0.87248 0.0
C1291 C 0.57715 0.20714 0.83207 0.0
C1292 C 0.57985 0.20582 0.76989 0.0
C1293 C 0.5801 0.19185 0.74795 0.0
H1294 H 0.57695 0.21796 0.84894 0.0
H1295 H 0.58103 0.08289 0.63913 0.0
H1296 H 0.27252 0.46278 0.12653 0.0
H1297 H 0.2536 0.47345 0.13794 0.0
H1298 H 0.29502 0.52329 0.15146 0.0
H1299 H 0.3142 0.51259 0.14009 0.0
H1300 H 0.27368 0.51565 0.24614 0.0
H1301 H 0.26885 0.51393 0.03172 0.0
H1302 H 0.26608 0.50332 0.92643 0.0
H1303 H 0.21832 0.46194 0.97009 0.0
H1304 H 0.22091 0.47208 0.07594 0.0
H1305 H 0.19658 0.51529 0.32263 0.0
H1306 H 0.22355 0.5249 0.27229 0.0
H1307 H 0.20889 0.47433 0.22679 0.0
H1308 H 0.1824 0.46475 0.27642 0.0
H1309 H 0.22183 0.49602 0.12733 0.0
H1310 H 0.2337 0.49316 0.34742 0.0
H1311 H 0.2363 0.50283 0.45422 0.0
H1312 H 0.27057 0.5526 0.39733 0.0
H1313 H 0.26801 0.5432 0.29006 0.0
C1314 C 0.27764 0.47604 0.13087 0.0
C1315 C 0.29482 0.48684 0.13283 0.0
C1316 C 0.2668 0.48216 0.13677 0.0
C1317 C 0.27291 0.4992 0.14475 0.0
C1318 C 0.29008 0.51012 0.14476 0.0
C1319 C 0.30099 0.50399 0.13825 0.0
C1320 C 0.26116 0.50491 0.16093 0.0
C1321 C 0.26257 0.51189 0.2192 0.0
C1322 C 0.24672 0.50012 0.12568 0.0
C1323 C 0.24509 0.49382 0.06198 0.0
C1324 C 0.25779 0.50251 0.01906 0.0
C1325 C 0.25625 0.49657 0.95921 0.0
C1326 C 0.24203 0.48197 0.94158 0.0
C1327 C 0.22932 0.47327 0.98378 0.0
C1328 C 0.23081 0.47913 0.04371 0.0
C1329 C 0.19925 0.50628 0.3023 0.0
C1330 C 0.18738 0.48928 0.3033 0.0
C1331 C 0.21456 0.51178 0.27336 0.0
C1332 C 0.21805 0.50032 0.24517 0.0
C1333 C 0.20632 0.48339 0.24744 0.0
C1334 C 0.1912 0.47793 0.27625 0.0
C1335 C 0.23392 0.50533 0.21399 0.0
C1336 C 0.23328 0.5005 0.15276 0.0
C1337 C 0.249 0.51197 0.24651 0.0
C1338 C 0.25049 0.51754 0.31082 0.0
C1339 C 0.24168 0.50618 0.3577 0.0
C1340 C 0.24316 0.51161 0.41828 0.0
C1341 C 0.25354 0.52833 0.43252 0.0
C1342 C 0.2625 0.53966 0.38621 0.0
C1343 C 0.26103 0.53429 0.32555 0.0
H1344 H 0.25468 0.53251 0.47945 0.0
H1345 H 0.24085 0.47741 0.89521 0.0
H1346 H 0.80141 0.31019 0.28439 0.0
H1347 H 0.77496 0.29205 0.33404 0.0
H1348 H 0.77786 0.24933 0.2765 0.0
H1349 H 0.80469 0.26738 0.22868 0.0
H1350 H 0.74217 0.24754 0.29209 0.0
H1351 H 0.79485 0.25645 0.39587 0.0
H1352 H 0.82376 0.27611 0.4255 0.0
H1353 H 0.80826 0.3078 0.50963 0.0
H1354 H 0.77924 0.28832 0.47998 0.0
H1355 H 0.73446 0.18763 0.52946 0.0
H1356 H 0.75124 0.2145 0.48087 0.0
H1357 H 0.71016 0.22353 0.48943 0.0
H1358 H 0.69313 0.19646 0.53765 0.0
H1359 H 0.76148 0.24724 0.50404 0.0
H1360 H 0.70963 0.24025 0.35196 0.0
H1361 H 0.68128 0.21877 0.32266 0.0
H1362 H 0.69555 0.18159 0.33309 0.0
H1363 H 0.72387 0.20278 0.36194 0.0
C1364 C 0.79622 0.29693 0.28046 0.0
C1365 C 0.80538 0.2902 0.25438 0.0
C1366 C 0.781 0.2866 0.30839 0.0
C1367 C 0.7746 0.26944 0.30903 0.0
C1368 C 0.78263 0.26259 0.27599 0.0
C1369 C 0.79802 0.27292 0.24913 0.0
C1370 C 0.76244 0.25922 0.35592 0.0
C1371 C 0.74618 0.24772 0.33887 0.0
C1372 C 0.76776 0.25946 0.41667 0.0
C1373 C 0.785 0.27101 0.43575 0.0
C1374 C 0.79765 0.26763 0.42069 0.0
C1375 C 0.81402 0.27872 0.43737 0.0
C1376 C 0.81782 0.29316 0.46946 0.0
C1377 C 0.80527 0.29659 0.48477 0.0
C1378 C 0.78887 0.28553 0.4681 0.0
C1379 C 0.72907 0.19544 0.52217 0.0
C1380 C 0.7124 0.18981 0.53632 0.0
C1381 C 0.73871 0.21085 0.49476 0.0
C1382 C 0.73185 0.22087 0.48092 0.0
C1383 C 0.7156 0.21587 0.4993 0.0
C1384 C 0.70592 0.20042 0.52682 0.0
C1385 C 0.74116 0.23531 0.4404 0.0
C1386 C 0.75706 0.24757 0.45837 0.0
C1387 C 0.73544 0.23571 0.38063 0.0
C1388 C 0.71876 0.22304 0.35955 0.0
C1389 C 0.70668 0.22748 0.34761 0.0
C1390 C 0.6906 0.21534 0.3314 0.0
C1391 C 0.68653 0.19877 0.32657 0.0
C1392 C 0.6986 0.19434 0.33731 0.0
C1393 C 0.71468 0.20641 0.35348 0.0
H1394 H 0.67409 0.18941 0.31397 0.0
H1395 H 0.83049 0.30164 0.48252 0.0
H1396 H 0.48497 0.80091 0.45598 0.0
H1397 H 0.47176 0.77224 0.49338 0.0
H1398 H 0.5199 0.77752 0.52321 0.0
H1399 H 0.53315 0.80584 0.48514 0.0
H1400 H 0.48948 0.74429 0.46479 0.0
H1401 H 0.50868 0.77777 0.69033 0.0
H1402 H 0.50866 0.80099 0.74465 0.0
H1403 H 0.46314 0.78986 0.65581 0.0
H1404 H 0.46271 0.76632 0.60209 0.0
H1405 H 0.53395 0.72902 0.67311 0.0
H1406 H 0.52064 0.74312 0.62668 0.0
H1407 H 0.47262 0.7026 0.67657 0.0
H1408 H 0.48587 0.68806 0.72268 0.0
H1409 H 0.48623 0.74438 0.69158 0.0
H1410 H 0.46957 0.69754 0.55763 0.0
H1411 H 0.47366 0.67652 0.50416 0.0
H1412 H 0.51571 0.71492 0.40952 0.0
H1413 H 0.51212 0.7362 0.46344 0.0
C1414 C 0.49271 0.79581 0.46925 0.0
C1415 C 0.51011 0.80567 0.46836 0.0
C1416 C 0.48514 0.77949 0.49078 0.0
C1417 C 0.49491 0.77298 0.51173 0.0
C1418 C 0.5122 0.78244 0.50728 0.0
C1419 C 0.51975 0.79863 0.48569 0.0
C1420 C 0.48777 0.75703 0.54414 0.0
C1421 C 0.48799 0.74385 0.51414 0.0
C1422 C 0.48581 0.75658 0.60841 0.0
C1423 C 0.48575 0.77041 0.6418 0.0
C1424 C 0.49863 0.78023 0.68267 0.0
C1425 C 0.4987 0.79345 0.71333 0.0
C1426 C 0.48595 0.79696 0.70344 0.0
C1427 C 0.47305 0.78718 0.66322 0.0
C1428 C 0.47288 0.7739 0.63268 0.0
C1429 C 0.52058 0.72316 0.67523 0.0
C1430 C 0.51095 0.70736 0.70101 0.0
C1431 C 0.51301 0.73123 0.64864 0.0
C1432 C 0.49571 0.72373 0.64769 0.0
C1433 C 0.486 0.70846 0.67674 0.0
C1434 C 0.4936 0.70025 0.70316 0.0
C1435 C 0.48834 0.73185 0.61229 0.0
C1436 C 0.4861 0.74391 0.64193 0.0
C1437 C 0.48832 0.73118 0.54761 0.0
C1438 C 0.49057 0.71847 0.51475 0.0
C1439 C 0.47978 0.70151 0.52585 0.0
C1440 C 0.482 0.68955 0.49541 0.0
C1441 C 0.49491 0.6944 0.45338 0.0
C1442 C 0.50569 0.7112 0.44198 0.0
C1443 C 0.50355 0.72322 0.47244 0.0
H1444 H 0.49651 0.68513 0.42944 0.0
H1445 H 0.48605 0.80723 0.72699 0.0
H1446 H 0.80077 0.48688 0.84888 0.0
H1447 H 0.77258 0.47736 0.81265 0.0
H1448 H 0.77395 0.52012 0.89493 0.0
H1449 H 0.80224 0.52991 0.93008 0.0
H1450 H 0.74181 0.48989 0.89843 0.0
H1451 H 0.78733 0.52532 0.75876 0.0
H1452 H 0.81223 0.53181 0.69834 0.0
H1453 H 0.78515 0.4855 0.60292 0.0
H1454 H 0.7601 0.47866 0.6634 0.0
H1455 H 0.71414 0.53524 0.74444 0.0
H1456 H 0.73044 0.52397 0.78777 0.0
H1457 H 0.70752 0.48244 0.66375 0.0
H1458 H 0.69068 0.49358 0.62019 0.0
H1459 H 0.74464 0.5006 0.67479 0.0
H1460 H 0.69631 0.47172 0.79478 0.0
H1461 H 0.67226 0.46738 0.85607 0.0
H1462 H 0.70475 0.50236 0.98966 0.0
H1463 H 0.72903 0.50718 0.92868 0.0
C1464 C 0.79487 0.49397 0.86098 0.0
C1465 C 0.80374 0.50928 0.89147 0.0
C1466 C 0.77878 0.4885 0.84022 0.0
C1467 C 0.77133 0.49814 0.85074 0.0
C1468 C 0.77954 0.51252 0.88655 0.0
C1469 C 0.79571 0.51815 0.90633 0.0
C1470 C 0.7564 0.49502 0.8166 0.0
C1471 C 0.74224 0.49197 0.84943 0.0
C1472 C 0.75695 0.49734 0.75242 0.0
C1473 C 0.77193 0.5014 0.71601 0.0
C1474 C 0.78673 0.51647 0.72523 0.0
C1475 C 0.80085 0.52022 0.69096 0.0
C1476 C 0.80027 0.50906 0.64692 0.0
C1477 C 0.78557 0.49411 0.63712 0.0
C1478 C 0.77141 0.49029 0.67137 0.0
C1479 C 0.71255 0.52374 0.72595 0.0
C1480 C 0.70115 0.5153 0.67878 0.0
C1481 C 0.72179 0.51726 0.75115 0.0
C1482 C 0.71996 0.50229 0.72945 0.0
C1483 C 0.70893 0.49395 0.68129 0.0
C1484 C 0.69941 0.50034 0.65647 0.0
C1485 C 0.73024 0.49606 0.75702 0.0
C1486 C 0.7437 0.49758 0.72314 0.0
C1487 C 0.72907 0.49242 0.82031 0.0
C1488 C 0.71452 0.4898 0.85703 0.0
C1489 C 0.69834 0.47861 0.83695 0.0
C1490 C 0.68467 0.47604 0.87169 0.0
C1491 C 0.68699 0.48454 0.92682 0.0
C1492 C 0.70299 0.49574 0.94706 0.0
C1493 C 0.71672 0.49837 0.91245 0.0
H1494 H 0.6764 0.48238 0.95398 0.0
H1495 H 0.81119 0.51206 0.62018 0.0
H1496 H 0.26896 0.80752 0.08905 0.0
H1497 H 0.24984 0.77811 0.07371 0.0
H1498 H 0.29087 0.77021 0.03688 0.0
H1499 H 0.3102 0.79985 0.05187 0.0
H1500 H 0.26927 0.75942 0.94516 0.0
H1501 H 0.26503 0.74985 0.1573 0.0
H1502 H 0.26262 0.75443 0.26708 0.0
H1503 H 0.21486 0.74945 0.23564 0.0
H1504 H 0.21706 0.74509 0.12566 0.0
H1505 H 0.19429 0.6848 0.84719 0.0
H1506 H 0.22066 0.70122 0.90206 0.0
H1507 H 0.20345 0.7334 0.9707 0.0
H1508 H 0.17743 0.71734 0.91665 0.0
H1509 H 0.21776 0.72364 0.0611 0.0
H1510 H 0.2286 0.74443 0.84827 0.0
H1511 H 0.23098 0.74094 0.7374 0.0
H1512 H 0.26642 0.72528 0.77253 0.0
H1513 H 0.26409 0.72852 0.88373 0.0
C1514 C 0.27396 0.79948 0.07912 0.0
C1515 C 0.29104 0.806 0.07089 0.0
C1516 C 0.26302 0.78261 0.071 0.0
C1517 C 0.26893 0.77192 0.05461 0.0
C1518 C 0.28607 0.77824 0.0499 0.0
C1519 C 0.29708 0.79516 0.05844 0.0
C1520 C 0.25701 0.75505 0.03264 0.0
C1521 C 0.25825 0.75126 0.97129 0.0
C1522 C 0.24264 0.7444 0.06663 0.0
C1523 C 0.24123 0.74711 0.13297 0.0
C1524 C 0.25405 0.74982 0.17368 0.0
C1525 C 0.25271 0.75236 0.23603 0.0
C1526 C 0.23858 0.7522 0.25837 0.0
C1527 C 0.22577 0.74951 0.21838 0.0
C1528 C 0.22705 0.74696 0.156 0.0
C1529 C 0.19622 0.69544 0.87376 0.0
C1530 C 0.18382 0.69982 0.87748 0.0
C1531 C 0.21121 0.70471 0.90527 0.0
C1532 C 0.21388 0.71838 0.94088 0.0
C1533 C 0.20153 0.72275 0.94416 0.0
C1534 C 0.1867 0.71362 0.91271 0.0
C1535 C 0.22968 0.72894 0.97305 0.0
C1536 C 0.22914 0.73141 0.0362 0.0
C1537 C 0.24465 0.73845 0.94081 0.0
C1538 C 0.24599 0.73647 0.87416 0.0
C1539 C 0.23678 0.7401 0.83231 0.0
C1540 C 0.23815 0.7382 0.76946 0.0
C1541 C 0.2488 0.73283 0.74795 0.0
C1542 C 0.25814 0.72939 0.78927 0.0
C1543 C 0.2568 0.73125 0.85218 0.0
H1544 H 0.24984 0.73137 0.69927 0.0
H1545 H 0.23756 0.75417 0.30665 0.0
H1546 H 0.51103 0.31108 0.17723 0.0
H1547 H 0.51991 0.29279 0.1313 0.0
H1548 H 0.47111 0.25082 0.16099 0.0
H1549 H 0.46221 0.26892 0.20697 0.0
H1550 H 0.49487 0.24241 0.17535 0.0
H1551 H 0.47973 0.27254 0.03102 0.0
H1552 H 0.48283 0.29802 0.98413 0.0
H1553 H 0.53294 0.31304 0.93396 0.0
H1554 H 0.53021 0.28775 0.98154 0.0
H1555 H 0.46779 0.19488 0.89071 0.0
H1556 H 0.47691 0.22165 0.93982 0.0
H1557 H 0.51867 0.22028 0.01843 0.0
H1558 H 0.50981 0.19364 0.96836 0.0
H1559 H 0.50588 0.25365 0.95302 0.0
H1560 H 0.51452 0.2259 0.1752 0.0
H1561 H 0.50599 0.19866 0.2222 0.0
H1562 H 0.46189 0.17628 0.1122 0.0
H1563 H 0.46999 0.20338 0.06557 0.0
C1564 C 0.50236 0.29788 0.17567 0.0
C1565 C 0.48585 0.29141 0.19486 0.0
C1566 C 0.50744 0.28748 0.14925 0.0
C1567 C 0.49609 0.27052 0.14202 0.0
C1568 C 0.48006 0.26388 0.16611 0.0
C1569 C 0.47496 0.27425 0.1921 0.0
C1570 C 0.49988 0.25993 0.10274 0.0
C1571 C 0.49774 0.24507 0.12709 0.0
C1572 C 0.50326 0.26327 0.03947 0.0
C1573 C 0.50484 0.27838 0.01048 0.0
C1574 C 0.49145 0.28135 0.0104 0.0
C1575 C 0.49313 0.29574 0.98367 0.0
C1576 C 0.50808 0.30716 0.95621 0.0
C1577 C 0.52138 0.3042 0.95538 0.0
C1578 C 0.51978 0.28985 0.98224 0.0
C1579 C 0.47924 0.20058 0.91662 0.0
C1580 C 0.48798 0.19213 0.92641 0.0
C1581 C 0.48449 0.2159 0.94436 0.0
C1582 C 0.49834 0.22279 0.98317 0.0
C1583 C 0.50794 0.2151 0.98861 0.0
C1584 C 0.50286 0.1999 0.95994 0.0
C1585 C 0.50075 0.23613 0.02571 0.0
C1586 C 0.5039 0.2514 0.00186 0.0
C1587 C 0.49781 0.23299 0.08919 0.0
C1588 C 0.49301 0.2166 0.11624 0.0
C1589 C 0.50303 0.21514 0.16101 0.0
C1590 C 0.49825 0.19974 0.18767 0.0
C1591 C 0.48342 0.18576 0.17009 0.0
C1592 C 0.47339 0.18711 0.12563 0.0
C1593 C 0.47808 0.20248 0.09904 0.0
H1594 H 0.4796 0.1739 0.19125 0.0
H1595 H 0.50936 0.31827 0.93535 0.0
H1596 H 0.3956 0.46052 0.15977 0.0
H1597 H 0.40923 0.44395 0.16292 0.0
H1598 H 0.36157 0.39918 0.16784 0.0
H1599 H 0.34782 0.41573 0.1649 0.0
H1600 H 0.38296 0.3976 0.2468 0.0
H1601 H 0.38331 0.41128 0.03596 0.0
H1602 H 0.38824 0.42962 0.94753 0.0
H1603 H 0.44037 0.45598 0.98695 0.0
H1604 H 0.43572 0.43795 0.07621 0.0
H1605 H 0.41679 0.34562 0.17727 0.0
H1606 H 0.4006 0.35968 0.16995 0.0
H1607 H 0.4457 0.40708 0.17303 0.0
H1608 H 0.46196 0.39311 0.17913 0.0
H1609 H 0.42386 0.40557 0.08573 0.0
H1610 H 0.42288 0.39242 0.30013 0.0
H1611 H 0.41762 0.37383 0.38806 0.0
H1612 H 0.36609 0.34587 0.33989 0.0
H1613 H 0.3711 0.36417 0.25111 0.0
C1614 C 0.38803 0.44715 0.16142 0.0
C1615 C 0.37066 0.43941 0.16172 0.0
C1616 C 0.39582 0.4377 0.16318 0.0
C1617 C 0.3864 0.42033 0.16456 0.0
C1618 C 0.36905 0.41257 0.16663 0.0
C1619 C 0.36123 0.42203 0.16515 0.0
C1620 C 0.39472 0.41035 0.16327 0.0
C1621 C 0.3917 0.39913 0.21107 0.0
C1622 C 0.40628 0.41253 0.117 0.0
C1623 C 0.40914 0.42334 0.0631 0.0
C1624 C 0.39581 0.42106 0.02605 0.0
C1625 C 0.39856 0.43139 0.97573 0.0
C1626 C 0.4146 0.44398 0.96171 0.0
C1627 C 0.42794 0.44623 0.9979 0.0
C1628 C 0.42526 0.43595 0.04833 0.0
C1629 C 0.42325 0.35903 0.17564 0.0
C1630 C 0.44064 0.36829 0.17888 0.0
C1631 C 0.41399 0.36703 0.17198 0.0
C1632 C 0.42197 0.38441 0.17155 0.0
C1633 C 0.43932 0.39366 0.17347 0.0
C1634 C 0.44858 0.38567 0.17737 0.0
C1635 C 0.41229 0.39303 0.16972 0.0
C1636 C 0.41503 0.40396 0.12122 0.0
C1637 C 0.40043 0.39052 0.21514 0.0
C1638 C 0.3974 0.37955 0.2686 0.0
C1639 C 0.41045 0.38222 0.30798 0.0
C1640 C 0.40751 0.37176 0.35803 0.0
C1641 C 0.39154 0.35865 0.36945 0.0
C1642 C 0.37846 0.35601 0.33093 0.0
C1643 C 0.38134 0.36643 0.28076 0.0
H1644 H 0.38928 0.35056 0.40823 0.0
H1645 H 0.4167 0.45196 0.92273 0.0
H1646 H 0.92933 0.34563 0.31157 0.0
H1647 H 0.95917 0.35992 0.33071 0.0
H1648 H 0.95866 0.40509 0.36978 0.0
H1649 H 0.92886 0.39089 0.34981 0.0
H1650 H 0.98279 0.41095 0.29391 0.0
H1651 H 0.9633 0.38191 0.48399 0.0
H1652 H 0.94751 0.35763 0.55066 0.0
H1653 H 0.97437 0.33506 0.47844 0.0
H1654 H 0.99017 0.35912 0.41067 0.0
H1655 H 0.06374 0.45715 0.41193 0.0
H1656 H 0.03347 0.44109 0.40944 0.0
H1657 H 0.03548 0.39842 0.34424 0.0
H1658 H 0.06584 0.41439 0.34722 0.0
H1659 H 0.01082 0.39108 0.43536 0.0
H1660 H 0.02965 0.42007 0.24361 0.0
H1661 H 0.04559 0.44465 0.17844 0.0
H1662 H 0.01972 0.46758 0.25658 0.0
H1663 H 0.00379 0.44322 0.32294 0.0
C1664 C 0.93556 0.35855 0.32506 0.0
C1665 C 0.92682 0.36718 0.32921 0.0
C1666 C 0.95259 0.36669 0.33607 0.0
C1667 C 0.96111 0.38353 0.35227 0.0
C1668 C 0.95233 0.3921 0.35726 0.0
C1669 C 0.93534 0.384 0.34575 0.0
C1670 C 0.97931 0.39247 0.36082 0.0
C1671 C 0.98887 0.40673 0.32561 0.0
C1672 C 0.98727 0.38672 0.401 0.0
C1673 C 0.97781 0.37225 0.44181 0.0
C1674 C 0.96575 0.37171 0.48195 0.0
C1675 C 0.95681 0.358 0.52002 0.0
C1676 C 0.9599 0.3448 0.51868 0.0
C1677 C 0.97197 0.34529 0.47938 0.0
C1678 C 0.98094 0.35897 0.44117 0.0
C1679 C 0.05773 0.44427 0.39799 0.0
C1680 C 0.0671 0.43702 0.37941 0.0
C1681 C 0.04047 0.43516 0.39633 0.0
C1682 C 0.03232 0.41865 0.37618 0.0
C1683 C 0.0416 0.41117 0.35983 0.0
C1684 C 0.05889 0.42032 0.36106 0.0
C1685 C 0.01414 0.40955 0.36891 0.0
C1686 C 0.00464 0.39527 0.40402 0.0
C1687 C 0.00618 0.41529 0.32886 0.0
C1688 C 0.01565 0.4299 0.28868 0.0
C1689 C 0.02746 0.43041 0.24726 0.0
C1690 C 0.03647 0.44429 0.21005 0.0
C1691 C 0.0337 0.45769 0.21348 0.0
C1692 C 0.02187 0.45721 0.25403 0.0
C1693 C 0.01284 0.44336 0.29143 0.0
H1694 H 0.04069 0.46842 0.18463 0.0
H1695 H 0.95297 0.33419 0.54819 0.0
H1696 H 0.60644 0.06739 0.55173 0.0
H1697 H 0.59091 0.03731 0.53743 0.0
H1698 H 0.6357 0.03528 0.5664 0.0
H1699 H 0.65129 0.06538 0.57926 0.0
H1700 H 0.62019 0.01798 0.46974 0.0
H1701 H 0.60432 0.02166 0.67562 0.0
H1702 H 0.59334 0.0315 0.75823 0.0
H1703 H 0.54659 0.01098 0.66509 0.0
H1704 H 0.55736 0.0012 0.58147 0.0
H1705 H 0.58367 0.93099 0.50671 0.0
H1706 H 0.59812 0.9609 0.52526 0.0
H1707 H 0.5541 0.96233 0.4746 0.0
H1708 H 0.53948 0.93235 0.45686 0.0
H1709 H 0.56865 0.97973 0.58138 0.0
H1710 H 0.58493 0.97585 0.37601 0.0
H1711 H 0.59619 0.96591 0.29475 0.0
H1712 H 0.64269 0.98673 0.38983 0.0
H1713 H 0.63162 0.9966 0.47216 0.0
C1714 C 0.61289 0.06046 0.55582 0.0
C1715 C 0.63004 0.06864 0.56643 0.0
C1716 C 0.60402 0.0433 0.54773 0.0
C1717 C 0.61213 0.03403 0.5513 0.0
C1718 C 0.62921 0.04219 0.56322 0.0
C1719 C 0.63809 0.05935 0.57057 0.0
C1720 C 0.60301 0.01593 0.53997 0.0
C1721 C 0.60906 0.00959 0.49484 0.0
C1722 C 0.58824 0.00506 0.57158 0.0
C1723 C 0.5817 0.01083 0.62199 0.0
C1724 C 0.59173 0.01935 0.67253 0.0
C1725 C 0.58554 0.0249 0.71957 0.0
C1726 C 0.56929 0.02191 0.71683 0.0
C1727 C 0.55918 0.01331 0.66711 0.0
C1728 C 0.56532 0.00774 0.61991 0.0
C1729 C 0.57706 0.93768 0.49979 0.0
C1730 C 0.56047 0.92938 0.48029 0.0
C1731 C 0.58535 0.95474 0.51001 0.0
C1732 C 0.57718 0.96378 0.5009 0.0
C1733 C 0.5606 0.95553 0.48176 0.0
C1734 C 0.55233 0.93848 0.47119 0.0
C1735 C 0.58596 0.98185 0.51169 0.0
C1736 C 0.57981 0.98816 0.5565 0.0
C1737 C 0.60069 0.9927 0.48011 0.0
C1738 C 0.60739 0.98682 0.43054 0.0
C1739 C 0.59751 0.97819 0.37986 0.0
C1740 C 0.60387 0.97259 0.33355 0.0
C1741 C 0.62013 0.97565 0.3372 0.0
C1742 C 0.63008 0.98435 0.38711 0.0
C1743 C 0.62378 0.98997 0.43357 0.0
H1744 H 0.62503 0.97131 0.3013 0.0
H1745 H 0.56452 0.02622 0.75328 0.0
H1746 H 0.65246 0.58735 0.63144 0.0
H1747 H 0.63926 0.60434 0.63689 0.0
H1748 H 0.59121 0.56042 0.61899 0.0
H1749 H 0.60438 0.54339 0.61278 0.0
H1750 H 0.59285 0.58535 0.55241 0.0
H1751 H 0.60629 0.57797 0.75876 0.0
H1752 H 0.62473 0.5791 0.84196 0.0
H1753 H 0.65461 0.63182 0.81989 0.0
H1754 H 0.63647 0.63097 0.73591 0.0
H1755 H 0.54085 0.61206 0.68452 0.0
H1756 H 0.55667 0.59814 0.66328 0.0
H1757 H 0.60212 0.64521 0.66795 0.0
H1758 H 0.58636 0.65923 0.68985 0.0
H1759 H 0.60336 0.62061 0.73623 0.0
H1760 H 0.588 0.62791 0.53467 0.0
H1761 H 0.56872 0.62633 0.45413 0.0
H1762 H 0.54161 0.57328 0.46929 0.0
H1763 H 0.56057 0.57456 0.55068 0.0
C1764 C 0.63908 0.58133 0.62873 0.0
C1765 C 0.62941 0.56404 0.62237 0.0
C1766 C 0.63157 0.59104 0.63171 0.0
C1767 C 0.61425 0.5836 0.62928 0.0
C1768 C 0.6046 0.5664 0.62096 0.0
C1769 C 0.61212 0.55669 0.61746 0.0
C1770 C 0.60613 0.59364 0.63776 0.0
C1771 C 0.59503 0.59295 0.59281 0.0
C1772 C 0.60928 0.60383 0.68989 0.0
C1773 C 0.62013 0.60438 0.74063 0.0
C1774 C 0.61687 0.58979 0.77135 0.0
C1775 C 0.62725 0.59038 0.81868 0.0
C1776 C 0.64086 0.60551 0.83608 0.0
C1777 C 0.64408 0.6201 0.80629 0.0
C1778 C 0.63375 0.61957 0.75885 0.0
C1779 C 0.55422 0.61942 0.68127 0.0
C1780 C 0.5624 0.63671 0.68878 0.0
C1781 C 0.56321 0.61149 0.66866 0.0
C1782 C 0.58052 0.6207 0.66347 0.0
C1783 C 0.58875 0.63794 0.6715 0.0
C1784 C 0.57975 0.64591 0.68366 0.0
C1785 C 0.58999 0.61218 0.65122 0.0
C1786 C 0.60131 0.61314 0.69552 0.0
C1787 C 0.58697 0.60218 0.59871 0.0
C1788 C 0.57564 0.60134 0.54919 0.0
C1789 C 0.57786 0.61591 0.52118 0.0
C1790 C 0.56699 0.61507 0.47531 0.0
C1791 C 0.55393 0.59972 0.4567 0.0
C1792 C 0.55173 0.58517 0.48379 0.0
C1793 C 0.56255 0.58594 0.52976 0.0
H1794 H 0.54552 0.5991 0.42121 0.0
H1795 H 0.64888 0.60595 0.87275 0.0
H1796 H 0.06458 0.65447 0.79329 0.0
H1797 H 0.03438 0.64127 0.78789 0.0
H1798 H 0.03107 0.59437 0.74717 0.0
H1799 H 0.06127 0.60757 0.75162 0.0
H1800 H 0.00932 0.59832 0.68006 0.0
H1801 H 0.02531 0.60427 0.89276 0.0
H1802 H 0.04048 0.61965 0.98501 0.0
H1803 H 0.01757 0.64971 0.97383 0.0
H1804 H 0.00242 0.63464 0.88096 0.0
H1805 H 0.92921 0.5402 0.78813 0.0
H1806 H 0.9589 0.55764 0.76872 0.0
H1807 H 0.95514 0.6014 0.79922 0.0
H1808 H 0.92545 0.58399 0.81956 0.0
H1809 H 0.98015 0.60142 0.86527 0.0
H1810 H 0.96157 0.59266 0.65772 0.0
H1811 H 0.94612 0.57632 0.56751 0.0
H1812 H 0.97349 0.55049 0.57087 0.0
H1813 H 0.98894 0.56651 0.6617 0.0
C1814 C 0.05739 0.64135 0.78306 0.0
C1815 C 0.06522 0.63198 0.7735 0.0
C1816 C 0.04017 0.63384 0.77988 0.0
C1817 C 0.03048 0.61679 0.76807 0.0
C1818 C 0.03832 0.60755 0.75632 0.0
C1819 C 0.05555 0.61508 0.75892 0.0
C1820 C 0.01218 0.60837 0.771 0.0
C1821 C 0.00292 0.5989 0.72066 0.0
C1822 C 0.00387 0.60945 0.82352 0.0
C1823 C 0.01288 0.61845 0.87955 0.0
C1824 C 0.0236 0.61424 0.90973 0.0
C1825 C 0.03218 0.62289 0.96215 0.0
C1826 C 0.03003 0.63568 0.98516 0.0
C1827 C 0.01925 0.63982 0.95589 0.0
C1828 C 0.01066 0.63122 0.90337 0.0
C1829 C 0.93472 0.55354 0.79041 0.0
C1830 C 0.92506 0.56075 0.80541 0.0
C1831 C 0.95162 0.56348 0.7788 0.0
C1832 C 0.95915 0.5808 0.78203 0.0
C1833 C 0.94951 0.58806 0.7962 0.0
C1834 C 0.93257 0.57811 0.80745 0.0
C1835 C 0.97728 0.59121 0.77464 0.0
C1836 C 0.98652 0.60103 0.82428 0.0
C1837 C 0.98554 0.59033 0.7217 0.0
C1838 C 0.97633 0.58071 0.66685 0.0
C1839 C 0.96421 0.58341 0.63953 0.0
C1840 C 0.95546 0.57421 0.58822 0.0
C1841 C 0.9588 0.56235 0.56355 0.0
C1842 C 0.97091 0.55968 0.59005 0.0
C1843 C 0.97968 0.56883 0.64141 0.0
H1844 H 0.95201 0.55524 0.52382 0.0
H1845 H 0.03668 0.64237 0.02576 0.0
H1846 H 0.43255 0.06296 0.85808 0.0
H1847 H 0.41623 0.03296 0.87215 0.0
H1848 H 0.41993 0.0396 0.06818 0.0
H1849 H 0.4366 0.06966 0.05441 0.0
H1850 H 0.42728 0.01613 0.03045 0.0
H1851 H 0.38406 0.0289 0.99734 0.0
H1852 H 0.36946 0.04107 0.9432 0.0
H1853 H 0.36383 0.01127 0.78512 0.0
H1854 H 0.37861 0.99908 0.83802 0.0
H1855 H 0.36995 0.93336 0.10788 0.0
H1856 H 0.38345 0.96342 0.09659 0.0
H1857 H 0.37886 0.95796 0.90018 0.0
H1858 H 0.36518 0.92777 0.91128 0.0
H1859 H 0.37152 0.98094 0.93978 0.0
H1860 H 0.41545 0.96891 0.97066 0.0
H1861 H 0.43025 0.95677 0.02364 0.0
H1862 H 0.43491 0.98536 0.18436 0.0
H1863 H 0.41991 0.99749 0.1326 0.0
C1864 C 0.42993 0.05802 0.90417 0.0
C1865 C 0.4359 0.06863 0.95519 0.0
C1866 C 0.42048 0.04091 0.91213 0.0
C1867 C 0.41678 0.0341 0.9712 0.0
C1868 C 0.42262 0.04465 0.02223 0.0
C1869 C 0.43204 0.06179 0.01431 0.0
C1870 C 0.40737 0.01592 0.97959 0.0
C1871 C 0.41497 0.00845 0.01151 0.0
C1872 C 0.39152 0.00592 0.95335 0.0
C1873 C 0.38259 0.01319 0.92147 0.0
C1874 C 0.37983 0.02504 0.95085 0.0
C1875 C 0.3715 0.03193 0.92042 0.0
C1876 C 0.36576 0.02698 0.8607 0.0
C1877 C 0.3683 0.01511 0.83135 0.0
C1878 C 0.37664 0.00819 0.86156 0.0
C1879 C 0.3719 0.93858 0.06227 0.0
C1880 C 0.36672 0.92827 0.01037 0.0
C1881 C 0.37958 0.95573 0.0559 0.0
C1882 C 0.38239 0.96291 0.99751 0.0
C1883 C 0.37682 0.95264 0.94564 0.0
C1884 C 0.36903 0.93544 0.95201 0.0
C1885 C 0.39144 0.98116 0.99066 0.0
C1886 C 0.3838 0.98863 0.95893 0.0
C1887 C 0.4073 0.99118 0.01686 0.0
C1888 C 0.41642 0.98399 0.04795 0.0
C1889 C 0.41952 0.97251 0.01746 0.0
C1890 C 0.42796 0.96565 0.04724 0.0
C1891 C 0.43348 0.97026 0.10738 0.0
C1892 C 0.43061 0.98178 0.1378 0.0
C1893 C 0.42215 0.98867 0.10825 0.0
H1894 H 0.44002 0.96493 0.13036 0.0
H1895 H 0.35931 0.03232 0.83722 0.0
loop_
_geom_bond_atom_site_label_1
_geom_bond_atom_site_label_2
_geom_bond_distance
_geom_bond_site_symmetry_2
_ccdc_geom_bond_type
C0 C1 1.351 . S
C0 N3 1.368 . S
C0 H5 0.931 1_556 S
C1 C0 1.351 . S
C1 N2 1.373 . S
C1 H29 0.930 . S
N2 C1 1.373 . S
N2 C4 1.340 . S
N3 C0 1.368 . S
N3 C4 1.321 . S
N3 Co6 2.135 1_556 S
C4 N2 1.340 . S
C4 N3 1.321 . S
C4 H28 0.930 . S
H5 C0 0.931 1_554 S
Co6 N3 2.135 1_554 S
Co6 N9 2.121 . S
Co6 O14 2.055 . S
Co6 O17 2.039 . S
Co6 N20 2.140 . S
C7 O8 1.227 . S
C7 O17 1.265 . S
O8 C7 1.227 . S
N9 Co6 2.121 . S
N9 C11 1.375 . S
N9 C12 1.313 . S
C10 C11 1.338 . S
C10 N13 1.377 . S
C10 H30 0.930 . S
C11 N9 1.375 . S
C11 C10 1.338 . S
C11 H15 0.931 . S
C12 N9 1.313 . S
C12 N13 1.344 . S
C12 H16 0.930 . S
N13 C10 1.377 . S
N13 C12 1.344 . S
O14 Co6 2.055 . S
O14 C18 1.253 . S
H15 C11 0.931 . S
H16 C12 0.930 . S
O17 Co6 2.039 . S
O17 C7 1.265 . S
C18 O14 1.253 . S
C18 O19 1.227 . S
O19 C18 1.227 . S
N20 Co6 2.140 . S
N20 C23 1.346 . S
N20 C24 1.345 . S
C21 C22 1.387 . S
C21 C25 1.391 . S
C22 C21 1.387 . S
C22 C23 1.369 . S
C22 H31 0.929 . S
C23 N20 1.346 . S
C23 C22 1.369 . S
C23 H26 0.928 . S
C24 N20 1.345 . S
C24 C25 1.371 . S
C24 H27 0.931 . S
C25 C21 1.391 . S
C25 C24 1.371 . S
C25 H32 0.930 . S
H26 C23 0.928 . S
H27 C24 0.931 . S
H28 C4 0.930 . S
H29 C1 0.930 . S
H30 C10 0.930 . S
H31 C22 0.929 . S
H32 C25 0.930 . S
C33 C34 1.351 . S
C33 N36 1.368 . S
C33 H38 0.931 . S
C34 C33 1.351 . S
C34 N35 1.373 . S
C34 H62 0.930 . S
N35 C34 1.373 . S
N35 C37 1.340 . S
N36 C33 1.368 . S
N36 C37 1.321 . S
N36 Co39 2.135 . S
C37 N35 1.340 . S
C37 N36 1.321 . S
C37 H61 0.930 . S
H38 C33 0.931 . S
Co39 N36 2.135 . S
Co39 N42 2.121 . S
Co39 O47 2.055 . S
Co39 O50 2.039 . S
Co39 N53 2.140 . S
C40 O41 1.227 . S
C40 O50 1.265 . S
O41 C40 1.227 . S
N42 Co39 2.121 . S
N42 C44 1.375 . S
N42 C45 1.313 . S
C43 C44 1.338 . S
C43 N46 1.377 . S
C43 H63 0.930 . S
C44 N42 1.375 . S
C44 C43 1.338 . S
C44 H48 0.931 . S
C45 N42 1.313 . S
C45 N46 1.344 . S
C45 H49 0.930 . S
N46 C43 1.377 . S
N46 C45 1.344 . S
O47 Co39 2.055 . S
O47 C51 1.253 . S
H48 C44 0.931 . S
H49 C45 0.930 . S
O50 Co39 2.039 . S
O50 C40 1.265 . S
C51 O47 1.253 . S
C51 O52 1.227 . S
O52 C51 1.227 . S
N53 Co39 2.140 . S
N53 C56 1.346 . S
N53 C57 1.345 . S
C54 C55 1.387 . S
C54 C58 1.391 . S
C55 C54 1.387 . S
C55 C56 1.369 . S
C55 H64 0.929 . S
C56 N53 1.346 . S
C56 C55 1.369 . S
C56 H59 0.928 . S
C57 N53 1.345 . S
C57 C58 1.371 . S
C57 H60 0.931 . S
C58 C54 1.391 . S
C58 C57 1.371 . S
C58 H65 0.930 . S
H59 C56 0.928 . S
H60 C57 0.931 . S
H61 C37 0.930 . S
H62 C34 0.930 . S
H63 C43 0.930 . S
H64 C55 0.929 . S
H65 C58 0.930 . S
C66 C67 1.351 . S
C66 N69 1.368 . S
C66 H71 0.931 . S
C67 C66 1.351 . S
C67 N68 1.373 . S
C67 H95 0.930 . S
N68 C67 1.373 . S
N68 C70 1.340 . S
N69 C66 1.368 . S
N69 C70 1.321 . S
N69 Co72 2.135 . S
C70 N68 1.340 . S
C70 N69 1.321 . S
C70 H94 0.930 . S
H71 C66 0.931 . S
Co72 N69 2.135 . S
Co72 N75 2.121 . S
Co72 O80 2.055 . S
Co72 O83 2.039 . S
Co72 N86 2.140 . S
C73 O74 1.227 . S
C73 O83 1.265 . S
O74 C73 1.227 . S
N75 Co72 2.121 . S
N75 C77 1.375 . S
N75 C78 1.313 . S
C76 C77 1.338 . S
C76 N79 1.377 . S
C76 H96 0.930 . S
C77 N75 1.375 . S
C77 C76 1.338 . S
C77 H81 0.931 . S
C78 N75 1.313 . S
C78 N79 1.344 . S
C78 H82 0.930 . S
N79 C76 1.377 . S
N79 C78 1.344 . S
O80 Co72 2.055 . S
O80 C84 1.253 . S
H81 C77 0.931 . S
H82 C78 0.930 . S
O83 Co72 2.039 . S
O83 C73 1.265 . S
C84 O80 1.253 . S
C84 O85 1.227 . S
O85 C84 1.227 . S
N86 Co72 2.140 . S
N86 C89 1.346 . S
N86 C90 1.345 . S
C87 C88 1.387 . S
C87 C91 1.391 . S
C88 C87 1.387 . S
C88 C89 1.369 . S
C88 H97 0.929 . S
C89 N86 1.346 . S
C89 C88 1.369 . S
C89 H92 0.928 . S
C90 N86 1.345 . S
C90 C91 1.371 . S
C90 H93 0.931 . S
C91 C87 1.391 . S
C91 C90 1.371 . S
C91 H98 0.930 . S
H92 C89 0.928 . S
H93 C90 0.931 . S
H94 C70 0.930 . S
H95 C67 0.930 . S
H96 C76 0.930 . S
H97 C88 0.929 . S
H98 C91 0.930 . S
C99 C100 1.351 . S
C99 N102 1.368 . S
C99 H104 0.931 . S
C100 C99 1.351 . S
C100 N101 1.373 . S
C100 H128 0.930 . S
N101 C100 1.373 . S
N101 C103 1.340 . S
N102 C99 1.368 . S
N102 C103 1.321 . S
N102 Co105 2.135 . S
C103 N101 1.340 . S
C103 N102 1.321 . S
C103 H127 0.930 . S
H104 C99 0.931 . S
Co105 N102 2.135 . S
Co105 N108 2.121 . S
Co105 O113 2.055 . S
Co105 O116 2.039 . S
Co105 N119 2.140 . S
C106 O107 1.227 . S
C106 O116 1.265 . S
O107 C106 1.227 . S
N108 Co105 2.121 . S
N108 C110 1.375 . S
N108 C111 1.313 . S
C109 C110 1.338 . S
C109 N112 1.377 . S
C109 H129 0.930 . S
C110 N108 1.375 . S
C110 C109 1.338 . S
C110 H114 0.931 . S
C111 N108 1.313 . S
C111 N112 1.344 . S
C111 H115 0.930 . S
N112 C109 1.377 . S
N112 C111 1.344 . S
O113 Co105 2.055 . S
O113 C117 1.253 . S
H114 C110 0.931 . S
H115 C111 0.930 . S
O116 Co105 2.039 . S
O116 C106 1.265 . S
C117 O113 1.253 . S
C117 O118 1.227 . S
O118 C117 1.227 . S
N119 Co105 2.140 . S
N119 C122 1.346 . S
N119 C123 1.345 . S
C120 C121 1.387 . S
C120 C124 1.391 . S
C121 C120 1.387 . S
C121 C122 1.369 . S
C121 H130 0.929 . S
C122 N119 1.346 . S
C122 C121 1.369 . S
C122 H125 0.928 . S
C123 N119 1.345 . S
C123 C124 1.371 . S
C123 H126 0.931 . S
C124 C120 1.391 . S
C124 C123 1.371 . S
C124 H131 0.930 . S
H125 C122 0.928 . S
H126 C123 0.931 . S
H127 C103 0.930 . S
H128 C100 0.930 . S
H129 C109 0.930 . S
H130 C121 0.929 . S
H131 C124 0.930 . S
C132 C133 1.351 . S
C132 N135 1.368 . S
C132 H137 0.931 . S
C133 C132 1.351 . S
C133 N134 1.373 . S
C133 H161 0.930 . S
N134 C133 1.373 . S
N134 C136 1.340 . S
N135 C132 1.368 . S
N135 C136 1.321 . S
N135 Co138 2.135 . S
C136 N134 1.340 . S
C136 N135 1.321 . S
C136 H160 0.930 . S
H137 C132 0.931 . S
Co138 N135 2.135 . S
Co138 N141 2.121 . S
Co138 O146 2.055 . S
Co138 O149 2.039 . S
Co138 N152 2.140 . S
C139 O140 1.227 . S
C139 O149 1.265 . S
O140 C139 1.227 . S
N141 Co138 2.121 . S
N141 C143 1.375 . S
N141 C144 1.313 . S
C142 C143 1.338 . S
C142 N145 1.377 . S
C142 H162 0.930 . S
C143 N141 1.375 . S
C143 C142 1.338 . S
C143 H147 0.931 . S
C144 N141 1.313 . S
C144 N145 1.344 . S
C144 H148 0.930 . S
N145 C142 1.377 . S
N145 C144 1.344 . S
O146 Co138 2.055 . S
O146 C150 1.253 . S
H147 C143 0.931 . S
H148 C144 0.930 . S
O149 Co138 2.039 . S
O149 C139 1.265 . S
C150 O146 1.253 . S
C150 O151 1.227 . S
O151 C150 1.227 . S
N152 Co138 2.140 . S
N152 C155 1.346 . S
N152 C156 1.345 . S
C153 C154 1.387 . S
C153 C157 1.391 . S
C154 C153 1.387 . S
C154 C155 1.369 . S
C154 H163 0.929 . S
C155 N152 1.346 . S
C155 C154 1.369 . S
C155 H158 0.928 . S
C156 N152 1.345 . S
C156 C157 1.371 . S
C156 H159 0.931 . S
C157 C153 1.391 . S
C157 C156 1.371 . S
C157 H164 0.930 . S
H158 C155 0.928 . S
H159 C156 0.931 . S
H160 C136 0.930 . S
H161 C133 0.930 . S
H162 C142 0.930 . S
H163 C154 0.929 . S
H164 C157 0.930 . S
C165 C166 1.351 . S
C165 N168 1.368 . S
C165 H170 0.931 . S
C166 C165 1.351 . S
C166 N167 1.373 . S
C166 H194 0.930 . S
N167 C166 1.373 . S
N167 C169 1.340 . S
N168 C165 1.368 . S
N168 C169 1.321 . S
N168 Co171 2.135 . S
C169 N167 1.340 . S
C169 N168 1.321 . S
C169 H193 0.930 . S
H170 C165 0.931 . S
Co171 N168 2.135 . S
Co171 N174 2.121 1_556 S
Co171 O179 2.055 . S
Co171 O182 2.039 . S
Co171 N185 2.140 . S
C172 O173 1.227 . S
C172 O182 1.265 . S
O173 C172 1.227 . S
N174 Co171 2.121 1_554 S
N174 C176 1.375 . S
N174 C177 1.313 . S
C175 C176 1.338 . S
C175 N178 1.377 . S
C175 H195 0.930 . S
C176 N174 1.375 . S
C176 C175 1.338 . S
C176 H180 0.931 . S
C177 N174 1.313 . S
C177 N178 1.344 . S
C177 H181 0.930 . S
N178 C175 1.377 . S
N178 C177 1.344 . S
O179 Co171 2.055 . S
O179 C183 1.253 . S
H180 C176 0.931 . S
H181 C177 0.930 . S
O182 Co171 2.039 . S
O182 C172 1.265 . S
C183 O179 1.253 . S
C183 O184 1.227 . S
O184 C183 1.227 . S
N185 Co171 2.140 . S
N185 C188 1.346 . S
N185 C189 1.345 . S
C186 C187 1.387 . S
C186 C190 1.391 . S
C187 C186 1.387 . S
C187 C188 1.369 . S
C187 H196 0.929 . S
C188 N185 1.346 . S
C188 C187 1.369 . S
C188 H191 0.928 . S
C189 N185 1.345 . S
C189 C190 1.371 . S
C189 H192 0.931 1_556 S
C190 C186 1.391 . S
C190 C189 1.371 . S
C190 H197 0.930 1_556 S
H191 C188 0.928 . S
H192 C189 0.931 1_554 S
H193 C169 0.930 . S
H194 C166 0.930 . S
H195 C175 0.930 . S
H196 C187 0.929 . S
H197 C190 0.930 1_554 S
C198 C199 1.351 . S
C198 N201 1.368 . S
C198 H203 0.931 . S
C199 C198 1.351 . S
C199 N200 1.373 . S
C199 H227 0.930 . S
N200 C199 1.373 . S
N200 C202 1.340 . S
N201 C198 1.368 . S
N201 C202 1.321 . S
N201 Co204 2.135 . S
C202 N200 1.340 . S
C202 N201 1.321 . S
C202 H226 0.930 . S
H203 C198 0.931 . S
Co204 N201 2.135 . S
Co204 N207 2.121 . S
Co204 O212 2.055 . S
Co204 O215 2.039 . S
Co204 N218 2.140 . S
C205 O206 1.227 . S
C205 O215 1.265 . S
O206 C205 1.227 . S
N207 Co204 2.121 . S
N207 C209 1.375 . S
N207 C210 1.313 . S
C208 C209 1.338 . S
C208 N211 1.377 . S
C208 H228 0.930 . S
C209 N207 1.375 . S
C209 C208 1.338 . S
C209 H213 0.931 . S
C210 N207 1.313 . S
C210 N211 1.344 . S
C210 H214 0.930 . S
N211 C208 1.377 . S
N211 C210 1.344 . S
O212 Co204 2.055 . S
O212 C216 1.253 . S
H213 C209 0.931 . S
H214 C210 0.930 . S
O215 Co204 2.039 . S
O215 C205 1.265 . S
C216 O212 1.253 . S
C216 O217 1.227 . S
O217 C216 1.227 . S
N218 Co204 2.140 . S
N218 C221 1.346 . S
N218 C222 1.345 . S
C219 C220 1.387 . S
C219 C223 1.391 . S
C220 C219 1.387 . S
C220 C221 1.369 . S
C220 H229 0.929 . S
C221 N218 1.346 . S
C221 C220 1.369 . S
C221 H224 0.928 . S
C222 N218 1.345 . S
C222 C223 1.371 . S
C222 H225 0.931 . S
C223 C219 1.391 . S
C223 C222 1.371 . S
C223 H230 0.930 . S
H224 C221 0.928 . S
H225 C222 0.931 . S
H226 C202 0.930 . S
H227 C199 0.930 . S
H228 C208 0.930 . S
H229 C220 0.929 . S
H230 C223 0.930 . S
C231 C232 1.351 . S
C231 N234 1.368 . S
C231 H236 0.931 1_554 S
C232 C231 1.351 . S
C232 N233 1.373 . S
C232 H260 0.930 . S
N233 C232 1.373 . S
N233 C235 1.340 . S
N234 C231 1.368 . S
N234 C235 1.321 . S
N234 Co237 2.135 1_554 S
C235 N233 1.340 . S
C235 N234 1.321 . S
C235 H259 0.930 . S
H236 C231 0.931 1_556 S
Co237 N234 2.135 1_556 S
Co237 N240 2.121 . S
Co237 O245 2.055 . S
Co237 O248 2.039 . S
Co237 N251 2.140 . S
C238 O239 1.227 . S
C238 O248 1.265 . S
O239 C238 1.227 . S
N240 Co237 2.121 . S
N240 C242 1.375 . S
N240 C243 1.313 . S
C241 C242 1.338 . S
C241 N244 1.377 . S
C241 H261 0.930 . S
C242 N240 1.375 . S
C242 C241 1.338 . S
C242 H246 0.931 . S
C243 N240 1.313 . S
C243 N244 1.344 . S
C243 H247 0.930 . S
N244 C241 1.377 . S
N244 C243 1.344 . S
O245 Co237 2.055 . S
O245 C249 1.253 . S
H246 C242 0.931 . S
H247 C243 0.930 . S
O248 Co237 2.039 . S
O248 C238 1.265 . S
C249 O245 1.253 . S
C249 O250 1.227 . S
O250 C249 1.227 . S
N251 Co237 2.140 . S
N251 C254 1.346 . S
N251 C255 1.345 . S
C252 C253 1.387 . S
C252 C256 1.391 . S
C253 C252 1.387 . S
C253 C254 1.369 . S
C253 H262 0.929 . S
C254 N251 1.346 . S
C254 C253 1.369 . S
C254 H257 0.928 . S
C255 N251 1.345 . S
C255 C256 1.371 . S
C255 H258 0.931 . S
C256 C252 1.391 . S
C256 C255 1.371 . S
C256 H263 0.930 . S
H257 C254 0.928 . S
H258 C255 0.931 . S
H259 C235 0.930 . S
H260 C232 0.930 . S
H261 C241 0.930 . S
H262 C253 0.929 . S
H263 C256 0.930 . S
C264 C265 1.351 . S
C264 N267 1.368 . S
C264 H269 0.931 . S
C265 C264 1.351 . S
C265 N266 1.373 . S
C265 H293 0.930 . S
N266 C265 1.373 . S
N266 C268 1.340 . S
N267 C264 1.368 . S
N267 C268 1.321 . S
N267 Co270 2.135 . S
C268 N266 1.340 . S
C268 N267 1.321 . S
C268 H292 0.930 . S
H269 C264 0.931 . S
Co270 N267 2.135 . S
Co270 N273 2.121 1_554 S
Co270 O278 2.055 . S
Co270 O281 2.039 . S
Co270 N284 2.140 . S
C271 O272 1.227 . S
C271 O281 1.265 . S
O272 C271 1.227 . S
N273 Co270 2.121 1_556 S
N273 C275 1.375 . S
N273 C276 1.313 . S
C274 C275 1.338 . S
C274 N277 1.377 . S
C274 H294 0.930 . S
C275 N273 1.375 . S
C275 C274 1.338 . S
C275 H279 0.931 . S
C276 N273 1.313 . S
C276 N277 1.344 . S
C276 H280 0.930 . S
N277 C274 1.377 . S
N277 C276 1.344 . S
O278 Co270 2.055 . S
O278 C282 1.253 . S
H279 C275 0.931 . S
H280 C276 0.930 . S
O281 Co270 2.039 . S
O281 C271 1.265 . S
C282 O278 1.253 . S
C282 O283 1.227 . S
O283 C282 1.227 . S
N284 Co270 2.140 . S
N284 C287 1.346 . S
N284 C288 1.345 . S
C285 C286 1.387 . S
C285 C289 1.391 . S
C286 C285 1.387 . S
C286 C287 1.369 . S
C286 H295 0.929 . S
C287 N284 1.346 . S
C287 C286 1.369 . S
C287 H290 0.928 . S
C288 N284 1.345 . S
C288 C289 1.371 . S
C288 H291 0.931 1_554 S
C289 C285 1.391 . S
C289 C288 1.371 . S
C289 H296 0.930 1_554 S
H290 C287 0.928 . S
H291 C288 0.931 1_556 S
H292 C268 0.930 . S
H293 C265 0.930 . S
H294 C274 0.930 . S
H295 C286 0.929 . S
H296 C289 0.930 1_556 S
C297 C298 1.351 . S
C297 N300 1.368 . S
C297 H302 0.931 . S
C298 C297 1.351 . S
C298 N299 1.373 . S
C298 H326 0.930 . S
N299 C298 1.373 . S
N299 C301 1.340 . S
N300 C297 1.368 . S
N300 C301 1.321 . S
N300 Co303 2.135 . S
C301 N299 1.340 . S
C301 N300 1.321 . S
C301 H325 0.930 . S
H302 C297 0.931 . S
Co303 N300 2.135 . S
Co303 N306 2.121 . S
Co303 O311 2.055 . S
Co303 O314 2.039 . S
Co303 N317 2.140 . S
C304 O305 1.227 . S
C304 O314 1.265 . S
O305 C304 1.227 . S
N306 Co303 2.121 . S
N306 C308 1.375 . S
N306 C309 1.313 . S
C307 C308 1.338 . S
C307 N310 1.377 . S
C307 H327 0.930 . S
C308 N306 1.375 . S
C308 C307 1.338 . S
C308 H312 0.931 . S
C309 N306 1.313 . S
C309 N310 1.344 . S
C309 H313 0.930 . S
N310 C307 1.377 . S
N310 C309 1.344 . S
O311 Co303 2.055 . S
O311 C315 1.253 . S
H312 C308 0.931 . S
H313 C309 0.930 . S
O314 Co303 2.039 . S
O314 C304 1.265 . S
C315 O311 1.253 . S
C315 O316 1.227 . S
O316 C315 1.227 . S
N317 Co303 2.140 . S
N317 C320 1.346 . S
N317 C321 1.345 . S
C318 C319 1.387 . S
C318 C322 1.391 . S
C319 C318 1.387 . S
C319 C320 1.369 . S
C319 H328 0.929 . S
C320 N317 1.346 . S
C320 C319 1.369 . S
C320 H323 0.928 . S
C321 N317 1.345 . S
C321 C322 1.371 . S
C321 H324 0.931 . S
C322 C318 1.391 . S
C322 C321 1.371 . S
C322 H329 0.930 . S
H323 C320 0.928 . S
H324 C321 0.931 . S
H325 C301 0.930 . S
H326 C298 0.930 . S
H327 C307 0.930 . S
H328 C319 0.929 . S
H329 C322 0.930 . S
C330 C331 1.351 . S
C330 N333 1.368 . S
C330 H335 0.931 . S
C331 C330 1.351 . S
C331 N332 1.373 . S
C331 H359 0.930 . S
N332 C331 1.373 . S
N332 C334 1.340 . S
N333 C330 1.368 . S
N333 C334 1.321 . S
N333 Co336 2.135 . S
C334 N332 1.340 . S
C334 N333 1.321 . S
C334 H358 0.930 . S
H335 C330 0.931 . S
Co336 N333 2.135 . S
Co336 N339 2.121 . S
Co336 O344 2.055 . S
Co336 O347 2.039 . S
Co336 N350 2.140 . S
C337 O338 1.227 . S
C337 O347 1.265 . S
O338 C337 1.227 . S
N339 Co336 2.121 . S
N339 C341 1.375 . S
N339 C342 1.313 . S
C340 C341 1.338 . S
C340 N343 1.377 . S
C340 H360 0.930 . S
C341 N339 1.375 . S
C341 C340 1.338 . S
C341 H345 0.931 . S
C342 N339 1.313 . S
C342 N343 1.344 . S
C342 H346 0.930 . S
N343 C340 1.377 . S
N343 C342 1.344 . S
O344 Co336 2.055 . S
O344 C348 1.253 . S
H345 C341 0.931 . S
H346 C342 0.930 . S
O347 Co336 2.039 . S
O347 C337 1.265 . S
C348 O344 1.253 . S
C348 O349 1.227 . S
O349 C348 1.227 . S
N350 Co336 2.140 . S
N350 C353 1.346 . S
N350 C354 1.345 . S
C351 C352 1.387 . S
C351 C355 1.391 . S
C352 C351 1.387 . S
C352 C353 1.369 . S
C352 H361 0.929 . S
C353 N350 1.346 . S
C353 C352 1.369 . S
C353 H356 0.928 . S
C354 N350 1.345 . S
C354 C355 1.371 . S
C354 H357 0.931 . S
C355 C351 1.391 . S
C355 C354 1.371 . S
C355 H362 0.930 . S
H356 C353 0.928 . S
H357 C354 0.931 . S
H358 C334 0.930 . S
H359 C331 0.930 . S
H360 C340 0.930 . S
H361 C352 0.929 . S
H362 C355 0.930 . S
C363 C364 1.351 . S
C363 N366 1.368 . S
C363 H368 0.931 . S
C364 C363 1.351 . S
C364 N365 1.373 . S
C364 H392 0.930 . S
N365 C364 1.373 . S
N365 C367 1.340 . S
N366 C363 1.368 . S
N366 C367 1.321 . S
N366 Co369 2.135 . S
C367 N365 1.340 . S
C367 N366 1.321 . S
C367 H391 0.930 . S
H368 C363 0.931 . S
Co369 N366 2.135 . S
Co369 N372 2.121 . S
Co369 O377 2.055 . S
Co369 O380 2.039 . S
Co369 N383 2.140 . S
C370 O371 1.227 . S
C370 O380 1.265 . S
O371 C370 1.227 . S
N372 Co369 2.121 . S
N372 C374 1.375 . S
N372 C375 1.313 . S
C373 C374 1.338 . S
C373 N376 1.377 . S
C373 H393 0.930 . S
C374 N372 1.375 . S
C374 C373 1.338 . S
C374 H378 0.931 . S
C375 N372 1.313 . S
C375 N376 1.344 . S
C375 H379 0.930 . S
N376 C373 1.377 . S
N376 C375 1.344 . S
O377 Co369 2.055 . S
O377 C381 1.253 . S
H378 C374 0.931 . S
H379 C375 0.930 . S
O380 Co369 2.039 . S
O380 C370 1.265 . S
C381 O377 1.253 . S
C381 O382 1.227 . S
O382 C381 1.227 . S
N383 Co369 2.140 . S
N383 C386 1.346 . S
N383 C387 1.345 . S
C384 C385 1.387 . S
C384 C388 1.391 . S
C385 C384 1.387 . S
C385 C386 1.369 . S
C385 H394 0.929 . S
C386 N383 1.346 . S
C386 C385 1.369 . S
C386 H389 0.928 . S
C387 N383 1.345 . S
C387 C388 1.371 . S
C387 H390 0.931 . S
C388 C384 1.391 . S
C388 C387 1.371 . S
C388 H395 0.930 . S
H389 C386 0.928 . S
H390 C387 0.931 . S
H391 C367 0.930 . S
H392 C364 0.930 . S
H393 C373 0.930 . S
H394 C385 0.929 . S
H395 C388 0.930 . S
H396 C414 0.951 . S
H397 C416 0.951 . S
H398 C418 0.950 . S
H399 C419 0.950 . S
H400 C421 0.950 . S
H401 C424 0.950 . S
H402 C425 0.950 . S
H403 C427 0.950 . S
H404 C428 0.950 . S
H405 C429 0.951 . S
H406 C431 0.951 . S
H407 C433 0.950 . S
H408 C434 0.950 . S
H409 C436 0.950 . S
H410 C439 0.950 . S
H411 C440 0.950 . S
H412 C442 0.950 . S
H413 C443 0.950 . S
C414 H396 0.951 . S
C414 C415 1.366 . S
C414 C416 1.388 . S
C415 C414 1.366 . S
C415 C419 1.385 . S
C416 H397 0.951 . S
C416 C414 1.388 . S
C416 C417 1.366 . S
C417 C416 1.366 . S
C417 C418 1.414 . S
C417 C420 1.499 . S
C418 H398 0.950 . S
C418 C417 1.414 . S
C418 C419 1.374 . S
C419 H399 0.950 . S
C419 C415 1.385 . S
C419 C418 1.374 . S
C420 C417 1.499 . S
C420 C421 1.373 . S
C420 C422 1.389 . S
C421 H400 0.950 . S
C421 C420 1.373 . S
C421 C437 1.377 . S
C422 C420 1.389 . S
C422 C423 1.524 . S
C422 C436 1.377 . S
C423 C422 1.524 . S
C423 C424 1.397 . S
C423 C428 1.363 . S
C424 H401 0.950 . S
C424 C423 1.397 . S
C424 C425 1.334 . S
C425 H402 0.950 . S
C425 C424 1.334 . S
C425 C426 1.287 . S
C426 C425 1.287 . S
C426 C427 1.524 . S
C426 H445 0.913 . S
C427 H403 0.950 . S
C427 C426 1.524 . S
C427 C428 1.415 . S
C428 H404 0.950 . S
C428 C423 1.363 . S
C428 C427 1.415 . S
C429 H405 0.951 . S
C429 C430 1.366 . S
C429 C431 1.388 . S
C430 C429 1.366 . S
C430 C434 1.385 . S
C431 H406 0.951 . S
C431 C429 1.388 . S
C431 C432 1.366 . S
C432 C431 1.366 . S
C432 C433 1.414 . S
C432 C435 1.499 . S
C433 H407 0.950 . S
C433 C432 1.414 . S
C433 C434 1.374 . S
C434 H408 0.950 . S
C434 C430 1.385 . S
C434 C433 1.374 . S
C435 C432 1.499 . S
C435 C436 1.373 . S
C435 C437 1.389 . S
C436 H409 0.950 . S
C436 C422 1.377 . S
C436 C435 1.373 . S
C437 C421 1.377 . S
C437 C435 1.389 . S
C437 C438 1.524 . S
C438 C437 1.524 . S
C438 C439 1.397 . S
C438 C443 1.363 . S
C439 H410 0.950 . S
C439 C438 1.397 . S
C439 C440 1.334 . S
C440 H411 0.950 . S
C440 C439 1.334 . S
C440 C441 1.287 . S
C441 C440 1.287 . S
C441 C442 1.524 . S
C441 H444 0.999 . S
C442 H412 0.950 . S
C442 C441 1.524 . S
C442 C443 1.415 . S
C443 H413 0.950 . S
C443 C438 1.363 . S
C443 C442 1.415 . S
H444 C441 0.999 . S
H445 C426 0.913 . S
H446 C464 0.951 . S
H447 C466 0.951 . S
H448 C468 0.950 . S
H449 C469 0.950 1_554 S
H450 C471 0.950 . S
H451 C474 0.950 . S
H452 C475 0.950 . S
H453 C477 0.950 . S
H454 C478 0.950 . S
H455 C479 0.951 . S
H456 C481 0.951 . S
H457 C483 0.950 . S
H458 C484 0.950 . S
H459 C486 0.950 . S
H460 C489 0.950 . S
H461 C490 0.950 . S
H462 C492 0.950 . S
H463 C493 0.950 . S
C464 H446 0.951 . S
C464 C465 1.366 1_556 S
C464 C466 1.388 . S
C465 C464 1.366 1_554 S
C465 C469 1.385 1_554 S
C466 H447 0.951 . S
C466 C464 1.388 . S
C466 C467 1.366 . S
C467 C466 1.366 . S
C467 C468 1.414 . S
C467 C470 1.499 . S
C468 H448 0.950 . S
C468 C467 1.414 . S
C468 C469 1.374 . S
C469 H449 0.950 1_556 S
C469 C465 1.385 1_556 S
C469 C468 1.374 . S
C470 C467 1.499 . S
C470 C471 1.373 . S
C470 C472 1.389 . S
C471 H450 0.950 . S
C471 C470 1.373 . S
C471 C487 1.377 . S
C472 C470 1.389 . S
C472 C473 1.524 . S
C472 C486 1.377 . S
C473 C472 1.524 . S
C473 C474 1.397 . S
C473 C478 1.363 . S
C474 H451 0.950 . S
C474 C473 1.397 . S
C474 C475 1.334 . S
C475 H452 0.950 . S
C475 C474 1.334 . S
C475 C476 1.287 . S
C476 C475 1.287 . S
C476 C477 1.524 . S
C476 H495 0.913 . S
C477 H453 0.950 . S
C477 C476 1.524 . S
C477 C478 1.415 . S
C478 H454 0.950 . S
C478 C473 1.363 . S
C478 C477 1.415 . S
C479 H455 0.951 . S
C479 C480 1.366 . S
C479 C481 1.388 . S
C480 C479 1.366 . S
C480 C484 1.385 . S
C481 H456 0.951 . S
C481 C479 1.388 . S
C481 C482 1.366 . S
C482 C481 1.366 . S
C482 C483 1.414 . S
C482 C485 1.499 . S
C483 H457 0.950 . S
C483 C482 1.414 . S
C483 C484 1.374 . S
C484 H458 0.950 . S
C484 C480 1.385 . S
C484 C483 1.374 . S
C485 C482 1.499 . S
C485 C486 1.373 . S
C485 C487 1.389 . S
C486 H459 0.950 . S
C486 C472 1.377 . S
C486 C485 1.373 . S
C487 C471 1.377 . S
C487 C485 1.389 . S
C487 C488 1.524 . S
C488 C487 1.524 . S
C488 C489 1.397 . S
C488 C493 1.363 . S
C489 H460 0.950 . S
C489 C488 1.397 . S
C489 C490 1.334 . S
C490 H461 0.950 . S
C490 C489 1.334 . S
C490 C491 1.287 . S
C491 C490 1.287 . S
C491 C492 1.524 . S
C491 H494 0.999 . S
C492 H462 0.950 . S
C492 C491 1.524 . S
C492 C493 1.415 . S
C493 H463 0.950 . S
C493 C488 1.363 . S
C493 C492 1.415 . S
H494 C491 0.999 . S
H495 C476 0.913 . S
H496 C514 0.951 . S
H497 C516 0.951 . S
H498 C518 0.950 . S
H499 C519 0.950 . S
H500 C521 0.950 . S
H501 C524 0.950 . S
H502 C525 0.950 . S
H503 C527 0.950 . S
H504 C528 0.950 . S
H505 C529 0.951 . S
H506 C531 0.951 . S
H507 C533 0.950 . S
H508 C534 0.950 . S
H509 C536 0.950 . S
H510 C539 0.950 . S
H511 C540 0.950 . S
H512 C542 0.950 . S
H513 C543 0.950 . S
C514 H496 0.951 . S
C514 C515 1.366 . S
C514 C516 1.388 . S
C515 C514 1.366 . S
C515 C519 1.385 . S
C516 H497 0.951 . S
C516 C514 1.388 . S
C516 C517 1.366 . S
C517 C516 1.366 . S
C517 C518 1.414 . S
C517 C520 1.499 1_554 S
C518 H498 0.950 . S
C518 C517 1.414 . S
C518 C519 1.374 . S
C519 H499 0.950 . S
C519 C515 1.385 . S
C519 C518 1.374 . S
C520 C517 1.499 1_556 S
C520 C521 1.373 . S
C520 C522 1.389 . S
C521 H500 0.950 . S
C521 C520 1.373 . S
C521 C537 1.377 . S
C522 C520 1.389 . S
C522 C523 1.524 . S
C522 C536 1.377 . S
C523 C522 1.524 . S
C523 C524 1.397 1_556 S
C523 C528 1.363 . S
C524 H501 0.950 . S
C524 C523 1.397 1_554 S
C524 C525 1.334 . S
C525 H502 0.950 . S
C525 C524 1.334 . S
C525 C526 1.287 . S
C526 C525 1.287 . S
C526 C527 1.524 1_554 S
C526 H545 0.913 . S
C527 H503 0.950 . S
C527 C526 1.524 1_556 S
C527 C528 1.415 . S
C528 H504 0.950 . S
C528 C523 1.363 . S
C528 C527 1.415 . S
C529 H505 0.951 . S
C529 C530 1.366 . S
C529 C531 1.388 . S
C530 C529 1.366 . S
C530 C534 1.385 . S
C531 H506 0.951 . S
C531 C529 1.388 . S
C531 C532 1.366 . S
C532 C531 1.366 . S
C532 C533 1.414 . S
C532 C535 1.499 . S
C533 H507 0.950 . S
C533 C532 1.414 . S
C533 C534 1.374 . S
C534 H508 0.950 . S
C534 C530 1.385 . S
C534 C533 1.374 . S
C535 C532 1.499 . S
C535 C536 1.373 . S
C535 C537 1.389 . S
C536 H509 0.950 . S
C536 C522 1.377 . S
C536 C535 1.373 . S
C537 C521 1.377 . S
C537 C535 1.389 . S
C537 C538 1.524 . S
C538 C537 1.524 . S
C538 C539 1.397 . S
C538 C543 1.363 . S
C539 H510 0.950 . S
C539 C538 1.397 . S
C539 C540 1.334 . S
C540 H511 0.950 . S
C540 C539 1.334 . S
C540 C541 1.287 . S
C541 C540 1.287 . S
C541 C542 1.524 . S
C541 H544 0.999 . S
C542 H512 0.950 . S
C542 C541 1.524 . S
C542 C543 1.415 . S
C543 H513 0.950 . S
C543 C538 1.363 . S
C543 C542 1.415 . S
H544 C541 0.999 . S
H545 C526 0.913 . S
H546 C564 0.951 . S
H547 C566 0.951 . S
H548 C568 0.950 . S
H549 C569 0.950 . S
H550 C571 0.950 . S
H551 C574 0.950 1_556 S
H552 C575 0.950 . S
H553 C577 0.950 . S
H554 C578 0.950 . S
H555 C579 0.951 . S
H556 C581 0.951 . S
H557 C583 0.950 . S
H558 C584 0.950 . S
H559 C586 0.950 . S
H560 C589 0.950 . S
H561 C590 0.950 . S
H562 C592 0.950 . S
H563 C593 0.950 . S
C564 H546 0.951 . S
C564 C565 1.366 . S
C564 C566 1.388 . S
C565 C564 1.366 . S
C565 C569 1.385 . S
C566 H547 0.951 . S
C566 C564 1.388 . S
C566 C567 1.366 . S
C567 C566 1.366 . S
C567 C568 1.414 . S
C567 C570 1.499 1_556 S
C568 H548 0.950 . S
C568 C567 1.414 . S
C568 C569 1.374 . S
C569 H549 0.950 . S
C569 C565 1.385 . S
C569 C568 1.374 . S
C570 C567 1.499 1_554 S
C570 C571 1.373 . S
C570 C572 1.389 . S
C571 H550 0.950 . S
C571 C570 1.373 . S
C571 C587 1.377 . S
C572 C570 1.389 . S
C572 C573 1.524 . S
C572 C586 1.377 . S
C573 C572 1.524 . S
C573 C574 1.397 . S
C573 C578 1.363 . S
C574 H551 0.950 1_554 S
C574 C573 1.397 . S
C574 C575 1.334 1_554 S
C575 H552 0.950 . S
C575 C574 1.334 1_556 S
C575 C576 1.287 1_556 S
C576 C575 1.287 1_554 S
C576 C577 1.524 . S
C576 H595 0.913 1_554 S
C577 H553 0.950 . S
C577 C576 1.524 . S
C577 C578 1.415 . S
C578 H554 0.950 . S
C578 C573 1.363 . S
C578 C577 1.415 . S
C579 H555 0.951 . S
C579 C580 1.366 . S
C579 C581 1.388 . S
C580 C579 1.366 . S
C580 C584 1.385 . S
C581 H556 0.951 . S
C581 C579 1.388 . S
C581 C582 1.366 . S
C582 C581 1.366 . S
C582 C583 1.414 . S
C582 C585 1.499 . S
C583 H557 0.950 . S
C583 C582 1.414 . S
C583 C584 1.374 . S
C584 H558 0.950 . S
C584 C580 1.385 . S
C584 C583 1.374 . S
C585 C582 1.499 . S
C585 C586 1.373 . S
C585 C587 1.389 . S
C586 H559 0.950 . S
C586 C572 1.377 . S
C586 C585 1.373 . S
C587 C571 1.377 . S
C587 C585 1.389 . S
C587 C588 1.524 . S
C588 C587 1.524 . S
C588 C589 1.397 . S
C588 C593 1.363 . S
C589 H560 0.950 . S
C589 C588 1.397 . S
C589 C590 1.334 . S
C590 H561 0.950 . S
C590 C589 1.334 . S
C590 C591 1.287 . S
C591 C590 1.287 . S
C591 C592 1.524 . S
C591 H594 0.999 . S
C592 H562 0.950 . S
C592 C591 1.524 . S
C592 C593 1.415 . S
C593 H563 0.950 . S
C593 C588 1.363 . S
C593 C592 1.415 . S
H594 C591 0.999 . S
H595 C576 0.913 1_556 S
H596 C614 0.951 . S
H597 C616 0.951 . S
H598 C618 0.950 . S
H599 C619 0.950 1_556 S
H600 C621 0.950 . S
H601 C624 0.950 . S
H602 C625 0.950 . S
H603 C627 0.950 . S
H604 C628 0.950 . S
H605 C629 0.951 . S
H606 C631 0.951 . S
H607 C633 0.950 . S
H608 C634 0.950 . S
H609 C636 0.950 . S
H610 C639 0.950 . S
H611 C640 0.950 . S
H612 C642 0.950 . S
H613 C643 0.950 . S
C614 H596 0.951 . S
C614 C615 1.356 1_554 S
C614 C616 1.388 . S
C615 C614 1.356 1_556 S
C615 C619 1.378 1_556 S
C616 H597 0.951 . S
C616 C614 1.388 . S
C616 C617 1.366 . S
C617 C616 1.366 . S
C617 C618 1.414 . S
C617 C620 1.499 . S
C618 H598 0.950 . S
C618 C617 1.414 . S
C618 C619 1.374 . S
C619 H599 0.950 1_554 S
C619 C615 1.378 1_554 S
C619 C618 1.374 . S
C620 C617 1.499 . S
C620 C621 1.373 . S
C620 C622 1.389 . S
C621 H600 0.950 . S
C621 C620 1.373 . S
C621 C637 1.377 . S
C622 C620 1.389 . S
C622 C623 1.524 . S
C622 C636 1.377 . S
C623 C622 1.524 . S
C623 C624 1.397 . S
C623 C628 1.363 . S
C624 H601 0.950 . S
C624 C623 1.397 . S
C624 C625 1.334 . S
C625 H602 0.950 . S
C625 C624 1.334 . S
C625 C626 1.287 . S
C626 C625 1.287 . S
C626 C627 1.524 . S
C626 H645 0.913 . S
C627 H603 0.950 . S
C627 C626 1.524 . S
C627 C628 1.415 . S
C628 H604 0.950 . S
C628 C623 1.363 . S
C628 C627 1.415 . S
C629 H605 0.951 . S
C629 C630 1.366 . S
C629 C631 1.388 . S
C630 C629 1.366 . S
C630 C634 1.385 . S
C631 H606 0.951 . S
C631 C629 1.388 . S
C631 C632 1.366 . S
C632 C631 1.366 . S
C632 C633 1.414 . S
C632 C635 1.499 . S
C633 H607 0.950 . S
C633 C632 1.414 . S
C633 C634 1.374 . S
C634 H608 0.950 . S
C634 C630 1.385 . S
C634 C633 1.374 . S
C635 C632 1.499 . S
C635 C636 1.373 . S
C635 C637 1.389 . S
C636 H609 0.950 . S
C636 C622 1.377 . S
C636 C635 1.373 . S
C637 C621 1.377 . S
C637 C635 1.389 . S
C637 C638 1.524 . S
C638 C637 1.524 . S
C638 C639 1.397 . S
C638 C643 1.363 . S
C639 H610 0.950 . S
C639 C638 1.397 . S
C639 C640 1.334 . S
C640 H611 0.950 . S
C640 C639 1.334 . S
C640 C641 1.287 . S
C641 C640 1.287 . S
C641 C642 1.524 . S
C641 H644 0.999 . S
C642 H612 0.950 . S
C642 C641 1.524 . S
C642 C643 1.415 . S
C643 H613 0.950 . S
C643 C638 1.363 . S
C643 C642 1.415 . S
H644 C641 0.999 . S
H645 C626 0.913 . S
H646 C664 0.951 . S
H647 C666 0.951 . S
H648 C668 0.950 . S
H649 C669 0.950 . S
H650 C671 0.950 . S
H651 C674 0.950 . S
H652 C675 0.950 . S
H653 C677 0.950 . S
H654 C678 0.950 . S
H655 C679 0.951 . S
H656 C681 0.951 . S
H657 C683 0.950 . S
H658 C684 0.950 . S
H659 C686 0.950 . S
H660 C689 0.950 . S
H661 C690 0.950 . S
H662 C692 0.950 . S
H663 C693 0.950 . S
C664 H646 0.951 . S
C664 C665 1.366 . S
C664 C666 1.388 . S
C665 C664 1.366 . S
C665 C669 1.385 . S
C666 H647 0.951 . S
C666 C664 1.388 . S
C666 C667 1.366 . S
C667 C666 1.366 . S
C667 C668 1.414 . S
C667 C670 1.499 . S
C668 H648 0.950 . S
C668 C667 1.414 . S
C668 C669 1.374 . S
C669 H649 0.950 . S
C669 C665 1.385 . S
C669 C668 1.374 . S
C670 C667 1.499 . S
C670 C671 1.373 . S
C670 C672 1.389 . S
C671 H650 0.950 . S
C671 C670 1.373 . S
C671 C687 1.377 . S
C672 C670 1.389 . S
C672 C673 1.524 . S
C672 C686 1.377 . S
C673 C672 1.524 . S
C673 C674 1.397 . S
C673 C678 1.363 . S
C674 H651 0.950 . S
C674 C673 1.397 . S
C674 C675 1.334 . S
C675 H652 0.950 . S
C675 C674 1.334 . S
C675 C676 1.287 . S
C676 C675 1.287 . S
C676 C677 1.524 . S
C676 H695 0.913 . S
C677 H653 0.950 . S
C677 C676 1.524 . S
C677 C678 1.415 . S
C678 H654 0.950 . S
C678 C673 1.363 . S
C678 C677 1.415 . S
C679 H655 0.951 . S
C679 C680 1.366 . S
C679 C681 1.388 . S
C680 C679 1.366 . S
C680 C684 1.385 . S
C681 H656 0.951 . S
C681 C679 1.388 . S
C681 C682 1.366 . S
C682 C681 1.366 . S
C682 C683 1.414 . S
C682 C685 1.499 . S
C683 H657 0.950 . S
C683 C682 1.414 . S
C683 C684 1.374 . S
C684 H658 0.950 . S
C684 C680 1.385 . S
C684 C683 1.374 . S
C685 C682 1.499 . S
C685 C686 1.373 . S
C685 C687 1.389 . S
C686 H659 0.950 . S
C686 C672 1.377 . S
C686 C685 1.373 . S
C687 C671 1.377 . S
C687 C685 1.389 . S
C687 C688 1.524 . S
C688 C687 1.524 . S
C688 C689 1.397 . S
C688 C693 1.363 . S
C689 H660 0.950 . S
C689 C688 1.397 . S
C689 C690 1.334 . S
C690 H661 0.950 . S
C690 C689 1.334 . S
C690 C691 1.287 . S
C691 C690 1.287 . S
C691 C692 1.524 . S
C691 H694 0.999 . S
C692 H662 0.950 . S
C692 C691 1.524 . S
C692 C693 1.415 . S
C693 H663 0.950 . S
C693 C688 1.363 . S
C693 C692 1.415 . S
H694 C691 0.999 . S
H695 C676 0.913 . S
H696 C714 0.951 . S
H697 C716 0.951 . S
H698 C718 0.950 . S
H699 C719 0.950 . S
H700 C721 0.950 . S
H701 C724 0.950 . S
H702 C725 0.950 . S
H703 C727 0.950 . S
H704 C728 0.950 . S
H705 C729 0.951 1_556 S
H706 C731 0.951 . S
H707 C733 0.950 . S
H708 C734 0.950 1_556 S
H709 C736 0.950 . S
H710 C739 0.950 . S
H711 C740 0.950 . S
H712 C742 0.950 . S
H713 C743 0.950 . S
C714 H696 0.951 . S
C714 C715 1.366 . S
C714 C716 1.388 . S
C715 C714 1.366 . S
C715 C719 1.385 . S
C716 H697 0.951 . S
C716 C714 1.388 . S
C716 C717 1.366 . S
C717 C716 1.366 . S
C717 C718 1.414 . S
C717 C720 1.499 . S
C718 H698 0.950 . S
C718 C717 1.414 . S
C718 C719 1.374 . S
C719 H699 0.950 . S
C719 C715 1.385 . S
C719 C718 1.374 . S
C720 C717 1.499 . S
C720 C721 1.373 . S
C720 C722 1.389 . S
C721 H700 0.950 . S
C721 C720 1.373 . S
C721 C737 1.377 . S
C722 C720 1.389 . S
C722 C723 1.524 . S
C722 C736 1.377 . S
C723 C722 1.524 . S
C723 C724 1.397 . S
C723 C728 1.363 . S
C724 H701 0.950 . S
C724 C723 1.397 . S
C724 C725 1.334 . S
C725 H702 0.950 . S
C725 C724 1.334 . S
C725 C726 1.287 . S
C726 C725 1.287 . S
C726 C727 1.524 . S
C726 H745 0.913 . S
C727 H703 0.950 . S
C727 C726 1.524 . S
C727 C728 1.415 . S
C728 H704 0.950 . S
C728 C723 1.363 . S
C728 C727 1.415 . S
C729 H705 0.951 1_554 S
C729 C730 1.366 1_554 S
C729 C731 1.388 . S
C730 C729 1.366 1_556 S
C730 C734 1.385 1_556 S
C731 H706 0.951 . S
C731 C729 1.388 . S
C731 C732 1.366 . S
C732 C731 1.366 . S
C732 C733 1.414 . S
C732 C735 1.499 . S
C733 H707 0.950 . S
C733 C732 1.414 . S
C733 C734 1.374 . S
C734 H708 0.950 1_554 S
C734 C730 1.385 1_554 S
C734 C733 1.374 . S
C735 C732 1.499 . S
C735 C736 1.373 . S
C735 C737 1.389 . S
C736 H709 0.950 . S
C736 C722 1.377 . S
C736 C735 1.373 . S
C737 C721 1.377 . S
C737 C735 1.389 . S
C737 C738 1.524 . S
C738 C737 1.524 . S
C738 C739 1.397 . S
C738 C743 1.363 . S
C739 H710 0.950 . S
C739 C738 1.397 . S
C739 C740 1.334 . S
C740 H711 0.950 . S
C740 C739 1.334 . S
C740 C741 1.287 . S
C741 C740 1.287 . S
C741 C742 1.524 . S
C741 H744 0.999 . S
C742 H712 0.950 . S
C742 C741 1.524 . S
C742 C743 1.415 . S
C743 H713 0.950 . S
C743 C738 1.363 . S
C743 C742 1.415 . S
H744 C741 0.999 . S
H745 C726 0.913 . S
H746 C764 0.951 . S
H747 C766 0.951 . S
H748 C768 0.950 . S
H749 C769 0.950 . S
H750 C771 0.950 . S
H751 C774 0.950 . S
H752 C775 0.950 . S
H753 C777 0.950 . S
H754 C778 0.950 . S
H755 C779 0.951 . S
H756 C781 0.951 . S
H757 C783 0.950 . S
H758 C784 0.950 . S
H759 C786 0.950 . S
H760 C789 0.950 . S
H761 C790 0.950 . S
H762 C792 0.950 . S
H763 C793 0.950 . S
C764 H746 0.951 . S
C764 C765 1.366 . S
C764 C766 1.388 . S
C765 C764 1.366 . S
C765 C769 1.385 . S
C766 H747 0.951 . S
C766 C764 1.388 . S
C766 C767 1.366 . S
C767 C766 1.366 . S
C767 C768 1.414 . S
C767 C770 1.499 . S
C768 H748 0.950 . S
C768 C767 1.414 . S
C768 C769 1.374 . S
C769 H749 0.950 . S
C769 C765 1.385 . S
C769 C768 1.374 . S
C770 C767 1.499 . S
C770 C771 1.373 . S
C770 C772 1.389 . S
C771 H750 0.950 . S
C771 C770 1.373 . S
C771 C787 1.377 . S
C772 C770 1.389 . S
C772 C773 1.524 . S
C772 C786 1.377 . S
C773 C772 1.524 . S
C773 C774 1.397 . S
C773 C778 1.363 . S
C774 H751 0.950 . S
C774 C773 1.397 . S
C774 C775 1.334 . S
C775 H752 0.950 . S
C775 C774 1.334 . S
C775 C776 1.287 . S
C776 C775 1.287 . S
C776 C777 1.524 . S
C776 H795 0.913 . S
C777 H753 0.950 . S
C777 C776 1.524 . S
C777 C778 1.415 . S
C778 H754 0.950 . S
C778 C773 1.363 . S
C778 C777 1.415 . S
C779 H755 0.951 . S
C779 C780 1.366 . S
C779 C781 1.388 . S
C780 C779 1.366 . S
C780 C784 1.385 . S
C781 H756 0.951 . S
C781 C779 1.388 . S
C781 C782 1.366 . S
C782 C781 1.366 . S
C782 C783 1.414 . S
C782 C785 1.499 . S
C783 H757 0.950 . S
C783 C782 1.414 . S
C783 C784 1.374 . S
C784 H758 0.950 . S
C784 C780 1.385 . S
C784 C783 1.374 . S
C785 C782 1.499 . S
C785 C786 1.373 . S
C785 C787 1.389 . S
C786 H759 0.950 . S
C786 C772 1.377 . S
C786 C785 1.373 . S
C787 C771 1.377 . S
C787 C785 1.389 . S
C787 C788 1.524 . S
C788 C787 1.524 . S
C788 C789 1.397 . S
C788 C793 1.363 . S
C789 H760 0.950 . S
C789 C788 1.397 . S
C789 C790 1.334 . S
C790 H761 0.950 . S
C790 C789 1.334 . S
C790 C791 1.287 . S
C791 C790 1.287 . S
C791 C792 1.524 . S
C791 H794 0.999 . S
C792 H762 0.950 . S
C792 C791 1.524 . S
C792 C793 1.415 . S
C793 H763 0.950 . S
C793 C788 1.363 . S
C793 C792 1.415 . S
H794 C791 0.999 . S
H795 C776 0.913 . S
H796 C814 0.951 . S
H797 C816 0.951 . S
H798 C818 0.950 . S
H799 C819 0.950 . S
H800 C821 0.950 . S
H801 C824 0.950 . S
H802 C825 0.950 . S
H803 C827 0.950 . S
H804 C828 0.950 . S
H805 C829 0.951 . S
H806 C831 0.951 . S
H807 C833 0.950 . S
H808 C834 0.950 . S
H809 C836 0.950 . S
H810 C839 0.950 . S
H811 C840 0.950 . S
H812 C842 0.950 . S
H813 C843 0.950 . S
C814 H796 0.951 . S
C814 C815 1.366 . S
C814 C816 1.388 . S
C815 C814 1.366 . S
C815 C819 1.385 . S
C816 H797 0.951 . S
C816 C814 1.388 . S
C816 C817 1.366 . S
C817 C816 1.366 . S
C817 C818 1.414 . S
C817 C820 1.499 . S
C818 H798 0.950 . S
C818 C817 1.414 . S
C818 C819 1.374 . S
C819 H799 0.950 . S
C819 C815 1.385 . S
C819 C818 1.374 . S
C820 C817 1.499 . S
C820 C821 1.373 . S
C820 C822 1.389 . S
C821 H800 0.950 . S
C821 C820 1.373 . S
C821 C837 1.377 . S
C822 C820 1.389 . S
C822 C823 1.524 . S
C822 C836 1.377 . S
C823 C822 1.524 . S
C823 C824 1.397 . S
C823 C828 1.363 . S
C824 H801 0.950 . S
C824 C823 1.397 . S
C824 C825 1.334 . S
C825 H802 0.950 . S
C825 C824 1.334 . S
C825 C826 1.287 . S
C826 C825 1.287 . S
C826 C827 1.524 . S
C826 H845 0.913 . S
C827 H803 0.950 . S
C827 C826 1.524 . S
C827 C828 1.415 . S
C828 H804 0.950 . S
C828 C823 1.363 . S
C828 C827 1.415 . S
C829 H805 0.951 . S
C829 C830 1.366 . S
C829 C831 1.388 . S
C830 C829 1.366 . S
C830 C834 1.385 . S
C831 H806 0.951 . S
C831 C829 1.388 . S
C831 C832 1.366 . S
C832 C831 1.366 . S
C832 C833 1.414 . S
C832 C835 1.499 . S
C833 H807 0.950 . S
C833 C832 1.414 . S
C833 C834 1.374 . S
C834 H808 0.950 . S
C834 C830 1.385 . S
C834 C833 1.374 . S
C835 C832 1.499 . S
C835 C836 1.373 . S
C835 C837 1.389 . S
C836 H809 0.950 . S
C836 C822 1.377 . S
C836 C835 1.373 . S
C837 C821 1.377 . S
C837 C835 1.389 . S
C837 C838 1.524 . S
C838 C837 1.524 . S
C838 C839 1.397 . S
C838 C843 1.363 . S
C839 H810 0.950 . S
C839 C838 1.397 . S
C839 C840 1.334 . S
C840 H811 0.950 . S
C840 C839 1.334 . S
C840 C841 1.287 . S
C841 C840 1.287 . S
C841 C842 1.524 . S
C841 H844 0.999 . S
C842 H812 0.950 . S
C842 C841 1.524 . S
C842 C843 1.415 . S
C843 H813 0.950 . S
C843 C838 1.363 . S
C843 C842 1.415 . S
H844 C841 0.999 . S
H845 C826 0.913 . S
H846 C864 0.951 . S
H847 C866 0.951 . S
H848 C868 0.950 . S
H849 C869 0.950 . S
H850 C871 0.950 . S
H851 C874 0.950 . S
H852 C875 0.950 . S
H853 C877 0.950 . S
H854 C878 0.950 . S
H855 C879 0.951 . S
H856 C881 0.951 . S
H857 C883 0.950 . S
H858 C884 0.950 . S
H859 C886 0.950 . S
H860 C889 0.950 . S
H861 C890 0.950 . S
H862 C892 0.950 . S
H863 C893 0.950 . S
C864 H846 0.951 . S
C864 C865 1.356 1_556 S
C864 C866 1.388 . S
C865 C864 1.356 1_554 S
C865 C869 1.376 1_554 S
C866 H847 0.951 . S
C866 C864 1.388 . S
C866 C867 1.366 . S
C867 C866 1.366 . S
C867 C868 1.414 . S
C867 C870 1.499 . S
C868 H848 0.950 . S
C868 C867 1.414 . S
C868 C869 1.374 . S
C869 H849 0.950 . S
C869 C865 1.376 1_556 S
C869 C868 1.374 . S
C870 C867 1.499 . S
C870 C871 1.373 . S
C870 C872 1.389 . S
C871 H850 0.950 . S
C871 C870 1.373 . S
C871 C887 1.377 . S
C872 C870 1.389 . S
C872 C873 1.524 . S
C872 C886 1.377 . S
C873 C872 1.524 . S
C873 C874 1.397 . S
C873 C878 1.363 . S
C874 H851 0.950 . S
C874 C873 1.397 . S
C874 C875 1.334 . S
C875 H852 0.950 . S
C875 C874 1.334 . S
C875 C876 1.287 . S
C876 C875 1.287 . S
C876 C877 1.524 . S
C876 H895 0.913 . S
C877 H853 0.950 . S
C877 C876 1.524 . S
C877 C878 1.415 . S
C878 H854 0.950 . S
C878 C873 1.363 . S
C878 C877 1.415 . S
C879 H855 0.951 . S
C879 C880 1.366 . S
C879 C881 1.388 . S
C880 C879 1.366 . S
C880 C884 1.385 . S
C881 H856 0.951 . S
C881 C879 1.388 . S
C881 C882 1.366 . S
C882 C881 1.366 . S
C882 C883 1.414 . S
C882 C885 1.499 . S
C883 H857 0.950 . S
C883 C882 1.414 . S
C883 C884 1.374 . S
C884 H858 0.950 . S
C884 C880 1.385 . S
C884 C883 1.374 . S
C885 C882 1.499 . S
C885 C886 1.373 . S
C885 C887 1.389 . S
C886 H859 0.950 . S
C886 C872 1.377 . S
C886 C885 1.373 . S
C887 C871 1.377 . S
C887 C885 1.389 . S
C887 C888 1.524 . S
C888 C887 1.524 . S
C888 C889 1.397 . S
C888 C893 1.363 . S
C889 H860 0.950 . S
C889 C888 1.397 . S
C889 C890 1.334 . S
C890 H861 0.950 . S
C890 C889 1.334 . S
C890 C891 1.287 . S
C891 C890 1.287 . S
C891 C892 1.524 . S
C891 H894 0.999 . S
C892 H862 0.950 . S
C892 C891 1.524 . S
C892 C893 1.415 . S
C893 H863 0.950 . S
C893 C888 1.363 . S
C893 C892 1.415 . S
H894 C891 0.999 . S
H895 C876 0.913 . S
H896 C914 0.951 . S
H897 C916 0.951 . S
H898 C918 0.950 . S
H899 C919 0.950 . S
H900 C921 0.950 . S
H901 C924 0.950 . S
H902 C925 0.950 . S
H903 C927 0.950 . S
H904 C928 0.950 . S
H905 C929 0.951 . S
H906 C931 0.951 . S
H907 C933 0.950 . S
H908 C934 0.950 . S
H909 C936 0.950 . S
H910 C939 0.950 . S
H911 C940 0.950 . S
H912 C942 0.950 . S
H913 C943 0.950 . S
C914 H896 0.951 . S
C914 C915 1.366 . S
C914 C916 1.388 . S
C915 C914 1.366 . S
C915 C919 1.385 . S
C916 H897 0.951 . S
C916 C914 1.388 . S
C916 C917 1.366 . S
C917 C916 1.366 . S
C917 C918 1.414 . S
C917 C920 1.499 1_554 S
C918 H898 0.950 . S
C918 C917 1.414 . S
C918 C919 1.374 . S
C919 H899 0.950 . S
C919 C915 1.385 . S
C919 C918 1.374 . S
C920 C917 1.499 1_556 S
C920 C921 1.373 . S
C920 C922 1.389 . S
C921 H900 0.950 . S
C921 C920 1.373 . S
C921 C937 1.377 . S
C922 C920 1.389 . S
C922 C923 1.524 . S
C922 C936 1.377 . S
C923 C922 1.524 . S
C923 C924 1.397 1_556 S
C923 C928 1.363 . S
C924 H901 0.950 . S
C924 C923 1.397 1_554 S
C924 C925 1.334 . S
C925 H902 0.950 . S
C925 C924 1.334 . S
C925 C926 1.287 . S
C926 C925 1.287 . S
C926 C927 1.524 1_554 S
C926 H945 0.913 . S
C927 H903 0.950 . S
C927 C926 1.524 1_556 S
C927 C928 1.415 . S
C928 H904 0.950 . S
C928 C923 1.363 . S
C928 C927 1.415 . S
C929 H905 0.951 . S
C929 C930 1.366 . S
C929 C931 1.388 . S
C930 C929 1.366 . S
C930 C934 1.385 . S
C931 H906 0.951 . S
C931 C929 1.388 . S
C931 C932 1.366 . S
C932 C931 1.366 . S
C932 C933 1.414 . S
C932 C935 1.499 . S
C933 H907 0.950 . S
C933 C932 1.414 . S
C933 C934 1.374 . S
C934 H908 0.950 . S
C934 C930 1.385 . S
C934 C933 1.374 . S
C935 C932 1.499 . S
C935 C936 1.373 . S
C935 C937 1.389 . S
C936 H909 0.950 . S
C936 C922 1.377 . S
C936 C935 1.373 . S
C937 C921 1.377 . S
C937 C935 1.389 . S
C937 C938 1.524 . S
C938 C937 1.524 . S
C938 C939 1.397 . S
C938 C943 1.363 . S
C939 H910 0.950 . S
C939 C938 1.397 . S
C939 C940 1.334 . S
C940 H911 0.950 . S
C940 C939 1.334 . S
C940 C941 1.287 . S
C941 C940 1.287 . S
C941 C942 1.524 . S
C941 H944 0.999 . S
C942 H912 0.950 . S
C942 C941 1.524 . S
C942 C943 1.415 . S
C943 H913 0.950 . S
C943 C938 1.363 . S
C943 C942 1.415 . S
H944 C941 0.999 . S
H945 C926 0.913 . S
H946 C964 0.951 . S
H947 C966 0.951 . S
H948 C968 0.950 . S
H949 C969 0.950 . S
H950 C971 0.950 . S
H951 C974 0.950 . S
H952 C975 0.950 . S
H953 C977 0.950 . S
H954 C978 0.950 . S
H955 C979 0.951 . S
H956 C981 0.951 . S
H957 C983 0.950 . S
H958 C984 0.950 . S
H959 C986 0.950 . S
H960 C989 0.950 . S
H961 C990 0.950 . S
H962 C992 0.950 . S
H963 C993 0.950 . S
C964 H946 0.951 . S
C964 C965 1.366 . S
C964 C966 1.388 . S
C965 C964 1.366 . S
C965 C969 1.385 . S
C966 H947 0.951 . S
C966 C964 1.388 . S
C966 C967 1.366 . S
C967 C966 1.366 . S
C967 C968 1.414 . S
C967 C970 1.499 1_556 S
C968 H948 0.950 . S
C968 C967 1.414 . S
C968 C969 1.374 . S
C969 H949 0.950 . S
C969 C965 1.385 . S
C969 C968 1.374 . S
C970 C967 1.499 1_554 S
C970 C971 1.373 . S
C970 C972 1.389 . S
C971 H950 0.950 . S
C971 C970 1.373 . S
C971 C987 1.377 . S
C972 C970 1.389 . S
C972 C973 1.524 . S
C972 C986 1.377 . S
C973 C972 1.524 . S
C973 C974 1.397 1_554 S
C973 C978 1.363 . S
C974 H951 0.950 . S
C974 C973 1.397 1_556 S
C974 C975 1.334 . S
C975 H952 0.950 . S
C975 C974 1.334 . S
C975 C976 1.287 . S
C976 C975 1.287 . S
C976 C977 1.524 1_556 S
C976 H995 0.913 . S
C977 H953 0.950 . S
C977 C976 1.524 1_554 S
C977 C978 1.415 . S
C978 H954 0.950 . S
C978 C973 1.363 . S
C978 C977 1.415 . S
C979 H955 0.951 . S
C979 C980 1.366 . S
C979 C981 1.388 . S
C980 C979 1.366 . S
C980 C984 1.385 . S
C981 H956 0.951 . S
C981 C979 1.388 . S
C981 C982 1.366 . S
C982 C981 1.366 . S
C982 C983 1.414 . S
C982 C985 1.499 . S
C983 H957 0.950 . S
C983 C982 1.414 . S
C983 C984 1.374 . S
C984 H958 0.950 . S
C984 C980 1.385 . S
C984 C983 1.374 . S
C985 C982 1.499 . S
C985 C986 1.373 . S
C985 C987 1.389 . S
C986 H959 0.950 . S
C986 C972 1.377 . S
C986 C985 1.373 . S
C987 C971 1.377 . S
C987 C985 1.389 . S
C987 C988 1.524 . S
C988 C987 1.524 . S
C988 C989 1.397 . S
C988 C993 1.363 . S
C989 H960 0.950 . S
C989 C988 1.397 . S
C989 C990 1.334 . S
C990 H961 0.950 . S
C990 C989 1.334 . S
C990 C991 1.287 . S
C991 C990 1.287 . S
C991 C992 1.524 . S
C991 H994 0.999 . S
C992 H962 0.950 . S
C992 C991 1.524 . S
C992 C993 1.415 . S
C993 H963 0.950 . S
C993 C988 1.363 . S
C993 C992 1.415 . S
H994 C991 0.999 . S
H995 C976 0.913 . S
H996 C1014 0.951 . S
H997 C1016 0.951 . S
H998 C1018 0.950 . S
H999 C1019 0.950 . S
H1000 C1021 0.950 . S
H1001 C1024 0.950 . S
H1002 C1025 0.950 . S
H1003 C1027 0.950 . S
H1004 C1028 0.950 . S
H1005 C1029 0.951 . S
H1006 C1031 0.951 . S
H1007 C1033 0.950 . S
H1008 C1034 0.950 . S
H1009 C1036 0.950 . S
H1010 C1039 0.950 . S
H1011 C1040 0.950 . S
H1012 C1042 0.950 . S
H1013 C1043 0.950 . S
C1014 H996 0.951 . S
C1014 C1015 1.366 . S
C1014 C1016 1.388 . S
C1015 C1014 1.366 . S
C1015 C1019 1.385 . S
C1016 H997 0.951 . S
C1016 C1014 1.388 . S
C1016 C1017 1.366 . S
C1017 C1016 1.366 . S
C1017 C1018 1.414 . S
C1017 C1020 1.499 . S
C1018 H998 0.950 . S
C1018 C1017 1.414 . S
C1018 C1019 1.374 . S
C1019 H999 0.950 . S
C1019 C1015 1.385 . S
C1019 C1018 1.374 . S
C1020 C1017 1.499 . S
C1020 C1021 1.373 . S
C1020 C1022 1.389 . S
C1021 H1000 0.950 . S
C1021 C1020 1.373 . S
C1021 C1037 1.377 . S
C1022 C1020 1.389 . S
C1022 C1023 1.524 . S
C1022 C1036 1.377 . S
C1023 C1022 1.524 . S
C1023 C1024 1.397 . S
C1023 C1028 1.363 . S
C1024 H1001 0.950 . S
C1024 C1023 1.397 . S
C1024 C1025 1.334 . S
C1025 H1002 0.950 . S
C1025 C1024 1.334 . S
C1025 C1026 1.287 . S
C1026 C1025 1.287 . S
C1026 C1027 1.524 . S
C1026 H1045 0.913 . S
C1027 H1003 0.950 . S
C1027 C1026 1.524 . S
C1027 C1028 1.415 . S
C1028 H1004 0.950 . S
C1028 C1023 1.363 . S
C1028 C1027 1.415 . S
C1029 H1005 0.951 . S
C1029 C1030 1.366 . S
C1029 C1031 1.388 . S
C1030 C1029 1.366 . S
C1030 C1034 1.385 1_554 S
C1031 H1006 0.951 . S
C1031 C1029 1.388 . S
C1031 C1032 1.366 1_554 S
C1032 C1031 1.366 1_556 S
C1032 C1033 1.414 . S
C1032 C1035 1.499 . S
C1033 H1007 0.950 . S
C1033 C1032 1.414 . S
C1033 C1034 1.374 . S
C1034 H1008 0.950 . S
C1034 C1030 1.385 1_556 S
C1034 C1033 1.374 . S
C1035 C1032 1.499 . S
C1035 C1036 1.373 . S
C1035 C1037 1.389 . S
C1036 H1009 0.950 . S
C1036 C1022 1.377 . S
C1036 C1035 1.373 . S
C1037 C1021 1.377 . S
C1037 C1035 1.389 . S
C1037 C1038 1.524 1_556 S
C1038 C1037 1.524 1_554 S
C1038 C1039 1.397 . S
C1038 C1043 1.363 . S
C1039 H1010 0.950 . S
C1039 C1038 1.397 . S
C1039 C1040 1.334 . S
C1040 H1011 0.950 . S
C1040 C1039 1.334 . S
C1040 C1041 1.287 . S
C1041 C1040 1.287 . S
C1041 C1042 1.524 . S
C1041 H1044 0.999 . S
C1042 H1012 0.950 . S
C1042 C1041 1.524 . S
C1042 C1043 1.415 . S
C1043 H1013 0.950 . S
C1043 C1038 1.363 . S
C1043 C1042 1.415 . S
H1044 C1041 0.999 . S
H1045 C1026 0.913 . S
H1046 C1064 0.951 . S
H1047 C1066 0.951 . S
H1048 C1068 0.950 . S
H1049 C1069 0.950 . S
H1050 C1071 0.950 . S
H1051 C1074 0.950 . S
H1052 C1075 0.950 . S
H1053 C1077 0.950 . S
H1054 C1078 0.950 . S
H1055 C1079 0.951 . S
H1056 C1081 0.951 . S
H1057 C1083 0.950 . S
H1058 C1084 0.950 . S
H1059 C1086 0.950 . S
H1060 C1089 0.950 . S
H1061 C1090 0.950 . S
H1062 C1092 0.950 . S
H1063 C1093 0.950 . S
C1064 H1046 0.951 . S
C1064 C1065 1.366 . S
C1064 C1066 1.388 . S
C1065 C1064 1.366 . S
C1065 C1069 1.385 . S
C1066 H1047 0.951 . S
C1066 C1064 1.388 . S
C1066 C1067 1.366 . S
C1067 C1066 1.366 . S
C1067 C1068 1.414 . S
C1067 C1070 1.499 . S
C1068 H1048 0.950 . S
C1068 C1067 1.414 . S
C1068 C1069 1.374 . S
C1069 H1049 0.950 . S
C1069 C1065 1.385 . S
C1069 C1068 1.374 . S
C1070 C1067 1.499 . S
C1070 C1071 1.373 . S
C1070 C1072 1.389 . S
C1071 H1050 0.950 . S
C1071 C1070 1.373 . S
C1071 C1087 1.377 . S
C1072 C1070 1.389 . S
C1072 C1073 1.524 . S
C1072 C1086 1.377 . S
C1073 C1072 1.524 . S
C1073 C1074 1.397 . S
C1073 C1078 1.363 1_554 S
C1074 H1051 0.950 . S
C1074 C1073 1.397 . S
C1074 C1075 1.334 . S
C1075 H1052 0.950 . S
C1075 C1074 1.334 . S
C1075 C1076 1.287 . S
C1076 C1075 1.287 . S
C1076 C1077 1.524 1_554 S
C1076 H1095 0.913 . S
C1077 H1053 0.950 . S
C1077 C1076 1.524 1_556 S
C1077 C1078 1.415 . S
C1078 H1054 0.950 . S
C1078 C1073 1.363 1_556 S
C1078 C1077 1.415 . S
C1079 H1055 0.951 . S
C1079 C1080 1.366 1_554 S
C1079 C1081 1.388 . S
C1080 C1079 1.366 1_556 S
C1080 C1084 1.385 . S
C1081 H1056 0.951 . S
C1081 C1079 1.388 . S
C1081 C1082 1.366 . S
C1082 C1081 1.366 . S
C1082 C1083 1.414 1_554 S
C1082 C1085 1.499 . S
C1083 H1057 0.950 . S
C1083 C1082 1.414 1_556 S
C1083 C1084 1.374 . S
C1084 H1058 0.950 . S
C1084 C1080 1.385 . S
C1084 C1083 1.374 . S
C1085 C1082 1.499 . S
C1085 C1086 1.373 . S
C1085 C1087 1.389 . S
C1086 H1059 0.950 . S
C1086 C1072 1.377 . S
C1086 C1085 1.373 . S
C1087 C1071 1.377 . S
C1087 C1085 1.389 . S
C1087 C1088 1.524 . S
C1088 C1087 1.524 . S
C1088 C1089 1.397 . S
C1088 C1093 1.363 . S
C1089 H1060 0.950 . S
C1089 C1088 1.397 . S
C1089 C1090 1.334 . S
C1090 H1061 0.950 . S
C1090 C1089 1.334 . S
C1090 C1091 1.287 . S
C1091 C1090 1.287 . S
C1091 C1092 1.524 . S
C1091 H1094 0.999 . S
C1092 H1062 0.950 . S
C1092 C1091 1.524 . S
C1092 C1093 1.415 . S
C1093 H1063 0.950 . S
C1093 C1088 1.363 . S
C1093 C1092 1.415 . S
H1094 C1091 0.999 . S
H1095 C1076 0.913 . S
H1096 C1114 0.951 . S
H1097 C1116 0.951 . S
H1098 C1118 0.950 . S
H1099 C1119 0.950 . S
H1100 C1121 0.950 . S
H1101 C1124 0.950 . S
H1102 C1125 0.950 . S
H1103 C1127 0.950 1_556 S
H1104 C1128 0.950 . S
H1105 C1129 0.951 . S
H1106 C1131 0.951 . S
H1107 C1133 0.950 . S
H1108 C1134 0.950 . S
H1109 C1136 0.950 . S
H1110 C1139 0.950 . S
H1111 C1140 0.950 . S
H1112 C1142 0.950 . S
H1113 C1143 0.950 . S
C1114 H1096 0.951 . S
C1114 C1115 1.366 . S
C1114 C1116 1.388 . S
C1115 C1114 1.366 . S
C1115 C1119 1.385 . S
C1116 H1097 0.951 . S
C1116 C1114 1.388 . S
C1116 C1117 1.366 . S
C1117 C1116 1.366 . S
C1117 C1118 1.414 . S
C1117 C1120 1.499 . S
C1118 H1098 0.950 . S
C1118 C1117 1.414 . S
C1118 C1119 1.374 . S
C1119 H1099 0.950 . S
C1119 C1115 1.385 . S
C1119 C1118 1.374 . S
C1120 C1117 1.499 . S
C1120 C1121 1.373 . S
C1120 C1122 1.389 . S
C1121 H1100 0.950 . S
C1121 C1120 1.373 . S
C1121 C1137 1.377 . S
C1122 C1120 1.389 . S
C1122 C1123 1.524 . S
C1122 C1136 1.377 . S
C1123 C1122 1.524 . S
C1123 C1124 1.397 . S
C1123 C1128 1.363 . S
C1124 H1101 0.950 . S
C1124 C1123 1.397 . S
C1124 C1125 1.334 . S
C1125 H1102 0.950 . S
C1125 C1124 1.334 . S
C1125 C1126 1.287 1_554 S
C1126 C1125 1.287 1_556 S
C1126 C1127 1.524 1_556 S
C1126 H1145 0.913 . S
C1127 H1103 0.950 1_554 S
C1127 C1126 1.524 1_554 S
C1127 C1128 1.415 . S
C1128 H1104 0.950 . S
C1128 C1123 1.363 . S
C1128 C1127 1.415 . S
C1129 H1105 0.951 . S
C1129 C1130 1.366 . S
C1129 C1131 1.388 . S
C1130 C1129 1.366 . S
C1130 C1134 1.385 . S
C1131 H1106 0.951 . S
C1131 C1129 1.388 . S
C1131 C1132 1.366 . S
C1132 C1131 1.366 . S
C1132 C1133 1.414 . S
C1132 C1135 1.499 . S
C1133 H1107 0.950 . S
C1133 C1132 1.414 . S
C1133 C1134 1.374 . S
C1134 H1108 0.950 . S
C1134 C1130 1.385 . S
C1134 C1133 1.374 . S
C1135 C1132 1.499 . S
C1135 C1136 1.373 . S
C1135 C1137 1.389 . S
C1136 H1109 0.950 . S
C1136 C1122 1.377 . S
C1136 C1135 1.373 . S
C1137 C1121 1.377 . S
C1137 C1135 1.389 . S
C1137 C1138 1.524 . S
C1138 C1137 1.524 . S
C1138 C1139 1.397 . S
C1138 C1143 1.363 . S
C1139 H1110 0.950 . S
C1139 C1138 1.397 . S
C1139 C1140 1.334 . S
C1140 H1111 0.950 . S
C1140 C1139 1.334 . S
C1140 C1141 1.287 . S
C1141 C1140 1.287 . S
C1141 C1142 1.524 . S
C1141 H1144 0.999 . S
C1142 H1112 0.950 . S
C1142 C1141 1.524 . S
C1142 C1143 1.415 . S
C1143 H1113 0.950 . S
C1143 C1138 1.363 . S
C1143 C1142 1.415 . S
H1144 C1141 0.999 . S
H1145 C1126 0.913 . S
H1146 C1164 0.951 . S
H1147 C1166 0.951 . S
H1148 C1168 0.950 . S
H1149 C1169 0.950 . S
H1150 C1171 0.950 . S
H1151 C1174 0.950 . S
H1152 C1175 0.950 . S
H1153 C1177 0.950 . S
H1154 C1178 0.950 . S
H1155 C1179 0.951 . S
H1156 C1181 0.951 . S
H1157 C1183 0.950 . S
H1158 C1184 0.950 . S
H1159 C1186 0.950 . S
H1160 C1189 0.950 . S
H1161 C1190 0.950 . S
H1162 C1192 0.950 . S
H1163 C1193 0.950 . S
C1164 H1146 0.951 . S
C1164 C1165 1.366 . S
C1164 C1166 1.388 . S
C1165 C1164 1.366 . S
C1165 C1169 1.385 . S
C1166 H1147 0.951 . S
C1166 C1164 1.388 . S
C1166 C1167 1.366 . S
C1167 C1166 1.366 . S
C1167 C1168 1.414 . S
C1167 C1170 1.499 . S
C1168 H1148 0.950 . S
C1168 C1167 1.414 . S
C1168 C1169 1.374 . S
C1169 H1149 0.950 . S
C1169 C1165 1.385 . S
C1169 C1168 1.374 . S
C1170 C1167 1.499 . S
C1170 C1171 1.373 . S
C1170 C1172 1.389 . S
C1171 H1150 0.950 . S
C1171 C1170 1.373 . S
C1171 C1187 1.377 . S
C1172 C1170 1.389 . S
C1172 C1173 1.524 . S
C1172 C1186 1.377 . S
C1173 C1172 1.524 . S
C1173 C1174 1.397 . S
C1173 C1178 1.363 . S
C1174 H1151 0.950 . S
C1174 C1173 1.397 . S
C1174 C1175 1.334 . S
C1175 H1152 0.950 . S
C1175 C1174 1.334 . S
C1175 C1176 1.287 . S
C1176 C1175 1.287 . S
C1176 C1177 1.524 . S
C1176 H1195 0.913 . S
C1177 H1153 0.950 . S
C1177 C1176 1.524 . S
C1177 C1178 1.415 . S
C1178 H1154 0.950 . S
C1178 C1173 1.363 . S
C1178 C1177 1.415 . S
C1179 H1155 0.951 . S
C1179 C1180 1.366 . S
C1179 C1181 1.388 . S
C1180 C1179 1.366 . S
C1180 C1184 1.385 . S
C1181 H1156 0.951 . S
C1181 C1179 1.388 . S
C1181 C1182 1.366 . S
C1182 C1181 1.366 . S
C1182 C1183 1.414 . S
C1182 C1185 1.499 . S
C1183 H1157 0.950 . S
C1183 C1182 1.414 . S
C1183 C1184 1.374 . S
C1184 H1158 0.950 . S
C1184 C1180 1.385 . S
C1184 C1183 1.374 . S
C1185 C1182 1.499 . S
C1185 C1186 1.373 . S
C1185 C1187 1.389 . S
C1186 H1159 0.950 . S
C1186 C1172 1.377 . S
C1186 C1185 1.373 . S
C1187 C1171 1.377 . S
C1187 C1185 1.389 . S
C1187 C1188 1.524 . S
C1188 C1187 1.524 . S
C1188 C1189 1.397 . S
C1188 C1193 1.363 . S
C1189 H1160 0.950 . S
C1189 C1188 1.397 . S
C1189 C1190 1.334 . S
C1190 H1161 0.950 . S
C1190 C1189 1.334 . S
C1190 C1191 1.287 . S
C1191 C1190 1.287 . S
C1191 C1192 1.524 . S
C1191 H1194 0.999 . S
C1192 H1162 0.950 . S
C1192 C1191 1.524 . S
C1192 C1193 1.415 . S
C1193 H1163 0.950 . S
C1193 C1188 1.363 . S
C1193 C1192 1.415 . S
H1194 C1191 0.999 . S
H1195 C1176 0.913 . S
H1196 C1214 0.951 . S
H1197 C1216 0.951 . S
H1198 C1218 0.950 . S
H1199 C1219 0.950 . S
H1200 C1221 0.950 . S
H1201 C1224 0.950 . S
H1202 C1225 0.950 . S
H1203 C1227 0.950 . S
H1204 C1228 0.950 . S
H1205 C1229 0.951 . S
H1206 C1231 0.951 . S
H1207 C1233 0.950 . S
H1208 C1234 0.950 . S
H1209 C1236 0.950 . S
H1210 C1239 0.950 . S
H1211 C1240 0.950 . S
H1212 C1242 0.950 . S
H1213 C1243 0.950 . S
C1214 H1196 0.951 . S
C1214 C1215 1.366 . S
C1214 C1216 1.388 . S
C1215 C1214 1.366 . S
C1215 C1219 1.385 . S
C1216 H1197 0.951 . S
C1216 C1214 1.388 . S
C1216 C1217 1.366 . S
C1217 C1216 1.366 . S
C1217 C1218 1.414 . S
C1217 C1220 1.499 . S
C1218 H1198 0.950 . S
C1218 C1217 1.414 . S
C1218 C1219 1.374 . S
C1219 H1199 0.950 . S
C1219 C1215 1.385 . S
C1219 C1218 1.374 . S
C1220 C1217 1.499 . S
C1220 C1221 1.373 . S
C1220 C1222 1.389 . S
C1221 H1200 0.950 . S
C1221 C1220 1.373 . S
C1221 C1237 1.377 . S
C1222 C1220 1.389 . S
C1222 C1223 1.524 . S
C1222 C1236 1.377 . S
C1223 C1222 1.524 . S
C1223 C1224 1.397 . S
C1223 C1228 1.363 . S
C1224 H1201 0.950 . S
C1224 C1223 1.397 . S
C1224 C1225 1.334 . S
C1225 H1202 0.950 . S
C1225 C1224 1.334 . S
C1225 C1226 1.287 . S
C1226 C1225 1.287 . S
C1226 C1227 1.524 . S
C1226 H1245 0.913 . S
C1227 H1203 0.950 . S
C1227 C1226 1.524 . S
C1227 C1228 1.415 . S
C1228 H1204 0.950 . S
C1228 C1223 1.363 . S
C1228 C1227 1.415 . S
C1229 H1205 0.951 . S
C1229 C1230 1.366 . S
C1229 C1231 1.388 . S
C1230 C1229 1.366 . S
C1230 C1234 1.385 . S
C1231 H1206 0.951 . S
C1231 C1229 1.388 . S
C1231 C1232 1.366 . S
C1232 C1231 1.366 . S
C1232 C1233 1.414 . S
C1232 C1235 1.499 . S
C1233 H1207 0.950 . S
C1233 C1232 1.414 . S
C1233 C1234 1.374 . S
C1234 H1208 0.950 . S
C1234 C1230 1.385 . S
C1234 C1233 1.374 . S
C1235 C1232 1.499 . S
C1235 C1236 1.373 . S
C1235 C1237 1.389 . S
C1236 H1209 0.950 . S
C1236 C1222 1.377 . S
C1236 C1235 1.373 . S
C1237 C1221 1.377 . S
C1237 C1235 1.389 . S
C1237 C1238 1.524 . S
C1238 C1237 1.524 . S
C1238 C1239 1.397 . S
C1238 C1243 1.363 . S
C1239 H1210 0.950 . S
C1239 C1238 1.397 . S
C1239 C1240 1.334 . S
C1240 H1211 0.950 . S
C1240 C1239 1.334 . S
C1240 C1241 1.287 . S
C1241 C1240 1.287 . S
C1241 C1242 1.524 . S
C1241 H1244 0.999 . S
C1242 H1212 0.950 . S
C1242 C1241 1.524 . S
C1242 C1243 1.415 . S
C1243 H1213 0.950 . S
C1243 C1238 1.363 . S
C1243 C1242 1.415 . S
H1244 C1241 0.999 . S
H1245 C1226 0.913 . S
H1246 C1264 0.951 . S
H1247 C1266 0.951 . S
H1248 C1268 0.950 . S
H1249 C1269 0.950 . S
H1250 C1271 0.950 . S
H1251 C1274 0.950 . S
H1252 C1275 0.950 . S
H1253 C1277 0.950 . S
H1254 C1278 0.950 . S
H1255 C1279 0.951 . S
H1256 C1281 0.951 . S
H1257 C1283 0.950 . S
H1258 C1284 0.950 . S
H1259 C1286 0.950 . S
H1260 C1289 0.950 . S
H1261 C1290 0.950 . S
H1262 C1292 0.950 . S
H1263 C1293 0.950 . S
C1264 H1246 0.951 . S
C1264 C1265 1.366 . S
C1264 C1266 1.388 . S
C1265 C1264 1.366 . S
C1265 C1269 1.385 . S
C1266 H1247 0.951 . S
C1266 C1264 1.388 . S
C1266 C1267 1.366 . S
C1267 C1266 1.366 . S
C1267 C1268 1.414 . S
C1267 C1270 1.499 . S
C1268 H1248 0.950 . S
C1268 C1267 1.414 . S
C1268 C1269 1.374 . S
C1269 H1249 0.950 . S
C1269 C1265 1.385 . S
C1269 C1268 1.374 . S
C1270 C1267 1.499 . S
C1270 C1271 1.373 . S
C1270 C1272 1.389 . S
C1271 H1250 0.950 . S
C1271 C1270 1.373 . S
C1271 C1287 1.377 . S
C1272 C1270 1.389 . S
C1272 C1273 1.524 . S
C1272 C1286 1.377 . S
C1273 C1272 1.524 . S
C1273 C1274 1.397 . S
C1273 C1278 1.363 . S
C1274 H1251 0.950 . S
C1274 C1273 1.397 . S
C1274 C1275 1.334 . S
C1275 H1252 0.950 . S
C1275 C1274 1.334 . S
C1275 C1276 1.287 . S
C1276 C1275 1.287 . S
C1276 C1277 1.524 . S
C1276 H1295 0.913 . S
C1277 H1253 0.950 . S
C1277 C1276 1.524 . S
C1277 C1278 1.415 . S
C1278 H1254 0.950 . S
C1278 C1273 1.363 . S
C1278 C1277 1.415 . S
C1279 H1255 0.951 . S
C1279 C1280 1.366 . S
C1279 C1281 1.388 . S
C1280 C1279 1.366 . S
C1280 C1284 1.385 . S
C1281 H1256 0.951 . S
C1281 C1279 1.388 . S
C1281 C1282 1.366 . S
C1282 C1281 1.366 . S
C1282 C1283 1.414 . S
C1282 C1285 1.499 . S
C1283 H1257 0.950 . S
C1283 C1282 1.414 . S
C1283 C1284 1.374 . S
C1284 H1258 0.950 . S
C1284 C1280 1.385 . S
C1284 C1283 1.374 . S
C1285 C1282 1.499 . S
C1285 C1286 1.373 . S
C1285 C1287 1.389 . S
C1286 H1259 0.950 . S
C1286 C1272 1.377 . S
C1286 C1285 1.373 . S
C1287 C1271 1.377 . S
C1287 C1285 1.389 . S
C1287 C1288 1.524 . S
C1288 C1287 1.524 . S
C1288 C1289 1.397 . S
C1288 C1293 1.363 . S
C1289 H1260 0.950 . S
C1289 C1288 1.397 . S
C1289 C1290 1.334 . S
C1290 H1261 0.950 . S
C1290 C1289 1.334 . S
C1290 C1291 1.287 . S
C1291 C1290 1.287 . S
C1291 C1292 1.524 . S
C1291 H1294 0.999 . S
C1292 H1262 0.950 . S
C1292 C1291 1.524 . S
C1292 C1293 1.415 . S
C1293 H1263 0.950 . S
C1293 C1288 1.363 . S
C1293 C1292 1.415 . S
H1294 C1291 0.999 . S
H1295 C1276 0.913 . S
H1296 C1314 0.951 . S
H1297 C1316 0.951 . S
H1298 C1318 0.950 . S
H1299 C1319 0.950 . S
H1300 C1321 0.950 . S
H1301 C1324 0.950 . S
H1302 C1325 0.950 . S
H1303 C1327 0.950 . S
H1304 C1328 0.950 . S
H1305 C1329 0.951 . S
H1306 C1331 0.951 . S
H1307 C1333 0.950 . S
H1308 C1334 0.950 . S
H1309 C1336 0.950 . S
H1310 C1339 0.950 . S
H1311 C1340 0.950 . S
H1312 C1342 0.950 . S
H1313 C1343 0.950 . S
C1314 H1296 0.951 . S
C1314 C1315 1.366 . S
C1314 C1316 1.388 . S
C1315 C1314 1.366 . S
C1315 C1319 1.385 . S
C1316 H1297 0.951 . S
C1316 C1314 1.388 . S
C1316 C1317 1.366 . S
C1317 C1316 1.366 . S
C1317 C1318 1.414 . S
C1317 C1320 1.499 . S
C1318 H1298 0.950 . S
C1318 C1317 1.414 . S
C1318 C1319 1.374 . S
C1319 H1299 0.950 . S
C1319 C1315 1.385 . S
C1319 C1318 1.374 . S
C1320 C1317 1.499 . S
C1320 C1321 1.373 . S
C1320 C1322 1.389 . S
C1321 H1300 0.950 . S
C1321 C1320 1.373 . S
C1321 C1337 1.377 . S
C1322 C1320 1.389 . S
C1322 C1323 1.524 . S
C1322 C1336 1.377 . S
C1323 C1322 1.524 . S
C1323 C1324 1.397 . S
C1323 C1328 1.363 . S
C1324 H1301 0.950 . S
C1324 C1323 1.397 . S
C1324 C1325 1.334 . S
C1325 H1302 0.950 . S
C1325 C1324 1.334 . S
C1325 C1326 1.287 . S
C1326 C1325 1.287 . S
C1326 C1327 1.524 . S
C1326 H1345 0.913 . S
C1327 H1303 0.950 . S
C1327 C1326 1.524 . S
C1327 C1328 1.415 . S
C1328 H1304 0.950 . S
C1328 C1323 1.363 . S
C1328 C1327 1.415 . S
C1329 H1305 0.951 . S
C1329 C1330 1.366 . S
C1329 C1331 1.388 . S
C1330 C1329 1.366 . S
C1330 C1334 1.385 . S
C1331 H1306 0.951 . S
C1331 C1329 1.388 . S
C1331 C1332 1.366 . S
C1332 C1331 1.366 . S
C1332 C1333 1.414 . S
C1332 C1335 1.499 . S
C1333 H1307 0.950 . S
C1333 C1332 1.414 . S
C1333 C1334 1.374 . S
C1334 H1308 0.950 . S
C1334 C1330 1.385 . S
C1334 C1333 1.374 . S
C1335 C1332 1.499 . S
C1335 C1336 1.373 . S
C1335 C1337 1.389 . S
C1336 H1309 0.950 . S
C1336 C1322 1.377 . S
C1336 C1335 1.373 . S
C1337 C1321 1.377 . S
C1337 C1335 1.389 . S
C1337 C1338 1.524 . S
C1338 C1337 1.524 . S
C1338 C1339 1.397 . S
C1338 C1343 1.363 . S
C1339 H1310 0.950 . S
C1339 C1338 1.397 . S
C1339 C1340 1.334 . S
C1340 H1311 0.950 . S
C1340 C1339 1.334 . S
C1340 C1341 1.287 . S
C1341 C1340 1.287 . S
C1341 C1342 1.524 . S
C1341 H1344 0.999 . S
C1342 H1312 0.950 . S
C1342 C1341 1.524 . S
C1342 C1343 1.415 . S
C1343 H1313 0.950 . S
C1343 C1338 1.363 . S
C1343 C1342 1.415 . S
H1344 C1341 0.999 . S
H1345 C1326 0.913 . S
H1346 C1364 0.951 . S
H1347 C1366 0.951 . S
H1348 C1368 0.950 . S
H1349 C1369 0.950 . S
H1350 C1371 0.950 . S
H1351 C1374 0.950 . S
H1352 C1375 0.950 . S
H1353 C1377 0.950 . S
H1354 C1378 0.950 . S
H1355 C1379 0.951 . S
H1356 C1381 0.951 . S
H1357 C1383 0.950 . S
H1358 C1384 0.950 . S
H1359 C1386 0.950 . S
H1360 C1389 0.950 . S
H1361 C1390 0.950 . S
H1362 C1392 0.950 . S
H1363 C1393 0.950 . S
C1364 H1346 0.951 . S
C1364 C1365 1.366 . S
C1364 C1366 1.388 . S
C1365 C1364 1.366 . S
C1365 C1369 1.385 . S
C1366 H1347 0.951 . S
C1366 C1364 1.388 . S
C1366 C1367 1.366 . S
C1367 C1366 1.366 . S
C1367 C1368 1.414 . S
C1367 C1370 1.499 . S
C1368 H1348 0.950 . S
C1368 C1367 1.414 . S
C1368 C1369 1.374 . S
C1369 H1349 0.950 . S
C1369 C1365 1.385 . S
C1369 C1368 1.374 . S
C1370 C1367 1.499 . S
C1370 C1371 1.373 . S
C1370 C1372 1.389 . S
C1371 H1350 0.950 . S
C1371 C1370 1.373 . S
C1371 C1387 1.377 . S
C1372 C1370 1.389 . S
C1372 C1373 1.524 . S
C1372 C1386 1.377 . S
C1373 C1372 1.524 . S
C1373 C1374 1.397 . S
C1373 C1378 1.363 . S
C1374 H1351 0.950 . S
C1374 C1373 1.397 . S
C1374 C1375 1.334 . S
C1375 H1352 0.950 . S
C1375 C1374 1.334 . S
C1375 C1376 1.287 . S
C1376 C1375 1.287 . S
C1376 C1377 1.524 . S
C1376 H1395 0.913 . S
C1377 H1353 0.950 . S
C1377 C1376 1.524 . S
C1377 C1378 1.415 . S
C1378 H1354 0.950 . S
C1378 C1373 1.363 . S
C1378 C1377 1.415 . S
C1379 H1355 0.951 . S
C1379 C1380 1.366 . S
C1379 C1381 1.388 . S
C1380 C1379 1.366 . S
C1380 C1384 1.385 . S
C1381 H1356 0.951 . S
C1381 C1379 1.388 . S
C1381 C1382 1.366 . S
C1382 C1381 1.366 . S
C1382 C1383 1.414 . S
C1382 C1385 1.499 . S
C1383 H1357 0.950 . S
C1383 C1382 1.414 . S
C1383 C1384 1.374 . S
C1384 H1358 0.950 . S
C1384 C1380 1.385 . S
C1384 C1383 1.374 . S
C1385 C1382 1.499 . S
C1385 C1386 1.373 . S
C1385 C1387 1.389 . S
C1386 H1359 0.950 . S
C1386 C1372 1.377 . S
C1386 C1385 1.373 . S
C1387 C1371 1.377 . S
C1387 C1385 1.389 . S
C1387 C1388 1.524 . S
C1388 C1387 1.524 . S
C1388 C1389 1.397 . S
C1388 C1393 1.363 . S
C1389 H1360 0.950 . S
C1389 C1388 1.397 . S
C1389 C1390 1.334 . S
C1390 H1361 0.950 . S
C1390 C1389 1.334 . S
C1390 C1391 1.287 . S
C1391 C1390 1.287 . S
C1391 C1392 1.524 . S
C1391 H1394 0.999 . S
C1392 H1362 0.950 . S
C1392 C1391 1.524 . S
C1392 C1393 1.415 . S
C1393 H1363 0.950 . S
C1393 C1388 1.363 . S
C1393 C1392 1.415 . S
H1394 C1391 0.999 . S
H1395 C1376 0.913 . S
H1396 C1414 0.951 . S
H1397 C1416 0.951 . S
H1398 C1418 0.950 . S
H1399 C1419 0.950 . S
H1400 C1421 0.950 . S
H1401 C1424 0.950 . S
H1402 C1425 0.950 . S
H1403 C1427 0.950 . S
H1404 C1428 0.950 . S
H1405 C1429 0.951 . S
H1406 C1431 0.951 . S
H1407 C1433 0.950 . S
H1408 C1434 0.950 . S
H1409 C1436 0.950 . S
H1410 C1439 0.950 . S
H1411 C1440 0.950 . S
H1412 C1442 0.950 . S
H1413 C1443 0.950 . S
C1414 H1396 0.951 . S
C1414 C1415 1.366 . S
C1414 C1416 1.388 . S
C1415 C1414 1.366 . S
C1415 C1419 1.385 . S
C1416 H1397 0.951 . S
C1416 C1414 1.388 . S
C1416 C1417 1.366 . S
C1417 C1416 1.366 . S
C1417 C1418 1.414 . S
C1417 C1420 1.499 . S
C1418 H1398 0.950 . S
C1418 C1417 1.414 . S
C1418 C1419 1.374 . S
C1419 H1399 0.950 . S
C1419 C1415 1.385 . S
C1419 C1418 1.374 . S
C1420 C1417 1.499 . S
C1420 C1421 1.373 . S
C1420 C1422 1.389 . S
C1421 H1400 0.950 . S
C1421 C1420 1.373 . S
C1421 C1437 1.377 . S
C1422 C1420 1.389 . S
C1422 C1423 1.524 . S
C1422 C1436 1.377 . S
C1423 C1422 1.524 . S
C1423 C1424 1.397 . S
C1423 C1428 1.363 . S
C1424 H1401 0.950 . S
C1424 C1423 1.397 . S
C1424 C1425 1.334 . S
C1425 H1402 0.950 . S
C1425 C1424 1.334 . S
C1425 C1426 1.287 . S
C1426 C1425 1.287 . S
C1426 C1427 1.524 . S
C1426 H1445 0.913 . S
C1427 H1403 0.950 . S
C1427 C1426 1.524 . S
C1427 C1428 1.415 . S
C1428 H1404 0.950 . S
C1428 C1423 1.363 . S
C1428 C1427 1.415 . S
C1429 H1405 0.951 . S
C1429 C1430 1.366 . S
C1429 C1431 1.388 . S
C1430 C1429 1.366 . S
C1430 C1434 1.385 . S
C1431 H1406 0.951 . S
C1431 C1429 1.388 . S
C1431 C1432 1.366 . S
C1432 C1431 1.366 . S
C1432 C1433 1.414 . S
C1432 C1435 1.499 . S
C1433 H1407 0.950 . S
C1433 C1432 1.414 . S
C1433 C1434 1.374 . S
C1434 H1408 0.950 . S
C1434 C1430 1.385 . S
C1434 C1433 1.374 . S
C1435 C1432 1.499 . S
C1435 C1436 1.373 . S
C1435 C1437 1.389 . S
C1436 H1409 0.950 . S
C1436 C1422 1.377 . S
C1436 C1435 1.373 . S
C1437 C1421 1.377 . S
C1437 C1435 1.389 . S
C1437 C1438 1.524 . S
C1438 C1437 1.524 . S
C1438 C1439 1.397 . S
C1438 C1443 1.363 . S
C1439 H1410 0.950 . S
C1439 C1438 1.397 . S
C1439 C1440 1.334 . S
C1440 H1411 0.950 . S
C1440 C1439 1.334 . S
C1440 C1441 1.287 . S
C1441 C1440 1.287 . S
C1441 C1442 1.524 . S
C1441 H1444 0.999 . S
C1442 H1412 0.950 . S
C1442 C1441 1.524 . S
C1442 C1443 1.415 . S
C1443 H1413 0.950 . S
C1443 C1438 1.363 . S
C1443 C1442 1.415 . S
H1444 C1441 0.999 . S
H1445 C1426 0.913 . S
H1446 C1464 0.951 . S
H1447 C1466 0.951 . S
H1448 C1468 0.950 . S
H1449 C1469 0.950 . S
H1450 C1471 0.950 . S
H1451 C1474 0.950 . S
H1452 C1475 0.950 . S
H1453 C1477 0.950 . S
H1454 C1478 0.950 . S
H1455 C1479 0.951 . S
H1456 C1481 0.951 . S
H1457 C1483 0.950 . S
H1458 C1484 0.950 . S
H1459 C1486 0.950 . S
H1460 C1489 0.950 . S
H1461 C1490 0.950 . S
H1462 C1492 0.950 . S
H1463 C1493 0.950 . S
C1464 H1446 0.951 . S
C1464 C1465 1.366 . S
C1464 C1466 1.388 . S
C1465 C1464 1.366 . S
C1465 C1469 1.385 . S
C1466 H1447 0.951 . S
C1466 C1464 1.388 . S
C1466 C1467 1.366 . S
C1467 C1466 1.366 . S
C1467 C1468 1.414 . S
C1467 C1470 1.499 . S
C1468 H1448 0.950 . S
C1468 C1467 1.414 . S
C1468 C1469 1.374 . S
C1469 H1449 0.950 . S
C1469 C1465 1.385 . S
C1469 C1468 1.374 . S
C1470 C1467 1.499 . S
C1470 C1471 1.373 . S
C1470 C1472 1.389 . S
C1471 H1450 0.950 . S
C1471 C1470 1.373 . S
C1471 C1487 1.377 . S
C1472 C1470 1.389 . S
C1472 C1473 1.524 . S
C1472 C1486 1.377 . S
C1473 C1472 1.524 . S
C1473 C1474 1.397 . S
C1473 C1478 1.363 . S
C1474 H1451 0.950 . S
C1474 C1473 1.397 . S
C1474 C1475 1.334 . S
C1475 H1452 0.950 . S
C1475 C1474 1.334 . S
C1475 C1476 1.287 . S
C1476 C1475 1.287 . S
C1476 C1477 1.524 . S
C1476 H1495 0.913 . S
C1477 H1453 0.950 . S
C1477 C1476 1.524 . S
C1477 C1478 1.415 . S
C1478 H1454 0.950 . S
C1478 C1473 1.363 . S
C1478 C1477 1.415 . S
C1479 H1455 0.951 . S
C1479 C1480 1.366 . S
C1479 C1481 1.388 . S
C1480 C1479 1.366 . S
C1480 C1484 1.385 . S
C1481 H1456 0.951 . S
C1481 C1479 1.388 . S
C1481 C1482 1.366 . S
C1482 C1481 1.366 . S
C1482 C1483 1.414 . S
C1482 C1485 1.499 . S
C1483 H1457 0.950 . S
C1483 C1482 1.414 . S
C1483 C1484 1.374 . S
C1484 H1458 0.950 . S
C1484 C1480 1.385 . S
C1484 C1483 1.374 . S
C1485 C1482 1.499 . S
C1485 C1486 1.373 . S
C1485 C1487 1.389 . S
C1486 H1459 0.950 . S
C1486 C1472 1.377 . S
C1486 C1485 1.373 . S
C1487 C1471 1.377 . S
C1487 C1485 1.389 . S
C1487 C1488 1.524 . S
C1488 C1487 1.524 . S
C1488 C1489 1.397 . S
C1488 C1493 1.363 . S
C1489 H1460 0.950 . S
C1489 C1488 1.397 . S
C1489 C1490 1.334 . S
C1490 H1461 0.950 . S
C1490 C1489 1.334 . S
C1490 C1491 1.287 . S
C1491 C1490 1.287 . S
C1491 C1492 1.524 . S
C1491 H1494 0.999 . S
C1492 H1462 0.950 . S
C1492 C1491 1.524 . S
C1492 C1493 1.415 . S
C1493 H1463 0.950 . S
C1493 C1488 1.363 . S
C1493 C1492 1.415 . S
H1494 C1491 0.999 . S
H1495 C1476 0.913 . S
H1496 C1514 0.951 . S
H1497 C1516 0.951 . S
H1498 C1518 0.950 . S
H1499 C1519 0.950 . S
H1500 C1521 0.950 . S
H1501 C1524 0.950 . S
H1502 C1525 0.950 . S
H1503 C1527 0.950 . S
H1504 C1528 0.950 . S
H1505 C1529 0.951 . S
H1506 C1531 0.951 . S
H1507 C1533 0.950 . S
H1508 C1534 0.950 . S
H1509 C1536 0.950 . S
H1510 C1539 0.950 . S
H1511 C1540 0.950 . S
H1512 C1542 0.950 . S
H1513 C1543 0.950 . S
C1514 H1496 0.951 . S
C1514 C1515 1.366 1_556 S
C1514 C1516 1.388 . S
C1515 C1514 1.366 1_554 S
C1515 C1519 1.385 . S
C1516 H1497 0.951 . S
C1516 C1514 1.388 . S
C1516 C1517 1.366 . S
C1517 C1516 1.366 . S
C1517 C1518 1.414 1_556 S
C1517 C1520 1.499 . S
C1518 H1498 0.950 . S
C1518 C1517 1.414 1_554 S
C1518 C1519 1.374 . S
C1519 H1499 0.950 . S
C1519 C1515 1.385 . S
C1519 C1518 1.374 . S
C1520 C1517 1.499 . S
C1520 C1521 1.373 . S
C1520 C1522 1.389 . S
C1521 H1500 0.950 . S
C1521 C1520 1.373 . S
C1521 C1537 1.377 . S
C1522 C1520 1.389 . S
C1522 C1523 1.526 . S
C1522 C1536 1.377 . S
C1523 C1522 1.526 . S
C1523 C1524 1.395 1_556 S
C1523 C1528 1.363 . S
C1524 H1501 0.950 . S
C1524 C1523 1.395 1_554 S
C1524 C1525 1.334 . S
C1525 H1502 0.950 . S
C1525 C1524 1.334 . S
C1525 C1526 1.287 . S
C1526 C1525 1.287 . S
C1526 C1527 1.524 . S
C1526 H1545 0.913 . S
C1527 H1503 0.950 . S
C1527 C1526 1.524 . S
C1527 C1528 1.415 1_554 S
C1528 H1504 0.950 . S
C1528 C1523 1.363 . S
C1528 C1527 1.415 1_556 S
C1529 H1505 0.951 . S
C1529 C1530 1.366 . S
C1529 C1531 1.388 . S
C1530 C1529 1.366 . S
C1530 C1534 1.385 . S
C1531 H1506 0.951 . S
C1531 C1529 1.388 . S
C1531 C1532 1.366 . S
C1532 C1531 1.366 . S
C1532 C1533 1.414 . S
C1532 C1535 1.499 . S
C1533 H1507 0.950 . S
C1533 C1532 1.414 . S
C1533 C1534 1.374 . S
C1534 H1508 0.950 . S
C1534 C1530 1.385 . S
C1534 C1533 1.374 . S
C1535 C1532 1.499 . S
C1535 C1536 1.373 . S
C1535 C1537 1.389 . S
C1536 H1509 0.950 . S
C1536 C1522 1.377 . S
C1536 C1535 1.373 . S
C1537 C1521 1.377 . S
C1537 C1535 1.389 . S
C1537 C1538 1.524 . S
C1538 C1537 1.524 . S
C1538 C1539 1.397 . S
C1538 C1543 1.363 . S
C1539 H1510 0.950 . S
C1539 C1538 1.397 . S
C1539 C1540 1.334 . S
C1540 H1511 0.950 . S
C1540 C1539 1.334 . S
C1540 C1541 1.287 . S
C1541 C1540 1.287 . S
C1541 C1542 1.524 . S
C1541 H1544 0.999 . S
C1542 H1512 0.950 . S
C1542 C1541 1.524 . S
C1542 C1543 1.415 . S
C1543 H1513 0.950 . S
C1543 C1538 1.363 . S
C1543 C1542 1.415 . S
H1544 C1541 0.999 . S
H1545 C1526 0.913 . S
H1546 C1564 0.951 . S
H1547 C1566 0.951 . S
H1548 C1568 0.950 . S
H1549 C1569 0.950 . S
H1550 C1571 0.950 . S
H1551 C1574 0.950 1_554 S
H1552 C1575 0.950 . S
H1553 C1577 0.950 . S
H1554 C1578 0.950 . S
H1555 C1579 0.951 . S
H1556 C1581 0.951 . S
H1557 C1583 0.950 . S
H1558 C1584 0.950 . S
H1559 C1586 0.950 1_556 S
H1560 C1589 0.950 . S
H1561 C1590 0.950 . S
H1562 C1592 0.950 . S
H1563 C1593 0.950 . S
C1564 H1546 0.951 . S
C1564 C1565 1.366 . S
C1564 C1566 1.388 . S
C1565 C1564 1.366 . S
C1565 C1569 1.385 . S
C1566 H1547 0.951 . S
C1566 C1564 1.388 . S
C1566 C1567 1.366 . S
C1567 C1566 1.366 . S
C1567 C1568 1.414 . S
C1567 C1570 1.499 . S
C1568 H1548 0.950 . S
C1568 C1567 1.414 . S
C1568 C1569 1.374 . S
C1569 H1549 0.950 . S
C1569 C1565 1.385 . S
C1569 C1568 1.374 . S
C1570 C1567 1.499 . S
C1570 C1571 1.373 . S
C1570 C1572 1.389 . S
C1571 H1550 0.950 . S
C1571 C1570 1.373 . S
C1571 C1587 1.377 . S
C1572 C1570 1.389 . S
C1572 C1573 1.524 . S
C1572 C1586 1.377 . S
C1573 C1572 1.524 . S
C1573 C1574 1.397 1_554 S
C1573 C1578 1.363 1_554 S
C1574 H1551 0.950 1_556 S
C1574 C1573 1.397 1_556 S
C1574 C1575 1.334 . S
C1575 H1552 0.950 . S
C1575 C1574 1.334 . S
C1575 C1576 1.287 . S
C1576 C1575 1.287 . S
C1576 C1577 1.524 . S
C1576 H1595 0.913 . S
C1577 H1553 0.950 . S
C1577 C1576 1.524 . S
C1577 C1578 1.415 . S
C1578 H1554 0.950 . S
C1578 C1573 1.363 1_556 S
C1578 C1577 1.415 . S
C1579 H1555 0.951 . S
C1579 C1580 1.366 . S
C1579 C1581 1.388 1_556 S
C1580 C1579 1.366 . S
C1580 C1584 1.385 . S
C1581 H1556 0.951 . S
C1581 C1579 1.388 1_554 S
C1581 C1582 1.366 . S
C1582 C1581 1.366 . S
C1582 C1583 1.414 . S
C1582 C1585 1.499 . S
C1583 H1557 0.950 . S
C1583 C1582 1.414 . S
C1583 C1584 1.374 1_554 S
C1584 H1558 0.950 . S
C1584 C1580 1.385 . S
C1584 C1583 1.374 1_556 S
C1585 C1582 1.499 . S
C1585 C1586 1.373 . S
C1585 C1587 1.389 . S
C1586 H1559 0.950 1_554 S
C1586 C1572 1.377 . S
C1586 C1585 1.373 . S
C1587 C1571 1.377 . S
C1587 C1585 1.389 . S
C1587 C1588 1.524 . S
C1588 C1587 1.524 . S
C1588 C1589 1.397 . S
C1588 C1593 1.363 . S
C1589 H1560 0.950 . S
C1589 C1588 1.397 . S
C1589 C1590 1.334 . S
C1590 H1561 0.950 . S
C1590 C1589 1.334 . S
C1590 C1591 1.287 . S
C1591 C1590 1.287 . S
C1591 C1592 1.524 . S
C1591 H1594 0.999 . S
C1592 H1562 0.950 . S
C1592 C1591 1.524 . S
C1592 C1593 1.415 . S
C1593 H1563 0.950 . S
C1593 C1588 1.363 . S
C1593 C1592 1.415 . S
H1594 C1591 0.999 . S
H1595 C1576 0.913 . S
H1596 C1614 0.951 . S
H1597 C1616 0.951 . S
H1598 C1618 0.950 . S
H1599 C1619 0.950 . S
H1600 C1621 0.950 . S
H1601 C1624 0.950 . S
H1602 C1625 0.950 . S
H1603 C1627 0.950 . S
H1604 C1628 0.950 . S
H1605 C1629 0.951 . S
H1606 C1631 0.951 . S
H1607 C1633 0.950 . S
H1608 C1634 0.950 . S
H1609 C1636 0.950 . S
H1610 C1639 0.950 . S
H1611 C1640 0.950 . S
H1612 C1642 0.950 . S
H1613 C1643 0.950 . S
C1614 H1596 0.951 . S
C1614 C1615 1.366 . S
C1614 C1616 1.388 . S
C1615 C1614 1.366 . S
C1615 C1619 1.385 . S
C1616 H1597 0.951 . S
C1616 C1614 1.388 . S
C1616 C1617 1.366 . S
C1617 C1616 1.366 . S
C1617 C1618 1.414 . S
C1617 C1620 1.499 . S
C1618 H1598 0.950 . S
C1618 C1617 1.414 . S
C1618 C1619 1.374 . S
C1619 H1599 0.950 . S
C1619 C1615 1.385 . S
C1619 C1618 1.374 . S
C1620 C1617 1.499 . S
C1620 C1621 1.373 . S
C1620 C1622 1.389 . S
C1621 H1600 0.950 . S
C1621 C1620 1.373 . S
C1621 C1637 1.377 . S
C1622 C1620 1.389 . S
C1622 C1623 1.524 . S
C1622 C1636 1.377 . S
C1623 C1622 1.524 . S
C1623 C1624 1.397 . S
C1623 C1628 1.363 . S
C1624 H1601 0.950 . S
C1624 C1623 1.397 . S
C1624 C1625 1.334 1_554 S
C1625 H1602 0.950 . S
C1625 C1624 1.334 1_556 S
C1625 C1626 1.287 . S
C1626 C1625 1.287 . S
C1626 C1627 1.524 1_556 S
C1626 H1645 0.913 . S
C1627 H1603 0.950 . S
C1627 C1626 1.524 1_554 S
C1627 C1628 1.415 . S
C1628 H1604 0.950 . S
C1628 C1623 1.363 . S
C1628 C1627 1.415 . S
C1629 H1605 0.951 . S
C1629 C1630 1.366 . S
C1629 C1631 1.388 . S
C1630 C1629 1.366 . S
C1630 C1634 1.385 . S
C1631 H1606 0.951 . S
C1631 C1629 1.388 . S
C1631 C1632 1.366 . S
C1632 C1631 1.366 . S
C1632 C1633 1.414 . S
C1632 C1635 1.499 . S
C1633 H1607 0.950 . S
C1633 C1632 1.414 . S
C1633 C1634 1.374 . S
C1634 H1608 0.950 . S
C1634 C1630 1.385 . S
C1634 C1633 1.374 . S
C1635 C1632 1.499 . S
C1635 C1636 1.373 . S
C1635 C1637 1.389 . S
C1636 H1609 0.950 . S
C1636 C1622 1.377 . S
C1636 C1635 1.373 . S
C1637 C1621 1.377 . S
C1637 C1635 1.389 . S
C1637 C1638 1.524 . S
C1638 C1637 1.524 . S
C1638 C1639 1.397 . S
C1638 C1643 1.363 . S
C1639 H1610 0.950 . S
C1639 C1638 1.397 . S
C1639 C1640 1.334 . S
C1640 H1611 0.950 . S
C1640 C1639 1.334 . S
C1640 C1641 1.287 . S
C1641 C1640 1.287 . S
C1641 C1642 1.524 . S
C1641 H1644 0.999 . S
C1642 H1612 0.950 . S
C1642 C1641 1.524 . S
C1642 C1643 1.415 . S
C1643 H1613 0.950 . S
C1643 C1638 1.363 . S
C1643 C1642 1.415 . S
H1644 C1641 0.999 . S
H1645 C1626 0.913 . S
H1646 C1664 0.951 . S
H1647 C1666 0.951 . S
H1648 C1668 0.950 . S
H1649 C1669 0.950 . S
H1650 C1671 0.950 . S
H1651 C1674 0.950 . S
H1652 C1675 0.950 . S
H1653 C1677 0.950 . S
H1654 C1678 0.950 . S
H1655 C1679 0.951 . S
H1656 C1681 0.951 . S
H1657 C1683 0.950 . S
H1658 C1684 0.950 . S
H1659 C1686 0.950 . S
H1660 C1689 0.950 . S
H1661 C1690 0.950 . S
H1662 C1692 0.950 . S
H1663 C1693 0.950 . S
C1664 H1646 0.951 . S
C1664 C1665 1.366 . S
C1664 C1666 1.388 . S
C1665 C1664 1.366 . S
C1665 C1669 1.385 . S
C1666 H1647 0.951 . S
C1666 C1664 1.388 . S
C1666 C1667 1.366 . S
C1667 C1666 1.366 . S
C1667 C1668 1.414 . S
C1667 C1670 1.499 . S
C1668 H1648 0.950 . S
C1668 C1667 1.414 . S
C1668 C1669 1.374 . S
C1669 H1649 0.950 . S
C1669 C1665 1.385 . S
C1669 C1668 1.374 . S
C1670 C1667 1.499 . S
C1670 C1671 1.373 . S
C1670 C1672 1.389 . S
C1671 H1650 0.950 . S
C1671 C1670 1.373 . S
C1671 C1687 1.377 1_655 S
C1672 C1670 1.389 . S
C1672 C1673 1.524 . S
C1672 C1686 1.377 1_655 S
C1673 C1672 1.524 . S
C1673 C1674 1.397 . S
C1673 C1678 1.363 . S
C1674 H1651 0.950 . S
C1674 C1673 1.397 . S
C1674 C1675 1.334 . S
C1675 H1652 0.950 . S
C1675 C1674 1.334 . S
C1675 C1676 1.287 . S
C1676 C1675 1.287 . S
C1676 C1677 1.524 . S
C1676 H1695 0.913 . S
C1677 H1653 0.950 . S
C1677 C1676 1.524 . S
C1677 C1678 1.415 . S
C1678 H1654 0.950 . S
C1678 C1673 1.363 . S
C1678 C1677 1.415 . S
C1679 H1655 0.951 . S
C1679 C1680 1.366 . S
C1679 C1681 1.388 . S
C1680 C1679 1.366 . S
C1680 C1684 1.385 . S
C1681 H1656 0.951 . S
C1681 C1679 1.388 . S
C1681 C1682 1.366 . S
C1682 C1681 1.366 . S
C1682 C1683 1.414 . S
C1682 C1685 1.499 . S
C1683 H1657 0.950 . S
C1683 C1682 1.414 . S
C1683 C1684 1.374 . S
C1684 H1658 0.950 . S
C1684 C1680 1.385 . S
C1684 C1683 1.374 . S
C1685 C1682 1.499 . S
C1685 C1686 1.373 . S
C1685 C1687 1.389 . S
C1686 H1659 0.950 . S
C1686 C1672 1.377 1_455 S
C1686 C1685 1.373 . S
C1687 C1671 1.377 1_455 S
C1687 C1685 1.389 . S
C1687 C1688 1.524 . S
C1688 C1687 1.524 . S
C1688 C1689 1.397 . S
C1688 C1693 1.363 . S
C1689 H1660 0.950 . S
C1689 C1688 1.397 . S
C1689 C1690 1.334 . S
C1690 H1661 0.950 . S
C1690 C1689 1.334 . S
C1690 C1691 1.287 . S
C1691 C1690 1.287 . S
C1691 C1692 1.524 . S
C1691 H1694 0.999 . S
C1692 H1662 0.950 . S
C1692 C1691 1.524 . S
C1692 C1693 1.415 . S
C1693 H1663 0.950 . S
C1693 C1688 1.363 . S
C1693 C1692 1.415 . S
H1694 C1691 0.999 . S
H1695 C1676 0.913 . S
H1696 C1714 0.951 . S
H1697 C1716 0.951 . S
H1698 C1718 0.950 . S
H1699 C1719 0.950 . S
H1700 C1721 0.950 . S
H1701 C1724 0.950 . S
H1702 C1725 0.950 . S
H1703 C1727 0.950 . S
H1704 C1728 0.940 1_565 S
H1705 C1729 0.951 . S
H1706 C1731 0.951 . S
H1707 C1733 0.950 . S
H1708 C1734 0.950 . S
H1709 C1736 0.950 . S
H1710 C1739 0.950 . S
H1711 C1740 0.950 . S
H1712 C1742 0.950 . S
H1713 C1743 0.940 1_545 S
C1714 H1696 0.951 . S
C1714 C1715 1.366 . S
C1714 C1716 1.388 . S
C1715 C1714 1.366 . S
C1715 C1719 1.385 . S
C1716 H1697 0.951 . S
C1716 C1714 1.388 . S
C1716 C1717 1.366 . S
C1717 C1716 1.366 . S
C1717 C1718 1.414 . S
C1717 C1720 1.499 . S
C1718 H1698 0.950 . S
C1718 C1717 1.414 . S
C1718 C1719 1.374 . S
C1719 H1699 0.950 . S
C1719 C1715 1.385 . S
C1719 C1718 1.374 . S
C1720 C1717 1.499 . S
C1720 C1721 1.373 . S
C1720 C1722 1.389 . S
C1721 H1700 0.950 . S
C1721 C1720 1.373 . S
C1721 C1737 1.377 1_545 S
C1722 C1720 1.389 . S
C1722 C1723 1.524 . S
C1722 C1736 1.377 1_545 S
C1723 C1722 1.524 . S
C1723 C1724 1.397 . S
C1723 C1728 1.363 . S
C1724 H1701 0.950 . S
C1724 C1723 1.397 . S
C1724 C1725 1.334 . S
C1725 H1702 0.950 . S
C1725 C1724 1.334 . S
C1725 C1726 1.287 . S
C1726 C1725 1.287 . S
C1726 C1727 1.524 . S
C1726 H1745 0.913 . S
C1727 H1703 0.950 . S
C1727 C1726 1.524 . S
C1727 C1728 1.415 . S
C1728 H1704 0.940 1_545 S
C1728 C1723 1.363 . S
C1728 C1727 1.415 . S
C1729 H1705 0.951 . S
C1729 C1730 1.366 . S
C1729 C1731 1.388 . S
C1730 C1729 1.366 . S
C1730 C1734 1.385 . S
C1731 H1706 0.951 . S
C1731 C1729 1.388 . S
C1731 C1732 1.366 . S
C1732 C1731 1.366 . S
C1732 C1733 1.414 . S
C1732 C1735 1.499 . S
C1733 H1707 0.950 . S
C1733 C1732 1.414 . S
C1733 C1734 1.374 . S
C1734 H1708 0.950 . S
C1734 C1730 1.385 . S
C1734 C1733 1.374 . S
C1735 C1732 1.499 . S
C1735 C1736 1.373 . S
C1735 C1737 1.389 . S
C1736 H1709 0.950 . S
C1736 C1722 1.377 1_565 S
C1736 C1735 1.373 . S
C1737 C1721 1.377 1_565 S
C1737 C1735 1.389 . S
C1737 C1738 1.524 . S
C1738 C1737 1.524 . S
C1738 C1739 1.397 . S
C1738 C1743 1.363 . S
C1739 H1710 0.950 . S
C1739 C1738 1.397 . S
C1739 C1740 1.334 . S
C1740 H1711 0.950 . S
C1740 C1739 1.334 . S
C1740 C1741 1.287 . S
C1741 C1740 1.287 . S
C1741 C1742 1.524 . S
C1741 H1744 0.999 . S
C1742 H1712 0.950 . S
C1742 C1741 1.524 . S
C1742 C1743 1.415 . S
C1743 H1713 0.940 1_565 S
C1743 C1738 1.363 . S
C1743 C1742 1.415 . S
H1744 C1741 0.999 . S
H1745 C1726 0.913 . S
H1746 C1764 0.951 . S
H1747 C1766 0.951 . S
H1748 C1768 0.950 . S
H1749 C1769 0.950 . S
H1750 C1771 0.950 . S
H1751 C1774 0.950 . S
H1752 C1775 0.950 . S
H1753 C1777 0.950 . S
H1754 C1778 0.950 . S
H1755 C1779 0.951 . S
H1756 C1781 0.951 . S
H1757 C1783 0.950 . S
H1758 C1784 0.950 . S
H1759 C1786 0.950 . S
H1760 C1789 0.950 . S
H1761 C1790 0.950 . S
H1762 C1792 0.950 . S
H1763 C1793 0.950 . S
C1764 H1746 0.951 . S
C1764 C1765 1.366 . S
C1764 C1766 1.388 . S
C1765 C1764 1.366 . S
C1765 C1769 1.385 . S
C1766 H1747 0.951 . S
C1766 C1764 1.388 . S
C1766 C1767 1.366 . S
C1767 C1766 1.366 . S
C1767 C1768 1.414 . S
C1767 C1770 1.499 . S
C1768 H1748 0.950 . S
C1768 C1767 1.414 . S
C1768 C1769 1.374 . S
C1769 H1749 0.950 . S
C1769 C1765 1.385 . S
C1769 C1768 1.374 . S
C1770 C1767 1.499 . S
C1770 C1771 1.373 . S
C1770 C1772 1.389 . S
C1771 H1750 0.950 . S
C1771 C1770 1.373 . S
C1771 C1787 1.377 . S
C1772 C1770 1.389 . S
C1772 C1773 1.524 . S
C1772 C1786 1.377 . S
C1773 C1772 1.524 . S
C1773 C1774 1.397 . S
C1773 C1778 1.363 . S
C1774 H1751 0.950 . S
C1774 C1773 1.397 . S
C1774 C1775 1.334 . S
C1775 H1752 0.950 . S
C1775 C1774 1.334 . S
C1775 C1776 1.287 . S
C1776 C1775 1.287 . S
C1776 C1777 1.524 . S
C1776 H1795 0.913 . S
C1777 H1753 0.950 . S
C1777 C1776 1.524 . S
C1777 C1778 1.415 . S
C1778 H1754 0.950 . S
C1778 C1773 1.363 . S
C1778 C1777 1.415 . S
C1779 H1755 0.951 . S
C1779 C1780 1.366 . S
C1779 C1781 1.388 . S
C1780 C1779 1.366 . S
C1780 C1784 1.385 . S
C1781 H1756 0.951 . S
C1781 C1779 1.388 . S
C1781 C1782 1.366 . S
C1782 C1781 1.366 . S
C1782 C1783 1.414 . S
C1782 C1785 1.499 . S
C1783 H1757 0.950 . S
C1783 C1782 1.414 . S
C1783 C1784 1.374 . S
C1784 H1758 0.950 . S
C1784 C1780 1.385 . S
C1784 C1783 1.374 . S
C1785 C1782 1.499 . S
C1785 C1786 1.373 . S
C1785 C1787 1.389 . S
C1786 H1759 0.950 . S
C1786 C1772 1.377 . S
C1786 C1785 1.373 . S
C1787 C1771 1.377 . S
C1787 C1785 1.389 . S
C1787 C1788 1.524 . S
C1788 C1787 1.524 . S
C1788 C1789 1.397 . S
C1788 C1793 1.363 . S
C1789 H1760 0.950 . S
C1789 C1788 1.397 . S
C1789 C1790 1.334 . S
C1790 H1761 0.950 . S
C1790 C1789 1.334 . S
C1790 C1791 1.287 . S
C1791 C1790 1.287 . S
C1791 C1792 1.524 . S
C1791 H1794 0.999 . S
C1792 H1762 0.950 . S
C1792 C1791 1.524 . S
C1792 C1793 1.415 . S
C1793 H1763 0.950 . S
C1793 C1788 1.363 . S
C1793 C1792 1.415 . S
H1794 C1791 0.999 . S
H1795 C1776 0.913 . S
H1796 C1814 0.951 . S
H1797 C1816 0.951 . S
H1798 C1818 0.950 . S
H1799 C1819 0.950 . S
H1800 C1821 0.950 . S
H1801 C1824 0.950 . S
H1802 C1825 0.950 . S
H1803 C1827 0.950 . S
H1804 C1828 0.950 . S
H1805 C1829 0.951 . S
H1806 C1831 0.951 . S
H1807 C1833 0.950 . S
H1808 C1834 0.950 . S
H1809 C1836 0.950 . S
H1810 C1839 0.950 . S
H1811 C1840 0.950 . S
H1812 C1842 0.950 . S
H1813 C1843 0.950 . S
C1814 H1796 0.951 . S
C1814 C1815 1.366 . S
C1814 C1816 1.388 . S
C1815 C1814 1.366 . S
C1815 C1819 1.385 . S
C1816 H1797 0.951 . S
C1816 C1814 1.388 . S
C1816 C1817 1.366 . S
C1817 C1816 1.366 . S
C1817 C1818 1.414 . S
C1817 C1820 1.499 . S
C1818 H1798 0.950 . S
C1818 C1817 1.414 . S
C1818 C1819 1.374 . S
C1819 H1799 0.950 . S
C1819 C1815 1.385 . S
C1819 C1818 1.374 . S
C1820 C1817 1.499 . S
C1820 C1821 1.373 . S
C1820 C1822 1.389 . S
C1821 H1800 0.950 . S
C1821 C1820 1.373 . S
C1821 C1837 1.377 1_455 S
C1822 C1820 1.389 . S
C1822 C1823 1.524 . S
C1822 C1836 1.377 1_455 S
C1823 C1822 1.524 . S
C1823 C1824 1.397 . S
C1823 C1828 1.363 . S
C1824 H1801 0.950 . S
C1824 C1823 1.397 . S
C1824 C1825 1.334 . S
C1825 H1802 0.950 . S
C1825 C1824 1.334 . S
C1825 C1826 1.287 1_556 S
C1826 C1825 1.287 1_554 S
C1826 C1827 1.524 . S
C1826 H1845 0.913 . S
C1827 H1803 0.950 . S
C1827 C1826 1.524 . S
C1827 C1828 1.415 1_554 S
C1828 H1804 0.950 . S
C1828 C1823 1.363 . S
C1828 C1827 1.415 1_556 S
C1829 H1805 0.951 . S
C1829 C1830 1.366 . S
C1829 C1831 1.388 . S
C1830 C1829 1.366 . S
C1830 C1834 1.385 . S
C1831 H1806 0.951 . S
C1831 C1829 1.388 . S
C1831 C1832 1.366 . S
C1832 C1831 1.366 . S
C1832 C1833 1.414 . S
C1832 C1835 1.499 . S
C1833 H1807 0.950 . S
C1833 C1832 1.414 . S
C1833 C1834 1.374 . S
C1834 H1808 0.950 . S
C1834 C1830 1.385 . S
C1834 C1833 1.374 . S
C1835 C1832 1.499 . S
C1835 C1836 1.373 . S
C1835 C1837 1.389 . S
C1836 H1809 0.950 . S
C1836 C1822 1.377 1_655 S
C1836 C1835 1.373 . S
C1837 C1821 1.377 1_655 S
C1837 C1835 1.389 . S
C1837 C1838 1.524 . S
C1838 C1837 1.524 . S
C1838 C1839 1.397 . S
C1838 C1843 1.363 . S
C1839 H1810 0.950 . S
C1839 C1838 1.397 . S
C1839 C1840 1.334 . S
C1840 H1811 0.950 . S
C1840 C1839 1.334 . S
C1840 C1841 1.287 . S
C1841 C1840 1.287 . S
C1841 C1842 1.524 . S
C1841 H1844 0.999 . S
C1842 H1812 0.950 . S
C1842 C1841 1.524 . S
C1842 C1843 1.415 . S
C1843 H1813 0.950 . S
C1843 C1838 1.363 . S
C1843 C1842 1.415 . S
H1844 C1841 0.999 . S
H1845 C1826 0.913 . S
H1846 C1864 0.951 . S
H1847 C1866 0.951 . S
H1848 C1868 0.950 . S
H1849 C1869 0.950 . S
H1850 C1871 0.950 . S
H1851 C1874 0.950 1_554 S
H1852 C1875 0.955 . S
H1853 C1877 0.950 . S
H1854 C1878 0.950 1_565 S
H1855 C1879 0.951 . S
H1856 C1881 0.951 . S
H1857 C1883 0.950 . S
H1858 C1884 0.950 . S
H1859 C1886 0.950 . S
H1860 C1889 0.950 1_556 S
H1861 C1890 0.953 . S
H1862 C1892 0.950 . S
H1863 C1893 0.950 1_545 S
C1864 H1846 0.951 . S
C1864 C1865 1.366 . S
C1864 C1866 1.388 . S
C1865 C1864 1.366 . S
C1865 C1869 1.385 1_556 S
C1866 H1847 0.951 . S
C1866 C1864 1.388 . S
C1866 C1867 1.366 . S
C1867 C1866 1.366 . S
C1867 C1868 1.414 1_556 S
C1867 C1870 1.499 . S
C1868 H1848 0.950 . S
C1868 C1867 1.414 1_554 S
C1868 C1869 1.374 . S
C1869 H1849 0.950 . S
C1869 C1865 1.385 1_554 S
C1869 C1868 1.374 . S
C1870 C1867 1.499 . S
C1870 C1871 1.373 1_556 S
C1870 C1872 1.389 . S
C1871 H1850 0.950 . S
C1871 C1870 1.373 1_554 S
C1871 C1887 1.377 1_545 S
C1872 C1870 1.389 . S
C1872 C1873 1.524 . S
C1872 C1886 1.377 1_545 S
C1873 C1872 1.524 . S
C1873 C1874 1.397 . S
C1873 C1878 1.363 . S
C1874 H1851 0.950 1_556 S
C1874 C1873 1.397 . S
C1874 C1875 1.334 . S
C1875 H1852 0.955 . S
C1875 C1874 1.334 . S
C1875 C1876 1.287 . S
C1876 C1875 1.287 . S
C1876 C1877 1.524 . S
C1876 H1895 0.913 . S
C1877 H1853 0.950 . S
C1877 C1876 1.524 . S
C1877 C1878 1.415 . S
C1878 H1854 0.950 1_545 S
C1878 C1873 1.363 . S
C1878 C1877 1.415 . S
C1879 H1855 0.951 . S
C1879 C1880 1.366 . S
C1879 C1881 1.388 . S
C1880 C1879 1.366 . S
C1880 C1884 1.385 1_554 S
C1881 H1856 0.951 . S
C1881 C1879 1.388 . S
C1881 C1882 1.366 . S
C1882 C1881 1.366 . S
C1882 C1883 1.414 1_554 S
C1882 C1885 1.499 . S
C1883 H1857 0.950 . S
C1883 C1882 1.414 1_556 S
C1883 C1884 1.374 . S
C1884 H1858 0.950 . S
C1884 C1880 1.385 1_556 S
C1884 C1883 1.374 . S
C1885 C1882 1.499 . S
C1885 C1886 1.373 1_554 S
C1885 C1887 1.389 . S
C1886 H1859 0.950 . S
C1886 C1872 1.377 1_565 S
C1886 C1885 1.373 1_556 S
C1887 C1871 1.377 1_565 S
C1887 C1885 1.389 . S
C1887 C1888 1.524 . S
C1888 C1887 1.524 . S
C1888 C1889 1.397 . S
C1888 C1893 1.363 . S
C1889 H1860 0.950 1_554 S
C1889 C1888 1.397 . S
C1889 C1890 1.334 . S
C1890 H1861 0.953 . S
C1890 C1889 1.334 . S
C1890 C1891 1.287 . S
C1891 C1890 1.287 . S
C1891 C1892 1.524 . S
C1891 H1894 0.999 . S
C1892 H1862 0.950 . S
C1892 C1891 1.524 . S
C1892 C1893 1.415 . S
C1893 H1863 0.950 1_565 S
C1893 C1888 1.363 . S
C1893 C1892 1.415 . S
H1894 C1891 0.999 . S
H1895 C1876 0.913 . S
C415 N13 1.086 . S
C430 N2 1.085 . S
C465 N35 1.085 . S
C480 N46 1.086 . S
C515 N68 1.086 . S
C530 N79 1.087 . S
C565 N112 1.087 . S
C580 N101 1.086 . S
C615 N145 1.104 . S
C630 N134 1.086 . S
C665 N167 1.086 . S
C680 N178 1.087 . S
C715 N211 1.087 . S
C730 N200 1.086 . S
C765 N244 1.087 . S
C780 N233 1.086 . S
C815 N266 1.086 . S
C830 N277 1.087 . S
C865 N310 1.105 . S
C880 N299 1.086 . S
C915 N343 1.086 . S
C930 N332 1.085 . S
C965 N365 1.085 . S
C980 N376 1.086 . S
C1015 C205 1.551 . S
C1030 C7 1.551 . S
C1065 C40 1.551 . S
C1080 C238 1.550 . S
C1115 C271 1.550 . S
C1130 C73 1.550 . S
C1165 C304 1.551 . S
C1180 C106 1.550 . S
C1215 C337 1.551 . S
C1230 C139 1.551 . S
C1265 C370 1.551 . S
C1280 C172 1.550 . S
C1315 C18 1.092 . S
C1330 C348 1.093 . S
C1365 C51 1.092 . S
C1380 C381 1.092 . S
C1415 C84 1.093 . S
C1430 C216 1.092 . S
C1465 C249 1.093 . S
C1480 C117 1.093 . S
C1515 C282 1.091 . S
C1530 C150 1.092 . S
C1565 C315 1.093 . S
C1580 C183 1.093 . S
C1615 C21 1.398 . S
C1630 C318 1.398 . S
C1665 C54 1.398 . S
C1680 C351 1.398 . S
C1715 C384 1.398 . S
C1730 C87 1.398 . S
C1765 C120 1.398 . S
C1780 C219 1.398 . S
C1815 C153 1.398 . S
C1830 C252 1.398 . S
C1865 C186 1.398 . S
C1880 C285 1.398 . S
