# Generated by pormake.
# Topology sml, (6)-cn, num edge types: 1
# Building blocks:
#     Node 0, Type 0, BuildingBlock: BETDIP_clean_sbu_0, # of connection points: 6
#     Node 1, Type 0, BuildingBlock: BETDIP_clean_sbu_0, # of connection points: 6
#     Node 2, Type 0, BuildingBlock: BETDIP_clean_sbu_0, # of connection points: 6
#     Node 3, Type 0, BuildingBlock: BETDIP_clean_sbu_0, # of connection points: 6
#     Node 4, Type 0, BuildingBlock: BETDIP_clean_sbu_0, # of connection points: 6
#     Node 5, Type 0, BuildingBlock: BETDIP_clean_sbu_0, # of connection points: 6
#     Edge 6, Type (0, 0), BuildingBlock: EZIPEK_clean_linker_0, # of connection points: 2
#     Edge 7, Type (0, 0), BuildingBlock: EZIPEK_clean_linker_0, # of connection points: 2
#     Edge 8, Type (0, 0), BuildingBlock: EZIPEK_clean_linker_0, # of connection points: 2
#     Edge 9, Type (0, 0), BuildingBlock: EZIPEK_clean_linker_0, # of connection points: 2
#     Edge 10, Type (0, 0), BuildingBlock: EZIPEK_clean_linker_0, # of connection points: 2
#     Edge 11, Type (0, 0), BuildingBlock: EZIPEK_clean_linker_0, # of connection points: 2
#     Edge 12, Type (0, 0), BuildingBlock: EZIPEK_clean_linker_0, # of connection points: 2
#     Edge 13, Type (0, 0), BuildingBlock: EZIPEK_clean_linker_0, # of connection points: 2
#     Edge 14, Type (0, 0), BuildingBlock: EZIPEK_clean_linker_0, # of connection points: 2
#     Edge 15, Type (0, 0), BuildingBlock: EZIPEK_clean_linker_0, # of connection points: 2
#     Edge 16, Type (0, 0), BuildingBlock: EZIPEK_clean_linker_0, # of connection points: 2
#     Edge 17, Type (0, 0), BuildingBlock: EZIPEK_clean_linker_0, # of connection points: 2
#     Edge 18, Type (0, 0), BuildingBlock: EZIPEK_clean_linker_0, # of connection points: 2
#     Edge 19, Type (0, 0), BuildingBlock: EZIPEK_clean_linker_0, # of connection points: 2
#     Edge 20, Type (0, 0), BuildingBlock: EZIPEK_clean_linker_0, # of connection points: 2
#     Edge 21, Type (0, 0), BuildingBlock: EZIPEK_clean_linker_0, # of connection points: 2
#     Edge 22, Type (0, 0), BuildingBlock: EZIPEK_clean_linker_0, # of connection points: 2
#     Edge 23, Type (0, 0), BuildingBlock: EZIPEK_clean_linker_0, # of connection points: 2
# Relax obj value: 0.322
# Max RMSD: 0.298
# Mean RMSD: 0.298
data_MOF--net-sml--node1-BETDIP_clean_sbu_0--edge1-EZIPEK_clean_linker_0
_symmetry_space_group_name_H-M    P1
_symmetry_Int_Tables_number       1
_symmetry_cell_setting            triclinic
loop_
_symmetry_equiv_pos_as_xyz
'x, y, z'
_cell_length_a     21.904078
_cell_length_b     21.942214
_cell_length_c     20.167187
_cell_angle_alpha  90.117762
_cell_angle_beta   89.4613
_cell_angle_gamma 120.78709
loop_
_atom_site_label
_atom_site_type_symbol
_atom_site_fract_x
_atom_site_fract_y
_atom_site_fract_z
_atom_type_partial_charge
Tb0 Tb 0.16031 0.4053 1.01533 0.0
Tb1 Tb 0.25412 0.39426 0.1208 0.0
C2 C 0.1153 0.42244 0.90685 0.0
C3 C 0.13421 0.42172 0.83646 0.0
C4 C 0.20482 0.44631 0.81678 0.0
C5 C 0.2215 0.44306 0.75021 0.0
C6 C 0.16766 0.41357 0.70238 0.0
C7 C 0.09703 0.38883 0.72213 0.0
C8 C 0.08062 0.39354 0.78853 0.0
C9 C 0.08856 0.31641 0.11227 0.0
C10 C 0.24159 0.32123 0.9859 0.0
C11 C 0.30571 0.38053 0.22741 0.0
C12 C 0.28948 0.38346 0.29896 0.0
C13 C 0.24401 0.32106 0.33475 0.0
C14 C 0.22287 0.32462 0.39982 0.0
C15 C 0.24864 0.3905 0.43135 0.0
C16 C 0.29689 0.45258 0.3969 0.0
C17 C 0.31661 0.44916 0.33141 0.0
C18 C 0.32275 0.48987 1.02711 0.0
C19 C 0.18145 0.48945 0.14498 0.0
O20 O 0.16263 0.47492 0.94299 0.0
O21 O 0.0869 0.36136 0.93785 0.0
O22 O 0.14689 0.32689 0.08816 0.0
O23 O 0.06502 0.34844 0.07607 0.0
O24 O 0.21363 0.35786 0.96304 0.0
O25 O 0.25392 0.31935 0.04971 0.0
O26 O 0.2584 0.32639 0.19284 0.0
O27 O 0.33176 0.43995 0.19418 0.0
O28 O 0.26377 0.47256 0.05312 0.0
O29 O 0.34628 0.45299 0.05529 0.0
O30 O 0.21353 0.45701 0.16901 0.0
O31 O 0.16063 0.48275 0.08266 0.0
H32 H 0.24695 0.46713 0.85294 0.0
H33 H 0.27625 0.46203 0.73619 0.0
H34 H 0.05465 0.3655 0.68619 0.0
H35 H 0.0259 0.37431 0.80269 0.0
H36 H 0.22268 0.26958 0.31164 0.0
H37 H 0.18604 0.27593 0.42555 0.0
H38 H 0.31821 0.50394 0.42034 0.0
H39 H 0.35214 0.49826 0.30584 0.0
Tb40 Tb 0.71513 0.16305 0.31963 0.0
Tb41 Tb 0.82084 0.2436 0.42333 0.0
C42 C 0.65199 0.12186 0.21073 0.0
C43 C 0.67361 0.13325 0.14 0.0
C44 C 0.65705 0.17548 0.10062 0.0
C45 C 0.67942 0.18947 0.0345 0.0
C46 C 0.71788 0.16071 1.00609 0.0
C47 C 0.73233 0.11636 0.04459 0.0
C48 C 0.71118 0.10345 0.11122 0.0
C49 C 0.70728 0.08337 0.42176 0.0
C50 C 0.87423 0.19601 0.30688 0.0
C51 C 0.88271 0.29679 0.53113 0.0
C52 C 0.86034 0.27711 0.60069 0.0
C53 C 0.80399 0.20893 0.61636 0.0
C54 C 0.78335 0.18909 0.68215 0.0
C55 C 0.81571 0.23856 0.73343 0.0
C56 C 0.8705 0.3079 0.71751 0.0
C57 C 0.89338 0.3267 0.65163 0.0
C58 C 0.831 0.31751 0.3153 0.0
C59 C 0.65969 0.19846 0.4441 0.0
O60 O 0.66026 0.17756 0.2426 0.0
O61 O 0.67085 0.08449 0.24636 0.0
O62 O 0.76343 0.13353 0.39643 0.0
O63 O 0.65367 0.07587 0.38818 0.0
O64 O 0.81699 0.18661 0.27594 0.0
O65 O 0.87919 0.20302 0.37162 0.0
O66 O 0.84715 0.31956 0.49821 0.0
O67 O 0.89188 0.25149 0.49668 0.0
O68 O 0.77506 0.27191 0.34436 0.0
O69 O 0.88403 0.32996 0.35206 0.0
O70 O 0.71814 0.20735 0.47153 0.0
O71 O 0.6513 0.1922 0.37944 0.0
H72 H 0.62775 0.19872 0.12127 0.0
H73 H 0.66761 0.22361 1.00557 0.0
H74 H 0.76132 0.09305 1.02341 0.0
H75 H 0.72498 0.07083 0.14016 0.0
H76 H 0.77546 0.17117 0.57762 0.0
H77 H 0.74061 0.13559 0.69296 0.0
H78 H 0.8958 0.34719 0.75614 0.0
H79 H 0.93623 0.38002 0.6404 0.0
Tb80 Tb 0.53628 0.72344 0.67378 0.0
Tb81 Tb 0.55566 0.83696 0.77777 0.0
C82 C 0.50962 0.65975 0.56425 0.0
C83 C 0.52214 0.68051 0.49278 0.0
C84 C 0.47397 0.69278 0.4579 0.0
C85 C 0.48703 0.71524 0.39166 0.0
C86 C 0.54732 0.72384 0.35793 0.0
C87 C 0.59354 0.70802 0.39137 0.0
C88 C 0.58164 0.68751 0.45833 0.0
C89 C 0.61523 0.73689 0.77678 0.0
C90 C 0.63314 0.88749 0.6388 0.0
C91 C 0.58824 0.90266 0.88638 0.0
C92 C 0.58375 0.88204 0.9574 0.0
C93 C 0.64536 0.89536 0.99095 0.0
C94 C 0.6411 0.8709 0.05589 0.0
C95 C 0.57524 0.8331 0.0892 0.0
C96 C 0.51409 0.82298 0.05698 0.0
C97 C 0.51815 0.84672 0.99172 0.0
C98 C 0.4697 0.82096 0.68289 0.0
C99 C 0.4409 0.66848 0.79861 0.0
O100 O 0.46491 0.67237 0.59638 0.0
O101 O 0.56512 0.67428 0.60023 0.0
O102 O 0.61253 0.78656 0.74769 0.0
O103 O 0.58072 0.67916 0.74194 0.0
O104 O 0.61423 0.82129 0.62631 0.0
O105 O 0.62137 0.90864 0.69705 0.0
O106 O 0.63382 0.89599 0.84881 0.0
O107 O 0.52798 0.88141 0.85604 0.0
O108 O 0.4808 0.77417 0.70651 0.0
O109 O 0.49986 0.8768 0.72063 0.0
O110 O 0.47353 0.73471 0.8208 0.0
O111 O 0.45096 0.65149 0.73845 0.0
H112 H 0.42685 0.68668 0.48217 0.0
H113 H 0.45013 0.72626 0.3667 0.0
H114 H 0.63982 0.71342 0.36607 0.0
H115 H 0.61937 0.67775 0.48323 0.0
H116 H 0.69672 0.92299 0.96628 0.0
H117 H 0.68919 0.88004 0.07972 0.0
H118 H 0.46285 0.79491 0.0818 0.0
H119 H 0.46957 0.83611 0.96789 0.0
Tb120 Tb 0.8243 0.5805 0.98458 0.0
Tb121 Tb 0.72955 0.58156 0.09772 0.0
C122 C 0.8594 0.54457 0.87965 0.0
C123 C 0.84633 0.55215 0.80849 0.0
C124 C 0.79067 0.49484 0.77431 0.0
C125 C 0.77538 0.50276 0.70863 0.0
C126 C 0.81558 0.568 0.67557 0.0
C127 C 0.87172 0.62501 0.70901 0.0
C128 C 0.88718 0.61719 0.77465 0.0
C129 C 0.89092 0.67658 0.07751 0.0
C130 C 0.76469 0.68284 0.97024 0.0
C131 C 0.69029 0.61344 0.20282 0.0
C132 C 0.70325 0.60479 0.27341 0.0
C133 C 0.73098 0.66347 0.31614 0.0
C134 C 0.74824 0.65773 0.38171 0.0
C135 C 0.73865 0.59329 0.40561 0.0
C136 C 0.71046 0.53434 0.36325 0.0
C137 C 0.69304 0.54 0.29772 0.0
C138 C 0.66492 0.48934 1.00212 0.0
C139 C 0.79776 0.48645 0.11657 0.0
O140 O 0.80335 0.50071 0.91535 0.0
O141 O 0.90221 0.60316 0.91184 0.0
O142 O 0.83865 0.61475 0.08463 0.0
O143 O 0.91077 0.68446 1.01547 0.0
O144 O 0.79042 0.64742 0.93949 0.0
O145 O 0.74025 0.66688 1.03234 0.0
O146 O 0.74659 0.65869 0.16866 0.0
O147 O 0.64937 0.55546 0.16921 0.0
O148 O 0.71755 0.55044 0.99783 0.0
O149 O 0.63928 0.48012 0.06195 0.0
O150 O 0.76063 0.51269 0.14263 0.0
O151 O 0.82566 0.50367 0.0555 0.0
H152 H 0.75819 0.44403 0.79867 0.0
H153 H 0.73176 0.4581 0.68371 0.0
H154 H 0.9029 0.67586 0.68451 0.0
H155 H 0.9305 0.66252 0.79908 0.0
H156 H 0.74025 0.71414 0.29844 0.0
H157 H 0.76996 0.70382 0.4136 0.0
H158 H 0.70242 0.4841 0.38082 0.0
H159 H 0.67264 0.49394 0.2659 0.0
Tb160 Tb 0.24706 0.82607 0.33119 0.0
Tb161 Tb 0.13045 0.73854 0.43471 0.0
C162 C 0.31104 0.85567 0.22098 0.0
C163 C 0.2889 0.84314 0.15053 0.0
C164 C 0.31888 0.81496 0.10728 0.0
C165 C 0.29619 0.79875 0.04146 0.0
C166 C 0.24255 0.80986 1.01783 0.0
C167 C 0.21275 0.83844 0.06074 0.0
C168 C 0.23588 0.85522 0.12645 0.0
C169 C 0.23957 0.90077 0.43041 0.0
C170 C 0.0836 0.76668 0.29821 0.0
C171 C 0.06573 0.70369 0.54452 0.0
C172 C 0.08983 0.71545 0.61458 0.0
C173 C 0.06395 0.74599 0.65969 0.0
C174 C 0.08864 0.7603 0.72511 0.0
C175 C 0.13968 0.74427 0.74662 0.0
C176 C 0.16522 0.71316 0.70193 0.0
C177 C 0.1407 0.69899 0.63655 0.0
C178 C 0.14376 0.66264 0.34103 0.0
C179 C 0.29552 0.78809 0.4589 0.0
O180 O 0.29462 0.79862 0.2553 0.0
O181 O 0.30015 0.90046 0.25482 0.0
O182 O 0.18711 0.84746 0.40322 0.0
O183 O 0.29692 0.91835 0.39601 0.0
O184 O 0.15131 0.80702 0.28258 0.0
O185 O 0.06073 0.73741 0.35762 0.0
O186 O 0.07699 0.75968 0.51076 0.0
O187 O 0.0799 0.66214 0.50936 0.0
O188 O 0.1921 0.71976 0.36606 0.0
O189 O 0.08585 0.64187 0.37544 0.0
O190 O 0.22944 0.75963 0.48108 0.0
O191 O 0.31445 0.81073 0.39748 0.0
H192 H 0.35943 0.80475 0.12476 0.0
H193 H 0.31999 0.77697 1.00909 0.0
H194 H 0.17135 0.84744 0.04339 0.0
H195 H 0.21133 0.87634 0.15863 0.0
H196 H 0.02544 0.75985 0.64396 0.0
H197 H 0.06831 0.78433 0.75886 0.0
H198 H 0.2047 0.70054 0.71751 0.0
H199 H 0.16236 0.67598 0.60309 0.0
Tb200 Tb 0.43473 0.2754 0.64708 0.0
Tb201 Tb 0.38504 0.15754 0.75509 0.0
C202 C 0.48254 0.34119 0.53937 0.0
C203 C 0.47579 0.32014 0.46864 0.0
C204 C 0.53575 0.33031 0.43276 0.0
C205 C 0.52943 0.30805 0.36668 0.0
C206 C 0.46306 0.27557 0.33552 0.0
C207 C 0.40349 0.26634 0.37077 0.0
C208 C 0.40979 0.28839 0.43664 0.0
C209 C 0.35477 0.27971 0.7437 0.0
C210 C 0.30528 0.11514 0.62036 0.0
C211 C 0.34744 0.09592 0.86522 0.0
C212 C 0.36653 0.12066 0.93474 0.0
C213 C 0.32921 0.14694 0.97022 0.0
C214 C 0.34832 0.17177 0.03507 0.0
C215 C 0.40491 0.17062 0.06588 0.0
C216 C 0.44226 0.14436 1.03093 0.0
C217 C 0.42302 0.11923 0.9661 0.0
C218 C 0.47004 0.15958 0.66084 0.0
C219 C 0.51948 0.31318 0.77981 0.0
O220 O 0.51748 0.32078 0.57664 0.0
O221 O 0.42573 0.33369 0.56951 0.0
O222 O 0.35063 0.22522 0.71803 0.0
O223 O 0.39908 0.33444 0.70822 0.0
O224 O 0.35697 0.1769 0.59645 0.0
O225 O 0.30156 0.09862 0.6841 0.0
O226 O 0.31041 0.11789 0.83296 0.0
O227 O 0.39772 0.09731 0.82822 0.0
O228 O 0.46965 0.21081 0.68758 0.0
O229 O 0.42506 0.10202 0.69267 0.0
O230 O 0.46576 0.25375 0.80468 0.0
O231 O 0.52192 0.33039 0.71652 0.0
H232 H 0.58736 0.35484 0.45606 0.0
H233 H 0.57603 0.31567 0.34005 0.0
H234 H 0.35194 0.24156 0.34735 0.0
H235 H 0.36268 0.27964 0.4626 0.0
H236 H 0.28541 0.14875 0.94782 0.0
H237 H 0.31911 0.19217 0.06123 0.0
H238 H 0.48631 0.14341 0.05385 0.0
H239 H 0.45277 0.09916 0.9404 0.0
C240 C 0.25026 0.23808 0.82348 0.0
C241 C 0.3243 0.28253 0.80988 0.0
C242 C 0.34177 0.32166 0.92612 0.0
C243 C 0.26777 0.29036 0.93508 0.0
N244 N 0.14973 0.21658 0.89307 0.0
N245 N 0.43774 0.37921 0.84794 0.0
C246 C 0.22143 0.24713 0.8841 0.0
C247 C 0.36937 0.3276 0.86107 0.0
N248 N 0.2071 0.18866 0.7782 0.0
N249 N 0.38622 0.34712 0.97916 0.0
H250 H 0.45976 0.39199 0.80073 0.0
H251 H 0.47029 0.4157 0.88332 0.0
H252 H 0.36801 0.34109 1.0279 0.0
H253 H 0.44043 0.36558 0.97551 0.0
H254 H 0.15458 0.14987 0.78841 0.0
H255 H 0.22462 0.18357 0.73146 0.0
H256 H 0.11303 0.19228 0.85522 0.0
H257 H 0.12735 0.21827 0.93849 0.0
C258 C 0.97843 0.20692 0.15332 0.0
C259 C 0.04526 0.26757 0.16717 0.0
C260 C 0.00514 0.2729 0.2794 0.0
C261 C 0.93755 0.21195 0.26607 0.0
N262 N 0.86826 0.10908 0.19775 0.0
N263 N 0.12855 0.33869 0.25016 0.0
C264 C 0.92715 0.17479 0.20539 0.0
C265 C 0.06043 0.29363 0.23254 0.0
N266 N 0.96314 0.1818 0.08999 0.0
N267 N 0.01684 0.31517 0.33352 0.0
H268 H 0.16885 0.34807 0.21762 0.0
H269 H 0.14445 0.35769 0.29806 0.0
H270 H 0.98306 0.30324 0.37388 0.0
H271 H 0.06058 0.3665 0.33676 0.0
H272 H 0.91238 0.14341 0.07483 0.0
H273 H 0.00122 0.20212 0.05198 0.0
H274 H 0.85996 0.07728 0.15643 0.0
H275 H 0.83125 0.08362 0.23599 0.0
C276 C 0.64226 0.95888 0.46388 0.0
C277 C 0.70152 0.02813 0.46923 0.0
C278 C 0.72532 0.00063 0.58079 0.0
C279 C 0.65921 0.93578 0.57993 0.0
N280 N 0.55468 0.85139 0.51763 0.0
N281 N 0.8185 0.09573 0.51516 0.0
C282 C 0.61838 0.91378 0.5202 0.0
C283 C 0.74903 0.04405 0.52265 0.0
N284 N 0.61187 0.93475 0.40317 0.0
N285 N 0.7657 0.02057 0.63671 0.0
H286 H 0.83902 0.12049 0.46984 0.0
H287 H 0.85744 0.10688 0.5502 0.0
H288 H 0.75259 0.98798 0.67837 0.0
H289 H 0.8104 0.0707 0.64299 0.0
H290 H 0.57123 0.88324 0.39345 0.0
H291 H 0.63414 0.96358 0.35964 0.0
H292 H 0.51866 0.83797 0.4793 0.0
H293 H 0.53246 0.81502 0.55604 0.0
C294 C 0.73125 0.74935 0.81147 0.0
C295 C 0.66694 0.7463 0.82942 0.0
C296 C 0.69033 0.73728 0.94712 0.0
C297 C 0.74645 0.7271 0.92783 0.0
N298 N 0.84066 0.7579 0.84882 0.0
N299 N 0.5883 0.74323 0.91493 0.0
C300 C 0.77343 0.74403 0.86193 0.0
C301 C 0.6478 0.74249 0.89758 0.0
N302 N 0.75023 0.7541 0.74609 0.0
N303 N 0.68062 0.7464 1.01258 0.0
H304 H 0.56744 0.76412 0.88302 0.0
H305 H 0.5623 0.72634 0.96049 0.0
H306 H 0.72017 0.7591 0.04751 0.0
H307 H 0.63808 0.74957 1.03136 0.0
H308 H 0.7914 0.74746 0.72887 0.0
H309 H 0.72244 0.76167 0.70839 0.0
H310 H 0.86602 0.77498 0.80296 0.0
H311 H 0.87399 0.75998 0.88657 0.0
C312 C 0.04587 0.71282 0.18551 0.0
C313 C 0.03404 0.74541 0.24166 0.0
C314 C 0.93792 0.74714 0.1819 0.0
C315 C 0.9442 0.70646 0.13051 0.0
N316 N -0.00595 0.63639 0.09147 0.0
N317 N 0.96454 0.78827 0.29571 0.0
C318 C -0.00447 0.6857 0.13427 0.0
C319 C 0.97836 0.76057 0.24083 0.0
N320 N 0.1049 0.70684 0.18025 0.0
N321 N 0.89536 0.77507 0.17315 0.0
H322 H -0.00443 0.80247 0.33822 0.0
H323 H 0.91971 0.79292 0.30057 0.0
H324 H 0.86773 0.76827 0.12923 0.0
H325 H 0.89263 0.81003 0.20633 0.0
H326 H 0.1202 0.69346 0.13612 0.0
H327 H 0.14101 0.71785 0.21785 0.0
H328 H 0.02366 0.61197 0.09869 0.0
H329 H 0.95888 0.61429 0.05225 0.0
C330 C 0.26236 0.07282 0.50311 0.0
C331 C 0.25956 0.0577 0.57175 0.0
C332 C 0.22144 0.93485 0.54662 0.0
C333 C 0.23493 0.95128 0.47783 0.0
N334 N 0.26158 0.03532 0.38927 0.0
N335 N 0.1919 0.96604 0.65207 0.0
C336 C 0.25228 0.01998 0.45553 0.0
C337 C 0.22491 0.98605 0.59161 0.0
N338 N 0.26877 0.13549 0.48421 0.0
N339 N 0.21092 0.87251 0.57063 0.0
H340 H 0.18553 0.00109 0.68228 0.0
H341 H 0.16167 0.91319 0.66712 0.0
H342 H 0.20642 0.83308 0.53981 0.0
H343 H 0.21178 0.86273 0.62102 0.0
H344 H 0.26499 0.14838 0.43542 0.0
H345 H 0.26903 0.17095 0.51899 0.0
H346 H 0.28279 0.08627 0.37002 0.0
H347 H 0.2497 -0.00323 0.35317 0.0
C348 C 0.21257 0.36072 0.61809 0.0
C349 C 0.18516 0.4056 0.6323 0.0
C350 C 0.1885 0.43128 0.51326 0.0
C351 C 0.22545 0.39471 0.50054 0.0
N352 N 0.28408 0.33567 0.54384 0.0
N353 N 0.15582 0.49173 0.59436 0.0
C354 C 0.24043 0.36225 0.55381 0.0
C355 C 0.17538 0.44311 0.58008 0.0
N356 N 0.21022 0.31505 0.66547 0.0
N357 N 0.16382 0.4526 0.46158 0.0
H358 H 0.14762 0.50331 0.64264 0.0
H359 H 0.1536 0.52498 0.55893 0.0
H360 H 0.17071 0.4433 0.41211 0.0
H361 H 0.13056 0.47317 0.46774 0.0
H362 H 0.22253 0.2759 0.65567 0.0
H363 H 0.18886 0.31112 0.7128 0.0
H364 H 0.30112 0.31632 0.58206 0.0
H365 H 0.30906 0.33972 0.49853 0.0
C366 C 0.6933 0.16089 0.88456 0.0
C367 C 0.7432 0.17789 0.93602 0.0
C368 C 0.8394 0.22459 0.85324 0.0
C369 C 0.79087 0.21777 0.80344 0.0
N370 N 0.67295 0.19252 0.77582 0.0
N371 N 0.86615 0.23975 0.97019 0.0
C372 C 0.71805 0.18954 0.82024 0.0
C373 C 0.81706 0.21367 0.9207 0.0
N374 N 0.62241 0.11587 0.89656 0.0
N375 N 0.90584 0.23843 0.83617 0.0
H376 H 0.85242 0.23497 1.02031 0.0
H377 H 0.92051 0.27226 0.96114 0.0
H378 H 0.92314 0.24319 0.78709 0.0
H379 H 0.94083 0.23755 0.8703 0.0
H380 H 0.5845 0.09661 0.85923 0.0
H381 H 0.60239 0.09175 0.94251 0.0
H382 H 0.62052 0.17704 0.78728 0.0
H383 H 0.68982 0.21709 0.72968 0.0
C384 C 0.51741 0.70312 0.23604 0.0
C385 C 0.5607 0.74891 0.28738 0.0
C386 C 0.61089 0.84944 0.20989 0.0
C387 C 0.57043 0.8035 0.15742 0.0
N388 N 0.49798 0.68326 0.11776 0.0
N389 N 0.66389 0.86064 0.3172 0.0
C390 C 0.52716 0.72923 0.16968 0.0
C391 C 0.61256 0.82034 0.2723 0.0
N392 N 0.46713 0.63447 0.25071 0.0
N393 N 0.64431 0.92131 0.20169 0.0
H394 H 0.66565 0.84285 0.36459 0.0
H395 H 0.70781 0.91008 0.30547 0.0
H396 H 0.64039 0.94497 0.15846 0.0
H397 H 0.66946 0.95717 0.24011 0.0
H398 H 0.42809 0.6008 0.21762 0.0
H399 H 0.46241 0.61207 0.29742 0.0
H400 H 0.4718 0.62832 0.1228 0.0
H401 H 0.50556 0.69977 0.06846 0.0
C402 C 0.73753 0.58372 0.5948 0.0
C403 C 0.79766 0.57702 0.60632 0.0
C404 C 0.82444 0.59086 0.48684 0.0
C405 C 0.75916 0.5879 0.47485 0.0
N406 N 0.64766 0.56982 0.51698 0.0
N407 N 0.89378 0.565 0.56251 0.0
C408 C 0.71391 0.58089 0.52877 0.0
C409 C 0.83992 0.57801 0.55205 0.0
N410 N 0.70493 0.59607 0.64678 0.0
N411 N 0.87283 0.60858 0.43645 0.0
H412 H 0.90742 0.55652 0.60959 0.0
H413 H 0.92115 0.55711 0.52415 0.0
H414 H 0.8638 0.61985 0.38857 0.0
H415 H 0.92418 0.61846 0.44344 0.0
H416 H 0.66491 0.60793 0.64093 0.0
H417 H 0.72339 0.60215 0.69523 0.0
H418 H 0.60972 0.55718 0.55425 0.0
H419 H 0.62851 0.56729 0.46927 0.0
C420 C 0.22859 0.82703 0.83042 0.0
C421 C 0.167 0.76063 0.81595 0.0
C422 C 0.16047 0.72349 0.93211 0.0
C423 C 0.21786 0.79219 0.94781 0.0
N424 N 0.30385 0.91153 0.9141 0.0
N425 N 0.06961 0.64798 0.85331 0.0
C426 C 0.25126 0.84456 0.89746 0.0
C427 C 0.13164 0.70946 0.86695 0.0
N428 N 0.26616 0.87273 0.77975 0.0
N429 N 0.13488 0.6711 0.97913 0.0
H430 H 0.04797 0.63499 0.80592 0.0
H431 H 0.03693 0.61193 0.88947 0.0
H432 H 0.15469 0.67954 1.02717 0.0
H433 H 0.09827 0.61805 0.96939 0.0
H434 H 0.31561 0.91847 0.78543 0.0
H435 H 0.25019 0.86245 0.73048 0.0
H436 H 0.32563 0.9543 0.88143 0.0
H437 H 0.3233 0.92575 0.96215 0.0
C438 C 0.42773 0.17679 0.25391 0.0
C439 C 0.45481 0.24995 0.266 0.0
C440 C 0.45997 0.27215 0.14629 0.0
C441 C 0.42535 0.19799 0.13471 0.0
N442 N 0.36833 0.0784 0.17741 0.0
N443 N 0.49076 0.36698 0.22537 0.0
C444 C 0.40749 0.14988 0.18848 0.0
C445 C 0.46957 0.2977 0.21258 0.0
N446 N 0.42236 0.13331 0.30496 0.0
N447 N 0.48512 0.3181 0.09374 0.0
H448 H 0.50026 0.38799 0.27316 0.0
H449 H 0.49441 0.40262 0.18933 0.0
H450 H 0.48044 0.30113 0.04472 0.0
H451 H 0.51554 0.37291 0.09861 0.0
H452 H 0.41009 0.08116 0.29842 0.0
H453 H 0.4358 0.15108 0.35364 0.0
H454 H 0.34645 0.04082 0.21526 0.0
H455 H 0.35274 0.05653 0.13025 0.0
C456 C 0.10236 0.5225 0.20723 0.0
C457 C 0.17141 0.5367 0.19059 0.0
C458 C 0.22074 0.62499 0.27896 0.0
C459 C 0.15326 0.61862 0.28958 0.0
N460 N 0.03142 0.56818 0.25175 0.0
N461 N 0.29839 0.61279 0.20133 0.0
C462 C 0.09439 0.56923 0.25045 0.0
C463 C 0.2312 0.59183 0.22323 0.0
N464 N 0.04386 0.46271 0.18432 0.0
N465 N 0.27351 0.65715 0.32457 0.0
H466 H 0.30872 0.58915 0.16132 0.0
H467 H 0.34332 0.65811 0.21899 0.0
H468 H 0.26632 0.67433 0.37027 0.0
H469 H 0.32104 0.65715 0.32131 0.0
H470 H -0.00734 0.44524 0.20201 0.0
H471 H 0.04694 0.42694 0.15265 0.0
H472 H -0.00937 0.53859 0.21848 0.0
H473 H 0.02241 0.60298 0.2792 0.0
C474 C 0.53309 0.13393 0.48993 0.0
C475 C 0.60362 0.19348 0.48972 0.0
C476 C 0.58611 0.22673 0.60071 0.0
C477 C 0.51581 0.16711 0.60265 0.0
N478 N 0.42133 0.06257 0.54973 0.0
N479 N 0.68543 0.30941 0.53236 0.0
C480 C 0.48858 0.12056 0.54709 0.0
C481 C 0.62614 0.24389 0.54125 0.0
N482 N 0.50814 0.09139 0.43525 0.0
N483 N 0.61692 0.26447 0.65709 0.0
H484 H 0.71441 0.32443 0.48793 0.0
H485 H 0.70065 0.35118 0.56548 0.0
H486 H 0.59252 0.25013 0.70363 0.0
H487 H 0.67013 0.30452 0.6595 0.0
H488 H 0.45536 0.05251 0.4281 0.0
H489 H 0.53893 0.09708 0.3937 0.0
H490 H 0.39937 0.02299 0.51412 0.0
H491 H 0.38653 0.05141 0.58928 0.0
C492 C 0.41224 0.54142 0.93359 0.0
C493 C 0.35727 0.54126 0.97128 0.0
C494 C 0.34911 0.61826 0.88798 0.0
C495 C 0.39902 0.6121 0.84787 0.0
N496 N 0.46244 0.55085 0.82474 0.0
N497 N 0.29673 0.60456 0.99702 0.0
C498 C 0.42526 0.56797 0.86799 0.0
C499 C 0.33129 0.58612 0.95182 0.0
N500 N 0.45727 0.5236 0.96224 0.0
N501 N 0.31762 0.65357 0.86388 0.0
H502 H 0.29291 0.59125 0.04695 0.0
H503 H 0.28069 0.64089 0.98779 0.0
H504 H 0.32952 0.67667 0.81684 0.0
H505 H 0.2753 0.65415 0.88715 0.0
H506 H 0.50203 0.52915 0.93812 0.0
H507 H 0.45834 0.51617 1.01304 0.0
H508 H 0.48043 0.51674 0.83668 0.0
H509 H 0.46717 0.56226 0.77439 0.0
C510 C 0.838 0.35214 0.19504 0.0
C511 C 0.83391 0.36652 0.26312 0.0
C512 C 0.83416 0.47337 0.23052 0.0
C513 C 0.8187 0.44844 0.16389 0.0
N514 N 0.80276 0.35968 0.08343 0.0
N515 N 0.82619 0.44153 0.34625 0.0
C516 C 0.82011 0.38669 0.14598 0.0
C517 C 0.8314 0.42738 0.28112 0.0
N518 N 0.86317 0.30912 0.17715 0.0
N519 N 0.85586 0.54234 0.245 0.0
H520 H 0.82644 0.41042 0.38517 0.0
H521 H 0.81672 0.4815 0.36105 0.0
H522 H 0.86471 0.57973 0.20869 0.0
H523 H 0.87449 0.56447 0.2915 0.0
H524 H 0.87181 0.30029 0.12811 0.0
H525 H 0.88679 0.29283 0.21165 0.0
H526 H 0.80009 0.31271 0.0695 0.0
H527 H 0.78556 0.38079 0.04692 0.0
C528 C 0.33209 0.73576 0.54763 0.0
C529 C 0.34858 0.79518 0.5075 0.0
C530 C 0.44538 0.87271 0.58189 0.0
C531 C 0.42648 0.81319 0.62391 0.0
N532 N 0.33783 0.69343 0.65592 0.0
N533 N 0.43274 0.91682 0.47671 0.0
C534 C 0.3666 0.74589 0.60896 0.0
C535 C 0.40802 0.86283 0.52202 0.0
N536 N 0.28461 0.6689 0.52605 0.0
N537 N 0.49903 0.93929 0.59839 0.0
H538 H 0.40755 0.91479 0.43284 0.0
H539 H 0.48306 0.96206 0.47908 0.0
H540 H 0.5386 0.94997 0.63226 0.0
H541 H 0.50421 0.98542 0.57826 0.0
H542 H 0.27839 0.62335 0.54857 0.0
H543 H 0.25738 0.65905 0.48157 0.0
H544 H 0.28985 0.64595 0.64993 0.0
H545 H 0.35625 0.70064 0.70426 0.0
C546 C 0.62092 0.47462 0.88614 0.0
C547 C 0.63066 0.44367 0.94383 0.0
C548 C 0.5883 0.33187 0.88406 0.0
C549 C 0.57485 0.36211 0.82777 0.0
N550 N 0.60947 0.47028 0.76713 0.0
N551 N 0.62424 0.34339 0.99938 0.0
C552 C 0.60154 0.43614 0.82589 0.0
C553 C 0.61492 0.37243 0.94322 0.0
N554 N 0.62477 0.53876 0.89013 0.0
N555 N 0.57952 0.2657 0.87878 0.0
H556 H 0.64766 0.37263 0.0421 0.0
H557 H 0.60541 0.28958 1.00549 0.0
H558 H 0.56551 0.23781 0.83419 0.0
H559 H 0.59197 0.24088 0.91562 0.0
H560 H 0.61193 0.56132 0.85135 0.0
H561 H 0.63142 0.56528 0.93481 0.0
H562 H 0.63084 0.52476 0.76358 0.0
H563 H 0.60526 0.44697 0.72121 0.0
loop_
_geom_bond_atom_site_label_1
_geom_bond_atom_site_label_2
_geom_bond_distance
_geom_bond_site_symmetry_2
_ccdc_geom_bond_type
Tb0 C2 2.809 . S
Tb0 O20 2.484 . S
Tb0 O21 2.440 . S
Tb0 O22 2.658 1_556 S
Tb0 O23 2.409 1_556 S
Tb0 O24 2.378 . S
Tb0 O28 2.325 . S
Tb0 O31 2.341 1_556 S
Tb1 C11 2.809 . S
Tb1 O22 2.325 . S
Tb1 O25 2.341 1_554 S
Tb1 O26 2.484 . S
Tb1 O27 2.440 . S
Tb1 O28 2.658 1_554 S
Tb1 O29 2.409 . S
Tb1 O30 2.378 . S
C2 Tb0 2.809 . S
C2 C3 1.514 . S
C2 O20 1.248 . S
C2 O21 1.266 . S
C3 C2 1.514 . S
C3 C4 1.359 . S
C3 C8 1.348 . S
C4 C3 1.359 . S
C4 C5 1.380 . S
C4 H32 0.929 . S
C5 C4 1.380 . S
C5 C6 1.347 . S
C5 H33 0.931 . S
C6 C5 1.347 . S
C6 C7 1.369 . S
C7 C6 1.369 . S
C7 C8 1.408 . S
C7 H34 0.930 1_455 S
C8 C3 1.348 . S
C8 C7 1.408 . S
C8 H35 0.930 1_455 S
C9 O22 1.281 . S
C9 O23 1.253 . S
C10 O24 1.236 . S
C10 O25 1.266 . S
C11 Tb1 2.809 . S
C11 C12 1.514 . S
C11 O26 1.248 . S
C11 O27 1.266 . S
C12 C11 1.514 . S
C12 C13 1.359 . S
C12 C17 1.348 . S
C13 C12 1.359 . S
C13 C14 1.380 . S
C13 H36 0.929 . S
C14 C13 1.380 . S
C14 C15 1.347 . S
C14 H37 0.931 . S
C15 C14 1.347 . S
C15 C16 1.369 . S
C16 C15 1.369 . S
C16 C17 1.408 . S
C16 H38 0.930 . S
C17 C12 1.348 . S
C17 C16 1.408 . S
C17 H39 0.930 . S
C18 O28 1.281 . S
C18 O29 1.254 1_556 S
C19 O30 1.236 . S
C19 O31 1.266 . S
O20 Tb0 2.484 . S
O20 C2 1.248 . S
O21 Tb0 2.440 . S
O21 C2 1.266 . S
O22 Tb0 2.658 1_554 S
O22 Tb1 2.325 . S
O22 C9 1.281 . S
O23 Tb0 2.409 1_554 S
O23 C9 1.253 . S
O24 Tb0 2.378 . S
O24 C10 1.236 . S
O25 Tb1 2.341 1_556 S
O25 C10 1.266 . S
O26 Tb1 2.484 . S
O26 C11 1.248 . S
O27 Tb1 2.440 . S
O27 C11 1.266 . S
O28 Tb0 2.325 . S
O28 Tb1 2.658 1_556 S
O28 C18 1.281 . S
O29 Tb1 2.409 . S
O29 C18 1.254 1_554 S
O30 Tb1 2.378 . S
O30 C19 1.236 . S
O31 Tb0 2.341 1_554 S
O31 C19 1.266 . S
H32 C4 0.929 . S
H33 C5 0.931 . S
H34 C7 0.930 1_655 S
H35 C8 0.930 1_655 S
H36 C13 0.929 . S
H37 C14 0.931 . S
H38 C16 0.930 . S
H39 C17 0.930 . S
Tb40 C42 2.809 . S
Tb40 O60 2.484 . S
Tb40 O61 2.440 . S
Tb40 O62 2.658 . S
Tb40 O63 2.409 . S
Tb40 O64 2.378 . S
Tb40 O68 2.325 . S
Tb40 O71 2.341 . S
Tb41 C51 2.809 . S
Tb41 O62 2.325 . S
Tb41 O65 2.341 . S
Tb41 O66 2.484 . S
Tb41 O67 2.440 . S
Tb41 O68 2.658 . S
Tb41 O69 2.409 . S
Tb41 O70 2.378 . S
C42 Tb40 2.809 . S
C42 C43 1.514 . S
C42 O60 1.248 . S
C42 O61 1.266 . S
C43 C42 1.514 . S
C43 C44 1.359 . S
C43 C48 1.348 . S
C44 C43 1.359 . S
C44 C45 1.380 1_554 S
C44 H72 0.929 . S
C45 C44 1.380 1_556 S
C45 C46 1.347 . S
C45 H73 0.931 . S
C46 C45 1.347 . S
C46 C47 1.369 1_556 S
C47 C46 1.369 1_554 S
C47 C48 1.408 . S
C47 H74 0.930 1_544 S
C48 C43 1.348 . S
C48 C47 1.408 . S
C48 H75 0.930 1_545 S
C49 O62 1.281 . S
C49 O63 1.254 . S
C50 O64 1.236 . S
C50 O65 1.266 . S
C51 Tb41 2.809 . S
C51 C52 1.514 . S
C51 O66 1.248 . S
C51 O67 1.266 . S
C52 C51 1.514 . S
C52 C53 1.359 . S
C52 C57 1.348 . S
C53 C52 1.359 . S
C53 C54 1.380 . S
C53 H76 0.929 . S
C54 C53 1.380 . S
C54 C55 1.347 . S
C54 H77 0.931 . S
C55 C54 1.347 . S
C55 C56 1.369 . S
C56 C55 1.369 . S
C56 C57 1.408 . S
C56 H78 0.930 . S
C57 C52 1.348 . S
C57 C56 1.408 . S
C57 H79 0.930 . S
C58 O68 1.281 . S
C58 O69 1.254 . S
C59 O70 1.236 . S
C59 O71 1.266 . S
O60 Tb40 2.484 . S
O60 C42 1.248 . S
O61 Tb40 2.440 . S
O61 C42 1.266 . S
O62 Tb40 2.658 . S
O62 Tb41 2.325 . S
O62 C49 1.281 . S
O63 Tb40 2.409 . S
O63 C49 1.254 . S
O64 Tb40 2.378 . S
O64 C50 1.236 . S
O65 Tb41 2.341 . S
O65 C50 1.266 . S
O66 Tb41 2.484 . S
O66 C51 1.248 . S
O67 Tb41 2.440 . S
O67 C51 1.266 . S
O68 Tb40 2.325 . S
O68 Tb41 2.658 . S
O68 C58 1.281 . S
O69 Tb41 2.409 . S
O69 C58 1.254 . S
O70 Tb41 2.378 . S
O70 C59 1.236 . S
O71 Tb40 2.341 . S
O71 C59 1.266 . S
H72 C44 0.929 . S
H73 C45 0.931 . S
H74 C47 0.930 1_566 S
H75 C48 0.930 1_565 S
H76 C53 0.929 . S
H77 C54 0.931 . S
H78 C56 0.930 . S
H79 C57 0.930 . S
Tb80 C82 2.809 . S
Tb80 O100 2.484 . S
Tb80 O101 2.440 . S
Tb80 O102 2.658 . S
Tb80 O103 2.409 . S
Tb80 O104 2.378 . S
Tb80 O108 2.325 . S
Tb80 O111 2.341 . S
Tb81 C91 2.809 . S
Tb81 O102 2.325 . S
Tb81 O105 2.341 . S
Tb81 O106 2.484 . S
Tb81 O107 2.440 . S
Tb81 O108 2.658 . S
Tb81 O109 2.409 . S
Tb81 O110 2.378 . S
C82 Tb80 2.809 . S
C82 C83 1.514 . S
C82 O100 1.248 . S
C82 O101 1.266 . S
C83 C82 1.514 . S
C83 C84 1.359 . S
C83 C88 1.348 . S
C84 C83 1.359 . S
C84 C85 1.380 . S
C84 H112 0.929 . S
C85 C84 1.380 . S
C85 C86 1.347 . S
C85 H113 0.931 . S
C86 C85 1.347 . S
C86 C87 1.369 . S
C87 C86 1.369 . S
C87 C88 1.408 . S
C87 H114 0.930 . S
C88 C83 1.348 . S
C88 C87 1.408 . S
C88 H115 0.930 . S
C89 O102 1.281 . S
C89 O103 1.254 . S
C90 O104 1.236 . S
C90 O105 1.266 . S
C91 Tb81 2.809 . S
C91 C92 1.514 . S
C91 O106 1.248 . S
C91 O107 1.266 . S
C92 C91 1.514 . S
C92 C93 1.359 . S
C92 C97 1.348 . S
C93 C92 1.359 . S
C93 C94 1.380 1_556 S
C93 H116 0.929 . S
C94 C93 1.380 1_554 S
C94 C95 1.347 . S
C94 H117 0.931 . S
C95 C94 1.347 . S
C95 C96 1.369 . S
C96 C95 1.369 . S
C96 C97 1.408 1_554 S
C96 H118 0.930 . S
C97 C92 1.348 . S
C97 C96 1.408 1_556 S
C97 H119 0.930 . S
C98 O108 1.281 . S
C98 O109 1.254 . S
C99 O110 1.236 . S
C99 O111 1.266 . S
O100 Tb80 2.484 . S
O100 C82 1.248 . S
O101 Tb80 2.440 . S
O101 C82 1.266 . S
O102 Tb80 2.658 . S
O102 Tb81 2.325 . S
O102 C89 1.281 . S
O103 Tb80 2.409 . S
O103 C89 1.254 . S
O104 Tb80 2.378 . S
O104 C90 1.236 . S
O105 Tb81 2.341 . S
O105 C90 1.266 . S
O106 Tb81 2.484 . S
O106 C91 1.248 . S
O107 Tb81 2.440 . S
O107 C91 1.266 . S
O108 Tb80 2.325 . S
O108 Tb81 2.658 . S
O108 C98 1.281 . S
O109 Tb81 2.409 . S
O109 C98 1.254 . S
O110 Tb81 2.378 . S
O110 C99 1.236 . S
O111 Tb80 2.341 . S
O111 C99 1.266 . S
H112 C84 0.929 . S
H113 C85 0.931 . S
H114 C87 0.930 . S
H115 C88 0.930 . S
H116 C93 0.929 . S
H117 C94 0.931 . S
H118 C96 0.930 . S
H119 C97 0.930 . S
Tb120 C122 2.809 . S
Tb120 O140 2.484 . S
Tb120 O141 2.440 . S
Tb120 O142 2.658 1_556 S
Tb120 O143 2.409 1_556 S
Tb120 O144 2.378 . S
Tb120 O148 2.325 . S
Tb120 O151 2.341 1_556 S
Tb121 C131 2.809 . S
Tb121 O142 2.325 . S
Tb121 O145 2.341 1_554 S
Tb121 O146 2.484 . S
Tb121 O147 2.440 . S
Tb121 O148 2.658 1_554 S
Tb121 O149 2.409 . S
Tb121 O150 2.378 . S
C122 Tb120 2.809 . S
C122 C123 1.514 . S
C122 O140 1.248 . S
C122 O141 1.266 . S
C123 C122 1.514 . S
C123 C124 1.359 . S
C123 C128 1.348 . S
C124 C123 1.359 . S
C124 C125 1.380 . S
C124 H152 0.929 . S
C125 C124 1.380 . S
C125 C126 1.347 . S
C125 H153 0.931 . S
C126 C125 1.347 . S
C126 C127 1.369 . S
C127 C126 1.369 . S
C127 C128 1.408 . S
C127 H154 0.930 1_655 S
C128 C123 1.348 . S
C128 C127 1.408 . S
C128 H155 0.930 1_655 S
C129 O142 1.281 . S
C129 O143 1.253 . S
C130 O144 1.236 . S
C130 O145 1.266 . S
C131 Tb121 2.809 . S
C131 C132 1.514 . S
C131 O146 1.248 . S
C131 O147 1.266 . S
C132 C131 1.514 . S
C132 C133 1.359 . S
C132 C137 1.348 . S
C133 C132 1.359 . S
C133 C134 1.380 . S
C133 H156 0.929 . S
C134 C133 1.380 . S
C134 C135 1.347 . S
C134 H157 0.931 . S
C135 C134 1.347 . S
C135 C136 1.369 . S
C136 C135 1.369 . S
C136 C137 1.408 . S
C136 H158 0.930 . S
C137 C132 1.348 . S
C137 C136 1.408 . S
C137 H159 0.930 . S
C138 O148 1.281 . S
C138 O149 1.254 1_556 S
C139 O150 1.236 . S
C139 O151 1.266 . S
O140 Tb120 2.484 . S
O140 C122 1.248 . S
O141 Tb120 2.440 . S
O141 C122 1.266 . S
O142 Tb120 2.658 1_554 S
O142 Tb121 2.325 . S
O142 C129 1.281 . S
O143 Tb120 2.409 1_554 S
O143 C129 1.253 . S
O144 Tb120 2.378 . S
O144 C130 1.236 . S
O145 Tb121 2.341 1_556 S
O145 C130 1.266 . S
O146 Tb121 2.484 . S
O146 C131 1.248 . S
O147 Tb121 2.440 . S
O147 C131 1.266 . S
O148 Tb120 2.325 . S
O148 Tb121 2.658 1_556 S
O148 C138 1.281 . S
O149 Tb121 2.409 . S
O149 C138 1.254 1_554 S
O150 Tb121 2.378 . S
O150 C139 1.236 . S
O151 Tb120 2.341 1_554 S
O151 C139 1.266 . S
H152 C124 0.929 . S
H153 C125 0.931 . S
H154 C127 0.930 1_455 S
H155 C128 0.930 1_455 S
H156 C133 0.929 . S
H157 C134 0.931 . S
H158 C136 0.930 . S
H159 C137 0.930 . S
Tb160 C162 2.809 . S
Tb160 O180 2.484 . S
Tb160 O181 2.440 . S
Tb160 O182 2.658 . S
Tb160 O183 2.409 . S
Tb160 O184 2.378 . S
Tb160 O188 2.325 . S
Tb160 O191 2.341 . S
Tb161 C171 2.809 . S
Tb161 O182 2.325 . S
Tb161 O185 2.341 . S
Tb161 O186 2.484 . S
Tb161 O187 2.440 . S
Tb161 O188 2.658 . S
Tb161 O189 2.409 . S
Tb161 O190 2.378 . S
C162 Tb160 2.809 . S
C162 C163 1.514 . S
C162 O180 1.248 . S
C162 O181 1.266 . S
C163 C162 1.514 . S
C163 C164 1.359 . S
C163 C168 1.348 . S
C164 C163 1.359 . S
C164 C165 1.380 1_554 S
C164 H192 0.929 . S
C165 C164 1.380 1_556 S
C165 C166 1.347 . S
C165 H193 0.931 . S
C166 C165 1.347 . S
C166 C167 1.369 1_556 S
C167 C166 1.369 1_554 S
C167 C168 1.408 . S
C167 H194 0.930 1_564 S
C168 C163 1.348 . S
C168 C167 1.408 . S
C168 H195 0.930 1_565 S
C169 O182 1.281 . S
C169 O183 1.254 . S
C170 O184 1.236 . S
C170 O185 1.266 . S
C171 Tb161 2.809 . S
C171 C172 1.514 . S
C171 O186 1.248 . S
C171 O187 1.266 . S
C172 C171 1.514 . S
C172 C173 1.359 . S
C172 C177 1.348 . S
C173 C172 1.359 . S
C173 C174 1.380 . S
C173 H196 0.929 . S
C174 C173 1.380 . S
C174 C175 1.347 . S
C174 H197 0.931 . S
C175 C174 1.347 . S
C175 C176 1.369 . S
C176 C175 1.369 . S
C176 C177 1.408 . S
C176 H198 0.930 . S
C177 C172 1.348 . S
C177 C176 1.408 . S
C177 H199 0.930 . S
C178 O188 1.281 . S
C178 O189 1.254 . S
C179 O190 1.236 . S
C179 O191 1.266 . S
O180 Tb160 2.484 . S
O180 C162 1.248 . S
O181 Tb160 2.440 . S
O181 C162 1.266 . S
O182 Tb160 2.658 . S
O182 Tb161 2.325 . S
O182 C169 1.281 . S
O183 Tb160 2.409 . S
O183 C169 1.254 . S
O184 Tb160 2.378 . S
O184 C170 1.236 . S
O185 Tb161 2.341 . S
O185 C170 1.266 . S
O186 Tb161 2.484 . S
O186 C171 1.248 . S
O187 Tb161 2.440 . S
O187 C171 1.266 . S
O188 Tb160 2.325 . S
O188 Tb161 2.658 . S
O188 C178 1.281 . S
O189 Tb161 2.409 . S
O189 C178 1.254 . S
O190 Tb161 2.378 . S
O190 C179 1.236 . S
O191 Tb160 2.341 . S
O191 C179 1.266 . S
H192 C164 0.929 . S
H193 C165 0.931 . S
H194 C167 0.930 1_546 S
H195 C168 0.930 1_545 S
H196 C173 0.929 . S
H197 C174 0.931 . S
H198 C176 0.930 . S
H199 C177 0.930 . S
Tb200 C202 2.809 . S
Tb200 O220 2.484 . S
Tb200 O221 2.440 . S
Tb200 O222 2.658 . S
Tb200 O223 2.409 . S
Tb200 O224 2.378 . S
Tb200 O228 2.325 . S
Tb200 O231 2.341 . S
Tb201 C211 2.809 . S
Tb201 O222 2.325 . S
Tb201 O225 2.341 . S
Tb201 O226 2.484 . S
Tb201 O227 2.440 . S
Tb201 O228 2.658 . S
Tb201 O229 2.409 . S
Tb201 O230 2.378 . S
C202 Tb200 2.809 . S
C202 C203 1.514 . S
C202 O220 1.248 . S
C202 O221 1.266 . S
C203 C202 1.514 . S
C203 C204 1.359 . S
C203 C208 1.348 . S
C204 C203 1.359 . S
C204 C205 1.380 . S
C204 H232 0.929 . S
C205 C204 1.380 . S
C205 C206 1.347 . S
C205 H233 0.931 . S
C206 C205 1.347 . S
C206 C207 1.369 . S
C207 C206 1.369 . S
C207 C208 1.408 . S
C207 H234 0.930 . S
C208 C203 1.348 . S
C208 C207 1.408 . S
C208 H235 0.930 . S
C209 O222 1.281 . S
C209 O223 1.254 . S
C210 O224 1.236 . S
C210 O225 1.266 . S
C211 Tb201 2.809 . S
C211 C212 1.514 . S
C211 O226 1.248 . S
C211 O227 1.266 . S
C212 C211 1.514 . S
C212 C213 1.359 . S
C212 C217 1.348 . S
C213 C212 1.359 . S
C213 C214 1.380 1_556 S
C213 H236 0.929 . S
C214 C213 1.380 1_554 S
C214 C215 1.347 . S
C214 H237 0.931 . S
C215 C214 1.347 . S
C215 C216 1.369 . S
C216 C215 1.369 . S
C216 C217 1.408 1_554 S
C216 H238 0.930 . S
C217 C212 1.348 . S
C217 C216 1.408 1_556 S
C217 H239 0.930 . S
C218 O228 1.281 . S
C218 O229 1.254 . S
C219 O230 1.236 . S
C219 O231 1.266 . S
O220 Tb200 2.484 . S
O220 C202 1.248 . S
O221 Tb200 2.440 . S
O221 C202 1.266 . S
O222 Tb200 2.658 . S
O222 Tb201 2.325 . S
O222 C209 1.281 . S
O223 Tb200 2.409 . S
O223 C209 1.254 . S
O224 Tb200 2.378 . S
O224 C210 1.236 . S
O225 Tb201 2.341 . S
O225 C210 1.266 . S
O226 Tb201 2.484 . S
O226 C211 1.248 . S
O227 Tb201 2.440 . S
O227 C211 1.266 . S
O228 Tb200 2.325 . S
O228 Tb201 2.658 . S
O228 C218 1.281 . S
O229 Tb201 2.409 . S
O229 C218 1.254 . S
O230 Tb201 2.378 . S
O230 C219 1.236 . S
O231 Tb200 2.341 . S
O231 C219 1.266 . S
H232 C204 0.929 . S
H233 C205 0.931 . S
H234 C207 0.930 . S
H235 C208 0.930 . S
H236 C213 0.929 . S
H237 C214 0.931 . S
H238 C216 0.930 . S
H239 C217 0.930 . S
C240 C241 1.363 . S
C240 C246 1.379 . S
C240 N248 1.356 . S
C241 C240 1.363 . S
C241 C247 1.363 . S
C242 C243 1.363 . S
C242 C247 1.379 . S
C242 N249 1.356 . S
C243 C242 1.363 . S
C243 C246 1.363 . S
N244 C246 1.356 . S
N244 H256 0.984 . S
N244 H257 0.985 . S
N245 C247 1.356 . S
N245 H250 0.984 . S
N245 H251 0.985 . S
C246 C240 1.379 . S
C246 C243 1.363 . S
C246 N244 1.356 . S
C247 C241 1.363 . S
C247 C242 1.379 . S
C247 N245 1.356 . S
N248 C240 1.356 . S
N248 H254 0.984 . S
N248 H255 0.984 . S
N249 C242 1.356 . S
N249 H252 0.984 . S
N249 H253 0.985 . S
H250 N245 0.984 . S
H251 N245 0.985 . S
H252 N249 0.984 . S
H253 N249 0.985 . S
H254 N248 0.984 . S
H255 N248 0.984 . S
H256 N244 0.984 . S
H257 N244 0.985 . S
C258 C259 1.363 1_655 S
C258 C264 1.379 . S
C258 N266 1.356 . S
C259 C258 1.363 1_455 S
C259 C265 1.363 . S
C260 C261 1.363 1_455 S
C260 C265 1.379 . S
C260 N267 1.356 . S
C261 C260 1.363 1_655 S
C261 C264 1.363 . S
N262 C264 1.356 . S
N262 H274 0.984 . S
N262 H275 0.985 . S
N263 C265 1.356 . S
N263 H268 0.984 . S
N263 H269 0.985 . S
C264 C258 1.379 . S
C264 C261 1.363 . S
C264 N262 1.356 . S
C265 C259 1.363 . S
C265 C260 1.379 . S
C265 N263 1.356 . S
N266 C258 1.356 . S
N266 H272 0.984 . S
N266 H273 0.984 . S
N267 C260 1.356 . S
N267 H270 0.984 . S
N267 H271 0.985 . S
H268 N263 0.984 . S
H269 N263 0.985 . S
H270 N267 0.984 . S
H271 N267 0.985 . S
H272 N266 0.984 . S
H273 N266 0.984 . S
H274 N262 0.984 . S
H275 N262 0.985 . S
C276 C277 1.363 1_565 S
C276 C282 1.379 . S
C276 N284 1.356 . S
C277 C276 1.363 1_545 S
C277 C283 1.363 . S
C278 C279 1.363 1_545 S
C278 C283 1.379 . S
C278 N285 1.356 . S
C279 C278 1.363 1_565 S
C279 C282 1.363 . S
N280 C282 1.356 . S
N280 H292 0.984 . S
N280 H293 0.985 . S
N281 C283 1.356 . S
N281 H286 0.984 . S
N281 H287 0.985 . S
C282 C276 1.379 . S
C282 C279 1.363 . S
C282 N280 1.356 . S
C283 C277 1.363 . S
C283 C278 1.379 . S
C283 N281 1.356 . S
N284 C276 1.356 . S
N284 H290 0.984 . S
N284 H291 0.984 . S
N285 C278 1.356 . S
N285 H288 0.984 . S
N285 H289 0.985 . S
H286 N281 0.984 . S
H287 N281 0.985 . S
H288 N285 0.984 . S
H289 N285 0.985 . S
H290 N284 0.984 . S
H291 N284 0.984 . S
H292 N280 0.984 . S
H293 N280 0.985 . S
C294 C295 1.363 . S
C294 C300 1.379 . S
C294 N302 1.356 . S
C295 C294 1.363 . S
C295 C301 1.363 . S
C296 C297 1.363 . S
C296 C301 1.379 . S
C296 N303 1.356 . S
C297 C296 1.363 . S
C297 C300 1.363 . S
N298 C300 1.356 . S
N298 H310 0.984 . S
N298 H311 0.985 . S
N299 C301 1.356 . S
N299 H304 0.984 . S
N299 H305 0.985 . S
C300 C294 1.379 . S
C300 C297 1.363 . S
C300 N298 1.356 . S
C301 C295 1.363 . S
C301 C296 1.379 . S
C301 N299 1.356 . S
N302 C294 1.356 . S
N302 H308 0.984 . S
N302 H309 0.984 . S
N303 C296 1.356 . S
N303 H306 0.984 . S
N303 H307 0.985 . S
H304 N299 0.984 . S
H305 N299 0.985 . S
H306 N303 0.984 . S
H307 N303 0.985 . S
H308 N302 0.984 . S
H309 N302 0.984 . S
H310 N298 0.984 . S
H311 N298 0.985 . S
C312 C313 1.363 . S
C312 C318 1.379 . S
C312 N320 1.356 . S
C313 C312 1.363 . S
C313 C319 1.363 1_455 S
C314 C315 1.363 . S
C314 C319 1.379 . S
C314 N321 1.356 . S
C315 C314 1.363 . S
C315 C318 1.363 1_655 S
N316 C318 1.356 . S
N316 H328 0.984 . S
N316 H329 0.985 . S
N317 C319 1.356 . S
N317 H322 0.984 1_655 S
N317 H323 0.985 . S
C318 C312 1.379 . S
C318 C315 1.363 1_455 S
C318 N316 1.356 . S
C319 C313 1.363 1_655 S
C319 C314 1.379 . S
C319 N317 1.356 . S
N320 C312 1.356 . S
N320 H326 0.984 . S
N320 H327 0.984 . S
N321 C314 1.356 . S
N321 H324 0.984 . S
N321 H325 0.985 . S
H322 N317 0.984 1_455 S
H323 N317 0.985 . S
H324 N321 0.984 . S
H325 N321 0.985 . S
H326 N320 0.984 . S
H327 N320 0.984 . S
H328 N316 0.984 . S
H329 N316 0.985 . S
C330 C331 1.363 . S
C330 C336 1.379 . S
C330 N338 1.356 . S
C331 C330 1.363 . S
C331 C337 1.363 1_545 S
C332 C333 1.363 . S
C332 C337 1.379 . S
C332 N339 1.356 . S
C333 C332 1.363 . S
C333 C336 1.363 1_565 S
N334 C336 1.356 . S
N334 H346 0.984 . S
N334 H347 0.985 . S
N335 C337 1.356 . S
N335 H340 0.984 . S
N335 H341 0.985 . S
C336 C330 1.379 . S
C336 C333 1.363 1_545 S
C336 N334 1.356 . S
C337 C331 1.363 1_565 S
C337 C332 1.379 . S
C337 N335 1.356 . S
N338 C330 1.356 . S
N338 H344 0.984 . S
N338 H345 0.984 . S
N339 C332 1.356 . S
N339 H342 0.984 . S
N339 H343 0.985 . S
H340 N335 0.984 . S
H341 N335 0.985 . S
H342 N339 0.984 . S
H343 N339 0.985 . S
H344 N338 0.984 . S
H345 N338 0.984 . S
H346 N334 0.984 . S
H347 N334 0.985 . S
C348 C349 1.363 . S
C348 C354 1.379 . S
C348 N356 1.356 . S
C349 C348 1.363 . S
C349 C355 1.363 . S
C350 C351 1.363 . S
C350 C355 1.379 . S
C350 N357 1.356 . S
C351 C350 1.363 . S
C351 C354 1.363 . S
N352 C354 1.356 . S
N352 H364 0.984 . S
N352 H365 0.985 . S
N353 C355 1.356 . S
N353 H358 0.984 . S
N353 H359 0.985 . S
C354 C348 1.379 . S
C354 C351 1.363 . S
C354 N352 1.356 . S
C355 C349 1.363 . S
C355 C350 1.379 . S
C355 N353 1.356 . S
N356 C348 1.356 . S
N356 H362 0.984 . S
N356 H363 0.984 . S
N357 C350 1.356 . S
N357 H360 0.984 . S
N357 H361 0.985 . S
H358 N353 0.984 . S
H359 N353 0.985 . S
H360 N357 0.984 . S
H361 N357 0.985 . S
H362 N356 0.984 . S
H363 N356 0.984 . S
H364 N352 0.984 . S
H365 N352 0.985 . S
C366 C367 1.363 . S
C366 C372 1.379 . S
C366 N374 1.356 . S
C367 C366 1.363 . S
C367 C373 1.363 . S
C368 C369 1.363 . S
C368 C373 1.379 . S
C368 N375 1.356 . S
C369 C368 1.363 . S
C369 C372 1.363 . S
N370 C372 1.356 . S
N370 H382 0.984 . S
N370 H383 0.985 . S
N371 C373 1.356 . S
N371 H376 0.984 . S
N371 H377 0.985 . S
C372 C366 1.379 . S
C372 C369 1.363 . S
C372 N370 1.356 . S
C373 C367 1.363 . S
C373 C368 1.379 . S
C373 N371 1.356 . S
N374 C366 1.356 . S
N374 H380 0.984 . S
N374 H381 0.984 . S
N375 C368 1.356 . S
N375 H378 0.984 . S
N375 H379 0.985 . S
H376 N371 0.984 . S
H377 N371 0.985 . S
H378 N375 0.984 . S
H379 N375 0.985 . S
H380 N374 0.984 . S
H381 N374 0.984 . S
H382 N370 0.984 . S
H383 N370 0.985 . S
C384 C385 1.363 . S
C384 C390 1.379 . S
C384 N392 1.356 . S
C385 C384 1.363 . S
C385 C391 1.363 . S
C386 C387 1.363 . S
C386 C391 1.379 . S
C386 N393 1.356 . S
C387 C386 1.363 . S
C387 C390 1.363 . S
N388 C390 1.356 . S
N388 H400 0.984 . S
N388 H401 0.985 . S
N389 C391 1.356 . S
N389 H394 0.984 . S
N389 H395 0.985 . S
C390 C384 1.379 . S
C390 C387 1.363 . S
C390 N388 1.356 . S
C391 C385 1.363 . S
C391 C386 1.379 . S
C391 N389 1.356 . S
N392 C384 1.356 . S
N392 H398 0.984 . S
N392 H399 0.984 . S
N393 C386 1.356 . S
N393 H396 0.984 . S
N393 H397 0.985 . S
H394 N389 0.984 . S
H395 N389 0.985 . S
H396 N393 0.984 . S
H397 N393 0.985 . S
H398 N392 0.984 . S
H399 N392 0.984 . S
H400 N388 0.984 . S
H401 N388 0.985 . S
C402 C403 1.363 . S
C402 C408 1.379 . S
C402 N410 1.356 . S
C403 C402 1.363 . S
C403 C409 1.363 . S
C404 C405 1.363 . S
C404 C409 1.379 . S
C404 N411 1.356 . S
C405 C404 1.363 . S
C405 C408 1.363 . S
N406 C408 1.356 . S
N406 H418 0.984 . S
N406 H419 0.985 . S
N407 C409 1.356 . S
N407 H412 0.984 . S
N407 H413 0.985 . S
C408 C402 1.379 . S
C408 C405 1.363 . S
C408 N406 1.356 . S
C409 C403 1.363 . S
C409 C404 1.379 . S
C409 N407 1.356 . S
N410 C402 1.356 . S
N410 H416 0.984 . S
N410 H417 0.984 . S
N411 C404 1.356 . S
N411 H414 0.984 . S
N411 H415 0.985 . S
H412 N407 0.984 . S
H413 N407 0.985 . S
H414 N411 0.984 . S
H415 N411 0.985 . S
H416 N410 0.984 . S
H417 N410 0.984 . S
H418 N406 0.984 . S
H419 N406 0.985 . S
C420 C421 1.363 . S
C420 C426 1.379 . S
C420 N428 1.356 . S
C421 C420 1.363 . S
C421 C427 1.363 . S
C422 C423 1.363 . S
C422 C427 1.379 . S
C422 N429 1.356 . S
C423 C422 1.363 . S
C423 C426 1.363 . S
N424 C426 1.356 . S
N424 H436 0.984 . S
N424 H437 0.985 . S
N425 C427 1.356 . S
N425 H430 0.984 . S
N425 H431 0.985 . S
C426 C420 1.379 . S
C426 C423 1.363 . S
C426 N424 1.356 . S
C427 C421 1.363 . S
C427 C422 1.379 . S
C427 N425 1.356 . S
N428 C420 1.356 . S
N428 H434 0.984 . S
N428 H435 0.984 . S
N429 C422 1.356 . S
N429 H432 0.984 . S
N429 H433 0.985 . S
H430 N425 0.984 . S
H431 N425 0.985 . S
H432 N429 0.984 . S
H433 N429 0.985 . S
H434 N428 0.984 . S
H435 N428 0.984 . S
H436 N424 0.984 . S
H437 N424 0.985 . S
C438 C439 1.363 . S
C438 C444 1.379 . S
C438 N446 1.356 . S
C439 C438 1.363 . S
C439 C445 1.363 . S
C440 C441 1.363 . S
C440 C445 1.379 . S
C440 N447 1.356 . S
C441 C440 1.363 . S
C441 C444 1.363 . S
N442 C444 1.356 . S
N442 H454 0.984 . S
N442 H455 0.985 . S
N443 C445 1.356 . S
N443 H448 0.984 . S
N443 H449 0.985 . S
C444 C438 1.379 . S
C444 C441 1.363 . S
C444 N442 1.356 . S
C445 C439 1.363 . S
C445 C440 1.379 . S
C445 N443 1.356 . S
N446 C438 1.356 . S
N446 H452 0.984 . S
N446 H453 0.984 . S
N447 C440 1.356 . S
N447 H450 0.984 . S
N447 H451 0.985 . S
H448 N443 0.984 . S
H449 N443 0.985 . S
H450 N447 0.984 . S
H451 N447 0.985 . S
H452 N446 0.984 . S
H453 N446 0.984 . S
H454 N442 0.984 . S
H455 N442 0.985 . S
C456 C457 1.363 . S
C456 C462 1.379 . S
C456 N464 1.356 . S
C457 C456 1.363 . S
C457 C463 1.363 . S
C458 C459 1.363 . S
C458 C463 1.379 . S
C458 N465 1.356 . S
C459 C458 1.363 . S
C459 C462 1.363 . S
N460 C462 1.356 . S
N460 H472 0.984 . S
N460 H473 0.985 . S
N461 C463 1.356 . S
N461 H466 0.984 . S
N461 H467 0.985 . S
C462 C456 1.379 . S
C462 C459 1.363 . S
C462 N460 1.356 . S
C463 C457 1.363 . S
C463 C458 1.379 . S
C463 N461 1.356 . S
N464 C456 1.356 . S
N464 H470 0.984 . S
N464 H471 0.984 . S
N465 C458 1.356 . S
N465 H468 0.984 . S
N465 H469 0.985 . S
H466 N461 0.984 . S
H467 N461 0.985 . S
H468 N465 0.984 . S
H469 N465 0.985 . S
H470 N464 0.984 . S
H471 N464 0.984 . S
H472 N460 0.984 . S
H473 N460 0.985 . S
C474 C475 1.363 . S
C474 C480 1.379 . S
C474 N482 1.356 . S
C475 C474 1.363 . S
C475 C481 1.363 . S
C476 C477 1.363 . S
C476 C481 1.379 . S
C476 N483 1.356 . S
C477 C476 1.363 . S
C477 C480 1.363 . S
N478 C480 1.356 . S
N478 H490 0.984 . S
N478 H491 0.985 . S
N479 C481 1.356 . S
N479 H484 0.984 . S
N479 H485 0.985 . S
C480 C474 1.379 . S
C480 C477 1.363 . S
C480 N478 1.356 . S
C481 C475 1.363 . S
C481 C476 1.379 . S
C481 N479 1.356 . S
N482 C474 1.356 . S
N482 H488 0.984 . S
N482 H489 0.984 . S
N483 C476 1.356 . S
N483 H486 0.984 . S
N483 H487 0.985 . S
H484 N479 0.984 . S
H485 N479 0.985 . S
H486 N483 0.984 . S
H487 N483 0.985 . S
H488 N482 0.984 . S
H489 N482 0.984 . S
H490 N478 0.984 . S
H491 N478 0.985 . S
C492 C493 1.363 . S
C492 C498 1.379 . S
C492 N500 1.356 . S
C493 C492 1.363 . S
C493 C499 1.363 . S
C494 C495 1.363 . S
C494 C499 1.379 . S
C494 N501 1.356 . S
C495 C494 1.363 . S
C495 C498 1.363 . S
N496 C498 1.356 . S
N496 H508 0.984 . S
N496 H509 0.985 . S
N497 C499 1.356 . S
N497 H502 0.984 . S
N497 H503 0.985 . S
C498 C492 1.379 . S
C498 C495 1.363 . S
C498 N496 1.356 . S
C499 C493 1.363 . S
C499 C494 1.379 . S
C499 N497 1.356 . S
N500 C492 1.356 . S
N500 H506 0.984 . S
N500 H507 0.984 . S
N501 C494 1.356 . S
N501 H504 0.984 . S
N501 H505 0.985 . S
H502 N497 0.984 . S
H503 N497 0.985 . S
H504 N501 0.984 . S
H505 N501 0.985 . S
H506 N500 0.984 . S
H507 N500 0.984 . S
H508 N496 0.984 . S
H509 N496 0.985 . S
C510 C511 1.363 . S
C510 C516 1.379 . S
C510 N518 1.356 . S
C511 C510 1.363 . S
C511 C517 1.363 . S
C512 C513 1.363 . S
C512 C517 1.379 . S
C512 N519 1.356 . S
C513 C512 1.363 . S
C513 C516 1.363 . S
N514 C516 1.356 . S
N514 H526 0.984 . S
N514 H527 0.985 . S
N515 C517 1.356 . S
N515 H520 0.984 . S
N515 H521 0.985 . S
C516 C510 1.379 . S
C516 C513 1.363 . S
C516 N514 1.356 . S
C517 C511 1.363 . S
C517 C512 1.379 . S
C517 N515 1.356 . S
N518 C510 1.356 . S
N518 H524 0.984 . S
N518 H525 0.984 . S
N519 C512 1.356 . S
N519 H522 0.984 . S
N519 H523 0.985 . S
H520 N515 0.984 . S
H521 N515 0.985 . S
H522 N519 0.984 . S
H523 N519 0.985 . S
H524 N518 0.984 . S
H525 N518 0.984 . S
H526 N514 0.984 . S
H527 N514 0.985 . S
C528 C529 1.363 . S
C528 C534 1.379 . S
C528 N536 1.356 . S
C529 C528 1.363 . S
C529 C535 1.363 . S
C530 C531 1.363 . S
C530 C535 1.379 . S
C530 N537 1.356 . S
C531 C530 1.363 . S
C531 C534 1.363 . S
N532 C534 1.356 . S
N532 H544 0.984 . S
N532 H545 0.985 . S
N533 C535 1.356 . S
N533 H538 0.984 . S
N533 H539 0.985 . S
C534 C528 1.379 . S
C534 C531 1.363 . S
C534 N532 1.356 . S
C535 C529 1.363 . S
C535 C530 1.379 . S
C535 N533 1.356 . S
N536 C528 1.356 . S
N536 H542 0.984 . S
N536 H543 0.984 . S
N537 C530 1.356 . S
N537 H540 0.984 . S
N537 H541 0.985 . S
H538 N533 0.984 . S
H539 N533 0.985 . S
H540 N537 0.984 . S
H541 N537 0.985 . S
H542 N536 0.984 . S
H543 N536 0.984 . S
H544 N532 0.984 . S
H545 N532 0.985 . S
C546 C547 1.363 . S
C546 C552 1.379 . S
C546 N554 1.356 . S
C547 C546 1.363 . S
C547 C553 1.363 . S
C548 C549 1.363 . S
C548 C553 1.379 . S
C548 N555 1.356 . S
C549 C548 1.363 . S
C549 C552 1.363 . S
N550 C552 1.356 . S
N550 H562 0.984 . S
N550 H563 0.985 . S
N551 C553 1.356 . S
N551 H556 0.984 . S
N551 H557 0.985 . S
C552 C546 1.379 . S
C552 C549 1.363 . S
C552 N550 1.356 . S
C553 C547 1.363 . S
C553 C548 1.379 . S
C553 N551 1.356 . S
N554 C546 1.356 . S
N554 H560 0.984 . S
N554 H561 0.984 . S
N555 C548 1.356 . S
N555 H558 0.984 . S
N555 H559 0.985 . S
H556 N551 0.984 . S
H557 N551 0.985 . S
H558 N555 0.984 . S
H559 N555 0.985 . S
H560 N554 0.984 . S
H561 N554 0.984 . S
H562 N550 0.984 . S
H563 N550 0.985 . S
C241 C209 1.506 . S
C243 C10 1.572 . S
C259 C9 1.506 . S
C261 C50 1.571 . S
C277 C49 1.506 . S
C279 C90 1.572 . S
C295 C89 1.506 . S
C297 C130 1.572 . S
C313 C170 1.571 . S
C315 C129 1.506 . S
C331 C210 1.572 . S
C333 C169 1.506 . S
C349 C6 2.090 . S
C351 C15 2.090 . S
C367 C46 2.090 . S
C369 C55 2.090 . S
C385 C86 2.090 . S
C387 C95 2.090 . S
C403 C126 2.090 . S
C405 C135 2.090 . S
C421 C175 2.090 . S
C423 C166 2.090 . S
C439 C206 2.090 . S
C441 C215 2.090 . S
C457 C19 1.818 . S
C459 C178 1.810 . S
C475 C59 1.818 . S
C477 C218 1.810 . S
C493 C18 1.810 . S
C495 C99 1.818 . S
C511 C58 1.810 . S
C513 C139 1.818 . S
C529 C179 1.818 . S
C531 C98 1.810 . S
C547 C138 1.810 . S
C549 C219 1.818 . S
