# Generated by pormake.
# Topology und, (4)-cn, num edge types: 1
# Building blocks:
#     Node 0, Type 0, BuildingBlock: CEKHIL_clean_sbu_0, # of connection points: 4
#     Node 1, Type 0, BuildingBlock: CEKHIL_clean_sbu_0, # of connection points: 4
#     Node 2, Type 0, BuildingBlock: CEKHIL_clean_sbu_0, # of connection points: 4
#     Node 3, Type 0, BuildingBlock: CEKHIL_clean_sbu_0, # of connection points: 4
#     Node 4, Type 0, BuildingBlock: CEKHIL_clean_sbu_0, # of connection points: 4
#     Node 5, Type 0, BuildingBlock: CEKHIL_clean_sbu_0, # of connection points: 4
#     Node 6, Type 0, BuildingBlock: CEKHIL_clean_sbu_0, # of connection points: 4
#     Node 7, Type 0, BuildingBlock: CEKHIL_clean_sbu_0, # of connection points: 4
#     Node 8, Type 0, BuildingBlock: CEKHIL_clean_sbu_0, # of connection points: 4
#     Node 9, Type 0, BuildingBlock: CEKHIL_clean_sbu_0, # of connection points: 4
#     Node 10, Type 0, BuildingBlock: CEKHIL_clean_sbu_0, # of connection points: 4
#     Node 11, Type 0, BuildingBlock: CEKHIL_clean_sbu_0, # of connection points: 4
#     Node 12, Type 0, BuildingBlock: CEKHIL_clean_sbu_0, # of connection points: 4
#     Node 13, Type 0, BuildingBlock: CEKHIL_clean_sbu_0, # of connection points: 4
#     Node 14, Type 0, BuildingBlock: CEKHIL_clean_sbu_0, # of connection points: 4
#     Node 15, Type 0, BuildingBlock: CEKHIL_clean_sbu_0, # of connection points: 4
#     Edge 16, Type (0, 0), BuildingBlock: CIFDUS_clean_linker_0, # of connection points: 2
#     Edge 17, Type (0, 0), BuildingBlock: CIFDUS_clean_linker_0, # of connection points: 2
#     Edge 18, Type (0, 0), BuildingBlock: CIFDUS_clean_linker_0, # of connection points: 2
#     Edge 19, Type (0, 0), BuildingBlock: CIFDUS_clean_linker_0, # of connection points: 2
#     Edge 20, Type (0, 0), BuildingBlock: CIFDUS_clean_linker_0, # of connection points: 2
#     Edge 21, Type (0, 0), BuildingBlock: CIFDUS_clean_linker_0, # of connection points: 2
#     Edge 22, Type (0, 0), BuildingBlock: CIFDUS_clean_linker_0, # of connection points: 2
#     Edge 23, Type (0, 0), BuildingBlock: CIFDUS_clean_linker_0, # of connection points: 2
#     Edge 24, Type (0, 0), BuildingBlock: CIFDUS_clean_linker_0, # of connection points: 2
#     Edge 25, Type (0, 0), BuildingBlock: CIFDUS_clean_linker_0, # of connection points: 2
#     Edge 26, Type (0, 0), BuildingBlock: CIFDUS_clean_linker_0, # of connection points: 2
#     Edge 27, Type (0, 0), BuildingBlock: CIFDUS_clean_linker_0, # of connection points: 2
#     Edge 28, Type (0, 0), BuildingBlock: CIFDUS_clean_linker_0, # of connection points: 2
#     Edge 29, Type (0, 0), BuildingBlock: CIFDUS_clean_linker_0, # of connection points: 2
#     Edge 30, Type (0, 0), BuildingBlock: CIFDUS_clean_linker_0, # of connection points: 2
#     Edge 31, Type (0, 0), BuildingBlock: CIFDUS_clean_linker_0, # of connection points: 2
#     Edge 32, Type (0, 0), BuildingBlock: CIFDUS_clean_linker_0, # of connection points: 2
#     Edge 33, Type (0, 0), BuildingBlock: CIFDUS_clean_linker_0, # of connection points: 2
#     Edge 34, Type (0, 0), BuildingBlock: CIFDUS_clean_linker_0, # of connection points: 2
#     Edge 35, Type (0, 0), BuildingBlock: CIFDUS_clean_linker_0, # of connection points: 2
#     Edge 36, Type (0, 0), BuildingBlock: CIFDUS_clean_linker_0, # of connection points: 2
#     Edge 37, Type (0, 0), BuildingBlock: CIFDUS_clean_linker_0, # of connection points: 2
#     Edge 38, Type (0, 0), BuildingBlock: CIFDUS_clean_linker_0, # of connection points: 2
#     Edge 39, Type (0, 0), BuildingBlock: CIFDUS_clean_linker_0, # of connection points: 2
#     Edge 40, Type (0, 0), BuildingBlock: CIFDUS_clean_linker_0, # of connection points: 2
#     Edge 41, Type (0, 0), BuildingBlock: CIFDUS_clean_linker_0, # of connection points: 2
#     Edge 42, Type (0, 0), BuildingBlock: CIFDUS_clean_linker_0, # of connection points: 2
#     Edge 43, Type (0, 0), BuildingBlock: CIFDUS_clean_linker_0, # of connection points: 2
#     Edge 44, Type (0, 0), BuildingBlock: CIFDUS_clean_linker_0, # of connection points: 2
#     Edge 45, Type (0, 0), BuildingBlock: CIFDUS_clean_linker_0, # of connection points: 2
#     Edge 46, Type (0, 0), BuildingBlock: CIFDUS_clean_linker_0, # of connection points: 2
#     Edge 47, Type (0, 0), BuildingBlock: CIFDUS_clean_linker_0, # of connection points: 2
# Relax obj value: 0.006
# Max RMSD: 0.041
# Mean RMSD: 0.041
data_MOF--net-und--node1-CEKHIL_clean_sbu_0--edge1-CIFDUS_clean_linker_0
_symmetry_space_group_name_H-M    P1
_symmetry_Int_Tables_number       1
_symmetry_cell_setting            triclinic
loop_
_symmetry_equiv_pos_as_xyz
'x, y, z'
_cell_length_a     51.896884
_cell_length_b     51.851644
_cell_length_c     19.157812
_cell_angle_alpha  90.431429
_cell_angle_beta   89.700077
_cell_angle_gamma 93.703754
loop_
_atom_site_label
_atom_site_type_symbol
_atom_site_fract_x
_atom_site_fract_y
_atom_site_fract_z
_atom_type_partial_charge
Co0 Co 0.24738 0.36084 0.05482 0.0
O1 O 0.23682 0.38723 0.118 0.0
O2 O 0.21664 0.37613 0.01995 0.0
C3 C 0.25332 0.33174 0.13938 0.0
O4 O 0.25279 0.33347 0.97886 0.0
Co5 Co 0.3029 0.34191 0.06853 0.0
O6 O 0.28994 0.31492 1.0012 0.0
C7 C 0.29509 0.39166 1.00105 0.0
C8 C 0.21766 0.39026 0.07658 0.0
C9 C 0.2693 0.31638 0.96594 0.0
O10 O 0.27047 0.38675 1.00173 0.0
O11 O 0.31103 0.37762 0.03127 0.0
O12 O 0.23043 0.33435 0.11438 0.0
O13 O 0.27118 0.34805 0.11672 0.0
Co14 Co 0.91771 0.02948 0.2569 0.0
O15 O 0.89279 0.03895 0.18857 0.0
O16 O 0.90075 0.05968 0.28829 0.0
C17 C 0.94948 0.02348 0.17819 0.0
O18 O 0.94261 0.02673 0.339 0.0
Co19 Co 0.94139 0.97608 0.25686 0.0
O20 O 0.96483 0.99109 0.32984 0.0
C21 C 0.88892 0.98136 0.3149 0.0
C22 C 0.88809 0.05806 0.22983 0.0
C23 C 0.96019 0.01219 0.36045 0.0
O24 O 0.89075 0.00596 0.30547 0.0
O25 O 0.90628 0.96626 0.29609 0.0
O26 O 0.94541 0.04653 0.20112 0.0
O27 O 0.93347 0.0052 0.2001 0.0
Co28 Co 0.25499 0.69084 0.56123 0.0
O29 O 0.2616 0.66731 0.63529 0.0
O30 O 0.28471 0.67142 0.53808 0.0
C31 C 0.24998 0.72447 0.63438 0.0
O32 O 0.25485 0.71431 0.47545 0.0
Co33 Co 0.20304 0.71692 0.55271 0.0
O34 O 0.22092 0.73909 0.48151 0.0
C35 C 0.206 0.66215 0.50949 0.0
C36 C 0.28137 0.66086 0.59919 0.0
C37 C 0.24186 0.73294 0.45276 0.0
O38 O 0.23079 0.66405 0.51412 0.0
O39 O 0.19174 0.68027 0.52832 0.0
O40 O 0.27285 0.71867 0.61433 0.0
O41 O 0.23111 0.70907 0.61291 0.0
Co42 Co 0.59353 0.02002 0.74124 0.0
O43 O 0.6193 0.01493 0.67083 0.0
O44 O 0.61575 0.99272 0.76841 0.0
C45 C 0.5608 0.0194 0.66339 0.0
O46 O 0.56808 0.01994 0.82433 0.0
Co47 Co 0.56183 0.06895 0.7344 0.0
O48 O 0.54053 0.05112 0.80741 0.0
C49 C 0.61349 0.07194 0.80179 0.0
C50 C 0.62701 0.9962 0.70786 0.0
C51 C 0.54807 0.0322 0.84226 0.0
O52 O 0.6165 0.0478 0.78977 0.0
O53 O 0.59405 0.08368 0.78062 0.0
O54 O 0.56865 0.99805 0.68781 0.0
O55 O 0.57391 0.04016 0.68294 0.0
Co56 Co 0.76782 0.68792 0.01326 0.0
O57 O 0.77711 0.66183 0.9475 0.0
O58 O 0.79522 0.66798 0.05076 0.0
C59 C 0.7685 0.71943 0.93285 0.0
O60 O 0.76331 0.7145 0.09295 0.0
Co61 Co 0.71683 0.71496 0.99364 0.0
O62 O 0.7335 0.74117 0.0572 0.0
C63 C 0.7157 0.66348 0.06013 0.0
C64 C 0.79438 0.65546 0.9914 0.0
C65 C 0.75108 0.73543 0.09943 0.0
O66 O 0.74042 0.66326 0.05564 0.0
O67 O 0.7028 0.68173 0.03652 0.0
O68 O 0.78963 0.71354 0.96307 0.0
O69 O 0.74806 0.70505 0.94853 0.0
Co70 Co 0.09095 0.01378 0.80563 0.0
O71 O 0.1181 0.00667 0.86988 0.0
O72 O 0.10892 0.98418 0.77365 0.0
C73 C 0.0607 0.01925 0.88909 0.0
O74 O 0.06396 0.01457 0.72797 0.0
Co75 Co 0.06525 0.06638 0.80794 0.0
O76 O 0.04145 0.05007 0.73748 0.0
C77 C 0.11633 0.06236 0.7409 0.0
C78 C 0.12305 0.98744 0.82935 0.0
C79 C 0.04588 0.02874 0.70769 0.0
O80 O 0.1153 0.03778 0.75022 0.0
O81 O 0.09932 0.07714 0.76377 0.0
O82 O 0.06542 0.99619 0.86752 0.0
O83 O 0.07543 0.03782 0.86336 0.0
Co84 Co 0.7446 0.36271 0.49234 0.0
O85 O 0.73563 0.38821 0.42542 0.0
O86 O 0.71735 0.38284 0.52927 0.0
C87 C 0.74473 0.32979 0.414 0.0
O88 O 0.74773 0.33777 0.57424 0.0
Co89 Co 0.7953 0.33487 0.48036 0.0
O90 O 0.78073 0.31251 0.55596 0.0
C91 C 0.79622 0.38741 0.54213 0.0
C92 C 0.71848 0.39507 0.47014 0.0
C93 C 0.76136 0.31887 0.59174 0.0
O94 O 0.77162 0.38783 0.53498 0.0
O95 O 0.80924 0.36863 0.52146 0.0
O96 O 0.72332 0.33633 0.44242 0.0
O97 O 0.76508 0.34429 0.43 0.0
Co98 Co 0.42189 0.04342 0.29936 0.0
O99 O 0.39781 0.05376 0.36944 0.0
O100 O 0.40197 0.07092 0.26428 0.0
C101 C 0.45554 0.04334 0.37344 0.0
O102 O 0.44559 0.03856 0.21452 0.0
Co103 Co 0.4487 0.99206 0.3104 0.0
O104 O 0.47064 0.00547 0.23228 0.0
C105 C 0.39523 0.99178 0.25693 0.0
C106 C 0.39083 0.07078 0.32536 0.0
C107 C 0.46415 0.02445 0.196 0.0
O108 O 0.3956 0.01654 0.26157 0.0
O109 O 0.41389 0.97854 0.27621 0.0
O110 O 0.44931 0.06465 0.34471 0.0
O111 O 0.44044 0.02312 0.36003 0.0
Co112 Co 0.74863 0.85556 0.56101 0.0
O113 O 0.74019 0.87946 0.63316 0.0
O114 O 0.72156 0.87769 0.52996 0.0
C115 C 0.74694 0.82163 0.63441 0.0
O116 O 0.7528 0.83117 0.47604 0.0
Co117 Co 0.79933 0.82726 0.57864 0.0
O118 O 0.78292 0.80395 0.50721 0.0
C119 C 0.80168 0.88196 0.53473 0.0
C120 C 0.72282 0.88774 0.59264 0.0
C121 C 0.76524 0.8105 0.46624 0.0
O122 O 0.77705 0.88083 0.52534 0.0
O123 O 0.81353 0.8635 0.56134 0.0
O124 O 0.72601 0.82877 0.60556 0.0
O125 O 0.7675 0.8361 0.62149 0.0
Co126 Co 0.41798 0.5376 0.74446 0.0
O127 O 0.39317 0.54255 0.67293 0.0
O128 O 0.39628 0.56559 0.77028 0.0
C129 C 0.45172 0.53627 0.67009 0.0
O130 O 0.44245 0.5377 0.82833 0.0
Co131 Co 0.44552 0.4864 0.74283 0.0
O132 O 0.46723 0.50385 0.81619 0.0
C133 C 0.39276 0.48701 0.79941 0.0
C134 C 0.38516 0.5614 0.70998 0.0
C135 C 0.46118 0.52426 0.84823 0.0
O136 O 0.39354 0.51166 0.79258 0.0
O137 O 0.41065 0.47299 0.77804 0.0
O138 O 0.44397 0.55813 0.69252 0.0
O139 O 0.4375 0.51599 0.68819 0.0
Co140 Co 0.76946 0.191 0.0413 0.0
O141 O 0.7786 0.16597 0.10911 0.0
O142 O 0.79681 0.17072 1.00498 0.0
C143 C 0.76932 0.2243 0.11857 0.0
O144 O 0.76591 0.21556 0.95895 0.0
Co145 Co 0.71833 0.21804 0.05415 0.0
O146 O 0.73219 0.23996 0.97656 0.0
C147 C 0.7176 0.16432 1.00078 0.0
C148 C 0.79576 0.1589 0.06476 0.0
C149 C 0.75177 0.234 0.94101 0.0
O150 O 0.74245 0.16556 0.99987 0.0
O151 O 0.70455 0.1824 0.02595 0.0
O152 O 0.79073 0.21775 0.0901 0.0
O153 O 0.74908 0.20953 0.10337 0.0
Co154 Co 0.08624 0.51276 0.2591 0.0
O155 O 0.11379 0.50435 0.19709 0.0
O156 O 0.1063 0.48612 0.29969 0.0
C157 C 0.05612 0.51084 0.17435 0.0
O158 O 0.05836 0.51619 0.33513 0.0
Co159 Co 0.05679 0.56232 0.23407 0.0
O160 O 0.03125 0.54556 0.29919 0.0
C161 C 0.1064 0.56566 0.31167 0.0
C162 C 0.11962 0.48711 0.24177 0.0
C163 C 0.03733 0.52816 0.34158 0.0
O164 O 0.10869 0.54116 0.30579 0.0
O165 O 0.088 0.57744 0.28451 0.0
O166 O 0.06235 0.48998 0.20525 0.0
O167 O 0.0694 0.53175 0.19201 0.0
Co168 Co 0.26233 0.19483 0.5176 0.0
O169 O 0.27421 0.17013 0.45164 0.0
O170 O 0.2929 0.17944 0.55299 0.0
C171 C 0.2567 0.22545 0.43698 0.0
O172 O 0.25546 0.22041 0.59706 0.0
Co173 Co 0.20662 0.21293 0.50282 0.0
O174 O 0.21837 0.23893 0.5741 0.0
C175 C 0.21478 0.16123 0.55855 0.0
C176 C 0.29278 0.16643 0.49447 0.0
C177 C 0.23864 0.23713 0.61064 0.0
O178 O 0.23917 0.1671 0.5636 0.0
O179 O 0.1991 0.1758 0.52921 0.0
O180 O 0.27938 0.22293 0.46347 0.0
O181 O 0.23897 0.20835 0.45601 0.0
Co182 Co 0.59002 0.52052 0.29636 0.0
O183 O 0.61555 0.51141 0.36294 0.0
O184 O 0.61229 0.49575 0.25544 0.0
C185 C 0.55692 0.51634 0.37349 0.0
O186 O 0.56539 0.52427 0.21419 0.0
Co187 Co 0.55747 0.56812 0.31845 0.0
O188 O 0.53745 0.55468 0.23681 0.0
C189 C 0.61211 0.57528 0.27206 0.0
C190 C 0.62367 0.49576 0.31585 0.0
C191 C 0.54565 0.53691 0.19792 0.0
O192 O 0.61336 0.55075 0.26231 0.0
O193 O 0.5925 0.58521 0.29982 0.0
O194 O 0.56466 0.49614 0.34099 0.0
O195 O 0.57003 0.53777 0.3609 0.0
Co196 Co 0.25338 0.86511 0.01127 0.0
O197 O 0.24503 0.89074 0.94357 0.0
O198 O 0.22638 0.8857 0.0471 0.0
C199 C 0.25391 0.83245 0.93269 0.0
O200 O 0.25513 0.84016 0.09345 0.0
Co201 Co 0.30273 0.83411 1.00289 0.0
O202 O 0.28662 0.81282 0.0786 0.0
C203 C 0.30617 0.88942 0.0454 0.0
C204 C 0.22761 0.89762 0.98759 0.0
C205 C 0.26729 0.82044 0.11241 0.0
O206 O 0.28145 0.88952 0.05296 0.0
O207 O 0.31742 0.87018 0.01984 0.0
O208 O 0.23206 0.83898 0.95878 0.0
O209 O 0.27402 0.8464 0.9521 0.0
Co210 Co 0.91973 0.52786 0.80046 0.0
O211 O 0.89415 0.53797 0.86655 0.0
O212 O 0.89876 0.55394 0.76043 0.0
C213 C 0.9521 0.531 0.879 0.0
O214 O 0.94548 0.52243 0.72 0.0
Co215 Co 0.94889 0.47825 0.82777 0.0
O216 O 0.97282 0.49325 0.75591 0.0
C217 C 0.89533 0.47385 0.77312 0.0
C218 C 0.88714 0.55433 0.82093 0.0
C219 C 0.96623 0.51008 0.71244 0.0
O220 O 0.8955 0.49851 0.7642 0.0
O221 O 0.91376 0.46286 0.80275 0.0
O222 O 0.9455 0.5514 0.84646 0.0
O223 O 0.93804 0.51012 0.86633 0.0
H224 H 0.21819 0.29952 0.2058 0.0
H225 H 0.29978 0.3212 0.19439 0.0
H226 H 0.308 0.29086 0.28738 0.0
H227 H 0.29196 0.25817 0.37211 0.0
H228 H 0.21035 0.23647 0.3829 0.0
H229 H 0.20216 0.26702 0.29057 0.0
C230 C 0.23778 0.29752 0.22347 0.0
C231 C 0.25834 0.31253 0.19325 0.0
C232 C 0.24234 0.28019 0.27725 0.0
C233 C 0.28361 0.30982 0.21683 0.0
C234 C 0.28833 0.29253 0.27012 0.0
C235 C 0.27238 0.26028 0.35455 0.0
C236 C 0.2518 0.24514 0.38432 0.0
C237 C 0.26783 0.27769 0.3009 0.0
C238 C 0.22654 0.24793 0.36081 0.0
C239 C 0.22183 0.26534 0.30788 0.0
H240 H 0.9946 0.98391 0.42927 0.0
H241 H 0.95823 0.05648 0.43916 0.0
H242 H 0.98072 0.06739 0.54811 0.0
H243 H 0.0107 0.0565 0.64034 0.0
H244 H 0.04725 0.98403 0.63035 0.0
H245 H 0.02443 0.97291 0.52195 0.0
C246 C 0.99161 1.00219 0.45491 0.0
C247 C 0.97469 0.01935 0.42547 0.0
C248 C 1.0045 0.00831 0.51792 0.0
C249 C 0.97109 0.04287 0.46015 0.0
C250 C 0.98393 0.04912 0.52269 0.0
C251 C 0.01362 0.03815 0.61493 0.0
C252 C 0.03073 0.02111 0.64406 0.0
C253 C 1.00062 0.03196 0.55214 0.0
C254 C 0.03423 0.99753 0.60961 0.0
C255 C 0.02122 0.99118 0.54736 0.0
H256 H 0.28637 0.74964 0.71371 0.0
H257 H 0.20465 0.745 0.67176 0.0
H258 H 0.19809 0.77731 0.76301 0.0
H259 H 0.21593 0.80701 0.85526 0.0
H260 H 0.29784 0.81044 0.89588 0.0
H261 H 0.30386 0.7782 0.80571 0.0
C262 C 0.26715 0.75584 0.72412 0.0
C263 C 0.24607 0.74513 0.68589 0.0
C264 C 0.2635 0.77399 0.77717 0.0
C265 C 0.22121 0.75309 0.70052 0.0
C266 C 0.21744 0.77147 0.75283 0.0
C267 C 0.235 0.80045 0.84472 0.0
C268 C 0.25637 0.81111 0.88223 0.0
C269 C 0.23845 0.78197 0.79183 0.0
C270 C 0.28104 0.80261 0.86773 0.0
C271 C 0.28456 0.78421 0.81593 0.0
H272 H 0.50279 0.99767 0.13776 0.0
H273 H 0.45605 0.06215 0.10044 0.0
H274 H 0.47714 0.06921 0.98745 0.0
H275 H 0.50864 0.0574 0.8998 0.0
H276 H 0.55614 0.99347 0.93631 0.0
H277 H 0.5346 0.98576 0.04903 0.0
C278 C 0.4972 0.01335 0.10516 0.0
C279 C 0.47776 0.02939 0.12815 0.0
C280 C 0.50939 0.0173 0.03988 0.0
C281 C 0.47089 0.04952 0.08465 0.0
C282 C 0.48292 0.05354 0.01978 0.0
C283 C 0.51432 0.04161 0.93188 0.0
C284 C 0.53407 0.02598 0.90892 0.0
C285 C 0.50212 0.03753 0.99687 0.0
C286 C 0.54102 0.00577 0.95209 0.0
C287 C 0.52875 1.00142 0.01677 0.0
H288 H 0.29088 0.78125 0.17586 0.0
H289 H 0.22528 0.82808 0.19554 0.0
H290 H 0.21215 0.80551 0.30252 0.0
H291 H 0.21904 0.77256 0.39006 0.0
H292 H 0.28457 0.72564 0.37117 0.0
H293 H 0.29798 0.74838 0.26438 0.0
C294 C 0.27366 0.78655 0.20332 0.0
C295 C 0.2591 0.80641 0.17719 0.0
C296 C 0.26622 0.77354 0.26514 0.0
C297 C 0.23691 0.81295 0.21406 0.0
C298 C 0.22937 0.80004 0.2754 0.0
C299 C 0.23632 0.76725 0.3629 0.0
C300 C 0.25073 0.74728 0.38901 0.0
C301 C 0.24388 0.78033 0.30141 0.0
C302 C 0.27306 0.74086 0.35264 0.0
C303 C 0.28073 0.75385 0.29139 0.0
H304 H 0.46942 1.0024 0.44891 0.0
H305 H 0.48947 0.0832 0.41137 0.0
H306 H 0.52324 0.08311 0.49965 0.0
H307 H 0.54684 0.06021 0.58806 0.0
H308 H 0.52718 0.97931 0.62487 0.0
H309 H 0.49325 0.97939 0.53687 0.0
C310 C 0.48128 0.01995 0.45979 0.0
C311 C 0.47698 0.04276 0.42364 0.0
C312 C 0.50055 0.0198 0.51089 0.0
C313 C 0.49243 0.06537 0.43842 0.0
C314 C 0.51169 0.06537 0.48905 0.0
C315 C 0.53503 0.04263 0.57708 0.0
C316 C 0.53944 0.01981 0.61296 0.0
C317 C 0.51581 0.04274 0.52585 0.0
C318 C 0.52413 0.99714 0.59791 0.0
C319 C 0.50478 0.99715 0.5475 0.0
H320 H 0.27317 0.23492 0.71827 0.0
H321 H 0.21083 0.27851 0.6438 0.0
H322 H 0.21385 0.30589 0.74741 0.0
H323 H 0.23418 0.31796 0.85968 0.0
H324 H 0.2965 0.27439 0.93428 0.0
H325 H 0.29327 0.24676 0.83111 0.0
C326 C 0.26034 0.25049 0.72443 0.0
C327 C 0.24185 0.2545 0.67281 0.0
C328 C 0.26199 0.26624 0.78479 0.0
C329 C 0.22529 0.27478 0.68236 0.0
C330 C 0.22693 0.29053 0.74187 0.0
C331 C 0.2469 0.30229 0.85377 0.0
C332 C 0.26553 0.29842 0.90514 0.0
C333 C 0.24514 0.28642 0.79366 0.0
C334 C 0.28195 0.27802 0.89588 0.0
C335 C 0.28019 0.26214 0.83661 0.0
H336 H 0.02886 0.98385 0.95716 0.0
H337 H 0.04738 0.06587 0.93896 0.0
H338 H 0.0153 0.07444 0.02824 0.0
H339 H 0.98185 0.05873 0.11166 0.0
H340 H 0.96306 0.97675 0.12946 0.0
H341 H 0.99542 0.96812 0.04083 0.0
C342 C 0.0258 1.00359 0.97259 0.0
C343 C 0.04047 0.02416 0.94135 0.0
C344 C 0.00735 0.00841 0.02429 0.0
C345 C 0.03632 0.04965 0.96206 0.0
C346 C 0.01801 0.05459 0.01328 0.0
C347 C 0.98495 0.03898 0.09642 0.0
C348 C 0.9701 0.01844 0.12722 0.0
C349 C 1.00345 0.03414 0.04491 0.0
C350 C 0.97425 0.99294 0.10664 0.0
C351 C 0.99272 0.98797 0.0558 0.0
H352 H 0.72835 0.73159 0.85169 0.0
H353 H 0.80836 0.75325 0.89587 0.0
H354 H 0.80893 0.78602 0.80504 0.0
H355 H 0.78686 0.80844 0.71343 0.0
H356 H 0.70677 0.7874 0.66916 0.0
H357 H 0.70617 0.75411 0.75917 0.0
C358 C 0.74586 0.74357 0.8416 0.0
C359 C 0.76827 0.74005 0.88041 0.0
C360 C 0.74612 0.76226 0.78896 0.0
C361 C 0.79085 0.75562 0.86669 0.0
C362 C 0.79123 0.7743 0.81465 0.0
C363 C 0.76931 0.79645 0.7231 0.0
C364 C 0.74691 0.80029 0.68474 0.0
C365 C 0.76902 0.77769 0.77535 0.0
C366 C 0.72428 0.78473 0.69803 0.0
C367 C 0.7239 0.76579 0.74961 0.0
H368 H 0.78568 0.3161 0.33592 0.0
H369 H 0.70505 0.29569 0.37563 0.0
H370 H 0.7053 0.26176 0.2865 0.0
H371 H 0.72835 0.238 0.19661 0.0
H372 H 0.80899 0.25844 0.15686 0.0
H373 H 0.80873 0.29235 0.24602 0.0
C374 C 0.7682 0.30414 0.3253 0.0
C375 C 0.74539 0.30841 0.36246 0.0
C376 C 0.76842 0.28479 0.27351 0.0
C377 C 0.72288 0.29281 0.34785 0.0
C378 C 0.72298 0.27343 0.29673 0.0
C379 C 0.74583 0.24997 0.2072 0.0
C380 C 0.76864 0.24572 0.17 0.0
C381 C 0.74561 0.26933 0.25898 0.0
C382 C 0.79115 0.26132 0.18461 0.0
C383 C 0.79105 0.28068 0.23577 0.0
H384 H 0.72386 0.27076 0.8807 0.0
H385 H 0.79258 0.22908 0.85125 0.0
H386 H 0.80112 0.25121 0.74067 0.0
H387 H 0.7891 0.28212 0.65219 0.0
H388 H 0.72048 0.32394 0.68148 0.0
H389 H 0.71188 0.3018 0.79215 0.0
C390 C 0.7408 0.26651 0.8504 0.0
C391 C 0.75756 0.24818 0.87477 0.0
C392 C 0.74555 0.27922 0.78653 0.0
C393 C 0.77932 0.24302 0.8342 0.0
C394 C 0.78421 0.25565 0.77075 0.0
C395 C 0.77216 0.28639 0.68241 0.0
C396 C 0.75543 0.30472 0.65796 0.0
C397 C 0.76741 0.27371 0.74629 0.0
C398 C 0.7337 0.30996 0.69856 0.0
C399 C 0.72878 0.29732 0.76205 0.0
H400 H 0.76174 0.72286 0.23425 0.0
H401 H 0.74859 0.78758 0.10217 0.0
H402 H 0.74966 0.81651 0.20349 0.0
H403 H 0.75407 0.82363 0.33113 0.0
H404 H 0.7666 0.75853 0.4626 0.0
H405 H 0.76548 0.72979 0.3613 0.0
C406 C 0.75955 0.74336 0.22763 0.0
C407 C 0.75539 0.75303 0.16057 0.0
C408 C 0.75953 0.75988 0.28657 0.0
C409 C 0.75198 0.77961 0.15319 0.0
C410 C 0.75242 0.79619 0.21123 0.0
C411 C 0.75608 0.8031 0.33756 0.0
C412 C 0.7603 0.79331 0.40453 0.0
C413 C 0.75589 0.78655 0.27846 0.0
C414 C 0.76332 0.76664 0.41168 0.0
C415 C 0.76284 0.75014 0.35366 0.0
H416 H 0.50789 0.5636 0.1378 0.0
H417 H 0.5536 0.49779 0.10486 0.0
H418 H 0.53222 0.48895 0.99331 0.0
H419 H 0.50039 0.49938 0.90615 0.0
H420 H 0.45431 0.56496 0.93821 0.0
H421 H 0.47632 0.5745 0.04896 0.0
C422 C 0.51319 0.54726 0.10644 0.0
C423 C 0.53236 0.53133 0.13026 0.0
C424 C 0.50086 0.54231 0.042 0.0
C425 C 0.53898 0.51038 0.08827 0.0
C426 C 0.52676 0.50531 0.0243 0.0
C427 C 0.49513 0.51589 0.93692 0.0
C428 C 0.47557 0.5314 0.91344 0.0
C429 C 0.50767 0.52112 1.00074 0.0
C430 C 0.46923 0.55267 0.95458 0.0
C431 C 0.48177 0.55809 0.01813 0.0
H432 H 0.05022 0.51159 0.47128 0.0
H433 H 0.98607 0.536 0.3517 0.0
H434 H 0.9587 0.53413 0.4557 0.0
H435 H 0.95289 0.5261 0.58193 0.0
H436 H 0.01727 0.50192 0.70115 0.0
H437 H 0.04445 0.50356 0.59704 0.0
C438 C 0.03015 0.51611 0.46779 0.0
C439 C 0.02025 0.52377 0.40354 0.0
C440 C 0.01453 0.51546 0.5283 0.0
C441 C 0.99426 0.53001 0.40041 0.0
C442 C 0.97856 0.52906 0.46002 0.0
C443 C 0.97293 0.52149 0.58521 0.0
C444 C 0.98293 0.51393 0.64948 0.0
C445 C 0.98853 0.5221 0.52455 0.0
C446 C 0.00895 0.50772 0.65242 0.0
C447 C 0.02456 0.50856 0.59276 0.0
H448 H 0.04256 0.55096 0.0952 0.0
H449 H 0.02361 0.47011 0.1352 0.0
H450 H 0.99026 0.4692 0.04571 0.0
H451 H 0.96655 0.49124 0.95662 0.0
H452 H 0.98508 0.57207 0.91589 0.0
H453 H 0.01882 0.57307 1.00489 0.0
C454 C 0.03107 0.53317 0.08442 0.0
C455 C 0.03549 0.51064 0.12175 0.0
C456 C 0.01203 0.53275 0.0326 0.0
C457 C 0.02055 0.48771 0.10716 0.0
C458 C 1.00152 0.48715 0.05594 0.0
C459 C 0.97804 0.50907 0.96693 0.0
C460 C 0.97337 0.53155 0.92979 0.0
C461 C 0.99716 0.50953 0.0183 0.0
C462 C 0.98836 0.55451 0.94381 0.0
C463 C 0.00758 0.5551 0.99477 0.0
H464 H 0.46599 0.4953 0.59127 0.0
H465 H 0.48614 0.57572 0.63725 0.0
H466 H 0.51992 0.57653 0.54864 0.0
H467 H 0.54297 0.55512 0.45658 0.0
H468 H 0.52402 0.47473 0.40861 0.0
H469 H 0.49031 0.47324 0.49908 0.0
C470 C 0.47797 0.51289 0.58221 0.0
C471 C 0.47354 0.53543 0.62064 0.0
C472 C 0.49732 0.51333 0.5304 0.0
C473 C 0.4891 0.55813 0.60825 0.0
C474 C 0.50839 0.55866 0.55745 0.0
C475 C 0.53143 0.53724 0.46559 0.0
C476 C 0.53586 0.51511 0.42574 0.0
C477 C 0.51246 0.53649 0.51779 0.0
C478 C 0.52087 0.49207 0.43849 0.0
C479 C 0.50168 0.4912 0.49032 0.0
H480 H 0.13234 0.47114 0.11232 0.0
H481 H 0.14963 0.46036 0.32967 0.0
H482 H 0.1818 0.42967 0.29707 0.0
H483 H 0.20515 0.40632 0.20647 0.0
H484 H 0.18535 0.41461 0.98978 0.0
H485 H 0.15379 0.44586 0.02234 0.0
C486 C 0.14324 0.46215 0.1526 0.0
C487 C 0.13892 0.46828 0.22338 0.0
C488 C 0.16112 0.44409 0.13346 0.0
C489 C 0.15273 0.45606 0.27497 0.0
C490 C 0.1711 0.43855 0.25626 0.0
C491 C 0.19394 0.41501 0.16632 0.0
C492 C 0.19777 0.4084 0.09562 0.0
C493 C 0.1755 0.43249 0.18566 0.0
C494 C 0.18279 0.41942 0.04439 0.0
C495 C 0.16481 0.43732 0.06305 0.0
H496 H 0.7919 0.91611 0.4303 0.0
H497 H 0.84833 0.89887 0.5853 0.0
H498 H 0.87924 0.93069 0.53485 0.0
H499 H 0.8924 0.95899 0.4384 0.0
H500 H 0.83749 0.9769 0.28133 0.0
H501 H 0.80372 0.94956 0.34092 0.0
C502 C 0.81076 0.91977 0.45381 0.0
C503 C 0.81794 0.90476 0.51075 0.0
C504 C 0.8288 0.93801 0.42371 0.0
C505 C 0.84245 0.90978 0.54073 0.0
C506 C 0.86019 0.92799 0.51196 0.0
C507 C 0.87284 0.95729 0.41821 0.0
C508 C 0.86726 0.96964 0.35587 0.0
C509 C 0.8539 0.94149 0.45215 0.0
C510 C 0.84201 0.96752 0.32969 0.0
C511 C 0.82284 0.95178 0.36348 0.0
H512 H 0.30745 0.6236 0.53423 0.0
H513 H 0.29736 0.66088 0.7333 0.0
H514 H 0.32894 0.63402 0.78616 0.0
H515 H 0.35951 0.59951 0.77578 0.0
H516 H 0.3668 0.56027 0.57779 0.0
H517 H 0.33622 0.58783 0.52528 0.0
C518 C 0.31223 0.62576 0.58911 0.0
C519 C 0.30022 0.64412 0.62983 0.0
C520 C 0.32983 0.60972 0.61966 0.0
C521 C 0.30629 0.64666 0.70109 0.0
C522 C 0.32437 0.63135 0.73133 0.0
C523 C 0.35432 0.59698 0.72129 0.0
C524 C 0.36556 0.57788 0.68097 0.0
C525 C 0.33625 0.61271 0.69121 0.0
C526 C 0.3585 0.57479 0.61034 0.0
C527 C 0.34101 0.59061 0.57994 0.0
H528 H 0.66662 0.15082 0.01339 0.0
H529 H 0.73576 0.12774 0.91089 0.0
H530 H 0.71012 0.095 0.8435 0.0
H531 H 0.66692 0.07567 0.80578 0.0
H532 H 0.59871 0.10134 0.90781 0.0
H533 H 0.62506 0.13003 0.98323 0.0
C534 C 0.67623 0.13854 0.97677 0.0
C535 C 0.70305 0.14203 0.96677 0.0
C536 C 0.6614 0.12021 0.93751 0.0
C537 C 0.7151 0.12557 0.91968 0.0
C538 C 0.70041 0.1069 0.88079 0.0
C539 C 0.65801 0.08735 0.84516 0.0
C540 C 0.63091 0.08672 0.85054 0.0
C541 C 0.6734 0.10444 0.88801 0.0
C542 C 0.61952 0.10187 0.90184 0.0
C543 C 0.63455 0.11826 0.94517 0.0
H544 H 0.1596 0.57104 0.31688 0.0
H545 H 0.09003 0.59437 0.41671 0.0
H546 H 0.11522 0.62387 0.49302 0.0
H547 H 0.15595 0.64611 0.52351 0.0
H548 H 0.22632 0.62601 0.42192 0.0
H549 H 0.2021 0.59194 0.35516 0.0
C550 C 0.15017 0.5824 0.35605 0.0
C551 C 0.12304 0.5809 0.36084 0.0
C552 C 0.16485 0.59998 0.39904 0.0
C553 C 0.11089 0.59559 0.41161 0.0
C554 C 0.12525 0.61241 0.45531 0.0
C555 C 0.16613 0.63418 0.48719 0.0
C556 C 0.19282 0.63888 0.47699 0.0
C557 C 0.1521 0.61527 0.44816 0.0
C558 C 0.20572 0.62285 0.43068 0.0
C559 C 0.19185 0.60348 0.39215 0.0
H560 H 0.65026 0.95653 0.7715 0.0
H561 H 0.64476 0.99526 0.57414 0.0
H562 H 0.67232 0.96465 0.51916 0.0
H563 H 0.69849 0.92643 0.52632 0.0
H564 H 0.70584 0.88946 0.72542 0.0
H565 H 0.67725 0.91932 0.7795 0.0
C566 C 0.65525 0.95837 0.71664 0.0
C567 C 0.64545 0.9783 0.67743 0.0
C568 C 0.67144 0.94075 0.68504 0.0
C569 C 0.65213 0.98028 0.60612 0.0
C570 C 0.66784 0.96265 0.57425 0.0
C571 C 0.69365 0.92488 0.58132 0.0
C572 C 0.70426 0.90571 0.62158 0.0
C573 C 0.6776 0.9427 0.613 0.0
C574 C 0.69804 0.90413 0.69315 0.0
C575 C 0.68166 0.92123 0.72434 0.0
H576 H 0.35021 0.45658 0.76261 0.0
H577 H 0.39158 0.49026 0.93879 0.0
H578 H 0.36301 0.46543 0.01917 0.0
H579 H 0.3295 0.43044 0.03823 0.0
H580 H 0.28619 0.39835 0.86346 0.0
H581 H 0.31186 0.42643 0.78335 0.0
C582 C 0.35251 0.45872 0.81864 0.0
C583 C 0.37289 0.47488 0.84532 0.0
C584 C 0.33577 0.44464 0.8645 0.0
C585 C 0.3759 0.47779 0.9177 0.0
C586 C 0.35967 0.46358 0.9635 0.0
C587 C 0.32533 0.43016 0.98278 0.0
C588 C 0.30618 0.41249 0.95638 0.0
C589 C 0.33999 0.44644 0.93743 0.0
C590 C 0.30077 0.4121 0.88465 0.0
C591 C 0.31558 0.42795 0.83889 0.0
H592 H 0.8088 0.14439 0.19454 0.0
H593 H 0.82315 0.12893 0.97678 0.0
H594 H 0.8523 0.09561 1.00873 0.0
H595 H 0.87378 0.07097 0.09904 0.0
H596 H 0.86172 0.08899 0.31646 0.0
H597 H 0.83154 0.12121 0.28431 0.0
C598 C 0.81823 0.13366 0.15403 0.0
C599 C 0.81366 0.13893 0.08334 0.0
C600 C 0.83535 0.115 0.17285 0.0
C601 C 0.82635 0.12519 0.0315 0.0
C602 C 0.84296 0.10612 0.0498 0.0
C603 C 0.86442 0.08188 0.13933 0.0
C604 C 0.86976 0.07745 0.21009 0.0
C605 C 0.84759 0.10085 0.12033 0.0
C606 C 0.85788 0.09203 0.2617 0.0
C607 C 0.84062 0.11043 0.24333 0.0
H608 H 0.80571 0.63908 0.86085 0.0
H609 H 0.82459 0.628 0.07715 0.0
H610 H 0.85429 0.59518 0.04289 0.0
H611 H 0.87475 0.56973 0.9515 0.0
H612 H 0.85805 0.58286 0.73478 0.0
H613 H 0.82749 0.61488 0.76917 0.0
C614 C 0.81625 0.62942 0.90064 0.0
C615 C 0.81273 0.63579 0.97169 0.0
C616 C 0.83361 0.61098 0.88036 0.0
C617 C 0.82687 0.62341 0.02231 0.0
C618 C 0.84382 0.60463 1.00266 0.0
C619 C 0.86431 0.57948 0.91168 0.0
C620 C 0.86842 0.57367 0.84054 0.0
C621 C 0.84728 0.59823 0.93188 0.0
C622 C 0.85514 0.58686 0.78973 0.0
C623 C 0.83769 0.60516 0.80946 0.0
H624 H 0.17313 0.13143 0.51734 0.0
H625 H 0.23106 0.13877 0.67794 0.0
H626 H 0.20706 0.1055 0.74681 0.0
H627 H 0.16614 0.07901 0.76814 0.0
H628 H 0.1085 0.07281 0.60682 0.0
H629 H 0.13589 0.10066 0.53087 0.0
C630 C 0.18072 0.1254 0.56687 0.0
C631 C 0.20354 0.13775 0.59314 0.0
C632 C 0.16675 0.10656 0.60615 0.0
C633 C 0.21345 0.12953 0.65677 0.0
C634 C 0.19965 0.11065 0.69635 0.0
C635 C 0.16007 0.08326 0.71559 0.0
C636 C 0.13554 0.07404 0.69248 0.0
C637 C 0.1758 0.09969 0.67264 0.0
C638 C 0.12747 0.07974 0.62496 0.0
C639 C 0.14302 0.09574 0.58184 0.0
H640 H 0.70734 0.41298 0.34168 0.0
H641 H 0.68925 0.42217 0.56015 0.0
H642 H 0.65936 0.45511 0.53154 0.0
H643 H 0.63776 0.48062 0.44436 0.0
H644 H 0.65352 0.46936 0.22533 0.0
H645 H 0.68505 0.43793 0.25416 0.0
C646 C 0.69696 0.42231 0.38308 0.0
C647 C 0.70063 0.41526 0.45305 0.0
C648 C 0.67942 0.44083 0.36607 0.0
C649 C 0.68678 0.42725 0.50596 0.0
C650 C 0.66971 0.4461 0.48961 0.0
C651 C 0.64826 0.47146 0.4029 0.0
C652 C 0.6435 0.47749 0.33275 0.0
C653 C 0.66583 0.45298 0.41985 0.0
C654 C 0.65691 0.46511 0.27967 0.0
C655 C 0.67491 0.44714 0.29617 0.0
H656 H 0.39985 0.96224 0.14455 0.0
H657 H 0.34312 0.99043 0.28553 0.0
H658 H 0.30904 0.96271 0.22795 0.0
H659 H 0.2967 0.9271 0.14343 0.0
H660 H 0.35488 0.90147 1.00118 0.0
H661 H 0.3869 0.93179 0.05247 0.0
C662 C 0.37995 0.96243 0.1622 0.0
C663 C 0.37389 0.97778 0.21957 0.0
C664 C 0.36075 0.94686 0.12861 0.0
C665 C 0.34809 0.97846 0.24152 0.0
C666 C 0.32871 0.96261 0.20872 0.0
C667 C 0.31625 0.92856 0.12292 0.0
C668 C 0.32343 0.91156 0.06953 0.0
C669 C 0.33493 0.94625 0.15298 0.0
C670 C 0.34885 0.91386 0.04318 0.0
C671 C 0.36728 0.93123 0.07243 0.0
H672 H 0.82523 0.38086 0.65393 0.0
H673 H 0.79781 0.43997 0.52203 0.0
H674 H 0.82471 0.47311 0.58583 0.0
H675 H 0.85898 0.48427 0.674 0.0
H676 H 0.88378 0.42385 0.80757 0.0
H677 H 0.85465 0.39243 0.74918 0.0
C678 C 0.82506 0.40106 0.63952 0.0
C679 C 0.8101 0.40806 0.58294 0.0
C680 C 0.8401 0.41977 0.67684 0.0
C681 C 0.80945 0.43425 0.56534 0.0
C682 C 0.82483 0.45311 0.60172 0.0
C683 C 0.85765 0.46433 0.69106 0.0
C684 C 0.87404 0.45645 0.74433 0.0
C685 C 0.84065 0.44602 0.65693 0.0
C686 C 0.87187 0.43051 0.76596 0.0
C687 C 0.85518 0.4124 0.73257 0.0
H688 H 0.30549 0.15112 0.3645 0.0
H689 H 0.32524 0.14197 0.58093 0.0
H690 H 0.35704 0.11105 0.54736 0.0
H691 H 0.37864 0.08623 0.45625 0.0
H692 H 0.36059 0.09767 0.23957 0.0
H693 H 0.32857 0.12817 0.27345 0.0
C694 C 0.31675 0.14235 0.40442 0.0
C695 C 0.31287 0.14861 0.47523 0.0
C696 C 0.33519 0.12501 0.38459 0.0
C697 C 0.32787 0.13743 0.52617 0.0
C698 C 0.34597 0.11972 0.50695 0.0
C699 C 0.36763 0.09537 0.41647 0.0
C700 C 0.37175 0.08953 0.34547 0.0
C701 C 0.34968 0.11328 0.43634 0.0
C702 C 0.35771 0.10182 0.29447 0.0
C703 C 0.3394 0.11922 0.31385 0.0
H704 H 0.65348 0.56571 0.1864 0.0
H705 H 0.61807 0.62669 0.29993 0.0
H706 H 0.64759 0.65872 0.24604 0.0
H707 H 0.6808 0.67028 0.15996 0.0
H708 H 0.71867 0.61085 0.04881 0.0
H709 H 0.69101 0.5774 0.10851 0.0
C710 C 0.65249 0.58595 0.20007 0.0
C711 C 0.63311 0.59367 0.24626 0.0
C712 C 0.66976 0.60463 0.16874 0.0
C713 C 0.63236 0.62005 0.26374 0.0
C714 C 0.64927 0.63852 0.23292 0.0
C715 C 0.68305 0.64996 0.14911 0.0
C716 C 0.70124 0.64291 0.09943 0.0
C717 C 0.66751 0.63112 0.1841 0.0
C718 C 0.70455 0.61661 0.08674 0.0
C719 C 0.68873 0.59757 0.12072 0.0
H720 H 0.21031 0.90839 0.85825 0.0
H721 H 0.20224 0.92907 0.0753 0.0
H722 H 0.16989 0.95943 0.04503 0.0
H723 H 0.14323 0.97938 0.95709 0.0
H724 H 0.14853 0.95598 0.74128 0.0
H725 H 0.18252 0.92732 0.77064 0.0
C726 C 0.20163 0.91974 0.89877 0.0
C727 C 0.20886 0.91675 0.96885 0.0
C728 C 0.18244 0.93652 0.88116 0.0
C729 C 0.19706 0.93114 0.02101 0.0
C730 C 0.17856 0.94846 1.00371 0.0
C731 C 0.15191 0.96809 0.91643 0.0
C732 C 0.14351 0.96994 0.84698 0.0
C733 C 0.17099 0.95121 0.93402 0.0
C734 C 0.15466 0.95489 0.79508 0.0
C735 C 0.17413 0.93855 0.81185 0.0
loop_
_geom_bond_atom_site_label_1
_geom_bond_atom_site_label_2
_geom_bond_distance
_geom_bond_site_symmetry_2
_ccdc_geom_bond_type
Co0 O1 2.216 . S
Co0 O2 2.091 . S
Co0 O4 2.004 1_554 S
Co0 O10 2.021 1_554 S
Co0 O12 2.137 . S
Co0 O13 2.244 . S
O1 Co0 2.216 . S
O1 C8 1.247 . S
O2 Co0 2.091 . S
O2 C8 1.261 . S
C3 O12 1.247 . S
C3 O13 1.272 . S
O4 Co0 2.004 1_556 S
O4 C9 1.259 . S
Co5 O6 2.061 1_554 S
Co5 O11 2.052 . S
Co5 O13 2.135 . S
O6 Co5 2.061 1_556 S
O6 C9 1.235 . S
C7 O10 1.238 . S
C7 O11 1.241 1_556 S
C8 O1 1.247 . S
C8 O2 1.261 . S
C9 O4 1.259 . S
C9 O6 1.235 . S
O10 Co0 2.021 1_556 S
O10 C7 1.238 . S
O11 Co5 2.052 . S
O11 C7 1.241 1_554 S
O12 Co0 2.137 . S
O12 C3 1.247 . S
O13 Co0 2.244 . S
O13 C3 1.272 . S
O13 Co5 2.135 . S
Co14 O15 2.216 . S
Co14 O16 2.091 . S
Co14 O18 2.004 . S
Co14 O24 2.021 . S
Co14 O26 2.137 . S
Co14 O27 2.244 . S
O15 Co14 2.216 . S
O15 C22 1.247 . S
O16 Co14 2.091 . S
O16 C22 1.261 . S
C17 O26 1.247 . S
C17 O27 1.272 . S
O18 Co14 2.004 . S
O18 C23 1.259 . S
Co19 O20 2.061 . S
Co19 O25 2.052 . S
Co19 O27 2.135 1_565 S
O20 Co19 2.061 . S
O20 C23 1.235 1_565 S
C21 O24 1.238 1_565 S
C21 O25 1.241 . S
C22 O15 1.247 . S
C22 O16 1.261 . S
C23 O18 1.259 . S
C23 O20 1.235 1_545 S
O24 Co14 2.021 . S
O24 C21 1.238 1_545 S
O25 Co19 2.052 . S
O25 C21 1.241 . S
O26 Co14 2.137 . S
O26 C17 1.247 . S
O27 Co14 2.244 . S
O27 C17 1.272 . S
O27 Co19 2.135 1_545 S
Co28 O29 2.216 . S
Co28 O30 2.091 . S
Co28 O32 2.004 . S
Co28 O38 2.021 . S
Co28 O40 2.137 . S
Co28 O41 2.244 . S
O29 Co28 2.216 . S
O29 C36 1.247 . S
O30 Co28 2.091 . S
O30 C36 1.261 . S
C31 O40 1.247 . S
C31 O41 1.272 . S
O32 Co28 2.004 . S
O32 C37 1.259 . S
Co33 O34 2.061 . S
Co33 O39 2.052 . S
Co33 O41 2.135 . S
O34 Co33 2.061 . S
O34 C37 1.235 . S
C35 O38 1.238 . S
C35 O39 1.241 . S
C36 O29 1.247 . S
C36 O30 1.261 . S
C37 O32 1.259 . S
C37 O34 1.235 . S
O38 Co28 2.021 . S
O38 C35 1.238 . S
O39 Co33 2.052 . S
O39 C35 1.241 . S
O40 Co28 2.137 . S
O40 C31 1.247 . S
O41 Co28 2.244 . S
O41 C31 1.272 . S
O41 Co33 2.135 . S
Co42 O43 2.216 . S
Co42 O44 2.091 1_545 S
Co42 O46 2.004 . S
Co42 O52 2.021 . S
Co42 O54 2.137 1_545 S
Co42 O55 2.244 . S
O43 Co42 2.216 . S
O43 C50 1.247 1_545 S
O44 Co42 2.091 1_565 S
O44 C50 1.261 . S
C45 O54 1.247 1_545 S
C45 O55 1.272 . S
O46 Co42 2.004 . S
O46 C51 1.259 . S
Co47 O48 2.061 . S
Co47 O53 2.052 . S
Co47 O55 2.135 . S
O48 Co47 2.061 . S
O48 C51 1.235 . S
C49 O52 1.238 . S
C49 O53 1.241 . S
C50 O43 1.247 1_565 S
C50 O44 1.261 . S
C51 O46 1.259 . S
C51 O48 1.235 . S
O52 Co42 2.021 . S
O52 C49 1.238 . S
O53 Co47 2.052 . S
O53 C49 1.241 . S
O54 Co42 2.137 1_565 S
O54 C45 1.247 1_565 S
O55 Co42 2.244 . S
O55 C45 1.272 . S
O55 Co47 2.135 . S
Co56 O57 2.216 1_554 S
Co56 O58 2.091 . S
Co56 O60 2.004 . S
Co56 O66 2.021 . S
Co56 O68 2.137 1_554 S
Co56 O69 2.244 1_554 S
O57 Co56 2.216 1_556 S
O57 C64 1.247 . S
O58 Co56 2.091 . S
O58 C64 1.261 1_554 S
C59 O68 1.247 . S
C59 O69 1.272 . S
O60 Co56 2.004 . S
O60 C65 1.259 . S
Co61 O62 2.061 . S
Co61 O67 2.052 . S
Co61 O69 2.135 1_554 S
O62 Co61 2.061 . S
O62 C65 1.235 . S
C63 O66 1.238 . S
C63 O67 1.241 . S
C64 O57 1.247 . S
C64 O58 1.261 1_556 S
C65 O60 1.259 . S
C65 O62 1.235 . S
O66 Co56 2.021 . S
O66 C63 1.238 . S
O67 Co61 2.052 . S
O67 C63 1.241 . S
O68 Co56 2.137 1_556 S
O68 C59 1.247 . S
O69 Co56 2.244 1_556 S
O69 C59 1.272 . S
O69 Co61 2.135 1_556 S
Co70 O71 2.216 . S
Co70 O72 2.091 1_545 S
Co70 O74 2.004 . S
Co70 O80 2.021 . S
Co70 O82 2.137 1_545 S
Co70 O83 2.244 . S
O71 Co70 2.216 . S
O71 C78 1.247 1_545 S
O72 Co70 2.091 1_565 S
O72 C78 1.261 . S
C73 O82 1.247 1_545 S
C73 O83 1.272 . S
O74 Co70 2.004 . S
O74 C79 1.259 . S
Co75 O76 2.061 . S
Co75 O81 2.052 . S
Co75 O83 2.135 . S
O76 Co75 2.061 . S
O76 C79 1.235 . S
C77 O80 1.238 . S
C77 O81 1.241 . S
C78 O71 1.247 1_565 S
C78 O72 1.261 . S
C79 O74 1.259 . S
C79 O76 1.235 . S
O80 Co70 2.021 . S
O80 C77 1.238 . S
O81 Co75 2.052 . S
O81 C77 1.241 . S
O82 Co70 2.137 1_565 S
O82 C73 1.247 1_565 S
O83 Co70 2.244 . S
O83 C73 1.272 . S
O83 Co75 2.135 . S
Co84 O85 2.216 . S
Co84 O86 2.091 . S
Co84 O88 2.004 . S
Co84 O94 2.021 . S
Co84 O96 2.137 . S
Co84 O97 2.244 . S
O85 Co84 2.216 . S
O85 C92 1.247 . S
O86 Co84 2.091 . S
O86 C92 1.261 . S
C87 O96 1.247 . S
C87 O97 1.272 . S
O88 Co84 2.004 . S
O88 C93 1.259 . S
Co89 O90 2.061 . S
Co89 O95 2.052 . S
Co89 O97 2.135 . S
O90 Co89 2.061 . S
O90 C93 1.235 . S
C91 O94 1.238 . S
C91 O95 1.241 . S
C92 O85 1.247 . S
C92 O86 1.261 . S
C93 O88 1.259 . S
C93 O90 1.235 . S
O94 Co84 2.021 . S
O94 C91 1.238 . S
O95 Co89 2.052 . S
O95 C91 1.241 . S
O96 Co84 2.137 . S
O96 C87 1.247 . S
O97 Co84 2.244 . S
O97 C87 1.272 . S
O97 Co89 2.135 . S
Co98 O99 2.216 . S
Co98 O100 2.091 . S
Co98 O102 2.004 . S
Co98 O108 2.021 . S
Co98 O110 2.137 . S
Co98 O111 2.244 . S
O99 Co98 2.216 . S
O99 C106 1.247 . S
O100 Co98 2.091 . S
O100 C106 1.261 . S
C101 O110 1.247 . S
C101 O111 1.272 . S
O102 Co98 2.004 . S
O102 C107 1.259 . S
Co103 O104 2.061 . S
Co103 O109 2.052 . S
Co103 O111 2.135 1_565 S
O104 Co103 2.061 . S
O104 C107 1.235 1_565 S
C105 O108 1.238 1_565 S
C105 O109 1.241 . S
C106 O99 1.247 . S
C106 O100 1.261 . S
C107 O102 1.259 . S
C107 O104 1.235 1_545 S
O108 Co98 2.021 . S
O108 C105 1.238 1_545 S
O109 Co103 2.052 . S
O109 C105 1.241 . S
O110 Co98 2.137 . S
O110 C101 1.247 . S
O111 Co98 2.244 . S
O111 C101 1.272 . S
O111 Co103 2.135 1_545 S
Co112 O113 2.216 . S
Co112 O114 2.091 . S
Co112 O116 2.004 . S
Co112 O122 2.021 . S
Co112 O124 2.137 . S
Co112 O125 2.244 . S
O113 Co112 2.216 . S
O113 C120 1.247 . S
O114 Co112 2.091 . S
O114 C120 1.261 . S
C115 O124 1.247 . S
C115 O125 1.272 . S
O116 Co112 2.004 . S
O116 C121 1.259 . S
Co117 O118 2.061 . S
Co117 O123 2.052 . S
Co117 O125 2.135 . S
O118 Co117 2.061 . S
O118 C121 1.235 . S
C119 O122 1.238 . S
C119 O123 1.241 . S
C120 O113 1.247 . S
C120 O114 1.261 . S
C121 O116 1.259 . S
C121 O118 1.235 . S
O122 Co112 2.021 . S
O122 C119 1.238 . S
O123 Co117 2.052 . S
O123 C119 1.241 . S
O124 Co112 2.137 . S
O124 C115 1.247 . S
O125 Co112 2.244 . S
O125 C115 1.272 . S
O125 Co117 2.135 . S
Co126 O127 2.216 . S
Co126 O128 2.091 . S
Co126 O130 2.004 . S
Co126 O136 2.021 . S
Co126 O138 2.137 . S
Co126 O139 2.244 . S
O127 Co126 2.216 . S
O127 C134 1.247 . S
O128 Co126 2.091 . S
O128 C134 1.261 . S
C129 O138 1.247 . S
C129 O139 1.272 . S
O130 Co126 2.004 . S
O130 C135 1.259 . S
Co131 O132 2.061 . S
Co131 O137 2.052 . S
Co131 O139 2.135 . S
O132 Co131 2.061 . S
O132 C135 1.235 . S
C133 O136 1.238 . S
C133 O137 1.241 . S
C134 O127 1.247 . S
C134 O128 1.261 . S
C135 O130 1.259 . S
C135 O132 1.235 . S
O136 Co126 2.021 . S
O136 C133 1.238 . S
O137 Co131 2.052 . S
O137 C133 1.241 . S
O138 Co126 2.137 . S
O138 C129 1.247 . S
O139 Co126 2.244 . S
O139 C129 1.272 . S
O139 Co131 2.135 . S
Co140 O141 2.216 . S
Co140 O142 2.091 . S
Co140 O144 2.004 1_554 S
Co140 O150 2.021 1_554 S
Co140 O152 2.137 . S
Co140 O153 2.244 . S
O141 Co140 2.216 . S
O141 C148 1.247 . S
O142 Co140 2.091 . S
O142 C148 1.261 . S
C143 O152 1.247 . S
C143 O153 1.272 . S
O144 Co140 2.004 1_556 S
O144 C149 1.259 . S
Co145 O146 2.061 1_554 S
Co145 O151 2.052 . S
Co145 O153 2.135 . S
O146 Co145 2.061 1_556 S
O146 C149 1.235 . S
C147 O150 1.238 . S
C147 O151 1.241 1_556 S
C148 O141 1.247 . S
C148 O142 1.261 . S
C149 O144 1.259 . S
C149 O146 1.235 . S
O150 Co140 2.021 1_556 S
O150 C147 1.238 . S
O151 Co145 2.052 . S
O151 C147 1.241 1_554 S
O152 Co140 2.137 . S
O152 C143 1.247 . S
O153 Co140 2.244 . S
O153 C143 1.272 . S
O153 Co145 2.135 . S
Co154 O155 2.216 . S
Co154 O156 2.091 . S
Co154 O158 2.004 . S
Co154 O164 2.021 . S
Co154 O166 2.137 . S
Co154 O167 2.244 . S
O155 Co154 2.216 . S
O155 C162 1.247 . S
O156 Co154 2.091 . S
O156 C162 1.261 . S
C157 O166 1.247 . S
C157 O167 1.272 . S
O158 Co154 2.004 . S
O158 C163 1.259 . S
Co159 O160 2.061 . S
Co159 O165 2.052 . S
Co159 O167 2.135 . S
O160 Co159 2.061 . S
O160 C163 1.235 . S
C161 O164 1.238 . S
C161 O165 1.241 . S
C162 O155 1.247 . S
C162 O156 1.261 . S
C163 O158 1.259 . S
C163 O160 1.235 . S
O164 Co154 2.021 . S
O164 C161 1.238 . S
O165 Co159 2.052 . S
O165 C161 1.241 . S
O166 Co154 2.137 . S
O166 C157 1.247 . S
O167 Co154 2.244 . S
O167 C157 1.272 . S
O167 Co159 2.135 . S
Co168 O169 2.216 . S
Co168 O170 2.091 . S
Co168 O172 2.004 . S
Co168 O178 2.021 . S
Co168 O180 2.137 . S
Co168 O181 2.244 . S
O169 Co168 2.216 . S
O169 C176 1.247 . S
O170 Co168 2.091 . S
O170 C176 1.261 . S
C171 O180 1.247 . S
C171 O181 1.272 . S
O172 Co168 2.004 . S
O172 C177 1.259 . S
Co173 O174 2.061 . S
Co173 O179 2.052 . S
Co173 O181 2.135 . S
O174 Co173 2.061 . S
O174 C177 1.235 . S
C175 O178 1.238 . S
C175 O179 1.241 . S
C176 O169 1.247 . S
C176 O170 1.261 . S
C177 O172 1.259 . S
C177 O174 1.235 . S
O178 Co168 2.021 . S
O178 C175 1.238 . S
O179 Co173 2.052 . S
O179 C175 1.241 . S
O180 Co168 2.137 . S
O180 C171 1.247 . S
O181 Co168 2.244 . S
O181 C171 1.272 . S
O181 Co173 2.135 . S
Co182 O183 2.216 . S
Co182 O184 2.091 . S
Co182 O186 2.004 . S
Co182 O192 2.021 . S
Co182 O194 2.137 . S
Co182 O195 2.244 . S
O183 Co182 2.216 . S
O183 C190 1.247 . S
O184 Co182 2.091 . S
O184 C190 1.261 . S
C185 O194 1.247 . S
C185 O195 1.272 . S
O186 Co182 2.004 . S
O186 C191 1.259 . S
Co187 O188 2.061 . S
Co187 O193 2.052 . S
Co187 O195 2.135 . S
O188 Co187 2.061 . S
O188 C191 1.235 . S
C189 O192 1.238 . S
C189 O193 1.241 . S
C190 O183 1.247 . S
C190 O184 1.261 . S
C191 O186 1.259 . S
C191 O188 1.235 . S
O192 Co182 2.021 . S
O192 C189 1.238 . S
O193 Co187 2.052 . S
O193 C189 1.241 . S
O194 Co182 2.137 . S
O194 C185 1.247 . S
O195 Co182 2.244 . S
O195 C185 1.272 . S
O195 Co187 2.135 . S
Co196 O197 2.216 1_554 S
Co196 O198 2.091 . S
Co196 O200 2.004 . S
Co196 O206 2.021 . S
Co196 O208 2.137 1_554 S
Co196 O209 2.244 1_554 S
O197 Co196 2.216 1_556 S
O197 C204 1.247 . S
O198 Co196 2.091 . S
O198 C204 1.261 1_554 S
C199 O208 1.247 . S
C199 O209 1.272 . S
O200 Co196 2.004 . S
O200 C205 1.259 . S
Co201 O202 2.061 . S
Co201 O207 2.052 . S
Co201 O209 2.135 1_554 S
O202 Co201 2.061 . S
O202 C205 1.235 . S
C203 O206 1.238 . S
C203 O207 1.241 . S
C204 O197 1.247 . S
C204 O198 1.261 1_556 S
C205 O200 1.259 . S
C205 O202 1.235 . S
O206 Co196 2.021 . S
O206 C203 1.238 . S
O207 Co201 2.052 . S
O207 C203 1.241 . S
O208 Co196 2.137 1_556 S
O208 C199 1.247 . S
O209 Co196 2.244 1_556 S
O209 C199 1.272 . S
O209 Co201 2.135 1_556 S
Co210 O211 2.216 . S
Co210 O212 2.091 . S
Co210 O214 2.004 . S
Co210 O220 2.021 . S
Co210 O222 2.137 . S
Co210 O223 2.244 . S
O211 Co210 2.216 . S
O211 C218 1.247 . S
O212 Co210 2.091 . S
O212 C218 1.261 . S
C213 O222 1.247 . S
C213 O223 1.272 . S
O214 Co210 2.004 . S
O214 C219 1.259 . S
Co215 O216 2.061 . S
Co215 O221 2.052 . S
Co215 O223 2.135 . S
O216 Co215 2.061 . S
O216 C219 1.235 . S
C217 O220 1.238 . S
C217 O221 1.241 . S
C218 O211 1.247 . S
C218 O212 1.261 . S
C219 O214 1.259 . S
C219 O216 1.235 . S
O220 Co210 2.021 . S
O220 C217 1.238 . S
O221 Co215 2.052 . S
O221 C217 1.241 . S
O222 Co210 2.137 . S
O222 C213 1.247 . S
O223 Co210 2.244 . S
O223 C213 1.272 . S
O223 Co215 2.135 . S
H224 C230 0.930 . S
H225 C233 0.930 . S
H226 C234 0.930 . S
H227 C235 0.930 . S
H228 C238 0.930 . S
H229 C239 0.930 . S
C230 H224 0.930 . S
C230 C231 1.355 . S
C230 C232 1.415 . S
C231 C230 1.355 . S
C231 C233 1.419 . S
C232 C230 1.415 . S
C232 C237 1.425 . S
C232 C239 1.409 . S
C233 H225 0.930 . S
C233 C231 1.419 . S
C233 C234 1.362 . S
C234 H226 0.930 . S
C234 C233 1.362 . S
C234 C237 1.409 . S
C235 H227 0.930 . S
C235 C236 1.355 . S
C235 C237 1.415 . S
C236 C235 1.355 . S
C236 C238 1.419 . S
C237 C232 1.425 . S
C237 C234 1.409 . S
C237 C235 1.415 . S
C238 H228 0.930 . S
C238 C236 1.419 . S
C238 C239 1.362 . S
C239 H229 0.930 . S
C239 C232 1.409 . S
C239 C238 1.362 . S
H240 C246 0.930 . S
H241 C249 0.930 . S
H242 C250 0.930 . S
H243 C251 0.930 . S
H244 C254 0.930 1_565 S
H245 C255 0.930 1_565 S
C246 H240 0.930 . S
C246 C247 1.355 . S
C246 C248 1.415 1_655 S
C247 C246 1.355 . S
C247 C249 1.419 . S
C248 C246 1.415 1_455 S
C248 C253 1.425 1_455 S
C248 C255 1.409 . S
C249 H241 0.930 . S
C249 C247 1.419 . S
C249 C250 1.362 . S
C250 H242 0.930 . S
C250 C249 1.362 . S
C250 C253 1.409 . S
C251 H243 0.930 . S
C251 C252 1.355 . S
C251 C253 1.415 1_455 S
C252 C251 1.355 . S
C252 C254 1.419 . S
C253 C248 1.425 1_655 S
C253 C250 1.409 . S
C253 C251 1.415 1_655 S
C254 H244 0.930 1_545 S
C254 C252 1.419 . S
C254 C255 1.362 . S
C255 H245 0.930 1_545 S
C255 C248 1.409 . S
C255 C254 1.362 . S
H256 C262 0.930 . S
H257 C265 0.930 . S
H258 C266 0.930 . S
H259 C267 0.930 . S
H260 C270 0.930 . S
H261 C271 0.930 . S
C262 H256 0.930 . S
C262 C263 1.355 . S
C262 C264 1.415 . S
C263 C262 1.355 . S
C263 C265 1.419 . S
C264 C262 1.415 . S
C264 C269 1.425 . S
C264 C271 1.409 . S
C265 H257 0.930 . S
C265 C263 1.419 . S
C265 C266 1.362 . S
C266 H258 0.930 . S
C266 C265 1.362 . S
C266 C269 1.409 . S
C267 H259 0.930 . S
C267 C268 1.355 . S
C267 C269 1.415 . S
C268 C267 1.355 . S
C268 C270 1.419 . S
C269 C264 1.425 . S
C269 C266 1.409 . S
C269 C267 1.415 . S
C270 H260 0.930 . S
C270 C268 1.419 . S
C270 C271 1.362 . S
C271 H261 0.930 . S
C271 C264 1.409 . S
C271 C270 1.362 . S
H272 C278 0.930 . S
H273 C281 0.930 1_565 S
H274 C282 0.942 1_556 S
H275 C283 0.930 1_565 S
H276 C286 0.930 . S
H277 C287 0.930 . S
C278 H272 0.930 . S
C278 C279 1.355 . S
C278 C280 1.415 . S
C279 C278 1.355 . S
C279 C281 1.419 . S
C280 C278 1.415 . S
C280 C285 1.425 1_554 S
C280 C287 1.409 . S
C281 H273 0.930 1_545 S
C281 C279 1.419 . S
C281 C282 1.358 1_545 S
C282 H274 0.942 1_554 S
C282 C281 1.358 1_565 S
C282 C285 1.402 1_564 S
C283 H275 0.930 1_545 S
C283 C284 1.355 . S
C283 C285 1.415 . S
C284 C283 1.355 . S
C284 C286 1.419 . S
C285 C280 1.425 1_556 S
C285 C282 1.402 1_546 S
C285 C283 1.415 . S
C286 H276 0.930 . S
C286 C284 1.419 . S
C286 C287 1.362 1_556 S
C287 H277 0.930 . S
C287 C280 1.409 . S
C287 C286 1.362 1_554 S
H288 C294 0.930 . S
H289 C297 0.930 . S
H290 C298 0.930 . S
H291 C299 0.930 . S
H292 C302 0.930 . S
H293 C303 0.930 . S
C294 H288 0.930 . S
C294 C295 1.355 . S
C294 C296 1.415 . S
C295 C294 1.355 . S
C295 C297 1.419 . S
C296 C294 1.415 . S
C296 C301 1.425 . S
C296 C303 1.409 . S
C297 H289 0.930 . S
C297 C295 1.419 . S
C297 C298 1.362 . S
C298 H290 0.930 . S
C298 C297 1.362 . S
C298 C301 1.409 . S
C299 H291 0.930 . S
C299 C300 1.355 . S
C299 C301 1.415 . S
C300 C299 1.355 . S
C300 C302 1.419 . S
C301 C296 1.425 . S
C301 C298 1.409 . S
C301 C299 1.415 . S
C302 H292 0.930 . S
C302 C300 1.419 . S
C302 C303 1.362 . S
C303 H293 0.930 . S
C303 C296 1.409 . S
C303 C302 1.362 . S
H304 C310 0.930 . S
H305 C313 0.930 . S
H306 C314 0.930 . S
H307 C315 0.930 . S
H308 C318 0.930 . S
H309 C319 0.930 . S
C310 H304 0.930 . S
C310 C311 1.355 . S
C310 C312 1.415 . S
C311 C310 1.355 . S
C311 C313 1.419 . S
C312 C310 1.415 . S
C312 C317 1.425 . S
C312 C319 1.409 . S
C313 H305 0.930 . S
C313 C311 1.419 . S
C313 C314 1.362 . S
C314 H306 0.930 . S
C314 C313 1.362 . S
C314 C317 1.409 . S
C315 H307 0.930 . S
C315 C316 1.355 . S
C315 C317 1.415 . S
C316 C315 1.355 . S
C316 C318 1.419 . S
C317 C312 1.425 . S
C317 C314 1.409 . S
C317 C315 1.415 . S
C318 H308 0.930 . S
C318 C316 1.419 . S
C318 C319 1.362 . S
C319 H309 0.930 . S
C319 C312 1.409 . S
C319 C318 1.362 . S
H320 C326 0.930 . S
H321 C329 0.930 . S
H322 C330 0.930 . S
H323 C331 0.930 . S
H324 C334 0.930 . S
H325 C335 0.930 . S
C326 H320 0.930 . S
C326 C327 1.355 . S
C326 C328 1.415 . S
C327 C326 1.355 . S
C327 C329 1.419 . S
C328 C326 1.415 . S
C328 C333 1.425 . S
C328 C335 1.409 . S
C329 H321 0.930 . S
C329 C327 1.419 . S
C329 C330 1.362 . S
C330 H322 0.930 . S
C330 C329 1.362 . S
C330 C333 1.409 . S
C331 H323 0.930 . S
C331 C332 1.355 . S
C331 C333 1.415 . S
C332 C331 1.355 . S
C332 C334 1.419 . S
C333 C328 1.425 . S
C333 C330 1.409 . S
C333 C331 1.415 . S
C334 H324 0.930 . S
C334 C332 1.419 . S
C334 C335 1.362 . S
C335 H325 0.930 . S
C335 C328 1.409 . S
C335 C334 1.362 . S
H336 C342 0.930 . S
H337 C345 0.930 . S
H338 C346 0.930 . S
H339 C347 0.930 . S
H340 C350 0.930 . S
H341 C351 0.930 . S
C342 H336 0.930 . S
C342 C343 1.355 . S
C342 C344 1.415 1_455 S
C343 C342 1.355 . S
C343 C345 1.419 . S
C344 C342 1.415 1_655 S
C344 C349 1.425 1_656 S
C344 C351 1.409 . S
C345 H337 0.930 . S
C345 C343 1.419 . S
C345 C346 1.362 1_556 S
C346 H338 0.930 . S
C346 C345 1.362 1_554 S
C346 C349 1.409 . S
C347 H339 0.930 . S
C347 C348 1.355 . S
C347 C349 1.415 1_655 S
C348 C347 1.355 . S
C348 C350 1.419 . S
C349 C344 1.425 1_454 S
C349 C346 1.409 . S
C349 C347 1.415 1_455 S
C350 H340 0.930 . S
C350 C348 1.419 . S
C350 C351 1.362 1_554 S
C351 H341 0.930 . S
C351 C344 1.409 . S
C351 C350 1.362 1_556 S
H352 C358 0.930 . S
H353 C361 0.930 . S
H354 C362 0.930 . S
H355 C363 0.930 . S
H356 C366 0.930 . S
H357 C367 0.930 . S
C358 H352 0.930 . S
C358 C359 1.355 . S
C358 C360 1.415 . S
C359 C358 1.355 . S
C359 C361 1.419 . S
C360 C358 1.415 . S
C360 C365 1.425 . S
C360 C367 1.409 . S
C361 H353 0.930 . S
C361 C359 1.419 . S
C361 C362 1.362 . S
C362 H354 0.930 . S
C362 C361 1.362 . S
C362 C365 1.409 . S
C363 H355 0.930 . S
C363 C364 1.355 . S
C363 C365 1.415 . S
C364 C363 1.355 . S
C364 C366 1.419 . S
C365 C360 1.425 . S
C365 C362 1.409 . S
C365 C363 1.415 . S
C366 H356 0.930 . S
C366 C364 1.419 . S
C366 C367 1.362 . S
C367 H357 0.930 . S
C367 C360 1.409 . S
C367 C366 1.362 . S
H368 C374 0.930 . S
H369 C377 0.930 . S
H370 C378 0.930 . S
H371 C379 0.930 . S
H372 C382 0.930 . S
H373 C383 0.930 . S
C374 H368 0.930 . S
C374 C375 1.355 . S
C374 C376 1.415 . S
C375 C374 1.355 . S
C375 C377 1.419 . S
C376 C374 1.415 . S
C376 C381 1.425 . S
C376 C383 1.409 . S
C377 H369 0.930 . S
C377 C375 1.419 . S
C377 C378 1.362 . S
C378 H370 0.930 . S
C378 C377 1.362 . S
C378 C381 1.409 . S
C379 H371 0.930 . S
C379 C380 1.355 . S
C379 C381 1.415 . S
C380 C379 1.355 . S
C380 C382 1.419 . S
C381 C376 1.425 . S
C381 C378 1.409 . S
C381 C379 1.415 . S
C382 H372 0.930 . S
C382 C380 1.419 . S
C382 C383 1.362 . S
C383 H373 0.930 . S
C383 C376 1.409 . S
C383 C382 1.362 . S
H384 C390 0.930 . S
H385 C393 0.930 . S
H386 C394 0.930 . S
H387 C395 0.930 . S
H388 C398 0.930 . S
H389 C399 0.930 . S
C390 H384 0.930 . S
C390 C391 1.355 . S
C390 C392 1.415 . S
C391 C390 1.355 . S
C391 C393 1.419 . S
C392 C390 1.415 . S
C392 C397 1.425 . S
C392 C399 1.409 . S
C393 H385 0.930 . S
C393 C391 1.419 . S
C393 C394 1.362 . S
C394 H386 0.930 . S
C394 C393 1.362 . S
C394 C397 1.409 . S
C395 H387 0.930 . S
C395 C396 1.355 . S
C395 C397 1.415 . S
C396 C395 1.355 . S
C396 C398 1.419 . S
C397 C392 1.425 . S
C397 C394 1.409 . S
C397 C395 1.415 . S
C398 H388 0.930 . S
C398 C396 1.419 . S
C398 C399 1.362 . S
C399 H389 0.930 . S
C399 C392 1.409 . S
C399 C398 1.362 . S
H400 C406 0.930 . S
H401 C409 0.930 . S
H402 C410 0.930 . S
H403 C411 0.930 . S
H404 C414 0.930 . S
H405 C415 0.930 . S
C406 H400 0.930 . S
C406 C407 1.355 . S
C406 C408 1.415 . S
C407 C406 1.355 . S
C407 C409 1.419 . S
C408 C406 1.415 . S
C408 C413 1.425 . S
C408 C415 1.409 . S
C409 H401 0.930 . S
C409 C407 1.419 . S
C409 C410 1.362 . S
C410 H402 0.930 . S
C410 C409 1.362 . S
C410 C413 1.409 . S
C411 H403 0.930 . S
C411 C412 1.355 . S
C411 C413 1.415 . S
C412 C411 1.355 . S
C412 C414 1.419 . S
C413 C408 1.425 . S
C413 C410 1.409 . S
C413 C411 1.415 . S
C414 H404 0.930 . S
C414 C412 1.419 . S
C414 C415 1.362 . S
C415 H405 0.930 . S
C415 C408 1.409 . S
C415 C414 1.362 . S
H416 C422 0.930 . S
H417 C425 0.930 . S
H418 C426 0.930 . S
H419 C427 0.930 . S
H420 C430 0.930 . S
H421 C431 0.930 . S
C422 H416 0.930 . S
C422 C423 1.355 . S
C422 C424 1.415 . S
C423 C422 1.355 . S
C423 C425 1.419 . S
C424 C422 1.415 . S
C424 C429 1.425 . S
C424 C431 1.409 1_554 S
C425 H417 0.930 . S
C425 C423 1.419 . S
C425 C426 1.362 . S
C426 H418 0.930 . S
C426 C425 1.362 . S
C426 C429 1.409 . S
C427 H419 0.930 . S
C427 C428 1.355 . S
C427 C429 1.415 1_556 S
C428 C427 1.355 . S
C428 C430 1.419 . S
C429 C424 1.425 . S
C429 C426 1.409 . S
C429 C427 1.415 1_554 S
C430 H420 0.930 . S
C430 C428 1.419 . S
C430 C431 1.362 . S
C431 H421 0.930 . S
C431 C424 1.409 1_556 S
C431 C430 1.362 . S
H432 C438 0.930 . S
H433 C441 0.930 . S
H434 C442 0.930 . S
H435 C443 0.930 . S
H436 C446 0.930 . S
H437 C447 0.930 . S
C438 H432 0.930 . S
C438 C439 1.355 . S
C438 C440 1.415 . S
C439 C438 1.355 . S
C439 C441 1.419 . S
C440 C438 1.415 . S
C440 C445 1.425 1_455 S
C440 C447 1.409 . S
C441 H433 0.930 . S
C441 C439 1.419 . S
C441 C442 1.362 1_455 S
C442 H434 0.930 . S
C442 C441 1.362 1_655 S
C442 C445 1.409 . S
C443 H435 0.930 . S
C443 C444 1.355 . S
C443 C445 1.415 . S
C444 C443 1.355 . S
C444 C446 1.419 . S
C445 C440 1.425 1_655 S
C445 C442 1.409 . S
C445 C443 1.415 . S
C446 H436 0.930 . S
C446 C444 1.419 . S
C446 C447 1.362 1_655 S
C447 H437 0.930 . S
C447 C440 1.409 . S
C447 C446 1.362 1_455 S
H448 C454 0.930 . S
H449 C457 0.930 . S
H450 C458 0.930 . S
H451 C459 0.930 1_554 S
H452 C462 0.930 . S
H453 C463 0.930 . S
C454 H448 0.930 . S
C454 C455 1.355 . S
C454 C456 1.415 . S
C455 C454 1.355 . S
C455 C457 1.419 . S
C456 C454 1.415 . S
C456 C461 1.425 1_455 S
C456 C463 1.409 1_554 S
C457 H449 0.930 . S
C457 C455 1.419 . S
C457 C458 1.362 1_455 S
C458 H450 0.930 . S
C458 C457 1.362 1_655 S
C458 C461 1.409 . S
C459 H451 0.930 1_556 S
C459 C460 1.355 . S
C459 C461 1.415 1_556 S
C460 C459 1.355 . S
C460 C462 1.419 . S
C461 C456 1.425 1_655 S
C461 C458 1.409 . S
C461 C459 1.415 1_554 S
C462 H452 0.930 . S
C462 C460 1.419 . S
C462 C463 1.362 1_655 S
C463 H453 0.930 . S
C463 C456 1.409 1_556 S
C463 C462 1.362 1_455 S
H464 C470 0.930 . S
H465 C473 0.930 . S
H466 C474 0.930 . S
H467 C475 0.930 . S
H468 C478 0.930 . S
H469 C479 0.930 . S
C470 H464 0.930 . S
C470 C471 1.355 . S
C470 C472 1.415 . S
C471 C470 1.355 . S
C471 C473 1.419 . S
C472 C470 1.415 . S
C472 C477 1.425 . S
C472 C479 1.409 . S
C473 H465 0.930 . S
C473 C471 1.419 . S
C473 C474 1.362 . S
C474 H466 0.930 . S
C474 C473 1.362 . S
C474 C477 1.409 . S
C475 H467 0.930 . S
C475 C476 1.355 . S
C475 C477 1.415 . S
C476 C475 1.355 . S
C476 C478 1.419 . S
C477 C472 1.425 . S
C477 C474 1.409 . S
C477 C475 1.415 . S
C478 H468 0.930 . S
C478 C476 1.419 . S
C478 C479 1.362 . S
C479 H469 0.930 . S
C479 C472 1.409 . S
C479 C478 1.362 . S
H480 C486 0.930 . S
H481 C489 0.930 . S
H482 C490 0.930 . S
H483 C491 0.930 . S
H484 C494 0.930 . S
H485 C495 0.930 . S
C486 H480 0.930 . S
C486 C487 1.355 . S
C486 C488 1.415 . S
C487 C486 1.355 . S
C487 C489 1.419 . S
C488 C486 1.415 . S
C488 C493 1.425 . S
C488 C495 1.409 . S
C489 H481 0.930 . S
C489 C487 1.419 . S
C489 C490 1.362 . S
C490 H482 0.930 . S
C490 C489 1.362 . S
C490 C493 1.409 . S
C491 H483 0.930 . S
C491 C492 1.355 . S
C491 C493 1.415 . S
C492 C491 1.355 . S
C492 C494 1.419 . S
C493 C488 1.425 . S
C493 C490 1.409 . S
C493 C491 1.415 . S
C494 H484 0.930 . S
C494 C492 1.419 . S
C494 C495 1.362 . S
C495 H485 0.930 . S
C495 C488 1.409 . S
C495 C494 1.362 . S
H496 C502 0.930 . S
H497 C505 0.930 . S
H498 C506 0.930 . S
H499 C507 0.930 . S
H500 C510 0.930 . S
H501 C511 0.930 . S
C502 H496 0.930 . S
C502 C503 1.355 . S
C502 C504 1.415 . S
C503 C502 1.355 . S
C503 C505 1.419 . S
C504 C502 1.415 . S
C504 C509 1.425 . S
C504 C511 1.409 . S
C505 H497 0.930 . S
C505 C503 1.419 . S
C505 C506 1.362 . S
C506 H498 0.930 . S
C506 C505 1.362 . S
C506 C509 1.409 . S
C507 H499 0.930 . S
C507 C508 1.355 . S
C507 C509 1.415 . S
C508 C507 1.355 . S
C508 C510 1.419 . S
C509 C504 1.425 . S
C509 C506 1.409 . S
C509 C507 1.415 . S
C510 H500 0.930 . S
C510 C508 1.419 . S
C510 C511 1.362 . S
C511 H501 0.930 . S
C511 C504 1.409 . S
C511 C510 1.362 . S
H512 C518 0.930 . S
H513 C521 0.930 . S
H514 C522 0.930 . S
H515 C523 0.930 . S
H516 C526 0.930 . S
H517 C527 0.930 . S
C518 H512 0.930 . S
C518 C519 1.355 . S
C518 C520 1.415 . S
C519 C518 1.355 . S
C519 C521 1.419 . S
C520 C518 1.415 . S
C520 C525 1.425 . S
C520 C527 1.409 . S
C521 H513 0.930 . S
C521 C519 1.419 . S
C521 C522 1.362 . S
C522 H514 0.930 . S
C522 C521 1.362 . S
C522 C525 1.409 . S
C523 H515 0.930 . S
C523 C524 1.355 . S
C523 C525 1.415 . S
C524 C523 1.355 . S
C524 C526 1.419 . S
C525 C520 1.425 . S
C525 C522 1.409 . S
C525 C523 1.415 . S
C526 H516 0.930 . S
C526 C524 1.419 . S
C526 C527 1.362 . S
C527 H517 0.930 . S
C527 C520 1.409 . S
C527 C526 1.362 . S
H528 C534 0.930 1_554 S
H529 C537 0.930 . S
H530 C538 0.930 . S
H531 C539 0.930 . S
H532 C542 0.930 . S
H533 C543 0.930 1_554 S
C534 H528 0.930 1_556 S
C534 C535 1.355 . S
C534 C536 1.415 . S
C535 C534 1.355 . S
C535 C537 1.419 . S
C536 C534 1.415 . S
C536 C541 1.425 . S
C536 C543 1.409 . S
C537 H529 0.930 . S
C537 C535 1.419 . S
C537 C538 1.362 . S
C538 H530 0.930 . S
C538 C537 1.362 . S
C538 C541 1.409 . S
C539 H531 0.930 . S
C539 C540 1.355 . S
C539 C541 1.415 . S
C540 C539 1.355 . S
C540 C542 1.419 . S
C541 C536 1.425 . S
C541 C538 1.409 . S
C541 C539 1.415 . S
C542 H532 0.930 . S
C542 C540 1.419 . S
C542 C543 1.362 . S
C543 H533 0.930 1_556 S
C543 C536 1.409 . S
C543 C542 1.362 . S
H544 C550 0.930 . S
H545 C553 0.930 . S
H546 C554 0.930 . S
H547 C555 0.930 . S
H548 C558 0.930 . S
H549 C559 0.930 . S
C550 H544 0.930 . S
C550 C551 1.355 . S
C550 C552 1.415 . S
C551 C550 1.355 . S
C551 C553 1.419 . S
C552 C550 1.415 . S
C552 C557 1.425 . S
C552 C559 1.409 . S
C553 H545 0.930 . S
C553 C551 1.419 . S
C553 C554 1.362 . S
C554 H546 0.930 . S
C554 C553 1.362 . S
C554 C557 1.409 . S
C555 H547 0.930 . S
C555 C556 1.355 . S
C555 C557 1.415 . S
C556 C555 1.355 . S
C556 C558 1.419 . S
C557 C552 1.425 . S
C557 C554 1.409 . S
C557 C555 1.415 . S
C558 H548 0.930 . S
C558 C556 1.419 . S
C558 C559 1.362 . S
C559 H549 0.930 . S
C559 C552 1.409 . S
C559 C558 1.362 . S
H560 C566 0.930 . S
H561 C569 0.930 . S
H562 C570 0.930 . S
H563 C571 0.930 . S
H564 C574 0.930 . S
H565 C575 0.930 . S
C566 H560 0.930 . S
C566 C567 1.355 . S
C566 C568 1.415 . S
C567 C566 1.355 . S
C567 C569 1.419 . S
C568 C566 1.415 . S
C568 C573 1.425 . S
C568 C575 1.409 . S
C569 H561 0.930 . S
C569 C567 1.419 . S
C569 C570 1.362 . S
C570 H562 0.930 . S
C570 C569 1.362 . S
C570 C573 1.409 . S
C571 H563 0.930 . S
C571 C572 1.355 . S
C571 C573 1.415 . S
C572 C571 1.355 . S
C572 C574 1.419 . S
C573 C568 1.425 . S
C573 C570 1.409 . S
C573 C571 1.415 . S
C574 H564 0.930 . S
C574 C572 1.419 . S
C574 C575 1.362 . S
C575 H565 0.930 . S
C575 C568 1.409 . S
C575 C574 1.362 . S
H576 C582 0.930 . S
H577 C585 0.930 . S
H578 C586 0.930 1_554 S
H579 C587 0.930 1_554 S
H580 C590 0.930 . S
H581 C591 0.930 . S
C582 H576 0.930 . S
C582 C583 1.355 . S
C582 C584 1.415 . S
C583 C582 1.355 . S
C583 C585 1.419 . S
C584 C582 1.415 . S
C584 C589 1.425 . S
C584 C591 1.409 . S
C585 H577 0.930 . S
C585 C583 1.419 . S
C585 C586 1.362 . S
C586 H578 0.930 1_556 S
C586 C585 1.362 . S
C586 C589 1.409 . S
C587 H579 0.930 1_556 S
C587 C588 1.355 . S
C587 C589 1.415 . S
C588 C587 1.355 . S
C588 C590 1.419 . S
C589 C584 1.425 . S
C589 C586 1.409 . S
C589 C587 1.415 . S
C590 H580 0.930 . S
C590 C588 1.419 . S
C590 C591 1.362 . S
C591 H581 0.930 . S
C591 C584 1.409 . S
C591 C590 1.362 . S
H592 C598 0.930 . S
H593 C601 0.930 . S
H594 C602 0.930 . S
H595 C603 0.930 . S
H596 C606 0.930 . S
H597 C607 0.930 . S
C598 H592 0.930 . S
C598 C599 1.355 . S
C598 C600 1.415 . S
C599 C598 1.355 . S
C599 C601 1.419 . S
C600 C598 1.415 . S
C600 C605 1.425 . S
C600 C607 1.409 . S
C601 H593 0.930 . S
C601 C599 1.419 . S
C601 C602 1.362 . S
C602 H594 0.930 . S
C602 C601 1.362 . S
C602 C605 1.409 . S
C603 H595 0.930 . S
C603 C604 1.355 . S
C603 C605 1.415 . S
C604 C603 1.355 . S
C604 C606 1.419 . S
C605 C600 1.425 . S
C605 C602 1.409 . S
C605 C603 1.415 . S
C606 H596 0.930 . S
C606 C604 1.419 . S
C606 C607 1.362 . S
C607 H597 0.930 . S
C607 C600 1.409 . S
C607 C606 1.362 . S
H608 C614 0.930 . S
H609 C617 0.930 . S
H610 C618 0.930 . S
H611 C619 0.930 . S
H612 C622 0.930 . S
H613 C623 0.930 . S
C614 H608 0.930 . S
C614 C615 1.355 . S
C614 C616 1.415 . S
C615 C614 1.355 . S
C615 C617 1.419 . S
C616 C614 1.415 . S
C616 C621 1.425 . S
C616 C623 1.409 . S
C617 H609 0.930 . S
C617 C615 1.419 . S
C617 C618 1.362 . S
C618 H610 0.930 . S
C618 C617 1.362 . S
C618 C621 1.409 . S
C619 H611 0.930 . S
C619 C620 1.355 . S
C619 C621 1.415 . S
C620 C619 1.355 . S
C620 C622 1.419 . S
C621 C616 1.425 . S
C621 C618 1.409 . S
C621 C619 1.415 . S
C622 H612 0.930 . S
C622 C620 1.419 . S
C622 C623 1.362 . S
C623 H613 0.930 . S
C623 C616 1.409 . S
C623 C622 1.362 . S
H624 C630 0.930 . S
H625 C633 0.930 . S
H626 C634 0.930 . S
H627 C635 0.930 . S
H628 C638 0.930 . S
H629 C639 0.930 . S
C630 H624 0.930 . S
C630 C631 1.355 . S
C630 C632 1.415 . S
C631 C630 1.355 . S
C631 C633 1.419 . S
C632 C630 1.415 . S
C632 C637 1.425 . S
C632 C639 1.409 . S
C633 H625 0.930 . S
C633 C631 1.419 . S
C633 C634 1.362 . S
C634 H626 0.930 . S
C634 C633 1.362 . S
C634 C637 1.409 . S
C635 H627 0.930 . S
C635 C636 1.355 . S
C635 C637 1.415 . S
C636 C635 1.355 . S
C636 C638 1.419 . S
C637 C632 1.425 . S
C637 C634 1.409 . S
C637 C635 1.415 . S
C638 H628 0.930 . S
C638 C636 1.419 . S
C638 C639 1.362 . S
C639 H629 0.930 . S
C639 C632 1.409 . S
C639 C638 1.362 . S
H640 C646 0.930 . S
H641 C649 0.930 . S
H642 C650 0.930 . S
H643 C651 0.930 . S
H644 C654 0.930 . S
H645 C655 0.930 . S
C646 H640 0.930 . S
C646 C647 1.355 . S
C646 C648 1.415 . S
C647 C646 1.355 . S
C647 C649 1.419 . S
C648 C646 1.415 . S
C648 C653 1.425 . S
C648 C655 1.409 . S
C649 H641 0.930 . S
C649 C647 1.419 . S
C649 C650 1.362 . S
C650 H642 0.930 . S
C650 C649 1.362 . S
C650 C653 1.409 . S
C651 H643 0.930 . S
C651 C652 1.355 . S
C651 C653 1.415 . S
C652 C651 1.355 . S
C652 C654 1.419 . S
C653 C648 1.425 . S
C653 C650 1.409 . S
C653 C651 1.415 . S
C654 H644 0.930 . S
C654 C652 1.419 . S
C654 C655 1.362 . S
C655 H645 0.930 . S
C655 C648 1.409 . S
C655 C654 1.362 . S
H656 C662 0.930 . S
H657 C665 0.930 . S
H658 C666 0.930 . S
H659 C667 0.930 . S
H660 C670 0.930 . S
H661 C671 0.930 . S
C662 H656 0.930 . S
C662 C663 1.355 . S
C662 C664 1.415 . S
C663 C662 1.355 . S
C663 C665 1.419 . S
C664 C662 1.415 . S
C664 C669 1.425 . S
C664 C671 1.409 . S
C665 H657 0.930 . S
C665 C663 1.419 . S
C665 C666 1.362 . S
C666 H658 0.930 . S
C666 C665 1.362 . S
C666 C669 1.409 . S
C667 H659 0.930 . S
C667 C668 1.355 . S
C667 C669 1.415 . S
C668 C667 1.355 . S
C668 C670 1.419 . S
C669 C664 1.425 . S
C669 C666 1.409 . S
C669 C667 1.415 . S
C670 H660 0.930 . S
C670 C668 1.419 . S
C670 C671 1.362 . S
C671 H661 0.930 . S
C671 C664 1.409 . S
C671 C670 1.362 . S
H672 C678 0.930 . S
H673 C681 0.930 . S
H674 C682 0.930 . S
H675 C683 0.930 . S
H676 C686 0.930 . S
H677 C687 0.930 . S
C678 H672 0.930 . S
C678 C679 1.355 . S
C678 C680 1.415 . S
C679 C678 1.355 . S
C679 C681 1.419 . S
C680 C678 1.415 . S
C680 C685 1.425 . S
C680 C687 1.409 . S
C681 H673 0.930 . S
C681 C679 1.419 . S
C681 C682 1.362 . S
C682 H674 0.930 . S
C682 C681 1.362 . S
C682 C685 1.409 . S
C683 H675 0.930 . S
C683 C684 1.355 . S
C683 C685 1.415 . S
C684 C683 1.355 . S
C684 C686 1.419 . S
C685 C680 1.425 . S
C685 C682 1.409 . S
C685 C683 1.415 . S
C686 H676 0.930 . S
C686 C684 1.419 . S
C686 C687 1.362 . S
C687 H677 0.930 . S
C687 C680 1.409 . S
C687 C686 1.362 . S
H688 C694 0.930 . S
H689 C697 0.930 . S
H690 C698 0.930 . S
H691 C699 0.930 . S
H692 C702 0.930 . S
H693 C703 0.930 . S
C694 H688 0.930 . S
C694 C695 1.355 . S
C694 C696 1.415 . S
C695 C694 1.355 . S
C695 C697 1.419 . S
C696 C694 1.415 . S
C696 C701 1.425 . S
C696 C703 1.409 . S
C697 H689 0.930 . S
C697 C695 1.419 . S
C697 C698 1.362 . S
C698 H690 0.930 . S
C698 C697 1.362 . S
C698 C701 1.409 . S
C699 H691 0.930 . S
C699 C700 1.355 . S
C699 C701 1.415 . S
C700 C699 1.355 . S
C700 C702 1.419 . S
C701 C696 1.425 . S
C701 C698 1.409 . S
C701 C699 1.415 . S
C702 H692 0.930 . S
C702 C700 1.419 . S
C702 C703 1.362 . S
C703 H693 0.930 . S
C703 C696 1.409 . S
C703 C702 1.362 . S
H704 C710 0.930 . S
H705 C713 0.930 . S
H706 C714 0.930 . S
H707 C715 0.930 . S
H708 C718 0.930 . S
H709 C719 0.930 . S
C710 H704 0.930 . S
C710 C711 1.355 . S
C710 C712 1.415 . S
C711 C710 1.355 . S
C711 C713 1.419 . S
C712 C710 1.415 . S
C712 C717 1.425 . S
C712 C719 1.409 . S
C713 H705 0.930 . S
C713 C711 1.419 . S
C713 C714 1.362 . S
C714 H706 0.930 . S
C714 C713 1.362 . S
C714 C717 1.409 . S
C715 H707 0.930 . S
C715 C716 1.355 . S
C715 C717 1.415 . S
C716 C715 1.355 . S
C716 C718 1.419 . S
C717 C712 1.425 . S
C717 C714 1.409 . S
C717 C715 1.415 . S
C718 H708 0.930 . S
C718 C716 1.419 . S
C718 C719 1.362 . S
C719 H709 0.930 . S
C719 C712 1.409 . S
C719 C718 1.362 . S
H720 C726 0.930 . S
H721 C729 0.920 1_554 S
H722 C730 0.930 1_554 S
H723 C731 0.930 . S
H724 C734 0.930 . S
H725 C735 0.930 . S
C726 H720 0.930 . S
C726 C727 1.355 . S
C726 C728 1.415 . S
C727 C726 1.355 . S
C727 C729 1.427 . S
C728 C726 1.415 . S
C728 C733 1.425 . S
C728 C735 1.409 . S
C729 H721 0.920 1_556 S
C729 C727 1.427 . S
C729 C730 1.364 . S
C730 H722 0.930 1_556 S
C730 C729 1.364 . S
C730 C733 1.409 . S
C731 H723 0.930 . S
C731 C732 1.355 . S
C731 C733 1.415 . S
C732 C731 1.355 . S
C732 C734 1.419 . S
C733 C728 1.425 . S
C733 C730 1.409 . S
C733 C731 1.415 . S
C734 H724 0.930 . S
C734 C732 1.419 . S
C734 C735 1.362 . S
C735 H725 0.930 . S
C735 C728 1.409 . S
C735 C734 1.362 . S
C231 C3 1.516 . S
C236 C171 1.516 . S
C247 C23 1.346 . S
C252 C79 1.346 . S
C263 C31 1.507 . S
C268 C199 1.507 . S
C279 C107 1.331 . S
C284 C51 1.331 . S
C295 C205 1.348 . S
C300 C37 1.348 . S
C311 C101 1.497 . S
C316 C45 1.497 . S
C327 C177 1.318 . S
C332 C9 1.318 . S
C343 C73 1.510 . S
C348 C17 1.510 . S
C359 C59 1.494 . S
C364 C115 1.494 . S
C375 C87 1.505 . S
C380 C143 1.505 . S
C391 C149 1.351 . S
C396 C93 1.351 . S
C407 C65 1.304 . S
C412 C121 1.304 . S
C423 C191 1.341 . S
C428 C135 1.341 . S
C439 C163 1.318 . S
C444 C219 1.318 . S
C455 C157 1.504 . S
C460 C213 1.504 . S
C471 C129 1.495 . S
C476 C185 1.495 . S
C487 C162 1.487 . S
C492 C8 1.480 . S
C503 C119 1.446 . S
C508 C21 1.490 . S
C519 C36 1.478 . S
C524 C134 1.485 . S
C535 C147 1.472 . S
C540 C49 1.445 . S
C551 C161 1.445 . S
C556 C35 1.473 . S
C567 C50 1.483 . S
C572 C120 1.479 . S
C583 C133 1.471 . S
C588 C7 1.446 . S
C599 C148 1.479 . S
C604 C22 1.487 . S
C615 C64 1.479 . S
C620 C218 1.487 . S
C631 C175 1.454 . S
C636 C77 1.461 . S
C647 C92 1.480 . S
C652 C190 1.487 . S
C663 C105 1.488 . S
C668 C203 1.440 . S
C679 C91 1.490 . S
C684 C217 1.448 . S
C695 C176 1.484 . S
C700 C106 1.484 . S
C711 C189 1.460 . S
C716 C63 1.483 . S
C727 C204 1.484 . S
C732 C78 1.484 . S
