# Generated by pormake.
# Topology hbo, (4)-cn, num edge types: 1
# Building blocks:
#     Node 0, Type 0, BuildingBlock: KOZSID_clean_sbu_0, # of connection points: 4
#     Node 1, Type 0, BuildingBlock: KOZSID_clean_sbu_0, # of connection points: 4
#     Node 2, Type 0, BuildingBlock: KOZSID_clean_sbu_0, # of connection points: 4
#     Node 3, Type 0, BuildingBlock: KOZSID_clean_sbu_0, # of connection points: 4
#     Node 4, Type 0, BuildingBlock: KOZSID_clean_sbu_0, # of connection points: 4
#     Node 5, Type 0, BuildingBlock: KOZSID_clean_sbu_0, # of connection points: 4
#     Node 6, Type 0, BuildingBlock: KOZSID_clean_sbu_0, # of connection points: 4
#     Node 7, Type 0, BuildingBlock: KOZSID_clean_sbu_0, # of connection points: 4
#     Node 8, Type 0, BuildingBlock: KOZSID_clean_sbu_0, # of connection points: 4
#     Node 9, Type 0, BuildingBlock: KOZSID_clean_sbu_0, # of connection points: 4
#     Node 10, Type 0, BuildingBlock: KOZSID_clean_sbu_0, # of connection points: 4
#     Node 11, Type 0, BuildingBlock: KOZSID_clean_sbu_0, # of connection points: 4
#     Node 12, Type 0, BuildingBlock: KOZSID_clean_sbu_0, # of connection points: 4
#     Node 13, Type 0, BuildingBlock: KOZSID_clean_sbu_0, # of connection points: 4
#     Node 14, Type 0, BuildingBlock: KOZSID_clean_sbu_0, # of connection points: 4
#     Node 15, Type 0, BuildingBlock: KOZSID_clean_sbu_0, # of connection points: 4
#     Node 16, Type 0, BuildingBlock: KOZSID_clean_sbu_0, # of connection points: 4
#     Node 17, Type 0, BuildingBlock: KOZSID_clean_sbu_0, # of connection points: 4
#     Node 18, Type 0, BuildingBlock: KOZSID_clean_sbu_0, # of connection points: 4
#     Node 19, Type 0, BuildingBlock: KOZSID_clean_sbu_0, # of connection points: 4
#     Node 20, Type 0, BuildingBlock: KOZSID_clean_sbu_0, # of connection points: 4
#     Node 21, Type 0, BuildingBlock: KOZSID_clean_sbu_0, # of connection points: 4
#     Node 22, Type 0, BuildingBlock: KOZSID_clean_sbu_0, # of connection points: 4
#     Node 23, Type 0, BuildingBlock: KOZSID_clean_sbu_0, # of connection points: 4
#     Edge 24, Type (0, 0), BuildingBlock: ZUJKAS_clean_linker_0, # of connection points: 2
#     Edge 25, Type (0, 0), BuildingBlock: ZUJKAS_clean_linker_0, # of connection points: 2
#     Edge 26, Type (0, 0), BuildingBlock: ZUJKAS_clean_linker_0, # of connection points: 2
#     Edge 27, Type (0, 0), BuildingBlock: ZUJKAS_clean_linker_0, # of connection points: 2
#     Edge 28, Type (0, 0), BuildingBlock: ZUJKAS_clean_linker_0, # of connection points: 2
#     Edge 29, Type (0, 0), BuildingBlock: ZUJKAS_clean_linker_0, # of connection points: 2
#     Edge 30, Type (0, 0), BuildingBlock: ZUJKAS_clean_linker_0, # of connection points: 2
#     Edge 31, Type (0, 0), BuildingBlock: ZUJKAS_clean_linker_0, # of connection points: 2
#     Edge 32, Type (0, 0), BuildingBlock: ZUJKAS_clean_linker_0, # of connection points: 2
#     Edge 33, Type (0, 0), BuildingBlock: ZUJKAS_clean_linker_0, # of connection points: 2
#     Edge 34, Type (0, 0), BuildingBlock: ZUJKAS_clean_linker_0, # of connection points: 2
#     Edge 35, Type (0, 0), BuildingBlock: ZUJKAS_clean_linker_0, # of connection points: 2
#     Edge 36, Type (0, 0), BuildingBlock: ZUJKAS_clean_linker_0, # of connection points: 2
#     Edge 37, Type (0, 0), BuildingBlock: ZUJKAS_clean_linker_0, # of connection points: 2
#     Edge 38, Type (0, 0), BuildingBlock: ZUJKAS_clean_linker_0, # of connection points: 2
#     Edge 39, Type (0, 0), BuildingBlock: ZUJKAS_clean_linker_0, # of connection points: 2
#     Edge 40, Type (0, 0), BuildingBlock: ZUJKAS_clean_linker_0, # of connection points: 2
#     Edge 41, Type (0, 0), BuildingBlock: ZUJKAS_clean_linker_0, # of connection points: 2
#     Edge 42, Type (0, 0), BuildingBlock: ZUJKAS_clean_linker_0, # of connection points: 2
#     Edge 43, Type (0, 0), BuildingBlock: ZUJKAS_clean_linker_0, # of connection points: 2
#     Edge 44, Type (0, 0), BuildingBlock: ZUJKAS_clean_linker_0, # of connection points: 2
#     Edge 45, Type (0, 0), BuildingBlock: ZUJKAS_clean_linker_0, # of connection points: 2
#     Edge 46, Type (0, 0), BuildingBlock: ZUJKAS_clean_linker_0, # of connection points: 2
#     Edge 47, Type (0, 0), BuildingBlock: ZUJKAS_clean_linker_0, # of connection points: 2
#     Edge 48, Type (0, 0), BuildingBlock: ZUJKAS_clean_linker_0, # of connection points: 2
#     Edge 49, Type (0, 0), BuildingBlock: ZUJKAS_clean_linker_0, # of connection points: 2
#     Edge 50, Type (0, 0), BuildingBlock: ZUJKAS_clean_linker_0, # of connection points: 2
#     Edge 51, Type (0, 0), BuildingBlock: ZUJKAS_clean_linker_0, # of connection points: 2
#     Edge 52, Type (0, 0), BuildingBlock: ZUJKAS_clean_linker_0, # of connection points: 2
#     Edge 53, Type (0, 0), BuildingBlock: ZUJKAS_clean_linker_0, # of connection points: 2
#     Edge 54, Type (0, 0), BuildingBlock: ZUJKAS_clean_linker_0, # of connection points: 2
#     Edge 55, Type (0, 0), BuildingBlock: ZUJKAS_clean_linker_0, # of connection points: 2
#     Edge 56, Type (0, 0), BuildingBlock: ZUJKAS_clean_linker_0, # of connection points: 2
#     Edge 57, Type (0, 0), BuildingBlock: ZUJKAS_clean_linker_0, # of connection points: 2
#     Edge 58, Type (0, 0), BuildingBlock: ZUJKAS_clean_linker_0, # of connection points: 2
#     Edge 59, Type (0, 0), BuildingBlock: ZUJKAS_clean_linker_0, # of connection points: 2
#     Edge 60, Type (0, 0), BuildingBlock: ZUJKAS_clean_linker_0, # of connection points: 2
#     Edge 61, Type (0, 0), BuildingBlock: ZUJKAS_clean_linker_0, # of connection points: 2
#     Edge 62, Type (0, 0), BuildingBlock: ZUJKAS_clean_linker_0, # of connection points: 2
#     Edge 63, Type (0, 0), BuildingBlock: ZUJKAS_clean_linker_0, # of connection points: 2
#     Edge 64, Type (0, 0), BuildingBlock: ZUJKAS_clean_linker_0, # of connection points: 2
#     Edge 65, Type (0, 0), BuildingBlock: ZUJKAS_clean_linker_0, # of connection points: 2
#     Edge 66, Type (0, 0), BuildingBlock: ZUJKAS_clean_linker_0, # of connection points: 2
#     Edge 67, Type (0, 0), BuildingBlock: ZUJKAS_clean_linker_0, # of connection points: 2
#     Edge 68, Type (0, 0), BuildingBlock: ZUJKAS_clean_linker_0, # of connection points: 2
#     Edge 69, Type (0, 0), BuildingBlock: ZUJKAS_clean_linker_0, # of connection points: 2
#     Edge 70, Type (0, 0), BuildingBlock: ZUJKAS_clean_linker_0, # of connection points: 2
#     Edge 71, Type (0, 0), BuildingBlock: ZUJKAS_clean_linker_0, # of connection points: 2
# Relax obj value: 0.072
# Max RMSD: 0.312
# Mean RMSD: 0.296
data_MOF--net-hbo--node1-KOZSID_clean_sbu_0--edge1-ZUJKAS_clean_linker_0
_symmetry_space_group_name_H-M    P1
_symmetry_Int_Tables_number       1
_symmetry_cell_setting            triclinic
loop_
_symmetry_equiv_pos_as_xyz
'x, y, z'
_cell_length_a     85.579866
_cell_length_b     79.549983
_cell_length_c     79.58124
_cell_angle_alpha  90.136049
_cell_angle_beta   90.360971
_cell_angle_gamma 88.837626
loop_
_atom_site_label
_atom_site_type_symbol
_atom_site_fract_x
_atom_site_fract_y
_atom_site_fract_z
_atom_type_partial_charge
C0 C 0.16513 0.34751 0.30129 0.0
C1 C 0.16729 0.34452 0.31835 0.0
C2 C 0.16979 0.35973 0.32574 0.0
C3 C 0.16898 0.37112 0.31289 0.0
N4 N 0.16572 0.36426 0.2978 0.0
Co5 Co 0.16346 0.37675 0.27596 0.0
N6 N 0.1662 0.3991 0.28718 0.0
C7 C 0.17089 0.40153 0.3032 0.0
C8 C 0.1722 0.41812 0.30756 0.0
C9 C 0.16809 0.42687 0.29344 0.0
C10 C 0.16442 0.41506 0.28123 0.0
N11 N 0.16016 0.38949 0.2544 0.0
C12 C 0.15825 0.40633 0.25147 0.0
C13 C 0.15621 0.40955 0.23448 0.0
C14 C 0.15701 0.39432 0.22643 0.0
C15 C 0.15944 0.38267 0.23892 0.0
N16 N 0.16168 0.35431 0.26466 0.0
C17 C 0.1614 0.35173 0.24789 0.0
C18 C 0.16213 0.33507 0.24342 0.0
C19 C 0.16341 0.32648 0.25825 0.0
C20 C 0.1634 0.33843 0.27095 0.0
N21 N 0.14046 0.37814 0.27951 0.0
C22 C 0.10744 0.38028 0.28335 0.0
C23 C 0.11431 0.37355 0.26879 0.0
C24 C 0.13059 0.3727 0.26712 0.0
C25 C 0.11765 0.38575 0.2961 0.0
C26 C 0.13401 0.38455 0.29395 0.0
N27 N 0.18646 0.37482 0.27168 0.0
C28 C 0.20662 0.37707 0.25055 0.0
C29 C 0.21422 0.36242 0.25649 0.0
C30 C 0.20901 0.35592 0.27174 0.0
C31 C 0.19529 0.36225 0.27909 0.0
C32 C 0.19311 0.38332 0.25863 0.0
H33 H 0.19174 0.35611 0.29032 0.0
H34 H 0.18771 0.39452 0.25351 0.0
H35 H 0.13506 0.36761 0.2556 0.0
H36 H 0.14133 0.38894 0.30401 0.0
C37 C 0.17186 0.38818 0.31441 0.0
C38 C 0.16614 0.33407 0.28867 0.0
C39 C 0.15952 0.41972 0.26417 0.0
C40 C 0.16051 0.36526 0.23673 0.0
H41 H 0.16805 0.33253 0.32469 0.0
H42 H 0.17252 0.3621 0.33883 0.0
H43 H 0.17525 0.42325 0.31972 0.0
H44 H 0.16769 0.44043 0.29234 0.0
H45 H 0.15461 0.42168 0.22851 0.0
H46 H 0.15591 0.39203 0.21307 0.0
H47 H 0.16211 0.3298 0.23087 0.0
H48 H 0.16469 0.31298 0.25957 0.0
H49 H 0.1072 0.36874 0.25865 0.0
H50 H 0.11311 0.39119 0.30759 0.0
H51 H 0.21048 0.38322 0.23925 0.0
H52 H 0.21513 0.34546 0.27771 0.0
C53 C 0.15437 0.66856 0.73657 0.0
C54 C 0.15675 0.67248 0.71981 0.0
C55 C 0.15368 0.65819 0.71079 0.0
C56 C 0.14958 0.64645 0.72251 0.0
N57 N 0.1498 0.6525 0.73829 0.0
Co58 Co 0.14469 0.63991 0.75891 0.0
N59 N 0.14879 0.61792 0.74765 0.0
C60 C 0.14945 0.61549 0.7309 0.0
C61 C 0.15187 0.59897 0.72649 0.0
C62 C 0.15255 0.59037 0.74136 0.0
C63 C 0.15047 0.60217 0.75411 0.0
N64 N 0.13893 0.62708 0.77929 0.0
C65 C 0.14081 0.61044 0.783 0.0
C66 C 0.13412 0.60689 0.79839 0.0
C67 C 0.12765 0.62171 0.8043 0.0
C68 C 0.13071 0.63354 0.79226 0.0
N69 N 0.1412 0.66205 0.76992 0.0
C70 C 0.13326 0.66481 0.78418 0.0
C71 C 0.13405 0.6813 0.78939 0.0
C72 C 0.14311 0.68926 0.77765 0.0
C73 C 0.14734 0.67718 0.76589 0.0
N74 N 0.12232 0.63954 0.75185 0.0
C75 C 0.08925 0.64044 0.7483 0.0
C76 C 0.09807 0.65503 0.74655 0.0
C77 C 0.11449 0.65427 0.74804 0.0
C78 C 0.09752 0.62524 0.75094 0.0
C79 C 0.11392 0.62507 0.75281 0.0
N80 N 0.16669 0.64108 0.7668 0.0
C81 C 0.18317 0.65084 0.78944 0.0
C82 C 0.19522 0.65452 0.77832 0.0
C83 C 0.19335 0.6493 0.76149 0.0
C84 C 0.179 0.64258 0.75598 0.0
C85 C 0.16922 0.64417 0.78353 0.0
H86 H 0.17752 0.63974 0.7428 0.0
H87 H 0.16005 0.64299 0.79255 0.0
H88 H 0.12079 0.6658 0.74676 0.0
H89 H 0.11966 0.61325 0.75573 0.0
C90 C 0.14912 0.62911 0.71979 0.0
C91 C 0.15656 0.68025 0.75058 0.0
C92 C 0.14792 0.59756 0.77178 0.0
C93 C 0.12821 0.65108 0.79373 0.0
H94 H 0.16062 0.68428 0.71472 0.0
H95 H 0.15526 0.65631 0.69742 0.0
H96 H 0.15306 0.59379 0.71396 0.0
H97 H 0.15382 0.57687 0.74259 0.0
H98 H 0.13382 0.59482 0.80462 0.0
H99 H 0.12178 0.62368 0.81617 0.0
H100 H 0.12937 0.68671 0.80083 0.0
H101 H 0.14633 0.70234 0.77781 0.0
H102 H 0.0923 0.66705 0.74421 0.0
H103 H 0.0913 0.61361 0.75233 0.0
H104 H 0.18418 0.65383 0.80269 0.0
H105 H 0.20245 0.65147 0.7524 0.0
C106 C 0.87024 0.67381 0.28901 0.0
C107 C 0.86681 0.67733 0.30569 0.0
C108 C 0.86949 0.66267 0.31441 0.0
C109 C 0.87441 0.65114 0.30259 0.0
N110 N 0.87506 0.65767 0.28706 0.0
Co111 Co 0.8815 0.64561 0.26637 0.0
N112 N 0.87702 0.62344 0.27653 0.0
C113 C 0.87546 0.62048 0.2931 0.0
C114 C 0.87302 0.6039 0.29671 0.0
C115 C 0.87327 0.59584 0.2815 0.0
C116 C 0.8759 0.608 0.26937 0.0
N117 N 0.88851 0.63333 0.24589 0.0
C118 C 0.8869 0.61693 0.24139 0.0
C119 C 0.89441 0.61364 0.2263 0.0
C120 C 0.90115 0.62838 0.22142 0.0
C121 C 0.89741 0.63989 0.23373 0.0
N122 N 0.88552 0.66792 0.25645 0.0
C123 C 0.89436 0.67088 0.24295 0.0
C124 C 0.89387 0.68758 0.23841 0.0
C125 C 0.88406 0.69547 0.24978 0.0
C126 C 0.87911 0.68313 0.26065 0.0
N127 N 0.90331 0.64422 0.2749 0.0
C128 C 0.93596 0.64395 0.2813 0.0
C129 C 0.92666 0.6585 0.28388 0.0
C130 C 0.91047 0.65835 0.28073 0.0
C131 C 0.92824 0.6293 0.27631 0.0
C132 C 0.91204 0.62968 0.27327 0.0
N133 N 0.85999 0.64767 0.25719 0.0
C134 C 0.84401 0.65705 0.23374 0.0
C135 C 0.83106 0.65958 0.24412 0.0
C136 C 0.83261 0.6549 0.2611 0.0
C137 C 0.8471 0.64867 0.26732 0.0
C138 C 0.85821 0.65124 0.24045 0.0
H139 H 0.84808 0.64557 0.28049 0.0
H140 H 0.868 0.65085 0.23209 0.0
H141 H 0.90383 0.6699 0.28245 0.0
H142 H 0.90675 0.6183 0.26889 0.0
C143 C 0.87497 0.63371 0.30473 0.0
C144 C 0.86891 0.68597 0.2753 0.0
C145 C 0.87943 0.60397 0.25171 0.0
C146 C 0.90001 0.65733 0.23317 0.0
H147 H 0.86256 0.68912 0.31091 0.0
H148 H 0.86717 0.66046 0.32756 0.0
H149 H 0.8712 0.59833 0.30892 0.0
H150 H 0.87223 0.58242 0.27967 0.0
H151 H 0.89512 0.60178 0.21963 0.0
H152 H 0.90768 0.63052 0.21004 0.0
H153 H 0.89926 0.69321 0.22758 0.0
H154 H 0.8808 0.70868 0.24994 0.0
H155 H 0.93186 0.67007 0.28813 0.0
H156 H 0.93472 0.6177 0.27406 0.0
H157 H 0.8435 0.66055 0.2206 0.0
H158 H 0.82284 0.65641 0.26959 0.0
C159 C 0.87169 0.34863 0.73382 0.0
C160 C 0.86811 0.34622 0.71697 0.0
C161 C 0.8704 0.36133 0.70917 0.0
C162 C 0.87528 0.37201 0.72165 0.0
N163 N 0.87632 0.36451 0.73674 0.0
Co164 Co 0.8828 0.3752 0.75811 0.0
N165 N 0.87769 0.39808 0.74935 0.0
C166 C 0.87555 0.40203 0.73302 0.0
C167 C 0.87261 0.41882 0.73042 0.0
C168 C 0.8732 0.42601 0.74603 0.0
C169 C 0.87656 0.41315 0.75738 0.0
N170 N 0.88991 0.38608 0.77927 0.0
C171 C 0.88851 0.40234 0.78458 0.0
C172 C 0.89639 0.40452 0.79969 0.0
C173 C 0.90315 0.38923 0.80377 0.0
C174 C 0.89907 0.37852 0.79097 0.0
N175 N 0.88728 0.35217 0.76661 0.0
C176 C 0.89624 0.34817 0.77996 0.0
C177 C 0.89588 0.33127 0.78361 0.0
C178 C 0.886 0.32434 0.77182 0.0
C179 C 0.8809 0.33742 0.76159 0.0
N180 N 0.90457 0.37672 0.74971 0.0
C181 C 0.93737 0.37703 0.7444 0.0
C182 C 0.92865 0.36253 0.74133 0.0
C183 C 0.91235 0.36268 0.74384 0.0
C184 C 0.92901 0.39161 0.74925 0.0
C185 C 0.91279 0.3912 0.75181 0.0
N186 N 0.86144 0.37297 0.76725 0.0
C187 C 0.84641 0.36148 0.78995 0.0
C188 C 0.83345 0.35925 0.77943 0.0
C189 C 0.83426 0.36584 0.76305 0.0
C190 C 0.84836 0.3727 0.75721 0.0
C191 C 0.86009 0.36827 0.78372 0.0
H192 H 0.84896 0.37677 0.7443 0.0
H193 H 0.86993 0.36838 0.79212 0.0
H194 H 0.90613 0.3512 0.74167 0.0
H195 H 0.90709 0.40252 0.75628 0.0
C196 C 0.87523 0.38952 0.72063 0.0
C197 C 0.87052 0.33572 0.74678 0.0
C198 C 0.88098 0.41624 0.77501 0.0
C199 C 0.90183 0.36098 0.79051 0.0
H200 H 0.86393 0.33488 0.71107 0.0
H201 H 0.86777 0.36442 0.6962 0.0
H202 H 0.87032 0.42511 0.71858 0.0
H203 H 0.87197 0.43933 0.74864 0.0
H204 H 0.89738 0.41603 0.80686 0.0
H205 H 0.90999 0.38624 0.81489 0.0
H206 H 0.90136 0.32488 0.79416 0.0
H207 H 0.8828 0.31128 0.77099 0.0
H208 H 0.93439 0.351 0.73718 0.0
H209 H 0.93505 0.40318 0.75184 0.0
H210 H 0.84627 0.35732 0.8029 0.0
H211 H 0.82447 0.36476 0.75446 0.0
C212 C 0.23069 0.16852 0.34724 0.0
C213 C 0.21586 0.17171 0.34065 0.0
C214 C 0.20886 0.1565 0.33902 0.0
C215 C 0.2197 0.14494 0.3448 0.0
N216 N 0.23309 0.15186 0.35008 0.0
Co217 Co 0.25153 0.13951 0.35978 0.0
N218 N 0.24417 0.11745 0.35098 0.0
C219 C 0.23007 0.11471 0.34395 0.0
C220 C 0.22838 0.09865 0.33807 0.0
C221 C 0.24213 0.09053 0.34194 0.0
C222 C 0.25136 0.10204 0.35037 0.0
N223 N 0.26971 0.12685 0.36995 0.0
C224 C 0.27414 0.11026 0.36892 0.0
C225 C 0.28657 0.10675 0.37973 0.0
C226 C 0.28987 0.12143 0.38795 0.0
C227 C 0.27929 0.13311 0.38183 0.0
N228 N 0.25882 0.16171 0.36808 0.0
C229 C 0.26983 0.16401 0.37992 0.0
C230 C 0.27282 0.18071 0.38269 0.0
C231 C 0.26304 0.18945 0.37191 0.0
C232 C 0.25454 0.17757 0.36318 0.0
N233 N 0.2401 0.13637 0.38109 0.0
C234 C 0.2323 0.13496 0.41553 0.0
C235 C 0.22959 0.14964 0.40607 0.0
C236 C 0.23339 0.15003 0.38894 0.0
C237 C 0.23749 0.12054 0.40682 0.0
C238 C 0.24116 0.12147 0.38966 0.0
N239 N 0.26352 0.14341 0.33899 0.0
C240 C 0.28721 0.15422 0.32707 0.0
C241 C 0.28009 0.15634 0.31131 0.0
C242 C 0.26456 0.15102 0.30955 0.0
C243 C 0.25655 0.14444 0.32346 0.0
C244 C 0.27885 0.1478 0.34054 0.0
H245 H 0.24456 0.14082 0.32179 0.0
H246 H 0.28471 0.14738 0.35249 0.0
H247 H 0.23181 0.16177 0.38235 0.0
H248 H 0.24579 0.11032 0.38371 0.0
C249 C 0.21902 0.12768 0.34219 0.0
C250 C 0.24195 0.18166 0.35101 0.0
C251 C 0.26566 0.09706 0.35968 0.0
C252 C 0.27858 0.15025 0.38612 0.0
H253 H 0.21069 0.18374 0.33716 0.0
H254 H 0.19755 0.1541 0.33344 0.0
H255 H 0.21835 0.09346 0.3317 0.0
H256 H 0.24478 0.07741 0.33945 0.0
H257 H 0.2923 0.09471 0.38194 0.0
H258 H 0.29883 0.12332 0.39738 0.0
H259 H 0.2815 0.18591 0.39105 0.0
H260 H 0.26226 0.20298 0.37062 0.0
H261 H 0.22502 0.16098 0.41195 0.0
H262 H 0.23963 0.10879 0.41335 0.0
H263 H 0.29903 0.15829 0.32935 0.0
H264 H 0.25854 0.15212 0.29758 0.0
C265 C 0.36211 0.78817 0.84376 0.0
C266 C 0.35867 0.80489 0.84012 0.0
C267 C 0.361 0.81373 0.85471 0.0
C268 C 0.36579 0.80194 0.86634 0.0
N269 N 0.3667 0.78631 0.85994 0.0
Co270 Co 0.37327 0.7657 0.87224 0.0
N271 N 0.36829 0.77621 0.89434 0.0
C272 C 0.36635 0.79286 0.89708 0.0
C273 C 0.36372 0.79682 0.9136 0.0
C274 C 0.36429 0.78179 0.9219 0.0
C275 C 0.36728 0.76938 0.90994 0.0
N276 N 0.38046 0.74533 0.88479 0.0
C277 C 0.37897 0.74118 0.90132 0.0
C278 C 0.38673 0.72607 0.90468 0.0
C279 C 0.39352 0.72083 0.88991 0.0
C280 C 0.38956 0.73295 0.87828 0.0
N281 N 0.3777 0.75548 0.84996 0.0
C282 C 0.38665 0.74173 0.84716 0.0
C283 C 0.38627 0.73683 0.83056 0.0
C284 C 0.37642 0.74822 0.82255 0.0
C285 C 0.37133 0.75951 0.83471 0.0
N286 N 0.39506 0.77396 0.87365 0.0
C287 C 0.42789 0.77908 0.87407 0.0
C288 C 0.41886 0.78163 0.8594 0.0
C289 C 0.40259 0.77913 0.85947 0.0
C290 C 0.41976 0.77486 0.88872 0.0
C291 C 0.40352 0.77246 0.88827 0.0
N292 N 0.3519 0.75662 0.87012 0.0
C293 C 0.33691 0.73307 0.86027 0.0
C294 C 0.32388 0.74342 0.85687 0.0
C295 C 0.32469 0.76039 0.8619 0.0
C296 C 0.33879 0.76672 0.86859 0.0
C297 C 0.35061 0.7398 0.86677 0.0
H298 H 0.33933 0.77996 0.87153 0.0
H299 H 0.36047 0.73134 0.86781 0.0
H300 H 0.39619 0.78076 0.84783 0.0
H301 H 0.398 0.76861 0.8997 0.0
C302 C 0.36595 0.80427 0.88373 0.0
C303 C 0.36099 0.77435 0.83166 0.0
C304 C 0.37143 0.75186 0.91433 0.0
C305 C 0.39226 0.73209 0.86083 0.0
H306 H 0.35461 0.81008 0.82827 0.0
H307 H 0.35853 0.82696 0.85682 0.0
H308 H 0.36167 0.80917 0.91899 0.0
H309 H 0.3633 0.78029 0.93536 0.0
H310 H 0.38758 0.71962 0.91662 0.0
H311 H 0.40025 0.70935 0.88784 0.0
H312 H 0.39174 0.72574 0.82509 0.0
H313 H 0.37321 0.74807 0.80939 0.0
H314 H 0.42432 0.78534 0.84778 0.0
H315 H 0.42596 0.77266 0.90044 0.0
H316 H 0.33682 0.71977 0.85729 0.0
H317 H 0.31485 0.76892 0.85983 0.0
C318 C 0.72897 0.85808 0.34062 0.0
C319 C 0.7138 0.85266 0.33827 0.0
C320 C 0.70682 0.85321 0.35371 0.0
C321 C 0.71808 0.85895 0.36455 0.0
N322 N 0.73166 0.86213 0.3569 0.0
Co323 Co 0.75096 0.87034 0.3679 0.0
N324 N 0.74391 0.86292 0.39048 0.0
C325 C 0.72917 0.85875 0.39438 0.0
C326 C 0.72734 0.85466 0.41095 0.0
C327 C 0.74173 0.85666 0.41811 0.0
C328 C 0.75163 0.86194 0.40546 0.0
N329 N 0.77007 0.87908 0.37909 0.0
C330 C 0.77535 0.87745 0.39523 0.0
C331 C 0.78861 0.88691 0.39777 0.0
C332 C 0.79146 0.89503 0.38292 0.0
C333 C 0.77987 0.89009 0.37209 0.0
N334 N 0.75782 0.87724 0.34516 0.0
C335 C 0.76908 0.88824 0.34183 0.0
C336 C 0.77174 0.88977 0.32486 0.0
C337 C 0.76151 0.87901 0.31713 0.0
C338 C 0.75316 0.87149 0.32983 0.0
N339 N 0.74096 0.89279 0.37135 0.0
C340 C 0.73483 0.9278 0.37385 0.0
C341 C 0.73142 0.9189 0.35902 0.0
C342 C 0.73447 0.90144 0.35807 0.0
C343 C 0.73996 0.9184 0.38779 0.0
C344 C 0.74281 0.90105 0.38633 0.0
N345 N 0.7616 0.84843 0.36387 0.0
C346 C 0.78396 0.8343 0.35147 0.0
C347 C 0.77588 0.81927 0.35007 0.0
C348 C 0.76079 0.81877 0.35698 0.0
C349 C 0.75386 0.83351 0.36386 0.0
C350 C 0.77672 0.84855 0.35836 0.0
H351 H 0.74202 0.83304 0.36841 0.0
H352 H 0.78321 0.85994 0.35818 0.0
H353 H 0.73243 0.89515 0.34625 0.0
H354 H 0.74742 0.8946 0.39718 0.0
C355 C 0.71758 0.85779 0.38201 0.0
C356 C 0.74042 0.85953 0.32714 0.0
C357 C 0.76732 0.8685 0.40885 0.0
C358 C 0.77864 0.89415 0.35491 0.0
H359 H 0.70843 0.84846 0.32669 0.0
H360 H 0.69527 0.84893 0.35681 0.0
H361 H 0.71677 0.85079 0.41713 0.0
H362 H 0.74437 0.85517 0.43134 0.0
H363 H 0.79529 0.88815 0.40928 0.0
H364 H 0.80094 0.90342 0.38033 0.0
H365 H 0.78059 0.89715 0.31885 0.0
H366 H 0.7604 0.87684 0.30375 0.0
H367 H 0.72725 0.92546 0.34791 0.0
H368 H 0.74226 0.92447 0.39972 0.0
H369 H 0.79576 0.83526 0.34678 0.0
H370 H 0.75413 0.80736 0.35637 0.0
C371 C 0.66556 0.23076 0.84507 0.0
C372 C 0.66885 0.21408 0.84107 0.0
C373 C 0.66651 0.20499 0.85543 0.0
C374 C 0.66194 0.2166 0.86731 0.0
N375 N 0.66117 0.23238 0.86132 0.0
Co376 Co 0.65533 0.25288 0.8743 0.0
N377 N 0.6601 0.24163 0.89612 0.0
C378 C 0.66163 0.22487 0.89834 0.0
C379 C 0.66423 0.22037 0.91474 0.0
C380 C 0.6641 0.23515 0.92354 0.0
C381 C 0.6614 0.24797 0.91196 0.0
N382 N 0.64895 0.27318 0.88751 0.0
C383 C 0.65072 0.27683 0.90417 0.0
C384 C 0.64351 0.29213 0.90798 0.0
C385 C 0.63678 0.29802 0.89335 0.0
C386 C 0.64021 0.28607 0.88136 0.0
N387 N 0.65101 0.26386 0.85234 0.0
C388 C 0.64241 0.27796 0.84999 0.0
C389 C 0.64237 0.28307 0.83347 0.0
C390 C 0.65158 0.27144 0.82502 0.0
C391 C 0.65675 0.25985 0.83688 0.0
N392 N 0.63329 0.24545 0.87528 0.0
C393 C 0.60021 0.24223 0.87478 0.0
C394 C 0.60932 0.23898 0.8604 0.0
C395 C 0.62569 0.24061 0.86091 0.0
C396 C 0.60838 0.24604 0.88967 0.0
C397 C 0.62475 0.24741 0.88969 0.0
N398 N 0.67697 0.26116 0.87252 0.0
C399 C 0.69254 0.28427 0.86304 0.0
C400 C 0.70505 0.27344 0.85906 0.0
C401 C 0.70378 0.25643 0.86367 0.0
C402 C 0.68967 0.25057 0.87052 0.0
C403 C 0.6788 0.27798 0.86965 0.0
H404 H 0.68874 0.23732 0.87314 0.0
H405 H 0.66927 0.28681 0.87108 0.0
H406 H 0.63212 0.23864 0.84943 0.0
H407 H 0.63036 0.2509 0.9013 0.0
C408 C 0.66179 0.21386 0.88462 0.0
C409 C 0.66648 0.24473 0.83318 0.0
C410 C 0.65797 0.26552 0.91692 0.0
C411 C 0.63732 0.28746 0.86395 0.0
H412 H 0.67279 0.20904 0.82915 0.0
H413 H 0.66884 0.19169 0.85723 0.0
H414 H 0.66601 0.20783 0.91974 0.0
H415 H 0.66524 0.23626 0.93704 0.0
H416 H 0.64296 0.29827 0.92012 0.0
H417 H 0.6304 0.30979 0.89162 0.0
H418 H 0.63698 0.29437 0.8283 0.0
H419 H 0.65428 0.27152 0.81176 0.0
H420 H 0.60388 0.23543 0.84863 0.0
H421 H 0.6022 0.24873 0.90122 0.0
H422 H 0.69305 0.2976 0.86039 0.0
H423 H 0.71323 0.24754 0.86115 0.0
C424 C 0.28836 0.85031 0.68046 0.0
C425 C 0.30396 0.84631 0.68369 0.0
C426 C 0.31158 0.84743 0.66868 0.0
C427 C 0.30027 0.85213 0.65722 0.0
N428 N 0.28603 0.85418 0.66408 0.0
Co429 Co 0.26661 0.86139 0.65206 0.0
N430 N 0.2756 0.85508 0.62978 0.0
C431 C 0.29075 0.85122 0.62682 0.0
C432 C 0.29371 0.847 0.61043 0.0
C433 C 0.27963 0.84864 0.60237 0.0
C434 C 0.26884 0.85406 0.61429 0.0
N435 N 0.24752 0.86948 0.63973 0.0
C436 C 0.2435 0.86842 0.62314 0.0
C437 C 0.22973 0.8774 0.61995 0.0
C438 C 0.22514 0.8845 0.63492 0.0
C439 C 0.23632 0.87956 0.64644 0.0
N440 N 0.25775 0.86688 0.67451 0.0
C441 C 0.24507 0.87664 0.67741 0.0
C442 C 0.24113 0.87708 0.69414 0.0
C443 C 0.25202 0.86691 0.7022 0.0
C444 C 0.26206 0.86084 0.68992 0.0
N445 N 0.27478 0.88452 0.65015 0.0
C446 C 0.27899 0.91974 0.64917 0.0
C447 C 0.28087 0.91068 0.66419 0.0
C448 C 0.27907 0.89313 0.66434 0.0
C449 C 0.27611 0.91055 0.63446 0.0
C450 C 0.27397 0.89308 0.63521 0.0
N451 N 0.25767 0.83867 0.65477 0.0
C452 C 0.23519 0.82311 0.66382 0.0
C453 C 0.2445 0.80906 0.66789 0.0
C454 C 0.26055 0.80978 0.66424 0.0
C455 C 0.26683 0.82455 0.65734 0.0
C456 C 0.2419 0.83762 0.6575 0.0
H457 H 0.27921 0.82475 0.65492 0.0
H458 H 0.23421 0.84832 0.656 0.0
H459 H 0.2804 0.88668 0.67618 0.0
H460 H 0.27086 0.88675 0.62376 0.0
C461 C 0.30174 0.85087 0.63985 0.0
C462 C 0.27605 0.85008 0.69312 0.0
C463 C 0.25315 0.86061 0.60978 0.0
C464 C 0.23591 0.88258 0.66387 0.0
H465 H 0.30919 0.84257 0.69556 0.0
H466 H 0.32369 0.84413 0.66624 0.0
H467 H 0.3048 0.84326 0.60497 0.0
H468 H 0.2777 0.84678 0.58905 0.0
H469 H 0.22384 0.87899 0.60797 0.0
H470 H 0.21481 0.89224 0.63713 0.0
H471 H 0.23111 0.8834 0.69975 0.0
H472 H 0.25247 0.86422 0.71552 0.0
H473 H 0.28345 0.91716 0.67584 0.0
H474 H 0.27466 0.91694 0.62252 0.0
H475 H 0.22278 0.82332 0.66647 0.0
H476 H 0.26823 0.79912 0.66692 0.0
C477 C 0.66548 0.7951 0.17095 0.0
C478 C 0.66871 0.81184 0.17413 0.0
C479 C 0.66645 0.82023 0.15925 0.0
C480 C 0.66197 0.80819 0.1479 0.0
N481 N 0.6612 0.79279 0.15472 0.0
Co482 Co 0.65537 0.77188 0.14278 0.0
N483 N 0.66023 0.78172 0.12048 0.0
C484 C 0.66179 0.79826 0.11737 0.0
C485 C 0.66442 0.80173 0.10079 0.0
C486 C 0.66428 0.78649 0.09282 0.0
C487 C 0.66155 0.77445 0.10505 0.0
N488 N 0.64898 0.75117 0.13063 0.0
C489 C 0.6508 0.74653 0.11424 0.0
C490 C 0.64367 0.7313 0.11118 0.0
C491 C 0.6369 0.72651 0.12598 0.0
C492 C 0.64026 0.73899 0.13732 0.0
N493 N 0.65098 0.76227 0.16522 0.0
C494 C 0.64234 0.74871 0.1682 0.0
C495 C 0.6422 0.74454 0.18498 0.0
C496 C 0.65137 0.75622 0.19294 0.0
C497 C 0.65661 0.76689 0.18056 0.0
N498 N 0.63342 0.78026 0.14099 0.0
C499 C 0.60052 0.78558 0.14029 0.0
C500 C 0.60938 0.78862 0.1549 0.0
C501 C 0.6257 0.78602 0.15496 0.0
C502 C 0.60879 0.7808 0.12578 0.0
C503 C 0.62509 0.77831 0.12637 0.0
N504 N 0.67699 0.76281 0.14526 0.0
C505 C 0.69318 0.73938 0.1547 0.0
C506 C 0.70591 0.74981 0.15732 0.0
C507 C 0.70413 0.76683 0.15281 0.0
C508 C 0.68967 0.77301 0.14646 0.0
C509 C 0.67896 0.74606 0.14886 0.0
H510 H 0.68856 0.78618 0.14335 0.0
H511 H 0.66934 0.73765 0.1484 0.0
H512 H 0.632 0.78803 0.16656 0.0
H513 H 0.63079 0.77401 0.11509 0.0
C514 C 0.66189 0.81001 0.13047 0.0
C515 C 0.66631 0.78176 0.18358 0.0
C516 C 0.65801 0.75683 0.10103 0.0
C517 C 0.63729 0.73868 0.15472 0.0
H518 H 0.67253 0.81734 0.18587 0.0
H519 H 0.66874 0.83333 0.1568 0.0
H520 H 0.66621 0.8139 0.09514 0.0
H521 H 0.66541 0.78461 0.07941 0.0
H522 H 0.64321 0.72448 0.09941 0.0
H523 H 0.63056 0.71512 0.12825 0.0
H524 H 0.63676 0.73381 0.19066 0.0
H525 H 0.65398 0.75677 0.20625 0.0
H526 H 0.60374 0.79278 0.16637 0.0
H527 H 0.60269 0.77823 0.11413 0.0
H528 H 0.69386 0.72621 0.15811 0.0
H529 H 0.71374 0.77536 0.15441 0.0
C530 C 0.73092 0.17222 0.67534 0.0
C531 C 0.71569 0.1777 0.6784 0.0
C532 C 0.70796 0.17726 0.6633 0.0
C533 C 0.71884 0.17153 0.65194 0.0
N534 N 0.73292 0.16826 0.65892 0.0
Co535 Co 0.75184 0.15981 0.64693 0.0
N536 N 0.74325 0.16714 0.62469 0.0
C537 C 0.72817 0.17137 0.62156 0.0
C538 C 0.72522 0.17535 0.6051 0.0
C539 C 0.73923 0.17324 0.59717 0.0
C540 C 0.75003 0.16799 0.60929 0.0
N541 N 0.7705 0.15086 0.63464 0.0
C542 C 0.7748 0.15245 0.61822 0.0
C543 C 0.78812 0.14279 0.61496 0.0
C544 C 0.79207 0.13466 0.62965 0.0
C545 C 0.781 0.13975 0.64112 0.0
N546 N 0.76019 0.15294 0.6693 0.0
C547 C 0.77201 0.14191 0.672 0.0
C548 C 0.77564 0.14029 0.6888 0.0
C549 C 0.76544 0.15101 0.69711 0.0
C550 C 0.75612 0.1586 0.6849 0.0
N551 N 0.7423 0.13737 0.64425 0.0
C552 C 0.73686 0.10223 0.64329 0.0
C553 C 0.73366 0.11193 0.65775 0.0
C554 C 0.73637 0.12933 0.65795 0.0
C555 C 0.74156 0.11102 0.62892 0.0
C556 C 0.744 0.12845 0.6296 0.0
N557 N 0.76215 0.18166 0.65046 0.0
C558 C 0.78486 0.19499 0.66231 0.0
C559 C 0.77643 0.2099 0.66526 0.0
C560 C 0.76091 0.21089 0.65926 0.0
C561 C 0.75399 0.19661 0.65186 0.0
C562 C 0.77764 0.18124 0.65492 0.0
H563 H 0.74183 0.19741 0.64816 0.0
H564 H 0.78453 0.16987 0.65405 0.0
H565 H 0.73446 0.1361 0.66954 0.0
H566 H 0.74821 0.13443 0.61844 0.0
C567 C 0.71731 0.17255 0.63454 0.0
C568 C 0.74303 0.17051 0.68834 0.0
C569 C 0.7658 0.16163 0.60506 0.0
C570 C 0.78093 0.13585 0.65839 0.0
H571 H 0.71074 0.18179 0.69024 0.0
H572 H 0.69609 0.18154 0.66076 0.0
H573 H 0.71418 0.17927 0.5995 0.0
H574 H 0.74107 0.17471 0.58382 0.0
H575 H 0.79414 0.14147 0.6031 0.0
H576 H 0.80193 0.12617 0.63173 0.0
H577 H 0.78504 0.13281 0.69433 0.0
H578 H 0.76495 0.15306 0.71054 0.0
H579 H 0.72943 0.1061 0.66908 0.0
H580 H 0.74417 0.10445 0.61732 0.0
H581 H 0.79696 0.19368 0.6663 0.0
H582 H 0.75395 0.22227 0.66105 0.0
C583 C 0.37546 0.22801 0.17451 0.0
C584 C 0.3715 0.21124 0.17587 0.0
C585 C 0.37391 0.20417 0.16033 0.0
C586 C 0.37919 0.21698 0.15044 0.0
N587 N 0.38033 0.23158 0.15883 0.0
Co588 Co 0.38705 0.25328 0.14945 0.0
N589 N 0.38194 0.24605 0.12618 0.0
C590 C 0.38002 0.23 0.1212 0.0
C591 C 0.3774 0.22844 0.10428 0.0
C592 C 0.37794 0.24445 0.09812 0.0
C593 C 0.38086 0.25501 0.1117 0.0
N594 N 0.39424 0.27484 0.13995 0.0
C595 C 0.39249 0.28137 0.12424 0.0
C596 C 0.40008 0.29657 0.12306 0.0
C597 C 0.40714 0.29934 0.13835 0.0
C598 C 0.40344 0.28579 0.1481 0.0
N599 N 0.39166 0.26022 0.17287 0.0
C600 C 0.40093 0.2728 0.17759 0.0
C601 C 0.40084 0.27525 0.19473 0.0
C602 C 0.39081 0.26349 0.20103 0.0
C603 C 0.38533 0.25452 0.18736 0.0
N604 N 0.40869 0.24425 0.14701 0.0
C605 C 0.44142 0.23846 0.14568 0.0
C606 C 0.43277 0.23404 0.15993 0.0
C607 C 0.41647 0.23697 0.16032 0.0
C608 C 0.43302 0.24465 0.13174 0.0
C609 C 0.41683 0.24735 0.13262 0.0
N610 N 0.36582 0.26298 0.15237 0.0
C611 C 0.35023 0.28603 0.16343 0.0
C612 C 0.33669 0.27651 0.16277 0.0
C613 C 0.33795 0.2601 0.15615 0.0
C614 C 0.3526 0.25365 0.1508 0.0
C615 C 0.36449 0.27911 0.15829 0.0
H616 H 0.35333 0.24096 0.14598 0.0
H617 H 0.37458 0.28672 0.16002 0.0
H618 H 0.41027 0.23408 0.1717 0.0
H619 H 0.41109 0.25278 0.1218 0.0
C620 C 0.37947 0.21692 0.1329 0.0
C621 C 0.37465 0.24023 0.18825 0.0
C622 C 0.38495 0.27283 0.10987 0.0
C623 C 0.40649 0.28401 0.16545 0.0
H624 H 0.36705 0.2049 0.18681 0.0
H625 H 0.37112 0.19152 0.15645 0.0
H626 H 0.37535 0.21703 0.09724 0.0
H627 H 0.37697 0.24776 0.08498 0.0
H628 H 0.40068 0.3047 0.1122 0.0
H629 H 0.41386 0.31015 0.142 0.0
H630 H 0.40661 0.28505 0.20174 0.0
H631 H 0.38774 0.26183 0.21409 0.0
H632 H 0.43861 0.22908 0.17101 0.0
H633 H 0.43897 0.24779 0.12022 0.0
H634 H 0.35003 0.2986 0.16868 0.0
H635 H 0.32777 0.25228 0.15528 0.0
C636 C 0.8434 0.65672 0.76971 0.0
C637 C 0.83169 0.65621 0.7576 0.0
C638 C 0.83896 0.65513 0.74235 0.0
C639 C 0.85467 0.65499 0.74596 0.0
N640 N 0.85785 0.65546 0.76257 0.0
Co641 Co 0.87921 0.65805 0.77257 0.0
N642 N 0.89008 0.65371 0.75066 0.0
C643 C 0.88303 0.65303 0.73551 0.0
C644 C 0.89319 0.64925 0.7227 0.0
C645 C 0.90761 0.64754 0.73018 0.0
C646 C 0.90551 0.65056 0.7472 0.0
N647 N 0.90046 0.66144 0.78251 0.0
C648 C 0.91499 0.65875 0.77607 0.0
C649 C 0.92647 0.66425 0.7871 0.0
C650 C 0.91898 0.67018 0.80104 0.0
C651 C 0.90341 0.6682 0.79771 0.0
N652 N 0.86868 0.66171 0.79481 0.0
C653 C 0.87572 0.66684 0.80907 0.0
C654 C 0.86589 0.66817 0.82253 0.0
C655 C 0.85156 0.66404 0.8164 0.0
C656 C 0.85342 0.66047 0.79941 0.0
N657 N 0.88065 0.63353 0.77722 0.0
C658 C 0.88174 0.59818 0.78251 0.0
C659 C 0.88687 0.60949 0.79497 0.0
C660 C 0.88622 0.62705 0.79208 0.0
C661 C 0.87637 0.60518 0.76734 0.0
C662 C 0.87586 0.62259 0.76502 0.0
N663 N 0.8772 0.68245 0.76707 0.0
C664 C 0.85893 0.70586 0.7638 0.0
C665 C 0.86697 0.71183 0.74983 0.0
C666 C 0.88137 0.7039 0.74605 0.0
C667 C 0.88643 0.68952 0.75506 0.0
C668 C 0.86429 0.69147 0.77227 0.0
H669 H 0.89737 0.68362 0.75152 0.0
H670 H 0.85713 0.6872 0.78225 0.0
H671 H 0.89017 0.63533 0.80191 0.0
H672 H 0.87155 0.62707 0.75315 0.0
C673 C 0.86673 0.65417 0.73416 0.0
C674 C 0.84014 0.65991 0.78762 0.0
C675 C 0.91852 0.65148 0.75949 0.0
C676 C 0.89155 0.67031 0.80939 0.0
H677 H 0.8192 0.6571 0.75959 0.0
H678 H 0.83345 0.65479 0.73008 0.0
H679 H 0.8904 0.64749 0.70953 0.0
H680 H 0.91842 0.64452 0.72378 0.0
H681 H 0.939 0.66402 0.78534 0.0
H682 H 0.92429 0.67489 0.81246 0.0
H683 H 0.86872 0.67216 0.83518 0.0
H684 H 0.84084 0.6647 0.8235 0.0
H685 H 0.89113 0.60488 0.80697 0.0
H686 H 0.87268 0.59725 0.75703 0.0
H687 H 0.84791 0.71154 0.76761 0.0
H688 H 0.8885 0.70843 0.73589 0.0
C689 C 0.8814 0.34437 0.26792 0.0
C690 C 0.8872 0.33128 0.25812 0.0
C691 C 0.89721 0.33833 0.24672 0.0
C692 C 0.89697 0.35531 0.25017 0.0
N693 N 0.88749 0.35924 0.26303 0.0
Co694 Co 0.88258 0.38222 0.27141 0.0
N695 N 0.89017 0.39309 0.25061 0.0
C696 C 0.89972 0.38563 0.2393 0.0
C697 C 0.90375 0.39629 0.22655 0.0
C698 C 0.89652 0.41143 0.23024 0.0
C699 C 0.88845 0.40923 0.24512 0.0
N700 N 0.87717 0.40507 0.28003 0.0
C701 C 0.87604 0.42007 0.27196 0.0
C702 C 0.87268 0.43301 0.28325 0.0
C703 C 0.87194 0.4259 0.29885 0.0
C704 C 0.87486 0.40909 0.2963 0.0
N705 N 0.87555 0.37158 0.29245 0.0
C706 C 0.87411 0.37912 0.30751 0.0
C707 C 0.869 0.36846 0.31977 0.0
C708 C 0.86705 0.3533 0.31187 0.0
C709 C 0.87107 0.35564 0.29518 0.0
N710 N 0.90403 0.38383 0.28079 0.0
C711 C 0.93665 0.38389 0.28704 0.0
C712 C 0.92854 0.39851 0.28184 0.0
C713 C 0.91236 0.39822 0.27881 0.0
C714 C 0.92778 0.36955 0.29012 0.0
C715 C 0.91155 0.36985 0.28714 0.0
N716 N 0.86153 0.37994 0.26131 0.0
C717 C 0.8339 0.37443 0.26382 0.0
C718 C 0.83317 0.36893 0.24699 0.0
C719 C 0.84679 0.36988 0.23746 0.0
C720 C 0.86065 0.3753 0.24475 0.0
C721 C 0.84814 0.38013 0.27067 0.0
H722 H 0.87087 0.37463 0.23704 0.0
H723 H 0.84846 0.38396 0.28369 0.0
H724 H 0.90679 0.4095 0.27401 0.0
H725 H 0.90521 0.35846 0.28924 0.0
C726 C 0.90273 0.36814 0.2399 0.0
C727 C 0.87075 0.34254 0.28228 0.0
C728 C 0.88033 0.42298 0.25433 0.0
C729 C 0.87419 0.39662 0.30863 0.0
H730 H 0.8844 0.31811 0.25906 0.0
H731 H 0.90326 0.33193 0.23658 0.0
H732 H 0.91079 0.39333 0.21565 0.0
H733 H 0.89727 0.42283 0.22293 0.0
H734 H 0.87151 0.44632 0.28066 0.0
H735 H 0.86952 0.43224 0.31062 0.0
H736 H 0.86611 0.37157 0.33265 0.0
H737 H 0.86291 0.34194 0.31765 0.0
H738 H 0.93474 0.40994 0.27928 0.0
H739 H 0.93336 0.35804 0.29455 0.0
H740 H 0.82364 0.37412 0.27169 0.0
H741 H 0.84706 0.36556 0.22455 0.0
C742 C 0.1629 0.33489 0.7592 0.0
C743 C 0.16294 0.32225 0.77117 0.0
C744 C 0.16308 0.32999 0.78655 0.0
C745 C 0.16311 0.3469 0.78316 0.0
N746 N 0.1626 0.3504 0.76658 0.0
Co747 Co 0.16474 0.37333 0.75669 0.0
N748 N 0.16178 0.38492 0.77885 0.0
C749 C 0.16212 0.37738 0.79397 0.0
C750 C 0.15976 0.38841 0.80706 0.0
C751 C 0.15787 0.40393 0.79977 0.0
C752 C 0.1592 0.40152 0.78258 0.0
N753 N 0.16751 0.39618 0.74681 0.0
C754 C 0.16483 0.41177 0.75336 0.0
C755 C 0.16849 0.42425 0.74194 0.0
C756 C 0.17367 0.41627 0.72778 0.0
C757 C 0.17287 0.39945 0.73129 0.0
N758 N 0.16709 0.36209 0.73423 0.0
C759 C 0.17142 0.36959 0.71988 0.0
C760 C 0.17186 0.35902 0.70627 0.0
C761 C 0.16789 0.3437 0.71239 0.0
C762 C 0.1653 0.34577 0.72951 0.0
N763 N 0.14174 0.37504 0.75299 0.0
C764 C 0.10865 0.37696 0.74896 0.0
C765 C 0.11878 0.38242 0.73626 0.0
C766 C 0.13519 0.38137 0.73851 0.0
C767 C 0.11569 0.37042 0.7636 0.0
C768 C 0.13199 0.36967 0.76536 0.0
N769 N 0.18769 0.37103 0.76116 0.0
C770 C 0.21019 0.35201 0.7625 0.0
C771 C 0.21707 0.36139 0.77538 0.0
C772 C 0.20954 0.37662 0.77986 0.0
C773 C 0.19511 0.38137 0.77236 0.0
C774 C 0.19574 0.35703 0.7556 0.0
H775 H 0.18967 0.39305 0.77631 0.0
H776 H 0.19085 0.34883 0.74643 0.0
H777 H 0.14253 0.38572 0.72853 0.0
H778 H 0.13662 0.36465 0.77691 0.0
C779 C 0.16315 0.35984 0.79513 0.0
C780 C 0.1646 0.33148 0.7411 0.0
C781 C 0.1592 0.41542 0.77036 0.0
C782 C 0.1745 0.38666 0.71949 0.0
H783 H 0.16332 0.30881 0.76896 0.0
H784 H 0.16335 0.324 0.79874 0.0
H785 H 0.15919 0.38548 0.82032 0.0
H786 H 0.15596 0.41572 0.80633 0.0
H787 H 0.16739 0.43773 0.74358 0.0
H788 H 0.17696 0.42204 0.71605 0.0
H789 H 0.17497 0.36203 0.69348 0.0
H790 H 0.1678 0.33213 0.70522 0.0
H791 H 0.11413 0.38772 0.72471 0.0
H792 H 0.10868 0.36562 0.77372 0.0
H793 H 0.21545 0.34024 0.75834 0.0
H794 H 0.21459 0.3847 0.78932 0.0
C795 C 0.16126 0.68212 0.26749 0.0
C796 C 0.1555 0.69418 0.25643 0.0
C797 C 0.14611 0.68592 0.2451 0.0
C798 C 0.14668 0.66928 0.24982 0.0
N799 N 0.15578 0.66666 0.2634 0.0
Co800 Co 0.16102 0.64446 0.27356 0.0
N801 N 0.15395 0.63171 0.25339 0.0
C802 C 0.14458 0.63811 0.24121 0.0
C803 C 0.14053 0.62633 0.22939 0.0
C804 C 0.14754 0.61154 0.23462 0.0
C805 C 0.15553 0.61507 0.24939 0.0
N806 N 0.16681 0.62238 0.28394 0.0
C807 C 0.16804 0.60671 0.27713 0.0
C808 C 0.17202 0.59488 0.28933 0.0
C809 C 0.17288 0.6033 0.30429 0.0
C810 C 0.16949 0.61977 0.30045 0.0
N811 N 0.16741 0.65695 0.29403 0.0
C812 C 0.16898 0.65054 0.30958 0.0
C813 C 0.17338 0.66225 0.32129 0.0
C814 C 0.17475 0.67695 0.31252 0.0
C815 C 0.17117 0.67328 0.2959 0.0
N816 N 0.13946 0.64303 0.28241 0.0
C817 C 0.10668 0.64295 0.28749 0.0
C818 C 0.11508 0.62813 0.28345 0.0
C819 C 0.13133 0.62842 0.28108 0.0
C820 C 0.11538 0.65755 0.29011 0.0
C821 C 0.13165 0.6573 0.28764 0.0
N822 N 0.18222 0.64665 0.26394 0.0
C823 C 0.20902 0.65556 0.26704 0.0
C824 C 0.20987 0.65928 0.24979 0.0
C825 C 0.19695 0.65547 0.23977 0.0
C826 C 0.18338 0.64937 0.24699 0.0
C827 C 0.19522 0.6489 0.27379 0.0
H828 H 0.17351 0.64808 0.23876 0.0
H829 H 0.19484 0.64645 0.28712 0.0
H830 H 0.13711 0.6169 0.27731 0.0
H831 H 0.13781 0.6689 0.28924 0.0
C832 C 0.14142 0.65554 0.24035 0.0
C833 C 0.17131 0.68555 0.28223 0.0
C834 C 0.16324 0.60206 0.25997 0.0
C835 C 0.16968 0.63316 0.31183 0.0
H836 H 0.1579 0.70748 0.25647 0.0
H837 H 0.14023 0.6913 0.23424 0.0
H838 H 0.13351 0.62829 0.21818 0.0
H839 H 0.14662 0.59945 0.22845 0.0
H840 H 0.17348 0.58142 0.28775 0.0
H841 H 0.17559 0.59803 0.31651 0.0
H842 H 0.17619 0.66017 0.33441 0.0
H843 H 0.17827 0.68889 0.3177 0.0
H844 H 0.10909 0.61646 0.28129 0.0
H845 H 0.10966 0.66924 0.29375 0.0
H846 H 0.21882 0.65807 0.27529 0.0
H847 H 0.19691 0.65818 0.22643 0.0
C848 C 0.76485 0.83954 0.64945 0.0
C849 C 0.75441 0.82644 0.64937 0.0
C850 C 0.73973 0.83359 0.64905 0.0
C851 C 0.742 0.85062 0.64893 0.0
N852 N 0.75721 0.85475 0.64871 0.0
Co853 Co 0.76523 0.8781 0.65113 0.0
N854 N 0.74399 0.88878 0.64783 0.0
C855 C 0.73036 0.88063 0.64779 0.0
C856 C 0.71759 0.8911 0.64536 0.0
C857 C 0.7235 0.90692 0.64386 0.0
C858 C 0.73959 0.90522 0.64548 0.0
N859 N 0.77325 0.90138 0.6543 0.0
C860 C 0.76625 0.91668 0.65184 0.0
C861 C 0.77633 0.92964 0.65568 0.0
C862 C 0.79006 0.92229 0.66082 0.0
C863 C 0.78765 0.90535 0.65979 0.0
N864 N 0.7867 0.86777 0.65365 0.0
C865 C 0.79976 0.87593 0.65804 0.0
C866 C 0.81295 0.86592 0.6584 0.0
C867 C 0.80796 0.85025 0.65436 0.0
C868 C 0.79189 0.85158 0.65183 0.0
N869 N 0.76844 0.87947 0.62645 0.0
C870 C 0.77202 0.88035 0.59096 0.0
C871 C 0.78372 0.88631 0.60186 0.0
C872 C 0.78168 0.88583 0.61948 0.0
C873 C 0.7586 0.87392 0.59841 0.0
C874 C 0.75707 0.87362 0.6159 0.0
N875 N 0.76128 0.876 0.67577 0.0
C876 C 0.76103 0.85667 0.69927 0.0
C877 C 0.74745 0.86428 0.70572 0.0
C878 C 0.74214 0.87922 0.69798 0.0
C879 C 0.74948 0.8851 0.68336 0.0
C880 C 0.76776 0.86273 0.68453 0.0
H881 H 0.7449 0.89649 0.67777 0.0
H882 H 0.7776 0.85576 0.67986 0.0
H883 H 0.79084 0.8906 0.6274 0.0
H884 H 0.74654 0.86849 0.62079 0.0
C885 C 0.7302 0.86308 0.64877 0.0
C886 C 0.7818 0.83687 0.65167 0.0
C887 C 0.75009 0.91965 0.64627 0.0
C888 C 0.79932 0.89307 0.66132 0.0
H889 H 0.75716 0.81312 0.65002 0.0
H890 H 0.72871 0.82715 0.6492 0.0
H891 H 0.70544 0.88764 0.64459 0.0
H892 H 0.71675 0.91844 0.64212 0.0
H893 H 0.77409 0.94304 0.65471 0.0
H894 H 0.80075 0.92855 0.66421 0.0
H895 H 0.82474 0.86951 0.66155 0.0
H896 H 0.81526 0.839 0.65431 0.0
H897 H 0.79431 0.89152 0.59686 0.0
H898 H 0.74931 0.86882 0.59078 0.0
H899 H 0.76595 0.84535 0.7049 0.0
H900 H 0.73213 0.88611 0.7029 0.0
C901 C 0.66544 0.25568 0.18105 0.0
C902 C 0.6649 0.26835 0.19303 0.0
C903 C 0.66375 0.28323 0.18447 0.0
C904 C 0.66363 0.27883 0.16779 0.0
N905 N 0.66423 0.26206 0.16518 0.0
Co906 Co 0.66698 0.25091 0.14278 0.0
N907 N 0.66321 0.27239 0.13002 0.0
C908 C 0.66224 0.28789 0.13684 0.0
C909 C 0.65956 0.30034 0.12519 0.0
C910 C 0.65886 0.29225 0.10999 0.0
C911 C 0.66118 0.27526 0.1132 0.0
N912 N 0.67053 0.23982 0.12042 0.0
C913 C 0.66846 0.24564 0.10446 0.0
C914 C 0.6724 0.2334 0.09266 0.0
C915 C 0.67722 0.21951 0.10141 0.0
C916 C 0.6759 0.22394 0.11799 0.0
N917 N 0.66983 0.22908 0.15519 0.0
C918 C 0.67416 0.21419 0.14839 0.0
C919 C 0.67502 0.20126 0.15971 0.0
C920 C 0.67137 0.20841 0.17481 0.0
C921 C 0.66855 0.22541 0.17183 0.0
N922 N 0.6442 0.24674 0.14127 0.0
C923 C 0.61145 0.24175 0.14027 0.0
C924 C 0.62211 0.22884 0.13572 0.0
C925 C 0.63835 0.23163 0.13618 0.0
C926 C 0.61767 0.25712 0.14531 0.0
C927 C 0.63386 0.2593 0.14577 0.0
N928 N 0.68977 0.25585 0.14502 0.0
C929 C 0.7115 0.25696 0.16463 0.0
C930 C 0.7164 0.27224 0.15797 0.0
C931 C 0.70913 0.27763 0.14298 0.0
C932 C 0.6962 0.26898 0.13648 0.0
C933 C 0.69836 0.24903 0.15804 0.0
H934 H 0.69096 0.27372 0.12507 0.0
H935 H 0.69495 0.23788 0.16437 0.0
H936 H 0.6461 0.22149 0.13245 0.0
H937 H 0.63788 0.27129 0.14992 0.0
C938 C 0.66295 0.29004 0.15427 0.0
C939 C 0.66819 0.23791 0.18539 0.0
C940 C 0.66285 0.26255 0.09979 0.0
C941 C 0.67734 0.2128 0.13134 0.0
H942 H 0.66573 0.26697 0.20654 0.0
H943 H 0.66337 0.29577 0.18978 0.0
H944 H 0.65816 0.3137 0.12747 0.0
H945 H 0.65718 0.29819 0.09787 0.0
H946 H 0.67165 0.2343 0.07912 0.0
H947 H 0.68063 0.20737 0.09628 0.0
H948 H 0.67833 0.18826 0.15735 0.0
H949 H 0.67173 0.20203 0.1868 0.0
H950 H 0.61794 0.21674 0.13161 0.0
H951 H 0.61008 0.26744 0.14922 0.0
H952 H 0.71739 0.25139 0.1754 0.0
H953 H 0.71278 0.28893 0.13672 0.0
C954 C 0.2509 0.18297 0.65445 0.0
C955 C 0.26146 0.19588 0.6531 0.0
C956 C 0.27593 0.18847 0.65137 0.0
C957 C 0.27342 0.1715 0.65175 0.0
N958 N 0.25821 0.16763 0.65316 0.0
Co959 Co 0.2502 0.14446 0.65692 0.0
N960 N 0.27082 0.13336 0.6515 0.0
C961 C 0.28443 0.14129 0.64956 0.0
C962 C 0.29658 0.13064 0.64526 0.0
C963 C 0.2903 0.11494 0.64454 0.0
C964 C 0.27463 0.11683 0.64864 0.0
N965 N 0.24234 0.12147 0.66163 0.0
C966 C 0.24898 0.10601 0.65912 0.0
C967 C 0.23976 0.09345 0.6657 0.0
C968 C 0.22677 0.10121 0.67215 0.0
C969 C 0.22883 0.118 0.66939 0.0
N970 N 0.22923 0.15522 0.66144 0.0
C971 C 0.21664 0.14739 0.66749 0.0
C972 C 0.2037 0.15767 0.66912 0.0
C973 C 0.20843 0.17315 0.66418 0.0
C974 C 0.2241 0.17146 0.65988 0.0
N975 N 0.24445 0.14244 0.63285 0.0
C976 C 0.23757 0.14011 0.59806 0.0
C977 C 0.22737 0.13367 0.61016 0.0
C978 C 0.23097 0.13505 0.62746 0.0
C979 C 0.25129 0.14748 0.60388 0.0
C980 C 0.25448 0.14846 0.62107 0.0
N981 N 0.25669 0.14706 0.68085 0.0
C982 C 0.25969 0.16716 0.7034 0.0
C983 C 0.27429 0.16017 0.70781 0.0
C984 C 0.27858 0.14481 0.70019 0.0
C985 C 0.26937 0.13824 0.68711 0.0
C986 C 0.25113 0.16046 0.69005 0.0
H987 H 0.27328 0.12666 0.68134 0.0
H988 H 0.24057 0.16705 0.68669 0.0
H989 H 0.22286 0.13016 0.63643 0.0
H990 H 0.26527 0.15408 0.62469 0.0
C991 C 0.28495 0.15884 0.65033 0.0
C992 C 0.23429 0.18598 0.6583 0.0
C993 C 0.26402 0.1026 0.65089 0.0
C994 C 0.2174 0.13044 0.67164 0.0
H995 H 0.25898 0.20926 0.6538 0.0
H996 H 0.28699 0.19472 0.65021 0.0
H997 H 0.30853 0.13393 0.64259 0.0
H998 H 0.2966 0.10341 0.64151 0.0
H999 H 0.24209 0.08004 0.6658 0.0
H1000 H 0.21677 0.09527 0.67769 0.0
H1001 H 0.19232 0.1544 0.67384 0.0
H1002 H 0.20139 0.18459 0.66477 0.0
H1003 H 0.21658 0.12785 0.60634 0.0
H1004 H 0.25977 0.1523 0.59516 0.0
H1005 H 0.25515 0.1783 0.70968 0.0
H1006 H 0.28942 0.13836 0.7035 0.0
C1007 C 0.37441 0.76421 0.17616 0.0
C1008 C 0.37998 0.75336 0.1885 0.0
C1009 C 0.38956 0.74174 0.18054 0.0
C1010 C 0.38931 0.74612 0.16381 0.0
N1011 N 0.38022 0.75976 0.16087 0.0
Co1012 Co 0.37538 0.76959 0.13849 0.0
N1013 N 0.38248 0.749 0.1262 0.0
C1014 C 0.39168 0.73673 0.13285 0.0
C1015 C 0.39545 0.72437 0.1214 0.0
C1016 C 0.38843 0.72932 0.10659 0.0
C1017 C 0.38075 0.74452 0.10975 0.0
N1018 N 0.37008 0.77966 0.11624 0.0
C1019 C 0.36896 0.77254 0.10073 0.0
C1020 C 0.36578 0.78471 0.08859 0.0
C1021 C 0.36516 0.79988 0.09669 0.0
C1022 C 0.36796 0.79624 0.11327 0.0
N1023 N 0.36888 0.79041 0.15053 0.0
C1024 C 0.36761 0.80589 0.14387 0.0
C1025 C 0.36288 0.81787 0.15533 0.0
C1026 C 0.36099 0.80933 0.1701 0.0
C1027 C 0.36466 0.79259 0.16674 0.0
N1028 N 0.39702 0.77798 0.13703 0.0
C1029 C 0.42967 0.78358 0.137 0.0
C1030 C 0.4217 0.77875 0.12231 0.0
C1031 C 0.4055 0.77611 0.12257 0.0
C1032 C 0.4206 0.78653 0.15142 0.0
C1033 C 0.40441 0.78378 0.15115 0.0
N1034 N 0.35409 0.7605 0.14078 0.0
C1035 C 0.3271 0.76457 0.14924 0.0
C1036 C 0.32612 0.74756 0.15389 0.0
C1037 C 0.33908 0.73709 0.15067 0.0
C1038 C 0.35279 0.74372 0.14426 0.0
C1039 C 0.34108 0.77071 0.1424 0.0
H1040 H 0.36266 0.73525 0.14341 0.0
H1041 H 0.34161 0.7839 0.13935 0.0
H1042 H 0.40002 0.7718 0.11117 0.0
H1043 H 0.39798 0.78572 0.16264 0.0
C1044 C 0.39469 0.73622 0.15028 0.0
C1045 C 0.36422 0.7791 0.17917 0.0
C1046 C 0.37306 0.75494 0.09658 0.0
C1047 C 0.36754 0.80788 0.12646 0.0
H1048 H 0.37731 0.75374 0.20177 0.0
H1049 H 0.39534 0.73089 0.18617 0.0
H1050 H 0.4022 0.71294 0.12362 0.0
H1051 H 0.38909 0.72261 0.09476 0.0
H1052 H 0.36467 0.78296 0.07515 0.0
H1053 H 0.36295 0.81211 0.09113 0.0
H1054 H 0.3602 0.83102 0.153 0.0
H1055 H 0.35711 0.81473 0.18189 0.0
H1056 H 0.42799 0.77626 0.11078 0.0
H1057 H 0.42597 0.79074 0.163 0.0
H1058 H 0.31729 0.77314 0.15122 0.0
H1059 H 0.33905 0.72392 0.15409 0.0
C1060 C 0.75547 0.16569 0.34135 0.0
C1061 C 0.76689 0.16427 0.32912 0.0
C1062 C 0.78099 0.16359 0.33735 0.0
C1063 C 0.77743 0.1646 0.35412 0.0
N1064 N 0.76193 0.16548 0.35707 0.0
Co1065 Co 0.75231 0.16952 0.37961 0.0
N1066 N 0.77246 0.16513 0.39199 0.0
C1067 C 0.7867 0.16413 0.38493 0.0
C1068 C 0.79849 0.16114 0.3964 0.0
C1069 C 0.79127 0.16029 0.41171 0.0
C1070 C 0.77542 0.16284 0.40874 0.0
N1071 N 0.74273 0.17413 0.40208 0.0
C1072 C 0.7483 0.17138 0.41792 0.0
C1073 C 0.73761 0.1768 0.42994 0.0
C1074 C 0.72492 0.18312 0.42142 0.0
C1075 C 0.72854 0.18124 0.40475 0.0
N1076 N 0.73187 0.17339 0.3676 0.0
C1077 C 0.71863 0.17961 0.37453 0.0
C1078 C 0.70629 0.18077 0.36353 0.0
C1079 C 0.7121 0.1753 0.34851 0.0
C1080 C 0.72777 0.17115 0.35119 0.0
N1081 N 0.74764 0.14529 0.38148 0.0
C1082 C 0.74191 0.11033 0.38256 0.0
C1083 C 0.73016 0.12226 0.38665 0.0
C1084 C 0.73329 0.13963 0.38618 0.0
C1085 C 0.75651 0.11643 0.37796 0.0
C1086 C 0.75907 0.13372 0.37744 0.0
N1087 N 0.75774 0.19364 0.37702 0.0
C1088 C 0.7614 0.216 0.35692 0.0
C1089 C 0.77414 0.2221 0.36602 0.0
C1090 C 0.77727 0.21481 0.3818 0.0
C1091 C 0.76867 0.20092 0.38724 0.0
C1092 C 0.75338 0.202 0.36264 0.0
H1093 H 0.77163 0.19551 0.39928 0.0
H1094 H 0.74443 0.19742 0.35454 0.0
H1095 H 0.72408 0.14842 0.38954 0.0
H1096 H 0.77041 0.13762 0.37355 0.0
C1097 C 0.78824 0.16437 0.36743 0.0
C1098 C 0.73882 0.16873 0.33731 0.0
C1099 C 0.76374 0.16427 0.42225 0.0
C1100 C 0.71802 0.18355 0.39154 0.0
H1101 H 0.7652 0.16427 0.31562 0.0
H1102 H 0.79247 0.16271 0.33176 0.0
H1103 H 0.81085 0.15946 0.39391 0.0
H1104 H 0.797 0.15826 0.42371 0.0
H1105 H 0.73882 0.17617 0.44347 0.0
H1106 H 0.7141 0.18789 0.42674 0.0
H1107 H 0.69452 0.18529 0.36607 0.0
H1108 H 0.70572 0.17528 0.33673 0.0
H1109 H 0.71868 0.11822 0.39038 0.0
H1110 H 0.76593 0.10787 0.37441 0.0
H1111 H 0.75824 0.22123 0.34479 0.0
H1112 H 0.78659 0.21948 0.38968 0.0
C1113 C 0.35572 0.2722 0.87125 0.0
C1114 C 0.34428 0.26227 0.87807 0.0
C1115 C 0.35182 0.25106 0.88868 0.0
C1116 C 0.36743 0.25474 0.88775 0.0
N1117 N 0.37011 0.26753 0.87724 0.0
Co1118 Co 0.39098 0.27636 0.87158 0.0
N1119 N 0.40236 0.25601 0.88028 0.0
C1120 C 0.39615 0.24462 0.89069 0.0
C1121 C 0.40668 0.23217 0.89526 0.0
C1122 C 0.42042 0.23613 0.88752 0.0
C1123 C 0.4176 0.25091 0.87867 0.0
N1124 N 0.41175 0.2854 0.86553 0.0
C1125 C 0.42616 0.27785 0.86492 0.0
C1126 C 0.43752 0.28948 0.86109 0.0
C1127 C 0.43005 0.30474 0.85946 0.0
C1128 C 0.41461 0.3017 0.86239 0.0
N1129 N 0.37983 0.29694 0.86338 0.0
C1130 C 0.38621 0.31206 0.86105 0.0
C1131 C 0.37566 0.32398 0.85531 0.0
C1132 C 0.36176 0.31584 0.85392 0.0
C1133 C 0.36466 0.29934 0.85887 0.0
N1134 N 0.39255 0.28635 0.8943 0.0
C1135 C 0.39217 0.29243 0.92935 0.0
C1136 C 0.40586 0.28687 0.92118 0.0
C1137 C 0.40585 0.28413 0.90376 0.0
C1138 C 0.37908 0.29624 0.91916 0.0
C1139 C 0.37952 0.29316 0.90179 0.0
N1140 N 0.38872 0.2657 0.84928 0.0
C1141 C 0.38146 0.26773 0.81989 0.0
C1142 C 0.37691 0.25082 0.8197 0.0
C1143 C 0.3794 0.24141 0.83431 0.0
C1144 C 0.38519 0.24899 0.84878 0.0
C1145 C 0.38761 0.27485 0.83474 0.0
H1146 H 0.38563 0.24139 0.85988 0.0
H1147 H 0.39066 0.28795 0.83467 0.0
H1148 H 0.41642 0.27921 0.89817 0.0
H1149 H 0.36899 0.29547 0.89456 0.0
C1150 C 0.38 0.24488 0.89397 0.0
C1151 C 0.35267 0.28649 0.85977 0.0
C1152 C 0.42993 0.26045 0.87013 0.0
C1153 C 0.40241 0.31356 0.86105 0.0
H1154 H 0.33183 0.263 0.87559 0.0
H1155 H 0.34659 0.24096 0.89563 0.0
H1156 H 0.40455 0.22129 0.903 0.0
H1157 H 0.43133 0.22908 0.88851 0.0
H1158 H 0.45001 0.28737 0.86022 0.0
H1159 H 0.43528 0.31665 0.85651 0.0
H1160 H 0.37795 0.33681 0.85173 0.0
H1161 H 0.35079 0.32137 0.84963 0.0
H1162 H 0.41637 0.28374 0.92823 0.0
H1163 H 0.36835 0.30115 0.92458 0.0
H1164 H 0.37997 0.27549 0.80881 0.0
H1165 H 0.37593 0.22841 0.83501 0.0
C1166 C 0.26037 0.83291 0.36438 0.0
C1167 C 0.27243 0.82104 0.36369 0.0
C1168 C 0.28601 0.82954 0.36606 0.0
C1169 C 0.28151 0.84608 0.36801 0.0
N1170 N 0.26589 0.84864 0.36751 0.0
Co1171 Co 0.25499 0.87123 0.36651 0.0
N1172 N 0.27482 0.88392 0.37036 0.0
C1173 C 0.28931 0.87697 0.37117 0.0
C1174 C 0.30082 0.88852 0.37343 0.0
C1175 C 0.29323 0.90382 0.37392 0.0
C1176 C 0.27741 0.90078 0.37197 0.0
N1177 N 0.244 0.89371 0.36458 0.0
C1178 C 0.2493 0.90965 0.36648 0.0
C1179 C 0.2372 0.92148 0.36489 0.0
C1180 C 0.22401 0.91286 0.36133 0.0
C1181 C 0.22865 0.8963 0.3612 0.0
N1182 N 0.23489 0.85879 0.36376 0.0
C1183 C 0.22052 0.8657 0.36157 0.0
C1184 C 0.20882 0.85423 0.3606 0.0
C1185 C 0.21622 0.83894 0.36179 0.0
C1186 C 0.23208 0.84202 0.36328 0.0
N1187 N 0.25187 0.87118 0.39144 0.0
C1188 C 0.24858 0.87104 0.4271 0.0
C1189 C 0.23618 0.8761 0.41646 0.0
C1190 C 0.23808 0.87621 0.39883 0.0
C1191 C 0.26255 0.86593 0.41936 0.0
C1192 C 0.26389 0.86599 0.40179 0.0
N1193 N 0.25893 0.87063 0.34163 0.0
C1194 C 0.25876 0.85257 0.31702 0.0
C1195 C 0.27329 0.85841 0.3118 0.0
C1196 C 0.27912 0.8724 0.32042 0.0
C1197 C 0.27155 0.87856 0.3349 0.0
C1198 C 0.2517 0.85902 0.33162 0.0
H1199 H 0.27662 0.88926 0.34091 0.0
H1200 H 0.24068 0.85392 0.33488 0.0
H1201 H 0.22832 0.88045 0.39134 0.0
H1202 H 0.27485 0.86178 0.39675 0.0
C1203 C 0.2916 0.8596 0.36955 0.0
C1204 C 0.24401 0.82888 0.36071 0.0
C1205 C 0.26557 0.91435 0.36968 0.0
C1206 C 0.2185 0.88296 0.35995 0.0
H1207 H 0.27153 0.80773 0.36114 0.0
H1208 H 0.29779 0.82435 0.36578 0.0
H1209 H 0.3133 0.88615 0.37428 0.0
H1210 H 0.29878 0.91587 0.37494 0.0
H1211 H 0.23773 0.93497 0.36639 0.0
H1212 H 0.2123 0.91802 0.35967 0.0
H1213 H 0.19646 0.85667 0.35865 0.0
H1214 H 0.21071 0.82686 0.36061 0.0
H1215 H 0.22511 0.88028 0.42171 0.0
H1216 H 0.27246 0.86163 0.42684 0.0
H1217 H 0.25298 0.84271 0.31012 0.0
H1218 H 0.28991 0.87811 0.31663 0.0
C1219 C 0.65595 0.76154 0.83943 0.0
C1220 C 0.65083 0.75072 0.82699 0.0
C1221 C 0.64179 0.73897 0.83485 0.0
C1222 C 0.64187 0.74325 0.85163 0.0
N1223 N 0.65036 0.75694 0.8547 0.0
Co1224 Co 0.65454 0.76682 0.87715 0.0
N1225 N 0.64828 0.74618 0.8893 0.0
C1226 C 0.63967 0.73384 0.88253 0.0
C1227 C 0.63631 0.72151 0.89393 0.0
C1228 C 0.64296 0.72654 0.90884 0.0
C1229 C 0.65005 0.74175 0.90577 0.0
N1230 N 0.65914 0.77697 0.8995 0.0
C1231 C 0.66049 0.76988 0.91498 0.0
C1232 C 0.66304 0.78207 0.9272 0.0
C1233 C 0.66301 0.79724 0.91917 0.0
C1234 C 0.66047 0.79356 0.90257 0.0
N1235 N 0.66025 0.78769 0.86529 0.0
C1236 C 0.66077 0.80318 0.87204 0.0
C1237 C 0.66507 0.81521 0.86073 0.0
C1238 C 0.66745 0.80674 0.84593 0.0
C1239 C 0.66447 0.78995 0.84912 0.0
N1240 N 0.63242 0.77497 0.87839 0.0
C1241 C 0.59938 0.77981 0.87803 0.0
C1242 C 0.60751 0.77523 0.8928 0.0
C1243 C 0.62388 0.77296 0.89273 0.0
C1244 C 0.60846 0.78292 0.86373 0.0
C1245 C 0.62482 0.78056 0.86419 0.0
N1246 N 0.67631 0.75787 0.87514 0.0
C1247 C 0.70373 0.76172 0.86879 0.0
C1248 C 0.70568 0.74461 0.86442 0.0
C1249 C 0.69273 0.73434 0.86632 0.0
C1250 C 0.67837 0.74111 0.87154 0.0
C1251 C 0.68904 0.76803 0.87435 0.0
H1252 H 0.66872 0.73272 0.8716 0.0
H1253 H 0.68785 0.78124 0.87732 0.0
H1254 H 0.62948 0.76882 0.9042 0.0
H1255 H 0.63126 0.78262 0.85278 0.0
C1256 C 0.63681 0.73331 0.86507 0.0
C1257 C 0.66542 0.77656 0.83653 0.0
C1258 C 0.6572 0.75225 0.91901 0.0
C1259 C 0.66053 0.80519 0.88945 0.0
H1260 H 0.65343 0.75123 0.81372 0.0
H1261 H 0.63644 0.72814 0.8291 0.0
H1262 H 0.63003 0.71004 0.89163 0.0
H1263 H 0.64244 0.71991 0.92067 0.0
H1264 H 0.66418 0.78033 0.94063 0.0
H1265 H 0.66465 0.80948 0.9248 0.0
H1266 H 0.66713 0.82838 0.86316 0.0
H1267 H 0.67116 0.81223 0.83422 0.0
H1268 H 0.60126 0.77264 0.90426 0.0
H1269 H 0.60298 0.78695 0.85208 0.0
H1270 H 0.7134 0.77021 0.86775 0.0
H1271 H 0.69338 0.72115 0.86293 0.0
H1272 H 0.13783 0.58203 0.26348 0.0
H1273 H 0.13694 0.5512 0.26177 0.0
H1274 H 0.1851 0.54952 0.24611 0.0
H1275 H 0.18605 0.58031 0.24837 0.0
H1276 H 0.14067 0.52763 0.23817 0.0
H1277 H 0.18804 0.51819 0.28507 0.0
H1278 H 0.17936 0.53861 0.2809 0.0
H1279 H 0.19419 0.52999 0.26721 0.0
C1280 C 0.14812 0.57506 0.25938 0.0
C1281 C 0.16196 0.58362 0.25588 0.0
C1282 C 0.14766 0.55739 0.25849 0.0
C1283 C 0.16105 0.54775 0.25418 0.0
C1284 C 0.17469 0.55643 0.24994 0.0
H1285 H 0.18176 0.43876 0.24904 0.0
H1286 H 0.18182 0.46951 0.24553 0.0
C1287 C 0.17518 0.5741 0.25096 0.0
C1288 C 0.16079 0.52874 0.25448 0.0
H1289 H 0.1793 0.49377 0.27102 0.0
C1290 C 0.14912 0.52029 0.24541 0.0
C1291 C 0.1717 0.51888 0.26396 0.0
C1292 C 0.18393 0.52686 0.27498 0.0
C1293 C 0.14824 0.50253 0.24533 0.0
C1294 C 0.15923 0.49272 0.2547 0.0
C1295 C 0.17091 0.50114 0.26372 0.0
C1296 C 0.15866 0.47379 0.25564 0.0
C1297 C 0.13568 0.49439 0.23493 0.0
C1298 C 0.14563 0.46571 0.26241 0.0
C1299 C 0.1456 0.44811 0.2644 0.0
C1300 C 0.15856 0.4381 0.25957 0.0
C1301 C 0.17148 0.4461 0.25254 0.0
C1302 C 0.17156 0.46371 0.25066 0.0
H1303 H 0.13093 0.50305 0.22513 0.0
H1304 H 0.14022 0.48277 0.22873 0.0
H1305 H 0.12591 0.4909 0.24324 0.0
H1306 H 0.13565 0.47306 0.26673 0.0
H1307 H 0.13564 0.44235 0.27022 0.0
H1308 H 0.93919 0.62953 0.77467 0.0
H1309 H 0.9676 0.62752 0.77155 0.0
H1310 H 0.96487 0.66311 0.73078 0.0
H1311 H 0.93661 0.66619 0.73496 0.0
H1312 H 0.98777 0.6179 0.75121 0.0
H1313 H 0.99707 0.68619 0.75603 0.0
H1314 H 0.97817 0.67726 0.75918 0.0
H1315 H 0.98506 0.68142 0.73823 0.0
C1316 C 0.94464 0.63682 0.76493 0.0
C1317 C 0.93548 0.64794 0.75502 0.0
C1318 C 0.961 0.63571 0.76314 0.0
C1319 C 0.96882 0.64552 0.75122 0.0
C1320 C 0.9595 0.65585 0.74057 0.0
H1321 H 0.06886 0.62128 0.72974 0.0
H1322 H 0.04023 0.62255 0.72947 0.0
C1323 C 0.94316 0.65729 0.74266 0.0
C1324 C 0.98656 0.64494 0.75017 0.0
H1325 H 0.01903 0.66949 0.74782 0.0
C1326 C 0.99454 0.62925 0.75056 0.0
C1327 C 0.99578 0.65962 0.74968 0.0
C1328 C 0.98859 0.67705 0.75095 0.0
C1329 C 1.01107 0.62782 0.75045 0.0
C1330 C 0.02026 0.64246 0.74904 0.0
C1331 C 1.01228 0.65814 0.74868 0.0
C1332 C 0.03803 0.64195 0.74855 0.0
C1333 C 0.01839 0.61054 0.75261 0.0
C1334 C 0.04683 0.65301 0.75857 0.0
C1335 C 0.0633 0.65272 0.75822 0.0
C1336 C 0.07161 0.64117 0.74804 0.0
C1337 C 0.0629 0.63019 0.73791 0.0
C1338 C 0.04641 0.63079 0.73792 0.0
H1339 H 1.01041 0.60197 0.75925 0.0
H1340 H 0.02077 0.60498 0.74007 0.0
H1341 H 0.02951 0.61101 0.75983 0.0
H1342 H 0.04096 0.66184 0.76691 0.0
H1343 H 0.06956 0.66133 0.76625 0.0
H1344 H 0.85539 0.44345 0.24624 0.0
H1345 H 0.85522 0.47404 0.24191 0.0
H1346 H 0.90547 0.47376 0.24623 0.0
H1347 H 0.90559 0.4432 0.25045 0.0
H1348 H 0.86534 0.4973 0.26462 0.0
H1349 H 0.89885 0.50418 0.20579 0.0
H1350 H 0.89094 0.48437 0.21226 0.0
H1351 H 0.90881 0.4917 0.22145 0.0
C1352 C 0.86641 0.44988 0.2457 0.0
C1353 C 0.88052 0.44086 0.24826 0.0
C1354 C 0.86632 0.4674 0.24337 0.0
C1355 C 0.88035 0.47635 0.2435 0.0
C1356 C 0.8945 0.46724 0.24563 0.0
H1357 H 0.90473 0.58256 0.24857 0.0
H1358 H 0.90467 0.55179 0.24555 0.0
C1359 C 0.89458 0.44972 0.24799 0.0
C1360 C 0.88004 0.49525 0.24285 0.0
H1361 H 0.89422 0.52919 0.22173 0.0
C1362 C 0.87154 0.50424 0.25512 0.0
C1363 C 0.88823 0.50446 0.23059 0.0
C1364 C 0.89711 0.49571 0.21668 0.0
C1365 C 0.87127 0.52197 0.25572 0.0
C1366 C 0.87942 0.53121 0.24344 0.0
C1367 C 0.88791 0.52224 0.23113 0.0
C1368 C 0.87952 0.55012 0.24347 0.0
C1369 C 0.86266 0.53062 0.26991 0.0
C1370 C 0.86549 0.55966 0.24269 0.0
C1371 C 0.86554 0.57725 0.24436 0.0
C1372 C 0.87963 0.58578 0.24656 0.0
C1373 C 0.89372 0.57636 0.24656 0.0
C1374 C 0.89367 0.55874 0.24494 0.0
H1375 H 0.86081 0.52199 0.28064 0.0
H1376 H 0.86911 0.5417 0.27454 0.0
H1377 H 0.85101 0.53502 0.26534 0.0
H1378 H 0.85442 0.55345 0.24121 0.0
H1379 H 0.85451 0.58417 0.24454 0.0
H1380 H 0.08661 0.38279 0.7737 0.0
H1381 H 0.05824 0.38239 0.77154 0.0
H1382 H 0.06157 0.37418 0.71814 0.0
H1383 H 0.09012 0.37357 0.72033 0.0
H1384 H 0.03724 0.40124 0.75679 0.0
H1385 H 0.0321 0.33771 0.72907 0.0
H1386 H 0.05037 0.34541 0.73709 0.0
H1387 H 0.04356 0.3514 0.71646 0.0
C1388 C 0.08144 0.38057 0.76147 0.0
C1389 C 0.09099 0.37789 0.74725 0.0
C1390 C 0.06504 0.38052 0.76023 0.0
C1391 C 0.05747 0.37787 0.74473 0.0
C1392 C 0.06691 0.37576 0.73038 0.0
H1393 H 0.95655 0.40166 0.7321 0.0
H1394 H 0.98511 0.40196 0.73153 0.0
C1395 C 0.08338 0.37568 0.73162 0.0
C1396 C 0.03981 0.37761 0.74376 0.0
H1397 H 1.00874 0.35426 0.73048 0.0
C1398 C 0.03106 0.39092 0.75101 0.0
C1399 C 0.03148 0.36409 0.73652 0.0
C1400 C 0.03983 0.34876 0.7295 0.0
C1401 C 1.01453 0.39116 0.75117 0.0
C1402 C 1.0062 0.37793 0.74341 0.0
C1403 C 1.01493 0.36455 0.73626 0.0
C1404 C 0.98853 0.3775 0.74301 0.0
C1405 C 1.00622 0.4054 0.76022 0.0
C1406 C 0.98056 0.36337 0.74891 0.0
C1407 C 0.9641 0.36307 0.74902 0.0
C1408 C 0.95501 0.37691 0.74325 0.0
C1409 C 0.96301 0.39087 0.73696 0.0
C1410 C 0.97947 0.3911 0.73671 0.0
H1411 H 1.01394 0.41138 0.76968 0.0
H1412 H 1.00264 0.41519 0.75098 0.0
H1413 H 0.99561 0.40099 0.76669 0.0
H1414 H 0.9871 0.35263 0.75379 0.0
H1415 H 0.9585 0.35212 0.7541 0.0
H1416 H 0.18132 0.43728 0.78146 0.0
H1417 H 0.17884 0.46791 0.7845 0.0
H1418 H 0.12965 0.46541 0.77293 0.0
H1419 H 0.13235 0.43477 0.76934 0.0
H1420 H 0.14166 0.48959 0.75541 0.0
H1421 H 0.16318 0.49841 0.82037 0.0
H1422 H 0.17724 0.48735 0.80768 0.0
H1423 H 0.15873 0.47794 0.81206 0.0
C1424 C 0.16989 0.44325 0.78007 0.0
C1425 C 0.15695 0.43354 0.77556 0.0
C1426 C 0.16845 0.46084 0.78182 0.0
C1427 C 0.15396 0.46926 0.77929 0.0
C1428 C 0.14096 0.45943 0.7751 0.0
H1429 H 0.1234 0.57618 0.77555 0.0
H1430 H 0.12442 0.54537 0.7782 0.0
C1431 C 0.14244 0.44184 0.77322 0.0
C1432 C 0.15259 0.48827 0.77983 0.0
H1433 H 0.16144 0.52315 0.80333 0.0
C1434 C 0.14585 0.49684 0.76602 0.0
C1435 C 0.15806 0.49804 0.79356 0.0
C1436 C 0.16456 0.48996 0.80932 0.0
C1437 C 0.14477 0.5146 0.76538 0.0
C1438 C 0.15042 0.52434 0.779 0.0
C1439 C 0.15711 0.51583 0.79284 0.0
C1440 C 0.14967 0.54331 0.77889 0.0
C1441 C 0.13794 0.52284 0.74986 0.0
C1442 C 0.16345 0.55269 0.77901 0.0
C1443 C 0.16285 0.57035 0.77759 0.0
C1444 C 0.14846 0.57915 0.77633 0.0
C1445 C 0.13466 0.56983 0.77682 0.0
C1446 C 0.13526 0.55216 0.77812 0.0
H1447 H 0.13746 0.51397 0.73907 0.0
H1448 H 0.12584 0.52731 0.75253 0.0
H1449 H 0.14487 0.53387 0.74616 0.0
H1450 H 0.17474 0.5463 0.77958 0.0
H1451 H 0.17368 0.57713 0.77692 0.0
H1452 H 0.95602 0.61892 0.29329 0.0
H1453 H 0.98457 0.61904 0.29526 0.0
H1454 H 0.98461 0.66934 0.27531 0.0
H1455 H 0.95611 0.66932 0.27323 0.0
H1456 H 1.0067 0.62208 0.27113 0.0
H1457 H 1.01243 0.67498 0.31593 0.0
H1458 H 0.99401 0.66505 0.31188 0.0
H1459 H 1.00125 0.68046 0.29753 0.0
C1460 C 0.96204 0.63004 0.28929 0.0
C1461 C 0.95353 0.64416 0.28319 0.0
C1462 C 0.97846 0.63011 0.29049 0.0
C1463 C 0.98692 0.6443 0.28572 0.0
C1464 C 0.97848 0.65837 0.27954 0.0
H1465 H 0.08606 0.66828 0.27765 0.0
H1466 H 0.05748 0.66831 0.27758 0.0
C1467 C 0.96207 0.65833 0.27836 0.0
C1468 C 1.00451 0.64416 0.28668 0.0
H1469 H 0.03581 0.66531 0.30273 0.0
C1470 C 1.01303 0.63148 0.27815 0.0
C1471 C 1.01296 0.65641 0.29578 0.0
C1472 C 1.00471 0.6699 0.30594 0.0
C1473 C 0.02955 0.63094 0.27814 0.0
C1474 C 0.03799 0.64323 0.2872 0.0
C1475 C 0.02948 0.65588 0.29576 0.0
C1476 C 0.05558 0.64327 0.28779 0.0
C1477 C 0.0378 0.61746 0.26799 0.0
C1478 C 0.06428 0.62935 0.29391 0.0
C1479 C 0.08073 0.62932 0.29407 0.0
C1480 C 0.08903 0.64327 0.28822 0.0
C1481 C 0.08025 0.65735 0.28247 0.0
C1482 C 0.0638 0.65736 0.28232 0.0
H1483 H 0.02999 0.61206 0.25825 0.0
H1484 H 0.04829 0.62245 0.26171 0.0
H1485 H 0.04164 0.6071 0.27647 0.0
H1486 H 0.05834 0.61847 0.29865 0.0
H1487 H 0.08692 0.61835 0.29891 0.0
H1488 H 0.90309 0.57785 0.79995 0.0
H1489 H 0.90398 0.54697 0.80166 0.0
H1490 H 0.86194 0.54467 0.77185 0.0
H1491 H 0.86058 0.57528 0.77055 0.0
H1492 H 0.87781 0.52241 0.81257 0.0
H1493 H 0.89756 0.51568 0.74643 0.0
H1494 H 0.90033 0.53469 0.75847 0.0
H1495 H 0.88138 0.52999 0.75016 0.0
C1496 C 0.89387 0.57084 0.79397 0.0
C1497 C 0.8819 0.57931 0.78488 0.0
C1498 C 0.89445 0.55311 0.7949 0.0
C1499 C 0.88314 0.54339 0.78668 0.0
C1500 C 0.87094 0.55179 0.77809 0.0
H1501 H 0.85781 0.43746 0.78664 0.0
H1502 H 0.85901 0.46805 0.791 0.0
C1503 C 0.87027 0.56942 0.77727 0.0
C1504 C 0.88417 0.52452 0.78657 0.0
H1505 H 0.89068 0.49078 0.76049 0.0
C1506 C 0.88071 0.51549 0.80121 0.0
C1507 C 0.88801 0.51539 0.7718 0.0
C1508 C 0.89215 0.52435 0.7558 0.0
C1509 C 0.88066 0.4977 0.80135 0.0
C1510 C 0.88412 0.48858 0.78644 0.0
C1511 C 0.88795 0.49764 0.77193 0.0
C1512 C 0.88367 0.46969 0.78549 0.0
C1513 C 0.87701 0.48878 0.8175 0.0
C1514 C 0.89709 0.46022 0.78099 0.0
C1515 C 0.89642 0.44271 0.77869 0.0
C1516 C 0.8823 0.43422 0.78069 0.0
C1517 C 0.86893 0.4436 0.78544 0.0
C1518 C 0.86962 0.46111 0.78789 0.0
H1519 H 0.87839 0.49713 0.8286 0.0
H1520 H 0.86472 0.4846 0.81708 0.0
H1521 H 0.88469 0.47747 0.81916 0.0
H1522 H 0.90804 0.46645 0.77891 0.0
H1523 H 0.90681 0.43587 0.77464 0.0
H1524 H 0.95615 0.40814 0.29978 0.0
H1525 H 0.98474 0.4079 0.30062 0.0
H1526 H 0.98584 0.35865 0.27791 0.0
H1527 H 0.95724 0.35868 0.27736 0.0
H1528 H 1.00746 0.35982 0.30156 0.0
H1529 H 1.01342 0.4168 0.26259 0.0
H1530 H 1.00229 0.42079 0.28124 0.0
H1531 H 0.99493 0.40675 0.26539 0.0
C1532 C 0.96245 0.39726 0.2949 0.0
C1533 C 0.95424 0.38346 0.28842 0.0
C1534 C 0.97889 0.39717 0.29531 0.0
C1535 C 0.98768 0.38343 0.28895 0.0
C1536 C 0.97949 0.36948 0.28285 0.0
H1537 H 0.08534 0.38625 0.25849 0.0
H1538 H 0.05698 0.38649 0.26059 0.0
C1539 C 0.96305 0.36948 0.2826 0.0
C1540 C 1.0053 0.38352 0.28867 0.0
H1541 H 0.03663 0.40607 0.27543 0.0
C1542 C 1.01381 0.36995 0.29581 0.0
C1543 C 1.01379 0.39655 0.28097 0.0
C1544 C 1.00566 0.41095 0.27196 0.0
C1545 C 0.03033 0.36909 0.29557 0.0
C1546 C 0.03882 0.3824 0.28837 0.0
C1547 C 0.0303 0.39592 0.28116 0.0
C1548 C 0.05643 0.38223 0.28741 0.0
C1549 C 0.03845 0.35358 0.30254 0.0
C1550 C 0.06593 0.38002 0.3018 0.0
C1551 C 0.08237 0.37955 0.3006 0.0
C1552 C 0.08984 0.38148 0.28498 0.0
C1553 C 0.08024 0.38424 0.27071 0.0
C1554 C 0.06387 0.38457 0.27191 0.0
H1555 H 0.03049 0.34273 0.30294 0.0
H1556 H 0.04882 0.34997 0.29494 0.0
H1557 H 0.04238 0.35615 0.31559 0.0
H1558 H 0.06067 0.37867 0.31404 0.0
H1559 H 0.08918 0.37737 0.31191 0.0
H1560 H 0.22571 0.11384 0.5793 0.0
H1561 H 0.22331 0.11191 0.54853 0.0
H1562 H 0.23968 0.16255 0.54399 0.0
H1563 H 0.2421 0.16457 0.57449 0.0
H1564 H 0.20678 0.13071 0.52399 0.0
H1565 H 0.27049 0.13648 0.51459 0.0
H1566 H 0.26216 0.13242 0.53492 0.0
H1567 H 0.26216 0.15346 0.52666 0.0
C1568 C 0.22862 0.12464 0.57176 0.0
C1569 C 0.23435 0.13927 0.57947 0.0
C1570 C 0.22731 0.12349 0.55413 0.0
C1571 C 0.23171 0.13693 0.5438 0.0
C1572 C 0.23666 0.1518 0.55154 0.0
H1573 H 0.23956 0.16021 0.43774 0.0
H1574 H 0.23839 0.16001 0.46838 0.0
C1575 C 0.23801 0.15294 0.56907 0.0
C1576 C 0.23142 0.13548 0.52498 0.0
H1577 H 0.25446 0.1392 0.49018 0.0
C1578 C 0.21723 0.13242 0.51661 0.0
C1579 C 0.24505 0.13765 0.51522 0.0
C1580 C 0.26086 0.14002 0.52329 0.0
C1581 C 0.21621 0.13209 0.49887 0.0
C1582 C 0.22978 0.13462 0.48913 0.0
C1583 C 0.244 0.13737 0.49753 0.0
C1584 C 0.22955 0.13482 0.47025 0.0
C1585 C 0.20047 0.12959 0.49071 0.0
C1586 C 0.22498 0.12072 0.46085 0.0
C1587 C 0.22553 0.12082 0.44317 0.0
C1588 C 0.23072 0.13503 0.43438 0.0
C1589 C 0.23519 0.14914 0.44389 0.0
C1590 C 0.23467 0.149 0.46152 0.0
H1591 H 0.19074 0.1321 0.49961 0.0
H1592 H 0.19888 0.13793 0.47963 0.0
H1593 H 0.19967 0.11638 0.48635 0.0
H1594 H 0.22126 0.10947 0.46718 0.0
H1595 H 0.22193 0.10972 0.43641 0.0
H1596 H 0.3972 0.74842 0.93486 0.0
H1597 H 0.39793 0.74568 0.96562 0.0
H1598 H 0.34763 0.74401 0.96634 0.0
H1599 H 0.34697 0.74647 0.93558 0.0
H1600 H 0.38605 0.76729 0.98871 0.0
H1601 H 0.35816 0.70588 0.99796 0.0
H1602 H 0.36503 0.71261 0.97772 0.0
H1603 H 0.34648 0.72018 0.98552 0.0
C1604 C 0.38634 0.74691 0.94156 0.0
C1605 C 0.37204 0.74722 0.93271 0.0
C1606 C 0.38674 0.74552 0.9592 0.0
C1607 C 0.37285 0.74436 0.96853 0.0
C1608 C 0.35857 0.74441 0.95961 0.0
H1609 H 0.34829 0.74947 0.07537 0.0
H1610 H 0.34863 0.74619 0.04463 0.0
C1611 C 0.35818 0.74581 0.94197 0.0
C1612 C 0.37328 0.7443 0.98751 0.0
H1613 H 0.36106 0.72301 0.02238 0.0
C1614 C 0.3807 0.75749 0.99602 0.0
C1615 C 0.36623 0.73164 0.99729 0.0
C1616 C 0.35865 0.71669 0.98918 0.0
C1617 C 0.38097 0.7586 0.01376 0.0
C1618 C 0.37391 0.74595 0.02354 0.0
C1619 C 0.36652 0.73273 0.01505 0.0
C1620 C 0.37382 0.74648 0.04252 0.0
C1621 C 0.38838 0.77369 0.02182 0.0
C1622 C 0.38783 0.74718 0.05188 0.0
C1623 C 0.38763 0.74899 0.06949 0.0
C1624 C 0.37341 0.74991 0.07828 0.0
C1625 C 0.35942 0.74854 0.06901 0.0
C1626 C 0.35963 0.74675 0.05139 0.0
H1627 H 0.38929 0.7843 0.01285 0.0
H1628 H 0.38161 0.77809 0.0329 0.0
H1629 H 0.40038 0.77019 0.02609 0.0
H1630 H 0.39899 0.74665 0.04554 0.0
H1631 H 0.39859 0.75028 0.0762 0.0
H1632 H 0.76638 0.89711 0.42807 0.0
H1633 H 0.76979 0.89956 0.45863 0.0
H1634 H 0.78161 0.84669 0.46136 0.0
H1635 H 0.77802 0.84426 0.43077 0.0
H1636 H 0.75989 0.85505 0.48433 0.0
H1637 H 0.80748 0.90087 0.48938 0.0
H1638 H 0.79141 0.90836 0.47668 0.0
H1639 H 0.80279 0.89035 0.46992 0.0
C1640 C 0.77018 0.88614 0.43515 0.0
C1641 C 0.77225 0.87056 0.42695 0.0
C1642 C 0.77212 0.88752 0.45267 0.0
C1643 C 0.7762 0.87337 0.4625 0.0
C1644 C 0.77858 0.85786 0.4542 0.0
H1645 H 0.79834 0.87447 0.5714 0.0
H1646 H 0.79995 0.87281 0.54062 0.0
C1647 C 0.77666 0.85649 0.43668 0.0
C1648 C 0.77683 0.87444 0.48142 0.0
H1649 H 0.79324 0.89562 0.51454 0.0
C1650 C 0.76728 0.86387 0.49088 0.0
C1651 C 0.78656 0.88578 0.49021 0.0
C1652 C 0.79776 0.89687 0.48105 0.0
C1653 C 0.76688 0.8646 0.50861 0.0
C1654 C 0.77611 0.87642 0.51736 0.0
C1655 C 0.786 0.88668 0.50796 0.0
C1656 C 0.77542 0.87839 0.53619 0.0
C1657 C 0.75665 0.85249 0.51781 0.0
C1658 C 0.76125 0.8826 0.54414 0.0
C1659 C 0.76031 0.88365 0.56173 0.0
C1660 C 0.77354 0.88056 0.57204 0.0
C1661 C 0.78789 0.87699 0.56402 0.0
C1662 C 0.78882 0.87596 0.54635 0.0
H1663 H 0.75394 0.84134 0.50997 0.0
H1664 H 0.76231 0.84812 0.52966 0.0
H1665 H 0.74543 0.85892 0.52102 0.0
H1666 H 0.7508 0.88504 0.53671 0.0
H1667 H 0.74911 0.88688 0.56724 0.0
H1668 H 0.63633 0.2664 0.08032 0.0
H1669 H 0.63451 0.26976 0.04962 0.0
H1670 H 0.68476 0.27116 0.04682 0.0
H1671 H 0.68649 0.26821 0.07752 0.0
H1672 H 0.67199 0.29344 0.02508 0.0
H1673 H 0.64221 0.23289 0.01605 0.0
H1674 H 0.63169 0.24723 0.02946 0.0
H1675 H 0.6505 0.23898 0.03599 0.0
C1676 C 0.64696 0.26772 0.07315 0.0
C1677 C 0.66155 0.26709 0.08138 0.0
C1678 C 0.64594 0.2694 0.05552 0.0
C1679 C 0.65951 0.27029 0.04558 0.0
C1680 C 0.67407 0.27039 0.05397 0.0
H1681 H 0.68311 0.26955 0.93798 0.0
H1682 H 0.68332 0.27176 0.96877 0.0
C1683 C 0.67507 0.26877 0.07158 0.0
C1684 C 0.65865 0.27086 0.02656 0.0
H1685 H 0.64491 0.24985 0.99189 0.0
C1686 C 0.66607 0.28386 0.01788 0.0
C1687 C 0.65099 0.25841 0.01687 0.0
C1688 C 0.64352 0.2435 0.02503 0.0
C1689 C 0.66586 0.2849 1.0001 0.0
C1690 C 0.65822 0.27243 0.99043 0.0
C1691 C 0.65072 0.2595 0.99911 0.0
C1692 C 0.65814 0.27232 0.9714 0.0
C1693 C 0.67358 0.29959 0.99186 0.0
C1694 C 0.64399 0.27173 0.96226 0.0
C1695 C 0.64389 0.27052 0.94456 0.0
C1696 C 0.65795 0.26979 0.93546 0.0
C1697 C 0.67209 0.27054 0.94455 0.0
C1698 C 0.67219 0.2718 0.96223 0.0
H1699 H 0.67465 0.31039 1.00065 0.0
H1700 H 0.68553 0.29572 0.9879 0.0
H1701 H 0.66694 0.30385 0.98056 0.0
H1702 H 0.63295 0.27195 0.96885 0.0
H1703 H 0.63281 0.26952 0.93802 0.0
H1704 H 0.27016 0.88107 0.45071 0.0
H1705 H 0.26848 0.87995 0.48142 0.0
H1706 H 0.2223 0.85976 0.47749 0.0
H1707 H 0.22385 0.86089 0.44666 0.0
H1708 H 0.24188 0.89543 0.50365 0.0
H1709 H 0.25042 0.82607 0.50854 0.0
H1710 H 0.25741 0.83775 0.49074 0.0
H1711 H 0.23691 0.83429 0.493 0.0
C1712 C 0.25962 0.87634 0.45631 0.0
C1713 C 0.24717 0.871 0.44602 0.0
C1714 C 0.25866 0.87578 0.47395 0.0
C1715 C 0.24532 0.86965 0.48191 0.0
C1716 C 0.23278 0.86446 0.47174 0.0
H1717 H 0.23181 0.84482 0.58928 0.0
H1718 H 0.22842 0.84773 0.55864 0.0
C1719 C 0.23365 0.86522 0.45405 0.0
C1720 C 0.24464 0.86867 0.50079 0.0
H1721 H 0.24738 0.84112 0.53378 0.0
C1722 C 0.24303 0.88355 0.51024 0.0
C1723 C 0.24597 0.8532 0.5095 0.0
C1724 C 0.24784 0.83685 0.50004 0.0
C1725 C 0.24271 0.88338 0.52802 0.0
C1726 C 0.24461 0.86793 0.53683 0.0
C1727 C 0.24595 0.85302 0.52728 0.0
C1728 C 0.24577 0.86698 0.5558 0.0
C1729 C 0.23993 0.89983 0.53709 0.0
C1730 C 0.25653 0.87681 0.56475 0.0
C1731 C 0.25823 0.87535 0.58228 0.0
C1732 C 0.24949 0.86373 0.59143 0.0
C1733 C 0.23859 0.854 0.58263 0.0
C1734 C 0.23677 0.85559 0.56505 0.0
H1735 H 0.23321 0.90891 0.52912 0.0
H1736 H 0.23346 0.89805 0.54898 0.0
H1737 H 0.25135 0.90553 0.54007 0.0
H1738 H 0.26403 0.88532 0.55814 0.0
H1739 H 0.26686 0.88288 0.58866 0.0
H1740 H 0.68269 0.75106 0.0798 0.0
H1741 H 0.68204 0.74738 0.0491 0.0
H1742 H 0.63168 0.74808 0.05014 0.0
H1743 H 0.63237 0.75212 0.08075 0.0
H1744 H 0.67004 0.72391 0.02721 0.0
H1745 H 0.63967 0.78524 0.01692 0.0
H1746 H 0.64785 0.77926 0.03703 0.0
H1747 H 0.62924 0.77139 0.0304 0.0
C1748 C 0.6715 0.7501 0.07348 0.0
C1749 C 0.65759 0.75166 0.08276 0.0
C1750 C 0.67111 0.74808 0.05589 0.0
C1751 C 0.6568 0.74775 0.04706 0.0
C1752 C 0.6429 0.74864 0.05645 0.0
H1753 H 0.63181 0.74865 0.93949 0.0
H1754 H 0.63158 0.746 0.97027 0.0
C1755 C 0.64329 0.75069 0.07402 0.0
C1756 C 0.65646 0.74695 0.0281 0.0
H1757 H 0.64309 0.76786 0.99301 0.0
C1758 C 0.66416 0.73356 0.01977 0.0
C1759 C 0.64884 0.75949 0.01816 0.0
C1760 C 0.64106 0.77475 0.02604 0.0
C1761 C 0.66421 0.73221 1.00202 0.0
C1762 C 0.6566 0.74477 0.9921 0.0
C1763 C 0.64887 0.75813 1.00045 0.0
C1764 C 0.65675 0.74458 0.97312 0.0
C1765 C 0.67216 0.7171 0.9941 0.0
C1766 C 0.67091 0.74448 0.96418 0.0
C1767 C 0.67102 0.74582 0.94653 0.0
C1768 C 0.65698 0.7473 0.9373 0.0
C1769 C 0.64281 0.74706 0.94617 0.0
C1770 C 0.6427 0.74573 0.96382 0.0
H1771 H 0.67314 0.70641 1.00302 0.0
H1772 H 0.66576 0.71291 0.9827 0.0
H1773 H 0.68417 0.72047 0.99036 0.0
H1774 H 0.68196 0.74408 0.97088 0.0
H1775 H 0.68212 0.74645 0.94012 0.0
H1776 H 0.7758 0.18651 0.58403 0.0
H1777 H 0.77779 0.18573 0.55318 0.0
H1778 H 0.76605 0.13332 0.55342 0.0
H1779 H 0.76403 0.13415 0.58424 0.0
H1780 H 0.79579 0.16604 0.52986 0.0
H1781 H 0.73252 0.1541 0.52219 0.0
H1782 H 0.74089 0.16086 0.54189 0.0
H1783 H 0.74287 0.13928 0.53537 0.0
C1784 C 0.77404 0.17473 0.57751 0.0
C1785 C 0.77002 0.16032 0.58665 0.0
C1786 C 0.77507 0.1743 0.55982 0.0
C1787 C 0.77184 0.15954 0.55073 0.0
C1788 C 0.76837 0.14497 0.55994 0.0
H1789 H 0.75769 0.13772 0.44297 0.0
H1790 H 0.76081 0.13608 0.47366 0.0
C1791 C 0.76743 0.14538 0.57763 0.0
C1792 C 0.7716 0.15953 0.53171 0.0
H1793 H 0.74767 0.15365 0.49752 0.0
C1794 C 0.78525 0.16334 0.52281 0.0
C1795 C 0.75791 0.15601 0.52228 0.0
C1796 C 0.74266 0.15247 0.53086 0.0
C1797 C 0.78566 0.16339 0.50499 0.0
C1798 C 0.77191 0.16001 0.49553 0.0
C1799 C 0.75828 0.1562 0.50449 0.0
C1800 C 0.77127 0.1605 0.47647 0.0
C1801 C 0.80105 0.16658 0.49655 0.0
C1802 C 0.77616 0.17466 0.46739 0.0
C1803 C 0.77463 0.17544 0.44974 0.0
C1804 C 0.76801 0.16216 0.4406 0.0
C1805 C 0.76318 0.14798 0.44958 0.0
C1806 C 0.76483 0.14713 0.46721 0.0
H1807 H 0.81109 0.16332 0.50493 0.0
H1808 H 0.80226 0.15923 0.48474 0.0
H1809 H 0.80175 0.18014 0.4935 0.0
H1810 H 0.78068 0.18546 0.47399 0.0
H1811 H 0.77801 0.18675 0.44328 0.0
H1812 H 0.3609 0.28059 0.08824 0.0
H1813 H 0.3625 0.2862 0.05796 0.0
H1814 H 0.41281 0.28591 0.06162 0.0
H1815 H 0.41118 0.27951 0.09167 0.0
H1816 H 0.37375 0.30986 0.03804 0.0
H1817 H 0.40745 0.2509 0.02625 0.0
H1818 H 0.39885 0.25565 0.04636 0.0
H1819 H 0.41724 0.26458 0.04062 0.0
C1820 C 0.37227 0.28205 0.08259 0.0
C1821 C 0.3859 0.27976 0.09236 0.0
C1822 C 0.3732 0.28517 0.06525 0.0
C1823 C 0.38779 0.28607 0.05726 0.0
C1824 C 0.4014 0.28479 0.06726 0.0
H1825 H 0.41554 0.30002 0.95231 0.0
H1826 H 0.41444 0.29915 0.983 0.0
C1827 C 0.40047 0.28146 0.08454 0.0
C1828 C 0.38873 0.28778 0.03848 0.0
H1829 H 0.40452 0.26958 1.00318 0.0
C1830 C 0.38046 0.301 0.03046 0.0
C1831 C 0.39736 0.27618 0.02838 0.0
C1832 C 0.40559 0.26093 0.03581 0.0
C1833 C 0.38079 0.30307 0.01285 0.0
C1834 C 0.38959 0.29163 1.00286 0.0
C1835 C 0.39789 0.27845 1.01082 0.0
C1836 C 0.39003 0.29282 0.9841 0.0
C1837 C 0.37184 0.3176 1.005 0.0
C1838 C 0.3767 0.28949 0.97437 0.0
C1839 C 0.37733 0.28967 0.95674 0.0
C1840 C 0.39131 0.2933 0.94827 0.0
C1841 C 0.40459 0.29691 0.95816 0.0
C1842 C 0.40398 0.29654 0.9758 0.0
H1843 H 0.3681 0.32708 0.0145 0.0
H1844 H 0.37906 0.32384 0.99538 0.0
H1845 H 0.36125 0.31281 0.99863 0.0
H1846 H 0.36586 0.28631 0.98043 0.0
H1847 H 0.3669 0.28644 0.94978 0.0
H1848 H 0.58864 0.26408 0.12947 0.0
H1849 H 0.56025 0.26138 0.13063 0.0
H1850 H 0.56601 0.2116 0.15126 0.0
H1851 H 0.59455 0.2143 0.15035 0.0
H1852 H 0.54056 0.23734 0.11544 0.0
H1853 H 0.5363 0.23525 0.18505 0.0
H1854 H 0.55358 0.24227 0.17445 0.0
H1855 H 0.5496 0.22023 0.17568 0.0
C1856 C 0.58393 0.25256 0.13435 0.0
C1857 C 0.59402 0.23947 0.13996 0.0
C1858 C 0.56762 0.251 0.13493 0.0
C1859 C 0.56085 0.2364 0.14129 0.0
C1860 C 0.57086 0.22314 0.14657 0.0
H1861 H 0.46139 0.21396 0.15903 0.0
H1862 H 0.49007 0.21251 0.15781 0.0
C1863 C 0.58722 0.22463 0.14586 0.0
C1864 C 0.54338 0.23518 0.14223 0.0
H1865 H 0.51282 0.23252 0.1697 0.0
C1866 C 0.53452 0.23625 0.12732 0.0
C1867 C 0.53537 0.23365 0.15768 0.0
C1868 C 0.54413 0.23291 0.17418 0.0
C1869 C 0.51803 0.23581 0.12741 0.0
C1870 C 0.50997 0.23476 0.1429 0.0
C1871 C 0.51886 0.23337 0.1578 0.0
C1872 C 0.4924 0.23566 0.14391 0.0
C1873 C 0.50946 0.23616 0.11079 0.0
C1874 C 0.48398 0.24932 0.13689 0.0
C1875 C 0.4676 0.25014 0.13752 0.0
C1876 C 0.45903 0.23744 0.14538 0.0
C1877 C 0.46749 0.22399 0.15287 0.0
C1878 C 0.48394 0.22313 0.15214 0.0
H1879 H 0.51699 0.23138 0.10044 0.0
H1880 H 0.49875 0.22853 0.11119 0.0
H1881 H 0.506 0.24933 0.10775 0.0
H1882 H 0.4901 0.25949 0.13098 0.0
H1883 H 0.46164 0.26096 0.13202 0.0
H1884 H 0.57949 0.7713 0.85194 0.0
H1885 H 0.55091 0.77222 0.85114 0.0
H1886 H 0.55005 0.79053 0.90211 0.0
H1887 H 0.57863 0.79019 0.90285 0.0
H1888 H 0.52955 0.75552 0.86961 0.0
H1889 H 0.52022 0.82381 0.8801 0.0
H1890 H 0.53912 0.81479 0.87499 0.0
H1891 H 0.53191 0.81383 0.89615 0.0
C1892 C 0.57331 0.77584 0.86293 0.0
C1893 C 0.58166 0.78079 0.87742 0.0
C1894 C 0.55684 0.77622 0.86249 0.0
C1895 C 0.54807 0.78169 0.87645 0.0
C1896 C 0.55634 0.78658 0.89097 0.0
H1897 H 0.44772 0.79019 0.89934 0.0
H1898 H 0.4763 0.79044 0.89973 0.0
C1899 C 0.57282 0.78617 0.89145 0.0
C1900 C 0.53039 0.78179 0.87596 0.0
H1901 H 0.49769 0.8069 0.88136 0.0
C1902 C 0.52263 0.76681 0.87209 0.0
C1903 C 0.52113 0.79643 0.87924 0.0
C1904 C 0.52849 0.81317 0.8827 0.0
C1905 C 0.50612 0.76598 0.87175 0.0
C1906 C 0.49684 0.78063 0.87499 0.0
C1907 C 0.50461 0.79561 0.87887 0.0
C1908 C 0.47916 0.78066 0.87453 0.0
C1909 C 0.49879 0.7492 0.8684 0.0
C1910 C 0.47089 0.77539 0.86015 0.0
C1911 C 0.45443 0.77511 0.85992 0.0
C1912 C 0.44558 0.7802 0.87403 0.0
C1913 C 0.45391 0.78586 0.88828 0.0
C1914 C 0.47038 0.78613 0.88849 0.0
H1915 H 0.50707 0.7386 0.87112 0.0
H1916 H 0.48814 0.74761 0.87609 0.0
H1917 H 0.49543 0.74841 0.85494 0.0
H1918 H 0.47718 0.77147 0.84901 0.0
H1919 H 0.44866 0.77053 0.84871 0.0
H1920 H 0.75522 0.94907 0.38946 0.0
H1921 H 0.75439 0.97976 0.39064 0.0
H1922 H 0.71223 0.9806 0.36078 0.0
H1923 H 0.71283 0.94972 0.35973 0.0
H1924 H 0.75496 1.0026 0.36333 0.0
H1925 H 0.70093 1.01173 0.40092 0.0
H1926 H 0.7114 0.99181 0.39993 0.0
H1927 H 0.6993 0.99857 0.38262 0.0
C1928 C 0.74559 0.95569 0.38333 0.0
C1929 C 0.73399 0.94673 0.37464 0.0
C1930 C 0.74521 0.97333 0.38393 0.0
C1931 C 0.73314 0.98263 0.37601 0.0
C1932 C 0.72154 0.97379 0.36726 0.0
H1933 H 0.71644 0.09272 0.37096 0.0
H1934 H 0.71374 0.06206 0.36896 0.0
C1935 C 0.72198 0.95608 0.36653 0.0
C1936 C 0.73315 1.00151 0.37653 0.0
H1937 H 0.71318 0.03623 0.39136 0.0
C1938 C 0.7458 1.00992 0.36945 0.0
C1939 C 0.72117 1.01121 0.38437 0.0
C1940 C 0.70746 1.00294 0.39252 0.0
C1941 C 0.74681 0.0276 0.36998 0.0
C1942 C 0.73508 0.03732 0.37828 0.0
C1943 C 0.72225 0.02892 0.38507 0.0
C1944 C 0.73619 0.05607 0.38036 0.0
C1945 C 0.76036 0.03568 0.3613 0.0
C1946 C 0.74942 0.06311 0.38796 0.0
C1947 C 0.75101 0.0806 0.38906 0.0
C1948 C 0.7393 0.09168 0.38281 0.0
C1949 C 0.72568 0.08465 0.37595 0.0
C1950 C 0.72416 0.06707 0.37473 0.0
H1951 H 0.76522 0.02745 0.35122 0.0
H1952 H 0.75685 0.04796 0.35568 0.0
H1953 H 0.76984 0.03782 0.37059 0.0
H1954 H 0.75867 0.05505 0.39297 0.0
H1955 H 0.76151 0.08547 0.39477 0.0
H1956 H 0.44899 0.25502 0.89774 0.0
H1957 H 0.47747 0.25008 0.89833 0.0
H1958 H 0.4781 0.24982 0.84421 0.0
H1959 H 0.44959 0.25444 0.84361 0.0
H1960 H 0.49771 0.22328 0.88199 0.0
H1961 H 0.50905 0.28776 0.85903 0.0
H1962 H 0.49062 0.28211 0.86816 0.0
H1963 H 0.49525 0.27578 0.84708 0.0
C1964 C 0.45514 0.25342 0.88597 0.0
C1965 C 0.44692 0.25483 0.87062 0.0
C1966 C 0.47147 0.25075 0.88631 0.0
C1967 C 0.48009 0.24972 0.87132 0.0
C1968 C 0.47184 0.25069 0.85597 0.0
H1969 H 0.58034 0.25042 0.84819 0.0
H1970 H 0.55184 0.25106 0.84736 0.0
C1971 C 0.4555 0.25319 0.85563 0.0
C1972 C 0.49768 0.24823 0.8717 0.0
H1973 H 0.53093 0.26962 0.8625 0.0
C1974 C 0.50497 0.23343 0.87776 0.0
C1975 C 0.50729 0.26137 0.86611 0.0
C1976 C 0.50024 0.27773 0.85982 0.0
C1977 C 0.52145 0.2313 0.87808 0.0
C1978 C 0.53113 0.24457 0.87271 0.0
C1979 C 0.52375 0.25937 0.86665 0.0
C1980 C 0.54882 0.24342 0.87319 0.0
C1981 C 0.52823 0.21456 0.88365 0.0
C1982 C 0.55704 0.23896 0.88798 0.0
C1983 C 0.57351 0.23823 0.88841 0.0
C1984 C 0.58245 0.24223 0.87415 0.0
C1985 C 0.57415 0.24685 0.8594 0.0
C1986 C 0.55768 0.24742 0.85895 0.0
H1987 H 0.51972 0.20432 0.8819 0.0
H1988 H 0.53901 0.2112 0.87662 0.0
H1989 H 0.53116 0.2152 0.89724 0.0
H1990 H 0.55073 0.23624 0.89936 0.0
H1991 H 0.57918 0.23446 0.90003 0.0
H1992 H 0.26123 0.93608 0.34329 0.0
H1993 H 0.26384 0.96654 0.34294 0.0
H1994 H 0.2831 0.96494 0.39315 0.0
H1995 H 0.27907 0.93445 0.39399 0.0
H1996 H 0.26556 0.98985 0.39281 0.0
H1997 H 0.29758 0.99656 0.3337 0.0
H1998 H 0.27966 0.98619 0.32931 0.0
H1999 H 0.29423 0.97622 0.34271 0.0
C2000 C 0.26618 0.9422 0.35422 0.0
C2001 C 0.26991 0.93272 0.36868 0.0
C2002 C 0.26787 0.95975 0.35394 0.0
C2003 C 0.27405 0.96845 0.36786 0.0
C2004 C 0.27832 0.95883 0.38215 0.0
H2005 H 0.29179 0.07724 0.35249 0.0
H2006 H 0.29531 0.04669 0.35616 0.0
C2007 C 0.2762 0.94128 0.38259 0.0
C2008 C 0.27504 0.98751 0.36788 0.0
H2009 H 0.28367 0.02145 0.34328 0.0
C2010 C 0.26976 0.99665 0.382 0.0
C2011 C 0.28085 0.99684 0.3541 0.0
C2012 C 0.28856 0.9884 0.33922 0.0
C2013 C 0.26961 0.01444 0.38254 0.0
C2014 C 0.27406 0.02377 0.36816 0.0
C2015 C 0.27988 0.01464 0.35427 0.0
C2016 C 0.27251 0.0428 0.3671 0.0
C2017 C 0.26508 0.0229 0.39884 0.0
C2018 C 0.25868 0.05128 0.3721 0.0
C2019 C 0.25695 0.06882 0.37058 0.0
C2020 C 0.26867 0.07854 0.36325 0.0
C2021 C 0.28255 0.07021 0.35825 0.0
C2022 C 0.28447 0.05263 0.36022 0.0
H2023 H 0.26822 0.01483 0.40977 0.0
H2024 H 0.27087 0.03516 0.40045 0.0
H2025 H 0.25222 0.02496 0.39906 0.0
H2026 H 0.24892 0.04431 0.37684 0.0
H2027 H 0.24609 0.07477 0.37458 0.0
H2028 H 0.58043 0.7963 0.11487 0.0
H2029 H 0.55183 0.7968 0.11456 0.0
H2030 H 0.55163 0.77772 0.16518 0.0
H2031 H 0.58019 0.77706 0.16558 0.0
H2032 H 0.53108 0.77144 0.11779 0.0
H2033 H 0.5213 0.817 0.16956 0.0
H2034 H 0.54017 0.81377 0.15996 0.0
H2035 H 0.53342 0.79932 0.17554 0.0
C2036 C 0.57437 0.79218 0.12598 0.0
C2037 C 0.58286 0.78672 0.14029 0.0
C2038 C 0.55791 0.79253 0.12579 0.0
C2039 C 0.54937 0.78756 0.13993 0.0
C2040 C 0.55779 0.78207 0.15422 0.0
H2041 H 0.45018 0.7754 0.1628 0.0
H2042 H 0.47871 0.77662 0.16316 0.0
C2043 C 0.57424 0.78172 0.15443 0.0
C2044 C 0.53175 0.78758 0.13951 0.0
H2045 H 0.499 0.80245 0.15977 0.0
C2046 C 0.52409 0.77834 0.12692 0.0
C2047 C 0.52246 0.79649 0.1514 0.0
C2048 C 0.52972 0.80734 0.16479 0.0
C2049 C 0.50762 0.77745 0.12612 0.0
C2050 C 0.49833 0.78633 0.13804 0.0
C2051 C 0.50598 0.7956 0.1506 0.0
C2052 C 0.48071 0.78601 0.1378 0.0
C2053 C 0.50037 0.76654 0.11277 0.0
C2054 C 0.47205 0.7912 0.12357 0.0
C2055 C 0.45561 0.79059 0.12334 0.0
C2056 C 0.44727 0.78491 0.1374 0.0
C2057 C 0.45601 0.78006 0.15177 0.0
C2058 C 0.47243 0.78066 0.15197 0.0
H2059 H 0.50886 0.75703 0.10783 0.0
H2060 H 0.49008 0.7599 0.11772 0.0
H2061 H 0.49642 0.77455 0.10211 0.0
H2062 H 0.47799 0.79584 0.11259 0.0
H2063 H 0.44944 0.79476 0.11214 0.0
H2064 H 0.74716 0.93959 0.61827 0.0
H2065 H 0.74272 0.97031 0.61734 0.0
H2066 H 0.73662 0.97109 0.67103 0.0
H2067 H 0.74085 0.94042 0.67191 0.0
H2068 H 0.71569 0.99293 0.63274 0.0
H2069 H 0.77521 1.00283 0.6589 0.0
H2070 H 0.77001 0.98363 0.64826 0.0
H2071 H 0.76324 0.98765 0.66919 0.0
C2072 C 0.74438 0.94628 0.62978 0.0
C2073 C 0.7441 0.93756 0.64513 0.0
C2074 C 0.74196 0.96386 0.62927 0.0
C2075 C 0.73944 0.97314 0.64413 0.0
C2076 C 0.73858 0.96431 0.65939 0.0
H2077 H 0.74262 0.08022 0.66965 0.0
H2078 H 0.74212 0.04959 0.66968 0.0
C2079 C 0.74085 0.94675 0.65988 0.0
C2080 C 0.73862 0.99204 0.64388 0.0
H2081 H 0.75934 0.02694 0.65454 0.0
C2082 C 0.72524 1.00038 0.63745 0.0
C2083 C 0.751 1.00186 0.65014 0.0
C2084 C 0.76576 0.99364 0.65695 0.0
C2085 C 0.72381 0.01815 0.6374 0.0
C2086 C 0.73632 0.02805 0.64347 0.0
C2087 C 0.7497 0.0196 0.64986 0.0
C2088 C 0.73581 0.04707 0.64344 0.0
C2089 C 0.70863 0.02606 0.63136 0.0
C2090 C 0.73245 0.05628 0.62871 0.0
C2091 C 0.73241 0.074 0.62872 0.0
C2092 C 0.736 0.0832 0.64341 0.0
C2093 C 0.73944 0.07389 0.65812 0.0
C2094 C 0.73934 0.05619 0.65812 0.0
H2095 H 0.69881 0.01721 0.63242 0.0
H2096 H 0.70564 0.03763 0.63859 0.0
H2097 H 0.70973 0.02945 0.61791 0.0
H2098 H 0.73008 0.04978 0.61704 0.0
H2099 H 0.72956 0.08044 0.61711 0.0
H2100 H 0.24994 0.07971 0.63046 0.0
H2101 H 0.25403 0.04917 0.62977 0.0
H2102 H 0.29345 0.05384 0.66339 0.0
H2103 H 0.28847 0.08425 0.66516 0.0
H2104 H 0.27373 0.02747 0.62052 0.0
H2105 H 0.27154 0.02029 0.68947 0.0
H2106 H 0.26759 0.04016 0.67939 0.0
H2107 H 0.28745 0.03317 0.68342 0.0
C2108 C 0.2596 0.07421 0.63755 0.0
C2109 C 0.26891 0.0845 0.64779 0.0
C2110 C 0.26194 0.05667 0.63721 0.0
C2111 C 0.2738 0.04881 0.64693 0.0
C2112 C 0.28381 0.05926 0.65626 0.0
H2113 H 0.29595 0.94056 0.62889 0.0
H2114 H 0.29574 0.97137 0.6284 0.0
C2115 C 0.28121 0.0768 0.65695 0.0
C2116 C 0.27538 0.02981 0.64743 0.0
H2117 H 0.27916 0.99603 0.67397 0.0
C2118 C 0.27485 0.02065 0.63226 0.0
C2119 C 0.27653 0.02057 0.66267 0.0
C2120 C 0.27563 0.02904 0.67964 0.0
C2121 C 0.2754 1.00287 0.63188 0.0
C2122 C 0.27733 0.99365 0.64707 0.0
C2123 C 0.27789 1.00283 0.66223 0.0
C2124 C 0.27814 0.97462 0.6477 0.0
C2125 C 0.27317 0.99426 0.61514 0.0
C2126 C 0.26908 0.96576 0.65933 0.0
C2127 C 0.26967 0.94808 0.66004 0.0
C2128 C 0.27916 0.93863 0.64898 0.0
C2129 C 0.28836 0.94741 0.63746 0.0
C2130 C 0.28809 0.96513 0.63705 0.0
H2131 H 0.26667 1.00249 0.60613 0.0
H2132 H 0.28478 0.99134 0.60959 0.0
H2133 H 0.2667 0.98239 0.61647 0.0
H2134 H 0.2613 0.97251 0.66778 0.0
H2135 H 0.26236 0.94176 0.669 0.0
H2136 H 0.19577 0.3231 0.28113 0.0
H2137 H 0.20973 0.29774 0.29117 0.0
H2138 H 0.16827 0.2825 0.31706 0.0
H2139 H 0.15435 0.30797 0.30703 0.0
H2140 H 0.21559 0.28791 0.32486 0.0
H2141 H 0.18142 0.23974 0.29107 0.0
H2142 H 0.18069 0.26169 0.28532 0.0
H2143 H 0.16987 0.2545 0.30309 0.0
C2144 C 0.18961 0.31426 0.28884 0.0
C2145 C 0.17397 0.31757 0.29332 0.0
C2146 C 0.19761 0.29977 0.29463 0.0
C2147 C 0.19011 0.28804 0.30487 0.0
C2148 C 0.17433 0.29115 0.30903 0.0
H2149 H 0.23177 0.2092 0.36922 0.0
H2150 H 0.2203 0.23556 0.3582 0.0
C2151 C 0.16636 0.30572 0.30331 0.0
C2152 C 0.19891 0.27289 0.31155 0.0
H2153 H 0.19956 0.2298 0.31158 0.0
C2154 C 0.21208 0.27521 0.32192 0.0
C2155 C 0.19453 0.25624 0.30765 0.0
C2156 C 0.18094 0.2528 0.29606 0.0
C2157 C 0.22073 0.26145 0.32868 0.0
C2158 C 0.21613 0.2448 0.32509 0.0
C2159 C 0.20311 0.24249 0.31448 0.0
C2160 C 0.22464 0.22959 0.33206 0.0
C2161 C 0.23491 0.26487 0.3394 0.0
C2162 C 0.23112 0.21738 0.32119 0.0
C2163 C 0.23787 0.20242 0.32751 0.0
C2164 C 0.23826 0.19918 0.34489 0.0
C2165 C 0.23215 0.21155 0.35583 0.0
C2166 C 0.22546 0.2266 0.34949 0.0
H2167 H 0.23916 0.27784 0.33756 0.0
H2168 H 0.23183 0.26343 0.35283 0.0
H2169 H 0.24457 0.2558 0.33653 0.0
H2170 H 0.23061 0.21925 0.30771 0.0
H2171 H 0.24214 0.19297 0.31876 0.0
H2172 H 0.32457 0.72155 0.83024 0.0
H2173 H 0.30288 0.70794 0.81607 0.0
H2174 H 0.27021 0.73538 0.84729 0.0
H2175 H 0.29205 0.74908 0.86174 0.0
H2176 H 0.28116 0.68716 0.82944 0.0
H2177 H 0.2512 0.74256 0.80068 0.0
H2178 H 0.27076 0.74343 0.80922 0.0
H2179 H 0.25418 0.7442 0.82298 0.0
C2180 C 0.31279 0.72472 0.83422 0.0
C2181 C 0.31018 0.73633 0.8474 0.0
C2182 C 0.30034 0.71693 0.82598 0.0
C2183 C 0.28479 0.72057 0.83045 0.0
C2184 C 0.28204 0.73247 0.84333 0.0
H2185 H 0.19468 0.68129 0.80003 0.0
H2186 H 0.21648 0.69671 0.81183 0.0
C2187 C 0.29458 0.74032 0.85164 0.0
C2188 C 0.2717 0.71131 0.82204 0.0
H2189 H 0.23818 0.71658 0.79866 0.0
C2190 C 0.2718 0.69362 0.82265 0.0
C2191 C 0.25942 0.71961 0.81311 0.0
C2192 C 0.25889 0.73848 0.81128 0.0
C2193 C 0.25993 0.68411 0.815 0.0
C2194 C 0.24764 0.6924 0.80606 0.0
C2195 C 0.24756 0.71011 0.8054 0.0
C2196 C 0.23437 0.68304 0.79807 0.0
C2197 C 0.26043 0.66526 0.81708 0.0
C2198 C 0.2369 0.6703 0.78596 0.0
C2199 C 0.22431 0.66121 0.77921 0.0
C2200 C 0.20886 0.66463 0.78442 0.0
C2201 C 0.20639 0.67786 0.79602 0.0
C2202 C 0.2189 0.68687 0.80272 0.0
H2203 H 0.26808 0.66131 0.82776 0.0
H2204 H 0.24855 0.66035 0.8192 0.0
H2205 H 0.26518 0.65938 0.80549 0.0
H2206 H 0.24863 0.66731 0.78175 0.0
H2207 H 0.22673 0.65126 0.77024 0.0
H2208 H 0.87761 0.71844 0.28188 0.0
H2209 H 0.86078 0.7414 0.29276 0.0
H2210 H 0.82052 0.71011 0.28712 0.0
H2211 H 0.83733 0.6873 0.27631 0.0
H2212 H 0.81427 0.74383 0.2781 0.0
H2213 H 0.84302 0.73922 0.34068 0.0
H2214 H 0.85607 0.743 0.32356 0.0
H2215 H 0.84586 0.72351 0.32452 0.0
C2216 C 0.8651 0.71673 0.28242 0.0
C2217 C 0.8587 0.70123 0.27785 0.0
C2218 C 0.8555 0.72974 0.28891 0.0
C2219 C 0.83935 0.72745 0.29105 0.0
C2220 C 0.83289 0.71226 0.28565 0.0
H2221 H 0.77763 0.78566 0.35894 0.0
H2222 H 0.79196 0.76279 0.34439 0.0
C2223 C 0.84248 0.69926 0.27929 0.0
C2224 C 0.82928 0.74043 0.29967 0.0
H2225 H 0.82409 0.76109 0.33711 0.0
C2226 C 0.81645 0.74761 0.29099 0.0
C2227 C 0.83183 0.74514 0.31665 0.0
C2228 C 0.84484 0.73723 0.327 0.0
C2229 C 0.8064 0.75961 0.29864 0.0
C2230 C 0.80927 0.76475 0.31544 0.0
C2231 C 0.82188 0.75727 0.32424 0.0
C2232 C 0.79972 0.7783 0.32387 0.0
C2233 C 0.79265 0.76652 0.28872 0.0
C2234 C 0.7992 0.79464 0.31724 0.0
C2235 C 0.79107 0.80765 0.32552 0.0
C2236 C 0.78324 0.80477 0.34075 0.0
C2237 C 0.78343 0.78831 0.34722 0.0
C2238 C 0.79171 0.77526 0.33895 0.0
H2239 H 0.78943 0.758 0.27822 0.0
H2240 H 0.78229 0.76852 0.29687 0.0
H2241 H 0.79576 0.77881 0.28323 0.0
H2242 H 0.80543 0.79747 0.30582 0.0
H2243 H 0.79107 0.82011 0.32005 0.0
H2244 H 0.80158 0.36461 0.77411 0.0
H2245 H 0.77988 0.3489 0.7863 0.0
H2246 H 0.81295 0.3154 0.81077 0.0
H2247 H 0.83448 0.3307 0.79858 0.0
H2248 H 0.77208 0.31346 0.78475 0.0
H2249 H 0.78591 0.33317 0.84999 0.0
H2250 H 0.79365 0.34366 0.83186 0.0
H2251 H 0.80211 0.32399 0.83876 0.0
C2252 C 0.80423 0.35383 0.78198 0.0
C2253 C 0.81988 0.34925 0.78563 0.0
C2254 C 0.79179 0.34487 0.789 0.0
C2255 C 0.79472 0.33116 0.79985 0.0
C2256 C 0.81031 0.32617 0.80287 0.0
H2257 H 0.7368 0.2665 0.86312 0.0
H2258 H 0.75863 0.27928 0.84811 0.0
C2259 C 0.82266 0.33503 0.79588 0.0
C2260 C 0.78166 0.32209 0.8082 0.0
H2261 H 0.76688 0.31219 0.84679 0.0
C2262 C 0.7709 0.31327 0.7983 0.0
C2263 C 0.78013 0.32161 0.82593 0.0
C2264 C 0.79097 0.33122 0.83729 0.0
C2265 C 0.75887 0.30387 0.80561 0.0
C2266 C 0.75724 0.30352 0.82336 0.0
C2267 C 0.76807 0.3123 0.83323 0.0
C2268 C 0.744 0.29486 0.83191 0.0
C2269 C 0.74826 0.29404 0.79419 0.0
C2270 C 0.72844 0.29922 0.82792 0.0
C2271 C 0.716 0.29189 0.8364 0.0
C2272 C 0.71866 0.28009 0.84937 0.0
C2273 C 0.73425 0.27546 0.8532 0.0
C2274 C 0.74676 0.28286 0.84466 0.0
H2275 H 0.754 0.29103 0.78203 0.0
H2276 H 0.74468 0.28212 0.80014 0.0
H2277 H 0.73759 0.30172 0.79141 0.0
H2278 H 0.72585 0.30863 0.81843 0.0
H2279 H 0.7042 0.29563 0.83283 0.0
H2280 H 0.21728 0.79322 0.65986 0.0
H2281 H 0.20361 0.77195 0.676 0.0
H2282 H 0.24122 0.77062 0.71225 0.0
H2283 H 0.255 0.79205 0.6961 0.0
H2284 H 0.2127 0.73894 0.68585 0.0
H2285 H 0.20177 0.77995 0.74131 0.0
H2286 H 0.2076 0.78817 0.72121 0.0
H2287 H 0.22179 0.77807 0.7347 0.0
C2288 C 0.22273 0.78833 0.67121 0.0
C2289 C 0.23728 0.79442 0.67664 0.0
C2290 C 0.21487 0.77613 0.68046 0.0
C2291 C 0.22117 0.7698 0.69557 0.0
C2292 C 0.23593 0.77545 0.70081 0.0
H2293 H 0.18801 0.68029 0.74683 0.0
H2294 H 0.20395 0.70242 0.73496 0.0
C2295 C 0.24391 0.78757 0.69143 0.0
C2296 C 0.21221 0.75734 0.70569 0.0
H2297 H 0.19351 0.7518 0.74326 0.0
C2298 C 0.20858 0.74176 0.69842 0.0
C2299 C 0.20655 0.76101 0.72205 0.0
C2300 C 0.20947 0.77774 0.7303 0.0
C2301 C 0.19971 0.72978 0.70704 0.0
C2302 C 0.19428 0.73331 0.72351 0.0
C2303 C 0.19772 0.74898 0.73072 0.0
C2304 C 0.18504 0.72079 0.73324 0.0
C2305 C 0.19596 0.71349 0.69828 0.0
C2306 C 0.1692 0.72388 0.73716 0.0
C2307 C 0.16007 0.71118 0.74425 0.0
C2308 C 0.16665 0.6952 0.74775 0.0
C2309 C 0.18267 0.69252 0.74467 0.0
C2310 C 0.19177 0.70514 0.73764 0.0
H2311 H 0.19777 0.71427 0.6845 0.0
H2312 H 0.20374 0.70332 0.70326 0.0
H2313 H 0.18368 0.70995 0.70063 0.0
H2314 H 0.16369 0.73582 0.7339 0.0
H2315 H 0.14767 0.7135 0.74601 0.0
H2316 H 0.72174 0.72051 0.14982 0.0
H2317 H 0.74306 0.70684 0.16566 0.0
H2318 H 0.74404 0.74895 0.19977 0.0
H2319 H 0.72262 0.76275 0.18391 0.0
H2320 H 0.77421 0.71889 0.17431 0.0
H2321 H 0.73783 0.70678 0.23052 0.0
H2322 H 0.72934 0.71172 0.21025 0.0
H2323 H 0.73789 0.72799 0.22271 0.0
C2324 C 0.72658 0.72696 0.1606 0.0
C2325 C 0.72041 0.74274 0.16558 0.0
C2326 C 0.73879 0.71911 0.16967 0.0
C2327 C 0.74504 0.72669 0.1841 0.0
C2328 C 0.73929 0.74271 0.18883 0.0
H2329 H 0.81386 0.68606 0.25741 0.0
H2330 H 0.79313 0.70278 0.24345 0.0
C2331 C 0.72715 0.75069 0.17962 0.0
C2332 C 0.7574 0.71761 0.1942 0.0
H2333 H 0.76408 0.69734 0.23158 0.0
C2334 C 0.77201 0.71423 0.18686 0.0
C2335 C 0.75462 0.71159 0.21063 0.0
C2336 C 0.73906 0.71455 0.21905 0.0
C2337 C 0.78386 0.70506 0.19543 0.0
C2338 C 0.78092 0.6985 0.21166 0.0
C2339 C 0.76639 0.70219 0.21914 0.0
C2340 C 0.79268 0.68758 0.22085 0.0
C2341 C 0.79953 0.70281 0.18705 0.0
C2342 C 0.79896 0.67298 0.21325 0.0
C2343 C 0.81085 0.66348 0.22117 0.0
C2344 C 0.81664 0.66809 0.2371 0.0
C2345 C 0.80967 0.68208 0.2452 0.0
C2346 C 0.79785 0.69172 0.23716 0.0
H2347 H 0.80153 0.71286 0.17768 0.0
H2348 H 0.80923 0.70288 0.19638 0.0
H2349 H 0.79989 0.6906 0.18028 0.0
H2350 H 0.79486 0.66907 0.20098 0.0
H2351 H 0.81577 0.65266 0.21465 0.0
H2352 H 0.77813 0.24391 0.65817 0.0
H2353 H 0.79308 0.26524 0.67363 0.0
H2354 H 0.80669 0.22807 0.71049 0.0
H2355 H 0.79192 0.20686 0.69518 0.0
H2356 H 0.79697 0.26074 0.72432 0.0
H2357 H 0.84237 0.26535 0.67496 0.0
H2358 H 0.82234 0.26762 0.66814 0.0
H2359 H 0.82936 0.2478 0.67618 0.0
C2360 C 0.78416 0.24036 0.66967 0.0
C2361 C 0.78392 0.22361 0.67532 0.0
C2362 C 0.79281 0.25253 0.67845 0.0
C2363 C 0.80124 0.24826 0.69317 0.0
C2364 C 0.80042 0.23172 0.69917 0.0
H2365 H 0.87888 0.30282 0.73955 0.0
H2366 H 0.86193 0.28098 0.72786 0.0
C2367 C 0.79198 0.21957 0.69034 0.0
C2368 C 0.81125 0.26075 0.70217 0.0
H2369 H 0.84484 0.28315 0.6985 0.0
C2370 C 0.8074 0.26569 0.71864 0.0
C2371 C 0.82506 0.26701 0.69497 0.0
C2372 C 0.83019 0.26165 0.67764 0.0
C2373 C 0.81679 0.27686 0.72793 0.0
C2374 C 0.83046 0.2834 0.7206 0.0
C2375 C 0.83441 0.27824 0.70421 0.0
C2376 C 0.84057 0.29595 0.72946 0.0
C2377 C 0.81209 0.2813 0.74566 0.0
C2378 C 0.83433 0.31162 0.73455 0.0
C2379 C 0.84399 0.32398 0.74137 0.0
C2380 C 0.86017 0.32107 0.74339 0.0
C2381 C 0.86641 0.30526 0.73871 0.0
C2382 C 0.85673 0.29286 0.7318 0.0
H2383 H 0.80432 0.27172 0.75108 0.0
H2384 H 0.82249 0.28255 0.75394 0.0
H2385 H 0.80558 0.29351 0.74559 0.0
H2386 H 0.82207 0.31462 0.73255 0.0
H2387 H 0.83892 0.33619 0.74429 0.0
H2388 H 0.21991 0.32837 0.25426 0.0
H2389 H 0.23976 0.31332 0.238 0.0
H2390 H 0.25653 0.36027 0.21907 0.0
H2391 H 0.23691 0.37565 0.23575 0.0
H2392 H 0.25141 0.33417 0.19382 0.0
H2393 H 0.28754 0.31073 0.24741 0.0
H2394 H 0.26696 0.30694 0.24885 0.0
H2395 H 0.27378 0.32813 0.24942 0.0
C2396 C 0.22799 0.33565 0.24699 0.0
C2397 C 0.22681 0.35338 0.24664 0.0
C2398 C 0.23933 0.32693 0.23757 0.0
C2399 C 0.24981 0.33562 0.22744 0.0
C2400 C 0.24861 0.35327 0.22683 0.0
H2401 H 0.32465 0.3084 0.15871 0.0
H2402 H 0.30302 0.32185 0.17372 0.0
C2403 C 0.2373 0.36205 0.23637 0.0
C2404 C 0.26175 0.32621 0.21726 0.0
H2405 H 0.29397 0.30019 0.22048 0.0
C2406 C 0.26076 0.32679 0.19965 0.0
C2407 C 0.27384 0.31638 0.22482 0.0
C2408 C 0.27575 0.31554 0.24366 0.0
C2409 C 0.2714 0.31773 0.18942 0.0
C2410 C 0.2837 0.30813 0.19697 0.0
C2411 C 0.28458 0.30745 0.21461 0.0
C2412 C 0.29621 0.29941 0.18688 0.0
C2413 C 0.26909 0.31827 0.17062 0.0
C2414 C 0.29987 0.28223 0.18927 0.0
C2415 C 0.31247 0.27447 0.18077 0.0
C2416 C 0.32181 0.28378 0.16981 0.0
C2417 C 0.3178 0.30083 0.1671 0.0
C2418 C 0.30527 0.30854 0.17558 0.0
H2419 H 0.25669 0.32106 0.16724 0.0
H2420 H 0.27625 0.32843 0.16533 0.0
H2421 H 0.2727 0.30619 0.16464 0.0
H2422 H 0.29316 0.27487 0.19798 0.0
H2423 H 0.31533 0.2614 0.18336 0.0
H2424 H 0.34329 0.24467 0.19168 0.0
H2425 H 0.32643 0.23257 0.21316 0.0
H2426 H 0.36723 0.21247 0.23882 0.0
H2427 H 0.38402 0.22509 0.21758 0.0
H2428 H 0.32235 0.20068 0.21979 0.0
H2429 H 0.34375 0.22985 0.27843 0.0
H2430 H 0.34905 0.23752 0.25797 0.0
H2431 H 0.3593 0.2197 0.26705 0.0
C2432 C 0.34863 0.23822 0.20229 0.0
C2433 C 0.36497 0.23625 0.20325 0.0
C2434 C 0.33899 0.23111 0.21448 0.0
C2435 C 0.34544 0.2217 0.2279 0.0
C2436 C 0.36185 0.22004 0.229 0.0
H2437 H 0.31134 0.15323 0.3035 0.0
H2438 H 0.32617 0.16929 0.28318 0.0
C2439 C 0.3715 0.2273 0.21687 0.0
C2440 C 0.33502 0.2126 0.23987 0.0
H2441 H 0.32828 0.20531 0.28162 0.0
C2442 C 0.32356 0.20189 0.23331 0.0
C2443 C 0.33646 0.21403 0.25759 0.0
C2444 C 0.34769 0.22603 0.26567 0.0
C2445 C 0.31394 0.19233 0.24383 0.0
C2446 C 0.31566 0.19348 0.2615 0.0
C2447 C 0.32697 0.20431 0.26809 0.0
C2448 C 0.3062 0.18323 0.27337 0.0
C2449 C 0.3023 0.18066 0.23595 0.0
C2450 C 0.28989 0.18551 0.27466 0.0
C2451 C 0.2813 0.17638 0.28647 0.0
C2452 C 0.28881 0.16476 0.29735 0.0
C2453 C 0.30509 0.16223 0.29564 0.0
C2454 C 0.31365 0.1714 0.28393 0.0
H2455 H 0.30453 0.17865 0.22235 0.0
H2456 H 0.3026 0.16827 0.24237 0.0
H2457 H 0.29036 0.18617 0.23733 0.0
H2458 H 0.28384 0.19469 0.26683 0.0
H2459 H 0.26886 0.17892 0.2875 0.0
H2460 H 0.36993 0.77764 0.79849 0.0
H2461 H 0.35381 0.7883 0.775 0.0
H2462 H 0.31353 0.79015 0.80727 0.0
H2463 H 0.3295 0.77898 0.83045 0.0
H2464 H 0.30464 0.7809 0.7767 0.0
H2465 H 0.34151 0.83691 0.77049 0.0
H2466 H 0.35218 0.81757 0.76717 0.0
H2467 H 0.34398 0.82214 0.7875 0.0
C2468 C 0.35753 0.77973 0.80038 0.0
C2469 C 0.35095 0.77709 0.81628 0.0
C2470 C 0.34834 0.7862 0.78702 0.0
C2471 C 0.33241 0.79052 0.78932 0.0
C2472 C 0.32572 0.78706 0.80501 0.0
H2473 H 0.28197 0.86329 0.72453 0.0
H2474 H 0.29408 0.84858 0.74859 0.0
C2475 C 0.33486 0.78054 0.81829 0.0
C2476 C 0.32282 0.79918 0.77578 0.0
H2477 H 0.32159 0.83366 0.74998 0.0
C2478 C 0.30839 0.79244 0.77088 0.0
C2479 C 0.32734 0.81453 0.76834 0.0
C2480 C 0.34201 0.82333 0.77374 0.0
C2481 C 0.29863 0.80033 0.7587 0.0
C2482 C 0.30347 0.81531 0.75076 0.0
C2483 C 0.31778 0.82218 0.75586 0.0
C2484 C 0.29413 0.82392 0.73697 0.0
C2485 C 0.28301 0.7927 0.75484 0.0
C2486 C 0.28967 0.8151 0.72242 0.0
C2487 C 0.28243 0.82347 0.70883 0.0
C2488 C 0.27952 0.84095 0.70928 0.0
C2489 C 0.28353 0.84975 0.72398 0.0
C2490 C 0.29072 0.84134 0.73766 0.0
H2491 H 0.27881 0.78515 0.76557 0.0
H2492 H 0.27403 0.8025 0.75181 0.0
H2493 H 0.28424 0.78414 0.74388 0.0
H2494 H 0.29248 0.80183 0.72115 0.0
H2495 H 0.27993 0.81643 0.69749 0.0
H2496 H 0.72696 0.8738 0.29907 0.0
H2497 H 0.7156 0.85908 0.27483 0.0
H2498 H 0.73372 0.8119 0.29409 0.0
H2499 H 0.74463 0.82661 0.31852 0.0
H2500 H 0.72561 0.83987 0.24943 0.0
H2501 H 0.68847 0.8009 0.2898 0.0
H2502 H 0.69953 0.81817 0.298 0.0
H2503 H 0.70889 0.79803 0.29435 0.0
C2504 C 0.72885 0.86035 0.29785 0.0
C2505 C 0.7369 0.85139 0.31054 0.0
C2506 C 0.72223 0.85188 0.28406 0.0
C2507 C 0.72338 0.83422 0.28268 0.0
C2508 C 0.7322 0.82542 0.29496 0.0
H2509 H 0.69765 0.78078 0.18948 0.0
H2510 H 0.7118 0.79228 0.21369 0.0
C2511 C 0.73869 0.83387 0.3088 0.0
C2512 C 0.71506 0.82508 0.26873 0.0
H2513 H 0.6888 0.79396 0.26076 0.0
C2514 C 0.71758 0.82983 0.25195 0.0
C2515 C 0.70425 0.81214 0.27184 0.0
C2516 C 0.69997 0.80711 0.28947 0.0
C2517 C 0.70986 0.82197 0.23837 0.0
C2518 C 0.69953 0.80857 0.24145 0.0
C2519 C 0.69685 0.80398 0.25823 0.0
C2520 C 0.69102 0.79963 0.2275 0.0
C2521 C 0.71253 0.82854 0.22087 0.0
C2522 C 0.67457 0.79876 0.22747 0.0
C2523 C 0.66649 0.79171 0.21377 0.0
C2524 C 0.67465 0.78525 0.19982 0.0
C2525 C 0.69107 0.7854 0.20017 0.0
C2526 C 0.69916 0.79229 0.21391 0.0
H2527 H 0.71682 0.84163 0.22111 0.0
H2528 H 0.72153 0.82055 0.21458 0.0
H2529 H 0.70164 0.82829 0.21322 0.0
H2530 H 0.66792 0.8042 0.23773 0.0
H2531 H 0.65383 0.79214 0.21367 0.0
H2532 H 0.73145 0.15548 0.71659 0.0
H2533 H 0.71975 0.16959 0.74115 0.0
H2534 H 0.73448 0.21744 0.72223 0.0
H2535 H 0.74574 0.20334 0.69752 0.0
H2536 H 0.72883 0.18901 0.76678 0.0
H2537 H 0.68858 0.22695 0.72676 0.0
H2538 H 0.70062 0.21008 0.71843 0.0
H2539 H 0.70873 0.23048 0.72215 0.0
C2540 C 0.73258 0.16895 0.71796 0.0
C2541 C 0.73978 0.17825 0.70526 0.0
C2542 C 0.72574 0.17708 0.73194 0.0
C2543 C 0.72578 0.19474 0.73351 0.0
C2544 C 0.7338 0.2039 0.72125 0.0
H2545 H 0.69773 0.24682 0.82728 0.0
H2546 H 0.71234 0.23586 0.80303 0.0
C2547 C 0.74053 0.1958 0.70724 0.0
C2548 C 0.71706 0.20353 0.74759 0.0
H2549 H 0.68888 0.23373 0.75583 0.0
C2550 C 0.72012 0.19879 0.76434 0.0
C2551 C 0.70535 0.21612 0.7446 0.0
C2552 C 0.70048 0.2211 0.72702 0.0
C2553 C 0.7121 0.20634 0.778 0.0
C2554 C 0.70084 0.21941 0.77506 0.0
C2555 C 0.69762 0.22397 0.75829 0.0
C2556 C 0.69191 0.22801 0.7891 0.0
C2557 C 0.71547 0.19978 0.79545 0.0
C2558 C 0.67542 0.22843 0.78912 0.0
C2559 C 0.66704 0.23515 0.80286 0.0
C2560 C 0.67491 0.24174 0.8169 0.0
C2561 C 0.69133 0.24206 0.81656 0.0
C2562 C 0.6997 0.23548 0.80278 0.0
H2563 H 0.72063 0.18686 0.79514 0.0
H2564 H 0.72402 0.20804 0.80174 0.0
H2565 H 0.70469 0.19963 0.80315 0.0
H2566 H 0.669 0.22289 0.7788 0.0
H2567 H 0.65442 0.23436 0.80292 0.0
H2568 H 0.77691 0.82545 0.6835 0.0
H2569 H 0.79152 0.80334 0.69853 0.0
H2570 H 0.81561 0.79003 0.6528 0.0
H2571 H 0.80135 0.81271 0.63792 0.0
H2572 H 0.79505 0.77018 0.69653 0.0
H2573 H 0.85233 0.79834 0.68292 0.0
H2574 H 0.83405 0.80901 0.67819 0.0
H2575 H 0.84155 0.79287 0.66437 0.0
C2576 C 0.7852 0.8177 0.67662 0.0
C2577 C 0.78812 0.82097 0.65958 0.0
C2578 C 0.7936 0.80503 0.68523 0.0
C2579 C 0.80512 0.79524 0.67701 0.0
C2580 C 0.80722 0.79771 0.65965 0.0
H2581 H 0.86822 0.71496 0.7153 0.0
H2582 H 0.85378 0.73498 0.69736 0.0
C2583 C 0.79888 0.8105 0.65106 0.0
C2584 C 0.81505 0.78284 0.68678 0.0
H2585 H 0.85295 0.77223 0.69719 0.0
C2586 C 0.80771 0.77068 0.69664 0.0
C2587 C 0.83163 0.7834 0.6871 0.0
C2588 C 0.84038 0.7967 0.67773 0.0
C2589 C 0.81638 0.75915 0.70661 0.0
C2590 C 0.83291 0.75975 0.70693 0.0
C2591 C 0.8403 0.77171 0.69693 0.0
C2592 C 0.84263 0.7483 0.71789 0.0
C2593 C 0.80777 0.74628 0.71668 0.0
C2594 C 0.84166 0.74943 0.73547 0.0
C2595 C 0.8501 0.73816 0.7458 0.0
C2596 C 0.85971 0.72533 0.73887 0.0
C2597 C 0.86112 0.72469 0.72122 0.0
C2598 C 0.85274 0.73607 0.71088 0.0
H2599 H 0.79551 0.74496 0.71227 0.0
H2600 H 0.81379 0.7338 0.71597 0.0
H2601 H 0.80752 0.75022 0.73006 0.0
H2602 H 0.83422 0.75896 0.74124 0.0
H2603 H 0.84891 0.73942 0.75928 0.0
H2604 H 0.73866 0.29369 0.14508 0.0
H2605 H 0.75733 0.31086 0.16071 0.0
H2606 H 0.73998 0.29163 0.20739 0.0
H2607 H 0.72102 0.27494 0.19212 0.0
H2608 H 0.75065 0.33607 0.18736 0.0
H2609 H 0.78826 0.28301 0.21007 0.0
H2610 H 0.77509 0.28101 0.19238 0.0
H2611 H 0.76762 0.28093 0.21341 0.0
C2612 C 0.7387 0.29312 0.15867 0.0
C2613 C 0.72832 0.28259 0.16719 0.0
C2614 C 0.74948 0.30294 0.16761 0.0
C2615 C 0.75027 0.30238 0.18526 0.0
C2616 C 0.73987 0.29205 0.19379 0.0
H2617 H 0.81274 0.34652 0.26099 0.0
H2618 H 0.79165 0.33141 0.2468 0.0
C2619 C 0.72905 0.28237 0.18493 0.0
C2620 C 0.76172 0.31276 0.19487 0.0
H2621 H 0.79358 0.30992 0.22104 0.0
C2622 C 0.76008 0.33036 0.19466 0.0
C2623 C 0.77392 0.30536 0.20462 0.0
C2624 C 0.77648 0.28655 0.20511 0.0
C2625 C 0.77015 0.34071 0.20403 0.0
C2626 C 0.78257 0.33333 0.21357 0.0
C2627 C 0.78411 0.31569 0.21384 0.0
C2628 C 0.79446 0.34362 0.22275 0.0
C2629 C 0.76705 0.35945 0.20393 0.0
C2630 C 0.80307 0.35573 0.21416 0.0
C2631 C 0.81496 0.36453 0.22231 0.0
C2632 C 0.81885 0.36135 0.23927 0.0
C2633 C 0.80998 0.34952 0.24802 0.0
C2634 C 0.798 0.34072 0.23984 0.0
H2635 H 0.75456 0.36247 0.2012 0.0
H2636 H 0.77022 0.36526 0.21615 0.0
H2637 H 0.77411 0.36524 0.19392 0.0
H2638 H 0.80096 0.35803 0.20094 0.0
H2639 H 0.82142 0.3736 0.21514 0.0
H2640 H 0.14964 0.30696 0.72311 0.0
H2641 H 0.16147 0.28196 0.70949 0.0
H2642 H 0.20621 0.29414 0.73094 0.0
H2643 H 0.19436 0.31885 0.74474 0.0
H2644 H 0.20518 0.28821 0.69378 0.0
H2645 H 0.17952 0.23674 0.73117 0.0
H2646 H 0.16639 0.25321 0.72395 0.0
H2647 H 0.18117 0.25789 0.73923 0.0
C2648 C 0.1619 0.30402 0.72524 0.0
C2649 C 0.17103 0.31478 0.73512 0.0
C2650 C 0.16869 0.28979 0.71739 0.0
C2651 C 0.18478 0.28611 0.71915 0.0
C2652 C 0.1938 0.29666 0.72935 0.0
H2653 H 0.2408 0.19804 0.68967 0.0
H2654 H 0.22905 0.22255 0.70393 0.0
C2655 C 0.187 0.31075 0.73732 0.0
C2656 C 0.19236 0.27175 0.70981 0.0
H2657 H 0.19489 0.22875 0.70781 0.0
C2658 C 0.20289 0.27521 0.69683 0.0
C2659 C 0.1895 0.25476 0.71381 0.0
C2660 C 0.17862 0.25029 0.72786 0.0
C2661 C 0.21047 0.2622 0.68769 0.0
C2662 C 0.20753 0.24521 0.69161 0.0
C2663 C 0.19712 0.24174 0.70471 0.0
C2664 C 0.21535 0.23085 0.68248 0.0
C2665 C 0.2218 0.26669 0.67406 0.0
C2666 C 0.21177 0.22736 0.66554 0.0
C2667 C 0.21845 0.21325 0.65739 0.0
C2668 C 0.22892 0.20239 0.66596 0.0
C2669 C 0.23284 0.20619 0.68272 0.0
C2670 C 0.22606 0.22017 0.69091 0.0
H2671 H 0.22484 0.2802 0.67446 0.0
H2672 H 0.23271 0.25896 0.67521 0.0
H2673 H 0.21648 0.26399 0.66162 0.0
H2674 H 0.20345 0.23528 0.65877 0.0
H2675 H 0.21506 0.2105 0.64456 0.0
H2676 H 0.22507 0.65118 0.22061 0.0
H2677 H 0.24458 0.66741 0.20573 0.0
H2678 H 0.24432 0.70398 0.24581 0.0
H2679 H 0.22498 0.6875 0.26094 0.0
H2680 H 0.24168 0.69798 0.19304 0.0
H2681 H 0.29046 0.69872 0.23917 0.0
H2682 H 0.27407 0.68501 0.24137 0.0
H2683 H 0.27234 0.70677 0.24744 0.0
C2684 C 0.22936 0.66253 0.22641 0.0
C2685 C 0.22348 0.66794 0.24205 0.0
C2686 C 0.24052 0.67187 0.21784 0.0
C2687 C 0.24616 0.68696 0.22458 0.0
C2688 C 0.24055 0.69223 0.24041 0.0
H2689 H 0.30985 0.76122 0.18064 0.0
H2690 H 0.28981 0.74779 0.19775 0.0
C2691 C 0.22946 0.68277 0.2491 0.0
C2692 C 0.25714 0.69746 0.21451 0.0
H2693 H 0.29295 0.71609 0.21517 0.0
C2694 C 0.2529 0.70187 0.19794 0.0
C2695 C 0.27181 0.70277 0.22077 0.0
C2696 C 0.27754 0.69796 0.2381 0.0
C2697 C 0.26279 0.71124 0.18757 0.0
C2698 C 0.27751 0.71633 0.19374 0.0
C2699 C 0.28167 0.71227 0.2104 0.0
C2700 C 0.28906 0.72505 0.18282 0.0
C2701 C 0.25732 0.71572 0.17006 0.0
C2702 C 0.2953 0.71691 0.1686 0.0
C2703 C 0.30675 0.72454 0.15884 0.0
C2704 C 0.31233 0.74059 0.16296 0.0
C2705 C 0.30575 0.74897 0.17694 0.0
C2706 C 0.29436 0.74122 0.18683 0.0
H2707 H 0.24441 0.71502 0.1688 0.0
H2708 H 0.26095 0.72857 0.16659 0.0
H2709 H 0.26263 0.70671 0.16097 0.0
H2710 H 0.2916 0.70438 0.16529 0.0
H2711 H 0.31149 0.71769 0.14818 0.0
H2712 H 0.83931 0.33924 0.28053 0.0
H2713 H 0.82369 0.31738 0.29366 0.0
H2714 H 0.86594 0.28997 0.30694 0.0
H2715 H 0.88157 0.31195 0.29382 0.0
H2716 H 0.82111 0.282 0.28988 0.0
H2717 H 0.84501 0.29869 0.35265 0.0
H2718 H 0.84755 0.31175 0.3344 0.0
H2719 H 0.85936 0.29302 0.33715 0.0
C2720 C 0.84522 0.32824 0.28573 0.0
C2721 C 0.86164 0.32712 0.28584 0.0
C2722 C 0.83629 0.31581 0.2934 0.0
C2723 C 0.84359 0.30211 0.30162 0.0
C2724 C 0.86 0.30051 0.30094 0.0
H2725 H 0.80628 0.22342 0.36682 0.0
H2726 H 0.82315 0.24245 0.35135 0.0
C2727 C 0.86893 0.31292 0.29318 0.0
C2728 C 0.83404 0.2901 0.31159 0.0
H2729 H 0.82747 0.27618 0.35161 0.0
C2730 C 0.82252 0.28072 0.30338 0.0
C2731 C 0.83581 0.28837 0.32924 0.0
C2732 C 0.84749 0.29857 0.33896 0.0
C2733 C 0.81292 0.2696 0.31222 0.0
C2734 C 0.81452 0.26804 0.32992 0.0
C2735 C 0.82615 0.27731 0.3381 0.0
C2736 C 0.80418 0.257 0.34014 0.0
C2737 C 0.80136 0.25934 0.30238 0.0
C2738 C 0.78782 0.25909 0.33962 0.0
C2739 C 0.77813 0.24824 0.3485 0.0
C2740 C 0.78449 0.23505 0.35836 0.0
C2741 C 0.8009 0.23347 0.35952 0.0
C2742 C 0.8106 0.24431 0.35055 0.0
H2743 H 0.80478 0.25809 0.28898 0.0
H2744 H 0.80029 0.24656 0.30778 0.0
H2745 H 0.78972 0.26571 0.30277 0.0
H2746 H 0.78249 0.26908 0.3322 0.0
H2747 H 0.76559 0.25009 0.3475 0.0
H2748 H 0.24287 0.34489 0.76207 0.0
H2749 H 0.26491 0.33157 0.777 0.0
H2750 H 0.24628 0.34927 0.82414 0.0
H2751 H 0.224 0.36241 0.8093 0.0
H2752 H 0.28786 0.34486 0.79823 0.0
H2753 H 0.25254 0.29875 0.83286 0.0
H2754 H 0.24484 0.31058 0.81523 0.0
H2755 H 0.24646 0.32033 0.83554 0.0
C2756 C 0.24339 0.34596 0.77562 0.0
C2757 C 0.23146 0.35471 0.7844 0.0
C2758 C 0.25609 0.33834 0.78418 0.0
C2759 C 0.25723 0.33905 0.8018 0.0
C2760 C 0.24561 0.34818 0.81059 0.0
H2761 H 0.32561 0.29787 0.87478 0.0
H2762 H 0.30231 0.31012 0.86082 0.0
C2763 C 0.23293 0.35592 0.80203 0.0
C2764 C 0.2706 0.33031 0.81084 0.0
H2765 H 0.2795 0.29944 0.8396 0.0
C2766 C 0.286 0.3349 0.80724 0.0
C2767 C 0.26832 0.31731 0.8227 0.0
C2768 C 0.25217 0.3113 0.82676 0.0
C2769 C 0.29904 0.32713 0.81525 0.0
C2770 C 0.29679 0.31395 0.82695 0.0
C2771 C 0.28136 0.30943 0.83064 0.0
C2772 C 0.31027 0.30488 0.83553 0.0
C2773 C 0.3151 0.33353 0.81141 0.0
C2774 C 0.32233 0.29712 0.82615 0.0
C2775 C 0.33561 0.29008 0.83416 0.0
C2776 C 0.33705 0.29025 0.85177 0.0
C2777 C 0.32466 0.29719 0.86122 0.0
C2778 C 0.31139 0.30434 0.8532 0.0
H2779 H 0.31455 0.34656 0.80641 0.0
H2780 H 0.3227 0.33336 0.82278 0.0
H2781 H 0.32063 0.32538 0.80171 0.0
H2782 H 0.32169 0.29689 0.81257 0.0
H2783 H 0.34507 0.28507 0.82654 0.0
H2784 H 0.23387 0.82649 0.32817 0.0
H2785 H 0.22293 0.80231 0.31366 0.0
H2786 H 0.23232 0.77158 0.35726 0.0
H2787 H 0.24317 0.79607 0.37195 0.0
H2788 H 0.23387 0.77149 0.30432 0.0
H2789 H 0.186 0.76424 0.35019 0.0
H2790 H 0.19838 0.78232 0.35013 0.0
H2791 H 0.20521 0.76288 0.35934 0.0
C2792 C 0.23389 0.81454 0.33459 0.0
C2793 C 0.23955 0.81324 0.3512 0.0
C2794 C 0.22753 0.80066 0.32628 0.0
C2795 C 0.22646 0.78504 0.33436 0.0
C2796 C 0.23265 0.78352 0.35078 0.0
H2797 H 0.20259 0.68994 0.28504 0.0
H2798 H 0.21614 0.71423 0.29662 0.0
C2799 C 0.23906 0.79747 0.35913 0.0
C2800 C 0.21854 0.77067 0.32562 0.0
H2801 H 0.18801 0.74363 0.32878 0.0
C2802 C 0.22386 0.7654 0.30972 0.0
C2803 C 0.20523 0.76282 0.33237 0.0
C2804 C 0.19823 0.76842 0.34886 0.0
C2805 C 0.21647 0.7525 0.30057 0.0
C2806 C 0.20343 0.74432 0.30754 0.0
C2807 C 0.198 0.74974 0.32336 0.0
C2808 C 0.19536 0.73004 0.29882 0.0
C2809 C 0.22251 0.74807 0.28332 0.0
C2810 C 0.17906 0.73056 0.29606 0.0
C2811 C 0.17128 0.7166 0.28935 0.0
C2812 C 0.17961 0.70175 0.28523 0.0
C2813 C 0.19593 0.70138 0.28759 0.0
C2814 C 0.20369 0.7153 0.29428 0.0
H2815 H 0.22904 0.7586 0.27775 0.0
H2816 H 0.23065 0.73707 0.28431 0.0
H2817 H 0.21282 0.74475 0.27465 0.0
H2818 H 0.17226 0.74165 0.29953 0.0
H2819 H 0.15866 0.71709 0.28823 0.0
H2820 H 0.82785 0.69075 0.7787 0.0
H2821 H 0.80511 0.7057 0.79056 0.0
H2822 H 0.79526 0.66253 0.82106 0.0
H2823 H 0.81793 0.64746 0.80893 0.0
H2824 H 0.76839 0.67676 0.80849 0.0
H2825 H 0.80405 0.72709 0.8366 0.0
H2826 H 0.8063 0.72503 0.81428 0.0
H2827 H 0.81268 0.70815 0.82785 0.0
C2828 C 0.82073 0.68437 0.78778 0.0
C2829 C 0.82479 0.66794 0.79295 0.0
C2830 C 0.80779 0.69302 0.79474 0.0
C2831 C 0.79859 0.68553 0.80716 0.0
C2832 C 0.80218 0.66876 0.81168 0.0
H2833 H 0.71969 0.71395 0.87129 0.0
H2834 H 0.74191 0.70035 0.85732 0.0
C2835 C 0.81511 0.6601 0.80468 0.0
C2836 C 0.78536 0.69512 0.81552 0.0
H2837 H 0.77655 0.73063 0.8385 0.0
C2838 C 0.77024 0.68851 0.81508 0.0
C2839 C 0.78757 0.71056 0.82416 0.0
C2840 C 0.80354 0.71808 0.82593 0.0
C2841 C 0.7574 0.69687 0.82276 0.0
C2842 C 0.75963 0.71222 0.83152 0.0
C2843 C 0.77471 0.71893 0.83182 0.0
C2844 C 0.74655 0.72116 0.84076 0.0
C2845 C 0.74145 0.68928 0.82111 0.0
C2846 C 0.74201 0.73784 0.83684 0.0
C2847 C 0.72921 0.74577 0.84495 0.0
C2848 C 0.72063 0.73726 0.85726 0.0
C2849 C 0.72571 0.72085 0.86166 0.0
C2850 C 0.73846 0.71298 0.85359 0.0
H2851 H 0.74081 0.68057 0.8102 0.0
H2852 H 0.73895 0.68197 0.83261 0.0
H2853 H 0.73221 0.69918 0.81966 0.0
H2854 H 0.74809 0.74457 0.82713 0.0
H2855 H 0.72566 0.75833 0.84109 0.0
H2856 H 0.75912 0.8479 0.73384 0.0
H2857 H 0.7448 0.83181 0.75467 0.0
H2858 H 0.70132 0.84563 0.73032 0.0
H2859 H 0.71559 0.86148 0.70919 0.0
H2860 H 0.72157 0.84134 0.77745 0.0
H2861 H 0.69864 0.79434 0.73247 0.0
H2862 H 0.71413 0.80841 0.72712 0.0
H2863 H 0.69416 0.81584 0.72715 0.0
C2864 C 0.7465 0.84753 0.73284 0.0
C2865 C 0.73859 0.856 0.71965 0.0
C2866 C 0.7383 0.83832 0.74485 0.0
C2867 C 0.72194 0.83713 0.74398 0.0
C2868 C 0.71394 0.84599 0.73115 0.0
H2869 H 0.65268 0.78696 0.80648 0.0
H2870 H 0.66646 0.80089 0.78349 0.0
C2871 C 0.72214 0.85529 0.71917 0.0
C2872 C 0.71335 0.82674 0.75654 0.0
H2873 H 0.6895 0.79283 0.76047 0.0
C2874 C 0.71461 0.8307 0.77371 0.0
C2875 C 0.70416 0.81283 0.75178 0.0
C2876 C 0.70275 0.80745 0.73365 0.0
C2877 C 0.70684 0.82143 0.78612 0.0
C2878 C 0.6978 0.80739 0.78139 0.0
C2879 C 0.69645 0.80347 0.7642 0.0
C2880 C 0.68957 0.79684 0.79413 0.0
C2881 C 0.70806 0.82711 0.80418 0.0
C2882 C 0.69791 0.78907 0.8074 0.0
C2883 C 0.69003 0.78104 0.82046 0.0
C2884 C 0.67364 0.78024 0.82043 0.0
C2885 C 0.66533 0.78699 0.80662 0.0
C2886 C 0.67322 0.79513 0.79357 0.0
H2887 H 0.71146 0.84048 0.80514 0.0
H2888 H 0.69682 0.82558 0.81085 0.0
H2889 H 0.71716 0.81939 0.81071 0.0
H2890 H 0.71052 0.78978 0.80802 0.0
H2891 H 0.69671 0.77624 0.8311 0.0
H2892 H 0.72251 0.15218 0.31264 0.0
H2893 H 0.71111 0.16408 0.28665 0.0
H2894 H 0.73171 0.21178 0.29809 0.0
H2895 H 0.74323 0.19984 0.32387 0.0
H2896 H 0.69853 0.21345 0.29009 0.0
H2897 H 0.73255 0.17813 0.24184 0.0
H2898 H 0.72406 0.16572 0.25816 0.0
H2899 H 0.73921 0.18016 0.26333 0.0
C2900 C 0.72491 0.16508 0.30935 0.0
C2901 C 0.73393 0.17501 0.32019 0.0
C2902 C 0.71834 0.17191 0.29453 0.0
C2903 C 0.72055 0.18887 0.29028 0.0
C2904 C 0.72981 0.19869 0.301 0.0
H2905 H 0.69812 0.24193 0.19658 0.0
H2906 H 0.71049 0.23052 0.22216 0.0
C2907 C 0.73649 0.19182 0.3157 0.0
C2908 C 0.71271 0.19661 0.27513 0.0
H2909 H 0.71156 0.19538 0.23207 0.0
C2910 C 0.70138 0.20947 0.27741 0.0
C2911 C 0.71645 0.19159 0.25851 0.0
C2912 C 0.7288 0.17824 0.25518 0.0
C2913 C 0.69362 0.21723 0.26365 0.0
C2914 C 0.69721 0.21205 0.24705 0.0
C2915 C 0.70868 0.19934 0.24475 0.0
C2916 C 0.68936 0.2198 0.2319 0.0
C2917 C 0.6818 0.23113 0.26696 0.0
C2918 C 0.67329 0.2178 0.22878 0.0
C2919 C 0.66622 0.2243 0.21407 0.0
C2920 C 0.67504 0.23304 0.20221 0.0
C2921 C 0.69101 0.23539 0.20554 0.0
C2922 C 0.6981 0.22877 0.22014 0.0
H2923 H 0.68264 0.236 0.28003 0.0
H2924 H 0.68337 0.24171 0.25809 0.0
H2925 H 0.66986 0.22626 0.26502 0.0
H2926 H 0.66628 0.21078 0.23749 0.0
H2927 H 0.65396 0.22208 0.21171 0.0
H2928 H 0.29635 0.14748 0.73054 0.0
H2929 H 0.31452 0.16332 0.74819 0.0
H2930 H 0.29516 0.20986 0.72896 0.0
H2931 H 0.27746 0.19435 0.71089 0.0
H2932 H 0.3371 0.18986 0.73631 0.0
H2933 H 0.29297 0.21364 0.78201 0.0
H2934 H 0.28992 0.19517 0.76924 0.0
H2935 H 0.28804 0.2157 0.76009 0.0
C2936 C 0.29596 0.16107 0.72995 0.0
C2937 C 0.28515 0.16951 0.71931 0.0
C2938 C 0.30635 0.17012 0.74014 0.0
C2939 C 0.30608 0.1878 0.74007 0.0
C2940 C 0.29542 0.19625 0.72947 0.0
H2941 H 0.35344 0.26454 0.79988 0.0
H2942 H 0.33715 0.25 0.77918 0.0
C2943 C 0.28517 0.18727 0.7192 0.0
C2944 C 0.31707 0.19753 0.75081 0.0
H2945 H 0.31842 0.22426 0.78451 0.0
C2946 C 0.33305 0.19732 0.7469 0.0
C2947 C 0.31176 0.20749 0.76447 0.0
C2948 C 0.29476 0.20802 0.76936 0.0
C2949 C 0.34382 0.20691 0.75615 0.0
C2950 C 0.33857 0.21664 0.77007 0.0
C2951 C 0.32253 0.21689 0.77387 0.0
C2952 C 0.34952 0.22607 0.78127 0.0
C2953 C 0.36064 0.20681 0.7506 0.0
C2954 C 0.36211 0.21766 0.78923 0.0
C2955 C 0.37157 0.22602 0.80085 0.0
C2956 C 0.36857 0.24298 0.80512 0.0
C2957 C 0.35626 0.25157 0.79677 0.0
C2958 C 0.34681 0.24319 0.78504 0.0
H2959 H 0.36167 0.20385 0.73699 0.0
H2960 H 0.36614 0.21911 0.75303 0.0
H2961 H 0.36728 0.19695 0.75762 0.0
H2962 H 0.36433 0.20441 0.78694 0.0
H2963 H 0.38098 0.21899 0.80692 0.0
H2964 H 0.29333 0.87195 0.28828 0.0
H2965 H 0.30892 0.85715 0.26706 0.0
H2966 H 0.28942 0.8101 0.2823 0.0
H2967 H 0.27441 0.82462 0.30409 0.0
H2968 H 0.32009 0.80615 0.27746 0.0
H2969 H 0.29497 0.83953 0.22231 0.0
H2970 H 0.30336 0.85353 0.23741 0.0
H2971 H 0.2866 0.84145 0.24298 0.0
C2972 C 0.29235 0.85845 0.28724 0.0
C2973 C 0.28236 0.84963 0.298 0.0
C2974 C 0.30119 0.84997 0.27487 0.0
C2975 C 0.30022 0.83245 0.27272 0.0
C2976 C 0.29037 0.82361 0.28349 0.0
H2977 H 0.33276 0.7797 0.18255 0.0
H2978 H 0.31735 0.79105 0.20597 0.0
C2979 C 0.28159 0.83204 0.2959 0.0
C2980 C 0.30961 0.82325 0.25951 0.0
H2981 H 0.31734 0.8221 0.21733 0.0
C2982 C 0.31943 0.80964 0.26431 0.0
C2983 C 0.30869 0.82749 0.24223 0.0
C2984 C 0.29773 0.84118 0.23587 0.0
C2985 C 0.3284 0.80041 0.25247 0.0
C2986 C 0.32788 0.80503 0.23527 0.0
C2987 C 0.31792 0.81852 0.23047 0.0
C2988 C 0.33731 0.79605 0.22195 0.0
C2989 C 0.33805 0.78552 0.25851 0.0
C2990 C 0.35374 0.79455 0.22307 0.0
C2991 C 0.36253 0.78765 0.20973 0.0
C2992 C 0.35512 0.78218 0.19494 0.0
C2993 C 0.33873 0.7833 0.19399 0.0
C2994 C 0.32994 0.79004 0.20733 0.0
H2995 H 0.3336 0.78057 0.27058 0.0
H2996 H 0.33814 0.77519 0.2491 0.0
H2997 H 0.35026 0.78946 0.26064 0.0
H2998 H 0.35985 0.79945 0.23391 0.0
H2999 H 0.37517 0.78753 0.21056 0.0
loop_
_geom_bond_atom_site_label_1
_geom_bond_atom_site_label_2
_geom_bond_distance
_geom_bond_site_symmetry_2
_ccdc_geom_bond_type
C0 C1 1.443 . S
C0 N4 1.376 . S
C0 C38 1.389 . S
C1 C0 1.443 . S
C1 C2 1.340 . S
C1 H41 0.951 . S
C2 C1 1.340 . S
C2 C3 1.439 . S
C2 H42 0.950 . S
C3 C2 1.439 . S
C3 N4 1.374 . S
C3 C37 1.395 . S
N4 C0 1.376 . S
N4 C3 1.374 . S
N4 Co5 2.008 . S
Co5 N4 2.008 . S
Co5 N6 1.995 . S
Co5 N11 2.008 . S
Co5 N16 1.995 . S
Co5 N21 2.282 . S
Co5 N27 2.282 . S
N6 Co5 1.995 . S
N6 C7 1.376 . S
N6 C10 1.383 . S
C7 N6 1.376 . S
C7 C8 1.446 . S
C7 C37 1.391 . S
C8 C7 1.446 . S
C8 C9 1.339 . S
C8 H43 0.949 . S
C9 C8 1.339 . S
C9 C10 1.439 . S
C9 H44 0.950 . S
C10 N6 1.383 . S
C10 C9 1.439 . S
C10 C39 1.392 . S
N11 Co5 2.008 . S
N11 C12 1.376 . S
N11 C15 1.374 . S
C12 N11 1.376 . S
C12 C13 1.443 . S
C12 C39 1.389 . S
C13 C12 1.443 . S
C13 C14 1.340 . S
C13 H45 0.951 . S
C14 C13 1.340 . S
C14 C15 1.439 . S
C14 H46 0.950 . S
C15 N11 1.374 . S
C15 C14 1.439 . S
C15 C40 1.395 . S
N16 Co5 1.995 . S
N16 C17 1.376 . S
N16 C20 1.383 . S
C17 N16 1.376 . S
C17 C18 1.446 . S
C17 C40 1.391 . S
C18 C17 1.446 . S
C18 C19 1.339 . S
C18 H47 0.949 . S
C19 C18 1.339 . S
C19 C20 1.439 . S
C19 H48 0.950 . S
C20 N16 1.383 . S
C20 C19 1.439 . S
C20 C38 1.392 . S
N21 Co5 2.282 . S
N21 C24 1.332 . S
N21 C26 1.332 . S
C22 C23 1.386 . S
C22 C25 1.388 . S
C23 C22 1.386 . S
C23 C24 1.382 . S
C23 H49 0.950 . S
C24 N21 1.332 . S
C24 C23 1.382 . S
C24 H35 0.952 . S
C25 C22 1.388 . S
C25 C26 1.382 . S
C25 H50 0.950 . S
C26 N21 1.332 . S
C26 C25 1.382 . S
C26 H36 0.948 . S
N27 Co5 2.282 . S
N27 C31 1.332 . S
N27 C32 1.332 . S
C28 C29 1.388 . S
C28 C32 1.382 . S
C28 H51 0.950 . S
C29 C28 1.388 . S
C29 C30 1.386 . S
C30 C29 1.386 . S
C30 C31 1.382 . S
C30 H52 0.950 . S
C31 N27 1.332 . S
C31 C30 1.382 . S
C31 H33 0.952 . S
C32 N27 1.332 . S
C32 C28 1.382 . S
C32 H34 0.948 . S
H33 C31 0.952 . S
H34 C32 0.948 . S
H35 C24 0.952 . S
H36 C26 0.948 . S
C37 C3 1.395 . S
C37 C7 1.391 . S
C38 C0 1.389 . S
C38 C20 1.392 . S
C39 C10 1.392 . S
C39 C12 1.389 . S
C40 C15 1.395 . S
C40 C17 1.391 . S
H41 C1 0.951 . S
H42 C2 0.950 . S
H43 C8 0.949 . S
H44 C9 0.950 . S
H45 C13 0.951 . S
H46 C14 0.950 . S
H47 C18 0.949 . S
H48 C19 0.950 . S
H49 C23 0.950 . S
H50 C25 0.950 . S
H51 C28 0.950 . S
H52 C30 0.950 . S
C53 C54 1.443 . S
C53 N57 1.376 . S
C53 C91 1.389 . S
C54 C53 1.443 . S
C54 C55 1.340 . S
C54 H94 0.951 . S
C55 C54 1.340 . S
C55 C56 1.439 . S
C55 H95 0.950 . S
C56 C55 1.439 . S
C56 N57 1.374 . S
C56 C90 1.395 . S
N57 C53 1.376 . S
N57 C56 1.374 . S
N57 Co58 2.008 . S
Co58 N57 2.008 . S
Co58 N59 1.995 . S
Co58 N64 2.008 . S
Co58 N69 1.995 . S
Co58 N74 2.282 . S
Co58 N80 2.282 . S
N59 Co58 1.995 . S
N59 C60 1.376 . S
N59 C63 1.383 . S
C60 N59 1.376 . S
C60 C61 1.446 . S
C60 C90 1.391 . S
C61 C60 1.446 . S
C61 C62 1.339 . S
C61 H96 0.949 . S
C62 C61 1.339 . S
C62 C63 1.439 . S
C62 H97 0.950 . S
C63 N59 1.383 . S
C63 C62 1.439 . S
C63 C92 1.392 . S
N64 Co58 2.008 . S
N64 C65 1.376 . S
N64 C68 1.374 . S
C65 N64 1.376 . S
C65 C66 1.443 . S
C65 C92 1.389 . S
C66 C65 1.443 . S
C66 C67 1.340 . S
C66 H98 0.951 . S
C67 C66 1.340 . S
C67 C68 1.439 . S
C67 H99 0.950 . S
C68 N64 1.374 . S
C68 C67 1.439 . S
C68 C93 1.395 . S
N69 Co58 1.995 . S
N69 C70 1.376 . S
N69 C73 1.383 . S
C70 N69 1.376 . S
C70 C71 1.446 . S
C70 C93 1.391 . S
C71 C70 1.446 . S
C71 C72 1.339 . S
C71 H100 0.949 . S
C72 C71 1.339 . S
C72 C73 1.439 . S
C72 H101 0.950 . S
C73 N69 1.383 . S
C73 C72 1.439 . S
C73 C91 1.392 . S
N74 Co58 2.282 . S
N74 C77 1.332 . S
N74 C79 1.332 . S
C75 C76 1.386 . S
C75 C78 1.388 . S
C76 C75 1.386 . S
C76 C77 1.382 . S
C76 H102 0.950 . S
C77 N74 1.332 . S
C77 C76 1.382 . S
C77 H88 0.952 . S
C78 C75 1.388 . S
C78 C79 1.382 . S
C78 H103 0.950 . S
C79 N74 1.332 . S
C79 C78 1.382 . S
C79 H89 0.948 . S
N80 Co58 2.282 . S
N80 C84 1.332 . S
N80 C85 1.332 . S
C81 C82 1.388 . S
C81 C85 1.382 . S
C81 H104 0.950 . S
C82 C81 1.388 . S
C82 C83 1.386 . S
C83 C82 1.386 . S
C83 C84 1.382 . S
C83 H105 0.950 . S
C84 N80 1.332 . S
C84 C83 1.382 . S
C84 H86 0.952 . S
C85 N80 1.332 . S
C85 C81 1.382 . S
C85 H87 0.948 . S
H86 C84 0.952 . S
H87 C85 0.948 . S
H88 C77 0.952 . S
H89 C79 0.948 . S
C90 C56 1.395 . S
C90 C60 1.391 . S
C91 C53 1.389 . S
C91 C73 1.392 . S
C92 C63 1.392 . S
C92 C65 1.389 . S
C93 C68 1.395 . S
C93 C70 1.391 . S
H94 C54 0.951 . S
H95 C55 0.950 . S
H96 C61 0.949 . S
H97 C62 0.950 . S
H98 C66 0.951 . S
H99 C67 0.950 . S
H100 C71 0.949 . S
H101 C72 0.950 . S
H102 C76 0.950 . S
H103 C78 0.950 . S
H104 C81 0.950 . S
H105 C83 0.950 . S
C106 C107 1.443 . S
C106 N110 1.376 . S
C106 C144 1.389 . S
C107 C106 1.443 . S
C107 C108 1.340 . S
C107 H147 0.951 . S
C108 C107 1.340 . S
C108 C109 1.439 . S
C108 H148 0.950 . S
C109 C108 1.439 . S
C109 N110 1.374 . S
C109 C143 1.395 . S
N110 C106 1.376 . S
N110 C109 1.374 . S
N110 Co111 2.008 . S
Co111 N110 2.008 . S
Co111 N112 1.995 . S
Co111 N117 2.008 . S
Co111 N122 1.995 . S
Co111 N127 2.282 . S
Co111 N133 2.282 . S
N112 Co111 1.995 . S
N112 C113 1.376 . S
N112 C116 1.383 . S
C113 N112 1.376 . S
C113 C114 1.446 . S
C113 C143 1.391 . S
C114 C113 1.446 . S
C114 C115 1.339 . S
C114 H149 0.949 . S
C115 C114 1.339 . S
C115 C116 1.439 . S
C115 H150 0.950 . S
C116 N112 1.383 . S
C116 C115 1.439 . S
C116 C145 1.392 . S
N117 Co111 2.008 . S
N117 C118 1.376 . S
N117 C121 1.374 . S
C118 N117 1.376 . S
C118 C119 1.443 . S
C118 C145 1.389 . S
C119 C118 1.443 . S
C119 C120 1.340 . S
C119 H151 0.951 . S
C120 C119 1.340 . S
C120 C121 1.439 . S
C120 H152 0.950 . S
C121 N117 1.374 . S
C121 C120 1.439 . S
C121 C146 1.395 . S
N122 Co111 1.995 . S
N122 C123 1.376 . S
N122 C126 1.383 . S
C123 N122 1.376 . S
C123 C124 1.446 . S
C123 C146 1.391 . S
C124 C123 1.446 . S
C124 C125 1.339 . S
C124 H153 0.949 . S
C125 C124 1.339 . S
C125 C126 1.439 . S
C125 H154 0.950 . S
C126 N122 1.383 . S
C126 C125 1.439 . S
C126 C144 1.392 . S
N127 Co111 2.282 . S
N127 C130 1.332 . S
N127 C132 1.332 . S
C128 C129 1.386 . S
C128 C131 1.388 . S
C129 C128 1.386 . S
C129 C130 1.382 . S
C129 H155 0.950 . S
C130 N127 1.332 . S
C130 C129 1.382 . S
C130 H141 0.952 . S
C131 C128 1.388 . S
C131 C132 1.382 . S
C131 H156 0.950 . S
C132 N127 1.332 . S
C132 C131 1.382 . S
C132 H142 0.948 . S
N133 Co111 2.282 . S
N133 C137 1.332 . S
N133 C138 1.332 . S
C134 C135 1.388 . S
C134 C138 1.382 . S
C134 H157 0.950 . S
C135 C134 1.388 . S
C135 C136 1.386 . S
C136 C135 1.386 . S
C136 C137 1.382 . S
C136 H158 0.950 . S
C137 N133 1.332 . S
C137 C136 1.382 . S
C137 H139 0.952 . S
C138 N133 1.332 . S
C138 C134 1.382 . S
C138 H140 0.948 . S
H139 C137 0.952 . S
H140 C138 0.948 . S
H141 C130 0.952 . S
H142 C132 0.948 . S
C143 C109 1.395 . S
C143 C113 1.391 . S
C144 C106 1.389 . S
C144 C126 1.392 . S
C145 C116 1.392 . S
C145 C118 1.389 . S
C146 C121 1.395 . S
C146 C123 1.391 . S
H147 C107 0.951 . S
H148 C108 0.950 . S
H149 C114 0.949 . S
H150 C115 0.950 . S
H151 C119 0.951 . S
H152 C120 0.950 . S
H153 C124 0.949 . S
H154 C125 0.950 . S
H155 C129 0.950 . S
H156 C131 0.950 . S
H157 C134 0.950 . S
H158 C136 0.950 . S
C159 C160 1.443 . S
C159 N163 1.376 . S
C159 C197 1.389 . S
C160 C159 1.443 . S
C160 C161 1.340 . S
C160 H200 0.951 . S
C161 C160 1.340 . S
C161 C162 1.439 . S
C161 H201 0.950 . S
C162 C161 1.439 . S
C162 N163 1.374 . S
C162 C196 1.395 . S
N163 C159 1.376 . S
N163 C162 1.374 . S
N163 Co164 2.008 . S
Co164 N163 2.008 . S
Co164 N165 1.995 . S
Co164 N170 2.008 . S
Co164 N175 1.995 . S
Co164 N180 2.282 . S
Co164 N186 2.282 . S
N165 Co164 1.995 . S
N165 C166 1.376 . S
N165 C169 1.383 . S
C166 N165 1.376 . S
C166 C167 1.446 . S
C166 C196 1.391 . S
C167 C166 1.446 . S
C167 C168 1.339 . S
C167 H202 0.949 . S
C168 C167 1.339 . S
C168 C169 1.439 . S
C168 H203 0.950 . S
C169 N165 1.383 . S
C169 C168 1.439 . S
C169 C198 1.392 . S
N170 Co164 2.008 . S
N170 C171 1.376 . S
N170 C174 1.374 . S
C171 N170 1.376 . S
C171 C172 1.443 . S
C171 C198 1.389 . S
C172 C171 1.443 . S
C172 C173 1.340 . S
C172 H204 0.951 . S
C173 C172 1.340 . S
C173 C174 1.439 . S
C173 H205 0.950 . S
C174 N170 1.374 . S
C174 C173 1.439 . S
C174 C199 1.395 . S
N175 Co164 1.995 . S
N175 C176 1.376 . S
N175 C179 1.383 . S
C176 N175 1.376 . S
C176 C177 1.446 . S
C176 C199 1.391 . S
C177 C176 1.446 . S
C177 C178 1.339 . S
C177 H206 0.949 . S
C178 C177 1.339 . S
C178 C179 1.439 . S
C178 H207 0.950 . S
C179 N175 1.383 . S
C179 C178 1.439 . S
C179 C197 1.392 . S
N180 Co164 2.282 . S
N180 C183 1.332 . S
N180 C185 1.332 . S
C181 C182 1.386 . S
C181 C184 1.388 . S
C182 C181 1.386 . S
C182 C183 1.382 . S
C182 H208 0.950 . S
C183 N180 1.332 . S
C183 C182 1.382 . S
C183 H194 0.952 . S
C184 C181 1.388 . S
C184 C185 1.382 . S
C184 H209 0.950 . S
C185 N180 1.332 . S
C185 C184 1.382 . S
C185 H195 0.948 . S
N186 Co164 2.282 . S
N186 C190 1.332 . S
N186 C191 1.332 . S
C187 C188 1.388 . S
C187 C191 1.382 . S
C187 H210 0.950 . S
C188 C187 1.388 . S
C188 C189 1.386 . S
C189 C188 1.386 . S
C189 C190 1.382 . S
C189 H211 0.950 . S
C190 N186 1.332 . S
C190 C189 1.382 . S
C190 H192 0.952 . S
C191 N186 1.332 . S
C191 C187 1.382 . S
C191 H193 0.948 . S
H192 C190 0.952 . S
H193 C191 0.948 . S
H194 C183 0.952 . S
H195 C185 0.948 . S
C196 C162 1.395 . S
C196 C166 1.391 . S
C197 C159 1.389 . S
C197 C179 1.392 . S
C198 C169 1.392 . S
C198 C171 1.389 . S
C199 C174 1.395 . S
C199 C176 1.391 . S
H200 C160 0.951 . S
H201 C161 0.950 . S
H202 C167 0.949 . S
H203 C168 0.950 . S
H204 C172 0.951 . S
H205 C173 0.950 . S
H206 C177 0.949 . S
H207 C178 0.950 . S
H208 C182 0.950 . S
H209 C184 0.950 . S
H210 C187 0.950 . S
H211 C189 0.950 . S
C212 C213 1.443 . S
C212 N216 1.376 . S
C212 C250 1.389 . S
C213 C212 1.443 . S
C213 C214 1.340 . S
C213 H253 0.951 . S
C214 C213 1.340 . S
C214 C215 1.439 . S
C214 H254 0.950 . S
C215 C214 1.439 . S
C215 N216 1.374 . S
C215 C249 1.395 . S
N216 C212 1.376 . S
N216 C215 1.374 . S
N216 Co217 2.008 . S
Co217 N216 2.008 . S
Co217 N218 1.995 . S
Co217 N223 2.008 . S
Co217 N228 1.995 . S
Co217 N233 2.282 . S
Co217 N239 2.282 . S
N218 Co217 1.995 . S
N218 C219 1.376 . S
N218 C222 1.383 . S
C219 N218 1.376 . S
C219 C220 1.446 . S
C219 C249 1.391 . S
C220 C219 1.446 . S
C220 C221 1.339 . S
C220 H255 0.949 . S
C221 C220 1.339 . S
C221 C222 1.439 . S
C221 H256 0.950 . S
C222 N218 1.383 . S
C222 C221 1.439 . S
C222 C251 1.392 . S
N223 Co217 2.008 . S
N223 C224 1.376 . S
N223 C227 1.374 . S
C224 N223 1.376 . S
C224 C225 1.443 . S
C224 C251 1.389 . S
C225 C224 1.443 . S
C225 C226 1.340 . S
C225 H257 0.951 . S
C226 C225 1.340 . S
C226 C227 1.439 . S
C226 H258 0.950 . S
C227 N223 1.374 . S
C227 C226 1.439 . S
C227 C252 1.395 . S
N228 Co217 1.995 . S
N228 C229 1.376 . S
N228 C232 1.383 . S
C229 N228 1.376 . S
C229 C230 1.446 . S
C229 C252 1.391 . S
C230 C229 1.446 . S
C230 C231 1.339 . S
C230 H259 0.949 . S
C231 C230 1.339 . S
C231 C232 1.439 . S
C231 H260 0.950 . S
C232 N228 1.383 . S
C232 C231 1.439 . S
C232 C250 1.392 . S
N233 Co217 2.282 . S
N233 C236 1.332 . S
N233 C238 1.332 . S
C234 C235 1.386 . S
C234 C237 1.388 . S
C235 C234 1.386 . S
C235 C236 1.382 . S
C235 H261 0.950 . S
C236 N233 1.332 . S
C236 C235 1.382 . S
C236 H247 0.952 . S
C237 C234 1.388 . S
C237 C238 1.382 . S
C237 H262 0.950 . S
C238 N233 1.332 . S
C238 C237 1.382 . S
C238 H248 0.948 . S
N239 Co217 2.282 . S
N239 C243 1.332 . S
N239 C244 1.332 . S
C240 C241 1.388 . S
C240 C244 1.382 . S
C240 H263 0.950 . S
C241 C240 1.388 . S
C241 C242 1.386 . S
C242 C241 1.386 . S
C242 C243 1.382 . S
C242 H264 0.950 . S
C243 N239 1.332 . S
C243 C242 1.382 . S
C243 H245 0.952 . S
C244 N239 1.332 . S
C244 C240 1.382 . S
C244 H246 0.948 . S
H245 C243 0.952 . S
H246 C244 0.948 . S
H247 C236 0.952 . S
H248 C238 0.948 . S
C249 C215 1.395 . S
C249 C219 1.391 . S
C250 C212 1.389 . S
C250 C232 1.392 . S
C251 C222 1.392 . S
C251 C224 1.389 . S
C252 C227 1.395 . S
C252 C229 1.391 . S
H253 C213 0.951 . S
H254 C214 0.950 . S
H255 C220 0.949 . S
H256 C221 0.950 . S
H257 C225 0.951 . S
H258 C226 0.950 . S
H259 C230 0.949 . S
H260 C231 0.950 . S
H261 C235 0.950 . S
H262 C237 0.950 . S
H263 C240 0.950 . S
H264 C242 0.950 . S
C265 C266 1.443 . S
C265 N269 1.376 . S
C265 C303 1.389 . S
C266 C265 1.443 . S
C266 C267 1.340 . S
C266 H306 0.951 . S
C267 C266 1.340 . S
C267 C268 1.439 . S
C267 H307 0.950 . S
C268 C267 1.439 . S
C268 N269 1.374 . S
C268 C302 1.395 . S
N269 C265 1.376 . S
N269 C268 1.374 . S
N269 Co270 2.008 . S
Co270 N269 2.008 . S
Co270 N271 1.995 . S
Co270 N276 2.008 . S
Co270 N281 1.995 . S
Co270 N286 2.282 . S
Co270 N292 2.282 . S
N271 Co270 1.995 . S
N271 C272 1.376 . S
N271 C275 1.383 . S
C272 N271 1.376 . S
C272 C273 1.446 . S
C272 C302 1.391 . S
C273 C272 1.446 . S
C273 C274 1.339 . S
C273 H308 0.949 . S
C274 C273 1.339 . S
C274 C275 1.439 . S
C274 H309 0.950 . S
C275 N271 1.383 . S
C275 C274 1.439 . S
C275 C304 1.392 . S
N276 Co270 2.008 . S
N276 C277 1.376 . S
N276 C280 1.374 . S
C277 N276 1.376 . S
C277 C278 1.443 . S
C277 C304 1.389 . S
C278 C277 1.443 . S
C278 C279 1.340 . S
C278 H310 0.951 . S
C279 C278 1.340 . S
C279 C280 1.439 . S
C279 H311 0.950 . S
C280 N276 1.374 . S
C280 C279 1.439 . S
C280 C305 1.395 . S
N281 Co270 1.995 . S
N281 C282 1.376 . S
N281 C285 1.383 . S
C282 N281 1.376 . S
C282 C283 1.446 . S
C282 C305 1.391 . S
C283 C282 1.446 . S
C283 C284 1.339 . S
C283 H312 0.949 . S
C284 C283 1.339 . S
C284 C285 1.439 . S
C284 H313 0.950 . S
C285 N281 1.383 . S
C285 C284 1.439 . S
C285 C303 1.392 . S
N286 Co270 2.282 . S
N286 C289 1.332 . S
N286 C291 1.332 . S
C287 C288 1.386 . S
C287 C290 1.388 . S
C288 C287 1.386 . S
C288 C289 1.382 . S
C288 H314 0.950 . S
C289 N286 1.332 . S
C289 C288 1.382 . S
C289 H300 0.952 . S
C290 C287 1.388 . S
C290 C291 1.382 . S
C290 H315 0.950 . S
C291 N286 1.332 . S
C291 C290 1.382 . S
C291 H301 0.948 . S
N292 Co270 2.282 . S
N292 C296 1.332 . S
N292 C297 1.332 . S
C293 C294 1.388 . S
C293 C297 1.382 . S
C293 H316 0.950 . S
C294 C293 1.388 . S
C294 C295 1.386 . S
C295 C294 1.386 . S
C295 C296 1.382 . S
C295 H317 0.950 . S
C296 N292 1.332 . S
C296 C295 1.382 . S
C296 H298 0.952 . S
C297 N292 1.332 . S
C297 C293 1.382 . S
C297 H299 0.948 . S
H298 C296 0.952 . S
H299 C297 0.948 . S
H300 C289 0.952 . S
H301 C291 0.948 . S
C302 C268 1.395 . S
C302 C272 1.391 . S
C303 C265 1.389 . S
C303 C285 1.392 . S
C304 C275 1.392 . S
C304 C277 1.389 . S
C305 C280 1.395 . S
C305 C282 1.391 . S
H306 C266 0.951 . S
H307 C267 0.950 . S
H308 C273 0.949 . S
H309 C274 0.950 . S
H310 C278 0.951 . S
H311 C279 0.950 . S
H312 C283 0.949 . S
H313 C284 0.950 . S
H314 C288 0.950 . S
H315 C290 0.950 . S
H316 C293 0.950 . S
H317 C295 0.950 . S
C318 C319 1.443 . S
C318 N322 1.376 . S
C318 C356 1.389 . S
C319 C318 1.443 . S
C319 C320 1.340 . S
C319 H359 0.951 . S
C320 C319 1.340 . S
C320 C321 1.439 . S
C320 H360 0.950 . S
C321 C320 1.439 . S
C321 N322 1.374 . S
C321 C355 1.395 . S
N322 C318 1.376 . S
N322 C321 1.374 . S
N322 Co323 2.008 . S
Co323 N322 2.008 . S
Co323 N324 1.995 . S
Co323 N329 2.008 . S
Co323 N334 1.995 . S
Co323 N339 2.282 . S
Co323 N345 2.282 . S
N324 Co323 1.995 . S
N324 C325 1.376 . S
N324 C328 1.383 . S
C325 N324 1.376 . S
C325 C326 1.446 . S
C325 C355 1.391 . S
C326 C325 1.446 . S
C326 C327 1.339 . S
C326 H361 0.949 . S
C327 C326 1.339 . S
C327 C328 1.439 . S
C327 H362 0.950 . S
C328 N324 1.383 . S
C328 C327 1.439 . S
C328 C357 1.392 . S
N329 Co323 2.008 . S
N329 C330 1.376 . S
N329 C333 1.374 . S
C330 N329 1.376 . S
C330 C331 1.443 . S
C330 C357 1.389 . S
C331 C330 1.443 . S
C331 C332 1.340 . S
C331 H363 0.951 . S
C332 C331 1.340 . S
C332 C333 1.439 . S
C332 H364 0.950 . S
C333 N329 1.374 . S
C333 C332 1.439 . S
C333 C358 1.395 . S
N334 Co323 1.995 . S
N334 C335 1.376 . S
N334 C338 1.383 . S
C335 N334 1.376 . S
C335 C336 1.446 . S
C335 C358 1.391 . S
C336 C335 1.446 . S
C336 C337 1.339 . S
C336 H365 0.949 . S
C337 C336 1.339 . S
C337 C338 1.439 . S
C337 H366 0.950 . S
C338 N334 1.383 . S
C338 C337 1.439 . S
C338 C356 1.392 . S
N339 Co323 2.282 . S
N339 C342 1.332 . S
N339 C344 1.332 . S
C340 C341 1.386 . S
C340 C343 1.388 . S
C341 C340 1.386 . S
C341 C342 1.382 . S
C341 H367 0.950 . S
C342 N339 1.332 . S
C342 C341 1.382 . S
C342 H353 0.952 . S
C343 C340 1.388 . S
C343 C344 1.382 . S
C343 H368 0.950 . S
C344 N339 1.332 . S
C344 C343 1.382 . S
C344 H354 0.948 . S
N345 Co323 2.282 . S
N345 C349 1.332 . S
N345 C350 1.332 . S
C346 C347 1.388 . S
C346 C350 1.382 . S
C346 H369 0.950 . S
C347 C346 1.388 . S
C347 C348 1.386 . S
C348 C347 1.386 . S
C348 C349 1.382 . S
C348 H370 0.950 . S
C349 N345 1.332 . S
C349 C348 1.382 . S
C349 H351 0.952 . S
C350 N345 1.332 . S
C350 C346 1.382 . S
C350 H352 0.948 . S
H351 C349 0.952 . S
H352 C350 0.948 . S
H353 C342 0.952 . S
H354 C344 0.948 . S
C355 C321 1.395 . S
C355 C325 1.391 . S
C356 C318 1.389 . S
C356 C338 1.392 . S
C357 C328 1.392 . S
C357 C330 1.389 . S
C358 C333 1.395 . S
C358 C335 1.391 . S
H359 C319 0.951 . S
H360 C320 0.950 . S
H361 C326 0.949 . S
H362 C327 0.950 . S
H363 C331 0.951 . S
H364 C332 0.950 . S
H365 C336 0.949 . S
H366 C337 0.950 . S
H367 C341 0.950 . S
H368 C343 0.950 . S
H369 C346 0.950 . S
H370 C348 0.950 . S
C371 C372 1.443 . S
C371 N375 1.376 . S
C371 C409 1.389 . S
C372 C371 1.443 . S
C372 C373 1.340 . S
C372 H412 0.951 . S
C373 C372 1.340 . S
C373 C374 1.439 . S
C373 H413 0.950 . S
C374 C373 1.439 . S
C374 N375 1.374 . S
C374 C408 1.395 . S
N375 C371 1.376 . S
N375 C374 1.374 . S
N375 Co376 2.008 . S
Co376 N375 2.008 . S
Co376 N377 1.995 . S
Co376 N382 2.008 . S
Co376 N387 1.995 . S
Co376 N392 2.282 . S
Co376 N398 2.282 . S
N377 Co376 1.995 . S
N377 C378 1.376 . S
N377 C381 1.383 . S
C378 N377 1.376 . S
C378 C379 1.446 . S
C378 C408 1.391 . S
C379 C378 1.446 . S
C379 C380 1.339 . S
C379 H414 0.949 . S
C380 C379 1.339 . S
C380 C381 1.439 . S
C380 H415 0.950 . S
C381 N377 1.383 . S
C381 C380 1.439 . S
C381 C410 1.392 . S
N382 Co376 2.008 . S
N382 C383 1.376 . S
N382 C386 1.374 . S
C383 N382 1.376 . S
C383 C384 1.443 . S
C383 C410 1.389 . S
C384 C383 1.443 . S
C384 C385 1.340 . S
C384 H416 0.951 . S
C385 C384 1.340 . S
C385 C386 1.439 . S
C385 H417 0.950 . S
C386 N382 1.374 . S
C386 C385 1.439 . S
C386 C411 1.395 . S
N387 Co376 1.995 . S
N387 C388 1.376 . S
N387 C391 1.383 . S
C388 N387 1.376 . S
C388 C389 1.446 . S
C388 C411 1.391 . S
C389 C388 1.446 . S
C389 C390 1.339 . S
C389 H418 0.949 . S
C390 C389 1.339 . S
C390 C391 1.439 . S
C390 H419 0.950 . S
C391 N387 1.383 . S
C391 C390 1.439 . S
C391 C409 1.392 . S
N392 Co376 2.282 . S
N392 C395 1.332 . S
N392 C397 1.332 . S
C393 C394 1.386 . S
C393 C396 1.388 . S
C394 C393 1.386 . S
C394 C395 1.382 . S
C394 H420 0.950 . S
C395 N392 1.332 . S
C395 C394 1.382 . S
C395 H406 0.952 . S
C396 C393 1.388 . S
C396 C397 1.382 . S
C396 H421 0.950 . S
C397 N392 1.332 . S
C397 C396 1.382 . S
C397 H407 0.948 . S
N398 Co376 2.282 . S
N398 C402 1.332 . S
N398 C403 1.332 . S
C399 C400 1.388 . S
C399 C403 1.382 . S
C399 H422 0.950 . S
C400 C399 1.388 . S
C400 C401 1.386 . S
C401 C400 1.386 . S
C401 C402 1.382 . S
C401 H423 0.950 . S
C402 N398 1.332 . S
C402 C401 1.382 . S
C402 H404 0.952 . S
C403 N398 1.332 . S
C403 C399 1.382 . S
C403 H405 0.948 . S
H404 C402 0.952 . S
H405 C403 0.948 . S
H406 C395 0.952 . S
H407 C397 0.948 . S
C408 C374 1.395 . S
C408 C378 1.391 . S
C409 C371 1.389 . S
C409 C391 1.392 . S
C410 C381 1.392 . S
C410 C383 1.389 . S
C411 C386 1.395 . S
C411 C388 1.391 . S
H412 C372 0.951 . S
H413 C373 0.950 . S
H414 C379 0.949 . S
H415 C380 0.950 . S
H416 C384 0.951 . S
H417 C385 0.950 . S
H418 C389 0.949 . S
H419 C390 0.950 . S
H420 C394 0.950 . S
H421 C396 0.950 . S
H422 C399 0.950 . S
H423 C401 0.950 . S
C424 C425 1.443 . S
C424 N428 1.376 . S
C424 C462 1.389 . S
C425 C424 1.443 . S
C425 C426 1.340 . S
C425 H465 0.951 . S
C426 C425 1.340 . S
C426 C427 1.439 . S
C426 H466 0.950 . S
C427 C426 1.439 . S
C427 N428 1.374 . S
C427 C461 1.395 . S
N428 C424 1.376 . S
N428 C427 1.374 . S
N428 Co429 2.008 . S
Co429 N428 2.008 . S
Co429 N430 1.995 . S
Co429 N435 2.008 . S
Co429 N440 1.995 . S
Co429 N445 2.282 . S
Co429 N451 2.282 . S
N430 Co429 1.995 . S
N430 C431 1.376 . S
N430 C434 1.383 . S
C431 N430 1.376 . S
C431 C432 1.446 . S
C431 C461 1.391 . S
C432 C431 1.446 . S
C432 C433 1.339 . S
C432 H467 0.949 . S
C433 C432 1.339 . S
C433 C434 1.439 . S
C433 H468 0.950 . S
C434 N430 1.383 . S
C434 C433 1.439 . S
C434 C463 1.392 . S
N435 Co429 2.008 . S
N435 C436 1.376 . S
N435 C439 1.374 . S
C436 N435 1.376 . S
C436 C437 1.443 . S
C436 C463 1.389 . S
C437 C436 1.443 . S
C437 C438 1.340 . S
C437 H469 0.951 . S
C438 C437 1.340 . S
C438 C439 1.439 . S
C438 H470 0.950 . S
C439 N435 1.374 . S
C439 C438 1.439 . S
C439 C464 1.395 . S
N440 Co429 1.995 . S
N440 C441 1.376 . S
N440 C444 1.383 . S
C441 N440 1.376 . S
C441 C442 1.446 . S
C441 C464 1.391 . S
C442 C441 1.446 . S
C442 C443 1.339 . S
C442 H471 0.949 . S
C443 C442 1.339 . S
C443 C444 1.439 . S
C443 H472 0.950 . S
C444 N440 1.383 . S
C444 C443 1.439 . S
C444 C462 1.392 . S
N445 Co429 2.282 . S
N445 C448 1.332 . S
N445 C450 1.332 . S
C446 C447 1.386 . S
C446 C449 1.388 . S
C447 C446 1.386 . S
C447 C448 1.382 . S
C447 H473 0.950 . S
C448 N445 1.332 . S
C448 C447 1.382 . S
C448 H459 0.952 . S
C449 C446 1.388 . S
C449 C450 1.382 . S
C449 H474 0.950 . S
C450 N445 1.332 . S
C450 C449 1.382 . S
C450 H460 0.948 . S
N451 Co429 2.282 . S
N451 C455 1.332 . S
N451 C456 1.332 . S
C452 C453 1.388 . S
C452 C456 1.382 . S
C452 H475 0.950 . S
C453 C452 1.388 . S
C453 C454 1.386 . S
C454 C453 1.386 . S
C454 C455 1.382 . S
C454 H476 0.950 . S
C455 N451 1.332 . S
C455 C454 1.382 . S
C455 H457 0.952 . S
C456 N451 1.332 . S
C456 C452 1.382 . S
C456 H458 0.948 . S
H457 C455 0.952 . S
H458 C456 0.948 . S
H459 C448 0.952 . S
H460 C450 0.948 . S
C461 C427 1.395 . S
C461 C431 1.391 . S
C462 C424 1.389 . S
C462 C444 1.392 . S
C463 C434 1.392 . S
C463 C436 1.389 . S
C464 C439 1.395 . S
C464 C441 1.391 . S
H465 C425 0.951 . S
H466 C426 0.950 . S
H467 C432 0.949 . S
H468 C433 0.950 . S
H469 C437 0.951 . S
H470 C438 0.950 . S
H471 C442 0.949 . S
H472 C443 0.950 . S
H473 C447 0.950 . S
H474 C449 0.950 . S
H475 C452 0.950 . S
H476 C454 0.950 . S
C477 C478 1.443 . S
C477 N481 1.376 . S
C477 C515 1.389 . S
C478 C477 1.443 . S
C478 C479 1.340 . S
C478 H518 0.951 . S
C479 C478 1.340 . S
C479 C480 1.439 . S
C479 H519 0.950 . S
C480 C479 1.439 . S
C480 N481 1.374 . S
C480 C514 1.395 . S
N481 C477 1.376 . S
N481 C480 1.374 . S
N481 Co482 2.008 . S
Co482 N481 2.008 . S
Co482 N483 1.995 . S
Co482 N488 2.008 . S
Co482 N493 1.995 . S
Co482 N498 2.282 . S
Co482 N504 2.282 . S
N483 Co482 1.995 . S
N483 C484 1.376 . S
N483 C487 1.383 . S
C484 N483 1.376 . S
C484 C485 1.446 . S
C484 C514 1.391 . S
C485 C484 1.446 . S
C485 C486 1.339 . S
C485 H520 0.949 . S
C486 C485 1.339 . S
C486 C487 1.439 . S
C486 H521 0.950 . S
C487 N483 1.383 . S
C487 C486 1.439 . S
C487 C516 1.392 . S
N488 Co482 2.008 . S
N488 C489 1.376 . S
N488 C492 1.374 . S
C489 N488 1.376 . S
C489 C490 1.443 . S
C489 C516 1.389 . S
C490 C489 1.443 . S
C490 C491 1.340 . S
C490 H522 0.951 . S
C491 C490 1.340 . S
C491 C492 1.439 . S
C491 H523 0.950 . S
C492 N488 1.374 . S
C492 C491 1.439 . S
C492 C517 1.395 . S
N493 Co482 1.995 . S
N493 C494 1.376 . S
N493 C497 1.383 . S
C494 N493 1.376 . S
C494 C495 1.446 . S
C494 C517 1.391 . S
C495 C494 1.446 . S
C495 C496 1.339 . S
C495 H524 0.949 . S
C496 C495 1.339 . S
C496 C497 1.439 . S
C496 H525 0.950 . S
C497 N493 1.383 . S
C497 C496 1.439 . S
C497 C515 1.392 . S
N498 Co482 2.282 . S
N498 C501 1.332 . S
N498 C503 1.332 . S
C499 C500 1.386 . S
C499 C502 1.388 . S
C500 C499 1.386 . S
C500 C501 1.382 . S
C500 H526 0.950 . S
C501 N498 1.332 . S
C501 C500 1.382 . S
C501 H512 0.952 . S
C502 C499 1.388 . S
C502 C503 1.382 . S
C502 H527 0.950 . S
C503 N498 1.332 . S
C503 C502 1.382 . S
C503 H513 0.948 . S
N504 Co482 2.282 . S
N504 C508 1.332 . S
N504 C509 1.332 . S
C505 C506 1.388 . S
C505 C509 1.382 . S
C505 H528 0.950 . S
C506 C505 1.388 . S
C506 C507 1.386 . S
C507 C506 1.386 . S
C507 C508 1.382 . S
C507 H529 0.950 . S
C508 N504 1.332 . S
C508 C507 1.382 . S
C508 H510 0.952 . S
C509 N504 1.332 . S
C509 C505 1.382 . S
C509 H511 0.948 . S
H510 C508 0.952 . S
H511 C509 0.948 . S
H512 C501 0.952 . S
H513 C503 0.948 . S
C514 C480 1.395 . S
C514 C484 1.391 . S
C515 C477 1.389 . S
C515 C497 1.392 . S
C516 C487 1.392 . S
C516 C489 1.389 . S
C517 C492 1.395 . S
C517 C494 1.391 . S
H518 C478 0.951 . S
H519 C479 0.950 . S
H520 C485 0.949 . S
H521 C486 0.950 . S
H522 C490 0.951 . S
H523 C491 0.950 . S
H524 C495 0.949 . S
H525 C496 0.950 . S
H526 C500 0.950 . S
H527 C502 0.950 . S
H528 C505 0.950 . S
H529 C507 0.950 . S
C530 C531 1.443 . S
C530 N534 1.376 . S
C530 C568 1.389 . S
C531 C530 1.443 . S
C531 C532 1.340 . S
C531 H571 0.951 . S
C532 C531 1.340 . S
C532 C533 1.439 . S
C532 H572 0.950 . S
C533 C532 1.439 . S
C533 N534 1.374 . S
C533 C567 1.395 . S
N534 C530 1.376 . S
N534 C533 1.374 . S
N534 Co535 2.008 . S
Co535 N534 2.008 . S
Co535 N536 1.995 . S
Co535 N541 2.008 . S
Co535 N546 1.995 . S
Co535 N551 2.282 . S
Co535 N557 2.282 . S
N536 Co535 1.995 . S
N536 C537 1.376 . S
N536 C540 1.383 . S
C537 N536 1.376 . S
C537 C538 1.446 . S
C537 C567 1.391 . S
C538 C537 1.446 . S
C538 C539 1.339 . S
C538 H573 0.949 . S
C539 C538 1.339 . S
C539 C540 1.439 . S
C539 H574 0.950 . S
C540 N536 1.383 . S
C540 C539 1.439 . S
C540 C569 1.392 . S
N541 Co535 2.008 . S
N541 C542 1.376 . S
N541 C545 1.374 . S
C542 N541 1.376 . S
C542 C543 1.443 . S
C542 C569 1.389 . S
C543 C542 1.443 . S
C543 C544 1.340 . S
C543 H575 0.951 . S
C544 C543 1.340 . S
C544 C545 1.439 . S
C544 H576 0.950 . S
C545 N541 1.374 . S
C545 C544 1.439 . S
C545 C570 1.395 . S
N546 Co535 1.995 . S
N546 C547 1.376 . S
N546 C550 1.383 . S
C547 N546 1.376 . S
C547 C548 1.446 . S
C547 C570 1.391 . S
C548 C547 1.446 . S
C548 C549 1.339 . S
C548 H577 0.949 . S
C549 C548 1.339 . S
C549 C550 1.439 . S
C549 H578 0.950 . S
C550 N546 1.383 . S
C550 C549 1.439 . S
C550 C568 1.392 . S
N551 Co535 2.282 . S
N551 C554 1.332 . S
N551 C556 1.332 . S
C552 C553 1.386 . S
C552 C555 1.388 . S
C553 C552 1.386 . S
C553 C554 1.382 . S
C553 H579 0.950 . S
C554 N551 1.332 . S
C554 C553 1.382 . S
C554 H565 0.952 . S
C555 C552 1.388 . S
C555 C556 1.382 . S
C555 H580 0.950 . S
C556 N551 1.332 . S
C556 C555 1.382 . S
C556 H566 0.948 . S
N557 Co535 2.282 . S
N557 C561 1.332 . S
N557 C562 1.332 . S
C558 C559 1.388 . S
C558 C562 1.382 . S
C558 H581 0.950 . S
C559 C558 1.388 . S
C559 C560 1.386 . S
C560 C559 1.386 . S
C560 C561 1.382 . S
C560 H582 0.950 . S
C561 N557 1.332 . S
C561 C560 1.382 . S
C561 H563 0.952 . S
C562 N557 1.332 . S
C562 C558 1.382 . S
C562 H564 0.948 . S
H563 C561 0.952 . S
H564 C562 0.948 . S
H565 C554 0.952 . S
H566 C556 0.948 . S
C567 C533 1.395 . S
C567 C537 1.391 . S
C568 C530 1.389 . S
C568 C550 1.392 . S
C569 C540 1.392 . S
C569 C542 1.389 . S
C570 C545 1.395 . S
C570 C547 1.391 . S
H571 C531 0.951 . S
H572 C532 0.950 . S
H573 C538 0.949 . S
H574 C539 0.950 . S
H575 C543 0.951 . S
H576 C544 0.950 . S
H577 C548 0.949 . S
H578 C549 0.950 . S
H579 C553 0.950 . S
H580 C555 0.950 . S
H581 C558 0.950 . S
H582 C560 0.950 . S
C583 C584 1.443 . S
C583 N587 1.376 . S
C583 C621 1.389 . S
C584 C583 1.443 . S
C584 C585 1.340 . S
C584 H624 0.951 . S
C585 C584 1.340 . S
C585 C586 1.439 . S
C585 H625 0.950 . S
C586 C585 1.439 . S
C586 N587 1.374 . S
C586 C620 1.395 . S
N587 C583 1.376 . S
N587 C586 1.374 . S
N587 Co588 2.008 . S
Co588 N587 2.008 . S
Co588 N589 1.995 . S
Co588 N594 2.008 . S
Co588 N599 1.995 . S
Co588 N604 2.282 . S
Co588 N610 2.282 . S
N589 Co588 1.995 . S
N589 C590 1.376 . S
N589 C593 1.383 . S
C590 N589 1.376 . S
C590 C591 1.446 . S
C590 C620 1.391 . S
C591 C590 1.446 . S
C591 C592 1.339 . S
C591 H626 0.949 . S
C592 C591 1.339 . S
C592 C593 1.439 . S
C592 H627 0.950 . S
C593 N589 1.383 . S
C593 C592 1.439 . S
C593 C622 1.392 . S
N594 Co588 2.008 . S
N594 C595 1.376 . S
N594 C598 1.374 . S
C595 N594 1.376 . S
C595 C596 1.443 . S
C595 C622 1.389 . S
C596 C595 1.443 . S
C596 C597 1.340 . S
C596 H628 0.951 . S
C597 C596 1.340 . S
C597 C598 1.439 . S
C597 H629 0.950 . S
C598 N594 1.374 . S
C598 C597 1.439 . S
C598 C623 1.395 . S
N599 Co588 1.995 . S
N599 C600 1.376 . S
N599 C603 1.383 . S
C600 N599 1.376 . S
C600 C601 1.446 . S
C600 C623 1.391 . S
C601 C600 1.446 . S
C601 C602 1.339 . S
C601 H630 0.949 . S
C602 C601 1.339 . S
C602 C603 1.439 . S
C602 H631 0.950 . S
C603 N599 1.383 . S
C603 C602 1.439 . S
C603 C621 1.392 . S
N604 Co588 2.282 . S
N604 C607 1.332 . S
N604 C609 1.332 . S
C605 C606 1.386 . S
C605 C608 1.388 . S
C606 C605 1.386 . S
C606 C607 1.382 . S
C606 H632 0.950 . S
C607 N604 1.332 . S
C607 C606 1.382 . S
C607 H618 0.952 . S
C608 C605 1.388 . S
C608 C609 1.382 . S
C608 H633 0.950 . S
C609 N604 1.332 . S
C609 C608 1.382 . S
C609 H619 0.948 . S
N610 Co588 2.282 . S
N610 C614 1.332 . S
N610 C615 1.332 . S
C611 C612 1.388 . S
C611 C615 1.382 . S
C611 H634 0.950 . S
C612 C611 1.388 . S
C612 C613 1.386 . S
C613 C612 1.386 . S
C613 C614 1.382 . S
C613 H635 0.950 . S
C614 N610 1.332 . S
C614 C613 1.382 . S
C614 H616 0.952 . S
C615 N610 1.332 . S
C615 C611 1.382 . S
C615 H617 0.948 . S
H616 C614 0.952 . S
H617 C615 0.948 . S
H618 C607 0.952 . S
H619 C609 0.948 . S
C620 C586 1.395 . S
C620 C590 1.391 . S
C621 C583 1.389 . S
C621 C603 1.392 . S
C622 C593 1.392 . S
C622 C595 1.389 . S
C623 C598 1.395 . S
C623 C600 1.391 . S
H624 C584 0.951 . S
H625 C585 0.950 . S
H626 C591 0.949 . S
H627 C592 0.950 . S
H628 C596 0.951 . S
H629 C597 0.950 . S
H630 C601 0.949 . S
H631 C602 0.950 . S
H632 C606 0.950 . S
H633 C608 0.950 . S
H634 C611 0.950 . S
H635 C613 0.950 . S
C636 C637 1.443 . S
C636 N640 1.376 . S
C636 C674 1.389 . S
C637 C636 1.443 . S
C637 C638 1.340 . S
C637 H677 0.951 . S
C638 C637 1.340 . S
C638 C639 1.439 . S
C638 H678 0.950 . S
C639 C638 1.439 . S
C639 N640 1.374 . S
C639 C673 1.395 . S
N640 C636 1.376 . S
N640 C639 1.374 . S
N640 Co641 2.008 . S
Co641 N640 2.008 . S
Co641 N642 1.995 . S
Co641 N647 2.008 . S
Co641 N652 1.995 . S
Co641 N657 2.282 . S
Co641 N663 2.282 . S
N642 Co641 1.995 . S
N642 C643 1.376 . S
N642 C646 1.383 . S
C643 N642 1.376 . S
C643 C644 1.446 . S
C643 C673 1.391 . S
C644 C643 1.446 . S
C644 C645 1.339 . S
C644 H679 0.949 . S
C645 C644 1.339 . S
C645 C646 1.439 . S
C645 H680 0.950 . S
C646 N642 1.383 . S
C646 C645 1.439 . S
C646 C675 1.392 . S
N647 Co641 2.008 . S
N647 C648 1.376 . S
N647 C651 1.374 . S
C648 N647 1.376 . S
C648 C649 1.443 . S
C648 C675 1.389 . S
C649 C648 1.443 . S
C649 C650 1.340 . S
C649 H681 0.951 . S
C650 C649 1.340 . S
C650 C651 1.439 . S
C650 H682 0.950 . S
C651 N647 1.374 . S
C651 C650 1.439 . S
C651 C676 1.395 . S
N652 Co641 1.995 . S
N652 C653 1.376 . S
N652 C656 1.383 . S
C653 N652 1.376 . S
C653 C654 1.446 . S
C653 C676 1.391 . S
C654 C653 1.446 . S
C654 C655 1.339 . S
C654 H683 0.949 . S
C655 C654 1.339 . S
C655 C656 1.439 . S
C655 H684 0.950 . S
C656 N652 1.383 . S
C656 C655 1.439 . S
C656 C674 1.392 . S
N657 Co641 2.282 . S
N657 C660 1.332 . S
N657 C662 1.332 . S
C658 C659 1.386 . S
C658 C661 1.388 . S
C659 C658 1.386 . S
C659 C660 1.382 . S
C659 H685 0.950 . S
C660 N657 1.332 . S
C660 C659 1.382 . S
C660 H671 0.952 . S
C661 C658 1.388 . S
C661 C662 1.382 . S
C661 H686 0.950 . S
C662 N657 1.332 . S
C662 C661 1.382 . S
C662 H672 0.948 . S
N663 Co641 2.282 . S
N663 C667 1.332 . S
N663 C668 1.332 . S
C664 C665 1.388 . S
C664 C668 1.382 . S
C664 H687 0.950 . S
C665 C664 1.388 . S
C665 C666 1.386 . S
C666 C665 1.386 . S
C666 C667 1.382 . S
C666 H688 0.950 . S
C667 N663 1.332 . S
C667 C666 1.382 . S
C667 H669 0.952 . S
C668 N663 1.332 . S
C668 C664 1.382 . S
C668 H670 0.948 . S
H669 C667 0.952 . S
H670 C668 0.948 . S
H671 C660 0.952 . S
H672 C662 0.948 . S
C673 C639 1.395 . S
C673 C643 1.391 . S
C674 C636 1.389 . S
C674 C656 1.392 . S
C675 C646 1.392 . S
C675 C648 1.389 . S
C676 C651 1.395 . S
C676 C653 1.391 . S
H677 C637 0.951 . S
H678 C638 0.950 . S
H679 C644 0.949 . S
H680 C645 0.950 . S
H681 C649 0.951 . S
H682 C650 0.950 . S
H683 C654 0.949 . S
H684 C655 0.950 . S
H685 C659 0.950 . S
H686 C661 0.950 . S
H687 C664 0.950 . S
H688 C666 0.950 . S
C689 C690 1.443 . S
C689 N693 1.376 . S
C689 C727 1.389 . S
C690 C689 1.443 . S
C690 C691 1.340 . S
C690 H730 0.951 . S
C691 C690 1.340 . S
C691 C692 1.439 . S
C691 H731 0.950 . S
C692 C691 1.439 . S
C692 N693 1.374 . S
C692 C726 1.395 . S
N693 C689 1.376 . S
N693 C692 1.374 . S
N693 Co694 2.008 . S
Co694 N693 2.008 . S
Co694 N695 1.995 . S
Co694 N700 2.008 . S
Co694 N705 1.995 . S
Co694 N710 2.282 . S
Co694 N716 2.282 . S
N695 Co694 1.995 . S
N695 C696 1.376 . S
N695 C699 1.383 . S
C696 N695 1.376 . S
C696 C697 1.446 . S
C696 C726 1.391 . S
C697 C696 1.446 . S
C697 C698 1.339 . S
C697 H732 0.949 . S
C698 C697 1.339 . S
C698 C699 1.439 . S
C698 H733 0.950 . S
C699 N695 1.383 . S
C699 C698 1.439 . S
C699 C728 1.392 . S
N700 Co694 2.008 . S
N700 C701 1.376 . S
N700 C704 1.374 . S
C701 N700 1.376 . S
C701 C702 1.443 . S
C701 C728 1.389 . S
C702 C701 1.443 . S
C702 C703 1.340 . S
C702 H734 0.951 . S
C703 C702 1.340 . S
C703 C704 1.439 . S
C703 H735 0.950 . S
C704 N700 1.374 . S
C704 C703 1.439 . S
C704 C729 1.395 . S
N705 Co694 1.995 . S
N705 C706 1.376 . S
N705 C709 1.383 . S
C706 N705 1.376 . S
C706 C707 1.446 . S
C706 C729 1.391 . S
C707 C706 1.446 . S
C707 C708 1.339 . S
C707 H736 0.949 . S
C708 C707 1.339 . S
C708 C709 1.439 . S
C708 H737 0.950 . S
C709 N705 1.383 . S
C709 C708 1.439 . S
C709 C727 1.392 . S
N710 Co694 2.282 . S
N710 C713 1.332 . S
N710 C715 1.332 . S
C711 C712 1.386 . S
C711 C714 1.388 . S
C712 C711 1.386 . S
C712 C713 1.382 . S
C712 H738 0.950 . S
C713 N710 1.332 . S
C713 C712 1.382 . S
C713 H724 0.952 . S
C714 C711 1.388 . S
C714 C715 1.382 . S
C714 H739 0.950 . S
C715 N710 1.332 . S
C715 C714 1.382 . S
C715 H725 0.948 . S
N716 Co694 2.282 . S
N716 C720 1.332 . S
N716 C721 1.332 . S
C717 C718 1.388 . S
C717 C721 1.382 . S
C717 H740 0.950 . S
C718 C717 1.388 . S
C718 C719 1.386 . S
C719 C718 1.386 . S
C719 C720 1.382 . S
C719 H741 0.950 . S
C720 N716 1.332 . S
C720 C719 1.382 . S
C720 H722 0.952 . S
C721 N716 1.332 . S
C721 C717 1.382 . S
C721 H723 0.948 . S
H722 C720 0.952 . S
H723 C721 0.948 . S
H724 C713 0.952 . S
H725 C715 0.948 . S
C726 C692 1.395 . S
C726 C696 1.391 . S
C727 C689 1.389 . S
C727 C709 1.392 . S
C728 C699 1.392 . S
C728 C701 1.389 . S
C729 C704 1.395 . S
C729 C706 1.391 . S
H730 C690 0.951 . S
H731 C691 0.950 . S
H732 C697 0.949 . S
H733 C698 0.950 . S
H734 C702 0.951 . S
H735 C703 0.950 . S
H736 C707 0.949 . S
H737 C708 0.950 . S
H738 C712 0.950 . S
H739 C714 0.950 . S
H740 C717 0.950 . S
H741 C719 0.950 . S
C742 C743 1.443 . S
C742 N746 1.376 . S
C742 C780 1.389 . S
C743 C742 1.443 . S
C743 C744 1.340 . S
C743 H783 0.951 . S
C744 C743 1.340 . S
C744 C745 1.439 . S
C744 H784 0.950 . S
C745 C744 1.439 . S
C745 N746 1.374 . S
C745 C779 1.395 . S
N746 C742 1.376 . S
N746 C745 1.374 . S
N746 Co747 2.008 . S
Co747 N746 2.008 . S
Co747 N748 1.995 . S
Co747 N753 2.008 . S
Co747 N758 1.995 . S
Co747 N763 2.282 . S
Co747 N769 2.282 . S
N748 Co747 1.995 . S
N748 C749 1.376 . S
N748 C752 1.383 . S
C749 N748 1.376 . S
C749 C750 1.446 . S
C749 C779 1.391 . S
C750 C749 1.446 . S
C750 C751 1.339 . S
C750 H785 0.949 . S
C751 C750 1.339 . S
C751 C752 1.439 . S
C751 H786 0.950 . S
C752 N748 1.383 . S
C752 C751 1.439 . S
C752 C781 1.392 . S
N753 Co747 2.008 . S
N753 C754 1.376 . S
N753 C757 1.374 . S
C754 N753 1.376 . S
C754 C755 1.443 . S
C754 C781 1.389 . S
C755 C754 1.443 . S
C755 C756 1.340 . S
C755 H787 0.951 . S
C756 C755 1.340 . S
C756 C757 1.439 . S
C756 H788 0.950 . S
C757 N753 1.374 . S
C757 C756 1.439 . S
C757 C782 1.395 . S
N758 Co747 1.995 . S
N758 C759 1.376 . S
N758 C762 1.383 . S
C759 N758 1.376 . S
C759 C760 1.446 . S
C759 C782 1.391 . S
C760 C759 1.446 . S
C760 C761 1.339 . S
C760 H789 0.949 . S
C761 C760 1.339 . S
C761 C762 1.439 . S
C761 H790 0.950 . S
C762 N758 1.383 . S
C762 C761 1.439 . S
C762 C780 1.392 . S
N763 Co747 2.282 . S
N763 C766 1.332 . S
N763 C768 1.332 . S
C764 C765 1.386 . S
C764 C767 1.388 . S
C765 C764 1.386 . S
C765 C766 1.382 . S
C765 H791 0.950 . S
C766 N763 1.332 . S
C766 C765 1.382 . S
C766 H777 0.952 . S
C767 C764 1.388 . S
C767 C768 1.382 . S
C767 H792 0.950 . S
C768 N763 1.332 . S
C768 C767 1.382 . S
C768 H778 0.948 . S
N769 Co747 2.282 . S
N769 C773 1.332 . S
N769 C774 1.332 . S
C770 C771 1.388 . S
C770 C774 1.382 . S
C770 H793 0.950 . S
C771 C770 1.388 . S
C771 C772 1.386 . S
C772 C771 1.386 . S
C772 C773 1.382 . S
C772 H794 0.950 . S
C773 N769 1.332 . S
C773 C772 1.382 . S
C773 H775 0.952 . S
C774 N769 1.332 . S
C774 C770 1.382 . S
C774 H776 0.948 . S
H775 C773 0.952 . S
H776 C774 0.948 . S
H777 C766 0.952 . S
H778 C768 0.948 . S
C779 C745 1.395 . S
C779 C749 1.391 . S
C780 C742 1.389 . S
C780 C762 1.392 . S
C781 C752 1.392 . S
C781 C754 1.389 . S
C782 C757 1.395 . S
C782 C759 1.391 . S
H783 C743 0.951 . S
H784 C744 0.950 . S
H785 C750 0.949 . S
H786 C751 0.950 . S
H787 C755 0.951 . S
H788 C756 0.950 . S
H789 C760 0.949 . S
H790 C761 0.950 . S
H791 C765 0.950 . S
H792 C767 0.950 . S
H793 C770 0.950 . S
H794 C772 0.950 . S
C795 C796 1.443 . S
C795 N799 1.376 . S
C795 C833 1.389 . S
C796 C795 1.443 . S
C796 C797 1.340 . S
C796 H836 0.951 . S
C797 C796 1.340 . S
C797 C798 1.439 . S
C797 H837 0.950 . S
C798 C797 1.439 . S
C798 N799 1.374 . S
C798 C832 1.395 . S
N799 C795 1.376 . S
N799 C798 1.374 . S
N799 Co800 2.008 . S
Co800 N799 2.008 . S
Co800 N801 1.995 . S
Co800 N806 2.008 . S
Co800 N811 1.995 . S
Co800 N816 2.282 . S
Co800 N822 2.282 . S
N801 Co800 1.995 . S
N801 C802 1.376 . S
N801 C805 1.383 . S
C802 N801 1.376 . S
C802 C803 1.446 . S
C802 C832 1.391 . S
C803 C802 1.446 . S
C803 C804 1.339 . S
C803 H838 0.949 . S
C804 C803 1.339 . S
C804 C805 1.439 . S
C804 H839 0.950 . S
C805 N801 1.383 . S
C805 C804 1.439 . S
C805 C834 1.392 . S
N806 Co800 2.008 . S
N806 C807 1.376 . S
N806 C810 1.374 . S
C807 N806 1.376 . S
C807 C808 1.443 . S
C807 C834 1.389 . S
C808 C807 1.443 . S
C808 C809 1.340 . S
C808 H840 0.951 . S
C809 C808 1.340 . S
C809 C810 1.439 . S
C809 H841 0.950 . S
C810 N806 1.374 . S
C810 C809 1.439 . S
C810 C835 1.395 . S
N811 Co800 1.995 . S
N811 C812 1.376 . S
N811 C815 1.383 . S
C812 N811 1.376 . S
C812 C813 1.446 . S
C812 C835 1.391 . S
C813 C812 1.446 . S
C813 C814 1.339 . S
C813 H842 0.949 . S
C814 C813 1.339 . S
C814 C815 1.439 . S
C814 H843 0.950 . S
C815 N811 1.383 . S
C815 C814 1.439 . S
C815 C833 1.392 . S
N816 Co800 2.282 . S
N816 C819 1.332 . S
N816 C821 1.332 . S
C817 C818 1.386 . S
C817 C820 1.388 . S
C818 C817 1.386 . S
C818 C819 1.382 . S
C818 H844 0.950 . S
C819 N816 1.332 . S
C819 C818 1.382 . S
C819 H830 0.952 . S
C820 C817 1.388 . S
C820 C821 1.382 . S
C820 H845 0.950 . S
C821 N816 1.332 . S
C821 C820 1.382 . S
C821 H831 0.948 . S
N822 Co800 2.282 . S
N822 C826 1.332 . S
N822 C827 1.332 . S
C823 C824 1.388 . S
C823 C827 1.382 . S
C823 H846 0.950 . S
C824 C823 1.388 . S
C824 C825 1.386 . S
C825 C824 1.386 . S
C825 C826 1.382 . S
C825 H847 0.950 . S
C826 N822 1.332 . S
C826 C825 1.382 . S
C826 H828 0.952 . S
C827 N822 1.332 . S
C827 C823 1.382 . S
C827 H829 0.948 . S
H828 C826 0.952 . S
H829 C827 0.948 . S
H830 C819 0.952 . S
H831 C821 0.948 . S
C832 C798 1.395 . S
C832 C802 1.391 . S
C833 C795 1.389 . S
C833 C815 1.392 . S
C834 C805 1.392 . S
C834 C807 1.389 . S
C835 C810 1.395 . S
C835 C812 1.391 . S
H836 C796 0.951 . S
H837 C797 0.950 . S
H838 C803 0.949 . S
H839 C804 0.950 . S
H840 C808 0.951 . S
H841 C809 0.950 . S
H842 C813 0.949 . S
H843 C814 0.950 . S
H844 C818 0.950 . S
H845 C820 0.950 . S
H846 C823 0.950 . S
H847 C825 0.950 . S
C848 C849 1.443 . S
C848 N852 1.376 . S
C848 C886 1.389 . S
C849 C848 1.443 . S
C849 C850 1.340 . S
C849 H889 0.951 . S
C850 C849 1.340 . S
C850 C851 1.439 . S
C850 H890 0.950 . S
C851 C850 1.439 . S
C851 N852 1.374 . S
C851 C885 1.395 . S
N852 C848 1.376 . S
N852 C851 1.374 . S
N852 Co853 2.008 . S
Co853 N852 2.008 . S
Co853 N854 1.995 . S
Co853 N859 2.008 . S
Co853 N864 1.995 . S
Co853 N869 2.282 . S
Co853 N875 2.282 . S
N854 Co853 1.995 . S
N854 C855 1.376 . S
N854 C858 1.383 . S
C855 N854 1.376 . S
C855 C856 1.446 . S
C855 C885 1.391 . S
C856 C855 1.446 . S
C856 C857 1.339 . S
C856 H891 0.949 . S
C857 C856 1.339 . S
C857 C858 1.439 . S
C857 H892 0.950 . S
C858 N854 1.383 . S
C858 C857 1.439 . S
C858 C887 1.392 . S
N859 Co853 2.008 . S
N859 C860 1.376 . S
N859 C863 1.374 . S
C860 N859 1.376 . S
C860 C861 1.443 . S
C860 C887 1.389 . S
C861 C860 1.443 . S
C861 C862 1.340 . S
C861 H893 0.951 . S
C862 C861 1.340 . S
C862 C863 1.439 . S
C862 H894 0.950 . S
C863 N859 1.374 . S
C863 C862 1.439 . S
C863 C888 1.395 . S
N864 Co853 1.995 . S
N864 C865 1.376 . S
N864 C868 1.383 . S
C865 N864 1.376 . S
C865 C866 1.446 . S
C865 C888 1.391 . S
C866 C865 1.446 . S
C866 C867 1.339 . S
C866 H895 0.949 . S
C867 C866 1.339 . S
C867 C868 1.439 . S
C867 H896 0.950 . S
C868 N864 1.383 . S
C868 C867 1.439 . S
C868 C886 1.392 . S
N869 Co853 2.282 . S
N869 C872 1.332 . S
N869 C874 1.332 . S
C870 C871 1.386 . S
C870 C873 1.388 . S
C871 C870 1.386 . S
C871 C872 1.382 . S
C871 H897 0.950 . S
C872 N869 1.332 . S
C872 C871 1.382 . S
C872 H883 0.952 . S
C873 C870 1.388 . S
C873 C874 1.382 . S
C873 H898 0.950 . S
C874 N869 1.332 . S
C874 C873 1.382 . S
C874 H884 0.948 . S
N875 Co853 2.282 . S
N875 C879 1.332 . S
N875 C880 1.332 . S
C876 C877 1.388 . S
C876 C880 1.382 . S
C876 H899 0.950 . S
C877 C876 1.388 . S
C877 C878 1.386 . S
C878 C877 1.386 . S
C878 C879 1.382 . S
C878 H900 0.950 . S
C879 N875 1.332 . S
C879 C878 1.382 . S
C879 H881 0.952 . S
C880 N875 1.332 . S
C880 C876 1.382 . S
C880 H882 0.948 . S
H881 C879 0.952 . S
H882 C880 0.948 . S
H883 C872 0.952 . S
H884 C874 0.948 . S
C885 C851 1.395 . S
C885 C855 1.391 . S
C886 C848 1.389 . S
C886 C868 1.392 . S
C887 C858 1.392 . S
C887 C860 1.389 . S
C888 C863 1.395 . S
C888 C865 1.391 . S
H889 C849 0.951 . S
H890 C850 0.950 . S
H891 C856 0.949 . S
H892 C857 0.950 . S
H893 C861 0.951 . S
H894 C862 0.950 . S
H895 C866 0.949 . S
H896 C867 0.950 . S
H897 C871 0.950 . S
H898 C873 0.950 . S
H899 C876 0.950 . S
H900 C878 0.950 . S
C901 C902 1.443 . S
C901 N905 1.376 . S
C901 C939 1.389 . S
C902 C901 1.443 . S
C902 C903 1.340 . S
C902 H942 0.951 . S
C903 C902 1.340 . S
C903 C904 1.439 . S
C903 H943 0.950 . S
C904 C903 1.439 . S
C904 N905 1.374 . S
C904 C938 1.395 . S
N905 C901 1.376 . S
N905 C904 1.374 . S
N905 Co906 2.008 . S
Co906 N905 2.008 . S
Co906 N907 1.995 . S
Co906 N912 2.008 . S
Co906 N917 1.995 . S
Co906 N922 2.282 . S
Co906 N928 2.282 . S
N907 Co906 1.995 . S
N907 C908 1.376 . S
N907 C911 1.383 . S
C908 N907 1.376 . S
C908 C909 1.446 . S
C908 C938 1.391 . S
C909 C908 1.446 . S
C909 C910 1.339 . S
C909 H944 0.949 . S
C910 C909 1.339 . S
C910 C911 1.439 . S
C910 H945 0.950 . S
C911 N907 1.383 . S
C911 C910 1.439 . S
C911 C940 1.392 . S
N912 Co906 2.008 . S
N912 C913 1.376 . S
N912 C916 1.374 . S
C913 N912 1.376 . S
C913 C914 1.443 . S
C913 C940 1.389 . S
C914 C913 1.443 . S
C914 C915 1.340 . S
C914 H946 0.951 . S
C915 C914 1.340 . S
C915 C916 1.439 . S
C915 H947 0.950 . S
C916 N912 1.374 . S
C916 C915 1.439 . S
C916 C941 1.395 . S
N917 Co906 1.995 . S
N917 C918 1.376 . S
N917 C921 1.383 . S
C918 N917 1.376 . S
C918 C919 1.446 . S
C918 C941 1.391 . S
C919 C918 1.446 . S
C919 C920 1.339 . S
C919 H948 0.949 . S
C920 C919 1.339 . S
C920 C921 1.439 . S
C920 H949 0.950 . S
C921 N917 1.383 . S
C921 C920 1.439 . S
C921 C939 1.392 . S
N922 Co906 2.282 . S
N922 C925 1.332 . S
N922 C927 1.332 . S
C923 C924 1.386 . S
C923 C926 1.388 . S
C924 C923 1.386 . S
C924 C925 1.382 . S
C924 H950 0.950 . S
C925 N922 1.332 . S
C925 C924 1.382 . S
C925 H936 0.952 . S
C926 C923 1.388 . S
C926 C927 1.382 . S
C926 H951 0.950 . S
C927 N922 1.332 . S
C927 C926 1.382 . S
C927 H937 0.948 . S
N928 Co906 2.282 . S
N928 C932 1.332 . S
N928 C933 1.332 . S
C929 C930 1.388 . S
C929 C933 1.382 . S
C929 H952 0.950 . S
C930 C929 1.388 . S
C930 C931 1.386 . S
C931 C930 1.386 . S
C931 C932 1.382 . S
C931 H953 0.950 . S
C932 N928 1.332 . S
C932 C931 1.382 . S
C932 H934 0.952 . S
C933 N928 1.332 . S
C933 C929 1.382 . S
C933 H935 0.948 . S
H934 C932 0.952 . S
H935 C933 0.948 . S
H936 C925 0.952 . S
H937 C927 0.948 . S
C938 C904 1.395 . S
C938 C908 1.391 . S
C939 C901 1.389 . S
C939 C921 1.392 . S
C940 C911 1.392 . S
C940 C913 1.389 . S
C941 C916 1.395 . S
C941 C918 1.391 . S
H942 C902 0.951 . S
H943 C903 0.950 . S
H944 C909 0.949 . S
H945 C910 0.950 . S
H946 C914 0.951 . S
H947 C915 0.950 . S
H948 C919 0.949 . S
H949 C920 0.950 . S
H950 C924 0.950 . S
H951 C926 0.950 . S
H952 C929 0.950 . S
H953 C931 0.950 . S
C954 C955 1.443 . S
C954 N958 1.376 . S
C954 C992 1.389 . S
C955 C954 1.443 . S
C955 C956 1.340 . S
C955 H995 0.951 . S
C956 C955 1.340 . S
C956 C957 1.439 . S
C956 H996 0.950 . S
C957 C956 1.439 . S
C957 N958 1.374 . S
C957 C991 1.395 . S
N958 C954 1.376 . S
N958 C957 1.374 . S
N958 Co959 2.008 . S
Co959 N958 2.008 . S
Co959 N960 1.995 . S
Co959 N965 2.008 . S
Co959 N970 1.995 . S
Co959 N975 2.282 . S
Co959 N981 2.282 . S
N960 Co959 1.995 . S
N960 C961 1.376 . S
N960 C964 1.383 . S
C961 N960 1.376 . S
C961 C962 1.446 . S
C961 C991 1.391 . S
C962 C961 1.446 . S
C962 C963 1.339 . S
C962 H997 0.949 . S
C963 C962 1.339 . S
C963 C964 1.439 . S
C963 H998 0.950 . S
C964 N960 1.383 . S
C964 C963 1.439 . S
C964 C993 1.392 . S
N965 Co959 2.008 . S
N965 C966 1.376 . S
N965 C969 1.374 . S
C966 N965 1.376 . S
C966 C967 1.443 . S
C966 C993 1.389 . S
C967 C966 1.443 . S
C967 C968 1.340 . S
C967 H999 0.951 . S
C968 C967 1.340 . S
C968 C969 1.439 . S
C968 H1000 0.950 . S
C969 N965 1.374 . S
C969 C968 1.439 . S
C969 C994 1.395 . S
N970 Co959 1.995 . S
N970 C971 1.376 . S
N970 C974 1.383 . S
C971 N970 1.376 . S
C971 C972 1.446 . S
C971 C994 1.391 . S
C972 C971 1.446 . S
C972 C973 1.339 . S
C972 H1001 0.949 . S
C973 C972 1.339 . S
C973 C974 1.439 . S
C973 H1002 0.950 . S
C974 N970 1.383 . S
C974 C973 1.439 . S
C974 C992 1.392 . S
N975 Co959 2.282 . S
N975 C978 1.332 . S
N975 C980 1.332 . S
C976 C977 1.386 . S
C976 C979 1.388 . S
C977 C976 1.386 . S
C977 C978 1.382 . S
C977 H1003 0.950 . S
C978 N975 1.332 . S
C978 C977 1.382 . S
C978 H989 0.952 . S
C979 C976 1.388 . S
C979 C980 1.382 . S
C979 H1004 0.950 . S
C980 N975 1.332 . S
C980 C979 1.382 . S
C980 H990 0.948 . S
N981 Co959 2.282 . S
N981 C985 1.332 . S
N981 C986 1.332 . S
C982 C983 1.388 . S
C982 C986 1.382 . S
C982 H1005 0.950 . S
C983 C982 1.388 . S
C983 C984 1.386 . S
C984 C983 1.386 . S
C984 C985 1.382 . S
C984 H1006 0.950 . S
C985 N981 1.332 . S
C985 C984 1.382 . S
C985 H987 0.952 . S
C986 N981 1.332 . S
C986 C982 1.382 . S
C986 H988 0.948 . S
H987 C985 0.952 . S
H988 C986 0.948 . S
H989 C978 0.952 . S
H990 C980 0.948 . S
C991 C957 1.395 . S
C991 C961 1.391 . S
C992 C954 1.389 . S
C992 C974 1.392 . S
C993 C964 1.392 . S
C993 C966 1.389 . S
C994 C969 1.395 . S
C994 C971 1.391 . S
H995 C955 0.951 . S
H996 C956 0.950 . S
H997 C962 0.949 . S
H998 C963 0.950 . S
H999 C967 0.951 . S
H1000 C968 0.950 . S
H1001 C972 0.949 . S
H1002 C973 0.950 . S
H1003 C977 0.950 . S
H1004 C979 0.950 . S
H1005 C982 0.950 . S
H1006 C984 0.950 . S
C1007 C1008 1.443 . S
C1007 N1011 1.376 . S
C1007 C1045 1.389 . S
C1008 C1007 1.443 . S
C1008 C1009 1.340 . S
C1008 H1048 0.951 . S
C1009 C1008 1.340 . S
C1009 C1010 1.439 . S
C1009 H1049 0.950 . S
C1010 C1009 1.439 . S
C1010 N1011 1.374 . S
C1010 C1044 1.395 . S
N1011 C1007 1.376 . S
N1011 C1010 1.374 . S
N1011 Co1012 2.008 . S
Co1012 N1011 2.008 . S
Co1012 N1013 1.995 . S
Co1012 N1018 2.008 . S
Co1012 N1023 1.995 . S
Co1012 N1028 2.282 . S
Co1012 N1034 2.282 . S
N1013 Co1012 1.995 . S
N1013 C1014 1.376 . S
N1013 C1017 1.383 . S
C1014 N1013 1.376 . S
C1014 C1015 1.446 . S
C1014 C1044 1.391 . S
C1015 C1014 1.446 . S
C1015 C1016 1.339 . S
C1015 H1050 0.949 . S
C1016 C1015 1.339 . S
C1016 C1017 1.439 . S
C1016 H1051 0.950 . S
C1017 N1013 1.383 . S
C1017 C1016 1.439 . S
C1017 C1046 1.392 . S
N1018 Co1012 2.008 . S
N1018 C1019 1.376 . S
N1018 C1022 1.374 . S
C1019 N1018 1.376 . S
C1019 C1020 1.443 . S
C1019 C1046 1.389 . S
C1020 C1019 1.443 . S
C1020 C1021 1.340 . S
C1020 H1052 0.951 . S
C1021 C1020 1.340 . S
C1021 C1022 1.439 . S
C1021 H1053 0.950 . S
C1022 N1018 1.374 . S
C1022 C1021 1.439 . S
C1022 C1047 1.395 . S
N1023 Co1012 1.995 . S
N1023 C1024 1.376 . S
N1023 C1027 1.383 . S
C1024 N1023 1.376 . S
C1024 C1025 1.446 . S
C1024 C1047 1.391 . S
C1025 C1024 1.446 . S
C1025 C1026 1.339 . S
C1025 H1054 0.949 . S
C1026 C1025 1.339 . S
C1026 C1027 1.439 . S
C1026 H1055 0.950 . S
C1027 N1023 1.383 . S
C1027 C1026 1.439 . S
C1027 C1045 1.392 . S
N1028 Co1012 2.282 . S
N1028 C1031 1.332 . S
N1028 C1033 1.332 . S
C1029 C1030 1.386 . S
C1029 C1032 1.388 . S
C1030 C1029 1.386 . S
C1030 C1031 1.382 . S
C1030 H1056 0.950 . S
C1031 N1028 1.332 . S
C1031 C1030 1.382 . S
C1031 H1042 0.952 . S
C1032 C1029 1.388 . S
C1032 C1033 1.382 . S
C1032 H1057 0.950 . S
C1033 N1028 1.332 . S
C1033 C1032 1.382 . S
C1033 H1043 0.948 . S
N1034 Co1012 2.282 . S
N1034 C1038 1.332 . S
N1034 C1039 1.332 . S
C1035 C1036 1.388 . S
C1035 C1039 1.382 . S
C1035 H1058 0.950 . S
C1036 C1035 1.388 . S
C1036 C1037 1.386 . S
C1037 C1036 1.386 . S
C1037 C1038 1.382 . S
C1037 H1059 0.950 . S
C1038 N1034 1.332 . S
C1038 C1037 1.382 . S
C1038 H1040 0.952 . S
C1039 N1034 1.332 . S
C1039 C1035 1.382 . S
C1039 H1041 0.948 . S
H1040 C1038 0.952 . S
H1041 C1039 0.948 . S
H1042 C1031 0.952 . S
H1043 C1033 0.948 . S
C1044 C1010 1.395 . S
C1044 C1014 1.391 . S
C1045 C1007 1.389 . S
C1045 C1027 1.392 . S
C1046 C1017 1.392 . S
C1046 C1019 1.389 . S
C1047 C1022 1.395 . S
C1047 C1024 1.391 . S
H1048 C1008 0.951 . S
H1049 C1009 0.950 . S
H1050 C1015 0.949 . S
H1051 C1016 0.950 . S
H1052 C1020 0.951 . S
H1053 C1021 0.950 . S
H1054 C1025 0.949 . S
H1055 C1026 0.950 . S
H1056 C1030 0.950 . S
H1057 C1032 0.950 . S
H1058 C1035 0.950 . S
H1059 C1037 0.950 . S
C1060 C1061 1.443 . S
C1060 N1064 1.376 . S
C1060 C1098 1.389 . S
C1061 C1060 1.443 . S
C1061 C1062 1.340 . S
C1061 H1101 0.951 . S
C1062 C1061 1.340 . S
C1062 C1063 1.439 . S
C1062 H1102 0.950 . S
C1063 C1062 1.439 . S
C1063 N1064 1.374 . S
C1063 C1097 1.395 . S
N1064 C1060 1.376 . S
N1064 C1063 1.374 . S
N1064 Co1065 2.008 . S
Co1065 N1064 2.008 . S
Co1065 N1066 1.995 . S
Co1065 N1071 2.008 . S
Co1065 N1076 1.995 . S
Co1065 N1081 2.282 . S
Co1065 N1087 2.282 . S
N1066 Co1065 1.995 . S
N1066 C1067 1.376 . S
N1066 C1070 1.383 . S
C1067 N1066 1.376 . S
C1067 C1068 1.446 . S
C1067 C1097 1.391 . S
C1068 C1067 1.446 . S
C1068 C1069 1.339 . S
C1068 H1103 0.949 . S
C1069 C1068 1.339 . S
C1069 C1070 1.439 . S
C1069 H1104 0.950 . S
C1070 N1066 1.383 . S
C1070 C1069 1.439 . S
C1070 C1099 1.392 . S
N1071 Co1065 2.008 . S
N1071 C1072 1.376 . S
N1071 C1075 1.374 . S
C1072 N1071 1.376 . S
C1072 C1073 1.443 . S
C1072 C1099 1.389 . S
C1073 C1072 1.443 . S
C1073 C1074 1.340 . S
C1073 H1105 0.951 . S
C1074 C1073 1.340 . S
C1074 C1075 1.439 . S
C1074 H1106 0.950 . S
C1075 N1071 1.374 . S
C1075 C1074 1.439 . S
C1075 C1100 1.395 . S
N1076 Co1065 1.995 . S
N1076 C1077 1.376 . S
N1076 C1080 1.383 . S
C1077 N1076 1.376 . S
C1077 C1078 1.446 . S
C1077 C1100 1.391 . S
C1078 C1077 1.446 . S
C1078 C1079 1.339 . S
C1078 H1107 0.949 . S
C1079 C1078 1.339 . S
C1079 C1080 1.439 . S
C1079 H1108 0.950 . S
C1080 N1076 1.383 . S
C1080 C1079 1.439 . S
C1080 C1098 1.392 . S
N1081 Co1065 2.282 . S
N1081 C1084 1.332 . S
N1081 C1086 1.332 . S
C1082 C1083 1.386 . S
C1082 C1085 1.388 . S
C1083 C1082 1.386 . S
C1083 C1084 1.382 . S
C1083 H1109 0.950 . S
C1084 N1081 1.332 . S
C1084 C1083 1.382 . S
C1084 H1095 0.952 . S
C1085 C1082 1.388 . S
C1085 C1086 1.382 . S
C1085 H1110 0.950 . S
C1086 N1081 1.332 . S
C1086 C1085 1.382 . S
C1086 H1096 0.948 . S
N1087 Co1065 2.282 . S
N1087 C1091 1.332 . S
N1087 C1092 1.332 . S
C1088 C1089 1.388 . S
C1088 C1092 1.382 . S
C1088 H1111 0.950 . S
C1089 C1088 1.388 . S
C1089 C1090 1.386 . S
C1090 C1089 1.386 . S
C1090 C1091 1.382 . S
C1090 H1112 0.950 . S
C1091 N1087 1.332 . S
C1091 C1090 1.382 . S
C1091 H1093 0.952 . S
C1092 N1087 1.332 . S
C1092 C1088 1.382 . S
C1092 H1094 0.948 . S
H1093 C1091 0.952 . S
H1094 C1092 0.948 . S
H1095 C1084 0.952 . S
H1096 C1086 0.948 . S
C1097 C1063 1.395 . S
C1097 C1067 1.391 . S
C1098 C1060 1.389 . S
C1098 C1080 1.392 . S
C1099 C1070 1.392 . S
C1099 C1072 1.389 . S
C1100 C1075 1.395 . S
C1100 C1077 1.391 . S
H1101 C1061 0.951 . S
H1102 C1062 0.950 . S
H1103 C1068 0.949 . S
H1104 C1069 0.950 . S
H1105 C1073 0.951 . S
H1106 C1074 0.950 . S
H1107 C1078 0.949 . S
H1108 C1079 0.950 . S
H1109 C1083 0.950 . S
H1110 C1085 0.950 . S
H1111 C1088 0.950 . S
H1112 C1090 0.950 . S
C1113 C1114 1.443 . S
C1113 N1117 1.376 . S
C1113 C1151 1.389 . S
C1114 C1113 1.443 . S
C1114 C1115 1.340 . S
C1114 H1154 0.951 . S
C1115 C1114 1.340 . S
C1115 C1116 1.439 . S
C1115 H1155 0.950 . S
C1116 C1115 1.439 . S
C1116 N1117 1.374 . S
C1116 C1150 1.395 . S
N1117 C1113 1.376 . S
N1117 C1116 1.374 . S
N1117 Co1118 2.008 . S
Co1118 N1117 2.008 . S
Co1118 N1119 1.995 . S
Co1118 N1124 2.008 . S
Co1118 N1129 1.995 . S
Co1118 N1134 2.282 . S
Co1118 N1140 2.282 . S
N1119 Co1118 1.995 . S
N1119 C1120 1.376 . S
N1119 C1123 1.383 . S
C1120 N1119 1.376 . S
C1120 C1121 1.446 . S
C1120 C1150 1.391 . S
C1121 C1120 1.446 . S
C1121 C1122 1.339 . S
C1121 H1156 0.949 . S
C1122 C1121 1.339 . S
C1122 C1123 1.439 . S
C1122 H1157 0.950 . S
C1123 N1119 1.383 . S
C1123 C1122 1.439 . S
C1123 C1152 1.392 . S
N1124 Co1118 2.008 . S
N1124 C1125 1.376 . S
N1124 C1128 1.374 . S
C1125 N1124 1.376 . S
C1125 C1126 1.443 . S
C1125 C1152 1.389 . S
C1126 C1125 1.443 . S
C1126 C1127 1.340 . S
C1126 H1158 0.951 . S
C1127 C1126 1.340 . S
C1127 C1128 1.439 . S
C1127 H1159 0.950 . S
C1128 N1124 1.374 . S
C1128 C1127 1.439 . S
C1128 C1153 1.395 . S
N1129 Co1118 1.995 . S
N1129 C1130 1.376 . S
N1129 C1133 1.383 . S
C1130 N1129 1.376 . S
C1130 C1131 1.446 . S
C1130 C1153 1.391 . S
C1131 C1130 1.446 . S
C1131 C1132 1.339 . S
C1131 H1160 0.949 . S
C1132 C1131 1.339 . S
C1132 C1133 1.439 . S
C1132 H1161 0.950 . S
C1133 N1129 1.383 . S
C1133 C1132 1.439 . S
C1133 C1151 1.392 . S
N1134 Co1118 2.282 . S
N1134 C1137 1.332 . S
N1134 C1139 1.332 . S
C1135 C1136 1.386 . S
C1135 C1138 1.388 . S
C1136 C1135 1.386 . S
C1136 C1137 1.382 . S
C1136 H1162 0.950 . S
C1137 N1134 1.332 . S
C1137 C1136 1.382 . S
C1137 H1148 0.952 . S
C1138 C1135 1.388 . S
C1138 C1139 1.382 . S
C1138 H1163 0.950 . S
C1139 N1134 1.332 . S
C1139 C1138 1.382 . S
C1139 H1149 0.948 . S
N1140 Co1118 2.282 . S
N1140 C1144 1.332 . S
N1140 C1145 1.332 . S
C1141 C1142 1.388 . S
C1141 C1145 1.382 . S
C1141 H1164 0.950 . S
C1142 C1141 1.388 . S
C1142 C1143 1.386 . S
C1143 C1142 1.386 . S
C1143 C1144 1.382 . S
C1143 H1165 0.950 . S
C1144 N1140 1.332 . S
C1144 C1143 1.382 . S
C1144 H1146 0.952 . S
C1145 N1140 1.332 . S
C1145 C1141 1.382 . S
C1145 H1147 0.948 . S
H1146 C1144 0.952 . S
H1147 C1145 0.948 . S
H1148 C1137 0.952 . S
H1149 C1139 0.948 . S
C1150 C1116 1.395 . S
C1150 C1120 1.391 . S
C1151 C1113 1.389 . S
C1151 C1133 1.392 . S
C1152 C1123 1.392 . S
C1152 C1125 1.389 . S
C1153 C1128 1.395 . S
C1153 C1130 1.391 . S
H1154 C1114 0.951 . S
H1155 C1115 0.950 . S
H1156 C1121 0.949 . S
H1157 C1122 0.950 . S
H1158 C1126 0.951 . S
H1159 C1127 0.950 . S
H1160 C1131 0.949 . S
H1161 C1132 0.950 . S
H1162 C1136 0.950 . S
H1163 C1138 0.950 . S
H1164 C1141 0.950 . S
H1165 C1143 0.950 . S
C1166 C1167 1.443 . S
C1166 N1170 1.376 . S
C1166 C1204 1.389 . S
C1167 C1166 1.443 . S
C1167 C1168 1.340 . S
C1167 H1207 0.951 . S
C1168 C1167 1.340 . S
C1168 C1169 1.439 . S
C1168 H1208 0.950 . S
C1169 C1168 1.439 . S
C1169 N1170 1.374 . S
C1169 C1203 1.395 . S
N1170 C1166 1.376 . S
N1170 C1169 1.374 . S
N1170 Co1171 2.008 . S
Co1171 N1170 2.008 . S
Co1171 N1172 1.995 . S
Co1171 N1177 2.008 . S
Co1171 N1182 1.995 . S
Co1171 N1187 2.282 . S
Co1171 N1193 2.282 . S
N1172 Co1171 1.995 . S
N1172 C1173 1.376 . S
N1172 C1176 1.383 . S
C1173 N1172 1.376 . S
C1173 C1174 1.446 . S
C1173 C1203 1.391 . S
C1174 C1173 1.446 . S
C1174 C1175 1.339 . S
C1174 H1209 0.949 . S
C1175 C1174 1.339 . S
C1175 C1176 1.439 . S
C1175 H1210 0.950 . S
C1176 N1172 1.383 . S
C1176 C1175 1.439 . S
C1176 C1205 1.392 . S
N1177 Co1171 2.008 . S
N1177 C1178 1.376 . S
N1177 C1181 1.374 . S
C1178 N1177 1.376 . S
C1178 C1179 1.443 . S
C1178 C1205 1.389 . S
C1179 C1178 1.443 . S
C1179 C1180 1.340 . S
C1179 H1211 0.951 . S
C1180 C1179 1.340 . S
C1180 C1181 1.439 . S
C1180 H1212 0.950 . S
C1181 N1177 1.374 . S
C1181 C1180 1.439 . S
C1181 C1206 1.395 . S
N1182 Co1171 1.995 . S
N1182 C1183 1.376 . S
N1182 C1186 1.383 . S
C1183 N1182 1.376 . S
C1183 C1184 1.446 . S
C1183 C1206 1.391 . S
C1184 C1183 1.446 . S
C1184 C1185 1.339 . S
C1184 H1213 0.949 . S
C1185 C1184 1.339 . S
C1185 C1186 1.439 . S
C1185 H1214 0.950 . S
C1186 N1182 1.383 . S
C1186 C1185 1.439 . S
C1186 C1204 1.392 . S
N1187 Co1171 2.282 . S
N1187 C1190 1.332 . S
N1187 C1192 1.332 . S
C1188 C1189 1.386 . S
C1188 C1191 1.388 . S
C1189 C1188 1.386 . S
C1189 C1190 1.382 . S
C1189 H1215 0.950 . S
C1190 N1187 1.332 . S
C1190 C1189 1.382 . S
C1190 H1201 0.952 . S
C1191 C1188 1.388 . S
C1191 C1192 1.382 . S
C1191 H1216 0.950 . S
C1192 N1187 1.332 . S
C1192 C1191 1.382 . S
C1192 H1202 0.948 . S
N1193 Co1171 2.282 . S
N1193 C1197 1.332 . S
N1193 C1198 1.332 . S
C1194 C1195 1.388 . S
C1194 C1198 1.382 . S
C1194 H1217 0.950 . S
C1195 C1194 1.388 . S
C1195 C1196 1.386 . S
C1196 C1195 1.386 . S
C1196 C1197 1.382 . S
C1196 H1218 0.950 . S
C1197 N1193 1.332 . S
C1197 C1196 1.382 . S
C1197 H1199 0.952 . S
C1198 N1193 1.332 . S
C1198 C1194 1.382 . S
C1198 H1200 0.948 . S
H1199 C1197 0.952 . S
H1200 C1198 0.948 . S
H1201 C1190 0.952 . S
H1202 C1192 0.948 . S
C1203 C1169 1.395 . S
C1203 C1173 1.391 . S
C1204 C1166 1.389 . S
C1204 C1186 1.392 . S
C1205 C1176 1.392 . S
C1205 C1178 1.389 . S
C1206 C1181 1.395 . S
C1206 C1183 1.391 . S
H1207 C1167 0.951 . S
H1208 C1168 0.950 . S
H1209 C1174 0.949 . S
H1210 C1175 0.950 . S
H1211 C1179 0.951 . S
H1212 C1180 0.950 . S
H1213 C1184 0.949 . S
H1214 C1185 0.950 . S
H1215 C1189 0.950 . S
H1216 C1191 0.950 . S
H1217 C1194 0.950 . S
H1218 C1196 0.950 . S
C1219 C1220 1.443 . S
C1219 N1223 1.376 . S
C1219 C1257 1.389 . S
C1220 C1219 1.443 . S
C1220 C1221 1.340 . S
C1220 H1260 0.951 . S
C1221 C1220 1.340 . S
C1221 C1222 1.439 . S
C1221 H1261 0.950 . S
C1222 C1221 1.439 . S
C1222 N1223 1.374 . S
C1222 C1256 1.395 . S
N1223 C1219 1.376 . S
N1223 C1222 1.374 . S
N1223 Co1224 2.008 . S
Co1224 N1223 2.008 . S
Co1224 N1225 1.995 . S
Co1224 N1230 2.008 . S
Co1224 N1235 1.995 . S
Co1224 N1240 2.282 . S
Co1224 N1246 2.282 . S
N1225 Co1224 1.995 . S
N1225 C1226 1.376 . S
N1225 C1229 1.383 . S
C1226 N1225 1.376 . S
C1226 C1227 1.446 . S
C1226 C1256 1.391 . S
C1227 C1226 1.446 . S
C1227 C1228 1.339 . S
C1227 H1262 0.949 . S
C1228 C1227 1.339 . S
C1228 C1229 1.439 . S
C1228 H1263 0.950 . S
C1229 N1225 1.383 . S
C1229 C1228 1.439 . S
C1229 C1258 1.392 . S
N1230 Co1224 2.008 . S
N1230 C1231 1.376 . S
N1230 C1234 1.374 . S
C1231 N1230 1.376 . S
C1231 C1232 1.443 . S
C1231 C1258 1.389 . S
C1232 C1231 1.443 . S
C1232 C1233 1.340 . S
C1232 H1264 0.951 . S
C1233 C1232 1.340 . S
C1233 C1234 1.439 . S
C1233 H1265 0.950 . S
C1234 N1230 1.374 . S
C1234 C1233 1.439 . S
C1234 C1259 1.395 . S
N1235 Co1224 1.995 . S
N1235 C1236 1.376 . S
N1235 C1239 1.383 . S
C1236 N1235 1.376 . S
C1236 C1237 1.446 . S
C1236 C1259 1.391 . S
C1237 C1236 1.446 . S
C1237 C1238 1.339 . S
C1237 H1266 0.949 . S
C1238 C1237 1.339 . S
C1238 C1239 1.439 . S
C1238 H1267 0.950 . S
C1239 N1235 1.383 . S
C1239 C1238 1.439 . S
C1239 C1257 1.392 . S
N1240 Co1224 2.282 . S
N1240 C1243 1.332 . S
N1240 C1245 1.332 . S
C1241 C1242 1.386 . S
C1241 C1244 1.388 . S
C1242 C1241 1.386 . S
C1242 C1243 1.382 . S
C1242 H1268 0.950 . S
C1243 N1240 1.332 . S
C1243 C1242 1.382 . S
C1243 H1254 0.952 . S
C1244 C1241 1.388 . S
C1244 C1245 1.382 . S
C1244 H1269 0.950 . S
C1245 N1240 1.332 . S
C1245 C1244 1.382 . S
C1245 H1255 0.948 . S
N1246 Co1224 2.282 . S
N1246 C1250 1.332 . S
N1246 C1251 1.332 . S
C1247 C1248 1.388 . S
C1247 C1251 1.382 . S
C1247 H1270 0.950 . S
C1248 C1247 1.388 . S
C1248 C1249 1.386 . S
C1249 C1248 1.386 . S
C1249 C1250 1.382 . S
C1249 H1271 0.950 . S
C1250 N1246 1.332 . S
C1250 C1249 1.382 . S
C1250 H1252 0.952 . S
C1251 N1246 1.332 . S
C1251 C1247 1.382 . S
C1251 H1253 0.948 . S
H1252 C1250 0.952 . S
H1253 C1251 0.948 . S
H1254 C1243 0.952 . S
H1255 C1245 0.948 . S
C1256 C1222 1.395 . S
C1256 C1226 1.391 . S
C1257 C1219 1.389 . S
C1257 C1239 1.392 . S
C1258 C1229 1.392 . S
C1258 C1231 1.389 . S
C1259 C1234 1.395 . S
C1259 C1236 1.391 . S
H1260 C1220 0.951 . S
H1261 C1221 0.950 . S
H1262 C1227 0.949 . S
H1263 C1228 0.950 . S
H1264 C1232 0.951 . S
H1265 C1233 0.950 . S
H1266 C1237 0.949 . S
H1267 C1238 0.950 . S
H1268 C1242 0.950 . S
H1269 C1244 0.950 . S
H1270 C1247 0.950 . S
H1271 C1249 0.950 . S
H1272 C1280 0.929 . S
H1273 C1282 0.930 . S
H1274 C1284 0.930 . S
H1275 C1287 0.929 . S
H1276 C1290 0.930 . S
H1277 C1292 0.960 . S
H1278 C1292 0.960 . S
H1279 C1292 0.960 . S
C1280 H1272 0.929 . S
C1280 C1281 1.377 . S
C1280 C1282 1.384 . S
C1281 C1280 1.377 . S
C1281 C1287 1.390 . S
C1282 H1273 0.930 . S
C1282 C1280 1.384 . S
C1282 C1283 1.372 . S
C1283 C1282 1.372 . S
C1283 C1284 1.400 . S
C1283 C1288 1.490 . S
C1284 H1274 0.930 . S
C1284 C1283 1.400 . S
C1284 C1287 1.386 . S
H1285 C1301 0.930 . S
H1286 C1302 0.931 . S
C1287 H1275 0.929 . S
C1287 C1281 1.390 . S
C1287 C1284 1.386 . S
C1288 C1283 1.490 . S
C1288 C1290 1.395 . S
C1288 C1291 1.403 . S
H1289 C1295 0.930 . S
C1290 H1276 0.930 . S
C1290 C1288 1.395 . S
C1290 C1293 1.403 . S
C1291 C1288 1.403 . S
C1291 C1292 1.524 . S
C1291 C1295 1.400 . S
C1292 H1277 0.960 . S
C1292 H1278 0.960 . S
C1292 H1279 0.960 . S
C1292 C1291 1.524 . S
C1293 C1290 1.403 . S
C1293 C1294 1.392 . S
C1293 C1297 1.495 . S
C1294 C1293 1.392 . S
C1294 C1295 1.385 . S
C1294 C1296 1.478 . S
C1295 H1289 0.930 . S
C1295 C1291 1.400 . S
C1295 C1294 1.385 . S
C1296 C1294 1.478 . S
C1296 C1298 1.381 . S
C1296 C1302 1.383 . S
C1297 C1293 1.495 . S
C1297 H1303 0.959 . S
C1297 H1304 0.961 . S
C1297 H1305 0.960 . S
C1298 C1296 1.381 . S
C1298 C1299 1.394 . S
C1298 H1306 0.930 . S
C1299 C1298 1.394 . S
C1299 C1300 1.383 . S
C1299 H1307 0.929 . S
C1300 C1299 1.383 . S
C1300 C1301 1.377 . S
C1301 H1285 0.930 . S
C1301 C1300 1.377 . S
C1301 C1302 1.379 . S
C1302 H1286 0.931 . S
C1302 C1296 1.383 . S
C1302 C1301 1.379 . S
H1303 C1297 0.959 . S
H1304 C1297 0.961 . S
H1305 C1297 0.960 . S
H1306 C1298 0.930 . S
H1307 C1299 0.929 . S
H1308 C1316 0.929 . S
H1309 C1318 0.930 . S
H1310 C1320 0.930 . S
H1311 C1323 0.929 . S
H1312 C1326 0.930 . S
H1313 C1328 0.960 . S
H1314 C1328 0.960 . S
H1315 C1328 0.960 . S
C1316 H1308 0.929 . S
C1316 C1317 1.377 . S
C1316 C1318 1.384 . S
C1317 C1316 1.377 . S
C1317 C1323 1.390 . S
C1318 H1309 0.930 . S
C1318 C1316 1.384 . S
C1318 C1319 1.372 . S
C1319 C1318 1.372 . S
C1319 C1320 1.400 . S
C1319 C1324 1.490 . S
C1320 H1310 0.930 . S
C1320 C1319 1.400 . S
C1320 C1323 1.386 . S
H1321 C1337 0.930 . S
H1322 C1338 0.931 . S
C1323 H1311 0.929 . S
C1323 C1317 1.390 . S
C1323 C1320 1.386 . S
C1324 C1319 1.490 . S
C1324 C1326 1.395 . S
C1324 C1327 1.403 . S
H1325 C1331 0.930 1_455 S
C1326 H1312 0.930 . S
C1326 C1324 1.395 . S
C1326 C1329 1.403 . S
C1327 C1324 1.403 . S
C1327 C1328 1.524 . S
C1327 C1331 1.400 . S
C1328 H1313 0.960 . S
C1328 H1314 0.960 . S
C1328 H1315 0.960 . S
C1328 C1327 1.524 . S
C1329 C1326 1.403 . S
C1329 C1330 1.392 1_655 S
C1329 C1333 1.495 1_655 S
C1330 C1329 1.392 1_455 S
C1330 C1331 1.385 1_455 S
C1330 C1332 1.478 . S
C1331 H1325 0.930 1_655 S
C1331 C1327 1.400 . S
C1331 C1330 1.385 1_655 S
C1332 C1330 1.478 . S
C1332 C1334 1.381 . S
C1332 C1338 1.383 . S
C1333 C1329 1.495 1_455 S
C1333 H1339 0.959 1_455 S
C1333 H1340 0.961 . S
C1333 H1341 0.960 . S
C1334 C1332 1.381 . S
C1334 C1335 1.394 . S
C1334 H1342 0.930 . S
C1335 C1334 1.394 . S
C1335 C1336 1.383 . S
C1335 H1343 0.929 . S
C1336 C1335 1.383 . S
C1336 C1337 1.377 . S
C1337 H1321 0.930 . S
C1337 C1336 1.377 . S
C1337 C1338 1.379 . S
C1338 H1322 0.931 . S
C1338 C1332 1.383 . S
C1338 C1337 1.379 . S
H1339 C1333 0.959 1_655 S
H1340 C1333 0.961 . S
H1341 C1333 0.960 . S
H1342 C1334 0.930 . S
H1343 C1335 0.929 . S
H1344 C1352 0.929 . S
H1345 C1354 0.930 . S
H1346 C1356 0.930 . S
H1347 C1359 0.929 . S
H1348 C1362 0.930 . S
H1349 C1364 0.960 . S
H1350 C1364 0.960 . S
H1351 C1364 0.960 . S
C1352 H1344 0.929 . S
C1352 C1353 1.377 . S
C1352 C1354 1.384 . S
C1353 C1352 1.377 . S
C1353 C1359 1.390 . S
C1354 H1345 0.930 . S
C1354 C1352 1.384 . S
C1354 C1355 1.372 . S
C1355 C1354 1.372 . S
C1355 C1356 1.400 . S
C1355 C1360 1.490 . S
C1356 H1346 0.930 . S
C1356 C1355 1.400 . S
C1356 C1359 1.386 . S
H1357 C1373 0.930 . S
H1358 C1374 0.931 . S
C1359 H1347 0.929 . S
C1359 C1353 1.390 . S
C1359 C1356 1.386 . S
C1360 C1355 1.490 . S
C1360 C1362 1.395 . S
C1360 C1363 1.403 . S
H1361 C1367 0.930 . S
C1362 H1348 0.930 . S
C1362 C1360 1.395 . S
C1362 C1365 1.403 . S
C1363 C1360 1.403 . S
C1363 C1364 1.524 . S
C1363 C1367 1.400 . S
C1364 H1349 0.960 . S
C1364 H1350 0.960 . S
C1364 H1351 0.960 . S
C1364 C1363 1.524 . S
C1365 C1362 1.403 . S
C1365 C1366 1.392 . S
C1365 C1369 1.495 . S
C1366 C1365 1.392 . S
C1366 C1367 1.385 . S
C1366 C1368 1.478 . S
C1367 H1361 0.930 . S
C1367 C1363 1.400 . S
C1367 C1366 1.385 . S
C1368 C1366 1.478 . S
C1368 C1370 1.381 . S
C1368 C1374 1.383 . S
C1369 C1365 1.495 . S
C1369 H1375 0.959 . S
C1369 H1376 0.961 . S
C1369 H1377 0.960 . S
C1370 C1368 1.381 . S
C1370 C1371 1.394 . S
C1370 H1378 0.930 . S
C1371 C1370 1.394 . S
C1371 C1372 1.383 . S
C1371 H1379 0.929 . S
C1372 C1371 1.383 . S
C1372 C1373 1.377 . S
C1373 H1357 0.930 . S
C1373 C1372 1.377 . S
C1373 C1374 1.379 . S
C1374 H1358 0.931 . S
C1374 C1368 1.383 . S
C1374 C1373 1.379 . S
H1375 C1369 0.959 . S
H1376 C1369 0.961 . S
H1377 C1369 0.960 . S
H1378 C1370 0.930 . S
H1379 C1371 0.929 . S
H1380 C1388 0.929 . S
H1381 C1390 0.930 . S
H1382 C1392 0.930 . S
H1383 C1395 0.929 . S
H1384 C1398 0.930 . S
H1385 C1400 0.960 . S
H1386 C1400 0.960 . S
H1387 C1400 0.960 . S
C1388 H1380 0.929 . S
C1388 C1389 1.377 . S
C1388 C1390 1.384 . S
C1389 C1388 1.377 . S
C1389 C1395 1.390 . S
C1390 H1381 0.930 . S
C1390 C1388 1.384 . S
C1390 C1391 1.372 . S
C1391 C1390 1.372 . S
C1391 C1392 1.400 . S
C1391 C1396 1.490 . S
C1392 H1382 0.930 . S
C1392 C1391 1.400 . S
C1392 C1395 1.386 . S
H1393 C1409 0.930 . S
H1394 C1410 0.931 . S
C1395 H1383 0.929 . S
C1395 C1389 1.390 . S
C1395 C1392 1.386 . S
C1396 C1391 1.490 . S
C1396 C1398 1.395 . S
C1396 C1399 1.403 . S
H1397 C1403 0.930 . S
C1398 H1384 0.930 . S
C1398 C1396 1.395 . S
C1398 C1401 1.403 1_455 S
C1399 C1396 1.403 . S
C1399 C1400 1.524 . S
C1399 C1403 1.400 1_455 S
C1400 H1385 0.960 . S
C1400 H1386 0.960 . S
C1400 H1387 0.960 . S
C1400 C1399 1.524 . S
C1401 C1398 1.403 1_655 S
C1401 C1402 1.392 . S
C1401 C1405 1.495 . S
C1402 C1401 1.392 . S
C1402 C1403 1.385 . S
C1402 C1404 1.478 . S
C1403 H1397 0.930 . S
C1403 C1399 1.400 1_655 S
C1403 C1402 1.385 . S
C1404 C1402 1.478 . S
C1404 C1406 1.381 . S
C1404 C1410 1.383 . S
C1405 C1401 1.495 . S
C1405 H1411 0.959 . S
C1405 H1412 0.961 . S
C1405 H1413 0.960 . S
C1406 C1404 1.381 . S
C1406 C1407 1.394 . S
C1406 H1414 0.930 . S
C1407 C1406 1.394 . S
C1407 C1408 1.383 . S
C1407 H1415 0.929 . S
C1408 C1407 1.383 . S
C1408 C1409 1.377 . S
C1409 H1393 0.930 . S
C1409 C1408 1.377 . S
C1409 C1410 1.379 . S
C1410 H1394 0.931 . S
C1410 C1404 1.383 . S
C1410 C1409 1.379 . S
H1411 C1405 0.959 . S
H1412 C1405 0.961 . S
H1413 C1405 0.960 . S
H1414 C1406 0.930 . S
H1415 C1407 0.929 . S
H1416 C1424 0.929 . S
H1417 C1426 0.930 . S
H1418 C1428 0.930 . S
H1419 C1431 0.929 . S
H1420 C1434 0.930 . S
H1421 C1436 0.960 . S
H1422 C1436 0.960 . S
H1423 C1436 0.960 . S
C1424 H1416 0.929 . S
C1424 C1425 1.377 . S
C1424 C1426 1.384 . S
C1425 C1424 1.377 . S
C1425 C1431 1.390 . S
C1426 H1417 0.930 . S
C1426 C1424 1.384 . S
C1426 C1427 1.372 . S
C1427 C1426 1.372 . S
C1427 C1428 1.400 . S
C1427 C1432 1.490 . S
C1428 H1418 0.930 . S
C1428 C1427 1.400 . S
C1428 C1431 1.386 . S
H1429 C1445 0.930 . S
H1430 C1446 0.931 . S
C1431 H1419 0.929 . S
C1431 C1425 1.390 . S
C1431 C1428 1.386 . S
C1432 C1427 1.490 . S
C1432 C1434 1.395 . S
C1432 C1435 1.403 . S
H1433 C1439 0.930 . S
C1434 H1420 0.930 . S
C1434 C1432 1.395 . S
C1434 C1437 1.403 . S
C1435 C1432 1.403 . S
C1435 C1436 1.524 . S
C1435 C1439 1.400 . S
C1436 H1421 0.960 . S
C1436 H1422 0.960 . S
C1436 H1423 0.960 . S
C1436 C1435 1.524 . S
C1437 C1434 1.403 . S
C1437 C1438 1.392 . S
C1437 C1441 1.495 . S
C1438 C1437 1.392 . S
C1438 C1439 1.385 . S
C1438 C1440 1.478 . S
C1439 H1433 0.930 . S
C1439 C1435 1.400 . S
C1439 C1438 1.385 . S
C1440 C1438 1.478 . S
C1440 C1442 1.381 . S
C1440 C1446 1.383 . S
C1441 C1437 1.495 . S
C1441 H1447 0.959 . S
C1441 H1448 0.961 . S
C1441 H1449 0.960 . S
C1442 C1440 1.381 . S
C1442 C1443 1.394 . S
C1442 H1450 0.930 . S
C1443 C1442 1.394 . S
C1443 C1444 1.383 . S
C1443 H1451 0.929 . S
C1444 C1443 1.383 . S
C1444 C1445 1.377 . S
C1445 H1429 0.930 . S
C1445 C1444 1.377 . S
C1445 C1446 1.379 . S
C1446 H1430 0.931 . S
C1446 C1440 1.383 . S
C1446 C1445 1.379 . S
H1447 C1441 0.959 . S
H1448 C1441 0.961 . S
H1449 C1441 0.960 . S
H1450 C1442 0.930 . S
H1451 C1443 0.929 . S
H1452 C1460 0.929 . S
H1453 C1462 0.930 . S
H1454 C1464 0.930 . S
H1455 C1467 0.929 . S
H1456 C1470 0.930 . S
H1457 C1472 0.987 . S
H1458 C1472 0.960 . S
H1459 C1472 0.960 . S
C1460 H1452 0.929 . S
C1460 C1461 1.377 . S
C1460 C1462 1.384 . S
C1461 C1460 1.377 . S
C1461 C1467 1.390 . S
C1462 H1453 0.930 . S
C1462 C1460 1.384 . S
C1462 C1463 1.372 . S
C1463 C1462 1.372 . S
C1463 C1464 1.400 . S
C1463 C1468 1.490 . S
C1464 H1454 0.930 . S
C1464 C1463 1.400 . S
C1464 C1467 1.386 . S
H1465 C1481 0.930 . S
H1466 C1482 0.931 . S
C1467 H1455 0.929 . S
C1467 C1461 1.390 . S
C1467 C1464 1.386 . S
C1468 C1463 1.490 . S
C1468 C1470 1.395 . S
C1468 C1471 1.403 . S
H1469 C1475 0.930 . S
C1470 H1456 0.930 . S
C1470 C1468 1.395 . S
C1470 C1473 1.403 1_655 S
C1471 C1468 1.403 . S
C1471 C1472 1.524 . S
C1471 C1475 1.400 1_655 S
C1472 H1457 0.987 . S
C1472 H1458 0.960 . S
C1472 H1459 0.960 . S
C1472 C1471 1.524 . S
C1473 C1470 1.403 1_455 S
C1473 C1474 1.392 . S
C1473 C1477 1.495 . S
C1474 C1473 1.392 . S
C1474 C1475 1.385 . S
C1474 C1476 1.478 . S
C1475 H1469 0.930 . S
C1475 C1471 1.400 1_455 S
C1475 C1474 1.385 . S
C1476 C1474 1.478 . S
C1476 C1478 1.381 . S
C1476 C1482 1.383 . S
C1477 C1473 1.495 . S
C1477 H1483 0.959 . S
C1477 H1484 0.961 . S
C1477 H1485 0.960 . S
C1478 C1476 1.381 . S
C1478 C1479 1.394 . S
C1478 H1486 0.930 . S
C1479 C1478 1.394 . S
C1479 C1480 1.383 . S
C1479 H1487 0.929 . S
C1480 C1479 1.383 . S
C1480 C1481 1.377 . S
C1481 H1465 0.930 . S
C1481 C1480 1.377 . S
C1481 C1482 1.379 . S
C1482 H1466 0.931 . S
C1482 C1476 1.383 . S
C1482 C1481 1.379 . S
H1483 C1477 0.959 . S
H1484 C1477 0.961 . S
H1485 C1477 0.960 . S
H1486 C1478 0.930 . S
H1487 C1479 0.929 . S
H1488 C1496 0.929 . S
H1489 C1498 0.930 . S
H1490 C1500 0.930 . S
H1491 C1503 0.929 . S
H1492 C1506 0.930 . S
H1493 C1508 0.960 . S
H1494 C1508 0.960 . S
H1495 C1508 0.960 . S
C1496 H1488 0.929 . S
C1496 C1497 1.377 . S
C1496 C1498 1.384 . S
C1497 C1496 1.377 . S
C1497 C1503 1.390 . S
C1498 H1489 0.930 . S
C1498 C1496 1.384 . S
C1498 C1499 1.372 . S
C1499 C1498 1.372 . S
C1499 C1500 1.400 . S
C1499 C1504 1.490 . S
C1500 H1490 0.930 . S
C1500 C1499 1.400 . S
C1500 C1503 1.386 . S
H1501 C1517 0.930 . S
H1502 C1518 0.931 . S
C1503 H1491 0.929 . S
C1503 C1497 1.390 . S
C1503 C1500 1.386 . S
C1504 C1499 1.490 . S
C1504 C1506 1.395 . S
C1504 C1507 1.403 . S
H1505 C1511 0.930 . S
C1506 H1492 0.930 . S
C1506 C1504 1.395 . S
C1506 C1509 1.403 . S
C1507 C1504 1.403 . S
C1507 C1508 1.524 . S
C1507 C1511 1.400 . S
C1508 H1493 0.960 . S
C1508 H1494 0.960 . S
C1508 H1495 0.960 . S
C1508 C1507 1.524 . S
C1509 C1506 1.403 . S
C1509 C1510 1.392 . S
C1509 C1513 1.495 . S
C1510 C1509 1.392 . S
C1510 C1511 1.385 . S
C1510 C1512 1.478 . S
C1511 H1505 0.930 . S
C1511 C1507 1.400 . S
C1511 C1510 1.385 . S
C1512 C1510 1.478 . S
C1512 C1514 1.381 . S
C1512 C1518 1.383 . S
C1513 C1509 1.495 . S
C1513 H1519 0.959 . S
C1513 H1520 0.961 . S
C1513 H1521 0.960 . S
C1514 C1512 1.381 . S
C1514 C1515 1.394 . S
C1514 H1522 0.930 . S
C1515 C1514 1.394 . S
C1515 C1516 1.383 . S
C1515 H1523 0.929 . S
C1516 C1515 1.383 . S
C1516 C1517 1.377 . S
C1517 H1501 0.930 . S
C1517 C1516 1.377 . S
C1517 C1518 1.379 . S
C1518 H1502 0.931 . S
C1518 C1512 1.383 . S
C1518 C1517 1.379 . S
H1519 C1513 0.959 . S
H1520 C1513 0.961 . S
H1521 C1513 0.960 . S
H1522 C1514 0.930 . S
H1523 C1515 0.929 . S
H1524 C1532 0.929 . S
H1525 C1534 0.930 . S
H1526 C1536 0.930 . S
H1527 C1539 0.929 . S
H1528 C1542 0.930 . S
H1529 C1544 0.960 . S
H1530 C1544 0.960 . S
H1531 C1544 0.960 . S
C1532 H1524 0.929 . S
C1532 C1533 1.377 . S
C1532 C1534 1.384 . S
C1533 C1532 1.377 . S
C1533 C1539 1.390 . S
C1534 H1525 0.930 . S
C1534 C1532 1.384 . S
C1534 C1535 1.372 . S
C1535 C1534 1.372 . S
C1535 C1536 1.400 . S
C1535 C1540 1.490 . S
C1536 H1526 0.930 . S
C1536 C1535 1.400 . S
C1536 C1539 1.386 . S
H1537 C1553 0.930 . S
H1538 C1554 0.931 . S
C1539 H1527 0.929 . S
C1539 C1533 1.390 . S
C1539 C1536 1.386 . S
C1540 C1535 1.490 . S
C1540 C1542 1.395 . S
C1540 C1543 1.403 . S
H1541 C1547 0.930 . S
C1542 H1528 0.930 . S
C1542 C1540 1.395 . S
C1542 C1545 1.403 1_655 S
C1543 C1540 1.403 . S
C1543 C1544 1.524 . S
C1543 C1547 1.400 1_655 S
C1544 H1529 0.960 . S
C1544 H1530 0.960 . S
C1544 H1531 0.960 . S
C1544 C1543 1.524 . S
C1545 C1542 1.403 1_455 S
C1545 C1546 1.392 . S
C1545 C1549 1.495 . S
C1546 C1545 1.392 . S
C1546 C1547 1.385 . S
C1546 C1548 1.478 . S
C1547 H1541 0.930 . S
C1547 C1543 1.400 1_455 S
C1547 C1546 1.385 . S
C1548 C1546 1.478 . S
C1548 C1550 1.381 . S
C1548 C1554 1.383 . S
C1549 C1545 1.495 . S
C1549 H1555 0.959 . S
C1549 H1556 0.961 . S
C1549 H1557 0.960 . S
C1550 C1548 1.381 . S
C1550 C1551 1.394 . S
C1550 H1558 0.930 . S
C1551 C1550 1.394 . S
C1551 C1552 1.383 . S
C1551 H1559 0.929 . S
C1552 C1551 1.383 . S
C1552 C1553 1.377 . S
C1553 H1537 0.930 . S
C1553 C1552 1.377 . S
C1553 C1554 1.379 . S
C1554 H1538 0.931 . S
C1554 C1548 1.383 . S
C1554 C1553 1.379 . S
H1555 C1549 0.959 . S
H1556 C1549 0.961 . S
H1557 C1549 0.960 . S
H1558 C1550 0.930 . S
H1559 C1551 0.929 . S
H1560 C1568 0.929 . S
H1561 C1570 0.930 . S
H1562 C1572 0.930 . S
H1563 C1575 0.929 . S
H1564 C1578 0.930 . S
H1565 C1580 0.960 . S
H1566 C1580 0.960 . S
H1567 C1580 0.960 . S
C1568 H1560 0.929 . S
C1568 C1569 1.377 . S
C1568 C1570 1.384 . S
C1569 C1568 1.377 . S
C1569 C1575 1.390 . S
C1570 H1561 0.930 . S
C1570 C1568 1.384 . S
C1570 C1571 1.372 . S
C1571 C1570 1.372 . S
C1571 C1572 1.400 . S
C1571 C1576 1.490 . S
C1572 H1562 0.930 . S
C1572 C1571 1.400 . S
C1572 C1575 1.386 . S
H1573 C1589 0.930 . S
H1574 C1590 0.931 . S
C1575 H1563 0.929 . S
C1575 C1569 1.390 . S
C1575 C1572 1.386 . S
C1576 C1571 1.490 . S
C1576 C1578 1.395 . S
C1576 C1579 1.403 . S
H1577 C1583 0.930 . S
C1578 H1564 0.930 . S
C1578 C1576 1.395 . S
C1578 C1581 1.403 . S
C1579 C1576 1.403 . S
C1579 C1580 1.524 . S
C1579 C1583 1.400 . S
C1580 H1565 0.960 . S
C1580 H1566 0.960 . S
C1580 H1567 0.960 . S
C1580 C1579 1.524 . S
C1581 C1578 1.403 . S
C1581 C1582 1.392 . S
C1581 C1585 1.495 . S
C1582 C1581 1.392 . S
C1582 C1583 1.385 . S
C1582 C1584 1.478 . S
C1583 H1577 0.930 . S
C1583 C1579 1.400 . S
C1583 C1582 1.385 . S
C1584 C1582 1.478 . S
C1584 C1586 1.381 . S
C1584 C1590 1.383 . S
C1585 C1581 1.495 . S
C1585 H1591 0.959 . S
C1585 H1592 0.961 . S
C1585 H1593 0.960 . S
C1586 C1584 1.381 . S
C1586 C1587 1.394 . S
C1586 H1594 0.930 . S
C1587 C1586 1.394 . S
C1587 C1588 1.383 . S
C1587 H1595 0.929 . S
C1588 C1587 1.383 . S
C1588 C1589 1.377 . S
C1589 H1573 0.930 . S
C1589 C1588 1.377 . S
C1589 C1590 1.379 . S
C1590 H1574 0.931 . S
C1590 C1584 1.383 . S
C1590 C1589 1.379 . S
H1591 C1585 0.959 . S
H1592 C1585 0.961 . S
H1593 C1585 0.960 . S
H1594 C1586 0.930 . S
H1595 C1587 0.929 . S
H1596 C1604 0.929 . S
H1597 C1606 0.930 . S
H1598 C1608 0.930 . S
H1599 C1611 0.929 . S
H1600 C1614 0.930 . S
H1601 C1616 0.960 . S
H1602 C1616 0.960 . S
H1603 C1616 0.960 . S
C1604 H1596 0.929 . S
C1604 C1605 1.377 . S
C1604 C1606 1.384 . S
C1605 C1604 1.377 . S
C1605 C1611 1.390 . S
C1606 H1597 0.930 . S
C1606 C1604 1.384 . S
C1606 C1607 1.372 . S
C1607 C1606 1.372 . S
C1607 C1608 1.400 . S
C1607 C1612 1.490 . S
C1608 H1598 0.930 . S
C1608 C1607 1.400 . S
C1608 C1611 1.386 . S
H1609 C1625 0.930 . S
H1610 C1626 0.931 . S
C1611 H1599 0.929 . S
C1611 C1605 1.390 . S
C1611 C1608 1.386 . S
C1612 C1607 1.490 . S
C1612 C1614 1.395 . S
C1612 C1615 1.403 . S
H1613 C1619 0.930 . S
C1614 H1600 0.930 . S
C1614 C1612 1.395 . S
C1614 C1617 1.403 1_556 S
C1615 C1612 1.403 . S
C1615 C1616 1.524 . S
C1615 C1619 1.400 1_556 S
C1616 H1601 0.960 . S
C1616 H1602 0.960 . S
C1616 H1603 0.960 . S
C1616 C1615 1.524 . S
C1617 C1614 1.403 1_554 S
C1617 C1618 1.392 . S
C1617 C1621 1.495 . S
C1618 C1617 1.392 . S
C1618 C1619 1.385 . S
C1618 C1620 1.478 . S
C1619 H1613 0.930 . S
C1619 C1615 1.400 1_554 S
C1619 C1618 1.385 . S
C1620 C1618 1.478 . S
C1620 C1622 1.381 . S
C1620 C1626 1.383 . S
C1621 C1617 1.495 . S
C1621 H1627 0.988 . S
C1621 H1628 0.961 . S
C1621 H1629 0.960 . S
C1622 C1620 1.381 . S
C1622 C1623 1.394 . S
C1622 H1630 0.930 . S
C1623 C1622 1.394 . S
C1623 C1624 1.383 . S
C1623 H1631 0.929 . S
C1624 C1623 1.383 . S
C1624 C1625 1.377 . S
C1625 H1609 0.930 . S
C1625 C1624 1.377 . S
C1625 C1626 1.379 . S
C1626 H1610 0.931 . S
C1626 C1620 1.383 . S
C1626 C1625 1.379 . S
H1627 C1621 0.988 . S
H1628 C1621 0.961 . S
H1629 C1621 0.960 . S
H1630 C1622 0.930 . S
H1631 C1623 0.929 . S
H1632 C1640 0.929 . S
H1633 C1642 0.930 . S
H1634 C1644 0.930 . S
H1635 C1647 0.929 . S
H1636 C1650 0.930 . S
H1637 C1652 0.960 . S
H1638 C1652 0.960 . S
H1639 C1652 0.960 . S
C1640 H1632 0.929 . S
C1640 C1641 1.377 . S
C1640 C1642 1.384 . S
C1641 C1640 1.377 . S
C1641 C1647 1.390 . S
C1642 H1633 0.930 . S
C1642 C1640 1.384 . S
C1642 C1643 1.372 . S
C1643 C1642 1.372 . S
C1643 C1644 1.400 . S
C1643 C1648 1.490 . S
C1644 H1634 0.930 . S
C1644 C1643 1.400 . S
C1644 C1647 1.386 . S
H1645 C1661 0.930 . S
H1646 C1662 0.931 . S
C1647 H1635 0.929 . S
C1647 C1641 1.390 . S
C1647 C1644 1.386 . S
C1648 C1643 1.490 . S
C1648 C1650 1.395 . S
C1648 C1651 1.403 . S
H1649 C1655 0.930 . S
C1650 H1636 0.930 . S
C1650 C1648 1.395 . S
C1650 C1653 1.403 . S
C1651 C1648 1.403 . S
C1651 C1652 1.524 . S
C1651 C1655 1.400 . S
C1652 H1637 0.960 . S
C1652 H1638 0.960 . S
C1652 H1639 0.960 . S
C1652 C1651 1.524 . S
C1653 C1650 1.403 . S
C1653 C1654 1.392 . S
C1653 C1657 1.495 . S
C1654 C1653 1.392 . S
C1654 C1655 1.385 . S
C1654 C1656 1.478 . S
C1655 H1649 0.930 . S
C1655 C1651 1.400 . S
C1655 C1654 1.385 . S
C1656 C1654 1.478 . S
C1656 C1658 1.381 . S
C1656 C1662 1.383 . S
C1657 C1653 1.495 . S
C1657 H1663 0.959 . S
C1657 H1664 0.961 . S
C1657 H1665 0.960 . S
C1658 C1656 1.381 . S
C1658 C1659 1.394 . S
C1658 H1666 0.930 . S
C1659 C1658 1.394 . S
C1659 C1660 1.383 . S
C1659 H1667 0.929 . S
C1660 C1659 1.383 . S
C1660 C1661 1.377 . S
C1661 H1645 0.930 . S
C1661 C1660 1.377 . S
C1661 C1662 1.379 . S
C1662 H1646 0.931 . S
C1662 C1656 1.383 . S
C1662 C1661 1.379 . S
H1663 C1657 0.959 . S
H1664 C1657 0.961 . S
H1665 C1657 0.960 . S
H1666 C1658 0.930 . S
H1667 C1659 0.929 . S
H1668 C1676 0.929 . S
H1669 C1678 0.930 . S
H1670 C1680 0.930 . S
H1671 C1683 0.929 . S
H1672 C1686 0.930 . S
H1673 C1688 0.960 . S
H1674 C1688 0.960 . S
H1675 C1688 0.960 . S
C1676 H1668 0.929 . S
C1676 C1677 1.377 . S
C1676 C1678 1.384 . S
C1677 C1676 1.377 . S
C1677 C1683 1.390 . S
C1678 H1669 0.930 . S
C1678 C1676 1.384 . S
C1678 C1679 1.372 . S
C1679 C1678 1.372 . S
C1679 C1680 1.400 . S
C1679 C1684 1.490 . S
C1680 H1670 0.930 . S
C1680 C1679 1.400 . S
C1680 C1683 1.386 . S
H1681 C1697 0.930 . S
H1682 C1698 0.931 . S
C1683 H1671 0.929 . S
C1683 C1677 1.390 . S
C1683 C1680 1.386 . S
C1684 C1679 1.490 . S
C1684 C1686 1.395 . S
C1684 C1687 1.403 . S
H1685 C1691 0.930 . S
C1686 H1672 0.930 . S
C1686 C1684 1.395 . S
C1686 C1689 1.403 1_554 S
C1687 C1684 1.403 . S
C1687 C1688 1.524 . S
C1687 C1691 1.400 1_554 S
C1688 H1673 0.960 . S
C1688 H1674 0.960 . S
C1688 H1675 0.960 . S
C1688 C1687 1.524 . S
C1689 C1686 1.403 1_556 S
C1689 C1690 1.392 . S
C1689 C1693 1.495 . S
C1690 C1689 1.392 . S
C1690 C1691 1.385 . S
C1690 C1692 1.478 . S
C1691 H1685 0.930 . S
C1691 C1687 1.400 1_556 S
C1691 C1690 1.385 . S
C1692 C1690 1.478 . S
C1692 C1694 1.381 . S
C1692 C1698 1.383 . S
C1693 C1689 1.495 . S
C1693 H1699 0.959 . S
C1693 H1700 0.961 . S
C1693 H1701 0.960 . S
C1694 C1692 1.381 . S
C1694 C1695 1.394 . S
C1694 H1702 0.930 . S
C1695 C1694 1.394 . S
C1695 C1696 1.383 . S
C1695 H1703 0.929 . S
C1696 C1695 1.383 . S
C1696 C1697 1.377 . S
C1697 H1681 0.930 . S
C1697 C1696 1.377 . S
C1697 C1698 1.379 . S
C1698 H1682 0.931 . S
C1698 C1692 1.383 . S
C1698 C1697 1.379 . S
H1699 C1693 0.959 . S
H1700 C1693 0.961 . S
H1701 C1693 0.960 . S
H1702 C1694 0.930 . S
H1703 C1695 0.929 . S
H1704 C1712 0.929 . S
H1705 C1714 0.930 . S
H1706 C1716 0.930 . S
H1707 C1719 0.929 . S
H1708 C1722 0.930 . S
H1709 C1724 0.960 . S
H1710 C1724 0.960 . S
H1711 C1724 0.960 . S
C1712 H1704 0.929 . S
C1712 C1713 1.377 . S
C1712 C1714 1.384 . S
C1713 C1712 1.377 . S
C1713 C1719 1.390 . S
C1714 H1705 0.930 . S
C1714 C1712 1.384 . S
C1714 C1715 1.372 . S
C1715 C1714 1.372 . S
C1715 C1716 1.400 . S
C1715 C1720 1.490 . S
C1716 H1706 0.930 . S
C1716 C1715 1.400 . S
C1716 C1719 1.386 . S
H1717 C1733 0.930 . S
H1718 C1734 0.931 . S
C1719 H1707 0.929 . S
C1719 C1713 1.390 . S
C1719 C1716 1.386 . S
C1720 C1715 1.490 . S
C1720 C1722 1.395 . S
C1720 C1723 1.403 . S
H1721 C1727 0.930 . S
C1722 H1708 0.930 . S
C1722 C1720 1.395 . S
C1722 C1725 1.403 . S
C1723 C1720 1.403 . S
C1723 C1724 1.524 . S
C1723 C1727 1.400 . S
C1724 H1709 0.960 . S
C1724 H1710 0.960 . S
C1724 H1711 0.960 . S
C1724 C1723 1.524 . S
C1725 C1722 1.403 . S
C1725 C1726 1.392 . S
C1725 C1729 1.495 . S
C1726 C1725 1.392 . S
C1726 C1727 1.385 . S
C1726 C1728 1.478 . S
C1727 H1721 0.930 . S
C1727 C1723 1.400 . S
C1727 C1726 1.385 . S
C1728 C1726 1.478 . S
C1728 C1730 1.381 . S
C1728 C1734 1.383 . S
C1729 C1725 1.495 . S
C1729 H1735 0.959 . S
C1729 H1736 0.961 . S
C1729 H1737 0.960 . S
C1730 C1728 1.381 . S
C1730 C1731 1.394 . S
C1730 H1738 0.930 . S
C1731 C1730 1.394 . S
C1731 C1732 1.383 . S
C1731 H1739 0.929 . S
C1732 C1731 1.383 . S
C1732 C1733 1.377 . S
C1733 H1717 0.930 . S
C1733 C1732 1.377 . S
C1733 C1734 1.379 . S
C1734 H1718 0.931 . S
C1734 C1728 1.383 . S
C1734 C1733 1.379 . S
H1735 C1729 0.959 . S
H1736 C1729 0.961 . S
H1737 C1729 0.960 . S
H1738 C1730 0.930 . S
H1739 C1731 0.929 . S
H1740 C1748 0.929 . S
H1741 C1750 0.930 . S
H1742 C1752 0.930 . S
H1743 C1755 0.929 . S
H1744 C1758 0.930 . S
H1745 C1760 0.960 . S
H1746 C1760 0.960 . S
H1747 C1760 0.960 . S
C1748 H1740 0.929 . S
C1748 C1749 1.377 . S
C1748 C1750 1.384 . S
C1749 C1748 1.377 . S
C1749 C1755 1.390 . S
C1750 H1741 0.930 . S
C1750 C1748 1.384 . S
C1750 C1751 1.372 . S
C1751 C1750 1.372 . S
C1751 C1752 1.400 . S
C1751 C1756 1.490 . S
C1752 H1742 0.930 . S
C1752 C1751 1.400 . S
C1752 C1755 1.386 . S
H1753 C1769 0.930 . S
H1754 C1770 0.931 . S
C1755 H1743 0.929 . S
C1755 C1749 1.390 . S
C1755 C1752 1.386 . S
C1756 C1751 1.490 . S
C1756 C1758 1.395 . S
C1756 C1759 1.403 . S
H1757 C1763 0.930 . S
C1758 H1744 0.930 . S
C1758 C1756 1.395 . S
C1758 C1761 1.403 1_554 S
C1759 C1756 1.403 . S
C1759 C1760 1.524 . S
C1759 C1763 1.400 1_554 S
C1760 H1745 0.960 . S
C1760 H1746 0.960 . S
C1760 H1747 0.960 . S
C1760 C1759 1.524 . S
C1761 C1758 1.403 1_556 S
C1761 C1762 1.392 . S
C1761 C1765 1.495 . S
C1762 C1761 1.392 . S
C1762 C1763 1.385 . S
C1762 C1764 1.478 . S
C1763 H1757 0.930 . S
C1763 C1759 1.400 1_556 S
C1763 C1762 1.385 . S
C1764 C1762 1.478 . S
C1764 C1766 1.381 . S
C1764 C1770 1.383 . S
C1765 C1761 1.495 . S
C1765 H1771 0.959 . S
C1765 H1772 0.961 . S
C1765 H1773 0.960 . S
C1766 C1764 1.381 . S
C1766 C1767 1.394 . S
C1766 H1774 0.930 . S
C1767 C1766 1.394 . S
C1767 C1768 1.383 . S
C1767 H1775 0.929 . S
C1768 C1767 1.383 . S
C1768 C1769 1.377 . S
C1769 H1753 0.930 . S
C1769 C1768 1.377 . S
C1769 C1770 1.379 . S
C1770 H1754 0.931 . S
C1770 C1764 1.383 . S
C1770 C1769 1.379 . S
H1771 C1765 0.959 . S
H1772 C1765 0.961 . S
H1773 C1765 0.960 . S
H1774 C1766 0.930 . S
H1775 C1767 0.929 . S
H1776 C1784 0.929 . S
H1777 C1786 0.930 . S
H1778 C1788 0.930 . S
H1779 C1791 0.929 . S
H1780 C1794 0.930 . S
H1781 C1796 0.960 . S
H1782 C1796 0.960 . S
H1783 C1796 0.960 . S
C1784 H1776 0.929 . S
C1784 C1785 1.377 . S
C1784 C1786 1.384 . S
C1785 C1784 1.377 . S
C1785 C1791 1.390 . S
C1786 H1777 0.930 . S
C1786 C1784 1.384 . S
C1786 C1787 1.372 . S
C1787 C1786 1.372 . S
C1787 C1788 1.400 . S
C1787 C1792 1.490 . S
C1788 H1778 0.930 . S
C1788 C1787 1.400 . S
C1788 C1791 1.386 . S
H1789 C1805 0.930 . S
H1790 C1806 0.931 . S
C1791 H1779 0.929 . S
C1791 C1785 1.390 . S
C1791 C1788 1.386 . S
C1792 C1787 1.490 . S
C1792 C1794 1.395 . S
C1792 C1795 1.403 . S
H1793 C1799 0.930 . S
C1794 H1780 0.930 . S
C1794 C1792 1.395 . S
C1794 C1797 1.403 . S
C1795 C1792 1.403 . S
C1795 C1796 1.524 . S
C1795 C1799 1.400 . S
C1796 H1781 0.960 . S
C1796 H1782 0.960 . S
C1796 H1783 0.960 . S
C1796 C1795 1.524 . S
C1797 C1794 1.403 . S
C1797 C1798 1.392 . S
C1797 C1801 1.495 . S
C1798 C1797 1.392 . S
C1798 C1799 1.385 . S
C1798 C1800 1.478 . S
C1799 H1793 0.930 . S
C1799 C1795 1.400 . S
C1799 C1798 1.385 . S
C1800 C1798 1.478 . S
C1800 C1802 1.381 . S
C1800 C1806 1.383 . S
C1801 C1797 1.495 . S
C1801 H1807 0.959 . S
C1801 H1808 0.961 . S
C1801 H1809 0.960 . S
C1802 C1800 1.381 . S
C1802 C1803 1.394 . S
C1802 H1810 0.930 . S
C1803 C1802 1.394 . S
C1803 C1804 1.383 . S
C1803 H1811 0.929 . S
C1804 C1803 1.383 . S
C1804 C1805 1.377 . S
C1805 H1789 0.930 . S
C1805 C1804 1.377 . S
C1805 C1806 1.379 . S
C1806 H1790 0.931 . S
C1806 C1800 1.383 . S
C1806 C1805 1.379 . S
H1807 C1801 0.959 . S
H1808 C1801 0.961 . S
H1809 C1801 0.960 . S
H1810 C1802 0.930 . S
H1811 C1803 0.929 . S
H1812 C1820 0.929 . S
H1813 C1822 0.930 . S
H1814 C1824 0.930 . S
H1815 C1827 0.929 . S
H1816 C1830 0.930 . S
H1817 C1832 0.960 . S
H1818 C1832 0.960 . S
H1819 C1832 0.960 . S
C1820 H1812 0.929 . S
C1820 C1821 1.377 . S
C1820 C1822 1.384 . S
C1821 C1820 1.377 . S
C1821 C1827 1.390 . S
C1822 H1813 0.930 . S
C1822 C1820 1.384 . S
C1822 C1823 1.372 . S
C1823 C1822 1.372 . S
C1823 C1824 1.400 . S
C1823 C1828 1.490 . S
C1824 H1814 0.930 . S
C1824 C1823 1.400 . S
C1824 C1827 1.386 . S
H1825 C1841 0.930 . S
H1826 C1842 0.931 . S
C1827 H1815 0.929 . S
C1827 C1821 1.390 . S
C1827 C1824 1.386 . S
C1828 C1823 1.490 . S
C1828 C1830 1.395 . S
C1828 C1831 1.403 . S
H1829 C1835 0.930 1_556 S
C1830 H1816 0.930 . S
C1830 C1828 1.395 . S
C1830 C1833 1.403 . S
C1831 C1828 1.403 . S
C1831 C1832 1.524 . S
C1831 C1835 1.400 . S
C1832 H1817 0.960 . S
C1832 H1818 0.960 . S
C1832 H1819 0.960 . S
C1832 C1831 1.524 . S
C1833 C1830 1.403 . S
C1833 C1834 1.392 1_554 S
C1833 C1837 1.495 1_554 S
C1834 C1833 1.392 1_556 S
C1834 C1835 1.385 1_556 S
C1834 C1836 1.478 . S
C1835 H1829 0.930 1_554 S
C1835 C1831 1.400 . S
C1835 C1834 1.385 1_554 S
C1836 C1834 1.478 . S
C1836 C1838 1.381 . S
C1836 C1842 1.383 . S
C1837 C1833 1.495 1_556 S
C1837 H1843 0.959 1_556 S
C1837 H1844 0.961 . S
C1837 H1845 0.960 . S
C1838 C1836 1.381 . S
C1838 C1839 1.394 . S
C1838 H1846 0.930 . S
C1839 C1838 1.394 . S
C1839 C1840 1.383 . S
C1839 H1847 0.929 . S
C1840 C1839 1.383 . S
C1840 C1841 1.377 . S
C1841 H1825 0.930 . S
C1841 C1840 1.377 . S
C1841 C1842 1.379 . S
C1842 H1826 0.931 . S
C1842 C1836 1.383 . S
C1842 C1841 1.379 . S
H1843 C1837 0.959 1_554 S
H1844 C1837 0.961 . S
H1845 C1837 0.960 . S
H1846 C1838 0.930 . S
H1847 C1839 0.929 . S
H1848 C1856 0.929 . S
H1849 C1858 0.930 . S
H1850 C1860 0.930 . S
H1851 C1863 0.929 . S
H1852 C1866 0.930 . S
H1853 C1868 0.960 . S
H1854 C1868 0.960 . S
H1855 C1868 0.960 . S
C1856 H1848 0.929 . S
C1856 C1857 1.377 . S
C1856 C1858 1.384 . S
C1857 C1856 1.377 . S
C1857 C1863 1.390 . S
C1858 H1849 0.930 . S
C1858 C1856 1.384 . S
C1858 C1859 1.372 . S
C1859 C1858 1.372 . S
C1859 C1860 1.400 . S
C1859 C1864 1.490 . S
C1860 H1850 0.930 . S
C1860 C1859 1.400 . S
C1860 C1863 1.386 . S
H1861 C1877 0.930 . S
H1862 C1878 0.931 . S
C1863 H1851 0.929 . S
C1863 C1857 1.390 . S
C1863 C1860 1.386 . S
C1864 C1859 1.490 . S
C1864 C1866 1.395 . S
C1864 C1867 1.403 . S
H1865 C1871 0.930 . S
C1866 H1852 0.930 . S
C1866 C1864 1.395 . S
C1866 C1869 1.403 . S
C1867 C1864 1.403 . S
C1867 C1868 1.524 . S
C1867 C1871 1.400 . S
C1868 H1853 0.960 . S
C1868 H1854 0.960 . S
C1868 H1855 0.960 . S
C1868 C1867 1.524 . S
C1869 C1866 1.403 . S
C1869 C1870 1.392 . S
C1869 C1873 1.495 . S
C1870 C1869 1.392 . S
C1870 C1871 1.385 . S
C1870 C1872 1.478 . S
C1871 H1865 0.930 . S
C1871 C1867 1.400 . S
C1871 C1870 1.385 . S
C1872 C1870 1.478 . S
C1872 C1874 1.381 . S
C1872 C1878 1.383 . S
C1873 C1869 1.495 . S
C1873 H1879 0.959 . S
C1873 H1880 0.961 . S
C1873 H1881 0.960 . S
C1874 C1872 1.381 . S
C1874 C1875 1.394 . S
C1874 H1882 0.930 . S
C1875 C1874 1.394 . S
C1875 C1876 1.383 . S
C1875 H1883 0.929 . S
C1876 C1875 1.383 . S
C1876 C1877 1.377 . S
C1877 H1861 0.930 . S
C1877 C1876 1.377 . S
C1877 C1878 1.379 . S
C1878 H1862 0.931 . S
C1878 C1872 1.383 . S
C1878 C1877 1.379 . S
H1879 C1873 0.959 . S
H1880 C1873 0.961 . S
H1881 C1873 0.960 . S
H1882 C1874 0.930 . S
H1883 C1875 0.929 . S
H1884 C1892 0.929 . S
H1885 C1894 0.930 . S
H1886 C1896 0.930 . S
H1887 C1899 0.929 . S
H1888 C1902 0.930 . S
H1889 C1904 0.960 . S
H1890 C1904 0.960 . S
H1891 C1904 0.960 . S
C1892 H1884 0.929 . S
C1892 C1893 1.377 . S
C1892 C1894 1.384 . S
C1893 C1892 1.377 . S
C1893 C1899 1.390 . S
C1894 H1885 0.930 . S
C1894 C1892 1.384 . S
C1894 C1895 1.372 . S
C1895 C1894 1.372 . S
C1895 C1896 1.400 . S
C1895 C1900 1.490 . S
C1896 H1886 0.930 . S
C1896 C1895 1.400 . S
C1896 C1899 1.386 . S
H1897 C1913 0.930 . S
H1898 C1914 0.931 . S
C1899 H1887 0.929 . S
C1899 C1893 1.390 . S
C1899 C1896 1.386 . S
C1900 C1895 1.490 . S
C1900 C1902 1.395 . S
C1900 C1903 1.403 . S
H1901 C1907 0.930 . S
C1902 H1888 0.930 . S
C1902 C1900 1.395 . S
C1902 C1905 1.403 . S
C1903 C1900 1.403 . S
C1903 C1904 1.524 . S
C1903 C1907 1.400 . S
C1904 H1889 0.960 . S
C1904 H1890 0.960 . S
C1904 H1891 0.960 . S
C1904 C1903 1.524 . S
C1905 C1902 1.403 . S
C1905 C1906 1.392 . S
C1905 C1909 1.495 . S
C1906 C1905 1.392 . S
C1906 C1907 1.385 . S
C1906 C1908 1.478 . S
C1907 H1901 0.930 . S
C1907 C1903 1.400 . S
C1907 C1906 1.385 . S
C1908 C1906 1.478 . S
C1908 C1910 1.381 . S
C1908 C1914 1.383 . S
C1909 C1905 1.495 . S
C1909 H1915 0.959 . S
C1909 H1916 0.961 . S
C1909 H1917 0.960 . S
C1910 C1908 1.381 . S
C1910 C1911 1.394 . S
C1910 H1918 0.930 . S
C1911 C1910 1.394 . S
C1911 C1912 1.383 . S
C1911 H1919 0.929 . S
C1912 C1911 1.383 . S
C1912 C1913 1.377 . S
C1913 H1897 0.930 . S
C1913 C1912 1.377 . S
C1913 C1914 1.379 . S
C1914 H1898 0.931 . S
C1914 C1908 1.383 . S
C1914 C1913 1.379 . S
H1915 C1909 0.959 . S
H1916 C1909 0.961 . S
H1917 C1909 0.960 . S
H1918 C1910 0.930 . S
H1919 C1911 0.929 . S
H1920 C1928 0.929 . S
H1921 C1930 0.930 . S
H1922 C1932 0.930 . S
H1923 C1935 0.929 . S
H1924 C1938 0.930 . S
H1925 C1940 0.960 . S
H1926 C1940 0.960 . S
H1927 C1940 0.960 . S
C1928 H1920 0.929 . S
C1928 C1929 1.377 . S
C1928 C1930 1.384 . S
C1929 C1928 1.377 . S
C1929 C1935 1.390 . S
C1930 H1921 0.930 . S
C1930 C1928 1.384 . S
C1930 C1931 1.372 . S
C1931 C1930 1.372 . S
C1931 C1932 1.400 . S
C1931 C1936 1.490 . S
C1932 H1922 0.930 . S
C1932 C1931 1.400 . S
C1932 C1935 1.386 . S
H1933 C1949 0.930 . S
H1934 C1950 0.931 . S
C1935 H1923 0.929 . S
C1935 C1929 1.390 . S
C1935 C1932 1.386 . S
C1936 C1931 1.490 . S
C1936 C1938 1.395 . S
C1936 C1939 1.403 . S
H1937 C1943 0.930 . S
C1938 H1924 0.930 . S
C1938 C1936 1.395 . S
C1938 C1941 1.403 1_565 S
C1939 C1936 1.403 . S
C1939 C1940 1.524 . S
C1939 C1943 1.400 1_565 S
C1940 H1925 0.960 . S
C1940 H1926 0.960 . S
C1940 H1927 0.960 . S
C1940 C1939 1.524 . S
C1941 C1938 1.403 1_545 S
C1941 C1942 1.392 . S
C1941 C1945 1.495 . S
C1942 C1941 1.392 . S
C1942 C1943 1.385 . S
C1942 C1944 1.478 . S
C1943 H1937 0.930 . S
C1943 C1939 1.400 1_545 S
C1943 C1942 1.385 . S
C1944 C1942 1.478 . S
C1944 C1946 1.381 . S
C1944 C1950 1.383 . S
C1945 C1941 1.495 . S
C1945 H1951 0.959 . S
C1945 H1952 0.961 . S
C1945 H1953 0.960 . S
C1946 C1944 1.381 . S
C1946 C1947 1.394 . S
C1946 H1954 0.930 . S
C1947 C1946 1.394 . S
C1947 C1948 1.383 . S
C1947 H1955 0.929 . S
C1948 C1947 1.383 . S
C1948 C1949 1.377 . S
C1949 H1933 0.930 . S
C1949 C1948 1.377 . S
C1949 C1950 1.379 . S
C1950 H1934 0.931 . S
C1950 C1944 1.383 . S
C1950 C1949 1.379 . S
H1951 C1945 0.959 . S
H1952 C1945 0.961 . S
H1953 C1945 0.960 . S
H1954 C1946 0.930 . S
H1955 C1947 0.929 . S
H1956 C1964 0.929 . S
H1957 C1966 0.930 . S
H1958 C1968 0.930 . S
H1959 C1971 0.929 . S
H1960 C1974 0.930 . S
H1961 C1976 0.960 . S
H1962 C1976 0.960 . S
H1963 C1976 0.960 . S
C1964 H1956 0.929 . S
C1964 C1965 1.377 . S
C1964 C1966 1.384 . S
C1965 C1964 1.377 . S
C1965 C1971 1.390 . S
C1966 H1957 0.930 . S
C1966 C1964 1.384 . S
C1966 C1967 1.372 . S
C1967 C1966 1.372 . S
C1967 C1968 1.400 . S
C1967 C1972 1.490 . S
C1968 H1958 0.930 . S
C1968 C1967 1.400 . S
C1968 C1971 1.386 . S
H1969 C1985 0.930 . S
H1970 C1986 0.931 . S
C1971 H1959 0.929 . S
C1971 C1965 1.390 . S
C1971 C1968 1.386 . S
C1972 C1967 1.490 . S
C1972 C1974 1.395 . S
C1972 C1975 1.403 . S
H1973 C1979 0.930 . S
C1974 H1960 0.930 . S
C1974 C1972 1.395 . S
C1974 C1977 1.403 . S
C1975 C1972 1.403 . S
C1975 C1976 1.524 . S
C1975 C1979 1.400 . S
C1976 H1961 0.960 . S
C1976 H1962 0.960 . S
C1976 H1963 0.960 . S
C1976 C1975 1.524 . S
C1977 C1974 1.403 . S
C1977 C1978 1.392 . S
C1977 C1981 1.495 . S
C1978 C1977 1.392 . S
C1978 C1979 1.385 . S
C1978 C1980 1.478 . S
C1979 H1973 0.930 . S
C1979 C1975 1.400 . S
C1979 C1978 1.385 . S
C1980 C1978 1.478 . S
C1980 C1982 1.381 . S
C1980 C1986 1.383 . S
C1981 C1977 1.495 . S
C1981 H1987 0.959 . S
C1981 H1988 0.961 . S
C1981 H1989 0.960 . S
C1982 C1980 1.381 . S
C1982 C1983 1.394 . S
C1982 H1990 0.930 . S
C1983 C1982 1.394 . S
C1983 C1984 1.383 . S
C1983 H1991 0.929 . S
C1984 C1983 1.383 . S
C1984 C1985 1.377 . S
C1985 H1969 0.930 . S
C1985 C1984 1.377 . S
C1985 C1986 1.379 . S
C1986 H1970 0.931 . S
C1986 C1980 1.383 . S
C1986 C1985 1.379 . S
H1987 C1981 0.959 . S
H1988 C1981 0.961 . S
H1989 C1981 0.960 . S
H1990 C1982 0.930 . S
H1991 C1983 0.929 . S
H1992 C2000 0.929 . S
H1993 C2002 0.930 . S
H1994 C2004 0.930 . S
H1995 C2007 0.929 . S
H1996 C2010 0.930 . S
H1997 C2012 0.960 . S
H1998 C2012 0.960 . S
H1999 C2012 0.960 . S
C2000 H1992 0.929 . S
C2000 C2001 1.377 . S
C2000 C2002 1.384 . S
C2001 C2000 1.377 . S
C2001 C2007 1.390 . S
C2002 H1993 0.930 . S
C2002 C2000 1.384 . S
C2002 C2003 1.372 . S
C2003 C2002 1.372 . S
C2003 C2004 1.400 . S
C2003 C2008 1.490 . S
C2004 H1994 0.930 . S
C2004 C2003 1.400 . S
C2004 C2007 1.386 . S
H2005 C2021 0.930 . S
H2006 C2022 0.931 . S
C2007 H1995 0.929 . S
C2007 C2001 1.390 . S
C2007 C2004 1.386 . S
C2008 C2003 1.490 . S
C2008 C2010 1.395 . S
C2008 C2011 1.403 . S
H2009 C2015 0.930 . S
C2010 H1996 0.930 . S
C2010 C2008 1.395 . S
C2010 C2013 1.403 1_565 S
C2011 C2008 1.403 . S
C2011 C2012 1.524 . S
C2011 C2015 1.400 1_565 S
C2012 H1997 0.960 . S
C2012 H1998 0.960 . S
C2012 H1999 0.960 . S
C2012 C2011 1.524 . S
C2013 C2010 1.403 1_545 S
C2013 C2014 1.392 . S
C2013 C2017 1.495 . S
C2014 C2013 1.392 . S
C2014 C2015 1.385 . S
C2014 C2016 1.478 . S
C2015 H2009 0.930 . S
C2015 C2011 1.400 1_545 S
C2015 C2014 1.385 . S
C2016 C2014 1.478 . S
C2016 C2018 1.381 . S
C2016 C2022 1.383 . S
C2017 C2013 1.495 . S
C2017 H2023 0.959 . S
C2017 H2024 0.961 . S
C2017 H2025 0.960 . S
C2018 C2016 1.381 . S
C2018 C2019 1.394 . S
C2018 H2026 0.930 . S
C2019 C2018 1.394 . S
C2019 C2020 1.383 . S
C2019 H2027 0.929 . S
C2020 C2019 1.383 . S
C2020 C2021 1.377 . S
C2021 H2005 0.930 . S
C2021 C2020 1.377 . S
C2021 C2022 1.379 . S
C2022 H2006 0.931 . S
C2022 C2016 1.383 . S
C2022 C2021 1.379 . S
H2023 C2017 0.959 . S
H2024 C2017 0.961 . S
H2025 C2017 0.960 . S
H2026 C2018 0.930 . S
H2027 C2019 0.929 . S
H2028 C2036 0.929 . S
H2029 C2038 0.930 . S
H2030 C2040 0.930 . S
H2031 C2043 0.929 . S
H2032 C2046 0.930 . S
H2033 C2048 0.960 . S
H2034 C2048 0.960 . S
H2035 C2048 0.960 . S
C2036 H2028 0.929 . S
C2036 C2037 1.377 . S
C2036 C2038 1.384 . S
C2037 C2036 1.377 . S
C2037 C2043 1.390 . S
C2038 H2029 0.930 . S
C2038 C2036 1.384 . S
C2038 C2039 1.372 . S
C2039 C2038 1.372 . S
C2039 C2040 1.400 . S
C2039 C2044 1.490 . S
C2040 H2030 0.930 . S
C2040 C2039 1.400 . S
C2040 C2043 1.386 . S
H2041 C2057 0.930 . S
H2042 C2058 0.931 . S
C2043 H2031 0.929 . S
C2043 C2037 1.390 . S
C2043 C2040 1.386 . S
C2044 C2039 1.490 . S
C2044 C2046 1.395 . S
C2044 C2047 1.403 . S
H2045 C2051 0.930 . S
C2046 H2032 0.930 . S
C2046 C2044 1.395 . S
C2046 C2049 1.403 . S
C2047 C2044 1.403 . S
C2047 C2048 1.524 . S
C2047 C2051 1.400 . S
C2048 H2033 0.960 . S
C2048 H2034 0.960 . S
C2048 H2035 0.960 . S
C2048 C2047 1.524 . S
C2049 C2046 1.403 . S
C2049 C2050 1.392 . S
C2049 C2053 1.495 . S
C2050 C2049 1.392 . S
C2050 C2051 1.385 . S
C2050 C2052 1.478 . S
C2051 H2045 0.930 . S
C2051 C2047 1.400 . S
C2051 C2050 1.385 . S
C2052 C2050 1.478 . S
C2052 C2054 1.381 . S
C2052 C2058 1.383 . S
C2053 C2049 1.495 . S
C2053 H2059 0.959 . S
C2053 H2060 0.961 . S
C2053 H2061 0.960 . S
C2054 C2052 1.381 . S
C2054 C2055 1.394 . S
C2054 H2062 0.930 . S
C2055 C2054 1.394 . S
C2055 C2056 1.383 . S
C2055 H2063 0.929 . S
C2056 C2055 1.383 . S
C2056 C2057 1.377 . S
C2057 H2041 0.930 . S
C2057 C2056 1.377 . S
C2057 C2058 1.379 . S
C2058 H2042 0.931 . S
C2058 C2052 1.383 . S
C2058 C2057 1.379 . S
H2059 C2053 0.959 . S
H2060 C2053 0.961 . S
H2061 C2053 0.960 . S
H2062 C2054 0.930 . S
H2063 C2055 0.929 . S
H2064 C2072 0.929 . S
H2065 C2074 0.930 . S
H2066 C2076 0.930 . S
H2067 C2079 0.929 . S
H2068 C2082 0.930 . S
H2069 C2084 0.960 . S
H2070 C2084 0.960 . S
H2071 C2084 0.960 . S
C2072 H2064 0.929 . S
C2072 C2073 1.377 . S
C2072 C2074 1.384 . S
C2073 C2072 1.377 . S
C2073 C2079 1.390 . S
C2074 H2065 0.930 . S
C2074 C2072 1.384 . S
C2074 C2075 1.372 . S
C2075 C2074 1.372 . S
C2075 C2076 1.400 . S
C2075 C2080 1.490 . S
C2076 H2066 0.930 . S
C2076 C2075 1.400 . S
C2076 C2079 1.386 . S
H2077 C2093 0.930 . S
H2078 C2094 0.931 . S
C2079 H2067 0.929 . S
C2079 C2073 1.390 . S
C2079 C2076 1.386 . S
C2080 C2075 1.490 . S
C2080 C2082 1.395 . S
C2080 C2083 1.403 . S
H2081 C2087 0.930 . S
C2082 H2068 0.930 . S
C2082 C2080 1.395 . S
C2082 C2085 1.403 1_565 S
C2083 C2080 1.403 . S
C2083 C2084 1.524 . S
C2083 C2087 1.400 1_565 S
C2084 H2069 0.960 . S
C2084 H2070 0.960 . S
C2084 H2071 0.960 . S
C2084 C2083 1.524 . S
C2085 C2082 1.403 1_545 S
C2085 C2086 1.392 . S
C2085 C2089 1.495 . S
C2086 C2085 1.392 . S
C2086 C2087 1.385 . S
C2086 C2088 1.478 . S
C2087 H2081 0.930 . S
C2087 C2083 1.400 1_545 S
C2087 C2086 1.385 . S
C2088 C2086 1.478 . S
C2088 C2090 1.381 . S
C2088 C2094 1.383 . S
C2089 C2085 1.495 . S
C2089 H2095 0.934 1_545 S
C2089 H2096 0.961 . S
C2089 H2097 0.960 . S
C2090 C2088 1.381 . S
C2090 C2091 1.394 . S
C2090 H2098 0.930 . S
C2091 C2090 1.394 . S
C2091 C2092 1.383 . S
C2091 H2099 0.929 . S
C2092 C2091 1.383 . S
C2092 C2093 1.377 . S
C2093 H2077 0.930 . S
C2093 C2092 1.377 . S
C2093 C2094 1.379 . S
C2094 H2078 0.931 . S
C2094 C2088 1.383 . S
C2094 C2093 1.379 . S
H2095 C2089 0.934 1_565 S
H2096 C2089 0.961 . S
H2097 C2089 0.960 . S
H2098 C2090 0.930 . S
H2099 C2091 0.929 . S
H2100 C2108 0.929 . S
H2101 C2110 0.930 . S
H2102 C2112 0.930 . S
H2103 C2115 0.929 . S
H2104 C2118 0.930 . S
H2105 C2120 0.960 . S
H2106 C2120 0.960 . S
H2107 C2120 0.960 . S
C2108 H2100 0.929 . S
C2108 C2109 1.377 . S
C2108 C2110 1.384 . S
C2109 C2108 1.377 . S
C2109 C2115 1.390 . S
C2110 H2101 0.930 . S
C2110 C2108 1.384 . S
C2110 C2111 1.372 . S
C2111 C2110 1.372 . S
C2111 C2112 1.400 . S
C2111 C2116 1.490 . S
C2112 H2102 0.930 . S
C2112 C2111 1.400 . S
C2112 C2115 1.386 . S
H2113 C2129 0.930 . S
H2114 C2130 0.931 . S
C2115 H2103 0.929 . S
C2115 C2109 1.390 . S
C2115 C2112 1.386 . S
C2116 C2111 1.490 . S
C2116 C2118 1.395 . S
C2116 C2119 1.403 . S
H2117 C2123 0.930 . S
C2118 H2104 0.930 . S
C2118 C2116 1.395 . S
C2118 C2121 1.403 1_545 S
C2119 C2116 1.403 . S
C2119 C2120 1.524 . S
C2119 C2123 1.400 1_545 S
C2120 H2105 0.960 . S
C2120 H2106 0.960 . S
C2120 H2107 0.960 . S
C2120 C2119 1.524 . S
C2121 C2118 1.403 1_565 S
C2121 C2122 1.392 . S
C2121 C2125 1.495 . S
C2122 C2121 1.392 . S
C2122 C2123 1.385 . S
C2122 C2124 1.478 . S
C2123 H2117 0.930 . S
C2123 C2119 1.400 1_565 S
C2123 C2122 1.385 . S
C2124 C2122 1.478 . S
C2124 C2126 1.381 . S
C2124 C2130 1.383 . S
C2125 C2121 1.495 . S
C2125 H2131 1.008 . S
C2125 H2132 0.961 . S
C2125 H2133 0.960 . S
C2126 C2124 1.381 . S
C2126 C2127 1.394 . S
C2126 H2134 0.930 . S
C2127 C2126 1.394 . S
C2127 C2128 1.383 . S
C2127 H2135 0.929 . S
C2128 C2127 1.383 . S
C2128 C2129 1.377 . S
C2129 H2113 0.930 . S
C2129 C2128 1.377 . S
C2129 C2130 1.379 . S
C2130 H2114 0.931 . S
C2130 C2124 1.383 . S
C2130 C2129 1.379 . S
H2131 C2125 1.008 . S
H2132 C2125 0.961 . S
H2133 C2125 0.960 . S
H2134 C2126 0.930 . S
H2135 C2127 0.929 . S
H2136 C2144 0.929 . S
H2137 C2146 0.930 . S
H2138 C2148 0.930 . S
H2139 C2151 0.929 . S
H2140 C2154 0.930 . S
H2141 C2156 0.960 . S
H2142 C2156 0.960 . S
H2143 C2156 0.960 . S
C2144 H2136 0.929 . S
C2144 C2145 1.377 . S
C2144 C2146 1.384 . S
C2145 C2144 1.377 . S
C2145 C2151 1.390 . S
C2146 H2137 0.930 . S
C2146 C2144 1.384 . S
C2146 C2147 1.372 . S
C2147 C2146 1.372 . S
C2147 C2148 1.400 . S
C2147 C2152 1.490 . S
C2148 H2138 0.930 . S
C2148 C2147 1.400 . S
C2148 C2151 1.386 . S
H2149 C2165 0.930 . S
H2150 C2166 0.931 . S
C2151 H2139 0.929 . S
C2151 C2145 1.390 . S
C2151 C2148 1.386 . S
C2152 C2147 1.490 . S
C2152 C2154 1.395 . S
C2152 C2155 1.403 . S
H2153 C2159 0.930 . S
C2154 H2140 0.930 . S
C2154 C2152 1.395 . S
C2154 C2157 1.403 . S
C2155 C2152 1.403 . S
C2155 C2156 1.524 . S
C2155 C2159 1.400 . S
C2156 H2141 0.960 . S
C2156 H2142 0.960 . S
C2156 H2143 0.960 . S
C2156 C2155 1.524 . S
C2157 C2154 1.403 . S
C2157 C2158 1.392 . S
C2157 C2161 1.495 . S
C2158 C2157 1.392 . S
C2158 C2159 1.385 . S
C2158 C2160 1.478 . S
C2159 H2153 0.930 . S
C2159 C2155 1.400 . S
C2159 C2158 1.385 . S
C2160 C2158 1.478 . S
C2160 C2162 1.381 . S
C2160 C2166 1.383 . S
C2161 C2157 1.495 . S
C2161 H2167 0.959 . S
C2161 H2168 0.961 . S
C2161 H2169 0.960 . S
C2162 C2160 1.381 . S
C2162 C2163 1.394 . S
C2162 H2170 0.930 . S
C2163 C2162 1.394 . S
C2163 C2164 1.383 . S
C2163 H2171 0.929 . S
C2164 C2163 1.383 . S
C2164 C2165 1.377 . S
C2165 H2149 0.930 . S
C2165 C2164 1.377 . S
C2165 C2166 1.379 . S
C2166 H2150 0.931 . S
C2166 C2160 1.383 . S
C2166 C2165 1.379 . S
H2167 C2161 0.959 . S
H2168 C2161 0.961 . S
H2169 C2161 0.960 . S
H2170 C2162 0.930 . S
H2171 C2163 0.929 . S
H2172 C2180 0.929 . S
H2173 C2182 0.930 . S
H2174 C2184 0.930 . S
H2175 C2187 0.929 . S
H2176 C2190 0.930 . S
H2177 C2192 0.960 . S
H2178 C2192 0.960 . S
H2179 C2192 0.960 . S
C2180 H2172 0.929 . S
C2180 C2181 1.377 . S
C2180 C2182 1.384 . S
C2181 C2180 1.377 . S
C2181 C2187 1.390 . S
C2182 H2173 0.930 . S
C2182 C2180 1.384 . S
C2182 C2183 1.372 . S
C2183 C2182 1.372 . S
C2183 C2184 1.400 . S
C2183 C2188 1.490 . S
C2184 H2174 0.930 . S
C2184 C2183 1.400 . S
C2184 C2187 1.386 . S
H2185 C2201 0.930 . S
H2186 C2202 0.931 . S
C2187 H2175 0.929 . S
C2187 C2181 1.390 . S
C2187 C2184 1.386 . S
C2188 C2183 1.490 . S
C2188 C2190 1.395 . S
C2188 C2191 1.403 . S
H2189 C2195 0.930 . S
C2190 H2176 0.930 . S
C2190 C2188 1.395 . S
C2190 C2193 1.403 . S
C2191 C2188 1.403 . S
C2191 C2192 1.524 . S
C2191 C2195 1.400 . S
C2192 H2177 0.960 . S
C2192 H2178 0.960 . S
C2192 H2179 0.960 . S
C2192 C2191 1.524 . S
C2193 C2190 1.403 . S
C2193 C2194 1.392 . S
C2193 C2197 1.495 . S
C2194 C2193 1.392 . S
C2194 C2195 1.385 . S
C2194 C2196 1.478 . S
C2195 H2189 0.930 . S
C2195 C2191 1.400 . S
C2195 C2194 1.385 . S
C2196 C2194 1.478 . S
C2196 C2198 1.381 . S
C2196 C2202 1.383 . S
C2197 C2193 1.495 . S
C2197 H2203 0.959 . S
C2197 H2204 0.961 . S
C2197 H2205 0.960 . S
C2198 C2196 1.381 . S
C2198 C2199 1.394 . S
C2198 H2206 0.930 . S
C2199 C2198 1.394 . S
C2199 C2200 1.383 . S
C2199 H2207 0.929 . S
C2200 C2199 1.383 . S
C2200 C2201 1.377 . S
C2201 H2185 0.930 . S
C2201 C2200 1.377 . S
C2201 C2202 1.379 . S
C2202 H2186 0.931 . S
C2202 C2196 1.383 . S
C2202 C2201 1.379 . S
H2203 C2197 0.959 . S
H2204 C2197 0.961 . S
H2205 C2197 0.960 . S
H2206 C2198 0.930 . S
H2207 C2199 0.929 . S
H2208 C2216 0.929 . S
H2209 C2218 0.930 . S
H2210 C2220 0.930 . S
H2211 C2223 0.929 . S
H2212 C2226 0.930 . S
H2213 C2228 0.960 . S
H2214 C2228 0.960 . S
H2215 C2228 0.960 . S
C2216 H2208 0.929 . S
C2216 C2217 1.377 . S
C2216 C2218 1.384 . S
C2217 C2216 1.377 . S
C2217 C2223 1.390 . S
C2218 H2209 0.930 . S
C2218 C2216 1.384 . S
C2218 C2219 1.372 . S
C2219 C2218 1.372 . S
C2219 C2220 1.400 . S
C2219 C2224 1.490 . S
C2220 H2210 0.930 . S
C2220 C2219 1.400 . S
C2220 C2223 1.386 . S
H2221 C2237 0.930 . S
H2222 C2238 0.931 . S
C2223 H2211 0.929 . S
C2223 C2217 1.390 . S
C2223 C2220 1.386 . S
C2224 C2219 1.490 . S
C2224 C2226 1.395 . S
C2224 C2227 1.403 . S
H2225 C2231 0.930 . S
C2226 H2212 0.930 . S
C2226 C2224 1.395 . S
C2226 C2229 1.403 . S
C2227 C2224 1.403 . S
C2227 C2228 1.524 . S
C2227 C2231 1.400 . S
C2228 H2213 0.960 . S
C2228 H2214 0.960 . S
C2228 H2215 0.960 . S
C2228 C2227 1.524 . S
C2229 C2226 1.403 . S
C2229 C2230 1.392 . S
C2229 C2233 1.495 . S
C2230 C2229 1.392 . S
C2230 C2231 1.385 . S
C2230 C2232 1.478 . S
C2231 H2225 0.930 . S
C2231 C2227 1.400 . S
C2231 C2230 1.385 . S
C2232 C2230 1.478 . S
C2232 C2234 1.381 . S
C2232 C2238 1.383 . S
C2233 C2229 1.495 . S
C2233 H2239 0.959 . S
C2233 H2240 0.961 . S
C2233 H2241 0.960 . S
C2234 C2232 1.381 . S
C2234 C2235 1.394 . S
C2234 H2242 0.930 . S
C2235 C2234 1.394 . S
C2235 C2236 1.383 . S
C2235 H2243 0.929 . S
C2236 C2235 1.383 . S
C2236 C2237 1.377 . S
C2237 H2221 0.930 . S
C2237 C2236 1.377 . S
C2237 C2238 1.379 . S
C2238 H2222 0.931 . S
C2238 C2232 1.383 . S
C2238 C2237 1.379 . S
H2239 C2233 0.959 . S
H2240 C2233 0.961 . S
H2241 C2233 0.960 . S
H2242 C2234 0.930 . S
H2243 C2235 0.929 . S
H2244 C2252 0.929 . S
H2245 C2254 0.930 . S
H2246 C2256 0.930 . S
H2247 C2259 0.929 . S
H2248 C2262 0.930 . S
H2249 C2264 0.960 . S
H2250 C2264 0.960 . S
H2251 C2264 0.960 . S
C2252 H2244 0.929 . S
C2252 C2253 1.377 . S
C2252 C2254 1.384 . S
C2253 C2252 1.377 . S
C2253 C2259 1.390 . S
C2254 H2245 0.930 . S
C2254 C2252 1.384 . S
C2254 C2255 1.372 . S
C2255 C2254 1.372 . S
C2255 C2256 1.400 . S
C2255 C2260 1.490 . S
C2256 H2246 0.930 . S
C2256 C2255 1.400 . S
C2256 C2259 1.386 . S
H2257 C2273 0.930 . S
H2258 C2274 0.931 . S
C2259 H2247 0.929 . S
C2259 C2253 1.390 . S
C2259 C2256 1.386 . S
C2260 C2255 1.490 . S
C2260 C2262 1.395 . S
C2260 C2263 1.403 . S
H2261 C2267 0.930 . S
C2262 H2248 0.930 . S
C2262 C2260 1.395 . S
C2262 C2265 1.403 . S
C2263 C2260 1.403 . S
C2263 C2264 1.524 . S
C2263 C2267 1.400 . S
C2264 H2249 0.960 . S
C2264 H2250 0.960 . S
C2264 H2251 0.960 . S
C2264 C2263 1.524 . S
C2265 C2262 1.403 . S
C2265 C2266 1.392 . S
C2265 C2269 1.495 . S
C2266 C2265 1.392 . S
C2266 C2267 1.385 . S
C2266 C2268 1.478 . S
C2267 H2261 0.930 . S
C2267 C2263 1.400 . S
C2267 C2266 1.385 . S
C2268 C2266 1.478 . S
C2268 C2270 1.381 . S
C2268 C2274 1.383 . S
C2269 C2265 1.495 . S
C2269 H2275 0.959 . S
C2269 H2276 0.961 . S
C2269 H2277 0.960 . S
C2270 C2268 1.381 . S
C2270 C2271 1.394 . S
C2270 H2278 0.930 . S
C2271 C2270 1.394 . S
C2271 C2272 1.383 . S
C2271 H2279 0.929 . S
C2272 C2271 1.383 . S
C2272 C2273 1.377 . S
C2273 H2257 0.930 . S
C2273 C2272 1.377 . S
C2273 C2274 1.379 . S
C2274 H2258 0.931 . S
C2274 C2268 1.383 . S
C2274 C2273 1.379 . S
H2275 C2269 0.959 . S
H2276 C2269 0.961 . S
H2277 C2269 0.960 . S
H2278 C2270 0.930 . S
H2279 C2271 0.929 . S
H2280 C2288 0.929 . S
H2281 C2290 0.930 . S
H2282 C2292 0.930 . S
H2283 C2295 0.929 . S
H2284 C2298 0.930 . S
H2285 C2300 0.960 . S
H2286 C2300 0.960 . S
H2287 C2300 0.960 . S
C2288 H2280 0.929 . S
C2288 C2289 1.377 . S
C2288 C2290 1.384 . S
C2289 C2288 1.377 . S
C2289 C2295 1.390 . S
C2290 H2281 0.930 . S
C2290 C2288 1.384 . S
C2290 C2291 1.372 . S
C2291 C2290 1.372 . S
C2291 C2292 1.400 . S
C2291 C2296 1.490 . S
C2292 H2282 0.930 . S
C2292 C2291 1.400 . S
C2292 C2295 1.386 . S
H2293 C2309 0.930 . S
H2294 C2310 0.931 . S
C2295 H2283 0.929 . S
C2295 C2289 1.390 . S
C2295 C2292 1.386 . S
C2296 C2291 1.490 . S
C2296 C2298 1.395 . S
C2296 C2299 1.403 . S
H2297 C2303 0.930 . S
C2298 H2284 0.930 . S
C2298 C2296 1.395 . S
C2298 C2301 1.403 . S
C2299 C2296 1.403 . S
C2299 C2300 1.524 . S
C2299 C2303 1.400 . S
C2300 H2285 0.960 . S
C2300 H2286 0.960 . S
C2300 H2287 0.960 . S
C2300 C2299 1.524 . S
C2301 C2298 1.403 . S
C2301 C2302 1.392 . S
C2301 C2305 1.495 . S
C2302 C2301 1.392 . S
C2302 C2303 1.385 . S
C2302 C2304 1.478 . S
C2303 H2297 0.930 . S
C2303 C2299 1.400 . S
C2303 C2302 1.385 . S
C2304 C2302 1.478 . S
C2304 C2306 1.381 . S
C2304 C2310 1.383 . S
C2305 C2301 1.495 . S
C2305 H2311 0.959 . S
C2305 H2312 0.961 . S
C2305 H2313 0.960 . S
C2306 C2304 1.381 . S
C2306 C2307 1.394 . S
C2306 H2314 0.930 . S
C2307 C2306 1.394 . S
C2307 C2308 1.383 . S
C2307 H2315 0.929 . S
C2308 C2307 1.383 . S
C2308 C2309 1.377 . S
C2309 H2293 0.930 . S
C2309 C2308 1.377 . S
C2309 C2310 1.379 . S
C2310 H2294 0.931 . S
C2310 C2304 1.383 . S
C2310 C2309 1.379 . S
H2311 C2305 0.959 . S
H2312 C2305 0.961 . S
H2313 C2305 0.960 . S
H2314 C2306 0.930 . S
H2315 C2307 0.929 . S
H2316 C2324 0.929 . S
H2317 C2326 0.930 . S
H2318 C2328 0.930 . S
H2319 C2331 0.929 . S
H2320 C2334 0.930 . S
H2321 C2336 0.960 . S
H2322 C2336 0.960 . S
H2323 C2336 0.960 . S
C2324 H2316 0.929 . S
C2324 C2325 1.377 . S
C2324 C2326 1.384 . S
C2325 C2324 1.377 . S
C2325 C2331 1.390 . S
C2326 H2317 0.930 . S
C2326 C2324 1.384 . S
C2326 C2327 1.372 . S
C2327 C2326 1.372 . S
C2327 C2328 1.400 . S
C2327 C2332 1.490 . S
C2328 H2318 0.930 . S
C2328 C2327 1.400 . S
C2328 C2331 1.386 . S
H2329 C2345 0.930 . S
H2330 C2346 0.931 . S
C2331 H2319 0.929 . S
C2331 C2325 1.390 . S
C2331 C2328 1.386 . S
C2332 C2327 1.490 . S
C2332 C2334 1.395 . S
C2332 C2335 1.403 . S
H2333 C2339 0.930 . S
C2334 H2320 0.930 . S
C2334 C2332 1.395 . S
C2334 C2337 1.403 . S
C2335 C2332 1.403 . S
C2335 C2336 1.524 . S
C2335 C2339 1.400 . S
C2336 H2321 0.960 . S
C2336 H2322 0.960 . S
C2336 H2323 0.960 . S
C2336 C2335 1.524 . S
C2337 C2334 1.403 . S
C2337 C2338 1.392 . S
C2337 C2341 1.495 . S
C2338 C2337 1.392 . S
C2338 C2339 1.385 . S
C2338 C2340 1.478 . S
C2339 H2333 0.930 . S
C2339 C2335 1.400 . S
C2339 C2338 1.385 . S
C2340 C2338 1.478 . S
C2340 C2342 1.381 . S
C2340 C2346 1.383 . S
C2341 C2337 1.495 . S
C2341 H2347 0.959 . S
C2341 H2348 0.961 . S
C2341 H2349 0.960 . S
C2342 C2340 1.381 . S
C2342 C2343 1.394 . S
C2342 H2350 0.930 . S
C2343 C2342 1.394 . S
C2343 C2344 1.383 . S
C2343 H2351 0.929 . S
C2344 C2343 1.383 . S
C2344 C2345 1.377 . S
C2345 H2329 0.930 . S
C2345 C2344 1.377 . S
C2345 C2346 1.379 . S
C2346 H2330 0.931 . S
C2346 C2340 1.383 . S
C2346 C2345 1.379 . S
H2347 C2341 0.959 . S
H2348 C2341 0.961 . S
H2349 C2341 0.960 . S
H2350 C2342 0.930 . S
H2351 C2343 0.929 . S
H2352 C2360 0.929 . S
H2353 C2362 0.930 . S
H2354 C2364 0.930 . S
H2355 C2367 0.929 . S
H2356 C2370 0.930 . S
H2357 C2372 0.960 . S
H2358 C2372 0.960 . S
H2359 C2372 0.960 . S
C2360 H2352 0.929 . S
C2360 C2361 1.377 . S
C2360 C2362 1.384 . S
C2361 C2360 1.377 . S
C2361 C2367 1.390 . S
C2362 H2353 0.930 . S
C2362 C2360 1.384 . S
C2362 C2363 1.372 . S
C2363 C2362 1.372 . S
C2363 C2364 1.400 . S
C2363 C2368 1.490 . S
C2364 H2354 0.930 . S
C2364 C2363 1.400 . S
C2364 C2367 1.386 . S
H2365 C2381 0.930 . S
H2366 C2382 0.931 . S
C2367 H2355 0.929 . S
C2367 C2361 1.390 . S
C2367 C2364 1.386 . S
C2368 C2363 1.490 . S
C2368 C2370 1.395 . S
C2368 C2371 1.403 . S
H2369 C2375 0.930 . S
C2370 H2356 0.930 . S
C2370 C2368 1.395 . S
C2370 C2373 1.403 . S
C2371 C2368 1.403 . S
C2371 C2372 1.524 . S
C2371 C2375 1.400 . S
C2372 H2357 0.960 . S
C2372 H2358 0.960 . S
C2372 H2359 0.960 . S
C2372 C2371 1.524 . S
C2373 C2370 1.403 . S
C2373 C2374 1.392 . S
C2373 C2377 1.495 . S
C2374 C2373 1.392 . S
C2374 C2375 1.385 . S
C2374 C2376 1.478 . S
C2375 H2369 0.930 . S
C2375 C2371 1.400 . S
C2375 C2374 1.385 . S
C2376 C2374 1.478 . S
C2376 C2378 1.381 . S
C2376 C2382 1.383 . S
C2377 C2373 1.495 . S
C2377 H2383 0.959 . S
C2377 H2384 0.961 . S
C2377 H2385 0.960 . S
C2378 C2376 1.381 . S
C2378 C2379 1.394 . S
C2378 H2386 0.930 . S
C2379 C2378 1.394 . S
C2379 C2380 1.383 . S
C2379 H2387 0.929 . S
C2380 C2379 1.383 . S
C2380 C2381 1.377 . S
C2381 H2365 0.930 . S
C2381 C2380 1.377 . S
C2381 C2382 1.379 . S
C2382 H2366 0.931 . S
C2382 C2376 1.383 . S
C2382 C2381 1.379 . S
H2383 C2377 0.959 . S
H2384 C2377 0.961 . S
H2385 C2377 0.960 . S
H2386 C2378 0.930 . S
H2387 C2379 0.929 . S
H2388 C2396 0.929 . S
H2389 C2398 0.930 . S
H2390 C2400 0.930 . S
H2391 C2403 0.929 . S
H2392 C2406 0.930 . S
H2393 C2408 0.960 . S
H2394 C2408 0.960 . S
H2395 C2408 0.960 . S
C2396 H2388 0.929 . S
C2396 C2397 1.377 . S
C2396 C2398 1.384 . S
C2397 C2396 1.377 . S
C2397 C2403 1.390 . S
C2398 H2389 0.930 . S
C2398 C2396 1.384 . S
C2398 C2399 1.372 . S
C2399 C2398 1.372 . S
C2399 C2400 1.400 . S
C2399 C2404 1.490 . S
C2400 H2390 0.930 . S
C2400 C2399 1.400 . S
C2400 C2403 1.386 . S
H2401 C2417 0.930 . S
H2402 C2418 0.931 . S
C2403 H2391 0.929 . S
C2403 C2397 1.390 . S
C2403 C2400 1.386 . S
C2404 C2399 1.490 . S
C2404 C2406 1.395 . S
C2404 C2407 1.403 . S
H2405 C2411 0.930 . S
C2406 H2392 0.930 . S
C2406 C2404 1.395 . S
C2406 C2409 1.403 . S
C2407 C2404 1.403 . S
C2407 C2408 1.524 . S
C2407 C2411 1.400 . S
C2408 H2393 0.960 . S
C2408 H2394 0.960 . S
C2408 H2395 0.960 . S
C2408 C2407 1.524 . S
C2409 C2406 1.403 . S
C2409 C2410 1.392 . S
C2409 C2413 1.495 . S
C2410 C2409 1.392 . S
C2410 C2411 1.385 . S
C2410 C2412 1.478 . S
C2411 H2405 0.930 . S
C2411 C2407 1.400 . S
C2411 C2410 1.385 . S
C2412 C2410 1.478 . S
C2412 C2414 1.381 . S
C2412 C2418 1.383 . S
C2413 C2409 1.495 . S
C2413 H2419 0.959 . S
C2413 H2420 0.961 . S
C2413 H2421 0.960 . S
C2414 C2412 1.381 . S
C2414 C2415 1.394 . S
C2414 H2422 0.930 . S
C2415 C2414 1.394 . S
C2415 C2416 1.383 . S
C2415 H2423 0.929 . S
C2416 C2415 1.383 . S
C2416 C2417 1.377 . S
C2417 H2401 0.930 . S
C2417 C2416 1.377 . S
C2417 C2418 1.379 . S
C2418 H2402 0.931 . S
C2418 C2412 1.383 . S
C2418 C2417 1.379 . S
H2419 C2413 0.959 . S
H2420 C2413 0.961 . S
H2421 C2413 0.960 . S
H2422 C2414 0.930 . S
H2423 C2415 0.929 . S
H2424 C2432 0.929 . S
H2425 C2434 0.930 . S
H2426 C2436 0.930 . S
H2427 C2439 0.929 . S
H2428 C2442 0.930 . S
H2429 C2444 0.960 . S
H2430 C2444 0.960 . S
H2431 C2444 0.960 . S
C2432 H2424 0.929 . S
C2432 C2433 1.377 . S
C2432 C2434 1.384 . S
C2433 C2432 1.377 . S
C2433 C2439 1.390 . S
C2434 H2425 0.930 . S
C2434 C2432 1.384 . S
C2434 C2435 1.372 . S
C2435 C2434 1.372 . S
C2435 C2436 1.400 . S
C2435 C2440 1.490 . S
C2436 H2426 0.930 . S
C2436 C2435 1.400 . S
C2436 C2439 1.386 . S
H2437 C2453 0.930 . S
H2438 C2454 0.931 . S
C2439 H2427 0.929 . S
C2439 C2433 1.390 . S
C2439 C2436 1.386 . S
C2440 C2435 1.490 . S
C2440 C2442 1.395 . S
C2440 C2443 1.403 . S
H2441 C2447 0.930 . S
C2442 H2428 0.930 . S
C2442 C2440 1.395 . S
C2442 C2445 1.403 . S
C2443 C2440 1.403 . S
C2443 C2444 1.524 . S
C2443 C2447 1.400 . S
C2444 H2429 0.960 . S
C2444 H2430 0.960 . S
C2444 H2431 0.960 . S
C2444 C2443 1.524 . S
C2445 C2442 1.403 . S
C2445 C2446 1.392 . S
C2445 C2449 1.495 . S
C2446 C2445 1.392 . S
C2446 C2447 1.385 . S
C2446 C2448 1.478 . S
C2447 H2441 0.930 . S
C2447 C2443 1.400 . S
C2447 C2446 1.385 . S
C2448 C2446 1.478 . S
C2448 C2450 1.381 . S
C2448 C2454 1.383 . S
C2449 C2445 1.495 . S
C2449 H2455 0.959 . S
C2449 H2456 0.961 . S
C2449 H2457 0.960 . S
C2450 C2448 1.381 . S
C2450 C2451 1.394 . S
C2450 H2458 0.930 . S
C2451 C2450 1.394 . S
C2451 C2452 1.383 . S
C2451 H2459 0.929 . S
C2452 C2451 1.383 . S
C2452 C2453 1.377 . S
C2453 H2437 0.930 . S
C2453 C2452 1.377 . S
C2453 C2454 1.379 . S
C2454 H2438 0.931 . S
C2454 C2448 1.383 . S
C2454 C2453 1.379 . S
H2455 C2449 0.959 . S
H2456 C2449 0.961 . S
H2457 C2449 0.960 . S
H2458 C2450 0.930 . S
H2459 C2451 0.929 . S
H2460 C2468 0.929 . S
H2461 C2470 0.930 . S
H2462 C2472 0.930 . S
H2463 C2475 0.929 . S
H2464 C2478 0.930 . S
H2465 C2480 0.960 . S
H2466 C2480 0.960 . S
H2467 C2480 0.960 . S
C2468 H2460 0.929 . S
C2468 C2469 1.377 . S
C2468 C2470 1.384 . S
C2469 C2468 1.377 . S
C2469 C2475 1.390 . S
C2470 H2461 0.930 . S
C2470 C2468 1.384 . S
C2470 C2471 1.372 . S
C2471 C2470 1.372 . S
C2471 C2472 1.400 . S
C2471 C2476 1.490 . S
C2472 H2462 0.930 . S
C2472 C2471 1.400 . S
C2472 C2475 1.386 . S
H2473 C2489 0.930 . S
H2474 C2490 0.931 . S
C2475 H2463 0.929 . S
C2475 C2469 1.390 . S
C2475 C2472 1.386 . S
C2476 C2471 1.490 . S
C2476 C2478 1.395 . S
C2476 C2479 1.403 . S
H2477 C2483 0.930 . S
C2478 H2464 0.930 . S
C2478 C2476 1.395 . S
C2478 C2481 1.403 . S
C2479 C2476 1.403 . S
C2479 C2480 1.524 . S
C2479 C2483 1.400 . S
C2480 H2465 0.960 . S
C2480 H2466 0.960 . S
C2480 H2467 0.960 . S
C2480 C2479 1.524 . S
C2481 C2478 1.403 . S
C2481 C2482 1.392 . S
C2481 C2485 1.495 . S
C2482 C2481 1.392 . S
C2482 C2483 1.385 . S
C2482 C2484 1.478 . S
C2483 H2477 0.930 . S
C2483 C2479 1.400 . S
C2483 C2482 1.385 . S
C2484 C2482 1.478 . S
C2484 C2486 1.381 . S
C2484 C2490 1.383 . S
C2485 C2481 1.495 . S
C2485 H2491 0.959 . S
C2485 H2492 0.961 . S
C2485 H2493 0.960 . S
C2486 C2484 1.381 . S
C2486 C2487 1.394 . S
C2486 H2494 0.930 . S
C2487 C2486 1.394 . S
C2487 C2488 1.383 . S
C2487 H2495 0.929 . S
C2488 C2487 1.383 . S
C2488 C2489 1.377 . S
C2489 H2473 0.930 . S
C2489 C2488 1.377 . S
C2489 C2490 1.379 . S
C2490 H2474 0.931 . S
C2490 C2484 1.383 . S
C2490 C2489 1.379 . S
H2491 C2485 0.959 . S
H2492 C2485 0.961 . S
H2493 C2485 0.960 . S
H2494 C2486 0.930 . S
H2495 C2487 0.929 . S
H2496 C2504 0.929 . S
H2497 C2506 0.930 . S
H2498 C2508 0.930 . S
H2499 C2511 0.929 . S
H2500 C2514 0.930 . S
H2501 C2516 0.960 . S
H2502 C2516 0.960 . S
H2503 C2516 0.960 . S
C2504 H2496 0.929 . S
C2504 C2505 1.377 . S
C2504 C2506 1.384 . S
C2505 C2504 1.377 . S
C2505 C2511 1.390 . S
C2506 H2497 0.930 . S
C2506 C2504 1.384 . S
C2506 C2507 1.372 . S
C2507 C2506 1.372 . S
C2507 C2508 1.400 . S
C2507 C2512 1.490 . S
C2508 H2498 0.930 . S
C2508 C2507 1.400 . S
C2508 C2511 1.386 . S
H2509 C2525 0.930 . S
H2510 C2526 0.931 . S
C2511 H2499 0.929 . S
C2511 C2505 1.390 . S
C2511 C2508 1.386 . S
C2512 C2507 1.490 . S
C2512 C2514 1.395 . S
C2512 C2515 1.403 . S
H2513 C2519 0.930 . S
C2514 H2500 0.930 . S
C2514 C2512 1.395 . S
C2514 C2517 1.403 . S
C2515 C2512 1.403 . S
C2515 C2516 1.524 . S
C2515 C2519 1.400 . S
C2516 H2501 0.960 . S
C2516 H2502 0.960 . S
C2516 H2503 0.960 . S
C2516 C2515 1.524 . S
C2517 C2514 1.403 . S
C2517 C2518 1.392 . S
C2517 C2521 1.495 . S
C2518 C2517 1.392 . S
C2518 C2519 1.385 . S
C2518 C2520 1.478 . S
C2519 H2513 0.930 . S
C2519 C2515 1.400 . S
C2519 C2518 1.385 . S
C2520 C2518 1.478 . S
C2520 C2522 1.381 . S
C2520 C2526 1.383 . S
C2521 C2517 1.495 . S
C2521 H2527 0.959 . S
C2521 H2528 0.961 . S
C2521 H2529 0.960 . S
C2522 C2520 1.381 . S
C2522 C2523 1.394 . S
C2522 H2530 0.930 . S
C2523 C2522 1.394 . S
C2523 C2524 1.383 . S
C2523 H2531 0.929 . S
C2524 C2523 1.383 . S
C2524 C2525 1.377 . S
C2525 H2509 0.930 . S
C2525 C2524 1.377 . S
C2525 C2526 1.379 . S
C2526 H2510 0.931 . S
C2526 C2520 1.383 . S
C2526 C2525 1.379 . S
H2527 C2521 0.959 . S
H2528 C2521 0.961 . S
H2529 C2521 0.960 . S
H2530 C2522 0.930 . S
H2531 C2523 0.929 . S
H2532 C2540 0.929 . S
H2533 C2542 0.930 . S
H2534 C2544 0.930 . S
H2535 C2547 0.929 . S
H2536 C2550 0.930 . S
H2537 C2552 0.960 . S
H2538 C2552 0.960 . S
H2539 C2552 0.960 . S
C2540 H2532 0.929 . S
C2540 C2541 1.377 . S
C2540 C2542 1.384 . S
C2541 C2540 1.377 . S
C2541 C2547 1.390 . S
C2542 H2533 0.930 . S
C2542 C2540 1.384 . S
C2542 C2543 1.372 . S
C2543 C2542 1.372 . S
C2543 C2544 1.400 . S
C2543 C2548 1.490 . S
C2544 H2534 0.930 . S
C2544 C2543 1.400 . S
C2544 C2547 1.386 . S
H2545 C2561 0.930 . S
H2546 C2562 0.931 . S
C2547 H2535 0.929 . S
C2547 C2541 1.390 . S
C2547 C2544 1.386 . S
C2548 C2543 1.490 . S
C2548 C2550 1.395 . S
C2548 C2551 1.403 . S
H2549 C2555 0.930 . S
C2550 H2536 0.930 . S
C2550 C2548 1.395 . S
C2550 C2553 1.403 . S
C2551 C2548 1.403 . S
C2551 C2552 1.524 . S
C2551 C2555 1.400 . S
C2552 H2537 0.960 . S
C2552 H2538 0.960 . S
C2552 H2539 0.960 . S
C2552 C2551 1.524 . S
C2553 C2550 1.403 . S
C2553 C2554 1.392 . S
C2553 C2557 1.495 . S
C2554 C2553 1.392 . S
C2554 C2555 1.385 . S
C2554 C2556 1.478 . S
C2555 H2549 0.930 . S
C2555 C2551 1.400 . S
C2555 C2554 1.385 . S
C2556 C2554 1.478 . S
C2556 C2558 1.381 . S
C2556 C2562 1.383 . S
C2557 C2553 1.495 . S
C2557 H2563 0.959 . S
C2557 H2564 0.961 . S
C2557 H2565 0.960 . S
C2558 C2556 1.381 . S
C2558 C2559 1.394 . S
C2558 H2566 0.930 . S
C2559 C2558 1.394 . S
C2559 C2560 1.383 . S
C2559 H2567 0.929 . S
C2560 C2559 1.383 . S
C2560 C2561 1.377 . S
C2561 H2545 0.930 . S
C2561 C2560 1.377 . S
C2561 C2562 1.379 . S
C2562 H2546 0.931 . S
C2562 C2556 1.383 . S
C2562 C2561 1.379 . S
H2563 C2557 0.959 . S
H2564 C2557 0.961 . S
H2565 C2557 0.960 . S
H2566 C2558 0.930 . S
H2567 C2559 0.929 . S
H2568 C2576 0.929 . S
H2569 C2578 0.930 . S
H2570 C2580 0.930 . S
H2571 C2583 0.929 . S
H2572 C2586 0.930 . S
H2573 C2588 0.960 . S
H2574 C2588 0.960 . S
H2575 C2588 0.960 . S
C2576 H2568 0.929 . S
C2576 C2577 1.377 . S
C2576 C2578 1.384 . S
C2577 C2576 1.377 . S
C2577 C2583 1.390 . S
C2578 H2569 0.930 . S
C2578 C2576 1.384 . S
C2578 C2579 1.372 . S
C2579 C2578 1.372 . S
C2579 C2580 1.400 . S
C2579 C2584 1.490 . S
C2580 H2570 0.930 . S
C2580 C2579 1.400 . S
C2580 C2583 1.386 . S
H2581 C2597 0.930 . S
H2582 C2598 0.931 . S
C2583 H2571 0.929 . S
C2583 C2577 1.390 . S
C2583 C2580 1.386 . S
C2584 C2579 1.490 . S
C2584 C2586 1.395 . S
C2584 C2587 1.403 . S
H2585 C2591 0.930 . S
C2586 H2572 0.930 . S
C2586 C2584 1.395 . S
C2586 C2589 1.403 . S
C2587 C2584 1.403 . S
C2587 C2588 1.524 . S
C2587 C2591 1.400 . S
C2588 H2573 0.960 . S
C2588 H2574 0.960 . S
C2588 H2575 0.960 . S
C2588 C2587 1.524 . S
C2589 C2586 1.403 . S
C2589 C2590 1.392 . S
C2589 C2593 1.495 . S
C2590 C2589 1.392 . S
C2590 C2591 1.385 . S
C2590 C2592 1.478 . S
C2591 H2585 0.930 . S
C2591 C2587 1.400 . S
C2591 C2590 1.385 . S
C2592 C2590 1.478 . S
C2592 C2594 1.381 . S
C2592 C2598 1.383 . S
C2593 C2589 1.495 . S
C2593 H2599 0.959 . S
C2593 H2600 0.961 . S
C2593 H2601 0.960 . S
C2594 C2592 1.381 . S
C2594 C2595 1.394 . S
C2594 H2602 0.930 . S
C2595 C2594 1.394 . S
C2595 C2596 1.383 . S
C2595 H2603 0.929 . S
C2596 C2595 1.383 . S
C2596 C2597 1.377 . S
C2597 H2581 0.930 . S
C2597 C2596 1.377 . S
C2597 C2598 1.379 . S
C2598 H2582 0.931 . S
C2598 C2592 1.383 . S
C2598 C2597 1.379 . S
H2599 C2593 0.959 . S
H2600 C2593 0.961 . S
H2601 C2593 0.960 . S
H2602 C2594 0.930 . S
H2603 C2595 0.929 . S
H2604 C2612 0.929 . S
H2605 C2614 0.930 . S
H2606 C2616 0.930 . S
H2607 C2619 0.929 . S
H2608 C2622 0.930 . S
H2609 C2624 0.960 . S
H2610 C2624 0.960 . S
H2611 C2624 0.960 . S
C2612 H2604 0.929 . S
C2612 C2613 1.377 . S
C2612 C2614 1.384 . S
C2613 C2612 1.377 . S
C2613 C2619 1.390 . S
C2614 H2605 0.930 . S
C2614 C2612 1.384 . S
C2614 C2615 1.372 . S
C2615 C2614 1.372 . S
C2615 C2616 1.400 . S
C2615 C2620 1.490 . S
C2616 H2606 0.930 . S
C2616 C2615 1.400 . S
C2616 C2619 1.386 . S
H2617 C2633 0.930 . S
H2618 C2634 0.931 . S
C2619 H2607 0.929 . S
C2619 C2613 1.390 . S
C2619 C2616 1.386 . S
C2620 C2615 1.490 . S
C2620 C2622 1.395 . S
C2620 C2623 1.403 . S
H2621 C2627 0.930 . S
C2622 H2608 0.930 . S
C2622 C2620 1.395 . S
C2622 C2625 1.403 . S
C2623 C2620 1.403 . S
C2623 C2624 1.524 . S
C2623 C2627 1.400 . S
C2624 H2609 0.960 . S
C2624 H2610 0.960 . S
C2624 H2611 0.960 . S
C2624 C2623 1.524 . S
C2625 C2622 1.403 . S
C2625 C2626 1.392 . S
C2625 C2629 1.495 . S
C2626 C2625 1.392 . S
C2626 C2627 1.385 . S
C2626 C2628 1.478 . S
C2627 H2621 0.930 . S
C2627 C2623 1.400 . S
C2627 C2626 1.385 . S
C2628 C2626 1.478 . S
C2628 C2630 1.381 . S
C2628 C2634 1.383 . S
C2629 C2625 1.495 . S
C2629 H2635 0.959 . S
C2629 H2636 0.961 . S
C2629 H2637 0.960 . S
C2630 C2628 1.381 . S
C2630 C2631 1.394 . S
C2630 H2638 0.930 . S
C2631 C2630 1.394 . S
C2631 C2632 1.383 . S
C2631 H2639 0.929 . S
C2632 C2631 1.383 . S
C2632 C2633 1.377 . S
C2633 H2617 0.930 . S
C2633 C2632 1.377 . S
C2633 C2634 1.379 . S
C2634 H2618 0.931 . S
C2634 C2628 1.383 . S
C2634 C2633 1.379 . S
H2635 C2629 0.959 . S
H2636 C2629 0.961 . S
H2637 C2629 0.960 . S
H2638 C2630 0.930 . S
H2639 C2631 0.929 . S
H2640 C2648 0.929 . S
H2641 C2650 0.930 . S
H2642 C2652 0.930 . S
H2643 C2655 0.929 . S
H2644 C2658 0.930 . S
H2645 C2660 0.960 . S
H2646 C2660 0.960 . S
H2647 C2660 0.960 . S
C2648 H2640 0.929 . S
C2648 C2649 1.377 . S
C2648 C2650 1.384 . S
C2649 C2648 1.377 . S
C2649 C2655 1.390 . S
C2650 H2641 0.930 . S
C2650 C2648 1.384 . S
C2650 C2651 1.372 . S
C2651 C2650 1.372 . S
C2651 C2652 1.400 . S
C2651 C2656 1.490 . S
C2652 H2642 0.930 . S
C2652 C2651 1.400 . S
C2652 C2655 1.386 . S
H2653 C2669 0.930 . S
H2654 C2670 0.931 . S
C2655 H2643 0.929 . S
C2655 C2649 1.390 . S
C2655 C2652 1.386 . S
C2656 C2651 1.490 . S
C2656 C2658 1.395 . S
C2656 C2659 1.403 . S
H2657 C2663 0.930 . S
C2658 H2644 0.930 . S
C2658 C2656 1.395 . S
C2658 C2661 1.403 . S
C2659 C2656 1.403 . S
C2659 C2660 1.524 . S
C2659 C2663 1.400 . S
C2660 H2645 0.960 . S
C2660 H2646 0.960 . S
C2660 H2647 0.960 . S
C2660 C2659 1.524 . S
C2661 C2658 1.403 . S
C2661 C2662 1.392 . S
C2661 C2665 1.495 . S
C2662 C2661 1.392 . S
C2662 C2663 1.385 . S
C2662 C2664 1.478 . S
C2663 H2657 0.930 . S
C2663 C2659 1.400 . S
C2663 C2662 1.385 . S
C2664 C2662 1.478 . S
C2664 C2666 1.381 . S
C2664 C2670 1.383 . S
C2665 C2661 1.495 . S
C2665 H2671 0.959 . S
C2665 H2672 0.961 . S
C2665 H2673 0.960 . S
C2666 C2664 1.381 . S
C2666 C2667 1.394 . S
C2666 H2674 0.930 . S
C2667 C2666 1.394 . S
C2667 C2668 1.383 . S
C2667 H2675 0.929 . S
C2668 C2667 1.383 . S
C2668 C2669 1.377 . S
C2669 H2653 0.930 . S
C2669 C2668 1.377 . S
C2669 C2670 1.379 . S
C2670 H2654 0.931 . S
C2670 C2664 1.383 . S
C2670 C2669 1.379 . S
H2671 C2665 0.959 . S
H2672 C2665 0.961 . S
H2673 C2665 0.960 . S
H2674 C2666 0.930 . S
H2675 C2667 0.929 . S
H2676 C2684 0.929 . S
H2677 C2686 0.930 . S
H2678 C2688 0.930 . S
H2679 C2691 0.929 . S
H2680 C2694 0.930 . S
H2681 C2696 0.960 . S
H2682 C2696 0.960 . S
H2683 C2696 0.960 . S
C2684 H2676 0.929 . S
C2684 C2685 1.377 . S
C2684 C2686 1.384 . S
C2685 C2684 1.377 . S
C2685 C2691 1.390 . S
C2686 H2677 0.930 . S
C2686 C2684 1.384 . S
C2686 C2687 1.372 . S
C2687 C2686 1.372 . S
C2687 C2688 1.400 . S
C2687 C2692 1.490 . S
C2688 H2678 0.930 . S
C2688 C2687 1.400 . S
C2688 C2691 1.386 . S
H2689 C2705 0.930 . S
H2690 C2706 0.931 . S
C2691 H2679 0.929 . S
C2691 C2685 1.390 . S
C2691 C2688 1.386 . S
C2692 C2687 1.490 . S
C2692 C2694 1.395 . S
C2692 C2695 1.403 . S
H2693 C2699 0.930 . S
C2694 H2680 0.930 . S
C2694 C2692 1.395 . S
C2694 C2697 1.403 . S
C2695 C2692 1.403 . S
C2695 C2696 1.524 . S
C2695 C2699 1.400 . S
C2696 H2681 0.960 . S
C2696 H2682 0.960 . S
C2696 H2683 0.960 . S
C2696 C2695 1.524 . S
C2697 C2694 1.403 . S
C2697 C2698 1.392 . S
C2697 C2701 1.495 . S
C2698 C2697 1.392 . S
C2698 C2699 1.385 . S
C2698 C2700 1.478 . S
C2699 H2693 0.930 . S
C2699 C2695 1.400 . S
C2699 C2698 1.385 . S
C2700 C2698 1.478 . S
C2700 C2702 1.381 . S
C2700 C2706 1.383 . S
C2701 C2697 1.495 . S
C2701 H2707 0.959 . S
C2701 H2708 0.961 . S
C2701 H2709 0.960 . S
C2702 C2700 1.381 . S
C2702 C2703 1.394 . S
C2702 H2710 0.930 . S
C2703 C2702 1.394 . S
C2703 C2704 1.383 . S
C2703 H2711 0.929 . S
C2704 C2703 1.383 . S
C2704 C2705 1.377 . S
C2705 H2689 0.930 . S
C2705 C2704 1.377 . S
C2705 C2706 1.379 . S
C2706 H2690 0.931 . S
C2706 C2700 1.383 . S
C2706 C2705 1.379 . S
H2707 C2701 0.959 . S
H2708 C2701 0.961 . S
H2709 C2701 0.960 . S
H2710 C2702 0.930 . S
H2711 C2703 0.929 . S
H2712 C2720 0.929 . S
H2713 C2722 0.930 . S
H2714 C2724 0.930 . S
H2715 C2727 0.929 . S
H2716 C2730 0.930 . S
H2717 C2732 0.960 . S
H2718 C2732 0.960 . S
H2719 C2732 0.960 . S
C2720 H2712 0.929 . S
C2720 C2721 1.377 . S
C2720 C2722 1.384 . S
C2721 C2720 1.377 . S
C2721 C2727 1.390 . S
C2722 H2713 0.930 . S
C2722 C2720 1.384 . S
C2722 C2723 1.372 . S
C2723 C2722 1.372 . S
C2723 C2724 1.400 . S
C2723 C2728 1.490 . S
C2724 H2714 0.930 . S
C2724 C2723 1.400 . S
C2724 C2727 1.386 . S
H2725 C2741 0.930 . S
H2726 C2742 0.931 . S
C2727 H2715 0.929 . S
C2727 C2721 1.390 . S
C2727 C2724 1.386 . S
C2728 C2723 1.490 . S
C2728 C2730 1.395 . S
C2728 C2731 1.403 . S
H2729 C2735 0.930 . S
C2730 H2716 0.930 . S
C2730 C2728 1.395 . S
C2730 C2733 1.403 . S
C2731 C2728 1.403 . S
C2731 C2732 1.524 . S
C2731 C2735 1.400 . S
C2732 H2717 0.960 . S
C2732 H2718 0.960 . S
C2732 H2719 0.960 . S
C2732 C2731 1.524 . S
C2733 C2730 1.403 . S
C2733 C2734 1.392 . S
C2733 C2737 1.495 . S
C2734 C2733 1.392 . S
C2734 C2735 1.385 . S
C2734 C2736 1.478 . S
C2735 H2729 0.930 . S
C2735 C2731 1.400 . S
C2735 C2734 1.385 . S
C2736 C2734 1.478 . S
C2736 C2738 1.381 . S
C2736 C2742 1.383 . S
C2737 C2733 1.495 . S
C2737 H2743 0.959 . S
C2737 H2744 0.961 . S
C2737 H2745 0.960 . S
C2738 C2736 1.381 . S
C2738 C2739 1.394 . S
C2738 H2746 0.930 . S
C2739 C2738 1.394 . S
C2739 C2740 1.383 . S
C2739 H2747 0.929 . S
C2740 C2739 1.383 . S
C2740 C2741 1.377 . S
C2741 H2725 0.930 . S
C2741 C2740 1.377 . S
C2741 C2742 1.379 . S
C2742 H2726 0.931 . S
C2742 C2736 1.383 . S
C2742 C2741 1.379 . S
H2743 C2737 0.959 . S
H2744 C2737 0.961 . S
H2745 C2737 0.960 . S
H2746 C2738 0.930 . S
H2747 C2739 0.929 . S
H2748 C2756 0.929 . S
H2749 C2758 0.930 . S
H2750 C2760 0.930 . S
H2751 C2763 0.929 . S
H2752 C2766 0.930 . S
H2753 C2768 0.960 . S
H2754 C2768 0.960 . S
H2755 C2768 0.960 . S
C2756 H2748 0.929 . S
C2756 C2757 1.377 . S
C2756 C2758 1.384 . S
C2757 C2756 1.377 . S
C2757 C2763 1.390 . S
C2758 H2749 0.930 . S
C2758 C2756 1.384 . S
C2758 C2759 1.372 . S
C2759 C2758 1.372 . S
C2759 C2760 1.400 . S
C2759 C2764 1.490 . S
C2760 H2750 0.930 . S
C2760 C2759 1.400 . S
C2760 C2763 1.386 . S
H2761 C2777 0.930 . S
H2762 C2778 0.931 . S
C2763 H2751 0.929 . S
C2763 C2757 1.390 . S
C2763 C2760 1.386 . S
C2764 C2759 1.490 . S
C2764 C2766 1.395 . S
C2764 C2767 1.403 . S
H2765 C2771 0.930 . S
C2766 H2752 0.930 . S
C2766 C2764 1.395 . S
C2766 C2769 1.403 . S
C2767 C2764 1.403 . S
C2767 C2768 1.524 . S
C2767 C2771 1.400 . S
C2768 H2753 0.960 . S
C2768 H2754 0.960 . S
C2768 H2755 0.960 . S
C2768 C2767 1.524 . S
C2769 C2766 1.403 . S
C2769 C2770 1.392 . S
C2769 C2773 1.495 . S
C2770 C2769 1.392 . S
C2770 C2771 1.385 . S
C2770 C2772 1.478 . S
C2771 H2765 0.930 . S
C2771 C2767 1.400 . S
C2771 C2770 1.385 . S
C2772 C2770 1.478 . S
C2772 C2774 1.381 . S
C2772 C2778 1.383 . S
C2773 C2769 1.495 . S
C2773 H2779 0.959 . S
C2773 H2780 0.961 . S
C2773 H2781 0.960 . S
C2774 C2772 1.381 . S
C2774 C2775 1.394 . S
C2774 H2782 0.930 . S
C2775 C2774 1.394 . S
C2775 C2776 1.383 . S
C2775 H2783 0.929 . S
C2776 C2775 1.383 . S
C2776 C2777 1.377 . S
C2777 H2761 0.930 . S
C2777 C2776 1.377 . S
C2777 C2778 1.379 . S
C2778 H2762 0.931 . S
C2778 C2772 1.383 . S
C2778 C2777 1.379 . S
H2779 C2773 0.959 . S
H2780 C2773 0.961 . S
H2781 C2773 0.960 . S
H2782 C2774 0.930 . S
H2783 C2775 0.929 . S
H2784 C2792 0.929 . S
H2785 C2794 0.930 . S
H2786 C2796 0.930 . S
H2787 C2799 0.929 . S
H2788 C2802 0.930 . S
H2789 C2804 0.960 . S
H2790 C2804 0.960 . S
H2791 C2804 0.960 . S
C2792 H2784 0.929 . S
C2792 C2793 1.377 . S
C2792 C2794 1.384 . S
C2793 C2792 1.377 . S
C2793 C2799 1.390 . S
C2794 H2785 0.930 . S
C2794 C2792 1.384 . S
C2794 C2795 1.372 . S
C2795 C2794 1.372 . S
C2795 C2796 1.400 . S
C2795 C2800 1.490 . S
C2796 H2786 0.930 . S
C2796 C2795 1.400 . S
C2796 C2799 1.386 . S
H2797 C2813 0.930 . S
H2798 C2814 0.931 . S
C2799 H2787 0.929 . S
C2799 C2793 1.390 . S
C2799 C2796 1.386 . S
C2800 C2795 1.490 . S
C2800 C2802 1.395 . S
C2800 C2803 1.403 . S
H2801 C2807 0.930 . S
C2802 H2788 0.930 . S
C2802 C2800 1.395 . S
C2802 C2805 1.403 . S
C2803 C2800 1.403 . S
C2803 C2804 1.524 . S
C2803 C2807 1.400 . S
C2804 H2789 0.960 . S
C2804 H2790 0.960 . S
C2804 H2791 0.960 . S
C2804 C2803 1.524 . S
C2805 C2802 1.403 . S
C2805 C2806 1.392 . S
C2805 C2809 1.495 . S
C2806 C2805 1.392 . S
C2806 C2807 1.385 . S
C2806 C2808 1.478 . S
C2807 H2801 0.930 . S
C2807 C2803 1.400 . S
C2807 C2806 1.385 . S
C2808 C2806 1.478 . S
C2808 C2810 1.381 . S
C2808 C2814 1.383 . S
C2809 C2805 1.495 . S
C2809 H2815 0.959 . S
C2809 H2816 0.961 . S
C2809 H2817 0.960 . S
C2810 C2808 1.381 . S
C2810 C2811 1.394 . S
C2810 H2818 0.930 . S
C2811 C2810 1.394 . S
C2811 C2812 1.383 . S
C2811 H2819 0.929 . S
C2812 C2811 1.383 . S
C2812 C2813 1.377 . S
C2813 H2797 0.930 . S
C2813 C2812 1.377 . S
C2813 C2814 1.379 . S
C2814 H2798 0.931 . S
C2814 C2808 1.383 . S
C2814 C2813 1.379 . S
H2815 C2809 0.959 . S
H2816 C2809 0.961 . S
H2817 C2809 0.960 . S
H2818 C2810 0.930 . S
H2819 C2811 0.929 . S
H2820 C2828 0.929 . S
H2821 C2830 0.930 . S
H2822 C2832 0.930 . S
H2823 C2835 0.929 . S
H2824 C2838 0.930 . S
H2825 C2840 0.960 . S
H2826 C2840 0.960 . S
H2827 C2840 0.960 . S
C2828 H2820 0.929 . S
C2828 C2829 1.377 . S
C2828 C2830 1.384 . S
C2829 C2828 1.377 . S
C2829 C2835 1.390 . S
C2830 H2821 0.930 . S
C2830 C2828 1.384 . S
C2830 C2831 1.372 . S
C2831 C2830 1.372 . S
C2831 C2832 1.400 . S
C2831 C2836 1.490 . S
C2832 H2822 0.930 . S
C2832 C2831 1.400 . S
C2832 C2835 1.386 . S
H2833 C2849 0.930 . S
H2834 C2850 0.931 . S
C2835 H2823 0.929 . S
C2835 C2829 1.390 . S
C2835 C2832 1.386 . S
C2836 C2831 1.490 . S
C2836 C2838 1.395 . S
C2836 C2839 1.403 . S
H2837 C2843 0.930 . S
C2838 H2824 0.930 . S
C2838 C2836 1.395 . S
C2838 C2841 1.403 . S
C2839 C2836 1.403 . S
C2839 C2840 1.524 . S
C2839 C2843 1.400 . S
C2840 H2825 0.960 . S
C2840 H2826 0.960 . S
C2840 H2827 0.960 . S
C2840 C2839 1.524 . S
C2841 C2838 1.403 . S
C2841 C2842 1.392 . S
C2841 C2845 1.495 . S
C2842 C2841 1.392 . S
C2842 C2843 1.385 . S
C2842 C2844 1.478 . S
C2843 H2837 0.930 . S
C2843 C2839 1.400 . S
C2843 C2842 1.385 . S
C2844 C2842 1.478 . S
C2844 C2846 1.381 . S
C2844 C2850 1.383 . S
C2845 C2841 1.495 . S
C2845 H2851 0.959 . S
C2845 H2852 0.961 . S
C2845 H2853 0.960 . S
C2846 C2844 1.381 . S
C2846 C2847 1.394 . S
C2846 H2854 0.930 . S
C2847 C2846 1.394 . S
C2847 C2848 1.383 . S
C2847 H2855 0.929 . S
C2848 C2847 1.383 . S
C2848 C2849 1.377 . S
C2849 H2833 0.930 . S
C2849 C2848 1.377 . S
C2849 C2850 1.379 . S
C2850 H2834 0.931 . S
C2850 C2844 1.383 . S
C2850 C2849 1.379 . S
H2851 C2845 0.959 . S
H2852 C2845 0.961 . S
H2853 C2845 0.960 . S
H2854 C2846 0.930 . S
H2855 C2847 0.929 . S
H2856 C2864 0.929 . S
H2857 C2866 0.930 . S
H2858 C2868 0.930 . S
H2859 C2871 0.929 . S
H2860 C2874 0.930 . S
H2861 C2876 0.960 . S
H2862 C2876 0.960 . S
H2863 C2876 0.960 . S
C2864 H2856 0.929 . S
C2864 C2865 1.377 . S
C2864 C2866 1.384 . S
C2865 C2864 1.377 . S
C2865 C2871 1.390 . S
C2866 H2857 0.930 . S
C2866 C2864 1.384 . S
C2866 C2867 1.372 . S
C2867 C2866 1.372 . S
C2867 C2868 1.400 . S
C2867 C2872 1.490 . S
C2868 H2858 0.930 . S
C2868 C2867 1.400 . S
C2868 C2871 1.386 . S
H2869 C2885 0.930 . S
H2870 C2886 0.931 . S
C2871 H2859 0.929 . S
C2871 C2865 1.390 . S
C2871 C2868 1.386 . S
C2872 C2867 1.490 . S
C2872 C2874 1.395 . S
C2872 C2875 1.403 . S
H2873 C2879 0.930 . S
C2874 H2860 0.930 . S
C2874 C2872 1.395 . S
C2874 C2877 1.403 . S
C2875 C2872 1.403 . S
C2875 C2876 1.524 . S
C2875 C2879 1.400 . S
C2876 H2861 0.960 . S
C2876 H2862 0.960 . S
C2876 H2863 0.960 . S
C2876 C2875 1.524 . S
C2877 C2874 1.403 . S
C2877 C2878 1.392 . S
C2877 C2881 1.495 . S
C2878 C2877 1.392 . S
C2878 C2879 1.385 . S
C2878 C2880 1.478 . S
C2879 H2873 0.930 . S
C2879 C2875 1.400 . S
C2879 C2878 1.385 . S
C2880 C2878 1.478 . S
C2880 C2882 1.381 . S
C2880 C2886 1.383 . S
C2881 C2877 1.495 . S
C2881 H2887 0.959 . S
C2881 H2888 0.961 . S
C2881 H2889 0.960 . S
C2882 C2880 1.381 . S
C2882 C2883 1.394 . S
C2882 H2890 0.930 . S
C2883 C2882 1.394 . S
C2883 C2884 1.383 . S
C2883 H2891 0.929 . S
C2884 C2883 1.383 . S
C2884 C2885 1.377 . S
C2885 H2869 0.930 . S
C2885 C2884 1.377 . S
C2885 C2886 1.379 . S
C2886 H2870 0.931 . S
C2886 C2880 1.383 . S
C2886 C2885 1.379 . S
H2887 C2881 0.959 . S
H2888 C2881 0.961 . S
H2889 C2881 0.960 . S
H2890 C2882 0.930 . S
H2891 C2883 0.929 . S
H2892 C2900 0.929 . S
H2893 C2902 0.930 . S
H2894 C2904 0.930 . S
H2895 C2907 0.929 . S
H2896 C2910 0.930 . S
H2897 C2912 0.960 . S
H2898 C2912 0.960 . S
H2899 C2912 0.960 . S
C2900 H2892 0.929 . S
C2900 C2901 1.377 . S
C2900 C2902 1.384 . S
C2901 C2900 1.377 . S
C2901 C2907 1.390 . S
C2902 H2893 0.930 . S
C2902 C2900 1.384 . S
C2902 C2903 1.372 . S
C2903 C2902 1.372 . S
C2903 C2904 1.400 . S
C2903 C2908 1.490 . S
C2904 H2894 0.930 . S
C2904 C2903 1.400 . S
C2904 C2907 1.386 . S
H2905 C2921 0.930 . S
H2906 C2922 0.931 . S
C2907 H2895 0.929 . S
C2907 C2901 1.390 . S
C2907 C2904 1.386 . S
C2908 C2903 1.490 . S
C2908 C2910 1.395 . S
C2908 C2911 1.403 . S
H2909 C2915 0.930 . S
C2910 H2896 0.930 . S
C2910 C2908 1.395 . S
C2910 C2913 1.403 . S
C2911 C2908 1.403 . S
C2911 C2912 1.524 . S
C2911 C2915 1.400 . S
C2912 H2897 0.960 . S
C2912 H2898 0.960 . S
C2912 H2899 0.960 . S
C2912 C2911 1.524 . S
C2913 C2910 1.403 . S
C2913 C2914 1.392 . S
C2913 C2917 1.495 . S
C2914 C2913 1.392 . S
C2914 C2915 1.385 . S
C2914 C2916 1.478 . S
C2915 H2909 0.930 . S
C2915 C2911 1.400 . S
C2915 C2914 1.385 . S
C2916 C2914 1.478 . S
C2916 C2918 1.381 . S
C2916 C2922 1.383 . S
C2917 C2913 1.495 . S
C2917 H2923 0.959 . S
C2917 H2924 0.961 . S
C2917 H2925 0.960 . S
C2918 C2916 1.381 . S
C2918 C2919 1.394 . S
C2918 H2926 0.930 . S
C2919 C2918 1.394 . S
C2919 C2920 1.383 . S
C2919 H2927 0.929 . S
C2920 C2919 1.383 . S
C2920 C2921 1.377 . S
C2921 H2905 0.930 . S
C2921 C2920 1.377 . S
C2921 C2922 1.379 . S
C2922 H2906 0.931 . S
C2922 C2916 1.383 . S
C2922 C2921 1.379 . S
H2923 C2917 0.959 . S
H2924 C2917 0.961 . S
H2925 C2917 0.960 . S
H2926 C2918 0.930 . S
H2927 C2919 0.929 . S
H2928 C2936 0.929 . S
H2929 C2938 0.930 . S
H2930 C2940 0.930 . S
H2931 C2943 0.929 . S
H2932 C2946 0.930 . S
H2933 C2948 0.960 . S
H2934 C2948 0.960 . S
H2935 C2948 0.960 . S
C2936 H2928 0.929 . S
C2936 C2937 1.377 . S
C2936 C2938 1.384 . S
C2937 C2936 1.377 . S
C2937 C2943 1.390 . S
C2938 H2929 0.930 . S
C2938 C2936 1.384 . S
C2938 C2939 1.372 . S
C2939 C2938 1.372 . S
C2939 C2940 1.400 . S
C2939 C2944 1.490 . S
C2940 H2930 0.930 . S
C2940 C2939 1.400 . S
C2940 C2943 1.386 . S
H2941 C2957 0.930 . S
H2942 C2958 0.931 . S
C2943 H2931 0.929 . S
C2943 C2937 1.390 . S
C2943 C2940 1.386 . S
C2944 C2939 1.490 . S
C2944 C2946 1.395 . S
C2944 C2947 1.403 . S
H2945 C2951 0.930 . S
C2946 H2932 0.930 . S
C2946 C2944 1.395 . S
C2946 C2949 1.403 . S
C2947 C2944 1.403 . S
C2947 C2948 1.524 . S
C2947 C2951 1.400 . S
C2948 H2933 0.960 . S
C2948 H2934 0.960 . S
C2948 H2935 0.960 . S
C2948 C2947 1.524 . S
C2949 C2946 1.403 . S
C2949 C2950 1.392 . S
C2949 C2953 1.495 . S
C2950 C2949 1.392 . S
C2950 C2951 1.385 . S
C2950 C2952 1.478 . S
C2951 H2945 0.930 . S
C2951 C2947 1.400 . S
C2951 C2950 1.385 . S
C2952 C2950 1.478 . S
C2952 C2954 1.381 . S
C2952 C2958 1.383 . S
C2953 C2949 1.495 . S
C2953 H2959 0.959 . S
C2953 H2960 0.961 . S
C2953 H2961 0.960 . S
C2954 C2952 1.381 . S
C2954 C2955 1.394 . S
C2954 H2962 0.930 . S
C2955 C2954 1.394 . S
C2955 C2956 1.383 . S
C2955 H2963 0.929 . S
C2956 C2955 1.383 . S
C2956 C2957 1.377 . S
C2957 H2941 0.930 . S
C2957 C2956 1.377 . S
C2957 C2958 1.379 . S
C2958 H2942 0.931 . S
C2958 C2952 1.383 . S
C2958 C2957 1.379 . S
H2959 C2953 0.959 . S
H2960 C2953 0.961 . S
H2961 C2953 0.960 . S
H2962 C2954 0.930 . S
H2963 C2955 0.929 . S
H2964 C2972 0.929 . S
H2965 C2974 0.930 . S
H2966 C2976 0.930 . S
H2967 C2979 0.929 . S
H2968 C2982 0.930 . S
H2969 C2984 0.960 . S
H2970 C2984 0.960 . S
H2971 C2984 0.960 . S
C2972 H2964 0.929 . S
C2972 C2973 1.377 . S
C2972 C2974 1.384 . S
C2973 C2972 1.377 . S
C2973 C2979 1.390 . S
C2974 H2965 0.930 . S
C2974 C2972 1.384 . S
C2974 C2975 1.372 . S
C2975 C2974 1.372 . S
C2975 C2976 1.400 . S
C2975 C2980 1.490 . S
C2976 H2966 0.930 . S
C2976 C2975 1.400 . S
C2976 C2979 1.386 . S
H2977 C2993 0.930 . S
H2978 C2994 0.931 . S
C2979 H2967 0.929 . S
C2979 C2973 1.390 . S
C2979 C2976 1.386 . S
C2980 C2975 1.490 . S
C2980 C2982 1.395 . S
C2980 C2983 1.403 . S
H2981 C2987 0.930 . S
C2982 H2968 0.930 . S
C2982 C2980 1.395 . S
C2982 C2985 1.403 . S
C2983 C2980 1.403 . S
C2983 C2984 1.524 . S
C2983 C2987 1.400 . S
C2984 H2969 0.960 . S
C2984 H2970 0.960 . S
C2984 H2971 0.960 . S
C2984 C2983 1.524 . S
C2985 C2982 1.403 . S
C2985 C2986 1.392 . S
C2985 C2989 1.495 . S
C2986 C2985 1.392 . S
C2986 C2987 1.385 . S
C2986 C2988 1.478 . S
C2987 H2981 0.930 . S
C2987 C2983 1.400 . S
C2987 C2986 1.385 . S
C2988 C2986 1.478 . S
C2988 C2990 1.381 . S
C2988 C2994 1.383 . S
C2989 C2985 1.495 . S
C2989 H2995 0.959 . S
C2989 H2996 0.961 . S
C2989 H2997 0.960 . S
C2990 C2988 1.381 . S
C2990 C2991 1.394 . S
C2990 H2998 0.930 . S
C2991 C2990 1.394 . S
C2991 C2992 1.383 . S
C2991 H2999 0.929 . S
C2992 C2991 1.383 . S
C2992 C2993 1.377 . S
C2993 H2977 0.930 . S
C2993 C2992 1.377 . S
C2993 C2994 1.379 . S
C2994 H2978 0.931 . S
C2994 C2988 1.383 . S
C2994 C2993 1.379 . S
H2995 C2989 0.959 . S
H2996 C2989 0.961 . S
H2997 C2989 0.960 . S
H2998 C2990 0.930 . S
H2999 C2991 0.929 . S
C1281 C834 2.082 . S
C1300 C39 2.096 . S
C1317 C675 2.139 . S
C1336 C75 2.121 . S
C1353 C728 1.720 . S
C1372 C145 1.702 . S
C1389 C764 1.946 . S
C1408 C181 1.961 . S
C1425 C781 2.073 . S
C1444 C92 2.068 . S
C1461 C128 1.904 . S
C1480 C817 1.905 . S
C1497 C658 1.866 . S
C1516 C198 1.887 . S
C1533 C711 1.855 . S
C1552 C22 1.846 . S
C1569 C976 1.728 . S
C1588 C234 1.719 . S
C1605 C304 2.029 . S
C1624 C1046 2.014 . S
C1641 C357 1.892 . S
C1660 C870 1.847 . S
C1677 C940 2.204 . S
C1696 C410 2.202 . S
C1713 C1188 2.153 . S
C1732 C463 2.179 . S
C1749 C516 1.946 . S
C1768 C1258 1.950 . S
C1785 C569 2.230 . S
C1804 C1099 2.228 . S
C1821 C622 1.656 . S
C1840 C1135 1.621 . S
C1857 C923 1.764 . S
C1876 C605 1.770 . S
C1893 C1241 2.074 . S
C1912 C287 2.072 . S
C1929 C340 1.867 . S
C1948 C1082 1.838 . S
C1965 C1152 2.087 . S
C1984 C393 2.071 . S
C2001 C1205 2.165 . S
C2020 C251 2.186 . S
C2037 C499 1.927 . S
C2056 C1029 1.931 . S
C2073 C887 2.037 . S
C2092 C552 2.018 . S
C2109 C993 1.920 . S
C2128 C446 1.911 . S
C2145 C38 1.967 . S
C2164 C250 1.978 . S
C2181 C294 1.730 . S
C2200 C82 1.727 . S
C2217 C144 1.741 . S
C2236 C347 1.723 . S
C2253 C188 1.671 . S
C2272 C400 1.657 . S
C2289 C453 1.895 . S
C2308 C91 1.872 . S
C2325 C506 1.637 . S
C2344 C135 1.620 . S
C2361 C559 1.904 . S
C2380 C197 1.886 . S
C2397 C29 1.568 . S
C2416 C612 1.585 . S
C2433 C621 1.825 . S
C2452 C241 1.830 . S
C2469 C303 2.105 . S
C2488 C462 2.097 . S
C2505 C356 1.953 . S
C2524 C515 1.934 . S
C2541 C568 2.182 . S
C2560 C409 2.165 . S
C2577 C886 1.881 . S
C2596 C665 1.885 . S
C2613 C930 1.681 . S
C2632 C718 1.685 . S
C2649 C780 1.954 . S
C2668 C992 1.957 . S
C2685 C824 1.759 . S
C2704 C1036 1.778 . S
C2721 C727 1.847 . S
C2740 C1089 1.853 . S
C2757 C771 1.850 . S
C2776 C1151 1.842 . S
C2793 C1204 2.117 . S
C2812 C833 2.125 . S
C2829 C674 1.910 . S
C2848 C1248 1.877 . S
C2865 C877 1.778 . S
C2884 C1257 1.763 . S
C2901 C1098 2.013 . S
C2920 C939 2.015 . S
C2937 C983 1.656 . S
C2956 C1142 1.666 . S
C2973 C1195 1.893 . S
C2992 C1045 1.902 . S
