# Generated by pormake.
# Topology snk, (6)-cn, num edge types: 1
# Building blocks:
#     Node 0, Type 0, BuildingBlock: CUWYAW_clean_sbu_0, # of connection points: 6
#     Node 1, Type 0, BuildingBlock: CUWYAW_clean_sbu_0, # of connection points: 6
#     Node 2, Type 0, BuildingBlock: CUWYAW_clean_sbu_0, # of connection points: 6
#     Node 3, Type 0, BuildingBlock: CUWYAW_clean_sbu_0, # of connection points: 6
#     Node 4, Type 0, BuildingBlock: CUWYAW_clean_sbu_0, # of connection points: 6
#     Node 5, Type 0, BuildingBlock: CUWYAW_clean_sbu_0, # of connection points: 6
#     Node 6, Type 0, BuildingBlock: CUWYAW_clean_sbu_0, # of connection points: 6
#     Node 7, Type 0, BuildingBlock: CUWYAW_clean_sbu_0, # of connection points: 6
#     Edge 8, Type (0, 0), BuildingBlock: MIFKUJ_clean_linker_0, # of connection points: 2
#     Edge 9, Type (0, 0), BuildingBlock: MIFKUJ_clean_linker_0, # of connection points: 2
#     Edge 10, Type (0, 0), BuildingBlock: MIFKUJ_clean_linker_0, # of connection points: 2
#     Edge 11, Type (0, 0), BuildingBlock: MIFKUJ_clean_linker_0, # of connection points: 2
#     Edge 12, Type (0, 0), BuildingBlock: MIFKUJ_clean_linker_0, # of connection points: 2
#     Edge 13, Type (0, 0), BuildingBlock: MIFKUJ_clean_linker_0, # of connection points: 2
#     Edge 14, Type (0, 0), BuildingBlock: MIFKUJ_clean_linker_0, # of connection points: 2
#     Edge 15, Type (0, 0), BuildingBlock: MIFKUJ_clean_linker_0, # of connection points: 2
#     Edge 16, Type (0, 0), BuildingBlock: MIFKUJ_clean_linker_0, # of connection points: 2
#     Edge 17, Type (0, 0), BuildingBlock: MIFKUJ_clean_linker_0, # of connection points: 2
#     Edge 18, Type (0, 0), BuildingBlock: MIFKUJ_clean_linker_0, # of connection points: 2
#     Edge 19, Type (0, 0), BuildingBlock: MIFKUJ_clean_linker_0, # of connection points: 2
#     Edge 20, Type (0, 0), BuildingBlock: MIFKUJ_clean_linker_0, # of connection points: 2
#     Edge 21, Type (0, 0), BuildingBlock: MIFKUJ_clean_linker_0, # of connection points: 2
#     Edge 22, Type (0, 0), BuildingBlock: MIFKUJ_clean_linker_0, # of connection points: 2
#     Edge 23, Type (0, 0), BuildingBlock: MIFKUJ_clean_linker_0, # of connection points: 2
#     Edge 24, Type (0, 0), BuildingBlock: MIFKUJ_clean_linker_0, # of connection points: 2
#     Edge 25, Type (0, 0), BuildingBlock: MIFKUJ_clean_linker_0, # of connection points: 2
#     Edge 26, Type (0, 0), BuildingBlock: MIFKUJ_clean_linker_0, # of connection points: 2
#     Edge 27, Type (0, 0), BuildingBlock: MIFKUJ_clean_linker_0, # of connection points: 2
#     Edge 28, Type (0, 0), BuildingBlock: MIFKUJ_clean_linker_0, # of connection points: 2
#     Edge 29, Type (0, 0), BuildingBlock: MIFKUJ_clean_linker_0, # of connection points: 2
#     Edge 30, Type (0, 0), BuildingBlock: MIFKUJ_clean_linker_0, # of connection points: 2
#     Edge 31, Type (0, 0), BuildingBlock: MIFKUJ_clean_linker_0, # of connection points: 2
# Relax obj value: 0.069
# Max RMSD: 0.133
# Mean RMSD: 0.114
data_MOF--net-snk--node1-CUWYAW_clean_sbu_0--edge1-MIFKUJ_clean_linker_0
_symmetry_space_group_name_H-M    P1
_symmetry_Int_Tables_number       1
_symmetry_cell_setting            triclinic
loop_
_symmetry_equiv_pos_as_xyz
'x, y, z'
_cell_length_a     50.175293
_cell_length_b     50.086987
_cell_length_c     30.144093
_cell_angle_alpha  95.782295
_cell_angle_beta   96.090862
_cell_angle_gamma 90.724114
loop_
_atom_site_label
_atom_site_type_symbol
_atom_site_fract_x
_atom_site_fract_y
_atom_site_fract_z
_atom_type_partial_charge
C0 C 0.03814 0.02039 0.64737 0.0
Eu1 Eu 0.01603 0.01576 0.56445 0.0
C2 C 0.03196 0.01804 0.69366 0.0
C3 C 0.0452 0.03542 0.72866 0.0
C4 C 0.04075 0.03319 0.77315 0.0
C5 C 0.02295 0.01344 0.78373 0.0
C6 C 0.0095 0.9961 0.74846 0.0
C7 C 0.01387 0.99845 0.70378 0.0
C8 C 0.97748 0.04635 0.52691 0.0
C9 C 0.96473 0.97297 0.55038 0.0
C10 C 0.97086 0.98851 0.38557 0.0
Eu11 Eu 0.99196 0.99441 0.46919 0.0
C12 C 0.97754 0.99114 0.33966 0.0
C13 C 0.96346 0.97505 0.30387 0.0
C14 C 0.96913 0.97684 0.25986 0.0
C15 C 0.98903 0.99487 0.25058 0.0
C16 C 1.00314 0.01113 0.28659 0.0
C17 C 0.9975 0.00921 0.33083 0.0
C18 C 0.03025 0.96382 0.50763 0.0
C19 C 0.04226 0.03817 0.48351 0.0
O20 O 0.03802 0.99823 0.62026 0.0
O21 O 0.02777 0.04052 0.62758 0.0
O22 O 0.99787 0.05611 0.55407 0.0
O23 O 0.97725 0.02106 0.52356 0.0
O24 O 0.98505 0.98461 0.57741 0.0
O25 O 0.96097 0.97646 0.50724 0.0
O26 O 0.96946 0.0106 0.41231 0.0
O27 O 0.98229 0.96915 0.406 0.0
O28 O 0.00971 0.95405 0.48098 0.0
O29 O 0.03068 0.98908 0.51007 0.0
O30 O 0.02116 0.02751 0.45727 0.0
O31 O 0.04712 0.03299 0.52573 0.0
H32 H 0.05933 0.05056 0.72161 0.0
H33 H 0.05174 0.04661 0.79938 0.0
H34 H 0.99545 0.98085 0.75536 0.0
H35 H 1.00335 0.98482 0.6773 0.0
H36 H 0.94793 0.96105 0.30996 0.0
H37 H 0.95762 0.96433 0.23295 0.0
H38 H 0.01869 0.02511 0.28061 0.0
H39 H 0.00867 0.0218 0.35801 0.0
C40 C 0.23904 0.78517 0.90264 0.0
Eu41 Eu 0.24424 0.76761 0.81956 0.0
C42 C 0.24937 0.78365 0.94991 0.0
C43 C 0.24127 0.80286 0.98253 0.0
C44 C 0.24691 0.79978 0.02813 0.0
C45 C 0.26086 0.77736 0.04216 0.0
C46 C 0.26999 0.7587 1.00923 0.0
C47 C 0.26424 0.76179 0.9635 0.0
C48 C 0.20793 0.73456 0.76818 0.0
C49 C 0.28601 0.71828 0.81205 0.0
C50 C 0.26457 0.7193 0.64775 0.0
Eu51 Eu 0.25944 0.74575 0.72518 0.0
C52 C 0.26468 0.72477 0.60065 0.0
C53 C 0.2763 0.70638 0.57071 0.0
C54 C 0.27635 0.71094 0.52571 0.0
C55 C 0.26467 0.734 0.5096 0.0
C56 C 0.25312 0.75251 0.53996 0.0
C57 C 0.25315 0.74794 0.58508 0.0
C58 C 0.28559 0.79159 0.76147 0.0
C59 C 0.21983 0.79573 0.73404 0.0
O60 O 0.25352 0.79785 0.87728 0.0
O61 O 0.22707 0.76346 0.88157 0.0
O62 O 0.20142 0.75541 0.79339 0.0
O63 O 0.23287 0.73182 0.77195 0.0
O64 O 0.27377 0.73574 0.83848 0.0
O65 O 0.28296 0.71775 0.76783 0.0
O66 O 0.24161 0.72205 0.66465 0.0
O67 O 0.28503 0.72894 0.6757 0.0
O68 O 0.27997 0.78531 0.71867 0.0
O69 O 0.27957 0.77232 0.78266 0.0
O70 O 0.22596 0.77405 0.7086 0.0
O71 O 0.22825 0.79992 0.77739 0.0
H72 H 0.22951 0.81972 0.9727 0.0
H73 H 0.23921 0.81438 0.05224 0.0
H74 H 0.28116 0.74143 0.01874 0.0
H75 H 0.27059 0.74668 0.93878 0.0
H76 H 0.28536 0.68843 0.58217 0.0
H77 H 0.28584 0.69647 0.50365 0.0
H78 H 0.24359 0.77028 0.52874 0.0
H79 H 0.24399 0.76237 0.60771 0.0
C80 C 0.46774 0.00851 0.88674 0.0
Eu81 Eu 0.49082 0.01181 0.96899 0.0
C82 C 0.47494 0.00685 0.84012 0.0
C83 C 0.49206 0.02611 0.82628 0.0
C84 C 0.49701 0.02528 0.78131 0.0
C85 C 0.4851 1.00511 0.74918 0.0
C86 C 0.46852 0.98548 0.76335 0.0
C87 C 0.46343 0.98642 0.80828 0.0
C88 C 0.52935 0.04821 1.00521 0.0
C89 C 0.5439 0.97411 0.97568 0.0
C90 C 0.5415 1.00335 0.14335 0.0
Eu91 Eu 0.51891 1.00108 0.06087 0.0
C92 C 0.53398 1.00493 0.18981 0.0
C93 C 0.51674 0.98561 0.20321 0.0
C94 C 0.51156 0.98626 0.24804 0.0
C95 C 0.52336 0.0063 0.28051 0.0
C96 C 0.54007 0.02599 0.2668 0.0
C97 C 0.54538 0.02523 0.22199 0.0
C98 C 0.48039 0.96488 0.02378 0.0
C99 C 0.46566 0.03867 0.05415 0.0
O100 O 0.47239 0.98752 0.9088 0.0
O101 O 0.47312 0.03119 0.91188 0.0
O102 O 0.5078 0.05447 0.98125 0.0
O103 O 0.53044 0.02329 1.00624 0.0
O104 O 0.52094 0.9794 0.95252 0.0
O105 O 0.55015 0.98487 0.01746 0.0
O106 O 0.53767 0.0246 0.12165 0.0
O107 O 0.53564 0.98094 0.11772 0.0
O108 O 0.50239 0.95822 0.04601 0.0
O109 O 0.47937 0.98983 0.02389 0.0
O110 O 0.48858 0.03341 0.0775 0.0
O111 O 0.4596 0.02799 1.0123 0.0
H112 H 0.50138 0.04205 0.85003 0.0
H113 H 0.51018 0.04048 0.77168 0.0
H114 H 0.45884 0.96981 0.73946 0.0
H115 H 0.45007 0.97141 0.81804 0.0
H116 H 0.5075 0.96974 0.17922 0.0
H117 H 0.4983 0.97102 0.25732 0.0
H118 H 0.54968 0.04157 0.29096 0.0
H119 H 0.55885 0.04027 0.21261 0.0
C120 C 0.22575 0.23107 0.13194 0.0
Eu121 Eu 0.23754 0.24756 0.21677 0.0
C122 C 0.23205 0.23657 0.08678 0.0
C123 C 0.21255 0.24804 0.05807 0.0
C124 C 0.21697 0.2512 0.01391 0.0
C125 C 0.24092 0.2427 0.99715 0.0
C126 C 0.26077 0.23187 0.02626 0.0
C127 C 0.25637 0.22878 0.07059 0.0
C128 C 0.2097 0.28334 0.26587 0.0
C129 C 0.28313 0.29603 0.23015 0.0
C130 C 0.27569 0.28191 0.39443 0.0
Eu131 Eu 0.2646 0.26542 0.30948 0.0
C132 C 0.27183 0.27388 0.43934 0.0
C133 C 0.29394 0.26569 0.46682 0.0
C134 C 0.29134 0.26027 0.51076 0.0
C135 C 0.26663 0.26331 0.52867 0.0
C136 C 0.24427 0.27065 0.50051 0.0
C137 C 0.24685 0.27591 0.45641 0.0
C138 C 0.29251 0.22951 0.26075 0.0
C139 C 0.21912 0.21648 0.29577 0.0
O140 O 0.24433 0.22045 0.15805 0.0
O141 O 0.21208 0.24907 0.15383 0.0
O142 O 0.19872 0.26341 0.23906 0.0
O143 O 0.23475 0.28432 0.26417 0.0
O144 O 0.26972 0.27704 0.20265 0.0
O145 O 0.28191 0.29793 0.27391 0.0
O146 O 0.25465 0.28942 0.36962 0.0
O147 O 0.29193 0.26757 0.37108 0.0
O148 O 0.30349 0.24925 0.288 0.0
O149 O 0.26744 0.22865 0.26222 0.0
O150 O 0.23366 0.23451 0.32364 0.0
O151 O 0.21913 0.21559 0.25186 0.0
H152 H 0.19358 0.25411 0.06952 0.0
H153 H 0.20145 0.26011 0.99276 0.0
H154 H 0.27936 0.22491 0.01442 0.0
H155 H 0.27178 0.2197 0.09174 0.0
H156 H 0.31345 0.26392 0.4546 0.0
H157 H 0.30887 0.25392 0.53076 0.0
H158 H 0.2249 0.27325 0.51287 0.0
H159 H 0.22939 0.28217 0.4361 0.0
C160 C 0.75795 0.29516 0.38237 0.0
Eu161 Eu 0.75551 0.2707 0.30109 0.0
C162 C 0.75914 0.28928 0.42973 0.0
C163 C 0.74644 0.30652 0.46005 0.0
C164 C 0.74703 0.3017 0.50508 0.0
C165 C 0.76043 0.27947 0.5211 0.0
C166 C 0.77308 0.26207 0.49044 0.0
C167 C 0.77243 0.26692 0.44521 0.0
C168 C 0.71948 0.23168 0.26576 0.0
C169 C 0.79353 0.21793 0.29721 0.0
C170 C 0.7647 0.21751 0.12809 0.0
Eu171 Eu 0.76666 0.24143 0.2097 0.0
C172 C 0.76342 0.22371 0.08089 0.0
C173 C 0.77636 0.20686 0.05036 0.0
C174 C 0.77557 0.21189 1.00541 0.0
C175 C 0.76174 0.23396 0.98969 0.0
C176 C 0.7489 0.25102 0.02056 0.0
C177 C 0.74972 0.24594 0.06571 0.0
C178 C 0.80225 0.28096 0.24541 0.0
C179 C 0.72805 0.29369 0.21357 0.0
O180 O 0.77908 0.29 0.36115 0.0
O181 O 0.73548 0.28887 0.35716 0.0
O182 O 0.7132 0.25324 0.28946 0.0
O183 O 0.74439 0.23067 0.26479 0.0
O184 O 0.78811 0.24113 0.31923 0.0
O185 O 0.78302 0.21104 0.25538 0.0
O186 O 0.74347 0.22212 0.14928 0.0
O187 O 0.78706 0.22399 0.1535 0.0
O188 O 0.80902 0.25928 0.22259 0.0
O189 O 0.77732 0.28147 0.24567 0.0
O190 O 0.7336 0.27051 0.19163 0.0
O191 O 0.73879 0.30081 0.25518 0.0
H192 H 0.73592 0.3238 0.44882 0.0
H193 H 0.73663 0.31528 0.52723 0.0
H194 H 0.7838 0.2449 0.50146 0.0
H195 H 0.78235 0.25324 0.42245 0.0
H196 H 0.78718 0.18969 0.06135 0.0
H197 H 0.78614 0.1986 0.98308 0.0
H198 H 0.73786 0.26807 1.00973 0.0
H199 H 0.73962 0.25932 0.08865 0.0
C200 C 0.74138 0.72466 0.64123 0.0
Eu201 Eu 0.74529 0.74518 0.72473 0.0
C202 C 0.7467 0.73207 0.59673 0.0
C203 C 0.73597 0.75519 0.57953 0.0
C204 C 0.73966 0.76056 0.53587 0.0
C205 C 0.75416 0.74294 0.50857 0.0
C206 C 0.7657 0.72039 0.52663 0.0
C207 C 0.76195 0.71501 0.57016 0.0
C208 C 0.71575 0.78518 0.76038 0.0
C209 C 0.79091 0.79367 0.74163 0.0
C210 C 0.77003 0.78971 0.90341 0.0
Eu211 Eu 0.7656 0.76793 0.82054 0.0
C212 C 0.76665 0.7838 0.94952 0.0
C213 C 0.77863 0.76167 0.96809 0.0
C214 C 0.77671 0.75786 1.01304 0.0
C215 C 0.76274 0.77607 0.04026 0.0
C216 C 0.75017 0.79776 0.02106 0.0
C217 C 0.75217 0.80159 0.97624 0.0
C218 C 0.79503 0.72797 0.78442 0.0
C219 C 0.72066 0.71835 0.80345 0.0
O220 O 0.76231 0.72174 0.66996 0.0
O221 O 0.72164 0.73643 0.65992 0.0
O222 O 0.7056 0.76512 0.73298 0.0
O223 O 0.74098 0.78428 0.76511 0.0
O224 O 0.77998 0.77295 0.71485 0.0
O225 O 0.78496 0.7986 0.78333 0.0
O226 O 0.7482 0.79057 0.87572 0.0
O227 O 0.78992 0.77855 0.88422 0.0
O228 O 0.80536 0.74803 0.81169 0.0
O229 O 0.76985 0.729 0.78023 0.0
O230 O 0.73209 0.73858 0.83104 0.0
O231 O 0.72561 0.71444 0.76107 0.0
H232 H 0.72426 0.76883 0.5994 0.0
H233 H 0.73039 0.77804 0.52304 0.0
H234 H 0.77747 0.70671 0.50694 0.0
H235 H 0.77061 0.69719 0.58285 0.0
H236 H 0.7899 0.7476 0.94819 0.0
H237 H 0.78682 0.74106 0.02677 0.0
H238 H 0.73882 0.81188 0.04072 0.0
H239 H 0.7427 0.81876 0.96258 0.0
C240 C 0.53429 0.51938 0.13871 0.0
Eu241 Eu 0.51513 0.51179 0.05429 0.0
C242 C 0.52699 0.51502 0.18375 0.0
C243 C 0.52974 0.53652 0.21764 0.0
C244 C 0.52422 0.53293 0.26117 0.0
C245 C 0.51603 0.50764 0.2719 0.0
C246 C 0.5129 0.48613 0.23779 0.0
C247 C 0.51821 0.4898 0.19402 0.0
C248 C 0.4776 0.542 1.01331 0.0
C249 C 0.46509 0.46801 0.04015 0.0
C250 C 0.47204 0.48242 0.87639 0.0
Eu251 Eu 0.49281 0.48941 0.96007 0.0
C252 C 0.4785 0.48403 0.83003 0.0
C253 C 0.46753 0.46451 0.79621 0.0
C254 C 0.47191 0.4661 0.75152 0.0
C255 C 0.48735 0.48735 0.73951 0.0
C256 C 0.49881 0.50666 0.77369 0.0
C257 C 0.49441 0.50504 0.81854 0.0
C258 C 0.53131 0.45959 1.00015 0.0
C259 C 0.54325 0.53327 0.97456 0.0
O260 O 0.53935 0.49828 0.11186 0.0
O261 O 0.5208 0.53738 0.11777 0.0
O262 O 0.49854 0.55194 0.03875 0.0
O263 O 0.47663 0.51677 1.01216 0.0
O264 O 0.48613 0.47858 0.06657 0.0
O265 O 0.46085 0.47288 0.99774 0.0
O266 O 0.47094 0.50496 0.90215 0.0
O267 O 0.48302 0.46321 0.89782 0.0
O268 O 0.51091 0.44936 0.97357 0.0
O269 O 0.53138 0.48481 1.00197 0.0
O270 O 0.52301 0.52158 0.94731 0.0
O271 O 0.54677 0.52946 0.01755 0.0
H272 H 0.53654 0.55612 0.21057 0.0
H273 H 0.52706 0.54982 0.28676 0.0
H274 H 0.50644 0.46645 0.24499 0.0
H275 H 0.51577 0.47288 0.16847 0.0
H276 H 0.45525 0.4481 0.80434 0.0
H277 H 0.46319 0.4506 0.72633 0.0
H278 H 0.51066 0.5234 0.76567 0.0
H279 H 0.50309 0.52037 0.84406 0.0
C280 C 0.96205 0.50691 0.38614 0.0
Eu281 Eu 0.98622 0.51272 0.46782 0.0
C282 C 0.9686 0.50593 0.3392 0.0
C283 C 0.95296 0.52043 0.30902 0.0
C284 C 0.95847 0.52012 0.26444 0.0
C285 C 0.97975 0.50516 0.24867 0.0
C286 C 0.99554 0.4907 0.27914 0.0
C287 C 0.99005 0.4911 0.32395 0.0
C288 C 0.02541 0.54967 0.49836 0.0
C289 C 0.03923 0.47549 0.47689 0.0
C290 C 0.04023 0.51066 0.64335 0.0
Eu291 Eu 0.01574 0.5056 0.56172 0.0
C292 C 0.0348 0.51099 0.69082 0.0
C293 C 0.05153 0.49665 0.71975 0.0
C294 C 0.04727 0.49655 0.76489 0.0
C295 C 0.02618 0.51096 0.78251 0.0
C296 C 0.00935 0.52533 0.75329 0.0
C297 C 0.01355 0.52528 0.70792 0.0
C298 C 0.97669 0.46857 0.53002 0.0
C299 C 0.96305 0.54345 0.55236 0.0
O300 O 0.96908 0.4867 0.40891 0.0
O301 O 0.96579 0.5301 0.41031 0.0
O302 O 1.00428 0.55483 0.47242 0.0
O303 O 0.02605 0.52514 0.5034 0.0
O304 O 0.01576 0.47944 0.4542 0.0
O305 O 0.04617 0.48814 0.51731 0.0
O306 O 0.03252 0.53108 0.6216 0.0
O307 O 0.03645 0.4877 0.6185 0.0
O308 O 0.99817 0.46315 0.55492 0.0
O309 O 0.97593 0.49322 0.52621 0.0
O310 O 0.98633 0.53905 0.57532 0.0
O311 O 0.95605 0.531 0.51184 0.0
H312 H 0.93643 0.53215 0.32004 0.0
H313 H 0.94617 0.53195 0.24246 0.0
H314 H 0.01193 0.47876 0.26828 0.0
H315 H 1.00253 0.47978 0.34655 0.0
H316 H 0.06798 0.48539 0.70734 0.0
H317 H 0.06038 0.48483 0.78583 0.0
H318 H 0.9931 0.53694 0.76555 0.0
H319 H 1.00029 0.53651 0.68634 0.0
H320 H 0.03289 0.06307 0.40694 0.0
H321 H 0.06287 0.09327 0.37599 0.0
H322 H 0.12371 0.08452 0.48559 0.0
H323 H 0.09334 0.0549 0.51768 0.0
H324 H 0.1213 0.1355 0.46859 0.0
H325 H 0.12553 0.05048 0.3752 0.0
H326 H 0.10443 0.01167 0.32656 0.0
H327 H 0.06802 0.06462 0.23549 0.0
H328 H 0.089 0.10372 0.28347 0.0
H329 H 0.22796 0.19563 0.37624 0.0
H330 H 0.19913 0.16428 0.40754 0.0
H331 H 0.14172 0.16378 0.29009 0.0
H332 H 0.17149 0.19359 0.25748 0.0
H333 H 0.14224 0.11709 0.31141 0.0
H334 H 0.13547 0.20141 0.39883 0.0
H335 H 0.15244 0.2425 0.44589 0.0
H336 H 0.18781 0.19492 0.54645 0.0
H337 H 0.17133 0.15349 0.4997 0.0
C338 C 0.0527 0.06742 0.42442 0.0
C339 C 0.06079 0.05631 0.46462 0.0
C340 C 0.0699 0.08469 0.40655 0.0
C341 C 0.09586 0.09082 0.42785 0.0
C342 C 0.10386 0.08004 0.46835 0.0
C343 C 0.0865 0.06303 0.48662 0.0
C344 C 0.1146 0.10851 0.40801 0.0
C345 C 0.1262 0.13127 0.43443 0.0
C346 C 0.12031 0.10362 0.36289 0.0
C347 C 0.10875 0.08001 0.33302 0.0
C348 C 0.11309 0.05382 0.34473 0.0
C349 C 0.10116 0.03177 0.31725 0.0
C350 C 0.08493 0.03567 0.27791 0.0
C351 C 0.08072 0.06161 0.26582 0.0
C352 C 0.0927 0.08371 0.29305 0.0
C353 C 0.20923 0.18869 0.35706 0.0
C354 C 0.20194 0.19709 0.31446 0.0
C355 C 0.1926 0.17092 0.37514 0.0
C356 C 0.16774 0.16202 0.35186 0.0
C357 C 0.16067 0.17023 0.30896 0.0
C358 C 0.17769 0.18735 0.29031 0.0
C359 C 0.14912 0.14423 0.37199 0.0
C360 C 0.13749 0.12141 0.34564 0.0
C361 C 0.14289 0.14944 0.41688 0.0
C362 C 0.15236 0.17433 0.44556 0.0
C363 C 0.14696 0.1997 0.4309 0.0
C364 C 0.15649 0.22305 0.4575 0.0
C365 C 0.17124 0.22131 0.49907 0.0
C366 C 0.1764 0.19622 0.51421 0.0
C367 C 0.16694 0.1728 0.48769 0.0
H368 H 0.17858 0.23943 0.51958 0.0
H369 H 0.07558 0.01861 0.25682 0.0
H370 H 0.02688 0.91024 0.51394 0.0
H371 H 0.05871 0.88265 0.55492 0.0
H372 H 0.10998 0.95245 0.5969 0.0
H373 H 0.0777 0.98029 0.55674 0.0
H374 H 0.10685 0.86925 0.54614 0.0
H375 H 0.14355 0.94761 0.69745 0.0
H376 H 0.12509 0.98452 0.7447 0.0
H377 H 0.04595 0.94963 0.71197 0.0
H378 H 0.0639 0.91261 0.66463 0.0
H379 H 0.22119 0.81375 0.65225 0.0
H380 H 0.19016 0.84425 0.61612 0.0
H381 H 0.14563 0.84997 0.73165 0.0
H382 H 0.17811 0.82129 0.76915 0.0
H383 H 0.14337 0.89448 0.70444 0.0
H384 H 0.12642 0.80737 0.62634 0.0
H385 H 0.13677 0.7645 0.58467 0.0
H386 H 0.1629 0.80688 0.47951 0.0
H387 H 0.15291 0.85006 0.52078 0.0
C388 C 0.04493 0.91971 0.53197 0.0
C389 C 0.04984 0.94739 0.53224 0.0
C390 C 0.06316 0.9039 0.55532 0.0
C391 C 0.08673 0.91542 0.57933 0.0
C392 C 0.09175 0.94312 0.5793 0.0
C393 C 0.07339 0.959 0.55617 0.0
C394 C 0.10616 0.89832 0.60373 0.0
C395 C 0.11485 0.87478 0.58075 0.0
C396 C 0.11601 0.90497 0.64931 0.0
C397 C 0.10507 0.92749 0.67715 0.0
C398 C 0.12221 0.94786 0.70031 0.0
C399 C 0.11182 0.96883 0.72705 0.0
C400 C 0.08435 0.96949 0.73118 0.0
C401 C 0.06718 0.94924 0.70849 0.0
C402 C 0.07745 0.92831 0.6816 0.0
C403 C 0.20491 0.82183 0.67 0.0
C404 C 0.20193 0.81522 0.71336 0.0
C405 C 0.18699 0.83905 0.64919 0.0
C406 C 0.16492 0.84895 0.67043 0.0
C407 C 0.16236 0.8427 0.71431 0.0
C408 C 0.18088 0.82625 0.73576 0.0
C409 C 0.14434 0.86538 0.64678 0.0
C410 C 0.13546 0.88888 0.66981 0.0
C411 C 0.13319 0.85789 0.6019 0.0
C412 C 0.13914 0.83196 0.57686 0.0
C413 C 0.13451 0.80756 0.59445 0.0
C414 C 0.1403 0.7832 0.57089 0.0
C415 C 0.15056 0.78297 0.52953 0.0
C416 C 0.15498 0.8071 0.51158 0.0
C417 C 0.14922 0.83152 0.53501 0.0
H418 H 0.15502 0.7641 0.51133 0.0
H419 H 0.07641 0.98561 0.75218 0.0
H420 H 0.28474 0.82489 0.83774 0.0
H421 H 0.3203 0.85656 0.87304 0.0
H422 H 0.36712 0.83595 0.76307 0.0
H423 H 0.33119 0.80473 0.72711 0.0
H424 H 0.3882 0.83096 0.86865 0.0
H425 H 0.355 0.88853 0.75553 0.0
H426 H 0.31922 0.91167 0.71287 0.0
H427 H 0.29825 0.9537 0.83513 0.0
H428 H 0.33363 0.93046 0.87859 0.0
H429 H 0.49308 0.92116 0.97001 0.0
H430 H 0.46227 0.89304 0.91562 0.0
H431 H 0.39561 0.93888 0.95911 0.0
H432 H 0.42674 0.96824 1.01045 0.0
H433 H 0.38748 0.93033 0.8763 0.0
H434 H 0.414 0.8721 0.99106 0.0
H435 H 0.44585 0.8479 0.03975 0.0
H436 H 0.47498 0.80609 0.92371 0.0
H437 H 0.44348 0.83027 0.87435 0.0
C438 C 0.30251 0.82734 0.82111 0.0
C439 C 0.30548 0.81241 0.78018 0.0
C440 C 0.32265 0.84546 0.84099 0.0
C441 C 0.34612 0.84844 0.82042 0.0
C442 C 0.34896 0.8339 0.77908 0.0
C443 C 0.32851 0.81623 0.75867 0.0
C444 C 0.36838 0.86525 0.84422 0.0
C445 C 0.3885 0.85269 0.86981 0.0
C446 C 0.36797 0.89347 0.84642 0.0
C447 C 0.34677 0.90753 0.82033 0.0
C448 C 0.34256 0.90248 0.77336 0.0
C449 C 0.3224 0.91567 0.74902 0.0
C450 C 0.30642 0.93408 0.77129 0.0
C451 C 0.31062 0.9394 0.81793 0.0
C452 C 0.33074 0.92625 0.84242 0.0
C453 C 0.47178 0.9249 0.96801 0.0
C454 C 0.46199 0.94638 0.99455 0.0
C455 C 0.45419 0.90887 0.93708 0.0
C456 C 0.42648 0.91346 0.93376 0.0
C457 C 0.41685 0.93492 0.96084 0.0
C458 C 0.43453 0.9515 0.99046 0.0
C459 C 0.40732 0.89619 0.90212 0.0
C460 C 0.38765 0.90861 0.87496 0.0
C461 C 0.40773 0.86778 0.89942 0.0
C462 C 0.42662 0.85321 0.92906 0.0
C463 C 0.42733 0.85787 0.97596 0.0
C464 C 0.44529 0.84414 1.00366 0.0
C465 C 0.46249 0.82553 0.98484 0.0
C466 C 0.46169 0.82055 0.93825 0.0
C467 C 0.44378 0.83424 0.9104 0.0
H468 H 0.47639 0.81493 1.00634 0.0
H469 H 0.29083 0.94428 0.75239 0.0
H470 H 0.41251 0.04428 0.02613 0.0
H471 H 0.3808 0.07436 0.06044 0.0
H472 H 0.44323 0.10407 0.16391 0.0
H473 H 0.47476 0.07327 0.13067 0.0
H474 H 0.3998 0.09862 0.20045 0.0
H475 H 0.42094 0.1394 0.07107 0.0
H476 H 0.42571 0.142 0.99103 0.0
H477 H 0.34133 0.12573 0.95792 0.0
H478 H 0.33612 0.12267 0.03775 0.0
H479 H 0.34664 0.22556 0.2676 0.0
H480 H 0.37309 0.19061 0.23175 0.0
H481 H 0.30061 0.15121 0.16562 0.0
H482 H 0.2738 0.18577 0.20285 0.0
H483 H 0.34581 0.15988 0.10934 0.0
H484 H 0.32607 0.12238 0.24349 0.0
H485 H 0.32352 0.12314 0.32483 0.0
H486 H 0.40863 0.13723 0.34989 0.0
H487 H 0.41163 0.13699 0.26868 0.0
C488 C 0.41949 0.05718 0.05625 0.0
C489 C 0.44622 0.05645 0.07556 0.0
C490 C 0.40134 0.07451 0.07574 0.0
C491 C 0.40965 0.09194 0.1144 0.0
C492 C 0.43625 0.0909 0.13409 0.0
C493 C 0.45431 0.07328 0.115 0.0
C494 C 0.39073 0.11127 0.13434 0.0
C495 C 0.38823 0.11214 0.18046 0.0
C496 C 0.37513 0.12871 0.10834 0.0
C497 C 0.3782 0.13049 0.06032 0.0
C498 C 0.40344 0.13616 0.04668 0.0
C499 C 0.40622 0.13775 1.00135 0.0
C500 C 0.38385 0.13395 0.96939 0.0
C501 C 0.35865 0.12862 0.9827 0.0
C502 C 0.35577 0.12696 0.02798 0.0
C503 C 0.33627 0.20946 0.24548 0.0
C504 C 0.30813 0.20845 0.23788 0.0
C505 C 0.35143 0.18951 0.22505 0.0
C506 C 0.33879 0.16834 0.19615 0.0
C507 C 0.3107 0.16745 0.18779 0.0
C508 C 0.29544 0.1872 0.20896 0.0
C509 C 0.3552 0.14718 0.17513 0.0
C510 C 0.35725 0.14609 0.12897 0.0
C511 C 0.37075 0.12988 0.20116 0.0
C512 C 0.36902 0.12992 0.25001 0.0
C513 C 0.34421 0.1259 0.26636 0.0
C514 C 0.34269 0.12618 0.31244 0.0
C515 C 0.36589 0.1303 0.34252 0.0
C516 C 0.39067 0.13407 0.32656 0.0
C517 C 0.39229 0.13384 0.2805 0.0
H518 H 0.36468 0.1305 0.37819 0.0
H519 H 0.38604 0.1352 0.93432 0.0
H520 H 0.94821 0.97962 0.63397 0.0
H521 H 0.91791 0.95046 0.66668 0.0
H522 H 0.90967 0.8971 0.54397 0.0
H523 H 0.93832 0.92749 0.51011 0.0
H524 H 0.86485 0.89805 0.57248 0.0
H525 H 0.95278 0.88646 0.64744 0.0
H526 H 0.99576 0.90202 0.69024 0.0
H527 H 0.95405 0.93479 0.79973 0.0
H528 H 0.91075 0.91971 0.75738 0.0
H529 H 0.81405 0.78549 0.66334 0.0
H530 H 0.84408 0.8158 0.63263 0.0
H531 H 0.84036 0.87374 0.74767 0.0
H532 H 0.81071 0.84316 0.77927 0.0
H533 H 0.89094 0.8704 0.72425 0.0
H534 H 0.80271 0.88043 0.64624 0.0
H535 H 0.7608 0.86291 0.60213 0.0
H536 H 0.80544 0.82983 0.49655 0.0
H537 H 0.84768 0.84694 0.54026 0.0
C538 C 0.93974 0.96175 0.61393 0.0
C539 C 0.94565 0.95576 0.56955 0.0
C540 C 0.9226 0.94489 0.6328 0.0
C541 C 0.91196 0.92097 0.60846 0.0
C542 C 0.91757 0.91528 0.56373 0.0
C543 C 0.934 0.93264 0.54434 0.0
C544 C 0.89508 0.90189 0.6294 0.0
C545 C 0.87087 0.89178 0.60541 0.0
C546 C 0.90243 0.89386 0.67283 0.0
C547 C 0.9285 0.90213 0.69905 0.0
C548 C 0.95277 0.89703 0.68061 0.0
C549 C 0.97718 0.90577 0.70478 0.0
C550 C 0.97762 0.91941 0.74765 0.0
C551 C 0.95366 0.92421 0.76653 0.0
C552 C 0.92917 0.91554 0.74248 0.0
C553 C 0.81957 0.80468 0.68221 0.0
C554 C 0.80968 0.81199 0.72362 0.0
C555 C 0.83675 0.82205 0.6645 0.0
C556 C 0.84415 0.84733 0.68738 0.0
C557 C 0.83488 0.85441 0.72928 0.0
C558 C 0.81784 0.83693 0.74724 0.0
C559 C 0.86102 0.86658 0.66712 0.0
C560 C 0.88511 0.87671 0.69129 0.0
C561 C 0.85381 0.87431 0.6236 0.0
C562 C 0.82836 0.86482 0.59665 0.0
C563 C 0.80359 0.86937 0.61366 0.0
C564 C 0.77978 0.85951 0.58874 0.0
C565 C 0.78046 0.84522 0.54661 0.0
C566 C 0.80495 0.8409 0.52919 0.0
C567 C 0.82882 0.85072 0.55399 0.0
H568 H 0.76202 0.83752 0.52744 0.0
H569 H 0.99653 0.92624 0.76624 0.0
H570 H 0.93311 0.02895 0.47013 0.0
H571 H 0.90017 0.05659 0.43085 0.0
H572 H 0.9425 0.12828 0.49407 0.0
H573 H 0.97563 0.1008 0.53283 0.0
H574 H 0.88686 0.13024 0.49622 0.0
H575 H 0.9505 0.10682 0.3895 0.0
H576 H 0.97598 0.07503 0.34336 0.0
H577 H 0.90245 0.0399 0.27521 0.0
H578 H 0.8765 0.07111 0.32157 0.0
H579 H 0.83068 0.2301 0.36933 0.0
H580 H 0.86022 0.19961 0.40806 0.0
H581 H 0.82518 0.13265 0.31855 0.0
H582 H 0.79649 0.16345 0.27811 0.0
H583 H 0.87516 0.12568 0.33015 0.0
H584 H 0.81083 0.14798 0.4333 0.0
H585 H 0.7837 0.17664 0.48166 0.0
H586 H 0.85538 0.21076 0.55779 0.0
H587 H 0.88296 0.18258 0.50959 0.0
C588 C 0.93542 0.0506 0.47547 0.0
C589 C 0.95704 0.06275 0.5042 0.0
C590 C 0.91659 0.06635 0.45308 0.0
C591 C 0.91901 0.09448 0.45933 0.0
C592 C 0.94027 0.10661 0.48878 0.0
C593 C 0.9592 0.09089 0.5108 0.0
C594 C 0.89959 0.11142 0.43495 0.0
C595 C 0.88442 0.12949 0.45992 0.0
C596 C 0.89587 0.10971 0.38756 0.0
C597 C 0.91154 0.09116 0.35933 0.0
C598 C 0.93975 0.09217 0.36495 0.0
C599 C 0.95429 0.07427 0.33872 0.0
C600 C 0.94083 0.05546 0.3064 0.0
C601 C 0.91283 0.05448 0.30028 0.0
C602 C 0.8982 0.07227 0.32651 0.0
C603 C 0.82921 0.20886 0.35794 0.0
C604 C 0.81116 0.19916 0.32078 0.0
C605 C 0.84601 0.19137 0.38037 0.0
C606 C 0.84461 0.16361 0.36706 0.0
C607 C 0.82666 0.15392 0.32969 0.0
C608 C 0.81022 0.17153 0.3066 0.0
C609 C 0.86234 0.1449 0.39139 0.0
C610 C 0.8773 0.12644 0.36644 0.0
C611 C 0.86557 0.14596 0.4389 0.0
C612 C 0.84898 0.16327 0.46756 0.0
C613 C 0.82082 0.16175 0.46011 0.0
C614 C 0.80536 0.17788 0.48758 0.0
C615 C 0.81781 0.19547 0.52283 0.0
C616 C 0.84576 0.19708 0.53056 0.0
C617 C 0.86132 0.18102 0.50319 0.0
H618 H 0.80583 0.20782 0.54423 0.0
H619 H 0.95207 0.04171 0.28596 0.0
H620 H 0.66591 0.23778 0.24802 0.0
H621 H 0.63366 0.20626 0.20339 0.0
H622 H 0.69693 0.15016 0.18272 0.0
H623 H 0.72946 0.18223 0.22582 0.0
H624 H 0.66737 0.15201 0.10812 0.0
H625 H 0.64922 0.14158 0.25746 0.0
H626 H 0.63901 0.1556 0.33448 0.0
H627 H 0.56463 0.18817 0.28294 0.0
H628 H 0.57457 0.17467 0.20553 0.0
H629 H 0.5793 0.03764 0.04194 0.0
H630 H 0.61191 0.06943 0.08563 0.0
H631 H 0.55612 0.13348 0.06995 0.0
H632 H 0.52356 0.10184 0.02528 0.0
H633 H 0.58156 0.1267 0.16265 0.0
H634 H 0.60227 0.13527 1.01127 0.0
H635 H 0.61362 0.11759 0.93643 0.0
H636 H 0.68518 0.08365 0.99633 0.0
H637 H 0.67403 0.1008 0.07162 0.0
C638 C 0.67285 0.21864 0.23412 0.0
C639 C 0.70003 0.21225 0.24045 0.0
C640 C 0.65442 0.20061 0.20882 0.0
C641 C 0.66279 0.17564 0.19036 0.0
C642 C 0.69002 0.16928 0.19673 0.0
C643 C 0.70854 0.18752 0.22144 0.0
C644 C 0.64324 0.15649 0.16344 0.0
C645 C 0.6488 0.14623 0.12039 0.0
C646 C 0.61882 0.14916 0.17916 0.0
C647 C 0.61277 0.15735 0.22567 0.0
C648 C 0.63079 0.15193 0.26253 0.0
C649 C 0.62503 0.15974 0.30626 0.0
C650 C 0.60122 0.17283 0.31359 0.0
C651 C 0.58308 0.17806 0.2772 0.0
C652 C 0.58876 0.17031 0.23339 0.0
C653 C 0.57409 0.05854 0.04759 0.0
C654 C 0.54908 0.06745 0.03021 0.0
C655 C 0.59268 0.07659 0.07245 0.0
C656 C 0.5863 0.10367 0.08071 0.0
C657 C 0.56126 0.1126 0.0637 0.0
C658 C 0.54282 0.09462 0.03814 0.0
C659 C 0.60577 0.12257 0.1077 0.0
C660 C 0.60018 0.13263 0.15068 0.0
C661 C 0.63038 0.12926 0.09235 0.0
C662 C 0.63716 0.11907 0.04709 0.0
C663 C 0.62029 0.12382 1.00851 0.0
C664 C 0.62672 0.11394 0.96601 0.0
C665 C 0.65007 0.09944 0.96163 0.0
C666 C 0.66708 0.09485 0.99977 0.0
C667 C 0.66073 0.10466 0.04236 0.0
H668 H 0.65501 0.09181 0.9287 0.0
H669 H 0.5968 0.17886 0.34748 0.0
H670 H 0.66161 0.79017 0.7492 0.0
H671 H 0.63472 0.82446 0.78602 0.0
H672 H 0.70657 0.8619 0.85818 0.0
H673 H 0.73374 0.82807 0.82026 0.0
H674 H 0.66282 0.85259 0.91221 0.0
H675 H 0.67983 0.89232 0.77889 0.0
H676 H 0.68099 0.89313 0.69747 0.0
H677 H 0.59579 0.87904 0.67571 0.0
H678 H 0.59418 0.87773 0.75698 0.0
H679 H 0.59718 0.96766 1.00252 0.0
H680 H 0.62825 0.93744 0.96655 0.0
H681 H 0.56451 0.90867 0.86476 0.0
H682 H 0.53368 0.93948 0.89962 0.0
H683 H 0.60696 0.91497 0.82644 0.0
H684 H 0.58854 0.87245 0.95558 0.0
H685 H 0.58549 0.86838 0.03574 0.0
H686 H 0.67024 0.88389 0.06458 0.0
H687 H 0.67374 0.88845 0.98464 0.0
C688 C 0.67171 0.80579 0.77272 0.0
C689 C 0.69976 0.80635 0.78211 0.0
C690 C 0.65632 0.82534 0.79372 0.0
C691 C 0.66866 0.8457 0.82481 0.0
C692 C 0.69668 0.8463 0.83439 0.0
C693 C 0.71215 0.82696 0.81278 0.0
C694 C 0.65212 0.86618 0.84738 0.0
C695 C 0.65092 0.86659 0.89371 0.0
C696 C 0.63604 0.8838 0.82288 0.0
C697 C 0.63694 0.88467 0.774 0.0
C698 C 0.66138 0.88915 0.75671 0.0
C699 C 0.66211 0.88975 0.71059 0.0
C700 C 0.63849 0.88607 0.68142 0.0
C701 C 0.61408 0.88185 0.69833 0.0
C702 C 0.61324 0.8812 0.74443 0.0
C703 C 0.5898 0.9549 0.97245 0.0
C704 C 0.56295 0.95599 0.95395 0.0
C705 C 0.60756 0.93749 0.95202 0.0
C706 C 0.59872 0.92039 0.9132 0.0
C707 C 0.57192 0.92163 0.8946 0.0
C708 C 0.55427 0.93927 0.91463 0.0
C709 C 0.6173 0.90137 0.89157 0.0
C710 C 0.61891 0.90117 0.84526 0.0
C711 C 0.63342 0.88361 0.91604 0.0
C712 C 0.63134 0.88112 0.96419 0.0
C713 C 0.60649 0.87525 0.97907 0.0
C714 C 0.60468 0.87281 0.02446 0.0
C715 C 0.62764 0.87596 0.05526 0.0
C716 C 0.65246 0.88152 0.04071 0.0
C717 C 0.65437 0.88403 0.99536 0.0
H718 H 0.62621 0.87403 0.09037 0.0
H719 H 0.63909 0.88655 0.64572 0.0
H720 H 0.58048 0.56871 0.02158 0.0
H721 H 0.61054 0.5996 0.99177 0.0
H722 H 0.57949 0.56951 0.85692 0.0
H723 H 0.54919 0.53862 0.88641 0.0
H724 H 0.63594 0.57528 0.86936 0.0
H725 H 0.55864 0.62709 0.89812 0.0
H726 H 0.52417 0.64583 0.94408 0.0
H727 H 0.58529 0.68739 0.03711 0.0
H728 H 0.62018 0.66851 0.99209 0.0
H729 H 0.68956 0.67755 0.75597 0.0
H730 H 0.65976 0.64605 0.78462 0.0
H731 H 0.68111 0.68351 0.91916 0.0
H732 H 0.71047 0.71557 0.89059 0.0
H733 H 0.62929 0.67357 0.90675 0.0
H734 H 0.70669 0.6219 0.88006 0.0
H735 H 0.74186 0.60253 0.83623 0.0
H736 H 0.68184 0.56028 0.74192 0.0
H737 H 0.64627 0.57971 0.78487 0.0
C738 C 0.5801 0.56852 0.98556 0.0
C739 C 0.56233 0.55119 0.95641 0.0
C740 C 0.59725 0.58629 0.96858 0.0
C741 C 0.59714 0.58702 0.92211 0.0
C742 C 0.5799 0.56932 0.89289 0.0
C743 C 0.56251 0.55174 0.90984 0.0
C744 C 0.61474 0.60654 0.90412 0.0
C745 C 0.63428 0.59679 0.87701 0.0
C746 C 0.613 0.63458 0.91503 0.0
C747 C 0.59205 0.64616 0.94196 0.0
C748 C 0.56475 0.64004 0.92858 0.0
C749 C 0.54513 0.65072 0.95443 0.0
C750 C 0.55254 0.66774 0.99355 0.0
C751 C 0.57958 0.67417 1.00683 0.0
C752 C 0.59929 0.6635 0.98115 0.0
C753 C 0.688 0.67911 0.79169 0.0
C754 C 0.70258 0.69908 0.82095 0.0
C755 C 0.67098 0.66095 0.80809 0.0
C756 C 0.66842 0.66204 0.85423 0.0
C757 C 0.68273 0.68216 0.88345 0.0
C758 C 0.69961 0.70047 0.86704 0.0
C759 C 0.65068 0.64238 0.87194 0.0
C760 C 0.63105 0.65208 0.89903 0.0
C761 C 0.65246 0.61426 0.86126 0.0
C762 C 0.67381 0.60247 0.83544 0.0
C763 C 0.70098 0.60864 0.84979 0.0
C764 C 0.72099 0.59762 0.82513 0.0
C765 C 0.71409 0.58024 0.78625 0.0
C766 C 0.68716 0.57378 0.77201 0.0
C767 C 0.66707 0.58477 0.79651 0.0
H768 H 0.72961 0.57173 0.76721 0.0
H769 H 0.53732 0.67599 1.01352 0.0
H770 H 0.69009 0.2806 0.14295 0.0
H771 H 0.65873 0.31027 0.10602 0.0
H772 H 0.69381 0.37807 0.1935 0.0
H773 H 0.72433 0.34808 0.23219 0.0
H774 H 0.64374 0.38302 0.18687 0.0
H775 H 0.70442 0.36364 0.07713 0.0
H776 H 0.73082 0.33597 0.02619 0.0
H777 H 0.65838 0.3003 0.95489 0.0
H778 H 0.63152 0.32737 1.00591 0.0
H779 H 0.57615 0.47823 0.05457 0.0
H780 H 0.61144 0.45163 0.09038 0.0
H781 H 0.57051 0.37877 0.02898 0.0
H782 H 0.53508 0.40522 0.99357 0.0
H783 H 0.62557 0.37901 0.02135 0.0
H784 H 0.56599 0.3985 0.13662 0.0
H785 H 0.54131 0.42801 0.18775 0.0
H786 H 0.61523 0.46675 0.24714 0.0
H787 H 0.64033 0.43768 0.19602 0.0
C788 C 0.69122 0.30186 0.15418 0.0
C789 C 0.70973 0.31203 0.1904 0.0
C790 C 0.67337 0.31889 0.13278 0.0
C791 C 0.67416 0.34662 0.14619 0.0
C792 C 0.69276 0.3568 0.18235 0.0
C793 C 0.71024 0.33966 0.20444 0.0
C794 C 0.65486 0.36476 0.12376 0.0
C795 C 0.64021 0.38242 0.15065 0.0
C796 C 0.6498 0.36385 0.07638 0.0
C797 C 0.66594 0.34741 0.04568 0.0
C798 C 0.6941 0.34973 0.05085 0.0
C799 C 0.70916 0.33416 0.02191 0.0
C800 C 0.69629 0.31636 0.98736 0.0
C801 C 0.66832 0.31408 0.98169 0.0
C802 C 0.65317 0.32954 1.01061 0.0
C803 C 0.57464 0.45654 0.04892 0.0
C804 C 0.5528 0.44376 0.02154 0.0
C805 C 0.5948 0.44138 0.06935 0.0
C806 C 0.59352 0.41321 0.06252 0.0
C807 C 0.5719 0.40047 0.03465 0.0
C808 C 0.55165 0.4156 0.01456 0.0
C809 C 0.61457 0.39689 0.08454 0.0
C810 C 0.62944 0.37963 0.05754 0.0
C811 C 0.62019 0.39848 0.13172 0.0
C812 C 0.60502 0.41608 0.16219 0.0
C813 C 0.57696 0.41348 0.16029 0.0
C814 C 0.5629 0.4301 0.18933 0.0
C815 C 0.5767 0.44928 0.22061 0.0
C816 C 0.60457 0.4519 0.22287 0.0
C817 C 0.61872 0.43534 0.19391 0.0
H818 H 0.56585 0.46203 0.24326 0.0
H819 H 0.70797 0.30437 0.96493 0.0
H820 H 0.9276 0.47685 0.4873 0.0
H821 H 0.8982 0.44368 0.43958 0.0
H822 H 0.95605 0.38235 0.46345 0.0
H823 H 0.98532 0.41531 0.51203 0.0
H824 H 0.93536 0.38814 0.36855 0.0
H825 H 0.90638 0.37784 0.51395 0.0
H826 H 0.89027 0.39437 0.58598 0.0
H827 H 0.82036 0.42555 0.51588 0.0
H828 H 0.83627 0.40955 0.44338 0.0
H829 H 0.85566 0.27542 0.26837 0.0
H830 H 0.88605 0.30706 0.31711 0.0
H831 H 0.82132 0.36237 0.33018 0.0
H832 H 0.79072 0.3303 0.28304 0.0
H833 H 0.8466 0.35933 0.40782 0.0
H834 H 0.87351 0.37204 0.26387 0.0
H835 H 0.88877 0.35915 0.18976 0.0
H836 H 0.96092 0.32796 0.25278 0.0
H837 H 0.94592 0.34033 0.3273 0.0
C838 C 0.93388 0.45622 0.48265 0.0
C839 C 0.95854 0.44847 0.50335 0.0
C840 C 0.91714 0.43739 0.45548 0.0
C841 C 0.92507 0.41071 0.44828 0.0
C842 C 0.94972 0.40292 0.46883 0.0
C843 C 0.96626 0.42166 0.49664 0.0
C844 C 0.9077 0.39105 0.41859 0.0
C845 C 0.9161 0.38143 0.3772 0.0
C846 C 0.88232 0.38324 0.42967 0.0
C847 C 0.87266 0.39274 0.47324 0.0
C848 C 0.8877 0.38844 0.51389 0.0
C849 C 0.87858 0.39767 0.5548 0.0
C850 C 0.85435 0.41107 0.55551 0.0
C851 C 0.83915 0.4152 0.51529 0.0
C852 C 0.8482 0.40604 0.47428 0.0
C853 C 0.84806 0.29445 0.28141 0.0
C854 C 0.82099 0.30057 0.27202 0.0
C855 C 0.86542 0.31254 0.30907 0.0
C856 C 0.85603 0.33724 0.32686 0.0
C857 C 0.82899 0.34343 0.31689 0.0
C858 C 0.81157 0.32518 0.28986 0.0
C859 C 0.87409 0.35627 0.3572 0.0
C860 C 0.86585 0.36585 0.39888 0.0
C861 C 0.89943 0.36446 0.34594 0.0
C862 C 0.90844 0.35684 0.30116 0.0
C863 C 0.89252 0.36221 0.26192 0.0
C864 C 0.90115 0.35504 0.21984 0.0
C865 C 0.92576 0.34267 0.21655 0.0
C866 C 0.94184 0.33749 0.25537 0.0
C867 C 0.93329 0.3446 0.29754 0.0
H868 H 0.93242 0.33715 0.18394 0.0
H869 H 0.84732 0.4182 0.58722 0.0
H870 H 0.84915 0.72704 0.78394 0.0
H871 H 0.87523 0.69489 0.74102 0.0
H872 H 0.80249 0.65143 0.68568 0.0
H873 H 0.77631 0.68329 0.72965 0.0
H874 H 0.84108 0.61722 0.70686 0.0
H875 H 0.83295 0.69206 0.62305 0.0
H876 H 0.83407 0.73997 0.61096 0.0
H877 H 0.91895 0.7441 0.65033 0.0
H878 H 0.91827 0.69626 0.66344 0.0
H879 H 0.90884 0.54729 0.53026 0.0
H880 H 0.8782 0.57822 0.56648 0.0
H881 H 0.94444 0.61348 0.6571 0.0
H882 H 0.97499 0.58218 0.62205 0.0
H883 H 0.90592 0.65123 0.61118 0.0
H884 H 0.91026 0.57469 0.69974 0.0
H885 H 0.90621 0.52641 0.7083 0.0
H886 H 0.82397 0.5254 0.65144 0.0
H887 H 0.82768 0.57364 0.64194 0.0
C888 C 0.83873 0.71055 0.76282 0.0
C889 C 0.8107 0.70779 0.75978 0.0
C890 C 0.85363 0.69227 0.73808 0.0
C891 C 0.8408 0.67097 0.70947 0.0
C892 C 0.81282 0.66776 0.70733 0.0
C893 C 0.79789 0.68603 0.73228 0.0
C894 C 0.85674 0.65233 0.6817 0.0
C895 C 0.85493 0.62466 0.68543 0.0
C896 C 0.87481 0.66195 0.65354 0.0
C897 C 0.87552 0.69058 0.64459 0.0
C898 C 0.85185 0.7032 0.62938 0.0
C899 C 0.8524 0.73036 0.62234 0.0
C900 C 0.87656 0.74509 0.62998 0.0
C901 C 0.90024 0.73266 0.64447 0.0
C902 C 0.89979 0.7055 0.65167 0.0
C903 C 0.91687 0.56167 0.55783 0.0
C904 C 0.94435 0.56229 0.57335 0.0
C905 C 0.89936 0.5793 0.57845 0.0
C906 C 0.9091 0.59816 0.61433 0.0
C907 C 0.93656 0.59916 0.62932 0.0
C908 C 0.95395 0.58118 0.60938 0.0
C909 C 0.8906 0.61636 0.63727 0.0
C910 C 0.8919 0.6439 0.63242 0.0
C911 C 0.87163 0.60657 0.66354 0.0
C912 C 0.86934 0.57767 0.66965 0.0
C913 C 0.89139 0.56411 0.68868 0.0
C914 C 0.88915 0.53677 0.69378 0.0
C915 C 0.86487 0.52282 0.68028 0.0
C916 C 0.84278 0.53622 0.6618 0.0
C917 C 0.84494 0.56356 0.65658 0.0
H918 H 0.86317 0.50165 0.68425 0.0
H919 H 0.87694 0.76614 0.62461 0.0
H920 H 0.2763 0.31327 0.1467 0.0
H921 H 0.30537 0.34382 0.11432 0.0
H922 H 0.35894 0.35135 0.23709 0.0
H923 H 0.32886 0.32218 0.2705 0.0
H924 H 0.35689 0.39694 0.20867 0.0
H925 H 0.36978 0.30897 0.13391 0.0
H926 H 0.35497 0.26608 0.09015 0.0
H927 H 0.32214 0.30852 0.98082 0.0
H928 H 0.33653 0.3517 0.02414 0.0
H929 H 0.47064 0.44804 0.12183 0.0
H930 H 0.43915 0.4194 0.15284 0.0
H931 H 0.38404 0.42021 0.03302 0.0
H932 H 0.41585 0.44832 1.00115 0.0
H933 H 0.3861 0.37115 0.05842 0.0
H934 H 0.37485 0.45919 0.13381 0.0
H935 H 0.39076 0.50159 0.17801 0.0
H936 H 0.42204 0.45799 0.28686 0.0
H937 H 0.40655 0.41528 0.24311 0.0
C938 C 0.29422 0.32157 0.16684 0.0
C939 C 0.30035 0.31525 0.2111 0.0
C940 C 0.31101 0.33889 0.14814 0.0
C941 C 0.33491 0.34947 0.17265 0.0
C942 C 0.34075 0.34349 0.21723 0.0
C943 C 0.32355 0.32676 0.23636 0.0
C944 C 0.35382 0.3667 0.15204 0.0
C945 C 0.36351 0.39103 0.17606 0.0
C946 C 0.36214 0.35954 0.10893 0.0
C947 C 0.35404 0.33357 0.08243 0.0
C948 C 0.35933 0.30915 0.1006 0.0
C949 C 0.35101 0.2848 0.07588 0.0
C950 C 0.33757 0.28458 0.03279 0.0
C951 C 0.33254 0.30872 0.01422 0.0
C952 C 0.34081 0.33314 0.03882 0.0
C953 C 0.45181 0.44221 0.10201 0.0
C954 C 0.44576 0.45067 0.05903 0.0
C955 C 0.43372 0.42587 0.11993 0.0
C956 C 0.40892 0.41794 0.09568 0.0
C957 C 0.40297 0.42608 0.05251 0.0
C958 C 0.42118 0.44224 0.03436 0.0
C959 C 0.38927 0.40114 0.11529 0.0
C960 C 0.37943 0.37697 0.09103 0.0
C961 C 0.38097 0.40832 0.1583 0.0
C962 C 0.3897 0.43403 0.18505 0.0
C963 C 0.3852 0.45864 0.16711 0.0
C964 C 0.39414 0.48273 0.19209 0.0
C965 C 0.40745 0.48248 0.23518 0.0
C966 C 0.41173 0.45815 0.25347 0.0
C967 C 0.40284 0.434 0.22864 0.0
H968 H 0.41441 0.50114 0.25442 0.0
H969 H 0.33112 0.2657 1.01376 0.0
H970 H 0.48379 0.59297 0.99257 0.0
H971 H 0.45 0.62104 0.95728 0.0
H972 H 0.39121 0.55656 0.94956 0.0
H973 H 0.4256 0.52786 0.98253 0.0
H974 H 0.38256 0.57954 0.87863 0.0
H975 H 0.39544 0.61343 0.03349 0.0
H976 H 0.42095 0.63087 0.10527 0.0
H977 H 0.44903 0.69826 0.04429 0.0
H978 H 0.42392 0.68107 0.97201 0.0
H979 H 0.29053 0.70558 0.89884 0.0
H980 H 0.3207 0.67361 0.93283 0.0
H981 H 0.35342 0.65547 0.80679 0.0
H982 H 0.32277 0.68676 0.77228 0.0
H983 H 0.37176 0.6722 0.94852 0.0
H984 H 0.37519 0.59209 0.79539 0.0
H985 H 0.3453 0.5727 0.72942 0.0
H986 H 0.27644 0.59411 0.79739 0.0
H987 H 0.3059 0.61327 0.86396 0.0
C988 C 0.46366 0.58479 0.98318 0.0
C989 C 0.45717 0.55839 0.99066 0.0
C990 C 0.44427 0.60091 0.96328 0.0
C991 C 0.41774 0.59128 0.9518 0.0
C992 C 0.41144 0.56458 0.95829 0.0
C993 C 0.43105 0.54821 0.97724 0.0
C994 C 0.39665 0.6091 0.93332 0.0
C995 C 0.3802 0.59977 0.89401 0.0
C996 C 0.39296 0.63536 0.95379 0.0
C997 C 0.40796 0.64585 0.99728 0.0
C998 C 0.40717 0.63189 0.03535 0.0
C999 C 0.42154 0.64174 0.07612 0.0
C1000 C 0.43664 0.66563 0.07932 0.0
C1001 C 0.43734 0.67975 0.04176 0.0
C1002 C 0.42301 0.66999 1.0009 0.0
C1003 C 0.30406 0.69471 0.87827 0.0
C1004 C 0.30413 0.6987 0.83276 0.0
C1005 C 0.32135 0.67643 0.8978 0.0
C1006 C 0.33918 0.66181 0.87233 0.0
C1007 C 0.33947 0.66598 0.82698 0.0
C1008 C 0.32198 0.68403 0.80731 0.0
C1009 C 0.35798 0.64278 0.89348 0.0
C1010 C 0.37404 0.65192 0.93324 0.0
C1011 C 0.36066 0.61607 0.87425 0.0
C1012 C 0.34278 0.60436 0.83449 0.0
C1013 C 0.35367 0.59256 0.79631 0.0
C1014 C 0.3368 0.58163 0.75881 0.0
C1015 C 0.30899 0.58225 0.75916 0.0
C1016 C 0.29799 0.59373 0.79709 0.0
C1017 C 0.31476 0.60466 0.8347 0.0
H1018 H 0.29597 0.5738 0.73008 0.0
H1019 H 0.44776 0.67321 0.11091 0.0
H1020 H 0.21873 0.68864 0.71795 0.0
H1021 H 0.18684 0.65941 0.66751 0.0
H1022 H 0.12235 0.71115 0.7016 0.0
H1023 H 0.15423 0.74068 0.75169 0.0
H1024 H 0.11142 0.6564 0.70548 0.0
H1025 H 0.1462 0.71479 0.60664 0.0
H1026 H 0.18197 0.73653 0.57188 0.0
H1027 H 0.20664 0.65957 0.51681 0.0
H1028 H 0.17162 0.63725 0.55243 0.0
H1029 H 0.02705 0.60312 0.48916 0.0
H1030 H 0.05824 0.63709 0.53119 0.0
H1031 H 0.09843 0.57549 0.60118 0.0
H1032 H 0.06781 0.54143 0.55874 0.0
H1033 H 0.11896 0.63837 0.54228 0.0
H1034 H 0.10178 0.60006 0.70825 0.0
H1035 H 0.06631 0.57761 0.74298 0.0
H1036 H 0.00598 0.61664 0.66235 0.0
H1037 H 0.04104 0.63889 0.62671 0.0
C1038 C 0.19778 0.69386 0.71435 0.0
C1039 C 0.18885 0.71693 0.73825 0.0
C1040 C 0.17965 0.67719 0.68566 0.0
C1041 C 0.1524 0.68335 0.68076 0.0
C1042 C 0.14338 0.7062 0.70505 0.0
C1043 C 0.16154 0.72299 0.73351 0.0
C1044 C 0.13319 0.66566 0.65076 0.0
C1045 C 0.11301 0.65258 0.66979 0.0
C1046 C 0.13537 0.66081 0.60423 0.0
C1047 C 0.15633 0.67431 0.58248 0.0
C1048 C 0.15939 0.70246 0.58747 0.0
C1049 C 0.17952 0.7149 0.56757 0.0
C1050 C 0.19645 0.69944 0.542 0.0
C1051 C 0.19345 0.67151 0.53656 0.0
C1052 C 0.17349 0.65895 0.55665 0.0
C1053 C 0.04275 0.59686 0.51316 0.0
C1054 C 0.045 0.5698 0.52111 0.0
C1055 C 0.06051 0.61619 0.53691 0.0
C1056 C 0.08039 0.60863 0.56917 0.0
C1057 C 0.08307 0.58155 0.57638 0.0
C1058 C 0.06558 0.56221 0.55228 0.0
C1059 C 0.09755 0.6291 0.59723 0.0
C1060 C 0.11737 0.64249 0.57792 0.0
C1061 C 0.09513 0.63433 0.64347 0.0
C1062 C 0.07399 0.62105 0.66482 0.0
C1063 C 0.08093 0.60382 0.698 0.0
C1064 C 0.06091 0.59103 0.71767 0.0
C1065 C 0.03391 0.59562 0.70476 0.0
C1066 C 0.02687 0.6129 0.67203 0.0
C1067 C 0.0468 0.62551 0.65197 0.0
H1068 H 0.01844 0.58591 0.72027 0.0
H1069 H 0.21182 0.70908 0.52624 0.0
H1070 H 0.22855 0.32822 0.3208 0.0
H1071 H 0.2019 0.36285 0.35809 0.0
H1072 H 0.12919 0.3202 0.30048 0.0
H1073 H 0.15558 0.28555 0.2638 0.0
H1074 H 0.12809 0.37466 0.28984 0.0
H1075 H 0.15065 0.31756 0.40921 0.0
H1076 H 0.18107 0.29489 0.4625 0.0
H1077 H 0.21813 0.37076 0.51587 0.0
H1078 H 0.18804 0.39385 0.46272 0.0
H1079 H 0.0277 0.43557 0.40893 0.0
H1080 H 0.05872 0.40522 0.37371 0.0
H1081 H 0.12504 0.44462 0.45952 0.0
H1082 H 0.09378 0.47421 0.49647 0.0
H1083 H 0.13283 0.39487 0.45496 0.0
H1084 H 0.10935 0.45326 0.34265 0.0
H1085 H 0.08033 0.47782 0.29019 0.0
H1086 H 0.04812 0.40327 0.22147 0.0
H1087 H 0.07651 0.37822 0.27408 0.0
C1088 C 0.2069 0.32618 0.31643 0.0
C1089 C 0.19414 0.30417 0.28946 0.0
C1090 C 0.1917 0.34594 0.33772 0.0
C1091 C 0.16353 0.34408 0.33211 0.0
C1092 C 0.15087 0.3221 0.30518 0.0
C1093 C 0.166 0.30228 0.28432 0.0
C1094 C 0.14701 0.3651 0.35354 0.0
C1095 C 0.1289 0.37898 0.32597 0.0
C1096 C 0.14883 0.37141 0.40056 0.0
C1097 C 0.16729 0.35739 0.4317 0.0
C1098 C 0.16547 0.32936 0.43199 0.0
C1099 C 0.1826 0.31646 0.46228 0.0
C1100 C 0.20155 0.3314 0.49248 0.0
C1101 C 0.20345 0.35924 0.49243 0.0
C1102 C 0.18635 0.37223 0.4623 0.0
C1103 C 0.04891 0.43783 0.42023 0.0
C1104 C 0.0583 0.45735 0.45541 0.0
C1105 C 0.06671 0.42056 0.39978 0.0
C1106 C 0.09443 0.4229 0.4131 0.0
C1107 C 0.10381 0.44238 0.44841 0.0
C1108 C 0.08592 0.45932 0.46953 0.0
C1109 C 0.11342 0.40438 0.39134 0.0
C1110 C 0.13205 0.39091 0.41879 0.0
C1111 C 0.11237 0.3988 0.34407 0.0
C1112 C 0.09495 0.41384 0.31264 0.0
C1113 C 0.09589 0.44208 0.31665 0.0
C1114 C 0.07956 0.4561 0.28684 0.0
C1115 C 0.06238 0.44211 0.25256 0.0
C1116 C 0.06143 0.41407 0.24808 0.0
C1117 C 0.07764 0.39996 0.2779 0.0
H1118 H 0.04985 0.45298 0.22937 0.0
H1119 H 0.2147 0.32148 0.51611 0.0
H1120 H 0.01928 0.96742 0.82542 0.0
H1121 H 0.0144 0.96365 0.90452 0.0
H1122 H 0.01263 0.04991 0.92925 0.0
H1123 H 0.01761 0.0538 0.85039 0.0
H1124 H 0.04457 0.03002 0.99366 0.0
H1125 H 0.95514 0.00957 0.9212 0.0
H1126 H 0.92179 0.98487 0.86548 0.0
H1127 H 0.94288 0.911 0.91971 0.0
H1128 H 0.97664 0.93521 0.97538 0.0
H1129 H 0.99665 0.04012 0.20869 0.0
H1130 H 1.00315 0.04279 0.12988 0.0
H1131 H 1.00074 0.95631 0.10691 0.0
H1132 H 0.99382 0.95359 0.18538 0.0
H1133 H 0.9716 0.97545 0.04137 0.0
H1134 H 0.06014 0.99478 0.11423 0.0
H1135 H 0.09483 0.01826 0.16893 0.0
H1136 H 0.0771 0.09257 0.11371 0.0
H1137 H 0.04197 0.06962 0.05911 0.0
C1138 C 0.01754 0.98557 0.84758 0.0
C1139 C 0.01884 0.01092 0.83146 0.0
C1140 C 0.01481 0.9834 0.89289 0.0
C1141 C 0.01295 0.00651 0.92297 0.0
C1142 C 0.01415 0.03179 0.90687 0.0
C1143 C 0.01701 0.03398 0.86171 0.0
C1144 C 0.00991 1.00447 0.97125 0.0
C1145 C 0.0284 0.01836 1.0041 0.0
C1146 C 0.98929 0.98866 0.98502 0.0
C1147 C 0.96857 0.97418 0.95222 0.0
C1148 C 0.95275 0.98804 0.92111 0.0
C1149 C 0.93377 0.97413 0.88955 0.0
C1150 C 0.93024 0.94638 0.88902 0.0
C1151 C 0.94564 0.9325 0.92016 0.0
C1152 C 0.96468 0.9463 0.95175 0.0
C1153 C 0.99783 0.02168 0.18695 0.0
C1154 C 0.99467 0.99665 0.20335 0.0
C1155 C 1.00154 0.02321 0.14183 0.0
C1156 C 1.00266 0.99973 0.11226 0.0
C1157 C 0.99982 0.97473 0.1288 0.0
C1158 C 0.99587 0.9732 0.17374 0.0
C1159 C 0.0062 1.00114 0.06395 0.0
C1160 C 0.9878 0.98711 0.03104 0.0
C1161 C 0.02704 0.01667 0.05013 0.0
C1162 C 0.04825 0.03051 0.0828 0.0
C1163 C 0.0635 0.01616 0.11394 0.0
C1164 C 0.08327 0.02937 0.14489 0.0
C1165 C 0.08817 0.05688 0.14478 0.0
C1166 C 0.07329 0.07125 0.11373 0.0
C1167 C 0.05346 0.05815 0.08276 0.0
H1168 H 0.10348 0.06707 0.16878 0.0
H1169 H 0.91559 0.93564 0.86448 0.0
H1170 H 0.27186 0.78162 0.47382 0.0
H1171 H 0.27186 0.78886 0.39482 0.0
H1172 H 0.25778 0.70414 0.35694 0.0
H1173 H 0.25714 0.69675 0.43573 0.0
H1174 H 0.297 0.72439 0.31236 0.0
H1175 H 0.20778 0.74642 0.34252 0.0
H1176 H 0.17342 0.76948 0.3839 0.0
H1177 H 0.20315 0.84575 0.35434 0.0
H1178 H 0.23802 0.82316 0.31342 0.0
H1179 H 0.25724 0.72966 0.07903 0.0
H1180 H 0.25961 0.7226 0.15832 0.0
H1181 H 0.27343 0.80748 0.19484 0.0
H1182 H 0.27167 0.81471 0.11557 0.0
H1183 H 0.23467 0.78731 0.2403 0.0
H1184 H 0.32394 0.76473 0.20959 0.0
H1185 H 0.35823 0.74121 0.16866 0.0
H1186 H 0.32782 0.66536 0.19887 0.0
H1187 H 0.29308 0.68842 0.23948 0.0
C1188 C 0.26843 0.76454 0.44874 0.0
C1189 C 0.2645 0.73858 0.46136 0.0
C1190 C 0.26856 0.76871 0.40353 0.0
C1191 C 0.26471 0.74705 0.36988 0.0
C1192 C 0.26094 0.72113 0.3823 0.0
C1193 C 0.26068 0.71695 0.42746 0.0
C1194 C 0.26459 0.75145 0.32175 0.0
C1195 C 0.28315 0.73789 0.29644 0.0
C1196 C 0.24686 0.76946 0.30118 0.0
C1197 C 0.22571 0.78311 0.3253 0.0
C1198 C 0.20714 0.76813 0.34514 0.0
C1199 C 0.18755 0.78111 0.36848 0.0
C1200 C 0.18615 0.80907 0.37186 0.0
C1201 C 0.20429 0.82409 0.35177 0.0
C1202 C 0.22397 0.81121 0.32848 0.0
C1203 C 0.26134 0.74681 0.10383 0.0
C1204 C 0.26429 0.77279 0.09066 0.0
C1205 C 0.26254 0.74273 0.14925 0.0
C1206 C 0.26677 0.7645 0.18262 0.0
C1207 C 0.27001 0.79039 0.16971 0.0
C1208 C 0.26894 0.79449 0.1243 0.0
C1209 C 0.26715 0.76031 0.2309 0.0
C1210 C 0.24858 0.77386 0.25622 0.0
C1211 C 0.2848 0.74222 0.25144 0.0
C1212 C 0.30574 0.7283 0.22721 0.0
C1213 C 0.32442 0.74302 0.2072 0.0
C1214 C 0.34397 0.72978 0.18411 0.0
C1215 C 0.34516 0.70181 0.18106 0.0
C1216 C 0.32685 0.68703 0.20121 0.0
C1217 C 0.30724 0.70018 0.2243 0.0
H1218 H 0.36031 0.69159 0.16317 0.0
H1219 H 0.17098 0.81908 0.38997 0.0
H1220 H 0.48509 0.04792 0.69937 0.0
H1221 H 0.49146 0.04773 0.62002 0.0
H1222 H 0.50064 0.96192 0.60996 0.0
H1223 H 0.49473 0.96202 0.68966 0.0
H1224 H 0.53818 0.98654 0.56771 0.0
H1225 H 0.44293 0.98777 0.56886 0.0
H1226 H 0.39998 1.00423 0.59238 0.0
H1227 H 0.41498 0.08034 0.5446 0.0
H1228 H 0.45825 0.06447 0.52139 0.0
H1229 H 0.52304 0.96322 0.32971 0.0
H1230 H 0.51639 0.96307 0.4089 0.0
H1231 H 0.50739 0.04891 0.41993 0.0
H1232 H 0.51358 0.04916 0.3404 0.0
H1233 H 0.46963 0.02403 0.46161 0.0
H1234 H 0.56504 0.02268 0.46068 0.0
H1235 H 0.60795 0.00608 0.43723 0.0
H1236 H 0.59253 0.92993 0.48458 0.0
H1237 H 0.5493 0.94596 0.50773 0.0
C1238 C 0.48871 0.02902 0.68041 0.0
C1239 C 0.48939 1.00497 0.70093 0.0
C1240 C 0.49211 0.02892 0.63491 0.0
C1241 C 0.49626 1.00477 0.60883 0.0
C1242 C 0.49738 0.98078 0.62934 0.0
C1243 C 0.49381 0.98085 0.67482 0.0
C1244 C 0.49947 1.00461 0.56022 0.0
C1245 C 0.52301 0.99439 0.5444 0.0
C1246 C 0.47997 0.0154 0.5299 0.0
C1247 C 0.45397 0.02502 0.54382 0.0
C1248 C 0.43719 0.0081 0.56373 0.0
C1249 C 0.41276 0.01731 0.57694 0.0
C1250 C 0.40479 0.04334 0.57011 0.0
C1251 C 0.4212 0.0602 0.54995 0.0
C1252 C 0.44567 0.0511 0.53673 0.0
C1253 C 0.5194 0.98205 0.34884 0.0
C1254 C 0.51886 0.00622 0.32865 0.0
C1255 C 0.51583 0.98196 0.39425 0.0
C1256 C 0.51166 0.00601 0.42056 0.0
C1257 C 0.51067 0.03012 0.40037 0.0
C1258 C 0.5144 0.03025 0.35498 0.0
C1259 C 0.50836 0.00599 0.46911 0.0
C1260 C 0.48479 0.01618 0.48492 0.0
C1261 C 0.52782 0.99514 0.49941 0.0
C1262 C 0.55379 0.98543 0.4855 0.0
C1263 C 0.57068 1.00231 0.46572 0.0
C1264 C 0.59508 0.99302 0.45255 0.0
C1265 C 0.60293 0.96694 0.45929 0.0
C1266 C 0.58641 0.95012 0.47931 0.0
C1267 C 0.56196 0.9593 0.49249 0.0
H1268 H 0.62184 0.95979 0.4491 0.0
H1269 H 0.38586 0.05042 0.58033 0.0
H1270 H 0.28665 0.25627 0.96084 0.0
H1271 H 0.29232 0.25819 0.88161 0.0
H1272 H 0.20905 0.23535 0.84555 0.0
H1273 H 0.20357 0.23212 0.92425 0.0
H1274 H 0.2393 0.20902 0.78952 0.0
H1275 H 0.2321 0.30162 0.84991 0.0
H1276 H 0.24527 0.34126 0.90355 0.0
H1277 H 0.32474 0.33968 0.86284 0.0
H1278 H 0.31211 0.29984 0.80928 0.0
H1279 H 0.22379 0.24358 0.56679 0.0
H1280 H 0.21994 0.24045 0.64595 0.0
H1281 H 0.30135 0.27044 0.67924 0.0
H1282 H 0.30454 0.27596 0.60075 0.0
H1283 H 0.27329 0.29257 0.73741 0.0
H1284 H 0.28128 0.20088 0.67653 0.0
H1285 H 0.26923 0.1606 0.62375 0.0
H1286 H 0.19017 0.15939 0.66595 0.0
H1287 H 0.20166 0.19985 0.71865 0.0
C1288 C 0.26962 0.25139 0.93603 0.0
C1289 C 0.2446 0.24424 0.94906 0.0
C1290 C 0.27282 0.25274 0.89074 0.0
C1291 C 0.251 0.24728 0.8576 0.0
C1292 C 0.22615 0.23977 0.87047 0.0
C1293 C 0.22297 0.23825 0.91562 0.0
C1294 C 0.25386 0.24954 0.8095 0.0
C1295 C 0.24648 0.22737 0.77804 0.0
C1296 C 0.26384 0.27325 0.79458 0.0
C1297 C 0.27122 0.29764 0.82586 0.0
C1298 C 0.25241 0.30968 0.85252 0.0
C1299 C 0.25977 0.33217 0.8829 0.0
C1300 C 0.28584 0.34293 0.88669 0.0
C1301 C 0.30456 0.33131 0.85991 0.0
C1302 C 0.2973 0.3088 0.82948 0.0
C1303 C 0.24079 0.24989 0.59087 0.0
C1304 C 0.26453 0.25994 0.5769 0.0
C1305 C 0.2387 0.24766 0.63627 0.0
C1306 C 0.26055 0.25469 0.66876 0.0
C1307 C 0.28423 0.26473 0.65496 0.0
C1308 C 0.28615 0.26748 0.60974 0.0
C1309 C 0.25868 0.25201 0.71716 0.0
C1310 C 0.26622 0.27413 0.74875 0.0
C1311 C 0.24904 0.22816 0.73224 0.0
C1312 C 0.24227 0.20351 0.70127 0.0
C1313 C 0.26129 0.19208 0.67442 0.0
C1314 C 0.25457 0.16922 0.64453 0.0
C1315 C 0.22893 0.15749 0.64142 0.0
C1316 C 0.21001 0.16852 0.66836 0.0
C1317 C 0.21664 0.19138 0.6983 0.0
H1318 H 0.22374 0.13982 0.61819 0.0
H1319 H 0.29153 0.36031 0.91031 0.0
H1320 H 0.76493 0.28233 0.95403 0.0
H1321 H 0.76472 0.29007 0.87514 0.0
H1322 H 0.75656 0.20484 0.83671 0.0
H1323 H 0.75667 0.19694 0.91534 0.0
H1324 H 0.79277 0.22606 0.79116 0.0
H1325 H 0.70334 0.24721 0.82319 0.0
H1326 H 0.66968 0.27027 0.86623 0.0
H1327 H 0.69875 0.34655 0.8356 0.0
H1328 H 0.73293 0.32397 0.79302 0.0
H1329 H 0.75653 0.23127 0.55703 0.0
H1330 H 0.75659 0.22372 0.63595 0.0
H1331 H 0.76545 0.30894 0.674 0.0
H1332 H 0.7656 0.31665 0.5953 0.0
H1333 H 0.72889 0.28783 0.71975 0.0
H1334 H 0.81834 0.26652 0.68768 0.0
H1335 H 0.85221 0.24336 0.64524 0.0
H1336 H 0.82298 0.16719 0.67608 0.0
H1337 H 0.78861 0.18987 0.71809 0.0
C1338 C 0.76281 0.26522 0.92882 0.0
C1339 C 0.76087 0.23898 0.94135 0.0
C1340 C 0.76276 0.26968 0.88359 0.0
C1341 C 0.76045 0.24806 0.84966 0.0
C1342 C 0.75852 0.22188 0.86208 0.0
C1343 C 0.75864 0.2174 0.90724 0.0
C1344 C 0.76003 0.25262 0.80126 0.0
C1345 C 0.77855 0.23931 0.77546 0.0
C1346 C 0.74187 0.27031 0.7807 0.0
C1347 C 0.72086 0.2839 0.80525 0.0
C1348 C 0.70265 0.26891 0.82582 0.0
C1349 C 0.68348 0.2819 0.85014 0.0
C1350 C 0.68212 0.30986 0.85374 0.0
C1351 C 0.69986 0.32489 0.83284 0.0
C1352 C 0.71912 0.31201 0.80858 0.0
C1353 C 0.75879 0.24842 0.58214 0.0
C1354 C 0.76105 0.2746 0.56947 0.0
C1355 C 0.75874 0.24406 0.6274 0.0
C1356 C 0.76119 0.26574 0.66123 0.0
C1357 C 0.76338 0.29186 0.64869 0.0
C1358 C 0.7634 0.29624 0.60349 0.0
C1359 C 0.76161 0.26124 0.70965 0.0
C1360 C 0.74309 0.27458 0.73546 0.0
C1361 C 0.77975 0.24354 0.73021 0.0
C1362 C 0.80074 0.22989 0.7057 0.0
C1363 C 0.81902 0.24482 0.68519 0.0
C1364 C 0.83831 0.23178 0.66122 0.0
C1365 C 0.8397 0.20382 0.6579 0.0
C1366 C 0.82185 0.18885 0.67864 0.0
C1367 C 0.80247 0.20179 0.70256 0.0
H1368 H 0.85465 0.19376 0.63934 0.0
H1369 H 0.6673 0.31988 0.87264 0.0
H1370 H 0.75054 0.70522 0.43588 0.0
H1371 H 0.7532 0.71208 0.35752 0.0
H1372 H 0.76415 0.79731 0.39399 0.0
H1373 H 0.76193 0.79057 0.47293 0.0
H1374 H 0.72726 0.78573 0.32023 0.0
H1375 H 0.81658 0.7606 0.36795 0.0
H1376 H 0.85131 0.73266 0.40293 0.0
H1377 H 0.82539 0.66571 0.30698 0.0
H1378 H 0.79021 0.69316 0.2718 0.0
H1379 H 0.76706 0.81551 0.11071 0.0
H1380 H 0.76572 0.81055 0.19018 0.0
H1381 H 0.75584 0.72478 0.15969 0.0
H1382 H 0.7568 0.72958 0.07986 0.0
H1383 H 0.79302 0.73786 0.23116 0.0
H1384 H 0.70314 0.7626 0.18447 0.0
H1385 H 0.66832 0.79043 0.14939 0.0
H1386 H 0.69521 0.858 0.24333 0.0
H1387 H 0.73048 0.83067 0.27858 0.0
C1388 C 0.75394 0.72541 0.42747 0.0
C1389 C 0.75624 0.74732 0.46088 0.0
C1390 C 0.75533 0.7293 0.38254 0.0
C1391 C 0.75913 0.75517 0.36991 0.0
C1392 C 0.76119 0.77716 0.40299 0.0
C1393 C 0.75986 0.77328 0.44808 0.0
C1394 C 0.76065 0.75912 0.32203 0.0
C1395 C 0.74191 0.77561 0.30091 0.0
C1396 C 0.77936 0.74541 0.29657 0.0
C1397 C 0.80059 0.72888 0.31749 0.0
C1398 C 0.81814 0.73986 0.35452 0.0
C1399 C 0.83793 0.72412 0.37435 0.0
C1400 C 0.84052 0.69741 0.35726 0.0
C1401 C 0.82335 0.6864 0.32022 0.0
C1402 C 0.80349 0.70205 0.30029 0.0
C1403 C 0.76424 0.79559 0.12074 0.0
C1404 C 0.76186 0.77295 0.08874 0.0
C1405 C 0.76357 0.7928 0.16627 0.0
C1406 C 0.76041 0.76732 0.18087 0.0
C1407 C 0.75832 0.74464 0.14918 0.0
C1408 C 0.75895 0.74742 0.10356 0.0
C1409 C 0.75955 0.76435 0.22927 0.0
C1410 C 0.77842 0.74804 0.25049 0.0
C1411 C 0.74094 0.77822 0.25479 0.0
C1412 C 0.71963 0.79466 0.23387 0.0
C1413 C 0.70177 0.78346 0.19742 0.0
C1414 C 0.68193 0.79913 0.17755 0.0
C1415 C 0.6796 0.82599 0.19403 0.0
C1416 C 0.69707 0.8372 0.23054 0.0
C1417 C 0.71697 0.82162 0.25051 0.0
H1418 H 0.66423 0.83809 0.17858 0.0
H1419 H 0.85585 0.68525 0.37266 0.0
H1420 H 0.44999 0.47756 0.66628 0.0
H1421 H 0.45601 0.47985 0.58746 0.0
H1422 H 0.5387 0.50453 0.62451 0.0
H1423 H 0.53287 0.50212 0.70367 0.0
H1424 H 0.5164 0.53379 0.56226 0.0
H1425 H 0.52221 0.44049 0.57949 0.0
H1426 H 0.50808 0.39678 0.6013 0.0
H1427 H 0.43644 0.39689 0.50974 0.0
H1428 H 0.44996 0.44083 0.48784 0.0
H1429 H 0.53448 0.46734 0.32108 0.0
H1430 H 0.53062 0.46316 0.40044 0.0
H1431 H 0.48364 0.53473 0.40803 0.0
H1432 H 0.48802 0.53929 0.32908 0.0
H1433 H 0.49197 0.45601 0.44912 0.0
H1434 H 0.49551 0.56972 0.50968 0.0
H1435 H 0.51429 0.61191 0.48888 0.0
H1436 H 0.57595 0.56817 0.42688 0.0
H1437 H 0.55776 0.52578 0.44783 0.0
C1438 C 0.46956 0.48322 0.65774 0.0
C1439 C 0.49101 0.48942 0.69145 0.0
C1440 C 0.47296 0.48457 0.61256 0.0
C1441 C 0.49791 0.492 0.59987 0.0
C1442 C 0.51925 0.49872 0.63342 0.0
C1443 C 0.51586 0.4974 0.67872 0.0
C1444 C 0.50161 0.49286 0.55161 0.0
C1445 C 0.51106 0.51678 0.53755 0.0
C1446 C 0.49519 0.47052 0.51933 0.0
C1447 C 0.48699 0.44407 0.53233 0.0
C1448 C 0.50334 0.4313 0.56426 0.0
C1449 C 0.49546 0.40646 0.5766 0.0
C1450 C 0.47135 0.3941 0.557 0.0
C1451 C 0.45509 0.40652 0.52493 0.0
C1452 C 0.46287 0.43138 0.51252 0.0
C1453 C 0.52311 0.48202 0.33961 0.0
C1454 C 0.51173 0.50376 0.31895 0.0
C1455 C 0.52096 0.47966 0.38502 0.0
C1456 C 0.50727 0.4989 0.41064 0.0
C1457 C 0.49492 0.51999 0.38945 0.0
C1458 C 0.49734 0.52254 0.34425 0.0
C1459 C 0.50623 0.49715 0.45956 0.0
C1460 C 0.49729 0.47305 0.47379 0.0
C1461 C 0.51374 0.51914 0.49214 0.0
C1462 C 0.5251 0.54456 0.47998 0.0
C1463 C 0.51315 0.56913 0.49179 0.0
C1464 C 0.52368 0.59307 0.47994 0.0
C1465 C 0.54625 0.59271 0.45646 0.0
C1466 C 0.55841 0.56841 0.44493 0.0
C1467 C 0.54799 0.54442 0.45675 0.0
H1468 H 0.55435 0.61126 0.44727 0.0
H1469 H 0.46528 0.37486 0.56658 0.0
H1470 H 0.97838 0.50998 0.81981 0.0
H1471 H 0.97153 0.5091 0.89874 0.0
H1472 H 0.05706 0.50995 0.93436 0.0
H1473 H 0.06414 0.51134 0.85567 0.0
H1474 H 0.03259 0.4737 0.9783 0.0
H1475 H 0.02175 0.56601 0.9547 0.0
H1476 H 1.00342 0.60441 0.91728 0.0
H1477 H 0.92424 0.58322 0.94565 0.0
H1478 H 0.94205 0.54444 0.9827 0.0
H1479 H 0.02863 0.50539 0.21457 0.0
H1480 H 0.03725 0.50611 0.1363 0.0
H1481 H 0.9522 0.50525 0.09571 0.0
H1482 H 0.94338 0.50419 0.1736 0.0
H1483 H 0.97768 0.54195 0.05494 0.0
H1484 H 0.98938 0.44909 0.07884 0.0
H1485 H 0.00882 0.41231 0.11932 0.0
H1486 H 0.08762 0.43571 0.09223 0.0
H1487 H 0.06868 0.47294 0.05218 0.0
C1488 C 0.99579 0.51033 0.84437 0.0
C1489 C 0.02184 0.51078 0.83098 0.0
C1490 C 0.99183 0.5097 0.88963 0.0
C1491 C 0.01378 0.50959 0.92276 0.0
C1492 C 0.03978 0.50986 0.90954 0.0
C1493 C 0.04377 0.51059 0.86434 0.0
C1494 C 0.00962 0.50937 0.97113 0.0
C1495 C 0.02085 0.48882 0.99516 0.0
C1496 C 0.994 0.52884 0.99325 0.0
C1497 C 0.9832 0.55215 0.97105 0.0
C1498 C 1.00039 0.5694 0.95262 0.0
C1499 C 0.9901 0.59126 0.93154 0.0
C1500 C 0.96267 0.59621 0.92897 0.0
C1501 C 0.94548 0.57934 0.9476 0.0
C1502 C 0.95566 0.55742 0.96867 0.0
C1503 C 0.01171 0.50503 0.189 0.0
C1504 C 0.98527 0.50481 0.20072 0.0
C1505 C 0.0167 0.50553 0.14416 0.0
C1506 C 0.99538 0.50563 0.10987 0.0
C1507 C 0.96901 0.50535 0.12145 0.0
C1508 C 0.96401 0.50483 0.16618 0.0
C1509 C 1.00041 0.50616 0.06196 0.0
C1510 C 0.98938 0.5268 0.03804 0.0
C1511 C 0.0163 0.48685 0.04007 0.0
C1512 C 0.02763 0.46396 0.06286 0.0
C1513 C 0.01087 0.44648 0.08169 0.0
C1514 C 0.02179 0.42555 0.10457 0.0
C1515 C 0.04944 0.42173 0.10847 0.0
C1516 C 0.06621 0.43873 0.08925 0.0
C1517 C 0.05539 0.45973 0.06642 0.0
H1518 H 0.05787 0.40556 0.12631 0.0
H1519 H 0.95474 0.61315 0.91265 0.0
loop_
_geom_bond_atom_site_label_1
_geom_bond_atom_site_label_2
_geom_bond_distance
_geom_bond_site_symmetry_2
_ccdc_geom_bond_type
C0 Eu1 2.835 1_655 S
C0 C2 1.500 . S
C0 O20 1.270 1_655 S
C0 O21 1.260 . S
Eu1 C0 2.835 1_455 S
Eu1 O20 2.485 . S
Eu1 O21 2.480 1_455 S
Eu1 O22 2.430 1_455 S
Eu1 O23 2.670 1_455 S
Eu1 O24 2.394 1_445 S
Eu1 O29 2.355 1_545 S
Eu1 O31 2.374 . S
C2 C0 1.500 . S
C2 C3 1.377 . S
C2 C7 1.374 1_645 S
C3 C2 1.377 . S
C3 C4 1.395 . S
C3 H32 0.931 . S
C4 C3 1.395 . S
C4 C5 1.383 . S
C4 H33 0.931 . S
C5 C4 1.383 . S
C5 C6 1.394 1_545 S
C6 C5 1.394 1_565 S
C6 C7 1.375 1_655 S
C6 H34 0.931 1_655 S
C7 C2 1.374 1_465 S
C7 C6 1.375 1_455 S
C7 H35 0.936 . S
C8 O22 1.259 . S
C8 O23 1.270 . S
C9 O24 1.251 . S
C9 O25 1.251 . S
C10 Eu11 2.835 1_455 S
C10 C12 1.500 . S
C10 O26 1.264 1_455 S
C10 O27 1.260 . S
Eu11 C10 2.835 1_655 S
Eu11 O23 2.355 1_565 S
Eu11 O25 2.374 . S
Eu11 O26 2.479 . S
Eu11 O27 2.480 1_655 S
Eu11 O28 2.430 1_655 S
Eu11 O29 2.670 1_655 S
Eu11 O30 2.394 1_665 S
C12 C10 1.500 . S
C12 C13 1.377 . S
C12 C17 1.378 1_465 S
C13 C12 1.377 . S
C13 C14 1.395 . S
C13 H36 0.931 . S
C14 C13 1.395 . S
C14 C15 1.383 . S
C14 H37 0.931 . S
C15 C14 1.383 . S
C15 C16 1.394 1_565 S
C16 C15 1.394 1_545 S
C16 C17 1.378 1_455 S
C16 H38 0.931 1_455 S
C17 C12 1.378 1_645 S
C17 C16 1.378 1_655 S
C17 H39 0.930 . S
C18 O28 1.259 . S
C18 O29 1.270 . S
C19 O30 1.251 . S
C19 O31 1.251 . S
O20 C0 1.270 1_455 S
O20 Eu1 2.485 . S
O21 C0 1.260 . S
O21 Eu1 2.480 1_655 S
O22 Eu1 2.430 1_655 S
O22 C8 1.259 . S
O23 Eu1 2.670 1_655 S
O23 C8 1.270 . S
O23 Eu11 2.355 1_545 S
O24 Eu1 2.394 1_665 S
O24 C9 1.251 . S
O25 C9 1.251 . S
O25 Eu11 2.374 . S
O26 C10 1.264 1_655 S
O26 Eu11 2.479 . S
O27 C10 1.260 . S
O27 Eu11 2.480 1_455 S
O28 Eu11 2.430 1_455 S
O28 C18 1.259 . S
O29 Eu1 2.355 1_565 S
O29 Eu11 2.670 1_455 S
O29 C18 1.270 . S
O30 Eu11 2.394 1_445 S
O30 C19 1.251 . S
O31 Eu1 2.374 . S
O31 C19 1.251 . S
H32 C3 0.931 . S
H33 C4 0.931 . S
H34 C6 0.931 1_455 S
H35 C7 0.936 . S
H36 C13 0.931 . S
H37 C14 0.931 . S
H38 C16 0.931 1_655 S
H39 C17 0.930 . S
C40 Eu41 2.835 . S
C40 C42 1.500 . S
C40 O60 1.257 . S
C40 O61 1.260 . S
Eu41 C40 2.835 . S
Eu41 O60 2.473 . S
Eu41 O61 2.480 . S
Eu41 O62 2.430 . S
Eu41 O63 2.670 . S
Eu41 O64 2.394 . S
Eu41 O69 2.355 . S
Eu41 O71 2.374 . S
C42 C40 1.500 . S
C42 C43 1.377 . S
C42 C47 1.377 . S
C43 C42 1.377 . S
C43 C44 1.395 . S
C43 H72 0.931 . S
C44 C43 1.395 . S
C44 C45 1.383 1_556 S
C44 H73 0.931 1_556 S
C45 C44 1.383 1_554 S
C45 C46 1.394 . S
C46 C45 1.394 . S
C46 C47 1.378 1_554 S
C46 H74 0.931 . S
C47 C42 1.377 . S
C47 C46 1.378 1_556 S
C47 H75 0.931 . S
C48 O62 1.259 . S
C48 O63 1.270 . S
C49 O64 1.251 . S
C49 O65 1.251 . S
C50 Eu51 2.835 . S
C50 C52 1.500 . S
C50 O66 1.257 . S
C50 O67 1.260 . S
Eu51 C50 2.835 . S
Eu51 O63 2.355 . S
Eu51 O65 2.374 . S
Eu51 O66 2.473 . S
Eu51 O67 2.480 . S
Eu51 O68 2.430 . S
Eu51 O69 2.670 . S
Eu51 O70 2.394 . S
C52 C50 1.500 . S
C52 C53 1.377 . S
C52 C57 1.377 . S
C53 C52 1.377 . S
C53 C54 1.395 . S
C53 H76 0.931 . S
C54 C53 1.395 . S
C54 C55 1.383 . S
C54 H77 0.931 . S
C55 C54 1.383 . S
C55 C56 1.394 . S
C56 C55 1.394 . S
C56 C57 1.378 . S
C56 H78 0.931 . S
C57 C52 1.377 . S
C57 C56 1.378 . S
C57 H79 0.931 . S
C58 O68 1.259 . S
C58 O69 1.270 . S
C59 O70 1.251 . S
C59 O71 1.251 . S
O60 C40 1.257 . S
O60 Eu41 2.473 . S
O61 C40 1.260 . S
O61 Eu41 2.480 . S
O62 Eu41 2.430 . S
O62 C48 1.259 . S
O63 Eu41 2.670 . S
O63 C48 1.270 . S
O63 Eu51 2.355 . S
O64 Eu41 2.394 . S
O64 C49 1.251 . S
O65 C49 1.251 . S
O65 Eu51 2.374 . S
O66 C50 1.257 . S
O66 Eu51 2.473 . S
O67 C50 1.260 . S
O67 Eu51 2.480 . S
O68 Eu51 2.430 . S
O68 C58 1.259 . S
O69 Eu41 2.355 . S
O69 Eu51 2.670 . S
O69 C58 1.270 . S
O70 Eu51 2.394 . S
O70 C59 1.251 . S
O71 Eu41 2.374 . S
O71 C59 1.251 . S
H72 C43 0.931 . S
H73 C44 0.931 1_554 S
H74 C46 0.931 . S
H75 C47 0.931 . S
H76 C53 0.931 . S
H77 C54 0.931 . S
H78 C56 0.931 . S
H79 C57 0.931 . S
C80 Eu81 2.835 . S
C80 C82 1.500 . S
C80 O100 1.257 1_545 S
C80 O101 1.260 . S
Eu81 C80 2.835 . S
Eu81 O100 2.473 1_545 S
Eu81 O101 2.480 . S
Eu81 O102 2.430 . S
Eu81 O103 2.670 1_556 S
Eu81 O104 2.394 1_545 S
Eu81 O109 2.355 1_545 S
Eu81 O111 2.357 1_556 S
C82 C80 1.500 . S
C82 C83 1.377 . S
C82 C87 1.377 1_545 S
C83 C82 1.377 . S
C83 C84 1.395 . S
C83 H112 0.931 . S
C84 C83 1.395 . S
C84 C85 1.383 1_545 S
C84 H113 0.931 . S
C85 C84 1.383 1_565 S
C85 C86 1.394 . S
C86 C85 1.394 . S
C86 C87 1.378 . S
C86 H114 0.931 . S
C87 C82 1.377 1_565 S
C87 C86 1.378 . S
C87 H115 0.931 . S
C88 O102 1.259 1_554 S
C88 O103 1.270 . S
C89 O104 1.251 . S
C89 O105 1.268 . S
C90 Eu91 2.835 . S
C90 C92 1.500 . S
C90 O106 1.257 1_565 S
C90 O107 1.260 . S
Eu91 C90 2.835 . S
Eu91 O103 2.355 1_565 S
Eu91 O105 2.361 1_554 S
Eu91 O106 2.473 1_565 S
Eu91 O107 2.480 . S
Eu91 O108 2.430 . S
Eu91 O109 2.670 1_554 S
Eu91 O110 2.394 1_565 S
C92 C90 1.500 . S
C92 C93 1.377 . S
C92 C97 1.377 1_565 S
C93 C92 1.377 . S
C93 C94 1.395 . S
C93 H116 0.931 . S
C94 C93 1.395 . S
C94 C95 1.383 1_565 S
C94 H117 0.931 . S
C95 C94 1.383 1_545 S
C95 C96 1.394 . S
C96 C95 1.394 . S
C96 C97 1.378 . S
C96 H118 0.931 . S
C97 C92 1.377 1_545 S
C97 C96 1.378 . S
C97 H119 0.931 . S
C98 O108 1.259 1_556 S
C98 O109 1.270 . S
C99 O110 1.251 . S
C99 O111 1.274 . S
O100 C80 1.257 1_565 S
O100 Eu81 2.473 1_565 S
O101 C80 1.260 . S
O101 Eu81 2.480 . S
O102 Eu81 2.430 . S
O102 C88 1.259 1_556 S
O103 Eu81 2.670 1_554 S
O103 C88 1.270 . S
O103 Eu91 2.355 1_545 S
O104 Eu81 2.394 1_565 S
O104 C89 1.251 . S
O105 C89 1.268 . S
O105 Eu91 2.361 1_556 S
O106 C90 1.257 1_545 S
O106 Eu91 2.473 1_545 S
O107 C90 1.260 . S
O107 Eu91 2.480 . S
O108 Eu91 2.430 . S
O108 C98 1.259 1_554 S
O109 Eu81 2.355 1_565 S
O109 Eu91 2.670 1_556 S
O109 C98 1.270 . S
O110 Eu91 2.394 1_545 S
O110 C99 1.251 . S
O111 Eu81 2.357 1_554 S
O111 C99 1.274 . S
H112 C83 0.931 . S
H113 C84 0.931 . S
H114 C86 0.931 . S
H115 C87 0.931 . S
H116 C93 0.931 . S
H117 C94 0.931 . S
H118 C96 0.931 . S
H119 C97 0.931 . S
C120 Eu121 2.835 . S
C120 C122 1.500 . S
C120 O140 1.257 . S
C120 O141 1.260 . S
Eu121 C120 2.835 . S
Eu121 O140 2.473 . S
Eu121 O141 2.480 . S
Eu121 O142 2.430 . S
Eu121 O143 2.670 . S
Eu121 O144 2.394 . S
Eu121 O149 2.355 . S
Eu121 O151 2.374 . S
C122 C120 1.500 . S
C122 C123 1.377 . S
C122 C127 1.377 . S
C123 C122 1.377 . S
C123 C124 1.395 1_554 S
C123 H152 0.931 . S
C124 C123 1.395 1_556 S
C124 C125 1.383 . S
C124 H153 0.931 . S
C125 C124 1.383 . S
C125 C126 1.402 . S
C126 C125 1.402 . S
C126 C127 1.362 1_556 S
C126 H154 0.939 . S
C127 C122 1.377 . S
C127 C126 1.362 1_554 S
C127 H155 0.931 . S
C128 O142 1.259 . S
C128 O143 1.270 . S
C129 O144 1.251 . S
C129 O145 1.251 . S
C130 Eu131 2.835 . S
C130 C132 1.500 . S
C130 O146 1.257 . S
C130 O147 1.260 . S
Eu131 C130 2.835 . S
Eu131 O143 2.355 . S
Eu131 O145 2.374 . S
Eu131 O146 2.473 . S
Eu131 O147 2.480 . S
Eu131 O148 2.430 . S
Eu131 O149 2.670 . S
Eu131 O150 2.394 . S
C132 C130 1.500 . S
C132 C133 1.377 . S
C132 C137 1.377 . S
C133 C132 1.377 . S
C133 C134 1.395 . S
C133 H156 0.931 . S
C134 C133 1.395 . S
C134 C135 1.383 . S
C134 H157 0.931 . S
C135 C134 1.383 . S
C135 C136 1.394 . S
C136 C135 1.394 . S
C136 C137 1.378 . S
C136 H158 0.931 . S
C137 C132 1.377 . S
C137 C136 1.378 . S
C137 H159 0.931 . S
C138 O148 1.259 . S
C138 O149 1.270 . S
C139 O150 1.251 . S
C139 O151 1.251 . S
O140 C120 1.257 . S
O140 Eu121 2.473 . S
O141 C120 1.260 . S
O141 Eu121 2.480 . S
O142 Eu121 2.430 . S
O142 C128 1.259 . S
O143 Eu121 2.670 . S
O143 C128 1.270 . S
O143 Eu131 2.355 . S
O144 Eu121 2.394 . S
O144 C129 1.251 . S
O145 C129 1.251 . S
O145 Eu131 2.374 . S
O146 C130 1.257 . S
O146 Eu131 2.473 . S
O147 C130 1.260 . S
O147 Eu131 2.480 . S
O148 Eu131 2.430 . S
O148 C138 1.259 . S
O149 Eu121 2.355 . S
O149 Eu131 2.670 . S
O149 C138 1.270 . S
O150 Eu131 2.394 . S
O150 C139 1.251 . S
O151 Eu121 2.374 . S
O151 C139 1.251 . S
H152 C123 0.931 . S
H153 C124 0.931 . S
H154 C126 0.939 . S
H155 C127 0.931 . S
H156 C133 0.931 . S
H157 C134 0.931 . S
H158 C136 0.931 . S
H159 C137 0.931 . S
C160 Eu161 2.835 . S
C160 C162 1.500 . S
C160 O180 1.257 . S
C160 O181 1.260 . S
Eu161 C160 2.835 . S
Eu161 O180 2.473 . S
Eu161 O181 2.480 . S
Eu161 O182 2.430 . S
Eu161 O183 2.670 . S
Eu161 O184 2.394 . S
Eu161 O189 2.355 . S
Eu161 O191 2.374 . S
C162 C160 1.500 . S
C162 C163 1.377 . S
C162 C167 1.377 . S
C163 C162 1.377 . S
C163 C164 1.395 . S
C163 H192 0.931 . S
C164 C163 1.395 . S
C164 C165 1.383 . S
C164 H193 0.931 . S
C165 C164 1.383 . S
C165 C166 1.394 . S
C166 C165 1.394 . S
C166 C167 1.378 . S
C166 H194 0.931 . S
C167 C162 1.377 . S
C167 C166 1.378 . S
C167 H195 0.931 . S
C168 O182 1.259 . S
C168 O183 1.270 . S
C169 O184 1.251 . S
C169 O185 1.251 . S
C170 Eu171 2.835 . S
C170 C172 1.500 . S
C170 O186 1.257 . S
C170 O187 1.260 . S
Eu171 C170 2.835 . S
Eu171 O183 2.355 . S
Eu171 O185 2.374 . S
Eu171 O186 2.473 . S
Eu171 O187 2.480 . S
Eu171 O188 2.430 . S
Eu171 O189 2.670 . S
Eu171 O190 2.394 . S
C172 C170 1.500 . S
C172 C173 1.377 . S
C172 C177 1.377 . S
C173 C172 1.377 . S
C173 C174 1.395 . S
C173 H196 0.931 . S
C174 C173 1.395 . S
C174 C175 1.383 1_554 S
C174 H197 0.931 1_554 S
C175 C174 1.383 1_556 S
C175 C176 1.394 . S
C176 C175 1.394 . S
C176 C177 1.378 1_556 S
C176 H198 0.931 . S
C177 C172 1.377 . S
C177 C176 1.378 1_554 S
C177 H199 0.931 . S
C178 O188 1.259 . S
C178 O189 1.270 . S
C179 O190 1.251 . S
C179 O191 1.251 . S
O180 C160 1.257 . S
O180 Eu161 2.473 . S
O181 C160 1.260 . S
O181 Eu161 2.480 . S
O182 Eu161 2.430 . S
O182 C168 1.259 . S
O183 Eu161 2.670 . S
O183 C168 1.270 . S
O183 Eu171 2.355 . S
O184 Eu161 2.394 . S
O184 C169 1.251 . S
O185 C169 1.251 . S
O185 Eu171 2.374 . S
O186 C170 1.257 . S
O186 Eu171 2.473 . S
O187 C170 1.260 . S
O187 Eu171 2.480 . S
O188 Eu171 2.430 . S
O188 C178 1.259 . S
O189 Eu161 2.355 . S
O189 Eu171 2.670 . S
O189 C178 1.270 . S
O190 Eu171 2.394 . S
O190 C179 1.251 . S
O191 Eu161 2.374 . S
O191 C179 1.251 . S
H192 C163 0.931 . S
H193 C164 0.931 . S
H194 C166 0.931 . S
H195 C167 0.931 . S
H196 C173 0.931 . S
H197 C174 0.931 1_556 S
H198 C176 0.931 . S
H199 C177 0.931 . S
C200 Eu201 2.835 . S
C200 C202 1.500 . S
C200 O220 1.257 . S
C200 O221 1.260 . S
Eu201 C200 2.835 . S
Eu201 O220 2.473 . S
Eu201 O221 2.480 . S
Eu201 O222 2.430 . S
Eu201 O223 2.670 . S
Eu201 O224 2.394 . S
Eu201 O229 2.355 . S
Eu201 O231 2.374 . S
C202 C200 1.500 . S
C202 C203 1.377 . S
C202 C207 1.377 . S
C203 C202 1.377 . S
C203 C204 1.395 . S
C203 H232 0.931 . S
C204 C203 1.395 . S
C204 C205 1.383 . S
C204 H233 0.931 . S
C205 C204 1.383 . S
C205 C206 1.394 . S
C206 C205 1.394 . S
C206 C207 1.378 . S
C206 H234 0.931 . S
C207 C202 1.377 . S
C207 C206 1.378 . S
C207 H235 0.931 . S
C208 O222 1.259 . S
C208 O223 1.270 . S
C209 O224 1.251 . S
C209 O225 1.251 . S
C210 Eu211 2.835 . S
C210 C212 1.500 . S
C210 O226 1.257 . S
C210 O227 1.260 . S
Eu211 C210 2.835 . S
Eu211 O223 2.355 . S
Eu211 O225 2.374 . S
Eu211 O226 2.473 . S
Eu211 O227 2.480 . S
Eu211 O228 2.430 . S
Eu211 O229 2.670 . S
Eu211 O230 2.394 . S
C212 C210 1.500 . S
C212 C213 1.377 . S
C212 C217 1.377 . S
C213 C212 1.377 . S
C213 C214 1.395 1_556 S
C213 H236 0.931 . S
C214 C213 1.395 1_554 S
C214 C215 1.383 . S
C214 H237 0.931 . S
C215 C214 1.383 . S
C215 C216 1.402 . S
C216 C215 1.402 . S
C216 C217 1.362 1_554 S
C216 H238 0.939 . S
C217 C212 1.377 . S
C217 C216 1.362 1_556 S
C217 H239 0.931 . S
C218 O228 1.259 . S
C218 O229 1.270 . S
C219 O230 1.251 . S
C219 O231 1.251 . S
O220 C200 1.257 . S
O220 Eu201 2.473 . S
O221 C200 1.260 . S
O221 Eu201 2.480 . S
O222 Eu201 2.430 . S
O222 C208 1.259 . S
O223 Eu201 2.670 . S
O223 C208 1.270 . S
O223 Eu211 2.355 . S
O224 Eu201 2.394 . S
O224 C209 1.251 . S
O225 C209 1.251 . S
O225 Eu211 2.374 . S
O226 C210 1.257 . S
O226 Eu211 2.473 . S
O227 C210 1.260 . S
O227 Eu211 2.480 . S
O228 Eu211 2.430 . S
O228 C218 1.259 . S
O229 Eu201 2.355 . S
O229 Eu211 2.670 . S
O229 C218 1.270 . S
O230 Eu211 2.394 . S
O230 C219 1.251 . S
O231 Eu201 2.374 . S
O231 C219 1.251 . S
H232 C203 0.931 . S
H233 C204 0.931 . S
H234 C206 0.931 . S
H235 C207 0.931 . S
H236 C213 0.931 . S
H237 C214 0.931 . S
H238 C216 0.939 . S
H239 C217 0.931 . S
C240 Eu241 2.835 . S
C240 C242 1.500 . S
C240 O260 1.257 . S
C240 O261 1.260 . S
Eu241 C240 2.835 . S
Eu241 O260 2.473 . S
Eu241 O261 2.480 . S
Eu241 O262 2.430 . S
Eu241 O263 2.670 1_554 S
Eu241 O264 2.394 . S
Eu241 O269 2.355 . S
Eu241 O271 2.374 . S
C242 C240 1.500 . S
C242 C243 1.377 . S
C242 C247 1.377 . S
C243 C242 1.377 . S
C243 C244 1.395 . S
C243 H272 0.931 . S
C244 C243 1.395 . S
C244 C245 1.383 . S
C244 H273 0.931 . S
C245 C244 1.383 . S
C245 C246 1.394 . S
C246 C245 1.394 . S
C246 C247 1.378 . S
C246 H274 0.931 . S
C247 C242 1.377 . S
C247 C246 1.378 . S
C247 H275 0.931 . S
C248 O262 1.259 1_556 S
C248 O263 1.270 . S
C249 O264 1.251 . S
C249 O265 1.251 1_554 S
C250 Eu251 2.835 . S
C250 C252 1.500 . S
C250 O266 1.257 . S
C250 O267 1.260 . S
Eu251 C250 2.835 . S
Eu251 O263 2.355 . S
Eu251 O265 2.374 . S
Eu251 O266 2.473 . S
Eu251 O267 2.480 . S
Eu251 O268 2.430 . S
Eu251 O269 2.670 1_556 S
Eu251 O270 2.394 . S
C252 C250 1.500 . S
C252 C253 1.377 . S
C252 C257 1.377 . S
C253 C252 1.377 . S
C253 C254 1.395 . S
C253 H276 0.931 . S
C254 C253 1.395 . S
C254 C255 1.383 . S
C254 H277 0.931 . S
C255 C254 1.383 . S
C255 C256 1.394 . S
C256 C255 1.394 . S
C256 C257 1.378 . S
C256 H278 0.931 . S
C257 C252 1.377 . S
C257 C256 1.378 . S
C257 H279 0.931 . S
C258 O268 1.259 1_554 S
C258 O269 1.270 . S
C259 O270 1.251 . S
C259 O271 1.251 1_556 S
O260 C240 1.257 . S
O260 Eu241 2.473 . S
O261 C240 1.260 . S
O261 Eu241 2.480 . S
O262 Eu241 2.430 . S
O262 C248 1.259 1_554 S
O263 Eu241 2.670 1_556 S
O263 C248 1.270 . S
O263 Eu251 2.355 . S
O264 Eu241 2.394 . S
O264 C249 1.251 . S
O265 C249 1.251 1_556 S
O265 Eu251 2.374 . S
O266 C250 1.257 . S
O266 Eu251 2.473 . S
O267 C250 1.260 . S
O267 Eu251 2.480 . S
O268 Eu251 2.430 . S
O268 C258 1.259 1_556 S
O269 Eu241 2.355 . S
O269 Eu251 2.670 1_554 S
O269 C258 1.270 . S
O270 Eu251 2.394 . S
O270 C259 1.251 . S
O271 Eu241 2.374 . S
O271 C259 1.251 1_554 S
H272 C243 0.931 . S
H273 C244 0.931 . S
H274 C246 0.931 . S
H275 C247 0.931 . S
H276 C253 0.931 . S
H277 C254 0.931 . S
H278 C256 0.931 . S
H279 C257 0.931 . S
C280 Eu281 2.835 1_455 S
C280 C282 1.500 . S
C280 O300 1.257 1_455 S
C280 O301 1.260 . S
Eu281 C280 2.835 1_655 S
Eu281 O300 2.473 . S
Eu281 O301 2.480 1_655 S
Eu281 O302 2.430 1_655 S
Eu281 O303 2.670 1_655 S
Eu281 O304 2.394 1_655 S
Eu281 O309 2.355 . S
Eu281 O311 2.374 . S
C282 C280 1.500 . S
C282 C283 1.377 . S
C282 C287 1.373 1_455 S
C283 C282 1.377 . S
C283 C284 1.395 . S
C283 H312 0.931 . S
C284 C283 1.395 . S
C284 C285 1.383 . S
C284 H313 0.931 . S
C285 C284 1.383 . S
C285 C286 1.394 . S
C286 C285 1.394 . S
C286 C287 1.375 1_455 S
C286 H314 0.931 1_455 S
C287 C282 1.373 1_655 S
C287 C286 1.375 1_655 S
C287 H315 0.938 . S
C288 O302 1.259 . S
C288 O303 1.270 . S
C289 O304 1.251 . S
C289 O305 1.251 . S
C290 Eu291 2.835 1_655 S
C290 C292 1.500 . S
C290 O306 1.257 1_655 S
C290 O307 1.260 . S
Eu291 C290 2.835 1_455 S
Eu291 O303 2.355 . S
Eu291 O305 2.374 . S
Eu291 O306 2.473 . S
Eu291 O307 2.480 1_455 S
Eu291 O308 2.430 1_455 S
Eu291 O309 2.670 1_455 S
Eu291 O310 2.394 1_455 S
C292 C290 1.500 . S
C292 C293 1.377 . S
C292 C297 1.370 1_655 S
C293 C292 1.377 . S
C293 C294 1.395 . S
C293 H316 0.931 . S
C294 C293 1.395 . S
C294 C295 1.383 . S
C294 H317 0.931 . S
C295 C294 1.383 . S
C295 C296 1.394 . S
C296 C295 1.394 . S
C296 C297 1.372 1_655 S
C296 H318 0.931 1_655 S
C297 C292 1.370 1_455 S
C297 C296 1.372 1_455 S
C297 H319 0.944 . S
C298 O308 1.259 . S
C298 O309 1.270 . S
C299 O310 1.251 . S
C299 O311 1.251 . S
O300 C280 1.257 1_655 S
O300 Eu281 2.473 . S
O301 C280 1.260 . S
O301 Eu281 2.480 1_455 S
O302 Eu281 2.430 1_455 S
O302 C288 1.259 . S
O303 Eu281 2.670 1_455 S
O303 C288 1.270 . S
O303 Eu291 2.355 . S
O304 Eu281 2.394 1_455 S
O304 C289 1.251 . S
O305 C289 1.251 . S
O305 Eu291 2.374 . S
O306 C290 1.257 1_455 S
O306 Eu291 2.473 . S
O307 C290 1.260 . S
O307 Eu291 2.480 1_655 S
O308 Eu291 2.430 1_655 S
O308 C298 1.259 . S
O309 Eu281 2.355 . S
O309 Eu291 2.670 1_655 S
O309 C298 1.270 . S
O310 Eu291 2.394 1_655 S
O310 C299 1.251 . S
O311 Eu281 2.374 . S
O311 C299 1.251 . S
H312 C283 0.931 . S
H313 C284 0.931 . S
H314 C286 0.931 1_655 S
H315 C287 0.938 . S
H316 C293 0.931 . S
H317 C294 0.931 . S
H318 C296 0.931 1_455 S
H319 C297 0.944 . S
H320 C338 0.951 . S
H321 C340 0.951 . S
H322 C342 0.950 . S
H323 C343 0.950 . S
H324 C345 0.950 . S
H325 C348 0.950 . S
H326 C349 0.950 . S
H327 C351 0.950 . S
H328 C352 0.950 . S
H329 C353 0.951 . S
H330 C355 0.951 . S
H331 C357 0.950 . S
H332 C358 0.950 . S
H333 C360 0.950 . S
H334 C363 0.950 . S
H335 C364 0.950 . S
H336 C366 0.950 . S
H337 C367 0.950 . S
C338 H320 0.951 . S
C338 C339 1.366 . S
C338 C340 1.388 . S
C339 C338 1.366 . S
C339 C343 1.385 . S
C340 H321 0.951 . S
C340 C338 1.388 . S
C340 C341 1.366 . S
C341 C340 1.366 . S
C341 C342 1.414 . S
C341 C344 1.499 . S
C342 H322 0.950 . S
C342 C341 1.414 . S
C342 C343 1.374 . S
C343 H323 0.950 . S
C343 C339 1.385 . S
C343 C342 1.374 . S
C344 C341 1.499 . S
C344 C345 1.373 . S
C344 C346 1.389 . S
C345 H324 0.950 . S
C345 C344 1.373 . S
C345 C361 1.377 . S
C346 C344 1.389 . S
C346 C347 1.524 . S
C346 C360 1.377 . S
C347 C346 1.524 . S
C347 C348 1.397 . S
C347 C352 1.363 . S
C348 H325 0.950 . S
C348 C347 1.397 . S
C348 C349 1.334 . S
C349 H326 0.950 . S
C349 C348 1.334 . S
C349 C350 1.287 . S
C350 C349 1.287 . S
C350 C351 1.524 . S
C350 H369 0.913 . S
C351 H327 0.950 . S
C351 C350 1.524 . S
C351 C352 1.415 . S
C352 H328 0.950 . S
C352 C347 1.363 . S
C352 C351 1.415 . S
C353 H329 0.951 . S
C353 C354 1.366 . S
C353 C355 1.388 . S
C354 C353 1.366 . S
C354 C358 1.385 . S
C355 H330 0.951 . S
C355 C353 1.388 . S
C355 C356 1.366 . S
C356 C355 1.366 . S
C356 C357 1.414 . S
C356 C359 1.499 . S
C357 H331 0.950 . S
C357 C356 1.414 . S
C357 C358 1.374 . S
C358 H332 0.950 . S
C358 C354 1.385 . S
C358 C357 1.374 . S
C359 C356 1.499 . S
C359 C360 1.373 . S
C359 C361 1.389 . S
C360 H333 0.950 . S
C360 C346 1.377 . S
C360 C359 1.373 . S
C361 C345 1.377 . S
C361 C359 1.389 . S
C361 C362 1.524 . S
C362 C361 1.524 . S
C362 C363 1.397 . S
C362 C367 1.363 . S
C363 H334 0.950 . S
C363 C362 1.397 . S
C363 C364 1.334 . S
C364 H335 0.950 . S
C364 C363 1.334 . S
C364 C365 1.287 . S
C365 C364 1.287 . S
C365 C366 1.524 . S
C365 H368 0.999 . S
C366 H336 0.950 . S
C366 C365 1.524 . S
C366 C367 1.415 . S
C367 H337 0.950 . S
C367 C362 1.363 . S
C367 C366 1.415 . S
H368 C365 0.999 . S
H369 C350 0.913 . S
H370 C388 0.951 . S
H371 C390 0.951 . S
H372 C392 0.950 . S
H373 C393 0.950 . S
H374 C395 0.950 . S
H375 C398 0.950 . S
H376 C399 0.950 . S
H377 C401 0.950 . S
H378 C402 0.950 . S
H379 C403 0.951 . S
H380 C405 0.951 . S
H381 C407 0.950 . S
H382 C408 0.950 . S
H383 C410 0.950 . S
H384 C413 0.950 . S
H385 C414 0.950 . S
H386 C416 0.950 . S
H387 C417 0.950 . S
C388 H370 0.951 . S
C388 C389 1.366 . S
C388 C390 1.388 . S
C389 C388 1.366 . S
C389 C393 1.385 . S
C390 H371 0.951 . S
C390 C388 1.388 . S
C390 C391 1.366 . S
C391 C390 1.366 . S
C391 C392 1.414 . S
C391 C394 1.499 . S
C392 H372 0.950 . S
C392 C391 1.414 . S
C392 C393 1.374 . S
C393 H373 0.950 . S
C393 C389 1.385 . S
C393 C392 1.374 . S
C394 C391 1.499 . S
C394 C395 1.373 . S
C394 C396 1.389 . S
C395 H374 0.950 . S
C395 C394 1.373 . S
C395 C411 1.377 . S
C396 C394 1.389 . S
C396 C397 1.524 . S
C396 C410 1.377 . S
C397 C396 1.524 . S
C397 C398 1.397 . S
C397 C402 1.363 . S
C398 H375 0.950 . S
C398 C397 1.397 . S
C398 C399 1.334 . S
C399 H376 0.950 . S
C399 C398 1.334 . S
C399 C400 1.287 . S
C400 C399 1.287 . S
C400 C401 1.524 . S
C400 H419 0.913 . S
C401 H377 0.950 . S
C401 C400 1.524 . S
C401 C402 1.415 . S
C402 H378 0.950 . S
C402 C397 1.363 . S
C402 C401 1.415 . S
C403 H379 0.951 . S
C403 C404 1.366 . S
C403 C405 1.388 . S
C404 C403 1.366 . S
C404 C408 1.385 . S
C405 H380 0.951 . S
C405 C403 1.388 . S
C405 C406 1.366 . S
C406 C405 1.366 . S
C406 C407 1.414 . S
C406 C409 1.499 . S
C407 H381 0.950 . S
C407 C406 1.414 . S
C407 C408 1.374 . S
C408 H382 0.950 . S
C408 C404 1.385 . S
C408 C407 1.374 . S
C409 C406 1.499 . S
C409 C410 1.373 . S
C409 C411 1.389 . S
C410 H383 0.950 . S
C410 C396 1.377 . S
C410 C409 1.373 . S
C411 C395 1.377 . S
C411 C409 1.389 . S
C411 C412 1.524 . S
C412 C411 1.524 . S
C412 C413 1.397 . S
C412 C417 1.363 . S
C413 H384 0.950 . S
C413 C412 1.397 . S
C413 C414 1.334 . S
C414 H385 0.950 . S
C414 C413 1.334 . S
C414 C415 1.287 . S
C415 C414 1.287 . S
C415 C416 1.524 . S
C415 H418 0.999 . S
C416 H386 0.950 . S
C416 C415 1.524 . S
C416 C417 1.415 . S
C417 H387 0.950 . S
C417 C412 1.363 . S
C417 C416 1.415 . S
H418 C415 0.999 . S
H419 C400 0.913 . S
H420 C438 0.951 . S
H421 C440 0.951 . S
H422 C442 0.950 . S
H423 C443 0.950 . S
H424 C445 0.950 . S
H425 C448 0.950 . S
H426 C449 0.950 . S
H427 C451 0.950 . S
H428 C452 0.950 . S
H429 C453 0.951 . S
H430 C455 0.951 . S
H431 C457 0.950 . S
H432 C458 0.950 . S
H433 C460 0.950 . S
H434 C463 0.950 . S
H435 C464 0.950 1_554 S
H436 C466 0.950 . S
H437 C467 0.950 . S
C438 H420 0.951 . S
C438 C439 1.366 . S
C438 C440 1.388 . S
C439 C438 1.366 . S
C439 C443 1.385 . S
C440 H421 0.951 . S
C440 C438 1.388 . S
C440 C441 1.366 . S
C441 C440 1.366 . S
C441 C442 1.414 . S
C441 C444 1.499 . S
C442 H422 0.950 . S
C442 C441 1.414 . S
C442 C443 1.374 . S
C443 H423 0.950 . S
C443 C439 1.385 . S
C443 C442 1.374 . S
C444 C441 1.499 . S
C444 C445 1.373 . S
C444 C446 1.389 . S
C445 H424 0.950 . S
C445 C444 1.373 . S
C445 C461 1.377 . S
C446 C444 1.389 . S
C446 C447 1.524 . S
C446 C460 1.377 . S
C447 C446 1.524 . S
C447 C448 1.397 . S
C447 C452 1.363 . S
C448 H425 0.950 . S
C448 C447 1.397 . S
C448 C449 1.334 . S
C449 H426 0.950 . S
C449 C448 1.334 . S
C449 C450 1.287 . S
C450 C449 1.287 . S
C450 C451 1.524 . S
C450 H469 0.913 . S
C451 H427 0.950 . S
C451 C450 1.524 . S
C451 C452 1.415 . S
C452 H428 0.950 . S
C452 C447 1.363 . S
C452 C451 1.415 . S
C453 H429 0.951 . S
C453 C454 1.366 . S
C453 C455 1.388 . S
C454 C453 1.366 . S
C454 C458 1.385 . S
C455 H430 0.951 . S
C455 C453 1.388 . S
C455 C456 1.366 . S
C456 C455 1.366 . S
C456 C457 1.414 . S
C456 C459 1.499 . S
C457 H431 0.950 . S
C457 C456 1.414 . S
C457 C458 1.374 . S
C458 H432 0.950 . S
C458 C454 1.385 . S
C458 C457 1.374 . S
C459 C456 1.499 . S
C459 C460 1.373 . S
C459 C461 1.389 . S
C460 H433 0.950 . S
C460 C446 1.377 . S
C460 C459 1.373 . S
C461 C445 1.377 . S
C461 C459 1.389 . S
C461 C462 1.524 . S
C462 C461 1.524 . S
C462 C463 1.397 . S
C462 C467 1.363 . S
C463 H434 0.950 . S
C463 C462 1.397 . S
C463 C464 1.334 . S
C464 H435 0.950 1_556 S
C464 C463 1.334 . S
C464 C465 1.287 . S
C465 C464 1.287 . S
C465 C466 1.524 . S
C465 H468 0.999 . S
C466 H436 0.950 . S
C466 C465 1.524 . S
C466 C467 1.415 . S
C467 H437 0.950 . S
C467 C462 1.363 . S
C467 C466 1.415 . S
H468 C465 0.999 . S
H469 C450 0.913 . S
H470 C488 0.951 . S
H471 C490 0.951 . S
H472 C492 0.950 . S
H473 C493 0.950 . S
H474 C495 0.950 . S
H475 C498 0.950 . S
H476 C499 0.950 . S
H477 C501 0.950 . S
H478 C502 0.950 . S
H479 C503 0.951 . S
H480 C505 0.951 . S
H481 C507 0.950 . S
H482 C508 0.950 . S
H483 C510 0.950 . S
H484 C513 0.950 . S
H485 C514 0.950 . S
H486 C516 0.950 . S
H487 C517 0.950 . S
C488 H470 0.951 . S
C488 C489 1.366 . S
C488 C490 1.388 . S
C489 C488 1.366 . S
C489 C493 1.385 . S
C490 H471 0.951 . S
C490 C488 1.388 . S
C490 C491 1.366 . S
C491 C490 1.366 . S
C491 C492 1.414 . S
C491 C494 1.499 . S
C492 H472 0.950 . S
C492 C491 1.414 . S
C492 C493 1.374 . S
C493 H473 0.950 . S
C493 C489 1.385 . S
C493 C492 1.374 . S
C494 C491 1.499 . S
C494 C495 1.373 . S
C494 C496 1.389 . S
C495 H474 0.950 . S
C495 C494 1.373 . S
C495 C511 1.377 . S
C496 C494 1.389 . S
C496 C497 1.524 . S
C496 C510 1.377 . S
C497 C496 1.524 . S
C497 C498 1.397 . S
C497 C502 1.363 . S
C498 H475 0.950 . S
C498 C497 1.397 . S
C498 C499 1.334 . S
C499 H476 0.950 . S
C499 C498 1.334 . S
C499 C500 1.287 . S
C500 C499 1.287 . S
C500 C501 1.524 1_554 S
C500 H519 0.913 1_554 S
C501 H477 0.950 . S
C501 C500 1.524 1_556 S
C501 C502 1.415 1_556 S
C502 H478 0.950 . S
C502 C497 1.363 . S
C502 C501 1.415 1_554 S
C503 H479 0.951 . S
C503 C504 1.366 . S
C503 C505 1.388 . S
C504 C503 1.366 . S
C504 C508 1.385 . S
C505 H480 0.951 . S
C505 C503 1.388 . S
C505 C506 1.366 . S
C506 C505 1.366 . S
C506 C507 1.414 . S
C506 C509 1.499 . S
C507 H481 0.950 . S
C507 C506 1.414 . S
C507 C508 1.374 . S
C508 H482 0.950 . S
C508 C504 1.385 . S
C508 C507 1.374 . S
C509 C506 1.499 . S
C509 C510 1.373 . S
C509 C511 1.389 . S
C510 H483 0.950 . S
C510 C496 1.377 . S
C510 C509 1.373 . S
C511 C495 1.377 . S
C511 C509 1.389 . S
C511 C512 1.524 . S
C512 C511 1.524 . S
C512 C513 1.397 . S
C512 C517 1.363 . S
C513 H484 0.950 . S
C513 C512 1.397 . S
C513 C514 1.334 . S
C514 H485 0.950 . S
C514 C513 1.334 . S
C514 C515 1.287 . S
C515 C514 1.287 . S
C515 C516 1.524 . S
C515 H518 0.999 . S
C516 H486 0.950 . S
C516 C515 1.524 . S
C516 C517 1.415 . S
C517 H487 0.950 . S
C517 C512 1.363 . S
C517 C516 1.415 . S
H518 C515 0.999 . S
H519 C500 0.913 1_556 S
H520 C538 0.951 . S
H521 C540 0.951 . S
H522 C542 0.950 . S
H523 C543 0.950 . S
H524 C545 0.950 . S
H525 C548 0.950 . S
H526 C549 0.950 . S
H527 C551 0.950 . S
H528 C552 0.950 . S
H529 C553 0.951 . S
H530 C555 0.951 . S
H531 C557 0.950 . S
H532 C558 0.950 . S
H533 C560 0.950 . S
H534 C563 0.950 . S
H535 C564 0.950 . S
H536 C566 0.950 . S
H537 C567 0.950 . S
C538 H520 0.951 . S
C538 C539 1.366 . S
C538 C540 1.388 . S
C539 C538 1.366 . S
C539 C543 1.385 . S
C540 H521 0.951 . S
C540 C538 1.388 . S
C540 C541 1.366 . S
C541 C540 1.366 . S
C541 C542 1.414 . S
C541 C544 1.499 . S
C542 H522 0.950 . S
C542 C541 1.414 . S
C542 C543 1.374 . S
C543 H523 0.950 . S
C543 C539 1.385 . S
C543 C542 1.374 . S
C544 C541 1.499 . S
C544 C545 1.373 . S
C544 C546 1.389 . S
C545 H524 0.950 . S
C545 C544 1.373 . S
C545 C561 1.377 . S
C546 C544 1.389 . S
C546 C547 1.524 . S
C546 C560 1.377 . S
C547 C546 1.524 . S
C547 C548 1.397 . S
C547 C552 1.363 . S
C548 H525 0.950 . S
C548 C547 1.397 . S
C548 C549 1.334 . S
C549 H526 0.950 . S
C549 C548 1.334 . S
C549 C550 1.287 . S
C550 C549 1.287 . S
C550 C551 1.524 . S
C550 H569 0.913 . S
C551 H527 0.950 . S
C551 C550 1.524 . S
C551 C552 1.415 . S
C552 H528 0.950 . S
C552 C547 1.363 . S
C552 C551 1.415 . S
C553 H529 0.951 . S
C553 C554 1.366 . S
C553 C555 1.388 . S
C554 C553 1.366 . S
C554 C558 1.385 . S
C555 H530 0.951 . S
C555 C553 1.388 . S
C555 C556 1.366 . S
C556 C555 1.366 . S
C556 C557 1.414 . S
C556 C559 1.499 . S
C557 H531 0.950 . S
C557 C556 1.414 . S
C557 C558 1.374 . S
C558 H532 0.950 . S
C558 C554 1.385 . S
C558 C557 1.374 . S
C559 C556 1.499 . S
C559 C560 1.373 . S
C559 C561 1.389 . S
C560 H533 0.950 . S
C560 C546 1.377 . S
C560 C559 1.373 . S
C561 C545 1.377 . S
C561 C559 1.389 . S
C561 C562 1.524 . S
C562 C561 1.524 . S
C562 C563 1.397 . S
C562 C567 1.363 . S
C563 H534 0.950 . S
C563 C562 1.397 . S
C563 C564 1.334 . S
C564 H535 0.950 . S
C564 C563 1.334 . S
C564 C565 1.287 . S
C565 C564 1.287 . S
C565 C566 1.524 . S
C565 H568 0.999 . S
C566 H536 0.950 . S
C566 C565 1.524 . S
C566 C567 1.415 . S
C567 H537 0.950 . S
C567 C562 1.363 . S
C567 C566 1.415 . S
H568 C565 0.999 . S
H569 C550 0.913 . S
H570 C588 0.951 . S
H571 C590 0.951 . S
H572 C592 0.950 . S
H573 C593 0.950 . S
H574 C595 0.950 . S
H575 C598 0.950 . S
H576 C599 0.950 . S
H577 C601 0.950 . S
H578 C602 0.950 . S
H579 C603 0.951 . S
H580 C605 0.951 . S
H581 C607 0.950 . S
H582 C608 0.950 . S
H583 C610 0.950 . S
H584 C613 0.950 . S
H585 C614 0.950 . S
H586 C616 0.950 . S
H587 C617 0.950 . S
C588 H570 0.951 . S
C588 C589 1.366 . S
C588 C590 1.388 . S
C589 C588 1.366 . S
C589 C593 1.385 . S
C590 H571 0.951 . S
C590 C588 1.388 . S
C590 C591 1.366 . S
C591 C590 1.366 . S
C591 C592 1.414 . S
C591 C594 1.499 . S
C592 H572 0.950 . S
C592 C591 1.414 . S
C592 C593 1.374 . S
C593 H573 0.950 . S
C593 C589 1.385 . S
C593 C592 1.374 . S
C594 C591 1.499 . S
C594 C595 1.373 . S
C594 C596 1.389 . S
C595 H574 0.950 . S
C595 C594 1.373 . S
C595 C611 1.377 . S
C596 C594 1.389 . S
C596 C597 1.524 . S
C596 C610 1.377 . S
C597 C596 1.524 . S
C597 C598 1.397 . S
C597 C602 1.363 . S
C598 H575 0.950 . S
C598 C597 1.397 . S
C598 C599 1.334 . S
C599 H576 0.950 . S
C599 C598 1.334 . S
C599 C600 1.287 . S
C600 C599 1.287 . S
C600 C601 1.524 . S
C600 H619 0.913 . S
C601 H577 0.950 . S
C601 C600 1.524 . S
C601 C602 1.415 . S
C602 H578 0.950 . S
C602 C597 1.363 . S
C602 C601 1.415 . S
C603 H579 0.951 . S
C603 C604 1.366 . S
C603 C605 1.388 . S
C604 C603 1.366 . S
C604 C608 1.385 . S
C605 H580 0.951 . S
C605 C603 1.388 . S
C605 C606 1.366 . S
C606 C605 1.366 . S
C606 C607 1.414 . S
C606 C609 1.499 . S
C607 H581 0.950 . S
C607 C606 1.414 . S
C607 C608 1.374 . S
C608 H582 0.950 . S
C608 C604 1.385 . S
C608 C607 1.374 . S
C609 C606 1.499 . S
C609 C610 1.373 . S
C609 C611 1.389 . S
C610 H583 0.950 . S
C610 C596 1.377 . S
C610 C609 1.373 . S
C611 C595 1.377 . S
C611 C609 1.389 . S
C611 C612 1.524 . S
C612 C611 1.524 . S
C612 C613 1.397 . S
C612 C617 1.363 . S
C613 H584 0.950 . S
C613 C612 1.397 . S
C613 C614 1.334 . S
C614 H585 0.950 . S
C614 C613 1.334 . S
C614 C615 1.287 . S
C615 C614 1.287 . S
C615 C616 1.524 . S
C615 H618 0.999 . S
C616 H586 0.950 . S
C616 C615 1.524 . S
C616 C617 1.415 . S
C617 H587 0.950 . S
C617 C612 1.363 . S
C617 C616 1.415 . S
H618 C615 0.999 . S
H619 C600 0.913 . S
H620 C638 0.951 . S
H621 C640 0.951 . S
H622 C642 0.950 . S
H623 C643 0.950 . S
H624 C645 0.950 . S
H625 C648 0.950 . S
H626 C649 0.950 . S
H627 C651 0.950 . S
H628 C652 0.950 . S
H629 C653 0.951 . S
H630 C655 0.951 . S
H631 C657 0.950 . S
H632 C658 0.950 . S
H633 C660 0.950 . S
H634 C663 0.950 . S
H635 C664 0.950 . S
H636 C666 0.950 . S
H637 C667 0.950 . S
C638 H620 0.951 . S
C638 C639 1.366 . S
C638 C640 1.388 . S
C639 C638 1.366 . S
C639 C643 1.385 . S
C640 H621 0.951 . S
C640 C638 1.388 . S
C640 C641 1.366 . S
C641 C640 1.366 . S
C641 C642 1.414 . S
C641 C644 1.499 . S
C642 H622 0.950 . S
C642 C641 1.414 . S
C642 C643 1.374 . S
C643 H623 0.950 . S
C643 C639 1.385 . S
C643 C642 1.374 . S
C644 C641 1.499 . S
C644 C645 1.373 . S
C644 C646 1.389 . S
C645 H624 0.950 . S
C645 C644 1.373 . S
C645 C661 1.377 . S
C646 C644 1.389 . S
C646 C647 1.524 . S
C646 C660 1.377 . S
C647 C646 1.524 . S
C647 C648 1.397 . S
C647 C652 1.363 . S
C648 H625 0.950 . S
C648 C647 1.397 . S
C648 C649 1.334 . S
C649 H626 0.950 . S
C649 C648 1.334 . S
C649 C650 1.287 . S
C650 C649 1.287 . S
C650 C651 1.524 . S
C650 H669 0.913 . S
C651 H627 0.950 . S
C651 C650 1.524 . S
C651 C652 1.415 . S
C652 H628 0.950 . S
C652 C647 1.363 . S
C652 C651 1.415 . S
C653 H629 0.951 . S
C653 C654 1.366 . S
C653 C655 1.388 . S
C654 C653 1.366 . S
C654 C658 1.385 . S
C655 H630 0.951 . S
C655 C653 1.388 . S
C655 C656 1.366 . S
C656 C655 1.366 . S
C656 C657 1.414 . S
C656 C659 1.499 . S
C657 H631 0.950 . S
C657 C656 1.414 . S
C657 C658 1.374 . S
C658 H632 0.950 . S
C658 C654 1.385 . S
C658 C657 1.374 . S
C659 C656 1.499 . S
C659 C660 1.373 . S
C659 C661 1.389 . S
C660 H633 0.950 . S
C660 C646 1.377 . S
C660 C659 1.373 . S
C661 C645 1.377 . S
C661 C659 1.389 . S
C661 C662 1.524 . S
C662 C661 1.524 . S
C662 C663 1.397 . S
C662 C667 1.363 . S
C663 H634 0.950 . S
C663 C662 1.397 . S
C663 C664 1.334 1_554 S
C664 H635 0.950 . S
C664 C663 1.334 1_556 S
C664 C665 1.287 . S
C665 C664 1.287 . S
C665 C666 1.524 1_556 S
C665 H668 0.999 . S
C666 H636 0.950 . S
C666 C665 1.524 1_554 S
C666 C667 1.415 . S
C667 H637 0.950 . S
C667 C662 1.363 . S
C667 C666 1.415 . S
H668 C665 0.999 . S
H669 C650 0.913 . S
H670 C688 0.951 . S
H671 C690 0.951 . S
H672 C692 0.950 . S
H673 C693 0.950 . S
H674 C695 0.950 . S
H675 C698 0.950 . S
H676 C699 0.950 . S
H677 C701 0.950 . S
H678 C702 0.950 . S
H679 C703 0.951 . S
H680 C705 0.951 . S
H681 C707 0.950 . S
H682 C708 0.950 . S
H683 C710 0.950 . S
H684 C713 0.950 . S
H685 C714 0.950 . S
H686 C716 0.950 . S
H687 C717 0.950 . S
C688 H670 0.951 . S
C688 C689 1.366 . S
C688 C690 1.388 . S
C689 C688 1.366 . S
C689 C693 1.385 . S
C690 H671 0.951 . S
C690 C688 1.388 . S
C690 C691 1.366 . S
C691 C690 1.366 . S
C691 C692 1.414 . S
C691 C694 1.499 . S
C692 H672 0.950 . S
C692 C691 1.414 . S
C692 C693 1.374 . S
C693 H673 0.950 . S
C693 C689 1.385 . S
C693 C692 1.374 . S
C694 C691 1.499 . S
C694 C695 1.373 . S
C694 C696 1.389 . S
C695 H674 0.950 . S
C695 C694 1.373 . S
C695 C711 1.377 . S
C696 C694 1.389 . S
C696 C697 1.524 . S
C696 C710 1.377 . S
C697 C696 1.524 . S
C697 C698 1.397 . S
C697 C702 1.363 . S
C698 H675 0.950 . S
C698 C697 1.397 . S
C698 C699 1.334 . S
C699 H676 0.950 . S
C699 C698 1.334 . S
C699 C700 1.287 . S
C700 C699 1.287 . S
C700 C701 1.524 . S
C700 H719 0.913 . S
C701 H677 0.950 . S
C701 C700 1.524 . S
C701 C702 1.415 . S
C702 H678 0.950 . S
C702 C697 1.363 . S
C702 C701 1.415 . S
C703 H679 0.951 . S
C703 C704 1.366 . S
C703 C705 1.388 . S
C704 C703 1.366 . S
C704 C708 1.385 . S
C705 H680 0.951 . S
C705 C703 1.388 . S
C705 C706 1.366 . S
C706 C705 1.366 . S
C706 C707 1.414 . S
C706 C709 1.499 . S
C707 H681 0.950 . S
C707 C706 1.414 . S
C707 C708 1.374 . S
C708 H682 0.950 . S
C708 C704 1.385 . S
C708 C707 1.374 . S
C709 C706 1.499 . S
C709 C710 1.373 . S
C709 C711 1.389 . S
C710 H683 0.950 . S
C710 C696 1.377 . S
C710 C709 1.373 . S
C711 C695 1.377 . S
C711 C709 1.389 . S
C711 C712 1.524 . S
C712 C711 1.524 . S
C712 C713 1.397 . S
C712 C717 1.363 . S
C713 H684 0.950 . S
C713 C712 1.397 . S
C713 C714 1.334 1_556 S
C714 H685 0.950 . S
C714 C713 1.334 1_554 S
C714 C715 1.287 . S
C715 C714 1.287 . S
C715 C716 1.524 1_554 S
C715 H718 0.999 . S
C716 H686 0.950 . S
C716 C715 1.524 1_556 S
C716 C717 1.415 . S
C717 H687 0.950 . S
C717 C712 1.363 . S
C717 C716 1.415 . S
H718 C715 0.999 . S
H719 C700 0.913 . S
H720 C738 0.951 1_554 S
H721 C740 0.951 . S
H722 C742 0.950 . S
H723 C743 0.950 . S
H724 C745 0.950 . S
H725 C748 0.950 . S
H726 C749 0.950 . S
H727 C751 0.950 1_554 S
H728 C752 0.950 . S
H729 C753 0.951 . S
H730 C755 0.951 . S
H731 C757 0.950 . S
H732 C758 0.950 . S
H733 C760 0.950 . S
H734 C763 0.950 . S
H735 C764 0.950 . S
H736 C766 0.950 . S
H737 C767 0.950 . S
C738 H720 0.951 1_556 S
C738 C739 1.366 . S
C738 C740 1.388 . S
C739 C738 1.366 . S
C739 C743 1.385 . S
C740 H721 0.951 . S
C740 C738 1.388 . S
C740 C741 1.366 . S
C741 C740 1.366 . S
C741 C742 1.414 . S
C741 C744 1.499 . S
C742 H722 0.950 . S
C742 C741 1.414 . S
C742 C743 1.374 . S
C743 H723 0.950 . S
C743 C739 1.385 . S
C743 C742 1.374 . S
C744 C741 1.499 . S
C744 C745 1.373 . S
C744 C746 1.389 . S
C745 H724 0.950 . S
C745 C744 1.373 . S
C745 C761 1.377 . S
C746 C744 1.389 . S
C746 C747 1.524 . S
C746 C760 1.377 . S
C747 C746 1.524 . S
C747 C748 1.397 . S
C747 C752 1.363 . S
C748 H725 0.950 . S
C748 C747 1.397 . S
C748 C749 1.334 . S
C749 H726 0.950 . S
C749 C748 1.334 . S
C749 C750 1.287 . S
C750 C749 1.287 . S
C750 C751 1.524 . S
C750 H769 0.913 . S
C751 H727 0.950 1_556 S
C751 C750 1.524 . S
C751 C752 1.415 . S
C752 H728 0.950 . S
C752 C747 1.363 . S
C752 C751 1.415 . S
C753 H729 0.951 . S
C753 C754 1.366 . S
C753 C755 1.388 . S
C754 C753 1.366 . S
C754 C758 1.385 . S
C755 H730 0.951 . S
C755 C753 1.388 . S
C755 C756 1.366 . S
C756 C755 1.366 . S
C756 C757 1.414 . S
C756 C759 1.499 . S
C757 H731 0.950 . S
C757 C756 1.414 . S
C757 C758 1.374 . S
C758 H732 0.950 . S
C758 C754 1.385 . S
C758 C757 1.374 . S
C759 C756 1.499 . S
C759 C760 1.373 . S
C759 C761 1.389 . S
C760 H733 0.950 . S
C760 C746 1.377 . S
C760 C759 1.373 . S
C761 C745 1.377 . S
C761 C759 1.389 . S
C761 C762 1.524 . S
C762 C761 1.524 . S
C762 C763 1.397 . S
C762 C767 1.363 . S
C763 H734 0.950 . S
C763 C762 1.397 . S
C763 C764 1.334 . S
C764 H735 0.950 . S
C764 C763 1.334 . S
C764 C765 1.287 . S
C765 C764 1.287 . S
C765 C766 1.524 . S
C765 H768 0.999 . S
C766 H736 0.950 . S
C766 C765 1.524 . S
C766 C767 1.415 . S
C767 H737 0.950 . S
C767 C762 1.363 . S
C767 C766 1.415 . S
H768 C765 0.999 . S
H769 C750 0.913 . S
H770 C788 0.951 . S
H771 C790 0.951 . S
H772 C792 0.950 . S
H773 C793 0.950 . S
H774 C795 0.950 . S
H775 C798 0.950 . S
H776 C799 0.950 . S
H777 C801 0.950 . S
H778 C802 0.950 . S
H779 C803 0.951 . S
H780 C805 0.951 . S
H781 C807 0.950 . S
H782 C808 0.950 . S
H783 C810 0.950 . S
H784 C813 0.950 . S
H785 C814 0.950 . S
H786 C816 0.950 . S
H787 C817 0.950 . S
C788 H770 0.951 . S
C788 C789 1.366 . S
C788 C790 1.388 . S
C789 C788 1.366 . S
C789 C793 1.385 . S
C790 H771 0.951 . S
C790 C788 1.388 . S
C790 C791 1.366 . S
C791 C790 1.366 . S
C791 C792 1.414 . S
C791 C794 1.499 . S
C792 H772 0.950 . S
C792 C791 1.414 . S
C792 C793 1.374 . S
C793 H773 0.950 . S
C793 C789 1.385 . S
C793 C792 1.374 . S
C794 C791 1.499 . S
C794 C795 1.373 . S
C794 C796 1.389 . S
C795 H774 0.950 . S
C795 C794 1.373 . S
C795 C811 1.377 . S
C796 C794 1.389 . S
C796 C797 1.524 . S
C796 C810 1.377 . S
C797 C796 1.524 . S
C797 C798 1.397 . S
C797 C802 1.363 . S
C798 H775 0.950 . S
C798 C797 1.397 . S
C798 C799 1.334 . S
C799 H776 0.950 . S
C799 C798 1.334 . S
C799 C800 1.287 1_554 S
C800 C799 1.287 1_556 S
C800 C801 1.524 . S
C800 H819 0.913 . S
C801 H777 0.950 . S
C801 C800 1.524 . S
C801 C802 1.415 1_556 S
C802 H778 0.950 . S
C802 C797 1.363 . S
C802 C801 1.415 1_554 S
C803 H779 0.951 . S
C803 C804 1.366 . S
C803 C805 1.388 . S
C804 C803 1.366 . S
C804 C808 1.385 . S
C805 H780 0.951 . S
C805 C803 1.388 . S
C805 C806 1.366 . S
C806 C805 1.366 . S
C806 C807 1.414 . S
C806 C809 1.499 . S
C807 H781 0.950 . S
C807 C806 1.414 . S
C807 C808 1.374 . S
C808 H782 0.950 . S
C808 C804 1.385 . S
C808 C807 1.374 . S
C809 C806 1.499 . S
C809 C810 1.373 . S
C809 C811 1.389 . S
C810 H783 0.950 . S
C810 C796 1.377 . S
C810 C809 1.373 . S
C811 C795 1.377 . S
C811 C809 1.389 . S
C811 C812 1.524 . S
C812 C811 1.524 . S
C812 C813 1.397 . S
C812 C817 1.363 . S
C813 H784 0.950 . S
C813 C812 1.397 . S
C813 C814 1.334 . S
C814 H785 0.950 . S
C814 C813 1.334 . S
C814 C815 1.287 . S
C815 C814 1.287 . S
C815 C816 1.524 . S
C815 H818 0.999 . S
C816 H786 0.950 . S
C816 C815 1.524 . S
C816 C817 1.415 . S
C817 H787 0.950 . S
C817 C812 1.363 . S
C817 C816 1.415 . S
H818 C815 0.999 . S
H819 C800 0.913 . S
H820 C838 0.951 . S
H821 C840 0.951 . S
H822 C842 0.950 . S
H823 C843 0.950 . S
H824 C845 0.950 . S
H825 C848 0.950 . S
H826 C849 0.950 . S
H827 C851 0.950 . S
H828 C852 0.950 . S
H829 C853 0.951 . S
H830 C855 0.951 . S
H831 C857 0.950 . S
H832 C858 0.950 . S
H833 C860 0.950 . S
H834 C863 0.950 . S
H835 C864 0.950 . S
H836 C866 0.950 . S
H837 C867 0.950 . S
C838 H820 0.951 . S
C838 C839 1.366 . S
C838 C840 1.388 . S
C839 C838 1.366 . S
C839 C843 1.385 . S
C840 H821 0.951 . S
C840 C838 1.388 . S
C840 C841 1.366 . S
C841 C840 1.366 . S
C841 C842 1.414 . S
C841 C844 1.499 . S
C842 H822 0.950 . S
C842 C841 1.414 . S
C842 C843 1.374 . S
C843 H823 0.950 . S
C843 C839 1.385 . S
C843 C842 1.374 . S
C844 C841 1.499 . S
C844 C845 1.373 . S
C844 C846 1.389 . S
C845 H824 0.950 . S
C845 C844 1.373 . S
C845 C861 1.377 . S
C846 C844 1.389 . S
C846 C847 1.524 . S
C846 C860 1.377 . S
C847 C846 1.524 . S
C847 C848 1.397 . S
C847 C852 1.363 . S
C848 H825 0.950 . S
C848 C847 1.397 . S
C848 C849 1.334 . S
C849 H826 0.950 . S
C849 C848 1.334 . S
C849 C850 1.287 . S
C850 C849 1.287 . S
C850 C851 1.524 . S
C850 H869 0.913 . S
C851 H827 0.950 . S
C851 C850 1.524 . S
C851 C852 1.415 . S
C852 H828 0.950 . S
C852 C847 1.363 . S
C852 C851 1.415 . S
C853 H829 0.951 . S
C853 C854 1.366 . S
C853 C855 1.388 . S
C854 C853 1.366 . S
C854 C858 1.385 . S
C855 H830 0.951 . S
C855 C853 1.388 . S
C855 C856 1.366 . S
C856 C855 1.366 . S
C856 C857 1.414 . S
C856 C859 1.499 . S
C857 H831 0.950 . S
C857 C856 1.414 . S
C857 C858 1.374 . S
C858 H832 0.950 . S
C858 C854 1.385 . S
C858 C857 1.374 . S
C859 C856 1.499 . S
C859 C860 1.373 . S
C859 C861 1.389 . S
C860 H833 0.950 . S
C860 C846 1.377 . S
C860 C859 1.373 . S
C861 C845 1.377 . S
C861 C859 1.389 . S
C861 C862 1.524 . S
C862 C861 1.524 . S
C862 C863 1.397 . S
C862 C867 1.363 . S
C863 H834 0.950 . S
C863 C862 1.397 . S
C863 C864 1.334 . S
C864 H835 0.950 . S
C864 C863 1.334 . S
C864 C865 1.287 . S
C865 C864 1.287 . S
C865 C866 1.524 . S
C865 H868 0.999 . S
C866 H836 0.950 . S
C866 C865 1.524 . S
C866 C867 1.415 . S
C867 H837 0.950 . S
C867 C862 1.363 . S
C867 C866 1.415 . S
H868 C865 0.999 . S
H869 C850 0.913 . S
H870 C888 0.951 . S
H871 C890 0.951 . S
H872 C892 0.950 . S
H873 C893 0.950 . S
H874 C895 0.950 . S
H875 C898 0.950 . S
H876 C899 0.950 . S
H877 C901 0.950 . S
H878 C902 0.950 . S
H879 C903 0.951 . S
H880 C905 0.951 . S
H881 C907 0.950 . S
H882 C908 0.950 . S
H883 C910 0.950 . S
H884 C913 0.950 . S
H885 C914 0.950 . S
H886 C916 0.950 . S
H887 C917 0.950 . S
C888 H870 0.951 . S
C888 C889 1.366 . S
C888 C890 1.388 . S
C889 C888 1.366 . S
C889 C893 1.385 . S
C890 H871 0.951 . S
C890 C888 1.388 . S
C890 C891 1.366 . S
C891 C890 1.366 . S
C891 C892 1.414 . S
C891 C894 1.499 . S
C892 H872 0.950 . S
C892 C891 1.414 . S
C892 C893 1.374 . S
C893 H873 0.950 . S
C893 C889 1.385 . S
C893 C892 1.374 . S
C894 C891 1.499 . S
C894 C895 1.373 . S
C894 C896 1.389 . S
C895 H874 0.950 . S
C895 C894 1.373 . S
C895 C911 1.377 . S
C896 C894 1.389 . S
C896 C897 1.524 . S
C896 C910 1.377 . S
C897 C896 1.524 . S
C897 C898 1.397 . S
C897 C902 1.363 . S
C898 H875 0.950 . S
C898 C897 1.397 . S
C898 C899 1.334 . S
C899 H876 0.950 . S
C899 C898 1.334 . S
C899 C900 1.287 . S
C900 C899 1.287 . S
C900 C901 1.524 . S
C900 H919 0.913 . S
C901 H877 0.950 . S
C901 C900 1.524 . S
C901 C902 1.415 . S
C902 H878 0.950 . S
C902 C897 1.363 . S
C902 C901 1.415 . S
C903 H879 0.951 . S
C903 C904 1.366 . S
C903 C905 1.388 . S
C904 C903 1.366 . S
C904 C908 1.385 . S
C905 H880 0.951 . S
C905 C903 1.388 . S
C905 C906 1.366 . S
C906 C905 1.366 . S
C906 C907 1.414 . S
C906 C909 1.499 . S
C907 H881 0.950 . S
C907 C906 1.414 . S
C907 C908 1.374 . S
C908 H882 0.950 . S
C908 C904 1.385 . S
C908 C907 1.374 . S
C909 C906 1.499 . S
C909 C910 1.373 . S
C909 C911 1.389 . S
C910 H883 0.950 . S
C910 C896 1.377 . S
C910 C909 1.373 . S
C911 C895 1.377 . S
C911 C909 1.389 . S
C911 C912 1.524 . S
C912 C911 1.524 . S
C912 C913 1.397 . S
C912 C917 1.363 . S
C913 H884 0.950 . S
C913 C912 1.397 . S
C913 C914 1.334 . S
C914 H885 0.950 . S
C914 C913 1.334 . S
C914 C915 1.287 . S
C915 C914 1.287 . S
C915 C916 1.524 . S
C915 H918 0.999 . S
C916 H886 0.950 . S
C916 C915 1.524 . S
C916 C917 1.415 . S
C917 H887 0.950 . S
C917 C912 1.363 . S
C917 C916 1.415 . S
H918 C915 0.999 . S
H919 C900 0.913 . S
H920 C938 0.951 . S
H921 C940 0.951 . S
H922 C942 0.950 . S
H923 C943 0.950 . S
H924 C945 0.950 . S
H925 C948 0.950 . S
H926 C949 0.950 . S
H927 C951 0.950 . S
H928 C952 0.950 . S
H929 C953 0.951 . S
H930 C955 0.951 . S
H931 C957 0.950 . S
H932 C958 0.950 . S
H933 C960 0.950 . S
H934 C963 0.950 . S
H935 C964 0.950 . S
H936 C966 0.950 . S
H937 C967 0.950 . S
C938 H920 0.951 . S
C938 C939 1.366 . S
C938 C940 1.388 . S
C939 C938 1.366 . S
C939 C943 1.385 . S
C940 H921 0.951 . S
C940 C938 1.388 . S
C940 C941 1.366 . S
C941 C940 1.366 . S
C941 C942 1.414 . S
C941 C944 1.499 . S
C942 H922 0.950 . S
C942 C941 1.414 . S
C942 C943 1.374 . S
C943 H923 0.950 . S
C943 C939 1.385 . S
C943 C942 1.374 . S
C944 C941 1.499 . S
C944 C945 1.373 . S
C944 C946 1.389 . S
C945 H924 0.950 . S
C945 C944 1.373 . S
C945 C961 1.377 . S
C946 C944 1.389 . S
C946 C947 1.524 . S
C946 C960 1.377 . S
C947 C946 1.524 . S
C947 C948 1.397 . S
C947 C952 1.363 . S
C948 H925 0.950 . S
C948 C947 1.397 . S
C948 C949 1.334 . S
C949 H926 0.950 . S
C949 C948 1.334 . S
C949 C950 1.287 . S
C950 C949 1.287 . S
C950 C951 1.524 1_554 S
C950 H969 0.913 1_554 S
C951 H927 0.950 . S
C951 C950 1.524 1_556 S
C951 C952 1.415 1_556 S
C952 H928 0.950 . S
C952 C947 1.363 . S
C952 C951 1.415 1_554 S
C953 H929 0.951 . S
C953 C954 1.366 . S
C953 C955 1.388 . S
C954 C953 1.366 . S
C954 C958 1.385 . S
C955 H930 0.951 . S
C955 C953 1.388 . S
C955 C956 1.366 . S
C956 C955 1.366 . S
C956 C957 1.414 . S
C956 C959 1.499 . S
C957 H931 0.950 . S
C957 C956 1.414 . S
C957 C958 1.374 . S
C958 H932 0.950 . S
C958 C954 1.385 . S
C958 C957 1.374 . S
C959 C956 1.499 . S
C959 C960 1.373 . S
C959 C961 1.389 . S
C960 H933 0.950 . S
C960 C946 1.377 . S
C960 C959 1.373 . S
C961 C945 1.377 . S
C961 C959 1.389 . S
C961 C962 1.524 . S
C962 C961 1.524 . S
C962 C963 1.397 . S
C962 C967 1.363 . S
C963 H934 0.950 . S
C963 C962 1.397 . S
C963 C964 1.334 . S
C964 H935 0.950 . S
C964 C963 1.334 . S
C964 C965 1.287 . S
C965 C964 1.287 . S
C965 C966 1.524 . S
C965 H968 0.999 . S
C966 H936 0.950 . S
C966 C965 1.524 . S
C966 C967 1.415 . S
C967 H937 0.950 . S
C967 C962 1.363 . S
C967 C966 1.415 . S
H968 C965 0.999 . S
H969 C950 0.913 1_556 S
H970 C988 0.951 . S
H971 C990 0.951 . S
H972 C992 0.950 . S
H973 C993 0.950 . S
H974 C995 0.950 . S
H975 C998 0.950 . S
H976 C999 0.950 . S
H977 C1001 0.950 . S
H978 C1002 0.950 . S
H979 C1003 0.951 . S
H980 C1005 0.951 . S
H981 C1007 0.950 . S
H982 C1008 0.950 . S
H983 C1010 0.950 . S
H984 C1013 0.950 . S
H985 C1014 0.950 . S
H986 C1016 0.950 . S
H987 C1017 0.950 . S
C988 H970 0.951 . S
C988 C989 1.366 . S
C988 C990 1.388 . S
C989 C988 1.366 . S
C989 C993 1.385 . S
C990 H971 0.951 . S
C990 C988 1.388 . S
C990 C991 1.366 . S
C991 C990 1.366 . S
C991 C992 1.414 . S
C991 C994 1.499 . S
C992 H972 0.950 . S
C992 C991 1.414 . S
C992 C993 1.374 . S
C993 H973 0.950 . S
C993 C989 1.385 . S
C993 C992 1.374 . S
C994 C991 1.499 . S
C994 C995 1.373 . S
C994 C996 1.389 . S
C995 H974 0.950 . S
C995 C994 1.373 . S
C995 C1011 1.377 . S
C996 C994 1.389 . S
C996 C997 1.524 . S
C996 C1010 1.377 . S
C997 C996 1.524 . S
C997 C998 1.397 . S
C997 C1002 1.363 . S
C998 H975 0.950 . S
C998 C997 1.397 . S
C998 C999 1.334 1_556 S
C999 H976 0.950 . S
C999 C998 1.334 1_554 S
C999 C1000 1.287 1_554 S
C1000 C999 1.287 1_556 S
C1000 C1001 1.524 . S
C1000 H1019 0.913 1_556 S
C1001 H977 0.950 . S
C1001 C1000 1.524 . S
C1001 C1002 1.415 . S
C1002 H978 0.950 . S
C1002 C997 1.363 . S
C1002 C1001 1.415 . S
C1003 H979 0.951 . S
C1003 C1004 1.366 . S
C1003 C1005 1.388 . S
C1004 C1003 1.366 . S
C1004 C1008 1.385 . S
C1005 H980 0.951 . S
C1005 C1003 1.388 . S
C1005 C1006 1.366 . S
C1006 C1005 1.366 . S
C1006 C1007 1.414 . S
C1006 C1009 1.499 . S
C1007 H981 0.950 . S
C1007 C1006 1.414 . S
C1007 C1008 1.374 . S
C1008 H982 0.950 . S
C1008 C1004 1.385 . S
C1008 C1007 1.374 . S
C1009 C1006 1.499 . S
C1009 C1010 1.373 . S
C1009 C1011 1.389 . S
C1010 H983 0.950 . S
C1010 C996 1.377 . S
C1010 C1009 1.373 . S
C1011 C995 1.377 . S
C1011 C1009 1.389 . S
C1011 C1012 1.524 . S
C1012 C1011 1.524 . S
C1012 C1013 1.397 . S
C1012 C1017 1.363 . S
C1013 H984 0.950 . S
C1013 C1012 1.397 . S
C1013 C1014 1.334 . S
C1014 H985 0.950 . S
C1014 C1013 1.334 . S
C1014 C1015 1.287 . S
C1015 C1014 1.287 . S
C1015 C1016 1.524 . S
C1015 H1018 0.999 . S
C1016 H986 0.950 . S
C1016 C1015 1.524 . S
C1016 C1017 1.415 . S
C1017 H987 0.950 . S
C1017 C1012 1.363 . S
C1017 C1016 1.415 . S
H1018 C1015 0.999 . S
H1019 C1000 0.913 1_554 S
H1020 C1038 0.951 . S
H1021 C1040 0.951 . S
H1022 C1042 0.950 . S
H1023 C1043 0.950 . S
H1024 C1045 0.950 . S
H1025 C1048 0.950 . S
H1026 C1049 0.950 . S
H1027 C1051 0.950 . S
H1028 C1052 0.950 . S
H1029 C1053 0.951 . S
H1030 C1055 0.951 . S
H1031 C1057 0.950 . S
H1032 C1058 0.950 . S
H1033 C1060 0.950 . S
H1034 C1063 0.950 . S
H1035 C1064 0.950 . S
H1036 C1066 0.950 . S
H1037 C1067 0.950 . S
C1038 H1020 0.951 . S
C1038 C1039 1.366 . S
C1038 C1040 1.388 . S
C1039 C1038 1.366 . S
C1039 C1043 1.385 . S
C1040 H1021 0.951 . S
C1040 C1038 1.388 . S
C1040 C1041 1.366 . S
C1041 C1040 1.366 . S
C1041 C1042 1.414 . S
C1041 C1044 1.499 . S
C1042 H1022 0.950 . S
C1042 C1041 1.414 . S
C1042 C1043 1.374 . S
C1043 H1023 0.950 . S
C1043 C1039 1.385 . S
C1043 C1042 1.374 . S
C1044 C1041 1.499 . S
C1044 C1045 1.373 . S
C1044 C1046 1.389 . S
C1045 H1024 0.950 . S
C1045 C1044 1.373 . S
C1045 C1061 1.377 . S
C1046 C1044 1.389 . S
C1046 C1047 1.524 . S
C1046 C1060 1.377 . S
C1047 C1046 1.524 . S
C1047 C1048 1.397 . S
C1047 C1052 1.363 . S
C1048 H1025 0.950 . S
C1048 C1047 1.397 . S
C1048 C1049 1.334 . S
C1049 H1026 0.950 . S
C1049 C1048 1.334 . S
C1049 C1050 1.287 . S
C1050 C1049 1.287 . S
C1050 C1051 1.524 . S
C1050 H1069 0.913 . S
C1051 H1027 0.950 . S
C1051 C1050 1.524 . S
C1051 C1052 1.415 . S
C1052 H1028 0.950 . S
C1052 C1047 1.363 . S
C1052 C1051 1.415 . S
C1053 H1029 0.951 . S
C1053 C1054 1.366 . S
C1053 C1055 1.388 . S
C1054 C1053 1.366 . S
C1054 C1058 1.385 . S
C1055 H1030 0.951 . S
C1055 C1053 1.388 . S
C1055 C1056 1.366 . S
C1056 C1055 1.366 . S
C1056 C1057 1.414 . S
C1056 C1059 1.499 . S
C1057 H1031 0.950 . S
C1057 C1056 1.414 . S
C1057 C1058 1.374 . S
C1058 H1032 0.950 . S
C1058 C1054 1.385 . S
C1058 C1057 1.374 . S
C1059 C1056 1.499 . S
C1059 C1060 1.373 . S
C1059 C1061 1.389 . S
C1060 H1033 0.950 . S
C1060 C1046 1.377 . S
C1060 C1059 1.373 . S
C1061 C1045 1.377 . S
C1061 C1059 1.389 . S
C1061 C1062 1.524 . S
C1062 C1061 1.524 . S
C1062 C1063 1.397 . S
C1062 C1067 1.363 . S
C1063 H1034 0.950 . S
C1063 C1062 1.397 . S
C1063 C1064 1.334 . S
C1064 H1035 0.950 . S
C1064 C1063 1.334 . S
C1064 C1065 1.287 . S
C1065 C1064 1.287 . S
C1065 C1066 1.524 . S
C1065 H1068 0.999 . S
C1066 H1036 0.950 . S
C1066 C1065 1.524 . S
C1066 C1067 1.415 . S
C1067 H1037 0.950 . S
C1067 C1062 1.363 . S
C1067 C1066 1.415 . S
H1068 C1065 0.999 . S
H1069 C1050 0.913 . S
H1070 C1088 0.951 . S
H1071 C1090 0.951 . S
H1072 C1092 0.950 . S
H1073 C1093 0.950 . S
H1074 C1095 0.950 . S
H1075 C1098 0.950 . S
H1076 C1099 0.950 . S
H1077 C1101 0.950 . S
H1078 C1102 0.950 . S
H1079 C1103 0.951 . S
H1080 C1105 0.951 . S
H1081 C1107 0.950 . S
H1082 C1108 0.950 . S
H1083 C1110 0.950 . S
H1084 C1113 0.950 . S
H1085 C1114 0.950 . S
H1086 C1116 0.950 . S
H1087 C1117 0.950 . S
C1088 H1070 0.951 . S
C1088 C1089 1.366 . S
C1088 C1090 1.388 . S
C1089 C1088 1.366 . S
C1089 C1093 1.385 . S
C1090 H1071 0.951 . S
C1090 C1088 1.388 . S
C1090 C1091 1.366 . S
C1091 C1090 1.366 . S
C1091 C1092 1.414 . S
C1091 C1094 1.499 . S
C1092 H1072 0.950 . S
C1092 C1091 1.414 . S
C1092 C1093 1.374 . S
C1093 H1073 0.950 . S
C1093 C1089 1.385 . S
C1093 C1092 1.374 . S
C1094 C1091 1.499 . S
C1094 C1095 1.373 . S
C1094 C1096 1.389 . S
C1095 H1074 0.950 . S
C1095 C1094 1.373 . S
C1095 C1111 1.377 . S
C1096 C1094 1.389 . S
C1096 C1097 1.524 . S
C1096 C1110 1.377 . S
C1097 C1096 1.524 . S
C1097 C1098 1.397 . S
C1097 C1102 1.363 . S
C1098 H1075 0.950 . S
C1098 C1097 1.397 . S
C1098 C1099 1.334 . S
C1099 H1076 0.950 . S
C1099 C1098 1.334 . S
C1099 C1100 1.287 . S
C1100 C1099 1.287 . S
C1100 C1101 1.524 . S
C1100 H1119 0.913 . S
C1101 H1077 0.950 . S
C1101 C1100 1.524 . S
C1101 C1102 1.415 . S
C1102 H1078 0.950 . S
C1102 C1097 1.363 . S
C1102 C1101 1.415 . S
C1103 H1079 0.951 . S
C1103 C1104 1.366 . S
C1103 C1105 1.388 . S
C1104 C1103 1.366 . S
C1104 C1108 1.385 . S
C1105 H1080 0.951 . S
C1105 C1103 1.388 . S
C1105 C1106 1.366 . S
C1106 C1105 1.366 . S
C1106 C1107 1.414 . S
C1106 C1109 1.499 . S
C1107 H1081 0.950 . S
C1107 C1106 1.414 . S
C1107 C1108 1.374 . S
C1108 H1082 0.950 . S
C1108 C1104 1.385 . S
C1108 C1107 1.374 . S
C1109 C1106 1.499 . S
C1109 C1110 1.373 . S
C1109 C1111 1.389 . S
C1110 H1083 0.950 . S
C1110 C1096 1.377 . S
C1110 C1109 1.373 . S
C1111 C1095 1.377 . S
C1111 C1109 1.389 . S
C1111 C1112 1.524 . S
C1112 C1111 1.524 . S
C1112 C1113 1.397 . S
C1112 C1117 1.363 . S
C1113 H1084 0.950 . S
C1113 C1112 1.397 . S
C1113 C1114 1.334 . S
C1114 H1085 0.950 . S
C1114 C1113 1.334 . S
C1114 C1115 1.287 . S
C1115 C1114 1.287 . S
C1115 C1116 1.524 . S
C1115 H1118 0.999 . S
C1116 H1086 0.950 . S
C1116 C1115 1.524 . S
C1116 C1117 1.415 . S
C1117 H1087 0.950 . S
C1117 C1112 1.363 . S
C1117 C1116 1.415 . S
H1118 C1115 0.999 . S
H1119 C1100 0.913 . S
H1120 C1138 0.933 1_455 S
H1121 C1140 0.951 . S
H1122 C1142 0.950 . S
H1123 C1143 0.950 . S
H1124 C1145 0.950 . S
H1125 C1148 0.950 . S
H1126 C1149 0.950 . S
H1127 C1151 0.950 . S
H1128 C1152 0.950 1_455 S
H1129 C1153 0.928 1_655 S
H1130 C1155 0.951 . S
H1131 C1157 0.950 . S
H1132 C1158 0.950 . S
H1133 C1160 0.950 . S
H1134 C1163 0.950 . S
H1135 C1164 0.950 . S
H1136 C1166 0.950 . S
H1137 C1167 0.950 1_655 S
C1138 H1120 0.933 1_655 S
C1138 C1139 1.383 1_565 S
C1138 C1140 1.389 1_655 S
C1139 C1138 1.383 1_545 S
C1139 C1143 1.385 . S
C1140 H1121 0.951 . S
C1140 C1138 1.389 1_455 S
C1140 C1141 1.366 1_465 S
C1141 C1140 1.366 1_645 S
C1141 C1142 1.414 . S
C1141 C1144 1.499 . S
C1142 H1122 0.950 . S
C1142 C1141 1.414 . S
C1142 C1143 1.374 . S
C1143 H1123 0.950 . S
C1143 C1139 1.385 . S
C1143 C1142 1.374 . S
C1144 C1141 1.499 . S
C1144 C1145 1.373 1_655 S
C1144 C1146 1.389 1_545 S
C1145 H1124 0.950 . S
C1145 C1144 1.373 1_455 S
C1145 C1161 1.377 1_556 S
C1146 C1144 1.389 1_565 S
C1146 C1147 1.524 . S
C1146 C1160 1.377 1_556 S
C1147 C1146 1.524 . S
C1147 C1148 1.397 . S
C1147 C1152 1.363 . S
C1148 H1125 0.950 . S
C1148 C1147 1.397 . S
C1148 C1149 1.334 . S
C1149 H1126 0.950 . S
C1149 C1148 1.334 . S
C1149 C1150 1.287 . S
C1150 C1149 1.287 . S
C1150 C1151 1.524 . S
C1150 H1169 0.913 . S
C1151 H1127 0.950 . S
C1151 C1150 1.524 . S
C1151 C1152 1.415 . S
C1152 H1128 0.950 1_655 S
C1152 C1147 1.363 . S
C1152 C1151 1.415 . S
C1153 H1129 0.928 1_455 S
C1153 C1154 1.388 1_545 S
C1153 C1155 1.389 1_455 S
C1154 C1153 1.388 1_565 S
C1154 C1158 1.385 . S
C1155 H1130 0.951 . S
C1155 C1153 1.389 1_655 S
C1155 C1156 1.366 1_645 S
C1156 C1155 1.366 1_465 S
C1156 C1157 1.414 . S
C1156 C1159 1.499 . S
C1157 H1131 0.950 . S
C1157 C1156 1.414 . S
C1157 C1158 1.374 . S
C1158 H1132 0.950 . S
C1158 C1154 1.385 . S
C1158 C1157 1.374 . S
C1159 C1156 1.499 . S
C1159 C1160 1.373 1_455 S
C1159 C1161 1.389 1_565 S
C1160 H1133 0.950 . S
C1160 C1146 1.377 1_554 S
C1160 C1159 1.373 1_655 S
C1161 C1145 1.377 1_554 S
C1161 C1159 1.389 1_545 S
C1161 C1162 1.524 . S
C1162 C1161 1.524 . S
C1162 C1163 1.397 . S
C1162 C1167 1.363 . S
C1163 H1134 0.950 . S
C1163 C1162 1.397 . S
C1163 C1164 1.334 . S
C1164 H1135 0.950 . S
C1164 C1163 1.334 . S
C1164 C1165 1.287 . S
C1165 C1164 1.287 . S
C1165 C1166 1.524 . S
C1165 H1168 0.999 . S
C1166 H1136 0.950 . S
C1166 C1165 1.524 . S
C1166 C1167 1.415 . S
C1167 H1137 0.950 1_455 S
C1167 C1162 1.363 . S
C1167 C1166 1.415 . S
H1168 C1165 0.999 . S
H1169 C1150 0.913 . S
H1170 C1188 0.951 . S
H1171 C1190 0.951 . S
H1172 C1192 0.950 . S
H1173 C1193 0.950 . S
H1174 C1195 0.950 . S
H1175 C1198 0.950 . S
H1176 C1199 0.950 . S
H1177 C1201 0.950 . S
H1178 C1202 0.950 . S
H1179 C1203 0.951 . S
H1180 C1205 0.951 . S
H1181 C1207 0.950 . S
H1182 C1208 0.950 . S
H1183 C1210 0.950 . S
H1184 C1213 0.950 . S
H1185 C1214 0.950 . S
H1186 C1216 0.950 . S
H1187 C1217 0.950 . S
C1188 H1170 0.951 . S
C1188 C1189 1.366 . S
C1188 C1190 1.388 . S
C1189 C1188 1.366 . S
C1189 C1193 1.385 . S
C1190 H1171 0.951 . S
C1190 C1188 1.388 . S
C1190 C1191 1.366 . S
C1191 C1190 1.366 . S
C1191 C1192 1.414 . S
C1191 C1194 1.499 . S
C1192 H1172 0.950 . S
C1192 C1191 1.414 . S
C1192 C1193 1.374 . S
C1193 H1173 0.950 . S
C1193 C1189 1.385 . S
C1193 C1192 1.374 . S
C1194 C1191 1.499 . S
C1194 C1195 1.373 . S
C1194 C1196 1.389 . S
C1195 H1174 0.950 . S
C1195 C1194 1.373 . S
C1195 C1211 1.377 . S
C1196 C1194 1.389 . S
C1196 C1197 1.524 . S
C1196 C1210 1.377 . S
C1197 C1196 1.524 . S
C1197 C1198 1.397 . S
C1197 C1202 1.363 . S
C1198 H1175 0.950 . S
C1198 C1197 1.397 . S
C1198 C1199 1.334 . S
C1199 H1176 0.950 . S
C1199 C1198 1.334 . S
C1199 C1200 1.287 . S
C1200 C1199 1.287 . S
C1200 C1201 1.524 . S
C1200 H1219 0.913 . S
C1201 H1177 0.950 . S
C1201 C1200 1.524 . S
C1201 C1202 1.415 . S
C1202 H1178 0.950 . S
C1202 C1197 1.363 . S
C1202 C1201 1.415 . S
C1203 H1179 0.951 . S
C1203 C1204 1.366 . S
C1203 C1205 1.388 . S
C1204 C1203 1.366 . S
C1204 C1208 1.385 . S
C1205 H1180 0.951 . S
C1205 C1203 1.388 . S
C1205 C1206 1.366 . S
C1206 C1205 1.366 . S
C1206 C1207 1.414 . S
C1206 C1209 1.499 . S
C1207 H1181 0.950 . S
C1207 C1206 1.414 . S
C1207 C1208 1.374 . S
C1208 H1182 0.950 . S
C1208 C1204 1.385 . S
C1208 C1207 1.374 . S
C1209 C1206 1.499 . S
C1209 C1210 1.373 . S
C1209 C1211 1.389 . S
C1210 H1183 0.950 . S
C1210 C1196 1.377 . S
C1210 C1209 1.373 . S
C1211 C1195 1.377 . S
C1211 C1209 1.389 . S
C1211 C1212 1.524 . S
C1212 C1211 1.524 . S
C1212 C1213 1.397 . S
C1212 C1217 1.363 . S
C1213 H1184 0.950 . S
C1213 C1212 1.397 . S
C1213 C1214 1.334 . S
C1214 H1185 0.950 . S
C1214 C1213 1.334 . S
C1214 C1215 1.287 . S
C1215 C1214 1.287 . S
C1215 C1216 1.524 . S
C1215 H1218 0.999 . S
C1216 H1186 0.950 . S
C1216 C1215 1.524 . S
C1216 C1217 1.415 . S
C1217 H1187 0.950 . S
C1217 C1212 1.363 . S
C1217 C1216 1.415 . S
H1218 C1215 0.999 . S
H1219 C1200 0.913 . S
H1220 C1238 0.951 . S
H1221 C1240 0.951 . S
H1222 C1242 0.950 . S
H1223 C1243 0.950 . S
H1224 C1245 0.950 . S
H1225 C1248 0.950 . S
H1226 C1249 0.950 . S
H1227 C1251 0.950 . S
H1228 C1252 0.950 . S
H1229 C1253 0.951 . S
H1230 C1255 0.951 . S
H1231 C1257 0.950 . S
H1232 C1258 0.950 . S
H1233 C1260 0.950 . S
H1234 C1263 0.950 . S
H1235 C1264 0.950 . S
H1236 C1266 0.950 . S
H1237 C1267 0.950 . S
C1238 H1220 0.951 . S
C1238 C1239 1.366 1_545 S
C1238 C1240 1.388 . S
C1239 C1238 1.366 1_565 S
C1239 C1243 1.385 . S
C1240 H1221 0.951 . S
C1240 C1238 1.388 . S
C1240 C1241 1.366 1_545 S
C1241 C1240 1.366 1_565 S
C1241 C1242 1.414 . S
C1241 C1244 1.499 . S
C1242 H1222 0.950 . S
C1242 C1241 1.414 . S
C1242 C1243 1.374 . S
C1243 H1223 0.950 . S
C1243 C1239 1.385 . S
C1243 C1242 1.374 . S
C1244 C1241 1.499 . S
C1244 C1245 1.373 . S
C1244 C1246 1.390 . S
C1245 H1224 0.950 . S
C1245 C1244 1.373 . S
C1245 C1261 1.372 1_565 S
C1246 C1244 1.390 . S
C1246 C1247 1.525 . S
C1246 C1260 1.375 1_565 S
C1247 C1246 1.525 . S
C1247 C1248 1.397 . S
C1247 C1252 1.363 1_565 S
C1248 H1225 0.950 . S
C1248 C1247 1.397 . S
C1248 C1249 1.334 . S
C1249 H1226 0.950 . S
C1249 C1248 1.334 . S
C1249 C1250 1.287 . S
C1250 C1249 1.287 . S
C1250 C1251 1.524 1_565 S
C1250 H1269 0.913 . S
C1251 H1227 0.950 . S
C1251 C1250 1.524 1_545 S
C1251 C1252 1.415 . S
C1252 H1228 0.950 . S
C1252 C1247 1.363 1_545 S
C1252 C1251 1.415 . S
C1253 H1229 0.951 . S
C1253 C1254 1.366 1_565 S
C1253 C1255 1.388 . S
C1254 C1253 1.366 1_545 S
C1254 C1258 1.385 . S
C1255 H1230 0.951 . S
C1255 C1253 1.388 . S
C1255 C1256 1.366 1_565 S
C1256 C1255 1.366 1_545 S
C1256 C1257 1.414 . S
C1256 C1259 1.499 . S
C1257 H1231 0.950 . S
C1257 C1256 1.414 . S
C1257 C1258 1.374 . S
C1258 H1232 0.950 . S
C1258 C1254 1.385 . S
C1258 C1257 1.374 . S
C1259 C1256 1.499 . S
C1259 C1260 1.373 . S
C1259 C1261 1.392 . S
C1260 H1233 0.950 . S
C1260 C1246 1.375 1_545 S
C1260 C1259 1.373 . S
C1261 C1245 1.372 1_545 S
C1261 C1259 1.392 . S
C1261 C1262 1.527 . S
C1262 C1261 1.527 . S
C1262 C1263 1.397 . S
C1262 C1267 1.363 1_545 S
C1263 H1234 0.950 . S
C1263 C1262 1.397 . S
C1263 C1264 1.334 . S
C1264 H1235 0.950 . S
C1264 C1263 1.334 . S
C1264 C1265 1.287 . S
C1265 C1264 1.287 . S
C1265 C1266 1.524 1_545 S
C1265 H1268 0.999 . S
C1266 H1236 0.950 . S
C1266 C1265 1.524 1_565 S
C1266 C1267 1.415 . S
C1267 H1237 0.950 . S
C1267 C1262 1.363 1_565 S
C1267 C1266 1.415 . S
H1268 C1265 0.999 . S
H1269 C1250 0.913 . S
H1270 C1288 0.951 . S
H1271 C1290 0.951 . S
H1272 C1292 0.950 . S
H1273 C1293 0.950 . S
H1274 C1295 0.950 . S
H1275 C1298 0.950 . S
H1276 C1299 0.950 . S
H1277 C1301 0.950 . S
H1278 C1302 0.950 . S
H1279 C1303 0.951 . S
H1280 C1305 0.951 . S
H1281 C1307 0.950 . S
H1282 C1308 0.950 . S
H1283 C1310 0.950 . S
H1284 C1313 0.950 . S
H1285 C1314 0.950 . S
H1286 C1316 0.950 . S
H1287 C1317 0.950 . S
C1288 H1270 0.951 . S
C1288 C1289 1.366 . S
C1288 C1290 1.388 . S
C1289 C1288 1.366 . S
C1289 C1293 1.385 . S
C1290 H1271 0.951 . S
C1290 C1288 1.388 . S
C1290 C1291 1.366 . S
C1291 C1290 1.366 . S
C1291 C1292 1.414 . S
C1291 C1294 1.499 . S
C1292 H1272 0.950 . S
C1292 C1291 1.414 . S
C1292 C1293 1.374 . S
C1293 H1273 0.950 . S
C1293 C1289 1.385 . S
C1293 C1292 1.374 . S
C1294 C1291 1.499 . S
C1294 C1295 1.373 . S
C1294 C1296 1.389 . S
C1295 H1274 0.950 . S
C1295 C1294 1.373 . S
C1295 C1311 1.377 . S
C1296 C1294 1.389 . S
C1296 C1297 1.524 . S
C1296 C1310 1.377 . S
C1297 C1296 1.524 . S
C1297 C1298 1.397 . S
C1297 C1302 1.363 . S
C1298 H1275 0.950 . S
C1298 C1297 1.397 . S
C1298 C1299 1.334 . S
C1299 H1276 0.950 . S
C1299 C1298 1.334 . S
C1299 C1300 1.287 . S
C1300 C1299 1.287 . S
C1300 C1301 1.524 . S
C1300 H1319 0.913 . S
C1301 H1277 0.950 . S
C1301 C1300 1.524 . S
C1301 C1302 1.415 . S
C1302 H1278 0.950 . S
C1302 C1297 1.363 . S
C1302 C1301 1.415 . S
C1303 H1279 0.951 . S
C1303 C1304 1.366 . S
C1303 C1305 1.388 . S
C1304 C1303 1.366 . S
C1304 C1308 1.385 . S
C1305 H1280 0.951 . S
C1305 C1303 1.388 . S
C1305 C1306 1.366 . S
C1306 C1305 1.366 . S
C1306 C1307 1.414 . S
C1306 C1309 1.499 . S
C1307 H1281 0.950 . S
C1307 C1306 1.414 . S
C1307 C1308 1.374 . S
C1308 H1282 0.950 . S
C1308 C1304 1.385 . S
C1308 C1307 1.374 . S
C1309 C1306 1.499 . S
C1309 C1310 1.373 . S
C1309 C1311 1.389 . S
C1310 H1283 0.950 . S
C1310 C1296 1.377 . S
C1310 C1309 1.373 . S
C1311 C1295 1.377 . S
C1311 C1309 1.389 . S
C1311 C1312 1.524 . S
C1312 C1311 1.524 . S
C1312 C1313 1.397 . S
C1312 C1317 1.363 . S
C1313 H1284 0.950 . S
C1313 C1312 1.397 . S
C1313 C1314 1.334 . S
C1314 H1285 0.950 . S
C1314 C1313 1.334 . S
C1314 C1315 1.287 . S
C1315 C1314 1.287 . S
C1315 C1316 1.524 . S
C1315 H1318 0.999 . S
C1316 H1286 0.950 . S
C1316 C1315 1.524 . S
C1316 C1317 1.415 . S
C1317 H1287 0.950 . S
C1317 C1312 1.363 . S
C1317 C1316 1.415 . S
H1318 C1315 0.999 . S
H1319 C1300 0.913 . S
H1320 C1338 0.951 . S
H1321 C1340 0.951 . S
H1322 C1342 0.950 . S
H1323 C1343 0.950 . S
H1324 C1345 0.950 . S
H1325 C1348 0.950 . S
H1326 C1349 0.950 . S
H1327 C1351 0.950 . S
H1328 C1352 0.950 . S
H1329 C1353 0.951 . S
H1330 C1355 0.951 . S
H1331 C1357 0.950 . S
H1332 C1358 0.950 . S
H1333 C1360 0.950 . S
H1334 C1363 0.950 . S
H1335 C1364 0.950 . S
H1336 C1366 0.950 . S
H1337 C1367 0.950 . S
C1338 H1320 0.951 . S
C1338 C1339 1.366 . S
C1338 C1340 1.388 . S
C1339 C1338 1.366 . S
C1339 C1343 1.385 . S
C1340 H1321 0.951 . S
C1340 C1338 1.388 . S
C1340 C1341 1.366 . S
C1341 C1340 1.366 . S
C1341 C1342 1.414 . S
C1341 C1344 1.499 . S
C1342 H1322 0.950 . S
C1342 C1341 1.414 . S
C1342 C1343 1.374 . S
C1343 H1323 0.950 . S
C1343 C1339 1.385 . S
C1343 C1342 1.374 . S
C1344 C1341 1.499 . S
C1344 C1345 1.373 . S
C1344 C1346 1.389 . S
C1345 H1324 0.950 . S
C1345 C1344 1.373 . S
C1345 C1361 1.377 . S
C1346 C1344 1.389 . S
C1346 C1347 1.524 . S
C1346 C1360 1.377 . S
C1347 C1346 1.524 . S
C1347 C1348 1.397 . S
C1347 C1352 1.363 . S
C1348 H1325 0.950 . S
C1348 C1347 1.397 . S
C1348 C1349 1.334 . S
C1349 H1326 0.950 . S
C1349 C1348 1.334 . S
C1349 C1350 1.287 . S
C1350 C1349 1.287 . S
C1350 C1351 1.524 . S
C1350 H1369 0.913 . S
C1351 H1327 0.950 . S
C1351 C1350 1.524 . S
C1351 C1352 1.415 . S
C1352 H1328 0.950 . S
C1352 C1347 1.363 . S
C1352 C1351 1.415 . S
C1353 H1329 0.951 . S
C1353 C1354 1.366 . S
C1353 C1355 1.388 . S
C1354 C1353 1.366 . S
C1354 C1358 1.385 . S
C1355 H1330 0.951 . S
C1355 C1353 1.388 . S
C1355 C1356 1.366 . S
C1356 C1355 1.366 . S
C1356 C1357 1.414 . S
C1356 C1359 1.499 . S
C1357 H1331 0.950 . S
C1357 C1356 1.414 . S
C1357 C1358 1.374 . S
C1358 H1332 0.950 . S
C1358 C1354 1.385 . S
C1358 C1357 1.374 . S
C1359 C1356 1.499 . S
C1359 C1360 1.373 . S
C1359 C1361 1.389 . S
C1360 H1333 0.950 . S
C1360 C1346 1.377 . S
C1360 C1359 1.373 . S
C1361 C1345 1.377 . S
C1361 C1359 1.389 . S
C1361 C1362 1.524 . S
C1362 C1361 1.524 . S
C1362 C1363 1.397 . S
C1362 C1367 1.363 . S
C1363 H1334 0.950 . S
C1363 C1362 1.397 . S
C1363 C1364 1.334 . S
C1364 H1335 0.950 . S
C1364 C1363 1.334 . S
C1364 C1365 1.287 . S
C1365 C1364 1.287 . S
C1365 C1366 1.524 . S
C1365 H1368 0.999 . S
C1366 H1336 0.950 . S
C1366 C1365 1.524 . S
C1366 C1367 1.415 . S
C1367 H1337 0.950 . S
C1367 C1362 1.363 . S
C1367 C1366 1.415 . S
H1368 C1365 0.999 . S
H1369 C1350 0.913 . S
H1370 C1388 0.951 . S
H1371 C1390 0.951 . S
H1372 C1392 0.950 . S
H1373 C1393 0.950 . S
H1374 C1395 0.950 . S
H1375 C1398 0.950 . S
H1376 C1399 0.950 . S
H1377 C1401 0.950 . S
H1378 C1402 0.950 . S
H1379 C1403 0.951 . S
H1380 C1405 0.951 . S
H1381 C1407 0.950 . S
H1382 C1408 0.950 . S
H1383 C1410 0.950 . S
H1384 C1413 0.950 . S
H1385 C1414 0.950 . S
H1386 C1416 0.950 . S
H1387 C1417 0.950 . S
C1388 H1370 0.951 . S
C1388 C1389 1.366 . S
C1388 C1390 1.388 . S
C1389 C1388 1.366 . S
C1389 C1393 1.385 . S
C1390 H1371 0.951 . S
C1390 C1388 1.388 . S
C1390 C1391 1.366 . S
C1391 C1390 1.366 . S
C1391 C1392 1.414 . S
C1391 C1394 1.499 . S
C1392 H1372 0.950 . S
C1392 C1391 1.414 . S
C1392 C1393 1.374 . S
C1393 H1373 0.950 . S
C1393 C1389 1.385 . S
C1393 C1392 1.374 . S
C1394 C1391 1.499 . S
C1394 C1395 1.373 . S
C1394 C1396 1.389 . S
C1395 H1374 0.950 . S
C1395 C1394 1.373 . S
C1395 C1411 1.377 . S
C1396 C1394 1.389 . S
C1396 C1397 1.524 . S
C1396 C1410 1.377 . S
C1397 C1396 1.524 . S
C1397 C1398 1.397 . S
C1397 C1402 1.363 . S
C1398 H1375 0.950 . S
C1398 C1397 1.397 . S
C1398 C1399 1.334 . S
C1399 H1376 0.950 . S
C1399 C1398 1.334 . S
C1399 C1400 1.287 . S
C1400 C1399 1.287 . S
C1400 C1401 1.524 . S
C1400 H1419 0.913 . S
C1401 H1377 0.950 . S
C1401 C1400 1.524 . S
C1401 C1402 1.415 . S
C1402 H1378 0.950 . S
C1402 C1397 1.363 . S
C1402 C1401 1.415 . S
C1403 H1379 0.951 . S
C1403 C1404 1.366 . S
C1403 C1405 1.388 . S
C1404 C1403 1.366 . S
C1404 C1408 1.385 . S
C1405 H1380 0.951 . S
C1405 C1403 1.388 . S
C1405 C1406 1.366 . S
C1406 C1405 1.366 . S
C1406 C1407 1.414 . S
C1406 C1409 1.499 . S
C1407 H1381 0.950 . S
C1407 C1406 1.414 . S
C1407 C1408 1.374 . S
C1408 H1382 0.950 . S
C1408 C1404 1.385 . S
C1408 C1407 1.374 . S
C1409 C1406 1.499 . S
C1409 C1410 1.373 . S
C1409 C1411 1.389 . S
C1410 H1383 0.950 . S
C1410 C1396 1.377 . S
C1410 C1409 1.373 . S
C1411 C1395 1.377 . S
C1411 C1409 1.389 . S
C1411 C1412 1.524 . S
C1412 C1411 1.524 . S
C1412 C1413 1.397 . S
C1412 C1417 1.363 . S
C1413 H1384 0.950 . S
C1413 C1412 1.397 . S
C1413 C1414 1.334 . S
C1414 H1385 0.950 . S
C1414 C1413 1.334 . S
C1414 C1415 1.287 . S
C1415 C1414 1.287 . S
C1415 C1416 1.524 . S
C1415 H1418 0.999 . S
C1416 H1386 0.950 . S
C1416 C1415 1.524 . S
C1416 C1417 1.415 . S
C1417 H1387 0.950 . S
C1417 C1412 1.363 . S
C1417 C1416 1.415 . S
H1418 C1415 0.999 . S
H1419 C1400 0.913 . S
H1420 C1438 0.951 . S
H1421 C1440 0.951 . S
H1422 C1442 0.950 . S
H1423 C1443 0.950 . S
H1424 C1445 0.950 . S
H1425 C1448 0.950 . S
H1426 C1449 0.950 . S
H1427 C1451 0.950 . S
H1428 C1452 0.950 . S
H1429 C1453 0.951 . S
H1430 C1455 0.951 . S
H1431 C1457 0.950 . S
H1432 C1458 0.950 . S
H1433 C1460 0.950 . S
H1434 C1463 0.950 . S
H1435 C1464 0.950 . S
H1436 C1466 0.950 . S
H1437 C1467 0.950 . S
C1438 H1420 0.951 . S
C1438 C1439 1.366 . S
C1438 C1440 1.388 . S
C1439 C1438 1.366 . S
C1439 C1443 1.385 . S
C1440 H1421 0.951 . S
C1440 C1438 1.388 . S
C1440 C1441 1.366 . S
C1441 C1440 1.366 . S
C1441 C1442 1.414 . S
C1441 C1444 1.499 . S
C1442 H1422 0.950 . S
C1442 C1441 1.414 . S
C1442 C1443 1.374 . S
C1443 H1423 0.950 . S
C1443 C1439 1.385 . S
C1443 C1442 1.374 . S
C1444 C1441 1.499 . S
C1444 C1445 1.373 . S
C1444 C1446 1.389 . S
C1445 H1424 0.950 . S
C1445 C1444 1.373 . S
C1445 C1461 1.377 . S
C1446 C1444 1.389 . S
C1446 C1447 1.524 . S
C1446 C1460 1.377 . S
C1447 C1446 1.524 . S
C1447 C1448 1.397 . S
C1447 C1452 1.363 . S
C1448 H1425 0.950 . S
C1448 C1447 1.397 . S
C1448 C1449 1.334 . S
C1449 H1426 0.950 . S
C1449 C1448 1.334 . S
C1449 C1450 1.287 . S
C1450 C1449 1.287 . S
C1450 C1451 1.524 . S
C1450 H1469 0.913 . S
C1451 H1427 0.950 . S
C1451 C1450 1.524 . S
C1451 C1452 1.415 . S
C1452 H1428 0.950 . S
C1452 C1447 1.363 . S
C1452 C1451 1.415 . S
C1453 H1429 0.951 . S
C1453 C1454 1.366 . S
C1453 C1455 1.388 . S
C1454 C1453 1.366 . S
C1454 C1458 1.385 . S
C1455 H1430 0.951 . S
C1455 C1453 1.388 . S
C1455 C1456 1.366 . S
C1456 C1455 1.366 . S
C1456 C1457 1.414 . S
C1456 C1459 1.499 . S
C1457 H1431 0.950 . S
C1457 C1456 1.414 . S
C1457 C1458 1.374 . S
C1458 H1432 0.950 . S
C1458 C1454 1.385 . S
C1458 C1457 1.374 . S
C1459 C1456 1.499 . S
C1459 C1460 1.373 . S
C1459 C1461 1.389 . S
C1460 H1433 0.950 . S
C1460 C1446 1.377 . S
C1460 C1459 1.373 . S
C1461 C1445 1.377 . S
C1461 C1459 1.389 . S
C1461 C1462 1.524 . S
C1462 C1461 1.524 . S
C1462 C1463 1.397 . S
C1462 C1467 1.363 . S
C1463 H1434 0.950 . S
C1463 C1462 1.397 . S
C1463 C1464 1.334 . S
C1464 H1435 0.950 . S
C1464 C1463 1.334 . S
C1464 C1465 1.287 . S
C1465 C1464 1.287 . S
C1465 C1466 1.524 . S
C1465 H1468 0.999 . S
C1466 H1436 0.950 . S
C1466 C1465 1.524 . S
C1466 C1467 1.415 . S
C1467 H1437 0.950 . S
C1467 C1462 1.363 . S
C1467 C1466 1.415 . S
H1468 C1465 0.999 . S
H1469 C1450 0.913 . S
H1470 C1488 0.951 . S
H1471 C1490 0.951 . S
H1472 C1492 0.950 . S
H1473 C1493 0.950 1_455 S
H1474 C1495 0.950 . S
H1475 C1498 0.950 . S
H1476 C1499 0.950 . S
H1477 C1501 0.950 . S
H1478 C1502 0.950 1_654 S
H1479 C1503 0.951 . S
H1480 C1505 0.951 . S
H1481 C1507 0.950 . S
H1482 C1508 0.950 1_655 S
H1483 C1510 0.950 . S
H1484 C1513 0.950 . S
H1485 C1514 0.950 . S
H1486 C1516 0.950 . S
H1487 C1517 0.950 1_456 S
C1488 H1470 0.951 . S
C1488 C1489 1.366 . S
C1488 C1490 1.388 . S
C1489 C1488 1.366 . S
C1489 C1493 1.385 . S
C1490 H1471 0.951 . S
C1490 C1488 1.388 . S
C1490 C1491 1.366 . S
C1491 C1490 1.366 . S
C1491 C1492 1.414 1_655 S
C1491 C1494 1.499 . S
C1492 H1472 0.950 . S
C1492 C1491 1.414 1_455 S
C1492 C1493 1.374 1_455 S
C1493 H1473 0.950 1_655 S
C1493 C1489 1.385 . S
C1493 C1492 1.374 1_655 S
C1494 C1491 1.499 . S
C1494 C1495 1.373 . S
C1494 C1496 1.389 1_655 S
C1495 H1474 0.950 . S
C1495 C1494 1.373 . S
C1495 C1511 1.377 1_556 S
C1496 C1494 1.389 1_455 S
C1496 C1497 1.524 . S
C1496 C1510 1.377 1_556 S
C1497 C1496 1.524 . S
C1497 C1498 1.397 . S
C1497 C1502 1.363 . S
C1498 H1475 0.950 . S
C1498 C1497 1.397 . S
C1498 C1499 1.334 . S
C1499 H1476 0.950 . S
C1499 C1498 1.334 . S
C1499 C1500 1.287 . S
C1500 C1499 1.287 . S
C1500 C1501 1.524 . S
C1500 H1519 0.913 . S
C1501 H1477 0.950 . S
C1501 C1500 1.524 . S
C1501 C1502 1.415 . S
C1502 H1478 0.950 1_456 S
C1502 C1497 1.363 . S
C1502 C1501 1.415 . S
C1503 H1479 0.951 . S
C1503 C1504 1.366 . S
C1503 C1505 1.388 . S
C1504 C1503 1.366 . S
C1504 C1508 1.385 . S
C1505 H1480 0.951 . S
C1505 C1503 1.388 . S
C1505 C1506 1.366 . S
C1506 C1505 1.366 . S
C1506 C1507 1.414 1_455 S
C1506 C1509 1.499 . S
C1507 H1481 0.950 . S
C1507 C1506 1.414 1_655 S
C1507 C1508 1.374 1_655 S
C1508 H1482 0.950 1_455 S
C1508 C1504 1.385 . S
C1508 C1507 1.374 1_455 S
C1509 C1506 1.499 . S
C1509 C1510 1.373 . S
C1509 C1511 1.389 1_455 S
C1510 H1483 0.950 . S
C1510 C1496 1.377 1_554 S
C1510 C1509 1.373 . S
C1511 C1495 1.377 1_554 S
C1511 C1509 1.389 1_655 S
C1511 C1512 1.524 . S
C1512 C1511 1.524 . S
C1512 C1513 1.397 . S
C1512 C1517 1.363 . S
C1513 H1484 0.950 . S
C1513 C1512 1.397 . S
C1513 C1514 1.334 . S
C1514 H1485 0.950 . S
C1514 C1513 1.334 . S
C1514 C1515 1.287 . S
C1515 C1514 1.287 . S
C1515 C1516 1.524 . S
C1515 H1518 0.999 . S
C1516 H1486 0.950 . S
C1516 C1515 1.524 . S
C1516 C1517 1.415 . S
C1517 H1487 0.950 1_654 S
C1517 C1512 1.363 . S
C1517 C1516 1.415 . S
H1518 C1515 0.999 . S
H1519 C1500 0.913 . S
C339 C19 2.051 . S
C354 C139 2.046 . S
C389 C18 1.494 . S
C404 C59 1.524 . S
C439 C58 0.905 . S
C454 C98 0.909 . S
C489 C99 1.524 . S
C504 C138 1.490 . S
C539 C9 2.051 . S
C554 C209 2.057 . S
C589 C8 1.495 . S
C604 C169 1.524 . S
C639 C168 0.906 . S
C654 C88 0.903 . S
C689 C208 1.495 . S
C704 C89 1.528 . S
C739 C259 2.051 . S
C754 C219 2.053 . S
C789 C179 1.524 . S
C804 C258 1.493 . S
C839 C298 0.906 . S
C854 C178 0.907 . S
C889 C218 1.495 . S
C904 C299 1.527 . S
C939 C129 2.051 . S
C954 C249 2.049 . S
C989 C248 1.495 . S
C1004 C49 1.526 . S
C1039 C48 0.906 . S
C1054 C288 0.901 . S
C1089 C128 1.494 . S
C1104 C289 1.521 . S
C1139 C5 1.439 . S
C1154 C15 1.439 . S
C1189 C55 1.406 . S
C1204 C45 1.406 . S
C1239 C85 1.406 . S
C1254 C95 1.406 . S
C1289 C125 1.439 . S
C1304 C135 1.439 . S
C1339 C175 1.406 . S
C1354 C165 1.406 . S
C1389 C205 1.439 . S
C1404 C215 1.439 . S
C1439 C255 1.439 . S
C1454 C245 1.439 . S
C1489 C295 1.406 . S
C1504 C285 1.406 . S
