# Generated by pormake.
# Topology wju, (5)-cn, num edge types: 1
# Building blocks:
#     Node 0, Type 0, BuildingBlock: XOMCOT_clean_sbu_1, # of connection points: 5
#     Node 1, Type 0, BuildingBlock: XOMCOT_clean_sbu_1, # of connection points: 5
#     Node 2, Type 0, BuildingBlock: XOMCOT_clean_sbu_1, # of connection points: 5
#     Node 3, Type 0, BuildingBlock: XOMCOT_clean_sbu_1, # of connection points: 5
#     Node 4, Type 0, BuildingBlock: XOMCOT_clean_sbu_1, # of connection points: 5
#     Node 5, Type 0, BuildingBlock: XOMCOT_clean_sbu_1, # of connection points: 5
#     Node 6, Type 0, BuildingBlock: XOMCOT_clean_sbu_1, # of connection points: 5
#     Node 7, Type 0, BuildingBlock: XOMCOT_clean_sbu_1, # of connection points: 5
#     Node 8, Type 0, BuildingBlock: XOMCOT_clean_sbu_1, # of connection points: 5
#     Node 9, Type 0, BuildingBlock: XOMCOT_clean_sbu_1, # of connection points: 5
#     Node 10, Type 0, BuildingBlock: XOMCOT_clean_sbu_1, # of connection points: 5
#     Node 11, Type 0, BuildingBlock: XOMCOT_clean_sbu_1, # of connection points: 5
#     Edge 12, Type (0, 0), BuildingBlock: AJUNOK_clean_linker_0, # of connection points: 2
#     Edge 13, Type (0, 0), BuildingBlock: AJUNOK_clean_linker_0, # of connection points: 2
#     Edge 14, Type (0, 0), BuildingBlock: AJUNOK_clean_linker_0, # of connection points: 2
#     Edge 15, Type (0, 0), BuildingBlock: AJUNOK_clean_linker_0, # of connection points: 2
#     Edge 16, Type (0, 0), BuildingBlock: AJUNOK_clean_linker_0, # of connection points: 2
#     Edge 17, Type (0, 0), BuildingBlock: AJUNOK_clean_linker_0, # of connection points: 2
#     Edge 18, Type (0, 0), BuildingBlock: AJUNOK_clean_linker_0, # of connection points: 2
#     Edge 19, Type (0, 0), BuildingBlock: AJUNOK_clean_linker_0, # of connection points: 2
#     Edge 20, Type (0, 0), BuildingBlock: AJUNOK_clean_linker_0, # of connection points: 2
#     Edge 21, Type (0, 0), BuildingBlock: AJUNOK_clean_linker_0, # of connection points: 2
#     Edge 22, Type (0, 0), BuildingBlock: AJUNOK_clean_linker_0, # of connection points: 2
#     Edge 23, Type (0, 0), BuildingBlock: AJUNOK_clean_linker_0, # of connection points: 2
#     Edge 24, Type (0, 0), BuildingBlock: AJUNOK_clean_linker_0, # of connection points: 2
#     Edge 25, Type (0, 0), BuildingBlock: AJUNOK_clean_linker_0, # of connection points: 2
#     Edge 26, Type (0, 0), BuildingBlock: AJUNOK_clean_linker_0, # of connection points: 2
#     Edge 27, Type (0, 0), BuildingBlock: AJUNOK_clean_linker_0, # of connection points: 2
#     Edge 28, Type (0, 0), BuildingBlock: AJUNOK_clean_linker_0, # of connection points: 2
#     Edge 29, Type (0, 0), BuildingBlock: AJUNOK_clean_linker_0, # of connection points: 2
#     Edge 30, Type (0, 0), BuildingBlock: AJUNOK_clean_linker_0, # of connection points: 2
#     Edge 31, Type (0, 0), BuildingBlock: AJUNOK_clean_linker_0, # of connection points: 2
#     Edge 32, Type (0, 0), BuildingBlock: AJUNOK_clean_linker_0, # of connection points: 2
#     Edge 33, Type (0, 0), BuildingBlock: AJUNOK_clean_linker_0, # of connection points: 2
#     Edge 34, Type (0, 0), BuildingBlock: AJUNOK_clean_linker_0, # of connection points: 2
#     Edge 35, Type (0, 0), BuildingBlock: AJUNOK_clean_linker_0, # of connection points: 2
#     Edge 36, Type (0, 0), BuildingBlock: AJUNOK_clean_linker_0, # of connection points: 2
#     Edge 37, Type (0, 0), BuildingBlock: AJUNOK_clean_linker_0, # of connection points: 2
#     Edge 38, Type (0, 0), BuildingBlock: AJUNOK_clean_linker_0, # of connection points: 2
#     Edge 39, Type (0, 0), BuildingBlock: AJUNOK_clean_linker_0, # of connection points: 2
#     Edge 40, Type (0, 0), BuildingBlock: AJUNOK_clean_linker_0, # of connection points: 2
#     Edge 41, Type (0, 0), BuildingBlock: AJUNOK_clean_linker_0, # of connection points: 2
# Relax obj value: 0.079
# Max RMSD: 0.116
# Mean RMSD: 0.116
data_MOF--net-wju--node1-XOMCOT_clean_sbu_1--edge1-AJUNOK_clean_linker_0
_symmetry_space_group_name_H-M    P1
_symmetry_Int_Tables_number       1
_symmetry_cell_setting            triclinic
loop_
_symmetry_equiv_pos_as_xyz
'x, y, z'
_cell_length_a     20.766246
_cell_length_b     20.784687
_cell_length_c     79.710547
_cell_angle_alpha  90.276748
_cell_angle_beta   89.821574
_cell_angle_gamma 119.98786
loop_
_atom_site_label
_atom_site_type_symbol
_atom_site_fract_x
_atom_site_fract_y
_atom_site_fract_z
_atom_type_partial_charge
C0 C 0.26398 0.1929 0.13184 0.0
C1 C 0.25897 0.20042 0.1488 0.0
N2 N 0.28267 0.15882 0.15649 0.0
N3 N 0.2913 0.14712 0.12874 0.0
C4 C 0.30147 0.12624 0.14414 0.0
H5 H 0.25237 0.22253 0.12232 0.0
Co6 Co 0.31873 0.14014 0.10666 0.0
C7 C 0.43742 0.0993 0.10921 0.0
O8 O 0.47597 0.15836 0.09994 0.0
N9 N 0.34434 0.13492 0.08355 0.0
C10 C 0.39779 0.16111 0.05823 0.0
C11 C 0.40245 0.18591 0.07438 0.0
C12 C 0.30508 0.07948 0.07233 0.0
N13 N 0.33632 0.0941 0.05683 0.0
O14 O 0.21935 0.05507 0.10346 0.0
H15 H 0.4473 0.238 0.07897 0.0
H16 H 0.25329 0.03011 0.07534 0.0
O17 O 0.36971 0.08066 0.11334 0.0
C18 C 0.18104 0.08434 0.09825 0.0
O19 O 0.2179 0.15396 0.09339 0.0
N20 N 0.40499 0.23008 0.11041 0.0
C21 C 0.4672 0.36901 0.12513 0.0
C22 C 0.481 0.31529 0.13195 0.0
C23 C 0.4486 0.24519 0.1244 0.0
C24 C 0.39651 0.28429 0.10305 0.0
C25 C 0.42845 0.35457 0.11 0.0
H26 H 0.45068 0.20125 0.13109 0.0
H27 H 0.3579 0.27076 0.09278 0.0
H28 H 0.32632 0.09199 0.14628 0.0
H29 H 0.24127 0.23534 0.15505 0.0
H30 H 0.43747 0.1901 0.04831 0.0
H31 H 0.51128 0.32548 0.14361 0.0
H32 H 0.41841 0.39584 0.10422 0.0
C33 C 0.09702 0.24942 0.46572 0.0
C34 C 0.08459 0.24165 0.48261 0.0
N35 N 0.15055 0.27164 0.49053 0.0
N36 N 0.17064 0.28406 0.46263 0.0
C37 C 0.20229 0.29659 0.47805 0.0
H38 H 0.05473 0.23494 0.45628 0.0
Co39 Co 0.20167 0.31528 0.44052 0.0
C40 C 0.3615 0.43637 0.44252 0.0
O41 O 0.33759 0.47569 0.43469 0.0
N42 N 0.22889 0.3448 0.41744 0.0
C43 C 0.25075 0.40196 0.39265 0.0
C44 C 0.234 0.40413 0.4092 0.0
C45 C 0.24341 0.30771 0.40527 0.0
N46 N 0.25549 0.34059 0.39006 0.0
O47 O 0.18849 0.21674 0.43581 0.0
H48 H 0.22781 0.44824 0.41472 0.0
H49 H 0.24409 0.25672 0.40738 0.0
O50 O 0.31389 0.36784 0.44634 0.0
C51 C 0.12061 0.17906 0.43062 0.0
O52 O 0.08723 0.21634 0.42657 0.0
N53 N 0.1955 0.39931 0.44563 0.0
C54 C 0.12132 0.46458 0.46052 0.0
C55 C 0.18876 0.47679 0.46724 0.0
C56 C 0.22508 0.44286 0.45962 0.0
C57 C 0.13166 0.39012 0.4387 0.0
C58 C 0.09481 0.42363 0.44567 0.0
H59 H 0.27204 0.44521 0.46599 0.0
H60 H 0.10563 0.35133 0.42848 0.0
H61 H 0.26175 0.32585 0.48002 0.0
H62 H 0.03084 0.21934 0.48862 0.0
H63 H 0.26059 0.44371 0.38337 0.0
H64 H 0.21037 0.50787 0.47879 0.0
H65 H 0.04344 0.41405 0.43996 0.0
C66 C 0.89742 0.09063 0.79924 0.0
C67 C 0.89046 0.07795 0.81614 0.0
N68 N 0.90888 0.14215 0.82407 0.0
N69 N 0.92107 0.16284 0.79622 0.0
C70 C 0.92839 0.19334 0.81169 0.0
H71 H 0.88152 0.04831 0.7897 0.0
Co72 Co 0.91819 0.19202 0.77407 0.0
C73 C 0.95539 0.35092 0.77559 0.0
O74 O 0.89406 0.32707 0.76691 0.0
N75 N 0.91355 0.21763 0.751 0.0
C76 C 0.87496 0.23465 0.72615 0.0
C77 C 0.85628 0.21661 0.74265 0.0
C78 C 0.96655 0.23686 0.73898 0.0
N79 N 0.94396 0.24611 0.72369 0.0
O80 O 1.00451 0.18073 0.76913 0.0
H81 H 0.80412 0.20563 0.74808 0.0
H82 H 1.02054 0.24276 0.74125 0.0
O83 O 0.97638 0.30384 0.77978 0.0
C84 C 0.97681 0.11458 0.76296 0.0
O85 O 0.90723 0.08155 0.75798 0.0
N86 N 0.82759 0.18436 0.77935 0.0
C87 C 0.68805 0.1118 0.79406 0.0
C88 C 0.74158 0.18215 0.79987 0.0
C89 C 0.812 0.21759 0.79239 0.0
C90 C 0.77467 0.11727 0.77332 0.0
C91 C 0.70433 0.08091 0.78021 0.0
H92 H 0.85509 0.26779 0.79813 0.0
H93 H 0.78878 0.08932 0.76378 0.0
H94 H 0.94227 0.2503 0.81374 0.0
H95 H 0.87094 0.02471 0.82212 0.0
H96 H 0.8407 0.24078 0.71682 0.0
H97 H 0.73057 0.20729 0.81061 0.0
H98 H 0.66378 0.02726 0.77514 0.0
C99 C 0.76589 0.84069 0.13387 0.0
C100 C 0.77335 0.83706 0.15083 0.0
N101 N 0.75646 0.88489 0.15819 0.0
N102 N 0.74391 0.89037 0.13038 0.0
C103 C 0.73926 0.91734 0.1456 0.0
H104 H 0.77305 0.80658 0.12462 0.0
Co105 Co 0.71838 0.89684 0.10806 0.0
C106 C 0.59857 0.93688 0.11018 0.0
O107 O 0.55957 0.87558 0.10156 0.0
N108 N 0.69467 0.90155 0.08477 0.0
C109 C 0.64144 0.87595 0.05944 0.0
C110 C 0.63514 0.85219 0.07567 0.0
C111 C 0.73657 0.95487 0.07338 0.0
N112 N 0.70546 0.9406 0.05789 0.0
O113 O 0.8182 0.98199 0.1051 0.0
H114 H 0.58839 0.80174 0.08033 0.0
H115 H 0.79003 1.00235 0.07628 0.0
O116 O 0.66648 0.9564 0.11431 0.0
C117 C 0.85565 0.95022 0.10086 0.0
O118 O 0.81822 0.8795 0.09679 0.0
N119 N 0.63193 0.80671 0.11151 0.0
C120 C 0.56619 0.66609 0.12527 0.0
C121 C 0.55468 0.72063 0.13268 0.0
C122 C 0.5886 0.79143 0.12558 0.0
C123 C 0.63892 0.75222 0.10367 0.0
C124 C 0.60513 0.68118 0.11013 0.0
H125 H 0.5879 0.83564 0.1326 0.0
H126 H 0.67752 0.76574 0.09338 0.0
H127 H 0.721 0.95735 0.14747 0.0
H128 H 0.78914 0.80144 0.15734 0.0
H129 H 0.60113 0.84787 0.04957 0.0
H130 H 0.52502 0.71041 0.14445 0.0
H131 H 0.61401 0.63967 0.10395 0.0
C132 C 0.95438 0.79099 0.464 0.0
C133 C 0.96956 0.79742 0.48079 0.0
N134 N 0.90515 0.75829 0.48915 0.0
N135 N 0.88044 0.74915 0.46149 0.0
C136 C 0.85139 0.73077 0.47719 0.0
H137 H 0.99564 0.81201 0.45417 0.0
Co138 Co 0.84738 0.71723 0.43944 0.0
C139 C 0.6875 0.59753 0.44186 0.0
O140 O 0.70967 0.5584 0.4332 0.0
N141 N 0.81793 0.68698 0.41648 0.0
C142 C 0.79322 0.62916 0.3916 0.0
C143 C 0.81463 0.62894 0.40785 0.0
C144 C 0.79856 0.72186 0.40484 0.0
N145 N 0.78337 0.68772 0.38971 0.0
O146 O 0.86113 0.81623 0.43496 0.0
H147 H 0.82567 0.58735 0.4129 0.0
H148 H 0.79537 0.77139 0.40732 0.0
O149 O 0.73589 0.66575 0.44582 0.0
C150 C 0.92783 0.85287 0.429 0.0
O151 O 0.95821 0.81436 0.4236 0.0
N152 N 0.85318 0.63291 0.44425 0.0
C153 C 0.93083 0.5737 0.45985 0.0
C154 C 0.86099 0.55725 0.46594 0.0
C155 C 0.82292 0.58826 0.45799 0.0
C156 C 0.9186 0.64451 0.43764 0.0
C157 C 0.95751 0.61429 0.44502 0.0
H158 H 0.77405 0.58313 0.46405 0.0
H159 H 0.94441 0.68334 0.42747 0.0
H160 H 0.79299 0.69388 0.47976 0.0
H161 H 1.02426 0.82747 0.4864 0.0
H162 H 0.78663 0.58999 0.38182 0.0
H163 H 0.83864 0.52518 0.4773 0.0
H164 H 1.01027 0.62602 0.43964 0.0
C165 C 0.21582 0.94025 0.79939 0.0
C166 C 0.21948 0.95127 0.81638 0.0
N167 N 0.17107 0.88675 0.8236 0.0
N168 N 0.16564 0.86877 0.79575 0.0
C169 C 0.13832 0.83727 0.8109 0.0
H170 H 0.25068 0.9813 0.79026 0.0
Co171 Co 0.16034 0.83635 0.77339 0.0
C172 C 0.11959 0.67592 0.77584 0.0
O173 O 0.18224 0.69777 0.76783 0.0
N174 N 0.15707 0.80774 0.75011 0.0
C175 C 0.18512 0.7794 0.72505 0.0
C176 C 0.20589 0.7947 0.74152 0.0
C177 C 0.10701 0.80006 0.73816 0.0
N178 N 0.12352 0.78402 0.72278 0.0
O179 O 0.07558 0.85149 0.77004 0.0
H180 H 0.25425 0.79548 0.74668 0.0
H181 H 0.05972 0.80725 0.74053 0.0
O182 O 0.09982 0.72467 0.77953 0.0
C183 C 0.108 0.92089 0.76607 0.0
O184 O 0.17918 0.95424 0.76242 0.0
N185 N 0.25039 0.84003 0.77719 0.0
C186 C 0.38896 0.91923 0.79194 0.0
C187 C 0.33492 0.85267 0.79914 0.0
C188 C 0.26513 0.81351 0.79153 0.0
C189 C 0.30513 0.90114 0.76939 0.0
C190 C 0.37527 0.94054 0.77635 0.0
H191 H 0.22074 0.76834 0.79839 0.0
H192 H 0.29213 0.92474 0.75877 0.0
H193 H 0.0983 0.77902 0.81266 0.0
H194 H 0.2558 1.00241 0.823 0.0
H195 H 0.21278 0.76435 0.7156 0.0
H196 H 0.34448 0.83453 0.81112 0.0
H197 H 0.41686 0.99063 0.77019 0.0
C198 C 0.88549 0.803 0.58572 0.0
C199 C 0.87828 0.80769 0.5688 0.0
N200 N 0.90233 0.76612 0.56097 0.0
N201 N 0.915 0.75944 0.58888 0.0
C202 C 0.92529 0.73793 0.57346 0.0
H203 H 0.86626 0.82677 0.59518 0.0
Co204 Co 0.91677 0.73137 0.61121 0.0
C205 C 0.95556 0.61111 0.61012 0.0
O206 O 0.89536 0.57489 0.61925 0.0
N207 N 0.91715 0.70524 0.63445 0.0
C208 C 0.88592 0.65415 0.65991 0.0
C209 C 0.86248 0.65057 0.6437 0.0
C210 C 0.9733 0.74129 0.64567 0.0
N211 N 0.95573 0.71151 0.66126 0.0
O212 O 1.00262 0.83056 0.61507 0.0
H213 H 0.80885 0.60864 0.6391 0.0
H214 H 1.02542 0.78998 0.64253 0.0
O215 O 0.97534 0.67821 0.60536 0.0
C216 C 0.97262 0.86764 0.62081 0.0
O217 O 0.90371 0.82963 0.62616 0.0
N218 N 0.82624 0.64668 0.60695 0.0
C219 C 0.6862 0.57962 0.5926 0.0
C220 C 0.73983 0.56364 0.58643 0.0
C221 C 0.81047 0.59854 0.59376 0.0
C222 C 0.7729 0.65926 0.61345 0.0
C223 C 0.70227 0.62513 0.60674 0.0
H224 H 0.85378 0.59271 0.58769 0.0
H225 H 0.78695 0.70088 0.62309 0.0
H226 H 0.94415 0.69847 0.57154 0.0
H227 H 0.85517 0.83813 0.56274 0.0
H228 H 0.85401 0.61641 0.6699 0.0
H229 H 0.72885 0.52865 0.57548 0.0
H230 H 0.66153 0.63749 0.61206 0.0
C231 C 0.09396 0.83993 0.92039 0.0
C232 C 0.07853 0.83438 0.90365 0.0
N233 N 0.14228 0.87663 0.89525 0.0
N234 N 0.16747 0.88483 0.92293 0.0
C235 C 0.19596 0.9065 0.90727 0.0
H236 H 0.05421 0.80882 0.93011 0.0
Co237 Co 0.20161 0.88909 0.94501 0.0
C238 C 0.3615 0.92813 0.94218 0.0
O239 O 0.33869 0.86534 0.95011 0.0
N240 N 0.2314 0.89116 0.96809 0.0
C241 C 0.25759 0.86098 0.99303 0.0
C242 C 0.2412 0.84027 0.97656 0.0
C243 C 0.24252 0.94254 0.98007 0.0
N244 N 0.25717 0.92478 0.99537 0.0
O245 O 0.18807 0.97453 0.94899 0.0
H246 H 0.23763 0.79066 0.97129 0.0
H247 H 0.23864 0.9917 0.97779 0.0
O248 O 0.31328 0.94857 0.93855 0.0
C249 C 0.12004 0.94439 0.95409 0.0
O250 O 0.08673 0.87401 0.95835 0.0
N251 N 0.19631 0.79876 0.94064 0.0
C252 C 0.11785 0.65986 0.9259 0.0
C253 C 0.18448 0.71393 0.9187 0.0
C254 C 0.22306 0.78399 0.92626 0.0
C255 C 0.1345 0.74435 0.94831 0.0
C256 C 0.09545 0.67411 0.94137 0.0
H257 H 0.26856 0.82825 0.91945 0.0
H258 H 0.11065 0.75758 0.95893 0.0
H259 H 0.25479 0.94055 0.90469 0.0
H260 H 1.02485 0.79784 0.89807 0.0
H261 H 0.2704 0.83172 1.00244 0.0
H262 H 0.20329 0.70397 0.90679 0.0
H263 H 0.04507 0.63265 0.94749 0.0
C264 C 0.28384 0.09826 0.25327 0.0
C265 C 0.2742 0.08304 0.2365 0.0
N266 N 0.29015 0.14571 0.22828 0.0
N267 N 0.30605 0.17045 0.25599 0.0
C268 C 0.30912 0.19832 0.24046 0.0
H269 H 0.27857 0.0595 0.2629 0.0
Co270 Co 0.33293 0.20649 0.27805 0.0
C271 C 0.45148 0.36635 0.27458 0.0
O272 O 0.49232 0.34667 0.28323 0.0
N273 N 0.35795 0.23881 0.30111 0.0
C274 C 0.41277 0.27077 0.32626 0.0
C275 C 0.4191 0.25268 0.31003 0.0
C276 C 0.31517 0.24885 0.31259 0.0
N277 N 0.34718 0.26818 0.32797 0.0
O278 O 0.23268 0.19099 0.28109 0.0
H279 H 0.46661 0.25037 0.30527 0.0
H280 H 0.26038 0.23985 0.3099 0.0
O281 O 0.38312 0.31683 0.27107 0.0
C282 C 0.19577 0.12243 0.28571 0.0
O283 O 0.23363 0.0901 0.29011 0.0
N284 N 0.41991 0.20356 0.2746 0.0
C285 C 0.48663 0.12814 0.26135 0.0
C286 C 0.49627 0.19224 0.25345 0.0
C287 C 0.46185 0.22939 0.26029 0.0
C288 C 0.4149 0.14421 0.28292 0.0
C289 C 0.44918 0.10672 0.27671 0.0
H290 H 0.46094 0.27237 0.25291 0.0
H291 H 0.3773 0.12066 0.29342 0.0
H292 H 0.32625 0.25593 0.2382 0.0
H293 H 0.25961 0.0302 0.23075 0.0
H294 H 0.45383 0.28522 0.33604 0.0
H295 H 0.52467 0.2097 0.2415 0.0
H296 H 0.44168 0.0578 0.28324 0.0
C297 C 0.21901 0.28344 0.58674 0.0
C298 C 0.22463 0.27635 0.56981 0.0
N299 N 0.17709 0.29269 0.56221 0.0
N300 N 0.16846 0.30478 0.58995 0.0
C301 C 0.14289 0.30924 0.57462 0.0
H302 H 0.25257 0.27685 0.59616 0.0
Co303 Co 0.15954 0.33089 0.61212 0.0
C304 C 0.11664 0.44838 0.60909 0.0
O305 O 0.17698 0.48923 0.61784 0.0
N306 N 0.15218 0.35507 0.63525 0.0
C307 C 0.17411 0.40908 0.66052 0.0
C308 C 0.19926 0.4158 0.64435 0.0
C309 C 0.0989 0.31209 0.64656 0.0
N310 N 0.11089 0.3436 0.66202 0.0
O311 O 0.07551 0.23067 0.61496 0.0
H312 H 0.24926 0.46331 0.63974 0.0
H313 H 0.05324 0.2575 0.64367 0.0
O314 O 0.09847 0.38039 0.60536 0.0
C315 C 0.10667 0.19326 0.61957 0.0
O316 O 0.17728 0.23083 0.62374 0.0
N317 N 0.249 0.41836 0.60879 0.0
C318 C 0.38828 0.47836 0.59439 0.0
C319 C 0.33448 0.49068 0.58701 0.0
C320 C 0.26433 0.45978 0.59446 0.0
C321 C 0.3036 0.4126 0.61683 0.0
C322 C 0.37411 0.44358 0.61002 0.0
H323 H 0.22022 0.46014 0.5874 0.0
H324 H 0.29017 0.3759 0.62745 0.0
H325 H 0.10305 0.32749 0.57253 0.0
H326 H 0.26172 0.26165 0.56347 0.0
H327 H 0.20042 0.44992 0.67039 0.0
H328 H 0.34445 0.51813 0.57499 0.0
H329 H 0.41555 0.43514 0.61628 0.0
C330 C 0.95344 0.1654 0.92089 0.0
C331 C 0.96872 0.17409 0.90411 0.0
N332 N 0.90435 0.14876 0.89577 0.0
N333 N 0.87946 0.13343 0.9234 0.0
C334 C 0.85048 0.12266 0.90771 0.0
H335 H 0.99469 0.18571 0.93071 0.0
Co336 Co 0.84693 0.1329 0.94548 0.0
C337 C 0.68691 0.09252 0.94324 0.0
O338 O 0.70894 0.15346 0.952 0.0
N339 N 0.81856 0.13474 0.96854 0.0
C340 C 0.79817 0.17097 0.99348 0.0
C341 C 0.81482 0.18966 0.97694 0.0
C342 C 0.80359 0.08307 0.98061 0.0
N343 N 0.79246 0.10442 0.99593 0.0
O344 O 0.86093 0.04792 0.95001 0.0
H345 H 0.82209 0.24038 0.97154 0.0
H346 H 0.80246 0.03119 0.97835 0.0
O347 O 0.73534 0.07273 0.93925 0.0
C348 C 0.92771 0.07824 0.9559 0.0
O349 O 0.95786 0.14715 0.96124 0.0
N350 N 0.85219 0.22259 0.94056 0.0
C351 C 0.92521 0.36113 0.92561 0.0
C352 C 0.8565 0.30634 0.91934 0.0
C353 C 0.82077 0.23652 0.92697 0.0
C354 C 0.91716 0.27706 0.94714 0.0
C355 C 0.95372 0.34696 0.9401 0.0
H356 H 0.77264 0.19226 0.92084 0.0
H357 H 0.94412 0.26435 0.95711 0.0
H358 H 0.79211 0.10129 0.90512 0.0
H359 H 1.02344 0.199 0.89847 0.0
H360 H 0.7893 0.20355 1.00286 0.0
H361 H 0.83328 0.31578 0.9081 0.0
H362 H 1.00612 0.38862 0.94548 0.0
C363 C 0.79898 0.95769 0.25529 0.0
C364 C 0.80814 0.97445 0.23859 0.0
N365 N 0.781 0.91076 0.22978 0.0
N366 N 0.76537 0.88353 0.25735 0.0
C367 C 0.75478 0.85595 0.24149 0.0
H368 H 0.81185 0.99725 0.26536 0.0
Co369 Co 0.73501 0.84786 0.27924 0.0
C370 C 0.6146 0.68946 0.27655 0.0
O371 O 0.57752 0.71218 0.28581 0.0
N372 N 0.70679 0.81613 0.30217 0.0
C373 C 0.65197 0.78965 0.3274 0.0
C374 C 0.65066 0.81363 0.31148 0.0
C375 C 0.74163 0.79352 0.31309 0.0
N376 N 0.70935 0.77753 0.3284 0.0
O377 O 0.83345 0.86019 0.28289 0.0
H378 H 0.60914 0.82624 0.3071 0.0
H379 H 0.78968 0.78856 0.30996 0.0
O380 O 0.68238 0.73735 0.27219 0.0
C381 C 0.87135 0.92646 0.28899 0.0
O382 O 0.83407 0.95784 0.29461 0.0
N383 N 0.65043 0.85393 0.27517 0.0
C384 C 0.58795 0.93067 0.26081 0.0
C385 C 0.57368 0.86288 0.2539 0.0
C386 C 0.60651 0.82535 0.26122 0.0
C387 C 0.66035 0.91753 0.28248 0.0
C388 C 0.62828 0.95585 0.27573 0.0
H389 H 0.60381 0.77886 0.2545 0.0
H390 H 0.69949 0.94273 0.29266 0.0
H391 H 0.72567 0.79718 0.23858 0.0
H392 H 0.82891 0.02931 0.23338 0.0
H393 H 0.61388 0.78186 0.33753 0.0
H394 H 0.54235 0.84223 0.24237 0.0
H395 H 0.63894 1.0075 0.28155 0.0
C396 C 0.32786 0.08497 1.02582 0.0
C397 C 0.31068 0.04988 0.04163 0.0
C398 C 0.30866 0.04395 1.01082 0.0
C399 C 0.2713 0.96592 1.01093 0.0
H400 H 0.35703 0.14494 1.025 0.0
H401 H 0.3251 0.07371 0.99905 0.0
S402 S 0.20741 0.84626 0.04881 0.0
N403 N 0.25123 0.93178 0.05633 0.0
N404 N 0.21199 0.85481 0.02821 0.0
C405 C 0.25096 0.9299 0.02661 0.0
C406 C 0.27118 0.97175 0.04191 0.0
C407 C 0.31681 0.28351 0.37417 0.0
C408 C 0.2726 0.31715 0.37438 0.0
C409 C 0.33924 0.26618 0.359 0.0
C410 C 0.31843 0.28168 0.34335 0.0
H411 H 0.33611 0.2725 0.38583 0.0
H412 H 0.37378 0.24088 0.35956 0.0
S413 S 0.19738 0.36371 0.33704 0.0
N414 N 0.20343 0.35959 0.3576 0.0
N415 N 0.2482 0.33014 0.32915 0.0
C416 C 0.2721 0.31308 0.34339 0.0
C417 C 0.24876 0.33019 0.35887 0.0
C418 C 0.06276 0.31271 0.70811 0.0
C419 C 0.98519 0.26586 0.70808 0.0
C420 C 0.10317 0.33634 0.69307 0.0
C421 C 0.0679 0.31443 0.67729 0.0
H422 H 0.0924 0.33285 0.71984 0.0
H423 H 0.16276 0.37246 0.69387 0.0
S424 S 0.86603 0.18717 0.6703 0.0
N425 N 0.87518 0.19332 0.6909 0.0
N426 N 0.95032 0.24083 0.66271 0.0
C427 C 0.99046 0.26593 0.67708 0.0
C428 C 0.94938 0.24112 0.69243 0.0
C429 C 0.73391 0.98633 1.01172 0.0
C430 C 0.7763 0.06427 1.0116 0.0
C431 C 0.71294 0.94667 0.02684 0.0
C432 C 0.73317 0.98308 0.04255 0.0
H433 H 0.71495 0.95572 1.00005 0.0
H434 H 0.67994 0.88673 1.02617 0.0
S435 S 0.85003 0.18665 0.04911 0.0
N436 N 0.84371 0.17627 0.02853 0.0
N437 N 0.8011 0.10217 0.05688 0.0
C438 C 0.7777 0.06099 0.04259 0.0
C439 C 0.79981 0.10139 0.02716 0.0
C440 C 0.79115 0.80439 0.35291 0.0
C441 C 0.73075 0.75337 0.34312 0.0
C442 C 0.80729 0.78319 0.36837 0.0
C443 C 0.76405 0.7101 0.37434 0.0
H444 H 0.82486 0.86121 0.34872 0.0
H445 H 0.85429 0.8237 0.37562 0.0
S446 S 0.59895 0.55695 0.35343 0.0
N447 N 0.6267 0.62809 0.34055 0.0
N448 N 0.65786 0.58741 0.36933 0.0
C449 C 0.70381 0.65879 0.36455 0.0
C450 C 0.68687 0.6807 0.34901 0.0
C451 C 1.00523 0.73866 0.70732 0.0
C452 C 0.08307 0.77187 0.70723 0.0
C453 C 0.96458 0.72084 0.6923 0.0
C454 C 0.99986 0.73518 0.67649 0.0
H455 H 0.97517 0.72436 0.71909 0.0
H456 H 0.90473 0.69508 0.69315 0.0
S457 S 0.20366 0.8274 0.66934 0.0
N458 N 0.19464 0.82465 0.68994 0.0
N459 N 0.11828 0.78739 0.66183 0.0
C460 C 0.078 0.77048 0.67623 0.0
C461 C 0.11948 0.78954 0.69154 0.0
C462 C 0.4804 0.94186 0.11377 0.0
C463 C 0.55939 0.97957 0.11428 0.0
C464 C 0.43991 0.9799 0.11371 0.0
C465 C 0.47648 0.05771 0.11411 0.0
H466 H 0.44916 0.88193 0.11254 0.0
H467 H 0.38013 0.9483 0.11213 0.0
S468 S 0.6811 0.18314 0.11833 0.0
N469 N 0.67122 0.09929 0.11724 0.0
N470 N 0.5963 0.17106 0.11731 0.0
C471 C 0.55498 0.09586 0.11607 0.0
C472 C 0.59609 0.05694 0.11615 0.0
C473 C 0.4858 0.55474 0.44521 0.0
C474 C 0.44412 0.47585 0.4461 0.0
C475 C 0.56447 0.59507 0.44529 0.0
C476 C 0.60579 0.5586 0.44622 0.0
H477 H 0.45739 0.5861 0.44369 0.0
H478 H 0.59282 0.65468 0.44352 0.0
S479 S 0.52574 0.35439 0.45132 0.0
N480 N 0.4519 0.36437 0.4498 0.0
N481 N 0.59863 0.4389 0.45007 0.0
C482 C 0.565 0.48026 0.44837 0.0
C483 C 0.48481 0.4393 0.44833 0.0
C484 C 0.11319 0.55238 0.77983 0.0
C485 C 0.07579 0.59399 0.77979 0.0
C486 C 0.07484 0.47385 0.77986 0.0
C487 C 0.99691 0.43272 0.77978 0.0
H488 H 0.17328 0.58077 0.77905 0.0
H489 H 0.10649 0.44547 0.77886 0.0
S490 S 0.87172 0.51295 0.78237 0.0
N491 N 0.9559 0.58661 0.78163 0.0
N492 N 0.8835 0.44002 0.78185 0.0
C493 C 0.95884 0.47349 0.78109 0.0
C494 C 0.99812 0.55356 0.78109 0.0
C495 C 0.99579 0.45006 0.60728 0.0
C496 C 0.07269 0.48532 0.60451 0.0
C497 C 0.95843 0.4912 0.60794 0.0
C498 C 0.99592 0.56961 0.60586 0.0
H499 H 0.96516 0.39135 0.61019 0.0
H500 H 0.89969 0.46117 0.61093 0.0
S501 S 0.19576 0.68672 0.59566 0.0
N502 N 0.18375 0.60231 0.59762 0.0
N503 N 0.11344 0.67859 0.59895 0.0
C504 C 0.07161 0.6044 0.60171 0.0
C505 C 0.1098 0.5626 0.60106 0.0
C506 C 0.56425 0.97257 0.93894 0.0
C507 C 0.60544 0.05043 0.9387 0.0
C508 C 0.4856 0.93425 0.93883 0.0
C509 C 0.44389 0.97157 0.93842 0.0
H510 H 0.59259 0.94109 0.94034 0.0
H511 H 0.45716 0.87431 0.93986 0.0
S512 S 0.52529 0.17518 0.93491 0.0
N513 N 0.59822 0.16344 0.93585 0.0
N514 N 0.45151 0.09118 0.93584 0.0
C515 C 0.4845 0.04903 0.93681 0.0
C516 C 0.56466 0.08826 0.93694 0.0
C517 C 0.45336 0.48883 0.27287 0.0
C518 C 0.48868 0.44728 0.27007 0.0
C519 C 0.49462 0.56722 0.27371 0.0
C520 C 0.57326 0.60813 0.27183 0.0
H521 H 0.39444 0.46071 0.27568 0.0
H522 H 0.46446 0.5958 0.27674 0.0
S523 S 0.6907 0.52576 0.2615 0.0
N524 N 0.60603 0.45339 0.26323 0.0
N525 N 0.68259 0.59981 0.26498 0.0
C526 C 0.60819 0.56743 0.2676 0.0
C527 C 0.56623 0.48752 0.26673 0.0
C528 C 0.24062 0.08862 0.20054 0.0
C529 C 0.28928 0.15165 0.21019 0.0
C530 C 0.24117 0.09025 0.18296 0.0
C531 C 0.2896 0.15516 0.17431 0.0
H532 H 0.20092 0.03749 0.20662 0.0
H533 H 0.20197 0.04119 0.17605 0.0
S534 S 0.42915 0.33481 0.19296 0.0
N535 N 0.38935 0.28048 0.20931 0.0
N536 N 0.38749 0.28381 0.17622 0.0
C537 C 0.33824 0.21865 0.18359 0.0
C538 C 0.33869 0.21693 0.20153 0.0
C539 C 0.10265 0.22641 0.51909 0.0
C540 C 0.15954 0.27891 0.5086 0.0
C541 C 0.10673 0.23351 0.53662 0.0
C542 C 0.16809 0.29291 0.54438 0.0
H543 H 0.05476 0.17853 0.51374 0.0
H544 H 0.06289 0.19099 0.5442 0.0
S545 S 0.33141 0.44636 0.52331 0.0
N546 N 0.27846 0.39431 0.50772 0.0
N547 N 0.28701 0.40505 0.54074 0.0
C548 C 0.22545 0.34569 0.53426 0.0
C549 C 0.22107 0.3393 0.51636 0.0
C550 C 0.84669 0.08939 0.85123 0.0
C551 C 0.90177 0.14976 0.84194 0.0
C552 C 0.84468 0.09096 0.86883 0.0
C553 C 0.89772 0.1529 0.87784 0.0
H554 H 0.80582 0.03951 0.84486 0.0
H555 H 0.80388 0.04204 0.87546 0.0
S556 S 0.0461 0.32967 0.8597 0.0
N557 N 1.00587 0.27603 0.84323 0.0
N558 N 1.00074 0.27985 0.87624 0.0
C559 C 0.94957 0.21567 0.86873 0.0
C560 C 0.95182 0.21399 0.85081 0.0
C561 C 0.7048 0.8407 0.18638 0.0
C562 C 0.75804 0.89659 0.17597 0.0
C563 C 0.71263 0.84499 0.20395 0.0
C564 C 0.77479 0.90477 0.21168 0.0
H565 H 0.65757 0.79279 0.18081 0.0
H566 H 0.66971 0.80149 0.21151 0.0
S567 S 0.93354 0.06073 0.1895 0.0
N568 N 0.87608 1.01056 0.17433 0.0
N569 N 0.89315 1.01831 0.20716 0.0
C570 C 0.82904 0.96021 0.20123 0.0
C571 C 0.82013 0.95615 0.18344 0.0
C572 C 0.84191 0.75233 0.51586 0.0
C573 C 0.89799 0.74755 0.50709 0.0
C574 C 0.84185 0.75471 0.53347 0.0
C575 C 0.89795 0.75251 0.54304 0.0
H576 H 0.79993 0.75791 0.50906 0.0
H577 H 0.79834 0.76025 0.53962 0.0
S578 S 0.05035 0.72745 0.52596 0.0
N579 N 1.0051 0.73003 0.50922 0.0
N580 N 1.00662 0.73739 0.54223 0.0
C581 C 0.95136 0.74248 0.5344 0.0
C582 C 0.95108 0.73951 0.51646 0.0
C583 C 0.21266 0.88444 0.86934 0.0
C584 C 0.14969 0.88007 0.87716 0.0
C585 C 0.21796 0.88321 0.85174 0.0
C586 C 0.15999 0.87613 0.84138 0.0
H587 H 0.25776 0.8882 0.87685 0.0
H588 H 0.26799 0.88866 0.84612 0.0
S589 S 0.9872 0.87031 0.85518 0.0
N590 N 0.03091 0.87469 0.8728 0.0
N591 N 0.04061 0.8694 0.8399 0.0
C592 C 0.09738 0.8723 0.84892 0.0
C593 C 0.09229 0.87497 0.86676 0.0
C594 C 0.59237 0.56791 0.13431 0.0
C595 C 0.54138 0.59371 0.13316 0.0
C596 C 0.56758 0.49189 0.13429 0.0
C597 C 0.49139 0.44064 0.1334 0.0
H598 H 0.65151 0.60637 0.1331 0.0
H599 H 0.60794 0.47372 0.13283 0.0
S600 S 0.33664 0.48044 0.13608 0.0
N601 N 0.41245 0.56307 0.13524 0.0
N602 N 0.36559 0.41946 0.13598 0.0
C603 C 0.44041 0.46586 0.13551 0.0
C604 C 0.46558 0.54314 0.1352 0.0
C605 C 0.99871 0.44405 0.46987 0.0
C606 C 0.07602 0.49258 0.46849 0.0
C607 C 0.9495 0.47146 0.46956 0.0
C608 C 0.97688 0.54797 0.46822 0.0
H609 H 0.97599 0.38451 0.46898 0.0
H610 H 0.89057 0.43249 0.46824 0.0
S611 S 0.17375 0.69777 0.47065 0.0
N612 N 0.17738 0.62016 0.47013 0.0
N613 N 0.08452 0.67201 0.47049 0.0
C614 C 0.05361 0.5969 0.47025 0.0
C615 C 0.10368 0.56902 0.47018 0.0
C616 C 0.50909 0.94239 0.80355 0.0
C617 C 0.45998 0.96855 0.80031 0.0
C618 C 0.58547 0.99221 0.80444 0.0
C619 C 0.61398 0.06872 0.80172 0.0
H620 H 0.48967 0.88335 0.80335 0.0
H621 H 0.62275 0.96993 0.80502 0.0
S622 S 0.50514 0.16484 0.79864 0.0
N623 N 0.44221 0.0756 0.79932 0.0
N624 N 0.58664 0.16929 0.80001 0.0
C625 C 0.56456 0.09602 0.80148 0.0
C626 C 0.48683 0.04549 0.80096 0.0
C627 C 0.58554 0.59968 0.58228 0.0
C628 C 0.61264 0.55038 0.58485 0.0
C629 C 0.50939 0.57442 0.58307 0.0
C630 C 0.4592 0.49926 0.58607 0.0
H631 H 0.62369 0.65907 0.5819 0.0
H632 H 0.49092 0.61482 0.58339 0.0
S633 S 0.5008 0.34561 0.58735 0.0
N634 N 0.58307 0.42176 0.58619 0.0
N635 N 0.43905 0.37353 0.58675 0.0
C636 C 0.48476 0.44813 0.5853 0.0
C637 C 0.56225 0.47397 0.58486 0.0
C638 C 0.09603 0.53832 0.91556 0.0
C639 C 0.06961 0.58797 0.91774 0.0
C640 C 0.04622 0.46188 0.91531 0.0
C641 C 0.96941 0.43397 0.91757 0.0
H642 H 0.15509 0.55781 0.91614 0.0
H643 H 0.06849 0.42456 0.91554 0.0
S644 S 0.87309 0.54305 0.91813 0.0
N645 N 0.96246 0.60579 0.91745 0.0
N646 N 0.86868 0.46145 0.91785 0.0
C647 C 0.94211 0.48327 0.91679 0.0
C648 C 0.99268 0.56098 0.9167 0.0
C649 C 0.4858 0.95192 0.25266 0.0
C650 C 0.56218 0.9773 0.25292 0.0
C651 C 0.46051 1.00278 0.25292 0.0
C652 C 0.51122 0.07971 0.25368 0.0
H653 H 0.44598 0.89348 0.25435 0.0
H654 H 0.40149 0.98191 0.25455 0.0
S655 S 0.71557 0.1719 0.24938 0.0
N656 N 0.68727 0.08216 0.2496 0.0
N657 N 0.63954 0.17827 0.25078 0.0
C658 C 0.58683 0.10515 0.25114 0.0
C659 C 0.61247 0.05339 0.25059 0.0
C660 C 0.06272 0.08946 0.09507 0.0
C661 C 0.09775 0.04787 0.09924 0.0
C662 C 0.9851 0.05952 0.09628 0.0
C663 C 0.93862 0.98619 0.10152 0.0
H664 H 0.09549 0.14622 0.09078 0.0
H665 H 0.96129 0.09329 0.09258 0.0
S666 S 1.00084 0.85462 0.11505 0.0
N667 N 0.07864 0.93026 0.1097 0.0
N668 N 0.93352 0.8735 0.11181 0.0
C669 C 0.97276 0.94435 0.10605 0.0
C670 C 0.05184 0.97511 0.10495 0.0
C671 C 0.99524 0.0618 0.4299 0.0
C672 C 0.07391 0.09566 0.43072 0.0
C673 C 0.94796 0.98396 0.42977 0.0
C674 C 0.977 0.93589 0.43017 0.0
H675 H 0.96929 0.0958 0.42938 0.0
H676 H 0.88843 0.96143 0.42898 0.0
S677 S 0.1784 0.99485 0.43337 0.0
N678 N 0.1777 0.07386 0.43277 0.0
N679 N 0.09049 0.92849 0.43225 0.0
C680 C 0.05561 0.96895 0.43129 0.0
C681 C 0.10351 0.04828 0.43166 0.0
C682 C 0.97278 0.99223 0.7585 0.0
C683 C 1.01317 0.06759 0.76385 0.0
C684 C 1.00141 0.94358 0.75993 0.0
C685 C 0.07231 0.96815 0.76659 0.0
H686 H 0.91786 0.9699 0.75311 0.0
H687 H 0.96875 0.88716 0.7553 0.0
S688 S 0.19996 0.1577 0.78338 0.0
N689 N 0.12696 0.16226 0.77685 0.0
N690 N 0.18151 0.07218 0.77929 0.0
C691 C 0.11303 0.04285 0.77221 0.0
C692 C 0.0835 0.09214 0.7709 0.0
C693 C 0.08397 0.99829 0.61998 0.0
C694 C 1.00678 0.95051 0.61962 0.0
C695 C 0.1148 0.07613 0.61992 0.0
C696 C 0.0701 0.11005 0.61923 0.0
H697 H 0.1208 0.97557 0.6207 0.0
H698 H 0.17479 0.11006 0.62042 0.0
S699 S 0.86467 1.00993 0.61674 0.0
N700 N 0.88596 0.94341 0.61766 0.0
N701 N 0.94461 0.08876 0.61737 0.0
C702 C 0.99304 0.06294 0.61833 0.0
C703 C 0.96138 0.98369 0.61858 0.0
C704 C 0.94775 0.96734 0.95421 0.0
C705 C 0.97701 0.04446 0.95476 0.0
C706 C 0.99485 0.93655 0.95392 0.0
C707 C 0.07356 0.98123 0.95389 0.0
H708 H 0.8881 0.9304 0.95432 0.0
H709 H 0.96881 0.87657 0.95369 0.0
S710 S 0.17904 0.18673 0.95398 0.0
N711 N 0.09107 0.1654 0.95445 0.0
N712 N 0.17792 0.10676 0.95369 0.0
C713 C 0.10354 0.05831 0.95392 0.0
C714 C 0.05581 0.08994 0.95443 0.0
C715 C 0.06584 0.09948 0.29119 0.0
C716 C 0.11295 0.07474 0.28501 0.0
C717 C 0.98858 0.05046 0.29262 0.0
C718 C 0.95449 0.97454 0.28775 0.0
H719 H 0.08899 0.15633 0.29548 0.0
H720 H 0.95535 0.07286 0.29766 0.0
S721 S 0.05341 0.88383 0.26946 0.0
N722 N 0.11979 0.97004 0.27318 0.0
N723 N 0.97519 0.87918 0.27562 0.0
C724 C 1.00102 0.94989 0.28109 0.0
C725 C 0.0798 0.99956 0.27979 0.0
loop_
_geom_bond_atom_site_label_1
_geom_bond_atom_site_label_2
_geom_bond_distance
_geom_bond_site_symmetry_2
_ccdc_geom_bond_type
C0 C1 1.351 . S
C0 N3 1.368 . S
C0 H5 0.931 . S
C1 C0 1.351 . S
C1 N2 1.373 . S
C1 H29 0.930 . S
N2 C1 1.373 . S
N2 C4 1.340 . S
N3 C0 1.368 . S
N3 C4 1.321 . S
N3 Co6 2.135 . S
C4 N2 1.340 . S
C4 N3 1.321 . S
C4 H28 0.930 . S
H5 C0 0.931 . S
Co6 N3 2.135 . S
Co6 N9 2.121 . S
Co6 O14 2.055 . S
Co6 O17 2.039 . S
Co6 N20 2.140 . S
C7 O8 1.227 . S
C7 O17 1.265 . S
O8 C7 1.227 . S
N9 Co6 2.121 . S
N9 C11 1.375 . S
N9 C12 1.313 . S
C10 C11 1.338 . S
C10 N13 1.377 . S
C10 H30 0.930 . S
C11 N9 1.375 . S
C11 C10 1.338 . S
C11 H15 0.931 . S
C12 N9 1.313 . S
C12 N13 1.344 . S
C12 H16 0.930 . S
N13 C10 1.377 . S
N13 C12 1.344 . S
O14 Co6 2.055 . S
O14 C18 1.253 . S
H15 C11 0.931 . S
H16 C12 0.930 . S
O17 Co6 2.039 . S
O17 C7 1.265 . S
C18 O14 1.253 . S
C18 O19 1.227 . S
O19 C18 1.227 . S
N20 Co6 2.140 . S
N20 C23 1.346 . S
N20 C24 1.345 . S
C21 C22 1.387 . S
C21 C25 1.391 . S
C22 C21 1.387 . S
C22 C23 1.369 . S
C22 H31 0.929 . S
C23 N20 1.346 . S
C23 C22 1.369 . S
C23 H26 0.928 . S
C24 N20 1.345 . S
C24 C25 1.371 . S
C24 H27 0.931 . S
C25 C21 1.391 . S
C25 C24 1.371 . S
C25 H32 0.930 . S
H26 C23 0.928 . S
H27 C24 0.931 . S
H28 C4 0.930 . S
H29 C1 0.930 . S
H30 C10 0.930 . S
H31 C22 0.929 . S
H32 C25 0.930 . S
C33 C34 1.351 . S
C33 N36 1.368 . S
C33 H38 0.931 . S
C34 C33 1.351 . S
C34 N35 1.373 . S
C34 H62 0.930 . S
N35 C34 1.373 . S
N35 C37 1.340 . S
N36 C33 1.368 . S
N36 C37 1.321 . S
N36 Co39 2.135 . S
C37 N35 1.340 . S
C37 N36 1.321 . S
C37 H61 0.930 . S
H38 C33 0.931 . S
Co39 N36 2.135 . S
Co39 N42 2.121 . S
Co39 O47 2.055 . S
Co39 O50 2.039 . S
Co39 N53 2.140 . S
C40 O41 1.227 . S
C40 O50 1.265 . S
O41 C40 1.227 . S
N42 Co39 2.121 . S
N42 C44 1.375 . S
N42 C45 1.313 . S
C43 C44 1.338 . S
C43 N46 1.377 . S
C43 H63 0.930 . S
C44 N42 1.375 . S
C44 C43 1.338 . S
C44 H48 0.931 . S
C45 N42 1.313 . S
C45 N46 1.344 . S
C45 H49 0.930 . S
N46 C43 1.377 . S
N46 C45 1.344 . S
O47 Co39 2.055 . S
O47 C51 1.253 . S
H48 C44 0.931 . S
H49 C45 0.930 . S
O50 Co39 2.039 . S
O50 C40 1.265 . S
C51 O47 1.253 . S
C51 O52 1.227 . S
O52 C51 1.227 . S
N53 Co39 2.140 . S
N53 C56 1.346 . S
N53 C57 1.345 . S
C54 C55 1.387 . S
C54 C58 1.391 . S
C55 C54 1.387 . S
C55 C56 1.369 . S
C55 H64 0.929 . S
C56 N53 1.346 . S
C56 C55 1.369 . S
C56 H59 0.928 . S
C57 N53 1.345 . S
C57 C58 1.371 . S
C57 H60 0.931 . S
C58 C54 1.391 . S
C58 C57 1.371 . S
C58 H65 0.930 . S
H59 C56 0.928 . S
H60 C57 0.931 . S
H61 C37 0.930 . S
H62 C34 0.930 . S
H63 C43 0.930 . S
H64 C55 0.929 . S
H65 C58 0.930 . S
C66 C67 1.351 . S
C66 N69 1.368 . S
C66 H71 0.931 . S
C67 C66 1.351 . S
C67 N68 1.373 . S
C67 H95 0.930 . S
N68 C67 1.373 . S
N68 C70 1.340 . S
N69 C66 1.368 . S
N69 C70 1.321 . S
N69 Co72 2.135 . S
C70 N68 1.340 . S
C70 N69 1.321 . S
C70 H94 0.930 . S
H71 C66 0.931 . S
Co72 N69 2.135 . S
Co72 N75 2.121 . S
Co72 O80 2.055 . S
Co72 O83 2.039 . S
Co72 N86 2.140 . S
C73 O74 1.227 . S
C73 O83 1.265 . S
O74 C73 1.227 . S
N75 Co72 2.121 . S
N75 C77 1.375 . S
N75 C78 1.313 . S
C76 C77 1.338 . S
C76 N79 1.377 . S
C76 H96 0.930 . S
C77 N75 1.375 . S
C77 C76 1.338 . S
C77 H81 0.931 . S
C78 N75 1.313 . S
C78 N79 1.344 . S
C78 H82 0.930 . S
N79 C76 1.377 . S
N79 C78 1.344 . S
O80 Co72 2.055 . S
O80 C84 1.253 . S
H81 C77 0.931 . S
H82 C78 0.930 . S
O83 Co72 2.039 . S
O83 C73 1.265 . S
C84 O80 1.253 . S
C84 O85 1.227 . S
O85 C84 1.227 . S
N86 Co72 2.140 . S
N86 C89 1.346 . S
N86 C90 1.345 . S
C87 C88 1.387 . S
C87 C91 1.391 . S
C88 C87 1.387 . S
C88 C89 1.369 . S
C88 H97 0.929 . S
C89 N86 1.346 . S
C89 C88 1.369 . S
C89 H92 0.928 . S
C90 N86 1.345 . S
C90 C91 1.371 . S
C90 H93 0.931 . S
C91 C87 1.391 . S
C91 C90 1.371 . S
C91 H98 0.930 . S
H92 C89 0.928 . S
H93 C90 0.931 . S
H94 C70 0.930 . S
H95 C67 0.930 . S
H96 C76 0.930 . S
H97 C88 0.929 . S
H98 C91 0.930 . S
C99 C100 1.351 . S
C99 N102 1.368 . S
C99 H104 0.931 . S
C100 C99 1.351 . S
C100 N101 1.373 . S
C100 H128 0.930 . S
N101 C100 1.373 . S
N101 C103 1.340 . S
N102 C99 1.368 . S
N102 C103 1.321 . S
N102 Co105 2.135 . S
C103 N101 1.340 . S
C103 N102 1.321 . S
C103 H127 0.930 . S
H104 C99 0.931 . S
Co105 N102 2.135 . S
Co105 N108 2.121 . S
Co105 O113 2.055 . S
Co105 O116 2.039 . S
Co105 N119 2.140 . S
C106 O107 1.227 . S
C106 O116 1.265 . S
O107 C106 1.227 . S
N108 Co105 2.121 . S
N108 C110 1.375 . S
N108 C111 1.313 . S
C109 C110 1.338 . S
C109 N112 1.377 . S
C109 H129 0.930 . S
C110 N108 1.375 . S
C110 C109 1.338 . S
C110 H114 0.931 . S
C111 N108 1.313 . S
C111 N112 1.344 . S
C111 H115 0.930 . S
N112 C109 1.377 . S
N112 C111 1.344 . S
O113 Co105 2.055 . S
O113 C117 1.253 . S
H114 C110 0.931 . S
H115 C111 0.930 . S
O116 Co105 2.039 . S
O116 C106 1.265 . S
C117 O113 1.253 . S
C117 O118 1.227 . S
O118 C117 1.227 . S
N119 Co105 2.140 . S
N119 C122 1.346 . S
N119 C123 1.345 . S
C120 C121 1.387 . S
C120 C124 1.391 . S
C121 C120 1.387 . S
C121 C122 1.369 . S
C121 H130 0.929 . S
C122 N119 1.346 . S
C122 C121 1.369 . S
C122 H125 0.928 . S
C123 N119 1.345 . S
C123 C124 1.371 . S
C123 H126 0.931 . S
C124 C120 1.391 . S
C124 C123 1.371 . S
C124 H131 0.930 . S
H125 C122 0.928 . S
H126 C123 0.931 . S
H127 C103 0.930 . S
H128 C100 0.930 . S
H129 C109 0.930 . S
H130 C121 0.929 . S
H131 C124 0.930 . S
C132 C133 1.351 . S
C132 N135 1.368 . S
C132 H137 0.931 . S
C133 C132 1.351 . S
C133 N134 1.373 . S
C133 H161 0.930 . S
N134 C133 1.373 . S
N134 C136 1.340 . S
N135 C132 1.368 . S
N135 C136 1.321 . S
N135 Co138 2.135 . S
C136 N134 1.340 . S
C136 N135 1.321 . S
C136 H160 0.930 . S
H137 C132 0.931 . S
Co138 N135 2.135 . S
Co138 N141 2.121 . S
Co138 O146 2.055 . S
Co138 O149 2.039 . S
Co138 N152 2.140 . S
C139 O140 1.227 . S
C139 O149 1.265 . S
O140 C139 1.227 . S
N141 Co138 2.121 . S
N141 C143 1.375 . S
N141 C144 1.313 . S
C142 C143 1.338 . S
C142 N145 1.377 . S
C142 H162 0.930 . S
C143 N141 1.375 . S
C143 C142 1.338 . S
C143 H147 0.931 . S
C144 N141 1.313 . S
C144 N145 1.344 . S
C144 H148 0.930 . S
N145 C142 1.377 . S
N145 C144 1.344 . S
O146 Co138 2.055 . S
O146 C150 1.253 . S
H147 C143 0.931 . S
H148 C144 0.930 . S
O149 Co138 2.039 . S
O149 C139 1.265 . S
C150 O146 1.253 . S
C150 O151 1.227 . S
O151 C150 1.227 . S
N152 Co138 2.140 . S
N152 C155 1.346 . S
N152 C156 1.345 . S
C153 C154 1.387 . S
C153 C157 1.391 . S
C154 C153 1.387 . S
C154 C155 1.369 . S
C154 H163 0.929 . S
C155 N152 1.346 . S
C155 C154 1.369 . S
C155 H158 0.928 . S
C156 N152 1.345 . S
C156 C157 1.371 . S
C156 H159 0.931 . S
C157 C153 1.391 . S
C157 C156 1.371 . S
C157 H164 0.930 . S
H158 C155 0.928 . S
H159 C156 0.931 . S
H160 C136 0.930 . S
H161 C133 0.930 . S
H162 C142 0.930 . S
H163 C154 0.929 . S
H164 C157 0.930 . S
C165 C166 1.351 . S
C165 N168 1.368 . S
C165 H170 0.931 . S
C166 C165 1.351 . S
C166 N167 1.373 . S
C166 H194 0.930 . S
N167 C166 1.373 . S
N167 C169 1.340 . S
N168 C165 1.368 . S
N168 C169 1.321 . S
N168 Co171 2.135 . S
C169 N167 1.340 . S
C169 N168 1.321 . S
C169 H193 0.930 . S
H170 C165 0.931 . S
Co171 N168 2.135 . S
Co171 N174 2.121 . S
Co171 O179 2.055 . S
Co171 O182 2.039 . S
Co171 N185 2.140 . S
C172 O173 1.227 . S
C172 O182 1.265 . S
O173 C172 1.227 . S
N174 Co171 2.121 . S
N174 C176 1.375 . S
N174 C177 1.313 . S
C175 C176 1.338 . S
C175 N178 1.377 . S
C175 H195 0.930 . S
C176 N174 1.375 . S
C176 C175 1.338 . S
C176 H180 0.931 . S
C177 N174 1.313 . S
C177 N178 1.344 . S
C177 H181 0.930 . S
N178 C175 1.377 . S
N178 C177 1.344 . S
O179 Co171 2.055 . S
O179 C183 1.253 . S
H180 C176 0.931 . S
H181 C177 0.930 . S
O182 Co171 2.039 . S
O182 C172 1.265 . S
C183 O179 1.253 . S
C183 O184 1.227 . S
O184 C183 1.227 . S
N185 Co171 2.140 . S
N185 C188 1.346 . S
N185 C189 1.345 . S
C186 C187 1.387 . S
C186 C190 1.391 . S
C187 C186 1.387 . S
C187 C188 1.369 . S
C187 H196 0.929 . S
C188 N185 1.346 . S
C188 C187 1.369 . S
C188 H191 0.928 . S
C189 N185 1.345 . S
C189 C190 1.371 . S
C189 H192 0.931 . S
C190 C186 1.391 . S
C190 C189 1.371 . S
C190 H197 0.930 . S
H191 C188 0.928 . S
H192 C189 0.931 . S
H193 C169 0.930 . S
H194 C166 0.930 . S
H195 C175 0.930 . S
H196 C187 0.929 . S
H197 C190 0.930 . S
C198 C199 1.351 . S
C198 N201 1.368 . S
C198 H203 0.931 . S
C199 C198 1.351 . S
C199 N200 1.373 . S
C199 H227 0.930 . S
N200 C199 1.373 . S
N200 C202 1.340 . S
N201 C198 1.368 . S
N201 C202 1.321 . S
N201 Co204 2.135 . S
C202 N200 1.340 . S
C202 N201 1.321 . S
C202 H226 0.930 . S
H203 C198 0.931 . S
Co204 N201 2.135 . S
Co204 N207 2.121 . S
Co204 O212 2.055 . S
Co204 O215 2.039 . S
Co204 N218 2.140 . S
C205 O206 1.227 . S
C205 O215 1.265 . S
O206 C205 1.227 . S
N207 Co204 2.121 . S
N207 C209 1.375 . S
N207 C210 1.313 . S
C208 C209 1.338 . S
C208 N211 1.377 . S
C208 H228 0.930 . S
C209 N207 1.375 . S
C209 C208 1.338 . S
C209 H213 0.931 . S
C210 N207 1.313 . S
C210 N211 1.344 . S
C210 H214 0.930 . S
N211 C208 1.377 . S
N211 C210 1.344 . S
O212 Co204 2.055 . S
O212 C216 1.253 . S
H213 C209 0.931 . S
H214 C210 0.930 . S
O215 Co204 2.039 . S
O215 C205 1.265 . S
C216 O212 1.253 . S
C216 O217 1.227 . S
O217 C216 1.227 . S
N218 Co204 2.140 . S
N218 C221 1.346 . S
N218 C222 1.345 . S
C219 C220 1.387 . S
C219 C223 1.391 . S
C220 C219 1.387 . S
C220 C221 1.369 . S
C220 H229 0.929 . S
C221 N218 1.346 . S
C221 C220 1.369 . S
C221 H224 0.928 . S
C222 N218 1.345 . S
C222 C223 1.371 . S
C222 H225 0.931 . S
C223 C219 1.391 . S
C223 C222 1.371 . S
C223 H230 0.930 . S
H224 C221 0.928 . S
H225 C222 0.931 . S
H226 C202 0.930 . S
H227 C199 0.930 . S
H228 C208 0.930 . S
H229 C220 0.929 . S
H230 C223 0.930 . S
C231 C232 1.351 . S
C231 N234 1.368 . S
C231 H236 0.931 . S
C232 C231 1.351 . S
C232 N233 1.373 . S
C232 H260 0.930 . S
N233 C232 1.373 . S
N233 C235 1.340 . S
N234 C231 1.368 . S
N234 C235 1.321 . S
N234 Co237 2.135 . S
C235 N233 1.340 . S
C235 N234 1.321 . S
C235 H259 0.930 . S
H236 C231 0.931 . S
Co237 N234 2.135 . S
Co237 N240 2.121 . S
Co237 O245 2.055 . S
Co237 O248 2.039 . S
Co237 N251 2.140 . S
C238 O239 1.227 . S
C238 O248 1.265 . S
O239 C238 1.227 . S
N240 Co237 2.121 . S
N240 C242 1.375 . S
N240 C243 1.313 . S
C241 C242 1.338 . S
C241 N244 1.377 . S
C241 H261 0.930 . S
C242 N240 1.375 . S
C242 C241 1.338 . S
C242 H246 0.931 . S
C243 N240 1.313 . S
C243 N244 1.344 . S
C243 H247 0.930 . S
N244 C241 1.377 . S
N244 C243 1.344 . S
O245 Co237 2.055 . S
O245 C249 1.253 . S
H246 C242 0.931 . S
H247 C243 0.930 . S
O248 Co237 2.039 . S
O248 C238 1.265 . S
C249 O245 1.253 . S
C249 O250 1.227 . S
O250 C249 1.227 . S
N251 Co237 2.140 . S
N251 C254 1.346 . S
N251 C255 1.345 . S
C252 C253 1.387 . S
C252 C256 1.391 . S
C253 C252 1.387 . S
C253 C254 1.369 . S
C253 H262 0.929 . S
C254 N251 1.346 . S
C254 C253 1.369 . S
C254 H257 0.928 . S
C255 N251 1.345 . S
C255 C256 1.371 . S
C255 H258 0.931 . S
C256 C252 1.391 . S
C256 C255 1.371 . S
C256 H263 0.930 . S
H257 C254 0.928 . S
H258 C255 0.931 . S
H259 C235 0.930 . S
H260 C232 0.930 . S
H261 C241 0.930 . S
H262 C253 0.929 . S
H263 C256 0.930 . S
C264 C265 1.351 . S
C264 N267 1.368 . S
C264 H269 0.931 . S
C265 C264 1.351 . S
C265 N266 1.373 . S
C265 H293 0.930 . S
N266 C265 1.373 . S
N266 C268 1.340 . S
N267 C264 1.368 . S
N267 C268 1.321 . S
N267 Co270 2.135 . S
C268 N266 1.340 . S
C268 N267 1.321 . S
C268 H292 0.930 . S
H269 C264 0.931 . S
Co270 N267 2.135 . S
Co270 N273 2.121 . S
Co270 O278 2.055 . S
Co270 O281 2.039 . S
Co270 N284 2.140 . S
C271 O272 1.227 . S
C271 O281 1.265 . S
O272 C271 1.227 . S
N273 Co270 2.121 . S
N273 C275 1.375 . S
N273 C276 1.313 . S
C274 C275 1.338 . S
C274 N277 1.377 . S
C274 H294 0.930 . S
C275 N273 1.375 . S
C275 C274 1.338 . S
C275 H279 0.931 . S
C276 N273 1.313 . S
C276 N277 1.344 . S
C276 H280 0.930 . S
N277 C274 1.377 . S
N277 C276 1.344 . S
O278 Co270 2.055 . S
O278 C282 1.253 . S
H279 C275 0.931 . S
H280 C276 0.930 . S
O281 Co270 2.039 . S
O281 C271 1.265 . S
C282 O278 1.253 . S
C282 O283 1.227 . S
O283 C282 1.227 . S
N284 Co270 2.140 . S
N284 C287 1.346 . S
N284 C288 1.345 . S
C285 C286 1.387 . S
C285 C289 1.391 . S
C286 C285 1.387 . S
C286 C287 1.369 . S
C286 H295 0.929 . S
C287 N284 1.346 . S
C287 C286 1.369 . S
C287 H290 0.928 . S
C288 N284 1.345 . S
C288 C289 1.371 . S
C288 H291 0.931 . S
C289 C285 1.391 . S
C289 C288 1.371 . S
C289 H296 0.930 . S
H290 C287 0.928 . S
H291 C288 0.931 . S
H292 C268 0.930 . S
H293 C265 0.930 . S
H294 C274 0.930 . S
H295 C286 0.929 . S
H296 C289 0.930 . S
C297 C298 1.351 . S
C297 N300 1.368 . S
C297 H302 0.931 . S
C298 C297 1.351 . S
C298 N299 1.373 . S
C298 H326 0.930 . S
N299 C298 1.373 . S
N299 C301 1.340 . S
N300 C297 1.368 . S
N300 C301 1.321 . S
N300 Co303 2.135 . S
C301 N299 1.340 . S
C301 N300 1.321 . S
C301 H325 0.930 . S
H302 C297 0.931 . S
Co303 N300 2.135 . S
Co303 N306 2.121 . S
Co303 O311 2.055 . S
Co303 O314 2.039 . S
Co303 N317 2.140 . S
C304 O305 1.227 . S
C304 O314 1.265 . S
O305 C304 1.227 . S
N306 Co303 2.121 . S
N306 C308 1.375 . S
N306 C309 1.313 . S
C307 C308 1.338 . S
C307 N310 1.377 . S
C307 H327 0.930 . S
C308 N306 1.375 . S
C308 C307 1.338 . S
C308 H312 0.931 . S
C309 N306 1.313 . S
C309 N310 1.344 . S
C309 H313 0.930 . S
N310 C307 1.377 . S
N310 C309 1.344 . S
O311 Co303 2.055 . S
O311 C315 1.253 . S
H312 C308 0.931 . S
H313 C309 0.930 . S
O314 Co303 2.039 . S
O314 C304 1.265 . S
C315 O311 1.253 . S
C315 O316 1.227 . S
O316 C315 1.227 . S
N317 Co303 2.140 . S
N317 C320 1.346 . S
N317 C321 1.345 . S
C318 C319 1.387 . S
C318 C322 1.391 . S
C319 C318 1.387 . S
C319 C320 1.369 . S
C319 H328 0.929 . S
C320 N317 1.346 . S
C320 C319 1.369 . S
C320 H323 0.928 . S
C321 N317 1.345 . S
C321 C322 1.371 . S
C321 H324 0.931 . S
C322 C318 1.391 . S
C322 C321 1.371 . S
C322 H329 0.930 . S
H323 C320 0.928 . S
H324 C321 0.931 . S
H325 C301 0.930 . S
H326 C298 0.930 . S
H327 C307 0.930 . S
H328 C319 0.929 . S
H329 C322 0.930 . S
C330 C331 1.351 . S
C330 N333 1.368 . S
C330 H335 0.931 . S
C331 C330 1.351 . S
C331 N332 1.373 . S
C331 H359 0.930 . S
N332 C331 1.373 . S
N332 C334 1.340 . S
N333 C330 1.368 . S
N333 C334 1.321 . S
N333 Co336 2.135 . S
C334 N332 1.340 . S
C334 N333 1.321 . S
C334 H358 0.930 . S
H335 C330 0.931 . S
Co336 N333 2.135 . S
Co336 N339 2.121 . S
Co336 O344 2.055 . S
Co336 O347 2.039 . S
Co336 N350 2.140 . S
C337 O338 1.227 . S
C337 O347 1.265 . S
O338 C337 1.227 . S
N339 Co336 2.121 . S
N339 C341 1.375 . S
N339 C342 1.313 . S
C340 C341 1.338 . S
C340 N343 1.377 . S
C340 H360 0.930 . S
C341 N339 1.375 . S
C341 C340 1.338 . S
C341 H345 0.931 . S
C342 N339 1.313 . S
C342 N343 1.344 . S
C342 H346 0.930 . S
N343 C340 1.377 . S
N343 C342 1.344 . S
O344 Co336 2.055 . S
O344 C348 1.253 . S
H345 C341 0.931 . S
H346 C342 0.930 . S
O347 Co336 2.039 . S
O347 C337 1.265 . S
C348 O344 1.253 . S
C348 O349 1.227 . S
O349 C348 1.227 . S
N350 Co336 2.140 . S
N350 C353 1.346 . S
N350 C354 1.345 . S
C351 C352 1.387 . S
C351 C355 1.391 . S
C352 C351 1.387 . S
C352 C353 1.369 . S
C352 H361 0.929 . S
C353 N350 1.346 . S
C353 C352 1.369 . S
C353 H356 0.928 . S
C354 N350 1.345 . S
C354 C355 1.371 . S
C354 H357 0.931 . S
C355 C351 1.391 . S
C355 C354 1.371 . S
C355 H362 0.930 . S
H356 C353 0.928 . S
H357 C354 0.931 . S
H358 C334 0.930 . S
H359 C331 0.930 . S
H360 C340 0.930 . S
H361 C352 0.929 . S
H362 C355 0.930 . S
C363 C364 1.351 . S
C363 N366 1.368 . S
C363 H368 0.931 . S
C364 C363 1.351 . S
C364 N365 1.373 . S
C364 H392 0.930 . S
N365 C364 1.373 . S
N365 C367 1.340 . S
N366 C363 1.368 . S
N366 C367 1.321 . S
N366 Co369 2.135 . S
C367 N365 1.340 . S
C367 N366 1.321 . S
C367 H391 0.930 . S
H368 C363 0.931 . S
Co369 N366 2.135 . S
Co369 N372 2.121 . S
Co369 O377 2.055 . S
Co369 O380 2.039 . S
Co369 N383 2.140 . S
C370 O371 1.227 . S
C370 O380 1.265 . S
O371 C370 1.227 . S
N372 Co369 2.121 . S
N372 C374 1.375 . S
N372 C375 1.313 . S
C373 C374 1.338 . S
C373 N376 1.377 . S
C373 H393 0.930 . S
C374 N372 1.375 . S
C374 C373 1.338 . S
C374 H378 0.931 . S
C375 N372 1.313 . S
C375 N376 1.344 . S
C375 H379 0.930 . S
N376 C373 1.377 . S
N376 C375 1.344 . S
O377 Co369 2.055 . S
O377 C381 1.253 . S
H378 C374 0.931 . S
H379 C375 0.930 . S
O380 Co369 2.039 . S
O380 C370 1.265 . S
C381 O377 1.253 . S
C381 O382 1.227 . S
O382 C381 1.227 . S
N383 Co369 2.140 . S
N383 C386 1.346 . S
N383 C387 1.345 . S
C384 C385 1.387 . S
C384 C388 1.391 . S
C385 C384 1.387 . S
C385 C386 1.369 . S
C385 H394 0.929 . S
C386 N383 1.346 . S
C386 C385 1.369 . S
C386 H389 0.928 . S
C387 N383 1.345 . S
C387 C388 1.371 . S
C387 H390 0.931 . S
C388 C384 1.391 . S
C388 C387 1.371 . S
C388 H395 0.930 . S
H389 C386 0.928 . S
H390 C387 0.931 . S
H391 C367 0.930 . S
H392 C364 0.930 . S
H393 C373 0.930 . S
H394 C385 0.929 . S
H395 C388 0.930 . S
C396 C397 1.370 . S
C396 C398 1.418 1_554 S
C396 H400 0.929 1_554 S
C397 C396 1.370 . S
C397 C406 1.429 1_545 S
C398 C396 1.418 1_556 S
C398 C399 1.363 1_545 S
C398 H401 0.929 . S
C399 C398 1.363 1_565 S
C399 C405 1.404 1_556 S
H400 C396 0.929 1_556 S
H401 C398 0.929 . S
S402 N403 1.613 . S
S402 N404 1.610 . S
N403 S402 1.613 . S
N403 C406 1.350 . S
N404 S402 1.610 . S
N404 C405 1.355 . S
C405 C399 1.404 1_554 S
C405 N404 1.355 . S
C405 C406 1.457 . S
C406 C397 1.429 1_565 S
C406 N403 1.350 . S
C406 C405 1.457 . S
C407 C408 1.369 . S
C407 C409 1.419 . S
C407 H411 0.930 . S
C408 C407 1.369 . S
C408 C417 1.429 . S
C409 C407 1.419 . S
C409 C410 1.363 . S
C409 H412 0.929 . S
C410 C409 1.363 . S
C410 C416 1.428 . S
H411 C407 0.930 . S
H412 C409 0.929 . S
S413 N414 1.613 . S
S413 N415 1.610 . S
N414 S413 1.613 . S
N414 C417 1.350 . S
N415 S413 1.610 . S
N415 C416 1.351 . S
C416 C410 1.428 . S
C416 N415 1.351 . S
C416 C417 1.434 . S
C417 C408 1.429 . S
C417 N414 1.350 . S
C417 C416 1.434 . S
C418 C419 1.369 1_455 S
C418 C420 1.419 . S
C418 H422 0.930 . S
C419 C418 1.369 1_655 S
C419 C428 1.429 . S
C420 C418 1.419 . S
C420 C421 1.363 . S
C420 H423 0.929 . S
C421 C420 1.363 . S
C421 C427 1.428 1_455 S
H422 C418 0.930 . S
H423 C420 0.929 . S
S424 N425 1.613 . S
S424 N426 1.610 . S
N425 S424 1.613 . S
N425 C428 1.350 . S
N426 S424 1.610 . S
N426 C427 1.351 . S
C427 C421 1.428 1_655 S
C427 N426 1.351 . S
C427 C428 1.434 . S
C428 C419 1.429 . S
C428 N425 1.350 . S
C428 C427 1.434 . S
C429 C430 1.369 1_565 S
C429 C431 1.397 1_556 S
C429 H433 0.930 . S
C430 C429 1.369 1_545 S
C430 C439 1.427 1_556 S
C431 C429 1.397 1_554 S
C431 C432 1.385 . S
C431 H434 0.929 1_554 S
C432 C431 1.385 . S
C432 C438 1.428 1_565 S
H433 C429 0.930 . S
H434 C431 0.929 1_556 S
S435 N436 1.613 . S
S435 N437 1.610 . S
N436 S435 1.613 . S
N436 C439 1.350 . S
N437 S435 1.610 . S
N437 C438 1.351 . S
C438 C432 1.428 1_545 S
C438 N437 1.351 . S
C438 C439 1.436 . S
C439 C430 1.427 1_554 S
C439 N436 1.350 . S
C439 C438 1.436 . S
C440 C441 1.369 . S
C440 C442 1.419 . S
C440 H444 0.930 . S
C441 C440 1.369 . S
C441 C450 1.429 . S
C442 C440 1.419 . S
C442 C443 1.363 . S
C442 H445 0.929 . S
C443 C442 1.363 . S
C443 C449 1.428 . S
H444 C440 0.930 . S
H445 C442 0.929 . S
S446 N447 1.613 . S
S446 N448 1.610 . S
N447 S446 1.613 . S
N447 C450 1.350 . S
N448 S446 1.610 . S
N448 C449 1.351 . S
C449 C443 1.428 . S
C449 N448 1.351 . S
C449 C450 1.434 . S
C450 C441 1.429 . S
C450 N447 1.350 . S
C450 C449 1.434 . S
C451 C452 1.369 1_655 S
C451 C453 1.419 . S
C451 H455 0.930 . S
C452 C451 1.369 1_455 S
C452 C461 1.429 . S
C453 C451 1.419 . S
C453 C454 1.363 . S
C453 H456 0.929 . S
C454 C453 1.363 . S
C454 C460 1.428 1_655 S
H455 C451 0.930 . S
H456 C453 0.929 . S
S457 N458 1.613 . S
S457 N459 1.610 . S
N458 S457 1.613 . S
N458 C461 1.350 . S
N459 S457 1.610 . S
N459 C460 1.351 . S
C460 C454 1.428 1_455 S
C460 N459 1.351 . S
C460 C461 1.434 . S
C461 C452 1.429 . S
C461 N458 1.350 . S
C461 C460 1.434 . S
C462 C463 1.369 . S
C462 C464 1.419 . S
C462 H466 0.930 . S
C463 C462 1.369 . S
C463 C472 1.429 1_565 S
C464 C462 1.419 . S
C464 C465 1.363 1_565 S
C464 H467 0.929 . S
C465 C464 1.363 1_545 S
C465 C471 1.428 . S
H466 C462 0.930 . S
H467 C464 0.929 . S
S468 N469 1.613 . S
S468 N470 1.610 . S
N469 S468 1.613 . S
N469 C472 1.350 . S
N470 S468 1.610 . S
N470 C471 1.351 . S
C471 C465 1.428 . S
C471 N470 1.351 . S
C471 C472 1.434 . S
C472 C463 1.429 1_545 S
C472 N469 1.350 . S
C472 C471 1.434 . S
C473 C474 1.369 . S
C473 C475 1.419 . S
C473 H477 0.930 . S
C474 C473 1.369 . S
C474 C483 1.429 . S
C475 C473 1.419 . S
C475 C476 1.363 . S
C475 H478 0.929 . S
C476 C475 1.363 . S
C476 C482 1.428 . S
H477 C473 0.930 . S
H478 C475 0.929 . S
S479 N480 1.613 . S
S479 N481 1.610 . S
N480 S479 1.613 . S
N480 C483 1.350 . S
N481 S479 1.610 . S
N481 C482 1.351 . S
C482 C476 1.428 . S
C482 N481 1.351 . S
C482 C483 1.434 . S
C483 C474 1.429 . S
C483 N480 1.350 . S
C483 C482 1.434 . S
C484 C485 1.369 . S
C484 C486 1.419 . S
C484 H488 0.930 . S
C485 C484 1.369 . S
C485 C494 1.429 1_455 S
C486 C484 1.419 . S
C486 C487 1.363 1_455 S
C486 H489 0.929 . S
C487 C486 1.363 1_655 S
C487 C493 1.428 . S
H488 C484 0.930 . S
H489 C486 0.929 . S
S490 N491 1.613 . S
S490 N492 1.610 . S
N491 S490 1.613 . S
N491 C494 1.350 . S
N492 S490 1.610 . S
N492 C493 1.351 . S
C493 C487 1.428 . S
C493 N492 1.351 . S
C493 C494 1.434 . S
C494 C485 1.429 1_655 S
C494 N491 1.350 . S
C494 C493 1.434 . S
C495 C496 1.369 1_655 S
C495 C497 1.419 . S
C495 H499 0.930 . S
C496 C495 1.369 1_455 S
C496 C505 1.429 . S
C497 C495 1.419 . S
C497 C498 1.363 . S
C497 H500 0.929 . S
C498 C497 1.363 . S
C498 C504 1.428 1_655 S
H499 C495 0.930 . S
H500 C497 0.929 . S
S501 N502 1.613 . S
S501 N503 1.610 . S
N502 S501 1.613 . S
N502 C505 1.350 . S
N503 S501 1.610 . S
N503 C504 1.351 . S
C504 C498 1.428 1_455 S
C504 N503 1.351 . S
C504 C505 1.434 . S
C505 C496 1.429 . S
C505 N502 1.350 . S
C505 C504 1.434 . S
C506 C507 1.369 1_565 S
C506 C508 1.419 . S
C506 H510 0.930 . S
C507 C506 1.369 1_545 S
C507 C516 1.429 . S
C508 C506 1.419 . S
C508 C509 1.363 . S
C508 H511 0.929 . S
C509 C508 1.363 . S
C509 C515 1.428 1_565 S
H510 C506 0.930 . S
H511 C508 0.929 . S
S512 N513 1.613 . S
S512 N514 1.610 . S
N513 S512 1.613 . S
N513 C516 1.350 . S
N514 S512 1.610 . S
N514 C515 1.351 . S
C515 C509 1.428 1_545 S
C515 N514 1.351 . S
C515 C516 1.434 . S
C516 C507 1.429 . S
C516 N513 1.350 . S
C516 C515 1.434 . S
C517 C518 1.369 . S
C517 C519 1.419 . S
C517 H521 0.930 . S
C518 C517 1.369 . S
C518 C527 1.429 . S
C519 C517 1.419 . S
C519 C520 1.363 . S
C519 H522 0.929 . S
C520 C519 1.363 . S
C520 C526 1.428 . S
H521 C517 0.930 . S
H522 C519 0.929 . S
S523 N524 1.613 . S
S523 N525 1.610 . S
N524 S523 1.613 . S
N524 C527 1.350 . S
N525 S523 1.610 . S
N525 C526 1.351 . S
C526 C520 1.428 . S
C526 N525 1.351 . S
C526 C527 1.434 . S
C527 C518 1.429 . S
C527 N524 1.350 . S
C527 C526 1.434 . S
C528 C529 1.369 . S
C528 C530 1.419 . S
C528 H532 0.930 . S
C529 C528 1.369 . S
C529 C538 1.429 . S
C530 C528 1.419 . S
C530 C531 1.363 . S
C530 H533 0.929 . S
C531 C530 1.363 . S
C531 C537 1.428 . S
H532 C528 0.930 . S
H533 C530 0.929 . S
S534 N535 1.613 . S
S534 N536 1.610 . S
N535 S534 1.613 . S
N535 C538 1.350 . S
N536 S534 1.610 . S
N536 C537 1.351 . S
C537 C531 1.428 . S
C537 N536 1.351 . S
C537 C538 1.434 . S
C538 C529 1.429 . S
C538 N535 1.350 . S
C538 C537 1.434 . S
C539 C540 1.369 . S
C539 C541 1.419 . S
C539 H543 0.930 . S
C540 C539 1.369 . S
C540 C549 1.429 . S
C541 C539 1.419 . S
C541 C542 1.363 . S
C541 H544 0.929 . S
C542 C541 1.363 . S
C542 C548 1.428 . S
H543 C539 0.930 . S
H544 C541 0.929 . S
S545 N546 1.613 . S
S545 N547 1.610 . S
N546 S545 1.613 . S
N546 C549 1.350 . S
N547 S545 1.610 . S
N547 C548 1.351 . S
C548 C542 1.428 . S
C548 N547 1.351 . S
C548 C549 1.434 . S
C549 C540 1.429 . S
C549 N546 1.350 . S
C549 C548 1.434 . S
C550 C551 1.369 . S
C550 C552 1.419 . S
C550 H554 0.930 . S
C551 C550 1.369 . S
C551 C560 1.429 . S
C552 C550 1.419 . S
C552 C553 1.363 . S
C552 H555 0.929 . S
C553 C552 1.363 . S
C553 C559 1.428 . S
H554 C550 0.930 . S
H555 C552 0.929 . S
S556 N557 1.613 . S
S556 N558 1.610 . S
N557 S556 1.613 . S
N557 C560 1.350 . S
N558 S556 1.610 . S
N558 C559 1.351 . S
C559 C553 1.428 . S
C559 N558 1.351 . S
C559 C560 1.434 . S
C560 C551 1.429 . S
C560 N557 1.350 . S
C560 C559 1.434 . S
C561 C562 1.369 . S
C561 C563 1.419 . S
C561 H565 0.930 . S
C562 C561 1.369 . S
C562 C571 1.429 . S
C563 C561 1.419 . S
C563 C564 1.363 . S
C563 H566 0.929 . S
C564 C563 1.363 . S
C564 C570 1.428 . S
H565 C561 0.930 . S
H566 C563 0.929 . S
S567 N568 1.613 1_545 S
S567 N569 1.610 1_545 S
N568 S567 1.613 1_565 S
N568 C571 1.350 . S
N569 S567 1.610 1_565 S
N569 C570 1.351 . S
C570 C564 1.428 . S
C570 N569 1.351 . S
C570 C571 1.434 . S
C571 C562 1.429 . S
C571 N568 1.350 . S
C571 C570 1.434 . S
C572 C573 1.369 . S
C572 C574 1.419 . S
C572 H576 0.930 . S
C573 C572 1.369 . S
C573 C582 1.429 . S
C574 C572 1.419 . S
C574 C575 1.363 . S
C574 H577 0.929 . S
C575 C574 1.363 . S
C575 C581 1.428 . S
H576 C572 0.930 . S
H577 C574 0.929 . S
S578 N579 1.613 . S
S578 N580 1.610 . S
N579 S578 1.613 . S
N579 C582 1.350 . S
N580 S578 1.610 . S
N580 C581 1.351 . S
C581 C575 1.428 . S
C581 N580 1.351 . S
C581 C582 1.434 . S
C582 C573 1.429 . S
C582 N579 1.350 . S
C582 C581 1.434 . S
C583 C584 1.369 . S
C583 C585 1.419 . S
C583 H587 0.930 . S
C584 C583 1.369 . S
C584 C593 1.429 . S
C585 C583 1.419 . S
C585 C586 1.363 . S
C585 H588 0.929 . S
C586 C585 1.363 . S
C586 C592 1.428 . S
H587 C583 0.930 . S
H588 C585 0.929 . S
S589 N590 1.613 . S
S589 N591 1.610 . S
N590 S589 1.613 . S
N590 C593 1.350 . S
N591 S589 1.610 . S
N591 C592 1.351 . S
C592 C586 1.428 . S
C592 N591 1.351 . S
C592 C593 1.434 . S
C593 C584 1.429 . S
C593 N590 1.350 . S
C593 C592 1.434 . S
C594 C595 1.369 . S
C594 C596 1.419 . S
C594 H598 0.930 . S
C595 C594 1.369 . S
C595 C604 1.429 . S
C596 C594 1.419 . S
C596 C597 1.363 . S
C596 H599 0.929 . S
C597 C596 1.363 . S
C597 C603 1.428 . S
H598 C594 0.930 . S
H599 C596 0.929 . S
S600 N601 1.613 . S
S600 N602 1.610 . S
N601 S600 1.613 . S
N601 C604 1.350 . S
N602 S600 1.610 . S
N602 C603 1.351 . S
C603 C597 1.428 . S
C603 N602 1.351 . S
C603 C604 1.434 . S
C604 C595 1.429 . S
C604 N601 1.350 . S
C604 C603 1.434 . S
C605 C606 1.369 1_655 S
C605 C607 1.419 . S
C605 H609 0.930 . S
C606 C605 1.369 1_455 S
C606 C615 1.429 . S
C607 C605 1.419 . S
C607 C608 1.363 . S
C607 H610 0.929 . S
C608 C607 1.363 . S
C608 C614 1.428 1_655 S
H609 C605 0.930 . S
H610 C607 0.929 . S
S611 N612 1.613 . S
S611 N613 1.610 . S
N612 S611 1.613 . S
N612 C615 1.350 . S
N613 S611 1.610 . S
N613 C614 1.351 . S
C614 C608 1.428 1_455 S
C614 N613 1.351 . S
C614 C615 1.434 . S
C615 C606 1.429 . S
C615 N612 1.350 . S
C615 C614 1.434 . S
C616 C617 1.369 . S
C616 C618 1.419 . S
C616 H620 0.930 . S
C617 C616 1.369 . S
C617 C626 1.429 1_565 S
C618 C616 1.419 . S
C618 C619 1.363 1_565 S
C618 H621 0.929 . S
C619 C618 1.363 1_545 S
C619 C625 1.428 . S
H620 C616 0.930 . S
H621 C618 0.929 . S
S622 N623 1.613 . S
S622 N624 1.610 . S
N623 S622 1.613 . S
N623 C626 1.350 . S
N624 S622 1.610 . S
N624 C625 1.351 . S
C625 C619 1.428 . S
C625 N624 1.351 . S
C625 C626 1.434 . S
C626 C617 1.429 1_545 S
C626 N623 1.350 . S
C626 C625 1.434 . S
C627 C628 1.369 . S
C627 C629 1.419 . S
C627 H631 0.930 . S
C628 C627 1.369 . S
C628 C637 1.429 . S
C629 C627 1.419 . S
C629 C630 1.363 . S
C629 H632 0.929 . S
C630 C629 1.363 . S
C630 C636 1.428 . S
H631 C627 0.930 . S
H632 C629 0.929 . S
S633 N634 1.613 . S
S633 N635 1.610 . S
N634 S633 1.613 . S
N634 C637 1.350 . S
N635 S633 1.610 . S
N635 C636 1.351 . S
C636 C630 1.428 . S
C636 N635 1.351 . S
C636 C637 1.434 . S
C637 C628 1.429 . S
C637 N634 1.350 . S
C637 C636 1.434 . S
C638 C639 1.369 . S
C638 C640 1.419 . S
C638 H642 0.930 . S
C639 C638 1.369 . S
C639 C648 1.429 1_455 S
C640 C638 1.419 . S
C640 C641 1.363 1_455 S
C640 H643 0.929 . S
C641 C640 1.363 1_655 S
C641 C647 1.428 . S
H642 C638 0.930 . S
H643 C640 0.929 . S
S644 N645 1.613 . S
S644 N646 1.610 . S
N645 S644 1.613 . S
N645 C648 1.350 . S
N646 S644 1.610 . S
N646 C647 1.351 . S
C647 C641 1.428 . S
C647 N646 1.351 . S
C647 C648 1.434 . S
C648 C639 1.429 1_655 S
C648 N645 1.350 . S
C648 C647 1.434 . S
C649 C650 1.369 . S
C649 C651 1.419 . S
C649 H653 0.930 . S
C650 C649 1.369 . S
C650 C659 1.429 1_565 S
C651 C649 1.419 . S
C651 C652 1.363 1_565 S
C651 H654 0.929 . S
C652 C651 1.363 1_545 S
C652 C658 1.428 . S
H653 C649 0.930 . S
H654 C651 0.929 . S
S655 N656 1.613 . S
S655 N657 1.610 . S
N656 S655 1.613 . S
N656 C659 1.350 . S
N657 S655 1.610 . S
N657 C658 1.351 . S
C658 C652 1.428 . S
C658 N657 1.351 . S
C658 C659 1.434 . S
C659 C650 1.429 1_545 S
C659 N656 1.350 . S
C659 C658 1.434 . S
C660 C661 1.369 . S
C660 C662 1.419 1_455 S
C660 H664 0.930 . S
C661 C660 1.369 . S
C661 C670 1.429 1_545 S
C662 C660 1.419 1_655 S
C662 C663 1.363 1_545 S
C662 H665 0.929 . S
C663 C662 1.363 1_565 S
C663 C669 1.428 . S
H664 C660 0.930 . S
H665 C662 0.929 . S
S666 N667 1.613 1_655 S
S666 N668 1.610 . S
N667 S666 1.613 1_455 S
N667 C670 1.350 . S
N668 S666 1.610 . S
N668 C669 1.351 . S
C669 C663 1.428 . S
C669 N668 1.351 . S
C669 C670 1.434 1_655 S
C670 C661 1.429 1_565 S
C670 N667 1.350 . S
C670 C669 1.434 1_455 S
C671 C672 1.369 1_655 S
C671 C673 1.419 1_545 S
C671 H675 0.930 . S
C672 C671 1.369 1_455 S
C672 C681 1.429 . S
C673 C671 1.419 1_565 S
C673 C674 1.363 . S
C673 H676 0.929 . S
C674 C673 1.363 . S
C674 C680 1.428 1_655 S
H675 C671 0.930 . S
H676 C673 0.929 . S
S677 N678 1.613 1_565 S
S677 N679 1.610 . S
N678 S677 1.613 1_545 S
N678 C681 1.350 . S
N679 S677 1.610 . S
N679 C680 1.351 . S
C680 C674 1.428 1_455 S
C680 N679 1.351 . S
C680 C681 1.434 1_565 S
C681 C672 1.429 . S
C681 N678 1.350 . S
C681 C680 1.434 1_545 S
C682 C683 1.369 1_565 S
C682 C684 1.419 . S
C682 H686 0.930 . S
C683 C682 1.369 1_545 S
C683 C692 1.429 1_655 S
C684 C682 1.419 . S
C684 C685 1.363 1_655 S
C684 H687 0.929 . S
C685 C684 1.363 1_455 S
C685 C691 1.428 1_565 S
H686 C682 0.930 . S
H687 C684 0.929 . S
S688 N689 1.613 . S
S688 N690 1.610 . S
N689 S688 1.613 . S
N689 C692 1.350 . S
N690 S688 1.610 . S
N690 C691 1.351 . S
C691 C685 1.428 1_545 S
C691 N690 1.351 . S
C691 C692 1.434 . S
C692 C683 1.429 1_455 S
C692 N689 1.350 . S
C692 C691 1.434 . S
C693 C694 1.369 1_455 S
C693 C695 1.419 1_565 S
C693 H697 0.930 . S
C694 C693 1.369 1_655 S
C694 C703 1.429 . S
C695 C693 1.419 1_545 S
C695 C696 1.363 . S
C695 H698 0.929 . S
C696 C695 1.363 . S
C696 C702 1.428 1_455 S
H697 C693 0.930 . S
H698 C695 0.929 . S
S699 N700 1.613 . S
S699 N701 1.610 1_565 S
N700 S699 1.613 . S
N700 C703 1.350 . S
N701 S699 1.610 1_545 S
N701 C702 1.351 . S
C702 C696 1.428 1_655 S
C702 N701 1.351 . S
C702 C703 1.434 1_545 S
C703 C694 1.429 . S
C703 N700 1.350 . S
C703 C702 1.434 1_565 S
C704 C705 1.369 1_565 S
C704 C706 1.419 1_655 S
C704 H708 0.930 . S
C705 C704 1.369 1_545 S
C705 C714 1.429 . S
C706 C704 1.419 1_455 S
C706 C707 1.363 . S
C706 H709 0.929 . S
C707 C706 1.363 . S
C707 C713 1.428 1_565 S
H708 C704 0.930 . S
H709 C706 0.929 . S
S710 N711 1.613 1_455 S
S710 N712 1.610 . S
N711 S710 1.613 1_655 S
N711 C714 1.350 . S
N712 S710 1.610 . S
N712 C713 1.351 . S
C713 C707 1.428 1_545 S
C713 N712 1.351 . S
C713 C714 1.434 1_455 S
C714 C705 1.429 . S
C714 N711 1.350 . S
C714 C713 1.434 1_655 S
C715 C716 1.369 . S
C715 C717 1.419 1_455 S
C715 H719 0.930 . S
C716 C715 1.369 . S
C716 C725 1.429 1_545 S
C717 C715 1.419 1_655 S
C717 C718 1.363 1_545 S
C717 H720 0.929 . S
C718 C717 1.363 1_565 S
C718 C724 1.428 . S
H719 C715 0.930 . S
H720 C717 0.929 . S
S721 N722 1.613 . S
S721 N723 1.610 1_455 S
N722 S721 1.613 . S
N722 C725 1.350 . S
N723 S721 1.610 1_655 S
N723 C724 1.351 . S
C724 C718 1.428 . S
C724 N723 1.351 . S
C724 C725 1.434 1_655 S
C725 C716 1.429 1_565 S
C725 N722 1.350 . S
C725 C724 1.434 1_455 S
C397 N13 1.526 . S
C399 N244 1.531 . S
C408 N46 1.535 . S
C410 N277 1.532 . S
C419 N79 1.535 . S
C421 N310 1.530 . S
C430 N343 1.535 . S
C432 N112 1.531 . S
C441 N376 1.527 . S
C443 N145 1.527 . S
C452 N178 1.535 . S
C454 N211 1.532 . S
C463 C106 1.765 . S
C465 C7 1.762 . S
C474 C40 1.765 . S
C476 C139 1.762 . S
C485 C172 1.765 . S
C487 C73 1.762 . S
C496 C304 1.762 . S
C498 C205 1.765 . S
C507 C337 1.762 . S
C509 C238 1.765 . S
C518 C271 1.762 . S
C520 C370 1.765 . S
C529 N266 1.504 . S
C531 N2 1.499 . S
C540 N35 1.505 . S
C542 N299 1.501 . S
C551 N68 1.502 . S
C553 N332 1.498 . S
C562 N101 1.497 . S
C564 N365 1.497 . S
C573 N134 1.502 . S
C575 N200 1.504 . S
C584 N233 1.496 . S
C586 N167 1.498 . S
C595 C120 1.206 . S
C597 C21 1.207 . S
C606 C54 1.208 . S
C608 C153 1.208 . S
C617 C186 1.207 . S
C619 C87 1.207 . S
C628 C219 1.206 . S
C630 C318 1.207 . S
C639 C252 1.207 . S
C641 C351 1.207 . S
C650 C384 1.207 . S
C652 C285 1.207 . S
C661 C18 1.302 . S
C663 C117 1.299 . S
C672 C51 1.301 . S
C674 C150 1.299 . S
C683 C84 1.302 . S
C685 C183 1.299 . S
C694 C216 1.298 . S
C696 C315 1.302 . S
C705 C348 1.299 . S
C707 C249 1.301 . S
C716 C282 1.299 . S
C718 C381 1.301 . S
