# Generated by pormake.
# Topology snk, (6)-cn, num edge types: 1
# Building blocks:
#     Node 0, Type 0, BuildingBlock: BETFEN_clean_sbu_0, # of connection points: 6
#     Node 1, Type 0, BuildingBlock: BETFEN_clean_sbu_0, # of connection points: 6
#     Node 2, Type 0, BuildingBlock: BETFEN_clean_sbu_0, # of connection points: 6
#     Node 3, Type 0, BuildingBlock: BETFEN_clean_sbu_0, # of connection points: 6
#     Node 4, Type 0, BuildingBlock: BETFEN_clean_sbu_0, # of connection points: 6
#     Node 5, Type 0, BuildingBlock: BETFEN_clean_sbu_0, # of connection points: 6
#     Node 6, Type 0, BuildingBlock: BETFEN_clean_sbu_0, # of connection points: 6
#     Node 7, Type 0, BuildingBlock: BETFEN_clean_sbu_0, # of connection points: 6
#     Edge 8, Type (0, 0), BuildingBlock: UVAHIK_clean_linker_0, # of connection points: 2
#     Edge 9, Type (0, 0), BuildingBlock: UVAHIK_clean_linker_0, # of connection points: 2
#     Edge 10, Type (0, 0), BuildingBlock: UVAHIK_clean_linker_0, # of connection points: 2
#     Edge 11, Type (0, 0), BuildingBlock: UVAHIK_clean_linker_0, # of connection points: 2
#     Edge 12, Type (0, 0), BuildingBlock: UVAHIK_clean_linker_0, # of connection points: 2
#     Edge 13, Type (0, 0), BuildingBlock: UVAHIK_clean_linker_0, # of connection points: 2
#     Edge 14, Type (0, 0), BuildingBlock: UVAHIK_clean_linker_0, # of connection points: 2
#     Edge 15, Type (0, 0), BuildingBlock: UVAHIK_clean_linker_0, # of connection points: 2
#     Edge 16, Type (0, 0), BuildingBlock: UVAHIK_clean_linker_0, # of connection points: 2
#     Edge 17, Type (0, 0), BuildingBlock: UVAHIK_clean_linker_0, # of connection points: 2
#     Edge 18, Type (0, 0), BuildingBlock: UVAHIK_clean_linker_0, # of connection points: 2
#     Edge 19, Type (0, 0), BuildingBlock: UVAHIK_clean_linker_0, # of connection points: 2
#     Edge 20, Type (0, 0), BuildingBlock: UVAHIK_clean_linker_0, # of connection points: 2
#     Edge 21, Type (0, 0), BuildingBlock: UVAHIK_clean_linker_0, # of connection points: 2
#     Edge 22, Type (0, 0), BuildingBlock: UVAHIK_clean_linker_0, # of connection points: 2
#     Edge 23, Type (0, 0), BuildingBlock: UVAHIK_clean_linker_0, # of connection points: 2
#     Edge 24, Type (0, 0), BuildingBlock: UVAHIK_clean_linker_0, # of connection points: 2
#     Edge 25, Type (0, 0), BuildingBlock: UVAHIK_clean_linker_0, # of connection points: 2
#     Edge 26, Type (0, 0), BuildingBlock: UVAHIK_clean_linker_0, # of connection points: 2
#     Edge 27, Type (0, 0), BuildingBlock: UVAHIK_clean_linker_0, # of connection points: 2
#     Edge 28, Type (0, 0), BuildingBlock: UVAHIK_clean_linker_0, # of connection points: 2
#     Edge 29, Type (0, 0), BuildingBlock: UVAHIK_clean_linker_0, # of connection points: 2
#     Edge 30, Type (0, 0), BuildingBlock: UVAHIK_clean_linker_0, # of connection points: 2
#     Edge 31, Type (0, 0), BuildingBlock: UVAHIK_clean_linker_0, # of connection points: 2
# Relax obj value: 0.081
# Max RMSD: 0.136
# Mean RMSD: 0.118
data_MOF--net-snk--node1-BETFEN_clean_sbu_0--edge1-UVAHIK_clean_linker_0
_symmetry_space_group_name_H-M    P1
_symmetry_Int_Tables_number       1
_symmetry_cell_setting            triclinic
loop_
_symmetry_equiv_pos_as_xyz
'x, y, z'
_cell_length_a     50.381257
_cell_length_b     50.389601
_cell_length_c     30.196899
_cell_angle_alpha  96.18683
_cell_angle_beta   96.040726
_cell_angle_gamma 90.897722
loop_
_atom_site_label
_atom_site_type_symbol
_atom_site_fract_x
_atom_site_fract_y
_atom_site_fract_z
_atom_type_partial_charge
Pr0 Pr 0.98905 0.99302 0.45895 0.0
Pr1 Pr 0.01333 0.01501 0.55405 0.0
C2 C 0.96725 0.98505 0.37289 0.0
C3 C 0.97365 0.98733 0.32698 0.0
C4 C 0.96136 0.96947 0.29174 0.0
C5 C 0.96648 0.97157 0.24765 0.0
C6 C 0.98401 0.99164 0.2379 0.0
C7 C 0.9965 0.0094 0.27347 0.0
C8 C 0.9914 0.00723 0.31765 0.0
C9 C 0.02765 0.96134 0.49814 0.0
C10 C 0.04161 0.03592 0.47162 0.0
C11 C 0.03551 0.02251 0.63989 0.0
C12 C 0.0293 0.02004 0.68584 0.0
C13 C 0.04165 0.03781 0.72112 0.0
C14 C 0.03658 0.03565 0.76522 0.0
C15 C 0.01902 0.0156 0.77492 0.0
C16 C 0.00649 0.99788 0.73932 0.0
C17 C 0.01154 1.00012 0.69513 0.0
C18 C 0.97485 0.0469 0.51498 0.0
C19 C 0.96058 0.97236 0.54138 0.0
O20 O 0.96527 0.00731 0.39882 0.0
O21 O 0.97901 0.96628 0.39374 0.0
O22 O 0.02925 0.98642 0.49965 0.0
O23 O 0.00608 0.95158 0.47422 0.0
O24 O 0.04572 0.03171 0.51414 0.0
O25 O 0.02046 0.02558 0.44536 0.0
O26 O 0.03738 1.00034 0.6136 0.0
O27 O 0.0237 0.04141 0.61947 0.0
O28 O 0.97323 0.0218 0.51317 0.0
O29 O 0.99616 0.05655 0.5398 0.0
O30 O 0.95648 0.97659 0.49885 0.0
O31 O 0.98179 0.98257 0.56759 0.0
H32 H 0.94755 0.95402 0.2983 0.0
H33 H 0.95626 0.9578 0.22107 0.0
H34 H 0.01034 0.02488 0.26719 0.0
H35 H 1.00118 0.02116 0.34444 0.0
H36 H 0.05545 0.05328 0.71459 0.0
H37 H 0.04683 0.04939 0.79182 0.0
H38 H 0.99263 0.98241 0.74558 0.0
H39 H 1.0017 0.98626 0.66831 0.0
Pr40 Pr 0.26106 0.74087 0.70293 0.0
Pr41 Pr 0.25001 0.7696 0.79708 0.0
C42 C 0.25833 0.71574 0.61899 0.0
C43 C 0.25643 0.72185 0.57224 0.0
C44 C 0.26247 0.74755 0.56172 0.0
C45 C 0.2617 0.75265 0.51692 0.0
C46 C 0.25483 0.73211 0.48189 0.0
C47 C 0.24827 0.70652 0.49285 0.0
C48 C 0.24909 0.70147 0.5376 0.0
C49 C 0.29734 0.78144 0.73959 0.0
C50 C 0.22126 0.79381 0.70876 0.0
C51 C 0.25336 0.79506 0.88082 0.0
C52 C 0.25567 0.78909 0.92766 0.0
C53 C 0.24969 0.76344 0.93852 0.0
C54 C 0.25066 0.75851 0.98341 0.0
C55 C 0.25766 0.77914 0.01821 0.0
C56 C 0.2642 0.80466 1.00693 0.0
C57 C 0.26318 0.80956 0.96208 0.0
C58 C 0.21417 0.72834 0.76135 0.0
C59 C 0.28951 0.71651 0.79147 0.0
O60 O 0.23727 0.72033 0.64032 0.0
O61 O 0.28083 0.72255 0.64366 0.0
O62 O 0.27246 0.78206 0.74048 0.0
O63 O 0.30426 0.76006 0.71607 0.0
O64 O 0.23054 0.79987 0.75127 0.0
O65 O 0.22787 0.77166 0.68517 0.0
O66 O 0.27423 0.79049 0.85897 0.0
O67 O 0.23071 0.78813 0.8567 0.0
O68 O 0.23897 0.72831 0.75976 0.0
O69 O 0.20705 0.74937 0.7856 0.0
O70 O 0.28005 0.71034 0.74901 0.0
O71 O 0.28319 0.73885 0.81483 0.0
H72 H 0.26813 0.76356 0.58812 0.0
H73 H 0.26709 0.77251 0.50975 0.0
H74 H 0.24243 0.69037 0.46683 0.0
H75 H 0.24422 0.68154 0.54515 0.0
H76 H 0.24389 0.74737 0.9123 0.0
H77 H 0.24528 0.7387 0.99083 0.0
H78 H 0.27014 0.82088 0.03277 0.0
H79 H 0.26801 0.82945 0.95427 0.0
Pr80 Pr 0.51771 0.99407 0.06969 0.0
Pr81 Pr 0.48764 1.00165 0.9757 0.0
C82 C 0.54294 0.99896 0.15374 0.0
C83 C 0.53671 1.00011 0.2005 0.0
C84 C 0.51233 0.98995 0.21102 0.0
C85 C 0.50723 0.99023 0.2558 0.0
C86 C 0.52642 1.00073 0.29091 0.0
C87 C 0.55062 0.01134 0.27996 0.0
C88 C 0.55569 0.01101 0.23522 0.0
C89 C 0.47668 0.95691 0.03852 0.0
C90 C 0.46459 0.03312 0.06223 0.0
C91 C 0.46225 0.99644 0.89179 0.0
C92 C 0.46857 0.99488 0.84503 0.0
C93 C 0.49304 0.00481 0.83445 0.0
C94 C 0.49817 0.00437 0.78967 0.0
C95 C 0.47892 0.99395 0.75459 0.0
C96 C 0.45465 0.98354 0.76559 0.0
C97 C 0.44955 0.98403 0.81035 0.0
C98 C 0.52881 0.03879 1.00676 0.0
C99 C 0.5408 0.96281 0.9829 0.0
O100 O 0.53636 0.01949 0.13223 0.0
O101 O 0.5383 0.97606 0.12904 0.0
O102 O 0.4759 0.98153 0.03535 0.0
O103 O 0.49865 0.95071 0.06102 0.0
O104 O 0.45719 0.02069 0.02193 0.0
O105 O 0.48803 0.02895 0.08423 0.0
O106 O 0.4685 0.976 0.91376 0.0
O107 O 0.46715 0.01944 0.91608 0.0
O108 O 0.52935 0.0142 0.01021 0.0
O109 O 0.50719 0.04489 0.98316 0.0
O110 O 0.54829 0.97532 0.02314 0.0
O111 O 0.51724 0.96679 0.96119 0.0
H112 H 0.49738 0.98149 0.18464 0.0
H113 H 0.4885 0.98167 0.2629 0.0
H114 H 0.56565 0.02001 0.30598 0.0
H115 H 0.57456 0.01909 0.22773 0.0
H116 H 0.50802 0.01325 0.8608 0.0
H117 H 0.51696 0.01279 0.78254 0.0
H118 H 0.43957 0.97493 0.7396 0.0
H119 H 0.4306 0.97615 0.81787 0.0
Pr120 Pr 0.26303 0.26552 0.30521 0.0
Pr121 Pr 0.24229 0.24072 0.20936 0.0
C122 C 0.26926 0.28839 0.39072 0.0
C123 C 0.26741 0.28229 0.43688 0.0
C124 C 0.28485 0.29553 0.47174 0.0
C125 C 0.28299 0.29085 0.51608 0.0
C126 C 0.26356 0.27282 0.52645 0.0
C127 C 0.24633 0.25924 0.49124 0.0
C128 C 0.24824 0.26393 0.44681 0.0
C129 C 0.29468 0.22575 0.26894 0.0
C130 C 0.21967 0.21336 0.29158 0.0
C131 C 0.23595 0.21774 0.1239 0.0
C132 C 0.23815 0.22363 0.07774 0.0
C133 C 0.22089 0.21029 0.04273 0.0
C134 C 0.223 0.21485 0.99841 0.0
C135 C 0.24251 0.23286 0.98821 0.0
C136 C 0.25958 0.24652 0.02357 0.0
C137 C 0.25741 0.24195 0.06798 0.0
C138 C 0.21051 0.28025 0.24607 0.0
C139 C 0.28547 0.29303 0.22302 0.0
O140 O 0.24688 0.28853 0.36446 0.0
O141 O 0.28893 0.27792 0.37045 0.0
O142 O 0.26952 0.22492 0.26541 0.0
O143 O 0.30445 0.24687 0.2942 0.0
O144 O 0.22449 0.2089 0.24933 0.0
O145 O 0.22987 0.23455 0.3179 0.0
O146 O 0.2582 0.21716 0.15037 0.0
O147 O 0.21644 0.22876 0.14392 0.0
O148 O 0.23566 0.28122 0.24921 0.0
O149 O 0.20078 0.2591 0.22082 0.0
O150 O 0.28057 0.29743 0.26524 0.0
O151 O 0.2754 0.2718 0.19666 0.0
H152 H 0.29985 0.30967 0.46467 0.0
H153 H 0.29688 0.30128 0.54224 0.0
H154 H 0.23099 0.2454 0.49805 0.0
H155 H 0.23458 0.25346 0.42034 0.0
H156 H 0.20582 0.19618 0.04967 0.0
H157 H 0.20923 0.20435 0.97213 0.0
H158 H 0.27496 0.26034 0.01689 0.0
H159 H 0.27092 0.2525 0.09459 0.0
Pr160 Pr 0.75371 0.23891 0.21097 0.0
Pr161 Pr 0.74677 0.2679 0.3067 0.0
C162 C 0.74802 0.21342 0.12711 0.0
C163 C 0.74682 0.21956 0.08042 0.0
C164 C 0.7565 0.24414 0.07 0.0
C165 C 0.75623 0.2492 0.02527 0.0
C166 C 0.74623 0.22976 0.99018 0.0
C167 C 0.73611 0.20535 1.00102 0.0
C168 C 0.73643 0.20032 0.04573 0.0
C169 C 0.78954 0.28134 0.24108 0.0
C170 C 0.71315 0.29049 0.22158 0.0
C171 C 0.75231 0.29332 0.39062 0.0
C172 C 0.75339 0.28719 0.43729 0.0
C173 C 0.74362 0.26263 0.44766 0.0
C174 C 0.74381 0.25757 0.49238 0.0
C175 C 0.75382 0.27698 0.52751 0.0
C176 C 0.76402 0.30137 0.51672 0.0
C177 C 0.76378 0.3064 0.47203 0.0
C178 C 0.71099 0.22542 0.27641 0.0
C179 C 0.78749 0.21646 0.29609 0.0
O180 O 0.72772 0.22055 0.14896 0.0
O181 O 0.77109 0.21773 0.15135 0.0
O182 O 0.76516 0.28069 0.24624 0.0
O183 O 0.79597 0.26038 0.21598 0.0
O184 O 0.72617 0.298 0.26138 0.0
O185 O 0.71746 0.26727 0.19892 0.0
O186 O 0.77265 0.28614 0.3689 0.0
O187 O 0.72929 0.28908 0.36624 0.0
O188 O 0.7354 0.22613 0.27151 0.0
O189 O 0.70447 0.24637 0.30141 0.0
O190 O 0.77446 0.20889 0.25631 0.0
O191 O 0.78311 0.23966 0.31874 0.0
H192 H 0.76458 0.25926 0.09643 0.0
H193 H 0.76441 0.26809 0.01818 0.0
H194 H 0.72784 0.19013 0.97495 0.0
H195 H 0.72874 0.18129 0.0532 0.0
H196 H 0.73555 0.24752 0.4212 0.0
H197 H 0.73557 0.23869 0.49943 0.0
H198 H 0.77229 0.31657 0.54282 0.0
H199 H 0.77154 0.32541 0.4646 0.0
Pr200 Pr 0.76478 0.76555 0.80757 0.0
Pr201 Pr 0.74211 0.74162 0.71256 0.0
C202 C 0.77352 0.78723 0.89369 0.0
C203 C 0.77103 0.7813 0.93976 0.0
C204 C 0.78913 0.79344 0.97473 0.0
C205 C 0.78675 0.78895 0.01901 0.0
C206 C 0.76614 0.77222 0.02924 0.0
C207 C 0.74824 0.75971 0.9939 0.0
C208 C 0.75067 0.76421 0.94951 0.0
C209 C 0.79635 0.72747 0.76663 0.0
C210 C 0.72179 0.71302 0.79505 0.0
C211 C 0.7339 0.71956 0.62663 0.0
C212 C 0.73673 0.7253 0.58057 0.0
C213 C 0.71877 0.7131 0.54543 0.0
C214 C 0.72139 0.71748 0.50118 0.0
C215 C 0.7421 0.73415 0.49114 0.0
C216 C 0.75987 0.74669 0.52663 0.0
C217 C 0.75721 0.7423 0.57099 0.0
C218 C 0.71056 0.77994 0.75327 0.0
C219 C 0.78483 0.79426 0.72485 0.0
O220 O 0.75137 0.78998 0.86799 0.0
O221 O 0.79177 0.77459 0.87266 0.0
O222 O 0.77131 0.72561 0.76585 0.0
O223 O 0.80611 0.74902 0.79067 0.0
O224 O 0.72565 0.70913 0.75234 0.0
O225 O 0.73235 0.73403 0.82149 0.0
O226 O 0.7559 0.71686 0.65279 0.0
O227 O 0.71551 0.73233 0.64714 0.0
O228 O 0.73562 0.78157 0.75432 0.0
O229 O 0.70073 0.75866 0.7285 0.0
O230 O 0.78101 0.79821 0.76762 0.0
O231 O 0.77439 0.77315 0.69859 0.0
H232 H 0.80505 0.80658 0.96779 0.0
H233 H 0.80117 0.79851 0.04524 0.0
H234 H 0.73202 0.74689 1.00059 0.0
H235 H 0.73649 0.75461 0.92293 0.0
H236 H 0.70276 0.70003 0.55223 0.0
H237 H 0.70707 0.70789 0.47482 0.0
H238 H 0.77617 0.75948 0.52009 0.0
H239 H 0.77128 0.75194 0.5977 0.0
Pr240 Pr 0.48994 0.49322 0.96101 0.0
Pr241 Pr 0.51396 0.51579 0.05596 0.0
C242 C 0.46786 0.48525 0.87515 0.0
C243 C 0.4737 0.48788 0.82905 0.0
C244 C 0.46244 0.46913 0.79426 0.0
C245 C 0.46689 0.47151 0.74996 0.0
C246 C 0.48267 0.49278 0.7395 0.0
C247 C 0.49429 0.51137 0.77466 0.0
C248 C 0.48986 0.50893 0.81907 0.0
C249 C 0.52781 0.46122 1.00115 0.0
C250 C 0.543 0.53553 0.97347 0.0
C251 C 0.53541 0.52488 0.1421 0.0
C252 C 0.52952 0.52206 0.1881 0.0
C253 C 0.54057 0.54081 0.22305 0.0
C254 C 0.53612 0.53822 0.26729 0.0
C255 C 0.52053 0.51673 0.27749 0.0
C256 C 0.5091 0.49815 0.24216 0.0
C257 C 0.51355 0.5008 0.19783 0.0
C258 C 0.47619 0.54754 0.01475 0.0
C259 C 0.46147 0.4729 0.0437 0.0
O260 O 0.46543 0.50731 0.90141 0.0
O261 O 0.48027 0.46667 0.89556 0.0
O262 O 0.52976 0.4863 1.00271 0.0
O263 O 0.50651 0.45167 0.97619 0.0
O264 O 0.54682 0.5317 0.01619 0.0
O265 O 0.52189 0.52519 0.94711 0.0
O266 O 0.53882 0.50292 0.11623 0.0
O267 O 0.52226 0.54283 0.12123 0.0
O268 O 0.4741 0.52256 0.01444 0.0
O269 O 0.49789 0.5572 0.03843 0.0
O270 O 0.45744 0.47681 1.00104 0.0
O271 O 0.48256 0.48338 0.06993 0.0
H272 H 0.45004 0.45267 0.80136 0.0
H273 H 0.45804 0.45657 0.7239 0.0
H274 H 0.50637 0.52811 0.76779 0.0
H275 H 0.49881 0.52361 0.84549 0.0
H276 H 0.55283 0.55743 0.21615 0.0
H277 H 0.54481 0.55315 0.2935 0.0
H278 H 0.49718 0.48126 0.24884 0.0
H279 H 0.50478 0.48612 0.17126 0.0
Pr280 Pr 0.01594 0.49468 0.55787 0.0
Pr281 Pr 0.98737 0.50435 0.46301 0.0
C282 C 0.04132 0.49841 0.6416 0.0
C283 C 0.03509 0.49993 0.68826 0.0
C284 C 0.00916 0.49444 0.6984 0.0
C285 C 0.0038 0.49511 0.74307 0.0
C286 C 0.02428 0.5014 0.77832 0.0
C287 C 0.05015 0.50723 0.76779 0.0
C288 C 0.05548 0.50648 0.72316 0.0
C289 C 0.97378 0.45937 0.52433 0.0
C290 C 0.96415 0.53566 0.55052 0.0
C291 C 0.96215 0.50029 0.3791 0.0
C292 C 0.96851 0.49853 0.33249 0.0
C293 C 0.99443 0.50418 0.32247 0.0
C294 C 0.99989 0.50334 0.27784 0.0
C295 C 0.97954 0.49673 0.2425 0.0
C296 C 0.95369 0.49071 0.25292 0.0
C297 C 0.94825 0.49162 0.29752 0.0
C298 C 0.02966 0.53961 0.49623 0.0
C299 C 0.03904 0.46357 0.47044 0.0
O300 O 0.03563 0.51925 0.62032 0.0
O301 O 0.03553 0.47567 0.61691 0.0
O302 O 0.97435 0.48404 0.52141 0.0
O303 O 0.9947 0.45223 0.54865 0.0
O304 O 0.95754 0.52522 0.50867 0.0
O305 O 0.98645 0.52942 0.57394 0.0
O306 O 0.96773 0.47957 0.40071 0.0
O307 O 0.96794 0.5231 0.40354 0.0
O308 O 0.02897 0.51499 0.49942 0.0
O309 O 0.00892 0.54665 0.47137 0.0
O310 O 0.04616 0.47503 0.51153 0.0
O311 O 0.01614 0.46885 0.44781 0.0
H312 H 0.99313 0.48949 0.67178 0.0
H313 H 0.98361 0.49086 0.75002 0.0
H314 H 0.06644 0.51183 0.79403 0.0
H315 H 0.07562 0.51073 0.71588 0.0
H316 H 0.01035 0.50942 0.34916 0.0
H317 H 0.02008 0.50774 0.271 0.0
H318 H 0.93748 0.48586 0.22661 0.0
H319 H 0.92812 0.48723 0.3047 0.0
C320 C 0.06009 0.0539 0.40644 0.0
C321 C 0.06106 0.05281 0.45293 0.0
C322 C 0.07804 0.0704 0.38899 0.0
C323 C 0.12007 0.13106 0.419 0.0
H324 H 0.15643 0.1053 0.31647 0.0
C325 C 0.20145 0.19508 0.35662 0.0
C326 C 0.20254 0.19407 0.31015 0.0
C327 C 0.1849 0.17724 0.37412 0.0
C328 C 0.14619 0.11297 0.34473 0.0
H329 H 0.08177 0.06817 0.51749 0.0
H330 H 0.1129 0.09709 0.48699 0.0
H331 H 0.12601 0.07536 0.34639 0.0
H332 H 0.18699 0.17351 0.24561 0.0
H333 H 0.15762 0.14289 0.27596 0.0
H334 H 0.13961 0.16879 0.41696 0.0
C335 C 0.09822 0.08519 0.4641 0.0
C336 C 0.12882 0.09575 0.36194 0.0
C337 C 0.08048 0.06849 0.48152 0.0
C338 C 0.18677 0.17472 0.2816 0.0
C339 C 0.17001 0.15704 0.29908 0.0
C340 C 0.13721 0.14836 0.40156 0.0
C341 C 0.09714 0.08639 0.41767 0.0
C342 C 0.11563 0.1046 0.39933 0.0
C343 C 0.16879 0.15809 0.34559 0.0
C344 C 0.15057 0.13955 0.36422 0.0
H345 H 0.04544 0.04205 0.38345 0.0
H346 H 0.07661 0.07105 0.35308 0.0
H347 H 0.10988 0.13857 0.44746 0.0
H348 H 0.21351 0.20957 0.37961 0.0
H349 H 0.18493 0.17836 0.41014 0.0
C350 C 0.07283 0.95637 0.53897 0.0
C351 C 0.04808 0.94497 0.51995 0.0
C352 C 0.09225 0.94065 0.55911 0.0
C353 C 0.12478 0.9066 0.62055 0.0
H354 H 0.13084 0.83308 0.57054 0.0
C355 C 0.19008 0.83202 0.71256 0.0
C356 C 0.20299 0.81233 0.68679 0.0
C357 C 0.17195 0.84879 0.69193 0.0
C358 C 0.12972 0.85366 0.58469 0.0
H359 H 0.02388 0.9085 0.50794 0.0
H360 H 0.05728 0.88123 0.54423 0.0
H361 H 0.09841 0.86122 0.5346 0.0
H362 H 0.2076 0.7953 0.61903 0.0
H363 H 0.17671 0.82506 0.58298 0.0
H364 H 0.15682 0.89929 0.66965 0.0
C365 C 0.06217 0.90207 0.54252 0.0
C366 C 0.11074 0.86972 0.56444 0.0
C367 C 0.04292 0.91772 0.52196 0.0
C368 C 0.19779 0.81011 0.63989 0.0
C369 C 0.17992 0.8271 0.61922 0.0
C370 C 0.14397 0.8906 0.64054 0.0
C371 C 0.08719 0.91326 0.5611 0.0
C372 C 0.10786 0.89636 0.58226 0.0
C373 C 0.16653 0.84649 0.64497 0.0
C374 C 0.1466 0.86385 0.62303 0.0
H375 H 0.07732 0.97736 0.53782 0.0
H376 H 0.11136 0.94992 0.57248 0.0
H377 H 0.12299 0.9269 0.63558 0.0
H378 H 0.19349 0.83412 0.7488 0.0
H379 H 0.16174 0.86314 0.71296 0.0
C380 C 0.30739 0.82369 0.78955 0.0
C381 C 0.31621 0.79966 0.76892 0.0
C382 C 0.32484 0.84019 0.81984 0.0
C383 C 0.39684 0.85272 0.85811 0.0
H384 H 0.36922 0.8906 0.96157 0.0
C385 C 0.46407 0.9106 1.00463 0.0
C386 C 0.45733 0.93744 0.01319 0.0
C387 C 0.44659 0.89269 0.9769 0.0
C388 C 0.37711 0.88011 0.93278 0.0
H389 H 0.34994 0.77383 0.76338 0.0
H390 H 0.38027 0.80216 0.8173 0.0
H391 H 0.33937 0.86134 0.90806 0.0
H392 H 0.42699 0.9666 1.00105 0.0
H393 H 0.39609 0.93505 0.9534 0.0
H394 H 0.43473 0.87118 0.88374 0.0
C395 C 0.36014 0.80874 0.80936 0.0
C396 C 0.36005 0.86353 0.90194 0.0
C397 C 0.34278 0.79244 0.77858 0.0
C398 C 0.43256 0.94595 0.99494 0.0
C399 C 0.4149 0.92796 0.96787 0.0
C400 C 0.41396 0.86896 0.88935 0.0
C401 C 0.35134 0.83275 0.83055 0.0
C402 C 0.36964 0.84985 0.86396 0.0
C403 C 0.42198 0.90132 0.95809 0.0
C404 C 0.40416 0.88295 0.92666 0.0
H405 H 0.28694 0.82967 0.78248 0.0
H406 H 0.31752 0.85879 0.83478 0.0
H407 H 0.40484 0.84286 0.82893 0.0
H408 H 0.48315 0.90365 0.01819 0.0
H409 H 0.45234 0.87217 0.96984 0.0
C410 C 0.4191 0.05204 0.06704 0.0
C411 C 0.4462 0.0518 0.08372 0.0
C412 C 0.40182 0.06977 0.08749 0.0
C413 C 0.39623 0.11409 0.19303 0.0
H414 H 0.34067 0.14662 0.11977 0.0
C415 C 0.33897 0.20603 0.25821 0.0
C416 C 0.31109 0.20478 0.24846 0.0
C417 C 0.35466 0.1864 0.23858 0.0
C418 C 0.35595 0.13749 0.14064 0.0
H419 H 0.47649 0.07025 0.13453 0.0
H420 H 0.44669 0.10166 0.16921 0.0
H421 H 0.36976 0.11444 0.08434 0.0
H422 H 0.27766 0.18205 0.21077 0.0
H423 H 0.30523 0.14796 0.17559 0.0
H424 H 0.38283 0.13789 0.24912 0.0
C425 C 0.43848 0.08768 0.14119 0.0
C426 C 0.37259 0.11897 0.12042 0.0
C427 C 0.45567 0.06975 0.1211 0.0
C428 C 0.29914 0.18356 0.21868 0.0
C429 C 0.31488 0.16411 0.19851 0.0
C430 C 0.37983 0.13285 0.21312 0.0
C431 C 0.41129 0.08789 0.12478 0.0
C432 C 0.39305 0.1071 0.14633 0.0
C433 C 0.34279 0.16532 0.20838 0.0
C434 C 0.35961 0.14481 0.18712 0.0
H435 H 0.41115 0.03833 0.03844 0.0
H436 H 0.38095 0.06902 0.07431 0.0
H437 H 0.41134 0.10498 0.21425 0.0
H438 H 0.3487 0.22219 0.28102 0.0
H439 H 0.37615 0.18794 0.24647 0.0
C440 C 0.92147 0.94005 0.5317 0.0
C441 C 0.94106 0.95558 0.56016 0.0
C442 C 0.90372 0.9234 0.54925 0.0
C443 C 0.87372 0.91265 0.65204 0.0
H444 H 0.86243 0.83974 0.59662 0.0
C445 C 0.8173 0.83323 0.73387 0.0
C446 C 0.80133 0.81386 0.70573 0.0
C447 C 0.83361 0.85109 0.71586 0.0
C448 C 0.86496 0.86014 0.61214 0.0
H449 H 0.95696 0.96615 0.62955 0.0
H450 H 0.92582 0.93724 0.66012 0.0
H451 H 0.89179 0.87005 0.56553 0.0
H452 H 0.7895 0.79851 0.63644 0.0
H453 H 0.81731 0.83003 0.60502 0.0
H454 H 0.84665 0.90297 0.6983 0.0
C455 C 0.92424 0.93797 0.62422 0.0
C456 C 0.88189 0.87749 0.59435 0.0
C457 C 0.94218 0.95442 0.60665 0.0
C458 C 0.80172 0.81303 0.65913 0.0
C459 C 0.81783 0.83105 0.6411 0.0
C460 C 0.85657 0.89538 0.66961 0.0
C461 C 0.90497 0.9221 0.59568 0.0
C462 C 0.88655 0.9039 0.61419 0.0
C463 C 0.83418 0.85019 0.66922 0.0
C464 C 0.85204 0.86884 0.65002 0.0
H465 H 0.92005 0.94043 0.49573 0.0
H466 H 0.88892 0.9116 0.52645 0.0
H467 H 0.87668 0.933 0.66774 0.0
H468 H 0.81762 0.83432 0.76994 0.0
H469 H 0.8462 0.86524 0.73866 0.0
C470 C 0.93359 0.05156 0.4627 0.0
C471 C 0.95501 0.06342 0.49202 0.0
C472 C 0.91546 0.0674 0.43979 0.0
C473 C 0.90786 0.13646 0.40746 0.0
H474 H 0.83277 0.11571 0.38577 0.0
C475 C 0.82554 0.20816 0.35265 0.0
C476 C 0.80679 0.19832 0.3166 0.0
C477 C 0.84378 0.19112 0.37224 0.0
C478 C 0.85374 0.12161 0.39129 0.0
H479 H 0.97394 0.10104 0.52138 0.0
H480 H 0.94187 0.12868 0.48301 0.0
H481 H 0.86406 0.08713 0.42428 0.0
H482 H 0.79234 0.16284 0.27304 0.0
H483 H 0.82401 0.13295 0.30796 0.0
H484 H 0.89723 0.17138 0.37565 0.0
C485 C 0.93942 0.10719 0.47633 0.0
C486 C 0.87172 0.1052 0.41321 0.0
C487 C 0.9577 0.09135 0.49871 0.0
C488 C 0.80659 0.17104 0.30068 0.0
C489 C 0.82459 0.1539 0.32077 0.0
C490 C 0.88983 0.153 0.38613 0.0
C491 C 0.91817 0.09545 0.44622 0.0
C492 C 0.89902 0.11248 0.42182 0.0
C493 C 0.84341 0.16382 0.35663 0.0
C494 C 0.86259 0.1458 0.37801 0.0
H495 H 0.93101 0.03004 0.45705 0.0
H496 H 0.89958 0.05759 0.41653 0.0
H497 H 0.92878 0.14247 0.41246 0.0
H498 H 0.82626 0.22908 0.36561 0.0
H499 H 0.85795 0.19923 0.40007 0.0
C500 C 0.70052 0.18674 0.21855 0.0
C501 C 0.69188 0.20556 0.25134 0.0
C502 C 0.6822 0.16924 0.19194 0.0
C503 C 0.63436 0.15116 0.12275 0.0
H504 H 0.58959 0.10276 0.176 0.0
C505 C 0.5679 0.05003 0.06346 0.0
C506 C 0.54818 0.05837 0.03193 0.0
C507 C 0.58493 0.06872 0.09021 0.0
C508 C 0.60195 0.11627 0.16086 0.0
H509 H 0.65769 0.22028 0.2835 0.0
H510 H 0.62559 0.18879 0.2377 0.0
H511 H 0.62017 0.13451 0.22447 0.0
H512 H 0.53137 0.09247 1.00212 0.0
H513 H 0.56203 0.12525 0.0481 0.0
H514 H 0.61596 0.1331 0.05915 0.0
C515 C 0.64649 0.18804 0.23225 0.0
C516 C 0.61925 0.13441 0.18845 0.0
C517 C 0.66478 0.20596 0.25831 0.0
C518 C 0.5464 0.0856 0.02632 0.0
C519 C 0.56384 0.10428 0.0525 0.0
C520 C 0.61668 0.13339 0.09519 0.0
C521 C 0.65506 0.16989 0.19843 0.0
C522 C 0.63579 0.15172 0.16953 0.0
C523 C 0.58291 0.09596 0.08508 0.0
C524 C 0.60062 0.11562 0.11408 0.0
H525 H 0.72136 0.18587 0.21279 0.0
H526 H 0.68921 0.15516 0.16632 0.0
H527 H 0.64692 0.16448 0.1076 0.0
H528 H 0.56982 0.02911 0.06815 0.0
H529 H 0.59974 0.06192 0.11486 0.0
C530 C 0.6663 0.79749 0.77025 0.0
C531 C 0.69427 0.79996 0.7765 0.0
C532 C 0.65072 0.81614 0.79256 0.0
C533 C 0.65129 0.8638 0.89242 0.0
H534 H 0.59172 0.89466 0.82572 0.0
C535 C 0.58667 0.94525 0.97539 0.0
C536 C 0.55925 0.94454 0.96063 0.0
C537 C 0.60404 0.92841 0.95315 0.0
C538 C 0.60801 0.88597 0.84508 0.0
H539 H 0.72794 0.8239 0.8107 0.0
H540 H 0.70061 0.85623 0.85069 0.0
H541 H 0.62021 0.86366 0.78654 0.0
H542 H 0.52842 0.92508 0.91185 0.0
H543 H 0.55835 0.89522 0.87423 0.0
H544 H 0.63869 0.88536 0.95121 0.0
C545 C 0.69081 0.83987 0.82842 0.0
C546 C 0.62441 0.86832 0.8225 0.0
C547 C 0.70641 0.82143 0.80552 0.0
C548 C 0.5495 0.92636 0.92375 0.0
C549 C 0.56675 0.90932 0.90194 0.0
C550 C 0.63466 0.88121 0.91518 0.0
C551 C 0.66281 0.83744 0.82202 0.0
C552 C 0.64611 0.85694 0.84595 0.0
C553 C 0.59431 0.91027 0.916 0.0
C554 C 0.61266 0.89239 0.89183 0.0
H555 H 0.65641 0.78112 0.74811 0.0
H556 H 0.62918 0.81367 0.7873 0.0
H557 H 0.66778 0.85512 0.91135 0.0
H558 H 0.59481 0.95915 1.00359 0.0
H559 H 0.62516 0.92998 0.96466 0.0
C560 C 0.56187 0.55302 0.90823 0.0
C561 C 0.56268 0.55215 0.95472 0.0
C562 C 0.57994 0.56936 0.89072 0.0
C563 C 0.6443 0.608 0.9205 0.0
H564 H 0.61912 0.64441 0.81796 0.0
C565 C 0.70364 0.6944 0.86005 0.0
C566 C 0.70488 0.69351 0.8136 0.0
C567 C 0.68708 0.67638 0.87725 0.0
C568 C 0.62651 0.6342 0.84637 0.0
H569 H 0.58315 0.56781 0.01926 0.0
H570 H 0.61411 0.59675 0.98893 0.0
H571 H 0.58877 0.61453 0.84787 0.0
H572 H 0.68972 0.67284 0.74886 0.0
H573 H 0.66074 0.64162 0.7789 0.0
H574 H 0.68191 0.6283 0.91941 0.0
C575 C 0.59997 0.58437 0.96579 0.0
C576 C 0.60914 0.61696 0.86347 0.0
C577 C 0.58208 0.56785 0.98326 0.0
C578 C 0.6893 0.6741 0.78481 0.0
C579 C 0.67255 0.65629 0.80197 0.0
C580 C 0.66159 0.62546 0.90365 0.0
C581 C 0.59911 0.58544 0.91928 0.0
C582 C 0.61779 0.60358 0.90076 0.0
C583 C 0.67118 0.65728 0.84834 0.0
C584 C 0.65289 0.63871 0.86635 0.0
H585 H 0.5473 0.54104 0.88525 0.0
H586 H 0.57894 0.56923 0.85471 0.0
H587 H 0.65185 0.59774 0.94875 0.0
H588 H 0.7154 0.70906 0.88319 0.0
H589 H 0.6863 0.67774 0.91313 0.0
C590 C 0.67518 0.29899 0.16501 0.0
C591 C 0.69399 0.30874 0.20103 0.0
C592 C 0.65709 0.31615 0.14536 0.0
C593 C 0.64785 0.38564 0.12585 0.0
H594 H 0.5726 0.36562 0.10501 0.0
C595 C 0.56892 0.4563 0.05364 0.0
C596 C 0.54738 0.44458 0.02443 0.0
C597 C 0.58682 0.44036 0.07679 0.0
C598 C 0.59358 0.37139 0.10992 0.0
H599 H 0.70871 0.34416 0.24449 0.0
H600 H 0.67733 0.37426 0.20944 0.0
H601 H 0.60382 0.33648 0.14204 0.0
H602 H 0.528 0.40707 0.99554 0.0
H603 H 0.55968 0.37924 0.03431 0.0
H604 H 0.63793 0.42009 0.09252 0.0
C605 C 0.67656 0.35329 0.19671 0.0
C606 C 0.61142 0.35472 0.13138 0.0
C607 C 0.6944 0.33604 0.21687 0.0
C608 C 0.54434 0.41666 0.01811 0.0
C609 C 0.56239 0.40072 0.04073 0.0
C610 C 0.63007 0.40217 0.1038 0.0
C611 C 0.65769 0.34347 0.16087 0.0
C612 C 0.63873 0.36163 0.13938 0.0
C613 C 0.58375 0.41233 0.07071 0.0
C614 C 0.60269 0.39518 0.09531 0.0
H615 H 0.6743 0.27805 0.15212 0.0
H616 H 0.64287 0.30812 0.11755 0.0
H617 H 0.66888 0.3913 0.13128 0.0
H618 H 0.57179 0.47779 0.05898 0.0
H619 H 0.6028 0.45007 0.09994 0.0
C620 C 0.93481 0.45021 0.46672 0.0
C621 C 0.95405 0.44069 0.4978 0.0
C622 C 0.91754 0.43242 0.4385 0.0
C623 C 0.90021 0.38665 0.36456 0.0
H624 H 0.85301 0.33822 0.41289 0.0
C625 C 0.80025 0.31946 0.29992 0.0
C626 C 0.80883 0.30074 0.26692 0.0
C627 C 0.81872 0.33622 0.32768 0.0
C628 C 0.8662 0.35162 0.39911 0.0
H629 H 0.96968 0.40542 0.52539 0.0
H630 H 0.93858 0.37422 0.47685 0.0
H631 H 0.8843 0.36789 0.46401 0.0
H632 H 0.8431 0.28557 0.23544 0.0
H633 H 0.87548 0.31581 0.28328 0.0
H634 H 0.8823 0.37017 0.29964 0.0
C635 C 0.93735 0.39541 0.47391 0.0
C636 C 0.88406 0.36839 0.42819 0.0
C637 C 0.95504 0.4132 0.50156 0.0
C638 C 0.83604 0.29982 0.26077 0.0
C639 C 0.8545 0.31702 0.28801 0.0
C640 C 0.88273 0.36948 0.33545 0.0
C641 C 0.91883 0.40492 0.44171 0.0
C642 C 0.90093 0.38624 0.41109 0.0
C643 C 0.84596 0.33495 0.32215 0.0
C644 C 0.86539 0.35211 0.3526 0.0
H645 H 0.93345 0.47136 0.4635 0.0
H646 H 0.90314 0.44013 0.41419 0.0
H647 H 0.91321 0.40024 0.3508 0.0
H648 H 0.77934 0.32073 0.30506 0.0
H649 H 0.81174 0.35016 0.35355 0.0
C650 C 0.8016 0.68264 0.72444 0.0
C651 C 0.8127 0.70753 0.74344 0.0
C652 C 0.8174 0.66369 0.70315 0.0
C653 C 0.88851 0.64684 0.69485 0.0
H654 H 0.8587 0.59993 0.59074 0.0
C655 C 0.92588 0.56682 0.54658 0.0
C656 C 0.94588 0.55436 0.57231 0.0
C657 C 0.90915 0.58508 0.56721 0.0
C658 C 0.86746 0.61305 0.6195 0.0
H659 H 0.84867 0.73251 0.75405 0.0
H660 H 0.87601 0.69995 0.71577 0.0
H661 H 0.83081 0.6333 0.62571 0.0
H662 H 0.96354 0.5507 0.63999 0.0
H663 H 0.9339 0.58176 0.67602 0.0
H664 H 0.92543 0.62748 0.68757 0.0
C665 C 0.85539 0.69456 0.7184 0.0
C666 C 0.85131 0.63196 0.64001 0.0
C667 C 0.83969 0.71334 0.74012 0.0
C668 C 0.94851 0.56018 0.61914 0.0
C669 C 0.93157 0.57815 0.6398 0.0
C670 C 0.9047 0.62816 0.67408 0.0
C671 C 0.84455 0.66937 0.69997 0.0
C672 C 0.86162 0.64912 0.67799 0.0
C673 C 0.91182 0.59106 0.61412 0.0
C674 C 0.89441 0.61095 0.63617 0.0
H675 H 0.78081 0.67767 0.72658 0.0
H676 H 0.80841 0.64442 0.68991 0.0
H677 H 0.8971 0.65938 0.72442 0.0
H678 H 0.92346 0.56288 0.51039 0.0
H679 H 0.89449 0.59489 0.54623 0.0
C680 C 0.30401 0.31145 0.15826 0.0
C681 C 0.30251 0.3125 0.20466 0.0
C682 C 0.32038 0.32964 0.14109 0.0
C683 C 0.38006 0.37306 0.17187 0.0
H684 H 0.35388 0.4087 0.069 0.0
C685 C 0.44301 0.45521 0.10909 0.0
C686 C 0.44211 0.45598 0.06257 0.0
C687 C 0.42529 0.43858 0.12677 0.0
C688 C 0.36167 0.39868 0.09737 0.0
H689 H 0.31712 0.33353 0.26938 0.0
H690 H 0.34585 0.36505 0.23937 0.0
H691 H 0.32447 0.37767 0.09865 0.0
H692 H 0.42185 0.43983 0.99814 0.0
H693 H 0.39151 0.41037 0.02877 0.0
H694 H 0.41741 0.39342 0.17017 0.0
C695 C 0.33434 0.35014 0.21633 0.0
C696 C 0.34475 0.38095 0.11442 0.0
C697 C 0.31775 0.33216 0.23346 0.0
C698 C 0.42297 0.43988 0.03416 0.0
C699 C 0.40544 0.42306 0.0518 0.0
C700 C 0.39707 0.39056 0.15457 0.0
C701 C 0.33585 0.34907 0.16997 0.0
C702 C 0.35375 0.36797 0.15188 0.0
C703 C 0.40641 0.42209 0.09836 0.0
C704 C 0.38812 0.40365 0.11709 0.0
H705 H 0.2925 0.29661 0.1351 0.0
H706 H 0.3213 0.32819 0.10523 0.0
H707 H 0.38767 0.36307 0.20042 0.0
H708 H 0.45737 0.4675 0.13198 0.0
H709 H 0.42635 0.4388 0.16281 0.0
C710 C 0.46268 0.59078 0.9874 0.0
C711 C 0.45658 0.56389 0.99098 0.0
C712 C 0.44425 0.60648 0.96506 0.0
C713 C 0.39697 0.63977 0.94008 0.0
H714 H 0.35121 0.60991 0.83469 0.0
C715 C 0.31214 0.70031 0.86095 0.0
C716 C 0.30726 0.69778 0.814 0.0
C717 C 0.32943 0.68314 0.88235 0.0
C718 C 0.364 0.61867 0.86383 0.0
H719 H 0.42655 0.53217 0.9739 0.0
H720 H 0.39389 0.55977 0.93603 0.0
H721 H 0.38383 0.5819 0.87104 0.0
H722 H 0.31664 0.67516 0.75265 0.0
H723 H 0.34746 0.64571 0.78984 0.0
H724 H 0.37803 0.67679 0.93189 0.0
C725 C 0.41313 0.56868 0.94962 0.0
C726 C 0.38248 0.60247 0.8851 0.0
C727 C 0.43174 0.55289 0.9716 0.0
C728 C 0.31987 0.67753 0.78891 0.0
C729 C 0.33745 0.66054 0.8103 0.0
C730 C 0.37871 0.65601 0.9186 0.0
C731 C 0.41911 0.59573 0.9462 0.0
C732 C 0.39924 0.61281 0.92351 0.0
C733 C 0.34257 0.66321 0.85733 0.0
C734 C 0.36193 0.6457 0.88021 0.0
H735 H 0.48182 0.59969 1.00162 0.0
H736 H 0.44985 0.62701 0.96227 0.0
H737 H 0.40919 0.64839 0.96996 0.0
H738 H 0.30252 0.71553 0.88132 0.0
H739 H 0.33238 0.68547 0.91861 0.0
C740 C 0.16837 0.70811 0.74229 0.0
C741 C 0.19564 0.70777 0.73676 0.0
C742 C 0.15071 0.68916 0.71728 0.0
C743 C 0.14891 0.62426 0.64473 0.0
H744 H 0.07781 0.64633 0.60501 0.0
C745 C 0.06896 0.5493 0.55309 0.0
C746 C 0.05003 0.55828 0.52102 0.0
C747 C 0.087 0.5673 0.57929 0.0
C748 C 0.09772 0.6399 0.61518 0.0
H749 H 0.22609 0.68726 0.70175 0.0
H750 H 0.19528 0.65523 0.65633 0.0
H751 H 0.10866 0.67807 0.65071 0.0
H752 H 0.03578 0.59269 0.48935 0.0
H753 H 0.06825 0.62403 0.53327 0.0
H754 H 0.13854 0.5866 0.607 0.0
C755 C 0.18741 0.66947 0.68074 0.0
C756 C 0.11529 0.65801 0.64224 0.0
C757 C 0.20508 0.68803 0.70641 0.0
C758 C 0.05007 0.58536 0.51423 0.0
C759 C 0.0685 0.60331 0.53976 0.0
C760 C 0.13153 0.60633 0.61695 0.0
C761 C 0.15996 0.66982 0.68571 0.0
C762 C 0.1411 0.65041 0.65747 0.0
C763 C 0.08692 0.59459 0.57314 0.0
C764 C 0.10566 0.61387 0.60194 0.0
H765 H 0.16067 0.72303 0.76583 0.0
H766 H 0.12983 0.6897 0.72279 0.0
H767 H 0.16845 0.6175 0.65632 0.0
H768 H 0.06943 0.52844 0.55875 0.0
H769 H 0.10055 0.55984 0.60504 0.0
C770 C 0.1661 0.29878 0.2595 0.0
C771 C 0.19404 0.30058 0.26809 0.0
C772 C 0.1503 0.31755 0.28102 0.0
C773 C 0.14917 0.36353 0.38229 0.0
H774 H 0.09218 0.39697 0.31364 0.0
C775 C 0.08458 0.44494 0.46471 0.0
C776 C 0.05747 0.44526 0.44822 0.0
C777 C 0.10204 0.42809 0.44277 0.0
C778 C 0.10772 0.38755 0.3335 0.0
H779 H 0.22744 0.3235 0.30546 0.0
H780 H 0.19968 0.35602 0.3441 0.0
H781 H 0.12108 0.36605 0.27516 0.0
H782 H 0.02725 0.4277 0.39647 0.0
H783 H 0.05732 0.39773 0.35925 0.0
H784 H 0.13538 0.3842 0.4408 0.0
C785 C 0.19008 0.3401 0.3206 0.0
C786 C 0.12437 0.36996 0.31133 0.0
C787 C 0.20593 0.32155 0.29848 0.0
C788 C 0.04809 0.42813 0.40978 0.0
C789 C 0.06544 0.41105 0.38822 0.0
C790 C 0.13227 0.38085 0.40459 0.0
C791 C 0.16212 0.33827 0.31201 0.0
C792 C 0.14517 0.3577 0.33551 0.0
C793 C 0.09271 0.41094 0.40415 0.0
C794 C 0.11121 0.39299 0.3805 0.0
H795 H 0.15641 0.28281 0.23624 0.0
H796 H 0.12878 0.31557 0.27407 0.0
H797 H 0.16492 0.35412 0.40175 0.0
H798 H 0.09246 0.45804 0.49412 0.0
H799 H 0.12295 0.42889 0.45571 0.0
C800 C 0.01138 0.03586 0.8522 0.0
C801 C 0.01423 0.01302 0.8221 0.0
C802 C 0.00793 0.03354 0.89697 0.0
C803 C 0.98797 0.98555 0.97288 0.0
H804 H 0.026 0.03565 0.06533 0.0
C805 C 0.99164 0.97137 0.16063 0.0
C806 C 0.98879 0.99421 0.19072 0.0
C807 C 0.99508 0.97369 0.11585 0.0
C808 C 0.01501 0.02167 0.03993 0.0
H809 H 0.01566 0.9698 0.81563 0.0
H810 H 0.00965 0.96574 0.89374 0.0
H811 H 0.03077 0.03961 0.9868 0.0
H812 H 0.98731 0.03742 0.19716 0.0
H813 H 0.9933 0.04148 0.11904 0.0
H814 H 0.97221 0.96761 0.02601 0.0
C815 C 0.00973 0.98545 0.88256 0.0
C816 C 0.01773 0.02395 0.99487 0.0
C817 C 0.01317 0.98777 0.83775 0.0
C818 C 0.98982 0.01945 0.17505 0.0
C819 C 0.99324 0.02177 0.13023 0.0
C820 C 0.98525 0.98327 0.01794 0.0
C821 C 0.00725 0.00832 0.9128 0.0
C822 C 0.00424 0.00593 0.96076 0.0
C823 C 0.99574 0.9989 0.1 0.0
C824 C 0.99874 1.0013 0.05204 0.0
H825 H 0.01166 0.05558 0.84108 0.0
H826 H 0.00558 0.05153 0.91912 0.0
H827 H 0.97698 0.97158 0.94748 0.0
H828 H 0.99139 0.95165 0.17176 0.0
H829 H 0.99744 0.95569 0.0937 0.0
C830 C 0.24547 0.76109 0.4193 0.0
C831 C 0.25498 0.73713 0.43416 0.0
C832 C 0.24572 0.7657 0.37445 0.0
C833 C 0.24893 0.73064 0.26088 0.0
H834 H 0.26971 0.80061 0.23197 0.0
C835 C 0.26712 0.75036 0.08105 0.0
C836 C 0.25763 0.77429 0.06604 0.0
C837 C 0.26687 0.74584 0.12594 0.0
C838 C 0.26358 0.78103 0.23942 0.0
H839 H 0.27277 0.69948 0.41343 0.0
H840 H 0.27312 0.70749 0.33541 0.0
H841 H 0.26891 0.79282 0.31014 0.0
H842 H 0.23994 0.81202 0.08659 0.0
H843 H 0.23957 0.80417 0.1647 0.0
H844 H 0.24359 0.71885 0.19018 0.0
C845 C 0.26504 0.72254 0.35824 0.0
C846 C 0.2631 0.77656 0.28427 0.0
C847 C 0.26481 0.71794 0.40304 0.0
C848 C 0.24786 0.79357 0.09709 0.0
C849 C 0.24763 0.78906 0.14194 0.0
C850 C 0.2494 0.7351 0.21604 0.0
C851 C 0.25549 0.74647 0.34335 0.0
C852 C 0.25579 0.7513 0.29558 0.0
C853 C 0.25712 0.76515 0.15695 0.0
C854 C 0.25674 0.76035 0.20473 0.0
H855 H 0.23742 0.77614 0.44218 0.0
H856 H 0.23788 0.78419 0.364 0.0
H857 H 0.2428 0.71105 0.26833 0.0
H858 H 0.27512 0.73524 0.05823 0.0
H859 H 0.27468 0.72736 0.13648 0.0
C860 C 0.46326 1.00037 0.6745 0.0
C861 C 0.48389 0.99438 0.70677 0.0
C862 C 0.46785 1.00099 0.62972 0.0
C863 C 0.52198 0.00769 0.55718 0.0
H864 H 0.46832 0.97839 0.46226 0.0
C865 C 0.54211 0.99434 0.37099 0.0
C866 C 0.52146 1.00026 0.33871 0.0
C867 C 0.53752 0.99372 0.41578 0.0
C868 C 0.48339 0.98696 0.48832 0.0
H869 H 0.52554 0.98397 0.71669 0.0
H870 H 0.53357 0.98511 0.63863 0.0
H871 H 0.46045 0.97693 0.54027 0.0
H872 H 0.47977 0.01054 0.32876 0.0
H873 H 0.47176 0.00943 0.40682 0.0
H874 H 0.54491 0.01773 0.50523 0.0
C875 C 0.51388 0.98969 0.64815 0.0
C876 C 0.47888 0.9861 0.53311 0.0
C877 C 0.50927 0.98904 0.69297 0.0
C878 C 0.49606 0.00553 0.3525 0.0
C879 C 0.49146 0.00489 0.39732 0.0
C880 C 0.52649 0.00855 0.51238 0.0
C881 C 0.49323 0.99567 0.61592 0.0
C882 C 0.49811 0.99646 0.56816 0.0
C883 C 0.51213 0.99897 0.42957 0.0
C884 C 0.50726 0.99819 0.47733 0.0
H885 H 0.44358 0.00508 0.68397 0.0
H886 H 0.45159 0.00611 0.60603 0.0
H887 H 0.53705 0.01625 0.58324 0.0
H888 H 0.5618 0.9897 0.36153 0.0
H889 H 0.5538 0.98866 0.43948 0.0
C890 C 0.25008 0.26274 0.92881 0.0
C891 C 0.24512 0.23707 0.94081 0.0
C892 C 0.2522 0.26662 0.88412 0.0
C893 C 0.26502 0.23078 0.77513 0.0
H894 H 0.23174 0.29175 0.72637 0.0
C895 C 0.25619 0.24287 0.58586 0.0
C896 C 0.26113 0.26855 0.57389 0.0
C897 C 0.25415 0.23896 0.63057 0.0
C898 C 0.24139 0.27477 0.73958 0.0
H899 H 0.23904 0.19527 0.91517 0.0
H900 H 0.24218 0.20211 0.83728 0.0
H901 H 0.22874 0.28522 0.80453 0.0
H902 H 0.26728 0.31034 0.59958 0.0
H903 H 0.26427 0.30345 0.67749 0.0
H904 H 0.27766 0.22033 0.71017 0.0
C905 C 0.24466 0.21924 0.86244 0.0
C906 C 0.23969 0.27105 0.78442 0.0
C907 C 0.24253 0.21536 0.90707 0.0
C908 C 0.26381 0.29024 0.60766 0.0
C909 C 0.26175 0.28634 0.6523 0.0
C910 C 0.26672 0.23451 0.73029 0.0
C911 C 0.24947 0.24491 0.85038 0.0
C912 C 0.25147 0.249 0.80275 0.0
C913 C 0.25694 0.26065 0.66434 0.0
C914 C 0.25494 0.25655 0.71196 0.0
H915 H 0.25197 0.27993 0.95387 0.0
H916 H 0.2562 0.28663 0.87606 0.0
H917 H 0.27467 0.21381 0.78834 0.0
H918 H 0.25423 0.2257 0.56076 0.0
H919 H 0.25015 0.21895 0.63861 0.0
C920 C 0.74073 0.25986 0.92856 0.0
C921 C 0.74678 0.23469 0.94248 0.0
C922 C 0.74145 0.26444 0.8838 0.0
C923 C 0.76952 0.23816 0.7797 0.0
H924 H 0.7148 0.28007 0.72232 0.0
C925 C 0.75921 0.24686 0.5891 0.0
C926 C 0.75321 0.27204 0.57519 0.0
C927 C 0.75847 0.24228 0.63386 0.0
C928 C 0.73041 0.26857 0.73796 0.0
H929 H 0.75864 0.19468 0.92007 0.0
H930 H 0.75934 0.2025 0.842 0.0
H931 H 0.71341 0.27226 0.80033 0.0
H932 H 0.74138 0.31206 0.5976 0.0
H933 H 0.74063 0.30424 0.67566 0.0
H934 H 0.78652 0.23447 0.71733 0.0
C935 C 0.75429 0.2188 0.86577 0.0
C936 C 0.72962 0.2641 0.78273 0.0
C937 C 0.75355 0.21422 0.91048 0.0
C938 C 0.74644 0.29251 0.60718 0.0
C939 C 0.74567 0.28793 0.65189 0.0
C940 C 0.77031 0.24263 0.73492 0.0
C941 C 0.74828 0.24397 0.85183 0.0
C942 C 0.74916 0.24883 0.80418 0.0
C943 C 0.75166 0.26275 0.66582 0.0
C944 C 0.75077 0.2579 0.71347 0.0
H945 H 0.7352 0.27601 0.95219 0.0
H946 H 0.73697 0.28414 0.87435 0.0
H947 H 0.78514 0.22666 0.79534 0.0
H948 H 0.76475 0.23071 0.56548 0.0
H949 H 0.76293 0.22257 0.6433 0.0
C950 C 0.75187 0.76346 0.43197 0.0
C951 C 0.74518 0.73814 0.44377 0.0
C952 C 0.7543 0.76716 0.38728 0.0
C953 C 0.76461 0.73038 0.27764 0.0
H954 H 0.73557 0.79353 0.22994 0.0
C955 C 0.75662 0.74286 0.08848 0.0
C956 C 0.76325 0.76819 0.07665 0.0
C957 C 0.75429 0.73915 0.13319 0.0
C958 C 0.74404 0.77592 0.24284 0.0
H959 H 0.73637 0.69675 0.41777 0.0
H960 H 0.74007 0.70331 0.33993 0.0
H961 H 0.73225 0.7873 0.30813 0.0
H962 H 0.77209 0.80958 0.10266 0.0
H963 H 0.76856 0.80298 0.18053 0.0
H964 H 0.7764 0.71899 0.21235 0.0
C965 C 0.74366 0.72029 0.36522 0.0
C966 C 0.74216 0.77236 0.28771 0.0
C967 C 0.74121 0.71659 0.40984 0.0
C968 C 0.76729 0.78972 0.1106 0.0
C969 C 0.76494 0.78602 0.15524 0.0
C970 C 0.76649 0.73394 0.23277 0.0
C971 C 0.75016 0.74562 0.35334 0.0
C972 C 0.75241 0.74954 0.30568 0.0
C973 C 0.75847 0.76068 0.16714 0.0
C974 C 0.75624 0.75676 0.2148 0.0
H975 H 0.75486 0.78053 0.45717 0.0
H976 H 0.75962 0.78688 0.37938 0.0
H977 H 0.77308 0.71277 0.29054 0.0
H978 H 0.75358 0.7258 0.06326 0.0
H979 H 0.74899 0.71942 0.1411 0.0
C980 C 0.46537 0.49033 0.65794 0.0
C981 C 0.48664 0.49563 0.69204 0.0
C982 C 0.46904 0.49263 0.61327 0.0
C983 C 0.52139 0.49348 0.53628 0.0
H984 H 0.4663 0.52435 0.45965 0.0
C985 C 0.53779 0.51897 0.35902 0.0
C986 C 0.51656 0.51366 0.32486 0.0
C987 C 0.53411 0.5165 0.40363 0.0
C988 C 0.48174 0.51538 0.48044 0.0
H989 H 0.52851 0.50752 0.70566 0.0
H990 H 0.5348 0.51205 0.62777 0.0
H991 H 0.46008 0.52105 0.53785 0.0
H992 H 0.47475 0.50157 0.31104 0.0
H993 H 0.46844 0.49677 0.38886 0.0
H994 H 0.54307 0.48784 0.47887 0.0
C995 C 0.51533 0.50579 0.63559 0.0
C996 C 0.47819 0.51351 0.52531 0.0
C997 C 0.51165 0.50349 0.68033 0.0
C998 C 0.49158 0.50561 0.33644 0.0
C999 C 0.48789 0.50316 0.38112 0.0
C1000 C 0.52495 0.49536 0.49141 0.0
C1001 C 0.49407 0.50033 0.6015 0.0
C1002 C 0.49797 0.50253 0.55381 0.0
C1003 C 0.5091 0.50863 0.41528 0.0
C1004 C 0.50518 0.50635 0.46292 0.0
H1005 H 0.44575 0.48457 0.66578 0.0
H1006 H 0.45231 0.48801 0.58787 0.0
H1007 H 0.53684 0.48451 0.55707 0.0
H1008 H 0.5574 0.52487 0.35127 0.0
H1009 H 0.55081 0.52113 0.4291 0.0
C1010 C 0.03041 0.52125 0.85895 0.0
C1011 C 0.0189 0.50141 0.82588 0.0
C1012 C 0.02603 0.5208 0.90384 0.0
C1013 C 0.00624 0.47534 0.98363 0.0
H1014 H 0.99412 0.54108 0.05713 0.0
C1015 C 0.97365 0.47667 0.16196 0.0
C1016 C 0.98502 0.49663 0.19497 0.0
C1017 C 0.97809 0.47708 0.11708 0.0
C1018 C 0.9978 0.52257 0.03723 0.0
H1019 H 0.99372 0.4655 0.81425 0.0
H1020 H 0.98572 0.46496 0.89244 0.0
H1021 H 1.00078 0.54233 0.97856 0.0
H1022 H 0.01001 0.53266 0.2065 0.0
H1023 H 0.01813 0.5331 0.12837 0.0
H1024 H 0.00327 0.45559 0.0423 0.0
C1025 C 0.99837 0.48074 0.88369 0.0
C1026 C 1.00159 0.52329 0.99214 0.0
C1027 C 0.00269 0.48124 0.83877 0.0
C1028 C 1.00115 0.51684 0.18203 0.0
C1029 C 0.00554 0.51728 0.13713 0.0
C1030 C 1.00245 0.47463 0.02872 0.0
C1031 C 0.01007 0.50046 0.91682 0.0
C1032 C 0.00586 0.49969 0.96476 0.0
C1033 C 0.99396 0.49747 0.10405 0.0
C1034 C 0.99818 0.49823 0.0561 0.0
H1035 H 0.04278 0.53723 0.85012 0.0
H1036 H 0.03554 0.53618 0.9285 0.0
H1037 H 0.0099 0.45684 0.96371 0.0
H1038 H 0.96135 0.46066 0.17081 0.0
H1039 H 0.96867 0.46163 0.09246 0.0
loop_
_geom_bond_atom_site_label_1
_geom_bond_atom_site_label_2
_geom_bond_distance
_geom_bond_site_symmetry_2
_ccdc_geom_bond_type
Pr0 C2 2.880 1_655 S
Pr0 O20 2.562 . S
Pr0 O21 2.490 1_655 S
Pr0 O22 2.695 1_655 S
Pr0 O23 2.512 1_655 S
Pr0 O25 2.437 1_665 S
Pr0 O28 2.436 1_565 S
Pr0 O30 2.438 . S
Pr1 C11 2.880 1_455 S
Pr1 O22 2.436 1_545 S
Pr1 O24 2.438 . S
Pr1 O26 2.562 . S
Pr1 O27 2.490 1_455 S
Pr1 O28 2.695 1_455 S
Pr1 O29 2.512 1_455 S
Pr1 O31 2.437 1_445 S
C2 Pr0 2.880 1_455 S
C2 C3 1.491 . S
C2 O20 1.254 1_455 S
C2 O21 1.225 . S
C3 C2 1.491 . S
C3 C4 1.392 . S
C3 C8 1.356 1_565 S
C4 C3 1.392 . S
C4 C5 1.368 . S
C4 H32 0.929 . S
C5 C4 1.368 . S
C5 C6 1.386 . S
C5 H33 0.929 . S
C6 C5 1.386 . S
C6 C7 1.373 1_565 S
C7 C6 1.373 1_545 S
C7 C8 1.409 . S
C7 H34 0.931 . S
C8 C3 1.356 1_545 S
C8 C7 1.409 . S
C8 H35 0.930 1_455 S
C9 O22 1.270 . S
C9 O23 1.248 . S
C10 O24 1.267 . S
C10 O25 1.278 . S
C11 Pr1 2.880 1_655 S
C11 C12 1.491 . S
C11 O26 1.254 1_655 S
C11 O27 1.225 . S
C12 C11 1.491 . S
C12 C13 1.392 . S
C12 C17 1.356 1_545 S
C13 C12 1.392 . S
C13 C14 1.368 . S
C13 H36 0.929 . S
C14 C13 1.368 . S
C14 C15 1.386 . S
C14 H37 0.929 . S
C15 C14 1.386 . S
C15 C16 1.373 1_545 S
C16 C15 1.373 1_565 S
C16 C17 1.409 . S
C16 H38 0.931 . S
C17 C12 1.356 1_565 S
C17 C16 1.409 . S
C17 H39 0.930 1_655 S
C18 O28 1.270 . S
C18 O29 1.248 . S
C19 O30 1.267 . S
C19 O31 1.278 . S
O20 Pr0 2.562 . S
O20 C2 1.254 1_655 S
O21 Pr0 2.490 1_455 S
O21 C2 1.225 . S
O22 Pr0 2.695 1_455 S
O22 Pr1 2.436 1_565 S
O22 C9 1.270 . S
O23 Pr0 2.512 1_455 S
O23 C9 1.248 . S
O24 Pr1 2.438 . S
O24 C10 1.267 . S
O25 Pr0 2.437 1_445 S
O25 C10 1.278 . S
O26 Pr1 2.562 . S
O26 C11 1.254 1_455 S
O27 Pr1 2.490 1_655 S
O27 C11 1.225 . S
O28 Pr0 2.436 1_545 S
O28 Pr1 2.695 1_655 S
O28 C18 1.270 . S
O29 Pr1 2.512 1_655 S
O29 C18 1.248 . S
O30 Pr0 2.438 . S
O30 C19 1.267 . S
O31 Pr1 2.437 1_665 S
O31 C19 1.278 . S
H32 C4 0.929 . S
H33 C5 0.929 . S
H34 C7 0.931 . S
H35 C8 0.930 1_655 S
H36 C13 0.929 . S
H37 C14 0.929 . S
H38 C16 0.931 . S
H39 C17 0.930 1_455 S
Pr40 C42 2.880 . S
Pr40 O60 2.562 . S
Pr40 O61 2.490 . S
Pr40 O62 2.695 . S
Pr40 O63 2.512 . S
Pr40 O65 2.437 . S
Pr40 O68 2.436 . S
Pr40 O70 2.438 . S
Pr41 C51 2.880 . S
Pr41 O62 2.436 . S
Pr41 O64 2.438 . S
Pr41 O66 2.562 . S
Pr41 O67 2.490 . S
Pr41 O68 2.695 . S
Pr41 O69 2.512 . S
Pr41 O71 2.437 . S
C42 Pr40 2.880 . S
C42 C43 1.491 . S
C42 O60 1.254 . S
C42 O61 1.225 . S
C43 C42 1.491 . S
C43 C44 1.392 . S
C43 C48 1.356 . S
C44 C43 1.392 . S
C44 C45 1.368 . S
C44 H72 0.929 . S
C45 C44 1.368 . S
C45 C46 1.386 . S
C45 H73 0.929 . S
C46 C45 1.386 . S
C46 C47 1.373 . S
C47 C46 1.373 . S
C47 C48 1.409 . S
C47 H74 0.931 . S
C48 C43 1.356 . S
C48 C47 1.409 . S
C48 H75 0.930 . S
C49 O62 1.270 . S
C49 O63 1.248 . S
C50 O64 1.267 . S
C50 O65 1.278 . S
C51 Pr41 2.880 . S
C51 C52 1.491 . S
C51 O66 1.254 . S
C51 O67 1.225 . S
C52 C51 1.491 . S
C52 C53 1.392 . S
C52 C57 1.356 . S
C53 C52 1.392 . S
C53 C54 1.368 . S
C53 H76 0.929 . S
C54 C53 1.368 . S
C54 C55 1.386 1_556 S
C54 H77 0.929 1_556 S
C55 C54 1.386 1_554 S
C55 C56 1.373 . S
C56 C55 1.373 . S
C56 C57 1.409 1_554 S
C56 H78 0.931 . S
C57 C52 1.356 . S
C57 C56 1.409 1_556 S
C57 H79 0.930 . S
C58 O68 1.270 . S
C58 O69 1.248 . S
C59 O70 1.267 . S
C59 O71 1.278 . S
O60 Pr40 2.562 . S
O60 C42 1.254 . S
O61 Pr40 2.490 . S
O61 C42 1.225 . S
O62 Pr40 2.695 . S
O62 Pr41 2.436 . S
O62 C49 1.270 . S
O63 Pr40 2.512 . S
O63 C49 1.248 . S
O64 Pr41 2.438 . S
O64 C50 1.267 . S
O65 Pr40 2.437 . S
O65 C50 1.278 . S
O66 Pr41 2.562 . S
O66 C51 1.254 . S
O67 Pr41 2.490 . S
O67 C51 1.225 . S
O68 Pr40 2.436 . S
O68 Pr41 2.695 . S
O68 C58 1.270 . S
O69 Pr41 2.512 . S
O69 C58 1.248 . S
O70 Pr40 2.438 . S
O70 C59 1.267 . S
O71 Pr41 2.437 . S
O71 C59 1.278 . S
H72 C44 0.929 . S
H73 C45 0.929 . S
H74 C47 0.931 . S
H75 C48 0.930 . S
H76 C53 0.929 . S
H77 C54 0.929 1_554 S
H78 C56 0.931 . S
H79 C57 0.930 . S
Pr80 C82 2.880 . S
Pr80 O100 2.562 1_565 S
Pr80 O101 2.490 . S
Pr80 O102 2.695 1_554 S
Pr80 O103 2.512 . S
Pr80 O105 2.437 1_565 S
Pr80 O108 2.436 1_565 S
Pr80 O110 2.438 1_554 S
Pr81 C91 2.880 . S
Pr81 O102 2.436 1_545 S
Pr81 O104 2.438 1_556 S
Pr81 O106 2.562 1_545 S
Pr81 O107 2.490 . S
Pr81 O108 2.695 1_556 S
Pr81 O109 2.512 . S
Pr81 O111 2.437 1_545 S
C82 Pr80 2.880 . S
C82 C83 1.491 . S
C82 O100 1.254 1_565 S
C82 O101 1.225 . S
C83 C82 1.491 . S
C83 C84 1.392 . S
C83 C88 1.356 1_565 S
C84 C83 1.392 . S
C84 C85 1.368 . S
C84 H112 0.929 . S
C85 C84 1.368 . S
C85 C86 1.386 1_565 S
C85 H113 0.929 . S
C86 C85 1.386 1_545 S
C86 C87 1.373 . S
C87 C86 1.373 . S
C87 C88 1.409 . S
C87 H114 0.931 . S
C88 C83 1.356 1_545 S
C88 C87 1.409 . S
C88 H115 0.930 . S
C89 O102 1.270 . S
C89 O103 1.248 1_556 S
C90 O104 1.267 . S
C90 O105 1.278 . S
C91 Pr81 2.880 . S
C91 C92 1.491 . S
C91 O106 1.254 1_545 S
C91 O107 1.225 . S
C92 C91 1.491 . S
C92 C93 1.392 . S
C92 C97 1.356 1_545 S
C93 C92 1.392 . S
C93 C94 1.368 . S
C93 H116 0.929 . S
C94 C93 1.368 . S
C94 C95 1.386 1_545 S
C94 H117 0.929 . S
C95 C94 1.386 1_565 S
C95 C96 1.373 . S
C96 C95 1.373 . S
C96 C97 1.409 . S
C96 H118 0.931 . S
C97 C92 1.356 1_565 S
C97 C96 1.409 . S
C97 H119 0.930 . S
C98 O108 1.270 . S
C98 O109 1.248 1_554 S
C99 O110 1.267 . S
C99 O111 1.278 . S
O100 Pr80 2.562 1_545 S
O100 C82 1.254 1_545 S
O101 Pr80 2.490 . S
O101 C82 1.225 . S
O102 Pr80 2.695 1_556 S
O102 Pr81 2.436 1_565 S
O102 C89 1.270 . S
O103 Pr80 2.512 . S
O103 C89 1.248 1_554 S
O104 Pr81 2.438 1_554 S
O104 C90 1.267 . S
O105 Pr80 2.437 1_545 S
O105 C90 1.278 . S
O106 Pr81 2.562 1_565 S
O106 C91 1.254 1_565 S
O107 Pr81 2.490 . S
O107 C91 1.225 . S
O108 Pr80 2.436 1_545 S
O108 Pr81 2.695 1_554 S
O108 C98 1.270 . S
O109 Pr81 2.512 . S
O109 C98 1.248 1_556 S
O110 Pr80 2.438 1_556 S
O110 C99 1.267 . S
O111 Pr81 2.437 1_565 S
O111 C99 1.278 . S
H112 C84 0.929 . S
H113 C85 0.929 . S
H114 C87 0.931 . S
H115 C88 0.930 . S
H116 C93 0.929 . S
H117 C94 0.929 . S
H118 C96 0.931 . S
H119 C97 0.930 . S
Pr120 C122 2.880 . S
Pr120 O140 2.562 . S
Pr120 O141 2.490 . S
Pr120 O142 2.695 . S
Pr120 O143 2.512 . S
Pr120 O145 2.437 . S
Pr120 O148 2.436 . S
Pr120 O150 2.438 . S
Pr121 C131 2.880 . S
Pr121 O142 2.436 . S
Pr121 O144 2.438 . S
Pr121 O146 2.562 . S
Pr121 O147 2.490 . S
Pr121 O148 2.695 . S
Pr121 O149 2.512 . S
Pr121 O151 2.437 . S
C122 Pr120 2.880 . S
C122 C123 1.491 . S
C122 O140 1.254 . S
C122 O141 1.225 . S
C123 C122 1.491 . S
C123 C124 1.392 . S
C123 C128 1.356 . S
C124 C123 1.392 . S
C124 C125 1.368 . S
C124 H152 0.929 . S
C125 C124 1.368 . S
C125 C126 1.386 . S
C125 H153 0.929 . S
C126 C125 1.386 . S
C126 C127 1.373 . S
C127 C126 1.373 . S
C127 C128 1.409 . S
C127 H154 0.931 . S
C128 C123 1.356 . S
C128 C127 1.409 . S
C128 H155 0.930 . S
C129 O142 1.270 . S
C129 O143 1.248 . S
C130 O144 1.267 . S
C130 O145 1.278 . S
C131 Pr121 2.880 . S
C131 C132 1.491 . S
C131 O146 1.254 . S
C131 O147 1.225 . S
C132 C131 1.491 . S
C132 C133 1.392 . S
C132 C137 1.356 . S
C133 C132 1.392 . S
C133 C134 1.368 1_554 S
C133 H156 0.929 . S
C134 C133 1.368 1_556 S
C134 C135 1.386 . S
C134 H157 0.929 . S
C135 C134 1.386 . S
C135 C136 1.373 . S
C136 C135 1.373 . S
C136 C137 1.409 1_556 S
C136 H158 0.931 . S
C137 C132 1.356 . S
C137 C136 1.409 1_554 S
C137 H159 0.930 . S
C138 O148 1.270 . S
C138 O149 1.248 . S
C139 O150 1.267 . S
C139 O151 1.278 . S
O140 Pr120 2.562 . S
O140 C122 1.254 . S
O141 Pr120 2.490 . S
O141 C122 1.225 . S
O142 Pr120 2.695 . S
O142 Pr121 2.436 . S
O142 C129 1.270 . S
O143 Pr120 2.512 . S
O143 C129 1.248 . S
O144 Pr121 2.438 . S
O144 C130 1.267 . S
O145 Pr120 2.437 . S
O145 C130 1.278 . S
O146 Pr121 2.562 . S
O146 C131 1.254 . S
O147 Pr121 2.490 . S
O147 C131 1.225 . S
O148 Pr120 2.436 . S
O148 Pr121 2.695 . S
O148 C138 1.270 . S
O149 Pr121 2.512 . S
O149 C138 1.248 . S
O150 Pr120 2.438 . S
O150 C139 1.267 . S
O151 Pr121 2.437 . S
O151 C139 1.278 . S
H152 C124 0.929 . S
H153 C125 0.929 . S
H154 C127 0.931 . S
H155 C128 0.930 . S
H156 C133 0.929 . S
H157 C134 0.929 . S
H158 C136 0.931 . S
H159 C137 0.930 . S
Pr160 C162 2.880 . S
Pr160 O180 2.562 . S
Pr160 O181 2.490 . S
Pr160 O182 2.695 . S
Pr160 O183 2.512 . S
Pr160 O185 2.437 . S
Pr160 O188 2.436 . S
Pr160 O190 2.438 . S
Pr161 C171 2.880 . S
Pr161 O182 2.436 . S
Pr161 O184 2.438 . S
Pr161 O186 2.562 . S
Pr161 O187 2.490 . S
Pr161 O188 2.695 . S
Pr161 O189 2.512 . S
Pr161 O191 2.437 . S
C162 Pr160 2.880 . S
C162 C163 1.491 . S
C162 O180 1.254 . S
C162 O181 1.225 . S
C163 C162 1.491 . S
C163 C164 1.392 . S
C163 C168 1.356 . S
C164 C163 1.392 . S
C164 C165 1.368 . S
C164 H192 0.929 . S
C165 C164 1.368 . S
C165 C166 1.386 1_554 S
C165 H193 0.929 1_554 S
C166 C165 1.386 1_556 S
C166 C167 1.373 . S
C167 C166 1.373 . S
C167 C168 1.409 1_556 S
C167 H194 0.931 . S
C168 C163 1.356 . S
C168 C167 1.409 1_554 S
C168 H195 0.930 . S
C169 O182 1.270 . S
C169 O183 1.248 . S
C170 O184 1.267 . S
C170 O185 1.278 . S
C171 Pr161 2.880 . S
C171 C172 1.491 . S
C171 O186 1.254 . S
C171 O187 1.225 . S
C172 C171 1.491 . S
C172 C173 1.392 . S
C172 C177 1.356 . S
C173 C172 1.392 . S
C173 C174 1.368 . S
C173 H196 0.929 . S
C174 C173 1.368 . S
C174 C175 1.386 . S
C174 H197 0.929 . S
C175 C174 1.386 . S
C175 C176 1.373 . S
C176 C175 1.373 . S
C176 C177 1.409 . S
C176 H198 0.931 . S
C177 C172 1.356 . S
C177 C176 1.409 . S
C177 H199 0.930 . S
C178 O188 1.270 . S
C178 O189 1.248 . S
C179 O190 1.267 . S
C179 O191 1.278 . S
O180 Pr160 2.562 . S
O180 C162 1.254 . S
O181 Pr160 2.490 . S
O181 C162 1.225 . S
O182 Pr160 2.695 . S
O182 Pr161 2.436 . S
O182 C169 1.270 . S
O183 Pr160 2.512 . S
O183 C169 1.248 . S
O184 Pr161 2.438 . S
O184 C170 1.267 . S
O185 Pr160 2.437 . S
O185 C170 1.278 . S
O186 Pr161 2.562 . S
O186 C171 1.254 . S
O187 Pr161 2.490 . S
O187 C171 1.225 . S
O188 Pr160 2.436 . S
O188 Pr161 2.695 . S
O188 C178 1.270 . S
O189 Pr161 2.512 . S
O189 C178 1.248 . S
O190 Pr160 2.438 . S
O190 C179 1.267 . S
O191 Pr161 2.437 . S
O191 C179 1.278 . S
H192 C164 0.929 . S
H193 C165 0.929 1_556 S
H194 C167 0.931 . S
H195 C168 0.930 . S
H196 C173 0.929 . S
H197 C174 0.929 . S
H198 C176 0.931 . S
H199 C177 0.930 . S
Pr200 C202 2.880 . S
Pr200 O220 2.562 . S
Pr200 O221 2.490 . S
Pr200 O222 2.695 . S
Pr200 O223 2.512 . S
Pr200 O225 2.437 . S
Pr200 O228 2.436 . S
Pr200 O230 2.438 . S
Pr201 C211 2.880 . S
Pr201 O222 2.436 . S
Pr201 O224 2.438 . S
Pr201 O226 2.562 . S
Pr201 O227 2.490 . S
Pr201 O228 2.695 . S
Pr201 O229 2.512 . S
Pr201 O231 2.437 . S
C202 Pr200 2.880 . S
C202 C203 1.491 . S
C202 O220 1.254 . S
C202 O221 1.225 . S
C203 C202 1.491 . S
C203 C204 1.392 . S
C203 C208 1.356 . S
C204 C203 1.392 . S
C204 C205 1.368 1_556 S
C204 H232 0.929 . S
C205 C204 1.368 1_554 S
C205 C206 1.386 . S
C205 H233 0.929 . S
C206 C205 1.386 . S
C206 C207 1.373 . S
C207 C206 1.373 . S
C207 C208 1.409 1_554 S
C207 H234 0.931 . S
C208 C203 1.356 . S
C208 C207 1.409 1_556 S
C208 H235 0.930 . S
C209 O222 1.270 . S
C209 O223 1.248 . S
C210 O224 1.267 . S
C210 O225 1.278 . S
C211 Pr201 2.880 . S
C211 C212 1.491 . S
C211 O226 1.254 . S
C211 O227 1.225 . S
C212 C211 1.491 . S
C212 C213 1.392 . S
C212 C217 1.356 . S
C213 C212 1.392 . S
C213 C214 1.368 . S
C213 H236 0.929 . S
C214 C213 1.368 . S
C214 C215 1.386 . S
C214 H237 0.929 . S
C215 C214 1.386 . S
C215 C216 1.373 . S
C216 C215 1.373 . S
C216 C217 1.409 . S
C216 H238 0.931 . S
C217 C212 1.356 . S
C217 C216 1.409 . S
C217 H239 0.930 . S
C218 O228 1.270 . S
C218 O229 1.248 . S
C219 O230 1.267 . S
C219 O231 1.278 . S
O220 Pr200 2.562 . S
O220 C202 1.254 . S
O221 Pr200 2.490 . S
O221 C202 1.225 . S
O222 Pr200 2.695 . S
O222 Pr201 2.436 . S
O222 C209 1.270 . S
O223 Pr200 2.512 . S
O223 C209 1.248 . S
O224 Pr201 2.438 . S
O224 C210 1.267 . S
O225 Pr200 2.437 . S
O225 C210 1.278 . S
O226 Pr201 2.562 . S
O226 C211 1.254 . S
O227 Pr201 2.490 . S
O227 C211 1.225 . S
O228 Pr200 2.436 . S
O228 Pr201 2.695 . S
O228 C218 1.270 . S
O229 Pr201 2.512 . S
O229 C218 1.248 . S
O230 Pr200 2.438 . S
O230 C219 1.267 . S
O231 Pr201 2.437 . S
O231 C219 1.278 . S
H232 C204 0.929 . S
H233 C205 0.929 . S
H234 C207 0.931 . S
H235 C208 0.930 . S
H236 C213 0.929 . S
H237 C214 0.929 . S
H238 C216 0.931 . S
H239 C217 0.930 . S
Pr240 C242 2.880 . S
Pr240 O260 2.562 . S
Pr240 O261 2.490 . S
Pr240 O262 2.695 1_556 S
Pr240 O263 2.512 . S
Pr240 O265 2.437 . S
Pr240 O268 2.436 . S
Pr240 O270 2.438 . S
Pr241 C251 2.880 . S
Pr241 O262 2.436 . S
Pr241 O264 2.438 . S
Pr241 O266 2.562 . S
Pr241 O267 2.490 . S
Pr241 O268 2.695 1_554 S
Pr241 O269 2.512 . S
Pr241 O271 2.437 . S
C242 Pr240 2.880 . S
C242 C243 1.491 . S
C242 O260 1.254 . S
C242 O261 1.225 . S
C243 C242 1.491 . S
C243 C244 1.392 . S
C243 C248 1.356 . S
C244 C243 1.392 . S
C244 C245 1.368 . S
C244 H272 0.929 . S
C245 C244 1.368 . S
C245 C246 1.386 . S
C245 H273 0.929 . S
C246 C245 1.386 . S
C246 C247 1.373 . S
C247 C246 1.373 . S
C247 C248 1.409 . S
C247 H274 0.931 . S
C248 C243 1.356 . S
C248 C247 1.409 . S
C248 H275 0.930 . S
C249 O262 1.270 . S
C249 O263 1.248 1_554 S
C250 O264 1.267 1_556 S
C250 O265 1.278 . S
C251 Pr241 2.880 . S
C251 C252 1.491 . S
C251 O266 1.254 . S
C251 O267 1.225 . S
C252 C251 1.491 . S
C252 C253 1.392 . S
C252 C257 1.356 . S
C253 C252 1.392 . S
C253 C254 1.368 . S
C253 H276 0.929 . S
C254 C253 1.368 . S
C254 C255 1.386 . S
C254 H277 0.929 . S
C255 C254 1.386 . S
C255 C256 1.373 . S
C256 C255 1.373 . S
C256 C257 1.409 . S
C256 H278 0.931 . S
C257 C252 1.356 . S
C257 C256 1.409 . S
C257 H279 0.930 . S
C258 O268 1.270 . S
C258 O269 1.248 1_556 S
C259 O270 1.267 1_554 S
C259 O271 1.278 . S
O260 Pr240 2.562 . S
O260 C242 1.254 . S
O261 Pr240 2.490 . S
O261 C242 1.225 . S
O262 Pr240 2.695 1_554 S
O262 Pr241 2.436 . S
O262 C249 1.270 . S
O263 Pr240 2.512 . S
O263 C249 1.248 1_556 S
O264 Pr241 2.438 . S
O264 C250 1.267 1_554 S
O265 Pr240 2.437 . S
O265 C250 1.278 . S
O266 Pr241 2.562 . S
O266 C251 1.254 . S
O267 Pr241 2.490 . S
O267 C251 1.225 . S
O268 Pr240 2.436 . S
O268 Pr241 2.695 1_556 S
O268 C258 1.270 . S
O269 Pr241 2.512 . S
O269 C258 1.248 1_554 S
O270 Pr240 2.438 . S
O270 C259 1.267 1_556 S
O271 Pr241 2.437 . S
O271 C259 1.278 . S
H272 C244 0.929 . S
H273 C245 0.929 . S
H274 C247 0.931 . S
H275 C248 0.930 . S
H276 C253 0.929 . S
H277 C254 0.929 . S
H278 C256 0.931 . S
H279 C257 0.930 . S
Pr280 C282 2.880 1_455 S
Pr280 O300 2.562 . S
Pr280 O301 2.490 1_455 S
Pr280 O302 2.695 1_455 S
Pr280 O303 2.512 1_455 S
Pr280 O305 2.437 1_455 S
Pr280 O308 2.436 . S
Pr280 O310 2.438 . S
Pr281 C291 2.880 1_655 S
Pr281 O302 2.436 . S
Pr281 O304 2.438 . S
Pr281 O306 2.562 . S
Pr281 O307 2.490 1_655 S
Pr281 O308 2.695 1_655 S
Pr281 O309 2.512 1_655 S
Pr281 O311 2.437 1_655 S
C282 Pr280 2.880 1_655 S
C282 C283 1.491 . S
C282 O300 1.254 1_655 S
C282 O301 1.225 . S
C283 C282 1.491 . S
C283 C284 1.392 . S
C283 C288 1.356 . S
C284 C283 1.392 . S
C284 C285 1.368 . S
C284 H312 0.929 . S
C285 C284 1.368 . S
C285 C286 1.386 . S
C285 H313 0.929 . S
C286 C285 1.386 . S
C286 C287 1.373 . S
C287 C286 1.373 . S
C287 C288 1.409 . S
C287 H314 0.931 . S
C288 C283 1.356 . S
C288 C287 1.409 . S
C288 H315 0.930 1_655 S
C289 O302 1.270 . S
C289 O303 1.248 . S
C290 O304 1.267 . S
C290 O305 1.278 . S
C291 Pr281 2.880 1_455 S
C291 C292 1.491 . S
C291 O306 1.254 1_455 S
C291 O307 1.225 . S
C292 C291 1.491 . S
C292 C293 1.392 . S
C292 C297 1.356 . S
C293 C292 1.392 . S
C293 C294 1.368 . S
C293 H316 0.929 . S
C294 C293 1.368 . S
C294 C295 1.386 . S
C294 H317 0.929 . S
C295 C294 1.386 . S
C295 C296 1.373 . S
C296 C295 1.373 . S
C296 C297 1.409 . S
C296 H318 0.931 . S
C297 C292 1.356 . S
C297 C296 1.409 . S
C297 H319 0.930 1_455 S
C298 O308 1.270 . S
C298 O309 1.248 . S
C299 O310 1.267 . S
C299 O311 1.278 . S
O300 Pr280 2.562 . S
O300 C282 1.254 1_455 S
O301 Pr280 2.490 1_655 S
O301 C282 1.225 . S
O302 Pr280 2.695 1_655 S
O302 Pr281 2.436 . S
O302 C289 1.270 . S
O303 Pr280 2.512 1_655 S
O303 C289 1.248 . S
O304 Pr281 2.438 . S
O304 C290 1.267 . S
O305 Pr280 2.437 1_655 S
O305 C290 1.278 . S
O306 Pr281 2.562 . S
O306 C291 1.254 1_655 S
O307 Pr281 2.490 1_455 S
O307 C291 1.225 . S
O308 Pr280 2.436 . S
O308 Pr281 2.695 1_455 S
O308 C298 1.270 . S
O309 Pr281 2.512 1_455 S
O309 C298 1.248 . S
O310 Pr280 2.438 . S
O310 C299 1.267 . S
O311 Pr281 2.437 1_455 S
O311 C299 1.278 . S
H312 C284 0.929 . S
H313 C285 0.929 . S
H314 C287 0.931 . S
H315 C288 0.930 1_455 S
H316 C293 0.929 . S
H317 C294 0.929 . S
H318 C296 0.931 . S
H319 C297 0.930 1_655 S
C320 C321 1.349 . S
C320 C322 1.327 . S
C320 H345 0.950 . S
C321 C320 1.349 . S
C321 C337 1.349 . S
C322 C320 1.327 . S
C322 C341 1.429 . S
C322 H346 0.950 . S
C323 C340 1.574 . S
C323 C342 1.368 . S
C323 H347 0.949 . S
H324 C328 0.949 . S
C325 C326 1.349 . S
C325 C327 1.327 . S
C325 H348 0.950 . S
C326 C325 1.349 . S
C326 C338 1.349 . S
C327 C325 1.327 . S
C327 C343 1.429 . S
C327 H349 0.950 . S
C328 H324 0.949 . S
C328 C336 1.574 . S
C328 C344 1.368 . S
H329 C337 0.950 . S
H330 C335 0.950 . S
H331 C336 0.949 . S
H332 C338 0.950 . S
H333 C339 0.950 . S
H334 C340 0.949 . S
C335 H330 0.950 . S
C335 C337 1.327 . S
C335 C341 1.429 . S
C336 C328 1.574 . S
C336 H331 0.949 . S
C336 C342 1.368 . S
C337 C321 1.349 . S
C337 H329 0.950 . S
C337 C335 1.327 . S
C338 C326 1.349 . S
C338 H332 0.950 . S
C338 C339 1.327 . S
C339 H333 0.950 . S
C339 C338 1.327 . S
C339 C343 1.429 . S
C340 C323 1.574 . S
C340 H334 0.949 . S
C340 C344 1.368 . S
C341 C322 1.429 . S
C341 C335 1.429 . S
C341 C342 1.523 . S
C342 C323 1.368 . S
C342 C336 1.368 . S
C342 C341 1.523 . S
C343 C327 1.429 . S
C343 C339 1.429 . S
C343 C344 1.523 . S
C344 C328 1.368 . S
C344 C340 1.368 . S
C344 C343 1.523 . S
H345 C320 0.950 . S
H346 C322 0.950 . S
H347 C323 0.949 . S
H348 C325 0.950 . S
H349 C327 0.950 . S
C350 C351 1.349 . S
C350 C352 1.327 . S
C350 H375 0.950 . S
C351 C350 1.349 . S
C351 C367 1.349 . S
C352 C350 1.327 . S
C352 C371 1.429 . S
C352 H376 0.950 . S
C353 C370 1.574 . S
C353 C372 1.368 . S
C353 H377 0.949 . S
H354 C358 0.949 . S
C355 C356 1.349 . S
C355 C357 1.327 . S
C355 H378 0.950 . S
C356 C355 1.349 . S
C356 C368 1.349 . S
C357 C355 1.327 . S
C357 C373 1.429 . S
C357 H379 0.950 . S
C358 H354 0.949 . S
C358 C366 1.574 . S
C358 C374 1.368 . S
H359 C367 0.950 . S
H360 C365 0.950 . S
H361 C366 0.949 . S
H362 C368 0.950 . S
H363 C369 0.950 . S
H364 C370 0.949 . S
C365 H360 0.950 . S
C365 C367 1.327 . S
C365 C371 1.429 . S
C366 C358 1.574 . S
C366 H361 0.949 . S
C366 C372 1.368 . S
C367 C351 1.349 . S
C367 H359 0.950 . S
C367 C365 1.327 . S
C368 C356 1.349 . S
C368 H362 0.950 . S
C368 C369 1.327 . S
C369 H363 0.950 . S
C369 C368 1.327 . S
C369 C373 1.429 . S
C370 C353 1.574 . S
C370 H364 0.949 . S
C370 C374 1.368 . S
C371 C352 1.429 . S
C371 C365 1.429 . S
C371 C372 1.523 . S
C372 C353 1.368 . S
C372 C366 1.368 . S
C372 C371 1.523 . S
C373 C357 1.429 . S
C373 C369 1.429 . S
C373 C374 1.523 . S
C374 C358 1.368 . S
C374 C370 1.368 . S
C374 C373 1.523 . S
H375 C350 0.950 . S
H376 C352 0.950 . S
H377 C353 0.949 . S
H378 C355 0.950 . S
H379 C357 0.950 . S
C380 C381 1.349 . S
C380 C382 1.327 . S
C380 H405 0.950 . S
C381 C380 1.349 . S
C381 C397 1.349 . S
C382 C380 1.327 . S
C382 C401 1.429 . S
C382 H406 0.950 . S
C383 C400 1.574 . S
C383 C402 1.368 . S
C383 H407 0.949 . S
H384 C388 0.949 . S
C385 C386 1.349 . S
C385 C387 1.327 . S
C385 H408 0.950 1_556 S
C386 C385 1.349 . S
C386 C398 1.349 . S
C387 C385 1.327 . S
C387 C403 1.429 . S
C387 H409 0.950 . S
C388 H384 0.949 . S
C388 C396 1.574 . S
C388 C404 1.368 . S
H389 C397 0.950 . S
H390 C395 0.950 . S
H391 C396 0.949 . S
H392 C398 0.950 . S
H393 C399 0.950 . S
H394 C400 0.949 . S
C395 H390 0.950 . S
C395 C397 1.327 . S
C395 C401 1.429 . S
C396 C388 1.574 . S
C396 H391 0.949 . S
C396 C402 1.368 . S
C397 C381 1.349 . S
C397 H389 0.950 . S
C397 C395 1.327 . S
C398 C386 1.349 . S
C398 H392 0.950 . S
C398 C399 1.327 . S
C399 H393 0.950 . S
C399 C398 1.327 . S
C399 C403 1.429 . S
C400 C383 1.574 . S
C400 H394 0.949 . S
C400 C404 1.368 . S
C401 C382 1.429 . S
C401 C395 1.429 . S
C401 C402 1.523 . S
C402 C383 1.368 . S
C402 C396 1.368 . S
C402 C401 1.523 . S
C403 C387 1.429 . S
C403 C399 1.429 . S
C403 C404 1.523 . S
C404 C388 1.368 . S
C404 C400 1.368 . S
C404 C403 1.523 . S
H405 C380 0.950 . S
H406 C382 0.950 . S
H407 C383 0.949 . S
H408 C385 0.950 1_554 S
H409 C387 0.950 . S
C410 C411 1.349 . S
C410 C412 1.327 . S
C410 H435 0.950 . S
C411 C410 1.349 . S
C411 C427 1.349 . S
C412 C410 1.327 . S
C412 C431 1.429 . S
C412 H436 0.950 . S
C413 C430 1.574 . S
C413 C432 1.368 . S
C413 H437 0.949 . S
H414 C418 0.949 . S
C415 C416 1.349 . S
C415 C417 1.327 . S
C415 H438 0.950 . S
C416 C415 1.349 . S
C416 C428 1.349 . S
C417 C415 1.327 . S
C417 C433 1.429 . S
C417 H439 0.950 . S
C418 H414 0.949 . S
C418 C426 1.574 . S
C418 C434 1.368 . S
H419 C427 0.950 . S
H420 C425 0.950 . S
H421 C426 0.949 . S
H422 C428 0.950 . S
H423 C429 0.950 . S
H424 C430 0.949 . S
C425 H420 0.950 . S
C425 C427 1.327 . S
C425 C431 1.429 . S
C426 C418 1.574 . S
C426 H421 0.949 . S
C426 C432 1.368 . S
C427 C411 1.349 . S
C427 H419 0.950 . S
C427 C425 1.327 . S
C428 C416 1.349 . S
C428 H422 0.950 . S
C428 C429 1.327 . S
C429 H423 0.950 . S
C429 C428 1.327 . S
C429 C433 1.429 . S
C430 C413 1.574 . S
C430 H424 0.949 . S
C430 C434 1.368 . S
C431 C412 1.429 . S
C431 C425 1.429 . S
C431 C432 1.523 . S
C432 C413 1.368 . S
C432 C426 1.368 . S
C432 C431 1.523 . S
C433 C417 1.429 . S
C433 C429 1.429 . S
C433 C434 1.523 . S
C434 C418 1.368 . S
C434 C430 1.368 . S
C434 C433 1.523 . S
H435 C410 0.950 . S
H436 C412 0.950 . S
H437 C413 0.949 . S
H438 C415 0.950 . S
H439 C417 0.950 . S
C440 C441 1.349 . S
C440 C442 1.327 . S
C440 H465 0.950 . S
C441 C440 1.349 . S
C441 C457 1.349 . S
C442 C440 1.327 . S
C442 C461 1.429 . S
C442 H466 0.950 . S
C443 C460 1.574 . S
C443 C462 1.368 . S
C443 H467 0.949 . S
H444 C448 0.949 . S
C445 C446 1.349 . S
C445 C447 1.327 . S
C445 H468 0.950 . S
C446 C445 1.349 . S
C446 C458 1.349 . S
C447 C445 1.327 . S
C447 C463 1.429 . S
C447 H469 0.950 . S
C448 H444 0.949 . S
C448 C456 1.574 . S
C448 C464 1.368 . S
H449 C457 0.950 . S
H450 C455 0.950 . S
H451 C456 0.949 . S
H452 C458 0.950 . S
H453 C459 0.950 . S
H454 C460 0.949 . S
C455 H450 0.950 . S
C455 C457 1.327 . S
C455 C461 1.429 . S
C456 C448 1.574 . S
C456 H451 0.949 . S
C456 C462 1.368 . S
C457 C441 1.349 . S
C457 H449 0.950 . S
C457 C455 1.327 . S
C458 C446 1.349 . S
C458 H452 0.950 . S
C458 C459 1.327 . S
C459 H453 0.950 . S
C459 C458 1.327 . S
C459 C463 1.429 . S
C460 C443 1.574 . S
C460 H454 0.949 . S
C460 C464 1.368 . S
C461 C442 1.429 . S
C461 C455 1.429 . S
C461 C462 1.523 . S
C462 C443 1.368 . S
C462 C456 1.368 . S
C462 C461 1.523 . S
C463 C447 1.429 . S
C463 C459 1.429 . S
C463 C464 1.523 . S
C464 C448 1.368 . S
C464 C460 1.368 . S
C464 C463 1.523 . S
H465 C440 0.950 . S
H466 C442 0.950 . S
H467 C443 0.949 . S
H468 C445 0.950 . S
H469 C447 0.950 . S
C470 C471 1.349 . S
C470 C472 1.327 . S
C470 H495 0.950 . S
C471 C470 1.349 . S
C471 C487 1.349 . S
C472 C470 1.327 . S
C472 C491 1.429 . S
C472 H496 0.950 . S
C473 C490 1.574 . S
C473 C492 1.368 . S
C473 H497 0.949 . S
H474 C478 0.949 . S
C475 C476 1.349 . S
C475 C477 1.327 . S
C475 H498 0.950 . S
C476 C475 1.349 . S
C476 C488 1.349 . S
C477 C475 1.327 . S
C477 C493 1.429 . S
C477 H499 0.950 . S
C478 H474 0.949 . S
C478 C486 1.574 . S
C478 C494 1.368 . S
H479 C487 0.950 . S
H480 C485 0.950 . S
H481 C486 0.949 . S
H482 C488 0.950 . S
H483 C489 0.950 . S
H484 C490 0.949 . S
C485 H480 0.950 . S
C485 C487 1.327 . S
C485 C491 1.429 . S
C486 C478 1.574 . S
C486 H481 0.949 . S
C486 C492 1.368 . S
C487 C471 1.349 . S
C487 H479 0.950 . S
C487 C485 1.327 . S
C488 C476 1.349 . S
C488 H482 0.950 . S
C488 C489 1.327 . S
C489 H483 0.950 . S
C489 C488 1.327 . S
C489 C493 1.429 . S
C490 C473 1.574 . S
C490 H484 0.949 . S
C490 C494 1.368 . S
C491 C472 1.429 . S
C491 C485 1.429 . S
C491 C492 1.523 . S
C492 C473 1.368 . S
C492 C486 1.368 . S
C492 C491 1.523 . S
C493 C477 1.429 . S
C493 C489 1.429 . S
C493 C494 1.523 . S
C494 C478 1.368 . S
C494 C490 1.368 . S
C494 C493 1.523 . S
H495 C470 0.950 . S
H496 C472 0.950 . S
H497 C473 0.949 . S
H498 C475 0.950 . S
H499 C477 0.950 . S
C500 C501 1.349 . S
C500 C502 1.327 . S
C500 H525 0.950 . S
C501 C500 1.349 . S
C501 C517 1.349 . S
C502 C500 1.327 . S
C502 C521 1.429 . S
C502 H526 0.950 . S
C503 C520 1.574 . S
C503 C522 1.368 . S
C503 H527 0.949 . S
H504 C508 0.949 . S
C505 C506 1.349 . S
C505 C507 1.327 . S
C505 H528 0.950 1_554 S
C506 C505 1.349 . S
C506 C518 1.349 . S
C507 C505 1.327 . S
C507 C523 1.429 . S
C507 H529 0.950 . S
C508 H504 0.949 . S
C508 C516 1.574 . S
C508 C524 1.368 . S
H509 C517 0.950 . S
H510 C515 0.950 . S
H511 C516 0.949 . S
H512 C518 0.950 . S
H513 C519 0.950 . S
H514 C520 0.949 . S
C515 H510 0.950 . S
C515 C517 1.327 . S
C515 C521 1.429 . S
C516 C508 1.574 . S
C516 H511 0.949 . S
C516 C522 1.368 . S
C517 C501 1.349 . S
C517 H509 0.950 . S
C517 C515 1.327 . S
C518 C506 1.349 . S
C518 H512 0.950 . S
C518 C519 1.327 . S
C519 H513 0.950 . S
C519 C518 1.327 . S
C519 C523 1.429 . S
C520 C503 1.574 . S
C520 H514 0.949 . S
C520 C524 1.368 . S
C521 C502 1.429 . S
C521 C515 1.429 . S
C521 C522 1.523 . S
C522 C503 1.368 . S
C522 C516 1.368 . S
C522 C521 1.523 . S
C523 C507 1.429 . S
C523 C519 1.429 . S
C523 C524 1.523 . S
C524 C508 1.368 . S
C524 C520 1.368 . S
C524 C523 1.523 . S
H525 C500 0.950 . S
H526 C502 0.950 . S
H527 C503 0.949 . S
H528 C505 0.950 1_556 S
H529 C507 0.950 . S
C530 C531 1.349 . S
C530 C532 1.327 . S
C530 H555 0.950 . S
C531 C530 1.349 . S
C531 C547 1.349 . S
C532 C530 1.327 . S
C532 C551 1.429 . S
C532 H556 0.950 . S
C533 C550 1.574 . S
C533 C552 1.368 . S
C533 H557 0.949 . S
H534 C538 0.949 . S
C535 C536 1.349 . S
C535 C537 1.327 . S
C535 H558 0.950 . S
C536 C535 1.349 . S
C536 C548 1.349 . S
C537 C535 1.327 . S
C537 C553 1.429 . S
C537 H559 0.950 . S
C538 H534 0.949 . S
C538 C546 1.574 . S
C538 C554 1.368 . S
H539 C547 0.950 . S
H540 C545 0.950 . S
H541 C546 0.949 . S
H542 C548 0.950 . S
H543 C549 0.950 . S
H544 C550 0.949 . S
C545 H540 0.950 . S
C545 C547 1.327 . S
C545 C551 1.429 . S
C546 C538 1.574 . S
C546 H541 0.949 . S
C546 C552 1.368 . S
C547 C531 1.349 . S
C547 H539 0.950 . S
C547 C545 1.327 . S
C548 C536 1.349 . S
C548 H542 0.950 . S
C548 C549 1.327 . S
C549 H543 0.950 . S
C549 C548 1.327 . S
C549 C553 1.429 . S
C550 C533 1.574 . S
C550 H544 0.949 . S
C550 C554 1.368 . S
C551 C532 1.429 . S
C551 C545 1.429 . S
C551 C552 1.523 . S
C552 C533 1.368 . S
C552 C546 1.368 . S
C552 C551 1.523 . S
C553 C537 1.429 . S
C553 C549 1.429 . S
C553 C554 1.523 . S
C554 C538 1.368 . S
C554 C550 1.368 . S
C554 C553 1.523 . S
H555 C530 0.950 . S
H556 C532 0.950 . S
H557 C533 0.949 . S
H558 C535 0.950 . S
H559 C537 0.950 . S
C560 C561 1.349 . S
C560 C562 1.327 . S
C560 H585 0.950 . S
C561 C560 1.349 . S
C561 C577 1.349 . S
C562 C560 1.327 . S
C562 C581 1.429 . S
C562 H586 0.950 . S
C563 C580 1.574 . S
C563 C582 1.368 . S
C563 H587 0.949 . S
H564 C568 0.949 . S
C565 C566 1.349 . S
C565 C567 1.327 . S
C565 H588 0.950 . S
C566 C565 1.349 . S
C566 C578 1.349 . S
C567 C565 1.327 . S
C567 C583 1.429 . S
C567 H589 0.950 . S
C568 H564 0.949 . S
C568 C576 1.574 . S
C568 C584 1.368 . S
H569 C577 0.953 . S
H570 C575 0.950 . S
H571 C576 0.949 . S
H572 C578 0.950 . S
H573 C579 0.950 . S
H574 C580 0.949 . S
C575 H570 0.950 . S
C575 C577 1.327 . S
C575 C581 1.429 . S
C576 C568 1.574 . S
C576 H571 0.949 . S
C576 C582 1.368 . S
C577 C561 1.349 . S
C577 H569 0.953 . S
C577 C575 1.327 . S
C578 C566 1.349 . S
C578 H572 0.950 . S
C578 C579 1.327 . S
C579 H573 0.950 . S
C579 C578 1.327 . S
C579 C583 1.429 . S
C580 C563 1.574 . S
C580 H574 0.949 . S
C580 C584 1.368 . S
C581 C562 1.429 . S
C581 C575 1.429 . S
C581 C582 1.523 . S
C582 C563 1.368 . S
C582 C576 1.368 . S
C582 C581 1.523 . S
C583 C567 1.429 . S
C583 C579 1.429 . S
C583 C584 1.523 . S
C584 C568 1.368 . S
C584 C580 1.368 . S
C584 C583 1.523 . S
H585 C560 0.950 . S
H586 C562 0.950 . S
H587 C563 0.949 . S
H588 C565 0.950 . S
H589 C567 0.950 . S
C590 C591 1.349 . S
C590 C592 1.327 . S
C590 H615 0.950 . S
C591 C590 1.349 . S
C591 C607 1.349 . S
C592 C590 1.327 . S
C592 C611 1.429 . S
C592 H616 0.950 . S
C593 C610 1.574 . S
C593 C612 1.368 . S
C593 H617 0.949 . S
H594 C598 0.949 . S
C595 C596 1.349 . S
C595 C597 1.327 . S
C595 H618 0.950 . S
C596 C595 1.349 . S
C596 C608 1.349 . S
C597 C595 1.327 . S
C597 C613 1.429 . S
C597 H619 0.950 . S
C598 H594 0.949 . S
C598 C606 1.574 . S
C598 C614 1.368 . S
H599 C607 0.950 . S
H600 C605 0.950 . S
H601 C606 0.949 . S
H602 C608 0.950 1_556 S
H603 C609 0.950 . S
H604 C610 0.949 . S
C605 H600 0.950 . S
C605 C607 1.327 . S
C605 C611 1.429 . S
C606 C598 1.574 . S
C606 H601 0.949 . S
C606 C612 1.368 . S
C607 C591 1.349 . S
C607 H599 0.950 . S
C607 C605 1.327 . S
C608 C596 1.349 . S
C608 H602 0.950 1_554 S
C608 C609 1.327 . S
C609 H603 0.950 . S
C609 C608 1.327 . S
C609 C613 1.429 . S
C610 C593 1.574 . S
C610 H604 0.949 . S
C610 C614 1.368 . S
C611 C592 1.429 . S
C611 C605 1.429 . S
C611 C612 1.523 . S
C612 C593 1.368 . S
C612 C606 1.368 . S
C612 C611 1.523 . S
C613 C597 1.429 . S
C613 C609 1.429 . S
C613 C614 1.523 . S
C614 C598 1.368 . S
C614 C610 1.368 . S
C614 C613 1.523 . S
H615 C590 0.950 . S
H616 C592 0.950 . S
H617 C593 0.949 . S
H618 C595 0.950 . S
H619 C597 0.950 . S
C620 C621 1.349 . S
C620 C622 1.327 . S
C620 H645 0.950 . S
C621 C620 1.349 . S
C621 C637 1.349 . S
C622 C620 1.327 . S
C622 C641 1.429 . S
C622 H646 0.950 . S
C623 C640 1.574 . S
C623 C642 1.368 . S
C623 H647 0.949 . S
H624 C628 0.949 . S
C625 C626 1.349 . S
C625 C627 1.327 . S
C625 H648 0.950 . S
C626 C625 1.349 . S
C626 C638 1.349 . S
C627 C625 1.327 . S
C627 C643 1.429 . S
C627 H649 0.950 . S
C628 H624 0.949 . S
C628 C636 1.574 . S
C628 C644 1.368 . S
H629 C637 0.950 . S
H630 C635 0.950 . S
H631 C636 0.949 . S
H632 C638 0.950 . S
H633 C639 0.950 . S
H634 C640 0.949 . S
C635 H630 0.950 . S
C635 C637 1.327 . S
C635 C641 1.429 . S
C636 C628 1.574 . S
C636 H631 0.949 . S
C636 C642 1.368 . S
C637 C621 1.349 . S
C637 H629 0.950 . S
C637 C635 1.327 . S
C638 C626 1.349 . S
C638 H632 0.950 . S
C638 C639 1.327 . S
C639 H633 0.950 . S
C639 C638 1.327 . S
C639 C643 1.429 . S
C640 C623 1.574 . S
C640 H634 0.949 . S
C640 C644 1.368 . S
C641 C622 1.429 . S
C641 C635 1.429 . S
C641 C642 1.523 . S
C642 C623 1.368 . S
C642 C636 1.368 . S
C642 C641 1.523 . S
C643 C627 1.429 . S
C643 C639 1.429 . S
C643 C644 1.523 . S
C644 C628 1.368 . S
C644 C640 1.368 . S
C644 C643 1.523 . S
H645 C620 0.950 . S
H646 C622 0.950 . S
H647 C623 0.949 . S
H648 C625 0.950 . S
H649 C627 0.950 . S
C650 C651 1.349 . S
C650 C652 1.327 . S
C650 H675 0.950 . S
C651 C650 1.349 . S
C651 C667 1.349 . S
C652 C650 1.327 . S
C652 C671 1.429 . S
C652 H676 0.950 . S
C653 C670 1.574 . S
C653 C672 1.368 . S
C653 H677 0.949 . S
H654 C658 0.949 . S
C655 C656 1.349 . S
C655 C657 1.327 . S
C655 H678 0.950 . S
C656 C655 1.349 . S
C656 C668 1.349 . S
C657 C655 1.327 . S
C657 C673 1.429 . S
C657 H679 0.950 . S
C658 H654 0.949 . S
C658 C666 1.574 . S
C658 C674 1.368 . S
H659 C667 0.950 . S
H660 C665 0.950 . S
H661 C666 0.949 . S
H662 C668 0.950 . S
H663 C669 0.950 . S
H664 C670 0.949 . S
C665 H660 0.950 . S
C665 C667 1.327 . S
C665 C671 1.429 . S
C666 C658 1.574 . S
C666 H661 0.949 . S
C666 C672 1.368 . S
C667 C651 1.349 . S
C667 H659 0.950 . S
C667 C665 1.327 . S
C668 C656 1.349 . S
C668 H662 0.950 . S
C668 C669 1.327 . S
C669 H663 0.950 . S
C669 C668 1.327 . S
C669 C673 1.429 . S
C670 C653 1.574 . S
C670 H664 0.949 . S
C670 C674 1.368 . S
C671 C652 1.429 . S
C671 C665 1.429 . S
C671 C672 1.523 . S
C672 C653 1.368 . S
C672 C666 1.368 . S
C672 C671 1.523 . S
C673 C657 1.429 . S
C673 C669 1.429 . S
C673 C674 1.523 . S
C674 C658 1.368 . S
C674 C670 1.368 . S
C674 C673 1.523 . S
H675 C650 0.950 . S
H676 C652 0.950 . S
H677 C653 0.949 . S
H678 C655 0.950 . S
H679 C657 0.950 . S
C680 C681 1.349 . S
C680 C682 1.327 . S
C680 H705 0.950 . S
C681 C680 1.349 . S
C681 C697 1.349 . S
C682 C680 1.327 . S
C682 C701 1.429 . S
C682 H706 0.950 . S
C683 C700 1.574 . S
C683 C702 1.368 . S
C683 H707 0.949 . S
H684 C688 0.949 . S
C685 C686 1.349 . S
C685 C687 1.327 . S
C685 H708 0.950 . S
C686 C685 1.349 . S
C686 C698 1.349 . S
C687 C685 1.327 . S
C687 C703 1.429 . S
C687 H709 0.950 . S
C688 H684 0.949 . S
C688 C696 1.574 . S
C688 C704 1.368 . S
H689 C697 0.950 . S
H690 C695 0.950 . S
H691 C696 0.949 . S
H692 C698 0.957 . S
H693 C699 0.950 . S
H694 C700 0.949 . S
C695 H690 0.950 . S
C695 C697 1.327 . S
C695 C701 1.429 . S
C696 C688 1.574 . S
C696 H691 0.949 . S
C696 C702 1.368 . S
C697 C681 1.349 . S
C697 H689 0.950 . S
C697 C695 1.327 . S
C698 C686 1.349 . S
C698 H692 0.957 . S
C698 C699 1.327 . S
C699 H693 0.950 . S
C699 C698 1.327 . S
C699 C703 1.429 . S
C700 C683 1.574 . S
C700 H694 0.949 . S
C700 C704 1.368 . S
C701 C682 1.429 . S
C701 C695 1.429 . S
C701 C702 1.523 . S
C702 C683 1.368 . S
C702 C696 1.368 . S
C702 C701 1.523 . S
C703 C687 1.429 . S
C703 C699 1.429 . S
C703 C704 1.523 . S
C704 C688 1.368 . S
C704 C700 1.368 . S
C704 C703 1.523 . S
H705 C680 0.950 . S
H706 C682 0.950 . S
H707 C683 0.949 . S
H708 C685 0.950 . S
H709 C687 0.950 . S
C710 C711 1.349 . S
C710 C712 1.327 . S
C710 H735 0.950 . S
C711 C710 1.349 . S
C711 C727 1.349 . S
C712 C710 1.327 . S
C712 C731 1.429 . S
C712 H736 0.950 . S
C713 C730 1.574 . S
C713 C732 1.368 . S
C713 H737 0.949 . S
H714 C718 0.949 . S
C715 C716 1.349 . S
C715 C717 1.327 . S
C715 H738 0.950 . S
C716 C715 1.349 . S
C716 C728 1.349 . S
C717 C715 1.327 . S
C717 C733 1.429 . S
C717 H739 0.950 . S
C718 H714 0.949 . S
C718 C726 1.574 . S
C718 C734 1.368 . S
H719 C727 0.950 1_554 S
H720 C725 0.950 . S
H721 C726 0.949 . S
H722 C728 0.950 . S
H723 C729 0.950 . S
H724 C730 0.949 . S
C725 H720 0.950 . S
C725 C727 1.327 . S
C725 C731 1.429 . S
C726 C718 1.574 . S
C726 H721 0.949 . S
C726 C732 1.368 . S
C727 C711 1.349 . S
C727 H719 0.950 1_556 S
C727 C725 1.327 . S
C728 C716 1.349 . S
C728 H722 0.950 . S
C728 C729 1.327 . S
C729 H723 0.950 . S
C729 C728 1.327 . S
C729 C733 1.429 . S
C730 C713 1.574 . S
C730 H724 0.949 . S
C730 C734 1.368 . S
C731 C712 1.429 . S
C731 C725 1.429 . S
C731 C732 1.523 . S
C732 C713 1.368 . S
C732 C726 1.368 . S
C732 C731 1.523 . S
C733 C717 1.429 . S
C733 C729 1.429 . S
C733 C734 1.523 . S
C734 C718 1.368 . S
C734 C730 1.368 . S
C734 C733 1.523 . S
H735 C710 0.950 . S
H736 C712 0.950 . S
H737 C713 0.949 . S
H738 C715 0.950 . S
H739 C717 0.950 . S
C740 C741 1.349 . S
C740 C742 1.327 . S
C740 H765 0.950 . S
C741 C740 1.349 . S
C741 C757 1.349 . S
C742 C740 1.327 . S
C742 C761 1.429 . S
C742 H766 0.950 . S
C743 C760 1.574 . S
C743 C762 1.368 . S
C743 H767 0.949 . S
H744 C748 0.949 . S
C745 C746 1.349 . S
C745 C747 1.327 . S
C745 H768 0.950 . S
C746 C745 1.349 . S
C746 C758 1.349 . S
C747 C745 1.327 . S
C747 C763 1.429 . S
C747 H769 0.950 . S
C748 H744 0.949 . S
C748 C756 1.574 . S
C748 C764 1.368 . S
H749 C757 0.950 . S
H750 C755 0.950 . S
H751 C756 0.949 . S
H752 C758 0.950 . S
H753 C759 0.950 . S
H754 C760 0.949 . S
C755 H750 0.950 . S
C755 C757 1.327 . S
C755 C761 1.429 . S
C756 C748 1.574 . S
C756 H751 0.949 . S
C756 C762 1.368 . S
C757 C741 1.349 . S
C757 H749 0.950 . S
C757 C755 1.327 . S
C758 C746 1.349 . S
C758 H752 0.950 . S
C758 C759 1.327 . S
C759 H753 0.950 . S
C759 C758 1.327 . S
C759 C763 1.429 . S
C760 C743 1.574 . S
C760 H754 0.949 . S
C760 C764 1.368 . S
C761 C742 1.429 . S
C761 C755 1.429 . S
C761 C762 1.523 . S
C762 C743 1.368 . S
C762 C756 1.368 . S
C762 C761 1.523 . S
C763 C747 1.429 . S
C763 C759 1.429 . S
C763 C764 1.523 . S
C764 C748 1.368 . S
C764 C760 1.368 . S
C764 C763 1.523 . S
H765 C740 0.950 . S
H766 C742 0.950 . S
H767 C743 0.949 . S
H768 C745 0.950 . S
H769 C747 0.950 . S
C770 C771 1.349 . S
C770 C772 1.327 . S
C770 H795 0.950 . S
C771 C770 1.349 . S
C771 C787 1.349 . S
C772 C770 1.327 . S
C772 C791 1.429 . S
C772 H796 0.950 . S
C773 C790 1.574 . S
C773 C792 1.368 . S
C773 H797 0.949 . S
H774 C778 0.949 . S
C775 C776 1.349 . S
C775 C777 1.327 . S
C775 H798 0.950 . S
C776 C775 1.349 . S
C776 C788 1.349 . S
C777 C775 1.327 . S
C777 C793 1.429 . S
C777 H799 0.950 . S
C778 H774 0.949 . S
C778 C786 1.574 . S
C778 C794 1.368 . S
H779 C787 0.950 . S
H780 C785 0.950 . S
H781 C786 0.949 . S
H782 C788 0.950 . S
H783 C789 0.950 . S
H784 C790 0.949 . S
C785 H780 0.950 . S
C785 C787 1.327 . S
C785 C791 1.429 . S
C786 C778 1.574 . S
C786 H781 0.949 . S
C786 C792 1.368 . S
C787 C771 1.349 . S
C787 H779 0.950 . S
C787 C785 1.327 . S
C788 C776 1.349 . S
C788 H782 0.950 . S
C788 C789 1.327 . S
C789 H783 0.950 . S
C789 C788 1.327 . S
C789 C793 1.429 . S
C790 C773 1.574 . S
C790 H784 0.949 . S
C790 C794 1.368 . S
C791 C772 1.429 . S
C791 C785 1.429 . S
C791 C792 1.523 . S
C792 C773 1.368 . S
C792 C786 1.368 . S
C792 C791 1.523 . S
C793 C777 1.429 . S
C793 C789 1.429 . S
C793 C794 1.523 . S
C794 C778 1.368 . S
C794 C790 1.368 . S
C794 C793 1.523 . S
H795 C770 0.950 . S
H796 C772 0.950 . S
H797 C773 0.949 . S
H798 C775 0.950 . S
H799 C777 0.950 . S
C800 C801 1.349 . S
C800 C802 1.327 . S
C800 H825 0.950 . S
C801 C800 1.349 . S
C801 C817 1.349 1_545 S
C802 C800 1.327 . S
C802 C821 1.429 . S
C802 H826 0.950 . S
C803 C820 1.574 1_556 S
C803 C822 1.368 1_465 S
C803 H827 0.949 . S
H804 C808 0.949 . S
C805 C806 1.349 . S
C805 C807 1.327 . S
C805 H828 0.950 . S
C806 C805 1.349 . S
C806 C818 1.349 1_565 S
C807 C805 1.327 . S
C807 C823 1.429 . S
C807 H829 0.950 . S
C808 H804 0.949 . S
C808 C816 1.574 1_554 S
C808 C824 1.368 1_645 S
H809 C817 0.950 1_455 S
H810 C815 0.940 1_455 S
H811 C816 0.949 . S
H812 C818 0.933 1_655 S
H813 C819 0.935 1_655 S
H814 C820 0.949 . S
C815 H810 0.940 1_655 S
C815 C817 1.328 . S
C815 C821 1.438 1_565 S
C816 C808 1.574 1_556 S
C816 H811 0.949 . S
C816 C822 1.368 . S
C817 C801 1.349 1_565 S
C817 H809 0.950 1_655 S
C817 C815 1.328 . S
C818 C806 1.349 1_545 S
C818 H812 0.933 1_455 S
C818 C819 1.328 . S
C819 H813 0.935 1_455 S
C819 C818 1.328 . S
C819 C823 1.443 1_545 S
C820 C803 1.574 1_554 S
C820 H814 0.949 . S
C820 C824 1.368 . S
C821 C802 1.429 . S
C821 C815 1.438 1_545 S
C821 C822 1.523 . S
C822 C803 1.368 1_645 S
C822 C816 1.368 . S
C822 C821 1.523 . S
C823 C807 1.429 . S
C823 C819 1.443 1_565 S
C823 C824 1.523 . S
C824 C808 1.368 1_465 S
C824 C820 1.368 . S
C824 C823 1.523 . S
H825 C800 0.950 . S
H826 C802 0.950 . S
H827 C803 0.949 . S
H828 C805 0.950 . S
H829 C807 0.950 . S
C830 C831 1.349 . S
C830 C832 1.327 . S
C830 H855 0.950 . S
C831 C830 1.349 . S
C831 C847 1.349 . S
C832 C830 1.327 . S
C832 C851 1.429 . S
C832 H856 0.950 . S
C833 C850 1.574 . S
C833 C852 1.368 . S
C833 H857 0.949 . S
H834 C838 0.949 . S
C835 C836 1.349 . S
C835 C837 1.327 . S
C835 H858 0.950 . S
C836 C835 1.349 . S
C836 C848 1.349 . S
C837 C835 1.327 . S
C837 C853 1.429 . S
C837 H859 0.950 . S
C838 H834 0.949 . S
C838 C846 1.574 . S
C838 C854 1.368 . S
H839 C847 0.950 . S
H840 C845 0.950 . S
H841 C846 0.949 . S
H842 C848 0.950 . S
H843 C849 0.950 . S
H844 C850 0.949 . S
C845 H840 0.950 . S
C845 C847 1.327 . S
C845 C851 1.429 . S
C846 C838 1.574 . S
C846 H841 0.949 . S
C846 C852 1.368 . S
C847 C831 1.349 . S
C847 H839 0.950 . S
C847 C845 1.327 . S
C848 C836 1.349 . S
C848 H842 0.950 . S
C848 C849 1.327 . S
C849 H843 0.950 . S
C849 C848 1.327 . S
C849 C853 1.429 . S
C850 C833 1.574 . S
C850 H844 0.949 . S
C850 C854 1.368 . S
C851 C832 1.429 . S
C851 C845 1.429 . S
C851 C852 1.523 . S
C852 C833 1.368 . S
C852 C846 1.368 . S
C852 C851 1.523 . S
C853 C837 1.429 . S
C853 C849 1.429 . S
C853 C854 1.523 . S
C854 C838 1.368 . S
C854 C850 1.368 . S
C854 C853 1.523 . S
H855 C830 0.950 . S
H856 C832 0.950 . S
H857 C833 0.949 . S
H858 C835 0.950 . S
H859 C837 0.950 . S
C860 C861 1.349 . S
C860 C862 1.327 . S
C860 H885 0.950 . S
C861 C860 1.349 . S
C861 C877 1.349 1_565 S
C862 C860 1.327 . S
C862 C881 1.429 . S
C862 H886 0.950 . S
C863 C880 1.574 . S
C863 C882 1.368 1_545 S
C863 H887 0.949 . S
H864 C868 0.949 . S
C865 C866 1.349 . S
C865 C867 1.327 . S
C865 H888 0.950 . S
C866 C865 1.349 . S
C866 C878 1.349 1_545 S
C867 C865 1.327 . S
C867 C883 1.429 . S
C867 H889 0.950 . S
C868 H864 0.949 . S
C868 C876 1.574 . S
C868 C884 1.368 1_565 S
H869 C877 0.950 . S
H870 C875 0.950 . S
H871 C876 0.949 . S
H872 C878 0.950 . S
H873 C879 0.950 . S
H874 C880 0.949 . S
C875 H870 0.950 . S
C875 C877 1.327 . S
C875 C881 1.429 1_545 S
C876 C868 1.574 . S
C876 H871 0.949 . S
C876 C882 1.368 . S
C877 C861 1.349 1_545 S
C877 H869 0.950 . S
C877 C875 1.327 . S
C878 C866 1.349 1_565 S
C878 H872 0.950 . S
C878 C879 1.327 . S
C879 H873 0.950 . S
C879 C878 1.327 . S
C879 C883 1.429 1_565 S
C880 C863 1.574 . S
C880 H874 0.949 . S
C880 C884 1.368 . S
C881 C862 1.429 . S
C881 C875 1.429 1_565 S
C881 C882 1.523 . S
C882 C863 1.368 1_565 S
C882 C876 1.368 . S
C882 C881 1.523 . S
C883 C867 1.429 . S
C883 C879 1.429 1_545 S
C883 C884 1.523 . S
C884 C868 1.368 1_545 S
C884 C880 1.368 . S
C884 C883 1.523 . S
H885 C860 0.950 . S
H886 C862 0.950 . S
H887 C863 0.949 . S
H888 C865 0.950 . S
H889 C867 0.950 . S
C890 C891 1.349 . S
C890 C892 1.327 . S
C890 H915 0.950 . S
C891 C890 1.349 . S
C891 C907 1.349 . S
C892 C890 1.327 . S
C892 C911 1.429 . S
C892 H916 0.950 . S
C893 C910 1.574 . S
C893 C912 1.368 . S
C893 H917 0.949 . S
H894 C898 0.949 . S
C895 C896 1.349 . S
C895 C897 1.327 . S
C895 H918 0.950 . S
C896 C895 1.349 . S
C896 C908 1.349 . S
C897 C895 1.327 . S
C897 C913 1.429 . S
C897 H919 0.950 . S
C898 H894 0.949 . S
C898 C906 1.574 . S
C898 C914 1.368 . S
H899 C907 0.950 . S
H900 C905 0.950 . S
H901 C906 0.949 . S
H902 C908 0.950 . S
H903 C909 0.950 . S
H904 C910 0.949 . S
C905 H900 0.950 . S
C905 C907 1.327 . S
C905 C911 1.429 . S
C906 C898 1.574 . S
C906 H901 0.949 . S
C906 C912 1.368 . S
C907 C891 1.349 . S
C907 H899 0.950 . S
C907 C905 1.327 . S
C908 C896 1.349 . S
C908 H902 0.950 . S
C908 C909 1.327 . S
C909 H903 0.950 . S
C909 C908 1.327 . S
C909 C913 1.429 . S
C910 C893 1.574 . S
C910 H904 0.949 . S
C910 C914 1.368 . S
C911 C892 1.429 . S
C911 C905 1.429 . S
C911 C912 1.523 . S
C912 C893 1.368 . S
C912 C906 1.368 . S
C912 C911 1.523 . S
C913 C897 1.429 . S
C913 C909 1.429 . S
C913 C914 1.523 . S
C914 C898 1.368 . S
C914 C910 1.368 . S
C914 C913 1.523 . S
H915 C890 0.950 . S
H916 C892 0.950 . S
H917 C893 0.949 . S
H918 C895 0.950 . S
H919 C897 0.950 . S
C920 C921 1.349 . S
C920 C922 1.327 . S
C920 H945 0.950 . S
C921 C920 1.349 . S
C921 C937 1.349 . S
C922 C920 1.327 . S
C922 C941 1.429 . S
C922 H946 0.950 . S
C923 C940 1.574 . S
C923 C942 1.368 . S
C923 H947 0.949 . S
H924 C928 0.949 . S
C925 C926 1.349 . S
C925 C927 1.327 . S
C925 H948 0.950 . S
C926 C925 1.349 . S
C926 C938 1.349 . S
C927 C925 1.327 . S
C927 C943 1.429 . S
C927 H949 0.950 . S
C928 H924 0.949 . S
C928 C936 1.574 . S
C928 C944 1.368 . S
H929 C937 0.950 . S
H930 C935 0.950 . S
H931 C936 0.949 . S
H932 C938 0.950 . S
H933 C939 0.950 . S
H934 C940 0.949 . S
C935 H930 0.950 . S
C935 C937 1.327 . S
C935 C941 1.429 . S
C936 C928 1.574 . S
C936 H931 0.949 . S
C936 C942 1.368 . S
C937 C921 1.349 . S
C937 H929 0.950 . S
C937 C935 1.327 . S
C938 C926 1.349 . S
C938 H932 0.950 . S
C938 C939 1.327 . S
C939 H933 0.950 . S
C939 C938 1.327 . S
C939 C943 1.429 . S
C940 C923 1.574 . S
C940 H934 0.949 . S
C940 C944 1.368 . S
C941 C922 1.429 . S
C941 C935 1.429 . S
C941 C942 1.523 . S
C942 C923 1.368 . S
C942 C936 1.368 . S
C942 C941 1.523 . S
C943 C927 1.429 . S
C943 C939 1.429 . S
C943 C944 1.523 . S
C944 C928 1.368 . S
C944 C940 1.368 . S
C944 C943 1.523 . S
H945 C920 0.950 . S
H946 C922 0.950 . S
H947 C923 0.949 . S
H948 C925 0.950 . S
H949 C927 0.950 . S
C950 C951 1.349 . S
C950 C952 1.327 . S
C950 H975 0.950 . S
C951 C950 1.349 . S
C951 C967 1.349 . S
C952 C950 1.327 . S
C952 C971 1.429 . S
C952 H976 0.950 . S
C953 C970 1.574 . S
C953 C972 1.368 . S
C953 H977 0.949 . S
H954 C958 0.949 . S
C955 C956 1.349 . S
C955 C957 1.327 . S
C955 H978 0.950 . S
C956 C955 1.349 . S
C956 C968 1.349 . S
C957 C955 1.327 . S
C957 C973 1.429 . S
C957 H979 0.950 . S
C958 H954 0.949 . S
C958 C966 1.574 . S
C958 C974 1.368 . S
H959 C967 0.950 . S
H960 C965 0.950 . S
H961 C966 0.949 . S
H962 C968 0.950 . S
H963 C969 0.950 . S
H964 C970 0.949 . S
C965 H960 0.950 . S
C965 C967 1.327 . S
C965 C971 1.429 . S
C966 C958 1.574 . S
C966 H961 0.949 . S
C966 C972 1.368 . S
C967 C951 1.349 . S
C967 H959 0.950 . S
C967 C965 1.327 . S
C968 C956 1.349 . S
C968 H962 0.950 . S
C968 C969 1.327 . S
C969 H963 0.950 . S
C969 C968 1.327 . S
C969 C973 1.429 . S
C970 C953 1.574 . S
C970 H964 0.949 . S
C970 C974 1.368 . S
C971 C952 1.429 . S
C971 C965 1.429 . S
C971 C972 1.523 . S
C972 C953 1.368 . S
C972 C966 1.368 . S
C972 C971 1.523 . S
C973 C957 1.429 . S
C973 C969 1.429 . S
C973 C974 1.523 . S
C974 C958 1.368 . S
C974 C970 1.368 . S
C974 C973 1.523 . S
H975 C950 0.950 . S
H976 C952 0.950 . S
H977 C953 0.949 . S
H978 C955 0.950 . S
H979 C957 0.950 . S
C980 C981 1.349 . S
C980 C982 1.327 . S
C980 H1005 0.950 . S
C981 C980 1.349 . S
C981 C997 1.349 . S
C982 C980 1.327 . S
C982 C1001 1.429 . S
C982 H1006 0.950 . S
C983 C1000 1.574 . S
C983 C1002 1.368 . S
C983 H1007 0.949 . S
H984 C988 0.949 . S
C985 C986 1.349 . S
C985 C987 1.327 . S
C985 H1008 0.950 . S
C986 C985 1.349 . S
C986 C998 1.349 . S
C987 C985 1.327 . S
C987 C1003 1.429 . S
C987 H1009 0.950 . S
C988 H984 0.949 . S
C988 C996 1.574 . S
C988 C1004 1.368 . S
H989 C997 0.950 . S
H990 C995 0.950 . S
H991 C996 0.949 . S
H992 C998 0.950 . S
H993 C999 0.950 . S
H994 C1000 0.949 . S
C995 H990 0.950 . S
C995 C997 1.327 . S
C995 C1001 1.429 . S
C996 C988 1.574 . S
C996 H991 0.949 . S
C996 C1002 1.368 . S
C997 C981 1.349 . S
C997 H989 0.950 . S
C997 C995 1.327 . S
C998 C986 1.349 . S
C998 H992 0.950 . S
C998 C999 1.327 . S
C999 H993 0.950 . S
C999 C998 1.327 . S
C999 C1003 1.429 . S
C1000 C983 1.574 . S
C1000 H994 0.949 . S
C1000 C1004 1.368 . S
C1001 C982 1.429 . S
C1001 C995 1.429 . S
C1001 C1002 1.523 . S
C1002 C983 1.368 . S
C1002 C996 1.368 . S
C1002 C1001 1.523 . S
C1003 C987 1.429 . S
C1003 C999 1.429 . S
C1003 C1004 1.523 . S
C1004 C988 1.368 . S
C1004 C1000 1.368 . S
C1004 C1003 1.523 . S
H1005 C980 0.950 . S
H1006 C982 0.950 . S
H1007 C983 0.949 . S
H1008 C985 0.950 . S
H1009 C987 0.950 . S
C1010 C1011 1.349 . S
C1010 C1012 1.327 . S
C1010 H1035 0.950 . S
C1011 C1010 1.349 . S
C1011 C1027 1.349 . S
C1012 C1010 1.327 . S
C1012 C1031 1.429 . S
C1012 H1036 0.950 . S
C1013 C1030 1.574 1_556 S
C1013 C1032 1.368 1_455 S
C1013 H1037 0.949 . S
H1014 C1018 0.949 . S
C1015 C1016 1.349 . S
C1015 C1017 1.327 . S
C1015 H1038 0.950 . S
C1016 C1015 1.349 . S
C1016 C1028 1.349 . S
C1017 C1015 1.327 . S
C1017 C1033 1.429 . S
C1017 H1039 0.950 . S
C1018 H1014 0.949 . S
C1018 C1026 1.574 1_554 S
C1018 C1034 1.368 1_655 S
H1019 C1027 0.950 1_455 S
H1020 C1025 0.950 . S
H1021 C1026 0.949 . S
H1022 C1028 0.950 1_655 S
H1023 C1029 0.950 . S
H1024 C1030 0.949 . S
C1025 H1020 0.950 . S
C1025 C1027 1.327 1_455 S
C1025 C1031 1.429 1_455 S
C1026 C1018 1.574 1_556 S
C1026 H1021 0.949 . S
C1026 C1032 1.368 . S
C1027 C1011 1.349 . S
C1027 H1019 0.950 1_655 S
C1027 C1025 1.327 1_655 S
C1028 C1016 1.349 . S
C1028 H1022 0.950 1_455 S
C1028 C1029 1.327 1_455 S
C1029 H1023 0.950 . S
C1029 C1028 1.327 1_655 S
C1029 C1033 1.429 1_655 S
C1030 C1013 1.574 1_554 S
C1030 H1024 0.949 . S
C1030 C1034 1.368 . S
C1031 C1012 1.429 . S
C1031 C1025 1.429 1_655 S
C1031 C1032 1.523 . S
C1032 C1013 1.368 1_655 S
C1032 C1026 1.368 . S
C1032 C1031 1.523 . S
C1033 C1017 1.429 . S
C1033 C1029 1.429 1_455 S
C1033 C1034 1.523 . S
C1034 C1018 1.368 1_455 S
C1034 C1030 1.368 . S
C1034 C1033 1.523 . S
H1035 C1010 0.950 . S
H1036 C1012 0.950 . S
H1037 C1013 0.949 . S
H1038 C1015 0.950 . S
H1039 C1017 0.950 . S
C321 C10 2.147 . S
C326 C130 2.141 . S
C351 C9 1.505 . S
C356 C50 1.521 . S
C381 C49 0.785 . S
C386 C89 0.788 . S
C411 C90 1.521 . S
C416 C129 1.500 . S
C441 C19 2.147 . S
C446 C219 2.154 . S
C471 C18 1.505 . S
C476 C179 1.520 . S
C501 C178 0.785 . S
C506 C98 0.782 . S
C531 C218 1.505 . S
C536 C99 1.525 . S
C561 C250 2.147 . S
C566 C210 2.149 . S
C591 C170 1.521 . S
C596 C249 1.503 . S
C621 C289 0.785 . S
C626 C169 0.787 . S
C651 C209 1.505 . S
C656 C290 1.524 . S
C681 C139 2.147 . S
C686 C259 2.146 . S
C711 C258 1.505 . S
C716 C59 1.522 . S
C741 C58 0.785 . S
C746 C298 0.782 . S
C771 C138 1.505 . S
C776 C299 1.517 . S
C801 C15 1.529 . S
C806 C6 1.529 . S
C831 C46 1.448 . S
C836 C55 1.448 . S
C861 C95 1.448 . S
C866 C86 1.448 . S
C891 C135 1.529 . S
C896 C126 1.529 . S
C921 C166 1.448 . S
C926 C175 1.448 . S
C951 C215 1.529 . S
C956 C206 1.529 . S
C981 C246 1.529 . S
C986 C255 1.529 . S
C1011 C286 1.448 . S
C1016 C295 1.448 . S
