# Generated by pormake.
# Topology umj, (4)-cn, num edge types: 1
# Building blocks:
#     Node 0, Type 0, BuildingBlock: ICAMEG_clean_sbu_1, # of connection points: 4
#     Node 1, Type 0, BuildingBlock: ICAMEG_clean_sbu_1, # of connection points: 4
#     Node 2, Type 0, BuildingBlock: ICAMEG_clean_sbu_1, # of connection points: 4
#     Node 3, Type 0, BuildingBlock: ICAMEG_clean_sbu_1, # of connection points: 4
#     Node 4, Type 0, BuildingBlock: ICAMEG_clean_sbu_1, # of connection points: 4
#     Node 5, Type 0, BuildingBlock: ICAMEG_clean_sbu_1, # of connection points: 4
#     Node 6, Type 0, BuildingBlock: ICAMEG_clean_sbu_1, # of connection points: 4
#     Node 7, Type 0, BuildingBlock: ICAMEG_clean_sbu_1, # of connection points: 4
#     Node 8, Type 0, BuildingBlock: ICAMEG_clean_sbu_1, # of connection points: 4
#     Node 9, Type 0, BuildingBlock: ICAMEG_clean_sbu_1, # of connection points: 4
#     Node 10, Type 0, BuildingBlock: ICAMEG_clean_sbu_1, # of connection points: 4
#     Node 11, Type 0, BuildingBlock: ICAMEG_clean_sbu_1, # of connection points: 4
#     Edge 12, Type (0, 0), BuildingBlock: EZIPEK_clean_linker_0, # of connection points: 2
#     Edge 13, Type (0, 0), BuildingBlock: EZIPEK_clean_linker_0, # of connection points: 2
#     Edge 14, Type (0, 0), BuildingBlock: EZIPEK_clean_linker_0, # of connection points: 2
#     Edge 15, Type (0, 0), BuildingBlock: EZIPEK_clean_linker_0, # of connection points: 2
#     Edge 16, Type (0, 0), BuildingBlock: EZIPEK_clean_linker_0, # of connection points: 2
#     Edge 17, Type (0, 0), BuildingBlock: EZIPEK_clean_linker_0, # of connection points: 2
#     Edge 18, Type (0, 0), BuildingBlock: EZIPEK_clean_linker_0, # of connection points: 2
#     Edge 19, Type (0, 0), BuildingBlock: EZIPEK_clean_linker_0, # of connection points: 2
#     Edge 20, Type (0, 0), BuildingBlock: EZIPEK_clean_linker_0, # of connection points: 2
#     Edge 21, Type (0, 0), BuildingBlock: EZIPEK_clean_linker_0, # of connection points: 2
#     Edge 22, Type (0, 0), BuildingBlock: EZIPEK_clean_linker_0, # of connection points: 2
#     Edge 23, Type (0, 0), BuildingBlock: EZIPEK_clean_linker_0, # of connection points: 2
#     Edge 24, Type (0, 0), BuildingBlock: EZIPEK_clean_linker_0, # of connection points: 2
#     Edge 25, Type (0, 0), BuildingBlock: EZIPEK_clean_linker_0, # of connection points: 2
#     Edge 26, Type (0, 0), BuildingBlock: EZIPEK_clean_linker_0, # of connection points: 2
#     Edge 27, Type (0, 0), BuildingBlock: EZIPEK_clean_linker_0, # of connection points: 2
#     Edge 28, Type (0, 0), BuildingBlock: EZIPEK_clean_linker_0, # of connection points: 2
#     Edge 29, Type (0, 0), BuildingBlock: EZIPEK_clean_linker_0, # of connection points: 2
#     Edge 30, Type (0, 0), BuildingBlock: EZIPEK_clean_linker_0, # of connection points: 2
#     Edge 31, Type (0, 0), BuildingBlock: EZIPEK_clean_linker_0, # of connection points: 2
#     Edge 32, Type (0, 0), BuildingBlock: EZIPEK_clean_linker_0, # of connection points: 2
#     Edge 33, Type (0, 0), BuildingBlock: EZIPEK_clean_linker_0, # of connection points: 2
#     Edge 34, Type (0, 0), BuildingBlock: EZIPEK_clean_linker_0, # of connection points: 2
#     Edge 35, Type (0, 0), BuildingBlock: EZIPEK_clean_linker_0, # of connection points: 2
# Relax obj value: 0.070
# Max RMSD: 0.257
# Mean RMSD: 0.227
data_MOF--net-umj--node1-ICAMEG_clean_sbu_1--edge1-EZIPEK_clean_linker_0
_symmetry_space_group_name_H-M    P1
_symmetry_Int_Tables_number       1
_symmetry_cell_setting            triclinic
loop_
_symmetry_equiv_pos_as_xyz
'x, y, z'
_cell_length_a     22.873251
_cell_length_b     22.833198
_cell_length_c     66.243939
_cell_angle_alpha  89.98829
_cell_angle_beta   89.979171
_cell_angle_gamma 120.10601
loop_
_atom_site_label
_atom_site_type_symbol
_atom_site_fract_x
_atom_site_fract_y
_atom_site_fract_z
_atom_type_partial_charge
Co0 Co 0.12958 0.29154 0.09165 0.0
Co1 Co 0.99666 0.27224 0.0621 0.0
O2 O 0.05619 0.30863 0.08543 0.0
C3 C 0.041 0.24751 0.12722 0.0
O4 O 0.99107 0.21786 0.11435 0.0
C5 C 0.05252 0.41971 0.05996 0.0
O6 O 0.1113 0.42463 0.06339 0.0
O7 O 0.07549 0.30504 0.04386 0.0
O8 O 0.15617 0.30016 0.06218 0.0
H9 H 0.92496 0.16342 0.99371 0.0
H10 H 0.12388 0.39826 0.11586 0.0
O11 O 0.10203 0.28061 0.121 0.0
H12 H 0.34133 0.51499 0.07968 0.0
H13 H 0.32179 0.31516 0.13448 0.0
H14 H 0.18346 0.20787 0.07409 0.0
H15 H 0.26454 0.39242 0.0753 0.0
H16 H 0.23048 0.33722 0.12482 0.0
O17 O 0.99924 0.36153 0.05912 0.0
H18 H 0.99725 0.20402 0.02392 0.0
H19 H 0.87325 0.27477 0.04903 0.0
H20 H 0.27425 0.18457 0.08306 0.0
H21 H 0.20039 0.52039 0.12135 0.0
H22 H 0.34432 0.23848 0.11349 0.0
H23 H 0.30963 0.5798 0.10295 0.0
O24 O 0.06954 0.19268 0.08778 0.0
H25 H 0.8634 0.29375 0.11902 0.0
H26 H 0.86961 0.14004 0.06786 0.0
H27 H 0.77352 0.09717 0.09153 0.0
H28 H 0.76998 0.1743 0.11732 0.0
H29 H 0.95886 0.33427 0.09522 0.0
H30 H 0.79968 0.2353 0.01901 0.0
H31 H 0.82509 0.17874 0.99113 0.0
O32 O 0.99335 0.18167 0.06445 0.0
C33 C 0.13213 0.30749 0.04548 0.0
C34 C 0.91269 0.18701 0.00589 0.0
C35 C 0.84245 0.22742 0.02008 0.0
N36 N 0.93787 0.23901 0.03866 0.0
C37 C 0.95312 0.20954 0.02315 0.0
C38 C 0.88408 0.2493 0.03711 0.0
C39 C 0.8568 0.19579 0.00443 0.0
C40 C 0.17169 0.42344 0.10807 0.0
N41 N 0.18946 0.38813 0.09526 0.0
C42 C 0.21472 0.49273 0.11114 0.0
C43 C 0.27597 0.52606 0.1008 0.0
C44 C 0.29371 0.48976 0.08771 0.0
C45 C 0.24971 0.4204 0.08517 0.0
C46 C 0.29187 0.29164 0.12112 0.0
C47 C 0.21405 0.23212 0.08716 0.0
C48 C 0.24011 0.30398 0.11557 0.0
N49 N 0.2023 0.27476 0.09867 0.0
C50 C 0.26528 0.21847 0.09225 0.0
C51 C 0.30448 0.24862 0.10934 0.0
C52 C 0.02173 0.1569 0.07553 0.0
C53 C 0.8642 0.25973 0.10779 0.0
C54 C 0.86853 0.17382 0.07909 0.0
C55 C 0.81389 0.14934 0.09241 0.0
C56 C 0.81189 0.19266 0.10686 0.0
N57 N 0.91963 0.23967 0.0801 0.0
C58 C 0.91793 0.28251 0.09419 0.0
Co59 Co 0.8358 0.11394 0.42152 0.0
Co60 Co 0.73373 0.9637 0.39656 0.0
O61 O 0.75152 0.02913 0.41792 0.0
C62 C 0.80819 0.03868 0.45966 0.0
O63 O 0.79335 0.98617 0.44831 0.0
C64 C 0.62531 0.99768 0.39385 0.0
O65 O 0.67436 0.06069 0.39525 0.0
O66 O 0.76582 0.03615 0.37596 0.0
O67 O 0.84438 0.13133 0.39147 0.0
H68 H 0.7778 0.88005 0.33123 0.0
H69 H 0.71414 0.0899 0.44449 0.0
O70 O 0.8277 0.09652 0.45165 0.0
H71 H 0.78121 0.29609 0.40458 0.0
H72 H 0.99189 0.33136 0.45755 0.0
H73 H 0.96823 0.18195 0.4006 0.0
H74 H 0.84752 0.23812 0.4029 0.0
H75 H 0.88429 0.22529 0.45171 0.0
O76 O 0.6391 0.94983 0.39398 0.0
H77 H 0.80171 0.96274 0.35839 0.0
H78 H 0.61747 0.82659 0.38747 0.0
H79 H 0.07655 0.28769 0.40578 0.0
H80 H 0.64661 0.14641 0.44684 0.0
H81 H 0.08887 0.3632 0.43444 0.0
H82 H 0.67993 0.25026 0.42668 0.0
O83 O 0.88887 0.06709 0.419 0.0
H84 H 0.60779 0.83973 0.4591 0.0
H85 H 0.75969 0.85025 0.4046 0.0
H86 H 0.72384 0.76199 0.4308 0.0
H87 H 0.64689 0.75601 0.45822 0.0
H88 H 0.64652 0.92813 0.43286 0.0
H89 H 0.59064 0.74255 0.36043 0.0
H90 H 0.67164 0.76867 0.33219 0.0
O91 O 0.82901 0.97735 0.39874 0.0
C92 C 0.81177 0.09826 0.3758 0.0
C93 C 0.74263 0.86751 0.34363 0.0
C94 C 0.63758 0.79044 0.36 0.0
N95 N 0.71283 0.89829 0.37504 0.0
C96 C 0.75639 0.91391 0.35919 0.0
C97 C 0.65316 0.83813 0.3753 0.0
C98 C 0.68297 0.80516 0.34415 0.0
C99 C 0.72939 0.13539 0.43593 0.0
N100 N 0.78487 0.16073 0.42371 0.0
C101 C 0.69078 0.16706 0.43721 0.0
C102 C 0.70944 0.22524 0.42587 0.0
C103 C 0.76623 0.25096 0.41346 0.0
C104 C 0.80353 0.21784 0.41256 0.0
C105 C 0.98708 0.29896 0.44498 0.0
C106 C 0.97306 0.21484 0.413 0.0
C107 C 0.92634 0.23885 0.44162 0.0
N108 N 0.91988 0.19792 0.42572 0.0
C109 C 0.03458 0.27451 0.41591 0.0
C110 C 0.04148 0.31681 0.43201 0.0
C111 C 0.88308 0.01746 0.40856 0.0
C112 C 0.64044 0.84108 0.44706 0.0
C113 C 0.72601 0.84781 0.41645 0.0
C114 C 0.70588 0.79772 0.43124 0.0
C115 C 0.66267 0.79436 0.44661 0.0
N116 N 0.70324 0.89289 0.41683 0.0
C117 C 0.66154 0.89035 0.43198 0.0
Co118 Co 0.72326 0.82215 0.75139 0.0
Co119 Co 0.76072 0.70296 0.73258 0.0
O120 O 0.71333 0.73243 0.75071 0.0
C121 C 0.77309 0.80103 0.78998 0.0
O122 O 0.80628 0.78077 0.77866 0.0
C123 C 0.61448 0.61043 0.72629 0.0
O124 O 0.6091 0.66493 0.72605 0.0
O125 O 0.73864 0.74243 0.70907 0.0
O126 O 0.71309 0.82028 0.72084 0.0
H127 H 0.93276 0.72578 0.68056 0.0
H128 H 0.61902 0.71475 0.77772 0.0
O129 O 0.73576 0.82178 0.78187 0.0
H130 H 0.49574 0.79438 0.73558 0.0
H131 H 0.69224 0.00546 0.78272 0.0
H132 H 0.78862 0.94486 0.72534 0.0
H133 H 0.61885 0.84371 0.73187 0.0
H134 H 0.67903 0.89158 0.78043 0.0
O135 O 0.67219 0.6153 0.7287 0.0
H136 H 0.87885 0.7677 0.70382 0.0
H137 H 0.74371 0.56735 0.72376 0.0
H138 H 0.80256 0.05896 0.72689 0.0
H139 H 0.49626 0.66503 0.78251 0.0
H140 H 0.75422 0.08999 0.75578 0.0
H141 H 0.43352 0.70433 0.76111 0.0
O142 O 0.82215 0.86738 0.74805 0.0
H143 H 0.70916 0.57002 0.79707 0.0
H144 H 0.88618 0.7085 0.74749 0.0
H145 H 0.91557 0.66388 0.77733 0.0
H146 H 0.82673 0.59429 0.80241 0.0
H147 H 0.68214 0.61584 0.76705 0.0
H148 H 0.79662 0.52328 0.70068 0.0
H149 H 0.89175 0.60256 0.67875 0.0
O150 O 0.84918 0.79173 0.73612 0.0
C151 C 0.72161 0.7874 0.70639 0.0
C152 C 0.89057 0.69055 0.68978 0.0
C153 C 0.81423 0.57699 0.70106 0.0
N154 N 0.80553 0.67012 0.71456 0.0
C155 C 0.85903 0.71406 0.70289 0.0
C156 C 0.7839 0.60235 0.71398 0.0
C157 C 0.86767 0.62147 0.6888 0.0
C158 C 0.59229 0.73232 0.76858 0.0
N159 N 0.62607 0.78133 0.75445 0.0
C160 C 0.52267 0.70396 0.77126 0.0
C161 C 0.4875 0.72602 0.75926 0.0
C162 C 0.52234 0.77643 0.74492 0.0
C163 C 0.59203 0.8039 0.74281 0.0
C164 C 0.71362 0.99259 0.77007 0.0
C165 C 0.76735 0.95781 0.73791 0.0
C166 C 0.70656 0.92829 0.76874 0.0
N167 N 0.73313 0.91158 0.75277 0.0
C168 C 0.77545 0.0226 0.73873 0.0
C169 C 0.74835 0.03998 0.75495 0.0
C170 C 0.86482 0.85155 0.7418 0.0
C171 C 0.74827 0.60008 0.78621 0.0
C172 C 0.84719 0.67794 0.75828 0.0
C173 C 0.86413 0.65287 0.77516 0.0
C174 C 0.81426 0.61381 0.78922 0.0
N175 N 0.78244 0.66457 0.7555 0.0
C176 C 0.73318 0.62591 0.76914 0.0
Co177 Co 0.92072 0.75756 0.08501 0.0
Co178 Co 0.06952 0.80708 0.05849 0.0
O179 O 0.0065 0.76012 0.08067 0.0
C180 C 0.99101 0.78222 0.12561 0.0
O181 O 0.03787 0.77434 0.11694 0.0
C182 C 0.03801 0.66497 0.05613 0.0
O183 O 0.97495 0.64948 0.05853 0.0
O184 O 0.99497 0.76464 0.03861 0.0
O185 O 0.90044 0.74426 0.05515 0.0
H186 H 0.14164 0.92589 0.99142 0.0
H187 H 0.94911 0.66077 0.10816 0.0
O188 O 0.93985 0.77423 0.11536 0.0
H189 H 0.73874 0.51813 0.0707 0.0
H190 H 0.70127 0.69196 0.12051 0.0
H191 H 0.85199 0.82117 0.06417 0.0
H192 H 0.7959 0.64228 0.0681 0.0
H193 H 0.8074 0.69133 0.11469 0.0
O194 O 0.08458 0.72716 0.05565 0.0
H195 H 0.06421 0.87144 0.01999 0.0
H196 H 0.20675 0.83107 0.04823 0.0
H197 H 0.74594 0.82261 0.0692 0.0
H198 H 0.89322 0.53738 0.11143 0.0
H199 H 0.66977 0.75779 0.09759 0.0
H200 H 0.78719 0.46473 0.09255 0.0
O201 O 0.96569 0.85662 0.08139 0.0
H202 H 0.20909 0.81032 0.11765 0.0
H203 H 0.17922 0.94906 0.06617 0.0
H204 H 0.27102 0.00435 0.09109 0.0
H205 H 0.28676 0.9348 0.11701 0.0
H206 H 0.11647 0.75764 0.09284 0.0
H207 H 0.28608 0.88522 0.01993 0.0
H208 H 0.25389 0.93358 0.99131 0.0
O209 O 0.0552 0.88784 0.06095 0.0
C210 C 0.93241 0.74604 0.0391 0.0
C211 C 0.15688 0.90628 0.00399 0.0
C212 C 0.23781 0.88326 0.01996 0.0
N213 N 0.13207 0.85105 0.03628 0.0
C214 C 0.11343 0.87605 0.02035 0.0
C215 C 0.19282 0.85303 0.03601 0.0
C216 C 0.2197 0.9103 0.00389 0.0
C217 C 0.90255 0.63037 0.10023 0.0
N218 N 0.8755 0.65958 0.08829 0.0
C219 C 0.87125 0.56004 0.102 0.0
C220 C 0.81188 0.5193 0.09136 0.0
C221 C 0.78471 0.54922 0.0791 0.0
C222 C 0.81744 0.61969 0.0777 0.0
C223 C 0.73413 0.7206 0.10813 0.0
C224 C 0.81908 0.79268 0.07652 0.0
C225 C 0.79455 0.72077 0.10487 0.0
N226 N 0.83612 0.75643 0.08921 0.0
C227 C 0.7591 0.79377 0.07931 0.0
C228 C 0.71643 0.75745 0.09525 0.0
C229 C 0.01491 0.90081 0.07095 0.0
C230 C 0.20316 0.84116 0.10633 0.0
C231 C 0.18522 0.91844 0.07751 0.0
C232 C 0.23761 0.95004 0.09151 0.0
C233 C 0.24654 0.911 0.10601 0.0
N234 N 0.14282 0.84983 0.07792 0.0
C235 C 0.15132 0.8114 0.09209 0.0
Co236 Co 0.1614 0.9116 0.42565 0.0
Co237 Co 0.27637 0.04409 0.39614 0.0
O238 O 0.25224 0.98501 0.4197 0.0
C239 C 0.20425 1.00009 0.46157 0.0
O240 O 0.22427 0.05046 0.44885 0.0
C241 C 0.36761 0.98797 0.39503 0.0
O242 O 0.31326 0.92914 0.39826 0.0
O243 O 0.23142 0.96473 0.37803 0.0
O244 O 0.14457 0.88455 0.39616 0.0
H245 H 0.24086 0.11604 0.32767 0.0
H246 H 0.27293 0.91678 0.45009 0.0
O247 O 0.17728 0.93919 0.45512 0.0
H248 H 0.17079 0.69853 0.41424 0.0
H249 H 0.98802 0.71964 0.46787 0.0
H250 H 0.02602 0.85841 0.40699 0.0
H251 H 0.12573 0.77561 0.40974 0.0
H252 H 0.10277 0.81067 0.45889 0.0
O253 O 0.36321 0.04147 0.39383 0.0
H254 H 0.20826 0.04389 0.35799 0.0
H255 H 0.40363 0.1665 0.38298 0.0
H256 H 0.91054 0.76785 0.41531 0.0
H257 H 0.3182 0.84024 0.45563 0.0
H258 H 0.89096 0.69764 0.44597 0.0
H259 H 0.26758 0.73053 0.43741 0.0
O260 O 0.12376 0.97217 0.42146 0.0
H261 H 0.42796 0.17889 0.45349 0.0
H262 H 0.27134 0.17137 0.40104 0.0
H263 H 0.32335 0.26809 0.42455 0.0
H264 H 0.40236 0.27229 0.45099 0.0
H265 H 0.37425 0.0828 0.42982 0.0
H266 H 0.43882 0.23985 0.35282 0.0
H267 H 0.35699 0.21506 0.32496 0.0
O268 O 0.18885 0.04735 0.39778 0.0
C269 C 0.17751 0.9076 0.37963 0.0
C270 C 0.27672 0.12801 0.33983 0.0
C271 C 0.38783 0.19739 0.35394 0.0
N272 N 0.30304 0.10247 0.37259 0.0
C273 C 0.25826 0.08767 0.35714 0.0
C274 C 0.36752 0.15586 0.37101 0.0
C275 C 0.34192 0.18341 0.33829 0.0
C276 C 0.25009 0.86887 0.44236 0.0
N277 N 0.19701 0.85106 0.42958 0.0
C278 C 0.27612 0.82579 0.44546 0.0
C279 C 0.24773 0.76427 0.43522 0.0
C280 C 0.19352 0.74635 0.4222 0.0
C281 C 0.16853 0.7905 0.41961 0.0
C282 C 0.99594 0.74969 0.45443 0.0
C283 C 0.01803 0.82773 0.42022 0.0
C284 C 0.06078 0.80129 0.44927 0.0
N285 N 0.07119 0.83921 0.43227 0.0
C286 C 0.95246 0.77667 0.42492 0.0
C287 C 0.9415 0.73737 0.44213 0.0
C288 C 0.13579 0.01935 0.40895 0.0
C289 C 0.39385 0.17779 0.44198 0.0
C290 C 0.30549 0.17275 0.41255 0.0
C291 C 0.33495 0.22773 0.42578 0.0
C292 C 0.37933 0.23009 0.4406 0.0
N293 N 0.31997 0.12165 0.41401 0.0
C294 C 0.36358 0.1237 0.42846 0.0
Co295 Co 0.27186 0.15301 0.76008 0.0
Co296 Co 0.22441 0.24352 0.72892 0.0
O297 O 0.26854 0.23345 0.75257 0.0
C298 C 0.21338 0.18562 0.7952 0.0
O299 O 0.17396 0.19246 0.78222 0.0
C300 C 0.36685 0.35244 0.72583 0.0
O301 O 0.38118 0.30457 0.72943 0.0
O302 O 0.26721 0.20481 0.7113 0.0
O303 O 0.28578 0.13526 0.73109 0.0
H304 H 0.11803 0.18728 0.65961 0.0
H305 H 0.36045 0.2828 0.78122 0.0
O306 O 0.25626 0.16917 0.78915 0.0
H307 H 0.51502 0.21866 0.74935 0.0
H308 H 0.33946 0.02223 0.80622 0.0
H309 H 0.21513 0.01206 0.74443 0.0
H310 H 0.39151 0.14513 0.74617 0.0
H311 H 0.33519 0.12255 0.79456 0.0
O312 O 0.30509 0.33764 0.7248 0.0
H313 H 0.16999 0.16983 0.68968 0.0
H314 H 0.20009 0.35345 0.71505 0.0
H315 H 0.21839 0.9108 0.75538 0.0
H316 H 0.4835 0.35758 0.78493 0.0
H317 H 0.28097 0.91539 0.78653 0.0
H318 H 0.56175 0.32576 0.76885 0.0
O319 O 0.17275 0.0948 0.75575 0.0
H320 H 0.21729 0.38965 0.78458 0.0
H321 H 0.08342 0.21671 0.73349 0.0
H322 H 0.02707 0.25982 0.75579 0.0
H323 H 0.09431 0.34748 0.78143 0.0
H324 H 0.2708 0.34293 0.76243 0.0
H325 H 0.14945 0.37375 0.685 0.0
H326 H 0.10706 0.28986 0.65708 0.0
O327 O 0.14337 0.14909 0.73301 0.0
C328 C 0.28319 0.1592 0.71382 0.0
C329 C 0.13441 0.22323 0.67193 0.0
C330 C 0.15227 0.32794 0.68613 0.0
N331 N 0.18319 0.25753 0.705 0.0
C332 C 0.16268 0.21277 0.68928 0.0
C333 C 0.18033 0.31576 0.70323 0.0
C334 C 0.12864 0.28096 0.67046 0.0
C335 C 0.39409 0.26818 0.77442 0.0
N336 N 0.36878 0.20946 0.76362 0.0
C337 C 0.46376 0.3109 0.77647 0.0
C338 C 0.50763 0.29308 0.76741 0.0
C339 C 0.48145 0.23302 0.75646 0.0
C340 C 0.41148 0.19164 0.75469 0.0
C341 C 0.31224 0.01963 0.79258 0.0
C342 C 0.24294 0.01485 0.75782 0.0
C343 C 0.3096 0.07628 0.78589 0.0
N344 N 0.27563 0.07358 0.76862 0.0
C345 C 0.24441 0.95715 0.76404 0.0
C346 C 0.27943 0.95972 0.78153 0.0
C347 C 0.12936 0.09725 0.7441 0.0
C348 C 0.18759 0.35205 0.77331 0.0
C349 C 0.11298 0.25471 0.74465 0.0
C350 C 0.08081 0.27901 0.75721 0.0
C351 C 0.11856 0.32821 0.77158 0.0
N352 N 0.18097 0.27914 0.74623 0.0
C353 C 0.21793 0.32633 0.76054 0.0
Co354 Co 0.72664 0.87657 0.57886 0.0
Co355 Co 0.74807 0.00468 0.61094 0.0
O356 O 0.71243 0.95082 0.58644 0.0
C357 C 0.77413 0.97048 0.5444 0.0
O358 O 0.80542 0.01829 0.55783 0.0
C359 C 0.60177 0.9546 0.61065 0.0
O360 O 0.59542 0.89623 0.60553 0.0
O361 O 0.70953 0.92172 0.62761 0.0
O362 O 0.71583 0.84462 0.60796 0.0
H363 H 0.86088 0.06375 0.67892 0.0
H364 H 0.62185 0.88898 0.55584 0.0
O365 O 0.73869 0.90867 0.5499 0.0
H366 H 0.50037 0.66642 0.58916 0.0
H367 H 0.69469 0.68449 0.53415 0.0
H368 H 0.8162 0.82526 0.59296 0.0
H369 H 0.62336 0.73944 0.59343 0.0
H370 H 0.67445 0.77569 0.54548 0.0
O371 O 0.66043 0.0058 0.61363 0.0
H372 H 0.82042 0.99841 0.64734 0.0
H373 H 0.74404 0.12389 0.62747 0.0
H374 H 0.83772 0.73445 0.58227 0.0
H375 H 0.4991 0.8169 0.55062 0.0
H376 H 0.77652 0.66306 0.55268 0.0
H377 H 0.43735 0.70493 0.56756 0.0
O378 O 0.82517 0.93429 0.58305 0.0
H379 H 0.74247 0.15594 0.5568 0.0
H380 H 0.88361 0.12919 0.60809 0.0
H381 H 0.93365 0.23115 0.58658 0.0
H382 H 0.86287 0.24505 0.56073 0.0
H383 H 0.69477 0.05445 0.57845 0.0
H384 H 0.78337 0.19058 0.6589 0.0
H385 H 0.84242 0.16069 0.68487 0.0
O386 O 0.83628 0.0034 0.60881 0.0
C387 C 0.70509 0.86433 0.62502 0.0
C388 C 0.83566 0.07759 0.66766 0.0
C389 C 0.79204 0.14868 0.65644 0.0
N390 N 0.78098 0.05802 0.63543 0.0
C391 C 0.81295 0.04096 0.6497 0.0
C392 C 0.76992 0.11078 0.63867 0.0
C393 C 0.82517 0.13189 0.671 0.0
C394 C 0.59558 0.84017 0.563 0.0
N395 N 0.62986 0.81891 0.57497 0.0
C396 C 0.52595 0.7996 0.5601 0.0
C397 C 0.49133 0.73683 0.56963 0.0
C398 C 0.52663 0.71526 0.58177 0.0
C399 C 0.59627 0.75712 0.58425 0.0
C400 C 0.72094 0.71458 0.54724 0.0
C401 C 0.78821 0.79349 0.58038 0.0
C402 C 0.70939 0.76605 0.5538 0.0
N403 N 0.74186 0.80386 0.57044 0.0
C404 C 0.80112 0.74254 0.57426 0.0
C405 C 0.76693 0.70265 0.55763 0.0
C406 C 0.86003 0.97644 0.59676 0.0
C407 C 0.77376 0.15061 0.56806 0.0
C408 C 0.85256 0.13479 0.59683 0.0
C409 C 0.88112 0.19271 0.58473 0.0
C410 C 0.84135 0.20051 0.57025 0.0
N411 N 0.78626 0.08605 0.59458 0.0
C412 C 0.7469 0.09342 0.58045 0.0
Co413 Co 0.85368 0.73827 0.91239 0.0
Co414 Co 0.73614 0.76376 0.9378 0.0
O415 O 0.76261 0.72294 0.91645 0.0
C416 C 0.81715 0.78218 0.87502 0.0
O417 O 0.79566 0.81335 0.88689 0.0
C418 C 0.64752 0.61551 0.94235 0.0
O419 O 0.7025 0.61174 0.94011 0.0
O420 O 0.78312 0.73928 0.95834 0.0
O421 O 0.86502 0.72976 0.94228 0.0
H422 H 0.76757 0.89637 1.00144 0.0
H423 H 0.7443 0.63213 0.88715 0.0
O424 O 0.84319 0.74878 0.88247 0.0
H425 H 0.83454 0.5131 0.9271 0.0
H426 H 0.03137 0.71449 0.87455 0.0
H427 H 0.98537 0.81801 0.93327 0.0
H428 H 0.88255 0.63628 0.93064 0.0
H429 H 0.91606 0.69304 0.88117 0.0
O430 O 0.65087 0.67312 0.94205 0.0
H431 H 0.80323 0.84964 0.97362 0.0
H432 H 0.6059 0.7557 0.94865 0.0
H433 H 0.10132 0.84063 0.92727 0.0
H434 H 0.69607 0.50922 0.88268 0.0
H435 H 0.12491 0.78867 0.89772 0.0
H436 H 0.74071 0.4487 0.90292 0.0
O437 O 0.89399 0.83713 0.91588 0.0
H438 H 0.57944 0.71954 0.87929 0.0
H439 H 0.73685 0.89112 0.92736 0.0
H440 H 0.68102 0.92372 0.90147 0.0
H441 H 0.60156 0.83756 0.87722 0.0
H442 H 0.63729 0.68946 0.90519 0.0
H443 H 0.5678 0.80126 0.97622 0.0
H444 H 0.64901 0.87245 0.00282 0.0
O445 O 0.82194 0.85539 0.93393 0.0
C446 C 0.83358 0.73005 0.95824 0.0
C447 C 0.73182 0.86595 0.98984 0.0
C448 C 0.61974 0.81257 0.97569 0.0
N449 N 0.70731 0.8016 0.95922 0.0
C450 C 0.75186 0.83958 0.97401 0.0
C451 C 0.64167 0.7871 0.96008 0.0
C452 C 0.6653 0.85244 0.99062 0.0
C453 C 0.76457 0.60641 0.89581 0.0
N454 N 0.81596 0.64142 0.90918 0.0
C455 C 0.73687 0.53669 0.89329 0.0
C456 C 0.76189 0.50275 0.90466 0.0
C457 C 0.81444 0.53883 0.91825 0.0
C458 C 0.84116 0.60856 0.92027 0.0
C459 C 0.02169 0.73723 0.88751 0.0
C460 C 0.99514 0.79475 0.92048 0.0
C461 C 0.95653 0.72528 0.89132 0.0
N462 N 0.94394 0.75364 0.9077 0.0
C463 C 0.06094 0.80795 0.91712 0.0
C464 C 0.07415 0.77886 0.90052 0.0
C465 C 0.87877 0.87703 0.92485 0.0
C466 C 0.61391 0.75753 0.88978 0.0
C467 C 0.70279 0.85347 0.91676 0.0
C468 C 0.67107 0.87216 0.90219 0.0
C469 C 0.62642 0.82377 0.88861 0.0
N470 N 0.69042 0.78843 0.91777 0.0
C471 C 0.64657 0.74069 0.90454 0.0
Co472 Co 0.09872 0.84588 0.25304 0.0
Co473 Co 0.94757 0.7435 0.27823 0.0
O474 O 0.01326 0.76147 0.25675 0.0
C475 C 0.03146 0.801 0.21201 0.0
O476 O 0.98524 0.74484 0.22033 0.0
C477 C 0.98221 0.63529 0.28138 0.0
O478 O 0.045 0.68413 0.27922 0.0
O479 O 0.02001 0.77725 0.29883 0.0
O480 O 0.11669 0.85122 0.28305 0.0
H481 H 0.86327 0.78936 0.34316 0.0
H482 H 0.07368 0.72189 0.22962 0.0
O483 O 0.08152 0.8447 0.22258 0.0
H484 H 0.28232 0.7924 0.2682 0.0
H485 H 0.31986 0.00526 0.21908 0.0
H486 H 0.16455 0.97685 0.27473 0.0
H487 H 0.22322 0.85727 0.27059 0.0
H488 H 0.21412 0.89679 0.22401 0.0
O489 O 0.93469 0.64938 0.28146 0.0
H490 H 0.94607 0.81262 0.31612 0.0
H491 H 0.81089 0.62692 0.28755 0.0
H492 H 0.27018 0.08597 0.2706 0.0
H493 H 0.1315 0.65653 0.22657 0.0
H494 H 0.34862 0.10078 0.24256 0.0
H495 H 0.2367 0.69131 0.246 0.0
O496 O 0.0526 0.89881 0.25641 0.0
H497 H 0.81538 0.60365 0.2185 0.0
H498 H 0.83686 0.77233 0.26883 0.0
H499 H 0.74716 0.73291 0.24312 0.0
H500 H 0.73561 0.64754 0.21778 0.0
H501 H 0.90582 0.6464 0.24408 0.0
H502 H 0.72676 0.60069 0.31447 0.0
H503 H 0.75233 0.68272 0.3424 0.0
O504 O 0.95995 0.83791 0.27548 0.0
C505 C 0.08291 0.82059 0.29885 0.0
C506 C 0.85096 0.75375 0.33089 0.0
C507 C 0.77445 0.64785 0.31481 0.0
N508 N 0.88217 0.723 0.29971 0.0
C509 C 0.89743 0.76717 0.31538 0.0
C510 C 0.8222 0.66311 0.29956 0.0
C511 C 0.78886 0.69382 0.33049 0.0
C512 C 0.11983 0.73871 0.2378 0.0
N513 N 0.14532 0.79458 0.24993 0.0
C514 C 0.15226 0.70086 0.23615 0.0
C515 C 0.21115 0.72026 0.2471 0.0
C516 C 0.23674 0.77693 0.25955 0.0
C517 C 0.20292 0.81349 0.26083 0.0
C518 C 0.28599 0.99954 0.23131 0.0
C519 C 0.19849 0.98283 0.26253 0.0
C520 C 0.2258 0.93835 0.23406 0.0
N521 N 0.18297 0.93056 0.24952 0.0
C522 C 0.2582 0.04478 0.26025 0.0
C523 C 0.30215 0.05307 0.24451 0.0
C524 C 1.00141 0.89221 0.26602 0.0
C525 C 0.8195 0.64045 0.22955 0.0
C526 C 0.83275 0.73576 0.25773 0.0
C527 C 0.78151 0.71329 0.24328 0.0
C528 C 0.77493 0.66526 0.22911 0.0
N529 N 0.87629 0.71112 0.25808 0.0
C530 C 0.87012 0.66417 0.24422 0.0
Co531 Co 0.2715 0.09995 0.58891 0.0
Co532 Co 0.21389 0.93473 0.60422 0.0
O533 O 0.27009 0.01429 0.58784 0.0
C534 C 0.23355 0.04678 0.54756 0.0
O535 O 0.19312 0.98932 0.55647 0.0
C536 C 0.35607 0.96901 0.61038 0.0
O537 O 0.36937 0.0316 0.61241 0.0
O538 O 0.24312 0.99102 0.62919 0.0
O539 O 0.27262 0.09761 0.61968 0.0
H540 H 0.01966 0.77803 0.64996 0.0
H541 H 0.37492 0.08398 0.56628 0.0
O542 O 0.26977 0.09996 0.55813 0.0
H543 H 0.50376 0.27789 0.61159 0.0
H544 H 0.33781 0.33392 0.56439 0.0
H545 H 0.2055 0.1564 0.61457 0.0
H546 H 0.3792 0.2174 0.61144 0.0
H547 H 0.33806 0.22595 0.56414 0.0
O548 O 0.29529 0.92191 0.60708 0.0
H549 H 0.08609 0.87961 0.62976 0.0
H550 H 0.21659 0.80686 0.61154 0.0
H551 H 0.20452 0.26391 0.61556 0.0
H552 H 0.49933 0.14264 0.56583 0.0
H553 H 0.27097 0.35354 0.59031 0.0
H554 H 0.56474 0.24046 0.58869 0.0
O555 O 0.17145 0.05431 0.58922 0.0
H556 H 0.25093 0.8596 0.53645 0.0
H557 H 0.08148 0.82778 0.58784 0.0
H558 H 0.04486 0.75953 0.55672 0.0
H559 H 0.12991 0.77504 0.53077 0.0
H560 H 0.28497 0.92757 0.56766 0.0
H561 H 0.15119 0.70457 0.6318 0.0
H562 H 0.05194 0.68933 0.65137 0.0
O563 O 0.13333 0.94968 0.60165 0.0
C564 C 0.26174 0.05277 0.63328 0.0
C565 C 0.0638 0.78476 0.6419 0.0
C566 C 0.13759 0.74365 0.63174 0.0
N567 N 0.15917 0.853 0.62038 0.0
C568 C 0.10268 0.84318 0.63049 0.0
C569 C 0.17538 0.8028 0.62051 0.0
C570 C 0.08178 0.73496 0.64264 0.0
C571 C 0.4029 0.12669 0.57604 0.0
N572 N 0.36968 0.14728 0.58871 0.0
C573 C 0.47342 0.15966 0.57582 0.0
C574 C 0.51007 0.21446 0.58867 0.0
C575 C 0.47591 0.2355 0.60151 0.0
C576 C 0.40533 0.20113 0.60131 0.0
C577 C 0.30878 0.29531 0.57549 0.0
C578 C 0.23509 0.19545 0.60367 0.0
C579 C 0.30855 0.23403 0.57538 0.0
N580 N 0.27238 0.18529 0.58945 0.0
C581 C 0.23408 0.25608 0.60424 0.0
C582 C 0.27129 0.30631 0.59005 0.0
C583 C 0.12394 0.99771 0.59551 0.0
C584 C 0.21348 0.85167 0.54776 0.0
C585 C 0.11892 0.83437 0.57675 0.0
C586 C 0.09783 0.79571 0.5591 0.0
C587 C 0.14557 0.80444 0.54455 0.0
N588 N 0.18574 0.88011 0.57988 0.0
C589 C 0.23267 0.88934 0.56559 0.0
Co590 Co 0.18129 0.28979 0.91917 0.0
Co591 Co 0.27757 0.2252 0.939 0.0
O592 O 0.26027 0.27946 0.92011 0.0
C593 C 0.18965 0.23356 0.87985 0.0
O594 O 0.20122 0.19261 0.89075 0.0
C595 C 0.38841 0.36698 0.94412 0.0
O596 O 0.34019 0.38203 0.94427 0.0
O597 O 0.24729 0.25881 0.96208 0.0
O598 O 0.18393 0.30106 0.94953 0.0
H599 H 0.22576 0.05484 0.99462 0.0
H600 H 0.30747 0.37618 0.896 0.0
O601 O 0.17852 0.27687 0.8887 0.0
H602 H 0.2636 0.53486 0.93448 0.0
H603 H 0.0334 0.36814 0.88678 0.0
H604 H 0.06085 0.25113 0.9453 0.0
H605 H 0.18624 0.41168 0.93712 0.0
H606 H 0.13356 0.35492 0.88967 0.0
O607 O 0.37313 0.305 0.94245 0.0
H608 H 0.19881 0.11783 0.96993 0.0
H609 H 0.39998 0.21543 0.94779 0.0
H610 H 0.96012 0.26325 0.94309 0.0
H611 H 0.38583 0.49889 0.89276 0.0
H612 H 0.94573 0.32213 0.91362 0.0
H613 H 0.36422 0.57925 0.91214 0.0
O614 O 0.11953 0.19052 0.92265 0.0
H615 H 0.39555 0.24539 0.87307 0.0
H616 H 0.2544 0.08951 0.92699 0.0
H617 H 0.28831 0.04506 0.89812 0.0
H618 H 0.35939 0.12324 0.87088 0.0
H619 H 0.36015 0.28751 0.90216 0.0
H620 H 0.42897 0.15229 0.97205 0.0
H621 H 0.34161 0.07139 0.99578 0.0
O622 O 0.181 0.14674 0.93565 0.0
C623 C 0.21077 0.28618 0.96423 0.0
C624 C 0.26443 0.09026 0.98447 0.0
C625 C 0.37845 0.14508 0.97184 0.0
N626 N 0.2981 0.17244 0.95784 0.0
C627 C 0.24954 0.1269 0.97056 0.0
C628 C 0.3618 0.18118 0.95823 0.0
C629 C 0.32942 0.0996 0.98512 0.0
C630 C 0.29664 0.41078 0.90403 0.0
N631 N 0.24099 0.38674 0.91618 0.0
C632 C 0.34166 0.48026 0.90233 0.0
C633 C 0.32962 0.52529 0.91325 0.0
C634 C 0.27315 0.50042 0.92577 0.0
C635 C 0.22931 0.43061 0.92712 0.0
C636 C 0.0388 0.34192 0.89962 0.0
C637 C 0.05483 0.27603 0.93236 0.0
C638 C 0.09522 0.33381 0.90127 0.0
N639 N 0.10256 0.30091 0.91747 0.0
C640 C 0.99771 0.28311 0.93122 0.0
C641 C 0.98969 0.31619 0.9147 0.0
C642 C 0.1249 0.14112 0.92953 0.0
C643 C 0.36512 0.21091 0.88493 0.0
C644 C 0.28614 0.12403 0.91535 0.0
C645 C 0.30489 0.09849 0.89898 0.0
C646 C 0.3447 0.14236 0.88369 0.0
N647 N 0.30663 0.19138 0.91652 0.0
C648 C 0.34542 0.2346 0.90154 0.0
Co649 Co 0.88636 0.16752 0.24839 0.0
Co650 Co 0.02526 0.28444 0.27546 0.0
O651 O 0.96103 0.25894 0.25322 0.0
C652 C 0.96885 0.20921 0.2116 0.0
O653 O 0.02057 0.23094 0.22381 0.0
C654 C 0.97001 0.37617 0.27853 0.0
O655 O 0.9106 0.32169 0.27629 0.0
O656 O 0.9501 0.24029 0.29504 0.0
O657 O 0.86485 0.1535 0.27822 0.0
H658 H 0.11144 0.25316 0.34207 0.0
H659 H 0.88815 0.27767 0.22394 0.0
O660 O 0.90871 0.18083 0.2186 0.0
H661 H 0.6767 0.17939 0.26313 0.0
H662 H 0.68728 0.99051 0.20933 0.0
H663 H 0.83546 0.03404 0.26819 0.0
H664 H 0.75393 0.13414 0.26647 0.0
H665 H 0.78007 0.1061 0.21673 0.0
O666 O 0.02339 0.37158 0.27843 0.0
H667 H 0.03276 0.21887 0.31333 0.0
H668 H 0.15077 0.41231 0.28643 0.0
H669 H 0.7432 0.91779 0.26144 0.0
H670 H 0.81118 0.3229 0.21952 0.0
H671 H 0.6683 0.89544 0.23181 0.0
H672 H 0.70496 0.27429 0.23943 0.0
O673 O 0.9466 0.12899 0.25142 0.0
H674 H 0.14757 0.43414 0.21633 0.0
H675 H 0.1507 0.27871 0.26747 0.0
H676 H 0.24191 0.32965 0.24214 0.0
H677 H 0.24073 0.40803 0.21634 0.0
H678 H 0.05697 0.38147 0.24179 0.0
H679 H 0.23064 0.44915 0.31498 0.0
H680 H 0.2115 0.36913 0.34301 0.0
O681 O 0.02807 0.19673 0.27314 0.0
C682 C 0.89198 0.18727 0.29435 0.0
C683 C 0.12096 0.2882 0.32982 0.0
C684 C 0.18777 0.39819 0.31462 0.0
N685 N 0.08864 0.31245 0.29779 0.0
C686 C 0.07688 0.26878 0.31339 0.0
C687 C 0.14255 0.37693 0.29844 0.0
C688 C 0.17695 0.35331 0.33035 0.0
C689 C 0.8417 0.25564 0.23241 0.0
N690 N 0.8259 0.20357 0.24547 0.0
C691 C 0.79838 0.28166 0.22994 0.0
C692 C 0.73882 0.2544 0.24112 0.0
C693 C 0.72301 0.20126 0.25444 0.0
C694 C 0.76724 0.17617 0.25637 0.0
C695 C 0.71943 0.99964 0.22232 0.0
C696 C 0.80275 0.02481 0.25538 0.0
C697 C 0.77204 0.06495 0.22657 0.0
N698 N 0.8126 0.07686 0.243 0.0
C699 C 0.75074 0.95883 0.25158 0.0
C700 C 0.7088 0.94632 0.23494 0.0
C701 C 0.99703 0.14232 0.26261 0.0
C702 C 0.14881 0.4003 0.22755 0.0
C703 C 0.14971 0.31257 0.25625 0.0
C704 C 0.20161 0.34144 0.24199 0.0
C705 C 0.20096 0.38549 0.22753 0.0
N706 N 0.09867 0.32728 0.25615 0.0
C707 C 0.09786 0.37065 0.24208 0.0
C708 C 0.99652 0.27873 0.17997 0.0
C709 C 0.98201 0.21742 0.18964 0.0
C710 C 0.01824 0.18262 0.15942 0.0
C711 C 0.0252 0.24002 0.14903 0.0
N712 N 0.00873 0.3364 0.1482 0.0
N713 N 0.96596 0.10501 0.18737 0.0
C714 C 0.01062 0.28627 0.15893 0.0
C715 C 0.9888 0.16741 0.17897 0.0
N716 N 0.99899 0.33055 0.19096 0.0
N717 N 0.04161 0.14386 0.15086 0.0
H718 H 0.94262 0.09192 0.2015 0.0
H719 H 0.96418 0.06453 0.17957 0.0
H720 H 0.06563 0.15524 0.13683 0.0
H721 H 0.04331 0.10482 0.15847 0.0
H722 H 0.01624 0.37882 0.18509 0.0
H723 H 0.9894 0.32703 0.20643 0.0
H724 H 0.99155 0.36716 0.15425 0.0
H725 H 0.01884 0.34344 0.13277 0.0
C726 C 0.73735 0.00504 0.49112 0.0
C727 C 0.80122 0.02885 0.48179 0.0
C728 C 0.84459 0.00702 0.51295 0.0
C729 C 0.78276 0.98931 0.52277 0.0
N730 N 0.67786 0.99031 0.5226 0.0
N731 N 0.91983 0.0669 0.48506 0.0
C732 C 0.73121 0.99383 0.51228 0.0
C733 C 0.85631 0.03454 0.49313 0.0
N734 N 0.68209 0.99126 0.47977 0.0
N735 N 0.89096 0.99518 0.52225 0.0
H736 H 0.92998 0.08902 0.47076 0.0
H737 H 0.96293 0.07754 0.49325 0.0
H738 H 0.88259 0.97258 0.53645 0.0
H739 H 0.93436 1.00149 0.51512 0.0
H740 H 0.63313 0.96721 0.48558 0.0
H741 H 0.68443 0.99829 0.4642 0.0
H742 H 0.6418 0.99912 0.51588 0.0
H743 H 0.67414 0.98644 0.53828 0.0
C744 C 0.84436 0.84463 0.82093 0.0
C745 C 0.78107 0.79875 0.81212 0.0
C746 C 0.74166 0.74075 0.84464 0.0
C747 C 0.80663 0.78325 0.85299 0.0
N748 N 0.92454 0.86298 0.84754 0.0
N749 N 0.6788 0.69003 0.81413 0.0
C750 C 0.85953 0.83159 0.84068 0.0
C751 C 0.73196 0.7432 0.82356 0.0
N752 N 0.88983 0.90076 0.81046 0.0
N753 N 0.68933 0.69738 0.85672 0.0
H754 H 0.67376 0.68702 0.79852 0.0
H755 H 0.64491 0.64542 0.82152 0.0
H756 H 0.69523 0.69138 0.87204 0.0
H757 H 0.63937 0.67086 0.85177 0.0
H758 H 0.93421 0.93922 0.81682 0.0
H759 H 0.88017 0.91178 0.79596 0.0
H760 H 0.96609 0.89486 0.83865 0.0
H761 H 0.93738 0.85079 0.86139 0.0
C762 C 0.94446 0.76779 0.16148 0.0
C763 C 0.9992 0.79878 0.14767 0.0
C764 C 0.07819 0.83664 0.17622 0.0
C765 C 0.02329 0.81055 0.19003 0.0
N766 N 0.90516 0.7753 0.19468 0.0
N767 N 0.11649 0.88481 0.14306 0.0
C768 C 0.95676 0.78448 0.18227 0.0
C769 C 0.06551 0.84087 0.15544 0.0
N770 N 0.88213 0.71817 0.15539 0.0
N771 N 0.14126 0.85202 0.18231 0.0
H772 H 0.10843 0.89207 0.12799 0.0
H773 H 0.16448 0.91949 0.14845 0.0
H774 H 0.15153 0.84231 0.1968 0.0
H775 H 0.18112 0.86599 0.17222 0.0
H776 H 0.84255 0.69098 0.16548 0.0
H777 H 0.87266 0.69789 0.14093 0.0
H778 H 0.85686 0.7605 0.18929 0.0
H779 H 0.91281 0.79027 0.20979 0.0
C780 C 0.18405 0.05237 0.51452 0.0
C781 C 0.23498 0.04715 0.52514 0.0
C782 C 0.27207 0.02117 0.49331 0.0
C783 C 0.21435 0.01526 0.48349 0.0
N784 N 0.10876 0.01433 0.48569 0.0
N785 N 0.31995 0.0139 0.52504 0.0
C786 C 0.1685 0.02812 0.49433 0.0
C787 C 0.27716 0.02822 0.51464 0.0
N788 N 0.15086 0.08082 0.52371 0.0
N789 N 0.32276 0.02162 0.48228 0.0
H790 H 0.32397 0.01694 0.54067 0.0
H791 H 0.34645 0.99297 0.51829 0.0
H792 H 0.32172 0.01901 0.46657 0.0
H793 H 0.36867 0.03183 0.48859 0.0
H794 H 0.11683 0.09086 0.5162 0.0
H795 H 0.16274 0.10055 0.53831 0.0
H796 H 0.07072 0.0172 0.49349 0.0
H797 H 0.09453 0.9932 0.47132 0.0
C798 C 0.16886 0.14482 0.83007 0.0
C799 C 0.2086 0.19937 0.81689 0.0
C800 C 0.2296 0.28023 0.84439 0.0
C801 C 0.18759 0.22532 0.85739 0.0
N802 N 0.10108 0.10824 0.86049 0.0
N803 N 0.27154 0.31929 0.8105 0.0
C804 C 0.15246 0.15842 0.84955 0.0
C805 C 0.23718 0.26718 0.82377 0.0
N806 N 0.14809 0.07992 0.82418 0.0
N807 N 0.26429 0.34459 0.85181 0.0
H808 H 0.28286 0.31182 0.79583 0.0
H809 H 0.28616 0.36947 0.81361 0.0
H810 H 0.25438 0.35784 0.86583 0.0
H811 H 0.30385 0.38495 0.84423 0.0
H812 H 0.12443 0.0385 0.83387 0.0
H813 H 0.16056 0.06825 0.8102 0.0
H814 H 0.06932 0.0598 0.85486 0.0
H815 H 0.08523 0.11751 0.8743 0.0
C816 C 0.15329 0.24398 0.01875 0.0
C817 C 0.16459 0.30698 0.02615 0.0
C818 C 0.21323 0.35958 0.99334 0.0
C819 C 0.19406 0.29464 0.98536 0.0
N820 N 0.13433 0.17331 0.98977 0.0
N821 N 0.2028 0.4249 0.02066 0.0
C822 C 0.16166 0.23655 0.99795 0.0
C823 C 0.19396 0.36495 0.01347 0.0
N824 N 0.13346 0.19036 0.03152 0.0
N825 N 0.25186 0.4161 0.982 0.0
H826 H 0.1946 0.43156 0.03575 0.0
H827 H 0.21581 0.46697 0.0116 0.0
H828 H 0.26687 0.41383 0.96732 0.0
H829 H 0.27335 0.46521 0.98759 0.0
H830 H 0.1343 0.14661 0.02759 0.0
H831 H 0.12112 0.19134 0.04653 0.0
H832 H 0.10251 0.12897 0.99762 0.0
H833 H 0.13767 0.16522 0.97451 0.0
C834 C 0.80572 0.16213 0.34547 0.0
C835 C 0.83531 0.12863 0.35562 0.0
C836 C 0.8834 0.11809 0.32398 0.0
C837 C 0.86125 0.15827 0.31414 0.0
N838 N 0.80447 0.22282 0.31538 0.0
N839 N 0.91801 0.09292 0.35554 0.0
C840 C 0.82319 0.18169 0.32486 0.0
C841 C 0.87883 0.11207 0.34516 0.0
N842 N 0.76078 0.17448 0.35544 0.0
N843 N 0.90733 0.08399 0.31306 0.0
H844 H 0.91782 0.09053 0.37125 0.0
H845 H 0.95593 0.08737 0.34864 0.0
H846 H 0.91013 0.08613 0.29736 0.0
H847 H 0.91656 0.04778 0.31952 0.0
H848 H 0.73199 0.19225 0.3484 0.0
H849 H 0.75025 0.16394 0.37076 0.0
H850 H 0.78301 0.24763 0.32283 0.0
H851 H 0.81282 0.23386 0.30001 0.0
C852 C 0.6518 0.80057 0.67875 0.0
C853 C 0.71152 0.80106 0.68494 0.0
C854 C 0.74273 0.80582 0.64935 0.0
C855 C 0.69401 0.82346 0.64377 0.0
N856 N 0.59692 0.83221 0.65321 0.0
N857 N 0.82074 0.81711 0.67531 0.0
C858 C 0.64694 0.81932 0.65856 0.0
C859 C 0.75887 0.80708 0.66998 0.0
N860 N 0.59812 0.77803 0.69159 0.0
N861 N 0.77224 0.78585 0.63518 0.0
H862 H 0.83713 0.82501 0.69017 0.0
H863 H 0.85832 0.82584 0.66486 0.0
H864 H 0.75338 0.77389 0.62059 0.0
H865 H 0.80618 0.76958 0.63878 0.0
H866 H 0.55138 0.77151 0.68735 0.0
H867 H 0.59779 0.75804 0.70572 0.0
H868 H 0.56688 0.83912 0.66367 0.0
H869 H 0.58688 0.83731 0.63818 0.0
C870 C 0.90891 0.79636 0.00926 0.0
C871 C 0.89926 0.73743 0.01926 0.0
C872 C 0.84642 0.67064 0.98866 0.0
C873 C 0.86293 0.73138 0.97826 0.0
N874 N 0.92439 0.85338 0.97738 0.0
N875 N 0.86121 0.61828 0.01879 0.0
C876 C 0.8985 0.79462 0.98821 0.0
C877 C 0.86865 0.67429 0.00903 0.0
N878 N 0.92609 0.85373 0.02002 0.0
N879 N 0.80858 0.60985 0.97919 0.0
H880 H 0.87271 0.61892 0.03405 0.0
H881 H 0.84608 0.57218 0.01171 0.0
H882 H 0.79464 0.60624 0.96405 0.0
H883 H 0.78867 0.56328 0.98644 0.0
H884 H 0.92627 0.89577 0.01382 0.0
H885 H 0.93285 0.85642 0.03561 0.0
H886 H 0.95635 0.90095 0.98357 0.0
H887 H 0.91966 0.85395 0.96175 0.0
C888 C 0.15025 0.81801 0.3289 0.0
C889 C 0.11374 0.84477 0.31899 0.0
C890 C 0.10337 0.89275 0.35069 0.0
C891 C 0.14651 0.87384 0.36028 0.0
N892 N 0.2153 0.82168 0.35848 0.0
N893 N 0.07509 0.92518 0.31931 0.0
C894 C 0.17139 0.8373 0.34935 0.0
C895 C 0.09597 0.88718 0.32957 0.0
N896 N 0.16396 0.77405 0.31888 0.0
N897 N 0.06833 0.91523 0.36175 0.0
H898 H 0.07237 0.92491 0.3036 0.0
H899 H 0.06868 0.96252 0.3263 0.0
H900 H 0.07243 0.92031 0.37737 0.0
H901 H 0.02986 0.9213 0.3555 0.0
H902 H 0.18437 0.74737 0.3258 0.0
H903 H 0.15174 0.76197 0.30371 0.0
H904 H 0.241 0.80155 0.35085 0.0
H905 H 0.2276 0.83127 0.37375 0.0
C906 C 0.33411 0.13128 0.66141 0.0
C907 C 0.27243 0.07382 0.65517 0.0
C908 C 0.22912 0.06115 0.68997 0.0
C909 C 0.28625 0.12422 0.69519 0.0
N910 N 0.39553 0.2176 0.68683 0.0
N911 N 0.16937 0.97313 0.66553 0.0
C912 C 0.33964 0.15857 0.68118 0.0
C913 C 0.22283 0.03518 0.67011 0.0
N914 N 0.38917 0.15589 0.64904 0.0
N915 N 0.17763 0.02845 0.70352 0.0
H916 H 0.15612 0.95586 0.65099 0.0
H917 H 0.13963 0.93677 0.67618 0.0
H918 H 0.17972 0.04516 0.71817 0.0
H919 H 0.13047 0.98724 0.70015 0.0
H920 H 0.43726 0.19445 0.65298 0.0
H921 H 0.38845 0.13196 0.6356 0.0
H922 H 0.4328 0.25023 0.67683 0.0
H923 H 0.40343 0.23485 0.70171 0.0
C924 C 0.09181 0.59952 0.06915 0.0
C925 C 0.05276 0.60844 0.05419 0.0
C926 C 0.01952 0.49508 0.04089 0.0
C927 C 0.04878 0.48273 0.05812 0.0
N928 N 0.09689 0.51849 0.09131 0.0
N929 N 0.97936 0.56462 0.02526 0.0
C930 C 0.08056 0.53369 0.073 0.0
C931 C 0.01631 0.55591 0.03991 0.0
N932 N 0.14119 0.65368 0.07929 0.0
N933 N 0.9976 0.45047 0.02512 0.0
H934 H 0.98214 0.61105 0.0227 0.0
H935 H 0.94467 0.52551 0.0161 0.0
H936 H 1.00035 0.40626 0.0251 0.0
H937 H 0.98194 0.45994 0.01136 0.0
H938 H 0.17333 0.64951 0.0896 0.0
H939 H 0.15719 0.70313 0.07491 0.0
H940 H 0.11494 0.55274 0.10328 0.0
H941 H 0.08408 0.46929 0.09528 0.0
C942 C 0.539 0.01765 0.37633 0.0
C943 C 0.55471 0.98473 0.39189 0.0
C944 C 0.45328 0.96384 0.41027 0.0
C945 C 0.43432 0.99152 0.39413 0.0
N946 N 0.45341 0.0348 0.3601 0.0
N947 N 0.51352 0.90687 0.41998 0.0
C948 C 0.47568 0.01591 0.37665 0.0
C949 C 0.50769 0.95153 0.40769 0.0
N950 N 0.58449 0.05022 0.36117 0.0
N951 N 0.42155 0.95251 0.42851 0.0
H952 H 0.54809 0.89105 0.41716 0.0
H953 H 0.4777 0.8781 0.43091 0.0
H954 H 0.38465 0.96552 0.43135 0.0
H955 H 0.43766 0.93828 0.44136 0.0
H956 H 0.58044 0.08258 0.35091 0.0
H957 H 0.62789 0.04663 0.35929 0.0
H958 H 0.47791 0.04633 0.34619 0.0
H959 H 0.40743 0.03399 0.35976 0.0
C960 C 0.47514 0.43622 0.70853 0.0
C961 C 0.42424 0.42307 0.72311 0.0
C962 C 0.50203 0.52762 0.7407 0.0
C963 C 0.55167 0.54332 0.72564 0.0
N964 N 0.58277 0.51786 0.69345 0.0
N965 N 0.38294 0.4699 0.7482 0.0
C966 C 0.53762 0.49897 0.70903 0.0
C967 C 0.43562 0.47294 0.7377 0.0
N968 N 0.46303 0.38887 0.69407 0.0
N969 N 0.51906 0.5631 0.75837 0.0
H970 H 0.3331 0.43587 0.74444 0.0
H971 H 0.38834 0.5076 0.75818 0.0
H972 H 0.56836 0.60101 0.76154 0.0
H973 H 0.4863 0.54939 0.77067 0.0
H974 H 0.50018 0.39059 0.6846 0.0
H975 H 0.41519 0.34673 0.69188 0.0
H976 H 0.57281 0.49119 0.67996 0.0
H977 H 0.62908 0.56295 0.69348 0.0
C978 C 0.43161 0.92944 0.59527 0.0
C979 C 0.41337 0.95535 0.61208 0.0
C980 C 0.51848 0.97759 0.62916 0.0
C981 C 0.54015 0.96089 0.61108 0.0
N982 N 0.52431 0.93856 0.57539 0.0
N983 N 0.44035 0.00573 0.64528 0.0
C984 C 0.49867 0.94189 0.5937 0.0
C985 C 0.45736 0.98023 0.62909 0.0
N986 N 0.38491 0.8911 0.58104 0.0
N987 N 0.55463 0.98812 0.64654 0.0
H988 H 0.39311 1.00185 0.64677 0.0
H989 H 0.4738 0.03268 0.6569 0.0
H990 H 0.59952 0.9868 0.64711 0.0
H991 H 0.53777 0.99328 0.66067 0.0
H992 H 0.39518 0.86744 0.56923 0.0
H993 H 0.33383 0.8743 0.58277 0.0
H994 H 0.49816 0.93118 0.56187 0.0
H995 H 0.5746 0.95133 0.57348 0.0
C996 C 0.47711 0.47255 0.96162 0.0
C997 C 0.45982 0.42408 0.94586 0.0
C998 C 0.56139 0.50474 0.92728 0.0
C999 C 0.58106 0.55154 0.94344 0.0
N1000 N 0.56343 0.57626 0.9775 0.0
N1001 N 0.49814 0.38769 0.91702 0.0
C1002 C 0.54045 0.53449 0.96106 0.0
C1003 C 0.50596 0.43803 0.92976 0.0
N1004 N 0.4329 0.45913 0.97719 0.0
N1005 N 0.59345 0.52511 0.90907 0.0
H1006 H 0.46183 0.33731 0.91927 0.0
H1007 H 0.53349 0.39442 0.90599 0.0
H1008 H 0.63177 0.5747 0.90636 0.0
H1009 H 0.57681 0.49526 0.89612 0.0
H1010 H 0.43765 0.49533 0.98764 0.0
H1011 H 0.38988 0.41179 0.97931 0.0
H1012 H 0.53987 0.56357 0.99154 0.0
H1013 H 0.60907 0.62205 0.97753 0.0
C1014 C 0.00699 0.55002 0.29759 0.0
C1015 C 0.96887 0.56438 0.28347 0.0
C1016 C 0.94062 0.46057 0.26519 0.0
C1017 C 0.97404 0.44315 0.27995 0.0
N1018 N 0.0289 0.4655 0.31242 0.0
N1019 N 0.87864 0.51822 0.25888 0.0
C1020 C 0.00469 0.48635 0.2968 0.0
C1021 C 0.92907 0.51502 0.26885 0.0
N1022 N 0.04465 0.59694 0.31192 0.0
N1023 N 0.92277 0.42727 0.24715 0.0
H1024 H 0.86247 0.55161 0.26306 0.0
H1025 H 0.84595 0.48079 0.24889 0.0
H1026 H 0.93521 0.39054 0.24334 0.0
H1027 H 0.90363 0.44219 0.23517 0.0
H1028 H 0.0805 0.59389 0.32085 0.0
H1029 H 0.04128 0.64025 0.31446 0.0
H1030 H 0.04556 0.49161 0.32602 0.0
H1031 H 0.02741 0.41911 0.3125 0.0
C1032 C 0.00312 0.04927 0.09145 0.0
C1033 C 0.00402 0.08408 0.07366 0.0
C1034 C 0.02295 0.00451 0.0536 0.0
C1035 C 0.02399 0.97065 0.07151 0.0
N1036 N 0.03184 0.9722 0.10779 0.0
N1037 N 0.98363 0.07389 0.03786 0.0
C1038 C 0.01843 0.99621 0.09054 0.0
C1039 C 0.00513 0.05593 0.05469 0.0
N1040 N 0.98216 0.06379 0.10905 0.0
N1041 N 0.0417 0.99012 0.0356 0.0
H1042 H 0.95965 0.10213 0.03876 0.0
H1043 H 0.97871 0.05164 0.02377 0.0
H1044 H 0.05849 0.95582 0.03428 0.0
H1045 H 0.0483 0.0179 0.02247 0.0
H1046 H 0.97293 0.03555 0.12222 0.0
H1047 H 0.96551 0.09868 0.10959 0.0
H1048 H 0.03528 0.99321 0.122 0.0
H1049 H 0.0471 0.93613 0.10759 0.0
C1050 C 0.97597 0.00804 0.38955 0.0
C1051 C 0.94511 0.00996 0.40804 0.0
C1052 C 0.05196 0.04259 0.42555 0.0
C1053 C 0.08148 0.03785 0.4074 0.0
N1054 N 0.08115 0.04807 0.37138 0.0
N1055 N 0.94934 0.00653 0.44426 0.0
C1056 C 0.04636 0.02981 0.38911 0.0
C1057 C 0.98227 0.02162 0.42621 0.0
N1058 N 0.93769 0.98045 0.37274 0.0
N1059 N 0.0922 0.07146 0.44196 0.0
H1060 H 0.89703 0.98371 0.44506 0.0
H1061 H 0.97242 0.00738 0.45791 0.0
H1062 H 0.14437 0.09166 0.44116 0.0
H1063 H 0.07531 0.08331 0.45512 0.0
H1064 H 0.95685 0.97326 0.35928 0.0
H1065 H 0.88545 0.95611 0.37312 0.0
H1066 H 0.0595 0.0493 0.35766 0.0
H1067 H 0.13348 0.07094 0.37101 0.0
C1068 C 0.02128 0.01393 0.72479 0.0
C1069 C 0.06027 0.03404 0.74294 0.0
C1070 C 0.97901 0.92286 0.75739 0.0
C1071 C 0.93567 0.90849 0.74066 0.0
N1072 N 0.9093 0.9508 0.71063 0.0
N1073 N 0.05877 0.01237 0.77884 0.0
C1074 C 0.95473 0.95732 0.72507 0.0
C1075 C 0.03444 0.98962 0.75993 0.0
N1076 N 0.04811 0.04525 0.70689 0.0
N1077 N 0.96679 0.87346 0.77111 0.0
H1078 H 0.09203 0.0632 0.78188 0.0
H1079 H 0.03824 0.98302 0.79177 0.0
H1080 H 0.92788 0.82367 0.76922 0.0
H1081 H 0.99985 0.88049 0.78291 0.0
H1082 H 0.02282 0.02842 0.69316 0.0
H1083 H 0.09867 0.08061 0.70526 0.0
H1084 H 0.91901 0.98885 0.7002 0.0
H1085 H 0.85985 0.91054 0.71036 0.0
C1086 C 0.97275 0.01567 0.58108 0.0
C1087 C 0.93158 0.99237 0.59847 0.0
C1088 C 0.02127 0.98135 0.61529 0.0
C1089 C 0.05511 0.99064 0.59651 0.0
N1090 N 0.05178 0.00264 0.5604 0.0
N1091 N 0.9138 0.94377 0.63186 0.0
C1092 C 0.02771 0.00404 0.57907 0.0
C1093 C 0.95496 0.97261 0.61559 0.0
N1094 N 0.96079 0.05112 0.56672 0.0
N1095 N 0.05371 0.98513 0.6329 0.0
H1096 H 0.8647 0.93541 0.63251 0.0
H1097 H 0.92688 0.92336 0.64393 0.0
H1098 H 0.10419 0.99787 0.63315 0.0
H1099 H 0.03338 0.98419 0.64707 0.0
H1100 H 0.99283 0.07388 0.55442 0.0
H1101 H 0.92406 0.06486 0.56868 0.0
H1102 H 0.02919 0.00635 0.54716 0.0
H1103 H 0.08837 0.98908 0.55823 0.0
C1104 C 0.94409 0.99686 0.94113 0.0
C1105 C 0.93391 0.9512 0.92503 0.0
C1106 C 0.05118 0.02678 0.91391 0.0
C1107 C 0.06146 0.07331 0.92947 0.0
N1108 N 0.01102 0.10984 0.95491 0.0
N1109 N 0.96861 0.94568 0.8911 0.0
C1110 C 0.00599 0.06035 0.94226 0.0
C1111 C 0.98494 0.97298 0.90996 0.0
N1112 N 0.89503 0.9813 0.95522 0.0
N1113 N 0.10408 0.034 0.90251 0.0
H1114 H 0.91858 0.91309 0.88698 0.0
H1115 H 1.00254 0.96321 0.87907 0.0
H1116 H 0.15339 0.07308 0.9047 0.0
H1117 H 0.09947 0.9975 0.89216 0.0
H1118 H 0.9046 0.00473 0.96929 0.0
H1119 H 0.84439 0.94756 0.95246 0.0
H1120 H 0.97034 0.10692 0.96286 0.0
H1121 H 0.05489 0.15647 0.95624 0.0
C1122 C 0.99285 0.98714 0.28329 0.0
C1123 C 0.9921 0.9528 0.26535 0.0
C1124 C 0.01466 0.05385 0.24578 0.0
C1125 C 0.0151 0.08747 0.26381 0.0
N1126 N 0.03831 0.09609 0.2994 0.0
N1127 N 0.98793 0.94872 0.22904 0.0
C1128 C 0.01399 0.05717 0.28253 0.0
C1129 C 0.99947 0.98522 0.24642 0.0
N1130 N 0.96976 0.9526 0.30095 0.0
N1131 N 0.0343 0.08996 0.22824 0.0
H1132 H 0.97319 0.89744 0.22913 0.0
H1133 H 0.98597 0.96679 0.21478 0.0
H1134 H 0.05101 0.14161 0.22798 0.0
H1135 H 0.04221 0.07156 0.21476 0.0
H1136 H 0.96475 0.97455 0.31415 0.0
H1137 H 0.94749 0.90043 0.30168 0.0
H1138 H 0.04357 0.07727 0.3132 0.0
H1139 H 0.0628 0.14854 0.29868 0.0
loop_
_geom_bond_atom_site_label_1
_geom_bond_atom_site_label_2
_geom_bond_distance
_geom_bond_site_symmetry_2
_ccdc_geom_bond_type
Co0 O2 2.143 . S
Co0 O8 2.074 . S
Co0 O11 2.093 . S
Co0 O24 2.097 . S
Co0 N41 2.151 . S
Co0 N49 2.214 . S
Co1 O2 2.160 1_655 S
Co1 O7 2.058 1_655 S
Co1 O17 2.057 . S
Co1 O32 2.037 . S
Co1 N36 2.145 . S
Co1 N57 2.257 . S
O2 Co0 2.143 . S
O2 Co1 2.160 1_455 S
C3 O4 1.278 1_455 S
C3 O11 1.224 . S
O4 C3 1.278 1_655 S
C5 O6 1.245 1_655 S
C5 O17 1.232 . S
O6 C5 1.245 1_455 S
O7 Co1 2.058 1_455 S
O7 C33 1.269 . S
O8 Co0 2.074 . S
O8 C33 1.257 . S
H9 C34 0.930 1_556 S
H10 C40 0.930 . S
O11 Co0 2.093 . S
O11 C3 1.224 . S
H12 C44 0.929 . S
H13 C46 0.930 . S
H14 C47 0.930 . S
H15 C45 0.929 . S
H16 C48 0.928 . S
O17 Co1 2.057 . S
O17 C5 1.232 . S
H18 C37 0.929 . S
H19 C38 0.929 . S
H20 C50 0.931 . S
H21 C42 0.929 . S
H22 C51 0.930 . S
H23 C43 0.931 . S
O24 Co0 2.097 . S
O24 C52 1.214 1_455 S
H25 C53 0.929 . S
H26 C54 0.929 . S
H27 C55 0.930 . S
H28 C56 0.929 . S
H29 C58 0.930 . S
H30 C35 0.930 . S
H31 C39 0.930 . S
O32 Co1 2.037 . S
O32 C52 1.234 . S
C33 O7 1.269 . S
C33 O8 1.257 . S
C34 H9 0.930 1_554 S
C34 C37 1.388 . S
C34 C39 1.418 1_554 S
C35 H30 0.930 . S
C35 C38 1.404 . S
C35 C39 1.353 1_554 S
N36 Co1 2.145 . S
N36 C37 1.397 . S
N36 C38 1.334 . S
C37 H18 0.929 . S
C37 C34 1.388 . S
C37 N36 1.397 . S
C38 H19 0.929 . S
C38 C35 1.404 . S
C38 N36 1.334 . S
C39 H31 0.930 . S
C39 C34 1.418 1_556 S
C39 C35 1.353 1_556 S
C40 H10 0.930 . S
C40 N41 1.330 . S
C40 C42 1.446 . S
N41 Co0 2.151 . S
N41 C40 1.330 . S
N41 C45 1.418 . S
C42 H21 0.929 . S
C42 C40 1.446 . S
C42 C43 1.332 . S
C43 H23 0.931 . S
C43 C42 1.332 . S
C43 C44 1.267 . S
C44 H12 0.929 . S
C44 C43 1.267 . S
C44 C45 1.251 . S
C45 H15 0.929 . S
C45 N41 1.418 . S
C45 C44 1.251 . S
C46 H13 0.930 . S
C46 C48 1.406 . S
C46 C51 1.261 . S
C47 H14 0.930 . S
C47 N49 1.325 . S
C47 C50 1.357 . S
C48 H16 0.928 . S
C48 C46 1.406 . S
C48 N49 1.261 . S
N49 Co0 2.214 . S
N49 C47 1.325 . S
N49 C48 1.261 . S
C50 H20 0.931 . S
C50 C47 1.357 . S
C50 C51 1.312 . S
C51 H22 0.930 . S
C51 C46 1.261 . S
C51 C50 1.312 . S
C52 O24 1.214 1_655 S
C52 O32 1.234 . S
C53 H25 0.929 . S
C53 C56 1.391 . S
C53 C58 1.391 . S
C54 H26 0.929 . S
C54 C55 1.390 . S
C54 N57 1.391 . S
C55 H27 0.930 . S
C55 C54 1.390 . S
C55 C56 1.392 . S
C56 H28 0.929 . S
C56 C53 1.391 . S
C56 C55 1.392 . S
N57 Co1 2.257 . S
N57 C54 1.391 . S
N57 C58 1.388 . S
C58 H29 0.930 . S
C58 C53 1.391 . S
C58 N57 1.388 . S
Co59 O61 2.147 . S
Co59 O67 2.074 . S
Co59 O70 2.093 . S
Co59 O83 2.097 1_545 S
Co59 N100 2.151 . S
Co59 N108 2.214 . S
Co60 O61 2.149 1_565 S
Co60 O66 2.058 1_565 S
Co60 O76 2.057 . S
Co60 O91 2.037 . S
Co60 N95 2.145 . S
Co60 N116 2.257 . S
O61 Co59 2.147 . S
O61 Co60 2.149 1_545 S
C62 O63 1.278 1_545 S
C62 O70 1.224 . S
O63 C62 1.278 1_565 S
C64 O65 1.245 1_565 S
C64 O76 1.232 . S
O65 C64 1.245 1_545 S
O66 Co60 2.058 1_545 S
O66 C92 1.269 . S
O67 Co59 2.074 . S
O67 C92 1.257 . S
H68 C93 0.930 . S
H69 C99 0.930 . S
O70 Co59 2.093 . S
O70 C62 1.224 . S
H71 C103 0.929 . S
H72 C105 0.930 . S
H73 C106 0.930 1_655 S
H74 C104 0.929 . S
H75 C107 0.928 . S
O76 Co60 2.057 . S
O76 C64 1.232 . S
H77 C96 0.929 . S
H78 C97 0.929 . S
H79 C109 0.931 . S
H80 C101 0.929 . S
H81 C110 0.930 . S
H82 C102 0.931 . S
O83 Co59 2.097 1_565 S
O83 C111 1.214 . S
H84 C112 0.929 . S
H85 C113 0.929 . S
H86 C114 0.930 . S
H87 C115 0.929 . S
H88 C117 0.930 . S
H89 C94 0.930 . S
H90 C98 0.930 . S
O91 Co60 2.037 . S
O91 C111 1.234 . S
C92 O66 1.269 . S
C92 O67 1.257 . S
C93 H68 0.930 . S
C93 C96 1.388 . S
C93 C98 1.418 . S
C94 H89 0.930 . S
C94 C97 1.404 . S
C94 C98 1.353 . S
N95 Co60 2.145 . S
N95 C96 1.397 . S
N95 C97 1.334 . S
C96 H77 0.929 . S
C96 C93 1.388 . S
C96 N95 1.397 . S
C97 H78 0.929 . S
C97 C94 1.404 . S
C97 N95 1.334 . S
C98 H90 0.930 . S
C98 C93 1.418 . S
C98 C94 1.353 . S
C99 H69 0.930 . S
C99 N100 1.330 . S
C99 C101 1.446 . S
N100 Co59 2.151 . S
N100 C99 1.330 . S
N100 C104 1.418 . S
C101 H80 0.929 . S
C101 C99 1.446 . S
C101 C102 1.332 . S
C102 H82 0.931 . S
C102 C101 1.332 . S
C102 C103 1.267 . S
C103 H71 0.929 . S
C103 C102 1.267 . S
C103 C104 1.251 . S
C104 H74 0.929 . S
C104 N100 1.418 . S
C104 C103 1.251 . S
C105 H72 0.930 . S
C105 C107 1.406 1_455 S
C105 C110 1.261 . S
C106 H73 0.930 1_455 S
C106 N108 1.323 1_455 S
C106 C109 1.359 . S
C107 H75 0.928 . S
C107 C105 1.406 1_655 S
C107 N108 1.261 . S
N108 Co59 2.214 . S
N108 C106 1.323 1_655 S
N108 C107 1.261 . S
C109 H79 0.931 . S
C109 C106 1.359 . S
C109 C110 1.312 . S
C110 H81 0.930 . S
C110 C105 1.261 . S
C110 C109 1.312 . S
C111 O83 1.214 . S
C111 O91 1.234 . S
C112 H84 0.929 . S
C112 C115 1.391 . S
C112 C117 1.391 . S
C113 H85 0.929 . S
C113 C114 1.390 . S
C113 N116 1.391 . S
C114 H86 0.930 . S
C114 C113 1.390 . S
C114 C115 1.392 . S
C115 H87 0.929 . S
C115 C112 1.391 . S
C115 C114 1.392 . S
N116 Co60 2.257 . S
N116 C113 1.391 . S
N116 C117 1.388 . S
C117 H88 0.930 . S
C117 C112 1.391 . S
C117 N116 1.388 . S
Co118 O120 2.143 . S
Co118 O126 2.074 . S
Co118 O129 2.093 . S
Co118 O142 2.097 . S
Co118 N159 2.151 . S
Co118 N167 2.214 . S
Co119 O120 2.160 . S
Co119 O125 2.058 . S
Co119 O135 2.057 . S
Co119 O150 2.037 . S
Co119 N154 2.145 . S
Co119 N175 2.257 . S
O120 Co118 2.143 . S
O120 Co119 2.160 . S
C121 O122 1.278 . S
C121 O129 1.224 . S
O122 C121 1.278 . S
C123 O124 1.245 . S
C123 O135 1.232 . S
O124 C123 1.245 . S
O125 Co119 2.058 . S
O125 C151 1.269 . S
O126 Co118 2.074 . S
O126 C151 1.257 . S
H127 C152 0.930 . S
H128 C158 0.930 . S
O129 Co118 2.093 . S
O129 C121 1.224 . S
H130 C162 0.929 . S
H131 C164 0.930 . S
H132 C165 0.930 1_565 S
H133 C163 0.929 . S
H134 C166 0.928 1_565 S
O135 Co119 2.057 . S
O135 C123 1.232 . S
H136 C155 0.929 . S
H137 C156 0.929 . S
H138 C168 0.931 . S
H139 C160 0.929 . S
H140 C169 0.930 . S
H141 C161 0.931 . S
O142 Co118 2.097 . S
O142 C170 1.214 . S
H143 C171 0.929 . S
H144 C172 0.929 . S
H145 C173 0.930 . S
H146 C174 0.929 . S
H147 C176 0.930 . S
H148 C153 0.930 . S
H149 C157 0.930 . S
O150 Co119 2.037 . S
O150 C170 1.234 . S
C151 O125 1.269 . S
C151 O126 1.257 . S
C152 H127 0.930 . S
C152 C155 1.388 . S
C152 C157 1.418 . S
C153 H148 0.930 . S
C153 C156 1.404 . S
C153 C157 1.353 . S
N154 Co119 2.145 . S
N154 C155 1.397 . S
N154 C156 1.334 . S
C155 H136 0.929 . S
C155 C152 1.388 . S
C155 N154 1.397 . S
C156 H137 0.929 . S
C156 C153 1.404 . S
C156 N154 1.334 . S
C157 H149 0.930 . S
C157 C152 1.418 . S
C157 C153 1.353 . S
C158 H128 0.930 . S
C158 N159 1.330 . S
C158 C160 1.446 . S
N159 Co118 2.151 . S
N159 C158 1.330 . S
N159 C163 1.418 . S
C160 H139 0.929 . S
C160 C158 1.446 . S
C160 C161 1.332 . S
C161 H141 0.931 . S
C161 C160 1.332 . S
C161 C162 1.267 . S
C162 H130 0.929 . S
C162 C161 1.267 . S
C162 C163 1.251 . S
C163 H133 0.929 . S
C163 N159 1.418 . S
C163 C162 1.251 . S
C164 H131 0.930 . S
C164 C166 1.406 . S
C164 C169 1.261 . S
C165 H132 0.930 1_545 S
C165 N167 1.325 1_545 S
C165 C168 1.357 . S
C166 H134 0.928 1_545 S
C166 C164 1.406 . S
C166 N167 1.261 1_545 S
N167 Co118 2.214 . S
N167 C165 1.325 1_565 S
N167 C166 1.261 1_565 S
C168 H138 0.931 . S
C168 C165 1.357 . S
C168 C169 1.312 . S
C169 H140 0.930 . S
C169 C164 1.261 . S
C169 C168 1.312 . S
C170 O142 1.214 . S
C170 O150 1.234 . S
C171 H143 0.929 . S
C171 C174 1.391 . S
C171 C176 1.391 . S
C172 H144 0.929 . S
C172 C173 1.390 . S
C172 N175 1.391 . S
C173 H145 0.930 . S
C173 C172 1.390 . S
C173 C174 1.392 . S
C174 H146 0.929 . S
C174 C171 1.391 . S
C174 C173 1.392 . S
N175 Co119 2.257 . S
N175 C172 1.391 . S
N175 C176 1.388 . S
C176 H147 0.930 . S
C176 C171 1.391 . S
C176 N175 1.388 . S
Co177 O179 2.143 . S
Co177 O185 2.074 . S
Co177 O188 2.093 . S
Co177 O201 2.097 . S
Co177 N218 2.151 . S
Co177 N226 2.214 . S
Co178 O179 2.160 1_455 S
Co178 O184 2.058 1_455 S
Co178 O194 2.057 . S
Co178 O209 2.037 . S
Co178 N213 2.145 . S
Co178 N234 2.257 . S
O179 Co177 2.143 . S
O179 Co178 2.160 1_655 S
C180 O181 1.278 1_655 S
C180 O188 1.224 . S
O181 C180 1.278 1_455 S
C182 O183 1.245 1_455 S
C182 O194 1.232 . S
O183 C182 1.245 1_655 S
O184 Co178 2.058 1_655 S
O184 C210 1.269 . S
O185 Co177 2.074 . S
O185 C210 1.257 . S
H186 C211 0.930 1_556 S
H187 C217 0.930 . S
O188 Co177 2.093 . S
O188 C180 1.224 . S
H189 C221 0.929 . S
H190 C223 0.930 . S
H191 C224 0.930 . S
H192 C222 0.929 . S
H193 C225 0.928 . S
O194 Co178 2.057 . S
O194 C182 1.232 . S
H195 C214 0.929 . S
H196 C215 0.929 . S
H197 C227 0.931 . S
H198 C219 0.929 . S
H199 C228 0.930 . S
H200 C220 0.931 . S
O201 Co177 2.097 . S
O201 C229 1.214 1_655 S
H202 C230 0.929 . S
H203 C231 0.929 . S
H204 C232 0.930 . S
H205 C233 0.929 . S
H206 C235 0.930 . S
H207 C212 0.930 . S
H208 C216 0.930 . S
O209 Co178 2.037 . S
O209 C229 1.234 . S
C210 O184 1.269 . S
C210 O185 1.257 . S
C211 H186 0.930 1_554 S
C211 C214 1.388 . S
C211 C216 1.418 1_554 S
C212 H207 0.930 . S
C212 C215 1.404 . S
C212 C216 1.353 1_554 S
N213 Co178 2.145 . S
N213 C214 1.397 . S
N213 C215 1.334 . S
C214 H195 0.929 . S
C214 C211 1.388 . S
C214 N213 1.397 . S
C215 H196 0.929 . S
C215 C212 1.404 . S
C215 N213 1.334 . S
C216 H208 0.930 . S
C216 C211 1.418 1_556 S
C216 C212 1.353 1_556 S
C217 H187 0.930 . S
C217 N218 1.330 . S
C217 C219 1.446 . S
N218 Co177 2.151 . S
N218 C217 1.330 . S
N218 C222 1.418 . S
C219 H198 0.929 . S
C219 C217 1.446 . S
C219 C220 1.332 . S
C220 H200 0.931 . S
C220 C219 1.332 . S
C220 C221 1.267 . S
C221 H189 0.929 . S
C221 C220 1.267 . S
C221 C222 1.251 . S
C222 H192 0.929 . S
C222 N218 1.418 . S
C222 C221 1.251 . S
C223 H190 0.930 . S
C223 C225 1.406 . S
C223 C228 1.261 . S
C224 H191 0.930 . S
C224 N226 1.325 . S
C224 C227 1.357 . S
C225 H193 0.928 . S
C225 C223 1.406 . S
C225 N226 1.261 . S
N226 Co177 2.214 . S
N226 C224 1.325 . S
N226 C225 1.261 . S
C227 H197 0.931 . S
C227 C224 1.357 . S
C227 C228 1.312 . S
C228 H199 0.930 . S
C228 C223 1.261 . S
C228 C227 1.312 . S
C229 O201 1.214 1_455 S
C229 O209 1.234 . S
C230 H202 0.929 . S
C230 C233 1.391 . S
C230 C235 1.391 . S
C231 H203 0.929 . S
C231 C232 1.390 . S
C231 N234 1.391 . S
C232 H204 0.930 . S
C232 C231 1.390 . S
C232 C233 1.392 . S
C233 H205 0.929 . S
C233 C230 1.391 . S
C233 C232 1.392 . S
N234 Co178 2.257 . S
N234 C231 1.391 . S
N234 C235 1.388 . S
C235 H206 0.930 . S
C235 C230 1.391 . S
C235 N234 1.388 . S
Co236 O238 2.146 . S
Co236 O244 2.074 . S
Co236 O247 2.093 . S
Co236 O260 2.097 1_565 S
Co236 N277 2.151 . S
Co236 N285 2.214 . S
Co237 O238 2.150 1_545 S
Co237 O243 2.058 1_545 S
Co237 O253 2.057 . S
Co237 O268 2.037 . S
Co237 N272 2.145 . S
Co237 N293 2.257 . S
O238 Co236 2.146 . S
O238 Co237 2.150 1_565 S
C239 O240 1.278 1_565 S
C239 O247 1.224 . S
O240 C239 1.278 1_545 S
C241 O242 1.245 1_545 S
C241 O253 1.232 . S
O242 C241 1.245 1_565 S
O243 Co237 2.058 1_565 S
O243 C269 1.269 . S
O244 Co236 2.074 . S
O244 C269 1.257 . S
H245 C270 0.930 . S
H246 C276 0.930 . S
O247 Co236 2.093 . S
O247 C239 1.224 . S
H248 C280 0.929 . S
H249 C282 0.930 . S
H250 C283 0.929 1_455 S
H251 C281 0.929 . S
H252 C284 0.928 . S
O253 Co237 2.057 . S
O253 C241 1.232 . S
H254 C273 0.929 . S
H255 C274 0.929 . S
H256 C286 0.931 . S
H257 C278 0.929 . S
H258 C287 0.930 . S
H259 C279 0.931 . S
O260 Co236 2.097 1_545 S
O260 C288 1.214 . S
H261 C289 0.929 . S
H262 C290 0.929 . S
H263 C291 0.930 . S
H264 C292 0.929 . S
H265 C294 0.930 . S
H266 C271 0.930 . S
H267 C275 0.930 . S
O268 Co237 2.037 . S
O268 C288 1.234 . S
C269 O243 1.269 . S
C269 O244 1.257 . S
C270 H245 0.930 . S
C270 C273 1.388 . S
C270 C275 1.418 . S
C271 H266 0.930 . S
C271 C274 1.404 . S
C271 C275 1.353 . S
N272 Co237 2.145 . S
N272 C273 1.397 . S
N272 C274 1.334 . S
C273 H254 0.929 . S
C273 C270 1.388 . S
C273 N272 1.397 . S
C274 H255 0.929 . S
C274 C271 1.404 . S
C274 N272 1.334 . S
C275 H267 0.930 . S
C275 C270 1.418 . S
C275 C271 1.353 . S
C276 H246 0.930 . S
C276 N277 1.330 . S
C276 C278 1.446 . S
N277 Co236 2.151 . S
N277 C276 1.330 . S
N277 C281 1.418 . S
C278 H257 0.929 . S
C278 C276 1.446 . S
C278 C279 1.332 . S
C279 H259 0.931 . S
C279 C278 1.332 . S
C279 C280 1.267 . S
C280 H248 0.929 . S
C280 C279 1.267 . S
C280 C281 1.251 . S
C281 H251 0.929 . S
C281 N277 1.418 . S
C281 C280 1.251 . S
C282 H249 0.930 . S
C282 C284 1.406 1_655 S
C282 C287 1.261 . S
C283 H250 0.929 1_655 S
C283 N285 1.319 1_655 S
C283 C286 1.364 . S
C284 H252 0.928 . S
C284 C282 1.406 1_455 S
C284 N285 1.261 . S
N285 Co236 2.214 . S
N285 C283 1.319 1_455 S
N285 C284 1.261 . S
C286 H256 0.931 . S
C286 C283 1.364 . S
C286 C287 1.312 . S
C287 H258 0.930 . S
C287 C282 1.261 . S
C287 C286 1.312 . S
C288 O260 1.214 . S
C288 O268 1.234 . S
C289 H261 0.929 . S
C289 C292 1.391 . S
C289 C294 1.391 . S
C290 H262 0.929 . S
C290 C291 1.390 . S
C290 N293 1.391 . S
C291 H263 0.930 . S
C291 C290 1.390 . S
C291 C292 1.392 . S
C292 H264 0.929 . S
C292 C289 1.391 . S
C292 C291 1.392 . S
N293 Co237 2.257 . S
N293 C290 1.391 . S
N293 C294 1.388 . S
C294 H265 0.930 . S
C294 C289 1.391 . S
C294 N293 1.388 . S
Co295 O297 2.143 . S
Co295 O303 2.074 . S
Co295 O306 2.093 . S
Co295 O319 2.097 . S
Co295 N336 2.151 . S
Co295 N344 2.214 . S
Co296 O297 2.160 . S
Co296 O302 2.058 . S
Co296 O312 2.057 . S
Co296 O327 2.037 . S
Co296 N331 2.145 . S
Co296 N352 2.257 . S
O297 Co295 2.143 . S
O297 Co296 2.160 . S
C298 O299 1.278 . S
C298 O306 1.224 . S
O299 C298 1.278 . S
C300 O301 1.245 . S
C300 O312 1.232 . S
O301 C300 1.245 . S
O302 Co296 2.058 . S
O302 C328 1.269 . S
O303 Co295 2.074 . S
O303 C328 1.257 . S
H304 C329 0.930 . S
H305 C335 0.930 . S
O306 Co295 2.093 . S
O306 C298 1.224 . S
H307 C339 0.929 . S
H308 C341 0.930 . S
H309 C342 0.930 1_545 S
H310 C340 0.929 . S
H311 C343 0.928 1_545 S
O312 Co296 2.057 . S
O312 C300 1.232 . S
H313 C332 0.929 . S
H314 C333 0.929 . S
H315 C345 0.931 . S
H316 C337 0.929 . S
H317 C346 0.930 . S
H318 C338 0.931 . S
O319 Co295 2.097 . S
O319 C347 1.214 . S
H320 C348 0.929 . S
H321 C349 0.929 . S
H322 C350 0.930 . S
H323 C351 0.929 . S
H324 C353 0.930 . S
H325 C330 0.930 . S
H326 C334 0.930 . S
O327 Co296 2.037 . S
O327 C347 1.234 . S
C328 O302 1.269 . S
C328 O303 1.257 . S
C329 H304 0.930 . S
C329 C332 1.388 . S
C329 C334 1.418 . S
C330 H325 0.930 . S
C330 C333 1.404 . S
C330 C334 1.353 . S
N331 Co296 2.145 . S
N331 C332 1.397 . S
N331 C333 1.334 . S
C332 H313 0.929 . S
C332 C329 1.388 . S
C332 N331 1.397 . S
C333 H314 0.929 . S
C333 C330 1.404 . S
C333 N331 1.334 . S
C334 H326 0.930 . S
C334 C329 1.418 . S
C334 C330 1.353 . S
C335 H305 0.930 . S
C335 N336 1.330 . S
C335 C337 1.446 . S
N336 Co295 2.151 . S
N336 C335 1.330 . S
N336 C340 1.418 . S
C337 H316 0.929 . S
C337 C335 1.446 . S
C337 C338 1.332 . S
C338 H318 0.931 . S
C338 C337 1.332 . S
C338 C339 1.267 . S
C339 H307 0.929 . S
C339 C338 1.267 . S
C339 C340 1.251 . S
C340 H310 0.929 . S
C340 N336 1.418 . S
C340 C339 1.251 . S
C341 H308 0.930 . S
C341 C343 1.406 . S
C341 C346 1.261 . S
C342 H309 0.930 1_565 S
C342 N344 1.325 1_565 S
C342 C345 1.357 . S
C343 H311 0.928 1_565 S
C343 C341 1.406 . S
C343 N344 1.261 1_565 S
N344 Co295 2.214 . S
N344 C342 1.325 1_545 S
N344 C343 1.261 1_545 S
C345 H315 0.931 . S
C345 C342 1.357 . S
C345 C346 1.312 . S
C346 H317 0.930 . S
C346 C341 1.261 . S
C346 C345 1.312 . S
C347 O319 1.214 . S
C347 O327 1.234 . S
C348 H320 0.929 . S
C348 C351 1.391 . S
C348 C353 1.391 . S
C349 H321 0.929 . S
C349 C350 1.390 . S
C349 N352 1.391 . S
C350 H322 0.930 . S
C350 C349 1.390 . S
C350 C351 1.392 . S
C351 H323 0.929 . S
C351 C348 1.391 . S
C351 C350 1.392 . S
N352 Co296 2.257 . S
N352 C349 1.391 . S
N352 C353 1.388 . S
C353 H324 0.930 . S
C353 C348 1.391 . S
C353 N352 1.388 . S
Co354 O356 2.143 . S
Co354 O362 2.074 . S
Co354 O365 2.093 . S
Co354 O378 2.097 . S
Co354 N395 2.151 . S
Co354 N403 2.214 . S
Co355 O356 2.160 1_545 S
Co355 O361 2.058 1_545 S
Co355 O371 2.057 . S
Co355 O386 2.037 . S
Co355 N390 2.145 . S
Co355 N411 2.257 . S
O356 Co354 2.143 . S
O356 Co355 2.160 1_565 S
C357 O358 1.278 1_565 S
C357 O365 1.224 . S
O358 C357 1.278 1_545 S
C359 O360 1.245 1_545 S
C359 O371 1.232 . S
O360 C359 1.245 1_565 S
O361 Co355 2.058 1_565 S
O361 C387 1.269 . S
O362 Co354 2.074 . S
O362 C387 1.257 . S
H363 C388 0.930 . S
H364 C394 0.930 . S
O365 Co354 2.093 . S
O365 C357 1.224 . S
H366 C398 0.929 . S
H367 C400 0.930 . S
H368 C401 0.930 . S
H369 C399 0.929 . S
H370 C402 0.928 . S
O371 Co355 2.057 . S
O371 C359 1.232 . S
H372 C391 0.929 . S
H373 C392 0.929 . S
H374 C404 0.931 . S
H375 C396 0.929 . S
H376 C405 0.930 . S
H377 C397 0.931 . S
O378 Co354 2.097 . S
O378 C406 1.214 1_565 S
H379 C407 0.929 . S
H380 C408 0.929 . S
H381 C409 0.930 . S
H382 C410 0.929 . S
H383 C412 0.930 . S
H384 C389 0.930 . S
H385 C393 0.930 . S
O386 Co355 2.037 . S
O386 C406 1.234 . S
C387 O361 1.269 . S
C387 O362 1.257 . S
C388 H363 0.930 . S
C388 C391 1.388 . S
C388 C393 1.418 . S
C389 H384 0.930 . S
C389 C392 1.404 . S
C389 C393 1.353 . S
N390 Co355 2.145 . S
N390 C391 1.397 . S
N390 C392 1.334 . S
C391 H372 0.929 . S
C391 C388 1.388 . S
C391 N390 1.397 . S
C392 H373 0.929 . S
C392 C389 1.404 . S
C392 N390 1.334 . S
C393 H385 0.930 . S
C393 C388 1.418 . S
C393 C389 1.353 . S
C394 H364 0.930 . S
C394 N395 1.330 . S
C394 C396 1.446 . S
N395 Co354 2.151 . S
N395 C394 1.330 . S
N395 C399 1.418 . S
C396 H375 0.929 . S
C396 C394 1.446 . S
C396 C397 1.332 . S
C397 H377 0.931 . S
C397 C396 1.332 . S
C397 C398 1.267 . S
C398 H366 0.929 . S
C398 C397 1.267 . S
C398 C399 1.251 . S
C399 H369 0.929 . S
C399 N395 1.418 . S
C399 C398 1.251 . S
C400 H367 0.930 . S
C400 C402 1.406 . S
C400 C405 1.261 . S
C401 H368 0.930 . S
C401 N403 1.325 . S
C401 C404 1.357 . S
C402 H370 0.928 . S
C402 C400 1.406 . S
C402 N403 1.261 . S
N403 Co354 2.214 . S
N403 C401 1.325 . S
N403 C402 1.261 . S
C404 H374 0.931 . S
C404 C401 1.357 . S
C404 C405 1.312 . S
C405 H376 0.930 . S
C405 C400 1.261 . S
C405 C404 1.312 . S
C406 O378 1.214 1_545 S
C406 O386 1.234 . S
C407 H379 0.929 . S
C407 C410 1.391 . S
C407 C412 1.391 . S
C408 H380 0.929 . S
C408 C409 1.390 . S
C408 N411 1.391 . S
C409 H381 0.930 . S
C409 C408 1.390 . S
C409 C410 1.392 . S
C410 H382 0.929 . S
C410 C407 1.391 . S
C410 C409 1.392 . S
N411 Co355 2.257 . S
N411 C408 1.391 . S
N411 C412 1.388 . S
C412 H383 0.930 . S
C412 C407 1.391 . S
C412 N411 1.388 . S
Co413 O415 2.143 . S
Co413 O421 2.074 . S
Co413 O424 2.093 . S
Co413 O437 2.097 . S
Co413 N454 2.151 . S
Co413 N462 2.214 . S
Co414 O415 2.160 . S
Co414 O420 2.058 . S
Co414 O430 2.057 . S
Co414 O445 2.037 . S
Co414 N449 2.145 . S
Co414 N470 2.257 . S
O415 Co413 2.143 . S
O415 Co414 2.160 . S
C416 O417 1.278 . S
C416 O424 1.224 . S
O417 C416 1.278 . S
C418 O419 1.245 . S
C418 O430 1.232 . S
O419 C418 1.245 . S
O420 Co414 2.058 . S
O420 C446 1.269 . S
O421 Co413 2.074 . S
O421 C446 1.257 . S
H422 C447 0.935 . S
H423 C453 0.930 . S
O424 Co413 2.093 . S
O424 C416 1.224 . S
H425 C457 0.929 . S
H426 C459 0.930 . S
H427 C460 0.930 . S
H428 C458 0.929 . S
H429 C461 0.928 . S
O430 Co414 2.057 . S
O430 C418 1.232 . S
H431 C450 0.929 . S
H432 C451 0.929 . S
H433 C463 0.931 . S
H434 C455 0.929 . S
H435 C464 0.930 . S
H436 C456 0.931 . S
O437 Co413 2.097 . S
O437 C465 1.214 . S
H438 C466 0.929 . S
H439 C467 0.929 . S
H440 C468 0.930 . S
H441 C469 0.929 . S
H442 C471 0.930 . S
H443 C448 0.946 . S
H444 C452 0.930 . S
O445 Co414 2.037 . S
O445 C465 1.234 . S
C446 O420 1.269 . S
C446 O421 1.257 . S
C447 H422 0.935 . S
C447 C450 1.381 1_554 S
C447 C452 1.419 . S
C448 H443 0.946 . S
C448 C451 1.404 . S
C448 C452 1.353 1_556 S
N449 Co414 2.145 . S
N449 C450 1.397 . S
N449 C451 1.334 . S
C450 H431 0.929 . S
C450 C447 1.381 1_556 S
C450 N449 1.397 . S
C451 H432 0.929 . S
C451 C448 1.404 . S
C451 N449 1.334 . S
C452 H444 0.930 . S
C452 C447 1.419 . S
C452 C448 1.353 1_554 S
C453 H423 0.930 . S
C453 N454 1.330 . S
C453 C455 1.446 . S
N454 Co413 2.151 . S
N454 C453 1.330 . S
N454 C458 1.418 . S
C455 H434 0.929 . S
C455 C453 1.446 . S
C455 C456 1.332 . S
C456 H436 0.931 . S
C456 C455 1.332 . S
C456 C457 1.267 . S
C457 H425 0.929 . S
C457 C456 1.267 . S
C457 C458 1.251 . S
C458 H428 0.929 . S
C458 N454 1.418 . S
C458 C457 1.251 . S
C459 H426 0.930 . S
C459 C461 1.406 1_455 S
C459 C464 1.261 . S
C460 H427 0.930 . S
C460 N462 1.325 . S
C460 C463 1.357 1_655 S
C461 H429 0.928 . S
C461 C459 1.406 1_655 S
C461 N462 1.261 . S
N462 Co413 2.214 . S
N462 C460 1.325 . S
N462 C461 1.261 . S
C463 H433 0.931 . S
C463 C460 1.357 1_455 S
C463 C464 1.312 . S
C464 H435 0.930 . S
C464 C459 1.261 . S
C464 C463 1.312 . S
C465 O437 1.214 . S
C465 O445 1.234 . S
C466 H438 0.929 . S
C466 C469 1.391 . S
C466 C471 1.391 . S
C467 H439 0.929 . S
C467 C468 1.390 . S
C467 N470 1.391 . S
C468 H440 0.930 . S
C468 C467 1.390 . S
C468 C469 1.392 . S
C469 H441 0.929 . S
C469 C466 1.391 . S
C469 C468 1.392 . S
N470 Co414 2.257 . S
N470 C467 1.391 . S
N470 C471 1.388 . S
C471 H442 0.930 . S
C471 C466 1.391 . S
C471 N470 1.388 . S
Co472 O474 2.143 . S
Co472 O480 2.074 . S
Co472 O483 2.093 . S
Co472 O496 2.097 1_455 S
Co472 N513 2.151 . S
Co472 N521 2.214 . S
Co473 O474 2.160 1_655 S
Co473 O479 2.058 1_655 S
Co473 O489 2.057 . S
Co473 O504 2.037 . S
Co473 N508 2.145 . S
Co473 N529 2.257 . S
O474 Co472 2.143 . S
O474 Co473 2.160 1_455 S
C475 O476 1.278 1_455 S
C475 O483 1.224 . S
O476 C475 1.278 1_655 S
C477 O478 1.245 1_655 S
C477 O489 1.232 . S
O478 C477 1.245 1_455 S
O479 Co473 2.058 1_455 S
O479 C505 1.269 . S
O480 Co472 2.074 . S
O480 C505 1.257 . S
H481 C506 0.930 . S
H482 C512 0.930 . S
O483 Co472 2.093 . S
O483 C475 1.224 . S
H484 C516 0.929 . S
H485 C518 0.930 . S
H486 C519 0.930 1_565 S
H487 C517 0.929 . S
H488 C520 0.928 . S
O489 Co473 2.057 . S
O489 C477 1.232 . S
H490 C509 0.929 . S
H491 C510 0.929 . S
H492 C522 0.931 . S
H493 C514 0.929 . S
H494 C523 0.930 . S
H495 C515 0.931 . S
O496 Co472 2.097 1_655 S
O496 C524 1.214 . S
H497 C525 0.929 . S
H498 C526 0.929 . S
H499 C527 0.930 . S
H500 C528 0.929 . S
H501 C530 0.930 . S
H502 C507 0.930 . S
H503 C511 0.930 . S
O504 Co473 2.037 . S
O504 C524 1.234 . S
C505 O479 1.269 . S
C505 O480 1.257 . S
C506 H481 0.930 . S
C506 C509 1.388 . S
C506 C511 1.418 . S
C507 H502 0.930 . S
C507 C510 1.404 . S
C507 C511 1.353 . S
N508 Co473 2.145 . S
N508 C509 1.397 . S
N508 C510 1.334 . S
C509 H490 0.929 . S
C509 C506 1.388 . S
C509 N508 1.397 . S
C510 H491 0.929 . S
C510 C507 1.404 . S
C510 N508 1.334 . S
C511 H503 0.930 . S
C511 C506 1.418 . S
C511 C507 1.353 . S
C512 H482 0.930 . S
C512 N513 1.330 . S
C512 C514 1.446 . S
N513 Co472 2.151 . S
N513 C512 1.330 . S
N513 C517 1.418 . S
C514 H493 0.929 . S
C514 C512 1.446 . S
C514 C515 1.332 . S
C515 H495 0.931 . S
C515 C514 1.332 . S
C515 C516 1.267 . S
C516 H484 0.929 . S
C516 C515 1.267 . S
C516 C517 1.251 . S
C517 H487 0.929 . S
C517 N513 1.418 . S
C517 C516 1.251 . S
C518 H485 0.930 . S
C518 C520 1.406 1_545 S
C518 C523 1.261 . S
C519 H486 0.930 1_545 S
C519 N521 1.325 1_545 S
C519 C522 1.357 . S
C520 H488 0.928 . S
C520 C518 1.406 1_565 S
C520 N521 1.261 . S
N521 Co472 2.214 . S
N521 C519 1.325 1_565 S
N521 C520 1.261 . S
C522 H492 0.931 . S
C522 C519 1.357 . S
C522 C523 1.312 . S
C523 H494 0.930 . S
C523 C518 1.261 . S
C523 C522 1.312 . S
C524 O496 1.214 . S
C524 O504 1.234 . S
C525 H497 0.929 . S
C525 C528 1.391 . S
C525 C530 1.391 . S
C526 H498 0.929 . S
C526 C527 1.390 . S
C526 N529 1.391 . S
C527 H499 0.930 . S
C527 C526 1.390 . S
C527 C528 1.392 . S
C528 H500 0.929 . S
C528 C525 1.391 . S
C528 C527 1.392 . S
N529 Co473 2.257 . S
N529 C526 1.391 . S
N529 C530 1.388 . S
C530 H501 0.930 . S
C530 C525 1.391 . S
C530 N529 1.388 . S
Co531 O533 2.143 . S
Co531 O539 2.074 . S
Co531 O542 2.093 . S
Co531 O555 2.097 . S
Co531 N572 2.151 . S
Co531 N580 2.214 . S
Co532 O533 2.160 1_565 S
Co532 O538 2.058 1_565 S
Co532 O548 2.057 . S
Co532 O563 2.037 . S
Co532 N567 2.145 . S
Co532 N588 2.257 . S
O533 Co531 2.143 . S
O533 Co532 2.160 1_545 S
C534 O535 1.278 1_545 S
C534 O542 1.224 . S
O535 C534 1.278 1_565 S
C536 O537 1.245 1_565 S
C536 O548 1.232 . S
O537 C536 1.245 1_545 S
O538 Co532 2.058 1_545 S
O538 C564 1.269 . S
O539 Co531 2.074 . S
O539 C564 1.257 . S
H540 C565 0.930 . S
H541 C571 0.930 . S
O542 Co531 2.093 . S
O542 C534 1.224 . S
H543 C575 0.929 . S
H544 C577 0.930 . S
H545 C578 0.930 . S
H546 C576 0.929 . S
H547 C579 0.928 . S
O548 Co532 2.057 . S
O548 C536 1.232 . S
H549 C568 0.929 . S
H550 C569 0.929 . S
H551 C581 0.931 . S
H552 C573 0.929 . S
H553 C582 0.930 . S
H554 C574 0.931 . S
O555 Co531 2.097 . S
O555 C583 1.214 1_545 S
H556 C584 0.929 . S
H557 C585 0.929 . S
H558 C586 0.930 . S
H559 C587 0.929 . S
H560 C589 0.930 . S
H561 C566 0.930 . S
H562 C570 0.930 . S
O563 Co532 2.037 . S
O563 C583 1.234 . S
C564 O538 1.269 . S
C564 O539 1.257 . S
C565 H540 0.930 . S
C565 C568 1.388 . S
C565 C570 1.418 . S
C566 H561 0.930 . S
C566 C569 1.404 . S
C566 C570 1.353 . S
N567 Co532 2.145 . S
N567 C568 1.397 . S
N567 C569 1.334 . S
C568 H549 0.929 . S
C568 C565 1.388 . S
C568 N567 1.397 . S
C569 H550 0.929 . S
C569 C566 1.404 . S
C569 N567 1.334 . S
C570 H562 0.930 . S
C570 C565 1.418 . S
C570 C566 1.353 . S
C571 H541 0.930 . S
C571 N572 1.330 . S
C571 C573 1.446 . S
N572 Co531 2.151 . S
N572 C571 1.330 . S
N572 C576 1.418 . S
C573 H552 0.929 . S
C573 C571 1.446 . S
C573 C574 1.332 . S
C574 H554 0.931 . S
C574 C573 1.332 . S
C574 C575 1.267 . S
C575 H543 0.929 . S
C575 C574 1.267 . S
C575 C576 1.251 . S
C576 H546 0.929 . S
C576 N572 1.418 . S
C576 C575 1.251 . S
C577 H544 0.930 . S
C577 C579 1.406 . S
C577 C582 1.261 . S
C578 H545 0.930 . S
C578 N580 1.325 . S
C578 C581 1.357 . S
C579 H547 0.928 . S
C579 C577 1.406 . S
C579 N580 1.261 . S
N580 Co531 2.214 . S
N580 C578 1.325 . S
N580 C579 1.261 . S
C581 H551 0.931 . S
C581 C578 1.357 . S
C581 C582 1.312 . S
C582 H553 0.930 . S
C582 C577 1.261 . S
C582 C581 1.312 . S
C583 O555 1.214 1_565 S
C583 O563 1.234 . S
C584 H556 0.929 . S
C584 C587 1.391 . S
C584 C589 1.391 . S
C585 H557 0.929 . S
C585 C586 1.390 . S
C585 N588 1.391 . S
C586 H558 0.930 . S
C586 C585 1.390 . S
C586 C587 1.392 . S
C587 H559 0.929 . S
C587 C584 1.391 . S
C587 C586 1.392 . S
N588 Co532 2.257 . S
N588 C585 1.391 . S
N588 C589 1.388 . S
C589 H560 0.930 . S
C589 C584 1.391 . S
C589 N588 1.388 . S
Co590 O592 2.143 . S
Co590 O598 2.074 . S
Co590 O601 2.093 . S
Co590 O614 2.097 . S
Co590 N631 2.151 . S
Co590 N639 2.214 . S
Co591 O592 2.160 . S
Co591 O597 2.058 . S
Co591 O607 2.057 . S
Co591 O622 2.037 . S
Co591 N626 2.145 . S
Co591 N647 2.257 . S
O592 Co590 2.143 . S
O592 Co591 2.160 . S
C593 O594 1.278 . S
C593 O601 1.224 . S
O594 C593 1.278 . S
C595 O596 1.245 . S
C595 O607 1.232 . S
O596 C595 1.245 . S
O597 Co591 2.058 . S
O597 C623 1.269 . S
O598 Co590 2.074 . S
O598 C623 1.257 . S
H599 C624 0.934 . S
H600 C630 0.930 . S
O601 Co590 2.093 . S
O601 C593 1.224 . S
H602 C634 0.929 . S
H603 C636 0.930 . S
H604 C637 0.930 . S
H605 C635 0.929 . S
H606 C638 0.928 . S
O607 Co591 2.057 . S
O607 C595 1.232 . S
H608 C627 0.929 . S
H609 C628 0.929 . S
H610 C640 0.931 . S
H611 C632 0.929 . S
H612 C641 0.930 . S
H613 C633 0.931 . S
O614 Co590 2.097 . S
O614 C642 1.214 . S
H615 C643 0.929 . S
H616 C644 0.929 . S
H617 C645 0.930 . S
H618 C646 0.929 . S
H619 C648 0.930 . S
H620 C625 0.946 . S
H621 C629 0.930 . S
O622 Co591 2.037 . S
O622 C642 1.234 . S
C623 O597 1.269 . S
C623 O598 1.257 . S
C624 H599 0.934 . S
C624 C627 1.382 1_554 S
C624 C629 1.419 . S
C625 H620 0.946 . S
C625 C628 1.404 . S
C625 C629 1.353 1_556 S
N626 Co591 2.145 . S
N626 C627 1.397 . S
N626 C628 1.334 . S
C627 H608 0.929 . S
C627 C624 1.382 1_556 S
C627 N626 1.397 . S
C628 H609 0.929 . S
C628 C625 1.404 . S
C628 N626 1.334 . S
C629 H621 0.930 . S
C629 C624 1.419 . S
C629 C625 1.353 1_554 S
C630 H600 0.930 . S
C630 N631 1.330 . S
C630 C632 1.446 . S
N631 Co590 2.151 . S
N631 C630 1.330 . S
N631 C635 1.418 . S
C632 H611 0.929 . S
C632 C630 1.446 . S
C632 C633 1.332 . S
C633 H613 0.931 . S
C633 C632 1.332 . S
C633 C634 1.267 . S
C634 H602 0.929 . S
C634 C633 1.267 . S
C634 C635 1.251 . S
C635 H605 0.929 . S
C635 N631 1.418 . S
C635 C634 1.251 . S
C636 H603 0.930 . S
C636 C638 1.406 1_655 S
C636 C641 1.261 . S
C637 H604 0.930 . S
C637 N639 1.325 . S
C637 C640 1.357 1_455 S
C638 H606 0.928 . S
C638 C636 1.406 1_455 S
C638 N639 1.261 . S
N639 Co590 2.214 . S
N639 C637 1.325 . S
N639 C638 1.261 . S
C640 H610 0.931 . S
C640 C637 1.357 1_655 S
C640 C641 1.312 . S
C641 H612 0.930 . S
C641 C636 1.261 . S
C641 C640 1.312 . S
C642 O614 1.214 . S
C642 O622 1.234 . S
C643 H615 0.929 . S
C643 C646 1.391 . S
C643 C648 1.391 . S
C644 H616 0.929 . S
C644 C645 1.390 . S
C644 N647 1.391 . S
C645 H617 0.930 . S
C645 C644 1.390 . S
C645 C646 1.392 . S
C646 H618 0.929 . S
C646 C643 1.391 . S
C646 C645 1.392 . S
N647 Co591 2.257 . S
N647 C644 1.391 . S
N647 C648 1.388 . S
C648 H619 0.930 . S
C648 C643 1.391 . S
C648 N647 1.388 . S
Co649 O651 2.143 . S
Co649 O657 2.074 . S
Co649 O660 2.093 . S
Co649 O673 2.097 1_655 S
Co649 N690 2.151 . S
Co649 N698 2.214 . S
Co650 O651 2.160 1_455 S
Co650 O656 2.058 1_455 S
Co650 O666 2.057 . S
Co650 O681 2.037 . S
Co650 N685 2.145 . S
Co650 N706 2.257 . S
O651 Co649 2.143 . S
O651 Co650 2.160 1_655 S
C652 O653 1.278 1_655 S
C652 O660 1.224 . S
O653 C652 1.278 1_455 S
C654 O655 1.245 1_455 S
C654 O666 1.232 . S
O655 C654 1.245 1_655 S
O656 Co650 2.058 1_655 S
O656 C682 1.269 . S
O657 Co649 2.074 . S
O657 C682 1.257 . S
H658 C683 0.930 . S
H659 C689 0.930 . S
O660 Co649 2.093 . S
O660 C652 1.224 . S
H661 C693 0.929 . S
H662 C695 0.930 . S
H663 C696 0.930 1_545 S
H664 C694 0.929 . S
H665 C697 0.928 . S
O666 Co650 2.057 . S
O666 C654 1.232 . S
H667 C686 0.929 . S
H668 C687 0.929 . S
H669 C699 0.931 . S
H670 C691 0.929 . S
H671 C700 0.930 . S
H672 C692 0.931 . S
O673 Co649 2.097 1_455 S
O673 C701 1.214 . S
H674 C702 0.929 . S
H675 C703 0.929 . S
H676 C704 0.930 . S
H677 C705 0.929 . S
H678 C707 0.930 . S
H679 C684 0.930 . S
H680 C688 0.930 . S
O681 Co650 2.037 . S
O681 C701 1.234 . S
C682 O656 1.269 . S
C682 O657 1.257 . S
C683 H658 0.930 . S
C683 C686 1.388 . S
C683 C688 1.418 . S
C684 H679 0.930 . S
C684 C687 1.404 . S
C684 C688 1.353 . S
N685 Co650 2.145 . S
N685 C686 1.397 . S
N685 C687 1.334 . S
C686 H667 0.929 . S
C686 C683 1.388 . S
C686 N685 1.397 . S
C687 H668 0.929 . S
C687 C684 1.404 . S
C687 N685 1.334 . S
C688 H680 0.930 . S
C688 C683 1.418 . S
C688 C684 1.353 . S
C689 H659 0.930 . S
C689 N690 1.330 . S
C689 C691 1.446 . S
N690 Co649 2.151 . S
N690 C689 1.330 . S
N690 C694 1.418 . S
C691 H670 0.929 . S
C691 C689 1.446 . S
C691 C692 1.332 . S
C692 H672 0.931 . S
C692 C691 1.332 . S
C692 C693 1.267 . S
C693 H661 0.929 . S
C693 C692 1.267 . S
C693 C694 1.251 . S
C694 H664 0.929 . S
C694 N690 1.418 . S
C694 C693 1.251 . S
C695 H662 0.930 . S
C695 C697 1.406 1_565 S
C695 C700 1.261 . S
C696 H663 0.930 1_565 S
C696 N698 1.325 1_565 S
C696 C699 1.357 . S
C697 H665 0.928 . S
C697 C695 1.406 1_545 S
C697 N698 1.261 . S
N698 Co649 2.214 . S
N698 C696 1.325 1_545 S
N698 C697 1.261 . S
C699 H669 0.931 . S
C699 C696 1.357 . S
C699 C700 1.312 . S
C700 H671 0.930 . S
C700 C695 1.261 . S
C700 C699 1.312 . S
C701 O673 1.214 . S
C701 O681 1.234 . S
C702 H674 0.929 . S
C702 C705 1.391 . S
C702 C707 1.391 . S
C703 H675 0.929 . S
C703 C704 1.390 . S
C703 N706 1.391 . S
C704 H676 0.930 . S
C704 C703 1.390 . S
C704 C705 1.392 . S
C705 H677 0.929 . S
C705 C702 1.391 . S
C705 C704 1.392 . S
N706 Co650 2.257 . S
N706 C703 1.391 . S
N706 C707 1.388 . S
C707 H678 0.930 . S
C707 C702 1.391 . S
C707 N706 1.388 . S
C708 C709 1.363 . S
C708 C714 1.379 1_655 S
C708 N716 1.356 . S
C709 C708 1.363 . S
C709 C715 1.363 1_655 S
C710 C711 1.363 . S
C710 C715 1.379 . S
C710 N717 1.356 . S
C711 C710 1.363 . S
C711 C714 1.363 . S
N712 C714 1.356 . S
N712 H724 0.984 . S
N712 H725 0.985 . S
N713 C715 1.356 1_655 S
N713 H718 0.984 . S
N713 H719 0.985 . S
C714 C708 1.379 1_455 S
C714 C711 1.363 . S
C714 N712 1.356 . S
C715 C709 1.363 1_455 S
C715 C710 1.379 . S
C715 N713 1.356 1_455 S
N716 C708 1.356 . S
N716 H722 0.984 . S
N716 H723 0.984 . S
N717 C710 1.356 . S
N717 H720 0.984 . S
N717 H721 0.985 . S
H718 N713 0.984 . S
H719 N713 0.985 . S
H720 N717 0.984 . S
H721 N717 0.985 . S
H722 N716 0.984 . S
H723 N716 0.984 . S
H724 N712 0.984 . S
H725 N712 0.985 . S
C726 C727 1.363 1_565 S
C726 C732 1.379 . S
C726 N734 1.356 . S
C727 C726 1.363 1_545 S
C727 C733 1.363 . S
C728 C729 1.363 . S
C728 C733 1.379 1_565 S
C728 N735 1.356 . S
C729 C728 1.363 . S
C729 C732 1.363 . S
N730 C732 1.356 . S
N730 H742 0.984 . S
N730 H743 0.985 . S
N731 C733 1.356 . S
N731 H736 0.984 . S
N731 H737 0.985 . S
C732 C726 1.379 . S
C732 C729 1.363 . S
C732 N730 1.356 . S
C733 C727 1.363 . S
C733 C728 1.379 1_545 S
C733 N731 1.356 . S
N734 C726 1.356 . S
N734 H740 0.984 . S
N734 H741 0.984 . S
N735 C728 1.356 . S
N735 H738 0.984 . S
N735 H739 0.985 1_565 S
H736 N731 0.984 . S
H737 N731 0.985 . S
H738 N735 0.984 . S
H739 N735 0.985 1_545 S
H740 N734 0.984 . S
H741 N734 0.984 . S
H742 N730 0.984 . S
H743 N730 0.985 . S
C744 C745 1.363 . S
C744 C750 1.379 . S
C744 N752 1.356 . S
C745 C744 1.363 . S
C745 C751 1.363 . S
C746 C747 1.363 . S
C746 C751 1.379 . S
C746 N753 1.356 . S
C747 C746 1.363 . S
C747 C750 1.363 . S
N748 C750 1.356 . S
N748 H760 0.984 . S
N748 H761 0.985 . S
N749 C751 1.356 . S
N749 H754 0.984 . S
N749 H755 0.985 . S
C750 C744 1.379 . S
C750 C747 1.363 . S
C750 N748 1.356 . S
C751 C745 1.363 . S
C751 C746 1.379 . S
C751 N749 1.356 . S
N752 C744 1.356 . S
N752 H758 0.984 . S
N752 H759 0.984 . S
N753 C746 1.356 . S
N753 H756 0.984 . S
N753 H757 0.985 . S
H754 N749 0.984 . S
H755 N749 0.985 . S
H756 N753 0.984 . S
H757 N753 0.985 . S
H758 N752 0.984 . S
H759 N752 0.984 . S
H760 N748 0.984 . S
H761 N748 0.985 . S
C762 C763 1.363 . S
C762 C768 1.379 . S
C762 N770 1.356 . S
C763 C762 1.363 . S
C763 C769 1.363 1_655 S
C764 C765 1.363 . S
C764 C769 1.379 . S
C764 N771 1.356 . S
C765 C764 1.363 . S
C765 C768 1.363 1_455 S
N766 C768 1.356 . S
N766 H778 0.984 . S
N766 H779 0.985 . S
N767 C769 1.356 . S
N767 H772 0.984 . S
N767 H773 0.985 . S
C768 C762 1.379 . S
C768 C765 1.363 1_655 S
C768 N766 1.356 . S
C769 C763 1.363 1_455 S
C769 C764 1.379 . S
C769 N767 1.356 . S
N770 C762 1.356 . S
N770 H776 0.984 . S
N770 H777 0.984 . S
N771 C764 1.356 . S
N771 H774 0.984 . S
N771 H775 0.985 . S
H772 N767 0.984 . S
H773 N767 0.985 . S
H774 N771 0.984 . S
H775 N771 0.985 . S
H776 N770 0.984 . S
H777 N770 0.984 . S
H778 N766 0.984 . S
H779 N766 0.985 . S
C780 C781 1.363 . S
C780 C786 1.379 . S
C780 N788 1.356 . S
C781 C780 1.363 . S
C781 C787 1.363 1_545 S
C782 C783 1.363 . S
C782 C787 1.379 . S
C782 N789 1.356 . S
C783 C782 1.363 . S
C783 C786 1.363 1_565 S
N784 C786 1.356 . S
N784 H796 0.984 . S
N784 H797 0.985 . S
N785 C787 1.356 . S
N785 H790 0.984 . S
N785 H791 0.985 . S
C786 C780 1.379 . S
C786 C783 1.363 1_545 S
C786 N784 1.356 . S
C787 C781 1.363 1_565 S
C787 C782 1.379 . S
C787 N785 1.356 . S
N788 C780 1.356 . S
N788 H794 0.984 . S
N788 H795 0.984 . S
N789 C782 1.356 . S
N789 H792 0.984 . S
N789 H793 0.985 . S
H790 N785 0.984 . S
H791 N785 0.985 . S
H792 N789 0.984 . S
H793 N789 0.985 . S
H794 N788 0.984 . S
H795 N788 0.984 . S
H796 N784 0.984 . S
H797 N784 0.985 . S
C798 C799 1.363 . S
C798 C804 1.379 . S
C798 N806 1.356 . S
C799 C798 1.363 . S
C799 C805 1.363 . S
C800 C801 1.363 . S
C800 C805 1.379 . S
C800 N807 1.356 . S
C801 C800 1.363 . S
C801 C804 1.363 . S
N802 C804 1.356 . S
N802 H814 0.984 . S
N802 H815 0.985 . S
N803 C805 1.356 . S
N803 H808 0.984 . S
N803 H809 0.985 . S
C804 C798 1.379 . S
C804 C801 1.363 . S
C804 N802 1.356 . S
C805 C799 1.363 . S
C805 C800 1.379 . S
C805 N803 1.356 . S
N806 C798 1.356 . S
N806 H812 0.984 . S
N806 H813 0.984 . S
N807 C800 1.356 . S
N807 H810 0.984 . S
N807 H811 0.985 . S
H808 N803 0.984 . S
H809 N803 0.985 . S
H810 N807 0.984 . S
H811 N807 0.985 . S
H812 N806 0.984 . S
H813 N806 0.984 . S
H814 N802 0.984 . S
H815 N802 0.985 . S
C816 C817 1.363 . S
C816 C822 1.379 1_554 S
C816 N824 1.356 . S
C817 C816 1.363 . S
C817 C823 1.363 . S
C818 C819 1.363 . S
C818 C823 1.379 1_556 S
C818 N825 1.356 . S
C819 C818 1.363 . S
C819 C822 1.363 . S
N820 C822 1.356 . S
N820 H832 0.984 . S
N820 H833 0.985 . S
N821 C823 1.356 . S
N821 H826 0.984 . S
N821 H827 0.985 . S
C822 C816 1.379 1_556 S
C822 C819 1.363 . S
C822 N820 1.356 . S
C823 C817 1.363 . S
C823 C818 1.379 1_554 S
C823 N821 1.356 . S
N824 C816 1.356 . S
N824 H830 0.984 . S
N824 H831 0.984 . S
N825 C818 1.356 . S
N825 H828 0.984 . S
N825 H829 0.985 . S
H826 N821 0.984 . S
H827 N821 0.985 . S
H828 N825 0.984 . S
H829 N825 0.985 . S
H830 N824 0.984 . S
H831 N824 0.984 . S
H832 N820 0.984 . S
H833 N820 0.985 . S
C834 C835 1.363 . S
C834 C840 1.379 . S
C834 N842 1.356 . S
C835 C834 1.363 . S
C835 C841 1.363 . S
C836 C837 1.363 . S
C836 C841 1.379 . S
C836 N843 1.356 . S
C837 C836 1.363 . S
C837 C840 1.363 . S
N838 C840 1.356 . S
N838 H850 0.984 . S
N838 H851 0.985 . S
N839 C841 1.367 . S
N839 H844 0.985 . S
N839 H845 0.973 1_545 S
C840 C834 1.379 . S
C840 C837 1.363 . S
C840 N838 1.356 . S
C841 C835 1.363 . S
C841 C836 1.379 . S
C841 N839 1.367 . S
N842 C834 1.356 . S
N842 H848 0.984 . S
N842 H849 0.984 . S
N843 C836 1.356 . S
N843 H846 0.984 . S
N843 H847 0.985 . S
H844 N839 0.985 . S
H845 N839 0.973 1_565 S
H846 N843 0.984 . S
H847 N843 0.985 . S
H848 N842 0.984 . S
H849 N842 0.984 . S
H850 N838 0.984 . S
H851 N838 0.985 . S
C852 C853 1.363 . S
C852 C858 1.379 . S
C852 N860 1.356 . S
C853 C852 1.363 . S
C853 C859 1.363 . S
C854 C855 1.363 . S
C854 C859 1.379 . S
C854 N861 1.356 . S
C855 C854 1.363 . S
C855 C858 1.363 . S
N856 C858 1.356 . S
N856 H868 0.984 . S
N856 H869 0.985 . S
N857 C859 1.356 . S
N857 H862 0.984 . S
N857 H863 0.985 . S
C858 C852 1.379 . S
C858 C855 1.363 . S
C858 N856 1.356 . S
C859 C853 1.363 . S
C859 C854 1.379 . S
C859 N857 1.356 . S
N860 C852 1.356 . S
N860 H866 0.984 . S
N860 H867 0.984 . S
N861 C854 1.356 . S
N861 H864 0.984 . S
N861 H865 0.985 . S
H862 N857 0.984 . S
H863 N857 0.985 . S
H864 N861 0.984 . S
H865 N861 0.985 . S
H866 N860 0.984 . S
H867 N860 0.984 . S
H868 N856 0.984 . S
H869 N856 0.985 . S
C870 C871 1.363 . S
C870 C876 1.379 1_554 S
C870 N878 1.356 . S
C871 C870 1.363 . S
C871 C877 1.363 . S
C872 C873 1.363 . S
C872 C877 1.379 1_556 S
C872 N879 1.356 . S
C873 C872 1.363 . S
C873 C876 1.363 . S
N874 C876 1.356 . S
N874 H886 0.984 . S
N874 H887 0.985 . S
N875 C877 1.356 . S
N875 H880 0.984 . S
N875 H881 0.985 . S
C876 C870 1.379 1_556 S
C876 C873 1.363 . S
C876 N874 1.356 . S
C877 C871 1.363 . S
C877 C872 1.379 1_554 S
C877 N875 1.356 . S
N878 C870 1.356 . S
N878 H884 0.984 . S
N878 H885 0.984 . S
N879 C872 1.356 . S
N879 H882 0.984 . S
N879 H883 0.985 . S
H880 N875 0.984 . S
H881 N875 0.985 . S
H882 N879 0.984 . S
H883 N879 0.985 . S
H884 N878 0.984 . S
H885 N878 0.984 . S
H886 N874 0.984 . S
H887 N874 0.985 . S
C888 C889 1.363 . S
C888 C894 1.379 . S
C888 N896 1.356 . S
C889 C888 1.363 . S
C889 C895 1.363 . S
C890 C891 1.363 . S
C890 C895 1.379 . S
C890 N897 1.356 . S
C891 C890 1.363 . S
C891 C894 1.363 . S
N892 C894 1.356 . S
N892 H904 0.984 1_565 S
N892 H905 0.985 . S
N893 C895 1.356 . S
N893 H898 0.984 . S
N893 H899 0.985 1_455 S
C894 C888 1.379 . S
C894 C891 1.363 . S
C894 N892 1.356 . S
C895 C889 1.363 . S
C895 C890 1.379 . S
C895 N893 1.356 . S
N896 C888 1.356 . S
N896 H902 0.984 . S
N896 H903 0.984 . S
N897 C890 1.356 . S
N897 H900 0.984 . S
N897 H901 0.985 . S
H898 N893 0.984 . S
H899 N893 0.985 1_655 S
H900 N897 0.984 . S
H901 N897 0.985 . S
H902 N896 0.984 . S
H903 N896 0.984 . S
H904 N892 0.984 1_545 S
H905 N892 0.985 . S
C906 C907 1.363 . S
C906 C912 1.379 . S
C906 N914 1.356 . S
C907 C906 1.363 . S
C907 C913 1.363 . S
C908 C909 1.363 . S
C908 C913 1.379 . S
C908 N915 1.356 . S
C909 C908 1.363 . S
C909 C912 1.363 . S
N910 C912 1.356 . S
N910 H922 0.984 . S
N910 H923 0.985 . S
N911 C913 1.356 . S
N911 H916 0.984 . S
N911 H917 0.985 1_545 S
C912 C906 1.379 . S
C912 C909 1.363 . S
C912 N910 1.356 . S
C913 C907 1.363 . S
C913 C908 1.379 . S
C913 N911 1.356 . S
N914 C906 1.356 . S
N914 H920 0.984 . S
N914 H921 0.984 . S
N915 C908 1.356 . S
N915 H918 0.984 . S
N915 H919 0.985 . S
H916 N911 0.984 . S
H917 N911 0.985 1_565 S
H918 N915 0.984 . S
H919 N915 0.985 . S
H920 N914 0.984 . S
H921 N914 0.984 . S
H922 N910 0.984 . S
H923 N910 0.985 . S
C924 C925 1.363 . S
C924 C930 1.379 . S
C924 N932 1.356 . S
C925 C924 1.363 . S
C925 C931 1.363 1_455 S
C926 C927 1.363 . S
C926 C931 1.379 . S
C926 N933 1.356 . S
C927 C926 1.363 . S
C927 C930 1.363 1_655 S
N928 C930 1.356 . S
N928 H940 0.984 . S
N928 H941 0.985 . S
N929 C931 1.356 . S
N929 H934 0.984 . S
N929 H935 0.985 . S
C930 C924 1.379 . S
C930 C927 1.363 1_455 S
C930 N928 1.356 . S
C931 C925 1.363 1_655 S
C931 C926 1.379 . S
C931 N929 1.356 . S
N932 C924 1.356 . S
N932 H938 0.984 . S
N932 H939 0.984 . S
N933 C926 1.356 . S
N933 H936 0.984 . S
N933 H937 0.985 . S
H934 N929 0.984 . S
H935 N929 0.985 . S
H936 N933 0.984 . S
H937 N933 0.985 . S
H938 N932 0.984 . S
H939 N932 0.984 . S
H940 N928 0.984 . S
H941 N928 0.985 . S
C942 C943 1.363 1_545 S
C942 C948 1.379 . S
C942 N950 1.356 . S
C943 C942 1.363 1_565 S
C943 C949 1.363 . S
C944 C945 1.363 1_565 S
C944 C949 1.379 . S
C944 N951 1.356 . S
C945 C944 1.363 1_545 S
C945 C948 1.363 . S
N946 C948 1.356 . S
N946 H958 0.984 . S
N946 H959 0.985 . S
N947 C949 1.356 . S
N947 H952 0.984 . S
N947 H953 0.985 . S
C948 C942 1.379 . S
C948 C945 1.363 . S
C948 N946 1.356 . S
C949 C943 1.363 . S
C949 C944 1.379 . S
C949 N947 1.356 . S
N950 C942 1.356 . S
N950 H956 0.984 . S
N950 H957 0.984 1_545 S
N951 C944 1.356 . S
N951 H954 0.984 1_565 S
N951 H955 0.985 . S
H952 N947 0.984 . S
H953 N947 0.985 . S
H954 N951 0.984 1_545 S
H955 N951 0.985 . S
H956 N950 0.984 . S
H957 N950 0.984 1_565 S
H958 N946 0.984 . S
H959 N946 0.985 . S
C960 C961 1.363 . S
C960 C966 1.379 . S
C960 N968 1.356 . S
C961 C960 1.363 . S
C961 C967 1.363 . S
C962 C963 1.363 . S
C962 C967 1.379 . S
C962 N969 1.356 . S
C963 C962 1.363 . S
C963 C966 1.363 . S
N964 C966 1.356 . S
N964 H976 0.984 . S
N964 H977 0.985 . S
N965 C967 1.356 . S
N965 H970 0.984 . S
N965 H971 0.985 . S
C966 C960 1.379 . S
C966 C963 1.363 . S
C966 N964 1.356 . S
C967 C961 1.363 . S
C967 C962 1.379 . S
C967 N965 1.356 . S
N968 C960 1.356 . S
N968 H974 0.984 . S
N968 H975 0.984 . S
N969 C962 1.356 . S
N969 H972 0.984 . S
N969 H973 0.985 . S
H970 N965 0.984 . S
H971 N965 0.985 . S
H972 N969 0.984 . S
H973 N969 0.985 . S
H974 N968 0.984 . S
H975 N968 0.984 . S
H976 N964 0.984 . S
H977 N964 0.985 . S
C978 C979 1.363 . S
C978 C984 1.379 . S
C978 N986 1.356 . S
C979 C978 1.363 . S
C979 C985 1.363 1_565 S
C980 C981 1.363 . S
C980 C985 1.379 . S
C980 N987 1.356 . S
C981 C980 1.363 . S
C981 C984 1.363 1_545 S
N982 C984 1.356 . S
N982 H994 0.984 . S
N982 H995 0.985 . S
N983 C985 1.356 . S
N983 H988 0.984 . S
N983 H989 0.985 . S
C984 C978 1.379 . S
C984 C981 1.363 1_565 S
C984 N982 1.356 . S
C985 C979 1.363 1_545 S
C985 C980 1.379 . S
C985 N983 1.356 . S
N986 C978 1.356 . S
N986 H992 0.984 . S
N986 H993 0.984 . S
N987 C980 1.356 . S
N987 H990 0.984 . S
N987 H991 0.985 . S
H988 N983 0.984 . S
H989 N983 0.985 . S
H990 N987 0.984 . S
H991 N987 0.985 . S
H992 N986 0.984 . S
H993 N986 0.984 . S
H994 N982 0.984 . S
H995 N982 0.985 . S
C996 C997 1.363 . S
C996 C1002 1.379 . S
C996 N1004 1.356 . S
C997 C996 1.363 . S
C997 C1003 1.363 . S
C998 C999 1.363 . S
C998 C1003 1.379 . S
C998 N1005 1.356 . S
C999 C998 1.363 . S
C999 C1002 1.363 . S
N1000 C1002 1.356 . S
N1000 H1012 0.984 . S
N1000 H1013 0.985 . S
N1001 C1003 1.356 . S
N1001 H1006 0.984 . S
N1001 H1007 0.985 . S
C1002 C996 1.379 . S
C1002 C999 1.363 . S
C1002 N1000 1.356 . S
C1003 C997 1.363 . S
C1003 C998 1.379 . S
C1003 N1001 1.356 . S
N1004 C996 1.356 . S
N1004 H1010 0.984 . S
N1004 H1011 0.984 . S
N1005 C998 1.356 . S
N1005 H1008 0.984 . S
N1005 H1009 0.985 . S
H1006 N1001 0.984 . S
H1007 N1001 0.985 . S
H1008 N1005 0.984 . S
H1009 N1005 0.985 . S
H1010 N1004 0.984 . S
H1011 N1004 0.984 . S
H1012 N1000 0.984 . S
H1013 N1000 0.985 . S
C1014 C1015 1.363 1_455 S
C1014 C1020 1.379 . S
C1014 N1022 1.356 . S
C1015 C1014 1.363 1_655 S
C1015 C1021 1.363 . S
C1016 C1017 1.363 1_655 S
C1016 C1021 1.379 . S
C1016 N1023 1.356 . S
C1017 C1016 1.363 1_455 S
C1017 C1020 1.363 . S
N1018 C1020 1.356 . S
N1018 H1030 0.984 . S
N1018 H1031 0.985 . S
N1019 C1021 1.356 . S
N1019 H1024 0.984 . S
N1019 H1025 0.985 . S
C1020 C1014 1.379 . S
C1020 C1017 1.363 . S
C1020 N1018 1.356 . S
C1021 C1015 1.363 . S
C1021 C1016 1.379 . S
C1021 N1019 1.356 . S
N1022 C1014 1.356 . S
N1022 H1028 0.984 . S
N1022 H1029 0.984 1_455 S
N1023 C1016 1.356 . S
N1023 H1026 0.984 1_655 S
N1023 H1027 0.985 . S
H1024 N1019 0.984 . S
H1025 N1019 0.985 . S
H1026 N1023 0.984 1_455 S
H1027 N1023 0.985 . S
H1028 N1022 0.984 . S
H1029 N1022 0.984 1_655 S
H1030 N1018 0.984 . S
H1031 N1018 0.985 . S
C1032 C1033 1.363 1_455 S
C1032 C1038 1.379 . S
C1032 N1040 1.356 . S
C1033 C1032 1.363 1_655 S
C1033 C1039 1.363 1_545 S
C1034 C1035 1.363 1_655 S
C1034 C1039 1.379 . S
C1034 N1041 1.356 . S
C1035 C1034 1.363 1_455 S
C1035 C1038 1.363 1_565 S
N1036 C1038 1.356 1_565 S
N1036 H1048 0.984 1_565 S
N1036 H1049 0.985 . S
N1037 C1039 1.356 1_545 S
N1037 H1042 0.984 . S
N1037 H1043 0.985 1_545 S
C1038 C1032 1.379 . S
C1038 C1035 1.363 1_545 S
C1038 N1036 1.356 1_545 S
C1039 C1033 1.363 1_565 S
C1039 C1034 1.379 . S
C1039 N1037 1.356 1_565 S
N1040 C1032 1.356 . S
N1040 H1046 0.984 . S
N1040 H1047 0.969 1_455 S
N1041 C1034 1.356 . S
N1041 H1044 0.984 1_655 S
N1041 H1045 0.985 . S
H1042 N1037 0.984 . S
H1043 N1037 0.985 1_565 S
H1044 N1041 0.984 1_455 S
H1045 N1041 0.985 . S
H1046 N1040 0.984 . S
H1047 N1040 0.969 1_655 S
H1048 N1036 0.984 1_545 S
H1049 N1036 0.985 . S
C1050 C1051 1.363 . S
C1050 C1056 1.379 1_655 S
C1050 N1058 1.356 . S
C1051 C1050 1.363 . S
C1051 C1057 1.363 1_565 S
C1052 C1053 1.363 . S
C1052 C1057 1.379 1_455 S
C1052 N1059 1.356 . S
C1053 C1052 1.363 . S
C1053 C1056 1.363 1_545 S
N1054 C1056 1.356 . S
N1054 H1066 0.984 . S
N1054 H1067 0.985 1_565 S
N1055 C1057 1.356 . S
N1055 H1060 0.984 1_545 S
N1055 H1061 0.985 . S
C1056 C1050 1.379 1_455 S
C1056 C1053 1.363 1_565 S
C1056 N1054 1.356 . S
C1057 C1051 1.363 1_545 S
C1057 C1052 1.379 1_655 S
C1057 N1055 1.356 . S
N1058 C1050 1.356 . S
N1058 H1064 0.984 . S
N1058 H1065 0.984 . S
N1059 C1052 1.356 . S
N1059 H1062 0.984 . S
N1059 H1063 0.985 . S
H1060 N1055 0.984 1_565 S
H1061 N1055 0.985 . S
H1062 N1059 0.984 . S
H1063 N1059 0.985 . S
H1064 N1058 0.984 . S
H1065 N1058 0.984 . S
H1066 N1054 0.984 . S
H1067 N1054 0.985 1_545 S
C1068 C1069 1.363 . S
C1068 C1074 1.379 1_445 S
C1068 N1076 1.356 . S
C1069 C1068 1.363 . S
C1069 C1075 1.363 . S
C1070 C1071 1.363 . S
C1070 C1075 1.379 1_665 S
C1070 N1077 1.356 . S
C1071 C1070 1.363 . S
C1071 C1074 1.363 . S
N1072 C1074 1.356 . S
N1072 H1084 0.984 . S
N1072 H1085 0.985 . S
N1073 C1075 1.356 . S
N1073 H1078 0.984 . S
N1073 H1079 0.985 . S
C1074 C1068 1.379 1_665 S
C1074 C1071 1.363 . S
C1074 N1072 1.356 . S
C1075 C1069 1.363 . S
C1075 C1070 1.379 1_445 S
C1075 N1073 1.356 . S
N1076 C1068 1.356 . S
N1076 H1082 0.984 1_455 S
N1076 H1083 0.984 . S
N1077 C1070 1.356 . S
N1077 H1080 0.984 . S
N1077 H1081 0.985 1_655 S
H1078 N1073 0.984 . S
H1079 N1073 0.985 . S
H1080 N1077 0.984 . S
H1081 N1077 0.985 1_455 S
H1082 N1076 0.984 1_655 S
H1083 N1076 0.984 . S
H1084 N1072 0.984 . S
H1085 N1072 0.985 . S
C1086 C1087 1.363 1_565 S
C1086 C1092 1.379 . S
C1086 N1094 1.356 . S
C1087 C1086 1.363 1_545 S
C1087 C1093 1.363 1_655 S
C1088 C1089 1.363 1_545 S
C1088 C1093 1.379 . S
C1088 N1095 1.356 . S
C1089 C1088 1.363 1_565 S
C1089 C1092 1.363 1_455 S
N1090 C1092 1.356 1_455 S
N1090 H1102 0.984 1_455 S
N1090 H1103 0.985 . S
N1091 C1093 1.356 1_655 S
N1091 H1096 0.984 . S
N1091 H1097 0.985 1_655 S
C1092 C1086 1.379 . S
C1092 C1089 1.363 1_655 S
C1092 N1090 1.356 1_655 S
C1093 C1087 1.363 1_455 S
C1093 C1088 1.379 . S
C1093 N1091 1.356 1_455 S
N1094 C1086 1.356 . S
N1094 H1100 0.984 . S
N1094 H1101 0.984 . S
N1095 C1088 1.356 . S
N1095 H1098 0.984 . S
N1095 H1099 0.985 . S
H1096 N1091 0.984 . S
H1097 N1091 0.985 1_455 S
H1098 N1095 0.984 . S
H1099 N1095 0.985 . S
H1100 N1094 0.984 . S
H1101 N1094 0.984 . S
H1102 N1090 0.984 1_655 S
H1103 N1090 0.985 . S
C1104 C1105 1.363 1_545 S
C1104 C1110 1.379 1_655 S
C1104 N1112 1.356 . S
C1105 C1104 1.363 1_565 S
C1105 C1111 1.363 . S
C1106 C1107 1.363 1_565 S
C1106 C1111 1.379 1_455 S
C1106 N1113 1.356 . S
C1107 C1106 1.363 1_545 S
C1107 C1110 1.363 . S
N1108 C1110 1.356 . S
N1108 H1120 0.984 . S
N1108 H1121 0.985 . S
N1109 C1111 1.356 . S
N1109 H1114 0.984 . S
N1109 H1115 0.985 . S
C1110 C1104 1.379 1_455 S
C1110 C1107 1.363 . S
C1110 N1108 1.356 . S
C1111 C1105 1.363 . S
C1111 C1106 1.379 1_655 S
C1111 N1109 1.356 . S
N1112 C1104 1.356 . S
N1112 H1118 0.984 . S
N1112 H1119 0.984 1_545 S
N1113 C1106 1.356 . S
N1113 H1116 0.984 1_565 S
N1113 H1117 0.985 . S
H1114 N1109 0.984 . S
H1115 N1109 0.985 . S
H1116 N1113 0.984 1_545 S
H1117 N1113 0.985 . S
H1118 N1112 0.984 . S
H1119 N1112 0.984 1_565 S
H1120 N1108 0.984 . S
H1121 N1108 0.985 . S
C1122 C1123 1.363 . S
C1122 C1128 1.379 1_565 S
C1122 N1130 1.356 . S
C1123 C1122 1.363 . S
C1123 C1129 1.363 1_655 S
C1124 C1125 1.363 . S
C1124 C1129 1.379 1_545 S
C1124 N1131 1.356 . S
C1125 C1124 1.363 . S
C1125 C1128 1.363 1_455 S
N1126 C1128 1.356 . S
N1126 H1138 0.984 . S
N1126 H1139 0.985 1_655 S
N1127 C1129 1.356 . S
N1127 H1132 0.984 1_455 S
N1127 H1133 0.985 . S
C1128 C1122 1.379 1_545 S
C1128 C1125 1.363 1_655 S
C1128 N1126 1.356 . S
C1129 C1123 1.363 1_455 S
C1129 C1124 1.379 1_565 S
C1129 N1127 1.356 . S
N1130 C1122 1.356 . S
N1130 H1136 0.984 . S
N1130 H1137 0.984 . S
N1131 C1124 1.356 . S
N1131 H1134 0.984 . S
N1131 H1135 0.985 . S
H1132 N1127 0.984 1_655 S
H1133 N1127 0.985 . S
H1134 N1131 0.984 . S
H1135 N1131 0.985 . S
H1136 N1130 0.984 . S
H1137 N1130 0.984 . S
H1138 N1126 0.984 . S
H1139 N1126 0.985 1_455 S
C709 C652 1.482 . S
C711 C3 1.479 . S
C727 C62 1.493 . S
C729 C357 1.486 . S
C745 C121 1.482 . S
C747 C416 1.493 . S
C763 C180 1.480 . S
C765 C475 1.483 . S
C781 C534 1.486 . S
C783 C239 1.493 . S
C799 C298 1.481 . S
C801 C593 1.491 . S
C817 C33 1.363 . S
C819 C623 1.368 . S
C835 C92 1.366 . S
C837 C682 1.366 . S
C853 C151 1.346 . S
C855 C387 1.347 . S
C871 C210 1.361 . S
C873 C446 1.366 . S
C889 C505 1.364 . S
C891 C269 1.364 . S
C907 C564 1.348 . S
C909 C328 1.348 . S
C925 C182 1.555 . S
C927 C5 1.555 . S
C943 C64 1.646 . S
C945 C241 1.646 . S
C961 C300 1.487 . S
C963 C123 1.487 . S
C979 C536 1.519 . S
C981 C359 1.519 . S
C997 C595 1.727 . S
C999 C418 1.727 . S
C1015 C477 1.627 . S
C1017 C654 1.627 . S
C1033 C52 1.431 . S
C1035 C229 1.431 . S
C1051 C111 1.558 . S
C1053 C288 1.558 . S
C1069 C347 1.395 . S
C1071 C170 1.395 . S
C1087 C406 1.443 . S
C1089 C583 1.443 . S
C1105 C465 1.649 . S
C1107 C642 1.649 . S
C1123 C524 1.522 . S
C1125 C701 1.522 . S
