# Generated by pormake.
# Topology uke, (4)-cn, num edge types: 1
# Building blocks:
#     Node 0, Type 0, BuildingBlock: TATPOV_clean_sbu_0, # of connection points: 4
#     Node 1, Type 0, BuildingBlock: TATPOV_clean_sbu_0, # of connection points: 4
#     Node 2, Type 0, BuildingBlock: TATPOV_clean_sbu_0, # of connection points: 4
#     Node 3, Type 0, BuildingBlock: TATPOV_clean_sbu_0, # of connection points: 4
#     Node 4, Type 0, BuildingBlock: TATPOV_clean_sbu_0, # of connection points: 4
#     Node 5, Type 0, BuildingBlock: TATPOV_clean_sbu_0, # of connection points: 4
#     Node 6, Type 0, BuildingBlock: TATPOV_clean_sbu_0, # of connection points: 4
#     Node 7, Type 0, BuildingBlock: TATPOV_clean_sbu_0, # of connection points: 4
#     Node 8, Type 0, BuildingBlock: TATPOV_clean_sbu_0, # of connection points: 4
#     Node 9, Type 0, BuildingBlock: TATPOV_clean_sbu_0, # of connection points: 4
#     Node 10, Type 0, BuildingBlock: TATPOV_clean_sbu_0, # of connection points: 4
#     Node 11, Type 0, BuildingBlock: TATPOV_clean_sbu_0, # of connection points: 4
#     Node 12, Type 0, BuildingBlock: TATPOV_clean_sbu_0, # of connection points: 4
#     Node 13, Type 0, BuildingBlock: TATPOV_clean_sbu_0, # of connection points: 4
#     Node 14, Type 0, BuildingBlock: TATPOV_clean_sbu_0, # of connection points: 4
#     Node 15, Type 0, BuildingBlock: TATPOV_clean_sbu_0, # of connection points: 4
#     Node 16, Type 0, BuildingBlock: TATPOV_clean_sbu_0, # of connection points: 4
#     Node 17, Type 0, BuildingBlock: TATPOV_clean_sbu_0, # of connection points: 4
#     Node 18, Type 0, BuildingBlock: TATPOV_clean_sbu_0, # of connection points: 4
#     Node 19, Type 0, BuildingBlock: TATPOV_clean_sbu_0, # of connection points: 4
#     Node 20, Type 0, BuildingBlock: TATPOV_clean_sbu_0, # of connection points: 4
#     Node 21, Type 0, BuildingBlock: TATPOV_clean_sbu_0, # of connection points: 4
#     Node 22, Type 0, BuildingBlock: TATPOV_clean_sbu_0, # of connection points: 4
#     Node 23, Type 0, BuildingBlock: TATPOV_clean_sbu_0, # of connection points: 4
#     Node 24, Type 0, BuildingBlock: TATPOV_clean_sbu_0, # of connection points: 4
#     Node 25, Type 0, BuildingBlock: TATPOV_clean_sbu_0, # of connection points: 4
#     Node 26, Type 0, BuildingBlock: TATPOV_clean_sbu_0, # of connection points: 4
#     Node 27, Type 0, BuildingBlock: TATPOV_clean_sbu_0, # of connection points: 4
#     Node 28, Type 0, BuildingBlock: TATPOV_clean_sbu_0, # of connection points: 4
#     Node 29, Type 0, BuildingBlock: TATPOV_clean_sbu_0, # of connection points: 4
#     Node 30, Type 0, BuildingBlock: TATPOV_clean_sbu_0, # of connection points: 4
#     Node 31, Type 0, BuildingBlock: TATPOV_clean_sbu_0, # of connection points: 4
#     Edge 32, Type (0, 0), None
#     Edge 33, Type (0, 0), None
#     Edge 34, Type (0, 0), None
#     Edge 35, Type (0, 0), None
#     Edge 36, Type (0, 0), None
#     Edge 37, Type (0, 0), None
#     Edge 38, Type (0, 0), None
#     Edge 39, Type (0, 0), None
#     Edge 40, Type (0, 0), None
#     Edge 41, Type (0, 0), None
#     Edge 42, Type (0, 0), None
#     Edge 43, Type (0, 0), None
#     Edge 44, Type (0, 0), None
#     Edge 45, Type (0, 0), None
#     Edge 46, Type (0, 0), None
#     Edge 47, Type (0, 0), None
#     Edge 48, Type (0, 0), None
#     Edge 49, Type (0, 0), None
#     Edge 50, Type (0, 0), None
#     Edge 51, Type (0, 0), None
#     Edge 52, Type (0, 0), None
#     Edge 53, Type (0, 0), None
#     Edge 54, Type (0, 0), None
#     Edge 55, Type (0, 0), None
#     Edge 56, Type (0, 0), None
#     Edge 57, Type (0, 0), None
#     Edge 58, Type (0, 0), None
#     Edge 59, Type (0, 0), None
#     Edge 60, Type (0, 0), None
#     Edge 61, Type (0, 0), None
#     Edge 62, Type (0, 0), None
#     Edge 63, Type (0, 0), None
#     Edge 64, Type (0, 0), None
#     Edge 65, Type (0, 0), None
#     Edge 66, Type (0, 0), None
#     Edge 67, Type (0, 0), None
#     Edge 68, Type (0, 0), None
#     Edge 69, Type (0, 0), None
#     Edge 70, Type (0, 0), None
#     Edge 71, Type (0, 0), None
#     Edge 72, Type (0, 0), None
#     Edge 73, Type (0, 0), None
#     Edge 74, Type (0, 0), None
#     Edge 75, Type (0, 0), None
#     Edge 76, Type (0, 0), None
#     Edge 77, Type (0, 0), None
#     Edge 78, Type (0, 0), None
#     Edge 79, Type (0, 0), None
#     Edge 80, Type (0, 0), None
#     Edge 81, Type (0, 0), None
#     Edge 82, Type (0, 0), None
#     Edge 83, Type (0, 0), None
#     Edge 84, Type (0, 0), None
#     Edge 85, Type (0, 0), None
#     Edge 86, Type (0, 0), None
#     Edge 87, Type (0, 0), None
#     Edge 88, Type (0, 0), None
#     Edge 89, Type (0, 0), None
#     Edge 90, Type (0, 0), None
#     Edge 91, Type (0, 0), None
#     Edge 92, Type (0, 0), None
#     Edge 93, Type (0, 0), None
#     Edge 94, Type (0, 0), None
#     Edge 95, Type (0, 0), None
# Relax obj value: 0.163
# Max RMSD: 0.208
# Mean RMSD: 0.208
data_MOF--net-uke--node1-TATPOV_clean_sbu_0--edge1-none
_symmetry_space_group_name_H-M    P1
_symmetry_Int_Tables_number       1
_symmetry_cell_setting            triclinic
loop_
_symmetry_equiv_pos_as_xyz
'x, y, z'
_cell_length_a     13.865534
_cell_length_b     46.871978
_cell_length_c     22.268717
_cell_angle_alpha  89.995509
_cell_angle_beta   90.000051
_cell_angle_gamma 90.001566
loop_
_atom_site_label
_atom_site_type_symbol
_atom_site_fract_x
_atom_site_fract_y
_atom_site_fract_z
_atom_type_partial_charge
Zn0 Zn 0.20821 0.06387 0.21836 0.0
Zn1 Zn 0.03074 0.04727 0.22088 0.0
O2 O 0.11572 0.0114 0.21145 0.0
O3 O 0.26751 0.02464 0.22031 0.0
O4 O 0.90058 0.03454 0.2528 0.0
O5 O 0.19754 0.09449 0.28329 0.0
O6 O 0.04633 0.08435 0.26741 0.0
C7 C 0.20539 0.0056 0.20859 0.0
C8 C 0.09754 0.07066 0.10669 0.0
O9 O 0.0252 0.06067 0.13534 0.0
O10 O 0.17827 0.07437 0.13218 0.0
C11 C 0.89365 0.03167 0.30963 0.0
O12 O -0.02845 0.03396 0.34284 0.0
C13 C 0.10932 0.10106 0.28895 0.0
Zn14 Zn -0.0162 0.16865 0.21836 0.0
Zn15 Zn 0.16129 0.18529 0.22095 0.0
O16 O 0.07625 0.22116 0.21157 0.0
O17 O 0.92448 0.20788 0.22033 0.0
O18 O 0.29144 0.19803 0.25288 0.0
O19 O -0.0055 0.13804 0.28331 0.0
O20 O 0.14576 0.14821 0.26751 0.0
C21 C -0.01344 0.22694 0.20868 0.0
C22 C 0.09458 0.16189 0.10674 0.0
O23 O 0.16687 0.1719 0.1354 0.0
O24 O 0.01383 0.15816 0.1322 0.0
C25 C 0.29836 0.20087 0.30971 0.0
O26 O 0.22046 0.19857 0.34291 0.0
C27 C 0.08274 0.1315 0.28901 0.0
Zn28 Zn 0.20838 0.16865 0.9301 0.0
Zn29 Zn 0.03087 0.18525 0.92749 0.0
O30 O 0.11586 0.22113 0.93691 0.0
O31 O 0.26765 0.20789 0.92813 0.0
O32 O 0.90073 0.19798 0.89554 0.0
O33 O 0.19771 0.13802 0.86517 0.0
O34 O 0.04649 0.14818 0.88097 0.0
C35 C 0.20553 0.22693 0.9398 0.0
C36 C 0.09757 0.16187 0.04171 0.0
O37 O 0.02526 0.17186 0.01304 0.0
O38 O 0.17834 0.15817 0.01628 0.0
C39 C 0.89381 0.20084 0.83871 0.0
O40 O -0.0283 0.19855 0.8055 0.0
C41 C 0.10949 0.13146 0.85947 0.0
Zn42 Zn -0.01611 0.06388 0.93003 0.0
Zn43 Zn 0.16139 0.04724 0.9275 0.0
O44 O 0.07634 0.01137 0.9369 0.0
O45 O 0.92458 0.02465 0.9281 0.0
O46 O 0.29155 0.03449 0.8956 0.0
O47 O -0.00535 0.09448 0.86507 0.0
O48 O 0.1459 0.08431 0.88093 0.0
C49 C -0.01335 0.00559 0.93978 0.0
C50 C 0.09462 0.07067 0.04167 0.0
O51 O 0.16692 0.06064 0.01304 0.0
O52 O 0.01389 0.07439 0.0162 0.0
C53 C 0.29848 0.03164 0.83877 0.0
O54 O 0.22059 0.03393 0.80556 0.0
C55 C 0.0829 0.10102 0.8594 0.0
Zn56 Zn 0.73383 0.91865 0.67999 0.0
Zn57 Zn 0.91125 0.93523 0.67742 0.0
O58 O 0.82629 0.97111 0.68686 0.0
O59 O 0.6745 0.95787 0.67805 0.0
O60 O 0.04139 0.94795 0.64544 0.0
O61 O 0.74434 0.88803 0.61506 0.0
O62 O 0.89558 0.89814 0.63092 0.0
C63 C 0.73662 0.97691 0.68974 0.0
C64 C 0.84456 0.91186 0.79163 0.0
O65 O 0.91689 0.92184 0.76297 0.0
O66 O 0.76382 0.90815 0.76617 0.0
C67 C 0.04828 0.95082 0.58861 0.0
O68 O 0.97037 0.94853 0.55541 0.0
C69 C 0.83255 0.88144 0.60939 0.0
Zn70 Zn 0.95773 0.81382 0.67996 0.0
Zn71 Zn 0.78029 0.79722 0.67737 0.0
O72 O 0.86529 0.76134 0.68688 0.0
O73 O 0.01708 0.7746 0.6781 0.0
O74 O 0.65018 0.78448 0.64537 0.0
O75 O 0.94725 0.84443 0.615 0.0
O76 O 0.79597 0.8343 0.63083 0.0
C77 C 0.95497 0.75555 0.6898 0.0
C78 C 0.84689 0.82063 0.79156 0.0
O79 O 0.77459 0.81063 0.7629 0.0
O80 O 0.92764 0.82435 0.7661 0.0
C81 C 0.64329 0.78164 0.58853 0.0
O82 O 0.72119 0.78394 0.55534 0.0
C83 C 0.85903 0.85099 0.60932 0.0
Zn84 Zn 0.73323 0.81391 -0.03176 0.0
Zn85 Zn 0.91079 0.79727 -0.02921 0.0
O86 O 0.82578 0.7614 -0.03854 0.0
O87 O 0.67401 0.77466 -0.02972 0.0
O88 O 0.04098 0.78454 0.00265 0.0
O89 O 0.74414 0.84453 0.03316 0.0
O90 O 0.89532 0.83434 0.01735 0.0
C91 C 0.7361 0.75561 -0.04138 0.0
C92 C 0.84393 0.82066 0.85658 0.0
O93 O 0.91625 0.81066 0.88524 0.0
O94 O 0.76318 0.82437 0.88204 0.0
C95 C 0.04793 0.78167 0.05947 0.0
O96 O 0.97005 0.78395 0.0927 0.0
C97 C 0.83238 0.85107 0.03887 0.0
Zn98 Zn 0.95824 0.91863 -0.0317 0.0
Zn99 Zn 0.78069 0.93529 -0.02917 0.0
O100 O 0.86577 0.97115 -0.03853 0.0
O101 O 0.01752 0.95787 -0.02971 0.0
O102 O 0.65052 0.94804 0.00269 0.0
O103 O 0.94733 0.88802 0.03325 0.0
O104 O 0.7961 0.89823 0.01742 0.0
C105 C 0.95546 0.97693 -0.04139 0.0
C106 C 0.84751 0.91186 0.85666 0.0
O107 O 0.77521 0.92188 0.88529 0.0
O108 O 0.92825 0.90814 0.88213 0.0
C109 C 0.64356 0.95088 0.05953 0.0
O110 O 0.72143 0.94858 0.09275 0.0
C111 C 0.85906 0.8815 0.03894 0.0
Zn112 Zn 0.20774 0.56384 0.71833 0.0
Zn113 Zn 0.03026 0.54723 0.72086 0.0
O114 O 0.11521 0.51134 0.71146 0.0
O115 O 0.26699 0.5246 0.72027 0.0
O116 O 0.90007 0.53451 0.75276 0.0
O117 O 0.19706 0.59444 0.78329 0.0
O118 O 0.04585 0.5843 0.76742 0.0
C119 C 0.2049 0.50555 0.70859 0.0
C120 C 0.09706 0.57064 0.60668 0.0
O121 O 0.02474 0.56064 0.63533 0.0
O122 O 0.1778 0.57435 0.63215 0.0
C123 C 0.89313 0.53164 0.80959 0.0
O124 O -0.02898 0.53391 0.8428 0.0
C125 C 0.10883 0.60101 0.78896 0.0
Zn126 Zn -0.01664 0.66862 0.71844 0.0
Zn127 Zn 0.16083 0.68524 0.72101 0.0
O128 O 0.07578 0.72111 0.71158 0.0
O129 O 0.924 0.70785 0.7204 0.0
O130 O 0.29095 0.69799 0.75296 0.0
O131 O -0.00598 0.63799 0.78336 0.0
O132 O 0.14529 0.64816 0.76754 0.0
C133 C -0.01391 0.7269 0.7087 0.0
C134 C 0.09413 0.66187 0.6068 0.0
O135 O 0.16645 0.67186 0.63546 0.0
O136 O 0.01339 0.65815 0.63227 0.0
C137 C 0.29787 0.70084 0.8098 0.0
O138 O 0.21998 0.69852 0.843 0.0
C139 C 0.08226 0.63145 0.78904 0.0
Zn140 Zn 0.20777 0.66863 0.43012 0.0
Zn141 Zn 0.03027 0.68527 0.42757 0.0
O142 O 0.1153 0.72114 0.4369 0.0
O143 O 0.26706 0.70787 0.42811 0.0
O144 O 0.9001 0.698 0.39568 0.0
O145 O 0.19697 0.63803 0.36517 0.0
O146 O 0.04578 0.64819 0.38103 0.0
C147 C 0.20499 0.72693 0.43976 0.0
C148 C 0.09708 0.66187 0.54177 0.0
O149 O 0.02477 0.67188 0.51313 0.0
O150 O 0.17782 0.65815 0.51631 0.0
C151 C 0.89317 0.70086 0.33885 0.0
O152 O -0.02893 0.69859 0.30564 0.0
C153 C 0.10874 0.63147 0.35949 0.0
Zn154 Zn -0.01676 0.56387 0.43006 0.0
Zn155 Zn 0.16077 0.54725 0.42746 0.0
O156 O 0.07575 0.51139 0.43694 0.0
O157 O 0.92396 0.52464 0.42816 0.0
O158 O 0.29089 0.53451 0.39551 0.0
O159 O -0.00609 0.59449 0.36512 0.0
O160 O 0.14517 0.58432 0.38091 0.0
C161 C -0.01393 0.50559 0.43985 0.0
C162 C 0.0941 0.57066 0.54165 0.0
O163 O 0.1664 0.56066 0.513 0.0
O164 O 0.01334 0.57437 0.51621 0.0
C165 C 0.29781 0.53167 0.33867 0.0
O166 O 0.21991 0.53397 0.30547 0.0
C167 C 0.08215 0.60103 0.35942 0.0
Zn168 Zn 0.73332 0.41863 0.18026 0.0
Zn169 Zn 0.91081 0.43528 0.17772 0.0
O170 O 0.82576 0.47114 0.18704 0.0
O171 O 0.674 0.45786 0.17825 0.0
O172 O 0.04097 0.44802 0.14581 0.0
O173 O 0.74417 0.38802 0.11533 0.0
O174 O 0.89535 0.39821 0.13119 0.0
C175 C 0.73607 0.47693 0.18989 0.0
C176 C 0.84402 0.41188 0.29192 0.0
O177 O 0.91633 0.42189 0.26327 0.0
O178 O 0.7633 0.40815 0.26645 0.0
C179 C 0.04787 0.45088 0.08897 0.0
O180 O 0.96996 0.44859 0.05578 0.0
C181 C 0.83241 0.38148 0.10966 0.0
Zn182 Zn 0.9582 0.3139 0.18023 0.0
Zn183 Zn 0.78066 0.29725 0.17769 0.0
O184 O 0.86571 0.26139 0.18701 0.0
O185 O 0.01747 0.27467 0.17822 0.0
O186 O 0.65048 0.28451 0.1458 0.0
O187 O 0.94734 0.34452 0.1153 0.0
O188 O 0.79611 0.33432 0.13112 0.0
C189 C 0.9554 0.2556 0.18987 0.0
C190 C 0.84749 0.32064 0.29189 0.0
O191 O 0.77517 0.31064 0.26324 0.0
O192 O 0.92821 0.32438 0.26642 0.0
C193 C 0.64356 0.28168 0.08896 0.0
O194 O 0.72146 0.28398 0.05576 0.0
C195 C 0.85908 0.35104 0.10961 0.0
Zn196 Zn 0.73376 0.31384 0.46854 0.0
Zn197 Zn 0.9112 0.29725 0.47111 0.0
O198 O 0.8262 0.26137 0.46163 0.0
O199 O 0.67442 0.27462 0.47046 0.0
O200 O 0.04132 0.28451 0.50307 0.0
O201 O 0.74433 0.34445 0.53348 0.0
O202 O 0.89556 0.33433 0.51762 0.0
C203 C 0.73652 0.25558 0.45874 0.0
C204 C 0.84453 0.32065 0.35692 0.0
O205 O 0.91685 0.31065 0.38557 0.0
O206 O 0.76377 0.32435 0.38237 0.0
C207 C 0.04825 0.28164 0.5599 0.0
O208 O 0.97037 0.28393 0.59311 0.0
C209 C 0.83255 0.35104 0.53915 0.0
Zn210 Zn 0.95782 0.41866 0.46855 0.0
Zn211 Zn 0.78033 0.43526 0.47115 0.0
O212 O 0.8653 0.47114 0.46167 0.0
O213 O 0.0171 0.4579 0.47045 0.0
O214 O 0.65019 0.44798 0.50311 0.0
O215 O 0.94728 0.38804 0.53349 0.0
O216 O 0.79598 0.39818 0.5177 0.0
C217 C 0.95498 0.47694 0.45876 0.0
C218 C 0.84699 0.41186 0.35695 0.0
O219 O 0.77468 0.42186 0.38562 0.0
O220 O 0.92776 0.40816 0.38239 0.0
C221 C 0.64324 0.45083 0.55994 0.0
O222 O 0.72111 0.44853 0.59316 0.0
C223 C 0.85905 0.38148 0.5392 0.0
Zn224 Zn 0.70832 0.06384 0.71833 0.0
Zn225 Zn 0.53085 0.04724 0.72092 0.0
O226 O 0.61585 0.01137 0.71149 0.0
O227 O 0.76764 0.02461 0.72029 0.0
O228 O 0.40072 0.0345 0.75288 0.0
O229 O 0.69767 0.09447 0.78325 0.0
O230 O 0.54645 0.08431 0.76744 0.0
C231 C 0.70552 0.00557 0.70861 0.0
C232 C 0.59754 0.07062 0.6067 0.0
O233 O 0.52523 0.06063 0.63537 0.0
O234 O 0.67829 0.07433 0.63215 0.0
C235 C 0.39381 0.03165 0.80971 0.0
O236 O 0.4717 0.03394 0.84292 0.0
C237 C 0.60945 0.10103 0.78895 0.0
Zn238 Zn 0.48388 0.16862 0.7184 0.0
Zn239 Zn 0.66137 0.18526 0.72092 0.0
O240 O 0.57634 0.22113 0.71154 0.0
O241 O 0.42458 0.20785 0.72036 0.0
O242 O 0.79154 0.19799 0.75282 0.0
O243 O 0.49462 0.13801 0.78334 0.0
O244 O 0.64587 0.14818 0.76748 0.0
C245 C 0.48665 0.22691 0.70868 0.0
C246 C 0.59456 0.16186 0.60674 0.0
O247 O 0.66688 0.17186 0.63538 0.0
O248 O 0.51384 0.15813 0.63223 0.0
C249 C 0.79847 0.20084 0.80965 0.0
O250 O 0.72059 0.19855 0.84287 0.0
C251 C 0.58287 0.13147 0.78901 0.0
Zn252 Zn 0.70821 0.16865 0.43007 0.0
Zn253 Zn 0.53073 0.18526 0.42754 0.0
O254 O 0.61573 0.22113 0.43698 0.0
O255 O 0.76752 0.20788 0.42813 0.0
O256 O 0.40059 0.198 0.39561 0.0
O257 O 0.69751 0.13803 0.36513 0.0
O258 O 0.54631 0.14818 0.38101 0.0
C259 C 0.70541 0.22692 0.43985 0.0
C260 C 0.59748 0.16185 0.54171 0.0
O261 O 0.52516 0.17185 0.51308 0.0
O262 O 0.67823 0.15814 0.51625 0.0
C263 C 0.39368 0.20086 0.33878 0.0
O264 O 0.47158 0.19858 0.30557 0.0
C265 C 0.60928 0.13147 0.35947 0.0
Zn266 Zn 0.48372 0.06387 0.43007 0.0
Zn267 Zn 0.66125 0.04724 0.42745 0.0
O268 O 0.57622 0.01137 0.43683 0.0
O269 O 0.42445 0.02464 0.42809 0.0
O270 O 0.7914 0.03451 0.39552 0.0
O271 O 0.49445 0.09449 0.36513 0.0
O272 O 0.64572 0.08432 0.3809 0.0
C273 C 0.48653 0.00558 0.43972 0.0
C274 C 0.59455 0.07063 0.54167 0.0
O275 O 0.66684 0.06063 0.513 0.0
O276 O 0.51379 0.07435 0.51624 0.0
C277 C 0.79832 0.03167 0.33869 0.0
O278 O 0.72044 0.03397 0.30547 0.0
C279 C 0.58269 0.10103 0.35941 0.0
Zn280 Zn 0.2337 0.91868 0.17991 0.0
Zn281 Zn 0.41114 0.93527 0.17735 0.0
O282 O 0.32617 0.97115 0.18682 0.0
O283 O 0.17438 0.9579 0.17799 0.0
O284 O 0.54128 0.948 0.1454 0.0
O285 O 0.24427 0.88806 0.11497 0.0
O286 O 0.3955 0.89819 0.13082 0.0
C287 C 0.23649 0.97694 0.1897 0.0
C288 C 0.34444 0.91188 0.29155 0.0
O289 O 0.41676 0.92187 0.26289 0.0
O290 O 0.26369 0.90817 0.26608 0.0
C291 C 0.54822 0.95087 0.08857 0.0
O292 O 0.47034 0.94859 0.05535 0.0
C293 C 0.33249 0.88148 0.1093 0.0
Zn294 Zn 0.45781 0.81386 0.17986 0.0
Zn295 Zn 0.28034 0.79726 0.17729 0.0
O296 O 0.36534 0.76138 0.18676 0.0
O297 O 0.51712 0.77463 0.17794 0.0
O298 O 0.1502 0.78452 0.14535 0.0
O299 O 0.44723 0.84448 0.11493 0.0
O300 O 0.29595 0.83434 0.13075 0.0
C301 C 0.45501 0.75559 0.18965 0.0
C302 C 0.34706 0.82064 0.2915 0.0
O303 O 0.27473 0.81066 0.26284 0.0
O304 O 0.4278 0.82435 0.26603 0.0
C305 C 0.14327 0.78168 0.08852 0.0
O306 O 0.22115 0.78398 0.0553 0.0
C307 C 0.359 0.85104 0.10924 0.0
Zn308 Zn 0.23339 0.81388 0.46817 0.0
Zn309 Zn 0.41091 0.79724 0.47072 0.0
O310 O 0.32585 0.76137 0.46139 0.0
O311 O 0.17409 0.77465 0.47019 0.0
O312 O 0.54107 0.7845 0.50262 0.0
O313 O 0.24426 0.84449 0.53312 0.0
O314 O 0.39544 0.83431 0.51725 0.0
C315 C 0.23616 0.75559 0.45854 0.0
C316 C 0.34411 0.82064 0.35652 0.0
O317 O 0.41642 0.81063 0.38516 0.0
O318 O 0.26337 0.82437 0.38199 0.0
C319 C 0.54797 0.78164 0.55946 0.0
O320 O 0.47006 0.78391 0.59266 0.0
C321 C 0.3325 0.85104 0.53878 0.0
Zn322 Zn 0.45822 0.91861 0.46819 0.0
Zn323 Zn 0.28066 0.93527 0.47078 0.0
O324 O 0.3657 0.97113 0.46142 0.0
O325 O 0.51747 0.95786 0.47017 0.0
O326 O 0.1505 0.948 0.5027 0.0
O327 O 0.44741 0.888 0.53313 0.0
O328 O 0.29616 0.8982 0.51734 0.0
C329 C 0.45539 0.97692 0.45853 0.0
C330 C 0.34741 0.91186 0.35657 0.0
O331 O 0.27512 0.92187 0.38523 0.0
O332 O 0.42816 0.90814 0.38202 0.0
C333 C 0.1436 0.95083 0.55953 0.0
O334 O 0.2215 0.94853 0.59273 0.0
C335 C 0.35915 0.88147 0.53884 0.0
Zn336 Zn 0.70768 0.56387 0.21832 0.0
Zn337 Zn 0.53022 0.54726 0.22087 0.0
O338 O 0.61522 0.51138 0.21153 0.0
O339 O 0.76699 0.52465 0.22034 0.0
O340 O 0.40005 0.53453 0.25278 0.0
O341 O 0.69696 0.59449 0.28326 0.0
O342 O 0.54575 0.58434 0.26739 0.0
C343 C 0.70491 0.50559 0.20868 0.0
C344 C 0.59702 0.57063 0.10665 0.0
O345 O 0.5247 0.56064 0.13531 0.0
O346 O 0.67774 0.57436 0.13213 0.0
C347 C 0.39313 0.53167 0.30961 0.0
O348 O 0.47103 0.53394 0.34282 0.0
C349 C 0.60874 0.60105 0.28893 0.0
Zn350 Zn 0.48335 0.66866 0.21839 0.0
Zn351 Zn 0.66082 0.68528 0.22097 0.0
O352 O 0.5758 0.72114 0.21147 0.0
O353 O 0.42402 0.70789 0.22028 0.0
O354 O 0.79094 0.69802 0.25295 0.0
O355 O 0.49393 0.63804 0.28333 0.0
O356 O 0.6452 0.6482 0.26751 0.0
C357 C 0.48612 0.72693 0.20857 0.0
C358 C 0.59418 0.66187 0.10678 0.0
O359 O 0.66648 0.67187 0.13544 0.0
O360 O 0.51343 0.65816 0.13224 0.0
C361 C 0.79784 0.70086 0.30978 0.0
O362 O 0.71995 0.69855 0.34299 0.0
C363 C 0.58217 0.63149 0.28901 0.0
Zn364 Zn 0.70785 0.66865 0.93012 0.0
Zn365 Zn 0.53032 0.68527 0.92757 0.0
O366 O 0.61528 0.72115 0.93694 0.0
O367 O 0.76707 0.70789 0.92815 0.0
O368 O 0.40013 0.69799 0.89568 0.0
O369 O 0.69708 0.63804 0.86516 0.0
O370 O 0.54588 0.6482 0.88101 0.0
C371 C 0.70497 0.72694 0.93981 0.0
C372 C 0.59714 0.66186 0.04176 0.0
O373 O 0.52482 0.67186 0.01311 0.0
O374 O 0.67789 0.65815 0.0163 0.0
C375 C 0.3932 0.70085 0.83885 0.0
O376 O 0.47109 0.69859 0.80563 0.0
C377 C 0.60885 0.63149 0.85947 0.0
Zn378 Zn 0.48325 0.56389 0.93 0.0
Zn379 Zn 0.66076 0.54725 0.92742 0.0
O380 O 0.57568 0.51139 0.93684 0.0
O381 O 0.42391 0.52466 0.92803 0.0
O382 O 0.79088 0.5345 0.89548 0.0
O383 O 0.494 0.59451 0.86507 0.0
O384 O 0.64525 0.58433 0.88089 0.0
C385 C 0.48599 0.5056 0.93972 0.0
C386 C 0.59406 0.57064 0.04162 0.0
O387 O 0.66637 0.56064 0.01297 0.0
O388 O 0.51331 0.57436 0.01617 0.0
C389 C 0.79779 0.53165 0.83864 0.0
O390 O 0.71992 0.53397 0.80543 0.0
C391 C 0.58225 0.60105 0.85939 0.0
Zn392 Zn 0.2332 0.41859 0.68016 0.0
Zn393 Zn 0.41074 0.43523 0.67765 0.0
O394 O 0.32572 0.4711 0.68695 0.0
O395 O 0.17395 0.45784 0.6781 0.0
O396 O 0.54094 0.44797 0.6458 0.0
O397 O 0.24414 0.38797 0.61525 0.0
O398 O 0.39532 0.39816 0.63109 0.0
C399 C 0.23603 0.47689 0.68978 0.0
C400 C 0.34382 0.41186 0.79185 0.0
O401 O 0.41616 0.42184 0.7632 0.0
O402 O 0.26309 0.40813 0.76637 0.0
C403 C 0.54789 0.45083 0.58898 0.0
O404 O 0.47002 0.44856 0.55574 0.0
C405 C 0.33239 0.38143 0.60957 0.0
Zn406 Zn 0.45826 0.31387 0.68016 0.0
Zn407 Zn 0.28072 0.29721 0.67763 0.0
O408 O 0.36578 0.26135 0.68699 0.0
O409 O 0.51753 0.27463 0.67817 0.0
O410 O 0.15053 0.28446 0.64578 0.0
O411 O 0.44734 0.34448 0.6152 0.0
O412 O 0.29612 0.33427 0.63103 0.0
C413 C 0.45547 0.25557 0.68985 0.0
C414 C 0.34756 0.32063 0.79181 0.0
O415 O 0.27525 0.31062 0.76317 0.0
O416 O 0.42829 0.32436 0.76633 0.0
C417 C 0.14359 0.28162 0.58895 0.0
O418 O 0.22147 0.28391 0.55572 0.0
C419 C 0.35908 0.351 0.60951 0.0
Zn420 Zn 0.23378 0.31385 -0.03156 0.0
Zn421 Zn 0.41123 0.29728 -0.02895 0.0
O422 O 0.32628 0.26139 -0.03842 0.0
O423 O 0.17447 0.27463 -0.02964 0.0
O424 O 0.54135 0.28456 0.00306 0.0
O425 O 0.24425 0.34447 0.03338 0.0
O426 O 0.3955 0.33436 0.01755 0.0
C427 C 0.2366 0.25559 -0.04132 0.0
C428 C 0.3446 0.32066 0.85684 0.0
O429 O 0.41691 0.31066 0.88551 0.0
O430 O 0.26383 0.32436 0.88228 0.0
C431 C 0.54824 0.28169 0.05989 0.0
O432 O 0.47034 0.28398 0.0931 0.0
C433 C 0.33245 0.35106 0.03906 0.0
Zn434 Zn 0.45762 0.41868 -0.03154 0.0
Zn435 Zn 0.28017 0.43528 -0.02894 0.0
O436 O 0.36518 0.47116 -0.03846 0.0
O437 O 0.51697 0.4579 -0.02969 0.0
O438 O 0.15007 0.44802 0.00306 0.0
O439 O 0.44714 0.38808 0.03344 0.0
O440 O 0.29585 0.3982 0.01759 0.0
C441 C 0.45486 0.47695 -0.04138 0.0
C442 C 0.34676 0.41186 0.85688 0.0
O443 O 0.27447 0.42187 0.88552 0.0
O444 O 0.42752 0.40815 0.88233 0.0
C445 C 0.14319 0.45087 0.05989 0.0
O446 O 0.2211 0.44857 0.09309 0.0
C447 C 0.35892 0.38151 0.03912 0.0
loop_
_geom_bond_atom_site_label_1
_geom_bond_atom_site_label_2
_geom_bond_distance
_geom_bond_site_symmetry_2
_ccdc_geom_bond_type
Zn0 O3 2.031 . S
Zn0 O5 2.049 . S
Zn0 O10 2.067 . S
Zn1 O2 1.962 . S
Zn1 O4 1.986 1_455 S
Zn1 O6 1.996 . S
Zn1 O9 1.943 . S
O2 Zn1 1.962 . S
O2 C7 1.254 . S
O3 Zn0 2.031 . S
O3 C7 1.269 . S
O4 Zn1 1.986 1_655 S
O4 C11 1.262 . S
O5 Zn0 2.049 . S
O5 C13 1.260 . S
O6 Zn1 1.996 . S
O6 C13 1.257 . S
C7 O2 1.254 . S
C7 O3 1.269 . S
C8 O9 1.249 . S
C8 O10 1.270 . S
O9 Zn1 1.943 . S
O9 C8 1.249 . S
O10 Zn0 2.067 . S
O10 C8 1.270 . S
C11 O4 1.262 . S
C11 O12 1.232 . S
O12 C11 1.232 . S
C13 O5 1.260 . S
C13 O6 1.257 . S
Zn14 O17 2.031 . S
Zn14 O19 2.049 . S
Zn14 O24 2.067 1_655 S
Zn15 O16 1.962 . S
Zn15 O18 1.986 . S
Zn15 O20 1.996 . S
Zn15 O23 1.943 . S
O16 Zn15 1.962 . S
O16 C21 1.254 . S
O17 Zn14 2.031 . S
O17 C21 1.269 1_655 S
O18 Zn15 1.986 . S
O18 C25 1.262 . S
O19 Zn14 2.049 . S
O19 C27 1.260 1_655 S
O20 Zn15 1.996 . S
O20 C27 1.257 . S
C21 O16 1.254 . S
C21 O17 1.269 1_455 S
C22 O23 1.249 . S
C22 O24 1.270 . S
O23 Zn15 1.943 . S
O23 C22 1.249 . S
O24 Zn14 2.067 1_455 S
O24 C22 1.270 . S
C25 O18 1.262 . S
C25 O26 1.232 . S
O26 C25 1.232 . S
C27 O19 1.260 1_455 S
C27 O20 1.257 . S
Zn28 O31 2.031 . S
Zn28 O33 2.049 . S
Zn28 O38 2.067 . S
Zn29 O30 1.962 . S
Zn29 O32 1.986 1_455 S
Zn29 O34 1.996 . S
Zn29 O37 1.943 1_556 S
O30 Zn29 1.962 . S
O30 C35 1.254 . S
O31 Zn28 2.031 . S
O31 C35 1.269 1_554 S
O32 Zn29 1.986 1_655 S
O32 C39 1.262 . S
O33 Zn28 2.049 . S
O33 C41 1.260 1_554 S
O34 Zn29 1.996 . S
O34 C41 1.257 . S
C35 O30 1.254 . S
C35 O31 1.269 1_556 S
C36 O37 1.249 . S
C36 O38 1.270 . S
O37 Zn29 1.943 1_554 S
O37 C36 1.249 . S
O38 Zn28 2.067 . S
O38 C36 1.270 . S
C39 O32 1.262 . S
C39 O40 1.232 . S
O40 C39 1.232 . S
C41 O33 1.260 1_556 S
C41 O34 1.257 . S
Zn42 O45 2.031 . S
Zn42 O47 2.049 . S
Zn42 O52 2.067 1_655 S
Zn43 O44 1.962 . S
Zn43 O46 1.986 . S
Zn43 O48 1.996 . S
Zn43 O51 1.943 1_556 S
O44 Zn43 1.962 . S
O44 C49 1.254 . S
O45 Zn42 2.031 . S
O45 C49 1.269 1_654 S
O46 Zn43 1.986 . S
O46 C53 1.262 . S
O47 Zn42 2.049 . S
O47 C55 1.260 1_654 S
O48 Zn43 1.996 . S
O48 C55 1.257 . S
C49 O44 1.254 . S
C49 O45 1.269 1_456 S
C50 O51 1.249 . S
C50 O52 1.270 . S
O51 Zn43 1.943 1_554 S
O51 C50 1.249 . S
O52 Zn42 2.067 1_455 S
O52 C50 1.270 . S
C53 O46 1.262 . S
C53 O54 1.232 . S
O54 C53 1.232 . S
C55 O47 1.260 1_456 S
C55 O48 1.257 . S
Zn56 O59 2.031 . S
Zn56 O61 2.049 . S
Zn56 O66 2.067 . S
Zn57 O58 1.962 . S
Zn57 O60 1.986 1_655 S
Zn57 O62 1.996 . S
Zn57 O65 1.943 . S
O58 Zn57 1.962 . S
O58 C63 1.254 . S
O59 Zn56 2.031 . S
O59 C63 1.269 . S
O60 Zn57 1.986 1_455 S
O60 C67 1.262 . S
O61 Zn56 2.049 . S
O61 C69 1.260 . S
O62 Zn57 1.996 . S
O62 C69 1.257 . S
C63 O58 1.254 . S
C63 O59 1.269 . S
C64 O65 1.249 . S
C64 O66 1.270 . S
O65 Zn57 1.943 . S
O65 C64 1.249 . S
O66 Zn56 2.067 . S
O66 C64 1.270 . S
C67 O60 1.262 . S
C67 O68 1.232 . S
O68 C67 1.232 . S
C69 O61 1.260 . S
C69 O62 1.257 . S
Zn70 O73 2.031 . S
Zn70 O75 2.049 . S
Zn70 O80 2.067 1_455 S
Zn71 O72 1.962 . S
Zn71 O74 1.986 . S
Zn71 O76 1.996 . S
Zn71 O79 1.943 . S
O72 Zn71 1.962 . S
O72 C77 1.254 . S
O73 Zn70 2.031 . S
O73 C77 1.269 1_455 S
O74 Zn71 1.986 . S
O74 C81 1.262 . S
O75 Zn70 2.049 . S
O75 C83 1.260 1_455 S
O76 Zn71 1.996 . S
O76 C83 1.257 . S
C77 O72 1.254 . S
C77 O73 1.269 1_655 S
C78 O79 1.249 . S
C78 O80 1.270 . S
O79 Zn71 1.943 . S
O79 C78 1.249 . S
O80 Zn70 2.067 1_655 S
O80 C78 1.270 . S
C81 O74 1.262 . S
C81 O82 1.232 . S
O82 C81 1.232 . S
C83 O75 1.260 1_655 S
C83 O76 1.257 . S
Zn84 O87 2.031 . S
Zn84 O89 2.049 . S
Zn84 O94 2.067 . S
Zn85 O86 1.962 . S
Zn85 O88 1.986 1_655 S
Zn85 O90 1.996 . S
Zn85 O93 1.943 1_554 S
O86 Zn85 1.962 . S
O86 C91 1.254 . S
O87 Zn84 2.031 . S
O87 C91 1.269 1_556 S
O88 Zn85 1.986 1_455 S
O88 C95 1.262 . S
O89 Zn84 2.049 . S
O89 C97 1.260 1_556 S
O90 Zn85 1.996 . S
O90 C97 1.257 . S
C91 O86 1.254 . S
C91 O87 1.269 1_554 S
C92 O93 1.249 . S
C92 O94 1.270 . S
O93 Zn85 1.943 1_556 S
O93 C92 1.249 . S
O94 Zn84 2.067 . S
O94 C92 1.270 . S
C95 O88 1.262 . S
C95 O96 1.232 . S
O96 C95 1.232 . S
C97 O89 1.260 1_554 S
C97 O90 1.257 . S
Zn98 O101 2.031 . S
Zn98 O103 2.049 . S
Zn98 O108 2.067 1_455 S
Zn99 O100 1.962 . S
Zn99 O102 1.986 . S
Zn99 O104 1.996 . S
Zn99 O107 1.943 1_554 S
O100 Zn99 1.962 . S
O100 C105 1.254 . S
O101 Zn98 2.031 . S
O101 C105 1.269 1_456 S
O102 Zn99 1.986 . S
O102 C109 1.262 . S
O103 Zn98 2.049 . S
O103 C111 1.260 1_456 S
O104 Zn99 1.996 . S
O104 C111 1.257 . S
C105 O100 1.254 . S
C105 O101 1.269 1_654 S
C106 O107 1.249 . S
C106 O108 1.270 . S
O107 Zn99 1.943 1_556 S
O107 C106 1.249 . S
O108 Zn98 2.067 1_655 S
O108 C106 1.270 . S
C109 O102 1.262 . S
C109 O110 1.232 . S
O110 C109 1.232 . S
C111 O103 1.260 1_654 S
C111 O104 1.257 . S
Zn112 O115 2.031 . S
Zn112 O117 2.049 . S
Zn112 O122 2.067 . S
Zn113 O114 1.962 . S
Zn113 O116 1.986 1_455 S
Zn113 O118 1.996 . S
Zn113 O121 1.943 . S
O114 Zn113 1.962 . S
O114 C119 1.254 . S
O115 Zn112 2.031 . S
O115 C119 1.269 . S
O116 Zn113 1.986 1_655 S
O116 C123 1.262 . S
O117 Zn112 2.049 . S
O117 C125 1.260 . S
O118 Zn113 1.996 . S
O118 C125 1.257 . S
C119 O114 1.254 . S
C119 O115 1.269 . S
C120 O121 1.249 . S
C120 O122 1.270 . S
O121 Zn113 1.943 . S
O121 C120 1.249 . S
O122 Zn112 2.067 . S
O122 C120 1.270 . S
C123 O116 1.262 . S
C123 O124 1.232 . S
O124 C123 1.232 . S
C125 O117 1.260 . S
C125 O118 1.257 . S
Zn126 O129 2.031 . S
Zn126 O131 2.049 . S
Zn126 O136 2.067 1_655 S
Zn127 O128 1.962 . S
Zn127 O130 1.986 . S
Zn127 O132 1.996 . S
Zn127 O135 1.943 . S
O128 Zn127 1.962 . S
O128 C133 1.254 . S
O129 Zn126 2.031 . S
O129 C133 1.269 1_655 S
O130 Zn127 1.986 . S
O130 C137 1.262 . S
O131 Zn126 2.049 . S
O131 C139 1.260 1_655 S
O132 Zn127 1.996 . S
O132 C139 1.257 . S
C133 O128 1.254 . S
C133 O129 1.269 1_455 S
C134 O135 1.249 . S
C134 O136 1.270 . S
O135 Zn127 1.943 . S
O135 C134 1.249 . S
O136 Zn126 2.067 1_455 S
O136 C134 1.270 . S
C137 O130 1.262 . S
C137 O138 1.232 . S
O138 C137 1.232 . S
C139 O131 1.260 1_455 S
C139 O132 1.257 . S
Zn140 O143 2.031 . S
Zn140 O145 2.049 . S
Zn140 O150 2.067 . S
Zn141 O142 1.962 . S
Zn141 O144 1.986 1_455 S
Zn141 O146 1.996 . S
Zn141 O149 1.943 . S
O142 Zn141 1.962 . S
O142 C147 1.254 . S
O143 Zn140 2.031 . S
O143 C147 1.269 . S
O144 Zn141 1.986 1_655 S
O144 C151 1.262 . S
O145 Zn140 2.049 . S
O145 C153 1.260 . S
O146 Zn141 1.996 . S
O146 C153 1.257 . S
C147 O142 1.254 . S
C147 O143 1.269 . S
C148 O149 1.249 . S
C148 O150 1.270 . S
O149 Zn141 1.943 . S
O149 C148 1.249 . S
O150 Zn140 2.067 . S
O150 C148 1.270 . S
C151 O144 1.262 . S
C151 O152 1.232 . S
O152 C151 1.232 . S
C153 O145 1.260 . S
C153 O146 1.257 . S
Zn154 O157 2.031 . S
Zn154 O159 2.049 . S
Zn154 O164 2.067 1_655 S
Zn155 O156 1.962 . S
Zn155 O158 1.986 . S
Zn155 O160 1.996 . S
Zn155 O163 1.943 . S
O156 Zn155 1.962 . S
O156 C161 1.254 . S
O157 Zn154 2.031 . S
O157 C161 1.269 1_655 S
O158 Zn155 1.986 . S
O158 C165 1.262 . S
O159 Zn154 2.049 . S
O159 C167 1.260 1_655 S
O160 Zn155 1.996 . S
O160 C167 1.257 . S
C161 O156 1.254 . S
C161 O157 1.269 1_455 S
C162 O163 1.249 . S
C162 O164 1.270 . S
O163 Zn155 1.943 . S
O163 C162 1.249 . S
O164 Zn154 2.067 1_455 S
O164 C162 1.270 . S
C165 O158 1.262 . S
C165 O166 1.232 . S
O166 C165 1.232 . S
C167 O159 1.260 1_455 S
C167 O160 1.257 . S
Zn168 O171 2.031 . S
Zn168 O173 2.049 . S
Zn168 O178 2.067 . S
Zn169 O170 1.962 . S
Zn169 O172 1.986 1_655 S
Zn169 O174 1.996 . S
Zn169 O177 1.943 . S
O170 Zn169 1.962 . S
O170 C175 1.254 . S
O171 Zn168 2.031 . S
O171 C175 1.269 . S
O172 Zn169 1.986 1_455 S
O172 C179 1.262 . S
O173 Zn168 2.049 . S
O173 C181 1.260 . S
O174 Zn169 1.996 . S
O174 C181 1.257 . S
C175 O170 1.254 . S
C175 O171 1.269 . S
C176 O177 1.249 . S
C176 O178 1.270 . S
O177 Zn169 1.943 . S
O177 C176 1.249 . S
O178 Zn168 2.067 . S
O178 C176 1.270 . S
C179 O172 1.262 . S
C179 O180 1.232 . S
O180 C179 1.232 . S
C181 O173 1.260 . S
C181 O174 1.257 . S
Zn182 O185 2.031 . S
Zn182 O187 2.049 . S
Zn182 O192 2.067 1_455 S
Zn183 O184 1.962 . S
Zn183 O186 1.986 . S
Zn183 O188 1.996 . S
Zn183 O191 1.943 . S
O184 Zn183 1.962 . S
O184 C189 1.254 . S
O185 Zn182 2.031 . S
O185 C189 1.269 1_455 S
O186 Zn183 1.986 . S
O186 C193 1.262 . S
O187 Zn182 2.049 . S
O187 C195 1.260 1_455 S
O188 Zn183 1.996 . S
O188 C195 1.257 . S
C189 O184 1.254 . S
C189 O185 1.269 1_655 S
C190 O191 1.249 . S
C190 O192 1.270 . S
O191 Zn183 1.943 . S
O191 C190 1.249 . S
O192 Zn182 2.067 1_655 S
O192 C190 1.270 . S
C193 O186 1.262 . S
C193 O194 1.232 . S
O194 C193 1.232 . S
C195 O187 1.260 1_655 S
C195 O188 1.257 . S
Zn196 O199 2.031 . S
Zn196 O201 2.049 . S
Zn196 O206 2.067 . S
Zn197 O198 1.962 . S
Zn197 O200 1.986 1_655 S
Zn197 O202 1.996 . S
Zn197 O205 1.943 . S
O198 Zn197 1.962 . S
O198 C203 1.254 . S
O199 Zn196 2.031 . S
O199 C203 1.269 . S
O200 Zn197 1.986 1_455 S
O200 C207 1.262 . S
O201 Zn196 2.049 . S
O201 C209 1.260 . S
O202 Zn197 1.996 . S
O202 C209 1.257 . S
C203 O198 1.254 . S
C203 O199 1.269 . S
C204 O205 1.249 . S
C204 O206 1.270 . S
O205 Zn197 1.943 . S
O205 C204 1.249 . S
O206 Zn196 2.067 . S
O206 C204 1.270 . S
C207 O200 1.262 . S
C207 O208 1.232 . S
O208 C207 1.232 . S
C209 O201 1.260 . S
C209 O202 1.257 . S
Zn210 O213 2.031 . S
Zn210 O215 2.049 . S
Zn210 O220 2.067 1_455 S
Zn211 O212 1.962 . S
Zn211 O214 1.986 . S
Zn211 O216 1.996 . S
Zn211 O219 1.943 . S
O212 Zn211 1.962 . S
O212 C217 1.254 . S
O213 Zn210 2.031 . S
O213 C217 1.269 1_455 S
O214 Zn211 1.986 . S
O214 C221 1.262 . S
O215 Zn210 2.049 . S
O215 C223 1.260 1_455 S
O216 Zn211 1.996 . S
O216 C223 1.257 . S
C217 O212 1.254 . S
C217 O213 1.269 1_655 S
C218 O219 1.249 . S
C218 O220 1.270 . S
O219 Zn211 1.943 . S
O219 C218 1.249 . S
O220 Zn210 2.067 1_655 S
O220 C218 1.270 . S
C221 O214 1.262 . S
C221 O222 1.232 . S
O222 C221 1.232 . S
C223 O215 1.260 1_655 S
C223 O216 1.257 . S
Zn224 O227 2.031 . S
Zn224 O229 2.049 . S
Zn224 O234 2.067 . S
Zn225 O226 1.962 . S
Zn225 O228 1.986 . S
Zn225 O230 1.996 . S
Zn225 O233 1.943 . S
O226 Zn225 1.962 . S
O226 C231 1.254 . S
O227 Zn224 2.031 . S
O227 C231 1.269 . S
O228 Zn225 1.986 . S
O228 C235 1.262 . S
O229 Zn224 2.049 . S
O229 C237 1.260 . S
O230 Zn225 1.996 . S
O230 C237 1.257 . S
C231 O226 1.254 . S
C231 O227 1.269 . S
C232 O233 1.249 . S
C232 O234 1.270 . S
O233 Zn225 1.943 . S
O233 C232 1.249 . S
O234 Zn224 2.067 . S
O234 C232 1.270 . S
C235 O228 1.262 . S
C235 O236 1.232 . S
O236 C235 1.232 . S
C237 O229 1.260 . S
C237 O230 1.257 . S
Zn238 O241 2.031 . S
Zn238 O243 2.049 . S
Zn238 O248 2.067 . S
Zn239 O240 1.962 . S
Zn239 O242 1.986 . S
Zn239 O244 1.996 . S
Zn239 O247 1.943 . S
O240 Zn239 1.962 . S
O240 C245 1.254 . S
O241 Zn238 2.031 . S
O241 C245 1.269 . S
O242 Zn239 1.986 . S
O242 C249 1.262 . S
O243 Zn238 2.049 . S
O243 C251 1.260 . S
O244 Zn239 1.996 . S
O244 C251 1.257 . S
C245 O240 1.254 . S
C245 O241 1.269 . S
C246 O247 1.249 . S
C246 O248 1.270 . S
O247 Zn239 1.943 . S
O247 C246 1.249 . S
O248 Zn238 2.067 . S
O248 C246 1.270 . S
C249 O242 1.262 . S
C249 O250 1.232 . S
O250 C249 1.232 . S
C251 O243 1.260 . S
C251 O244 1.257 . S
Zn252 O255 2.031 . S
Zn252 O257 2.049 . S
Zn252 O262 2.067 . S
Zn253 O254 1.962 . S
Zn253 O256 1.986 . S
Zn253 O258 1.996 . S
Zn253 O261 1.943 . S
O254 Zn253 1.962 . S
O254 C259 1.254 . S
O255 Zn252 2.031 . S
O255 C259 1.269 . S
O256 Zn253 1.986 . S
O256 C263 1.262 . S
O257 Zn252 2.049 . S
O257 C265 1.260 . S
O258 Zn253 1.996 . S
O258 C265 1.257 . S
C259 O254 1.254 . S
C259 O255 1.269 . S
C260 O261 1.249 . S
C260 O262 1.270 . S
O261 Zn253 1.943 . S
O261 C260 1.249 . S
O262 Zn252 2.067 . S
O262 C260 1.270 . S
C263 O256 1.262 . S
C263 O264 1.232 . S
O264 C263 1.232 . S
C265 O257 1.260 . S
C265 O258 1.257 . S
Zn266 O269 2.031 . S
Zn266 O271 2.049 . S
Zn266 O276 2.067 . S
Zn267 O268 1.962 . S
Zn267 O270 1.986 . S
Zn267 O272 1.996 . S
Zn267 O275 1.943 . S
O268 Zn267 1.962 . S
O268 C273 1.254 . S
O269 Zn266 2.031 . S
O269 C273 1.269 . S
O270 Zn267 1.986 . S
O270 C277 1.262 . S
O271 Zn266 2.049 . S
O271 C279 1.260 . S
O272 Zn267 1.996 . S
O272 C279 1.257 . S
C273 O268 1.254 . S
C273 O269 1.269 . S
C274 O275 1.249 . S
C274 O276 1.270 . S
O275 Zn267 1.943 . S
O275 C274 1.249 . S
O276 Zn266 2.067 . S
O276 C274 1.270 . S
C277 O270 1.262 . S
C277 O278 1.232 . S
O278 C277 1.232 . S
C279 O271 1.260 . S
C279 O272 1.257 . S
Zn280 O283 2.031 . S
Zn280 O285 2.049 . S
Zn280 O290 2.067 . S
Zn281 O282 1.962 . S
Zn281 O284 1.986 . S
Zn281 O286 1.996 . S
Zn281 O289 1.943 . S
O282 Zn281 1.962 . S
O282 C287 1.254 . S
O283 Zn280 2.031 . S
O283 C287 1.269 . S
O284 Zn281 1.986 . S
O284 C291 1.262 . S
O285 Zn280 2.049 . S
O285 C293 1.260 . S
O286 Zn281 1.996 . S
O286 C293 1.257 . S
C287 O282 1.254 . S
C287 O283 1.269 . S
C288 O289 1.249 . S
C288 O290 1.270 . S
O289 Zn281 1.943 . S
O289 C288 1.249 . S
O290 Zn280 2.067 . S
O290 C288 1.270 . S
C291 O284 1.262 . S
C291 O292 1.232 . S
O292 C291 1.232 . S
C293 O285 1.260 . S
C293 O286 1.257 . S
Zn294 O297 2.031 . S
Zn294 O299 2.049 . S
Zn294 O304 2.067 . S
Zn295 O296 1.962 . S
Zn295 O298 1.986 . S
Zn295 O300 1.996 . S
Zn295 O303 1.943 . S
O296 Zn295 1.962 . S
O296 C301 1.254 . S
O297 Zn294 2.031 . S
O297 C301 1.269 . S
O298 Zn295 1.986 . S
O298 C305 1.262 . S
O299 Zn294 2.049 . S
O299 C307 1.260 . S
O300 Zn295 1.996 . S
O300 C307 1.257 . S
C301 O296 1.254 . S
C301 O297 1.269 . S
C302 O303 1.249 . S
C302 O304 1.270 . S
O303 Zn295 1.943 . S
O303 C302 1.249 . S
O304 Zn294 2.067 . S
O304 C302 1.270 . S
C305 O298 1.262 . S
C305 O306 1.232 . S
O306 C305 1.232 . S
C307 O299 1.260 . S
C307 O300 1.257 . S
Zn308 O311 2.031 . S
Zn308 O313 2.049 . S
Zn308 O318 2.067 . S
Zn309 O310 1.962 . S
Zn309 O312 1.986 . S
Zn309 O314 1.996 . S
Zn309 O317 1.943 . S
O310 Zn309 1.962 . S
O310 C315 1.254 . S
O311 Zn308 2.031 . S
O311 C315 1.269 . S
O312 Zn309 1.986 . S
O312 C319 1.262 . S
O313 Zn308 2.049 . S
O313 C321 1.260 . S
O314 Zn309 1.996 . S
O314 C321 1.257 . S
C315 O310 1.254 . S
C315 O311 1.269 . S
C316 O317 1.249 . S
C316 O318 1.270 . S
O317 Zn309 1.943 . S
O317 C316 1.249 . S
O318 Zn308 2.067 . S
O318 C316 1.270 . S
C319 O312 1.262 . S
C319 O320 1.232 . S
O320 C319 1.232 . S
C321 O313 1.260 . S
C321 O314 1.257 . S
Zn322 O325 2.031 . S
Zn322 O327 2.049 . S
Zn322 O332 2.067 . S
Zn323 O324 1.962 . S
Zn323 O326 1.986 . S
Zn323 O328 1.996 . S
Zn323 O331 1.943 . S
O324 Zn323 1.962 . S
O324 C329 1.254 . S
O325 Zn322 2.031 . S
O325 C329 1.269 . S
O326 Zn323 1.986 . S
O326 C333 1.262 . S
O327 Zn322 2.049 . S
O327 C335 1.260 . S
O328 Zn323 1.996 . S
O328 C335 1.257 . S
C329 O324 1.254 . S
C329 O325 1.269 . S
C330 O331 1.249 . S
C330 O332 1.270 . S
O331 Zn323 1.943 . S
O331 C330 1.249 . S
O332 Zn322 2.067 . S
O332 C330 1.270 . S
C333 O326 1.262 . S
C333 O334 1.232 . S
O334 C333 1.232 . S
C335 O327 1.260 . S
C335 O328 1.257 . S
Zn336 O339 2.031 . S
Zn336 O341 2.049 . S
Zn336 O346 2.067 . S
Zn337 O338 1.962 . S
Zn337 O340 1.986 . S
Zn337 O342 1.996 . S
Zn337 O345 1.943 . S
O338 Zn337 1.962 . S
O338 C343 1.254 . S
O339 Zn336 2.031 . S
O339 C343 1.269 . S
O340 Zn337 1.986 . S
O340 C347 1.262 . S
O341 Zn336 2.049 . S
O341 C349 1.260 . S
O342 Zn337 1.996 . S
O342 C349 1.257 . S
C343 O338 1.254 . S
C343 O339 1.269 . S
C344 O345 1.249 . S
C344 O346 1.270 . S
O345 Zn337 1.943 . S
O345 C344 1.249 . S
O346 Zn336 2.067 . S
O346 C344 1.270 . S
C347 O340 1.262 . S
C347 O348 1.232 . S
O348 C347 1.232 . S
C349 O341 1.260 . S
C349 O342 1.257 . S
Zn350 O353 2.031 . S
Zn350 O355 2.049 . S
Zn350 O360 2.067 . S
Zn351 O352 1.962 . S
Zn351 O354 1.986 . S
Zn351 O356 1.996 . S
Zn351 O359 1.943 . S
O352 Zn351 1.962 . S
O352 C357 1.254 . S
O353 Zn350 2.031 . S
O353 C357 1.269 . S
O354 Zn351 1.986 . S
O354 C361 1.262 . S
O355 Zn350 2.049 . S
O355 C363 1.260 . S
O356 Zn351 1.996 . S
O356 C363 1.257 . S
C357 O352 1.254 . S
C357 O353 1.269 . S
C358 O359 1.249 . S
C358 O360 1.270 . S
O359 Zn351 1.943 . S
O359 C358 1.249 . S
O360 Zn350 2.067 . S
O360 C358 1.270 . S
C361 O354 1.262 . S
C361 O362 1.232 . S
O362 C361 1.232 . S
C363 O355 1.260 . S
C363 O356 1.257 . S
Zn364 O367 2.031 . S
Zn364 O369 2.049 . S
Zn364 O374 2.067 . S
Zn365 O366 1.962 . S
Zn365 O368 1.986 . S
Zn365 O370 1.996 . S
Zn365 O373 1.943 1_556 S
O366 Zn365 1.962 . S
O366 C371 1.254 . S
O367 Zn364 2.031 . S
O367 C371 1.269 1_554 S
O368 Zn365 1.986 . S
O368 C375 1.262 . S
O369 Zn364 2.049 . S
O369 C377 1.260 1_554 S
O370 Zn365 1.996 . S
O370 C377 1.257 . S
C371 O366 1.254 . S
C371 O367 1.269 1_556 S
C372 O373 1.249 . S
C372 O374 1.270 . S
O373 Zn365 1.943 1_554 S
O373 C372 1.249 . S
O374 Zn364 2.067 . S
O374 C372 1.270 . S
C375 O368 1.262 . S
C375 O376 1.232 . S
O376 C375 1.232 . S
C377 O369 1.260 1_556 S
C377 O370 1.257 . S
Zn378 O381 2.031 . S
Zn378 O383 2.049 . S
Zn378 O388 2.067 . S
Zn379 O380 1.962 . S
Zn379 O382 1.986 . S
Zn379 O384 1.996 . S
Zn379 O387 1.943 1_556 S
O380 Zn379 1.962 . S
O380 C385 1.254 . S
O381 Zn378 2.031 . S
O381 C385 1.269 1_554 S
O382 Zn379 1.986 . S
O382 C389 1.262 . S
O383 Zn378 2.049 . S
O383 C391 1.260 1_554 S
O384 Zn379 1.996 . S
O384 C391 1.257 . S
C385 O380 1.254 . S
C385 O381 1.269 1_556 S
C386 O387 1.249 . S
C386 O388 1.270 . S
O387 Zn379 1.943 1_554 S
O387 C386 1.249 . S
O388 Zn378 2.067 . S
O388 C386 1.270 . S
C389 O382 1.262 . S
C389 O390 1.232 . S
O390 C389 1.232 . S
C391 O383 1.260 1_556 S
C391 O384 1.257 . S
Zn392 O395 2.031 . S
Zn392 O397 2.049 . S
Zn392 O402 2.067 . S
Zn393 O394 1.962 . S
Zn393 O396 1.986 . S
Zn393 O398 1.996 . S
Zn393 O401 1.943 . S
O394 Zn393 1.962 . S
O394 C399 1.254 . S
O395 Zn392 2.031 . S
O395 C399 1.269 . S
O396 Zn393 1.986 . S
O396 C403 1.262 . S
O397 Zn392 2.049 . S
O397 C405 1.260 . S
O398 Zn393 1.996 . S
O398 C405 1.257 . S
C399 O394 1.254 . S
C399 O395 1.269 . S
C400 O401 1.249 . S
C400 O402 1.270 . S
O401 Zn393 1.943 . S
O401 C400 1.249 . S
O402 Zn392 2.067 . S
O402 C400 1.270 . S
C403 O396 1.262 . S
C403 O404 1.232 . S
O404 C403 1.232 . S
C405 O397 1.260 . S
C405 O398 1.257 . S
Zn406 O409 2.031 . S
Zn406 O411 2.049 . S
Zn406 O416 2.067 . S
Zn407 O408 1.962 . S
Zn407 O410 1.986 . S
Zn407 O412 1.996 . S
Zn407 O415 1.943 . S
O408 Zn407 1.962 . S
O408 C413 1.254 . S
O409 Zn406 2.031 . S
O409 C413 1.269 . S
O410 Zn407 1.986 . S
O410 C417 1.262 . S
O411 Zn406 2.049 . S
O411 C419 1.260 . S
O412 Zn407 1.996 . S
O412 C419 1.257 . S
C413 O408 1.254 . S
C413 O409 1.269 . S
C414 O415 1.249 . S
C414 O416 1.270 . S
O415 Zn407 1.943 . S
O415 C414 1.249 . S
O416 Zn406 2.067 . S
O416 C414 1.270 . S
C417 O410 1.262 . S
C417 O418 1.232 . S
O418 C417 1.232 . S
C419 O411 1.260 . S
C419 O412 1.257 . S
Zn420 O423 2.031 . S
Zn420 O425 2.049 . S
Zn420 O430 2.067 . S
Zn421 O422 1.962 . S
Zn421 O424 1.986 . S
Zn421 O426 1.996 . S
Zn421 O429 1.943 1_554 S
O422 Zn421 1.962 . S
O422 C427 1.254 . S
O423 Zn420 2.031 . S
O423 C427 1.269 1_556 S
O424 Zn421 1.986 . S
O424 C431 1.262 . S
O425 Zn420 2.049 . S
O425 C433 1.260 1_556 S
O426 Zn421 1.996 . S
O426 C433 1.257 . S
C427 O422 1.254 . S
C427 O423 1.269 1_554 S
C428 O429 1.249 . S
C428 O430 1.270 . S
O429 Zn421 1.943 1_556 S
O429 C428 1.249 . S
O430 Zn420 2.067 . S
O430 C428 1.270 . S
C431 O424 1.262 . S
C431 O432 1.232 . S
O432 C431 1.232 . S
C433 O425 1.260 1_554 S
C433 O426 1.257 . S
Zn434 O437 2.031 . S
Zn434 O439 2.049 . S
Zn434 O444 2.067 . S
Zn435 O436 1.962 . S
Zn435 O438 1.986 . S
Zn435 O440 1.996 . S
Zn435 O443 1.943 1_554 S
O436 Zn435 1.962 . S
O436 C441 1.254 . S
O437 Zn434 2.031 . S
O437 C441 1.269 1_556 S
O438 Zn435 1.986 . S
O438 C445 1.262 . S
O439 Zn434 2.049 . S
O439 C447 1.260 1_556 S
O440 Zn435 1.996 . S
O440 C447 1.257 . S
C441 O436 1.254 . S
C441 O437 1.269 1_554 S
C442 O443 1.249 . S
C442 O444 1.270 . S
O443 Zn435 1.943 1_556 S
O443 C442 1.249 . S
O444 Zn434 2.067 . S
O444 C442 1.270 . S
C445 O438 1.262 . S
C445 O446 1.232 . S
O446 C445 1.232 . S
C447 O439 1.260 1_554 S
C447 O440 1.257 . S
C50 C8 1.102 . S
C36 C22 1.103 . S
C106 C64 1.102 . S
C92 C78 1.103 . S
C120 C162 1.102 . S
C134 C148 1.103 . S
C218 C176 1.102 . S
C190 C204 1.103 . S
C232 C274 1.103 . S
C246 C260 1.103 . S
C330 C288 1.103 . S
C316 C302 1.103 . S
C386 C344 1.102 . S
C358 C372 1.103 . S
C400 C442 1.102 . S
C414 C428 1.103 . S
C287 C7 1.681 1_565 S
C189 C21 1.681 1_655 S
C35 C427 1.681 1_556 S
C49 C105 1.681 1_446 S
C231 C63 1.681 1_545 S
C133 C77 1.681 1_455 S
C371 C91 1.681 1_556 S
C119 C399 1.680 . S
C315 C147 1.681 . S
C217 C161 1.681 1_655 S
C343 C175 1.680 . S
C203 C259 1.681 . S
C413 C245 1.681 . S
C273 C329 1.681 1_545 S
C357 C301 1.681 . S
C441 C385 1.681 1_554 S
C27 C13 2.112 . S
C41 C55 2.112 . S
C69 C83 2.112 . S
C111 C97 2.112 . S
C125 C139 2.112 . S
C153 C167 2.112 . S
C195 C181 2.112 . S
C209 C223 2.112 . S
C237 C251 2.112 . S
C265 C279 2.112 . S
C293 C307 2.112 . S
C335 C321 2.112 . S
C363 C349 2.112 . S
C377 C391 2.112 . S
C405 C419 2.112 . S
C447 C433 2.112 . S
C11 C277 1.620 . S
C25 C263 1.620 . S
C249 C39 1.620 . S
C53 C235 1.620 . S
C333 C67 1.620 . S
C81 C319 1.620 . S
C305 C95 1.620 . S
C109 C291 1.620 . S
C123 C389 1.620 . S
C137 C375 1.620 . S
C151 C361 1.620 . S
C347 C165 1.620 . S
C179 C445 1.620 . S
C193 C431 1.620 . S
C207 C417 1.620 . S
C403 C221 1.620 . S
