# Generated by pormake.
# Topology lta, (4)-cn, num edge types: 1
# Building blocks:
#     Node 0, Type 0, BuildingBlock: AZAVOO_clean_sbu_0, # of connection points: 4
#     Node 1, Type 0, BuildingBlock: AZAVOO_clean_sbu_0, # of connection points: 4
#     Node 2, Type 0, BuildingBlock: AZAVOO_clean_sbu_0, # of connection points: 4
#     Node 3, Type 0, BuildingBlock: AZAVOO_clean_sbu_0, # of connection points: 4
#     Node 4, Type 0, BuildingBlock: AZAVOO_clean_sbu_0, # of connection points: 4
#     Node 5, Type 0, BuildingBlock: AZAVOO_clean_sbu_0, # of connection points: 4
#     Node 6, Type 0, BuildingBlock: AZAVOO_clean_sbu_0, # of connection points: 4
#     Node 7, Type 0, BuildingBlock: AZAVOO_clean_sbu_0, # of connection points: 4
#     Node 8, Type 0, BuildingBlock: AZAVOO_clean_sbu_0, # of connection points: 4
#     Node 9, Type 0, BuildingBlock: AZAVOO_clean_sbu_0, # of connection points: 4
#     Node 10, Type 0, BuildingBlock: AZAVOO_clean_sbu_0, # of connection points: 4
#     Node 11, Type 0, BuildingBlock: AZAVOO_clean_sbu_0, # of connection points: 4
#     Node 12, Type 0, BuildingBlock: AZAVOO_clean_sbu_0, # of connection points: 4
#     Node 13, Type 0, BuildingBlock: AZAVOO_clean_sbu_0, # of connection points: 4
#     Node 14, Type 0, BuildingBlock: AZAVOO_clean_sbu_0, # of connection points: 4
#     Node 15, Type 0, BuildingBlock: AZAVOO_clean_sbu_0, # of connection points: 4
#     Node 16, Type 0, BuildingBlock: AZAVOO_clean_sbu_0, # of connection points: 4
#     Node 17, Type 0, BuildingBlock: AZAVOO_clean_sbu_0, # of connection points: 4
#     Node 18, Type 0, BuildingBlock: AZAVOO_clean_sbu_0, # of connection points: 4
#     Node 19, Type 0, BuildingBlock: AZAVOO_clean_sbu_0, # of connection points: 4
#     Node 20, Type 0, BuildingBlock: AZAVOO_clean_sbu_0, # of connection points: 4
#     Node 21, Type 0, BuildingBlock: AZAVOO_clean_sbu_0, # of connection points: 4
#     Node 22, Type 0, BuildingBlock: AZAVOO_clean_sbu_0, # of connection points: 4
#     Node 23, Type 0, BuildingBlock: AZAVOO_clean_sbu_0, # of connection points: 4
#     Edge 24, Type (0, 0), BuildingBlock: AJUNOK_clean_linker_0, # of connection points: 2
#     Edge 25, Type (0, 0), BuildingBlock: AJUNOK_clean_linker_0, # of connection points: 2
#     Edge 26, Type (0, 0), BuildingBlock: AJUNOK_clean_linker_0, # of connection points: 2
#     Edge 27, Type (0, 0), BuildingBlock: AJUNOK_clean_linker_0, # of connection points: 2
#     Edge 28, Type (0, 0), BuildingBlock: AJUNOK_clean_linker_0, # of connection points: 2
#     Edge 29, Type (0, 0), BuildingBlock: AJUNOK_clean_linker_0, # of connection points: 2
#     Edge 30, Type (0, 0), BuildingBlock: AJUNOK_clean_linker_0, # of connection points: 2
#     Edge 31, Type (0, 0), BuildingBlock: AJUNOK_clean_linker_0, # of connection points: 2
#     Edge 32, Type (0, 0), BuildingBlock: AJUNOK_clean_linker_0, # of connection points: 2
#     Edge 33, Type (0, 0), BuildingBlock: AJUNOK_clean_linker_0, # of connection points: 2
#     Edge 34, Type (0, 0), BuildingBlock: AJUNOK_clean_linker_0, # of connection points: 2
#     Edge 35, Type (0, 0), BuildingBlock: AJUNOK_clean_linker_0, # of connection points: 2
#     Edge 36, Type (0, 0), BuildingBlock: AJUNOK_clean_linker_0, # of connection points: 2
#     Edge 37, Type (0, 0), BuildingBlock: AJUNOK_clean_linker_0, # of connection points: 2
#     Edge 38, Type (0, 0), BuildingBlock: AJUNOK_clean_linker_0, # of connection points: 2
#     Edge 39, Type (0, 0), BuildingBlock: AJUNOK_clean_linker_0, # of connection points: 2
#     Edge 40, Type (0, 0), BuildingBlock: AJUNOK_clean_linker_0, # of connection points: 2
#     Edge 41, Type (0, 0), BuildingBlock: AJUNOK_clean_linker_0, # of connection points: 2
#     Edge 42, Type (0, 0), BuildingBlock: AJUNOK_clean_linker_0, # of connection points: 2
#     Edge 43, Type (0, 0), BuildingBlock: AJUNOK_clean_linker_0, # of connection points: 2
#     Edge 44, Type (0, 0), BuildingBlock: AJUNOK_clean_linker_0, # of connection points: 2
#     Edge 45, Type (0, 0), BuildingBlock: AJUNOK_clean_linker_0, # of connection points: 2
#     Edge 46, Type (0, 0), BuildingBlock: AJUNOK_clean_linker_0, # of connection points: 2
#     Edge 47, Type (0, 0), BuildingBlock: AJUNOK_clean_linker_0, # of connection points: 2
#     Edge 48, Type (0, 0), BuildingBlock: AJUNOK_clean_linker_0, # of connection points: 2
#     Edge 49, Type (0, 0), BuildingBlock: AJUNOK_clean_linker_0, # of connection points: 2
#     Edge 50, Type (0, 0), BuildingBlock: AJUNOK_clean_linker_0, # of connection points: 2
#     Edge 51, Type (0, 0), BuildingBlock: AJUNOK_clean_linker_0, # of connection points: 2
#     Edge 52, Type (0, 0), BuildingBlock: AJUNOK_clean_linker_0, # of connection points: 2
#     Edge 53, Type (0, 0), BuildingBlock: AJUNOK_clean_linker_0, # of connection points: 2
#     Edge 54, Type (0, 0), BuildingBlock: AJUNOK_clean_linker_0, # of connection points: 2
#     Edge 55, Type (0, 0), BuildingBlock: AJUNOK_clean_linker_0, # of connection points: 2
#     Edge 56, Type (0, 0), BuildingBlock: AJUNOK_clean_linker_0, # of connection points: 2
#     Edge 57, Type (0, 0), BuildingBlock: AJUNOK_clean_linker_0, # of connection points: 2
#     Edge 58, Type (0, 0), BuildingBlock: AJUNOK_clean_linker_0, # of connection points: 2
#     Edge 59, Type (0, 0), BuildingBlock: AJUNOK_clean_linker_0, # of connection points: 2
#     Edge 60, Type (0, 0), BuildingBlock: AJUNOK_clean_linker_0, # of connection points: 2
#     Edge 61, Type (0, 0), BuildingBlock: AJUNOK_clean_linker_0, # of connection points: 2
#     Edge 62, Type (0, 0), BuildingBlock: AJUNOK_clean_linker_0, # of connection points: 2
#     Edge 63, Type (0, 0), BuildingBlock: AJUNOK_clean_linker_0, # of connection points: 2
#     Edge 64, Type (0, 0), BuildingBlock: AJUNOK_clean_linker_0, # of connection points: 2
#     Edge 65, Type (0, 0), BuildingBlock: AJUNOK_clean_linker_0, # of connection points: 2
#     Edge 66, Type (0, 0), BuildingBlock: AJUNOK_clean_linker_0, # of connection points: 2
#     Edge 67, Type (0, 0), BuildingBlock: AJUNOK_clean_linker_0, # of connection points: 2
#     Edge 68, Type (0, 0), BuildingBlock: AJUNOK_clean_linker_0, # of connection points: 2
#     Edge 69, Type (0, 0), BuildingBlock: AJUNOK_clean_linker_0, # of connection points: 2
#     Edge 70, Type (0, 0), BuildingBlock: AJUNOK_clean_linker_0, # of connection points: 2
#     Edge 71, Type (0, 0), BuildingBlock: AJUNOK_clean_linker_0, # of connection points: 2
# Relax obj value: 0.170
# Max RMSD: 0.071
# Mean RMSD: 0.071
data_MOF--net-lta--node1-AZAVOO_clean_sbu_0--edge1-AJUNOK_clean_linker_0
_symmetry_space_group_name_H-M    P1
_symmetry_Int_Tables_number       1
_symmetry_cell_setting            triclinic
loop_
_symmetry_equiv_pos_as_xyz
'x, y, z'
_cell_length_a     41.820877
_cell_length_b     41.805244
_cell_length_c     41.803364
_cell_angle_alpha  90.007075
_cell_angle_beta   90.045684
_cell_angle_gamma 89.969604
loop_
_atom_site_label
_atom_site_type_symbol
_atom_site_fract_x
_atom_site_fract_y
_atom_site_fract_z
_atom_type_partial_charge
Mg0 Mg 0.11397 0.30313 0.54063 0.0
O1 O 0.1131 0.33501 0.49574 0.0
O2 O 0.0679 0.36336 0.49799 0.0
Mg3 Mg 0.04093 0.35186 0.54404 0.0
C4 C 0.09397 0.35573 0.484 0.0
C5 C 0.16688 0.25736 0.53866 0.0
O6 O 0.1439 0.24637 0.55704 0.0
O7 O 0.13022 0.34665 0.57037 0.0
O8 O 0.08315 0.37251 0.57128 0.0
O9 O 0.08358 0.26692 0.51517 0.0
O10 O 0.06436 0.30563 0.54538 0.0
C11 C 0.11252 0.37003 0.57917 0.0
C12 C 0.05912 0.28227 0.52621 0.0
O13 O 0.16409 0.28571 0.52802 0.0
Mg14 Mg 0.69716 0.12117 0.54462 0.0
O15 O 0.66324 0.12617 0.50179 0.0
O16 O 0.63032 0.08402 0.50333 0.0
Mg17 Mg 0.64469 0.05075 0.54438 0.0
C18 C 0.63957 0.11035 0.49092 0.0
C19 C 0.74564 0.17039 0.53514 0.0
O20 O 0.75929 0.14465 0.54698 0.0
O21 O 0.65628 0.13639 0.57855 0.0
O22 O 0.62887 0.0902 0.57802 0.0
O23 O 0.73023 0.09163 0.51428 0.0
O24 O 0.69234 0.07144 0.54496 0.0
C25 C 0.63333 0.11859 0.58825 0.0
C26 C 0.71448 0.06701 0.52424 0.0
O27 O 0.7153 0.17143 0.53429 0.0
Mg28 Mg 0.88038 0.69954 0.53989 0.0
O29 O 0.88063 0.6657 0.49663 0.0
O30 O 0.92674 0.63864 0.4994 0.0
Mg31 Mg 0.95721 0.65718 0.54098 0.0
C32 C 0.89973 0.6443 0.4863 0.0
C33 C 0.82179 0.7383 0.54322 0.0
O34 O 0.84218 0.7494 0.56443 0.0
O35 O 0.87034 0.65648 0.57326 0.0
O36 O 0.92007 0.63619 0.57437 0.0
O37 O 0.90578 0.73678 0.51058 0.0
O38 O 0.93008 0.70142 0.54134 0.0
C39 C 0.89109 0.6365 0.58382 0.0
C40 C 0.93205 0.72427 0.52103 0.0
O41 O 0.82836 0.71185 0.52982 0.0
Mg42 Mg 0.30624 0.87319 0.54642 0.0
O43 O 0.33971 0.86972 0.502 0.0
O44 O 0.3752 0.91048 0.50073 0.0
Mg45 Mg 0.36933 0.94317 0.54458 0.0
C46 C 0.36301 0.88485 0.48903 0.0
C47 C 0.25256 0.8262 0.53888 0.0
O48 O 0.24062 0.85129 0.55357 0.0
O49 O 0.34536 0.84986 0.57984 0.0
O50 O 0.35299 0.89801 0.56469 0.0
O51 O 0.27637 0.90984 0.52108 0.0
O52 O 0.31878 0.92395 0.54912 0.0
C53 C 0.36338 0.87425 0.57997 0.0
C54 C 0.2952 0.93222 0.53114 0.0
O55 O 0.28242 0.82584 0.53332 0.0
Mg56 Mg 0.11325 0.70006 0.45372 0.0
O57 O 0.11259 0.668 0.49806 0.0
O58 O 0.06741 0.63977 0.49582 0.0
Mg59 Mg 0.03852 0.65364 0.4515 0.0
C60 C 0.0938 0.64694 0.50948 0.0
C61 C 0.16513 0.74518 0.46857 0.0
O62 O 0.141 0.76143 0.4567 0.0
O63 O 0.12715 0.65601 0.42279 0.0
O64 O 0.0786 0.63311 0.42137 0.0
O65 O 0.08376 0.73683 0.48011 0.0
O66 O 0.06326 0.69918 0.44968 0.0
C67 C 0.10786 0.63431 0.41286 0.0
C68 C 0.05875 0.72252 0.46902 0.0
O69 O 0.16402 0.71481 0.46768 0.0
Mg70 Mg 0.29914 0.11696 0.45997 0.0
O71 O 0.33317 0.12574 0.50199 0.0
O72 O 0.37018 0.08713 0.50069 0.0
Mg73 Mg 0.35854 0.05185 0.46048 0.0
C74 C 0.35848 0.11263 0.51276 0.0
C75 C 0.24784 0.16368 0.47664 0.0
O76 O 0.23378 0.13594 0.47225 0.0
O77 O 0.3378 0.13526 0.4247 0.0
O78 O 0.36946 0.09187 0.42575 0.0
O79 O 0.26979 0.08422 0.49132 0.0
O80 O 0.309 0.06768 0.46025 0.0
C81 C 0.36216 0.11943 0.41493 0.0
C82 C 0.28769 0.06117 0.48124 0.0
O83 O 0.27738 0.16624 0.47006 0.0
Mg84 Mg 0.87819 0.30073 0.4506 0.0
O85 O 0.87864 0.33734 0.49241 0.0
O86 O 0.92447 0.36594 0.49279 0.0
Mg87 Mg 0.95671 0.35189 0.45038 0.0
C88 C 0.897 0.35876 0.50441 0.0
C89 C 0.82757 0.25407 0.46043 0.0
O90 O 0.85166 0.24049 0.44547 0.0
O91 O 0.86137 0.34039 0.41428 0.0
O92 O 0.91011 0.34206 0.42888 0.0
O93 O 0.90829 0.26822 0.48035 0.0
O94 O 0.93013 0.30485 0.44902 0.0
C95 C 0.88808 0.35467 0.41267 0.0
C96 C 0.93357 0.28261 0.46999 0.0
O97 O 0.82823 0.28422 0.46406 0.0
Mg98 Mg 0.69625 0.88216 0.45729 0.0
O99 O 0.66648 0.87836 0.50321 0.0
O100 O 0.63111 0.91851 0.50326 0.0
Mg101 Mg 0.63893 0.94922 0.45865 0.0
C102 C 0.6433 0.89353 0.51587 0.0
C103 C 0.74534 0.8341 0.4792 0.0
O104 O 0.76052 0.86148 0.47705 0.0
O105 O 0.65398 0.86282 0.42722 0.0
O106 O 0.6232 0.90682 0.42884 0.0
O107 O 0.72945 0.91655 0.48241 0.0
O108 O 0.68789 0.93173 0.45405 0.0
C109 C 0.6288 0.8784 0.41931 0.0
C110 C 0.71146 0.93941 0.47207 0.0
O111 O 0.71652 0.83258 0.46965 0.0
Mg112 Mg 0.54097 0.11946 0.30559 0.0
O113 O 0.49157 0.12602 0.32854 0.0
O114 O 0.48232 0.084 0.36027 0.0
Mg115 Mg 0.52618 0.05159 0.35981 0.0
C116 C 0.47385 0.11051 0.3478 0.0
C117 C 0.53504 0.16854 0.25396 0.0
O118 O 0.54562 0.14235 0.24018 0.0
O119 O 0.56508 0.13629 0.35267 0.0
O120 O 0.55418 0.09246 0.38165 0.0
O121 O 0.51979 0.08661 0.26779 0.0
O122 O 0.54037 0.06997 0.31317 0.0
C123 C 0.56649 0.12021 0.37876 0.0
C124 C 0.52622 0.06315 0.28686 0.0
O125 O 0.53381 0.16929 0.28432 0.0
Mg126 Mg 0.88971 0.53671 0.30344 0.0
O127 O 0.89383 0.49102 0.33337 0.0
O128 O 0.94147 0.48971 0.3573 0.0
Mg129 Mg 0.96662 0.53694 0.34613 0.0
C130 C 0.91428 0.47718 0.35126 0.0
C131 C 0.82236 0.53641 0.27102 0.0
O132 O 0.83399 0.563 0.259 0.0
O133 O 0.87763 0.56483 0.34952 0.0
O134 O 0.9261 0.56209 0.37241 0.0
O135 O 0.91668 0.51194 0.26429 0.0
O136 O 0.93968 0.5414 0.3016 0.0
C137 C 0.89685 0.57077 0.37264 0.0
C138 C 0.94253 0.52225 0.27778 0.0
O139 O 0.83827 0.5219 0.29248 0.0
Mg140 Mg 0.45573 0.88071 0.2998 0.0
O141 O 0.50334 0.8732 0.32635 0.0
O142 O 0.5086 0.91388 0.36083 0.0
Mg143 Mg 0.46675 0.94839 0.35505 0.0
C144 C 0.51839 0.88771 0.34855 0.0
C145 C 0.45692 0.83139 0.24858 0.0
O146 O 0.44432 0.85739 0.2362 0.0
O147 O 0.42882 0.86397 0.3453 0.0
O148 O 0.43654 0.90807 0.37495 0.0
O149 O 0.48014 0.91181 0.26292 0.0
O150 O 0.45804 0.93002 0.30718 0.0
C151 C 0.42486 0.88017 0.37102 0.0
C152 C 0.47428 0.93556 0.28177 0.0
O153 O 0.46199 0.83095 0.27854 0.0
Mg154 Mg 0.1249 0.45265 0.30329 0.0
O155 O 0.12406 0.49962 0.33296 0.0
O156 O 0.07632 0.50608 0.35728 0.0
Mg157 Mg 0.04794 0.45919 0.35369 0.0
C158 C 0.10434 0.51595 0.34975 0.0
C159 C 0.17504 0.45828 0.25445 0.0
O160 O 0.15198 0.4401 0.24325 0.0
O161 O 0.14404 0.42265 0.34742 0.0
O162 O 0.09615 0.43899 0.35274 0.0
O163 O 0.09308 0.47653 0.26674 0.0
O164 O 0.07279 0.4499 0.30735 0.0
C165 C 0.1187 0.42271 0.36408 0.0
C166 C 0.06821 0.4671 0.28237 0.0
O167 O 0.17424 0.46564 0.28393 0.0
Mg168 Mg 0.53896 0.885 0.69929 0.0
O169 O 0.49486 0.88315 0.66655 0.0
O170 O 0.49552 0.9273 0.63648 0.0
Mg171 Mg 0.53907 0.95762 0.64973 0.0
C172 C 0.48286 0.90072 0.64467 0.0
C173 C 0.53076 0.83507 0.74709 0.0
O174 O 0.54598 0.85946 0.75979 0.0
O175 O 0.57051 0.87014 0.65625 0.0
O176 O 0.56967 0.91714 0.63024 0.0
O177 O 0.51102 0.9141 0.73467 0.0
O178 O 0.54086 0.93502 0.69655 0.0
C179 C 0.57915 0.88829 0.6331 0.0
C180 C 0.52103 0.9391 0.71959 0.0
O181 O 0.52716 0.8346 0.71689 0.0
Mg182 Mg 0.12197 0.54793 0.69329 0.0
O183 O 0.12447 0.50193 0.663 0.0
O184 O 0.07755 0.4936 0.63817 0.0
Mg185 Mg 0.04555 0.53716 0.64673 0.0
C186 C 0.10618 0.48536 0.64504 0.0
C187 C 0.17337 0.54268 0.74085 0.0
O188 O 0.14934 0.55849 0.75354 0.0
O189 O 0.13733 0.57853 0.64838 0.0
O190 O 0.08951 0.56337 0.635 0.0
O191 O 0.09373 0.52068 0.73067 0.0
O192 O 0.07022 0.54705 0.69182 0.0
C193 C 0.1146 0.57845 0.62804 0.0
C194 C 0.06777 0.52873 0.71613 0.0
O195 O 0.1726 0.53745 0.7109 0.0
Mg196 Mg 0.45424 0.12236 0.69875 0.0
O197 O 0.50274 0.12632 0.67374 0.0
O198 O 0.5085 0.08389 0.64163 0.0
Mg199 Mg 0.46338 0.05334 0.64467 0.0
C200 C 0.51871 0.11004 0.65359 0.0
C201 C 0.46161 0.1704 0.75037 0.0
O202 O 0.44817 0.14492 0.76293 0.0
O203 O 0.42936 0.1403 0.65251 0.0
O204 O 0.43691 0.09562 0.62369 0.0
O205 O 0.47613 0.08939 0.73556 0.0
O206 O 0.45233 0.07279 0.69163 0.0
C207 C 0.42626 0.12404 0.62668 0.0
C208 C 0.46784 0.06599 0.71716 0.0
O209 O 0.46442 0.17162 0.72013 0.0
Mg210 Mg 0.88893 0.45498 0.69255 0.0
O211 O 0.88539 0.50328 0.66695 0.0
O212 O 0.93051 0.51104 0.63927 0.0
Mg213 Mg 0.96076 0.46569 0.64281 0.0
C214 C 0.90308 0.52026 0.64892 0.0
C215 C 0.83864 0.46167 0.74169 0.0
O216 O 0.86386 0.44871 0.75526 0.0
O217 O 0.87413 0.42978 0.64543 0.0
O218 O 0.91979 0.43923 0.61892 0.0
O219 O 0.91893 0.47821 0.73093 0.0
O220 O 0.93907 0.45414 0.68863 0.0
C221 C 0.89156 0.42778 0.62028 0.0
C222 C 0.94367 0.47038 0.71421 0.0
O223 O 0.83836 0.46423 0.71138 0.0
Mg224 Mg 0.29954 0.5431 0.11513 0.0
O225 O 0.33017 0.49755 0.11404 0.0
O226 O 0.35573 0.49517 0.0672 0.0
Mg227 Mg 0.34562 0.54176 0.04029 0.0
C228 C 0.34872 0.48332 0.09446 0.0
C229 C 0.2544 0.53299 0.16791 0.0
O230 O 0.23965 0.54878 0.14507 0.0
O231 O 0.34477 0.57145 0.12913 0.0
O232 O 0.36953 0.56809 0.08161 0.0
O233 O 0.26177 0.51776 0.08658 0.0
O234 O 0.30016 0.54675 0.065 0.0
C235 C 0.36845 0.57742 0.11066 0.0
C236 C 0.27628 0.52788 0.06127 0.0
O237 O 0.28455 0.52975 0.16598 0.0
Mg238 Mg 0.29839 0.45668 0.88012 0.0
O239 O 0.32676 0.50311 0.875 0.0
O240 O 0.35733 0.50926 0.91846 0.0
Mg241 Mg 0.34975 0.466 0.95113 0.0
C242 C 0.34721 0.51871 0.89126 0.0
C243 C 0.24989 0.46747 0.82938 0.0
O244 O 0.23459 0.45775 0.85503 0.0
O245 O 0.3439 0.42853 0.86555 0.0
O246 O 0.37129 0.43652 0.91109 0.0
O247 O 0.26171 0.48251 0.91034 0.0
O248 O 0.30306 0.45656 0.93012 0.0
C249 C 0.36882 0.42476 0.88304 0.0
C250 C 0.27826 0.47387 0.93495 0.0
O251 O 0.28024 0.46601 0.82932 0.0
Mg252 Mg 0.5418 0.30373 0.88586 0.0
O253 O 0.49657 0.33431 0.87963 0.0
O254 O 0.49598 0.36958 0.91993 0.0
Mg255 Mg 0.53765 0.35969 0.95388 0.0
C256 C 0.48419 0.35806 0.89422 0.0
C257 C 0.53271 0.2526 0.83757 0.0
O258 O 0.54366 0.23914 0.8638 0.0
O259 O 0.57282 0.34651 0.86885 0.0
O260 O 0.56971 0.37609 0.91361 0.0
O261 O 0.51455 0.26959 0.91763 0.0
O262 O 0.54147 0.31142 0.93515 0.0
C263 C 0.58041 0.37113 0.8855 0.0
C264 C 0.52284 0.28787 0.94112 0.0
O265 O 0.53223 0.28296 0.83622 0.0
Mg266 Mg 0.70533 0.5407 0.8773 0.0
O267 O 0.6744 0.49552 0.87484 0.0
O268 O 0.64121 0.497 0.91676 0.0
Mg269 Mg 0.65242 0.54103 0.94741 0.0
C270 C 0.65154 0.48386 0.89121 0.0
C271 C 0.75433 0.53223 0.82704 0.0
O272 O 0.76782 0.5464 0.85166 0.0
O273 O 0.66225 0.57092 0.85995 0.0
O274 O 0.63452 0.57123 0.90595 0.0
O275 O 0.74024 0.51479 0.90901 0.0
O276 O 0.70027 0.54406 0.9271 0.0
C277 C 0.63848 0.58002 0.877 0.0
C278 C 0.72386 0.52536 0.93299 0.0
O279 O 0.72419 0.52852 0.82751 0.0
Mg280 Mg 0.46094 0.6929 0.87814 0.0
O281 O 0.50728 0.66489 0.8693 0.0
O282 O 0.51167 0.62857 0.90835 0.0
Mg283 Mg 0.4693 0.63324 0.94247 0.0
C284 C 0.52186 0.64183 0.88285 0.0
C285 C 0.4648 0.74719 0.83291 0.0
O286 O 0.45225 0.75762 0.85976 0.0
O287 O 0.43011 0.65074 0.85954 0.0
O288 O 0.43646 0.61855 0.90209 0.0
O289 O 0.48749 0.72563 0.912 0.0
O290 O 0.46158 0.68232 0.92692 0.0
C291 C 0.4243 0.6248 0.87483 0.0
C292 C 0.47906 0.70626 0.93456 0.0
O293 O 0.46863 0.7172 0.8298 0.0
Mg294 Mg 0.70333 0.46497 0.11852 0.0
O295 O 0.66784 0.50648 0.1168 0.0
O296 O 0.63799 0.50104 0.07289 0.0
Mg297 Mg 0.65557 0.45708 0.04499 0.0
C298 C 0.64513 0.51574 0.09872 0.0
C299 C 0.73816 0.46816 0.18528 0.0
O300 O 0.75029 0.44108 0.17493 0.0
O301 O 0.66232 0.4308 0.13403 0.0
O302 O 0.63864 0.42607 0.08605 0.0
O303 O 0.73735 0.49321 0.08741 0.0
O304 O 0.70178 0.45913 0.06883 0.0
C305 C 0.64131 0.41836 0.11545 0.0
C306 C 0.72358 0.47985 0.06313 0.0
O307 O 0.7163 0.48158 0.16898 0.0
Mg308 Mg 0.54589 0.69365 0.12111 0.0
O309 O 0.50125 0.66037 0.12252 0.0
O310 O 0.49951 0.62757 0.07962 0.0
Mg311 Mg 0.54485 0.63404 0.04942 0.0
C312 C 0.48787 0.63839 0.10585 0.0
C313 C 0.52736 0.74623 0.16474 0.0
O314 O 0.53862 0.75934 0.13852 0.0
O315 O 0.57822 0.65355 0.14486 0.0
O316 O 0.56351 0.64447 0.09691 0.0
O317 O 0.52011 0.72469 0.08581 0.0
O318 O 0.54932 0.68384 0.06957 0.0
C319 C 0.57826 0.63464 0.12115 0.0
C320 C 0.53053 0.70717 0.06269 0.0
O321 O 0.53026 0.71618 0.16839 0.0
Mg322 Mg 0.45857 0.31129 0.12667 0.0
O323 O 0.50666 0.3392 0.13144 0.0
O324 O 0.5173 0.36251 0.08427 0.0
Mg325 Mg 0.46757 0.37009 0.06409 0.0
C326 C 0.52564 0.35365 0.11231 0.0
C327 C 0.46631 0.25871 0.17296 0.0
O328 O 0.45338 0.24702 0.14678 0.0
O329 O 0.42669 0.35312 0.14376 0.0
O330 O 0.45796 0.38426 0.11576 0.0
O331 O 0.48272 0.27731 0.09308 0.0
O332 O 0.45642 0.3201 0.07696 0.0
C333 C 0.43213 0.38027 0.13106 0.0
C334 C 0.47364 0.29561 0.06986 0.0
O335 O 0.46875 0.28891 0.17541 0.0
C336 C 0.08393 0.40568 0.4091 0.0
C337 C 0.11433 0.40516 0.39466 0.0
C338 C 0.07783 0.38949 0.43761 0.0
C339 C 0.10182 0.37186 0.45326 0.0
H340 H 0.0643 0.41867 0.39829 0.0
H341 H 0.05387 0.39082 0.44734 0.0
S342 S 0.1859 0.36299 0.42583 0.0
N343 N 0.16897 0.38565 0.39822 0.0
N344 N 0.15763 0.35504 0.45223 0.0
C345 C 0.13249 0.37097 0.43916 0.0
C346 C 0.13872 0.38765 0.40984 0.0
C347 C 0.58823 0.12357 0.4645 0.0
C348 C 0.62173 0.12263 0.46313 0.0
C349 C 0.57003 0.12814 0.43681 0.0
C350 C 0.58472 0.13134 0.40672 0.0
H351 H 0.57596 0.11874 0.48682 0.0
H352 H 0.54426 0.1259 0.43849 0.0
S353 S 0.67182 0.13445 0.3911 0.0
N354 N 0.66909 0.12909 0.43017 0.0
N355 N 0.63469 0.13663 0.37766 0.0
C356 C 0.61821 0.13352 0.40547 0.0
C357 C 0.63682 0.12927 0.43387 0.0
C358 C 0.88326 0.63936 0.42891 0.0
C359 C 0.89053 0.62483 0.45841 0.0
C360 C 0.8814 0.62102 0.40072 0.0
C361 C 0.88627 0.58774 0.40155 0.0
H362 H 0.88153 0.66516 0.42724 0.0
H363 H 0.87888 0.63319 0.37798 0.0
S364 S 0.89975 0.53806 0.4737 0.0
N365 N 0.89812 0.5751 0.48739 0.0
N366 N 0.89427 0.54072 0.43465 0.0
C367 C 0.8904 0.57284 0.43135 0.0
C368 C 0.89265 0.59139 0.45979 0.0
C369 C 0.40994 0.86802 0.45716 0.0
C370 C 0.37677 0.87275 0.45899 0.0
C371 C 0.42519 0.86497 0.42755 0.0
C372 C 0.40783 0.86714 0.39881 0.0
H373 H 0.42445 0.86902 0.47863 0.0
H374 H 0.4511 0.86441 0.42705 0.0
S375 S 0.32003 0.87528 0.39102 0.0
N376 N 0.32649 0.87549 0.43004 0.0
N377 N 0.35545 0.87085 0.37406 0.0
C378 C 0.37435 0.86874 0.40041 0.0
C379 C 0.3587 0.87137 0.43069 0.0
C380 C 0.09354 0.58317 0.57324 0.0
C381 C 0.11517 0.59449 0.59648 0.0
C382 C 0.08744 0.60012 0.54528 0.0
C383 C 0.10302 0.62909 0.53877 0.0
H384 H 0.08012 0.56133 0.5771 0.0
H385 H 0.06988 0.59045 0.52885 0.0
S386 S 0.16491 0.66748 0.5898 0.0
N387 N 0.15429 0.63523 0.61006 0.0
N388 N 0.14343 0.66718 0.55659 0.0
C389 C 0.12638 0.63985 0.56072 0.0
C390 C 0.1324 0.6225 0.58973 0.0
C391 C 0.40801 0.12938 0.54071 0.0
C392 C 0.37458 0.12646 0.54088 0.0
C393 C 0.42489 0.13456 0.56913 0.0
C394 C 0.40895 0.13633 0.59869 0.0
H395 H 0.42133 0.12538 0.51884 0.0
H396 H 0.45079 0.13349 0.56843 0.0
S397 S 0.32133 0.13475 0.61113 0.0
N398 N 0.32577 0.13007 0.57213 0.0
N399 N 0.35779 0.13868 0.62593 0.0
C400 C 0.3754 0.13687 0.5987 0.0
C401 C 0.35809 0.13205 0.56961 0.0
C402 C 0.88533 0.42692 0.56185 0.0
C403 C 0.88068 0.41117 0.59122 0.0
C404 C 0.8884 0.40974 0.53333 0.0
C405 C 0.88643 0.37625 0.5331 0.0
H406 H 0.88949 0.45252 0.56135 0.0
H407 H 0.89422 0.42261 0.51159 0.0
S408 S 0.87073 0.32393 0.60285 0.0
N409 N 0.87152 0.36047 0.61799 0.0
N410 N 0.8763 0.32805 0.56392 0.0
C411 C 0.87872 0.36038 0.56171 0.0
C412 C 0.87598 0.37792 0.59096 0.0
C413 C 0.58295 0.86886 0.57785 0.0
C414 C 0.59877 0.87637 0.60657 0.0
C415 C 0.59841 0.87215 0.54828 0.0
C416 C 0.63028 0.88256 0.54663 0.0
H417 H 0.55756 0.86367 0.57802 0.0
H418 H 0.58475 0.86861 0.52653 0.0
S419 S 0.68312 0.902 0.61494 0.0
N420 N 0.64862 0.89236 0.63163 0.0
N421 N 0.67805 0.89749 0.57599 0.0
C422 C 0.64722 0.88728 0.5752 0.0
C423 C 0.63134 0.88438 0.60528 0.0
C424 C 0.38564 0.1168 0.36142 0.0
C425 C 0.38458 0.13231 0.39129 0.0
C426 C 0.41468 0.11265 0.34519 0.0
C427 C 0.44331 0.12433 0.35818 0.0
H428 H 0.36473 0.10423 0.35264 0.0
H429 H 0.41517 0.09767 0.32403 0.0
S430 S 0.45245 0.17126 0.43269 0.0
N431 N 0.41385 0.16296 0.43091 0.0
N432 N 0.46843 0.15568 0.40006 0.0
C433 C 0.44197 0.14318 0.3859 0.0
C434 C 0.41245 0.14727 0.40247 0.0
C435 C 0.92455 0.39798 0.39418 0.0
C436 C 0.89328 0.38563 0.39606 0.0
C437 C 0.93094 0.42731 0.37952 0.0
C438 C 0.90639 0.44568 0.36575 0.0
H439 H 0.94457 0.38488 0.404 0.0
H440 H 0.9555 0.43552 0.37895 0.0
S441 S 0.82025 0.42381 0.36314 0.0
N442 N 0.83741 0.39375 0.3822 0.0
N443 N 0.84931 0.44903 0.35431 0.0
C444 C 0.87494 0.43343 0.36683 0.0
C445 C 0.86842 0.40342 0.38202 0.0
C446 C 0.54647 0.86201 0.39377 0.0
C447 C 0.5474 0.87338 0.36218 0.0
C448 C 0.5747 0.85767 0.4113 0.0
C449 C 0.60459 0.86497 0.39782 0.0
H450 H 0.52373 0.85919 0.40588 0.0
H451 H 0.57286 0.85241 0.43662 0.0
S452 S 0.61971 0.89119 0.31459 0.0
N453 N 0.58039 0.888 0.31682 0.0
N454 N 0.63362 0.88038 0.35001 0.0
C455 C 0.60589 0.87296 0.36521 0.0
C456 C 0.57714 0.87723 0.3473 0.0
C457 C 0.10009 0.6046 0.36285 0.0
C458 C 0.11804 0.6087 0.39104 0.0
C459 C 0.09778 0.57468 0.34801 0.0
C460 C 0.11369 0.54802 0.36066 0.0
H461 H 0.08523 0.62392 0.35399 0.0
H462 H 0.08173 0.57192 0.32783 0.0
S463 S 0.16662 0.54677 0.43168 0.0
N464 N 0.15413 0.58423 0.42941 0.0
N465 N 0.15044 0.52791 0.4009 0.0
C466 C 0.13407 0.55232 0.38701 0.0
C467 C 0.1362 0.58282 0.40234 0.0
C468 C 0.41881 0.89512 0.58093 0.0
C469 C 0.39539 0.87548 0.59489 0.0
C470 C 0.44724 0.90231 0.59692 0.0
C471 C 0.4536 0.89009 0.62761 0.0
H472 H 0.41481 0.90579 0.55767 0.0
H473 H 0.46414 0.91812 0.58527 0.0
S474 S 0.4009 0.83557 0.67383 0.0
N475 N 0.38097 0.84239 0.64036 0.0
N476 N 0.43477 0.85567 0.67066 0.0
C477 C 0.43113 0.86895 0.64123 0.0
C478 C 0.40196 0.86165 0.62479 0.0
C479 C 0.11522 0.42672 0.64711 0.0
C480 C 0.11852 0.45581 0.6307 0.0
C481 C 0.11837 0.39749 0.63089 0.0
C482 C 0.12521 0.39671 0.59798 0.0
H483 H 0.10758 0.42656 0.67185 0.0
H484 H 0.11221 0.37563 0.64337 0.0
S485 S 0.14058 0.46642 0.54562 0.0
N486 N 0.1325 0.48223 0.58095 0.0
N487 N 0.13871 0.42724 0.55054 0.0
C488 C 0.13175 0.4256 0.58225 0.0
C489 C 0.12823 0.45529 0.59862 0.0
C490 C 0.55082 0.13749 0.61215 0.0
C491 C 0.54944 0.12239 0.64212 0.0
C492 C 0.58012 0.14163 0.59643 0.0
C493 C 0.60872 0.13044 0.61014 0.0
H494 H 0.52894 0.14373 0.5997 0.0
H495 H 0.57993 0.15014 0.57194 0.0
S496 S 0.61787 0.09339 0.69007 0.0
N497 N 0.57904 0.09985 0.68662 0.0
N498 N 0.6342 0.10707 0.65677 0.0
C499 C 0.60782 0.11826 0.64142 0.0
C500 C 0.57804 0.11421 0.65749 0.0
C501 C 0.90471 0.57942 0.65024 0.0
C502 C 0.89132 0.55136 0.63771 0.0
C503 C 0.90026 0.60881 0.6348 0.0
C504 C 0.88252 0.61093 0.60626 0.0
H505 H 0.92058 0.57826 0.67072 0.0
H506 H 0.91337 0.62942 0.64348 0.0
S507 S 0.84047 0.54451 0.56551 0.0
N508 N 0.85746 0.52759 0.59696 0.0
N509 N 0.84954 0.58294 0.56753 0.0
C510 C 0.86683 0.58346 0.59505 0.0
C511 C 0.87126 0.55352 0.61087 0.0
C512 C 0.37428 0.44948 0.13692 0.0
C513 C 0.365 0.45357 0.10472 0.0
C514 C 0.39442 0.42413 0.14612 0.0
C515 C 0.40536 0.40189 0.12349 0.0
H516 H 0.36757 0.46704 0.15476 0.0
H517 H 0.40284 0.42296 0.17061 0.0
S518 S 0.38379 0.39885 0.0375 0.0
N519 N 0.36557 0.43116 0.05108 0.0
N520 N 0.40256 0.38322 0.06857 0.0
C521 C 0.39431 0.40434 0.09185 0.0
C522 C 0.3743 0.43027 0.0824 0.0
C523 C 0.41156 0.57066 0.85652 0.0
C524 C 0.40049 0.60157 0.8638 0.0
C525 C 0.39278 0.54368 0.86305 0.0
C526 C 0.36238 0.5469 0.8769 0.0
H527 H 0.43619 0.5671 0.84927 0.0
H528 H 0.40311 0.52013 0.85967 0.0
S529 S 0.32073 0.62251 0.89612 0.0
N530 N 0.35586 0.6339 0.88207 0.0
N531 N 0.32044 0.58303 0.89412 0.0
C532 C 0.34973 0.57761 0.88117 0.0
C533 C 0.36881 0.60509 0.87444 0.0
C534 C 0.45509 0.40681 0.87752 0.0
C535 C 0.45536 0.37344 0.88113 0.0
C536 C 0.4264 0.4233 0.87271 0.0
C537 C 0.39699 0.40702 0.87189 0.0
H538 H 0.47692 0.42043 0.88059 0.0
H539 H 0.42688 0.44923 0.87301 0.0
S540 S 0.38547 0.31934 0.8762 0.0
N541 N 0.42454 0.32424 0.87974 0.0
N542 N 0.37019 0.35555 0.87175 0.0
C543 C 0.39727 0.37345 0.87243 0.0
C544 C 0.42666 0.35654 0.8769 0.0
C545 C 0.65085 0.42491 0.88167 0.0
C546 C 0.6354 0.45473 0.87989 0.0
C547 C 0.63337 0.39635 0.87836 0.0
C548 C 0.60022 0.39702 0.87261 0.0
H549 H 0.67584 0.42363 0.88839 0.0
H550 H 0.64517 0.37385 0.88353 0.0
S551 S 0.55005 0.46907 0.86128 0.0
N552 N 0.58616 0.4833 0.86865 0.0
N553 N 0.55362 0.42974 0.86164 0.0
C554 C 0.58546 0.42671 0.86749 0.0
C555 C 0.60297 0.45562 0.87148 0.0
C556 C 0.61058 0.63168 0.8765 0.0
C557 C 0.61311 0.60052 0.86406 0.0
C558 C 0.58074 0.64673 0.87939 0.0
C559 C 0.55267 0.63091 0.87006 0.0
H560 H 0.63123 0.643 0.88734 0.0
H561 H 0.57935 0.66947 0.89177 0.0
S562 S 0.54707 0.55173 0.83098 0.0
N563 N 0.58564 0.55639 0.83826 0.0
N564 N 0.52942 0.58464 0.84394 0.0
C565 C 0.55521 0.60131 0.85454 0.0
C566 C 0.58559 0.58613 0.85133 0.0
C567 C 0.64099 0.56937 0.12567 0.0
C568 C 0.62657 0.54452 0.10795 0.0
C569 C 0.6245 0.59803 0.13207 0.0
C570 C 0.59309 0.60258 0.12104 0.0
H571 H 0.66561 0.56725 0.13345 0.0
H572 H 0.63698 0.6173 0.14409 0.0
S573 S 0.54255 0.54265 0.07948 0.0
N574 N 0.57755 0.52485 0.0836 0.0
N575 N 0.54677 0.5784 0.09569 0.0
C576 C 0.57775 0.57707 0.10542 0.0
C577 C 0.59443 0.5481 0.09884 0.0
C578 C 0.42568 0.57608 0.12324 0.0
C579 C 0.39717 0.59386 0.1223 0.0
C580 C 0.45542 0.59111 0.1204 0.0
C581 C 0.45759 0.62443 0.11697 0.0
H582 H 0.42485 0.55016 0.12307 0.0
H583 H 0.47671 0.57641 0.11878 0.0
S584 S 0.3903 0.68198 0.11665 0.0
N585 N 0.37299 0.6466 0.12013 0.0
N586 N 0.42922 0.6751 0.11602 0.0
C587 C 0.42954 0.64275 0.11905 0.0
C588 C 0.39914 0.62736 0.12144 0.0
C589 C 0.61401 0.3668 0.10909 0.0
C590 C 0.61749 0.39517 0.1269 0.0
C591 C 0.58447 0.35119 0.10705 0.0
C592 C 0.55767 0.36311 0.12326 0.0
H593 H 0.63326 0.35868 0.09375 0.0
H594 H 0.58194 0.33131 0.09059 0.0
S595 S 0.55532 0.43366 0.17676 0.0
N596 N 0.59263 0.43245 0.16378 0.0
N597 N 0.53711 0.40247 0.16067 0.0
C598 C 0.56166 0.38924 0.144 0.0
C599 C 0.59173 0.4054 0.14579 0.0
C600 C 0.02251 0.27135 0.48043 0.0
C601 C 0.02674 0.27743 0.51323 0.0
C602 C 0.99194 0.27214 0.46664 0.0
C603 C 0.96472 0.27796 0.48542 0.0
H604 H 0.04303 0.26772 0.46504 0.0
H605 H 0.98963 0.26885 0.44103 0.0
S606 S 0.96282 0.29387 0.5725 0.0
N607 N 0.00111 0.28878 0.56421 0.0
N608 N 0.94359 0.289 0.53832 0.0
C609 C 0.96845 0.28266 0.51839 0.0
C610 C 0.99955 0.2827 0.5323 0.0
C611 C 0.73015 0.00979 0.52609 0.0
C612 C 0.71763 0.03573 0.50884 0.0
C613 C 0.72935 0.97873 0.51342 0.0
C614 C 0.71514 0.97264 0.48351 0.0
H615 H 0.73997 0.01345 0.5498 0.0
H616 H 0.73871 0.95925 0.52772 0.0
S617 S 0.67929 0.03312 0.4291 0.0
N618 N 0.69144 0.05393 0.46041 0.0
N619 N 0.68911 0.99557 0.43663 0.0
C620 C 0.70302 0.99869 0.46587 0.0
C621 C 0.70443 0.03028 0.47856 0.0
C622 C 0.96853 0.72141 0.47458 0.0
C623 C 0.96304 0.73106 0.50621 0.0
C624 C 0.99965 0.72024 0.46228 0.0
C625 C 0.0262 0.72907 0.48109 0.0
H626 H 0.94893 0.71277 0.45997 0.0
H627 H 0.00304 0.71121 0.43823 0.0
S628 S 0.02359 0.75864 0.56468 0.0
N629 N 0.98587 0.75116 0.55563 0.0
N630 N 0.04445 0.74996 0.53227 0.0
C631 C 0.02068 0.74064 0.51216 0.0
C632 C 0.98902 0.74126 0.52483 0.0
C633 C 0.27266 0.00371 0.47972 0.0
C634 C 0.28697 0.02935 0.49599 0.0
C635 C 0.27473 0.97242 0.49168 0.0
C636 C 0.29178 0.9657 0.51996 0.0
H637 H 0.26026 0.00783 0.45733 0.0
H638 H 0.26367 0.95327 0.47818 0.0
S639 S 0.33304 0.02532 0.57147 0.0
N640 N 0.3181 0.04662 0.54173 0.0
N641 N 0.32234 0.98794 0.56441 0.0
C642 C 0.30583 0.99146 0.53661 0.0
C643 C 0.30337 0.02329 0.52454 0.0
C644 C 0.51491 0.97436 0.2996 0.0
C645 C 0.49045 0.96649 0.27814 0.0
C646 C 0.52721 0.00538 0.30097 0.0
C647 C 0.51516 0.02993 0.28123 0.0
H648 H 0.52404 0.95662 0.31612 0.0
H649 H 0.54578 0.01026 0.31836 0.0
S650 S 0.45259 0.02043 0.21897 0.0
N651 N 0.45586 0.9845 0.23515 0.0
N652 N 0.47877 0.04335 0.23775 0.0
C653 C 0.49171 0.02188 0.25842 0.0
C654 C 0.47932 0.99001 0.25694 0.0
C655 C 0.0009 0.52556 0.26669 0.0
C656 C 0.97359 0.50676 0.2722 0.0
C657 C 0.03165 0.51207 0.26773 0.0
C658 C 0.03596 0.47964 0.27551 0.0
H659 H 0.99851 0.55105 0.26269 0.0
H660 H 0.05217 0.52752 0.26442 0.0
S661 S 0.97201 0.42041 0.29183 0.0
N662 N 0.95265 0.45406 0.28452 0.0
N663 N 0.01039 0.42895 0.28799 0.0
C664 C 0.00875 0.4605 0.28032 0.0
C665 C 0.97752 0.47402 0.27828 0.0
C666 C 0.52313 0.9965 0.73518 0.0
C667 C 0.50554 0.97027 0.72373 0.0
C668 C 0.51003 0.02744 0.73491 0.0
C669 C 0.47939 0.03303 0.72219 0.0
H670 H 0.54741 0.99319 0.7436 0.0
H671 H 0.5246 0.04725 0.74308 0.0
S672 S 0.42388 0.97183 0.68966 0.0
N673 N 0.45591 0.95138 0.70046 0.0
N674 N 0.43155 0.00952 0.69874 0.0
C675 C 0.46142 0.00672 0.7113 0.0
C676 C 0.47447 0.97528 0.71233 0.0
C677 C 0.97897 0.51687 0.72626 0.0
C678 C 0.97552 0.48394 0.72056 0.0
C679 C 0.00935 0.5311 0.72645 0.0
C680 C 0.03714 0.51266 0.72212 0.0
H681 H 0.95804 0.53199 0.72856 0.0
H682 H 0.01108 0.55685 0.72893 0.0
S683 S 0.04083 0.42545 0.70732 0.0
N684 N 0.00226 0.43326 0.71083 0.0
N685 N 0.0594 0.45992 0.71257 0.0
C686 C 0.03405 0.47957 0.71781 0.0
C687 C 0.00316 0.46522 0.71669 0.0
C688 C 0.26722 0.51957 0.97175 0.0
C689 C 0.27215 0.48664 0.96719 0.0
C690 C 0.26712 0.53275 0.00264 0.0
C691 C 0.27078 0.51323 0.0298 0.0
H692 H 0.26538 0.53543 0.95133 0.0
H693 H 0.26512 0.55846 0.00529 0.0
S694 S 0.28285 0.4255 0.03056 0.0
N695 N 0.28008 0.43478 0.99224 0.0
N696 N 0.27843 0.45945 0.05028 0.0
C697 C 0.27414 0.48015 0.02558 0.0
C698 C 0.27519 0.46687 0.99421 0.0
C699 C 0.48441 0.30859 0.98083 0.0
C700 C 0.50749 0.28576 0.97253 0.0
C701 C 0.47304 0.31088 0.01219 0.0
C702 C 0.48467 0.29064 0.03652 0.0
H703 H 0.47565 0.32534 0.96311 0.0
H704 H 0.45547 0.32918 0.01742 0.0
S705 S 0.54462 0.22588 0.0261 0.0
N706 N 0.54097 0.24181 0.99011 0.0
N707 N 0.51981 0.24592 0.04944 0.0
C708 C 0.50712 0.26693 0.02813 0.0
C709 C 0.51854 0.26458 0.99601 0.0
C710 C 0.73125 0.53455 0.99138 0.0
C711 C 0.72862 0.51308 0.9656 0.0
C712 C 0.73184 0.52351 0.02311 0.0
C713 C 0.72872 0.49076 0.02996 0.0
H714 H 0.73216 0.56007 0.98699 0.0
H715 H 0.73296 0.54083 0.04237 0.0
S716 S 0.72116 0.42504 0.97073 0.0
N717 N 0.7237 0.45778 0.94878 0.0
N718 N 0.72354 0.43698 0.00834 0.0
C719 C 0.72664 0.46908 0.00427 0.0
C720 C 0.7269 0.48026 0.97205 0.0
C721 C 0.52178 0.7214 0.97377 0.0
C722 C 0.49107 0.70918 0.96761 0.0
C723 C 0.53446 0.72114 0.0049 0.0
C724 C 0.51639 0.70952 0.03071 0.0
H725 H 0.53652 0.73007 0.95432 0.0
H726 H 0.55859 0.72974 0.00878 0.0
S727 S 0.43436 0.67657 0.02765 0.0
N728 N 0.44271 0.68587 0.99018 0.0
N729 N 0.46627 0.68664 0.04861 0.0
C730 C 0.4854 0.6983 0.02508 0.0
C731 C 0.47276 0.69783 0.99348 0.0
C732 C 0.21083 0.24351 0.49973 0.0
C733 C 0.19156 0.23503 0.52611 0.0
C734 C 0.23035 0.22074 0.48438 0.0
C735 C 0.23079 0.18876 0.49469 0.0
H736 H 0.20987 0.26752 0.49004 0.0
H737 H 0.24394 0.22782 0.4635 0.0
S738 S 0.18908 0.15525 0.56535 0.0
N739 N 0.17767 0.19302 0.56406 0.0
N740 N 0.21349 0.1505 0.53474 0.0
C741 C 0.21321 0.18045 0.52202 0.0
C742 C 0.19384 0.20353 0.53789 0.0
C743 C 0.79353 0.18173 0.50231 0.0
C744 C 0.76524 0.19308 0.51643 0.0
C745 C 0.81259 0.20147 0.4834 0.0
C746 C 0.80461 0.23374 0.47818 0.0
H747 H 0.80099 0.1571 0.5055 0.0
H748 H 0.83422 0.19131 0.47341 0.0
S749 S 0.73272 0.27529 0.50954 0.0
N750 N 0.72954 0.23842 0.52343 0.0
N751 N 0.76612 0.27621 0.48846 0.0
C752 C 0.77627 0.24555 0.49203 0.0
C753 C 0.75639 0.22506 0.51096 0.0
C754 C 0.79708 0.79229 0.53994 0.0
C755 C 0.79731 0.76023 0.52964 0.0
C756 C 0.77937 0.81556 0.52383 0.0
C757 C 0.7605 0.80777 0.49716 0.0
H758 H 0.81194 0.80002 0.55971 0.0
H759 H 0.78102 0.84011 0.53202 0.0
S760 S 0.74921 0.72695 0.46271 0.0
N761 N 0.77472 0.72145 0.49242 0.0
N762 N 0.74055 0.76553 0.46269 0.0
C763 C 0.7585 0.77559 0.48783 0.0
C764 C 0.77711 0.75173 0.50395 0.0
C765 C 0.22113 0.75995 0.4846 0.0
C766 C 0.18799 0.76199 0.48948 0.0
C767 C 0.24226 0.77971 0.50185 0.0
C768 C 0.23085 0.80185 0.52469 0.0
H769 H 0.23061 0.74418 0.46635 0.0
H770 H 0.26752 0.77854 0.49628 0.0
S771 S 0.14613 0.81189 0.54962 0.0
N772 N 0.14491 0.78484 0.5209 0.0
N773 N 0.18422 0.82138 0.55369 0.0
C774 C 0.19781 0.80223 0.53118 0.0
C775 C 0.17647 0.78246 0.51345 0.0
C776 C 0.50773 0.18437 0.20363 0.0
C777 C 0.51861 0.19306 0.23425 0.0
C778 C 0.4902 0.20558 0.18472 0.0
C779 C 0.48312 0.23675 0.19524 0.0
H780 H 0.51224 0.16066 0.1942 0.0
H781 H 0.48258 0.1974 0.16134 0.0
S782 S 0.50649 0.2718 0.27339 0.0
N783 N 0.52105 0.23506 0.27444 0.0
N784 N 0.48864 0.27551 0.2383 0.0
C785 C 0.49406 0.24604 0.22571 0.0
C786 C 0.51161 0.22408 0.24535 0.0
C787 C 0.79533 0.48595 0.25351 0.0
C788 C 0.79593 0.51964 0.25425 0.0
C789 C 0.77515 0.46939 0.2324 0.0
C790 C 0.75434 0.4858 0.21162 0.0
H791 H 0.81201 0.47222 0.26782 0.0
H792 H 0.77687 0.44355 0.23143 0.0
S793 S 0.7432 0.57395 0.20793 0.0
N794 N 0.77155 0.56872 0.23493 0.0
N795 N 0.73309 0.53774 0.19582 0.0
C796 C 0.75282 0.51942 0.21406 0.0
C797 C 0.77378 0.53628 0.23519 0.0
C798 C 0.50841 0.76196 0.21959 0.0
C799 C 0.507 0.76551 0.18621 0.0
C800 C 0.49089 0.78237 0.23983 0.0
C801 C 0.47101 0.80663 0.22727 0.0
H802 H 0.52409 0.74421 0.23012 0.0
H803 H 0.49386 0.77981 0.26544 0.0
S804 S 0.45522 0.82175 0.14106 0.0
N805 N 0.4817 0.79249 0.14137 0.0
N806 N 0.44833 0.83017 0.17899 0.0
C807 C 0.46787 0.80878 0.19379 0.0
C808 C 0.48602 0.78842 0.17337 0.0
C809 C 0.22466 0.49071 0.24305 0.0
C810 C 0.19693 0.47501 0.23196 0.0
C811 C 0.24386 0.50897 0.22222 0.0
C812 C 0.23538 0.51284 0.18989 0.0
H813 H 0.23142 0.48913 0.26802 0.0
H814 H 0.26488 0.52083 0.23163 0.0
S815 S 0.16634 0.47553 0.14838 0.0
N816 N 0.16316 0.46351 0.18582 0.0
N817 N 0.19859 0.49817 0.14735 0.0
C818 C 0.20818 0.49679 0.17843 0.0
C819 C 0.18912 0.47778 0.19928 0.0
C820 C 0.49101 0.75979 0.77999 0.0
C821 C 0.47929 0.77016 0.80989 0.0
C822 C 0.50725 0.78087 0.75932 0.0
C823 C 0.51299 0.81281 0.7682 0.0
H824 H 0.48792 0.73515 0.77262 0.0
H825 H 0.51601 0.77193 0.73664 0.0
S826 S 0.4856 0.8526 0.8428 0.0
N827 N 0.47325 0.81532 0.84627 0.0
N828 N 0.50404 0.8543 0.808 0.0
C829 C 0.50081 0.82361 0.79766 0.0
C830 C 0.48389 0.80247 0.81834 0.0
C831 C 0.20747 0.50667 0.81648 0.0
C832 C 0.23251 0.4871 0.80564 0.0
C833 C 0.18986 0.52565 0.79541 0.0
C834 C 0.19601 0.52552 0.7623 0.0
H835 H 0.20135 0.50746 0.84166 0.0
H836 H 0.17058 0.53984 0.8053 0.0
S837 S 0.26002 0.4791 0.7218 0.0
N838 N 0.26381 0.46959 0.75999 0.0
N839 N 0.22989 0.50462 0.71976 0.0
C840 C 0.22153 0.50651 0.75109 0.0
C841 C 0.23999 0.4875 0.77289 0.0
C842 C 0.48711 0.18281 0.80257 0.0
C843 C 0.47894 0.19299 0.77155 0.0
C844 C 0.50516 0.20203 0.82303 0.0
C845 C 0.51551 0.23265 0.81376 0.0
H846 H 0.47999 0.15943 0.81115 0.0
H847 H 0.51054 0.19279 0.84665 0.0
S848 S 0.50038 0.27102 0.73515 0.0
N849 N 0.48278 0.23575 0.7323 0.0
N850 N 0.51615 0.27251 0.77138 0.0
C851 C 0.50739 0.24343 0.78289 0.0
C852 C 0.48931 0.22346 0.76166 0.0
C853 C 0.80739 0.51138 0.81028 0.0
C854 C 0.7748 0.51577 0.80311 0.0
C855 C 0.82733 0.49356 0.79031 0.0
C856 C 0.81587 0.47977 0.76187 0.0
H857 H 0.81767 0.52112 0.83198 0.0
H858 H 0.85217 0.49087 0.79722 0.0
S859 S 0.73292 0.48507 0.73105 0.0
N860 N 0.732 0.50524 0.76504 0.0
N861 N 0.77013 0.47241 0.7268 0.0
C862 C 0.78361 0.48459 0.75373 0.0
C863 C 0.76293 0.50237 0.77453 0.0
loop_
_geom_bond_atom_site_label_1
_geom_bond_atom_site_label_2
_geom_bond_distance
_geom_bond_site_symmetry_2
_ccdc_geom_bond_type
Mg0 O1 2.028 . S
Mg0 O7 1.986 . S
Mg0 O9 2.114 . S
Mg0 O10 2.251 . S
Mg0 O13 2.010 . S
O1 Mg0 2.028 . S
O1 C4 1.250 . S
O2 Mg3 2.028 . S
O2 C4 1.248 . S
Mg3 O2 2.028 . S
Mg3 O8 2.032 . S
Mg3 O10 2.079 . S
C4 O1 1.250 . S
C4 O2 1.248 . S
C5 O6 1.264 . S
C5 O13 1.249 . S
O6 C5 1.264 . S
O7 Mg0 1.986 . S
O7 C11 1.246 . S
O8 Mg3 2.032 . S
O8 C11 1.259 . S
O9 Mg0 2.114 . S
O9 C12 1.252 . S
O10 Mg0 2.251 . S
O10 Mg3 2.079 . S
O10 C12 1.273 . S
C11 O7 1.246 . S
C11 O8 1.259 . S
C12 O9 1.252 . S
C12 O10 1.273 . S
O13 Mg0 2.010 . S
O13 C5 1.249 . S
Mg14 O15 2.028 . S
Mg14 O21 1.986 . S
Mg14 O23 2.114 . S
Mg14 O24 2.251 . S
Mg14 O27 2.010 . S
O15 Mg14 2.028 . S
O15 C18 1.250 . S
O16 Mg17 2.028 . S
O16 C18 1.248 . S
Mg17 O16 2.028 . S
Mg17 O22 2.032 . S
Mg17 O24 2.079 . S
C18 O15 1.250 . S
C18 O16 1.248 . S
C19 O20 1.264 . S
C19 O27 1.249 . S
O20 C19 1.264 . S
O21 Mg14 1.986 . S
O21 C25 1.246 . S
O22 Mg17 2.032 . S
O22 C25 1.259 . S
O23 Mg14 2.114 . S
O23 C26 1.252 . S
O24 Mg14 2.251 . S
O24 Mg17 2.079 . S
O24 C26 1.273 . S
C25 O21 1.246 . S
C25 O22 1.259 . S
C26 O23 1.252 . S
C26 O24 1.273 . S
O27 Mg14 2.010 . S
O27 C19 1.249 . S
Mg28 O29 2.028 . S
Mg28 O35 1.986 . S
Mg28 O37 2.114 . S
Mg28 O38 2.251 . S
Mg28 O41 2.010 . S
O29 Mg28 2.028 . S
O29 C32 1.250 . S
O30 Mg31 2.028 . S
O30 C32 1.248 . S
Mg31 O30 2.028 . S
Mg31 O36 2.032 . S
Mg31 O38 2.079 . S
C32 O29 1.250 . S
C32 O30 1.248 . S
C33 O34 1.264 . S
C33 O41 1.249 . S
O34 C33 1.264 . S
O35 Mg28 1.986 . S
O35 C39 1.246 . S
O36 Mg31 2.032 . S
O36 C39 1.259 . S
O37 Mg28 2.114 . S
O37 C40 1.252 . S
O38 Mg28 2.251 . S
O38 Mg31 2.079 . S
O38 C40 1.273 . S
C39 O35 1.246 . S
C39 O36 1.259 . S
C40 O37 1.252 . S
C40 O38 1.273 . S
O41 Mg28 2.010 . S
O41 C33 1.249 . S
Mg42 O43 2.028 . S
Mg42 O49 1.986 . S
Mg42 O51 2.114 . S
Mg42 O52 2.251 . S
Mg42 O55 2.010 . S
O43 Mg42 2.028 . S
O43 C46 1.250 . S
O44 Mg45 2.028 . S
O44 C46 1.248 . S
Mg45 O44 2.028 . S
Mg45 O50 2.032 . S
Mg45 O52 2.079 . S
C46 O43 1.250 . S
C46 O44 1.248 . S
C47 O48 1.264 . S
C47 O55 1.249 . S
O48 C47 1.264 . S
O49 Mg42 1.986 . S
O49 C53 1.246 . S
O50 Mg45 2.032 . S
O50 C53 1.259 . S
O51 Mg42 2.114 . S
O51 C54 1.252 . S
O52 Mg42 2.251 . S
O52 Mg45 2.079 . S
O52 C54 1.273 . S
C53 O49 1.246 . S
C53 O50 1.259 . S
C54 O51 1.252 . S
C54 O52 1.273 . S
O55 Mg42 2.010 . S
O55 C47 1.249 . S
Mg56 O57 2.028 . S
Mg56 O63 1.986 . S
Mg56 O65 2.114 . S
Mg56 O66 2.251 . S
Mg56 O69 2.010 . S
O57 Mg56 2.028 . S
O57 C60 1.250 . S
O58 Mg59 2.028 . S
O58 C60 1.248 . S
Mg59 O58 2.028 . S
Mg59 O64 2.032 . S
Mg59 O66 2.079 . S
C60 O57 1.250 . S
C60 O58 1.248 . S
C61 O62 1.264 . S
C61 O69 1.249 . S
O62 C61 1.264 . S
O63 Mg56 1.986 . S
O63 C67 1.246 . S
O64 Mg59 2.032 . S
O64 C67 1.259 . S
O65 Mg56 2.114 . S
O65 C68 1.252 . S
O66 Mg56 2.251 . S
O66 Mg59 2.079 . S
O66 C68 1.273 . S
C67 O63 1.246 . S
C67 O64 1.259 . S
C68 O65 1.252 . S
C68 O66 1.273 . S
O69 Mg56 2.010 . S
O69 C61 1.249 . S
Mg70 O71 2.028 . S
Mg70 O77 1.986 . S
Mg70 O79 2.114 . S
Mg70 O80 2.251 . S
Mg70 O83 2.010 . S
O71 Mg70 2.028 . S
O71 C74 1.250 . S
O72 Mg73 2.028 . S
O72 C74 1.248 . S
Mg73 O72 2.028 . S
Mg73 O78 2.032 . S
Mg73 O80 2.079 . S
C74 O71 1.250 . S
C74 O72 1.248 . S
C75 O76 1.264 . S
C75 O83 1.249 . S
O76 C75 1.264 . S
O77 Mg70 1.986 . S
O77 C81 1.246 . S
O78 Mg73 2.032 . S
O78 C81 1.259 . S
O79 Mg70 2.114 . S
O79 C82 1.252 . S
O80 Mg70 2.251 . S
O80 Mg73 2.079 . S
O80 C82 1.273 . S
C81 O77 1.246 . S
C81 O78 1.259 . S
C82 O79 1.252 . S
C82 O80 1.273 . S
O83 Mg70 2.010 . S
O83 C75 1.249 . S
Mg84 O85 2.028 . S
Mg84 O91 1.986 . S
Mg84 O93 2.114 . S
Mg84 O94 2.251 . S
Mg84 O97 2.010 . S
O85 Mg84 2.028 . S
O85 C88 1.250 . S
O86 Mg87 2.028 . S
O86 C88 1.248 . S
Mg87 O86 2.028 . S
Mg87 O92 2.032 . S
Mg87 O94 2.079 . S
C88 O85 1.250 . S
C88 O86 1.248 . S
C89 O90 1.264 . S
C89 O97 1.249 . S
O90 C89 1.264 . S
O91 Mg84 1.986 . S
O91 C95 1.246 . S
O92 Mg87 2.032 . S
O92 C95 1.259 . S
O93 Mg84 2.114 . S
O93 C96 1.252 . S
O94 Mg84 2.251 . S
O94 Mg87 2.079 . S
O94 C96 1.273 . S
C95 O91 1.246 . S
C95 O92 1.259 . S
C96 O93 1.252 . S
C96 O94 1.273 . S
O97 Mg84 2.010 . S
O97 C89 1.249 . S
Mg98 O99 2.028 . S
Mg98 O105 1.986 . S
Mg98 O107 2.114 . S
Mg98 O108 2.251 . S
Mg98 O111 2.010 . S
O99 Mg98 2.028 . S
O99 C102 1.250 . S
O100 Mg101 2.028 . S
O100 C102 1.248 . S
Mg101 O100 2.028 . S
Mg101 O106 2.032 . S
Mg101 O108 2.079 . S
C102 O99 1.250 . S
C102 O100 1.248 . S
C103 O104 1.264 . S
C103 O111 1.249 . S
O104 C103 1.264 . S
O105 Mg98 1.986 . S
O105 C109 1.246 . S
O106 Mg101 2.032 . S
O106 C109 1.259 . S
O107 Mg98 2.114 . S
O107 C110 1.252 . S
O108 Mg98 2.251 . S
O108 Mg101 2.079 . S
O108 C110 1.273 . S
C109 O105 1.246 . S
C109 O106 1.259 . S
C110 O107 1.252 . S
C110 O108 1.273 . S
O111 Mg98 2.010 . S
O111 C103 1.249 . S
Mg112 O113 2.028 . S
Mg112 O119 1.986 . S
Mg112 O121 2.114 . S
Mg112 O122 2.251 . S
Mg112 O125 2.010 . S
O113 Mg112 2.028 . S
O113 C116 1.250 . S
O114 Mg115 2.028 . S
O114 C116 1.248 . S
Mg115 O114 2.028 . S
Mg115 O120 2.032 . S
Mg115 O122 2.079 . S
C116 O113 1.250 . S
C116 O114 1.248 . S
C117 O118 1.264 . S
C117 O125 1.249 . S
O118 C117 1.264 . S
O119 Mg112 1.986 . S
O119 C123 1.246 . S
O120 Mg115 2.032 . S
O120 C123 1.259 . S
O121 Mg112 2.114 . S
O121 C124 1.252 . S
O122 Mg112 2.251 . S
O122 Mg115 2.079 . S
O122 C124 1.273 . S
C123 O119 1.246 . S
C123 O120 1.259 . S
C124 O121 1.252 . S
C124 O122 1.273 . S
O125 Mg112 2.010 . S
O125 C117 1.249 . S
Mg126 O127 2.028 . S
Mg126 O133 1.986 . S
Mg126 O135 2.114 . S
Mg126 O136 2.251 . S
Mg126 O139 2.010 . S
O127 Mg126 2.028 . S
O127 C130 1.250 . S
O128 Mg129 2.028 . S
O128 C130 1.248 . S
Mg129 O128 2.028 . S
Mg129 O134 2.032 . S
Mg129 O136 2.079 . S
C130 O127 1.250 . S
C130 O128 1.248 . S
C131 O132 1.264 . S
C131 O139 1.249 . S
O132 C131 1.264 . S
O133 Mg126 1.986 . S
O133 C137 1.246 . S
O134 Mg129 2.032 . S
O134 C137 1.259 . S
O135 Mg126 2.114 . S
O135 C138 1.252 . S
O136 Mg126 2.251 . S
O136 Mg129 2.079 . S
O136 C138 1.273 . S
C137 O133 1.246 . S
C137 O134 1.259 . S
C138 O135 1.252 . S
C138 O136 1.273 . S
O139 Mg126 2.010 . S
O139 C131 1.249 . S
Mg140 O141 2.028 . S
Mg140 O147 1.986 . S
Mg140 O149 2.114 . S
Mg140 O150 2.251 . S
Mg140 O153 2.010 . S
O141 Mg140 2.028 . S
O141 C144 1.250 . S
O142 Mg143 2.028 . S
O142 C144 1.248 . S
Mg143 O142 2.028 . S
Mg143 O148 2.032 . S
Mg143 O150 2.079 . S
C144 O141 1.250 . S
C144 O142 1.248 . S
C145 O146 1.264 . S
C145 O153 1.249 . S
O146 C145 1.264 . S
O147 Mg140 1.986 . S
O147 C151 1.246 . S
O148 Mg143 2.032 . S
O148 C151 1.259 . S
O149 Mg140 2.114 . S
O149 C152 1.252 . S
O150 Mg140 2.251 . S
O150 Mg143 2.079 . S
O150 C152 1.273 . S
C151 O147 1.246 . S
C151 O148 1.259 . S
C152 O149 1.252 . S
C152 O150 1.273 . S
O153 Mg140 2.010 . S
O153 C145 1.249 . S
Mg154 O155 2.028 . S
Mg154 O161 1.986 . S
Mg154 O163 2.114 . S
Mg154 O164 2.251 . S
Mg154 O167 2.010 . S
O155 Mg154 2.028 . S
O155 C158 1.250 . S
O156 Mg157 2.028 . S
O156 C158 1.248 . S
Mg157 O156 2.028 . S
Mg157 O162 2.032 . S
Mg157 O164 2.079 . S
C158 O155 1.250 . S
C158 O156 1.248 . S
C159 O160 1.264 . S
C159 O167 1.249 . S
O160 C159 1.264 . S
O161 Mg154 1.986 . S
O161 C165 1.246 . S
O162 Mg157 2.032 . S
O162 C165 1.259 . S
O163 Mg154 2.114 . S
O163 C166 1.252 . S
O164 Mg154 2.251 . S
O164 Mg157 2.079 . S
O164 C166 1.273 . S
C165 O161 1.246 . S
C165 O162 1.259 . S
C166 O163 1.252 . S
C166 O164 1.273 . S
O167 Mg154 2.010 . S
O167 C159 1.249 . S
Mg168 O169 2.028 . S
Mg168 O175 1.986 . S
Mg168 O177 2.114 . S
Mg168 O178 2.251 . S
Mg168 O181 2.010 . S
O169 Mg168 2.028 . S
O169 C172 1.250 . S
O170 Mg171 2.028 . S
O170 C172 1.248 . S
Mg171 O170 2.028 . S
Mg171 O176 2.032 . S
Mg171 O178 2.079 . S
C172 O169 1.250 . S
C172 O170 1.248 . S
C173 O174 1.264 . S
C173 O181 1.249 . S
O174 C173 1.264 . S
O175 Mg168 1.986 . S
O175 C179 1.246 . S
O176 Mg171 2.032 . S
O176 C179 1.259 . S
O177 Mg168 2.114 . S
O177 C180 1.252 . S
O178 Mg168 2.251 . S
O178 Mg171 2.079 . S
O178 C180 1.273 . S
C179 O175 1.246 . S
C179 O176 1.259 . S
C180 O177 1.252 . S
C180 O178 1.273 . S
O181 Mg168 2.010 . S
O181 C173 1.249 . S
Mg182 O183 2.028 . S
Mg182 O189 1.986 . S
Mg182 O191 2.114 . S
Mg182 O192 2.251 . S
Mg182 O195 2.010 . S
O183 Mg182 2.028 . S
O183 C186 1.250 . S
O184 Mg185 2.028 . S
O184 C186 1.248 . S
Mg185 O184 2.028 . S
Mg185 O190 2.032 . S
Mg185 O192 2.079 . S
C186 O183 1.250 . S
C186 O184 1.248 . S
C187 O188 1.264 . S
C187 O195 1.249 . S
O188 C187 1.264 . S
O189 Mg182 1.986 . S
O189 C193 1.246 . S
O190 Mg185 2.032 . S
O190 C193 1.259 . S
O191 Mg182 2.114 . S
O191 C194 1.252 . S
O192 Mg182 2.251 . S
O192 Mg185 2.079 . S
O192 C194 1.273 . S
C193 O189 1.246 . S
C193 O190 1.259 . S
C194 O191 1.252 . S
C194 O192 1.273 . S
O195 Mg182 2.010 . S
O195 C187 1.249 . S
Mg196 O197 2.028 . S
Mg196 O203 1.986 . S
Mg196 O205 2.114 . S
Mg196 O206 2.251 . S
Mg196 O209 2.010 . S
O197 Mg196 2.028 . S
O197 C200 1.250 . S
O198 Mg199 2.028 . S
O198 C200 1.248 . S
Mg199 O198 2.028 . S
Mg199 O204 2.032 . S
Mg199 O206 2.079 . S
C200 O197 1.250 . S
C200 O198 1.248 . S
C201 O202 1.264 . S
C201 O209 1.249 . S
O202 C201 1.264 . S
O203 Mg196 1.986 . S
O203 C207 1.246 . S
O204 Mg199 2.032 . S
O204 C207 1.259 . S
O205 Mg196 2.114 . S
O205 C208 1.252 . S
O206 Mg196 2.251 . S
O206 Mg199 2.079 . S
O206 C208 1.273 . S
C207 O203 1.246 . S
C207 O204 1.259 . S
C208 O205 1.252 . S
C208 O206 1.273 . S
O209 Mg196 2.010 . S
O209 C201 1.249 . S
Mg210 O211 2.028 . S
Mg210 O217 1.986 . S
Mg210 O219 2.114 . S
Mg210 O220 2.251 . S
Mg210 O223 2.010 . S
O211 Mg210 2.028 . S
O211 C214 1.250 . S
O212 Mg213 2.028 . S
O212 C214 1.248 . S
Mg213 O212 2.028 . S
Mg213 O218 2.032 . S
Mg213 O220 2.079 . S
C214 O211 1.250 . S
C214 O212 1.248 . S
C215 O216 1.264 . S
C215 O223 1.249 . S
O216 C215 1.264 . S
O217 Mg210 1.986 . S
O217 C221 1.246 . S
O218 Mg213 2.032 . S
O218 C221 1.259 . S
O219 Mg210 2.114 . S
O219 C222 1.252 . S
O220 Mg210 2.251 . S
O220 Mg213 2.079 . S
O220 C222 1.273 . S
C221 O217 1.246 . S
C221 O218 1.259 . S
C222 O219 1.252 . S
C222 O220 1.273 . S
O223 Mg210 2.010 . S
O223 C215 1.249 . S
Mg224 O225 2.028 . S
Mg224 O231 1.986 . S
Mg224 O233 2.114 . S
Mg224 O234 2.251 . S
Mg224 O237 2.010 . S
O225 Mg224 2.028 . S
O225 C228 1.250 . S
O226 Mg227 2.028 . S
O226 C228 1.248 . S
Mg227 O226 2.028 . S
Mg227 O232 2.032 . S
Mg227 O234 2.079 . S
C228 O225 1.250 . S
C228 O226 1.248 . S
C229 O230 1.264 . S
C229 O237 1.249 . S
O230 C229 1.264 . S
O231 Mg224 1.986 . S
O231 C235 1.246 . S
O232 Mg227 2.032 . S
O232 C235 1.259 . S
O233 Mg224 2.114 . S
O233 C236 1.252 . S
O234 Mg224 2.251 . S
O234 Mg227 2.079 . S
O234 C236 1.273 . S
C235 O231 1.246 . S
C235 O232 1.259 . S
C236 O233 1.252 . S
C236 O234 1.273 . S
O237 Mg224 2.010 . S
O237 C229 1.249 . S
Mg238 O239 2.028 . S
Mg238 O245 1.986 . S
Mg238 O247 2.114 . S
Mg238 O248 2.251 . S
Mg238 O251 2.010 . S
O239 Mg238 2.028 . S
O239 C242 1.250 . S
O240 Mg241 2.028 . S
O240 C242 1.248 . S
Mg241 O240 2.028 . S
Mg241 O246 2.032 . S
Mg241 O248 2.079 . S
C242 O239 1.250 . S
C242 O240 1.248 . S
C243 O244 1.264 . S
C243 O251 1.249 . S
O244 C243 1.264 . S
O245 Mg238 1.986 . S
O245 C249 1.246 . S
O246 Mg241 2.032 . S
O246 C249 1.259 . S
O247 Mg238 2.114 . S
O247 C250 1.252 . S
O248 Mg238 2.251 . S
O248 Mg241 2.079 . S
O248 C250 1.273 . S
C249 O245 1.246 . S
C249 O246 1.259 . S
C250 O247 1.252 . S
C250 O248 1.273 . S
O251 Mg238 2.010 . S
O251 C243 1.249 . S
Mg252 O253 2.028 . S
Mg252 O259 1.986 . S
Mg252 O261 2.114 . S
Mg252 O262 2.251 . S
Mg252 O265 2.010 . S
O253 Mg252 2.028 . S
O253 C256 1.250 . S
O254 Mg255 2.028 . S
O254 C256 1.248 . S
Mg255 O254 2.028 . S
Mg255 O260 2.032 . S
Mg255 O262 2.079 . S
C256 O253 1.250 . S
C256 O254 1.248 . S
C257 O258 1.264 . S
C257 O265 1.249 . S
O258 C257 1.264 . S
O259 Mg252 1.986 . S
O259 C263 1.246 . S
O260 Mg255 2.032 . S
O260 C263 1.259 . S
O261 Mg252 2.114 . S
O261 C264 1.252 . S
O262 Mg252 2.251 . S
O262 Mg255 2.079 . S
O262 C264 1.273 . S
C263 O259 1.246 . S
C263 O260 1.259 . S
C264 O261 1.252 . S
C264 O262 1.273 . S
O265 Mg252 2.010 . S
O265 C257 1.249 . S
Mg266 O267 2.028 . S
Mg266 O273 1.986 . S
Mg266 O275 2.114 . S
Mg266 O276 2.251 . S
Mg266 O279 2.010 . S
O267 Mg266 2.028 . S
O267 C270 1.250 . S
O268 Mg269 2.028 . S
O268 C270 1.248 . S
Mg269 O268 2.028 . S
Mg269 O274 2.032 . S
Mg269 O276 2.079 . S
C270 O267 1.250 . S
C270 O268 1.248 . S
C271 O272 1.264 . S
C271 O279 1.249 . S
O272 C271 1.264 . S
O273 Mg266 1.986 . S
O273 C277 1.246 . S
O274 Mg269 2.032 . S
O274 C277 1.259 . S
O275 Mg266 2.114 . S
O275 C278 1.252 . S
O276 Mg266 2.251 . S
O276 Mg269 2.079 . S
O276 C278 1.273 . S
C277 O273 1.246 . S
C277 O274 1.259 . S
C278 O275 1.252 . S
C278 O276 1.273 . S
O279 Mg266 2.010 . S
O279 C271 1.249 . S
Mg280 O281 2.028 . S
Mg280 O287 1.986 . S
Mg280 O289 2.114 . S
Mg280 O290 2.251 . S
Mg280 O293 2.010 . S
O281 Mg280 2.028 . S
O281 C284 1.250 . S
O282 Mg283 2.028 . S
O282 C284 1.248 . S
Mg283 O282 2.028 . S
Mg283 O288 2.032 . S
Mg283 O290 2.079 . S
C284 O281 1.250 . S
C284 O282 1.248 . S
C285 O286 1.264 . S
C285 O293 1.249 . S
O286 C285 1.264 . S
O287 Mg280 1.986 . S
O287 C291 1.246 . S
O288 Mg283 2.032 . S
O288 C291 1.259 . S
O289 Mg280 2.114 . S
O289 C292 1.252 . S
O290 Mg280 2.251 . S
O290 Mg283 2.079 . S
O290 C292 1.273 . S
C291 O287 1.246 . S
C291 O288 1.259 . S
C292 O289 1.252 . S
C292 O290 1.273 . S
O293 Mg280 2.010 . S
O293 C285 1.249 . S
Mg294 O295 2.028 . S
Mg294 O301 1.986 . S
Mg294 O303 2.114 . S
Mg294 O304 2.251 . S
Mg294 O307 2.010 . S
O295 Mg294 2.028 . S
O295 C298 1.250 . S
O296 Mg297 2.028 . S
O296 C298 1.248 . S
Mg297 O296 2.028 . S
Mg297 O302 2.032 . S
Mg297 O304 2.079 . S
C298 O295 1.250 . S
C298 O296 1.248 . S
C299 O300 1.264 . S
C299 O307 1.249 . S
O300 C299 1.264 . S
O301 Mg294 1.986 . S
O301 C305 1.246 . S
O302 Mg297 2.032 . S
O302 C305 1.259 . S
O303 Mg294 2.114 . S
O303 C306 1.252 . S
O304 Mg294 2.251 . S
O304 Mg297 2.079 . S
O304 C306 1.273 . S
C305 O301 1.246 . S
C305 O302 1.259 . S
C306 O303 1.252 . S
C306 O304 1.273 . S
O307 Mg294 2.010 . S
O307 C299 1.249 . S
Mg308 O309 2.028 . S
Mg308 O315 1.986 . S
Mg308 O317 2.114 . S
Mg308 O318 2.251 . S
Mg308 O321 2.010 . S
O309 Mg308 2.028 . S
O309 C312 1.250 . S
O310 Mg311 2.028 . S
O310 C312 1.248 . S
Mg311 O310 2.028 . S
Mg311 O316 2.032 . S
Mg311 O318 2.079 . S
C312 O309 1.250 . S
C312 O310 1.248 . S
C313 O314 1.264 . S
C313 O321 1.249 . S
O314 C313 1.264 . S
O315 Mg308 1.986 . S
O315 C319 1.246 . S
O316 Mg311 2.032 . S
O316 C319 1.259 . S
O317 Mg308 2.114 . S
O317 C320 1.252 . S
O318 Mg308 2.251 . S
O318 Mg311 2.079 . S
O318 C320 1.273 . S
C319 O315 1.246 . S
C319 O316 1.259 . S
C320 O317 1.252 . S
C320 O318 1.273 . S
O321 Mg308 2.010 . S
O321 C313 1.249 . S
Mg322 O323 2.028 . S
Mg322 O329 1.986 . S
Mg322 O331 2.114 . S
Mg322 O332 2.251 . S
Mg322 O335 2.010 . S
O323 Mg322 2.028 . S
O323 C326 1.250 . S
O324 Mg325 2.028 . S
O324 C326 1.248 . S
Mg325 O324 2.028 . S
Mg325 O330 2.032 . S
Mg325 O332 2.079 . S
C326 O323 1.250 . S
C326 O324 1.248 . S
C327 O328 1.264 . S
C327 O335 1.249 . S
O328 C327 1.264 . S
O329 Mg322 1.986 . S
O329 C333 1.246 . S
O330 Mg325 2.032 . S
O330 C333 1.259 . S
O331 Mg322 2.114 . S
O331 C334 1.252 . S
O332 Mg322 2.251 . S
O332 Mg325 2.079 . S
O332 C334 1.273 . S
C333 O329 1.246 . S
C333 O330 1.259 . S
C334 O331 1.252 . S
C334 O332 1.273 . S
O335 Mg322 2.010 . S
O335 C327 1.249 . S
C336 C337 1.369 . S
C336 C338 1.419 . S
C336 H340 0.930 . S
C337 C336 1.369 . S
C337 C346 1.429 . S
C338 C336 1.419 . S
C338 C339 1.363 . S
C338 H341 0.929 . S
C339 C338 1.363 . S
C339 C345 1.428 . S
H340 C336 0.930 . S
H341 C338 0.929 . S
S342 N343 1.613 . S
S342 N344 1.610 . S
N343 S342 1.613 . S
N343 C346 1.350 . S
N344 S342 1.610 . S
N344 C345 1.351 . S
C345 C339 1.428 . S
C345 N344 1.351 . S
C345 C346 1.434 . S
C346 C337 1.429 . S
C346 N343 1.350 . S
C346 C345 1.434 . S
C347 C348 1.369 . S
C347 C349 1.419 . S
C347 H351 0.930 . S
C348 C347 1.369 . S
C348 C357 1.429 . S
C349 C347 1.419 . S
C349 C350 1.363 . S
C349 H352 0.929 . S
C350 C349 1.363 . S
C350 C356 1.428 . S
H351 C347 0.930 . S
H352 C349 0.929 . S
S353 N354 1.613 . S
S353 N355 1.610 . S
N354 S353 1.613 . S
N354 C357 1.350 . S
N355 S353 1.610 . S
N355 C356 1.351 . S
C356 C350 1.428 . S
C356 N355 1.351 . S
C356 C357 1.434 . S
C357 C348 1.429 . S
C357 N354 1.350 . S
C357 C356 1.434 . S
C358 C359 1.369 . S
C358 C360 1.419 . S
C358 H362 0.930 . S
C359 C358 1.369 . S
C359 C368 1.429 . S
C360 C358 1.419 . S
C360 C361 1.363 . S
C360 H363 0.929 . S
C361 C360 1.363 . S
C361 C367 1.428 . S
H362 C358 0.930 . S
H363 C360 0.929 . S
S364 N365 1.613 . S
S364 N366 1.610 . S
N365 S364 1.613 . S
N365 C368 1.350 . S
N366 S364 1.610 . S
N366 C367 1.351 . S
C367 C361 1.428 . S
C367 N366 1.351 . S
C367 C368 1.434 . S
C368 C359 1.429 . S
C368 N365 1.350 . S
C368 C367 1.434 . S
C369 C370 1.369 . S
C369 C371 1.419 . S
C369 H373 0.930 . S
C370 C369 1.369 . S
C370 C379 1.429 . S
C371 C369 1.419 . S
C371 C372 1.363 . S
C371 H374 0.929 . S
C372 C371 1.363 . S
C372 C378 1.428 . S
H373 C369 0.930 . S
H374 C371 0.929 . S
S375 N376 1.613 . S
S375 N377 1.610 . S
N376 S375 1.613 . S
N376 C379 1.350 . S
N377 S375 1.610 . S
N377 C378 1.351 . S
C378 C372 1.428 . S
C378 N377 1.351 . S
C378 C379 1.434 . S
C379 C370 1.429 . S
C379 N376 1.350 . S
C379 C378 1.434 . S
C380 C381 1.369 . S
C380 C382 1.419 . S
C380 H384 0.930 . S
C381 C380 1.369 . S
C381 C390 1.429 . S
C382 C380 1.419 . S
C382 C383 1.363 . S
C382 H385 0.929 . S
C383 C382 1.363 . S
C383 C389 1.428 . S
H384 C380 0.930 . S
H385 C382 0.929 . S
S386 N387 1.613 . S
S386 N388 1.610 . S
N387 S386 1.613 . S
N387 C390 1.350 . S
N388 S386 1.610 . S
N388 C389 1.351 . S
C389 C383 1.428 . S
C389 N388 1.351 . S
C389 C390 1.434 . S
C390 C381 1.429 . S
C390 N387 1.350 . S
C390 C389 1.434 . S
C391 C392 1.369 . S
C391 C393 1.419 . S
C391 H395 0.930 . S
C392 C391 1.369 . S
C392 C401 1.429 . S
C393 C391 1.419 . S
C393 C394 1.363 . S
C393 H396 0.929 . S
C394 C393 1.363 . S
C394 C400 1.428 . S
H395 C391 0.930 . S
H396 C393 0.929 . S
S397 N398 1.613 . S
S397 N399 1.610 . S
N398 S397 1.613 . S
N398 C401 1.350 . S
N399 S397 1.610 . S
N399 C400 1.351 . S
C400 C394 1.428 . S
C400 N399 1.351 . S
C400 C401 1.434 . S
C401 C392 1.429 . S
C401 N398 1.350 . S
C401 C400 1.434 . S
C402 C403 1.369 . S
C402 C404 1.419 . S
C402 H406 0.930 . S
C403 C402 1.369 . S
C403 C412 1.429 . S
C404 C402 1.419 . S
C404 C405 1.363 . S
C404 H407 0.929 . S
C405 C404 1.363 . S
C405 C411 1.428 . S
H406 C402 0.930 . S
H407 C404 0.929 . S
S408 N409 1.613 . S
S408 N410 1.610 . S
N409 S408 1.613 . S
N409 C412 1.350 . S
N410 S408 1.610 . S
N410 C411 1.351 . S
C411 C405 1.428 . S
C411 N410 1.351 . S
C411 C412 1.434 . S
C412 C403 1.429 . S
C412 N409 1.350 . S
C412 C411 1.434 . S
C413 C414 1.369 . S
C413 C415 1.419 . S
C413 H417 0.930 . S
C414 C413 1.369 . S
C414 C423 1.429 . S
C415 C413 1.419 . S
C415 C416 1.363 . S
C415 H418 0.929 . S
C416 C415 1.363 . S
C416 C422 1.428 . S
H417 C413 0.930 . S
H418 C415 0.929 . S
S419 N420 1.613 . S
S419 N421 1.610 . S
N420 S419 1.613 . S
N420 C423 1.350 . S
N421 S419 1.610 . S
N421 C422 1.351 . S
C422 C416 1.428 . S
C422 N421 1.351 . S
C422 C423 1.434 . S
C423 C414 1.429 . S
C423 N420 1.350 . S
C423 C422 1.434 . S
C424 C425 1.369 . S
C424 C426 1.419 . S
C424 H428 0.930 . S
C425 C424 1.369 . S
C425 C434 1.429 . S
C426 C424 1.419 . S
C426 C427 1.363 . S
C426 H429 0.929 . S
C427 C426 1.363 . S
C427 C433 1.428 . S
H428 C424 0.930 . S
H429 C426 0.929 . S
S430 N431 1.613 . S
S430 N432 1.610 . S
N431 S430 1.613 . S
N431 C434 1.350 . S
N432 S430 1.610 . S
N432 C433 1.351 . S
C433 C427 1.428 . S
C433 N432 1.351 . S
C433 C434 1.434 . S
C434 C425 1.429 . S
C434 N431 1.350 . S
C434 C433 1.434 . S
C435 C436 1.369 . S
C435 C437 1.419 . S
C435 H439 0.930 . S
C436 C435 1.369 . S
C436 C445 1.429 . S
C437 C435 1.419 . S
C437 C438 1.363 . S
C437 H440 0.929 . S
C438 C437 1.363 . S
C438 C444 1.428 . S
H439 C435 0.930 . S
H440 C437 0.929 . S
S441 N442 1.613 . S
S441 N443 1.610 . S
N442 S441 1.613 . S
N442 C445 1.350 . S
N443 S441 1.610 . S
N443 C444 1.351 . S
C444 C438 1.428 . S
C444 N443 1.351 . S
C444 C445 1.434 . S
C445 C436 1.429 . S
C445 N442 1.350 . S
C445 C444 1.434 . S
C446 C447 1.369 . S
C446 C448 1.419 . S
C446 H450 0.930 . S
C447 C446 1.369 . S
C447 C456 1.429 . S
C448 C446 1.419 . S
C448 C449 1.363 . S
C448 H451 0.929 . S
C449 C448 1.363 . S
C449 C455 1.428 . S
H450 C446 0.930 . S
H451 C448 0.929 . S
S452 N453 1.613 . S
S452 N454 1.610 . S
N453 S452 1.613 . S
N453 C456 1.350 . S
N454 S452 1.610 . S
N454 C455 1.351 . S
C455 C449 1.428 . S
C455 N454 1.351 . S
C455 C456 1.434 . S
C456 C447 1.429 . S
C456 N453 1.350 . S
C456 C455 1.434 . S
C457 C458 1.369 . S
C457 C459 1.419 . S
C457 H461 0.930 . S
C458 C457 1.369 . S
C458 C467 1.429 . S
C459 C457 1.419 . S
C459 C460 1.363 . S
C459 H462 0.929 . S
C460 C459 1.363 . S
C460 C466 1.428 . S
H461 C457 0.930 . S
H462 C459 0.929 . S
S463 N464 1.613 . S
S463 N465 1.610 . S
N464 S463 1.613 . S
N464 C467 1.350 . S
N465 S463 1.610 . S
N465 C466 1.351 . S
C466 C460 1.428 . S
C466 N465 1.351 . S
C466 C467 1.434 . S
C467 C458 1.429 . S
C467 N464 1.350 . S
C467 C466 1.434 . S
C468 C469 1.369 . S
C468 C470 1.419 . S
C468 H472 0.930 . S
C469 C468 1.369 . S
C469 C478 1.429 . S
C470 C468 1.419 . S
C470 C471 1.363 . S
C470 H473 0.929 . S
C471 C470 1.363 . S
C471 C477 1.428 . S
H472 C468 0.930 . S
H473 C470 0.929 . S
S474 N475 1.613 . S
S474 N476 1.610 . S
N475 S474 1.613 . S
N475 C478 1.350 . S
N476 S474 1.610 . S
N476 C477 1.351 . S
C477 C471 1.428 . S
C477 N476 1.351 . S
C477 C478 1.434 . S
C478 C469 1.429 . S
C478 N475 1.350 . S
C478 C477 1.434 . S
C479 C480 1.369 . S
C479 C481 1.419 . S
C479 H483 0.930 . S
C480 C479 1.369 . S
C480 C489 1.429 . S
C481 C479 1.419 . S
C481 C482 1.363 . S
C481 H484 0.929 . S
C482 C481 1.363 . S
C482 C488 1.428 . S
H483 C479 0.930 . S
H484 C481 0.929 . S
S485 N486 1.613 . S
S485 N487 1.610 . S
N486 S485 1.613 . S
N486 C489 1.350 . S
N487 S485 1.610 . S
N487 C488 1.351 . S
C488 C482 1.428 . S
C488 N487 1.351 . S
C488 C489 1.434 . S
C489 C480 1.429 . S
C489 N486 1.350 . S
C489 C488 1.434 . S
C490 C491 1.369 . S
C490 C492 1.419 . S
C490 H494 0.930 . S
C491 C490 1.369 . S
C491 C500 1.429 . S
C492 C490 1.419 . S
C492 C493 1.363 . S
C492 H495 0.929 . S
C493 C492 1.363 . S
C493 C499 1.428 . S
H494 C490 0.930 . S
H495 C492 0.929 . S
S496 N497 1.613 . S
S496 N498 1.610 . S
N497 S496 1.613 . S
N497 C500 1.350 . S
N498 S496 1.610 . S
N498 C499 1.351 . S
C499 C493 1.428 . S
C499 N498 1.351 . S
C499 C500 1.434 . S
C500 C491 1.429 . S
C500 N497 1.350 . S
C500 C499 1.434 . S
C501 C502 1.369 . S
C501 C503 1.419 . S
C501 H505 0.930 . S
C502 C501 1.369 . S
C502 C511 1.429 . S
C503 C501 1.419 . S
C503 C504 1.363 . S
C503 H506 0.929 . S
C504 C503 1.363 . S
C504 C510 1.428 . S
H505 C501 0.930 . S
H506 C503 0.929 . S
S507 N508 1.613 . S
S507 N509 1.610 . S
N508 S507 1.613 . S
N508 C511 1.350 . S
N509 S507 1.610 . S
N509 C510 1.351 . S
C510 C504 1.428 . S
C510 N509 1.351 . S
C510 C511 1.434 . S
C511 C502 1.429 . S
C511 N508 1.350 . S
C511 C510 1.434 . S
C512 C513 1.369 . S
C512 C514 1.419 . S
C512 H516 0.930 . S
C513 C512 1.369 . S
C513 C522 1.429 . S
C514 C512 1.419 . S
C514 C515 1.363 . S
C514 H517 0.929 . S
C515 C514 1.363 . S
C515 C521 1.428 . S
H516 C512 0.930 . S
H517 C514 0.929 . S
S518 N519 1.613 . S
S518 N520 1.610 . S
N519 S518 1.613 . S
N519 C522 1.350 . S
N520 S518 1.610 . S
N520 C521 1.351 . S
C521 C515 1.428 . S
C521 N520 1.351 . S
C521 C522 1.434 . S
C522 C513 1.429 . S
C522 N519 1.350 . S
C522 C521 1.434 . S
C523 C524 1.369 . S
C523 C525 1.419 . S
C523 H527 0.930 . S
C524 C523 1.369 . S
C524 C533 1.429 . S
C525 C523 1.419 . S
C525 C526 1.363 . S
C525 H528 0.929 . S
C526 C525 1.363 . S
C526 C532 1.428 . S
H527 C523 0.930 . S
H528 C525 0.929 . S
S529 N530 1.613 . S
S529 N531 1.610 . S
N530 S529 1.613 . S
N530 C533 1.350 . S
N531 S529 1.610 . S
N531 C532 1.351 . S
C532 C526 1.428 . S
C532 N531 1.351 . S
C532 C533 1.434 . S
C533 C524 1.429 . S
C533 N530 1.350 . S
C533 C532 1.434 . S
C534 C535 1.369 . S
C534 C536 1.419 . S
C534 H538 0.930 . S
C535 C534 1.369 . S
C535 C544 1.429 . S
C536 C534 1.419 . S
C536 C537 1.363 . S
C536 H539 0.929 . S
C537 C536 1.363 . S
C537 C543 1.428 . S
H538 C534 0.930 . S
H539 C536 0.929 . S
S540 N541 1.613 . S
S540 N542 1.610 . S
N541 S540 1.613 . S
N541 C544 1.350 . S
N542 S540 1.610 . S
N542 C543 1.351 . S
C543 C537 1.428 . S
C543 N542 1.351 . S
C543 C544 1.434 . S
C544 C535 1.429 . S
C544 N541 1.350 . S
C544 C543 1.434 . S
C545 C546 1.369 . S
C545 C547 1.419 . S
C545 H549 0.930 . S
C546 C545 1.369 . S
C546 C555 1.429 . S
C547 C545 1.419 . S
C547 C548 1.363 . S
C547 H550 0.929 . S
C548 C547 1.363 . S
C548 C554 1.428 . S
H549 C545 0.930 . S
H550 C547 0.929 . S
S551 N552 1.613 . S
S551 N553 1.610 . S
N552 S551 1.613 . S
N552 C555 1.350 . S
N553 S551 1.610 . S
N553 C554 1.351 . S
C554 C548 1.428 . S
C554 N553 1.351 . S
C554 C555 1.434 . S
C555 C546 1.429 . S
C555 N552 1.350 . S
C555 C554 1.434 . S
C556 C557 1.369 . S
C556 C558 1.419 . S
C556 H560 0.930 . S
C557 C556 1.369 . S
C557 C566 1.429 . S
C558 C556 1.419 . S
C558 C559 1.363 . S
C558 H561 0.929 . S
C559 C558 1.363 . S
C559 C565 1.428 . S
H560 C556 0.930 . S
H561 C558 0.929 . S
S562 N563 1.613 . S
S562 N564 1.610 . S
N563 S562 1.613 . S
N563 C566 1.350 . S
N564 S562 1.610 . S
N564 C565 1.351 . S
C565 C559 1.428 . S
C565 N564 1.351 . S
C565 C566 1.434 . S
C566 C557 1.429 . S
C566 N563 1.350 . S
C566 C565 1.434 . S
C567 C568 1.369 . S
C567 C569 1.419 . S
C567 H571 0.930 . S
C568 C567 1.369 . S
C568 C577 1.429 . S
C569 C567 1.419 . S
C569 C570 1.363 . S
C569 H572 0.929 . S
C570 C569 1.363 . S
C570 C576 1.428 . S
H571 C567 0.930 . S
H572 C569 0.929 . S
S573 N574 1.613 . S
S573 N575 1.610 . S
N574 S573 1.613 . S
N574 C577 1.350 . S
N575 S573 1.610 . S
N575 C576 1.351 . S
C576 C570 1.428 . S
C576 N575 1.351 . S
C576 C577 1.434 . S
C577 C568 1.429 . S
C577 N574 1.350 . S
C577 C576 1.434 . S
C578 C579 1.369 . S
C578 C580 1.419 . S
C578 H582 0.930 . S
C579 C578 1.369 . S
C579 C588 1.429 . S
C580 C578 1.419 . S
C580 C581 1.363 . S
C580 H583 0.929 . S
C581 C580 1.363 . S
C581 C587 1.428 . S
H582 C578 0.930 . S
H583 C580 0.929 . S
S584 N585 1.613 . S
S584 N586 1.610 . S
N585 S584 1.613 . S
N585 C588 1.350 . S
N586 S584 1.610 . S
N586 C587 1.351 . S
C587 C581 1.428 . S
C587 N586 1.351 . S
C587 C588 1.434 . S
C588 C579 1.429 . S
C588 N585 1.350 . S
C588 C587 1.434 . S
C589 C590 1.369 . S
C589 C591 1.419 . S
C589 H593 0.930 . S
C590 C589 1.369 . S
C590 C599 1.429 . S
C591 C589 1.419 . S
C591 C592 1.363 . S
C591 H594 0.929 . S
C592 C591 1.363 . S
C592 C598 1.428 . S
H593 C589 0.930 . S
H594 C591 0.929 . S
S595 N596 1.613 . S
S595 N597 1.610 . S
N596 S595 1.613 . S
N596 C599 1.350 . S
N597 S595 1.610 . S
N597 C598 1.351 . S
C598 C592 1.428 . S
C598 N597 1.351 . S
C598 C599 1.434 . S
C599 C590 1.429 . S
C599 N596 1.350 . S
C599 C598 1.434 . S
C600 C601 1.369 . S
C600 C602 1.419 1_455 S
C600 H604 0.930 . S
C601 C600 1.369 . S
C601 C610 1.429 . S
C602 C600 1.419 1_655 S
C602 C603 1.363 . S
C602 H605 0.929 . S
C603 C602 1.363 . S
C603 C609 1.428 . S
H604 C600 0.930 . S
H605 C602 0.929 . S
S606 N607 1.613 1_655 S
S606 N608 1.610 . S
N607 S606 1.613 1_455 S
N607 C610 1.350 . S
N608 S606 1.610 . S
N608 C609 1.351 . S
C609 C603 1.428 . S
C609 N608 1.351 . S
C609 C610 1.434 1_655 S
C610 C601 1.429 . S
C610 N607 1.350 . S
C610 C609 1.434 1_455 S
C611 C612 1.369 . S
C611 C613 1.419 1_545 S
C611 H615 0.930 . S
C612 C611 1.369 . S
C612 C621 1.429 . S
C613 C611 1.419 1_565 S
C613 C614 1.363 . S
C613 H616 0.929 . S
C614 C613 1.363 . S
C614 C620 1.428 . S
H615 C611 0.930 . S
H616 C613 0.929 . S
S617 N618 1.638 . S
S617 N619 1.586 1_545 S
N618 S617 1.638 . S
N618 C621 1.350 . S
N619 S617 1.586 1_565 S
N619 C620 1.351 . S
C620 C614 1.428 . S
C620 N619 1.351 . S
C620 C621 1.434 1_565 S
C621 C612 1.429 . S
C621 N618 1.350 . S
C621 C620 1.434 1_545 S
C622 C623 1.369 . S
C622 C624 1.419 1_655 S
C622 H626 0.930 . S
C623 C622 1.369 . S
C623 C632 1.429 . S
C624 C622 1.419 1_455 S
C624 C625 1.363 . S
C624 H627 0.929 . S
C625 C624 1.363 . S
C625 C631 1.428 . S
H626 C622 0.930 . S
H627 C624 0.929 . S
S628 N629 1.613 1_455 S
S628 N630 1.610 . S
N629 S628 1.613 1_655 S
N629 C632 1.350 . S
N630 S628 1.610 . S
N630 C631 1.351 . S
C631 C625 1.428 . S
C631 N630 1.351 . S
C631 C632 1.434 1_455 S
C632 C623 1.429 . S
C632 N629 1.350 . S
C632 C631 1.434 1_655 S
C633 C634 1.369 . S
C633 C635 1.419 1_545 S
C633 H637 0.930 . S
C634 C633 1.369 . S
C634 C643 1.429 . S
C635 C633 1.419 1_565 S
C635 C636 1.363 . S
C635 H638 0.929 . S
C636 C635 1.363 . S
C636 C642 1.428 . S
H637 C633 0.930 . S
H638 C635 0.929 . S
S639 N640 1.587 1_565 S
S639 N641 1.636 . S
N640 S639 1.587 1_545 S
N640 C643 1.350 . S
N641 S639 1.636 . S
N641 C642 1.351 . S
C642 C636 1.428 . S
C642 N641 1.351 . S
C642 C643 1.434 1_565 S
C643 C634 1.429 . S
C643 N640 1.350 . S
C643 C642 1.434 1_545 S
C644 C645 1.369 . S
C644 C646 1.419 1_565 S
C644 H648 0.930 . S
C645 C644 1.369 . S
C645 C654 1.429 . S
C646 C644 1.419 1_545 S
C646 C647 1.363 . S
C646 H649 0.929 . S
C647 C646 1.363 . S
C647 C653 1.428 . S
H648 C644 0.930 . S
H649 C646 0.929 . S
S650 N651 1.613 1_545 S
S650 N652 1.610 . S
N651 S650 1.613 1_565 S
N651 C654 1.350 . S
N652 S650 1.610 . S
N652 C653 1.351 . S
C653 C647 1.428 . S
C653 N652 1.351 . S
C653 C654 1.434 1_545 S
C654 C645 1.429 . S
C654 N651 1.350 . S
C654 C653 1.434 1_565 S
C655 C656 1.369 . S
C655 C657 1.419 1_655 S
C655 H659 0.930 . S
C656 C655 1.369 . S
C656 C665 1.429 . S
C657 C655 1.419 1_455 S
C657 C658 1.363 . S
C657 H660 0.929 . S
C658 C657 1.363 . S
C658 C664 1.428 . S
H659 C655 0.930 . S
H660 C657 0.929 . S
S661 N662 1.613 . S
S661 N663 1.610 1_655 S
N662 S661 1.613 . S
N662 C665 1.350 . S
N663 S661 1.610 1_455 S
N663 C664 1.351 . S
C664 C658 1.428 . S
C664 N663 1.351 . S
C664 C665 1.434 1_455 S
C665 C656 1.429 . S
C665 N662 1.350 . S
C665 C664 1.434 1_655 S
C666 C667 1.369 . S
C666 C668 1.419 1_565 S
C666 H670 0.930 . S
C667 C666 1.369 . S
C667 C676 1.429 . S
C668 C666 1.419 1_545 S
C668 C669 1.363 . S
C668 H671 0.929 . S
C669 C668 1.363 . S
C669 C675 1.428 . S
H670 C666 0.930 . S
H671 C668 0.929 . S
S672 N673 1.613 . S
S672 N674 1.610 1_565 S
N673 S672 1.613 . S
N673 C676 1.350 . S
N674 S672 1.610 1_545 S
N674 C675 1.351 . S
C675 C669 1.428 . S
C675 N674 1.351 . S
C675 C676 1.434 1_545 S
C676 C667 1.429 . S
C676 N673 1.350 . S
C676 C675 1.434 1_565 S
C677 C678 1.369 . S
C677 C679 1.419 1_655 S
C677 H681 0.930 . S
C678 C677 1.369 . S
C678 C687 1.429 . S
C679 C677 1.419 1_455 S
C679 C680 1.363 . S
C679 H682 0.929 . S
C680 C679 1.363 . S
C680 C686 1.428 . S
H681 C677 0.930 . S
H682 C679 0.929 . S
S683 N684 1.613 1_455 S
S683 N685 1.610 . S
N684 S683 1.613 1_655 S
N684 C687 1.350 . S
N685 S683 1.610 . S
N685 C686 1.351 . S
C686 C680 1.428 . S
C686 N685 1.351 . S
C686 C687 1.434 1_455 S
C687 C678 1.429 . S
C687 N684 1.350 . S
C687 C686 1.434 1_655 S
C688 C689 1.369 . S
C688 C690 1.419 1_556 S
C688 H692 0.930 . S
C689 C688 1.369 . S
C689 C698 1.429 . S
C690 C688 1.419 1_554 S
C690 C691 1.363 . S
C690 H693 0.929 . S
C691 C690 1.363 . S
C691 C697 1.428 . S
H692 C688 0.930 . S
H693 C690 0.929 . S
S694 N695 1.613 1_554 S
S694 N696 1.610 . S
N695 S694 1.613 1_556 S
N695 C698 1.350 . S
N696 S694 1.610 . S
N696 C697 1.351 . S
C697 C691 1.428 . S
C697 N696 1.351 . S
C697 C698 1.434 1_554 S
C698 C689 1.429 . S
C698 N695 1.350 . S
C698 C697 1.434 1_556 S
C699 C700 1.369 . S
C699 C701 1.419 1_556 S
C699 H703 0.930 . S
C700 C699 1.369 . S
C700 C709 1.429 . S
C701 C699 1.419 1_554 S
C701 C702 1.363 . S
C701 H704 0.929 . S
C702 C701 1.363 . S
C702 C708 1.428 . S
H703 C699 0.930 . S
H704 C701 0.929 . S
S705 N706 1.613 1_554 S
S705 N707 1.610 . S
N706 S705 1.613 1_556 S
N706 C709 1.350 . S
N707 S705 1.610 . S
N707 C708 1.351 . S
C708 C702 1.428 . S
C708 N707 1.351 . S
C708 C709 1.434 1_554 S
C709 C700 1.429 . S
C709 N706 1.350 . S
C709 C708 1.434 1_556 S
C710 C711 1.369 . S
C710 C712 1.419 1_556 S
C710 H714 0.930 . S
C711 C710 1.369 . S
C711 C720 1.429 . S
C712 C710 1.419 1_554 S
C712 C713 1.363 . S
C712 H715 0.929 . S
C713 C712 1.363 . S
C713 C719 1.428 . S
H714 C710 0.930 . S
H715 C712 0.929 . S
S716 N717 1.613 . S
S716 N718 1.610 1_556 S
N717 S716 1.613 . S
N717 C720 1.350 . S
N718 S716 1.610 1_554 S
N718 C719 1.351 . S
C719 C713 1.428 . S
C719 N718 1.351 . S
C719 C720 1.434 1_554 S
C720 C711 1.429 . S
C720 N717 1.350 . S
C720 C719 1.434 1_556 S
C721 C722 1.369 . S
C721 C723 1.419 1_556 S
C721 H725 0.930 . S
C722 C721 1.369 . S
C722 C731 1.429 . S
C723 C721 1.419 1_554 S
C723 C724 1.363 . S
C723 H726 0.929 . S
C724 C723 1.363 . S
C724 C730 1.428 . S
H725 C721 0.930 . S
H726 C723 0.929 . S
S727 N728 1.613 1_554 S
S727 N729 1.610 . S
N728 S727 1.613 1_556 S
N728 C731 1.350 . S
N729 S727 1.610 . S
N729 C730 1.351 . S
C730 C724 1.428 . S
C730 N729 1.351 . S
C730 C731 1.434 1_554 S
C731 C722 1.429 . S
C731 N728 1.350 . S
C731 C730 1.434 1_556 S
C732 C733 1.369 . S
C732 C734 1.419 . S
C732 H736 0.930 . S
C733 C732 1.369 . S
C733 C742 1.429 . S
C734 C732 1.419 . S
C734 C735 1.363 . S
C734 H737 0.929 . S
C735 C734 1.363 . S
C735 C741 1.428 . S
H736 C732 0.930 . S
H737 C734 0.929 . S
S738 N739 1.613 . S
S738 N740 1.610 . S
N739 S738 1.613 . S
N739 C742 1.350 . S
N740 S738 1.610 . S
N740 C741 1.351 . S
C741 C735 1.428 . S
C741 N740 1.351 . S
C741 C742 1.434 . S
C742 C733 1.429 . S
C742 N739 1.350 . S
C742 C741 1.434 . S
C743 C744 1.369 . S
C743 C745 1.419 . S
C743 H747 0.930 . S
C744 C743 1.369 . S
C744 C753 1.429 . S
C745 C743 1.419 . S
C745 C746 1.363 . S
C745 H748 0.929 . S
C746 C745 1.363 . S
C746 C752 1.428 . S
H747 C743 0.930 . S
H748 C745 0.929 . S
S749 N750 1.613 . S
S749 N751 1.610 . S
N750 S749 1.613 . S
N750 C753 1.350 . S
N751 S749 1.610 . S
N751 C752 1.351 . S
C752 C746 1.428 . S
C752 N751 1.351 . S
C752 C753 1.434 . S
C753 C744 1.429 . S
C753 N750 1.350 . S
C753 C752 1.434 . S
C754 C755 1.369 . S
C754 C756 1.419 . S
C754 H758 0.930 . S
C755 C754 1.369 . S
C755 C764 1.429 . S
C756 C754 1.419 . S
C756 C757 1.363 . S
C756 H759 0.929 . S
C757 C756 1.363 . S
C757 C763 1.428 . S
H758 C754 0.930 . S
H759 C756 0.929 . S
S760 N761 1.613 . S
S760 N762 1.610 . S
N761 S760 1.613 . S
N761 C764 1.350 . S
N762 S760 1.610 . S
N762 C763 1.351 . S
C763 C757 1.428 . S
C763 N762 1.351 . S
C763 C764 1.434 . S
C764 C755 1.429 . S
C764 N761 1.350 . S
C764 C763 1.434 . S
C765 C766 1.369 . S
C765 C767 1.419 . S
C765 H769 0.930 . S
C766 C765 1.369 . S
C766 C775 1.429 . S
C767 C765 1.419 . S
C767 C768 1.363 . S
C767 H770 0.929 . S
C768 C767 1.363 . S
C768 C774 1.428 . S
H769 C765 0.930 . S
H770 C767 0.929 . S
S771 N772 1.613 . S
S771 N773 1.610 . S
N772 S771 1.613 . S
N772 C775 1.350 . S
N773 S771 1.610 . S
N773 C774 1.351 . S
C774 C768 1.428 . S
C774 N773 1.351 . S
C774 C775 1.434 . S
C775 C766 1.429 . S
C775 N772 1.350 . S
C775 C774 1.434 . S
C776 C777 1.369 . S
C776 C778 1.419 . S
C776 H780 0.930 . S
C777 C776 1.369 . S
C777 C786 1.429 . S
C778 C776 1.419 . S
C778 C779 1.363 . S
C778 H781 0.929 . S
C779 C778 1.363 . S
C779 C785 1.428 . S
H780 C776 0.930 . S
H781 C778 0.929 . S
S782 N783 1.613 . S
S782 N784 1.610 . S
N783 S782 1.613 . S
N783 C786 1.350 . S
N784 S782 1.610 . S
N784 C785 1.351 . S
C785 C779 1.428 . S
C785 N784 1.351 . S
C785 C786 1.434 . S
C786 C777 1.429 . S
C786 N783 1.350 . S
C786 C785 1.434 . S
C787 C788 1.369 . S
C787 C789 1.419 . S
C787 H791 0.930 . S
C788 C787 1.369 . S
C788 C797 1.429 . S
C789 C787 1.419 . S
C789 C790 1.363 . S
C789 H792 0.929 . S
C790 C789 1.363 . S
C790 C796 1.428 . S
H791 C787 0.930 . S
H792 C789 0.929 . S
S793 N794 1.613 . S
S793 N795 1.610 . S
N794 S793 1.613 . S
N794 C797 1.350 . S
N795 S793 1.610 . S
N795 C796 1.351 . S
C796 C790 1.428 . S
C796 N795 1.351 . S
C796 C797 1.434 . S
C797 C788 1.429 . S
C797 N794 1.350 . S
C797 C796 1.434 . S
C798 C799 1.369 . S
C798 C800 1.419 . S
C798 H802 0.930 . S
C799 C798 1.369 . S
C799 C808 1.429 . S
C800 C798 1.419 . S
C800 C801 1.363 . S
C800 H803 0.929 . S
C801 C800 1.363 . S
C801 C807 1.428 . S
H802 C798 0.930 . S
H803 C800 0.929 . S
S804 N805 1.613 . S
S804 N806 1.610 . S
N805 S804 1.613 . S
N805 C808 1.350 . S
N806 S804 1.610 . S
N806 C807 1.351 . S
C807 C801 1.428 . S
C807 N806 1.351 . S
C807 C808 1.434 . S
C808 C799 1.429 . S
C808 N805 1.350 . S
C808 C807 1.434 . S
C809 C810 1.369 . S
C809 C811 1.419 . S
C809 H813 0.930 . S
C810 C809 1.369 . S
C810 C819 1.429 . S
C811 C809 1.419 . S
C811 C812 1.363 . S
C811 H814 0.929 . S
C812 C811 1.363 . S
C812 C818 1.428 . S
H813 C809 0.930 . S
H814 C811 0.929 . S
S815 N816 1.613 . S
S815 N817 1.610 . S
N816 S815 1.613 . S
N816 C819 1.350 . S
N817 S815 1.610 . S
N817 C818 1.351 . S
C818 C812 1.428 . S
C818 N817 1.351 . S
C818 C819 1.434 . S
C819 C810 1.429 . S
C819 N816 1.350 . S
C819 C818 1.434 . S
C820 C821 1.369 . S
C820 C822 1.419 . S
C820 H824 0.930 . S
C821 C820 1.369 . S
C821 C830 1.429 . S
C822 C820 1.419 . S
C822 C823 1.363 . S
C822 H825 0.929 . S
C823 C822 1.363 . S
C823 C829 1.428 . S
H824 C820 0.930 . S
H825 C822 0.929 . S
S826 N827 1.613 . S
S826 N828 1.610 . S
N827 S826 1.613 . S
N827 C830 1.350 . S
N828 S826 1.610 . S
N828 C829 1.351 . S
C829 C823 1.428 . S
C829 N828 1.351 . S
C829 C830 1.434 . S
C830 C821 1.429 . S
C830 N827 1.350 . S
C830 C829 1.434 . S
C831 C832 1.369 . S
C831 C833 1.419 . S
C831 H835 0.930 . S
C832 C831 1.369 . S
C832 C841 1.429 . S
C833 C831 1.419 . S
C833 C834 1.363 . S
C833 H836 0.929 . S
C834 C833 1.363 . S
C834 C840 1.428 . S
H835 C831 0.930 . S
H836 C833 0.929 . S
S837 N838 1.613 . S
S837 N839 1.610 . S
N838 S837 1.613 . S
N838 C841 1.350 . S
N839 S837 1.610 . S
N839 C840 1.351 . S
C840 C834 1.428 . S
C840 N839 1.351 . S
C840 C841 1.434 . S
C841 C832 1.429 . S
C841 N838 1.350 . S
C841 C840 1.434 . S
C842 C843 1.369 . S
C842 C844 1.419 . S
C842 H846 0.930 . S
C843 C842 1.369 . S
C843 C852 1.429 . S
C844 C842 1.419 . S
C844 C845 1.363 . S
C844 H847 0.929 . S
C845 C844 1.363 . S
C845 C851 1.428 . S
H846 C842 0.930 . S
H847 C844 0.929 . S
S848 N849 1.613 . S
S848 N850 1.610 . S
N849 S848 1.613 . S
N849 C852 1.350 . S
N850 S848 1.610 . S
N850 C851 1.351 . S
C851 C845 1.428 . S
C851 N850 1.351 . S
C851 C852 1.434 . S
C852 C843 1.429 . S
C852 N849 1.350 . S
C852 C851 1.434 . S
C853 C854 1.369 . S
C853 C855 1.419 . S
C853 H857 0.930 . S
C854 C853 1.369 . S
C854 C863 1.429 . S
C855 C853 1.419 . S
C855 C856 1.363 . S
C855 H858 0.929 . S
C856 C855 1.363 . S
C856 C862 1.428 . S
H857 C853 0.930 . S
H858 C855 0.929 . S
S859 N860 1.613 . S
S859 N861 1.610 . S
N860 S859 1.613 . S
N860 C863 1.350 . S
N861 S859 1.610 . S
N861 C862 1.351 . S
C862 C856 1.428 . S
C862 N861 1.351 . S
C862 C863 1.434 . S
C863 C854 1.429 . S
C863 N860 1.350 . S
C863 C862 1.434 . S
C337 C165 1.421 . S
C339 C4 1.425 . S
C348 C18 1.427 . S
C350 C123 1.420 . S
C359 C32 1.416 . S
C361 C137 1.411 . S
C370 C46 1.425 . S
C372 C151 1.419 . S
C381 C193 1.421 . S
C383 C60 1.425 . S
C392 C74 1.427 . S
C394 C207 1.420 . S
C403 C221 1.418 . S
C405 C88 1.423 . S
C414 C179 1.411 . S
C416 C102 1.418 . S
C425 C81 1.414 . S
C427 C116 1.421 . S
C436 C95 1.421 . S
C438 C130 1.425 . S
C447 C144 1.421 . S
C449 C109 1.416 . S
C458 C67 1.421 . S
C460 C158 1.425 . S
C469 C53 1.420 . S
C471 C172 1.425 . S
C480 C186 1.420 . S
C482 C11 1.414 . S
C491 C200 1.426 . S
C493 C25 1.419 . S
C502 C214 1.423 . S
C504 C39 1.416 . S
C513 C228 1.417 . S
C515 C333 1.413 . S
C524 C291 1.412 . S
C526 C242 1.419 . S
C535 C256 1.426 . S
C537 C249 1.420 . S
C546 C270 1.419 . S
C548 C263 1.413 . S
C557 C277 1.421 . S
C559 C284 1.425 . S
C568 C298 1.416 . S
C570 C319 1.411 . S
C579 C235 1.410 . S
C581 C312 1.417 . S
C590 C305 1.417 . S
C592 C326 1.423 . S
C601 C12 1.395 . S
C603 C96 1.393 . S
C612 C26 1.391 . S
C614 C110 1.391 . S
C623 C40 1.396 . S
C625 C68 1.395 . S
C634 C82 1.392 . S
C636 C54 1.391 . S
C645 C152 1.396 . S
C647 C124 1.395 . S
C656 C138 1.391 . S
C658 C166 1.393 . S
C667 C180 1.391 . S
C669 C208 1.393 . S
C678 C222 1.395 . S
C680 C194 1.393 . S
C689 C250 1.394 . S
C691 C236 1.392 . S
C700 C264 1.396 . S
C702 C334 1.394 . S
C711 C278 1.392 . S
C713 C306 1.394 . S
C722 C292 1.392 . S
C724 C320 1.391 . S
C733 C5 1.014 . S
C735 C75 1.029 . S
C744 C19 1.030 . S
C746 C89 1.030 . S
C755 C33 1.034 . S
C757 C103 1.018 . S
C766 C61 1.026 . S
C768 C47 1.017 . S
C777 C117 1.032 . S
C779 C327 1.029 . S
C788 C131 1.019 . S
C790 C299 1.033 . S
C799 C313 1.021 . S
C801 C145 1.019 . S
C810 C159 1.015 . S
C812 C229 1.025 . S
C821 C285 1.016 . S
C823 C173 1.024 . S
C832 C243 1.024 . S
C834 C187 1.033 . S
C843 C201 1.034 . S
C845 C257 1.027 . S
C854 C271 1.036 . S
C856 C215 1.023 . S
