# Generated by pormake.
# Topology umg, (4)-cn, num edge types: 1
# Building blocks:
#     Node 0, Type 0, BuildingBlock: KOZSID_clean_sbu_0, # of connection points: 4
#     Node 1, Type 0, BuildingBlock: KOZSID_clean_sbu_0, # of connection points: 4
#     Node 2, Type 0, BuildingBlock: KOZSID_clean_sbu_0, # of connection points: 4
#     Node 3, Type 0, BuildingBlock: KOZSID_clean_sbu_0, # of connection points: 4
#     Node 4, Type 0, BuildingBlock: KOZSID_clean_sbu_0, # of connection points: 4
#     Node 5, Type 0, BuildingBlock: KOZSID_clean_sbu_0, # of connection points: 4
#     Node 6, Type 0, BuildingBlock: KOZSID_clean_sbu_0, # of connection points: 4
#     Node 7, Type 0, BuildingBlock: KOZSID_clean_sbu_0, # of connection points: 4
#     Node 8, Type 0, BuildingBlock: KOZSID_clean_sbu_0, # of connection points: 4
#     Node 9, Type 0, BuildingBlock: KOZSID_clean_sbu_0, # of connection points: 4
#     Node 10, Type 0, BuildingBlock: KOZSID_clean_sbu_0, # of connection points: 4
#     Node 11, Type 0, BuildingBlock: KOZSID_clean_sbu_0, # of connection points: 4
#     Edge 12, Type (0, 0), BuildingBlock: CIFDUS_clean_linker_0, # of connection points: 2
#     Edge 13, Type (0, 0), BuildingBlock: CIFDUS_clean_linker_0, # of connection points: 2
#     Edge 14, Type (0, 0), BuildingBlock: CIFDUS_clean_linker_0, # of connection points: 2
#     Edge 15, Type (0, 0), BuildingBlock: CIFDUS_clean_linker_0, # of connection points: 2
#     Edge 16, Type (0, 0), BuildingBlock: CIFDUS_clean_linker_0, # of connection points: 2
#     Edge 17, Type (0, 0), BuildingBlock: CIFDUS_clean_linker_0, # of connection points: 2
#     Edge 18, Type (0, 0), BuildingBlock: CIFDUS_clean_linker_0, # of connection points: 2
#     Edge 19, Type (0, 0), BuildingBlock: CIFDUS_clean_linker_0, # of connection points: 2
#     Edge 20, Type (0, 0), BuildingBlock: CIFDUS_clean_linker_0, # of connection points: 2
#     Edge 21, Type (0, 0), BuildingBlock: CIFDUS_clean_linker_0, # of connection points: 2
#     Edge 22, Type (0, 0), BuildingBlock: CIFDUS_clean_linker_0, # of connection points: 2
#     Edge 23, Type (0, 0), BuildingBlock: CIFDUS_clean_linker_0, # of connection points: 2
#     Edge 24, Type (0, 0), BuildingBlock: CIFDUS_clean_linker_0, # of connection points: 2
#     Edge 25, Type (0, 0), BuildingBlock: CIFDUS_clean_linker_0, # of connection points: 2
#     Edge 26, Type (0, 0), BuildingBlock: CIFDUS_clean_linker_0, # of connection points: 2
#     Edge 27, Type (0, 0), BuildingBlock: CIFDUS_clean_linker_0, # of connection points: 2
#     Edge 28, Type (0, 0), BuildingBlock: CIFDUS_clean_linker_0, # of connection points: 2
#     Edge 29, Type (0, 0), BuildingBlock: CIFDUS_clean_linker_0, # of connection points: 2
#     Edge 30, Type (0, 0), BuildingBlock: CIFDUS_clean_linker_0, # of connection points: 2
#     Edge 31, Type (0, 0), BuildingBlock: CIFDUS_clean_linker_0, # of connection points: 2
#     Edge 32, Type (0, 0), BuildingBlock: CIFDUS_clean_linker_0, # of connection points: 2
#     Edge 33, Type (0, 0), BuildingBlock: CIFDUS_clean_linker_0, # of connection points: 2
#     Edge 34, Type (0, 0), BuildingBlock: CIFDUS_clean_linker_0, # of connection points: 2
#     Edge 35, Type (0, 0), BuildingBlock: CIFDUS_clean_linker_0, # of connection points: 2
# Relax obj value: 0.044
# Max RMSD: 0.156
# Mean RMSD: 0.156
data_MOF--net-umg--node1-KOZSID_clean_sbu_0--edge1-CIFDUS_clean_linker_0
_symmetry_space_group_name_H-M    P1
_symmetry_Int_Tables_number       1
_symmetry_cell_setting            triclinic
loop_
_symmetry_equiv_pos_as_xyz
'x, y, z'
_cell_length_a     35.298831
_cell_length_b     35.324197
_cell_length_c     82.960259
_cell_angle_alpha  90.016097
_cell_angle_beta   89.964993
_cell_angle_gamma 120.23693
loop_
_atom_site_label
_atom_site_type_symbol
_atom_site_fract_x
_atom_site_fract_y
_atom_site_fract_z
_atom_type_partial_charge
C0 C 0.28176 0.54896 0.1273 0.0
C1 C 0.27483 0.52125 0.1402 0.0
C2 C 0.27036 0.48324 0.13388 0.0
C3 C 0.27485 0.48975 0.1175 0.0
N4 N 0.28161 0.52936 0.11313 0.0
Co5 Co 0.29043 0.55188 0.09063 0.0
N6 N 0.26635 0.49242 0.08111 0.0
C7 C 0.26176 0.45702 0.08897 0.0
C8 C 0.24644 0.42077 0.07923 0.0
C9 C 0.2416 0.43437 0.06426 0.0
C10 C 0.25427 0.4783 0.0657 0.0
N11 N 0.29885 0.57512 0.06824 0.0
C12 C 0.28232 0.55402 0.05407 0.0
C13 C 0.297 0.58335 0.04124 0.0
C14 C 0.32416 0.62394 0.04757 0.0
C15 C 0.32448 0.61728 0.06383 0.0
N16 N 0.31528 0.61153 0.10004 0.0
C17 C 0.33929 0.64965 0.0921 0.0
C18 C 0.35037 0.68581 0.10141 0.0
C19 C 0.33247 0.66964 0.11619 0.0
C20 C 0.3118 0.62423 0.11515 0.0
N21 N 0.34973 0.55773 0.09022 0.0
C22 C 0.4244 0.5465 0.09053 0.0
C23 C 0.40072 0.54206 0.07632 0.0
C24 C 0.36375 0.54707 0.07647 0.0
C25 C 0.41142 0.56036 0.10436 0.0
C26 C 0.37466 0.56638 0.10389 0.0
N27 N 0.23068 0.54392 0.09106 0.0
C28 C 0.17892 0.56896 0.08649 0.0
C29 C 0.14373 0.52901 0.09216 0.0
C30 C 0.15356 0.49682 0.09697 0.0
C31 C 0.19663 0.50489 0.09641 0.0
C32 C 0.22198 0.57574 0.08605 0.0
H33 H 0.20219 0.4791 0.10036 0.0
H34 H 0.24823 0.60675 0.08173 0.0
H35 H 0.34552 0.54025 0.06543 0.0
H36 H 0.3654 0.57619 0.11483 0.0
C37 C 0.26711 0.45798 0.10577 0.0
C38 C 0.29217 0.59481 0.12906 0.0
C39 C 0.25744 0.50625 0.05201 0.0
C40 C 0.34346 0.65021 0.07539 0.0
H41 H 0.27362 0.52802 0.15286 0.0
H42 H 0.26347 0.45396 0.14044 0.0
H43 H 0.23884 0.38811 0.08265 0.0
H44 H 0.23062 0.41449 0.05346 0.0
H45 H 0.28973 0.57612 0.02856 0.0
H46 H 0.34088 0.65474 0.04112 0.0
H47 H 0.36746 0.7198 0.09768 0.0
H48 H 0.33441 0.68922 0.12652 0.0
H49 H 0.4098 0.53367 0.06499 0.0
H50 H 0.42829 0.56499 0.11571 0.0
H51 H 0.17351 0.59517 0.08269 0.0
H52 H 0.12799 0.46501 0.10108 0.0
C53 C 0.7173 0.23356 0.46023 0.0
C54 C 0.72849 0.21292 0.47199 0.0
C55 C 0.7625 0.20888 0.4659 0.0
C56 C 0.76985 0.22624 0.45064 0.0
N57 N 0.74227 0.24064 0.44675 0.0
Co58 Co 0.73665 0.26109 0.42497 0.0
N59 N 0.76897 0.23556 0.4142 0.0
C60 C 0.79493 0.22343 0.42173 0.0
C61 C 0.81485 0.20874 0.41122 0.0
C62 C 0.80092 0.21239 0.39614 0.0
C63 C 0.77314 0.22908 0.39828 0.0
N64 N 0.72984 0.28141 0.40338 0.0
C65 C 0.73549 0.26957 0.38842 0.0
C66 C 0.72778 0.29293 0.37666 0.0
C67 C 0.71816 0.32106 0.38456 0.0
C68 C 0.72019 0.3132 0.40063 0.0
N69 N 0.70552 0.28782 0.43563 0.0
C70 C 0.70186 0.32126 0.42966 0.0
C71 C 0.68412 0.33751 0.44041 0.0
C72 C 0.67605 0.3127 0.45402 0.0
C73 C 0.68862 0.28198 0.45068 0.0
N74 N 0.79329 0.31657 0.42801 0.0
C75 C 0.8774 0.3911 0.43263 0.0
C76 C 0.86374 0.3719 0.41741 0.0
C77 C 0.82208 0.33464 0.41539 0.0
C78 C 0.84767 0.37276 0.44547 0.0
C79 C 0.8057 0.33605 0.44287 0.0
N80 N 0.68106 0.20494 0.422 0.0
C81 C 0.60473 0.16237 0.41417 0.0
C82 C 0.60265 0.12262 0.4185 0.0
C83 C 0.6413 0.12584 0.42452 0.0
C84 C 0.67968 0.16663 0.42597 0.0
C85 C 0.64392 0.20295 0.41612 0.0
H86 H 0.70828 0.16686 0.43052 0.0
H87 H 0.64426 0.23272 0.41286 0.0
H88 H 0.81377 0.32002 0.40359 0.0
H89 H 0.7836 0.32297 0.453 0.0
C90 C 0.79462 0.22054 0.43862 0.0
C91 C 0.68521 0.24878 0.46226 0.0
C92 C 0.75387 0.24127 0.38493 0.0
C93 C 0.7095 0.33204 0.41334 0.0
H94 H 0.71329 0.20072 0.48357 0.0
H95 H 0.7779 0.19241 0.47153 0.0
H96 H 0.83606 0.19585 0.41418 0.0
H97 H 0.81045 0.20419 0.38485 0.0
H98 H 0.73034 0.291 0.36372 0.0
H99 H 0.71031 0.34422 0.37922 0.0
H100 H 0.67682 0.36347 0.43847 0.0
H101 H 0.66256 0.31693 0.46514 0.0
H102 H 0.88568 0.38484 0.40716 0.0
H103 H 0.85681 0.3867 0.45744 0.0
H104 H 0.57647 0.16247 0.40919 0.0
H105 H 0.6422 0.09714 0.42848 0.0
C106 C 0.49817 0.73696 0.79428 0.0
C107 C 0.52786 0.75756 0.80671 0.0
C108 C 0.56471 0.79183 0.79995 0.0
C109 C 0.55557 0.79049 0.7838 0.0
N110 N 0.51536 0.75747 0.77997 0.0
Co111 Co 0.48931 0.74469 0.75798 0.0
N112 N 0.54725 0.7813 0.74731 0.0
C113 C 0.58385 0.81191 0.75476 0.0
C114 C 0.61851 0.83419 0.74439 0.0
C115 C 0.60258 0.81705 0.72942 0.0
C116 C 0.55892 0.78516 0.73148 0.0
N117 N 0.46267 0.73091 0.73605 0.0
C118 C 0.48147 0.73724 0.72126 0.0
C119 C 0.44995 0.72263 0.70916 0.0
C120 C 0.41036 0.70745 0.71657 0.0
C121 C 0.41972 0.71343 0.73271 0.0
N122 N 0.43114 0.70873 0.76861 0.0
C123 C 0.39179 0.69386 0.76154 0.0
C124 C 0.35726 0.66652 0.7712 0.0
C125 C 0.37579 0.66404 0.7853 0.0
C126 C 0.42091 0.69109 0.78364 0.0
N127 N 0.48318 0.79784 0.75912 0.0
C128 C 0.49073 0.88203 0.76212 0.0
C129 C 0.49778 0.86696 0.74734 0.0
C130 C 0.49395 0.82537 0.74611 0.0
C131 C 0.4775 0.85234 0.77516 0.0
C132 C 0.47351 0.8107 0.77338 0.0
N133 N 0.49736 0.69292 0.75703 0.0
C134 C 0.47008 0.61495 0.75389 0.0
C135 C 0.51126 0.62012 0.75797 0.0
C136 C 0.54526 0.66314 0.76101 0.0
C137 C 0.53762 0.69839 0.76069 0.0
C138 C 0.46392 0.6516 0.7534 0.0
H139 H 0.56465 0.73024 0.76365 0.0
H140 H 0.43192 0.64633 0.75033 0.0
H141 H 0.5012 0.81629 0.73463 0.0
H142 H 0.46409 0.78954 0.78379 0.0
C143 C 0.58544 0.81535 0.77163 0.0
C144 C 0.45276 0.70065 0.79673 0.0
C145 C 0.52881 0.76226 0.71799 0.0
C146 C 0.38871 0.69812 0.745 0.0
H147 H 0.52319 0.74905 0.81937 0.0
H148 H 0.59496 0.81427 0.80603 0.0
H149 H 0.65158 0.85948 0.74737 0.0
H150 H 0.62072 0.82741 0.71822 0.0
H151 H 0.45504 0.72392 0.69626 0.0
H152 H 0.37849 0.69308 0.71088 0.0
H153 H 0.32287 0.64814 0.768 0.0
H154 H 0.35771 0.64367 0.79542 0.0
H155 H 0.50657 0.88716 0.73664 0.0
H156 H 0.47155 0.86145 0.78693 0.0
H157 H 0.44236 0.58277 0.75144 0.0
H158 H 0.57814 0.67009 0.76369 0.0
C159 C 0.79305 0.51139 0.12872 0.0
C160 C 0.81438 0.54503 0.13984 0.0
C161 C 0.8179 0.58212 0.13299 0.0
C162 C 0.79953 0.56977 0.11795 0.0
N163 N 0.78481 0.5272 0.11493 0.0
Co164 Co 0.76421 0.49801 0.09362 0.0
N165 N 0.78982 0.55439 0.08172 0.0
C166 C 0.80164 0.59347 0.08845 0.0
C167 C 0.81591 0.62664 0.07731 0.0
C168 C 0.81217 0.60703 0.06263 0.0
C169 C 0.79587 0.56284 0.06564 0.0
N170 N 0.74444 0.4676 0.07253 0.0
C171 C 0.75669 0.48298 0.0573 0.0
C172 C 0.73418 0.44977 0.04608 0.0
C173 C 0.70605 0.41294 0.05457 0.0
C174 C 0.71309 0.42541 0.07044 0.0
N175 N 0.73699 0.44176 0.10545 0.0
C176 C 0.70332 0.4037 0.1001 0.0
C177 C 0.6872 0.3713 0.11155 0.0
C178 C 0.71249 0.3902 0.12494 0.0
C179 C 0.74331 0.43301 0.12076 0.0
N180 N 0.70869 0.49957 0.09567 0.0
C181 C 0.63492 0.51138 0.09849 0.0
C182 C 0.65412 0.51323 0.0835 0.0
C183 C 0.69079 0.50772 0.08237 0.0
C184 C 0.65303 0.50229 0.11204 0.0
C185 C 0.68931 0.49594 0.11036 0.0
N186 N 0.82034 0.49832 0.09152 0.0
C187 C 0.86308 0.46297 0.08676 0.0
C188 C 0.90252 0.5032 0.08831 0.0
C189 C 0.89968 0.54041 0.09172 0.0
C190 C 0.85879 0.53724 0.09345 0.0
C191 C 0.8223 0.4613 0.08826 0.0
H192 H 0.85865 0.56679 0.09635 0.0
H193 H 0.79243 0.43025 0.0867 0.0
H194 H 0.70525 0.51135 0.07064 0.0
H195 H 0.7022 0.48896 0.12103 0.0
C196 C 0.80485 0.59847 0.10529 0.0
C197 C 0.77818 0.46429 0.13155 0.0
C198 C 0.78326 0.52956 0.05288 0.0
C199 C 0.69338 0.3978 0.08367 0.0
H200 H 0.82758 0.54404 0.15143 0.0
H201 H 0.83486 0.6149 0.13797 0.0
H202 H 0.82854 0.66112 0.07958 0.0
H203 H 0.82002 0.62325 0.05103 0.0
H204 H 0.73639 0.45232 0.03308 0.0
H205 H 0.68323 0.38092 0.04973 0.0
H206 H 0.66142 0.33753 0.11016 0.0
H207 H 0.70902 0.37409 0.13639 0.0
H208 H 0.6419 0.52054 0.07266 0.0
H209 H 0.63925 0.50005 0.12391 0.0
H210 H 0.86376 0.43332 0.08408 0.0
H211 H 0.92916 0.57205 0.09313 0.0
C212 C 0.27861 0.75307 0.46172 0.0
C213 C 0.26465 0.76787 0.47464 0.0
C214 C 0.23479 0.77838 0.46864 0.0
C215 C 0.23184 0.76921 0.45243 0.0
N216 N 0.25814 0.7538 0.44791 0.0
Co217 Co 0.263 0.73604 0.42564 0.0
N218 N 0.23732 0.7693 0.41563 0.0
C219 C 0.21723 0.78718 0.42378 0.0
C220 C 0.21089 0.81552 0.41445 0.0
C221 C 0.22718 0.81468 0.39949 0.0
C222 C 0.24134 0.78442 0.40017 0.0
N223 N 0.26614 0.71561 0.40373 0.0
C224 C 0.25435 0.72533 0.38949 0.0
C225 C 0.24215 0.69114 0.37854 0.0
C226 C 0.25034 0.66119 0.38569 0.0
C227 C 0.26473 0.67737 0.40084 0.0
N228 N 0.29025 0.70408 0.43531 0.0
C229 C 0.29344 0.67154 0.42823 0.0
C230 C 0.31664 0.65752 0.43719 0.0
C231 C 0.32842 0.68249 0.45089 0.0
C232 C 0.31083 0.70988 0.44968 0.0
N233 N 0.20332 0.68357 0.42778 0.0
C234 C 0.11607 0.61142 0.43006 0.0
C235 C 0.14701 0.62057 0.44241 0.0
C236 C 0.19032 0.65667 0.44104 0.0
C237 C 0.13076 0.63885 0.4165 0.0
C238 C 0.17344 0.67447 0.41573 0.0
N239 N 0.32149 0.78963 0.42341 0.0
C240 C 0.39525 0.83076 0.41255 0.0
C241 C 0.40133 0.87039 0.41916 0.0
C242 C 0.36653 0.86764 0.42822 0.0
C243 C 0.32743 0.82787 0.42995 0.0
C244 C 0.3553 0.79084 0.41488 0.0
H245 H 0.30175 0.82878 0.43651 0.0
H246 H 0.35149 0.76114 0.40959 0.0
H247 H 0.21304 0.6632 0.4508 0.0
H248 H 0.18174 0.69486 0.40522 0.0
C249 C 0.2136 0.78394 0.44068 0.0
C250 C 0.30961 0.73667 0.46309 0.0
C251 C 0.2534 0.76598 0.38608 0.0
C252 C 0.2783 0.65839 0.41255 0.0
H253 H 0.27533 0.77118 0.48705 0.0
H254 H 0.21906 0.79325 0.47518 0.0
H255 H 0.19882 0.83679 0.41833 0.0
H256 H 0.22971 0.83588 0.38975 0.0
H257 H 0.22865 0.68802 0.36659 0.0
H258 H 0.24563 0.63094 0.38056 0.0
H259 H 0.32492 0.63285 0.434 0.0
H260 H 0.34703 0.67998 0.46076 0.0
H261 H 0.1377 0.60073 0.45322 0.0
H262 H 0.10937 0.63314 0.40632 0.0
H263 H 0.42071 0.83047 0.40538 0.0
H264 H 0.36907 0.89612 0.43414 0.0
C265 C 0.54385 0.28088 0.79504 0.0
C266 C 0.51437 0.26104 0.80759 0.0
C267 C 0.47634 0.22834 0.80087 0.0
C268 C 0.48464 0.22992 0.78463 0.0
N269 N 0.52541 0.26165 0.78068 0.0
Co270 Co 0.55048 0.27471 0.75849 0.0
N271 N 0.49181 0.24019 0.74816 0.0
C272 C 0.45491 0.21048 0.75573 0.0
C273 C 0.41965 0.18956 0.74554 0.0
C274 C 0.43546 0.20662 0.73055 0.0
C275 C 0.47964 0.2371 0.73244 0.0
N276 N 0.5763 0.28917 0.73642 0.0
C277 C 0.55696 0.28433 0.72183 0.0
C278 C 0.58793 0.29926 0.70952 0.0
C279 C 0.62769 0.31295 0.71658 0.0
C280 C 0.61898 0.30588 0.73274 0.0
N281 N 0.60932 0.30837 0.76879 0.0
C282 C 0.64813 0.32175 0.76147 0.0
C283 C 0.6835 0.34572 0.7713 0.0
C284 C 0.66608 0.34754 0.78578 0.0
C285 C 0.62075 0.32403 0.78403 0.0
N286 N 0.55445 0.22016 0.7587 0.0
C287 C 0.54759 0.13621 0.75903 0.0
C288 C 0.54201 0.15429 0.74482 0.0
C289 C 0.5451 0.1955 0.74493 0.0
C290 C 0.55784 0.16183 0.77309 0.0
C291 C 0.56183 0.20381 0.77262 0.0
N292 N 0.54469 0.32784 0.75816 0.0
C293 C 0.57361 0.40536 0.75312 0.0
C294 C 0.53255 0.40127 0.75623 0.0
C295 C 0.49819 0.35982 0.76067 0.0
C296 C 0.50502 0.32404 0.76178 0.0
C297 C 0.57886 0.36827 0.75396 0.0
H298 H 0.4777 0.29305 0.76543 0.0
H299 H 0.61044 0.37227 0.75102 0.0
H300 H 0.53862 0.2066 0.73378 0.0
H301 H 0.57009 0.22261 0.78362 0.0
C302 C 0.4538 0.20652 0.77257 0.0
C303 C 0.59001 0.31529 0.79738 0.0
C304 C 0.50949 0.25944 0.71884 0.0
C305 C 0.65045 0.31888 0.74481 0.0
H306 H 0.51994 0.26912 0.82028 0.0
H307 H 0.44593 0.20681 0.80705 0.0
H308 H 0.38631 0.16521 0.74864 0.0
H309 H 0.41685 0.19716 0.71945 0.0
H310 H 0.5823 0.29883 0.69668 0.0
H311 H 0.65923 0.32683 0.71065 0.0
H312 H 0.71789 0.36194 0.7681 0.0
H313 H 0.68478 0.36453 0.79638 0.0
H314 H 0.53409 0.13607 0.73362 0.0
H315 H 0.56321 0.14976 0.78435 0.0
H316 H 0.60116 0.43671 0.74959 0.0
H317 H 0.46601 0.35502 0.76334 0.0
C318 C 0.48342 0.75959 0.54719 0.0
C319 C 0.51225 0.77058 0.53432 0.0
C320 C 0.55048 0.77507 0.54041 0.0
C321 C 0.54296 0.7664 0.5566 0.0
N322 N 0.50247 0.75684 0.56108 0.0
Co323 Co 0.47843 0.74163 0.58333 0.0
N324 N 0.53761 0.7658 0.59319 0.0
C325 C 0.5742 0.7742 0.58516 0.0
C326 C 0.61006 0.78851 0.59504 0.0
C327 C 0.59498 0.78853 0.61029 0.0
C328 C 0.5506 0.77415 0.60887 0.0
N329 N 0.4538 0.72686 0.60556 0.0
C330 C 0.47372 0.74011 0.62013 0.0
C331 C 0.4435 0.72119 0.63259 0.0
C332 C 0.40364 0.69471 0.6256 0.0
C333 C 0.41156 0.69894 0.60934 0.0
N334 N 0.41908 0.71662 0.57349 0.0
C335 C 0.38074 0.6899 0.58093 0.0
C336 C 0.34485 0.68134 0.57188 0.0
C337 C 0.36141 0.70377 0.55782 0.0
C338 C 0.40685 0.72403 0.55883 0.0
N339 N 0.4751 0.68372 0.58152 0.0
C340 C 0.48327 0.60806 0.57785 0.0
C341 C 0.4907 0.6295 0.59275 0.0
C342 C 0.48684 0.66711 0.59428 0.0
C343 C 0.46982 0.62449 0.56499 0.0
C344 C 0.46524 0.66164 0.56713 0.0
N345 N 0.48322 0.79988 0.585 0.0
C346 C 0.45085 0.84532 0.58944 0.0
C347 C 0.49022 0.88343 0.58523 0.0
C348 C 0.52615 0.87862 0.58126 0.0
C349 C 0.52189 0.83687 0.58106 0.0
C350 C 0.4482 0.80416 0.58945 0.0
H351 H 0.54992 0.83462 0.57736 0.0
H352 H 0.41756 0.77572 0.59282 0.0
H353 H 0.49488 0.68347 0.60577 0.0
H354 H 0.4549 0.6732 0.55695 0.0
C355 C 0.57445 0.7729 0.56825 0.0
C356 C 0.4372 0.74835 0.5455 0.0
C357 C 0.52135 0.76535 0.62279 0.0
C358 C 0.37953 0.68192 0.59741 0.0
H359 H 0.50616 0.77447 0.52182 0.0
H360 H 0.58053 0.78473 0.53387 0.0
H361 H 0.64334 0.79843 0.59156 0.0
H362 H 0.61422 0.79736 0.62124 0.0
H363 H 0.44972 0.72512 0.64543 0.0
H364 H 0.37248 0.67536 0.63166 0.0
H365 H 0.31077 0.66352 0.57552 0.0
H366 H 0.34179 0.70554 0.54819 0.0
H367 H 0.50126 0.61839 0.60306 0.0
H368 H 0.46301 0.60883 0.55329 0.0
H369 H 0.42218 0.84728 0.59272 0.0
H370 H 0.55708 0.9068 0.57775 0.0
C371 C 0.74162 0.4826 0.88214 0.0
C372 C 0.7595 0.51105 0.86917 0.0
C373 C 0.79327 0.54958 0.87516 0.0
C374 C 0.7944 0.54259 0.8914 0.0
N375 N 0.76344 0.50212 0.89598 0.0
Co376 Co 0.7544 0.47875 0.91832 0.0
N377 N 0.78837 0.53824 0.928 0.0
C378 C 0.81616 0.57493 0.91989 0.0
C379 C 0.83703 0.61107 0.92969 0.0
C380 C 0.82192 0.59608 0.94496 0.0
C381 C 0.7926 0.55146 0.94363 0.0
N382 N 0.74478 0.45462 0.9406 0.0
C383 C 0.75108 0.47469 0.95511 0.0
C384 C 0.74031 0.44483 0.96765 0.0
C385 C 0.72772 0.40509 0.96077 0.0
C386 C 0.73131 0.41269 0.94449 0.0
N387 N 0.72058 0.41917 0.90864 0.0
C388 C 0.70942 0.38118 0.91617 0.0
C389 C 0.68235 0.34497 0.90717 0.0
C390 C 0.67612 0.36097 0.89305 0.0
C391 C 0.70079 0.40643 0.894 0.0
N392 N 0.80989 0.47684 0.91682 0.0
C393 C 0.89463 0.48542 0.91381 0.0
C394 C 0.86432 0.47058 0.90092 0.0
C395 C 0.82241 0.46609 0.90271 0.0
C396 C 0.88013 0.49425 0.92839 0.0
C397 C 0.8384 0.49009 0.92959 0.0
N398 N 0.70008 0.4822 0.9198 0.0
C399 C 0.6238 0.45153 0.92731 0.0
C400 C 0.62266 0.48833 0.92126 0.0
C401 C 0.6619 0.522 0.9146 0.0
C402 C 0.69986 0.51853 0.91415 0.0
C403 C 0.66234 0.44896 0.92634 0.0
H404 H 0.72909 0.54543 0.90904 0.0
H405 H 0.66154 0.42 0.93092 0.0
H406 H 0.80056 0.45498 0.89248 0.0
H407 H 0.8298 0.49861 0.94092 0.0
C408 C 0.81853 0.57471 0.90301 0.0
C409 C 0.70624 0.43642 0.88066 0.0
C410 C 0.77274 0.52227 0.95761 0.0
C411 C 0.71653 0.38044 0.93264 0.0
H412 H 0.74939 0.50458 0.85669 0.0
H413 H 0.81347 0.57958 0.86855 0.0
H414 H 0.86014 0.64443 0.92616 0.0
H415 H 0.83201 0.61553 0.95587 0.0
H416 H 0.74245 0.45124 0.98047 0.0
H417 H 0.7164 0.37418 0.9669 0.0
H418 H 0.66649 0.31097 0.91086 0.0
H419 H 0.65483 0.34096 0.88344 0.0
H420 H 0.87296 0.46339 0.88927 0.0
H421 H 0.90074 0.50444 0.93899 0.0
H422 H 0.59526 0.42469 0.93294 0.0
H423 H 0.66355 0.5509 0.90944 0.0
C424 C 0.28366 0.75122 0.2139 0.0
C425 C 0.26818 0.76657 0.20165 0.0
C426 C 0.26229 0.79901 0.20825 0.0
C427 C 0.27479 0.80207 0.22411 0.0
N428 N 0.28797 0.77346 0.22783 0.0
Co429 Co 0.30931 0.76791 0.24929 0.0
N430 N 0.28166 0.79749 0.26069 0.0
C431 C 0.26604 0.82088 0.25344 0.0
C432 C 0.24363 0.83253 0.26394 0.0
C433 C 0.24594 0.81603 0.2787 0.0
C434 C 0.27065 0.79577 0.27661 0.0
N435 N 0.33294 0.76364 0.27035 0.0
C436 C 0.32638 0.77559 0.28508 0.0
C437 C 0.36053 0.78325 0.29548 0.0
C438 C 0.3877 0.77306 0.28722 0.0
C439 C 0.36975 0.76151 0.27214 0.0
N440 N 0.336 0.73713 0.23823 0.0
C441 C 0.36798 0.7311 0.24424 0.0
C442 C 0.37624 0.704 0.23496 0.0
C443 C 0.34808 0.69266 0.22218 0.0
C444 C 0.32498 0.71473 0.2241 0.0
N445 N 0.36363 0.82568 0.24602 0.0
C446 C 0.43938 0.91014 0.24179 0.0
C447 C 0.42405 0.87825 0.22944 0.0
C448 C 0.38652 0.83649 0.23181 0.0
C449 C 0.41556 0.89793 0.25629 0.0
C450 C 0.3781 0.85645 0.25805 0.0
N451 N 0.25398 0.71136 0.25253 0.0
C452 C 0.21169 0.63604 0.26172 0.0
C453 C 0.17186 0.63254 0.25645 0.0
C454 C 0.17507 0.66985 0.24915 0.0
C455 C 0.21554 0.70837 0.2476 0.0
C456 C 0.25224 0.67548 0.25957 0.0
H457 H 0.21524 0.73587 0.24224 0.0
H458 H 0.2821 0.67707 0.26363 0.0
H459 H 0.37569 0.81311 0.22204 0.0
H460 H 0.36083 0.84968 0.26932 0.0
C461 C 0.26565 0.82353 0.2365 0.0
C462 C 0.29616 0.71728 0.21175 0.0
C463 C 0.28822 0.77975 0.28967 0.0
C464 C 0.38458 0.74576 0.25968 0.0
H465 H 0.26158 0.75535 0.18929 0.0
H466 H 0.24842 0.8166 0.20236 0.0
H467 H 0.22553 0.8489 0.26108 0.0
H468 H 0.23009 0.81843 0.28939 0.0
H469 H 0.36521 0.7948 0.3078 0.0
H470 H 0.41697 0.77399 0.29167 0.0
H471 H 0.39857 0.6922 0.23753 0.0
H472 H 0.34523 0.67049 0.21268 0.0
H473 H 0.44037 0.88548 0.21787 0.0
H474 H 0.42576 0.92003 0.26647 0.0
H475 H 0.21182 0.6088 0.26762 0.0
H476 H 0.14656 0.6697 0.24432 0.0
C477 C 0.52209 0.24379 0.54734 0.0
C478 C 0.48826 0.22263 0.53628 0.0
C479 C 0.45091 0.21749 0.54352 0.0
C480 C 0.46335 0.23482 0.5587 0.0
N481 N 0.50626 0.25056 0.56141 0.0
Co482 Co 0.53603 0.2697 0.58268 0.0
N483 N 0.47995 0.24127 0.59485 0.0
C484 C 0.44031 0.22877 0.58845 0.0
C485 C 0.40743 0.21264 0.59977 0.0
C486 C 0.42779 0.21591 0.61422 0.0
C487 C 0.47213 0.23386 0.61091 0.0
N488 N 0.56718 0.28786 0.60368 0.0
C489 C 0.55244 0.27393 0.61887 0.0
C490 C 0.58593 0.29591 0.63003 0.0
C491 C 0.62224 0.3254 0.62159 0.0
C492 C 0.60922 0.31969 0.60578 0.0
N493 N 0.59177 0.29973 0.57056 0.0
C494 C 0.62962 0.33348 0.57601 0.0
C495 C 0.66168 0.35096 0.5644 0.0
C496 C 0.64276 0.32639 0.55085 0.0
C497 C 0.60031 0.2947 0.55508 0.0
N498 N 0.5323 0.32428 0.582 0.0
C499 C 0.5169 0.39634 0.5819 0.0
C500 C 0.51813 0.37583 0.59625 0.0
C501 C 0.52504 0.34013 0.59602 0.0
C502 C 0.52591 0.38082 0.56753 0.0
C503 C 0.53379 0.34518 0.56786 0.0
N504 N 0.53801 0.2146 0.58351 0.0
C505 C 0.57649 0.17435 0.58659 0.0
C506 C 0.53719 0.13362 0.585 0.0
C507 C 0.49865 0.13527 0.5826 0.0
C508 C 0.49987 0.17543 0.58165 0.0
C509 C 0.57612 0.21417 0.58597 0.0
H510 H 0.46937 0.17441 0.57947 0.0
H511 H 0.60667 0.24462 0.58745 0.0
H512 H 0.52335 0.32487 0.60739 0.0
H513 H 0.54005 0.33391 0.55661 0.0
C514 C 0.43474 0.22715 0.57166 0.0
C515 C 0.56934 0.25969 0.54429 0.0
C516 C 0.50598 0.24686 0.62346 0.0
C517 C 0.63609 0.34151 0.59256 0.0
H518 H 0.48926 0.2105 0.52446 0.0
H519 H 0.41796 0.2 0.53869 0.0
H520 H 0.3727 0.19924 0.59774 0.0
H521 H 0.41197 0.20678 0.62589 0.0
H522 H 0.58379 0.29259 0.64302 0.0
H523 H 0.65422 0.34839 0.62642 0.0
H524 H 0.6954 0.37688 0.56582 0.0
H525 H 0.6587 0.33062 0.5393 0.0
H526 H 0.51333 0.38682 0.60784 0.0
H527 H 0.5257 0.39514 0.55603 0.0
H528 H 0.60763 0.17588 0.58819 0.0
H529 H 0.46702 0.10572 0.58169 0.0
C530 C 0.29817 0.54358 0.88258 0.0
C531 C 0.28001 0.51459 0.8698 0.0
C532 C 0.24786 0.4756 0.87617 0.0
C533 C 0.24801 0.48284 0.89245 0.0
N534 N 0.27835 0.52388 0.8967 0.0
Co535 Co 0.28909 0.54772 0.91901 0.0
N536 N 0.25786 0.48844 0.92891 0.0
C537 C 0.22987 0.4512 0.92117 0.0
C538 C 0.21179 0.41527 0.93115 0.0
C539 C 0.2292 0.43102 0.94614 0.0
C540 C 0.25701 0.47582 0.94445 0.0
N541 N 0.30037 0.57238 0.9412 0.0
C542 C 0.29701 0.55289 0.95561 0.0
C543 C 0.30757 0.58259 0.96819 0.0
C544 C 0.31715 0.6217 0.9614 0.0
C545 C 0.31208 0.61385 0.94513 0.0
N546 N 0.32015 0.6071 0.90917 0.0
C547 C 0.3299 0.64482 0.91662 0.0
C548 C 0.35313 0.68107 0.9071 0.0
C549 C 0.3582 0.6653 0.8927 0.0
C550 C 0.33721 0.61997 0.89416 0.0
N551 N 0.23243 0.54758 0.91852 0.0
C552 C 0.14795 0.53939 0.91784 0.0
C553 C 0.16461 0.53116 0.9319 0.0
C554 C 0.20616 0.53487 0.93195 0.0
C555 C 0.17499 0.55242 0.90409 0.0
C556 C 0.21718 0.55694 0.90475 0.0
N557 N 0.34456 0.54627 0.91957 0.0
C558 C 0.42117 0.57807 0.92678 0.0
C559 C 0.42267 0.54136 0.92083 0.0
C560 C 0.38359 0.50741 0.9142 0.0
C561 C 0.34531 0.51028 0.91384 0.0
C562 C 0.38226 0.58003 0.92591 0.0
H563 H 0.31616 0.48301 0.90887 0.0
H564 H 0.38263 0.60879 0.93051 0.0
H565 H 0.21655 0.52666 0.94294 0.0
H566 H 0.23722 0.56756 0.89402 0.0
C567 C 0.22572 0.45077 0.90432 0.0
C568 C 0.33162 0.59031 0.88073 0.0
C569 C 0.27939 0.50577 0.95801 0.0
C570 C 0.32418 0.64575 0.93322 0.0
H571 H 0.28893 0.52105 0.8572 0.0
H572 H 0.22788 0.44521 0.86974 0.0
H573 H 0.18936 0.38151 0.92789 0.0
H574 H 0.22184 0.41191 0.95708 0.0
H575 H 0.30755 0.57651 0.98098 0.0
H576 H 0.32768 0.65243 0.96756 0.0
H577 H 0.36668 0.71509 0.91047 0.0
H578 H 0.37553 0.6851 0.88234 0.0
H579 H 0.14519 0.52106 0.94284 0.0
H580 H 0.16393 0.55979 0.89298 0.0
H581 H 0.44963 0.60519 0.93232 0.0
H582 H 0.38225 0.47862 0.90905 0.0
C583 C 0.80232 0.31571 0.2159 0.0
C584 C 0.82196 0.30335 0.20414 0.0
C585 C 0.82603 0.2696 0.21046 0.0
C586 C 0.80969 0.26356 0.22586 0.0
N587 N 0.79586 0.29168 0.2296 0.0
Co588 Co 0.77759 0.29964 0.25149 0.0
N589 N 0.80391 0.26824 0.26236 0.0
C590 C 0.8153 0.24152 0.25498 0.0
C591 C 0.8306 0.22234 0.26554 0.0
C592 C 0.82811 0.23753 0.28053 0.0
C593 C 0.81145 0.26529 0.27828 0.0
N594 N 0.75934 0.30885 0.27314 0.0
C595 C 0.7723 0.30448 0.28807 0.0
C596 C 0.75019 0.31373 0.2999 0.0
C597 C 0.72161 0.32289 0.29209 0.0
C598 C 0.728 0.31911 0.27601 0.0
N599 N 0.75015 0.3299 0.24073 0.0
C600 C 0.71723 0.33422 0.24686 0.0
C601 C 0.70015 0.35095 0.23604 0.0
C602 C 0.72389 0.35766 0.22221 0.0
C603 C 0.75486 0.3454 0.2255 0.0
N604 N 0.72155 0.24282 0.24949 0.0
C605 C 0.64401 0.15969 0.24702 0.0
C606 C 0.66619 0.17489 0.2617 0.0
C607 C 0.70476 0.21582 0.26264 0.0
C608 C 0.66158 0.18718 0.23352 0.0
C609 C 0.69995 0.22869 0.23504 0.0
N610 N 0.8343 0.35533 0.25351 0.0
C611 C 0.87825 0.43163 0.26127 0.0
C612 C 0.91758 0.43322 0.25653 0.0
C613 C 0.91331 0.39436 0.25023 0.0
C614 C 0.87213 0.35626 0.24906 0.0
C615 C 0.83722 0.39277 0.25952 0.0
H616 H 0.87125 0.32742 0.24444 0.0
H617 H 0.80788 0.39289 0.26314 0.0
H618 H 0.72104 0.22528 0.27412 0.0
H619 H 0.71216 0.24927 0.22449 0.0
C620 C 0.8165 0.24006 0.23807 0.0
C621 C 0.78749 0.3481 0.21377 0.0
C622 C 0.80009 0.2855 0.29157 0.0
C623 C 0.70799 0.32846 0.26333 0.0
H624 H 0.83371 0.31767 0.19241 0.0
H625 H 0.84207 0.25368 0.20488 0.0
H626 H 0.843 0.20066 0.26268 0.0
H627 H 0.83696 0.22877 0.29184 0.0
H628 H 0.75311 0.31236 0.31284 0.0
H629 H 0.69903 0.33148 0.29751 0.0
H630 H 0.67443 0.35858 0.23807 0.0
H631 H 0.71893 0.37023 0.211 0.0
H632 H 0.65398 0.15492 0.27246 0.0
H633 H 0.64529 0.17709 0.22196 0.0
H634 H 0.87877 0.45995 0.26648 0.0
H635 H 0.94149 0.39295 0.24592 0.0
H636 H 0.21106 0.48361 0.97838 0.0
H637 H 0.33858 0.49605 0.97574 0.0
H638 H 0.33985 0.48956 0.00514 0.0
H639 H 0.30969 0.49241 0.03175 0.0
H640 H 0.18466 0.48557 0.03439 0.0
H641 H 0.17669 0.47702 0.00504 0.0
C642 C 0.23828 0.48319 0.98427 0.0
C643 C 0.27442 0.48957 0.97495 0.0
C644 C 0.23934 0.48101 1.00124 0.0
C645 C 0.31016 0.49036 0.98267 0.0
C646 C 0.31103 0.48712 0.99949 0.0
C647 C 0.28003 0.48735 0.02589 0.0
C648 C 0.24742 0.48889 0.03518 0.0
C649 C 0.27653 0.48405 0.00894 0.0
C650 C 0.2097 0.48367 0.02748 0.0
C651 C 0.20543 0.47927 0.01069 0.0
H652 H 0.82517 0.29623 0.36694 0.0
H653 H 0.70096 0.17631 0.36422 0.0
H654 H 0.70737 0.17585 0.33478 0.0
H655 H 0.74378 0.21508 0.3096 0.0
H656 H 0.86558 0.33751 0.31229 0.0
H657 H 0.86536 0.33152 0.34176 0.0
C658 C 0.8003 0.26935 0.35987 0.0
C659 C 0.7629 0.23595 0.3677 0.0
C660 C 0.8037 0.27014 0.34289 0.0
C661 C 0.73026 0.20189 0.35845 0.0
C662 C 0.7338 0.20189 0.34161 0.0
C663 C 0.7709 0.23961 0.31667 0.0
C664 C 0.80505 0.27639 0.30882 0.0
C665 C 0.76973 0.23651 0.33366 0.0
C666 C 0.83944 0.30864 0.31807 0.0
C667 C 0.83904 0.30537 0.33493 0.0
H668 H 0.54318 0.71792 0.69402 0.0
H669 H 0.54125 0.83666 0.70363 0.0
H670 H 0.5441 0.85155 0.67468 0.0
H671 H 0.53649 0.82506 0.6465 0.0
H672 H 0.53854 0.70638 0.6369 0.0
H673 H 0.54691 0.69733 0.66573 0.0
C674 C 0.54498 0.74778 0.68973 0.0
C675 C 0.54252 0.77644 0.70092 0.0
C676 C 0.54606 0.7558 0.673 0.0
C677 C 0.54386 0.81457 0.69524 0.0
C678 C 0.545 0.82281 0.67867 0.0
C679 C 0.54026 0.7981 0.65074 0.0
C680 C 0.53735 0.76664 0.63962 0.0
C681 C 0.54467 0.79294 0.6674 0.0
C682 C 0.54137 0.7313 0.64523 0.0
C683 C 0.54573 0.72593 0.66174 0.0
H684 H 0.84189 0.54377 0.02879 0.0
H685 H 0.71975 0.53901 0.03842 0.0
H686 H 0.70767 0.54199 0.00948 0.0
H687 H 0.72735 0.53595 0.98131 0.0
H688 H 0.84976 0.54138 0.97162 0.0
H689 H 0.86683 0.54894 1.00048 0.0
C690 C 0.81337 0.54473 0.0245 0.0
C691 C 0.78182 0.5414 0.03566 0.0
C692 C 0.80659 0.54624 0.00778 0.0
C693 C 0.74461 0.54201 0.03001 0.0
C694 C 0.73758 0.54337 0.01347 0.0
C695 C 0.75839 0.54036 0.98554 0.0
C696 C 0.78752 0.53862 0.97439 0.0
C697 C 0.76769 0.54419 1.00221 0.0
C698 C 0.82726 0.54338 0.97999 0.0
C699 C 0.83675 0.5472 0.9965 0.0
H700 H 0.25709 0.8213 0.31207 0.0
H701 H 0.28642 0.71631 0.30851 0.0
H702 H 0.2973 0.71954 0.33741 0.0
H703 H 0.30341 0.75664 0.36316 0.0
H704 H 0.21349 0.80554 0.36738 0.0
H705 H 0.22429 0.82476 0.33898 0.0
C706 C 0.2628 0.79664 0.31714 0.0
C707 C 0.27462 0.7711 0.30735 0.0
C708 C 0.26073 0.7918 0.33418 0.0
C709 C 0.28098 0.73934 0.31532 0.0
C710 C 0.28722 0.74094 0.33194 0.0
C711 C 0.28382 0.76953 0.35818 0.0
C712 C 0.25923 0.78103 0.36847 0.0
C713 C 0.27843 0.76824 0.34142 0.0
C714 C 0.2365 0.7998 0.36095 0.0
C715 C 0.24059 0.80865 0.34422 0.0
H716 H 0.49429 0.30242 0.69468 0.0
H717 H 0.49612 0.18403 0.70512 0.0
H718 H 0.49082 0.16671 0.67632 0.0
H719 H 0.49525 0.19041 0.64789 0.0
H720 H 0.49328 0.30877 0.63751 0.0
H721 H 0.48859 0.32091 0.66634 0.0
C722 C 0.49205 0.27218 0.69061 0.0
C723 C 0.49512 0.24427 0.70195 0.0
C724 C 0.4896 0.2628 0.67398 0.0
C725 C 0.49312 0.20558 0.69658 0.0
C726 C 0.49056 0.19594 0.68011 0.0
C727 C 0.4926 0.21813 0.652 0.0
C728 C 0.49441 0.2486 0.64068 0.0
C729 C 0.49013 0.22497 0.66865 0.0
C730 C 0.49155 0.28478 0.64606 0.0
C731 C 0.48915 0.29184 0.66254 0.0
H732 H 0.35568 0.71745 0.19039 0.0
H733 H 0.21686 0.66237 0.19744 0.0
H734 H 0.20223 0.61845 0.17278 0.0
H735 H 0.22973 0.59467 0.14919 0.0
H736 H 0.36827 0.64232 0.14532 0.0
H737 H 0.38216 0.68794 0.16923 0.0
C738 C 0.3221 0.69501 0.1868 0.0
C739 C 0.28738 0.69244 0.19608 0.0
C740 C 0.31395 0.66778 0.17328 0.0
C741 C 0.24422 0.66475 0.19067 0.0
C742 C 0.23587 0.63933 0.17663 0.0
C743 C 0.26276 0.61439 0.15383 0.0
C744 C 0.29803 0.61535 0.14542 0.0
C745 C 0.27049 0.64011 0.16791 0.0
C746 C 0.34068 0.64105 0.15157 0.0
C747 C 0.34866 0.66747 0.16515 0.0
H748 H 0.69999 0.24835 0.49551 0.0
H749 H 0.5998 0.22749 0.46102 0.0
H750 H 0.55447 0.23007 0.48273 0.0
H751 H 0.54906 0.2488 0.51113 0.0
H752 H 0.63561 0.24196 0.54625 0.0
H753 H 0.68069 0.23904 0.52456 0.0
C754 C 0.66714 0.24105 0.49261 0.0
C755 C 0.6539 0.23776 0.47635 0.0
C756 C 0.63917 0.23867 0.50532 0.0
C757 C 0.6115 0.23078 0.4733 0.0
C758 C 0.58541 0.23231 0.48574 0.0
C759 C 0.57548 0.24324 0.51435 0.0
C760 C 0.5883 0.24569 0.53064 0.0
C761 C 0.59943 0.23746 0.50182 0.0
C762 C 0.62505 0.2411 0.53392 0.0
C763 C 0.65101 0.23935 0.52149 0.0
H764 H 0.39004 0.70094 0.81614 0.0
H765 H 0.48114 0.6538 0.81428 0.0
H766 H 0.45204 0.61484 0.83992 0.0
H767 H 0.39845 0.59242 0.86276 0.0
H768 H 0.3018 0.63271 0.86206 0.0
H769 H 0.33353 0.6741 0.83724 0.0
C770 C 0.40314 0.6816 0.82121 0.0
C771 C 0.4372 0.67962 0.81307 0.0
C772 C 0.38451 0.65729 0.83541 0.0
C773 C 0.45474 0.65565 0.82018 0.0
C774 C 0.43781 0.63306 0.83479 0.0
C775 C 0.38409 0.60979 0.85699 0.0
C776 C 0.34801 0.60983 0.86432 0.0
C777 C 0.4022 0.6331 0.84244 0.0
C778 C 0.3296 0.63233 0.85669 0.0
C779 C 0.34796 0.65626 0.84256 0.0
H780 H 0.78786 0.48418 0.16476 0.0
H781 H 0.79748 0.39906 0.12971 0.0
H782 H 0.79978 0.35377 0.15143 0.0
H783 H 0.7888 0.33373 0.18042 0.0
H784 H 0.80828 0.43332 0.21498 0.0
H785 H 0.80586 0.47859 0.19326 0.0
C786 C 0.79389 0.45804 0.16158 0.0
C787 C 0.79229 0.44561 0.14527 0.0
C788 C 0.79945 0.43407 0.17415 0.0
C789 C 0.79764 0.4093 0.14203 0.0
C790 C 0.799 0.3832 0.15449 0.0
C791 C 0.79596 0.36646 0.18337 0.0
C792 C 0.79862 0.37942 0.19966 0.0
C793 C 0.79874 0.39459 0.17066 0.0
C794 C 0.80531 0.4217 0.2027 0.0
C795 C 0.80393 0.44781 0.19024 0.0
H796 H 0.3731 0.68498 0.52643 0.0
H797 H 0.4631 0.82406 0.52838 0.0
H798 H 0.43222 0.83373 0.50319 0.0
H799 H 0.37757 0.80201 0.48067 0.0
H800 H 0.2809 0.66446 0.48189 0.0
H801 H 0.31456 0.65507 0.50614 0.0
C802 C 0.3854 0.71761 0.52157 0.0
C803 C 0.41979 0.75388 0.52957 0.0
C804 C 0.36564 0.72318 0.5077 0.0
C805 C 0.43645 0.7956 0.5226 0.0
C806 C 0.41852 0.80114 0.50825 0.0
C807 C 0.36368 0.77019 0.48641 0.0
C808 C 0.3273 0.73372 0.47926 0.0
C809 C 0.38267 0.7652 0.50075 0.0
C810 C 0.30924 0.69282 0.48699 0.0
C811 C 0.32862 0.6874 0.50082 0.0
H812 H 0.70356 0.37224 0.86113 0.0
H813 H 0.65587 0.46271 0.86438 0.0
H814 H 0.61441 0.4331 0.83925 0.0
H815 H 0.59125 0.38033 0.81617 0.0
H816 H 0.63215 0.28421 0.81552 0.0
H817 H 0.67457 0.31526 0.84019 0.0
C818 C 0.68321 0.38479 0.8566 0.0
C819 C 0.68205 0.41902 0.86493 0.0
C820 C 0.65757 0.36594 0.84267 0.0
C821 C 0.65708 0.43614 0.85834 0.0
C822 C 0.63311 0.41897 0.84402 0.0
C823 C 0.60877 0.36576 0.82166 0.0
C824 C 0.60871 0.33007 0.81399 0.0
C825 C 0.63275 0.38353 0.83611 0.0
C826 C 0.63164 0.31156 0.82121 0.0
C827 C 0.65623 0.32959 0.83524 0.0
H828 H 0.94399 0.47124 0.10718 0.0
H829 H 0.96153 0.54809 0.06463 0.0
H830 H 0.03704 0.56323 0.06187 0.0
H831 H 0.09926 0.55601 0.0719 0.0
H832 H 0.08254 0.4827 0.11557 0.0
H833 H 1.00657 0.46498 0.11744 0.0
C834 C 0.96421 0.49072 0.09718 0.0
C835 C 0.94682 0.50791 0.08597 0.0
C836 C 1.00824 0.5003 0.09591 0.0
C837 C 0.97388 0.53402 0.0733 0.0
C838 C 1.01723 0.54291 0.07178 0.0
C839 C 0.07924 0.53645 0.08191 0.0
C840 C 0.09727 0.52043 0.09343 0.0
C841 C 0.03507 0.52662 0.0831 0.0
C842 C 0.06999 0.49485 0.10623 0.0
C843 C 0.02625 0.48478 0.10741 0.0
H844 H 0.59239 0.03975 0.41404 0.0
H845 H 0.51672 0.10415 0.4204 0.0
H846 H 0.44943 0.03353 0.4196 0.0
H847 H 0.41139 0.95336 0.41822 0.0
H848 H 0.48675 0.88794 0.41521 0.0
H849 H 0.55415 0.95892 0.4135 0.0
C850 C 0.56145 0.03879 0.4155 0.0
C851 C 0.56072 0.07844 0.41732 0.0
C852 C 0.52229 0.99746 0.41562 0.0
C853 C 0.51936 0.07521 0.41867 0.0
C854 C 0.48045 0.03443 0.41839 0.0
C855 C 0.44238 0.9541 0.41747 0.0
C856 C 0.44309 0.91428 0.41707 0.0
C857 C 0.48147 0.9953 0.41707 0.0
C858 C 0.48425 0.91723 0.41542 0.0
C859 C 0.52317 0.95813 0.41458 0.0
H860 H 0.57383 0.48132 0.77151 0.0
H861 H 0.47214 0.40576 0.73706 0.0
H862 H 0.4564 0.46557 0.73431 0.0
H863 H 0.47154 0.54002 0.74167 0.0
H864 H 0.56886 0.61212 0.77821 0.0
H865 H 0.58613 0.55395 0.77994 0.0
C866 C 0.54843 0.47811 0.76333 0.0
C867 C 0.52452 0.43907 0.7544 0.0
C868 C 0.53867 0.51239 0.76212 0.0
C869 C 0.49117 0.43535 0.74406 0.0
C870 C 0.48211 0.46964 0.74249 0.0
C871 C 0.49626 0.54309 0.75015 0.0
C872 C 0.51935 0.58182 0.75946 0.0
C873 C 0.5055 0.50841 0.75151 0.0
C874 C 0.55129 0.58415 0.77034 0.0
C875 C 0.56108 0.55038 0.77151 0.0
H876 H 0.47675 0.05321 0.57169 0.0
H877 H 0.5942 0.11347 0.60086 0.0
H878 H 0.59115 0.04326 0.60295 0.0
H879 H 0.55408 0.96331 0.59722 0.0
H880 H 0.43306 0.90276 0.57038 0.0
H881 H 0.4379 0.97388 0.56729 0.0
C882 C 0.50146 0.05146 0.57883 0.0
C883 C 0.53573 0.08989 0.58609 0.0
C884 C 0.49866 1.01027 0.58058 0.0
C885 C 0.56777 0.08561 0.59478 0.0
C886 C 0.56583 0.04498 0.59617 0.0
C887 C 0.52874 0.9657 0.59071 0.0
C888 C 0.49313 0.92736 0.58407 0.0
C889 C 0.53133 1.00695 0.58919 0.0
C890 C 0.46054 0.93132 0.57578 0.0
C891 C 0.46345 0.97217 0.57392 0.0
H892 H 0.43188 0.46759 0.92217 0.0
H893 H 0.50925 0.60899 0.92043 0.0
H894 H 0.57608 0.60519 0.92131 0.0
H895 H 0.6136 0.56231 0.92224 0.0
H896 H 0.53609 0.42087 0.92084 0.0
H897 H 0.46934 0.42475 0.92151 0.0
C898 C 0.46311 0.49784 0.92173 0.0
C899 C 0.46436 0.53863 0.92132 0.0
C900 C 0.50211 0.49556 0.92173 0.0
C901 C 0.5061 0.57696 0.92113 0.0
C902 C 0.54482 0.57487 0.92147 0.0
C903 C 0.58235 0.53207 0.92184 0.0
C904 C 0.58106 0.49124 0.92161 0.0
C905 C 0.54335 0.53437 0.92172 0.0
C906 C 0.5393 0.45294 0.92144 0.0
C907 C 0.50061 0.45506 0.92164 0.0
H908 H 0.08894 0.62326 0.25872 0.0
H909 H 0.15269 0.54603 0.25787 0.0
H910 H 0.08131 0.47923 0.25906 0.0
H911 H 1.00055 0.44205 0.25931 0.0
H912 H 0.93757 0.51989 0.25637 0.0
H913 H 1.00873 0.58633 0.25765 0.0
C914 C 0.08785 0.59209 0.25846 0.0
C915 C 0.12745 0.59083 0.25803 0.0
C916 C 0.04629 0.55329 0.25849 0.0
C917 C 0.12377 0.54916 0.2584 0.0
C918 C 0.08256 0.51052 0.25891 0.0
C919 C 1.00182 0.47327 0.25866 0.0
C920 C 0.96232 0.47471 0.25772 0.0
C921 C 0.0435 0.51209 0.25876 0.0
C922 C 0.96625 0.5165 0.25742 0.0
C923 C 1.00739 0.55501 0.25798 0.0
H924 H 0.56083 0.47961 0.07975 0.0
H925 H 0.6246 0.56419 0.12033 0.0
H926 H 0.56655 0.58291 0.1216 0.0
H927 H 0.49832 0.57728 0.11054 0.0
H928 H 0.43228 0.48694 0.07134 0.0
H929 H 0.49041 0.46977 0.0701 0.0
C930 C 0.5621 0.50214 0.0889 0.0
C931 C 0.59752 0.5205 0.09988 0.0
C932 C 0.52814 0.51241 0.08971 0.0
C933 C 0.59786 0.54918 0.11177 0.0
C934 C 0.56463 0.56014 0.11245 0.0
C935 C 0.49613 0.55352 0.10178 0.0
C936 C 0.46058 0.53486 0.09072 0.0
C937 C 0.52957 0.54219 0.1014 0.0
C938 C 0.45939 0.50388 0.07961 0.0
C939 C 0.49267 0.49331 0.07899 0.0
H940 H 0.91205 0.47463 0.42135 0.0
H941 H 0.94507 0.39251 0.44917 0.0
H942 H 0.02133 0.45277 0.45139 0.0
H943 H 0.07996 0.52861 0.44422 0.0
H944 H 0.04348 0.61158 0.41834 0.0
H945 H 0.96833 0.55185 0.4166 0.0
C946 C 0.93593 0.47011 0.42801 0.0
C947 C 0.92289 0.42906 0.43503 0.0
C948 C 0.97958 0.50522 0.42948 0.0
C949 C 0.95419 0.4238 0.44369 0.0
C950 C 0.99789 0.45829 0.44492 0.0
C951 C 0.05559 0.53394 0.43838 0.0
C952 C 0.06863 0.57485 0.43097 0.0
C953 C 1.01124 0.49922 0.43772 0.0
C954 C 0.0357 0.58045 0.4236 0.0
C955 C 0.99218 0.54621 0.42271 0.0
H956 H 0.4963 0.06319 0.77799 0.0
H957 H 0.58944 0.10803 0.73893 0.0
H958 H 0.58114 0.03523 0.73661 0.0
H959 H 0.54699 0.95823 0.7453 0.0
H960 H 0.44937 0.91126 0.78304 0.0
H961 H 0.4605 0.98469 0.78632 0.0
C962 C 0.51509 0.05711 0.76908 0.0
C963 C 0.54374 0.09158 0.7587 0.0
C964 C 0.50935 0.01436 0.76752 0.0
C965 C 0.56718 0.0825 0.74708 0.0
C966 C 0.5624 0.04066 0.74573 0.0
C967 C 0.52749 0.96345 0.75414 0.0
C968 C 0.4973 0.92799 0.7639 0.0
C969 C 0.53328 1.0061 0.75577 0.0
C970 C 0.4735 0.93707 0.77546 0.0
C971 C 0.4796 0.97943 0.7773 0.0
H972 H 0.45564 0.5352 0.59699 0.0
H973 H 0.52932 0.59539 0.5538 0.0
H974 H 0.54618 0.53633 0.55092 0.0
H975 H 0.5422 0.46813 0.56128 0.0
H976 H 0.46233 0.40561 0.60327 0.0
H977 H 0.44667 0.46458 0.60598 0.0
C978 C 0.47535 0.53542 0.58692 0.0
C979 C 0.49126 0.57015 0.57568 0.0
C980 C 0.48439 0.50079 0.58517 0.0
C981 C 0.5163 0.5692 0.56261 0.0
C982 C 0.52616 0.53538 0.56099 0.0
C983 C 0.52101 0.46694 0.57095 0.0
C984 C 0.50498 0.43223 0.58233 0.0
C985 C 0.51062 0.50094 0.57226 0.0
C986 C 0.4772 0.43214 0.59465 0.0
C987 C 0.46757 0.46591 0.59615 0.0
H988 H 0.07513 0.48836 0.8988 0.0
H989 H 0.12011 0.58182 0.9377 0.0
H990 H 0.04768 0.57481 0.9396 0.0
H991 H 0.97114 0.54183 0.93054 0.0
H992 H 0.92362 0.44302 0.89324 0.0
H993 H 0.99676 0.45318 0.89028 0.0
C994 C 0.06912 0.50745 0.9076 0.0
C995 C 0.10351 0.53591 0.91803 0.0
C996 C 0.02657 0.50235 0.90894 0.0
C997 C 0.0946 0.55977 0.92951 0.0
C998 C 0.053 0.55571 0.93061 0.0
C999 C 0.97608 0.5218 0.92188 0.0
C1000 C 0.94053 0.49162 0.91213 0.0
C1001 C 1.0185 0.52684 0.92049 0.0
C1002 C 0.94944 0.46721 0.90079 0.0
C1003 C 0.99164 0.47272 0.89914 0.0
H1004 H 0.45788 0.98842 0.25624 0.0
H1005 H 0.51333 0.93548 0.22289 0.0
H1006 H 0.57904 1.00754 0.22049 0.0
H1007 H 0.62348 0.08598 0.22891 0.0
H1008 H 0.56968 0.13583 0.26405 0.0
H1009 H 0.50171 0.06497 0.26488 0.0
C1010 C 0.48433 0.99198 0.24858 0.0
C1011 C 0.47974 0.95537 0.23985 0.0
C1012 C 0.52298 0.03353 0.2476 0.0
C1013 C 0.51473 0.96233 0.22966 0.0
C1014 C 0.55287 1.00381 0.22836 0.0
C1015 C 0.59665 0.08134 0.23662 0.0
C1016 C 0.60175 0.11651 0.24635 0.0
C1017 C 0.55766 0.03971 0.23737 0.0
C1018 C 0.56678 0.10957 0.25643 0.0
C1019 C 0.52782 0.06892 0.25692 0.0
loop_
_geom_bond_atom_site_label_1
_geom_bond_atom_site_label_2
_geom_bond_distance
_geom_bond_site_symmetry_2
_ccdc_geom_bond_type
C0 C1 1.443 . S
C0 N4 1.376 . S
C0 C38 1.389 . S
C1 C0 1.443 . S
C1 C2 1.340 . S
C1 H41 0.951 . S
C2 C1 1.340 . S
C2 C3 1.439 . S
C2 H42 0.950 . S
C3 C2 1.439 . S
C3 N4 1.374 . S
C3 C37 1.395 . S
N4 C0 1.376 . S
N4 C3 1.374 . S
N4 Co5 2.008 . S
Co5 N4 2.008 . S
Co5 N6 1.995 . S
Co5 N11 2.008 . S
Co5 N16 1.995 . S
Co5 N21 2.282 . S
Co5 N27 2.282 . S
N6 Co5 1.995 . S
N6 C7 1.376 . S
N6 C10 1.383 . S
C7 N6 1.376 . S
C7 C8 1.446 . S
C7 C37 1.391 . S
C8 C7 1.446 . S
C8 C9 1.339 . S
C8 H43 0.949 . S
C9 C8 1.339 . S
C9 C10 1.439 . S
C9 H44 0.950 . S
C10 N6 1.383 . S
C10 C9 1.439 . S
C10 C39 1.392 . S
N11 Co5 2.008 . S
N11 C12 1.376 . S
N11 C15 1.374 . S
C12 N11 1.376 . S
C12 C13 1.443 . S
C12 C39 1.389 . S
C13 C12 1.443 . S
C13 C14 1.340 . S
C13 H45 0.951 . S
C14 C13 1.340 . S
C14 C15 1.439 . S
C14 H46 0.950 . S
C15 N11 1.374 . S
C15 C14 1.439 . S
C15 C40 1.395 . S
N16 Co5 1.995 . S
N16 C17 1.376 . S
N16 C20 1.383 . S
C17 N16 1.376 . S
C17 C18 1.446 . S
C17 C40 1.391 . S
C18 C17 1.446 . S
C18 C19 1.339 . S
C18 H47 0.949 . S
C19 C18 1.339 . S
C19 C20 1.439 . S
C19 H48 0.950 . S
C20 N16 1.383 . S
C20 C19 1.439 . S
C20 C38 1.392 . S
N21 Co5 2.282 . S
N21 C24 1.332 . S
N21 C26 1.332 . S
C22 C23 1.386 . S
C22 C25 1.388 . S
C23 C22 1.386 . S
C23 C24 1.382 . S
C23 H49 0.950 . S
C24 N21 1.332 . S
C24 C23 1.382 . S
C24 H35 0.952 . S
C25 C22 1.388 . S
C25 C26 1.382 . S
C25 H50 0.950 . S
C26 N21 1.332 . S
C26 C25 1.382 . S
C26 H36 0.948 . S
N27 Co5 2.282 . S
N27 C31 1.332 . S
N27 C32 1.332 . S
C28 C29 1.388 . S
C28 C32 1.382 . S
C28 H51 0.950 . S
C29 C28 1.388 . S
C29 C30 1.386 . S
C30 C29 1.386 . S
C30 C31 1.382 . S
C30 H52 0.950 . S
C31 N27 1.332 . S
C31 C30 1.382 . S
C31 H33 0.952 . S
C32 N27 1.332 . S
C32 C28 1.382 . S
C32 H34 0.948 . S
H33 C31 0.952 . S
H34 C32 0.948 . S
H35 C24 0.952 . S
H36 C26 0.948 . S
C37 C3 1.395 . S
C37 C7 1.391 . S
C38 C0 1.389 . S
C38 C20 1.392 . S
C39 C10 1.392 . S
C39 C12 1.389 . S
C40 C15 1.395 . S
C40 C17 1.391 . S
H41 C1 0.951 . S
H42 C2 0.950 . S
H43 C8 0.949 . S
H44 C9 0.950 . S
H45 C13 0.951 . S
H46 C14 0.950 . S
H47 C18 0.949 . S
H48 C19 0.950 . S
H49 C23 0.950 . S
H50 C25 0.950 . S
H51 C28 0.950 . S
H52 C30 0.950 . S
C53 C54 1.443 . S
C53 N57 1.376 . S
C53 C91 1.389 . S
C54 C53 1.443 . S
C54 C55 1.340 . S
C54 H94 0.951 . S
C55 C54 1.340 . S
C55 C56 1.439 . S
C55 H95 0.950 . S
C56 C55 1.439 . S
C56 N57 1.374 . S
C56 C90 1.395 . S
N57 C53 1.376 . S
N57 C56 1.374 . S
N57 Co58 2.008 . S
Co58 N57 2.008 . S
Co58 N59 1.995 . S
Co58 N64 2.008 . S
Co58 N69 1.995 . S
Co58 N74 2.282 . S
Co58 N80 2.282 . S
N59 Co58 1.995 . S
N59 C60 1.376 . S
N59 C63 1.383 . S
C60 N59 1.376 . S
C60 C61 1.446 . S
C60 C90 1.391 . S
C61 C60 1.446 . S
C61 C62 1.339 . S
C61 H96 0.949 . S
C62 C61 1.339 . S
C62 C63 1.439 . S
C62 H97 0.950 . S
C63 N59 1.383 . S
C63 C62 1.439 . S
C63 C92 1.392 . S
N64 Co58 2.008 . S
N64 C65 1.376 . S
N64 C68 1.374 . S
C65 N64 1.376 . S
C65 C66 1.443 . S
C65 C92 1.389 . S
C66 C65 1.443 . S
C66 C67 1.340 . S
C66 H98 0.951 . S
C67 C66 1.340 . S
C67 C68 1.439 . S
C67 H99 0.950 . S
C68 N64 1.374 . S
C68 C67 1.439 . S
C68 C93 1.395 . S
N69 Co58 1.995 . S
N69 C70 1.376 . S
N69 C73 1.383 . S
C70 N69 1.376 . S
C70 C71 1.446 . S
C70 C93 1.391 . S
C71 C70 1.446 . S
C71 C72 1.339 . S
C71 H100 0.949 . S
C72 C71 1.339 . S
C72 C73 1.439 . S
C72 H101 0.950 . S
C73 N69 1.383 . S
C73 C72 1.439 . S
C73 C91 1.392 . S
N74 Co58 2.282 . S
N74 C77 1.332 . S
N74 C79 1.332 . S
C75 C76 1.386 . S
C75 C78 1.388 . S
C76 C75 1.386 . S
C76 C77 1.382 . S
C76 H102 0.950 . S
C77 N74 1.332 . S
C77 C76 1.382 . S
C77 H88 0.952 . S
C78 C75 1.388 . S
C78 C79 1.382 . S
C78 H103 0.950 . S
C79 N74 1.332 . S
C79 C78 1.382 . S
C79 H89 0.948 . S
N80 Co58 2.282 . S
N80 C84 1.332 . S
N80 C85 1.332 . S
C81 C82 1.388 . S
C81 C85 1.382 . S
C81 H104 0.950 . S
C82 C81 1.388 . S
C82 C83 1.386 . S
C83 C82 1.386 . S
C83 C84 1.382 . S
C83 H105 0.950 . S
C84 N80 1.332 . S
C84 C83 1.382 . S
C84 H86 0.952 . S
C85 N80 1.332 . S
C85 C81 1.382 . S
C85 H87 0.948 . S
H86 C84 0.952 . S
H87 C85 0.948 . S
H88 C77 0.952 . S
H89 C79 0.948 . S
C90 C56 1.395 . S
C90 C60 1.391 . S
C91 C53 1.389 . S
C91 C73 1.392 . S
C92 C63 1.392 . S
C92 C65 1.389 . S
C93 C68 1.395 . S
C93 C70 1.391 . S
H94 C54 0.951 . S
H95 C55 0.950 . S
H96 C61 0.949 . S
H97 C62 0.950 . S
H98 C66 0.951 . S
H99 C67 0.950 . S
H100 C71 0.949 . S
H101 C72 0.950 . S
H102 C76 0.950 . S
H103 C78 0.950 . S
H104 C81 0.950 . S
H105 C83 0.950 . S
C106 C107 1.443 . S
C106 N110 1.376 . S
C106 C144 1.389 . S
C107 C106 1.443 . S
C107 C108 1.340 . S
C107 H147 0.951 . S
C108 C107 1.340 . S
C108 C109 1.439 . S
C108 H148 0.950 . S
C109 C108 1.439 . S
C109 N110 1.374 . S
C109 C143 1.395 . S
N110 C106 1.376 . S
N110 C109 1.374 . S
N110 Co111 2.008 . S
Co111 N110 2.008 . S
Co111 N112 1.995 . S
Co111 N117 2.008 . S
Co111 N122 1.995 . S
Co111 N127 2.282 . S
Co111 N133 2.282 . S
N112 Co111 1.995 . S
N112 C113 1.376 . S
N112 C116 1.383 . S
C113 N112 1.376 . S
C113 C114 1.446 . S
C113 C143 1.391 . S
C114 C113 1.446 . S
C114 C115 1.339 . S
C114 H149 0.949 . S
C115 C114 1.339 . S
C115 C116 1.439 . S
C115 H150 0.950 . S
C116 N112 1.383 . S
C116 C115 1.439 . S
C116 C145 1.392 . S
N117 Co111 2.008 . S
N117 C118 1.376 . S
N117 C121 1.374 . S
C118 N117 1.376 . S
C118 C119 1.443 . S
C118 C145 1.389 . S
C119 C118 1.443 . S
C119 C120 1.340 . S
C119 H151 0.951 . S
C120 C119 1.340 . S
C120 C121 1.439 . S
C120 H152 0.950 . S
C121 N117 1.374 . S
C121 C120 1.439 . S
C121 C146 1.395 . S
N122 Co111 1.995 . S
N122 C123 1.376 . S
N122 C126 1.383 . S
C123 N122 1.376 . S
C123 C124 1.446 . S
C123 C146 1.391 . S
C124 C123 1.446 . S
C124 C125 1.339 . S
C124 H153 0.949 . S
C125 C124 1.339 . S
C125 C126 1.439 . S
C125 H154 0.950 . S
C126 N122 1.383 . S
C126 C125 1.439 . S
C126 C144 1.392 . S
N127 Co111 2.282 . S
N127 C130 1.332 . S
N127 C132 1.332 . S
C128 C129 1.386 . S
C128 C131 1.388 . S
C129 C128 1.386 . S
C129 C130 1.382 . S
C129 H155 0.950 . S
C130 N127 1.332 . S
C130 C129 1.382 . S
C130 H141 0.952 . S
C131 C128 1.388 . S
C131 C132 1.382 . S
C131 H156 0.950 . S
C132 N127 1.332 . S
C132 C131 1.382 . S
C132 H142 0.948 . S
N133 Co111 2.282 . S
N133 C137 1.332 . S
N133 C138 1.332 . S
C134 C135 1.388 . S
C134 C138 1.382 . S
C134 H157 0.950 . S
C135 C134 1.388 . S
C135 C136 1.386 . S
C136 C135 1.386 . S
C136 C137 1.382 . S
C136 H158 0.950 . S
C137 N133 1.332 . S
C137 C136 1.382 . S
C137 H139 0.952 . S
C138 N133 1.332 . S
C138 C134 1.382 . S
C138 H140 0.948 . S
H139 C137 0.952 . S
H140 C138 0.948 . S
H141 C130 0.952 . S
H142 C132 0.948 . S
C143 C109 1.395 . S
C143 C113 1.391 . S
C144 C106 1.389 . S
C144 C126 1.392 . S
C145 C116 1.392 . S
C145 C118 1.389 . S
C146 C121 1.395 . S
C146 C123 1.391 . S
H147 C107 0.951 . S
H148 C108 0.950 . S
H149 C114 0.949 . S
H150 C115 0.950 . S
H151 C119 0.951 . S
H152 C120 0.950 . S
H153 C124 0.949 . S
H154 C125 0.950 . S
H155 C129 0.950 . S
H156 C131 0.950 . S
H157 C134 0.950 . S
H158 C136 0.950 . S
C159 C160 1.443 . S
C159 N163 1.376 . S
C159 C197 1.389 . S
C160 C159 1.443 . S
C160 C161 1.340 . S
C160 H200 0.951 . S
C161 C160 1.340 . S
C161 C162 1.439 . S
C161 H201 0.950 . S
C162 C161 1.439 . S
C162 N163 1.374 . S
C162 C196 1.395 . S
N163 C159 1.376 . S
N163 C162 1.374 . S
N163 Co164 2.008 . S
Co164 N163 2.008 . S
Co164 N165 1.995 . S
Co164 N170 2.008 . S
Co164 N175 1.995 . S
Co164 N180 2.282 . S
Co164 N186 2.282 . S
N165 Co164 1.995 . S
N165 C166 1.376 . S
N165 C169 1.383 . S
C166 N165 1.376 . S
C166 C167 1.446 . S
C166 C196 1.391 . S
C167 C166 1.446 . S
C167 C168 1.339 . S
C167 H202 0.949 . S
C168 C167 1.339 . S
C168 C169 1.439 . S
C168 H203 0.950 . S
C169 N165 1.383 . S
C169 C168 1.439 . S
C169 C198 1.392 . S
N170 Co164 2.008 . S
N170 C171 1.376 . S
N170 C174 1.374 . S
C171 N170 1.376 . S
C171 C172 1.443 . S
C171 C198 1.389 . S
C172 C171 1.443 . S
C172 C173 1.340 . S
C172 H204 0.951 . S
C173 C172 1.340 . S
C173 C174 1.439 . S
C173 H205 0.950 . S
C174 N170 1.374 . S
C174 C173 1.439 . S
C174 C199 1.395 . S
N175 Co164 1.995 . S
N175 C176 1.376 . S
N175 C179 1.383 . S
C176 N175 1.376 . S
C176 C177 1.446 . S
C176 C199 1.391 . S
C177 C176 1.446 . S
C177 C178 1.339 . S
C177 H206 0.949 . S
C178 C177 1.339 . S
C178 C179 1.439 . S
C178 H207 0.950 . S
C179 N175 1.383 . S
C179 C178 1.439 . S
C179 C197 1.392 . S
N180 Co164 2.282 . S
N180 C183 1.332 . S
N180 C185 1.332 . S
C181 C182 1.386 . S
C181 C184 1.388 . S
C182 C181 1.386 . S
C182 C183 1.382 . S
C182 H208 0.950 . S
C183 N180 1.332 . S
C183 C182 1.382 . S
C183 H194 0.952 . S
C184 C181 1.388 . S
C184 C185 1.382 . S
C184 H209 0.950 . S
C185 N180 1.332 . S
C185 C184 1.382 . S
C185 H195 0.948 . S
N186 Co164 2.282 . S
N186 C190 1.332 . S
N186 C191 1.332 . S
C187 C188 1.388 . S
C187 C191 1.382 . S
C187 H210 0.950 . S
C188 C187 1.388 . S
C188 C189 1.386 . S
C189 C188 1.386 . S
C189 C190 1.382 . S
C189 H211 0.950 . S
C190 N186 1.332 . S
C190 C189 1.382 . S
C190 H192 0.952 . S
C191 N186 1.332 . S
C191 C187 1.382 . S
C191 H193 0.948 . S
H192 C190 0.952 . S
H193 C191 0.948 . S
H194 C183 0.952 . S
H195 C185 0.948 . S
C196 C162 1.395 . S
C196 C166 1.391 . S
C197 C159 1.389 . S
C197 C179 1.392 . S
C198 C169 1.392 . S
C198 C171 1.389 . S
C199 C174 1.395 . S
C199 C176 1.391 . S
H200 C160 0.951 . S
H201 C161 0.950 . S
H202 C167 0.949 . S
H203 C168 0.950 . S
H204 C172 0.951 . S
H205 C173 0.950 . S
H206 C177 0.949 . S
H207 C178 0.950 . S
H208 C182 0.950 . S
H209 C184 0.950 . S
H210 C187 0.950 . S
H211 C189 0.950 . S
C212 C213 1.443 . S
C212 N216 1.376 . S
C212 C250 1.389 . S
C213 C212 1.443 . S
C213 C214 1.340 . S
C213 H253 0.951 . S
C214 C213 1.340 . S
C214 C215 1.439 . S
C214 H254 0.950 . S
C215 C214 1.439 . S
C215 N216 1.374 . S
C215 C249 1.395 . S
N216 C212 1.376 . S
N216 C215 1.374 . S
N216 Co217 2.008 . S
Co217 N216 2.008 . S
Co217 N218 1.995 . S
Co217 N223 2.008 . S
Co217 N228 1.995 . S
Co217 N233 2.282 . S
Co217 N239 2.282 . S
N218 Co217 1.995 . S
N218 C219 1.376 . S
N218 C222 1.383 . S
C219 N218 1.376 . S
C219 C220 1.446 . S
C219 C249 1.391 . S
C220 C219 1.446 . S
C220 C221 1.339 . S
C220 H255 0.949 . S
C221 C220 1.339 . S
C221 C222 1.439 . S
C221 H256 0.950 . S
C222 N218 1.383 . S
C222 C221 1.439 . S
C222 C251 1.392 . S
N223 Co217 2.008 . S
N223 C224 1.376 . S
N223 C227 1.374 . S
C224 N223 1.376 . S
C224 C225 1.443 . S
C224 C251 1.389 . S
C225 C224 1.443 . S
C225 C226 1.340 . S
C225 H257 0.951 . S
C226 C225 1.340 . S
C226 C227 1.439 . S
C226 H258 0.950 . S
C227 N223 1.374 . S
C227 C226 1.439 . S
C227 C252 1.395 . S
N228 Co217 1.995 . S
N228 C229 1.376 . S
N228 C232 1.383 . S
C229 N228 1.376 . S
C229 C230 1.446 . S
C229 C252 1.391 . S
C230 C229 1.446 . S
C230 C231 1.339 . S
C230 H259 0.949 . S
C231 C230 1.339 . S
C231 C232 1.439 . S
C231 H260 0.950 . S
C232 N228 1.383 . S
C232 C231 1.439 . S
C232 C250 1.392 . S
N233 Co217 2.282 . S
N233 C236 1.332 . S
N233 C238 1.332 . S
C234 C235 1.386 . S
C234 C237 1.388 . S
C235 C234 1.386 . S
C235 C236 1.382 . S
C235 H261 0.950 . S
C236 N233 1.332 . S
C236 C235 1.382 . S
C236 H247 0.952 . S
C237 C234 1.388 . S
C237 C238 1.382 . S
C237 H262 0.950 . S
C238 N233 1.332 . S
C238 C237 1.382 . S
C238 H248 0.948 . S
N239 Co217 2.282 . S
N239 C243 1.332 . S
N239 C244 1.332 . S
C240 C241 1.388 . S
C240 C244 1.382 . S
C240 H263 0.950 . S
C241 C240 1.388 . S
C241 C242 1.386 . S
C242 C241 1.386 . S
C242 C243 1.382 . S
C242 H264 0.950 . S
C243 N239 1.332 . S
C243 C242 1.382 . S
C243 H245 0.952 . S
C244 N239 1.332 . S
C244 C240 1.382 . S
C244 H246 0.948 . S
H245 C243 0.952 . S
H246 C244 0.948 . S
H247 C236 0.952 . S
H248 C238 0.948 . S
C249 C215 1.395 . S
C249 C219 1.391 . S
C250 C212 1.389 . S
C250 C232 1.392 . S
C251 C222 1.392 . S
C251 C224 1.389 . S
C252 C227 1.395 . S
C252 C229 1.391 . S
H253 C213 0.951 . S
H254 C214 0.950 . S
H255 C220 0.949 . S
H256 C221 0.950 . S
H257 C225 0.951 . S
H258 C226 0.950 . S
H259 C230 0.949 . S
H260 C231 0.950 . S
H261 C235 0.950 . S
H262 C237 0.950 . S
H263 C240 0.950 . S
H264 C242 0.950 . S
C265 C266 1.443 . S
C265 N269 1.376 . S
C265 C303 1.389 . S
C266 C265 1.443 . S
C266 C267 1.340 . S
C266 H306 0.951 . S
C267 C266 1.340 . S
C267 C268 1.439 . S
C267 H307 0.950 . S
C268 C267 1.439 . S
C268 N269 1.374 . S
C268 C302 1.395 . S
N269 C265 1.376 . S
N269 C268 1.374 . S
N269 Co270 2.008 . S
Co270 N269 2.008 . S
Co270 N271 1.995 . S
Co270 N276 2.008 . S
Co270 N281 1.995 . S
Co270 N286 2.282 . S
Co270 N292 2.282 . S
N271 Co270 1.995 . S
N271 C272 1.376 . S
N271 C275 1.383 . S
C272 N271 1.376 . S
C272 C273 1.446 . S
C272 C302 1.391 . S
C273 C272 1.446 . S
C273 C274 1.339 . S
C273 H308 0.949 . S
C274 C273 1.339 . S
C274 C275 1.439 . S
C274 H309 0.950 . S
C275 N271 1.383 . S
C275 C274 1.439 . S
C275 C304 1.392 . S
N276 Co270 2.008 . S
N276 C277 1.376 . S
N276 C280 1.374 . S
C277 N276 1.376 . S
C277 C278 1.443 . S
C277 C304 1.389 . S
C278 C277 1.443 . S
C278 C279 1.340 . S
C278 H310 0.951 . S
C279 C278 1.340 . S
C279 C280 1.439 . S
C279 H311 0.950 . S
C280 N276 1.374 . S
C280 C279 1.439 . S
C280 C305 1.395 . S
N281 Co270 1.995 . S
N281 C282 1.376 . S
N281 C285 1.383 . S
C282 N281 1.376 . S
C282 C283 1.446 . S
C282 C305 1.391 . S
C283 C282 1.446 . S
C283 C284 1.339 . S
C283 H312 0.949 . S
C284 C283 1.339 . S
C284 C285 1.439 . S
C284 H313 0.950 . S
C285 N281 1.383 . S
C285 C284 1.439 . S
C285 C303 1.392 . S
N286 Co270 2.282 . S
N286 C289 1.332 . S
N286 C291 1.332 . S
C287 C288 1.386 . S
C287 C290 1.388 . S
C288 C287 1.386 . S
C288 C289 1.382 . S
C288 H314 0.950 . S
C289 N286 1.332 . S
C289 C288 1.382 . S
C289 H300 0.952 . S
C290 C287 1.388 . S
C290 C291 1.382 . S
C290 H315 0.950 . S
C291 N286 1.332 . S
C291 C290 1.382 . S
C291 H301 0.948 . S
N292 Co270 2.282 . S
N292 C296 1.332 . S
N292 C297 1.332 . S
C293 C294 1.388 . S
C293 C297 1.382 . S
C293 H316 0.950 . S
C294 C293 1.388 . S
C294 C295 1.386 . S
C295 C294 1.386 . S
C295 C296 1.382 . S
C295 H317 0.950 . S
C296 N292 1.332 . S
C296 C295 1.382 . S
C296 H298 0.952 . S
C297 N292 1.332 . S
C297 C293 1.382 . S
C297 H299 0.948 . S
H298 C296 0.952 . S
H299 C297 0.948 . S
H300 C289 0.952 . S
H301 C291 0.948 . S
C302 C268 1.395 . S
C302 C272 1.391 . S
C303 C265 1.389 . S
C303 C285 1.392 . S
C304 C275 1.392 . S
C304 C277 1.389 . S
C305 C280 1.395 . S
C305 C282 1.391 . S
H306 C266 0.951 . S
H307 C267 0.950 . S
H308 C273 0.949 . S
H309 C274 0.950 . S
H310 C278 0.951 . S
H311 C279 0.950 . S
H312 C283 0.949 . S
H313 C284 0.950 . S
H314 C288 0.950 . S
H315 C290 0.950 . S
H316 C293 0.950 . S
H317 C295 0.950 . S
C318 C319 1.443 . S
C318 N322 1.376 . S
C318 C356 1.389 . S
C319 C318 1.443 . S
C319 C320 1.340 . S
C319 H359 0.951 . S
C320 C319 1.340 . S
C320 C321 1.439 . S
C320 H360 0.950 . S
C321 C320 1.439 . S
C321 N322 1.374 . S
C321 C355 1.395 . S
N322 C318 1.376 . S
N322 C321 1.374 . S
N322 Co323 2.008 . S
Co323 N322 2.008 . S
Co323 N324 1.995 . S
Co323 N329 2.008 . S
Co323 N334 1.995 . S
Co323 N339 2.282 . S
Co323 N345 2.282 . S
N324 Co323 1.995 . S
N324 C325 1.376 . S
N324 C328 1.383 . S
C325 N324 1.376 . S
C325 C326 1.446 . S
C325 C355 1.391 . S
C326 C325 1.446 . S
C326 C327 1.339 . S
C326 H361 0.949 . S
C327 C326 1.339 . S
C327 C328 1.439 . S
C327 H362 0.950 . S
C328 N324 1.383 . S
C328 C327 1.439 . S
C328 C357 1.392 . S
N329 Co323 2.008 . S
N329 C330 1.376 . S
N329 C333 1.374 . S
C330 N329 1.376 . S
C330 C331 1.443 . S
C330 C357 1.389 . S
C331 C330 1.443 . S
C331 C332 1.340 . S
C331 H363 0.951 . S
C332 C331 1.340 . S
C332 C333 1.439 . S
C332 H364 0.950 . S
C333 N329 1.374 . S
C333 C332 1.439 . S
C333 C358 1.395 . S
N334 Co323 1.995 . S
N334 C335 1.376 . S
N334 C338 1.383 . S
C335 N334 1.376 . S
C335 C336 1.446 . S
C335 C358 1.391 . S
C336 C335 1.446 . S
C336 C337 1.339 . S
C336 H365 0.949 . S
C337 C336 1.339 . S
C337 C338 1.439 . S
C337 H366 0.950 . S
C338 N334 1.383 . S
C338 C337 1.439 . S
C338 C356 1.392 . S
N339 Co323 2.282 . S
N339 C342 1.332 . S
N339 C344 1.332 . S
C340 C341 1.386 . S
C340 C343 1.388 . S
C341 C340 1.386 . S
C341 C342 1.382 . S
C341 H367 0.950 . S
C342 N339 1.332 . S
C342 C341 1.382 . S
C342 H353 0.952 . S
C343 C340 1.388 . S
C343 C344 1.382 . S
C343 H368 0.950 . S
C344 N339 1.332 . S
C344 C343 1.382 . S
C344 H354 0.948 . S
N345 Co323 2.282 . S
N345 C349 1.332 . S
N345 C350 1.332 . S
C346 C347 1.388 . S
C346 C350 1.382 . S
C346 H369 0.950 . S
C347 C346 1.388 . S
C347 C348 1.386 . S
C348 C347 1.386 . S
C348 C349 1.382 . S
C348 H370 0.950 . S
C349 N345 1.332 . S
C349 C348 1.382 . S
C349 H351 0.952 . S
C350 N345 1.332 . S
C350 C346 1.382 . S
C350 H352 0.948 . S
H351 C349 0.952 . S
H352 C350 0.948 . S
H353 C342 0.952 . S
H354 C344 0.948 . S
C355 C321 1.395 . S
C355 C325 1.391 . S
C356 C318 1.389 . S
C356 C338 1.392 . S
C357 C328 1.392 . S
C357 C330 1.389 . S
C358 C333 1.395 . S
C358 C335 1.391 . S
H359 C319 0.951 . S
H360 C320 0.950 . S
H361 C326 0.949 . S
H362 C327 0.950 . S
H363 C331 0.951 . S
H364 C332 0.950 . S
H365 C336 0.949 . S
H366 C337 0.950 . S
H367 C341 0.950 . S
H368 C343 0.950 . S
H369 C346 0.950 . S
H370 C348 0.950 . S
C371 C372 1.443 . S
C371 N375 1.376 . S
C371 C409 1.389 . S
C372 C371 1.443 . S
C372 C373 1.340 . S
C372 H412 0.951 . S
C373 C372 1.340 . S
C373 C374 1.439 . S
C373 H413 0.950 . S
C374 C373 1.439 . S
C374 N375 1.374 . S
C374 C408 1.395 . S
N375 C371 1.376 . S
N375 C374 1.374 . S
N375 Co376 2.008 . S
Co376 N375 2.008 . S
Co376 N377 1.995 . S
Co376 N382 2.008 . S
Co376 N387 1.995 . S
Co376 N392 2.282 . S
Co376 N398 2.282 . S
N377 Co376 1.995 . S
N377 C378 1.376 . S
N377 C381 1.383 . S
C378 N377 1.376 . S
C378 C379 1.446 . S
C378 C408 1.391 . S
C379 C378 1.446 . S
C379 C380 1.339 . S
C379 H414 0.949 . S
C380 C379 1.339 . S
C380 C381 1.439 . S
C380 H415 0.950 . S
C381 N377 1.383 . S
C381 C380 1.439 . S
C381 C410 1.392 . S
N382 Co376 2.008 . S
N382 C383 1.376 . S
N382 C386 1.374 . S
C383 N382 1.376 . S
C383 C384 1.443 . S
C383 C410 1.389 . S
C384 C383 1.443 . S
C384 C385 1.340 . S
C384 H416 0.951 . S
C385 C384 1.340 . S
C385 C386 1.439 . S
C385 H417 0.950 . S
C386 N382 1.374 . S
C386 C385 1.439 . S
C386 C411 1.395 . S
N387 Co376 1.995 . S
N387 C388 1.376 . S
N387 C391 1.383 . S
C388 N387 1.376 . S
C388 C389 1.446 . S
C388 C411 1.391 . S
C389 C388 1.446 . S
C389 C390 1.339 . S
C389 H418 0.949 . S
C390 C389 1.339 . S
C390 C391 1.439 . S
C390 H419 0.950 . S
C391 N387 1.383 . S
C391 C390 1.439 . S
C391 C409 1.392 . S
N392 Co376 2.282 . S
N392 C395 1.332 . S
N392 C397 1.332 . S
C393 C394 1.386 . S
C393 C396 1.388 . S
C394 C393 1.386 . S
C394 C395 1.382 . S
C394 H420 0.950 . S
C395 N392 1.332 . S
C395 C394 1.382 . S
C395 H406 0.952 . S
C396 C393 1.388 . S
C396 C397 1.382 . S
C396 H421 0.950 . S
C397 N392 1.332 . S
C397 C396 1.382 . S
C397 H407 0.948 . S
N398 Co376 2.282 . S
N398 C402 1.332 . S
N398 C403 1.332 . S
C399 C400 1.388 . S
C399 C403 1.382 . S
C399 H422 0.950 . S
C400 C399 1.388 . S
C400 C401 1.386 . S
C401 C400 1.386 . S
C401 C402 1.382 . S
C401 H423 0.950 . S
C402 N398 1.332 . S
C402 C401 1.382 . S
C402 H404 0.952 . S
C403 N398 1.332 . S
C403 C399 1.382 . S
C403 H405 0.948 . S
H404 C402 0.952 . S
H405 C403 0.948 . S
H406 C395 0.952 . S
H407 C397 0.948 . S
C408 C374 1.395 . S
C408 C378 1.391 . S
C409 C371 1.389 . S
C409 C391 1.392 . S
C410 C381 1.392 . S
C410 C383 1.389 . S
C411 C386 1.395 . S
C411 C388 1.391 . S
H412 C372 0.951 . S
H413 C373 0.950 . S
H414 C379 0.949 . S
H415 C380 0.950 . S
H416 C384 0.951 . S
H417 C385 0.950 . S
H418 C389 0.949 . S
H419 C390 0.950 . S
H420 C394 0.950 . S
H421 C396 0.950 . S
H422 C399 0.950 . S
H423 C401 0.950 . S
C424 C425 1.443 . S
C424 N428 1.376 . S
C424 C462 1.389 . S
C425 C424 1.443 . S
C425 C426 1.340 . S
C425 H465 0.951 . S
C426 C425 1.340 . S
C426 C427 1.439 . S
C426 H466 0.950 . S
C427 C426 1.439 . S
C427 N428 1.374 . S
C427 C461 1.395 . S
N428 C424 1.376 . S
N428 C427 1.374 . S
N428 Co429 2.008 . S
Co429 N428 2.008 . S
Co429 N430 1.995 . S
Co429 N435 2.008 . S
Co429 N440 1.995 . S
Co429 N445 2.282 . S
Co429 N451 2.282 . S
N430 Co429 1.995 . S
N430 C431 1.376 . S
N430 C434 1.383 . S
C431 N430 1.376 . S
C431 C432 1.446 . S
C431 C461 1.391 . S
C432 C431 1.446 . S
C432 C433 1.339 . S
C432 H467 0.949 . S
C433 C432 1.339 . S
C433 C434 1.439 . S
C433 H468 0.950 . S
C434 N430 1.383 . S
C434 C433 1.439 . S
C434 C463 1.392 . S
N435 Co429 2.008 . S
N435 C436 1.376 . S
N435 C439 1.374 . S
C436 N435 1.376 . S
C436 C437 1.443 . S
C436 C463 1.389 . S
C437 C436 1.443 . S
C437 C438 1.340 . S
C437 H469 0.951 . S
C438 C437 1.340 . S
C438 C439 1.439 . S
C438 H470 0.950 . S
C439 N435 1.374 . S
C439 C438 1.439 . S
C439 C464 1.395 . S
N440 Co429 1.995 . S
N440 C441 1.376 . S
N440 C444 1.383 . S
C441 N440 1.376 . S
C441 C442 1.446 . S
C441 C464 1.391 . S
C442 C441 1.446 . S
C442 C443 1.339 . S
C442 H471 0.949 . S
C443 C442 1.339 . S
C443 C444 1.439 . S
C443 H472 0.950 . S
C444 N440 1.383 . S
C444 C443 1.439 . S
C444 C462 1.392 . S
N445 Co429 2.282 . S
N445 C448 1.332 . S
N445 C450 1.332 . S
C446 C447 1.386 . S
C446 C449 1.388 . S
C447 C446 1.386 . S
C447 C448 1.382 . S
C447 H473 0.950 . S
C448 N445 1.332 . S
C448 C447 1.382 . S
C448 H459 0.952 . S
C449 C446 1.388 . S
C449 C450 1.382 . S
C449 H474 0.950 . S
C450 N445 1.332 . S
C450 C449 1.382 . S
C450 H460 0.948 . S
N451 Co429 2.282 . S
N451 C455 1.332 . S
N451 C456 1.332 . S
C452 C453 1.388 . S
C452 C456 1.382 . S
C452 H475 0.950 . S
C453 C452 1.388 . S
C453 C454 1.386 . S
C454 C453 1.386 . S
C454 C455 1.382 . S
C454 H476 0.950 . S
C455 N451 1.332 . S
C455 C454 1.382 . S
C455 H457 0.952 . S
C456 N451 1.332 . S
C456 C452 1.382 . S
C456 H458 0.948 . S
H457 C455 0.952 . S
H458 C456 0.948 . S
H459 C448 0.952 . S
H460 C450 0.948 . S
C461 C427 1.395 . S
C461 C431 1.391 . S
C462 C424 1.389 . S
C462 C444 1.392 . S
C463 C434 1.392 . S
C463 C436 1.389 . S
C464 C439 1.395 . S
C464 C441 1.391 . S
H465 C425 0.951 . S
H466 C426 0.950 . S
H467 C432 0.949 . S
H468 C433 0.950 . S
H469 C437 0.951 . S
H470 C438 0.950 . S
H471 C442 0.949 . S
H472 C443 0.950 . S
H473 C447 0.950 . S
H474 C449 0.950 . S
H475 C452 0.950 . S
H476 C454 0.950 . S
C477 C478 1.443 . S
C477 N481 1.376 . S
C477 C515 1.389 . S
C478 C477 1.443 . S
C478 C479 1.340 . S
C478 H518 0.951 . S
C479 C478 1.340 . S
C479 C480 1.439 . S
C479 H519 0.950 . S
C480 C479 1.439 . S
C480 N481 1.374 . S
C480 C514 1.395 . S
N481 C477 1.376 . S
N481 C480 1.374 . S
N481 Co482 2.008 . S
Co482 N481 2.008 . S
Co482 N483 1.995 . S
Co482 N488 2.008 . S
Co482 N493 1.995 . S
Co482 N498 2.282 . S
Co482 N504 2.282 . S
N483 Co482 1.995 . S
N483 C484 1.376 . S
N483 C487 1.383 . S
C484 N483 1.376 . S
C484 C485 1.446 . S
C484 C514 1.391 . S
C485 C484 1.446 . S
C485 C486 1.339 . S
C485 H520 0.949 . S
C486 C485 1.339 . S
C486 C487 1.439 . S
C486 H521 0.950 . S
C487 N483 1.383 . S
C487 C486 1.439 . S
C487 C516 1.392 . S
N488 Co482 2.008 . S
N488 C489 1.376 . S
N488 C492 1.374 . S
C489 N488 1.376 . S
C489 C490 1.443 . S
C489 C516 1.389 . S
C490 C489 1.443 . S
C490 C491 1.340 . S
C490 H522 0.951 . S
C491 C490 1.340 . S
C491 C492 1.439 . S
C491 H523 0.950 . S
C492 N488 1.374 . S
C492 C491 1.439 . S
C492 C517 1.395 . S
N493 Co482 1.995 . S
N493 C494 1.376 . S
N493 C497 1.383 . S
C494 N493 1.376 . S
C494 C495 1.446 . S
C494 C517 1.391 . S
C495 C494 1.446 . S
C495 C496 1.339 . S
C495 H524 0.949 . S
C496 C495 1.339 . S
C496 C497 1.439 . S
C496 H525 0.950 . S
C497 N493 1.383 . S
C497 C496 1.439 . S
C497 C515 1.392 . S
N498 Co482 2.282 . S
N498 C501 1.332 . S
N498 C503 1.332 . S
C499 C500 1.386 . S
C499 C502 1.388 . S
C500 C499 1.386 . S
C500 C501 1.382 . S
C500 H526 0.950 . S
C501 N498 1.332 . S
C501 C500 1.382 . S
C501 H512 0.952 . S
C502 C499 1.388 . S
C502 C503 1.382 . S
C502 H527 0.950 . S
C503 N498 1.332 . S
C503 C502 1.382 . S
C503 H513 0.948 . S
N504 Co482 2.282 . S
N504 C508 1.332 . S
N504 C509 1.332 . S
C505 C506 1.388 . S
C505 C509 1.382 . S
C505 H528 0.950 . S
C506 C505 1.388 . S
C506 C507 1.386 . S
C507 C506 1.386 . S
C507 C508 1.382 . S
C507 H529 0.950 . S
C508 N504 1.332 . S
C508 C507 1.382 . S
C508 H510 0.952 . S
C509 N504 1.332 . S
C509 C505 1.382 . S
C509 H511 0.948 . S
H510 C508 0.952 . S
H511 C509 0.948 . S
H512 C501 0.952 . S
H513 C503 0.948 . S
C514 C480 1.395 . S
C514 C484 1.391 . S
C515 C477 1.389 . S
C515 C497 1.392 . S
C516 C487 1.392 . S
C516 C489 1.389 . S
C517 C492 1.395 . S
C517 C494 1.391 . S
H518 C478 0.951 . S
H519 C479 0.950 . S
H520 C485 0.949 . S
H521 C486 0.950 . S
H522 C490 0.951 . S
H523 C491 0.950 . S
H524 C495 0.949 . S
H525 C496 0.950 . S
H526 C500 0.950 . S
H527 C502 0.950 . S
H528 C505 0.950 . S
H529 C507 0.950 . S
C530 C531 1.443 . S
C530 N534 1.376 . S
C530 C568 1.389 . S
C531 C530 1.443 . S
C531 C532 1.340 . S
C531 H571 0.951 . S
C532 C531 1.340 . S
C532 C533 1.439 . S
C532 H572 0.950 . S
C533 C532 1.439 . S
C533 N534 1.374 . S
C533 C567 1.395 . S
N534 C530 1.376 . S
N534 C533 1.374 . S
N534 Co535 2.008 . S
Co535 N534 2.008 . S
Co535 N536 1.995 . S
Co535 N541 2.008 . S
Co535 N546 1.995 . S
Co535 N551 2.282 . S
Co535 N557 2.282 . S
N536 Co535 1.995 . S
N536 C537 1.376 . S
N536 C540 1.383 . S
C537 N536 1.376 . S
C537 C538 1.446 . S
C537 C567 1.391 . S
C538 C537 1.446 . S
C538 C539 1.339 . S
C538 H573 0.949 . S
C539 C538 1.339 . S
C539 C540 1.439 . S
C539 H574 0.950 . S
C540 N536 1.383 . S
C540 C539 1.439 . S
C540 C569 1.392 . S
N541 Co535 2.008 . S
N541 C542 1.376 . S
N541 C545 1.374 . S
C542 N541 1.376 . S
C542 C543 1.443 . S
C542 C569 1.389 . S
C543 C542 1.443 . S
C543 C544 1.340 . S
C543 H575 0.951 . S
C544 C543 1.340 . S
C544 C545 1.439 . S
C544 H576 0.950 . S
C545 N541 1.374 . S
C545 C544 1.439 . S
C545 C570 1.395 . S
N546 Co535 1.995 . S
N546 C547 1.376 . S
N546 C550 1.383 . S
C547 N546 1.376 . S
C547 C548 1.446 . S
C547 C570 1.391 . S
C548 C547 1.446 . S
C548 C549 1.339 . S
C548 H577 0.949 . S
C549 C548 1.339 . S
C549 C550 1.439 . S
C549 H578 0.950 . S
C550 N546 1.383 . S
C550 C549 1.439 . S
C550 C568 1.392 . S
N551 Co535 2.282 . S
N551 C554 1.332 . S
N551 C556 1.332 . S
C552 C553 1.386 . S
C552 C555 1.388 . S
C553 C552 1.386 . S
C553 C554 1.382 . S
C553 H579 0.950 . S
C554 N551 1.332 . S
C554 C553 1.382 . S
C554 H565 0.952 . S
C555 C552 1.388 . S
C555 C556 1.382 . S
C555 H580 0.950 . S
C556 N551 1.332 . S
C556 C555 1.382 . S
C556 H566 0.948 . S
N557 Co535 2.282 . S
N557 C561 1.332 . S
N557 C562 1.332 . S
C558 C559 1.388 . S
C558 C562 1.382 . S
C558 H581 0.950 . S
C559 C558 1.388 . S
C559 C560 1.386 . S
C560 C559 1.386 . S
C560 C561 1.382 . S
C560 H582 0.950 . S
C561 N557 1.332 . S
C561 C560 1.382 . S
C561 H563 0.952 . S
C562 N557 1.332 . S
C562 C558 1.382 . S
C562 H564 0.948 . S
H563 C561 0.952 . S
H564 C562 0.948 . S
H565 C554 0.952 . S
H566 C556 0.948 . S
C567 C533 1.395 . S
C567 C537 1.391 . S
C568 C530 1.389 . S
C568 C550 1.392 . S
C569 C540 1.392 . S
C569 C542 1.389 . S
C570 C545 1.395 . S
C570 C547 1.391 . S
H571 C531 0.951 . S
H572 C532 0.950 . S
H573 C538 0.949 . S
H574 C539 0.950 . S
H575 C543 0.951 . S
H576 C544 0.950 . S
H577 C548 0.949 . S
H578 C549 0.950 . S
H579 C553 0.950 . S
H580 C555 0.950 . S
H581 C558 0.950 . S
H582 C560 0.950 . S
C583 C584 1.443 . S
C583 N587 1.376 . S
C583 C621 1.389 . S
C584 C583 1.443 . S
C584 C585 1.340 . S
C584 H624 0.951 . S
C585 C584 1.340 . S
C585 C586 1.439 . S
C585 H625 0.950 . S
C586 C585 1.439 . S
C586 N587 1.374 . S
C586 C620 1.395 . S
N587 C583 1.376 . S
N587 C586 1.374 . S
N587 Co588 2.008 . S
Co588 N587 2.008 . S
Co588 N589 1.995 . S
Co588 N594 2.008 . S
Co588 N599 1.995 . S
Co588 N604 2.282 . S
Co588 N610 2.282 . S
N589 Co588 1.995 . S
N589 C590 1.376 . S
N589 C593 1.383 . S
C590 N589 1.376 . S
C590 C591 1.446 . S
C590 C620 1.391 . S
C591 C590 1.446 . S
C591 C592 1.339 . S
C591 H626 0.949 . S
C592 C591 1.339 . S
C592 C593 1.439 . S
C592 H627 0.950 . S
C593 N589 1.383 . S
C593 C592 1.439 . S
C593 C622 1.392 . S
N594 Co588 2.008 . S
N594 C595 1.376 . S
N594 C598 1.374 . S
C595 N594 1.376 . S
C595 C596 1.443 . S
C595 C622 1.389 . S
C596 C595 1.443 . S
C596 C597 1.340 . S
C596 H628 0.951 . S
C597 C596 1.340 . S
C597 C598 1.439 . S
C597 H629 0.950 . S
C598 N594 1.374 . S
C598 C597 1.439 . S
C598 C623 1.395 . S
N599 Co588 1.995 . S
N599 C600 1.376 . S
N599 C603 1.383 . S
C600 N599 1.376 . S
C600 C601 1.446 . S
C600 C623 1.391 . S
C601 C600 1.446 . S
C601 C602 1.339 . S
C601 H630 0.949 . S
C602 C601 1.339 . S
C602 C603 1.439 . S
C602 H631 0.950 . S
C603 N599 1.383 . S
C603 C602 1.439 . S
C603 C621 1.392 . S
N604 Co588 2.282 . S
N604 C607 1.332 . S
N604 C609 1.332 . S
C605 C606 1.386 . S
C605 C608 1.388 . S
C606 C605 1.386 . S
C606 C607 1.382 . S
C606 H632 0.950 . S
C607 N604 1.332 . S
C607 C606 1.382 . S
C607 H618 0.952 . S
C608 C605 1.388 . S
C608 C609 1.382 . S
C608 H633 0.950 . S
C609 N604 1.332 . S
C609 C608 1.382 . S
C609 H619 0.948 . S
N610 Co588 2.282 . S
N610 C614 1.332 . S
N610 C615 1.332 . S
C611 C612 1.388 . S
C611 C615 1.382 . S
C611 H634 0.950 . S
C612 C611 1.388 . S
C612 C613 1.386 . S
C613 C612 1.386 . S
C613 C614 1.382 . S
C613 H635 0.950 . S
C614 N610 1.332 . S
C614 C613 1.382 . S
C614 H616 0.952 . S
C615 N610 1.332 . S
C615 C611 1.382 . S
C615 H617 0.948 . S
H616 C614 0.952 . S
H617 C615 0.948 . S
H618 C607 0.952 . S
H619 C609 0.948 . S
C620 C586 1.395 . S
C620 C590 1.391 . S
C621 C583 1.389 . S
C621 C603 1.392 . S
C622 C593 1.392 . S
C622 C595 1.389 . S
C623 C598 1.395 . S
C623 C600 1.391 . S
H624 C584 0.951 . S
H625 C585 0.950 . S
H626 C591 0.949 . S
H627 C592 0.950 . S
H628 C596 0.951 . S
H629 C597 0.950 . S
H630 C601 0.949 . S
H631 C602 0.950 . S
H632 C606 0.950 . S
H633 C608 0.950 . S
H634 C611 0.950 . S
H635 C613 0.950 . S
H636 C642 0.930 . S
H637 C645 0.930 . S
H638 C646 0.930 . S
H639 C647 0.930 . S
H640 C650 0.930 . S
H641 C651 0.930 . S
C642 H636 0.930 . S
C642 C643 1.355 . S
C642 C644 1.415 . S
C643 C642 1.355 . S
C643 C645 1.419 . S
C644 C642 1.415 . S
C644 C649 1.425 1_556 S
C644 C651 1.409 1_556 S
C645 H637 0.930 . S
C645 C643 1.419 . S
C645 C646 1.362 . S
C646 H638 0.930 . S
C646 C645 1.362 . S
C646 C649 1.409 1_556 S
C647 H639 0.930 . S
C647 C648 1.355 . S
C647 C649 1.415 . S
C648 C647 1.355 . S
C648 C650 1.419 . S
C649 C644 1.425 1_554 S
C649 C646 1.409 1_554 S
C649 C647 1.415 . S
C650 H640 0.930 . S
C650 C648 1.419 . S
C650 C651 1.362 . S
C651 H641 0.930 . S
C651 C644 1.409 1_554 S
C651 C650 1.362 . S
H652 C658 0.930 . S
H653 C661 0.930 . S
H654 C662 0.930 . S
H655 C663 0.930 . S
H656 C666 0.930 . S
H657 C667 0.930 . S
C658 H652 0.930 . S
C658 C659 1.355 . S
C658 C660 1.415 . S
C659 C658 1.355 . S
C659 C661 1.419 . S
C660 C658 1.415 . S
C660 C665 1.425 . S
C660 C667 1.409 . S
C661 H653 0.930 . S
C661 C659 1.419 . S
C661 C662 1.362 . S
C662 H654 0.930 . S
C662 C661 1.362 . S
C662 C665 1.409 . S
C663 H655 0.930 . S
C663 C664 1.355 . S
C663 C665 1.415 . S
C664 C663 1.355 . S
C664 C666 1.419 . S
C665 C660 1.425 . S
C665 C662 1.409 . S
C665 C663 1.415 . S
C666 H656 0.930 . S
C666 C664 1.419 . S
C666 C667 1.362 . S
C667 H657 0.930 . S
C667 C660 1.409 . S
C667 C666 1.362 . S
H668 C674 0.930 . S
H669 C677 0.930 . S
H670 C678 0.930 . S
H671 C679 0.930 . S
H672 C682 0.930 . S
H673 C683 0.930 . S
C674 H668 0.930 . S
C674 C675 1.355 . S
C674 C676 1.415 . S
C675 C674 1.355 . S
C675 C677 1.419 . S
C676 C674 1.415 . S
C676 C681 1.425 . S
C676 C683 1.409 . S
C677 H669 0.930 . S
C677 C675 1.419 . S
C677 C678 1.362 . S
C678 H670 0.930 . S
C678 C677 1.362 . S
C678 C681 1.409 . S
C679 H671 0.930 . S
C679 C680 1.355 . S
C679 C681 1.415 . S
C680 C679 1.355 . S
C680 C682 1.419 . S
C681 C676 1.425 . S
C681 C678 1.409 . S
C681 C679 1.415 . S
C682 H672 0.930 . S
C682 C680 1.419 . S
C682 C683 1.362 . S
C683 H673 0.930 . S
C683 C676 1.409 . S
C683 C682 1.362 . S
H684 C690 0.930 . S
H685 C693 0.930 . S
H686 C694 0.930 . S
H687 C695 0.930 . S
H688 C698 0.930 . S
H689 C699 0.930 . S
C690 H684 0.930 . S
C690 C691 1.355 . S
C690 C692 1.415 . S
C691 C690 1.355 . S
C691 C693 1.419 . S
C692 C690 1.415 . S
C692 C697 1.425 1_554 S
C692 C699 1.409 1_554 S
C693 H685 0.930 . S
C693 C691 1.419 . S
C693 C694 1.362 . S
C694 H686 0.930 . S
C694 C693 1.362 . S
C694 C697 1.409 1_554 S
C695 H687 0.930 . S
C695 C696 1.355 . S
C695 C697 1.415 . S
C696 C695 1.355 . S
C696 C698 1.419 . S
C697 C692 1.425 1_556 S
C697 C694 1.409 1_556 S
C697 C695 1.415 . S
C698 H688 0.930 . S
C698 C696 1.419 . S
C698 C699 1.362 . S
C699 H689 0.930 . S
C699 C692 1.409 1_556 S
C699 C698 1.362 . S
H700 C706 0.930 . S
H701 C709 0.930 . S
H702 C710 0.930 . S
H703 C711 0.930 . S
H704 C714 0.930 . S
H705 C715 0.930 . S
C706 H700 0.930 . S
C706 C707 1.355 . S
C706 C708 1.415 . S
C707 C706 1.355 . S
C707 C709 1.419 . S
C708 C706 1.415 . S
C708 C713 1.425 . S
C708 C715 1.409 . S
C709 H701 0.930 . S
C709 C707 1.419 . S
C709 C710 1.362 . S
C710 H702 0.930 . S
C710 C709 1.362 . S
C710 C713 1.409 . S
C711 H703 0.930 . S
C711 C712 1.355 . S
C711 C713 1.415 . S
C712 C711 1.355 . S
C712 C714 1.419 . S
C713 C708 1.425 . S
C713 C710 1.409 . S
C713 C711 1.415 . S
C714 H704 0.930 . S
C714 C712 1.419 . S
C714 C715 1.362 . S
C715 H705 0.930 . S
C715 C708 1.409 . S
C715 C714 1.362 . S
H716 C722 0.930 . S
H717 C725 0.930 . S
H718 C726 0.930 . S
H719 C727 0.930 . S
H720 C730 0.930 . S
H721 C731 0.930 . S
C722 H716 0.930 . S
C722 C723 1.355 . S
C722 C724 1.415 . S
C723 C722 1.355 . S
C723 C725 1.419 . S
C724 C722 1.415 . S
C724 C729 1.425 . S
C724 C731 1.409 . S
C725 H717 0.930 . S
C725 C723 1.419 . S
C725 C726 1.362 . S
C726 H718 0.930 . S
C726 C725 1.362 . S
C726 C729 1.409 . S
C727 H719 0.930 . S
C727 C728 1.355 . S
C727 C729 1.415 . S
C728 C727 1.355 . S
C728 C730 1.419 . S
C729 C724 1.425 . S
C729 C726 1.409 . S
C729 C727 1.415 . S
C730 H720 0.930 . S
C730 C728 1.419 . S
C730 C731 1.362 . S
C731 H721 0.930 . S
C731 C724 1.409 . S
C731 C730 1.362 . S
H732 C738 0.930 . S
H733 C741 0.930 . S
H734 C742 0.930 . S
H735 C743 0.930 . S
H736 C746 0.930 . S
H737 C747 0.930 . S
C738 H732 0.930 . S
C738 C739 1.355 . S
C738 C740 1.415 . S
C739 C738 1.355 . S
C739 C741 1.419 . S
C740 C738 1.415 . S
C740 C745 1.425 . S
C740 C747 1.409 . S
C741 H733 0.930 . S
C741 C739 1.419 . S
C741 C742 1.362 . S
C742 H734 0.930 . S
C742 C741 1.362 . S
C742 C745 1.409 . S
C743 H735 0.930 . S
C743 C744 1.355 . S
C743 C745 1.415 . S
C744 C743 1.355 . S
C744 C746 1.419 . S
C745 C740 1.425 . S
C745 C742 1.409 . S
C745 C743 1.415 . S
C746 H736 0.930 . S
C746 C744 1.419 . S
C746 C747 1.362 . S
C747 H737 0.930 . S
C747 C740 1.409 . S
C747 C746 1.362 . S
H748 C754 0.930 . S
H749 C757 0.930 . S
H750 C758 0.930 . S
H751 C759 0.930 . S
H752 C762 0.930 . S
H753 C763 0.930 . S
C754 H748 0.930 . S
C754 C755 1.355 . S
C754 C756 1.415 . S
C755 C754 1.355 . S
C755 C757 1.419 . S
C756 C754 1.415 . S
C756 C761 1.425 . S
C756 C763 1.409 . S
C757 H749 0.930 . S
C757 C755 1.419 . S
C757 C758 1.362 . S
C758 H750 0.930 . S
C758 C757 1.362 . S
C758 C761 1.409 . S
C759 H751 0.930 . S
C759 C760 1.355 . S
C759 C761 1.415 . S
C760 C759 1.355 . S
C760 C762 1.419 . S
C761 C756 1.425 . S
C761 C758 1.409 . S
C761 C759 1.415 . S
C762 H752 0.930 . S
C762 C760 1.419 . S
C762 C763 1.362 . S
C763 H753 0.930 . S
C763 C756 1.409 . S
C763 C762 1.362 . S
H764 C770 0.930 . S
H765 C773 0.930 . S
H766 C774 0.930 . S
H767 C775 0.930 . S
H768 C778 0.930 . S
H769 C779 0.930 . S
C770 H764 0.930 . S
C770 C771 1.355 . S
C770 C772 1.415 . S
C771 C770 1.355 . S
C771 C773 1.419 . S
C772 C770 1.415 . S
C772 C777 1.425 . S
C772 C779 1.409 . S
C773 H765 0.930 . S
C773 C771 1.419 . S
C773 C774 1.362 . S
C774 H766 0.930 . S
C774 C773 1.362 . S
C774 C777 1.409 . S
C775 H767 0.930 . S
C775 C776 1.355 . S
C775 C777 1.415 . S
C776 C775 1.355 . S
C776 C778 1.419 . S
C777 C772 1.425 . S
C777 C774 1.409 . S
C777 C775 1.415 . S
C778 H768 0.930 . S
C778 C776 1.419 . S
C778 C779 1.362 . S
C779 H769 0.930 . S
C779 C772 1.409 . S
C779 C778 1.362 . S
H780 C786 0.930 . S
H781 C789 0.930 . S
H782 C790 0.930 . S
H783 C791 0.930 . S
H784 C794 0.930 . S
H785 C795 0.930 . S
C786 H780 0.930 . S
C786 C787 1.355 . S
C786 C788 1.415 . S
C787 C786 1.355 . S
C787 C789 1.419 . S
C788 C786 1.415 . S
C788 C793 1.425 . S
C788 C795 1.409 . S
C789 H781 0.930 . S
C789 C787 1.419 . S
C789 C790 1.362 . S
C790 H782 0.930 . S
C790 C789 1.362 . S
C790 C793 1.409 . S
C791 H783 0.930 . S
C791 C792 1.355 . S
C791 C793 1.415 . S
C792 C791 1.355 . S
C792 C794 1.419 . S
C793 C788 1.425 . S
C793 C790 1.409 . S
C793 C791 1.415 . S
C794 H784 0.930 . S
C794 C792 1.419 . S
C794 C795 1.362 . S
C795 H785 0.930 . S
C795 C788 1.409 . S
C795 C794 1.362 . S
H796 C802 0.930 . S
H797 C805 0.930 . S
H798 C806 0.930 . S
H799 C807 0.930 . S
H800 C810 0.930 . S
H801 C811 0.930 . S
C802 H796 0.930 . S
C802 C803 1.355 . S
C802 C804 1.415 . S
C803 C802 1.355 . S
C803 C805 1.419 . S
C804 C802 1.415 . S
C804 C809 1.425 . S
C804 C811 1.409 . S
C805 H797 0.930 . S
C805 C803 1.419 . S
C805 C806 1.362 . S
C806 H798 0.930 . S
C806 C805 1.362 . S
C806 C809 1.409 . S
C807 H799 0.930 . S
C807 C808 1.355 . S
C807 C809 1.415 . S
C808 C807 1.355 . S
C808 C810 1.419 . S
C809 C804 1.425 . S
C809 C806 1.409 . S
C809 C807 1.415 . S
C810 H800 0.930 . S
C810 C808 1.419 . S
C810 C811 1.362 . S
C811 H801 0.930 . S
C811 C804 1.409 . S
C811 C810 1.362 . S
H812 C818 0.930 . S
H813 C821 0.930 . S
H814 C822 0.930 . S
H815 C823 0.930 . S
H816 C826 0.930 . S
H817 C827 0.930 . S
C818 H812 0.930 . S
C818 C819 1.355 . S
C818 C820 1.415 . S
C819 C818 1.355 . S
C819 C821 1.419 . S
C820 C818 1.415 . S
C820 C825 1.425 . S
C820 C827 1.409 . S
C821 H813 0.930 . S
C821 C819 1.419 . S
C821 C822 1.362 . S
C822 H814 0.930 . S
C822 C821 1.362 . S
C822 C825 1.409 . S
C823 H815 0.930 . S
C823 C824 1.355 . S
C823 C825 1.415 . S
C824 C823 1.355 . S
C824 C826 1.419 . S
C825 C820 1.425 . S
C825 C822 1.409 . S
C825 C823 1.415 . S
C826 H816 0.930 . S
C826 C824 1.419 . S
C826 C827 1.362 . S
C827 H817 0.930 . S
C827 C820 1.409 . S
C827 C826 1.362 . S
H828 C834 0.930 . S
H829 C837 0.930 . S
H830 C838 0.930 1_455 S
H831 C839 0.930 . S
H832 C842 0.930 . S
H833 C843 0.930 1_655 S
C834 H828 0.930 . S
C834 C835 1.355 . S
C834 C836 1.415 . S
C835 C834 1.355 . S
C835 C837 1.419 . S
C836 C834 1.415 . S
C836 C841 1.425 1_655 S
C836 C843 1.409 1_655 S
C837 H829 0.930 . S
C837 C835 1.419 . S
C837 C838 1.362 . S
C838 H830 0.930 1_655 S
C838 C837 1.362 . S
C838 C841 1.409 1_655 S
C839 H831 0.930 . S
C839 C840 1.355 . S
C839 C841 1.415 . S
C840 C839 1.355 . S
C840 C842 1.419 . S
C841 C836 1.425 1_455 S
C841 C838 1.409 1_455 S
C841 C839 1.415 . S
C842 H832 0.930 . S
C842 C840 1.419 . S
C842 C843 1.362 . S
C843 H833 0.930 1_455 S
C843 C836 1.409 1_455 S
C843 C842 1.362 . S
H844 C850 0.930 . S
H845 C853 0.930 . S
H846 C854 0.930 . S
H847 C855 0.930 . S
H848 C858 0.930 . S
H849 C859 0.930 . S
C850 H844 0.930 . S
C850 C851 1.355 . S
C850 C852 1.415 . S
C851 C850 1.355 . S
C851 C853 1.419 . S
C852 C850 1.415 . S
C852 C857 1.425 1_545 S
C852 C859 1.409 1_545 S
C853 H845 0.930 . S
C853 C851 1.419 . S
C853 C854 1.362 . S
C854 H846 0.930 . S
C854 C853 1.362 . S
C854 C857 1.409 1_545 S
C855 H847 0.930 . S
C855 C856 1.355 . S
C855 C857 1.415 . S
C856 C855 1.355 . S
C856 C858 1.419 . S
C857 C852 1.425 1_565 S
C857 C854 1.409 1_565 S
C857 C855 1.415 . S
C858 H848 0.930 . S
C858 C856 1.419 . S
C858 C859 1.362 . S
C859 H849 0.930 . S
C859 C852 1.409 1_565 S
C859 C858 1.362 . S
H860 C866 0.930 . S
H861 C869 0.930 . S
H862 C870 0.930 . S
H863 C871 0.930 . S
H864 C874 0.930 . S
H865 C875 0.930 . S
C866 H860 0.930 . S
C866 C867 1.355 . S
C866 C868 1.415 . S
C867 C866 1.355 . S
C867 C869 1.419 . S
C868 C866 1.415 . S
C868 C873 1.425 . S
C868 C875 1.409 . S
C869 H861 0.930 . S
C869 C867 1.419 . S
C869 C870 1.362 . S
C870 H862 0.930 . S
C870 C869 1.362 . S
C870 C873 1.409 . S
C871 H863 0.930 . S
C871 C872 1.355 . S
C871 C873 1.415 . S
C872 C871 1.355 . S
C872 C874 1.419 . S
C873 C868 1.425 . S
C873 C870 1.409 . S
C873 C871 1.415 . S
C874 H864 0.930 . S
C874 C872 1.419 . S
C874 C875 1.362 . S
C875 H865 0.930 . S
C875 C868 1.409 . S
C875 C874 1.362 . S
H876 C882 0.930 . S
H877 C885 0.930 . S
H878 C886 0.930 . S
H879 C887 0.930 . S
H880 C890 0.930 . S
H881 C891 0.930 . S
C882 H876 0.930 . S
C882 C883 1.355 . S
C882 C884 1.415 1_545 S
C883 C882 1.355 . S
C883 C885 1.419 . S
C884 C882 1.415 1_565 S
C884 C889 1.425 1_565 S
C884 C891 1.409 . S
C885 H877 0.930 . S
C885 C883 1.419 . S
C885 C886 1.362 . S
C886 H878 0.930 . S
C886 C885 1.362 . S
C886 C889 1.409 . S
C887 H879 0.930 . S
C887 C888 1.355 . S
C887 C889 1.415 1_565 S
C888 C887 1.355 . S
C888 C890 1.419 . S
C889 C884 1.425 1_545 S
C889 C886 1.409 . S
C889 C887 1.415 1_545 S
C890 H880 0.930 . S
C890 C888 1.419 . S
C890 C891 1.362 . S
C891 H881 0.930 . S
C891 C884 1.409 . S
C891 C890 1.362 . S
H892 C898 0.930 . S
H893 C901 0.930 . S
H894 C902 0.930 . S
H895 C903 0.930 . S
H896 C906 0.930 . S
H897 C907 0.930 . S
C898 H892 0.930 . S
C898 C899 1.355 . S
C898 C900 1.415 . S
C899 C898 1.355 . S
C899 C901 1.419 . S
C900 C898 1.415 . S
C900 C905 1.425 . S
C900 C907 1.409 . S
C901 H893 0.930 . S
C901 C899 1.419 . S
C901 C902 1.362 . S
C902 H894 0.930 . S
C902 C901 1.362 . S
C902 C905 1.409 . S
C903 H895 0.930 . S
C903 C904 1.355 . S
C903 C905 1.415 . S
C904 C903 1.355 . S
C904 C906 1.419 . S
C905 C900 1.425 . S
C905 C902 1.409 . S
C905 C903 1.415 . S
C906 H896 0.930 . S
C906 C904 1.419 . S
C906 C907 1.362 . S
C907 H897 0.930 . S
C907 C900 1.409 . S
C907 C906 1.362 . S
H908 C914 0.930 . S
H909 C917 0.930 . S
H910 C918 0.930 . S
H911 C919 0.930 . S
H912 C922 0.930 . S
H913 C923 0.930 . S
C914 H908 0.930 . S
C914 C915 1.355 . S
C914 C916 1.415 . S
C915 C914 1.355 . S
C915 C917 1.419 . S
C916 C914 1.415 . S
C916 C921 1.425 1_455 S
C916 C923 1.409 1_455 S
C917 H909 0.930 . S
C917 C915 1.419 . S
C917 C918 1.362 . S
C918 H910 0.930 . S
C918 C917 1.362 . S
C918 C921 1.409 1_455 S
C919 H911 0.930 . S
C919 C920 1.355 . S
C919 C921 1.415 . S
C920 C919 1.355 . S
C920 C922 1.419 . S
C921 C916 1.425 1_655 S
C921 C918 1.409 1_655 S
C921 C919 1.415 . S
C922 H912 0.930 . S
C922 C920 1.419 . S
C922 C923 1.362 . S
C923 H913 0.930 . S
C923 C916 1.409 1_655 S
C923 C922 1.362 . S
H924 C930 0.930 . S
H925 C933 0.930 . S
H926 C934 0.930 . S
H927 C935 0.930 . S
H928 C938 0.930 . S
H929 C939 0.930 . S
C930 H924 0.930 . S
C930 C931 1.355 . S
C930 C932 1.415 . S
C931 C930 1.355 . S
C931 C933 1.419 . S
C932 C930 1.415 . S
C932 C937 1.425 . S
C932 C939 1.409 . S
C933 H925 0.930 . S
C933 C931 1.419 . S
C933 C934 1.362 . S
C934 H926 0.930 . S
C934 C933 1.362 . S
C934 C937 1.409 . S
C935 H927 0.930 . S
C935 C936 1.355 . S
C935 C937 1.415 . S
C936 C935 1.355 . S
C936 C938 1.419 . S
C937 C932 1.425 . S
C937 C934 1.409 . S
C937 C935 1.415 . S
C938 H928 0.930 . S
C938 C936 1.419 . S
C938 C939 1.362 . S
C939 H929 0.930 . S
C939 C932 1.409 . S
C939 C938 1.362 . S
H940 C946 0.930 . S
H941 C949 0.930 . S
H942 C950 0.930 . S
H943 C951 0.930 . S
H944 C954 0.930 . S
H945 C955 0.930 . S
C946 H940 0.930 . S
C946 C947 1.355 . S
C946 C948 1.415 . S
C947 C946 1.355 . S
C947 C949 1.419 . S
C948 C946 1.415 . S
C948 C953 1.425 1_655 S
C948 C955 1.409 . S
C949 H941 0.930 . S
C949 C947 1.419 . S
C949 C950 1.362 1_655 S
C950 H942 0.930 . S
C950 C949 1.362 1_455 S
C950 C953 1.409 . S
C951 H943 0.930 . S
C951 C952 1.355 . S
C951 C953 1.415 . S
C952 C951 1.355 . S
C952 C954 1.419 . S
C953 C948 1.425 1_455 S
C953 C950 1.409 . S
C953 C951 1.415 . S
C954 H944 0.930 . S
C954 C952 1.419 . S
C954 C955 1.362 1_455 S
C955 H945 0.930 . S
C955 C948 1.409 . S
C955 C954 1.362 1_655 S
H956 C962 0.930 . S
H957 C965 0.930 . S
H958 C966 0.930 . S
H959 C967 0.930 . S
H960 C970 0.930 . S
H961 C971 0.930 . S
C962 H956 0.930 . S
C962 C963 1.355 . S
C962 C964 1.415 1_545 S
C963 C962 1.355 . S
C963 C965 1.419 . S
C964 C962 1.415 1_565 S
C964 C969 1.425 1_565 S
C964 C971 1.409 . S
C965 H957 0.930 . S
C965 C963 1.419 . S
C965 C966 1.362 . S
C966 H958 0.930 . S
C966 C965 1.362 . S
C966 C969 1.409 . S
C967 H959 0.930 . S
C967 C968 1.355 . S
C967 C969 1.415 1_565 S
C968 C967 1.355 . S
C968 C970 1.419 . S
C969 C964 1.425 1_545 S
C969 C966 1.409 . S
C969 C967 1.415 1_545 S
C970 H960 0.930 . S
C970 C968 1.419 . S
C970 C971 1.362 . S
C971 H961 0.930 . S
C971 C964 1.409 . S
C971 C970 1.362 . S
H972 C978 0.930 . S
H973 C981 0.930 . S
H974 C982 0.930 . S
H975 C983 0.930 . S
H976 C986 0.930 . S
H977 C987 0.930 . S
C978 H972 0.930 . S
C978 C979 1.355 . S
C978 C980 1.415 . S
C979 C978 1.355 . S
C979 C981 1.419 . S
C980 C978 1.415 . S
C980 C985 1.425 . S
C980 C987 1.409 . S
C981 H973 0.930 . S
C981 C979 1.419 . S
C981 C982 1.362 . S
C982 H974 0.930 . S
C982 C981 1.362 . S
C982 C985 1.409 . S
C983 H975 0.930 . S
C983 C984 1.355 . S
C983 C985 1.415 . S
C984 C983 1.355 . S
C984 C986 1.419 . S
C985 C980 1.425 . S
C985 C982 1.409 . S
C985 C983 1.415 . S
C986 H976 0.930 . S
C986 C984 1.419 . S
C986 C987 1.362 . S
C987 H977 0.930 . S
C987 C980 1.409 . S
C987 C986 1.362 . S
H988 C994 0.930 . S
H989 C997 0.930 . S
H990 C998 0.930 . S
H991 C999 0.930 . S
H992 C1002 0.930 . S
H993 C1003 0.930 . S
C994 H988 0.930 . S
C994 C995 1.355 . S
C994 C996 1.415 1_455 S
C995 C994 1.355 . S
C995 C997 1.419 . S
C996 C994 1.415 1_655 S
C996 C1001 1.425 1_655 S
C996 C1003 1.409 . S
C997 H989 0.930 . S
C997 C995 1.419 . S
C997 C998 1.362 . S
C998 H990 0.930 . S
C998 C997 1.362 . S
C998 C1001 1.409 . S
C999 H991 0.930 . S
C999 C1000 1.355 . S
C999 C1001 1.415 1_655 S
C1000 C999 1.355 . S
C1000 C1002 1.419 . S
C1001 C996 1.425 1_455 S
C1001 C998 1.409 . S
C1001 C999 1.415 1_455 S
C1002 H992 0.930 . S
C1002 C1000 1.419 . S
C1002 C1003 1.362 . S
C1003 H993 0.930 . S
C1003 C996 1.409 . S
C1003 C1002 1.362 . S
H1004 C1010 0.930 . S
H1005 C1013 0.930 . S
H1006 C1014 0.930 . S
H1007 C1015 0.930 . S
H1008 C1018 0.930 . S
H1009 C1019 0.930 . S
C1010 H1004 0.930 . S
C1010 C1011 1.355 . S
C1010 C1012 1.415 1_565 S
C1011 C1010 1.355 . S
C1011 C1013 1.419 . S
C1012 C1010 1.415 1_545 S
C1012 C1017 1.425 1_545 S
C1012 C1019 1.409 . S
C1013 H1005 0.930 . S
C1013 C1011 1.419 . S
C1013 C1014 1.362 . S
C1014 H1006 0.930 . S
C1014 C1013 1.362 . S
C1014 C1017 1.409 . S
C1015 H1007 0.930 . S
C1015 C1016 1.355 . S
C1015 C1017 1.415 1_545 S
C1016 C1015 1.355 . S
C1016 C1018 1.419 . S
C1017 C1012 1.425 1_565 S
C1017 C1014 1.409 . S
C1017 C1015 1.415 1_565 S
C1018 H1008 0.930 . S
C1018 C1016 1.419 . S
C1018 C1019 1.362 . S
C1019 H1009 0.930 . S
C1019 C1012 1.409 . S
C1019 C1018 1.362 . S
C643 C569 1.834 . S
C648 C39 1.823 . S
C659 C92 1.835 . S
C664 C622 1.823 . S
C675 C145 1.876 . S
C680 C357 1.865 . S
C691 C198 1.866 . S
C696 C410 1.876 . S
C707 C463 1.844 . S
C712 C251 1.870 . S
C723 C304 1.865 . S
C728 C516 1.837 . S
C739 C462 1.916 . S
C744 C38 1.904 . S
C755 C91 1.894 . S
C760 C515 1.892 . S
C771 C144 1.916 . S
C776 C568 1.904 . S
C787 C197 1.893 . S
C792 C621 1.892 . S
C803 C356 1.909 . S
C808 C250 1.898 . S
C819 C409 1.939 . S
C824 C303 1.934 . S
C835 C188 1.053 . S
C840 C29 1.060 . S
C851 C82 1.052 . S
C856 C241 1.072 . S
C867 C294 1.056 . S
C872 C135 1.055 . S
C883 C506 1.069 . S
C888 C347 1.079 . S
C899 C559 1.071 . S
C904 C400 1.078 . S
C915 C453 1.080 . S
C920 C612 1.065 . S
C931 C181 1.944 . S
C936 C22 1.945 . S
C947 C75 1.948 . S
C952 C234 1.941 . S
C963 C287 1.950 . S
C968 C128 1.949 . S
C979 C340 1.946 . S
C984 C499 1.943 . S
C995 C552 1.946 . S
C1000 C393 1.952 . S
C1011 C446 1.948 . S
C1016 C605 1.951 . S
