# Generated by pormake.
# Topology uli, (4)-cn, num edge types: 1
# Building blocks:
#     Node 0, Type 0, BuildingBlock: NAHDIM_clean_sbu_0, # of connection points: 4
#     Node 1, Type 0, BuildingBlock: NAHDIM_clean_sbu_0, # of connection points: 4
#     Node 2, Type 0, BuildingBlock: NAHDIM_clean_sbu_0, # of connection points: 4
#     Node 3, Type 0, BuildingBlock: NAHDIM_clean_sbu_0, # of connection points: 4
#     Node 4, Type 0, BuildingBlock: NAHDIM_clean_sbu_0, # of connection points: 4
#     Node 5, Type 0, BuildingBlock: NAHDIM_clean_sbu_0, # of connection points: 4
#     Node 6, Type 0, BuildingBlock: NAHDIM_clean_sbu_0, # of connection points: 4
#     Node 7, Type 0, BuildingBlock: NAHDIM_clean_sbu_0, # of connection points: 4
#     Node 8, Type 0, BuildingBlock: NAHDIM_clean_sbu_0, # of connection points: 4
#     Node 9, Type 0, BuildingBlock: NAHDIM_clean_sbu_0, # of connection points: 4
#     Node 10, Type 0, BuildingBlock: NAHDIM_clean_sbu_0, # of connection points: 4
#     Node 11, Type 0, BuildingBlock: NAHDIM_clean_sbu_0, # of connection points: 4
#     Node 12, Type 0, BuildingBlock: NAHDIM_clean_sbu_0, # of connection points: 4
#     Node 13, Type 0, BuildingBlock: NAHDIM_clean_sbu_0, # of connection points: 4
#     Node 14, Type 0, BuildingBlock: NAHDIM_clean_sbu_0, # of connection points: 4
#     Node 15, Type 0, BuildingBlock: NAHDIM_clean_sbu_0, # of connection points: 4
#     Node 16, Type 0, BuildingBlock: NAHDIM_clean_sbu_0, # of connection points: 4
#     Node 17, Type 0, BuildingBlock: NAHDIM_clean_sbu_0, # of connection points: 4
#     Node 18, Type 0, BuildingBlock: NAHDIM_clean_sbu_0, # of connection points: 4
#     Node 19, Type 0, BuildingBlock: NAHDIM_clean_sbu_0, # of connection points: 4
#     Node 20, Type 0, BuildingBlock: NAHDIM_clean_sbu_0, # of connection points: 4
#     Node 21, Type 0, BuildingBlock: NAHDIM_clean_sbu_0, # of connection points: 4
#     Node 22, Type 0, BuildingBlock: NAHDIM_clean_sbu_0, # of connection points: 4
#     Node 23, Type 0, BuildingBlock: NAHDIM_clean_sbu_0, # of connection points: 4
#     Node 24, Type 0, BuildingBlock: NAHDIM_clean_sbu_0, # of connection points: 4
#     Node 25, Type 0, BuildingBlock: NAHDIM_clean_sbu_0, # of connection points: 4
#     Node 26, Type 0, BuildingBlock: NAHDIM_clean_sbu_0, # of connection points: 4
#     Node 27, Type 0, BuildingBlock: NAHDIM_clean_sbu_0, # of connection points: 4
#     Node 28, Type 0, BuildingBlock: NAHDIM_clean_sbu_0, # of connection points: 4
#     Node 29, Type 0, BuildingBlock: NAHDIM_clean_sbu_0, # of connection points: 4
#     Node 30, Type 0, BuildingBlock: NAHDIM_clean_sbu_0, # of connection points: 4
#     Node 31, Type 0, BuildingBlock: NAHDIM_clean_sbu_0, # of connection points: 4
#     Node 32, Type 0, BuildingBlock: NAHDIM_clean_sbu_0, # of connection points: 4
#     Node 33, Type 0, BuildingBlock: NAHDIM_clean_sbu_0, # of connection points: 4
#     Node 34, Type 0, BuildingBlock: NAHDIM_clean_sbu_0, # of connection points: 4
#     Node 35, Type 0, BuildingBlock: NAHDIM_clean_sbu_0, # of connection points: 4
#     Node 36, Type 0, BuildingBlock: NAHDIM_clean_sbu_0, # of connection points: 4
#     Node 37, Type 0, BuildingBlock: NAHDIM_clean_sbu_0, # of connection points: 4
#     Node 38, Type 0, BuildingBlock: NAHDIM_clean_sbu_0, # of connection points: 4
#     Node 39, Type 0, BuildingBlock: NAHDIM_clean_sbu_0, # of connection points: 4
#     Node 40, Type 0, BuildingBlock: NAHDIM_clean_sbu_0, # of connection points: 4
#     Node 41, Type 0, BuildingBlock: NAHDIM_clean_sbu_0, # of connection points: 4
#     Node 42, Type 0, BuildingBlock: NAHDIM_clean_sbu_0, # of connection points: 4
#     Node 43, Type 0, BuildingBlock: NAHDIM_clean_sbu_0, # of connection points: 4
#     Node 44, Type 0, BuildingBlock: NAHDIM_clean_sbu_0, # of connection points: 4
#     Node 45, Type 0, BuildingBlock: NAHDIM_clean_sbu_0, # of connection points: 4
#     Node 46, Type 0, BuildingBlock: NAHDIM_clean_sbu_0, # of connection points: 4
#     Node 47, Type 0, BuildingBlock: NAHDIM_clean_sbu_0, # of connection points: 4
#     Edge 48, Type (0, 0), BuildingBlock: UVAHIK_clean_linker_0, # of connection points: 2
#     Edge 49, Type (0, 0), BuildingBlock: UVAHIK_clean_linker_0, # of connection points: 2
#     Edge 50, Type (0, 0), BuildingBlock: UVAHIK_clean_linker_0, # of connection points: 2
#     Edge 51, Type (0, 0), BuildingBlock: UVAHIK_clean_linker_0, # of connection points: 2
#     Edge 52, Type (0, 0), BuildingBlock: UVAHIK_clean_linker_0, # of connection points: 2
#     Edge 53, Type (0, 0), BuildingBlock: UVAHIK_clean_linker_0, # of connection points: 2
#     Edge 54, Type (0, 0), BuildingBlock: UVAHIK_clean_linker_0, # of connection points: 2
#     Edge 55, Type (0, 0), BuildingBlock: UVAHIK_clean_linker_0, # of connection points: 2
#     Edge 56, Type (0, 0), BuildingBlock: UVAHIK_clean_linker_0, # of connection points: 2
#     Edge 57, Type (0, 0), BuildingBlock: UVAHIK_clean_linker_0, # of connection points: 2
#     Edge 58, Type (0, 0), BuildingBlock: UVAHIK_clean_linker_0, # of connection points: 2
#     Edge 59, Type (0, 0), BuildingBlock: UVAHIK_clean_linker_0, # of connection points: 2
#     Edge 60, Type (0, 0), BuildingBlock: UVAHIK_clean_linker_0, # of connection points: 2
#     Edge 61, Type (0, 0), BuildingBlock: UVAHIK_clean_linker_0, # of connection points: 2
#     Edge 62, Type (0, 0), BuildingBlock: UVAHIK_clean_linker_0, # of connection points: 2
#     Edge 63, Type (0, 0), BuildingBlock: UVAHIK_clean_linker_0, # of connection points: 2
#     Edge 64, Type (0, 0), BuildingBlock: UVAHIK_clean_linker_0, # of connection points: 2
#     Edge 65, Type (0, 0), BuildingBlock: UVAHIK_clean_linker_0, # of connection points: 2
#     Edge 66, Type (0, 0), BuildingBlock: UVAHIK_clean_linker_0, # of connection points: 2
#     Edge 67, Type (0, 0), BuildingBlock: UVAHIK_clean_linker_0, # of connection points: 2
#     Edge 68, Type (0, 0), BuildingBlock: UVAHIK_clean_linker_0, # of connection points: 2
#     Edge 69, Type (0, 0), BuildingBlock: UVAHIK_clean_linker_0, # of connection points: 2
#     Edge 70, Type (0, 0), BuildingBlock: UVAHIK_clean_linker_0, # of connection points: 2
#     Edge 71, Type (0, 0), BuildingBlock: UVAHIK_clean_linker_0, # of connection points: 2
#     Edge 72, Type (0, 0), BuildingBlock: UVAHIK_clean_linker_0, # of connection points: 2
#     Edge 73, Type (0, 0), BuildingBlock: UVAHIK_clean_linker_0, # of connection points: 2
#     Edge 74, Type (0, 0), BuildingBlock: UVAHIK_clean_linker_0, # of connection points: 2
#     Edge 75, Type (0, 0), BuildingBlock: UVAHIK_clean_linker_0, # of connection points: 2
#     Edge 76, Type (0, 0), BuildingBlock: UVAHIK_clean_linker_0, # of connection points: 2
#     Edge 77, Type (0, 0), BuildingBlock: UVAHIK_clean_linker_0, # of connection points: 2
#     Edge 78, Type (0, 0), BuildingBlock: UVAHIK_clean_linker_0, # of connection points: 2
#     Edge 79, Type (0, 0), BuildingBlock: UVAHIK_clean_linker_0, # of connection points: 2
#     Edge 80, Type (0, 0), BuildingBlock: UVAHIK_clean_linker_0, # of connection points: 2
#     Edge 81, Type (0, 0), BuildingBlock: UVAHIK_clean_linker_0, # of connection points: 2
#     Edge 82, Type (0, 0), BuildingBlock: UVAHIK_clean_linker_0, # of connection points: 2
#     Edge 83, Type (0, 0), BuildingBlock: UVAHIK_clean_linker_0, # of connection points: 2
#     Edge 84, Type (0, 0), BuildingBlock: UVAHIK_clean_linker_0, # of connection points: 2
#     Edge 85, Type (0, 0), BuildingBlock: UVAHIK_clean_linker_0, # of connection points: 2
#     Edge 86, Type (0, 0), BuildingBlock: UVAHIK_clean_linker_0, # of connection points: 2
#     Edge 87, Type (0, 0), BuildingBlock: UVAHIK_clean_linker_0, # of connection points: 2
#     Edge 88, Type (0, 0), BuildingBlock: UVAHIK_clean_linker_0, # of connection points: 2
#     Edge 89, Type (0, 0), BuildingBlock: UVAHIK_clean_linker_0, # of connection points: 2
#     Edge 90, Type (0, 0), BuildingBlock: UVAHIK_clean_linker_0, # of connection points: 2
#     Edge 91, Type (0, 0), BuildingBlock: UVAHIK_clean_linker_0, # of connection points: 2
#     Edge 92, Type (0, 0), BuildingBlock: UVAHIK_clean_linker_0, # of connection points: 2
#     Edge 93, Type (0, 0), BuildingBlock: UVAHIK_clean_linker_0, # of connection points: 2
#     Edge 94, Type (0, 0), BuildingBlock: UVAHIK_clean_linker_0, # of connection points: 2
#     Edge 95, Type (0, 0), BuildingBlock: UVAHIK_clean_linker_0, # of connection points: 2
#     Edge 96, Type (0, 0), BuildingBlock: UVAHIK_clean_linker_0, # of connection points: 2
#     Edge 97, Type (0, 0), BuildingBlock: UVAHIK_clean_linker_0, # of connection points: 2
#     Edge 98, Type (0, 0), BuildingBlock: UVAHIK_clean_linker_0, # of connection points: 2
#     Edge 99, Type (0, 0), BuildingBlock: UVAHIK_clean_linker_0, # of connection points: 2
#     Edge 100, Type (0, 0), BuildingBlock: UVAHIK_clean_linker_0, # of connection points: 2
#     Edge 101, Type (0, 0), BuildingBlock: UVAHIK_clean_linker_0, # of connection points: 2
#     Edge 102, Type (0, 0), BuildingBlock: UVAHIK_clean_linker_0, # of connection points: 2
#     Edge 103, Type (0, 0), BuildingBlock: UVAHIK_clean_linker_0, # of connection points: 2
#     Edge 104, Type (0, 0), BuildingBlock: UVAHIK_clean_linker_0, # of connection points: 2
#     Edge 105, Type (0, 0), BuildingBlock: UVAHIK_clean_linker_0, # of connection points: 2
#     Edge 106, Type (0, 0), BuildingBlock: UVAHIK_clean_linker_0, # of connection points: 2
#     Edge 107, Type (0, 0), BuildingBlock: UVAHIK_clean_linker_0, # of connection points: 2
#     Edge 108, Type (0, 0), BuildingBlock: UVAHIK_clean_linker_0, # of connection points: 2
#     Edge 109, Type (0, 0), BuildingBlock: UVAHIK_clean_linker_0, # of connection points: 2
#     Edge 110, Type (0, 0), BuildingBlock: UVAHIK_clean_linker_0, # of connection points: 2
#     Edge 111, Type (0, 0), BuildingBlock: UVAHIK_clean_linker_0, # of connection points: 2
#     Edge 112, Type (0, 0), BuildingBlock: UVAHIK_clean_linker_0, # of connection points: 2
#     Edge 113, Type (0, 0), BuildingBlock: UVAHIK_clean_linker_0, # of connection points: 2
#     Edge 114, Type (0, 0), BuildingBlock: UVAHIK_clean_linker_0, # of connection points: 2
#     Edge 115, Type (0, 0), BuildingBlock: UVAHIK_clean_linker_0, # of connection points: 2
#     Edge 116, Type (0, 0), BuildingBlock: UVAHIK_clean_linker_0, # of connection points: 2
#     Edge 117, Type (0, 0), BuildingBlock: UVAHIK_clean_linker_0, # of connection points: 2
#     Edge 118, Type (0, 0), BuildingBlock: UVAHIK_clean_linker_0, # of connection points: 2
#     Edge 119, Type (0, 0), BuildingBlock: UVAHIK_clean_linker_0, # of connection points: 2
#     Edge 120, Type (0, 0), BuildingBlock: UVAHIK_clean_linker_0, # of connection points: 2
#     Edge 121, Type (0, 0), BuildingBlock: UVAHIK_clean_linker_0, # of connection points: 2
#     Edge 122, Type (0, 0), BuildingBlock: UVAHIK_clean_linker_0, # of connection points: 2
#     Edge 123, Type (0, 0), BuildingBlock: UVAHIK_clean_linker_0, # of connection points: 2
#     Edge 124, Type (0, 0), BuildingBlock: UVAHIK_clean_linker_0, # of connection points: 2
#     Edge 125, Type (0, 0), BuildingBlock: UVAHIK_clean_linker_0, # of connection points: 2
#     Edge 126, Type (0, 0), BuildingBlock: UVAHIK_clean_linker_0, # of connection points: 2
#     Edge 127, Type (0, 0), BuildingBlock: UVAHIK_clean_linker_0, # of connection points: 2
#     Edge 128, Type (0, 0), BuildingBlock: UVAHIK_clean_linker_0, # of connection points: 2
#     Edge 129, Type (0, 0), BuildingBlock: UVAHIK_clean_linker_0, # of connection points: 2
#     Edge 130, Type (0, 0), BuildingBlock: UVAHIK_clean_linker_0, # of connection points: 2
#     Edge 131, Type (0, 0), BuildingBlock: UVAHIK_clean_linker_0, # of connection points: 2
#     Edge 132, Type (0, 0), BuildingBlock: UVAHIK_clean_linker_0, # of connection points: 2
#     Edge 133, Type (0, 0), BuildingBlock: UVAHIK_clean_linker_0, # of connection points: 2
#     Edge 134, Type (0, 0), BuildingBlock: UVAHIK_clean_linker_0, # of connection points: 2
#     Edge 135, Type (0, 0), BuildingBlock: UVAHIK_clean_linker_0, # of connection points: 2
#     Edge 136, Type (0, 0), BuildingBlock: UVAHIK_clean_linker_0, # of connection points: 2
#     Edge 137, Type (0, 0), BuildingBlock: UVAHIK_clean_linker_0, # of connection points: 2
#     Edge 138, Type (0, 0), BuildingBlock: UVAHIK_clean_linker_0, # of connection points: 2
#     Edge 139, Type (0, 0), BuildingBlock: UVAHIK_clean_linker_0, # of connection points: 2
#     Edge 140, Type (0, 0), BuildingBlock: UVAHIK_clean_linker_0, # of connection points: 2
#     Edge 141, Type (0, 0), BuildingBlock: UVAHIK_clean_linker_0, # of connection points: 2
#     Edge 142, Type (0, 0), BuildingBlock: UVAHIK_clean_linker_0, # of connection points: 2
#     Edge 143, Type (0, 0), BuildingBlock: UVAHIK_clean_linker_0, # of connection points: 2
# Relax obj value: 0.429
# Max RMSD: 0.220
# Mean RMSD: 0.220
data_MOF--net-uli--node1-NAHDIM_clean_sbu_0--edge1-UVAHIK_clean_linker_0
_symmetry_space_group_name_H-M    P1
_symmetry_Int_Tables_number       1
_symmetry_cell_setting            triclinic
loop_
_symmetry_equiv_pos_as_xyz
'x, y, z'
_cell_length_a     86.192162
_cell_length_b     86.171622
_cell_length_c     86.16903
_cell_angle_alpha  89.994036
_cell_angle_beta   90.013338
_cell_angle_gamma 90.006075
loop_
_atom_site_label
_atom_site_type_symbol
_atom_site_fract_x
_atom_site_fract_y
_atom_site_fract_z
_atom_type_partial_charge
C0 C 0.05756 0.26739 0.18006 0.0
O1 O 0.05893 0.28223 0.18324 0.0
O2 O 0.09297 0.28798 0.18967 0.0
Zn3 Zn 0.09147 0.26657 0.18051 0.0
O4 O 0.09988 0.25093 0.1957 0.0
C5 C 0.11816 0.27139 0.16246 0.0
O6 O 0.12147 0.27967 0.17483 0.0
O7 O 0.06964 0.25954 0.177 0.0
C8 C 0.10947 0.25332 0.20664 0.0
O9 O 0.11508 0.26732 0.20884 0.0
C10 C 0.08869 0.29104 0.20344 0.0
O11 O 0.0817 0.28022 0.2116 0.0
O12 O 0.10493 0.26492 0.16156 0.0
C13 C 0.72235 0.07283 0.20593 0.0
O14 O 0.72111 0.08427 0.21595 0.0
O15 O 0.70457 0.10951 0.19869 0.0
Zn16 Zn 0.72275 0.09903 0.18852 0.0
O17 O 0.74174 0.10547 0.20037 0.0
C18 C 0.71601 0.11516 0.15985 0.0
O19 O 0.70248 0.11755 0.16643 0.0
O20 O 0.72197 0.07599 0.19152 0.0
C21 C 0.75512 0.10119 0.19592 0.0
O22 O 0.75647 0.09317 0.18302 0.0
C23 C 0.70644 0.12375 0.20201 0.0
O24 O 0.71947 0.13059 0.19803 0.0
O25 O 0.72579 0.10637 0.16654 0.0
C26 C 0.92282 0.73923 0.20822 0.0
O27 O 0.91119 0.74318 0.21722 0.0
O28 O 0.89231 0.70477 0.20147 0.0
Zn29 Zn 0.8977 0.7255 0.1922 0.0
O30 O 0.88484 0.7423 0.20217 0.0
C31 C 0.88129 0.71705 0.16463 0.0
O32 O 0.87698 0.70539 0.17346 0.0
O33 O 0.92027 0.73087 0.1963 0.0
C34 C 0.88585 0.75566 0.19596 0.0
O35 O 0.89387 0.7572 0.18309 0.0
C36 C 0.89357 0.7018 0.21585 0.0
O37 O 0.89902 0.71251 0.22523 0.0
O38 O 0.89168 0.72626 0.16961 0.0
C39 C 0.27205 0.94118 0.20154 0.0
O40 O 0.28301 0.93406 0.20938 0.0
O41 O 0.27975 0.9018 0.20835 0.0
Zn42 Zn 0.26316 0.90999 0.194 0.0
O43 O 0.24253 0.90481 0.20351 0.0
C44 C 0.27591 0.8902 0.17033 0.0
O45 O 0.28814 0.89067 0.17941 0.0
O46 O 0.26337 0.93328 0.19262 0.0
C47 C 0.23688 0.89121 0.20307 0.0
O48 O 0.24464 0.88014 0.19602 0.0
C49 C 0.27731 0.90011 0.22279 0.0
O50 O 0.26396 0.90451 0.22866 0.0
O51 O 0.26431 0.89875 0.17352 0.0
C52 C 0.05605 0.72198 0.79976 0.0
O53 O 0.06191 0.70964 0.79301 0.0
O54 O 0.09525 0.70927 0.79514 0.0
Zn55 Zn 0.08812 0.72909 0.80526 0.0
O56 O 0.09367 0.74663 0.79099 0.0
C57 C 0.10956 0.7228 0.83025 0.0
O58 O 0.1096 0.70881 0.82421 0.0
O59 O 0.06498 0.73072 0.80758 0.0
C60 C 0.09026 0.76034 0.79519 0.0
O61 O 0.08359 0.76249 0.80874 0.0
C62 C 0.09535 0.70784 0.78046 0.0
O63 O 0.08958 0.71904 0.77187 0.0
O64 O 0.10023 0.73289 0.82489 0.0
C65 C 0.27156 0.0612 0.79802 0.0
O66 O 0.28505 0.06549 0.79239 0.0
O67 O 0.28586 0.09989 0.79104 0.0
Zn68 Zn 0.26561 0.09436 0.80143 0.0
O69 O 0.2473 0.10101 0.78846 0.0
C70 C 0.27372 0.11591 0.82581 0.0
O71 O 0.28625 0.11778 0.81735 0.0
O72 O 0.26263 0.07136 0.80385 0.0
C73 C 0.24705 0.10933 0.77628 0.0
O74 O 0.26 0.11522 0.77085 0.0
C75 C 0.28999 0.09697 0.77718 0.0
O76 O 0.2807 0.08903 0.76806 0.0
O77 O 0.26373 0.10584 0.82173 0.0
C78 C 0.94222 0.28269 0.80186 0.0
O79 O 0.93738 0.29607 0.79641 0.0
O80 O 0.90364 0.29667 0.79651 0.0
Zn81 Zn 0.90948 0.27665 0.80701 0.0
O82 O 0.90171 0.25895 0.79398 0.0
C83 C 0.88466 0.27977 0.82775 0.0
O84 O 0.87931 0.28698 0.81543 0.0
O85 O 0.93254 0.2736 0.80825 0.0
C86 C 0.90644 0.24542 0.79746 0.0
O87 O 0.91594 0.24373 0.80927 0.0
C88 C 0.90445 0.29804 0.78185 0.0
O89 O 0.91013 0.28652 0.77363 0.0
O90 O 0.8985 0.27467 0.82753 0.0
C91 C 0.71925 0.93638 0.79612 0.0
O92 O 0.70788 0.93057 0.78781 0.0
O93 O 0.70478 0.89734 0.79327 0.0
Zn94 Zn 0.72467 0.9043 0.80344 0.0
O95 O 0.74246 0.898 0.78976 0.0
C96 C 0.71765 0.8839 0.82916 0.0
O97 O 0.70381 0.88356 0.82278 0.0
O98 O 0.72663 0.9275 0.80529 0.0
C99 C 0.75584 0.90329 0.79303 0.0
O100 O 0.75744 0.91236 0.80519 0.0
C101 C 0.70354 0.89685 0.77858 0.0
O102 O 0.71512 0.90176 0.76997 0.0
O103 O 0.7279 0.89291 0.82356 0.0
C104 C 0.20108 0.06605 0.28272 0.0
O105 O 0.20796 0.07014 0.29568 0.0
O106 O 0.20672 0.10322 0.29989 0.0
Zn107 Zn 0.19672 0.09907 0.27914 0.0
O108 O 0.21108 0.10625 0.26215 0.0
C109 C 0.17624 0.12434 0.28455 0.0
O110 O 0.18702 0.12745 0.29486 0.0
O111 O 0.19376 0.07625 0.275 0.0
C112 C 0.20792 0.10157 0.24852 0.0
O113 O 0.19566 0.09276 0.24641 0.0
C114 C 0.2213 0.10221 0.3018 0.0
O115 O 0.23001 0.09747 0.29021 0.0
O116 O 0.17723 0.11184 0.27675 0.0
C117 C 0.94052 0.19298 0.26938 0.0
O118 O 0.93692 0.20153 0.28147 0.0
O119 O 0.90387 0.19382 0.29074 0.0
Zn120 Zn 0.90786 0.18558 0.26923 0.0
O121 O 0.89908 0.20042 0.25347 0.0
C122 C 0.88587 0.16113 0.27506 0.0
O123 O 0.88351 0.16907 0.28786 0.0
O124 O 0.93038 0.18394 0.2637 0.0
C125 C 0.90272 0.19782 0.23941 0.0
O126 O 0.9115 0.18578 0.23619 0.0
C127 C 0.90272 0.20831 0.29327 0.0
O128 O 0.90545 0.21807 0.28188 0.0
O129 O 0.89651 0.16546 0.26582 0.0
C130 C 0.78012 0.92623 0.2588 0.0
O131 O 0.77063 0.9147 0.25587 0.0
O132 O 0.78821 0.89674 0.29396 0.0
Zn133 Zn 0.79628 0.9013 0.27258 0.0
O134 O 0.78532 0.88801 0.25672 0.0
C135 C 0.82243 0.88251 0.27813 0.0
O136 O 0.81265 0.87674 0.2883 0.0
O137 O 0.79242 0.92371 0.26659 0.0
C138 C 0.7914 0.88808 0.24327 0.0
O139 O 0.80447 0.89563 0.24115 0.0
C140 C 0.77398 0.89779 0.29764 0.0
O141 O 0.76394 0.90268 0.28726 0.0
O142 O 0.81866 0.8948 0.27088 0.0
C143 C 0.06681 0.78297 0.27804 0.0
O144 O 0.07769 0.77239 0.27936 0.0
O145 O 0.10258 0.79055 0.30071 0.0
Zn146 Zn 0.09363 0.80017 0.28124 0.0
O147 O 0.10204 0.78923 0.26245 0.0
C148 C 0.11238 0.82721 0.28571 0.0
O149 O 0.11857 0.81843 0.29652 0.0
O150 O 0.0705 0.79715 0.2798 0.0
C151 C 0.09631 0.79308 0.24941 0.0
O152 O 0.08576 0.80409 0.24893 0.0
C153 C 0.1085 0.77704 0.30022 0.0
O154 O 0.10858 0.76937 0.28706 0.0
O155 O 0.10041 0.82236 0.27858 0.0
C156 C 0.18644 0.94278 0.72097 0.0
O157 O 0.19052 0.93867 0.70688 0.0
O158 O 0.19171 0.90453 0.70552 0.0
Zn159 Zn 0.1814 0.90975 0.72586 0.0
O160 O 0.19457 0.90117 0.74313 0.0
C161 C 0.15682 0.88853 0.71832 0.0
O162 O 0.16569 0.88586 0.70622 0.0
O163 O 0.18071 0.93267 0.73004 0.0
C164 C 0.20336 0.8894 0.74192 0.0
O165 O 0.20408 0.88187 0.72868 0.0
C166 C 0.20604 0.90706 0.70313 0.0
O167 O 0.21418 0.91433 0.71378 0.0
O168 O 0.16065 0.89918 0.72779 0.0
C169 C 0.06869 0.21062 0.72286 0.0
O170 O 0.07936 0.22013 0.71755 0.0
O171 O 0.10481 0.20105 0.70481 0.0
Zn172 Zn 0.09532 0.19282 0.72454 0.0
O173 O 0.10396 0.20485 0.74252 0.0
C174 C 0.10521 0.16161 0.71659 0.0
O175 O 0.10224 0.16603 0.7023 0.0
O176 O 0.07242 0.1966 0.72551 0.0
C177 C 0.09797 0.20222 0.75574 0.0
O178 O 0.08699 0.1917 0.7569 0.0
C179 C 0.11905 0.19814 0.70237 0.0
O180 O 0.12688 0.1901 0.7127 0.0
O181 O 0.10163 0.17056 0.72775 0.0
C182 C 0.8016 0.06165 0.72699 0.0
O183 O 0.7974 0.06602 0.71301 0.0
O184 O 0.794 0.09964 0.71255 0.0
Zn185 Zn 0.80379 0.09474 0.73326 0.0
O186 O 0.79027 0.10169 0.75103 0.0
C187 C 0.82328 0.12054 0.73062 0.0
O188 O 0.81048 0.12561 0.72408 0.0
O189 O 0.80624 0.0718 0.73662 0.0
C190 C 0.77863 0.11073 0.75095 0.0
O191 O 0.7741 0.11715 0.73789 0.0
C192 C 0.78002 0.09664 0.70893 0.0
O193 O 0.77108 0.08937 0.71891 0.0
O194 O 0.82379 0.10657 0.73535 0.0
C195 C 0.93519 0.79695 0.71573 0.0
O196 O 0.92946 0.7887 0.70427 0.0
O197 O 0.89762 0.79658 0.6982 0.0
Zn198 Zn 0.9034 0.80586 0.71893 0.0
O199 O 0.89545 0.79224 0.7361 0.0
C200 C 0.87869 0.82675 0.71708 0.0
O201 O 0.87299 0.81446 0.71008 0.0
O202 O 0.92645 0.80666 0.72257 0.0
C203 C 0.89765 0.79723 0.74981 0.0
O204 O 0.90435 0.8108 0.75173 0.0
C205 C 0.8955 0.78205 0.69682 0.0
O206 O 0.89801 0.77301 0.70884 0.0
O207 O 0.89271 0.82645 0.72165 0.0
C208 C 0.28309 0.1922 0.05948 0.0
O209 O 0.29629 0.19937 0.06204 0.0
O210 O 0.30172 0.20018 0.0965 0.0
Zn211 Zn 0.28114 0.18967 0.09313 0.0
O212 O 0.26398 0.2039 0.10006 0.0
C213 C 0.28365 0.17261 0.12063 0.0
O214 O 0.29001 0.18588 0.12462 0.0
O215 O 0.27621 0.18559 0.07071 0.0
C216 C 0.25043 0.19944 0.09632 0.0
O217 O 0.24882 0.18621 0.08892 0.0
C218 C 0.30323 0.21467 0.09424 0.0
O219 O 0.29143 0.22259 0.0887 0.0
O220 O 0.27933 0.17074 0.10664 0.0
C221 C 0.27236 0.80505 0.9343 0.0
O222 O 0.28592 0.79838 0.9323 0.0
O223 O 0.29353 0.79747 0.89926 0.0
Zn224 Zn 0.27194 0.80623 0.90081 0.0
O225 O 0.25632 0.79037 0.89379 0.0
C226 C 0.27843 0.82589 0.87488 0.0
O227 O 0.28986 0.81595 0.87323 0.0
O228 O 0.26542 0.8108 0.92265 0.0
C229 C 0.25329 0.78735 0.87969 0.0
O230 O 0.2614 0.79411 0.8687 0.0
C231 C 0.2962 0.783 0.90025 0.0
O232 O 0.2847 0.77352 0.90343 0.0
O233 O 0.26956 0.82469 0.88662 0.0
C234 C 0.19675 0.27195 0.94334 0.0
O235 O 0.20313 0.2855 0.94053 0.0
O236 O 0.19986 0.29293 0.90708 0.0
Zn237 Zn 0.19135 0.2714 0.91021 0.0
O238 O 0.20616 0.25576 0.90133 0.0
C239 C 0.17272 0.27351 0.88402 0.0
O240 O 0.1856 0.28037 0.87958 0.0
O241 O 0.18947 0.26506 0.93254 0.0
C242 C 0.20181 0.24174 0.90279 0.0
O243 O 0.18837 0.23887 0.90939 0.0
C244 C 0.2144 0.2953 0.90674 0.0
O245 O 0.22386 0.28373 0.90978 0.0
O246 O 0.17164 0.26886 0.89798 0.0
C247 C 0.72501 0.21332 0.93009 0.0
O248 O 0.72003 0.22317 0.91956 0.0
O249 O 0.70799 0.20554 0.89342 0.0
Zn250 Zn 0.72733 0.19648 0.90294 0.0
O251 O 0.74568 0.2085 0.89515 0.0
C252 C 0.71866 0.16591 0.89188 0.0
O253 O 0.70449 0.17068 0.89487 0.0
O254 O 0.72784 0.19944 0.92599 0.0
C255 C 0.75879 0.2054 0.90115 0.0
O256 O 0.75972 0.19431 0.91157 0.0
C257 C 0.7055 0.20319 0.87907 0.0
O258 O 0.71557 0.19509 0.87099 0.0
O259 O 0.73006 0.17439 0.89584 0.0
C260 C 0.80345 0.72027 0.93565 0.0
O261 O 0.79708 0.70763 0.93003 0.0
O262 O 0.79911 0.70675 0.89698 0.0
Zn263 Zn 0.80865 0.7271 0.90343 0.0
O264 O 0.79409 0.74431 0.89764 0.0
C265 C 0.83315 0.72151 0.88137 0.0
O266 O 0.82596 0.70817 0.87979 0.0
O267 O 0.81084 0.72919 0.92654 0.0
C268 C 0.78997 0.74716 0.88379 0.0
O269 O 0.79517 0.73833 0.87249 0.0
C270 C 0.78451 0.7047 0.89681 0.0
O271 O 0.77538 0.71587 0.90172 0.0
O272 O 0.82846 0.73103 0.89162 0.0
C273 C 0.71793 0.79562 0.05469 0.0
O274 O 0.70635 0.78766 0.06056 0.0
O275 O 0.70419 0.7921 0.09373 0.0
Zn276 Zn 0.72387 0.80252 0.08667 0.0
O277 O 0.74193 0.78899 0.09249 0.0
C278 C 0.71741 0.82704 0.10848 0.0
O279 O 0.70414 0.81968 0.10986 0.0
O280 O 0.72563 0.80456 0.06353 0.0
C281 C 0.74715 0.78845 0.10625 0.0
O282 O 0.74013 0.79643 0.11719 0.0
C283 C 0.703 0.77743 0.09447 0.0
O284 O 0.71455 0.76877 0.08957 0.0
O285 O 0.72704 0.82259 0.09823 0.0
C286 C 0.19149 0.73236 0.05815 0.0
O287 O 0.19509 0.71768 0.06009 0.0
O288 O 0.20052 0.71352 0.09519 0.0
Zn289 Zn 0.19132 0.73478 0.09218 0.0
O290 O 0.20558 0.75139 0.10029 0.0
C291 C 0.17252 0.73072 0.11825 0.0
O292 O 0.18528 0.72352 0.12247 0.0
O293 O 0.18826 0.74062 0.06991 0.0
C294 C 0.21774 0.75024 0.10853 0.0
O295 O 0.22247 0.73653 0.11319 0.0
C296 C 0.2139 0.70915 0.09083 0.0
O297 O 0.22264 0.71871 0.08278 0.0
O298 O 0.17175 0.73647 0.10469 0.0
C299 C 0.7968 0.28318 0.06207 0.0
O300 O 0.79018 0.29582 0.06741 0.0
O301 O 0.7913 0.29673 0.10047 0.0
Zn302 Zn 0.80137 0.27647 0.09457 0.0
O303 O 0.78776 0.25853 0.10068 0.0
C304 C 0.8205 0.27721 0.12075 0.0
O305 O 0.80757 0.28322 0.12613 0.0
O306 O 0.80379 0.27423 0.07149 0.0
C307 C 0.79303 0.24526 0.097 0.0
O308 O 0.8066 0.24441 0.09009 0.0
C309 C 0.77664 0.29809 0.1011 0.0
O310 O 0.7679 0.28618 0.09734 0.0
O311 O 0.82129 0.27374 0.10643 0.0
C312 C 0.55759 0.77664 0.69164 0.0
O313 O 0.56328 0.78942 0.69768 0.0
O314 O 0.59624 0.79031 0.69541 0.0
Zn315 Zn 0.58963 0.77028 0.68533 0.0
O316 O 0.59611 0.75274 0.69919 0.0
C317 C 0.60972 0.77813 0.65984 0.0
O318 O 0.60915 0.79192 0.66631 0.0
O319 O 0.5665 0.76791 0.68378 0.0
C320 C 0.61013 0.75014 0.70288 0.0
O321 O 0.62106 0.75938 0.69761 0.0
C322 C 0.59675 0.79206 0.71004 0.0
O323 O 0.59193 0.78076 0.71907 0.0
O324 O 0.60119 0.76735 0.66521 0.0
C325 C 0.23215 0.56972 0.71311 0.0
O326 O 0.22981 0.58222 0.72154 0.0
O327 O 0.21082 0.60302 0.70221 0.0
Zn328 Zn 0.23008 0.59351 0.69293 0.0
O329 O 0.24873 0.60243 0.70389 0.0
C330 C 0.22252 0.60768 0.6636 0.0
O331 O 0.20919 0.61036 0.67049 0.0
O332 O 0.2314 0.57087 0.69841 0.0
C333 C 0.25863 0.61168 0.6981 0.0
O334 O 0.25667 0.6169 0.68391 0.0
C335 C 0.2113 0.61719 0.70625 0.0
O336 O 0.22409 0.62514 0.70386 0.0
O337 O 0.23236 0.59894 0.67028 0.0
C338 C 0.44069 0.21809 0.6998 0.0
O339 O 0.43458 0.20638 0.70739 0.0
O340 O 0.40188 0.20255 0.69888 0.0
Zn341 Zn 0.40924 0.22267 0.68943 0.0
O342 O 0.40121 0.24026 0.70247 0.0
C343 C 0.38878 0.2176 0.66358 0.0
O344 O 0.38438 0.20577 0.67212 0.0
O345 O 0.43239 0.2254 0.69004 0.0
C346 C 0.38722 0.24486 0.70194 0.0
O347 O 0.37732 0.2376 0.6929 0.0
C348 C 0.40017 0.20146 0.71348 0.0
O349 O 0.40419 0.21321 0.72232 0.0
O350 O 0.40016 0.22583 0.6681 0.0
C351 C 0.77472 0.43858 0.70168 0.0
O352 O 0.78664 0.43287 0.70926 0.0
O353 O 0.79091 0.40004 0.702 0.0
Zn354 Zn 0.76977 0.40659 0.69442 0.0
O355 O 0.75376 0.40025 0.71009 0.0
C356 C 0.77445 0.38814 0.66662 0.0
O357 O 0.78923 0.38965 0.67003 0.0
O358 O 0.76705 0.42969 0.69277 0.0
C359 C 0.75011 0.38621 0.71265 0.0
O360 O 0.75743 0.37513 0.70517 0.0
C361 C 0.79377 0.39891 0.71643 0.0
O362 O 0.78299 0.40281 0.72647 0.0
O363 O 0.76441 0.39518 0.67481 0.0
C364 C 0.55608 0.22357 0.30155 0.0
O365 O 0.56569 0.21651 0.29205 0.0
O366 O 0.59503 0.21148 0.30488 0.0
Zn367 Zn 0.58455 0.22964 0.31518 0.0
O368 O 0.58969 0.24798 0.30181 0.0
C369 C 0.60143 0.22294 0.34323 0.0
O370 O 0.60051 0.20862 0.33809 0.0
O371 O 0.56133 0.22868 0.31435 0.0
C372 C 0.58666 0.26179 0.30594 0.0
O373 O 0.58033 0.26429 0.31959 0.0
C374 C 0.60928 0.21384 0.30193 0.0
O375 O 0.61569 0.22684 0.30666 0.0
O376 O 0.59404 0.23356 0.33614 0.0
C377 C 0.77576 0.55657 0.30681 0.0
O378 O 0.78881 0.56017 0.29982 0.0
O379 O 0.79228 0.59459 0.29986 0.0
Zn380 Zn 0.77174 0.58991 0.30992 0.0
O381 O 0.75456 0.59614 0.29549 0.0
C382 C 0.77565 0.61562 0.33042 0.0
O383 O 0.78526 0.6199 0.3194 0.0
O384 O 0.76794 0.56721 0.31334 0.0
C385 C 0.75305 0.60937 0.28918 0.0
O386 O 0.76354 0.62013 0.29174 0.0
C387 C 0.79422 0.59278 0.28535 0.0
O388 O 0.78295 0.58674 0.27704 0.0
O389 O 0.76895 0.60251 0.32938 0.0
C390 C 0.42801 0.77129 0.28256 0.0
O391 O 0.41749 0.7762 0.27266 0.0
O392 O 0.39047 0.78781 0.29257 0.0
Zn393 Zn 0.40087 0.76802 0.2993 0.0
O394 O 0.39373 0.75087 0.28524 0.0
C395 C 0.38959 0.77169 0.33111 0.0
O396 O 0.39073 0.78665 0.32841 0.0
O397 O 0.42386 0.76839 0.2964 0.0
C398 C 0.39795 0.73717 0.28872 0.0
O399 O 0.4061 0.73492 0.30141 0.0
C400 C 0.37595 0.78878 0.29497 0.0
O401 O 0.36875 0.77712 0.30166 0.0
O402 O 0.39428 0.76214 0.3209 0.0
C403 C 0.22549 0.42398 0.28377 0.0
O404 O 0.22402 0.41303 0.27326 0.0
O405 O 0.20162 0.39042 0.28875 0.0
Zn406 Zn 0.22086 0.3974 0.29998 0.0
O407 O 0.23942 0.3886 0.2889 0.0
C408 C 0.20965 0.38179 0.32743 0.0
O409 O 0.19635 0.38227 0.31999 0.0
O410 O 0.22344 0.42047 0.29797 0.0
C411 C 0.2529 0.39237 0.29352 0.0
O412 O 0.25431 0.40113 0.30592 0.0
C413 C 0.20138 0.37659 0.28368 0.0
O414 O 0.21346 0.36762 0.28611 0.0
O415 O 0.2213 0.38883 0.32174 0.0
C416 C 0.69369 0.55898 0.77972 0.0
O417 O 0.70036 0.56418 0.79239 0.0
O418 O 0.70004 0.59791 0.79298 0.0
Zn419 Zn 0.69014 0.59151 0.77279 0.0
O420 O 0.70503 0.59652 0.75564 0.0
C421 C 0.66623 0.61439 0.7781 0.0
O422 O 0.67278 0.61533 0.79184 0.0
O423 O 0.68681 0.56853 0.77083 0.0
C424 C 0.70947 0.61026 0.75276 0.0
O425 O 0.70438 0.62171 0.76145 0.0
C426 C 0.71459 0.59661 0.79501 0.0
O427 O 0.72305 0.59008 0.78413 0.0
O428 O 0.67102 0.60423 0.76854 0.0
C429 C 0.44587 0.69866 0.78426 0.0
O430 O 0.44144 0.70633 0.79665 0.0
O431 O 0.40798 0.70253 0.80165 0.0
Zn432 Zn 0.41313 0.69335 0.78075 0.0
O433 O 0.40626 0.70816 0.76407 0.0
C434 C 0.38621 0.67582 0.78055 0.0
O435 O 0.38181 0.6888 0.78723 0.0
O436 O 0.43598 0.69045 0.77705 0.0
C437 C 0.41078 0.70518 0.75034 0.0
O438 O 0.41956 0.69295 0.74796 0.0
C439 C 0.4085 0.71713 0.8037 0.0
O440 O 0.4135 0.72605 0.79238 0.0
O441 O 0.40045 0.67413 0.77709 0.0
C442 C 0.29957 0.43399 0.78227 0.0
O443 O 0.29516 0.4288 0.79589 0.0
O444 O 0.2922 0.39555 0.79502 0.0
Zn445 Zn 0.30173 0.40134 0.77443 0.0
O446 O 0.28742 0.39508 0.75711 0.0
C447 C 0.32377 0.37681 0.7781 0.0
O448 O 0.31407 0.37287 0.78918 0.0
O449 O 0.30426 0.42444 0.77207 0.0
C450 C 0.27801 0.38373 0.75752 0.0
O451 O 0.27703 0.37524 0.77014 0.0
C452 C 0.27814 0.39844 0.79842 0.0
O453 O 0.26947 0.40603 0.78843 0.0
O454 O 0.32149 0.38939 0.77074 0.0
C455 C 0.55704 0.30607 0.77703 0.0
O456 O 0.56184 0.30144 0.79073 0.0
O457 O 0.59489 0.296 0.78918 0.0
Zn458 Zn 0.5898 0.30894 0.77034 0.0
O459 O 0.59656 0.29699 0.75142 0.0
C460 C 0.6118 0.33186 0.78083 0.0
O461 O 0.61215 0.32304 0.79326 0.0
O462 O 0.56684 0.31162 0.76751 0.0
C463 C 0.60772 0.28736 0.75134 0.0
O464 O 0.61582 0.28511 0.76405 0.0
C465 C 0.59168 0.28161 0.78955 0.0
O466 O 0.58396 0.27542 0.77795 0.0
O467 O 0.60213 0.32877 0.77013 0.0
C468 C 0.69183 0.43447 0.23285 0.0
O469 O 0.68959 0.43533 0.21779 0.0
O470 O 0.69632 0.39684 0.20963 0.0
Zn471 Zn 0.68852 0.39985 0.23148 0.0
O472 O 0.70136 0.387 0.24612 0.0
C473 C 0.6616 0.38158 0.22479 0.0
O474 O 0.67013 0.37742 0.21286 0.0
O475 O 0.69109 0.42142 0.23962 0.0
C476 C 0.71512 0.391 0.24964 0.0
O477 O 0.72142 0.40297 0.24263 0.0
C478 C 0.70817 0.40332 0.20373 0.0
O479 O 0.71593 0.41361 0.21187 0.0
O480 O 0.66668 0.39202 0.2339 0.0
C481 C 0.56056 0.69471 0.22028 0.0
O482 O 0.56659 0.70012 0.20737 0.0
O483 O 0.59991 0.70055 0.20938 0.0
Zn484 Zn 0.59259 0.69188 0.22976 0.0
O485 O 0.59731 0.70709 0.24674 0.0
C486 C 0.61258 0.66555 0.22439 0.0
O487 O 0.61138 0.66997 0.20985 0.0
O488 O 0.5695 0.68909 0.23057 0.0
C489 C 0.61102 0.71132 0.25004 0.0
O490 O 0.62266 0.70598 0.24176 0.0
C491 C 0.59972 0.71495 0.20622 0.0
O492 O 0.59395 0.72474 0.21638 0.0
O493 O 0.60465 0.67253 0.23469 0.0
C494 C 0.28291 0.5726 0.23561 0.0
O495 O 0.2737 0.58417 0.23925 0.0
O496 O 0.28938 0.60431 0.20288 0.0
Zn497 Zn 0.29922 0.59797 0.2231 0.0
O498 O 0.29019 0.61015 0.24094 0.0
C499 C 0.32756 0.61233 0.21251 0.0
O500 O 0.31913 0.61541 0.2002 0.0
O501 O 0.29514 0.5753 0.22778 0.0
C502 C 0.29717 0.60834 0.25382 0.0
O503 O 0.30985 0.59987 0.25418 0.0
C504 C 0.27489 0.60595 0.20082 0.0
O505 O 0.26533 0.60304 0.21233 0.0
O506 O 0.32194 0.60361 0.22301 0.0
C507 C 0.44261 0.30752 0.21626 0.0
O508 O 0.43912 0.30218 0.20242 0.0
O509 O 0.4057 0.30362 0.19747 0.0
Zn510 Zn 0.40956 0.31269 0.21871 0.0
O511 O 0.40092 0.29828 0.23483 0.0
C512 C 0.38557 0.33478 0.21361 0.0
O513 O 0.38252 0.32516 0.20219 0.0
O514 O 0.43216 0.31422 0.22419 0.0
C515 C 0.388 0.29127 0.23386 0.0
O516 O 0.37952 0.29288 0.22129 0.0
C517 C 0.40679 0.28912 0.19498 0.0
O518 O 0.41163 0.28001 0.20621 0.0
O519 O 0.3977 0.3326 0.22171 0.0
C520 C 0.77459 0.68825 0.55864 0.0
O521 O 0.78858 0.69281 0.5626 0.0
O522 O 0.78875 0.6981 0.59666 0.0
Zn523 Zn 0.76859 0.68718 0.59193 0.0
O524 O 0.75055 0.70058 0.59832 0.0
C525 C 0.77748 0.66313 0.61365 0.0
O526 O 0.79091 0.67031 0.61342 0.0
O527 O 0.76525 0.68376 0.56912 0.0
C528 C 0.7508 0.71238 0.60716 0.0
O529 O 0.76395 0.71688 0.6134 0.0
C530 C 0.79212 0.71179 0.59232 0.0
O531 O 0.78225 0.71952 0.58363 0.0
O532 O 0.76675 0.66766 0.6046 0.0
C533 C 0.7776 0.28854 0.43881 0.0
O534 O 0.78657 0.27754 0.43328 0.0
O535 O 0.79253 0.28399 0.39968 0.0
Zn536 Zn 0.77253 0.29397 0.40652 0.0
O537 O 0.75454 0.27982 0.40212 0.0
C538 C 0.77849 0.31939 0.38503 0.0
O539 O 0.79284 0.31428 0.38519 0.0
O540 O 0.77149 0.29814 0.42943 0.0
C541 C 0.74953 0.27807 0.38837 0.0
O542 O 0.75697 0.28477 0.37687 0.0
C543 C 0.79418 0.26935 0.39911 0.0
O544 O 0.78275 0.26037 0.40372 0.0
O545 O 0.76849 0.31313 0.39388 0.0
C546 C 0.69494 0.774 0.44284 0.0
O547 O 0.70195 0.78666 0.43808 0.0
O548 O 0.69777 0.79091 0.40501 0.0
Zn549 Zn 0.68787 0.77043 0.41039 0.0
O550 O 0.70171 0.75338 0.40256 0.0
C551 C 0.6623 0.77851 0.39025 0.0
O552 O 0.66884 0.79227 0.39053 0.0
O553 O 0.68642 0.76657 0.43338 0.0
C554 C 0.69846 0.73965 0.40686 0.0
O555 O 0.68633 0.73741 0.41583 0.0
C556 C 0.71242 0.79255 0.40507 0.0
O557 O 0.72119 0.78091 0.40955 0.0
O558 O 0.6677 0.76783 0.39889 0.0
C559 C 0.22739 0.6923 0.44932 0.0
O560 O 0.21438 0.69785 0.44366 0.0
O561 O 0.21467 0.69743 0.41049 0.0
Zn562 Zn 0.23481 0.68768 0.41709 0.0
O563 O 0.25216 0.70181 0.41076 0.0
C564 C 0.22925 0.66374 0.39451 0.0
O565 O 0.21602 0.67113 0.39296 0.0
O566 O 0.23689 0.68568 0.4402 0.0
C567 C 0.25444 0.70502 0.39656 0.0
O568 O 0.24485 0.69947 0.38607 0.0
C569 C 0.21239 0.712 0.41066 0.0
O570 O 0.22317 0.72118 0.41632 0.0
O571 O 0.23853 0.66785 0.40523 0.0
C572 C 0.31097 0.23325 0.43454 0.0
O573 O 0.30711 0.21855 0.43333 0.0
O574 O 0.29845 0.21205 0.40081 0.0
Zn575 Zn 0.30621 0.23409 0.40117 0.0
O576 O 0.28938 0.24931 0.39567 0.0
C577 C 0.31838 0.23091 0.37156 0.0
O578 O 0.30488 0.22391 0.37051 0.0
O579 O 0.31309 0.24113 0.42226 0.0
C580 C 0.27659 0.24747 0.38857 0.0
O581 O 0.27265 0.23366 0.38347 0.0
C582 C 0.28546 0.20729 0.40592 0.0
O583 O 0.27618 0.21705 0.41307 0.0
O584 O 0.32252 0.23639 0.38462 0.0
C585 C 0.22873 0.30268 0.55848 0.0
O586 O 0.21598 0.29467 0.56089 0.0
O587 O 0.21155 0.28979 0.59392 0.0
Zn588 Zn 0.23023 0.30374 0.59198 0.0
O589 O 0.24883 0.29167 0.59918 0.0
C590 C 0.21898 0.32131 0.61769 0.0
O591 O 0.20963 0.30931 0.61861 0.0
O592 O 0.23535 0.30918 0.56992 0.0
C593 C 0.26219 0.29729 0.59648 0.0
O594 O 0.26326 0.31092 0.58974 0.0
C595 C 0.213 0.27518 0.59249 0.0
O596 O 0.22645 0.26948 0.58814 0.0
O597 O 0.22841 0.32215 0.60636 0.0
C598 C 0.69022 0.24089 0.57036 0.0
O599 O 0.68354 0.25111 0.5795 0.0
O600 O 0.70215 0.20535 0.60603 0.0
Zn601 Zn 0.69238 0.22529 0.59887 0.0
O602 O 0.70434 0.24338 0.60751 0.0
C603 C 0.66479 0.21636 0.61554 0.0
O604 O 0.67174 0.2028 0.61592 0.0
O605 O 0.69364 0.22764 0.57584 0.0
C606 C 0.71736 0.24757 0.60198 0.0
O607 O 0.72381 0.23925 0.59095 0.0
C608 C 0.71394 0.19897 0.59992 0.0
O609 O 0.72057 0.20546 0.58783 0.0
O610 O 0.6708 0.22726 0.60762 0.0
C611 C 0.29766 0.77733 0.57192 0.0
O612 O 0.28895 0.78836 0.57779 0.0
O613 O 0.29456 0.79246 0.61 0.0
Zn614 Zn 0.30506 0.77246 0.6039 0.0
O615 O 0.29215 0.75403 0.61017 0.0
C616 C 0.32511 0.77483 0.62937 0.0
O617 O 0.31229 0.78088 0.63497 0.0
O618 O 0.3071 0.77025 0.58077 0.0
C619 C 0.29785 0.74099 0.60629 0.0
O620 O 0.3114 0.74069 0.59932 0.0
C621 C 0.27995 0.79347 0.61161 0.0
O622 O 0.27127 0.78127 0.60876 0.0
O623 O 0.32537 0.77054 0.61526 0.0
C624 C 0.96593 0.2066 0.26605 0.0
C625 C 0.95429 0.19697 0.25998 0.0
C626 C 0.97726 0.21289 0.2563 0.0
C627 C 0.9934 0.21107 0.21604 0.0
H628 H 0.00466 0.25364 0.2252 0.0
C629 C 0.04331 0.24269 0.18507 0.0
C630 C 0.04318 0.25898 0.18419 0.0
C631 C 0.03128 0.23474 0.1924 0.0
C632 C 0.00143 0.24186 0.22226 0.0
H633 H 0.94589 0.18567 0.23907 0.0
H634 H 0.96518 0.197 0.22209 0.0
H635 H 0.98718 0.23993 0.2424 0.0
H636 H 0.02952 0.27958 0.18886 0.0
H637 H 0.00812 0.26564 0.20103 0.0
H638 H 0.00709 0.21327 0.19548 0.0
C639 C 0.96587 0.19951 0.23437 0.0
C640 C 0.99166 0.23384 0.23237 0.0
C641 C 0.95474 0.19302 0.24416 0.0
C642 C 0.03006 0.26704 0.18952 0.0
C643 C 0.01788 0.25905 0.19666 0.0
C644 C 0.00298 0.21918 0.20578 0.0
C645 C 0.97701 0.2099 0.24023 0.0
C646 C 0.98764 0.21828 0.2295 0.0
C647 C 0.01867 0.24286 0.1988 0.0
C648 C 0.00727 0.23464 0.20884 0.0
H649 H 0.96596 0.20974 0.27822 0.0
H650 H 0.98594 0.22046 0.26131 0.0
H651 H 0.99067 0.19908 0.21347 0.0
H652 H 0.0532 0.23607 0.18103 0.0
H653 H 0.03242 0.22231 0.19386 0.0
C654 C 0.78077 0.95524 0.26071 0.0
C655 C 0.77635 0.94173 0.25276 0.0
C656 C 0.77574 0.96977 0.25549 0.0
C657 C 0.762 0.99099 0.22162 0.0
H658 H 0.73725 0.01504 0.25046 0.0
C659 C 0.72742 0.04453 0.20132 0.0
C660 C 0.72691 0.05727 0.21145 0.0
C661 C 0.73328 0.03027 0.2064 0.0
C662 C 0.74433 0.00864 0.2423 0.0
H663 H 0.76396 0.93275 0.23277 0.0
H664 H 0.75559 0.95812 0.22344 0.0
H665 H 0.74968 0.99119 0.2592 0.0
H666 H 0.73193 0.06502 0.23489 0.0
H667 H 0.74256 0.04053 0.24352 0.0
H668 H 0.75706 0.0085 0.20478 0.0
C669 C 0.76272 0.95748 0.23378 0.0
C670 C 0.75143 0.99498 0.24734 0.0
C671 C 0.76744 0.943 0.23917 0.0
C672 C 0.73203 0.0554 0.22681 0.0
C673 C 0.73809 0.04127 0.2318 0.0
C674 C 0.75514 0.00479 0.21662 0.0
C675 C 0.76657 0.97094 0.24204 0.0
C676 C 0.76021 0.98601 0.23701 0.0
C677 C 0.73894 0.02855 0.22164 0.0
C678 C 0.74612 0.01375 0.22688 0.0
H679 H 0.78761 0.95452 0.27124 0.0
H680 H 0.77885 0.98006 0.262 0.0
H681 H 0.76877 0.98422 0.21347 0.0
H682 H 0.72351 0.04563 0.18942 0.0
H683 H 0.73345 0.02063 0.19834 0.0
C684 C 0.03951 0.7894 0.27019 0.0
C685 C 0.05147 0.77848 0.2719 0.0
C686 C 0.02565 0.78526 0.26281 0.0
C687 C 0.00297 0.75088 0.2495 0.0
H688 H 0.98324 0.78105 0.22256 0.0
C689 C 0.9516 0.73536 0.20932 0.0
C690 C 0.93849 0.74454 0.21234 0.0
C691 C 0.9661 0.73976 0.21517 0.0
C692 C 0.98871 0.77253 0.23001 0.0
H693 H 0.05818 0.75459 0.26747 0.0
H694 H 0.03443 0.74758 0.2543 0.0
H695 H 0.00676 0.78817 0.23666 0.0
H696 H 0.93027 0.76585 0.22289 0.0
H697 H 0.9556 0.77368 0.23272 0.0
H698 H 0.98498 0.73519 0.24257 0.0
C699 C 0.03546 0.75922 0.25893 0.0
C700 C 0.00206 0.77663 0.23823 0.0
C701 C 0.04916 0.76328 0.26645 0.0
C702 C 0.94021 0.75853 0.22051 0.0
C703 C 0.95469 0.76306 0.22605 0.0
C704 C 0.98978 0.74673 0.2411 0.0
C705 C 0.02357 0.77018 0.25686 0.0
C706 C 0.00929 0.76589 0.24818 0.0
C707 C 0.96768 0.75355 0.22376 0.0
C708 C 0.98247 0.75755 0.23139 0.0
H709 H 0.04094 0.80119 0.2743 0.0
H710 H 0.01661 0.79392 0.26169 0.0
H711 H 0.00804 0.74239 0.25725 0.0
H712 H 0.95051 0.7245 0.20309 0.0
H713 H 0.97601 0.73228 0.21325 0.0
C714 C 0.27358 0.96384 0.21954 0.0
C715 C 0.26705 0.9569 0.2063 0.0
C716 C 0.26657 0.97676 0.22632 0.0
C717 C 0.22789 0.99474 0.22926 0.0
H718 H 0.25025 0.02594 0.25271 0.0
C719 C 0.19964 0.04769 0.26022 0.0
C720 C 0.20553 0.05138 0.275 0.0
C721 C 0.20633 0.0358 0.25145 0.0
C722 C 0.24387 0.01721 0.2463 0.0
H723 H 0.24895 0.95901 0.18893 0.0
H724 H 0.23701 0.98188 0.20051 0.0
H725 H 0.26459 0.00773 0.23652 0.0
H726 H 0.22225 0.04467 0.29261 0.0
H727 H 0.23387 0.02396 0.27728 0.0
H728 H 0.20715 0.00444 0.23898 0.0
C729 C 0.24723 0.97699 0.20596 0.0
C730 C 0.25207 0.00679 0.237 0.0
C731 C 0.25417 0.96398 0.19923 0.0
C732 C 0.21748 0.04221 0.28125 0.0
C733 C 0.22425 0.03044 0.27242 0.0
C734 C 0.21968 0.00528 0.23844 0.0
C735 C 0.25298 0.98316 0.21993 0.0
C736 C 0.24421 0.99527 0.22854 0.0
C737 C 0.21907 0.02747 0.25726 0.0
C738 C 0.22761 0.01645 0.24723 0.0
H739 H 0.28351 0.95871 0.22528 0.0
H740 H 0.27131 0.98112 0.23711 0.0
H741 H 0.22146 0.98586 0.22313 0.0
H742 H 0.19042 0.0545 0.25508 0.0
H743 H 0.2021 0.03371 0.2398 0.0
C744 C 0.955 0.79916 0.73692 0.0
C745 C 0.94992 0.79213 0.7231 0.0
C746 C 0.96706 0.79257 0.74555 0.0
C747 C 0.99831 0.76272 0.74402 0.0
H748 H 0.99136 0.76049 0.78846 0.0
C749 C 0.03319 0.72108 0.78198 0.0
C750 C 0.04094 0.72816 0.79447 0.0
C751 C 0.02123 0.72883 0.7743 0.0
C752 C 0.99345 0.76109 0.77608 0.0
H753 H 0.95424 0.77328 0.70697 0.0
H754 H 0.97498 0.76171 0.72204 0.0
H755 H 0.97357 0.77542 0.7722 0.0
H756 H 0.04117 0.74827 0.80964 0.0
H757 H 0.02006 0.76168 0.79634 0.0
H758 H 0.01796 0.74807 0.74789 0.0
C759 C 0.9698 0.77237 0.72622 0.0
C760 C 0.98337 0.76974 0.76677 0.0
C761 C 0.95784 0.779 0.71757 0.0
C762 C 0.0355 0.74253 0.80001 0.0
C763 C 0.02342 0.75022 0.79239 0.0
C764 C 0.00826 0.75394 0.7533 0.0
C765 C 0.97426 0.7788 0.74054 0.0
C766 C 0.98562 0.77057 0.7506 0.0
C767 C 0.01664 0.74372 0.77907 0.0
C768 C 0.00586 0.75294 0.76939 0.0
H769 H 0.94921 0.80935 0.74146 0.0
H770 H 0.97045 0.79803 0.75634 0.0
H771 H 0.00058 0.76333 0.73168 0.0
H772 H 0.037 0.70998 0.77747 0.0
H773 H 0.01596 0.72345 0.76423 0.0
C774 C 0.25087 0.04104 0.80031 0.0
C775 C 0.26483 0.04608 0.79358 0.0
C776 C 0.24248 0.02887 0.79367 0.0
C777 C 0.24407 0.99797 0.76329 0.0
H778 H 0.19978 0.00572 0.76099 0.0
C779 C 0.20496 0.96504 0.7207 0.0
C780 C 0.19243 0.95734 0.72774 0.0
C781 C 0.21312 0.97648 0.72878 0.0
C782 C 0.21212 0.00341 0.7616 0.0
H783 H 0.28153 0.04156 0.7753 0.0
H784 H 0.2668 0.02066 0.76352 0.0
H785 H 0.21621 0.02294 0.77629 0.0
H786 H 0.17778 0.9565 0.74819 0.0
H787 H 0.19184 0.97679 0.76214 0.0
H788 H 0.23992 0.9787 0.74817 0.0
C789 C 0.26234 0.0259 0.77404 0.0
C790 C 0.22154 0.01316 0.77048 0.0
C791 C 0.27083 0.03793 0.7808 0.0
C792 C 0.18743 0.9622 0.74249 0.0
C793 C 0.19546 0.97379 0.75048 0.0
C794 C 0.23467 0.98837 0.75425 0.0
C795 C 0.24778 0.02161 0.78004 0.0
C796 C 0.23766 0.01059 0.77141 0.0
C797 C 0.20873 0.98059 0.74392 0.0
C798 C 0.21863 0.99104 0.75327 0.0
H799 H 0.24603 0.047 0.81026 0.0
H800 H 0.23154 0.02555 0.79888 0.0
H801 H 0.25637 0.99548 0.76393 0.0
H802 H 0.20912 0.96157 0.70936 0.0
H803 H 0.22319 0.98174 0.7234 0.0
C804 C 0.05014 0.23259 0.72611 0.0
C805 C 0.05399 0.217 0.72892 0.0
C806 C 0.0379 0.23959 0.73407 0.0
C807 C 0.00335 0.23178 0.75831 0.0
H808 H 0.01211 0.2728 0.77472 0.0
C809 C 0.96172 0.26122 0.80097 0.0
C810 C 0.95752 0.27652 0.79713 0.0
C811 C 0.97444 0.25417 0.79386 0.0
C812 C 0.00947 0.26139 0.77015 0.0
H813 H 0.04748 0.19627 0.74164 0.0
H814 H 0.02616 0.20852 0.7556 0.0
H815 H 0.03137 0.25975 0.75862 0.0
H816 H 0.96412 0.29679 0.78373 0.0
H817 H 0.98632 0.28447 0.77133 0.0
H818 H 0.98144 0.23344 0.76983 0.0
C819 C 0.03255 0.21532 0.74718 0.0
C820 C 0.02045 0.25394 0.76087 0.0
C821 C 0.04477 0.20829 0.73917 0.0
C822 C 0.96701 0.28498 0.78692 0.0
C823 C 0.97976 0.27792 0.77982 0.0
C824 C 0.99238 0.23923 0.76762 0.0
C825 C 0.02928 0.23116 0.74504 0.0
C826 C 0.01749 0.23908 0.75477 0.0
C827 C 0.98326 0.26227 0.78281 0.0
C828 C 0.9953 0.25413 0.77361 0.0
H829 H 0.05694 0.23958 0.71818 0.0
H830 H 0.03543 0.25172 0.73188 0.0
H831 H 0.00065 0.22042 0.75367 0.0
H832 H 0.95473 0.2544 0.80889 0.0
H833 H 0.97708 0.2422 0.79665 0.0
C834 C 0.80177 0.04134 0.74772 0.0
C835 C 0.79703 0.04621 0.73289 0.0
C836 C 0.79478 0.02854 0.75479 0.0
C837 C 0.76778 0.99541 0.74776 0.0
H838 H 0.75728 0.0018 0.79109 0.0
C839 C 0.72129 0.95888 0.778 0.0
C840 C 0.72624 0.95139 0.79162 0.0
C841 C 0.73004 0.97093 0.77163 0.0
C842 C 0.76021 -0.00015 0.77902 0.0
H843 H 0.78203 0.0408 0.71341 0.0
H844 H 0.76964 0.01877 0.72581 0.0
H845 H 0.77379 0.02055 0.77777 0.0
H846 H 0.74352 0.95156 0.80995 0.0
H847 H 0.75861 0.97288 0.79893 0.0
H848 H 0.75374 0.97496 0.74896 0.0
C849 C 0.77887 0.02466 0.73197 0.0
C850 C 0.76978 0.01049 0.7714 0.0
C851 C 0.78598 0.03735 0.72483 0.0
C852 C 0.73942 0.95705 0.79941 0.0
C853 C 0.74808 0.96924 0.79311 0.0
C854 C 0.75806 0.9849 0.75533 0.0
C855 C 0.7828 0.02043 0.74724 0.0
C856 C 0.77361 0.00846 0.75563 0.0
C857 C 0.74377 0.97586 0.77886 0.0
C858 C 0.75409 0.98709 0.77098 0.0
H859 H 0.81038 0.04786 0.75416 0.0
H860 H 0.79841 0.02534 0.76639 0.0
H861 H 0.77069 0.99332 0.73572 0.0
H862 H 0.71116 0.95487 0.77172 0.0
H863 H 0.72633 0.97606 0.76076 0.0
C864 C 0.25798 0.19352 0.04507 0.0
C865 C 0.27415 0.1957 0.04524 0.0
C866 C 0.24891 0.20009 0.03337 0.0
C867 C 0.25064 0.2326 0.00541 0.0
H868 H 0.21077 0.21632 0.99247 0.0
C869 C 0.2093 0.2703 0.96948 0.0
C870 C 0.20164 0.26296 0.95712 0.0
C871 C 0.2167 0.2615 0.98093 0.0
C872 C 0.22193 0.22101 0.99584 0.0
H873 H 0.29362 0.20518 0.03246 0.0
H874 H 0.27787 0.216 0.0116 0.0
H875 H 0.22758 0.20062 0.00879 0.0
H876 H 0.19497 0.24062 0.94755 0.0
H877 H 0.20821 0.22537 0.9671 0.0
H878 H 0.24537 0.25265 0.99189 0.0
C879 C 0.27211 0.2098 0.02089 0.0
C880 C 0.23153 0.21204 0.00536 0.0
C881 C 0.28118 0.20344 0.03274 0.0
C882 C 0.20072 0.24667 0.95695 0.0
C883 C 0.20832 0.23788 0.96824 0.0
C884 C 0.24116 0.24145 0.99571 0.0
C885 C 0.2558 0.20878 0.02141 0.0
C886 C 0.24599 0.21776 0.01036 0.0
C887 C 0.21682 0.24517 0.98011 0.0
C888 C 0.22663 0.23583 0.99087 0.0
H889 H 0.25215 0.18763 0.05452 0.0
H890 H 0.23642 0.1991 0.03429 0.0
H891 H 0.26153 0.23757 0.00922 0.0
H892 H 0.21009 0.28283 0.96999 0.0
H893 H 0.22272 0.26753 0.99016 0.0
C894 C 0.27062 0.79501 0.96149 0.0
C895 C 0.26346 0.80207 0.94866 0.0
C896 C 0.26167 0.7891 0.97364 0.0
C897 C 0.22151 0.78756 0.98987 0.0
H898 H 0.23551 0.74749 0.00476 0.0
C899 C 0.19429 0.75656 0.04246 0.0
C900 C 0.19496 0.74027 0.04331 0.0
C901 C 0.20078 0.76442 0.0299 0.0
C902 C 0.23126 0.75854 0.00055 0.0
H903 H 0.24137 0.80949 0.93909 0.0
H904 H 0.22582 0.79887 0.95998 0.0
H905 H 0.25112 0.76157 0.9861 0.0
H906 H 0.20159 0.71942 0.03089 0.0
H907 H 0.21243 0.73315 0.00864 0.0
H908 H 0.20132 0.78419 0.0039 0.0
C909 C 0.23832 0.79802 0.96083 0.0
C910 C 0.24042 0.76681 0.99008 0.0
C911 C 0.24727 0.8041 0.94879 0.0
C912 C 0.20105 0.73197 0.03067 0.0
C913 C 0.20741 0.73986 0.018 0.0
C914 C 0.21225 0.7792 0.00023 0.0
C915 C 0.24536 0.78996 0.97314 0.0
C916 C 0.23573 0.78148 0.98468 0.0
C917 C 0.20793 0.75619 0.01778 0.0
C918 C 0.21706 0.76461 0.00578 0.0
H919 H 0.28308 0.79342 0.96182 0.0
H920 H 0.26751 0.78337 0.98318 0.0
H921 H 0.21755 0.79885 0.98603 0.0
H922 H 0.18961 0.76334 0.05194 0.0
H923 H 0.20101 0.77698 0.03021 0.0
C924 C 0.74022 0.2103 0.95468 0.0
C925 C 0.73029 0.2192 0.9453 0.0
C926 C 0.74742 0.21694 0.96761 0.0
C927 C 0.74615 0.25058 0.99426 0.0
H928 H 0.79041 0.24332 0.99803 0.0
C929 C 0.78284 0.28604 0.0368 0.0
C930 C 0.79274 0.27738 0.04644 0.0
C931 C 0.77624 0.27928 0.02363 0.0
C932 C 0.77804 0.24538 0.99719 0.0
H933 H 0.71936 0.24172 0.94265 0.0
H934 H 0.73185 0.25326 0.96517 0.0
H935 H 0.77565 0.22988 0.97793 0.0
H936 H 0.80445 0.25523 0.04912 0.0
H937 H 0.79289 0.24346 0.02621 0.0
H938 H 0.74849 0.26604 0.01351 0.0
C939 C 0.73411 0.24117 0.96257 0.0
C940 C 0.76958 0.23763 0.98574 0.0
C941 C 0.72698 0.23457 0.94963 0.0
C942 C 0.79683 0.26222 0.04197 0.0
C943 C 0.79021 0.25547 0.02881 0.0
C944 C 0.7546 0.25832 0.0057 0.0
C945 C 0.74472 0.23257 0.97146 0.0
C946 C 0.75354 0.24018 0.98413 0.0
C947 C 0.77942 0.26374 0.01982 0.0
C948 C 0.77065 0.25586 0.00727 0.0
H949 H 0.74301 0.19842 0.95165 0.0
H950 H 0.75535 0.20995 0.97441 0.0
H951 H 0.73378 0.25265 0.99343 0.0
H952 H 0.77956 0.29779 0.03983 0.0
H953 H 0.76825 0.28608 0.0167 0.0
C954 C 0.78583 0.71923 0.95862 0.0
C955 C 0.7982 0.72641 0.95079 0.0
C956 C 0.77821 0.7269 0.97068 0.0
C957 C 0.77058 0.76688 0.98373 0.0
H958 H 0.75039 0.7461 0.01813 0.0
C959 C 0.73854 0.79779 0.03433 0.0
C960 C 0.72489 0.79069 0.03979 0.0
C961 C 0.74729 0.79081 0.0226 0.0
C962 C 0.75584 0.75201 0.00846 0.0
H963 H 0.81328 0.74657 0.95052 0.0
H964 H 0.80028 0.75973 0.9719 0.0
H965 H 0.76786 0.73151 0.00135 0.0
H966 H 0.70899 0.77148 0.03621 0.0
H967 H 0.72426 0.75938 0.01574 0.0
H968 H 0.75866 0.78745 0.99108 0.0
C969 C 0.79611 0.74842 0.96834 0.0
C970 C 0.76588 0.74368 -0.00112 0.0
C971 C 0.80367 0.7408 0.9562 0.0
C972 C 0.7195 0.7772 0.03238 0.0
C973 C 0.72831 0.77018 0.02075 0.0
C974 C 0.76064 0.77526 0.99342 0.0
C975 C 0.78289 0.74185 0.97528 0.0
C976 C 0.77326 0.75096 0.9863 0.0
C977 C 0.74257 0.7766 0.01619 0.0
C978 C 0.75304 0.76785 0.00576 0.0
H979 H 0.78133 0.70815 0.95478 0.0
H980 H 0.76805 0.72149 0.9757 0.0
H981 H 0.77583 0.77281 0.97397 0.0
H982 H 0.74297 0.80824 0.03974 0.0
H983 H 0.75822 0.79604 0.01925 0.0
C984 C 0.53766 0.75552 0.69279 0.0
C985 C 0.54307 0.77003 0.69797 0.0
C986 C 0.52651 0.7474 0.70131 0.0
C987 C 0.51512 0.7428 0.74147 0.0
H988 H 0.47928 0.72073 0.72564 0.0
C989 C 0.46873 0.71619 0.78133 0.0
C990 C 0.46029 0.70325 0.77616 0.0
C991 C 0.47994 0.723 0.77184 0.0
C992 C 0.48943 0.72655 0.73021 0.0
H993 H 0.53993 0.78802 0.71533 0.0
H994 H 0.52053 0.77379 0.73017 0.0
H995 H 0.49504 0.73632 0.708 0.0
H996 H 0.45804 0.68638 0.75759 0.0
H997 H 0.47801 0.69795 0.74126 0.0
H998 H 0.50984 0.73288 0.76357 0.0
C999 C 0.5251 0.76864 0.71966 0.0
C1000 C 0.49834 0.7356 0.72011 0.0
C1001 C 0.53612 0.77683 0.71107 0.0
C1002 C 0.46424 0.69645 0.76187 0.0
C1003 C 0.47556 0.70319 0.75242 0.0
C1004 C 0.50636 0.73362 0.75152 0.0
C1005 C 0.52067 0.75361 0.71519 0.0
C1006 C 0.51113 0.74397 0.72571 0.0
C1007 C 0.4831 0.71691 0.75703 0.0
C1008 C 0.49328 0.72553 0.74607 0.0
H1009 H 0.54273 0.75001 0.68269 0.0
H1010 H 0.52321 0.73585 0.69759 0.0
H1011 H 0.52515 0.74887 0.746 0.0
H1012 H 0.466 0.72173 0.79228 0.0
H1013 H 0.48543 0.7336 0.77578 0.0
C1014 C 0.30208 0.45652 0.76416 0.0
C1015 C 0.29533 0.44984 0.77739 0.0
C1016 C 0.2961 0.47025 0.75793 0.0
C1017 C 0.26791 0.50237 0.76589 0.0
H1018 H 0.26782 0.50548 0.72102 0.0
C1019 C 0.23813 0.54116 0.71319 0.0
C1020 C 0.23827 0.55562 0.72066 0.0
C1021 C 0.24485 0.52819 0.72034 0.0
C1022 C 0.2675 0.5047 0.73355 0.0
H1023 H 0.27737 0.45252 0.79479 0.0
H1024 H 0.26654 0.47594 0.78368 0.0
H1025 H 0.28039 0.48356 0.73339 0.0
H1026 H 0.24577 0.56795 0.74131 0.0
H1027 H 0.25802 0.54582 0.7533 0.0
H1028 H 0.25411 0.52288 0.76606 0.0
C1029 C 0.27674 0.47099 0.77827 0.0
C1030 C 0.27504 0.49225 0.7407 0.0
C1031 C 0.28294 0.45748 0.78468 0.0
C1032 C 0.24523 0.5569 0.73534 0.0
C1033 C 0.25221 0.54411 0.7423 0.0
C1034 C 0.26007 0.51459 0.75874 0.0
C1035 C 0.28301 0.4774 0.76461 0.0
C1036 C 0.27541 0.49094 0.75699 0.0
C1037 C 0.25212 0.52955 0.73495 0.0
C1038 C 0.25986 0.51603 0.74247 0.0
H1039 H 0.31171 0.45089 0.75836 0.0
H1040 H 0.30155 0.47504 0.74768 0.0
H1041 H 0.26807 0.50194 0.77844 0.0
H1042 H 0.23282 0.53987 0.70187 0.0
H1043 H 0.2443 0.51713 0.71442 0.0
C1044 C 0.46164 0.22047 0.71968 0.0
C1045 C 0.45514 0.22535 0.70555 0.0
C1046 C 0.47302 0.22938 0.72699 0.0
C1047 C 0.48657 0.26998 0.72858 0.0
H1048 H 0.51913 0.25257 0.75428 0.0
C1049 C 0.53711 0.30493 0.75598 0.0
C1050 C 0.54201 0.30051 0.77091 0.0
C1051 C 0.52524 0.29681 0.74849 0.0
C1052 C 0.50995 0.25758 0.7473 0.0
H1053 H 0.45647 0.24266 0.68731 0.0
H1054 H 0.47671 0.25794 0.69984 0.0
H1055 H 0.50283 0.23537 0.73887 0.0
H1056 H 0.53736 0.28502 0.79022 0.0
H1057 H 0.51664 0.27089 0.77712 0.0
H1058 H 0.494 0.29225 0.73684 0.0
C1059 C 0.47261 0.24752 0.70554 0.0
C1060 C 0.50064 0.24773 0.73843 0.0
C1061 C 0.46114 0.23866 0.69828 0.0
C1062 C 0.53392 0.28869 0.7787 0.0
C1063 C 0.52216 0.28048 0.77116 0.0
C1064 C 0.496 0.27985 0.73735 0.0
C1065 C 0.47827 0.24329 0.72026 0.0
C1066 C 0.48878 0.2538 0.72902 0.0
C1067 C 0.51814 0.28408 0.75577 0.0
C1068 C 0.50771 0.27373 0.74687 0.0
H1069 H 0.45729 0.21028 0.72561 0.0
H1070 H 0.47704 0.22578 0.73834 0.0
H1071 H 0.47735 0.27505 0.72171 0.0
H1072 H 0.54306 0.31405 0.7497 0.0
H1073 H 0.52235 0.29985 0.73664 0.0
C1074 C 0.77338 0.46078 0.72024 0.0
C1075 C 0.76762 0.45329 0.70693 0.0
C1076 C 0.7647 0.47232 0.72755 0.0
C1077 C 0.73241 0.49971 0.72342 0.0
H1078 H 0.72656 0.49204 0.76742 0.0
C1079 C 0.69193 0.53842 0.75929 0.0
C1080 C 0.6981 0.54362 0.77348 0.0
C1081 C 0.69874 0.52598 0.75145 0.0
C1082 C 0.72815 0.49444 0.75518 0.0
H1083 H 0.74893 0.45309 0.69005 0.0
H1084 H 0.7339 0.47349 0.70273 0.0
H1085 H 0.74318 0.47488 0.7523 0.0
H1086 H 0.71541 0.539 0.79116 0.0
H1087 H 0.72742 0.51758 0.77743 0.0
H1088 H 0.71778 0.51951 0.72633 0.0
C1089 C 0.74503 0.47023 0.70759 0.0
C1090 C 0.7377 0.48463 0.74654 0.0
C1091 C 0.75365 0.45856 0.70033 0.0
C1092 C 0.71037 0.53531 0.78025 0.0
C1093 C 0.71727 0.52297 0.77235 0.0
C1094 C 0.72299 0.50964 0.73211 0.0
C1095 C 0.7502 0.47675 0.7216 0.0
C1096 C 0.74003 0.48725 0.73062 0.0
C1097 C 0.71191 0.51854 0.75758 0.0
C1098 C 0.72084 0.50719 0.74813 0.0
H1099 H 0.78414 0.45709 0.72558 0.0
H1100 H 0.76908 0.47741 0.73818 0.0
H1101 H 0.73405 0.50199 0.71117 0.0
H1102 H 0.68236 0.54447 0.75384 0.0
H1103 H 0.69405 0.52258 0.74029 0.0
C1104 C 0.45964 0.30617 0.23975 0.0
C1105 C 0.4567 0.30187 0.22428 0.0
C1106 C 0.47063 0.29815 0.24857 0.0
C1107 C 0.48739 0.25935 0.25087 0.0
H1108 H 0.516 0.27766 0.28035 0.0
C1109 C 0.5363 0.225 0.28051 0.0
C1110 C 0.54118 0.22944 0.29541 0.0
C1111 C 0.52457 0.23317 0.27292 0.0
C1112 C 0.50786 0.27235 0.27238 0.0
H1113 H 0.46399 0.2867 0.20554 0.0
H1114 H 0.48323 0.27281 0.22092 0.0
H1115 H 0.50001 0.29445 0.26409 0.0
H1116 H 0.53659 0.24505 0.31464 0.0
H1117 H 0.51582 0.2591 0.3015 0.0
H1118 H 0.49509 0.23727 0.25917 0.0
C1119 C 0.47679 0.28217 0.22629 0.0
C1120 C 0.49881 0.28199 0.26299 0.0
C1121 C 0.46587 0.29024 0.21745 0.0
C1122 C 0.53316 0.24138 0.30311 0.0
C1123 C 0.52139 0.24956 0.29552 0.0
C1124 C 0.49635 0.24973 0.26031 0.0
C1125 C 0.47885 0.28566 0.24209 0.0
C1126 C 0.48861 0.27558 0.25202 0.0
C1127 C 0.51739 0.24593 0.28012 0.0
C1128 C 0.50681 0.2561 0.27108 0.0
H1129 H 0.45283 0.31513 0.24534 0.0
H1130 H 0.472 0.30112 0.26071 0.0
H1131 H 0.47935 0.25408 0.24276 0.0
H1132 H 0.54218 0.2158 0.27428 0.0
H1133 H 0.52183 0.23007 0.26106 0.0
C1134 C 0.70116 0.44619 0.25761 0.0
C1135 C 0.69776 0.44791 0.24173 0.0
C1136 C 0.70878 0.4579 0.26573 0.0
C1137 C 0.73479 0.49111 0.25908 0.0
H1138 H 0.727 0.499 0.3027 0.0
C1139 C 0.77544 0.53048 0.29403 0.0
C1140 C 0.76812 0.54156 0.30347 0.0
C1141 C 0.76702 0.518 0.28799 0.0
C1142 C 0.72929 0.497 0.2905 0.0
H1143 H 0.69892 0.46368 0.22216 0.0
H1144 H 0.71191 0.48441 0.23651 0.0
H1145 H 0.71041 0.48102 0.28858 0.0
H1146 H 0.74653 0.54751 0.31502 0.0
H1147 H 0.73187 0.52602 0.30432 0.0
H1148 H 0.75329 0.5075 0.26084 0.0
C1149 C 0.70901 0.47378 0.24255 0.0
C1150 C 0.71985 0.48659 0.28243 0.0
C1151 C 0.70144 0.46197 0.23436 0.0
C1152 C 0.75253 0.53923 0.30772 0.0
C1153 C 0.7441 0.52684 0.30161 0.0
C1154 C 0.74415 0.50161 0.26712 0.0
C1155 C 0.71309 0.47172 0.25824 0.0
C1156 C 0.72252 0.48347 0.26663 0.0
C1157 C 0.7511 0.51639 0.29123 0.0
C1158 C 0.74155 0.50465 0.28294 0.0
H1159 H 0.69849 0.43552 0.26369 0.0
H1160 H 0.71186 0.45581 0.27773 0.0
H1161 H 0.73735 0.48882 0.24699 0.0
H1162 H 0.78746 0.53185 0.29065 0.0
H1163 H 0.77287 0.5099 0.28037 0.0
C1164 C 0.53548 0.70823 0.21473 0.0
C1165 C 0.54449 0.69888 0.2246 0.0
C1166 C 0.52188 0.71516 0.22017 0.0
C1167 C 0.4936 0.71553 0.25273 0.0
H1168 H 0.49094 0.75943 0.24305 0.0
C1169 C 0.4525 0.75608 0.28599 0.0
C1170 C 0.44312 0.7657 0.27673 0.0
C1171 C 0.46516 0.74832 0.27952 0.0
C1172 C 0.49146 0.74717 0.24577 0.0
H1173 H 0.54555 0.68835 0.24747 0.0
H1174 H 0.52196 0.7005 0.25695 0.0
H1175 H 0.51103 0.74364 0.23095 0.0
H1176 H 0.4403 0.77555 0.25373 0.0
H1177 H 0.46245 0.76207 0.2425 0.0
H1178 H 0.47413 0.71915 0.2677 0.0
C1179 C 0.52536 0.70251 0.24502 0.0
C1180 C 0.5029 0.73808 0.23876 0.0
C1181 C 0.53893 0.69557 0.23958 0.0
C1182 C 0.44727 0.76818 0.26116 0.0
C1183 C 0.45998 0.76048 0.25472 0.0
C1184 C 0.4822 0.72464 0.25977 0.0
C1185 C 0.51701 0.71285 0.23557 0.0
C1186 C 0.50413 0.72217 0.2422 0.0
C1187 C 0.46876 0.7501 0.26371 0.0
C1188 C 0.48106 0.74056 0.25642 0.0
H1189 H 0.53935 0.71091 0.20308 0.0
H1190 H 0.51548 0.72278 0.2125 0.0
H1191 H 0.49413 0.70328 0.25549 0.0
H1192 H 0.44963 0.75394 0.29804 0.0
H1193 H 0.47192 0.74061 0.2868 0.0
C1194 C 0.28432 0.54362 0.23327 0.0
C1195 C 0.27906 0.55688 0.24112 0.0
C1196 C 0.27962 0.52885 0.23816 0.0
C1197 C 0.26499 0.50701 0.27144 0.0
H1198 H 0.24399 0.48132 0.24109 0.0
C1199 C 0.23086 0.4521 0.28927 0.0
C1200 C 0.23134 0.43938 0.27911 0.0
C1201 C 0.23706 0.46642 0.28477 0.0
C1202 C 0.25005 0.48818 0.24969 0.0
H1203 H 0.26541 0.56518 0.26059 0.0
H1204 H 0.25754 0.53945 0.26927 0.0
H1205 H 0.25557 0.5058 0.23304 0.0
H1206 H 0.23892 0.43159 0.25639 0.0
H1207 H 0.25015 0.45618 0.24881 0.0
H1208 H 0.25979 0.48935 0.28807 0.0
C1209 C 0.26511 0.54044 0.25928 0.0
C1210 C 0.25666 0.50221 0.24504 0.0
C1211 C 0.26953 0.55514 0.25423 0.0
C1212 C 0.23816 0.44123 0.26442 0.0
C1213 C 0.24456 0.4554 0.26003 0.0
C1214 C 0.2586 0.49285 0.27606 0.0
C1215 C 0.26991 0.52719 0.25117 0.0
C1216 C 0.26407 0.51179 0.2559 0.0
C1217 C 0.24407 0.46821 0.2701 0.0
C1218 C 0.25095 0.48329 0.26526 0.0
H1219 H 0.29166 0.54467 0.22312 0.0
H1220 H 0.28348 0.51875 0.23176 0.0
H1221 H 0.27071 0.51423 0.28001 0.0
H1222 H 0.22565 0.451 0.30066 0.0
H1223 H 0.23626 0.47609 0.29275 0.0
C1224 C 0.75348 0.68714 0.53881 0.0
C1225 C 0.76809 0.69272 0.54342 0.0
C1226 C 0.74548 0.69419 0.5266 0.0
C1227 C 0.74908 0.72378 0.49508 0.0
H1228 H 0.70554 0.73077 0.50423 0.0
C1229 C 0.7141 0.77122 0.46439 0.0
C1230 C 0.70054 0.76601 0.45696 0.0
C1231 C 0.72161 0.76185 0.47525 0.0
C1232 C 0.71766 0.72883 0.50151 0.0
H1233 H 0.7863 0.70925 0.53808 0.0
H1234 H 0.77228 0.72175 0.51711 0.0
H1235 H 0.72081 0.71381 0.52096 0.0
H1236 H 0.68351 0.74747 0.4561 0.0
H1237 H 0.6965 0.73127 0.47543 0.0
H1238 H 0.74595 0.73932 0.47594 0.0
C1239 C 0.767 0.71182 0.52271 0.0
C1240 C 0.7264 0.719 0.51098 0.0
C1241 C 0.77508 0.70464 0.53478 0.0
C1242 C 0.69397 0.7518 0.46158 0.0
C1243 C 0.7014 0.74251 0.47261 0.0
C1244 C 0.74038 0.73377 0.48575 0.0
C1245 C 0.75184 0.70709 0.51888 0.0
C1246 C 0.74227 0.71644 0.50796 0.0
C1247 C 0.71559 0.74721 0.47908 0.0
C1248 C 0.72464 0.73649 0.48897 0.0
H1249 H 0.74787 0.67785 0.54516 0.0
H1250 H 0.73403 0.68993 0.52365 0.0
H1251 H 0.76116 0.72189 0.49223 0.0
H1252 H 0.71947 0.78211 0.46115 0.0
H1253 H 0.73242 0.76583 0.4803 0.0
C1254 C 0.7603 0.29782 0.46024 0.0
C1255 C 0.77158 0.28736 0.45483 0.0
C1256 C 0.7522 0.29479 0.47396 0.0
C1257 C 0.75109 0.26888 0.50861 0.0
H1258 H 0.70656 0.27436 0.50484 0.0
C1259 C 0.70842 0.23677 0.54818 0.0
C1260 C 0.69717 0.24601 0.55554 0.0
C1261 C 0.71718 0.24274 0.53595 0.0
C1262 C 0.71897 0.27289 0.5061 0.0
H1263 H 0.78409 0.26618 0.46023 0.0
H1264 H 0.76987 0.26078 0.4839 0.0
H1265 H 0.72364 0.28429 0.48458 0.0
H1266 H 0.6856 0.26836 0.55518 0.0
H1267 H 0.70077 0.27867 0.53356 0.0
H1268 H 0.7463 0.25701 0.5299 0.0
C1269 C 0.76728 0.27139 0.47768 0.0
C1270 C 0.72879 0.27867 0.49457 0.0
C1271 C 0.77543 0.27446 0.46403 0.0
C1272 C 0.69419 0.26097 0.54976 0.0
C1273 C 0.70287 0.26688 0.5374 0.0
C1274 C 0.74126 0.26298 0.52005 0.0
C1275 C 0.7552 0.28122 0.48252 0.0
C1276 C 0.74496 0.27656 0.49558 0.0
C1277 C 0.71477 0.25798 0.53071 0.0
C1278 C 0.72511 0.26474 0.51879 0.0
H1279 H 0.75716 0.30796 0.4535 0.0
H1280 H 0.74322 0.3028 0.47757 0.0
H1281 H 0.76348 0.26729 0.50991 0.0
H1282 H 0.71101 0.22519 0.55233 0.0
H1283 H 0.7261 0.23554 0.53079 0.0
C1284 C 0.22527 0.70978 0.47231 0.0
C1285 C 0.23303 0.69768 0.4646 0.0
C1286 C 0.23248 0.71766 0.48448 0.0
C1287 C 0.26444 0.71698 0.51268 0.0
H1288 H 0.26514 0.76148 0.50579 0.0
C1289 C 0.30102 0.75692 0.55151 0.0
C1290 C 0.29344 0.77035 0.55683 0.0
C1291 C 0.29483 0.74833 0.53922 0.0
C1292 C 0.26495 0.7491 0.50798 0.0
H1293 H 0.25373 0.68335 0.46462 0.0
H1294 H 0.26619 0.69701 0.48607 0.0
H1295 H 0.25052 0.74482 0.48825 0.0
H1296 H 0.2741 0.78593 0.55264 0.0
H1297 H 0.26323 0.77089 0.5315 0.0
H1298 H 0.27857 0.72124 0.53262 0.0
C1299 C 0.25465 0.7005 0.48254 0.0
C1300 C 0.25655 0.73958 0.49796 0.0
C1301 C 0.2475 0.69269 0.47026 0.0
C1302 C 0.28023 0.77563 0.54887 0.0
C1303 C 0.274 0.76699 0.53668 0.0
C1304 C 0.27273 0.72653 0.52283 0.0
C1305 C 0.24748 0.71347 0.48929 0.0
C1306 C 0.25613 0.72344 0.50026 0.0
C1307 C 0.28093 0.75296 0.53206 0.0
C1308 C 0.27303 0.74273 0.52064 0.0
H1309 H 0.21408 0.71386 0.46832 0.0
H1310 H 0.2266 0.72746 0.48972 0.0
H1311 H 0.26429 0.70457 0.5147 0.0
H1312 H 0.31129 0.7526 0.55732 0.0
H1313 H 0.30068 0.73779 0.53568 0.0
C1314 C 0.23087 0.29246 0.5314 0.0
C1315 C 0.23759 0.30035 0.54397 0.0
C1316 C 0.24009 0.28712 0.51919 0.0
C1317 C 0.27986 0.28861 0.50209 0.0
H1318 H 0.26926 0.24687 0.48909 0.0
C1319 C 0.3077 0.2579 0.44948 0.0
C1320 C 0.3083 0.24158 0.44932 0.0
C1321 C 0.30129 0.26577 0.4621 0.0
C1322 C 0.27258 0.25842 0.49277 0.0
H1323 H 0.25911 0.30989 0.55298 0.0
H1324 H 0.27518 0.3003 0.53194 0.0
H1325 H 0.25289 0.26018 0.50765 0.0
H1326 H 0.30429 0.22086 0.46302 0.0
H1327 H 0.29363 0.23464 0.4853 0.0
H1328 H 0.29987 0.28658 0.48751 0.0
C1329 C 0.26278 0.29834 0.53137 0.0
C1330 C 0.26296 0.26621 0.50318 0.0
C1331 C 0.25353 0.30383 0.54348 0.0
C1332 C 0.3038 0.23342 0.46269 0.0
C1333 C 0.29753 0.24132 0.47539 0.0
C1334 C 0.28958 0.28075 0.49173 0.0
C1335 C 0.25627 0.28941 0.51938 0.0
C1336 C 0.2664 0.28145 0.50789 0.0
C1337 C 0.29551 0.25752 0.47492 0.0
C1338 C 0.28601 0.26557 0.48688 0.0
H1339 H 0.21859 0.28975 0.53134 0.0
H1340 H 0.23462 0.28068 0.50989 0.0
H1341 H 0.28284 0.30035 0.50543 0.0
H1342 H 0.31114 0.26458 0.43941 0.0
H1343 H 0.29993 0.27824 0.46128 0.0
C1344 C 0.15543 0.1348 0.26705 0.0
C1345 C 0.16496 0.13652 0.28018 0.0
C1346 C 0.14689 0.14739 0.26139 0.0
C1347 C 0.14978 0.1895 0.25999 0.0
H1348 H 0.10856 0.18773 0.24209 0.0
C1349 C 0.12251 0.24298 0.23051 0.0
C1350 C 0.11422 0.24029 0.21675 0.0
C1351 C 0.12706 0.23057 0.23993 0.0
C1352 C 0.12014 0.18838 0.24693 0.0
H1353 H 0.17199 0.15245 0.2984 0.0
H1354 H 0.1571 0.17433 0.28852 0.0
H1355 H 0.11885 0.16518 0.25586 0.0
H1356 H 0.10413 0.22247 0.20208 0.0
H1357 H 0.11246 0.20087 0.21818 0.0
H1358 H 0.15143 0.21236 0.25061 0.0
C1359 C 0.15644 0.16334 0.28246 0.0
C1360 C 0.12598 0.17548 0.25486 0.0
C1361 C 0.16492 0.15077 0.28814 0.0
C1362 C 0.11047 0.22495 0.21265 0.0
C1363 C 0.11513 0.21255 0.22197 0.0
C1364 C 0.14401 0.20231 0.25195 0.0
C1365 C 0.14776 0.16193 0.26875 0.0
C1366 C 0.14091 0.17588 0.26136 0.0
C1367 C 0.12355 0.21518 0.2357 0.0
C1368 C 0.12918 0.20188 0.24517 0.0
H1369 H 0.15517 0.12397 0.26067 0.0
H1370 H 0.14033 0.14598 0.25076 0.0
H1371 H 0.16144 0.19005 0.26463 0.0
H1372 H 0.12545 0.25468 0.23406 0.0
H1373 H 0.13331 0.23306 0.25055 0.0
C1374 C 0.86095 0.14679 0.27887 0.0
C1375 C 0.87433 0.14951 0.26995 0.0
C1376 C 0.84858 0.13834 0.27272 0.0
C1377 C 0.83596 0.11281 0.24055 0.0
H1378 H 0.79771 0.13629 0.24367 0.0
C1379 C 0.78391 0.10277 0.1995 0.0
C1380 C 0.76888 0.10472 0.20549 0.0
C1381 C 0.79689 0.10628 0.20857 0.0
C1382 C 0.80817 0.12938 0.2429 0.0
H1383 H 0.88577 0.14431 0.24812 0.0
H1384 H 0.86413 0.12957 0.23741 0.0
H1385 H 0.82039 0.1447 0.25807 0.0
H1386 H 0.75566 0.11135 0.22586 0.0
H1387 H 0.77824 0.11709 0.24178 0.0
H1388 H 0.82372 0.09755 0.22524 0.0
C1389 C 0.86321 0.134 0.24913 0.0
C1390 C 0.8212 0.13422 0.25118 0.0
C1391 C 0.87558 0.14251 0.25525 0.0
C1392 C 0.76709 0.10993 0.22083 0.0
C1393 C 0.78005 0.11327 0.22994 0.0
C1394 C 0.82286 0.10787 0.23235 0.0
C1395 C 0.84936 0.13237 0.25757 0.0
C1396 C 0.83528 0.12611 0.24996 0.0
C1397 C 0.79511 0.11166 0.22388 0.0
C1398 C 0.80885 0.11622 0.23328 0.0
H1399 H 0.85967 0.15187 0.29029 0.0
H1400 H 0.83813 0.13702 0.27958 0.0
H1401 H 0.84666 0.1063 0.23947 0.0
H1402 H 0.78565 0.09877 0.18771 0.0
H1403 H 0.8083 0.10512 0.20343 0.0
C1404 C 0.88155 0.78431 0.19734 0.0
C1405 C 0.88025 0.76959 0.20425 0.0
C1406 C 0.87764 0.79767 0.20563 0.0
C1407 C 0.87294 0.81237 0.24552 0.0
H1408 H 0.84835 0.84451 0.22588 0.0
C1409 C 0.83798 0.85812 0.27911 0.0
C1410 C 0.83509 0.87259 0.27216 0.0
C1411 C 0.84686 0.84695 0.27145 0.0
C1412 C 0.85553 0.83583 0.23147 0.0
H1413 H 0.87355 0.75733 0.2252 0.0
H1414 H 0.86653 0.78067 0.2396 0.0
H1415 H 0.85618 0.82189 0.21095 0.0
H1416 H 0.84064 0.8873 0.25248 0.0
H1417 H 0.85639 0.86788 0.23924 0.0
H1418 H 0.87204 0.82621 0.26614 0.0
C1419 C 0.8708 0.78187 0.22784 0.0
C1420 C 0.85994 0.82281 0.22291 0.0
C1421 C 0.87466 0.76849 0.21953 0.0
C1422 C 0.84252 0.87621 0.25809 0.0
C1423 C 0.85143 0.86503 0.25043 0.0
C1424 C 0.86857 0.82543 0.25408 0.0
C1425 C 0.87238 0.79661 0.22102 0.0
C1426 C 0.86847 0.81082 0.22991 0.0
C1427 C 0.8531 0.85005 0.2567 0.0
C1428 C 0.85959 0.8372 0.24722 0.0
H1429 H 0.88587 0.78556 0.1856 0.0
H1430 H 0.87906 0.80886 0.20009 0.0
H1431 H 0.87977 0.80344 0.25114 0.0
H1432 H 0.83253 0.855 0.29 0.0
H1433 H 0.84786 0.83554 0.27661 0.0
C1434 C 0.21539 0.87295 0.21004 0.0
C1435 C 0.22197 0.88784 0.21086 0.0
C1436 C 0.20155 0.86965 0.21779 0.0
C1437 C 0.17791 0.88232 0.25083 0.0
H1438 H 0.14733 0.85503 0.23229 0.0
C1439 C 0.11685 0.8474 0.26526 0.0
C1440 C 0.12139 0.84034 0.27927 0.0
C1441 C 0.12711 0.85707 0.25725 0.0
C1442 C 0.15557 0.86291 0.23758 0.0
H1443 H 0.21905 0.91102 0.2203 0.0
H1444 H 0.19487 0.90522 0.23381 0.0
H1445 H 0.16918 0.86401 0.21684 0.0
H1446 H 0.13961 0.83917 0.2966 0.0
H1447 H 0.15748 0.85589 0.28262 0.0
H1448 H 0.16441 0.88098 0.27166 0.0
C1449 C 0.20049 0.89609 0.22726 0.0
C1450 C 0.16822 0.86787 0.22877 0.0
C1451 C 0.21431 0.89941 0.21946 0.0
C1452 C 0.1358 0.84431 0.28578 0.0
C1453 C 0.14604 0.85398 0.27778 0.0
C1454 C 0.16526 0.87732 0.25967 0.0
C1455 C 0.194 0.88115 0.22657 0.0
C1456 C 0.17972 0.87732 0.2354 0.0
C1457 C 0.14207 0.85992 0.26311 0.0
C1458 C 0.15413 0.86727 0.25324 0.0
H1459 H 0.221 0.86378 0.20354 0.0
H1460 H 0.19696 0.85796 0.21722 0.0
H1461 H 0.18661 0.88956 0.25629 0.0
H1462 H 0.10577 0.8447 0.25999 0.0
H1463 H 0.12361 0.86174 0.24612 0.0
C1464 C 0.09232 0.78895 0.79068 0.0
C1465 C 0.09387 0.77372 0.78508 0.0
C1466 C 0.09625 0.80159 0.78133 0.0
C1467 C 0.12039 0.81148 0.74746 0.0
H1468 H 0.09882 0.8509 0.75016 0.0
C1469 C 0.14206 0.86406 0.71334 0.0
C1470 C 0.14457 0.87728 0.72256 0.0
C1471 C 0.13284 0.85189 0.71878 0.0
C1472 C 0.10493 0.83995 0.74928 0.0
H1473 H 0.10021 0.75981 0.76509 0.0
H1474 H 0.10677 0.78187 0.74866 0.0
H1475 H 0.08858 0.8283 0.76392 0.0
H1476 H 0.13829 0.88867 0.74412 0.0
H1477 H 0.12225 0.86741 0.7536 0.0
H1478 H 0.13687 0.82313 0.73306 0.0
C1479 C 0.10286 0.78405 0.7604 0.0
C1480 C 0.09912 0.82703 0.7572 0.0
C1481 C 0.09905 0.7714 0.7698 0.0
C1482 C 0.13666 0.8786 0.73677 0.0
C1483 C 0.12741 0.86644 0.74218 0.0
C1484 C 0.12613 0.82435 0.73948 0.0
C1485 C 0.1017 0.7993 0.76612 0.0
C1486 C 0.10695 0.81271 0.7566 0.0
C1487 C 0.12589 0.85272 0.7335 0.0
C1488 C 0.11862 0.83878 0.74051 0.0
H1489 H 0.08838 0.79112 0.80242 0.0
H1490 H 0.09543 0.81315 0.78621 0.0
H1491 H 0.12689 0.80074 0.74694 0.0
H1492 H 0.14784 0.86272 0.70226 0.0
H1493 H 0.13165 0.84156 0.71171 0.0
C1494 C 0.21807 0.10918 0.77583 0.0
C1495 C 0.23217 0.11191 0.76814 0.0
C1496 C 0.20396 0.11146 0.76821 0.0
C1497 C 0.1869 0.13174 0.73431 0.0
H1498 H 0.15073 0.10731 0.74533 0.0
C1499 C 0.12757 0.14535 0.70798 0.0
C1500 C 0.11674 0.14928 0.71953 0.0
C1501 C 0.141 0.13712 0.71183 0.0
C1502 C 0.16077 0.11413 0.74207 0.0
H1503 H 0.24259 0.11883 0.74633 0.0
H1504 H 0.21797 0.12236 0.73282 0.0
H1505 H 0.17609 0.10037 0.75591 0.0
H1506 H 0.11066 0.14633 0.74376 0.0
H1507 H 0.13395 0.13165 0.75039 0.0
H1508 H 0.17153 0.1455 0.72052 0.0
C1509 C 0.21776 0.11886 0.74488 0.0
C1510 C 0.17528 0.11027 0.74822 0.0
C1511 C 0.23189 0.1168 0.7526 0.0
C1512 C 0.11884 0.1435 0.73464 0.0
C1513 C 0.13215 0.13507 0.73843 0.0
C1514 C 0.17246 0.13543 0.72799 0.0
C1515 C 0.20359 0.1163 0.75261 0.0
C1516 C 0.18848 0.11928 0.74475 0.0
C1517 C 0.14368 0.13244 0.72722 0.0
C1518 C 0.1592 0.12689 0.73208 0.0
H1519 H 0.2179 0.10549 0.78784 0.0
H1520 H 0.19334 0.10972 0.77469 0.0
H1521 H 0.19668 0.13912 0.73152 0.0
H1522 H 0.12633 0.14967 0.69624 0.0
H1523 H 0.14968 0.1351 0.70296 0.0
C1524 C 0.89062 0.23336 0.77624 0.0
C1525 C 0.90106 0.2317 0.78866 0.0
C1526 C 0.88511 0.22031 0.76835 0.0
C1527 C 0.87838 0.17867 0.77403 0.0
H1528 H 0.87096 0.17892 0.72965 0.0
C1529 C 0.84831 0.12726 0.74391 0.0
C1530 C 0.83595 0.13155 0.73417 0.0
C1531 C 0.85905 0.13836 0.74891 0.0
C1532 C 0.87295 0.17868 0.74205 0.0
H1533 H 0.91425 0.21509 0.80225 0.0
H1534 H 0.90466 0.19235 0.78843 0.0
H1535 H 0.8844 0.20074 0.74174 0.0
H1536 H 0.82572 0.15061 0.72128 0.0
H1537 H 0.84428 0.1699 0.73008 0.0
H1538 H 0.86654 0.15688 0.77447 0.0
C1539 C 0.9006 0.20372 0.78492 0.0
C1540 C 0.88062 0.19118 0.74898 0.0
C1541 C 0.90613 0.21676 0.7928 0.0
C1542 C 0.83506 0.14694 0.72885 0.0
C1543 C 0.84579 0.158 0.73381 0.0
C1544 C 0.8707 0.16619 0.76712 0.0
C1545 C 0.88991 0.20533 0.77272 0.0
C1546 C 0.88315 0.19145 0.76509 0.0
C1547 C 0.85767 0.15393 0.74421 0.0
C1548 C 0.86762 0.16619 0.7511 0.0
H1549 H 0.88651 0.24471 0.77276 0.0
H1550 H 0.87672 0.22193 0.75913 0.0
H1551 H 0.87997 0.1786 0.7865 0.0
H1552 H 0.84936 0.11547 0.74816 0.0
H1553 H 0.86822 0.13483 0.75675 0.0
C1554 C 0.85276 0.83958 0.7163 0.0
C1555 C 0.86819 0.83956 0.72156 0.0
C1556 C 0.84205 0.85013 0.72228 0.0
C1557 C 0.83487 0.87198 0.7579 0.0
H1558 H 0.79978 0.88786 0.73462 0.0
C1559 C 0.78438 0.90418 0.78776 0.0
C1560 C 0.76948 0.89908 0.78352 0.0
C1561 C 0.79736 0.89972 0.77913 0.0
C1562 C 0.80951 0.88348 0.74127 0.0
H1563 H 0.88475 0.85127 0.73647 0.0
H1564 H 0.86601 0.86986 0.74683 0.0
H1565 H 0.82139 0.87576 0.72087 0.0
H1566 H 0.75646 0.88564 0.76667 0.0
H1567 H 0.77912 0.87777 0.7517 0.0
H1568 H 0.82282 0.87932 0.77831 0.0
C1569 C 0.86216 0.86152 0.73825 0.0
C1570 C 0.82189 0.87658 0.7334 0.0
C1571 C 0.87292 0.85095 0.73224 0.0
C1572 C 0.76779 0.88974 0.77026 0.0
C1573 C 0.78076 0.88533 0.76161 0.0
C1574 C 0.82252 0.87893 0.76575 0.0
C1575 C 0.84651 0.86094 0.73365 0.0
C1576 C 0.83453 0.87039 0.74166 0.0
C1577 C 0.79571 0.89014 0.76605 0.0
C1578 C 0.80954 0.88442 0.75755 0.0
H1579 H 0.84876 0.83101 0.70802 0.0
H1580 H 0.83008 0.84923 0.71857 0.0
H1581 H 0.8443 0.86714 0.76465 0.0
H1582 H 0.78608 0.91146 0.79786 0.0
H1583 H 0.80871 0.90373 0.78274 0.0
C1584 C 0.23014 0.11641 0.23693 0.0
C1585 C 0.21766 0.10607 0.23512 0.0
C1586 C 0.23891 0.12103 0.22408 0.0
C1587 C 0.23596 0.12483 0.18165 0.0
H1588 H 0.28036 0.13165 0.18404 0.0
C1589 C 0.26973 0.14856 0.12932 0.0
C1590 C 0.27946 0.16119 0.13275 0.0
C1591 C 0.26389 0.13923 0.14125 0.0
C1592 C 0.26796 0.12982 0.18321 0.0
H1593 H 0.20491 0.09209 0.21848 0.0
H1594 H 0.22027 0.10004 0.19616 0.0
H1595 H 0.26667 0.12048 0.20622 0.0
H1596 H 0.2915 0.17331 0.15125 0.0
H1597 H 0.28124 0.15717 0.17198 0.0
H1598 H 0.23711 0.13449 0.15884 0.0
C1599 C 0.22313 0.10478 0.20745 0.0
C1600 C 0.26012 0.12346 0.19592 0.0
C1601 C 0.21436 0.10019 0.22027 0.0
C1602 C 0.28396 0.16372 0.14822 0.0
C1603 C 0.27816 0.15439 0.16012 0.0
C1604 C 0.24378 0.13117 0.16897 0.0
C1605 C 0.23539 0.11539 0.20916 0.0
C1606 C 0.24399 0.12111 0.19535 0.0
C1607 C 0.26771 0.14231 0.15682 0.0
C1608 C 0.25983 0.13396 0.16968 0.0
H1609 H 0.23298 0.12114 0.24822 0.0
H1610 H 0.24816 0.12936 0.22577 0.0
H1611 H 0.22349 0.12339 0.1809 0.0
H1612 H 0.2661 0.14625 0.11751 0.0
H1613 H 0.25605 0.12985 0.13832 0.0
C1614 C 0.8317 0.27647 0.14746 0.0
C1615 C 0.8329 0.27257 0.13168 0.0
C1616 C 0.84206 0.27032 0.15828 0.0
C1617 C 0.86625 0.23594 0.16387 0.0
H1618 H 0.87995 0.25772 0.2008 0.0
C1619 C 0.90171 0.2052 0.21138 0.0
C1620 C 0.89704 0.20793 0.22676 0.0
C1621 C 0.896 0.21434 0.19928 0.0
C1622 C 0.87614 0.25147 0.19058 0.0
H1623 H 0.84651 0.2599 0.11471 0.0
H1624 H 0.86473 0.24925 0.13364 0.0
H1625 H 0.86681 0.27201 0.18014 0.0
H1626 H 0.88296 0.22263 0.24157 0.0
H1627 H 0.87279 0.23845 0.22039 0.0
H1628 H 0.87519 0.21535 0.17441 0.0
C1629 C 0.8556 0.25689 0.13765 0.0
C1630 C 0.86865 0.25965 0.17874 0.0
C1631 C 0.84522 0.26307 0.12681 0.0
C1632 C 0.88677 0.22022 0.22983 0.0
C1633 C 0.88103 0.22936 0.21771 0.0
C1634 C 0.87372 0.22777 0.17569 0.0
C1635 C 0.85388 0.26013 0.15356 0.0
C1636 C 0.86341 0.25193 0.16535 0.0
C1637 C 0.88546 0.2264 0.20228 0.0
C1638 C 0.87855 0.23539 0.18929 0.0
H1639 H 0.82237 0.28381 0.1516 0.0
H1640 H 0.84032 0.27296 0.17045 0.0
H1641 H 0.86212 0.22957 0.15385 0.0
H1642 H 0.90972 0.19592 0.20862 0.0
H1643 H 0.89981 0.21191 0.18755 0.0
C1644 C 0.76743 0.877 0.23104 0.0
C1645 C 0.78299 0.88168 0.22977 0.0
C1646 C 0.75913 0.87242 0.21787 0.0
C1647 C 0.75954 0.87618 0.17507 0.0
H1648 H 0.73167 0.84091 0.17633 0.0
C1649 C 0.73764 0.84396 0.12067 0.0
C1650 C 0.72256 0.83775 0.12087 0.0
C1651 C 0.74358 0.85153 0.13371 0.0
C1652 C 0.7392 0.85096 0.17585 0.0
H1653 H 0.80222 0.88469 0.2138 0.0
H1654 H 0.78787 0.8764 0.19095 0.0
H1655 H 0.74516 0.84887 0.19986 0.0
H1656 H 0.70149 0.83567 0.13451 0.0
H1657 H 0.71187 0.84897 0.15722 0.0
H1658 H 0.75384 0.87802 0.15095 0.0
C1659 C 0.78194 0.87663 0.20203 0.0
C1660 C 0.74696 0.8555 0.18934 0.0
C1661 C 0.79021 0.88125 0.21516 0.0
C1662 C 0.71319 0.84021 0.134 0.0
C1663 C 0.71916 0.84773 0.14706 0.0
C1664 C 0.75182 0.87161 0.16158 0.0
C1665 C 0.76624 0.87239 0.20318 0.0
C1666 C 0.75738 0.86803 0.18906 0.0
C1667 C 0.73458 0.85302 0.14723 0.0
C1668 C 0.7417 0.85884 0.16178 0.0
H1669 H 0.76152 0.87729 0.24213 0.0
H1670 H 0.74702 0.8693 0.21914 0.0
H1671 H 0.76725 0.88609 0.17454 0.0
H1672 H 0.74515 0.8423 0.11073 0.0
H1673 H 0.75553 0.85542 0.13349 0.0
C1674 C 0.11181 0.7728 0.23555 0.0
C1675 C 0.10121 0.78517 0.23502 0.0
C1676 C 0.11652 0.76545 0.22191 0.0
C1677 C 0.12076 0.77245 0.18024 0.0
H1678 H 0.12726 0.72795 0.1785 0.0
C1679 C 0.14794 0.74395 0.12647 0.0
C1680 C 0.1603 0.73387 0.12985 0.0
C1681 C 0.13771 0.7486 0.13817 0.0
C1682 C 0.12551 0.74039 0.17881 0.0
H1683 H 0.08703 0.79936 0.21977 0.0
H1684 H 0.09531 0.78651 0.19596 0.0
H1685 H 0.1153 0.73948 0.20145 0.0
H1686 H 0.17102 0.71997 0.14792 0.0
H1687 H 0.15339 0.72819 0.16827 0.0
H1688 H 0.13144 0.77349 0.15789 0.0
C1689 C 0.10004 0.78259 0.20693 0.0
C1690 C 0.11869 0.74699 0.19195 0.0
C1691 C 0.09528 0.78991 0.22057 0.0
C1692 C 0.16167 0.72783 0.14493 0.0
C1693 C 0.15147 0.73246 0.15661 0.0
C1694 C 0.12761 0.76587 0.16713 0.0
C1695 C 0.11077 0.77033 0.20744 0.0
C1696 C 0.11654 0.76312 0.19293 0.0
C1697 C 0.13963 0.74322 0.15346 0.0
C1698 C 0.13038 0.74981 0.1664 0.0
H1699 H 0.11656 0.76885 0.2465 0.0
H1700 H 0.12497 0.75617 0.22266 0.0
H1701 H 0.1194 0.78494 0.18072 0.0
H1702 H 0.1465 0.74873 0.11493 0.0
H1703 H 0.12855 0.75673 0.13535 0.0
C1704 C 0.20948 0.88994 0.77027 0.0
C1705 C 0.21282 0.8844 0.75531 0.0
C1706 C 0.2183 0.88514 0.78299 0.0
C1707 C 0.24507 0.85386 0.79539 0.0
H1708 H 0.25255 0.88147 0.83016 0.0
C1709 C 0.28173 0.83475 0.84748 0.0
C1710 C 0.27414 0.8362 0.86185 0.0
C1711 C 0.27609 0.84245 0.83439 0.0
C1712 C 0.25054 0.87366 0.82051 0.0
H1713 H 0.22827 0.8698 0.74187 0.0
H1714 H 0.24396 0.86177 0.76397 0.0
H1715 H 0.23923 0.89123 0.80711 0.0
H1716 H 0.25537 0.84776 0.87399 0.0
H1717 H 0.24563 0.86137 0.8511 0.0
H1718 H 0.25646 0.83635 0.80879 0.0
C1719 C 0.23426 0.86949 0.76598 0.0
C1720 C 0.24284 0.87919 0.80734 0.0
C1721 C 0.22531 0.87414 0.75329 0.0
C1722 C 0.26143 0.84635 0.86307 0.0
C1723 C 0.25588 0.85418 0.84999 0.0
C1724 C 0.25292 0.84841 0.80846 0.0
C1725 C 0.23079 0.87483 0.78103 0.0
C1726 C 0.23982 0.8693 0.79468 0.0
C1727 C 0.26286 0.85189 0.83544 0.0
C1728 C 0.25558 0.8582 0.82121 0.0
H1729 H 0.19988 0.89781 0.77222 0.0
H1730 H 0.21507 0.88927 0.79441 0.0
H1731 H 0.24271 0.84579 0.78605 0.0
H1732 H 0.2916 0.82709 0.84613 0.0
H1733 H 0.2818 0.84065 0.82333 0.0
C1734 C 0.09702 0.20732 0.78432 0.0
C1735 C 0.10308 0.21094 0.76961 0.0
C1736 C 0.10194 0.21541 0.79748 0.0
C1737 C 0.121 0.25164 0.81013 0.0
H1738 H 0.1329 0.22751 0.8462 0.0
C1739 C 0.16259 0.27437 0.85691 0.0
C1740 C 0.16086 0.26936 0.87233 0.0
C1741 C 0.15281 0.26877 0.84529 0.0
C1742 C 0.12932 0.23449 0.83638 0.0
H1743 H 0.11888 0.22606 0.75715 0.0
H1744 H 0.12752 0.24013 0.78014 0.0
H1745 H 0.1212 0.21457 0.82398 0.0
H1746 H 0.1469 0.25527 0.88783 0.0
H1747 H 0.12965 0.24561 0.86749 0.0
H1748 H 0.12939 0.27153 0.82241 0.0
C1749 C 0.11887 0.23111 0.78147 0.0
C1750 C 0.12266 0.22705 0.82361 0.0
C1751 C 0.11401 0.22297 0.76831 0.0
C1752 C 0.14858 0.25929 0.87604 0.0
C1753 C 0.13877 0.25367 0.86437 0.0
C1754 C 0.1276 0.2591 0.82292 0.0
C1755 C 0.11295 0.22736 0.7962 0.0
C1756 C 0.11872 0.2355 0.81023 0.0
C1757 C 0.14104 0.25805 0.84881 0.0
C1758 C 0.13215 0.25056 0.83607 0.0
H1759 H 0.08853 0.19815 0.78571 0.0
H1760 H 0.09707 0.21235 0.80866 0.0
H1761 H 0.11782 0.25849 0.80008 0.0
H1762 H 0.17189 0.28217 0.85367 0.0
H1763 H 0.15502 0.27228 0.83342 0.0
C1764 C 0.77729 0.11045 0.77989 0.0
C1765 C 0.77021 0.11372 0.76558 0.0
C1766 C 0.76947 0.1132 0.79379 0.0
C1767 C 0.73659 0.13568 0.81004 0.0
H1768 H 0.74521 0.11059 0.84643 0.0
C1769 C 0.7098 0.15052 0.86899 0.0
C1770 C 0.72131 0.15374 0.8801 0.0
C1771 C 0.71349 0.14226 0.85554 0.0
C1772 C 0.74262 0.1176 0.83632 0.0
H1773 H 0.74921 0.12212 0.75459 0.0
H1774 H 0.73529 0.12648 0.77885 0.0
H1775 H 0.75581 0.10294 0.82129 0.0
H1776 H 0.74525 0.14961 0.88658 0.0
H1777 H 0.75158 0.13484 0.86325 0.0
H1778 H 0.72341 0.15032 0.82514 0.0
C1779 C 0.74708 0.12217 0.77938 0.0
C1780 C 0.74879 0.11333 0.82194 0.0
C1781 C 0.75503 0.11963 0.76545 0.0
C1782 C 0.73617 0.14732 0.87819 0.0
C1783 C 0.73978 0.13884 0.86486 0.0
C1784 C 0.73023 0.13979 0.82436 0.0
C1785 C 0.75424 0.11908 0.79375 0.0
C1786 C 0.74621 0.12256 0.80868 0.0
C1787 C 0.72866 0.13684 0.85311 0.0
C1788 C 0.73348 0.131 0.83769 0.0
H1789 H 0.78903 0.10598 0.78038 0.0
H1790 H 0.77554 0.11102 0.80457 0.0
H1791 H 0.73451 0.14322 0.80021 0.0
H1792 H 0.69826 0.15537 0.87009 0.0
H1793 H 0.7047 0.14076 0.84668 0.0
C1794 C 0.85109 0.74148 0.87019 0.0
C1795 C 0.84446 0.72659 0.86948 0.0
C1796 C 0.8596 0.74728 0.85766 0.0
C1797 C 0.861 0.74347 0.81562 0.0
H1798 H 0.8974 0.7697 0.8188 0.0
C1799 C 0.88811 0.77244 0.76168 0.0
C1800 C 0.89307 0.78787 0.76344 0.0
C1801 C 0.88394 0.76363 0.77465 0.0
C1802 C 0.88716 0.7625 0.81773 0.0
H1803 H 0.8425 0.70571 0.85553 0.0
H1804 H 0.85735 0.71587 0.83371 0.0
H1805 H 0.88767 0.75637 0.84184 0.0
H1806 H 0.89754 0.80616 0.78015 0.0
H1807 H 0.88988 0.79097 0.80266 0.0
H1808 H 0.86006 0.74997 0.79171 0.0
C1809 C 0.85578 0.72311 0.84386 0.0
C1810 C 0.88164 0.75482 0.83092 0.0
C1811 C 0.84735 0.71727 0.85641 0.0
C1812 C 0.89382 0.79428 0.7784 0.0
C1813 C 0.88955 0.78552 0.79134 0.0
C1814 C 0.86643 0.75122 0.80247 0.0
C1815 C 0.86159 0.73833 0.84417 0.0
C1816 C 0.8684 0.74537 0.83002 0.0
C1817 C 0.88454 0.77008 0.78964 0.0
C1818 C 0.87946 0.76099 0.8034 0.0
H1819 H 0.84913 0.74894 0.88011 0.0
H1820 H 0.86388 0.75909 0.85821 0.0
H1821 H 0.85061 0.73647 0.81461 0.0
H1822 H 0.88753 0.76713 0.7503 0.0
H1823 H 0.88033 0.75171 0.77292 0.0
C1824 C 0.14558 0.27353 0.15328 0.0
C1825 C 0.13053 0.26757 0.1512 0.0
C1826 C 0.1579 0.26804 0.14433 0.0
C1827 C 0.16924 0.23267 0.12389 0.0
H1828 H 0.20492 0.25707 0.11135 0.0
C1829 C 0.22192 0.20428 0.09472 0.0
C1830 C 0.23659 0.20879 0.10023 0.0
C1831 C 0.20868 0.21266 0.09876 0.0
C1832 C 0.19506 0.25011 0.11487 0.0
H1833 H 0.11642 0.25205 0.13729 0.0
H1834 H 0.13794 0.2426 0.12152 0.0
H1835 H 0.18187 0.27011 0.12154 0.0
H1836 H 0.24894 0.22588 0.11396 0.0
H1837 H 0.22572 0.2404 0.12127 0.0
H1838 H 0.18247 0.21268 0.11764 0.0
C1839 C 0.14024 0.25129 0.1303 0.0
C1840 C 0.18186 0.25757 0.12066 0.0
C1841 C 0.12789 0.25677 0.13928 0.0
C1842 C 0.23779 0.2221 0.10957 0.0
C1843 C 0.22451 0.23048 0.11366 0.0
C1844 C 0.1824 0.22524 0.11813 0.0
C1845 C 0.15545 0.2565 0.13308 0.0
C1846 C 0.16888 0.2489 0.12541 0.0
C1847 C 0.20978 0.22572 0.10845 0.0
C1848 C 0.19553 0.23384 0.11371 0.0
H1849 H 0.148 0.28192 0.16232 0.0
H1850 H 0.16948 0.27223 0.14684 0.0
H1851 H 0.15958 0.22562 0.12775 0.0
H1852 H 0.22061 0.19418 0.08735 0.0
H1853 H 0.19755 0.20885 0.09434 0.0
C1854 C 0.23048 0.77118 0.88763 0.0
C1855 C 0.23945 0.77797 0.87579 0.0
C1856 C 0.21642 0.76388 0.88415 0.0
C1857 C 0.18555 0.76492 0.85496 0.0
H1858 H 0.17146 0.72681 0.87434 0.0
C1859 C 0.13484 0.71762 0.84361 0.0
C1860 C 0.1225 0.72779 0.84039 0.0
C1861 C 0.14853 0.72315 0.85032 0.0
C1862 C 0.17525 0.73746 0.86885 0.0
H1863 H 0.24105 0.78174 0.85096 0.0
H1864 H 0.21656 0.76892 0.8449 0.0
H1865 H 0.19737 0.73685 0.88023 0.0
H1866 H 0.11432 0.75147 0.84301 0.0
H1867 H 0.13812 0.76105 0.85489 0.0
H1868 H 0.16367 0.76546 0.84335 0.0
C1869 C 0.2203 0.76946 0.85689 0.0
C1870 C 0.19003 0.74325 0.87228 0.0
C1871 C 0.23438 0.77671 0.86035 0.0
C1872 C 0.12367 0.74335 0.84517 0.0
C1873 C 0.13735 0.74887 0.85187 0.0
C1874 C 0.1708 0.7592 0.85161 0.0
C1875 C 0.21101 0.76327 0.86879 0.0
C1876 C 0.19538 0.75698 0.86526 0.0
C1877 C 0.15014 0.73897 0.85397 0.0
C1878 C 0.16548 0.74538 0.85845 0.0
H1879 H 0.23407 0.7719 0.89965 0.0
H1880 H 0.20949 0.75928 0.89358 0.0
H1881 H 0.18923 0.77565 0.84954 0.0
H1882 H 0.1343 0.70555 0.84014 0.0
H1883 H 0.15818 0.71523 0.85176 0.0
C1884 C 0.22663 0.23148 0.89155 0.0
C1885 C 0.21163 0.22879 0.89732 0.0
C1886 C 0.23576 0.21912 0.88631 0.0
C1887 C 0.2389 0.17603 0.88744 0.0
H1888 H 0.26098 0.18159 0.84865 0.0
C1889 C 0.25603 0.126 0.84655 0.0
C1890 C 0.26999 0.12719 0.8382 0.0
C1891 C 0.2513 0.13798 0.85638 0.0
C1892 C 0.25513 0.17991 0.85965 0.0
H1893 H 0.19447 0.21102 0.90224 0.0
H1894 H 0.21017 0.18961 0.89281 0.0
H1895 H 0.24807 0.20366 0.86059 0.0
H1896 H 0.29046 0.1414 0.83449 0.0
H1897 H 0.28216 0.1623 0.85167 0.0
H1898 H 0.2455 0.15209 0.88609 0.0
C1899 C 0.21507 0.20118 0.89261 0.0
C1900 C 0.24772 0.19257 0.8665 0.0
C1901 C 0.206 0.2135 0.89789 0.0
C1902 C 0.27958 0.14017 0.84066 0.0
C1903 C 0.2748 0.15218 0.85043 0.0
C1904 C 0.24624 0.16334 0.88052 0.0
C1905 C 0.23004 0.20383 0.8867 0.0
C1906 C 0.23926 0.19073 0.88032 0.0
C1907 C 0.26041 0.15141 0.85804 0.0
C1908 C 0.2542 0.1651 0.86641 0.0
H1909 H 0.23134 0.24313 0.89107 0.0
H1910 H 0.2473 0.22155 0.88199 0.0
H1911 H 0.23274 0.17428 0.89825 0.0
H1912 H 0.24841 0.11613 0.84497 0.0
H1913 H 0.24011 0.13709 0.86202 0.0
C1914 C 0.77157 0.22728 0.88691 0.0
C1915 C 0.77277 0.21432 0.89673 0.0
C1916 C 0.78479 0.23568 0.88275 0.0
C1917 C 0.82669 0.23142 0.87802 0.0
H1918 H 0.82598 0.27633 0.87517 0.0
C1919 C 0.87817 0.26465 0.85179 0.0
C1920 C 0.87388 0.27549 0.84039 0.0
C1921 C 0.86708 0.2587 0.86205 0.0
C1922 C 0.82636 0.26379 0.87589 0.0
H1923 H 0.78876 0.2001 0.91001 0.0
H1924 H 0.81185 0.21472 0.90262 0.0
H1925 H 0.80383 0.26263 0.88631 0.0
H1926 H 0.85486 0.28944 0.83155 0.0
H1927 H 0.8356 0.27898 0.84918 0.0
H1928 H 0.84889 0.23246 0.86704 0.0
C1929 C 0.80068 0.21834 0.89813 0.0
C1930 C 0.81368 0.25596 0.88225 0.0
C1931 C 0.78745 0.21 0.90238 0.0
C1932 C 0.85854 0.28102 0.84013 0.0
C1933 C 0.84749 0.27509 0.85035 0.0
C1934 C 0.83934 0.23924 0.87158 0.0
C1935 C 0.79949 0.23125 0.88824 0.0
C1936 C 0.81357 0.23967 0.88306 0.0
C1937 C 0.85151 0.26351 0.86111 0.0
C1938 C 0.83917 0.2555 0.8701 0.0
H1939 H 0.76043 0.23093 0.88239 0.0
H1940 H 0.78354 0.24545 0.87493 0.0
H1941 H 0.82689 0.21886 0.87836 0.0
H1942 H 0.88992 0.26022 0.85234 0.0
H1943 H 0.8706 0.24997 0.87038 0.0
C1944 C 0.71194 0.85965 0.84411 0.0
C1945 C 0.72228 0.87167 0.84029 0.0
C1946 C 0.71718 0.8465 0.85202 0.0
C1947 C 0.73466 0.81614 0.85522 0.0
H1948 H 0.7667 0.81624 0.88681 0.0
C1949 C 0.77574 0.76438 0.86516 0.0
C1950 C 0.77997 0.76071 0.88047 0.0
C1951 C 0.76692 0.77763 0.86203 0.0
C1952 C 0.75761 0.81598 0.87813 0.0
H1953 H 0.74594 0.87989 0.84292 0.0
H1954 H 0.75507 0.85697 0.85661 0.0
H1955 H 0.75404 0.84053 0.87964 0.0
H1956 H 0.77792 0.76787 0.90455 0.0
H1957 H 0.76249 0.79091 0.89905 0.0
H1958 H 0.73835 0.79164 0.85357 0.0
C1959 C 0.74291 0.85767 0.85353 0.0
C1960 C 0.75046 0.82992 0.87393 0.0
C1961 C 0.73768 0.8708 0.8456 0.0
C1962 C 0.77493 0.7704 0.8926 0.0
C1963 C 0.76614 0.78365 0.88946 0.0
C1964 C 0.74184 0.80222 0.85938 0.0
C1965 C 0.73286 0.84513 0.85633 0.0
C1966 C 0.73909 0.83019 0.86224 0.0
C1967 C 0.76215 0.78749 0.87413 0.0
C1968 C 0.75359 0.80203 0.87067 0.0
H1969 H 0.69997 0.86 0.84031 0.0
H1970 H 0.70909 0.83715 0.85428 0.0
H1971 H 0.72608 0.81596 0.84603 0.0
H1972 H 0.77944 0.75718 0.85556 0.0
H1973 H 0.7642 0.78037 0.85007 0.0
C1974 C 0.76927 0.77151 0.09788 0.0
C1975 C 0.76163 0.77989 0.10963 0.0
C1976 C 0.78343 0.76419 0.10085 0.0
C1977 C 0.81673 0.76577 0.1276 0.0
H1978 H 0.82502 0.72384 0.1135 0.0
C1979 C 0.85773 0.7134 0.14812 0.0
C1980 C 0.87119 0.72193 0.15162 0.0
C1981 C 0.84601 0.7199 0.13902 0.0
C1982 C 0.8229 0.73559 0.11744 0.0
H1983 H 0.76272 0.78684 0.1338 0.0
H1984 H 0.78733 0.77397 0.13901 0.0
H1985 H 0.80054 0.73642 0.10657 0.0
H1986 H 0.88372 0.74322 0.14673 0.0
H1987 H 0.86338 0.75445 0.13061 0.0
H1988 H 0.83866 0.7648 0.13903 0.0
C1989 C 0.78249 0.77326 0.12743 0.0
C1990 C 0.80893 0.74282 0.1134 0.0
C1991 C 0.76832 0.78054 0.12448 0.0
C1992 C 0.87341 0.73641 0.14444 0.0
C1993 C 0.8617 0.74291 0.1353 0.0
C1994 C 0.83066 0.75858 0.1316 0.0
C1995 C 0.79029 0.76515 0.11561 0.0
C1996 C 0.80556 0.75786 0.11875 0.0
C1997 C 0.84756 0.73505 0.13315 0.0
C1998 C 0.8338 0.7433 0.12684 0.0
H1999 H 0.76442 0.77078 0.08631 0.0
H2000 H 0.7892 0.75809 0.0915 0.0
H2001 H 0.81458 0.77747 0.13167 0.0
H2002 H 0.85571 0.70214 0.15334 0.0
H2003 H 0.83529 0.71352 0.13761 0.0
C2004 C 0.24106 0.76361 0.11987 0.0
C2005 C 0.22646 0.76446 0.11266 0.0
C2006 C 0.24916 0.77718 0.12365 0.0
C2007 C 0.25009 0.81976 0.11572 0.0
H2008 H 0.26998 0.82181 0.15601 0.0
C2009 C 0.26069 0.87625 0.14987 0.0
C2010 C 0.27418 0.87745 0.15895 0.0
C2011 C 0.2576 0.86272 0.14149 0.0
C2012 C 0.26474 0.82135 0.14459 0.0
H2013 H 0.20892 0.78021 0.10378 0.0
H2014 H 0.22275 0.8037 0.11072 0.0
H2015 H 0.25922 0.7973 0.14703 0.0
H2016 H 0.2956 0.86584 0.16538 0.0
H2017 H 0.29013 0.84222 0.15079 0.0
H2018 H 0.25502 0.84406 0.11368 0.0
C2019 C 0.2282 0.79263 0.11312 0.0
C2020 C 0.25857 0.80728 0.13943 0.0
C2021 C 0.22018 0.77912 0.10926 0.0
C2022 C 0.28504 0.86528 0.15858 0.0
C2023 C 0.28189 0.8517 0.1503 0.0
C2024 C 0.25615 0.83386 0.12095 0.0
C2025 C 0.24279 0.79186 0.12037 0.0
C2026 C 0.25087 0.80638 0.12507 0.0
C2027 C 0.26791 0.8501 0.14208 0.0
C2028 C 0.26328 0.83486 0.13556 0.0
H2029 H 0.24626 0.75249 0.12254 0.0
H2030 H 0.26044 0.77615 0.12909 0.0
H2031 H 0.24455 0.81941 0.10444 0.0
H2032 H 0.25211 0.88544 0.14986 0.0
H2033 H 0.24669 0.8618 0.13531 0.0
C2034 C 0.73569 0.12287 0.13996 0.0
C2035 C 0.72139 0.12555 0.14729 0.0
C2036 C 0.74246 0.13435 0.13074 0.0
C2037 C 0.73592 0.17352 0.11307 0.0
H2038 H 0.7795 0.17883 0.12295 0.0
C2039 C 0.76904 0.23165 0.10634 0.0
C2040 C 0.78418 0.23094 0.10033 0.0
C2041 C 0.76085 0.21801 0.10962 0.0
C2042 C 0.76739 0.17741 0.11988 0.0
H2043 H 0.70238 0.14188 0.14969 0.0
H2044 H 0.71433 0.16201 0.13401 0.0
H2045 H 0.76591 0.1559 0.13201 0.0
H2046 H 0.8025 0.21538 0.09282 0.0
H2047 H 0.78827 0.19167 0.09866 0.0
H2048 H 0.73742 0.1955 0.10147 0.0
C2049 C 0.72029 0.15101 0.13515 0.0
C2050 C 0.75959 0.16419 0.125 0.0
C2051 C 0.71343 0.13944 0.14421 0.0
C2052 C 0.79088 0.21634 0.0975 0.0
C2053 C 0.78276 0.20275 0.10088 0.0
C2054 C 0.74373 0.18684 0.10805 0.0
C2055 C 0.73517 0.14884 0.12882 0.0
C2056 C 0.7437 0.16213 0.12182 0.0
C2057 C 0.76771 0.20343 0.10707 0.0
C2058 C 0.75951 0.18898 0.11155 0.0
H2059 H 0.74202 0.11219 0.14195 0.0
H2060 H 0.75374 0.13212 0.12567 0.0
H2061 H 0.72375 0.17223 0.11023 0.0
H2062 H 0.76353 0.24272 0.1086 0.0
H2063 H 0.74932 0.21889 0.11454 0.0
C2064 C 0.65053 0.62719 0.75727 0.0
C2065 C 0.65571 0.62686 0.77274 0.0
C2066 C 0.64292 0.64025 0.75142 0.0
C2067 C 0.64136 0.68217 0.75799 0.0
H2068 H 0.60926 0.68086 0.72649 0.0
C2069 C 0.62952 0.73322 0.71643 0.0
C2070 C 0.61403 0.73655 0.71262 0.0
C2071 C 0.63318 0.72006 0.72518 0.0
C2072 C 0.6181 0.68145 0.7354 0.0
H2073 H 0.65594 0.63953 0.7945 0.0
H2074 H 0.6425 0.66226 0.78431 0.0
H2075 H 0.6169 0.657 0.7397 0.0
H2076 H 0.59019 0.72883 0.71526 0.0
H2077 H 0.5966 0.70594 0.73057 0.0
H2078 H 0.64263 0.70659 0.75365 0.0
C2079 C 0.64461 0.65253 0.77664 0.0
C2080 C 0.62256 0.66776 0.74287 0.0
C2081 C 0.65222 0.63946 0.78249 0.0
C2082 C 0.60226 0.72656 0.71793 0.0
C2083 C 0.60593 0.7134 0.72664 0.0
C2084 C 0.63692 0.69584 0.7505 0.0
C2085 C 0.64031 0.65326 0.76092 0.0
C2086 C 0.6344 0.66793 0.75409 0.0
C2087 C 0.62143 0.70994 0.73028 0.0
C2088 C 0.62541 0.6956 0.73897 0.0
H2089 H 0.65299 0.61767 0.74944 0.0
H2090 H 0.63985 0.64047 0.73924 0.0
H2091 H 0.65064 0.68269 0.76644 0.0
H2092 H 0.63886 0.74066 0.71251 0.0
H2093 H 0.64526 0.71761 0.72762 0.0
C2094 C 0.27571 0.60856 0.72135 0.0
C2095 C 0.27251 0.61601 0.70719 0.0
C2096 C 0.2889 0.61244 0.72991 0.0
C2097 C 0.32706 0.63216 0.72678 0.0
H2098 H 0.32293 0.63615 0.77141 0.0
C2099 C 0.35872 0.66702 0.77894 0.0
C2100 C 0.37436 0.66475 0.77498 0.0
C2101 C 0.34708 0.65828 0.77187 0.0
C2102 C 0.32429 0.63507 0.75896 0.0
H2103 H 0.28065 0.63338 0.69091 0.0
H2104 H 0.30348 0.64045 0.70604 0.0
H2105 H 0.30098 0.62712 0.75613 0.0
H2106 H 0.39016 0.65083 0.7612 0.0
H2107 H 0.36978 0.63536 0.74895 0.0
H2108 H 0.35011 0.6409 0.72954 0.0
C2109 C 0.29597 0.63136 0.71038 0.0
C2110 C 0.31174 0.62974 0.7502 0.0
C2111 C 0.28281 0.62741 0.70176 0.0
C2112 C 0.3782 0.6529 0.76445 0.0
C2113 C 0.36652 0.64413 0.75735 0.0
C2114 C 0.33958 0.63756 0.73554 0.0
C2115 C 0.29916 0.62393 0.72457 0.0
C2116 C 0.31288 0.62849 0.73397 0.0
C2117 C 0.35081 0.64702 0.76068 0.0
C2118 C 0.33824 0.63936 0.7517 0.0
H2119 H 0.26808 0.59962 0.72581 0.0
H2120 H 0.29112 0.60633 0.74067 0.0
H2121 H 0.32841 0.63108 0.71433 0.0
H2122 H 0.35536 0.67602 0.78705 0.0
H2123 H 0.33512 0.66095 0.77461 0.0
C2124 C 0.36743 0.26491 0.70901 0.0
C2125 C 0.38242 0.25878 0.71075 0.0
C2126 C 0.36314 0.27847 0.71678 0.0
C2127 C 0.37305 0.30319 0.75018 0.0
H2128 H 0.34879 0.33385 0.7279 0.0
C2129 C 0.34312 0.36788 0.75832 0.0
C2130 C 0.33518 0.36535 0.77234 0.0
C2131 C 0.35162 0.35591 0.75143 0.0
C2132 C 0.35576 0.32553 0.73424 0.0
H2133 H 0.40462 0.26195 0.72224 0.0
H2134 H 0.39711 0.28563 0.7358 0.0
H2135 H 0.35777 0.3107 0.71444 0.0
H2136 H 0.33095 0.34867 0.79072 0.0
H2137 H 0.34568 0.32783 0.77868 0.0
H2138 H 0.37093 0.31803 0.77002 0.0
C2139 C 0.38866 0.2799 0.72847 0.0
C2140 C 0.36071 0.31215 0.72657 0.0
C2141 C 0.39297 0.26636 0.72064 0.0
C2142 C 0.33685 0.35098 0.77987 0.0
C2143 C 0.34537 0.33903 0.773 0.0
C2144 C 0.36804 0.31656 0.75787 0.0
C2145 C 0.37374 0.28617 0.72651 0.0
C2146 C 0.36921 0.30073 0.73451 0.0
C2147 C 0.35241 0.34121 0.75845 0.0
C2148 C 0.35917 0.32779 0.75003 0.0
H2149 H 0.35902 0.25933 0.70151 0.0
H2150 H 0.35148 0.28288 0.71524 0.0
H2151 H 0.37954 0.29456 0.75662 0.0
H2152 H 0.34216 0.37886 0.75226 0.0
H2153 H 0.35715 0.35802 0.74034 0.0
C2154 C 0.63706 0.34412 0.78828 0.0
C2155 C 0.62467 0.34281 0.77774 0.0
C2156 C 0.65067 0.35184 0.78403 0.0
C2157 C 0.68092 0.35546 0.76652 0.0
H2158 H 0.68286 0.39144 0.73958 0.0
C2159 C 0.73218 0.36717 0.72534 0.0
C2160 C 0.73697 0.38258 0.72308 0.0
C2161 C 0.71908 0.36387 0.73431 0.0
C2162 C 0.68256 0.3815 0.74727 0.0
H2163 H 0.61635 0.34974 0.755 0.0
H2164 H 0.64007 0.36309 0.74759 0.0
H2165 H 0.65828 0.38435 0.75172 0.0
H2166 H 0.73206 0.4066 0.7289 0.0
H2167 H 0.70927 0.40081 0.7446 0.0
H2168 H 0.70514 0.35248 0.76191 0.0
C2169 C 0.63931 0.35818 0.75913 0.0
C2170 C 0.66845 0.37737 0.75411 0.0
C2171 C 0.62571 0.35045 0.76337 0.0
C2172 C 0.72864 0.39459 0.73034 0.0
C2173 C 0.71553 0.3913 0.73928 0.0
C2174 C 0.69501 0.35957 0.75966 0.0
C2175 C 0.65214 0.35846 0.7692 0.0
C2176 C 0.66741 0.36413 0.76357 0.0
C2177 C 0.71049 0.37592 0.7412 0.0
C2178 C 0.69592 0.37245 0.74971 0.0
H2179 H 0.63659 0.33849 0.79951 0.0
H2180 H 0.66026 0.35213 0.79215 0.0
H2181 H 0.6805 0.34508 0.7736 0.0
H2182 H 0.73833 0.35765 0.71991 0.0
H2183 H 0.7154 0.35191 0.73542 0.0
C2184 C 0.64076 0.37448 0.24376 0.0
C2185 C 0.64813 0.372 0.22942 0.0
C2186 C 0.63034 0.36353 0.24964 0.0
C2187 C 0.62478 0.32178 0.24779 0.0
H2188 H 0.58895 0.32974 0.27379 0.0
C2189 C 0.59455 0.27204 0.27999 0.0
C2190 C 0.59045 0.27486 0.29551 0.0
C2191 C 0.59881 0.28425 0.27025 0.0
C2192 C 0.59899 0.32735 0.26662 0.0
H2193 H 0.64918 0.35687 0.20932 0.0
H2194 H 0.63093 0.33785 0.21954 0.0
H2195 H 0.6007 0.35103 0.25914 0.0
H2196 H 0.58721 0.29276 0.31289 0.0
H2197 H 0.59512 0.31406 0.29603 0.0
H2198 H 0.62362 0.29835 0.25566 0.0
C2199 C 0.63346 0.34809 0.22638 0.0
C2200 C 0.60566 0.33952 0.25819 0.0
C2201 C 0.64386 0.35903 0.2205 0.0
C2202 C 0.59032 0.29022 0.30098 0.0
C2203 C 0.59474 0.30244 0.29127 0.0
C2204 C 0.6182 0.30967 0.25625 0.0
C2205 C 0.62709 0.34991 0.24128 0.0
C2206 C 0.61875 0.33689 0.24884 0.0
C2207 C 0.59925 0.29957 0.27584 0.0
C2208 C 0.60535 0.31232 0.26594 0.0
H2209 H 0.64371 0.3844 0.25089 0.0
H2210 H 0.62566 0.36525 0.26118 0.0
H2211 H 0.63506 0.31941 0.24095 0.0
H2212 H 0.59457 0.26035 0.27535 0.0
H2213 H 0.60191 0.28165 0.25835 0.0
C2214 C 0.72797 0.60111 0.27711 0.0
C2215 C 0.73905 0.61277 0.27984 0.0
C2216 C 0.71423 0.60448 0.26922 0.0
C2217 C 0.69542 0.63353 0.24376 0.0
H2218 H 0.6574 0.61773 0.26194 0.0
C2219 C 0.62748 0.65141 0.24492 0.0
C2220 C 0.62512 0.65483 0.22914 0.0
C2221 C 0.6408 0.64355 0.24972 0.0
C2222 C 0.66791 0.62219 0.2567 0.0
H2223 H 0.74459 0.63703 0.27602 0.0
H2224 H 0.72051 0.64295 0.26238 0.0
H2225 H 0.68236 0.60994 0.27274 0.0
H2226 H 0.63439 0.65173 0.20594 0.0
H2227 H 0.6576 0.63788 0.21435 0.0
H2228 H 0.68097 0.6463 0.22815 0.0
C2229 C 0.72253 0.63115 0.26621 0.0
C2230 C 0.68222 0.61763 0.26279 0.0
C2231 C 0.73629 0.62778 0.27411 0.0
C2232 C 0.6359 0.64937 0.21819 0.0
C2233 C 0.64926 0.64153 0.22301 0.0
C2234 C 0.68111 0.63808 0.23765 0.0
C2235 C 0.71125 0.61958 0.26387 0.0
C2236 C 0.69613 0.62345 0.25656 0.0
C2237 C 0.65207 0.63894 0.23887 0.0
C2238 C 0.66719 0.63267 0.24423 0.0
H2239 H 0.72978 0.58938 0.28127 0.0
H2240 H 0.70588 0.59526 0.2674 0.0
H2241 H 0.70593 0.63807 0.23858 0.0
H2242 H 0.61939 0.65541 0.25366 0.0
H2243 H 0.64266 0.64184 0.26204 0.0
C2244 C 0.34511 0.63458 0.20633 0.0
C2245 C 0.34121 0.62211 0.21611 0.0
C2246 C 0.35517 0.6462 0.21147 0.0
C2247 C 0.38265 0.65794 0.24238 0.0
H2248 H 0.36147 0.69753 0.23933 0.0
C2249 C 0.39555 0.70866 0.28396 0.0
C2250 C 0.39399 0.72395 0.27855 0.0
C2251 C 0.39158 0.69613 0.27448 0.0
C2252 C 0.36779 0.6867 0.24004 0.0
H2253 H 0.34616 0.61118 0.23827 0.0
H2254 H 0.36375 0.63144 0.24718 0.0
H2255 H 0.35149 0.6753 0.22526 0.0
H2256 H 0.38761 0.73812 0.25876 0.0
H2257 H 0.38109 0.71627 0.24204 0.0
H2258 H 0.39888 0.66933 0.25734 0.0
C2259 C 0.35895 0.63229 0.23559 0.0
C2260 C 0.36204 0.67392 0.23195 0.0
C2261 C 0.34882 0.6207 0.23049 0.0
C2262 C 0.38874 0.72646 0.26333 0.0
C2263 C 0.38496 0.71392 0.25377 0.0
C2264 C 0.38853 0.6708 0.25037 0.0
C2265 C 0.36162 0.64551 0.22643 0.0
C2266 C 0.36921 0.65934 0.23327 0.0
C2267 C 0.38615 0.69859 0.25928 0.0
C2268 C 0.38096 0.68527 0.24957 0.0
H2269 H 0.3396 0.63595 0.19512 0.0
H2270 H 0.35725 0.65615 0.20408 0.0
H2271 H 0.38845 0.64685 0.24353 0.0
H2272 H 0.39954 0.70635 0.29566 0.0
H2273 H 0.39238 0.68453 0.27925 0.0
C2274 C 0.35922 0.34654 0.21101 0.0
C2275 C 0.37338 0.34557 0.21905 0.0
C2276 C 0.34651 0.35406 0.21765 0.0
C2277 C 0.33366 0.38016 0.24919 0.0
H2278 H 0.29702 0.35402 0.2489 0.0
C2279 C 0.28172 0.39055 0.29032 0.0
C2280 C 0.26674 0.38781 0.28449 0.0
C2281 C 0.2948 0.3866 0.28158 0.0
C2282 C 0.30703 0.36162 0.2489 0.0
H2283 H 0.38567 0.35287 0.23979 0.0
H2284 H 0.36343 0.36601 0.25137 0.0
H2285 H 0.3198 0.34623 0.23426 0.0
H2286 H 0.25372 0.37899 0.26482 0.0
H2287 H 0.27648 0.37239 0.24949 0.0
H2288 H 0.32085 0.39554 0.2639 0.0
C2289 C 0.36217 0.36092 0.23994 0.0
C2290 C 0.32011 0.35714 0.24049 0.0
C2291 C 0.3749 0.35336 0.23331 0.0
C2292 C 0.26511 0.38111 0.26972 0.0
C2293 C 0.27817 0.37727 0.26094 0.0
C2294 C 0.3205 0.38471 0.25753 0.0
C2295 C 0.3477 0.36082 0.23243 0.0
C2296 C 0.33359 0.36631 0.2406 0.0
C2297 C 0.29318 0.37992 0.26677 0.0
C2298 C 0.30706 0.37543 0.25757 0.0
H2299 H 0.35768 0.34082 0.19992 0.0
H2300 H 0.33557 0.35407 0.21146 0.0
H2301 H 0.34387 0.38749 0.24941 0.0
H2302 H 0.28336 0.39568 0.30167 0.0
H2303 H 0.30617 0.38858 0.28654 0.0
C2304 C 0.72491 0.60101 0.72995 0.0
C2305 C 0.71958 0.61333 0.73924 0.0
C2306 C 0.73368 0.60392 0.71664 0.0
C2307 C 0.75694 0.63415 0.69682 0.0
H2308 H 0.74491 0.61224 0.65939 0.0
C2309 C 0.7846 0.6494 0.63827 0.0
C2310 C 0.77377 0.65222 0.62639 0.0
C2311 C 0.78014 0.6416 0.65177 0.0
C2312 C 0.74845 0.61841 0.66975 0.0
H2313 H 0.71964 0.63834 0.74204 0.0
H2314 H 0.73479 0.64343 0.71872 0.0
H2315 H 0.73299 0.60533 0.6841 0.0
H2316 H 0.75012 0.64796 0.61885 0.0
H2317 H 0.74235 0.63452 0.64238 0.0
H2318 H 0.77182 0.64776 0.68239 0.0
C2319 C 0.73234 0.6315 0.72182 0.0
C2320 C 0.74173 0.61436 0.68394 0.0
C2321 C 0.72357 0.62859 0.73515 0.0
C2322 C 0.75874 0.64606 0.62781 0.0
C2323 C 0.75429 0.63827 0.64129 0.0
C2324 C 0.76366 0.6382 0.68265 0.0
C2325 C 0.73734 0.6192 0.71232 0.0
C2326 C 0.74565 0.62242 0.69758 0.0
C2327 C 0.76479 0.63642 0.65365 0.0
C2328 C 0.75925 0.6306 0.66889 0.0
H2329 H 0.72212 0.58909 0.73283 0.0
H2330 H 0.73752 0.59419 0.70967 0.0
H2331 H 0.76037 0.64043 0.70716 0.0
H2332 H 0.79632 0.65388 0.63749 0.0
H2333 H 0.78857 0.6401 0.66097 0.0
C2334 C 0.3953 0.72721 0.7393 0.0
C2335 C 0.40564 0.7148 0.73709 0.0
C2336 C 0.38971 0.73561 0.7266 0.0
C2337 C 0.38238 0.73105 0.68494 0.0
H2338 H 0.37431 0.77529 0.68656 0.0
C2339 C 0.35057 0.76191 0.63509 0.0
C2340 C 0.33815 0.7713 0.63994 0.0
C2341 C 0.36171 0.75688 0.64577 0.0
C2342 C 0.3765 0.76293 0.68594 0.0
H2343 H 0.4187 0.70187 0.71987 0.0
H2344 H 0.40901 0.71658 0.69776 0.0
H2345 H 0.38838 0.76281 0.70778 0.0
H2346 H 0.32821 0.78354 0.65957 0.0
H2347 H 0.34745 0.77466 0.67814 0.0
H2348 H 0.37009 0.73102 0.6634 0.0
C2349 C 0.40505 0.71967 0.70928 0.0
C2350 C 0.38452 0.75578 0.69809 0.0
C2351 C 0.41064 0.71128 0.72197 0.0
C2352 C 0.33759 0.77625 0.65547 0.0
C2353 C 0.34871 0.77125 0.66611 0.0
C2354 C 0.37435 0.73818 0.67281 0.0
C2355 C 0.39435 0.73177 0.71143 0.0
C2356 C 0.38727 0.73971 0.69787 0.0
C2357 C 0.36066 0.76118 0.66149 0.0
C2358 C 0.37103 0.75414 0.67332 0.0
H2359 H 0.39124 0.73022 0.75081 0.0
H2360 H 0.38133 0.74475 0.72863 0.0
H2361 H 0.38412 0.71861 0.6845 0.0
H2362 H 0.35137 0.75796 0.62318 0.0
H2363 H 0.37092 0.7493 0.64182 0.0
C2364 C 0.27261 0.3863 0.72913 0.0
C2365 C 0.26882 0.37978 0.74359 0.0
C2366 C 0.26454 0.38197 0.71577 0.0
C2367 C 0.24038 0.34997 0.70054 0.0
H2368 H 0.23448 0.37817 0.66593 0.0
C2369 C 0.21148 0.32941 0.64448 0.0
C2370 C 0.2205 0.33191 0.63111 0.0
C2371 C 0.21475 0.33737 0.6582 0.0
C2372 C 0.23604 0.3702 0.67553 0.0
H2373 H 0.25315 0.36413 0.7555 0.0
H2374 H 0.23873 0.35689 0.73226 0.0
H2375 H 0.24493 0.38798 0.69042 0.0
H2376 H 0.23919 0.34563 0.62132 0.0
H2377 H 0.24483 0.35961 0.64533 0.0
H2378 H 0.23155 0.33222 0.68565 0.0
C2379 C 0.24824 0.36503 0.73114 0.0
C2380 C 0.24209 0.37577 0.68953 0.0
C2381 C 0.25646 0.36922 0.74449 0.0
C2382 C 0.23208 0.34339 0.63144 0.0
C2383 C 0.23528 0.35144 0.64517 0.0
C2384 C 0.23418 0.34447 0.68664 0.0
C2385 C 0.25235 0.37115 0.71656 0.0
C2386 C 0.24459 0.36566 0.70213 0.0
C2387 C 0.227 0.34808 0.65881 0.0
C2388 C 0.23216 0.35446 0.67392 0.0
H2389 H 0.28212 0.39444 0.72804 0.0
H2390 H 0.26823 0.38675 0.70475 0.0
H2391 H 0.24241 0.34176 0.70983 0.0
H2392 H 0.20237 0.32076 0.6446 0.0
H2393 H 0.20803 0.33475 0.6685 0.0
C2394 C 0.6455 0.23473 0.62714 0.0
C2395 C 0.65282 0.22014 0.62723 0.0
C2396 C 0.63708 0.23976 0.64006 0.0
C2397 C 0.63977 0.23617 0.68134 0.0
H2398 H 0.60081 0.25856 0.68286 0.0
C2399 C 0.61876 0.264 0.73822 0.0
C2400 C 0.61109 0.27832 0.7372 0.0
C2401 C 0.62175 0.25532 0.72486 0.0
C2402 C 0.61181 0.2525 0.68262 0.0
H2403 H 0.65583 0.19884 0.64036 0.0
H2404 H 0.64134 0.20778 0.66296 0.0
H2405 H 0.60878 0.24586 0.65878 0.0
H2406 H 0.60058 0.29487 0.72146 0.0
H2407 H 0.6065 0.28019 0.69807 0.0
H2408 H 0.64345 0.24346 0.70468 0.0
C2409 C 0.64219 0.2153 0.65291 0.0
C2410 C 0.61626 0.24512 0.66886 0.0
C2411 C 0.65043 0.21019 0.63994 0.0
C2412 C 0.60646 0.28382 0.72258 0.0
C2413 C 0.60973 0.2753 0.70918 0.0
C2414 C 0.63549 0.24376 0.69497 0.0
C2415 C 0.63598 0.23035 0.65331 0.0
C2416 C 0.63033 0.23696 0.6681 0.0
C2417 C 0.61744 0.26093 0.71012 0.0
C2418 C 0.6215 0.25214 0.69579 0.0
H2419 H 0.64705 0.24263 0.61748 0.0
H2420 H 0.63241 0.25143 0.6401 0.0
H2421 H 0.65083 0.2302 0.68097 0.0
H2422 H 0.62225 0.25937 0.74938 0.0
H2423 H 0.62738 0.24417 0.72615 0.0
C2424 C 0.7147 0.37459 0.27355 0.0
C2425 C 0.7231 0.38364 0.26291 0.0
C2426 C 0.72179 0.36904 0.28701 0.0
C2427 C 0.75872 0.3587 0.30451 0.0
H2428 H 0.73751 0.36651 0.34344 0.0
C2429 C 0.78402 0.33715 0.36262 0.0
C2430 C 0.77331 0.33033 0.37285 0.0
C2431 C 0.77887 0.34576 0.34985 0.0
C2432 C 0.74353 0.3641 0.33268 0.0
H2433 H 0.7457 0.39345 0.25772 0.0
H2434 H 0.7582 0.38337 0.28116 0.0
H2435 H 0.72656 0.37635 0.31929 0.0
H2436 H 0.7488 0.32774 0.37805 0.0
H2437 H 0.73987 0.34231 0.35574 0.0
H2438 H 0.77534 0.34587 0.31772 0.0
C2439 C 0.74608 0.38076 0.2791 0.0
C2440 C 0.73726 0.36978 0.31887 0.0
C2441 C 0.73892 0.38653 0.26572 0.0
C2442 C 0.75739 0.33287 0.37043 0.0
C2443 C 0.75225 0.34133 0.35763 0.0
C2444 C 0.76489 0.35282 0.31832 0.0
C2445 C 0.73748 0.37224 0.29 0.0
C2446 C 0.74468 0.36694 0.30465 0.0
C2447 C 0.7629 0.34764 0.347 0.0
C2448 C 0.75724 0.35524 0.33255 0.0
H2449 H 0.70249 0.37218 0.27174 0.0
H2450 H 0.71497 0.36232 0.29517 0.0
H2451 H 0.76461 0.35633 0.29367 0.0
H2452 H 0.79637 0.33548 0.36422 0.0
H2453 H 0.78741 0.35071 0.34207 0.0
C2454 C 0.62901 0.7255 0.26796 0.0
C2455 C 0.61385 0.72127 0.26375 0.0
C2456 C 0.63171 0.73401 0.2815 0.0
C2457 C 0.61455 0.74186 0.31966 0.0
H2458 H 0.64665 0.77331 0.32178 0.0
C2459 C 0.64772 0.7854 0.36608 0.0
C2460 C 0.65132 0.77448 0.37767 0.0
C2461 C 0.64003 0.7808 0.35256 0.0
C2462 C 0.63746 0.76475 0.32136 0.0
H2463 H 0.58956 0.7231 0.27021 0.0
H2464 H 0.59431 0.73799 0.29378 0.0
H2465 H 0.63968 0.76213 0.29676 0.0
H2466 H 0.64851 0.75046 0.38471 0.0
H2467 H 0.63521 0.74246 0.36115 0.0
H2468 H 0.61249 0.74434 0.34431 0.0
C2469 C 0.60412 0.73456 0.28671 0.0
C2470 C 0.63362 0.7582 0.30705 0.0
C2471 C 0.60141 0.72609 0.27315 0.0
C2472 C 0.64599 0.75915 0.37598 0.0
C2473 C 0.63829 0.75457 0.36248 0.0
C2474 C 0.61843 0.74839 0.33399 0.0
C2475 C 0.61931 0.73846 0.29113 0.0
C2476 C 0.62234 0.74648 0.30607 0.0
C2477 C 0.63573 0.76521 0.35038 0.0
C2478 C 0.63013 0.7597 0.33504 0.0
H2479 H 0.63885 0.72197 0.26098 0.0
H2480 H 0.64358 0.73667 0.28467 0.0
H2481 H 0.60587 0.73278 0.31931 0.0
H2482 H 0.65153 0.79733 0.36707 0.0
H2483 H 0.63796 0.78933 0.34356 0.0
C2484 C 0.24981 0.64716 0.38238 0.0
C2485 C 0.23481 0.65353 0.38188 0.0
C2486 C 0.2562 0.64017 0.36922 0.0
C2487 C 0.24709 0.62562 0.32954 0.0
H2488 H 0.28922 0.63886 0.32087 0.0
C2489 C 0.27508 0.61982 0.26886 0.0
C2490 C 0.29031 0.61403 0.26847 0.0
C2491 C 0.26823 0.62393 0.28299 0.0
C2492 C 0.27751 0.63493 0.32319 0.0
H2493 H 0.21434 0.65653 0.3675 0.0
H2494 H 0.22554 0.64457 0.34457 0.0
H2495 H 0.2772 0.64581 0.34546 0.0
H2496 H 0.31043 0.60834 0.28251 0.0
H2497 H 0.29852 0.61558 0.30708 0.0
H2498 H 0.24737 0.61501 0.30705 0.0
C2499 C 0.23237 0.64486 0.35511 0.0
C2500 C 0.27063 0.63883 0.33732 0.0
C2501 C 0.22595 0.65179 0.36829 0.0
C2502 C 0.29867 0.61278 0.28241 0.0
C2503 C 0.29187 0.61697 0.2965 0.0
C2504 C 0.25395 0.62177 0.31536 0.0
C2505 C 0.24775 0.63944 0.35527 0.0
C2506 C 0.25531 0.63429 0.34065 0.0
C2507 C 0.27653 0.62244 0.29696 0.0
C2508 C 0.26921 0.62645 0.31201 0.0
H2509 H 0.2569 0.64818 0.39271 0.0
H2510 H 0.26795 0.63577 0.36983 0.0
H2511 H 0.23533 0.62179 0.3318 0.0
H2512 H 0.26832 0.62088 0.25832 0.0
H2513 H 0.25645 0.6283 0.28298 0.0
C2514 C 0.34142 0.24238 0.35785 0.0
C2515 C 0.32761 0.23371 0.35737 0.0
C2516 C 0.34913 0.24631 0.34411 0.0
C2517 C 0.34071 0.25336 0.30322 0.0
H2518 H 0.38535 0.25238 0.29781 0.0
C2519 C 0.36878 0.27309 0.24595 0.0
C2520 C 0.38224 0.28218 0.24722 0.0
C2521 C 0.36292 0.26525 0.25889 0.0
C2522 C 0.37287 0.25285 0.29919 0.0
H2523 H 0.31152 0.22169 0.34214 0.0
H2524 H 0.32494 0.22857 0.31828 0.0
H2525 H 0.37388 0.24224 0.32169 0.0
H2526 H 0.4003 0.28992 0.26299 0.0
H2527 H 0.38987 0.27667 0.28556 0.0
H2528 H 0.3396 0.26442 0.28108 0.0
C2529 C 0.3297 0.23248 0.32924 0.0
C2530 C 0.36633 0.24701 0.31284 0.0
C2531 C 0.32206 0.2285 0.34294 0.0
C2532 C 0.38991 0.28298 0.2616 0.0
C2533 C 0.38398 0.27527 0.27455 0.0
C2534 C 0.34724 0.25932 0.28966 0.0
C2535 C 0.34312 0.24169 0.32966 0.0
C2536 C 0.35019 0.24727 0.31501 0.0
C2537 C 0.37031 0.26645 0.27341 0.0
C2538 C 0.3634 0.25923 0.28749 0.0
H2539 H 0.34601 0.24653 0.36879 0.0
H2540 H 0.35943 0.25348 0.34476 0.0
H2541 H 0.32824 0.25394 0.30468 0.0
H2542 H 0.36268 0.27213 0.235 0.0
H2543 H 0.35252 0.25833 0.25753 0.0
C2544 C 0.73664 0.73599 0.61651 0.0
C2545 C 0.73628 0.72096 0.61024 0.0
C2546 C 0.72284 0.74406 0.6193 0.0
C2547 C 0.68037 0.74349 0.61043 0.0
H2548 H 0.67773 0.76794 0.64809 0.0
C2549 C 0.62354 0.75941 0.64242 0.0
C2550 C 0.62251 0.77428 0.64907 0.0
C2551 C 0.63707 0.75476 0.63478 0.0
C2552 C 0.67836 0.76136 0.6374 0.0
H2553 H 0.7212 0.70255 0.60203 0.0
H2554 H 0.6972 0.71629 0.60745 0.0
H2555 H 0.70228 0.75605 0.64095 0.0
H2556 H 0.63443 0.7963 0.65191 0.0
H2557 H 0.65806 0.78807 0.63871 0.0
H2558 H 0.65611 0.74824 0.60744 0.0
C2559 C 0.70809 0.72213 0.60978 0.0
C2560 C 0.69245 0.75456 0.63326 0.0
C2561 C 0.72186 0.71416 0.6068 0.0
C2562 C 0.63486 0.78474 0.64699 0.0
C2563 C 0.64843 0.78003 0.63951 0.0
C2564 C 0.6662 0.75013 0.6147 0.0
C2565 C 0.70837 0.73718 0.61609 0.0
C2566 C 0.69361 0.74536 0.61983 0.0
C2567 C 0.64984 0.76485 0.63377 0.0
C2568 C 0.66504 0.759 0.6283 0.0
H2569 H 0.74758 0.74159 0.61913 0.0
H2570 H 0.72354 0.75572 0.62392 0.0
H2571 H 0.68088 0.73676 0.59983 0.0
H2572 H 0.61421 0.7511 0.64377 0.0
H2573 H 0.63787 0.74297 0.6305 0.0
C2574 C 0.72582 0.26427 0.3981 0.0
C2575 C 0.7345 0.27024 0.38562 0.0
C2576 C 0.71092 0.25834 0.39568 0.0
C2577 C 0.67834 0.2617 0.36837 0.0
H2578 H 0.66283 0.22452 0.38845 0.0
C2579 C 0.62568 0.21666 0.35791 0.0
C2580 C 0.61397 0.22736 0.3541 0.0
C2581 C 0.63944 0.22167 0.3649 0.0
C2582 C 0.667 0.23494 0.38279 0.0
H2583 H 0.73459 0.27401 0.36073 0.0
H2584 H 0.70869 0.26352 0.3565 0.0
H2585 H 0.68947 0.23306 0.3933 0.0
H2586 H 0.60681 0.25141 0.35615 0.0
H2587 H 0.63065 0.26007 0.36863 0.0
H2588 H 0.65618 0.2634 0.35747 0.0
C2589 C 0.7133 0.26369 0.3682 0.0
C2590 C 0.68221 0.23987 0.38564 0.0
C2591 C 0.72819 0.2696 0.37061 0.0
C2592 C 0.61569 0.2429 0.35875 0.0
C2593 C 0.62941 0.24789 0.36579 0.0
C2594 C 0.66318 0.25681 0.36557 0.0
C2595 C 0.70437 0.25828 0.38075 0.0
C2596 C 0.6881 0.25319 0.37827 0.0
C2597 C 0.64171 0.23746 0.36828 0.0
C2598 C 0.65735 0.24329 0.37261 0.0
H2599 H 0.73036 0.26457 0.40982 0.0
H2600 H 0.70431 0.25432 0.40559 0.0
H2601 H 0.68244 0.27215 0.36272 0.0
H2602 H 0.62471 0.20459 0.35454 0.0
H2603 H 0.64868 0.21333 0.36663 0.0
C2604 C 0.77633 0.64223 0.34196 0.0
C2605 C 0.77079 0.6269 0.34242 0.0
C2606 C 0.77007 0.65354 0.35172 0.0
C2607 C 0.73378 0.66194 0.3723 0.0
H2608 H 0.75694 0.69699 0.38844 0.0
C2609 C 0.70395 0.71116 0.40616 0.0
C2610 C 0.70798 0.72633 0.40173 0.0
C2611 C 0.71259 0.69849 0.40096 0.0
C2612 C 0.75033 0.68729 0.38394 0.0
H2613 H 0.75509 0.61116 0.35424 0.0
H2614 H 0.74435 0.63086 0.37148 0.0
H2615 H 0.77078 0.67536 0.37641 0.0
H2616 H 0.72449 0.74013 0.38866 0.0
H2617 H 0.73952 0.71796 0.37947 0.0
H2618 H 0.71333 0.67394 0.37957 0.0
C2619 C 0.75328 0.63422 0.36331 0.0
C2620 C 0.75824 0.67491 0.37707 0.0
C2621 C 0.75951 0.62291 0.3535 0.0
C2622 C 0.72106 0.72859 0.39225 0.0
C2623 C 0.72973 0.7159 0.38708 0.0
C2624 C 0.72589 0.67427 0.37921 0.0
C2625 C 0.75817 0.64975 0.36222 0.0
C2626 C 0.75003 0.66219 0.37097 0.0
C2627 C 0.72549 0.7007 0.39125 0.0
C2628 C 0.73405 0.68718 0.38491 0.0
H2629 H 0.78503 0.64569 0.33358 0.0
H2630 H 0.77402 0.6654 0.35047 0.0
H2631 H 0.72706 0.65248 0.36746 0.0
H2632 H 0.694 0.70903 0.41354 0.0
H2633 H 0.70915 0.68694 0.40453 0.0
C2634 C 0.27913 0.71896 0.40302 0.0
C2635 C 0.26846 0.71371 0.39184 0.0
C2636 C 0.29301 0.72602 0.39849 0.0
C2637 C 0.31982 0.72731 0.36544 0.0
H2638 H 0.33728 0.76333 0.38604 0.0
C2639 C 0.36822 0.7757 0.35034 0.0
C2640 C 0.37936 0.76589 0.34358 0.0
C2641 C 0.35607 0.76948 0.35911 0.0
C2642 C 0.33254 0.75325 0.3802 0.0
H2643 H 0.26371 0.71231 0.36715 0.0
H2644 H 0.28784 0.72473 0.35926 0.0
H2645 H 0.31235 0.75283 0.39474 0.0
H2646 H 0.3875 0.74213 0.34212 0.0
H2647 H 0.36655 0.73134 0.35772 0.0
H2648 H 0.33963 0.7279 0.35062 0.0
C2649 C 0.28559 0.72316 0.37153 0.0
C2650 C 0.31833 0.7472 0.38523 0.0
C2651 C 0.27172 0.71613 0.37605 0.0
C2652 C 0.37896 0.74996 0.347 0.0
C2653 C 0.3669 0.74376 0.35584 0.0
C2654 C 0.33398 0.73331 0.36046 0.0
C2655 C 0.29651 0.72793 0.38268 0.0
C2656 C 0.31174 0.73427 0.37776 0.0
C2657 C 0.35492 0.75335 0.36135 0.0
C2658 C 0.34048 0.74641 0.3677 0.0
H2659 H 0.27695 0.7173 0.41529 0.0
H2660 H 0.30122 0.7295 0.40734 0.0
H2661 H 0.31517 0.71719 0.3596 0.0
H2662 H 0.3682 0.78804 0.34792 0.0
H2663 H 0.34702 0.77719 0.36317 0.0
C2664 C 0.27216 0.2761 0.38881 0.0
C2665 C 0.26653 0.2611 0.38578 0.0
C2666 C 0.26305 0.28911 0.38577 0.0
C2667 C 0.22989 0.30169 0.36183 0.0
H2668 H 0.23465 0.33952 0.38579 0.0
C2669 C 0.20117 0.35828 0.34218 0.0
C2670 C 0.2121 0.37018 0.33984 0.0
C2671 C 0.20493 0.34533 0.35119 0.0
C2672 C 0.23313 0.329 0.37907 0.0
H2673 H 0.24667 0.24797 0.37765 0.0
H2674 H 0.23055 0.27074 0.37263 0.0
H2675 H 0.24644 0.31547 0.39506 0.0
H2676 H 0.23495 0.37852 0.3463 0.0
H2677 H 0.24141 0.35601 0.36218 0.0
H2678 H 0.21676 0.31531 0.34576 0.0
C2679 C 0.24218 0.27245 0.37706 0.0
C2680 C 0.23995 0.31525 0.3843 0.0
C2681 C 0.2514 0.25939 0.37998 0.0
C2682 C 0.22631 0.36951 0.3478 0.0
C2683 C 0.23 0.35664 0.35695 0.0
C2684 C 0.22292 0.3154 0.35672 0.0
C2685 C 0.24797 0.28749 0.37977 0.0
C2686 C 0.23883 0.30152 0.37549 0.0
C2687 C 0.21959 0.34415 0.3582 0.0
C2688 C 0.22483 0.32928 0.36506 0.0
H2689 H 0.2838 0.27786 0.39323 0.0
H2690 H 0.26806 0.30047 0.38769 0.0
H2691 H 0.22892 0.29145 0.35462 0.0
H2692 H 0.19008 0.35846 0.33626 0.0
H2693 H 0.19664 0.33593 0.35212 0.0
C2694 C 0.38216 0.2371 0.64305 0.0
C2695 C 0.37854 0.22336 0.65106 0.0
C2696 C 0.37112 0.24422 0.63354 0.0
C2697 C 0.3321 0.23909 0.61544 0.0
H2698 H 0.32834 0.28313 0.62392 0.0
C2699 C 0.27529 0.27339 0.60661 0.0
C2700 C 0.27635 0.28847 0.60049 0.0
C2701 C 0.2887 0.26508 0.61036 0.0
C2702 C 0.32935 0.27089 0.62121 0.0
H2703 H 0.36092 0.20568 0.65438 0.0
H2704 H 0.34165 0.21818 0.63809 0.0
H2705 H 0.35058 0.2689 0.63381 0.0
H2706 H 0.29231 0.30657 0.59329 0.0
H2707 H 0.31569 0.29207 0.5999 0.0
H2708 H 0.31049 0.24108 0.6033 0.0
C2709 C 0.35302 0.22344 0.639 0.0
C2710 C 0.34215 0.26273 0.62683 0.0
C2711 C 0.36408 0.21629 0.64844 0.0
C2712 C 0.29109 0.29501 0.59807 0.0
C2713 C 0.30449 0.28672 0.60188 0.0
C2714 C 0.31924 0.24726 0.60988 0.0
C2715 C 0.35621 0.23778 0.6319 0.0
C2716 C 0.34357 0.24667 0.62424 0.0
C2717 C 0.30344 0.2717 0.60812 0.0
C2718 C 0.31762 0.2632 0.61292 0.0
H2719 H 0.39326 0.24277 0.64469 0.0
H2720 H 0.37406 0.25508 0.62794 0.0
H2721 H 0.33294 0.22678 0.61305 0.0
H2722 H 0.26411 0.268 0.60858 0.0
H2723 H 0.28752 0.2536 0.61534 0.0
C2724 C 0.73959 0.26634 0.60237 0.0
C2725 C 0.72441 0.26242 0.60688 0.0
C2726 C 0.74592 0.28072 0.60645 0.0
C2727 C 0.73484 0.32038 0.61712 0.0
H2728 H 0.77486 0.32243 0.63754 0.0
C2729 C 0.75352 0.37251 0.654 0.0
C2730 C 0.76933 0.37626 0.65532 0.0
C2731 C 0.74879 0.35972 0.64529 0.0
C2732 C 0.76383 0.32216 0.63154 0.0
H2733 H 0.70398 0.2705 0.61918 0.0
H2734 H 0.71501 0.29559 0.62617 0.0
H2735 H 0.76531 0.29759 0.62792 0.0
H2736 H 0.79249 0.37012 0.64763 0.0
H2737 H 0.78418 0.34796 0.63207 0.0
H2738 H 0.73325 0.34487 0.62073 0.0
C2739 C 0.72198 0.28756 0.61946 0.0
C2740 C 0.75834 0.30789 0.6261 0.0
C2741 C 0.71572 0.27314 0.61557 0.0
C2742 C 0.78023 0.36747 0.64695 0.0
C2743 C 0.77547 0.3547 0.63813 0.0
C2744 C 0.74039 0.33466 0.62239 0.0
C2745 C 0.73711 0.29152 0.61489 0.0
C2746 C 0.74363 0.30682 0.61919 0.0
C2747 C 0.75973 0.35041 0.63755 0.0
C2748 C 0.75478 0.33567 0.63003 0.0
H2749 H 0.74656 0.25833 0.59565 0.0
H2750 H 0.75761 0.28352 0.60277 0.0
H2751 H 0.72356 0.3199 0.61158 0.0
H2752 H 0.7448 0.37902 0.6603 0.0
H2753 H 0.73659 0.3567 0.64529 0.0
C2754 C 0.21962 0.63186 0.64787 0.0
C2755 C 0.22786 0.61816 0.65108 0.0
C2756 C 0.22647 0.64374 0.63922 0.0
C2757 C 0.26577 0.65817 0.63103 0.0
H2758 H 0.24371 0.68964 0.60763 0.0
C2759 C 0.2966 0.71202 0.60627 0.0
C2760 C 0.28938 0.72634 0.60922 0.0
C2761 C 0.28878 0.69811 0.60904 0.0
C2762 C 0.24999 0.68094 0.61418 0.0
H2763 H 0.24902 0.60544 0.64625 0.0
H2764 H 0.26074 0.62592 0.63067 0.0
H2765 H 0.23036 0.66574 0.61505 0.0
H2766 H 0.26815 0.73731 0.6171 0.0
H2767 H 0.25445 0.71293 0.62197 0.0
H2768 H 0.28534 0.67341 0.63027 0.0
C2769 C 0.24923 0.62776 0.63535 0.0
C2770 C 0.24236 0.66725 0.61843 0.0
C2771 C 0.24245 0.61595 0.64415 0.0
C2772 C 0.27405 0.72646 0.61478 0.0
C2773 C 0.26617 0.71251 0.61744 0.0
C2774 C 0.27341 0.67176 0.62667 0.0
C2775 C 0.24164 0.6421 0.63344 0.0
C2776 C 0.2501 0.65579 0.62714 0.0
C2777 C 0.27351 0.6982 0.61471 0.0
C2778 C 0.26554 0.6834 0.61841 0.0
H2779 H 0.20833 0.63394 0.65299 0.0
H2780 H 0.22025 0.6546 0.63806 0.0
H2781 H 0.27204 0.64983 0.63804 0.0
H2782 H 0.30838 0.71151 0.60192 0.0
H2783 H 0.29467 0.68726 0.6067 0.0
C2784 C 0.18859 0.35615 0.26765 0.0
C2785 C 0.1878 0.37063 0.27508 0.0
C2786 C 0.17594 0.35051 0.25931 0.0
C2787 C 0.13386 0.3528 0.25561 0.0
H2788 H 0.1419 0.33342 0.2158 0.0
C2789 C 0.10226 0.31662 0.20228 0.0
C2790 C 0.09473 0.30515 0.21109 0.0
C2791 C 0.11098 0.32815 0.20958 0.0
C2792 C 0.13934 0.33903 0.22675 0.0
H2793 H 0.17302 0.39048 0.27977 0.0
H2794 H 0.15077 0.38045 0.2652 0.0
H2795 H 0.16285 0.34648 0.22942 0.0
H2796 H 0.08924 0.29762 0.23448 0.0
H2797 H 0.10466 0.3176 0.2472 0.0
H2798 H 0.11036 0.34497 0.25304 0.0
C2799 C 0.16125 0.37355 0.26586 0.0
C2800 C 0.15141 0.34634 0.23464 0.0
C2801 C 0.17399 0.37929 0.27412 0.0
C2802 C 0.09496 0.30626 0.22736 0.0
C2803 C 0.10376 0.31776 0.23466 0.0
C2804 C 0.12174 0.34538 0.24772 0.0
C2805 C 0.16217 0.35916 0.25827 0.0
C2806 C 0.14889 0.35298 0.24929 0.0
C2807 C 0.11241 0.3284 0.22582 0.0
C2808 C 0.12444 0.33817 0.23333 0.0
H2809 H 0.19904 0.34918 0.26819 0.0
H2810 H 0.17689 0.33926 0.25377 0.0
H2811 H 0.13161 0.35781 0.26691 0.0
H2812 H 0.10211 0.31622 0.18972 0.0
H2813 H 0.11724 0.33641 0.20246 0.0
C2814 C 0.68057 0.12522 0.21531 0.0
C2815 C 0.69453 0.13237 0.2108 0.0
C2816 C 0.66971 0.13331 0.22425 0.0
C2817 C 0.65883 0.17315 0.23638 0.0
H2818 H 0.63993 0.15258 0.27169 0.0
C2819 C 0.63312 0.20713 0.28705 0.0
C2820 C 0.61818 0.203 0.29209 0.0
C2821 C 0.64118 0.1977 0.27669 0.0
C2822 C 0.64498 0.1584 0.26176 0.0
H2823 H 0.70795 0.15364 0.21201 0.0
H2824 H 0.68923 0.16759 0.22773 0.0
H2825 H 0.65614 0.13768 0.25378 0.0
H2826 H 0.60019 0.18544 0.29066 0.0
H2827 H 0.6145 0.16876 0.2726 0.0
H2828 H 0.64811 0.19394 0.24464 0.0
C2829 C 0.6865 0.15585 0.22417 0.0
C2830 C 0.65422 0.14988 0.25148 0.0
C2831 C 0.6973 0.14781 0.21523 0.0
C2832 C 0.61168 0.18894 0.28695 0.0
C2833 C 0.61985 0.17939 0.27666 0.0
C2834 C 0.64973 0.18164 0.24669 0.0
C2835 C 0.6726 0.1487 0.22884 0.0
C2836 C 0.6615 0.15725 0.23886 0.0
C2837 C 0.63455 0.18387 0.27122 0.0
C2838 C 0.64298 0.17442 0.25964 0.0
H2839 H 0.67809 0.11334 0.21205 0.0
H2840 H 0.65905 0.12753 0.22754 0.0
H2841 H 0.66396 0.1791 0.22657 0.0
H2842 H 0.63851 0.21784 0.29082 0.0
H2843 H 0.65261 0.20128 0.27287 0.0
C2844 C 0.8189 0.60804 0.28618 0.0
C2845 C 0.80816 0.59918 0.27768 0.0
C2846 C 0.83092 0.61585 0.27863 0.0
C2847 C 0.83928 0.63285 0.2406 0.0
H2848 H 0.8795 0.64133 0.25892 0.0
C2849 C 0.88133 0.67574 0.21204 0.0
C2850 C 0.88754 0.68699 0.22209 0.0
C2851 C 0.87414 0.66249 0.21797 0.0
C2852 C 0.8683 0.63907 0.25367 0.0
H2853 H 0.80226 0.59067 0.25474 0.0
H2854 H 0.82339 0.60412 0.24158 0.0
H2855 H 0.86242 0.62208 0.27085 0.0
H2856 H 0.89179 0.69275 0.24623 0.0
H2857 H 0.87905 0.66972 0.25657 0.0
H2858 H 0.84489 0.65009 0.22371 0.0
C2859 C 0.82231 0.60531 0.25405 0.0
C2860 C 0.85853 0.62805 0.2605 0.0
C2861 C 0.81024 0.59755 0.2616 0.0
C2862 C 0.88707 0.68433 0.23817 0.0
C2863 C 0.87986 0.67107 0.2441 0.0
C2864 C 0.84904 0.64381 0.23378 0.0
C2865 C 0.83251 0.61491 0.26242 0.0
C2866 C 0.84377 0.62505 0.25421 0.0
C2867 C 0.87299 0.66019 0.23407 0.0
C2868 C 0.86353 0.64726 0.2404 0.0
H2869 H 0.81764 0.60952 0.2986 0.0
H2870 H 0.83846 0.62326 0.28542 0.0
H2871 H 0.82789 0.63105 0.2356 0.0
H2872 H 0.88163 0.67735 0.19957 0.0
H2873 H 0.86918 0.65419 0.20993 0.0
C2874 C 0.37293 0.81248 0.27844 0.0
C2875 C 0.3671 0.80255 0.28996 0.0
C2876 C 0.36392 0.8248 0.2729 0.0
C2877 C 0.32283 0.83722 0.27061 0.0
H2878 H 0.34067 0.87575 0.25569 0.0
C2879 C 0.28472 0.8867 0.24744 0.0
C2880 C 0.2888 0.89193 0.23254 0.0
C2881 C 0.29494 0.87748 0.25599 0.0
C2882 C 0.33557 0.86503 0.25983 0.0
H2883 H 0.34772 0.79819 0.30538 0.0
H2884 H 0.33227 0.81995 0.2962 0.0
H2885 H 0.35734 0.85647 0.26816 0.0
H2886 H 0.30712 0.89232 0.21528 0.0
H2887 H 0.32504 0.87632 0.23032 0.0
H2888 H 0.30108 0.84582 0.26234 0.0
C2889 C 0.34352 0.81797 0.29097 0.0
C2890 C 0.3451 0.85395 0.2669 0.0
C2891 C 0.35241 0.80553 0.29631 0.0
C2892 C 0.30361 0.8884 0.22669 0.0
C2893 C 0.31391 0.87933 0.23533 0.0
C2894 C 0.31331 0.84835 0.26374 0.0
C2895 C 0.349 0.82756 0.27895 0.0
C2896 C 0.33886 0.83983 0.27224 0.0
C2897 C 0.30952 0.87348 0.24989 0.0
C2898 C 0.3196 0.86229 0.25815 0.0
H2899 H 0.38421 0.81043 0.27331 0.0
H2900 H 0.36847 0.8318 0.26351 0.0
H2901 H 0.31764 0.82636 0.27422 0.0
H2902 H 0.27341 0.88925 0.25229 0.0
H2903 H 0.29135 0.87324 0.26726 0.0
C2904 C 0.11155 0.68383 0.78237 0.0
C2905 C 0.10366 0.69474 0.77316 0.0
C2906 C 0.12126 0.67281 0.77553 0.0
C2907 C 0.15015 0.66171 0.759 0.0
H2908 H 0.14225 0.6407 0.71998 0.0
C2909 C 0.1993 0.63956 0.72018 0.0
C2910 C 0.19785 0.6246 0.71387 0.0
C2911 C 0.18682 0.64649 0.72779 0.0
C2912 C 0.14455 0.64637 0.73096 0.0
H2913 H 0.09894 0.70196 0.7495 0.0
H2914 H 0.11596 0.68278 0.73759 0.0
H2915 H 0.12123 0.65484 0.73286 0.0
H2916 H 0.1821 0.60527 0.71035 0.0
H2917 H 0.16018 0.61753 0.7236 0.0
H2918 H 0.17349 0.65352 0.75701 0.0
C2919 C 0.11461 0.68272 0.75008 0.0
C2920 C 0.13258 0.65453 0.73827 0.0
C2921 C 0.10493 0.69377 0.75692 0.0
C2922 C 0.18357 0.6168 0.71513 0.0
C2923 C 0.17102 0.62382 0.72265 0.0
C2924 C 0.16211 0.65366 0.75166 0.0
C2925 C 0.12323 0.67243 0.75934 0.0
C2926 C 0.13532 0.66245 0.75227 0.0
C2927 C 0.17259 0.63868 0.72917 0.0
C2928 C 0.15951 0.64613 0.73745 0.0
H2929 H 0.11073 0.68416 0.79491 0.0
H2930 H 0.12758 0.66486 0.78294 0.0
H2931 H 0.1527 0.66783 0.76968 0.0
H2932 H 0.21012 0.64589 0.71938 0.0
H2933 H 0.18828 0.65805 0.7325 0.0
C2934 C 0.39183 0.18598 0.73654 0.0
C2935 C 0.39252 0.18774 0.72035 0.0
C2936 C 0.3832 0.17396 0.74313 0.0
C2937 C 0.36258 0.13701 0.73452 0.0
H2938 H 0.33669 0.14998 0.76895 0.0
C2939 C 0.30759 0.10404 0.7551 0.0
C2940 C 0.30442 0.10396 0.77109 0.0
C2941 C 0.32029 0.11233 0.74929 0.0
C2942 C 0.34402 0.14606 0.75952 0.0
H2943 H 0.38527 0.17787 0.69835 0.0
H2944 H 0.36994 0.15708 0.70986 0.0
H2945 H 0.35549 0.16795 0.75819 0.0
H2946 H 0.31267 0.11161 0.79364 0.0
H2947 H 0.33482 0.12586 0.78354 0.0
H2948 H 0.35065 0.11519 0.73567 0.0
C2949 C 0.37623 0.16485 0.71748 0.0
C2950 C 0.35483 0.15637 0.75335 0.0
C2951 C 0.38496 0.17682 0.71087 0.0
C2952 C 0.31466 0.11161 0.78122 0.0
C2953 C 0.32733 0.11983 0.77544 0.0
C2954 C 0.35168 0.12667 0.74069 0.0
C2955 C 0.37496 0.1635 0.73369 0.0
C2956 C 0.36419 0.15203 0.74072 0.0
C2957 C 0.33005 0.12065 0.75939 0.0
C2958 C 0.34224 0.13113 0.75321 0.0
H2959 H 0.39767 0.19409 0.74415 0.0
H2960 H 0.38273 0.17305 0.75566 0.0
H2961 H 0.36972 0.13326 0.72488 0.0
H2962 H 0.29993 0.09824 0.74699 0.0
H2963 H 0.32203 0.11281 0.73685 0.0
C2964 C 0.8119 0.3913 0.73778 0.0
C2965 C 0.80862 0.39224 0.72184 0.0
C2966 C 0.82524 0.38374 0.743 0.0
C2967 C 0.85146 0.35264 0.73145 0.0
H2968 H 0.87527 0.366 0.76722 0.0
C2969 C 0.89826 0.31325 0.75787 0.0
C2970 C 0.89757 0.3117 0.77408 0.0
C2971 C 0.89023 0.3252 0.7504 0.0
C2972 C 0.86871 0.3621 0.75724 0.0
H2973 H 0.81712 0.38657 0.69882 0.0
H2974 H 0.84042 0.37333 0.70798 0.0
H2975 H 0.85582 0.38333 0.75604 0.0
H2976 H 0.88852 0.32191 0.79525 0.0
H2977 H 0.8743 0.3425 0.78225 0.0
H2978 H 0.8638 0.33121 0.73296 0.0
C2979 C 0.83259 0.37835 0.71642 0.0
C2980 C 0.8576 0.37203 0.75084 0.0
C2981 C 0.81927 0.38598 0.71119 0.0
C2982 C 0.88928 0.32276 0.78273 0.0
C2983 C 0.8812 0.33465 0.77527 0.0
C2984 C 0.86251 0.3427 0.73788 0.0
C2985 C 0.83556 0.3769 0.73239 0.0
C2986 C 0.84864 0.36727 0.73807 0.0
C2987 C 0.88129 0.33581 0.75899 0.0
C2988 C 0.87104 0.34718 0.75105 0.0
H2989 H 0.80395 0.39605 0.74629 0.0
H2990 H 0.82712 0.38268 0.75539 0.0
H2991 H 0.8446 0.34855 0.72174 0.0
H2992 H 0.90467 0.30499 0.75088 0.0
H2993 H 0.89075 0.32592 0.73786 0.0
C2994 C 0.67902 0.88137 0.78027 0.0
C2995 C 0.68974 0.88976 0.77128 0.0
C2996 C 0.66685 0.87335 0.77317 0.0
C2997 C 0.6569 0.85572 0.73556 0.0
H2998 H 0.61673 0.84947 0.75485 0.0
C2999 C 0.61066 0.81735 0.70699 0.0
C3000 C 0.60411 0.80604 0.71674 0.0
C3001 C 0.61914 0.82967 0.71322 0.0
C3002 C 0.62791 0.85111 0.74935 0.0
H3003 H 0.69558 0.89707 0.74792 0.0
H3004 H 0.67414 0.88338 0.73558 0.0
H3005 H 0.63519 0.86763 0.76643 0.0
H3006 H 0.60063 0.79923 0.74073 0.0
H3007 H 0.6155 0.82073 0.7516 0.0
H3008 H 0.64975 0.83909 0.71862 0.0
C3009 C 0.67537 0.88265 0.74807 0.0
C3010 C 0.63849 0.86148 0.75599 0.0
C3011 C 0.68762 0.89056 0.75514 0.0
C3012 C 0.60557 0.80772 0.7329 0.0
C3013 C 0.61402 0.82009 0.73914 0.0
C3014 C 0.64631 0.84546 0.72889 0.0
C3015 C 0.66506 0.87364 0.75695 0.0
C3016 C 0.65321 0.86373 0.74928 0.0
C3017 C 0.6212 0.83097 0.72934 0.0
C3018 C 0.63178 0.84289 0.73582 0.0
H3019 H 0.68035 0.88052 0.79274 0.0
H3020 H 0.65925 0.8664 0.78037 0.0
H3021 H 0.66822 0.8569 0.73024 0.0
H3022 H 0.60966 0.81647 0.69449 0.0
H3023 H 0.62435 0.83801 0.7054 0.0
C3024 C 0.26403 0.18825 0.40116 0.0
C3025 C 0.27995 0.19173 0.40128 0.0
C3026 C 0.25864 0.17478 0.39388 0.0
C3027 C 0.27037 0.14968 0.3618 0.0
H3028 H 0.23337 0.12648 0.37255 0.0
C3029 C 0.24453 0.10622 0.31878 0.0
C3030 C 0.22848 0.10772 0.31638 0.0
C3031 C 0.25157 0.11307 0.33168 0.0
C3032 C 0.24372 0.13287 0.3694 0.0
H3033 H 0.30282 0.18314 0.39525 0.0
H3034 H 0.29346 0.15953 0.38288 0.0
H3035 H 0.24449 0.14467 0.39129 0.0
H3036 H 0.2071 0.11683 0.32607 0.0
H3037 H 0.21942 0.12906 0.34832 0.0
H3038 H 0.26935 0.13848 0.33975 0.0
C3039 C 0.28509 0.16739 0.38799 0.0
C3040 C 0.25009 0.14326 0.38013 0.0
C3041 C 0.29046 0.18089 0.39514 0.0
C3042 C 0.21951 0.1155 0.32756 0.0
C3043 C 0.22656 0.12242 0.3404 0.0
C3044 C 0.26402 0.13934 0.3511 0.0
C3045 C 0.26909 0.16451 0.38669 0.0
C3046 C 0.26333 0.152 0.37633 0.0
C3047 C 0.24274 0.12164 0.34239 0.0
C3048 C 0.25045 0.13103 0.35463 0.0
H3049 H 0.25565 0.19638 0.40581 0.0
H3050 H 0.24624 0.17295 0.39303 0.0
H3051 H 0.28039 0.15643 0.35833 0.0
H3052 H 0.25173 0.10014 0.31047 0.0
H3053 H 0.26402 0.112 0.33303 0.0
C3054 C 0.89416 0.22991 0.3107 0.0
C3055 C 0.89618 0.21394 0.3081 0.0
C3056 C 0.88594 0.23515 0.32365 0.0
C3057 C 0.85452 0.22231 0.34874 0.0
H3058 H 0.8637 0.25977 0.37191 0.0
C3059 C 0.81094 0.24644 0.39297 0.0
C3060 C 0.80836 0.26252 0.3923 0.0
C3061 C 0.82367 0.23984 0.38541 0.0
C3062 C 0.86094 0.24933 0.36549 0.0
H3063 H 0.89202 0.19097 0.3176 0.0
H3064 H 0.87767 0.20016 0.34019 0.0
H3065 H 0.88288 0.24943 0.35377 0.0
H3066 H 0.81739 0.28436 0.38363 0.0
H3067 H 0.8393 0.27284 0.3701 0.0
H3068 H 0.83238 0.22248 0.35982 0.0
C3069 C 0.8823 0.2086 0.3321 0.0
C3070 C 0.87195 0.24339 0.35515 0.0
C3071 C 0.89058 0.20336 0.3192 0.0
C3072 C 0.81906 0.27192 0.38438 0.0
C3073 C 0.83171 0.26531 0.3767 0.0
C3074 C 0.8435 0.22828 0.35897 0.0
C3075 C 0.87952 0.22453 0.33423 0.0
C3076 C 0.86874 0.22995 0.34649 0.0
C3077 C 0.83402 0.24916 0.37689 0.0
C3078 C 0.84645 0.24201 0.36729 0.0
H3079 H 0.89838 0.23836 0.30241 0.0
H3080 H 0.8839 0.24749 0.32492 0.0
H3081 H 0.85159 0.21208 0.34205 0.0
H3082 H 0.80299 0.2389 0.39913 0.0
H3083 H 0.82526 0.22739 0.38604 0.0
C3084 C 0.77942 0.88573 0.32347 0.0
C3085 C 0.76865 0.8917 0.31277 0.0
C3086 C 0.77436 0.87807 0.33682 0.0
C3087 C 0.74007 0.86985 0.36151 0.0
H3088 H 0.75961 0.82961 0.36632 0.0
C3089 C 0.71034 0.81796 0.3912 0.0
C3090 C 0.71951 0.80688 0.39888 0.0
C3091 C 0.71723 0.83058 0.38373 0.0
C3092 C 0.75422 0.84093 0.36544 0.0
H3093 H 0.74415 0.8952 0.30818 0.0
H3094 H 0.73533 0.88167 0.3314 0.0
H3095 H 0.77012 0.84804 0.34783 0.0
H3096 H 0.74299 0.8009 0.40567 0.0
H3097 H 0.755 0.8231 0.3929 0.0
H3098 H 0.72389 0.8625 0.37888 0.0
C3099 C 0.74768 0.883 0.32952 0.0
C3100 C 0.76025 0.85151 0.3548 0.0
C3101 C 0.75274 0.89067 0.31616 0.0
C3102 C 0.73563 0.80914 0.39968 0.0
C3103 C 0.74251 0.82183 0.39231 0.0
C3104 C 0.73405 0.85927 0.37224 0.0
C3105 C 0.75844 0.87622 0.33975 0.0
C3106 C 0.75306 0.86596 0.35247 0.0
C3107 C 0.73344 0.83246 0.38387 0.0
C3108 C 0.74087 0.84454 0.37408 0.0
H3109 H 0.79178 0.88648 0.3213 0.0
H3110 H 0.78293 0.87319 0.34462 0.0
H3111 H 0.73439 0.88098 0.36009 0.0
H3112 H 0.69788 0.81657 0.39038 0.0
H3113 H 0.70989 0.83843 0.37721 0.0
C3114 C 0.19613 0.73465 0.40232 0.0
C3115 C 0.19857 0.71853 0.40288 0.0
C3116 C 0.18413 0.74083 0.3933 0.0
C3117 C 0.16315 0.73173 0.35804 0.0
H3118 H 0.13534 0.76511 0.36971 0.0
C3119 C 0.11813 0.7541 0.31489 0.0
C3120 C 0.11594 0.77021 0.31403 0.0
C3121 C 0.12631 0.74758 0.32723 0.0
C3122 C 0.14313 0.75589 0.36624 0.0
H3123 H 0.18978 0.69621 0.39514 0.0
H3124 H 0.16899 0.70703 0.37937 0.0
H3125 H 0.15316 0.75422 0.389 0.0
H3126 H 0.12013 0.79213 0.32561 0.0
H3127 H 0.13498 0.78082 0.34693 0.0
H3128 H 0.1538 0.73366 0.33523 0.0
C3129 C 0.17642 0.71487 0.3858 0.0
C3130 C 0.15326 0.74964 0.37729 0.0
C3131 C 0.18831 0.70869 0.39488 0.0
C3132 C 0.12163 0.77966 0.32602 0.0
C3133 C 0.13007 0.77315 0.33827 0.0
C3134 C 0.15321 0.73807 0.34698 0.0
C3135 C 0.17447 0.731 0.38461 0.0
C3136 C 0.16332 0.73747 0.37327 0.0
C3137 C 0.13277 0.75705 0.33885 0.0
C3138 C 0.14303 0.7502 0.35092 0.0
H3139 H 0.2038 0.74253 0.40841 0.0
H3140 H 0.1829 0.75332 0.39253 0.0
H3141 H 0.17103 0.72258 0.35454 0.0
H3142 H 0.11366 0.74651 0.30591 0.0
H3143 H 0.12777 0.73511 0.32751 0.0
C3144 C 0.28235 0.82055 0.62187 0.0
C3145 C 0.27291 0.80804 0.61731 0.0
C3146 C 0.27578 0.83388 0.62833 0.0
C3147 C 0.23892 0.85528 0.63342 0.0
H3148 H 0.25753 0.86863 0.67215 0.0
C3149 C 0.2057 0.88958 0.67998 0.0
C3150 C 0.21385 0.89986 0.68966 0.0
C3151 C 0.2135 0.88101 0.66867 0.0
C3152 C 0.25235 0.86534 0.66118 0.0
H3153 H 0.24914 0.79999 0.61537 0.0
H3154 H 0.2377 0.82324 0.62673 0.0
H3155 H 0.27014 0.84863 0.65681 0.0
H3156 H 0.23638 0.91005 0.69433 0.0
H3157 H 0.24996 0.8953 0.67437 0.0
H3158 H 0.22094 0.87181 0.63798 0.0
C3159 C 0.25017 0.82276 0.62522 0.0
C3160 C 0.25958 0.85382 0.6524 0.0
C3161 C 0.25673 0.80939 0.61882 0.0
C3162 C 0.2298 0.9021 0.68716 0.0
C3163 C 0.2376 0.89358 0.67578 0.0
C3164 C 0.23172 0.86689 0.64217 0.0
C3165 C 0.25965 0.83503 0.63029 0.0
C3166 C 0.25278 0.84844 0.6386 0.0
C3167 C 0.22962 0.88259 0.66671 0.0
C3168 C 0.23818 0.87181 0.65633 0.0
H3169 H 0.29485 0.81992 0.62079 0.0
H3170 H 0.28336 0.84322 0.63198 0.0
H3171 H 0.23353 0.85151 0.62271 0.0
H3172 H 0.19339 0.88759 0.68158 0.0
H3173 H 0.207 0.87255 0.66203 0.0
C3174 C 0.18648 0.27087 0.60357 0.0
C3175 C 0.20073 0.26478 0.59845 0.0
C3176 C 0.17602 0.26154 0.61174 0.0
C3177 C 0.17734 0.22946 0.63862 0.0
H3178 H 0.13249 0.22947 0.63532 0.0
C3179 C 0.14046 0.19644 0.683 0.0
C3180 C 0.12682 0.20367 0.68816 0.0
C3181 C 0.14832 0.20207 0.67001 0.0
C3182 C 0.14499 0.22945 0.63649 0.0
H3183 H 0.21463 0.24384 0.59685 0.0
H3184 H 0.19642 0.22764 0.61123 0.0
H3185 H 0.14804 0.24262 0.61555 0.0
H3186 H 0.11047 0.22223 0.68362 0.0
H3187 H 0.12454 0.23253 0.66134 0.0
H3188 H 0.17451 0.21712 0.65986 0.0
C3189 C 0.19343 0.23965 0.60901 0.0
C3190 C 0.15387 0.23689 0.62511 0.0
C3191 C 0.20382 0.24893 0.60073 0.0
C3192 C 0.12097 0.21642 0.67987 0.0
C3193 C 0.12899 0.22224 0.66702 0.0
C3194 C 0.16851 0.22222 0.65007 0.0
C3195 C 0.17968 0.246 0.61502 0.0
C3196 C 0.17013 0.23704 0.62614 0.0
C3197 C 0.1429 0.21526 0.66205 0.0
C3198 C 0.1522 0.2222 0.64925 0.0
H3199 H 0.18372 0.28302 0.60192 0.0
H3200 H 0.16553 0.26675 0.6163 0.0
H3201 H 0.18985 0.22966 0.63988 0.0
H3202 H 0.1451 0.18643 0.68902 0.0
H3203 H 0.15875 0.19612 0.66631 0.0
C3204 C 0.7575 0.10421 0.69223 0.0
C3205 C 0.7736 0.10276 0.69426 0.0
C3206 C 0.75153 0.11176 0.67917 0.0
C3207 C 0.76328 0.14106 0.65025 0.0
H3208 H 0.72304 0.1317 0.63243 0.0
C3209 C 0.73577 0.18007 0.60346 0.0
C3210 C 0.72066 0.18495 0.60716 0.0
C3211 C 0.74259 0.16772 0.6115 0.0
C3212 C 0.73432 0.1344 0.63728 0.0
H3213 H 0.79604 0.1071 0.68373 0.0
H3214 H 0.78563 0.11982 0.66075 0.0
H3215 H 0.73457 0.11382 0.65117 0.0
H3216 H 0.70057 0.18022 0.62158 0.0
H3217 H 0.71245 0.1587 0.63551 0.0
H3218 H 0.76292 0.16174 0.63654 0.0
C3219 C 0.7776 0.1156 0.66945 0.0
C3220 C 0.7409 0.12421 0.64805 0.0
C3221 C 0.78357 0.10822 0.68258 0.0
C3222 C 0.71227 0.1768 0.61853 0.0
C3223 C 0.71902 0.16438 0.62642 0.0
C3224 C 0.75677 0.15115 0.63939 0.0
C3225 C 0.76153 0.11786 0.66778 0.0
C3226 C 0.75531 0.1276 0.65495 0.0
C3227 C 0.73436 0.15993 0.62323 0.0
C3228 C 0.74207 0.14812 0.63306 0.0
H3229 H 0.74953 0.10015 0.70105 0.0
H3230 H 0.7391 0.11343 0.6784 0.0
H3231 H 0.77426 0.14422 0.65549 0.0
H3232 H 0.74252 0.1861 0.59474 0.0
H3233 H 0.75441 0.16445 0.60874 0.0
C3234 C 0.81628 0.71123 0.60835 0.0
C3235 C 0.80624 0.7194 0.59843 0.0
C3236 C 0.82868 0.71877 0.61552 0.0
C3237 C 0.8399 0.75754 0.6287 0.0
H3238 H 0.87855 0.73691 0.63898 0.0
C3239 C 0.8841 0.78541 0.67027 0.0
C3240 C 0.88905 0.77556 0.6823 0.0
C3241 C 0.8765 0.77934 0.65728 0.0
C3242 C 0.86782 0.74282 0.63618 0.0
H3243 H 0.80183 0.74169 0.5876 0.0
H3244 H 0.82362 0.75485 0.60005 0.0
H3245 H 0.86064 0.72482 0.62063 0.0
H3246 H 0.89059 0.75157 0.68979 0.0
H3247 H 0.87728 0.74103 0.66722 0.0
H3248 H 0.84683 0.7753 0.64458 0.0
C3249 C 0.82173 0.74266 0.60245 0.0
C3250 C 0.85757 0.73591 0.62569 0.0
C3251 C 0.8093 0.7351 0.59527 0.0
C3252 C 0.88688 0.75948 0.68075 0.0
C3253 C 0.87934 0.75342 0.66775 0.0
C3254 C 0.85017 0.76447 0.63914 0.0
C3255 C 0.83136 0.73465 0.61292 0.0
C3256 C 0.8433 0.74299 0.62216 0.0
C3257 C 0.87378 0.76331 0.65603 0.0
C3258 C 0.86405 0.75699 0.64331 0.0
H3259 H 0.81429 0.69911 0.61101 0.0
H3260 H 0.83573 0.71229 0.62366 0.0
H3261 H 0.82893 0.76322 0.62641 0.0
H3262 H 0.88566 0.79785 0.67108 0.0
H3263 H 0.87249 0.78723 0.64835 0.0
C3264 C 0.32881 0.21481 0.108 0.0
C3265 C 0.31741 0.22279 0.09949 0.0
C3266 C 0.34119 0.22283 0.11471 0.0
C3267 C 0.35022 0.2617 0.1294 0.0
H3268 H 0.39101 0.24398 0.13626 0.0
C3269 C 0.39419 0.29208 0.16896 0.0
C3270 C 0.40076 0.28244 0.18037 0.0
C3271 C 0.38659 0.28568 0.15616 0.0
C3272 C 0.37967 0.24907 0.13442 0.0
H3273 H 0.31065 0.24528 0.09045 0.0
H3274 H 0.33241 0.25925 0.10194 0.0
H3275 H 0.37289 0.23112 0.11862 0.0
H3276 H 0.40532 0.25852 0.18679 0.0
H3277 H 0.39191 0.24736 0.16456 0.0
H3278 H 0.35676 0.27938 0.1455 0.0
C3279 C 0.33158 0.24683 0.10373 0.0
C3280 C 0.36929 0.24171 0.12434 0.0
C3281 C 0.31914 0.23882 0.09708 0.0
C3282 C 0.40033 0.26628 0.17824 0.0
C3283 C 0.39273 0.25987 0.16543 0.0
C3284 C 0.36059 0.26907 0.13942 0.0
C3285 C 0.3425 0.239 0.11298 0.0
C3286 C 0.35432 0.24776 0.12199 0.0
C3287 C 0.38539 0.2695 0.15449 0.0
C3288 C 0.37531 0.26267 0.1423 0.0
H3289 H 0.32783 0.20244 0.11007 0.0
H3290 H 0.34928 0.21644 0.12189 0.0
H3291 H 0.33871 0.26656 0.1281 0.0
H3292 H 0.39443 0.30459 0.17018 0.0
H3293 H 0.38126 0.29339 0.14779 0.0
C3294 C 0.39278 0.71515 0.82803 0.0
C3295 C 0.40186 0.72412 0.81788 0.0
C3296 C 0.38472 0.72217 0.84021 0.0
C3297 C 0.36788 0.76005 0.84994 0.0
H3298 H 0.35746 0.73966 0.88869 0.0
C3299 C 0.3235 0.787 0.89122 0.0
C3300 C 0.31158 0.77684 0.89577 0.0
C3301 C 0.3372 0.78123 0.8848 0.0
C3302 C 0.3603 0.7455 0.87792 0.0
H3303 H 0.41055 0.74727 0.81323 0.0
H3304 H 0.39677 0.75947 0.83469 0.0
H3305 H 0.37718 0.72834 0.87173 0.0
H3306 H 0.30513 0.75262 0.89813 0.0
H3307 H 0.32898 0.74256 0.88677 0.0
H3308 H 0.35077 0.77695 0.85586 0.0
C3309 C 0.39553 0.74708 0.833 0.0
C3310 C 0.37156 0.73901 0.8682 0.0
C3311 C 0.40348 0.74008 0.82073 0.0
C3312 C 0.31406 0.76076 0.89468 0.0
C3313 C 0.32778 0.75498 0.88825 0.0
C3314 C 0.35671 0.76655 0.85967 0.0
C3315 C 0.38566 0.73829 0.84258 0.0
C3316 C 0.37524 0.74605 0.85393 0.0
C3317 C 0.33929 0.76518 0.8828 0.0
C3318 C 0.35256 0.75919 0.87361 0.0
H3319 H 0.3913 0.70281 0.82614 0.0
H3320 H 0.37712 0.71505 0.84724 0.0
H3321 H 0.37016 0.76565 0.83893 0.0
H3322 H 0.32203 0.79946 0.89205 0.0
H3323 H 0.34598 0.78936 0.88094 0.0
C3324 C 0.23656 0.31214 0.89844 0.0
C3325 C 0.22054 0.31016 0.90071 0.0
C3326 C 0.24219 0.32513 0.89054 0.0
C3327 C 0.22953 0.35212 0.86046 0.0
H3328 H 0.26927 0.37171 0.86826 0.0
C3329 C 0.25575 0.39502 0.81665 0.0
C3330 C 0.27139 0.39229 0.81294 0.0
C3331 C 0.24904 0.38803 0.82966 0.0
C3332 C 0.25816 0.36633 0.86593 0.0
H3333 H 0.19795 0.32082 0.89748 0.0
H3334 H 0.20782 0.34353 0.88381 0.0
H3335 H 0.25832 0.35402 0.88753 0.0
H3336 H 0.29243 0.3806 0.82036 0.0
H3337 H 0.28069 0.36822 0.84282 0.0
H3338 H 0.22957 0.36388 0.83864 0.0
C3339 C 0.21599 0.3349 0.88789 0.0
C3340 C 0.25189 0.35623 0.87697 0.0
C3341 C 0.21035 0.32192 0.89579 0.0
C3342 C 0.28033 0.38293 0.82286 0.0
C3343 C 0.27363 0.37592 0.83583 0.0
C3344 C 0.23579 0.36218 0.84943 0.0
C3345 C 0.23192 0.33641 0.88476 0.0
C3346 C 0.23766 0.34875 0.87419 0.0
C3347 C 0.25783 0.37814 0.83922 0.0
C3348 C 0.25034 0.36913 0.85187 0.0
H3349 H 0.24472 0.30333 0.90214 0.0
H3350 H 0.25452 0.32587 0.88823 0.0
H3351 H 0.21866 0.34637 0.85783 0.0
H3352 H 0.24857 0.40228 0.80931 0.0
H3353 H 0.2369 0.39015 0.83208 0.0
C3354 C 0.60067 0.25562 0.79871 0.0
C3355 C 0.59898 0.27161 0.8014 0.0
C3356 C 0.6098 0.24657 0.80858 0.0
C3357 C 0.62848 0.24436 0.84675 0.0
H3358 H 0.6618 0.22381 0.8246 0.0
C3359 C 0.68371 0.22231 0.87768 0.0
C3360 C 0.69145 0.20937 0.87153 0.0
C3361 C 0.67089 0.22861 0.86999 0.0
C3362 C 0.65242 0.22913 0.83104 0.0
H3363 H 0.60461 0.29046 0.8171 0.0
H3364 H 0.62036 0.27454 0.83451 0.0
H3365 H 0.64128 0.23658 0.81014 0.0
H3366 H 0.69143 0.19234 0.85303 0.0
H3367 H 0.66871 0.20284 0.83999 0.0
H3368 H 0.63949 0.2368 0.86768 0.0
C3369 C 0.61471 0.26907 0.82471 0.0
C3370 C 0.64068 0.23651 0.8227 0.0
C3371 C 0.60576 0.27817 0.81471 0.0
C3372 C 0.68582 0.20249 0.85789 0.0
C3373 C 0.67283 0.20858 0.85038 0.0
C3374 C 0.6401 0.23673 0.85513 0.0
C3375 C 0.6172 0.2533 0.82144 0.0
C3376 C 0.62872 0.24435 0.83047 0.0
C3377 C 0.66536 0.22192 0.85615 0.0
C3378 C 0.65236 0.22919 0.84737 0.0
H3379 H 0.5956 0.25022 0.78855 0.0
H3380 H 0.61149 0.2344 0.80589 0.0
H3381 H 0.61932 0.2503 0.85298 0.0
H3382 H 0.68786 0.22786 0.88817 0.0
H3383 H 0.66564 0.23901 0.8747 0.0
C3384 C 0.71341 0.61295 0.81898 0.0
C3385 C 0.72207 0.6037 0.80872 0.0
C3386 C 0.72077 0.62109 0.83091 0.0
C3387 C 0.75882 0.63778 0.84013 0.0
H3388 H 0.73975 0.64648 0.87995 0.0
C3389 C 0.78769 0.67891 0.88386 0.0
C3390 C 0.7779 0.6904 0.89003 0.0
C3391 C 0.78148 0.66612 0.87608 0.0
C3392 C 0.7452 0.64416 0.86886 0.0
H3393 H 0.74509 0.595 0.80348 0.0
H3394 H 0.7579 0.60901 0.82445 0.0
H3395 H 0.72779 0.62761 0.86247 0.0
H3396 H 0.7539 0.69712 0.8935 0.0
H3397 H 0.74306 0.67488 0.8798 0.0
H3398 H 0.77601 0.65454 0.84631 0.0
C3399 C 0.74547 0.61024 0.82307 0.0
C3400 C 0.73835 0.63337 0.85886 0.0
C3401 C 0.73812 0.60215 0.8111 0.0
C3402 C 0.76176 0.68849 0.88884 0.0
C3403 C 0.75554 0.67569 0.88108 0.0
C3404 C 0.76567 0.64851 0.85013 0.0
C3405 C 0.73693 0.6201 0.83287 0.0
C3406 C 0.74495 0.63026 0.84426 0.0
C3407 C 0.76535 0.66454 0.87433 0.0
C3408 C 0.75881 0.65201 0.8645 0.0
H3409 H 0.70102 0.61438 0.81747 0.0
H3410 H 0.71386 0.6287 0.83814 0.0
H3411 H 0.76408 0.63589 0.82887 0.0
H3412 H 0.80019 0.67997 0.88467 0.0
H3413 H 0.78932 0.6576 0.87119 0.0
C3414 C 0.67858 0.77954 0.11 0.0
C3415 C 0.68943 0.77027 0.10212 0.0
C3416 C 0.66673 0.77273 0.1187 0.0
C3417 C 0.65835 0.73647 0.13947 0.0
H3418 H 0.61768 0.75495 0.14495 0.0
C3419 C 0.61388 0.71008 0.18137 0.0
C3420 C 0.607 0.72061 0.19176 0.0
C3421 C 0.62202 0.71542 0.16844 0.0
C3422 C 0.62901 0.74969 0.14354 0.0
H3423 H 0.69582 0.7466 0.09642 0.0
H3424 H 0.67494 0.73471 0.11135 0.0
H3425 H 0.63534 0.76544 0.12539 0.0
H3426 H 0.60266 0.74498 0.19632 0.0
H3427 H 0.617 0.75432 0.17376 0.0
H3428 H 0.65216 0.7209 0.15776 0.0
C3429 C 0.67582 0.74725 0.11111 0.0
C3430 C 0.63913 0.75569 0.13236 0.0
C3431 C 0.68773 0.75406 0.10249 0.0
C3432 C 0.60787 0.73657 0.18857 0.0
C3433 C 0.616 0.74192 0.17559 0.0
C3434 C 0.64823 0.73044 0.15057 0.0
C3435 C 0.66541 0.7565 0.11963 0.0
C3436 C 0.65401 0.74929 0.13037 0.0
C3437 C 0.62343 0.73141 0.16558 0.0
C3438 C 0.63354 0.73711 0.15288 0.0
H3439 H 0.67956 0.79207 0.10995 0.0
H3440 H 0.65903 0.78021 0.12524 0.0
H3441 H 0.66982 0.73143 0.13848 0.0
H3442 H 0.61332 0.69769 0.18342 0.0
H3443 H 0.62744 0.70704 0.1608 0.0
C3444 C 0.25312 0.6151 0.18383 0.0
C3445 C 0.26904 0.61235 0.18599 0.0
C3446 C 0.2478 0.62244 0.17038 0.0
C3447 C 0.26113 0.65001 0.14105 0.0
H3448 H 0.22196 0.64035 0.12115 0.0
C3449 C 0.23593 0.69047 0.09452 0.0
C3450 C 0.2203 0.69443 0.09693 0.0
C3451 C 0.24246 0.67777 0.10224 0.0
C3452 C 0.23292 0.64319 0.12659 0.0
H3453 H 0.29179 0.61447 0.17537 0.0
H3454 H 0.28247 0.62725 0.15193 0.0
H3455 H 0.23233 0.62288 0.14093 0.0
H3456 H 0.19903 0.68757 0.10855 0.0
H3457 H 0.21043 0.66573 0.12214 0.0
H3458 H 0.26148 0.67061 0.12728 0.0
C3459 C 0.27413 0.62389 0.16072 0.0
C3460 C 0.23885 0.6332 0.13791 0.0
C3461 C 0.27945 0.61653 0.17414 0.0
C3462 C 0.21113 0.6849 0.10647 0.0
C3463 C 0.21765 0.67226 0.1142 0.0
C3464 C 0.25519 0.66002 0.12979 0.0
C3465 C 0.25829 0.62721 0.15882 0.0
C3466 C 0.25285 0.63668 0.14551 0.0
C3467 C 0.2335 0.6688 0.11253 0.0
C3468 C 0.24083 0.65693 0.12269 0.0
H3469 H 0.24479 0.61199 0.19271 0.0
H3470 H 0.23553 0.62497 0.16934 0.0
H3471 H 0.27185 0.65314 0.14682 0.0
H3472 H 0.24328 0.69751 0.08715 0.0
H3473 H 0.25465 0.67525 0.10051 0.0
C3474 C 0.7061 0.38638 0.18026 0.0
C3475 C 0.71433 0.39761 0.18876 0.0
C3476 C 0.71284 0.37925 0.16738 0.0
C3477 C 0.75123 0.36855 0.15339 0.0
H3478 H 0.72845 0.35368 0.11754 0.0
C3479 C 0.77891 0.32536 0.1109 0.0
C3480 C 0.76957 0.31254 0.10709 0.0
C3481 C 0.77243 0.33846 0.11791 0.0
C3482 C 0.73496 0.35774 0.12749 0.0
H3483 H 0.73567 0.41094 0.18975 0.0
H3484 H 0.74742 0.39848 0.16719 0.0
H3485 H 0.71638 0.37242 0.13506 0.0
H3486 H 0.74601 0.3037 0.10699 0.0
H3487 H 0.73477 0.32639 0.11948 0.0
H3488 H 0.76953 0.35345 0.14629 0.0
C3489 C 0.73583 0.39506 0.17065 0.0
C3490 C 0.72806 0.36849 0.1375 0.0
C3491 C 0.72907 0.40224 0.18353 0.0
C3492 C 0.75353 0.31336 0.10982 0.0
C3493 C 0.74706 0.32644 0.11687 0.0
C3494 C 0.7581 0.3578 0.14343 0.0
C3495 C 0.72796 0.38317 0.16271 0.0
C3496 C 0.73599 0.37371 0.15076 0.0
C3497 C 0.75649 0.33901 0.1213 0.0
C3498 C 0.74991 0.35197 0.13057 0.0
H3499 H 0.69469 0.38261 0.18392 0.0
H3500 H 0.70651 0.37004 0.16161 0.0
H3501 H 0.75757 0.37215 0.16363 0.0
H3502 H 0.7913 0.32515 0.10881 0.0
H3503 H 0.77997 0.34805 0.12094 0.0
loop_
_geom_bond_atom_site_label_1
_geom_bond_atom_site_label_2
_geom_bond_distance
_geom_bond_site_symmetry_2
_ccdc_geom_bond_type
C0 O1 1.160 . S
C0 O7 1.185 . S
O1 C0 1.160 . S
O2 Zn3 1.899 . S
O2 C10 1.284 . S
Zn3 O2 1.899 . S
Zn3 O4 2.032 . S
Zn3 O7 2.086 . S
Zn3 O12 1.977 . S
O4 Zn3 2.032 . S
O4 C8 1.278 . S
C5 O6 1.203 . S
C5 O12 1.267 . S
O6 C5 1.203 . S
O7 C0 1.185 . S
O7 Zn3 2.086 . S
C8 O4 1.278 . S
C8 O9 1.211 . S
O9 C8 1.211 . S
C10 O2 1.284 . S
C10 O11 1.273 . S
O11 C10 1.273 . S
O12 Zn3 1.977 . S
O12 C5 1.267 . S
C13 O14 1.160 . S
C13 O20 1.185 . S
O14 C13 1.160 . S
O15 Zn16 1.899 . S
O15 C23 1.284 . S
Zn16 O15 1.899 . S
Zn16 O17 2.032 . S
Zn16 O20 2.086 . S
Zn16 O25 1.977 . S
O17 Zn16 2.032 . S
O17 C21 1.278 . S
C18 O19 1.203 . S
C18 O25 1.267 . S
O19 C18 1.203 . S
O20 C13 1.185 . S
O20 Zn16 2.086 . S
C21 O17 1.278 . S
C21 O22 1.211 . S
O22 C21 1.211 . S
C23 O15 1.284 . S
C23 O24 1.273 . S
O24 C23 1.273 . S
O25 Zn16 1.977 . S
O25 C18 1.267 . S
C26 O27 1.160 . S
C26 O33 1.185 . S
O27 C26 1.160 . S
O28 Zn29 1.899 . S
O28 C36 1.284 . S
Zn29 O28 1.899 . S
Zn29 O30 2.032 . S
Zn29 O33 2.086 . S
Zn29 O38 1.977 . S
O30 Zn29 2.032 . S
O30 C34 1.278 . S
C31 O32 1.203 . S
C31 O38 1.267 . S
O32 C31 1.203 . S
O33 C26 1.185 . S
O33 Zn29 2.086 . S
C34 O30 1.278 . S
C34 O35 1.211 . S
O35 C34 1.211 . S
C36 O28 1.284 . S
C36 O37 1.273 . S
O37 C36 1.273 . S
O38 Zn29 1.977 . S
O38 C31 1.267 . S
C39 O40 1.160 . S
C39 O46 1.185 . S
O40 C39 1.160 . S
O41 Zn42 1.899 . S
O41 C49 1.284 . S
Zn42 O41 1.899 . S
Zn42 O43 2.032 . S
Zn42 O46 2.086 . S
Zn42 O51 1.977 . S
O43 Zn42 2.032 . S
O43 C47 1.278 . S
C44 O45 1.203 . S
C44 O51 1.267 . S
O45 C44 1.203 . S
O46 C39 1.185 . S
O46 Zn42 2.086 . S
C47 O43 1.278 . S
C47 O48 1.211 . S
O48 C47 1.211 . S
C49 O41 1.284 . S
C49 O50 1.273 . S
O50 C49 1.273 . S
O51 Zn42 1.977 . S
O51 C44 1.267 . S
C52 O53 1.160 . S
C52 O59 1.185 . S
O53 C52 1.160 . S
O54 Zn55 1.899 . S
O54 C62 1.284 . S
Zn55 O54 1.899 . S
Zn55 O56 2.032 . S
Zn55 O59 2.086 . S
Zn55 O64 1.977 . S
O56 Zn55 2.032 . S
O56 C60 1.278 . S
C57 O58 1.203 . S
C57 O64 1.267 . S
O58 C57 1.203 . S
O59 C52 1.185 . S
O59 Zn55 2.086 . S
C60 O56 1.278 . S
C60 O61 1.211 . S
O61 C60 1.211 . S
C62 O54 1.284 . S
C62 O63 1.273 . S
O63 C62 1.273 . S
O64 Zn55 1.977 . S
O64 C57 1.267 . S
C65 O66 1.160 . S
C65 O72 1.185 . S
O66 C65 1.160 . S
O67 Zn68 1.899 . S
O67 C75 1.284 . S
Zn68 O67 1.899 . S
Zn68 O69 2.032 . S
Zn68 O72 2.086 . S
Zn68 O77 1.977 . S
O69 Zn68 2.032 . S
O69 C73 1.278 . S
C70 O71 1.203 . S
C70 O77 1.267 . S
O71 C70 1.203 . S
O72 C65 1.185 . S
O72 Zn68 2.086 . S
C73 O69 1.278 . S
C73 O74 1.211 . S
O74 C73 1.211 . S
C75 O67 1.284 . S
C75 O76 1.273 . S
O76 C75 1.273 . S
O77 Zn68 1.977 . S
O77 C70 1.267 . S
C78 O79 1.160 . S
C78 O85 1.185 . S
O79 C78 1.160 . S
O80 Zn81 1.899 . S
O80 C88 1.284 . S
Zn81 O80 1.899 . S
Zn81 O82 2.032 . S
Zn81 O85 2.086 . S
Zn81 O90 1.977 . S
O82 Zn81 2.032 . S
O82 C86 1.278 . S
C83 O84 1.203 . S
C83 O90 1.267 . S
O84 C83 1.203 . S
O85 C78 1.185 . S
O85 Zn81 2.086 . S
C86 O82 1.278 . S
C86 O87 1.211 . S
O87 C86 1.211 . S
C88 O80 1.284 . S
C88 O89 1.273 . S
O89 C88 1.273 . S
O90 Zn81 1.977 . S
O90 C83 1.267 . S
C91 O92 1.160 . S
C91 O98 1.185 . S
O92 C91 1.160 . S
O93 Zn94 1.899 . S
O93 C101 1.284 . S
Zn94 O93 1.899 . S
Zn94 O95 2.032 . S
Zn94 O98 2.086 . S
Zn94 O103 1.977 . S
O95 Zn94 2.032 . S
O95 C99 1.278 . S
C96 O97 1.203 . S
C96 O103 1.267 . S
O97 C96 1.203 . S
O98 C91 1.185 . S
O98 Zn94 2.086 . S
C99 O95 1.278 . S
C99 O100 1.211 . S
O100 C99 1.211 . S
C101 O93 1.284 . S
C101 O102 1.273 . S
O102 C101 1.273 . S
O103 Zn94 1.977 . S
O103 C96 1.267 . S
C104 O105 1.160 . S
C104 O111 1.185 . S
O105 C104 1.160 . S
O106 Zn107 1.899 . S
O106 C114 1.284 . S
Zn107 O106 1.899 . S
Zn107 O108 2.032 . S
Zn107 O111 2.086 . S
Zn107 O116 1.977 . S
O108 Zn107 2.032 . S
O108 C112 1.278 . S
C109 O110 1.203 . S
C109 O116 1.267 . S
O110 C109 1.203 . S
O111 C104 1.185 . S
O111 Zn107 2.086 . S
C112 O108 1.278 . S
C112 O113 1.211 . S
O113 C112 1.211 . S
C114 O106 1.284 . S
C114 O115 1.273 . S
O115 C114 1.273 . S
O116 Zn107 1.977 . S
O116 C109 1.267 . S
C117 O118 1.160 . S
C117 O124 1.185 . S
O118 C117 1.160 . S
O119 Zn120 1.899 . S
O119 C127 1.284 . S
Zn120 O119 1.899 . S
Zn120 O121 2.032 . S
Zn120 O124 2.086 . S
Zn120 O129 1.977 . S
O121 Zn120 2.032 . S
O121 C125 1.278 . S
C122 O123 1.203 . S
C122 O129 1.267 . S
O123 C122 1.203 . S
O124 C117 1.185 . S
O124 Zn120 2.086 . S
C125 O121 1.278 . S
C125 O126 1.211 . S
O126 C125 1.211 . S
C127 O119 1.284 . S
C127 O128 1.273 . S
O128 C127 1.273 . S
O129 Zn120 1.977 . S
O129 C122 1.267 . S
C130 O131 1.160 . S
C130 O137 1.185 . S
O131 C130 1.160 . S
O132 Zn133 1.899 . S
O132 C140 1.284 . S
Zn133 O132 1.899 . S
Zn133 O134 2.032 . S
Zn133 O137 2.086 . S
Zn133 O142 1.977 . S
O134 Zn133 2.032 . S
O134 C138 1.278 . S
C135 O136 1.203 . S
C135 O142 1.267 . S
O136 C135 1.203 . S
O137 C130 1.185 . S
O137 Zn133 2.086 . S
C138 O134 1.278 . S
C138 O139 1.211 . S
O139 C138 1.211 . S
C140 O132 1.284 . S
C140 O141 1.273 . S
O141 C140 1.273 . S
O142 Zn133 1.977 . S
O142 C135 1.267 . S
C143 O144 1.160 . S
C143 O150 1.185 . S
O144 C143 1.160 . S
O145 Zn146 1.899 . S
O145 C153 1.284 . S
Zn146 O145 1.899 . S
Zn146 O147 2.032 . S
Zn146 O150 2.086 . S
Zn146 O155 1.977 . S
O147 Zn146 2.032 . S
O147 C151 1.278 . S
C148 O149 1.203 . S
C148 O155 1.267 . S
O149 C148 1.203 . S
O150 C143 1.185 . S
O150 Zn146 2.086 . S
C151 O147 1.278 . S
C151 O152 1.211 . S
O152 C151 1.211 . S
C153 O145 1.284 . S
C153 O154 1.273 . S
O154 C153 1.273 . S
O155 Zn146 1.977 . S
O155 C148 1.267 . S
C156 O157 1.160 . S
C156 O163 1.185 . S
O157 C156 1.160 . S
O158 Zn159 1.899 . S
O158 C166 1.284 . S
Zn159 O158 1.899 . S
Zn159 O160 2.032 . S
Zn159 O163 2.086 . S
Zn159 O168 1.977 . S
O160 Zn159 2.032 . S
O160 C164 1.278 . S
C161 O162 1.203 . S
C161 O168 1.267 . S
O162 C161 1.203 . S
O163 C156 1.185 . S
O163 Zn159 2.086 . S
C164 O160 1.278 . S
C164 O165 1.211 . S
O165 C164 1.211 . S
C166 O158 1.284 . S
C166 O167 1.273 . S
O167 C166 1.273 . S
O168 Zn159 1.977 . S
O168 C161 1.267 . S
C169 O170 1.160 . S
C169 O176 1.185 . S
O170 C169 1.160 . S
O171 Zn172 1.899 . S
O171 C179 1.284 . S
Zn172 O171 1.899 . S
Zn172 O173 2.032 . S
Zn172 O176 2.086 . S
Zn172 O181 1.977 . S
O173 Zn172 2.032 . S
O173 C177 1.278 . S
C174 O175 1.203 . S
C174 O181 1.267 . S
O175 C174 1.203 . S
O176 C169 1.185 . S
O176 Zn172 2.086 . S
C177 O173 1.278 . S
C177 O178 1.211 . S
O178 C177 1.211 . S
C179 O171 1.284 . S
C179 O180 1.273 . S
O180 C179 1.273 . S
O181 Zn172 1.977 . S
O181 C174 1.267 . S
C182 O183 1.160 . S
C182 O189 1.185 . S
O183 C182 1.160 . S
O184 Zn185 1.899 . S
O184 C192 1.284 . S
Zn185 O184 1.899 . S
Zn185 O186 2.032 . S
Zn185 O189 2.086 . S
Zn185 O194 1.977 . S
O186 Zn185 2.032 . S
O186 C190 1.278 . S
C187 O188 1.203 . S
C187 O194 1.267 . S
O188 C187 1.203 . S
O189 C182 1.185 . S
O189 Zn185 2.086 . S
C190 O186 1.278 . S
C190 O191 1.211 . S
O191 C190 1.211 . S
C192 O184 1.284 . S
C192 O193 1.273 . S
O193 C192 1.273 . S
O194 Zn185 1.977 . S
O194 C187 1.267 . S
C195 O196 1.160 . S
C195 O202 1.185 . S
O196 C195 1.160 . S
O197 Zn198 1.899 . S
O197 C205 1.284 . S
Zn198 O197 1.899 . S
Zn198 O199 2.032 . S
Zn198 O202 2.086 . S
Zn198 O207 1.977 . S
O199 Zn198 2.032 . S
O199 C203 1.278 . S
C200 O201 1.203 . S
C200 O207 1.267 . S
O201 C200 1.203 . S
O202 C195 1.185 . S
O202 Zn198 2.086 . S
C203 O199 1.278 . S
C203 O204 1.211 . S
O204 C203 1.211 . S
C205 O197 1.284 . S
C205 O206 1.273 . S
O206 C205 1.273 . S
O207 Zn198 1.977 . S
O207 C200 1.267 . S
C208 O209 1.160 . S
C208 O215 1.185 . S
O209 C208 1.160 . S
O210 Zn211 1.899 . S
O210 C218 1.284 . S
Zn211 O210 1.899 . S
Zn211 O212 2.032 . S
Zn211 O215 2.086 . S
Zn211 O220 1.977 . S
O212 Zn211 2.032 . S
O212 C216 1.278 . S
C213 O214 1.203 . S
C213 O220 1.267 . S
O214 C213 1.203 . S
O215 C208 1.185 . S
O215 Zn211 2.086 . S
C216 O212 1.278 . S
C216 O217 1.211 . S
O217 C216 1.211 . S
C218 O210 1.284 . S
C218 O219 1.273 . S
O219 C218 1.273 . S
O220 Zn211 1.977 . S
O220 C213 1.267 . S
C221 O222 1.160 . S
C221 O228 1.185 . S
O222 C221 1.160 . S
O223 Zn224 1.899 . S
O223 C231 1.284 . S
Zn224 O223 1.899 . S
Zn224 O225 2.032 . S
Zn224 O228 2.086 . S
Zn224 O233 1.977 . S
O225 Zn224 2.032 . S
O225 C229 1.278 . S
C226 O227 1.203 . S
C226 O233 1.267 . S
O227 C226 1.203 . S
O228 C221 1.185 . S
O228 Zn224 2.086 . S
C229 O225 1.278 . S
C229 O230 1.211 . S
O230 C229 1.211 . S
C231 O223 1.284 . S
C231 O232 1.273 . S
O232 C231 1.273 . S
O233 Zn224 1.977 . S
O233 C226 1.267 . S
C234 O235 1.160 . S
C234 O241 1.185 . S
O235 C234 1.160 . S
O236 Zn237 1.899 . S
O236 C244 1.284 . S
Zn237 O236 1.899 . S
Zn237 O238 2.032 . S
Zn237 O241 2.086 . S
Zn237 O246 1.977 . S
O238 Zn237 2.032 . S
O238 C242 1.278 . S
C239 O240 1.203 . S
C239 O246 1.267 . S
O240 C239 1.203 . S
O241 C234 1.185 . S
O241 Zn237 2.086 . S
C242 O238 1.278 . S
C242 O243 1.211 . S
O243 C242 1.211 . S
C244 O236 1.284 . S
C244 O245 1.273 . S
O245 C244 1.273 . S
O246 Zn237 1.977 . S
O246 C239 1.267 . S
C247 O248 1.160 . S
C247 O254 1.185 . S
O248 C247 1.160 . S
O249 Zn250 1.899 . S
O249 C257 1.284 . S
Zn250 O249 1.899 . S
Zn250 O251 2.032 . S
Zn250 O254 2.086 . S
Zn250 O259 1.977 . S
O251 Zn250 2.032 . S
O251 C255 1.278 . S
C252 O253 1.203 . S
C252 O259 1.267 . S
O253 C252 1.203 . S
O254 C247 1.185 . S
O254 Zn250 2.086 . S
C255 O251 1.278 . S
C255 O256 1.211 . S
O256 C255 1.211 . S
C257 O249 1.284 . S
C257 O258 1.273 . S
O258 C257 1.273 . S
O259 Zn250 1.977 . S
O259 C252 1.267 . S
C260 O261 1.160 . S
C260 O267 1.185 . S
O261 C260 1.160 . S
O262 Zn263 1.899 . S
O262 C270 1.284 . S
Zn263 O262 1.899 . S
Zn263 O264 2.032 . S
Zn263 O267 2.086 . S
Zn263 O272 1.977 . S
O264 Zn263 2.032 . S
O264 C268 1.278 . S
C265 O266 1.203 . S
C265 O272 1.267 . S
O266 C265 1.203 . S
O267 C260 1.185 . S
O267 Zn263 2.086 . S
C268 O264 1.278 . S
C268 O269 1.211 . S
O269 C268 1.211 . S
C270 O262 1.284 . S
C270 O271 1.273 . S
O271 C270 1.273 . S
O272 Zn263 1.977 . S
O272 C265 1.267 . S
C273 O274 1.160 . S
C273 O280 1.185 . S
O274 C273 1.160 . S
O275 Zn276 1.899 . S
O275 C283 1.284 . S
Zn276 O275 1.899 . S
Zn276 O277 2.032 . S
Zn276 O280 2.086 . S
Zn276 O285 1.977 . S
O277 Zn276 2.032 . S
O277 C281 1.278 . S
C278 O279 1.203 . S
C278 O285 1.267 . S
O279 C278 1.203 . S
O280 C273 1.185 . S
O280 Zn276 2.086 . S
C281 O277 1.278 . S
C281 O282 1.211 . S
O282 C281 1.211 . S
C283 O275 1.284 . S
C283 O284 1.273 . S
O284 C283 1.273 . S
O285 Zn276 1.977 . S
O285 C278 1.267 . S
C286 O287 1.160 . S
C286 O293 1.185 . S
O287 C286 1.160 . S
O288 Zn289 1.899 . S
O288 C296 1.284 . S
Zn289 O288 1.899 . S
Zn289 O290 2.032 . S
Zn289 O293 2.086 . S
Zn289 O298 1.977 . S
O290 Zn289 2.032 . S
O290 C294 1.278 . S
C291 O292 1.203 . S
C291 O298 1.267 . S
O292 C291 1.203 . S
O293 C286 1.185 . S
O293 Zn289 2.086 . S
C294 O290 1.278 . S
C294 O295 1.211 . S
O295 C294 1.211 . S
C296 O288 1.284 . S
C296 O297 1.273 . S
O297 C296 1.273 . S
O298 Zn289 1.977 . S
O298 C291 1.267 . S
C299 O300 1.160 . S
C299 O306 1.185 . S
O300 C299 1.160 . S
O301 Zn302 1.899 . S
O301 C309 1.284 . S
Zn302 O301 1.899 . S
Zn302 O303 2.032 . S
Zn302 O306 2.086 . S
Zn302 O311 1.977 . S
O303 Zn302 2.032 . S
O303 C307 1.278 . S
C304 O305 1.203 . S
C304 O311 1.267 . S
O305 C304 1.203 . S
O306 C299 1.185 . S
O306 Zn302 2.086 . S
C307 O303 1.278 . S
C307 O308 1.211 . S
O308 C307 1.211 . S
C309 O301 1.284 . S
C309 O310 1.273 . S
O310 C309 1.273 . S
O311 Zn302 1.977 . S
O311 C304 1.267 . S
C312 O313 1.160 . S
C312 O319 1.185 . S
O313 C312 1.160 . S
O314 Zn315 1.899 . S
O314 C322 1.284 . S
Zn315 O314 1.899 . S
Zn315 O316 2.032 . S
Zn315 O319 2.086 . S
Zn315 O324 1.977 . S
O316 Zn315 2.032 . S
O316 C320 1.278 . S
C317 O318 1.203 . S
C317 O324 1.267 . S
O318 C317 1.203 . S
O319 C312 1.185 . S
O319 Zn315 2.086 . S
C320 O316 1.278 . S
C320 O321 1.211 . S
O321 C320 1.211 . S
C322 O314 1.284 . S
C322 O323 1.273 . S
O323 C322 1.273 . S
O324 Zn315 1.977 . S
O324 C317 1.267 . S
C325 O326 1.160 . S
C325 O332 1.185 . S
O326 C325 1.160 . S
O327 Zn328 1.899 . S
O327 C335 1.284 . S
Zn328 O327 1.899 . S
Zn328 O329 2.032 . S
Zn328 O332 2.086 . S
Zn328 O337 1.977 . S
O329 Zn328 2.032 . S
O329 C333 1.278 . S
C330 O331 1.203 . S
C330 O337 1.267 . S
O331 C330 1.203 . S
O332 C325 1.185 . S
O332 Zn328 2.086 . S
C333 O329 1.278 . S
C333 O334 1.211 . S
O334 C333 1.211 . S
C335 O327 1.284 . S
C335 O336 1.273 . S
O336 C335 1.273 . S
O337 Zn328 1.977 . S
O337 C330 1.267 . S
C338 O339 1.160 . S
C338 O345 1.185 . S
O339 C338 1.160 . S
O340 Zn341 1.899 . S
O340 C348 1.284 . S
Zn341 O340 1.899 . S
Zn341 O342 2.032 . S
Zn341 O345 2.086 . S
Zn341 O350 1.977 . S
O342 Zn341 2.032 . S
O342 C346 1.278 . S
C343 O344 1.203 . S
C343 O350 1.267 . S
O344 C343 1.203 . S
O345 C338 1.185 . S
O345 Zn341 2.086 . S
C346 O342 1.278 . S
C346 O347 1.211 . S
O347 C346 1.211 . S
C348 O340 1.284 . S
C348 O349 1.273 . S
O349 C348 1.273 . S
O350 Zn341 1.977 . S
O350 C343 1.267 . S
C351 O352 1.160 . S
C351 O358 1.185 . S
O352 C351 1.160 . S
O353 Zn354 1.899 . S
O353 C361 1.284 . S
Zn354 O353 1.899 . S
Zn354 O355 2.032 . S
Zn354 O358 2.086 . S
Zn354 O363 1.977 . S
O355 Zn354 2.032 . S
O355 C359 1.278 . S
C356 O357 1.203 . S
C356 O363 1.267 . S
O357 C356 1.203 . S
O358 C351 1.185 . S
O358 Zn354 2.086 . S
C359 O355 1.278 . S
C359 O360 1.211 . S
O360 C359 1.211 . S
C361 O353 1.284 . S
C361 O362 1.273 . S
O362 C361 1.273 . S
O363 Zn354 1.977 . S
O363 C356 1.267 . S
C364 O365 1.160 . S
C364 O371 1.185 . S
O365 C364 1.160 . S
O366 Zn367 1.899 . S
O366 C374 1.284 . S
Zn367 O366 1.899 . S
Zn367 O368 2.032 . S
Zn367 O371 2.086 . S
Zn367 O376 1.977 . S
O368 Zn367 2.032 . S
O368 C372 1.278 . S
C369 O370 1.203 . S
C369 O376 1.267 . S
O370 C369 1.203 . S
O371 C364 1.185 . S
O371 Zn367 2.086 . S
C372 O368 1.278 . S
C372 O373 1.211 . S
O373 C372 1.211 . S
C374 O366 1.284 . S
C374 O375 1.273 . S
O375 C374 1.273 . S
O376 Zn367 1.977 . S
O376 C369 1.267 . S
C377 O378 1.160 . S
C377 O384 1.185 . S
O378 C377 1.160 . S
O379 Zn380 1.899 . S
O379 C387 1.284 . S
Zn380 O379 1.899 . S
Zn380 O381 2.032 . S
Zn380 O384 2.086 . S
Zn380 O389 1.977 . S
O381 Zn380 2.032 . S
O381 C385 1.278 . S
C382 O383 1.203 . S
C382 O389 1.267 . S
O383 C382 1.203 . S
O384 C377 1.185 . S
O384 Zn380 2.086 . S
C385 O381 1.278 . S
C385 O386 1.211 . S
O386 C385 1.211 . S
C387 O379 1.284 . S
C387 O388 1.273 . S
O388 C387 1.273 . S
O389 Zn380 1.977 . S
O389 C382 1.267 . S
C390 O391 1.160 . S
C390 O397 1.185 . S
O391 C390 1.160 . S
O392 Zn393 1.899 . S
O392 C400 1.284 . S
Zn393 O392 1.899 . S
Zn393 O394 2.032 . S
Zn393 O397 2.086 . S
Zn393 O402 1.977 . S
O394 Zn393 2.032 . S
O394 C398 1.278 . S
C395 O396 1.203 . S
C395 O402 1.267 . S
O396 C395 1.203 . S
O397 C390 1.185 . S
O397 Zn393 2.086 . S
C398 O394 1.278 . S
C398 O399 1.211 . S
O399 C398 1.211 . S
C400 O392 1.284 . S
C400 O401 1.273 . S
O401 C400 1.273 . S
O402 Zn393 1.977 . S
O402 C395 1.267 . S
C403 O404 1.160 . S
C403 O410 1.185 . S
O404 C403 1.160 . S
O405 Zn406 1.899 . S
O405 C413 1.284 . S
Zn406 O405 1.899 . S
Zn406 O407 2.032 . S
Zn406 O410 2.086 . S
Zn406 O415 1.977 . S
O407 Zn406 2.032 . S
O407 C411 1.278 . S
C408 O409 1.203 . S
C408 O415 1.267 . S
O409 C408 1.203 . S
O410 C403 1.185 . S
O410 Zn406 2.086 . S
C411 O407 1.278 . S
C411 O412 1.211 . S
O412 C411 1.211 . S
C413 O405 1.284 . S
C413 O414 1.273 . S
O414 C413 1.273 . S
O415 Zn406 1.977 . S
O415 C408 1.267 . S
C416 O417 1.160 . S
C416 O423 1.185 . S
O417 C416 1.160 . S
O418 Zn419 1.899 . S
O418 C426 1.284 . S
Zn419 O418 1.899 . S
Zn419 O420 2.032 . S
Zn419 O423 2.086 . S
Zn419 O428 1.977 . S
O420 Zn419 2.032 . S
O420 C424 1.278 . S
C421 O422 1.203 . S
C421 O428 1.267 . S
O422 C421 1.203 . S
O423 C416 1.185 . S
O423 Zn419 2.086 . S
C424 O420 1.278 . S
C424 O425 1.211 . S
O425 C424 1.211 . S
C426 O418 1.284 . S
C426 O427 1.273 . S
O427 C426 1.273 . S
O428 Zn419 1.977 . S
O428 C421 1.267 . S
C429 O430 1.160 . S
C429 O436 1.185 . S
O430 C429 1.160 . S
O431 Zn432 1.899 . S
O431 C439 1.284 . S
Zn432 O431 1.899 . S
Zn432 O433 2.032 . S
Zn432 O436 2.086 . S
Zn432 O441 1.977 . S
O433 Zn432 2.032 . S
O433 C437 1.278 . S
C434 O435 1.203 . S
C434 O441 1.267 . S
O435 C434 1.203 . S
O436 C429 1.185 . S
O436 Zn432 2.086 . S
C437 O433 1.278 . S
C437 O438 1.211 . S
O438 C437 1.211 . S
C439 O431 1.284 . S
C439 O440 1.273 . S
O440 C439 1.273 . S
O441 Zn432 1.977 . S
O441 C434 1.267 . S
C442 O443 1.160 . S
C442 O449 1.185 . S
O443 C442 1.160 . S
O444 Zn445 1.899 . S
O444 C452 1.284 . S
Zn445 O444 1.899 . S
Zn445 O446 2.032 . S
Zn445 O449 2.086 . S
Zn445 O454 1.977 . S
O446 Zn445 2.032 . S
O446 C450 1.278 . S
C447 O448 1.203 . S
C447 O454 1.267 . S
O448 C447 1.203 . S
O449 C442 1.185 . S
O449 Zn445 2.086 . S
C450 O446 1.278 . S
C450 O451 1.211 . S
O451 C450 1.211 . S
C452 O444 1.284 . S
C452 O453 1.273 . S
O453 C452 1.273 . S
O454 Zn445 1.977 . S
O454 C447 1.267 . S
C455 O456 1.160 . S
C455 O462 1.185 . S
O456 C455 1.160 . S
O457 Zn458 1.899 . S
O457 C465 1.284 . S
Zn458 O457 1.899 . S
Zn458 O459 2.032 . S
Zn458 O462 2.086 . S
Zn458 O467 1.977 . S
O459 Zn458 2.032 . S
O459 C463 1.278 . S
C460 O461 1.203 . S
C460 O467 1.267 . S
O461 C460 1.203 . S
O462 C455 1.185 . S
O462 Zn458 2.086 . S
C463 O459 1.278 . S
C463 O464 1.211 . S
O464 C463 1.211 . S
C465 O457 1.284 . S
C465 O466 1.273 . S
O466 C465 1.273 . S
O467 Zn458 1.977 . S
O467 C460 1.267 . S
C468 O469 1.160 . S
C468 O475 1.185 . S
O469 C468 1.160 . S
O470 Zn471 1.899 . S
O470 C478 1.284 . S
Zn471 O470 1.899 . S
Zn471 O472 2.032 . S
Zn471 O475 2.086 . S
Zn471 O480 1.977 . S
O472 Zn471 2.032 . S
O472 C476 1.278 . S
C473 O474 1.203 . S
C473 O480 1.267 . S
O474 C473 1.203 . S
O475 C468 1.185 . S
O475 Zn471 2.086 . S
C476 O472 1.278 . S
C476 O477 1.211 . S
O477 C476 1.211 . S
C478 O470 1.284 . S
C478 O479 1.273 . S
O479 C478 1.273 . S
O480 Zn471 1.977 . S
O480 C473 1.267 . S
C481 O482 1.160 . S
C481 O488 1.185 . S
O482 C481 1.160 . S
O483 Zn484 1.899 . S
O483 C491 1.284 . S
Zn484 O483 1.899 . S
Zn484 O485 2.032 . S
Zn484 O488 2.086 . S
Zn484 O493 1.977 . S
O485 Zn484 2.032 . S
O485 C489 1.278 . S
C486 O487 1.203 . S
C486 O493 1.267 . S
O487 C486 1.203 . S
O488 C481 1.185 . S
O488 Zn484 2.086 . S
C489 O485 1.278 . S
C489 O490 1.211 . S
O490 C489 1.211 . S
C491 O483 1.284 . S
C491 O492 1.273 . S
O492 C491 1.273 . S
O493 Zn484 1.977 . S
O493 C486 1.267 . S
C494 O495 1.160 . S
C494 O501 1.185 . S
O495 C494 1.160 . S
O496 Zn497 1.899 . S
O496 C504 1.284 . S
Zn497 O496 1.899 . S
Zn497 O498 2.032 . S
Zn497 O501 2.086 . S
Zn497 O506 1.977 . S
O498 Zn497 2.032 . S
O498 C502 1.278 . S
C499 O500 1.203 . S
C499 O506 1.267 . S
O500 C499 1.203 . S
O501 C494 1.185 . S
O501 Zn497 2.086 . S
C502 O498 1.278 . S
C502 O503 1.211 . S
O503 C502 1.211 . S
C504 O496 1.284 . S
C504 O505 1.273 . S
O505 C504 1.273 . S
O506 Zn497 1.977 . S
O506 C499 1.267 . S
C507 O508 1.160 . S
C507 O514 1.185 . S
O508 C507 1.160 . S
O509 Zn510 1.899 . S
O509 C517 1.284 . S
Zn510 O509 1.899 . S
Zn510 O511 2.032 . S
Zn510 O514 2.086 . S
Zn510 O519 1.977 . S
O511 Zn510 2.032 . S
O511 C515 1.278 . S
C512 O513 1.203 . S
C512 O519 1.267 . S
O513 C512 1.203 . S
O514 C507 1.185 . S
O514 Zn510 2.086 . S
C515 O511 1.278 . S
C515 O516 1.211 . S
O516 C515 1.211 . S
C517 O509 1.284 . S
C517 O518 1.273 . S
O518 C517 1.273 . S
O519 Zn510 1.977 . S
O519 C512 1.267 . S
C520 O521 1.160 . S
C520 O527 1.185 . S
O521 C520 1.160 . S
O522 Zn523 1.899 . S
O522 C530 1.284 . S
Zn523 O522 1.899 . S
Zn523 O524 2.032 . S
Zn523 O527 2.086 . S
Zn523 O532 1.977 . S
O524 Zn523 2.032 . S
O524 C528 1.278 . S
C525 O526 1.203 . S
C525 O532 1.267 . S
O526 C525 1.203 . S
O527 C520 1.185 . S
O527 Zn523 2.086 . S
C528 O524 1.278 . S
C528 O529 1.211 . S
O529 C528 1.211 . S
C530 O522 1.284 . S
C530 O531 1.273 . S
O531 C530 1.273 . S
O532 Zn523 1.977 . S
O532 C525 1.267 . S
C533 O534 1.160 . S
C533 O540 1.185 . S
O534 C533 1.160 . S
O535 Zn536 1.899 . S
O535 C543 1.284 . S
Zn536 O535 1.899 . S
Zn536 O537 2.032 . S
Zn536 O540 2.086 . S
Zn536 O545 1.977 . S
O537 Zn536 2.032 . S
O537 C541 1.278 . S
C538 O539 1.203 . S
C538 O545 1.267 . S
O539 C538 1.203 . S
O540 C533 1.185 . S
O540 Zn536 2.086 . S
C541 O537 1.278 . S
C541 O542 1.211 . S
O542 C541 1.211 . S
C543 O535 1.284 . S
C543 O544 1.273 . S
O544 C543 1.273 . S
O545 Zn536 1.977 . S
O545 C538 1.267 . S
C546 O547 1.160 . S
C546 O553 1.185 . S
O547 C546 1.160 . S
O548 Zn549 1.899 . S
O548 C556 1.284 . S
Zn549 O548 1.899 . S
Zn549 O550 2.032 . S
Zn549 O553 2.086 . S
Zn549 O558 1.977 . S
O550 Zn549 2.032 . S
O550 C554 1.278 . S
C551 O552 1.203 . S
C551 O558 1.267 . S
O552 C551 1.203 . S
O553 C546 1.185 . S
O553 Zn549 2.086 . S
C554 O550 1.278 . S
C554 O555 1.211 . S
O555 C554 1.211 . S
C556 O548 1.284 . S
C556 O557 1.273 . S
O557 C556 1.273 . S
O558 Zn549 1.977 . S
O558 C551 1.267 . S
C559 O560 1.160 . S
C559 O566 1.185 . S
O560 C559 1.160 . S
O561 Zn562 1.899 . S
O561 C569 1.284 . S
Zn562 O561 1.899 . S
Zn562 O563 2.032 . S
Zn562 O566 2.086 . S
Zn562 O571 1.977 . S
O563 Zn562 2.032 . S
O563 C567 1.278 . S
C564 O565 1.203 . S
C564 O571 1.267 . S
O565 C564 1.203 . S
O566 C559 1.185 . S
O566 Zn562 2.086 . S
C567 O563 1.278 . S
C567 O568 1.211 . S
O568 C567 1.211 . S
C569 O561 1.284 . S
C569 O570 1.273 . S
O570 C569 1.273 . S
O571 Zn562 1.977 . S
O571 C564 1.267 . S
C572 O573 1.160 . S
C572 O579 1.185 . S
O573 C572 1.160 . S
O574 Zn575 1.899 . S
O574 C582 1.284 . S
Zn575 O574 1.899 . S
Zn575 O576 2.032 . S
Zn575 O579 2.086 . S
Zn575 O584 1.977 . S
O576 Zn575 2.032 . S
O576 C580 1.278 . S
C577 O578 1.203 . S
C577 O584 1.267 . S
O578 C577 1.203 . S
O579 C572 1.185 . S
O579 Zn575 2.086 . S
C580 O576 1.278 . S
C580 O581 1.211 . S
O581 C580 1.211 . S
C582 O574 1.284 . S
C582 O583 1.273 . S
O583 C582 1.273 . S
O584 Zn575 1.977 . S
O584 C577 1.267 . S
C585 O586 1.160 . S
C585 O592 1.185 . S
O586 C585 1.160 . S
O587 Zn588 1.899 . S
O587 C595 1.284 . S
Zn588 O587 1.899 . S
Zn588 O589 2.032 . S
Zn588 O592 2.086 . S
Zn588 O597 1.977 . S
O589 Zn588 2.032 . S
O589 C593 1.278 . S
C590 O591 1.203 . S
C590 O597 1.267 . S
O591 C590 1.203 . S
O592 C585 1.185 . S
O592 Zn588 2.086 . S
C593 O589 1.278 . S
C593 O594 1.211 . S
O594 C593 1.211 . S
C595 O587 1.284 . S
C595 O596 1.273 . S
O596 C595 1.273 . S
O597 Zn588 1.977 . S
O597 C590 1.267 . S
C598 O599 1.160 . S
C598 O605 1.185 . S
O599 C598 1.160 . S
O600 Zn601 1.899 . S
O600 C608 1.284 . S
Zn601 O600 1.899 . S
Zn601 O602 2.032 . S
Zn601 O605 2.086 . S
Zn601 O610 1.977 . S
O602 Zn601 2.032 . S
O602 C606 1.278 . S
C603 O604 1.203 . S
C603 O610 1.267 . S
O604 C603 1.203 . S
O605 C598 1.185 . S
O605 Zn601 2.086 . S
C606 O602 1.278 . S
C606 O607 1.211 . S
O607 C606 1.211 . S
C608 O600 1.284 . S
C608 O609 1.273 . S
O609 C608 1.273 . S
O610 Zn601 1.977 . S
O610 C603 1.267 . S
C611 O612 1.160 . S
C611 O618 1.185 . S
O612 C611 1.160 . S
O613 Zn614 1.899 . S
O613 C621 1.284 . S
Zn614 O613 1.899 . S
Zn614 O615 2.032 . S
Zn614 O618 2.086 . S
Zn614 O623 1.977 . S
O615 Zn614 2.032 . S
O615 C619 1.278 . S
C616 O617 1.203 . S
C616 O623 1.267 . S
O617 C616 1.203 . S
O618 C611 1.185 . S
O618 Zn614 2.086 . S
C619 O615 1.278 . S
C619 O620 1.211 . S
O620 C619 1.211 . S
C621 O613 1.284 . S
C621 O622 1.273 . S
O622 C621 1.273 . S
O623 Zn614 1.977 . S
O623 C616 1.267 . S
C624 C625 1.349 . S
C624 C626 1.327 . S
C624 H649 0.950 . S
C625 C624 1.349 . S
C625 C641 1.349 . S
C626 C624 1.327 . S
C626 C645 1.429 . S
C626 H650 0.950 . S
C627 C644 1.574 1_655 S
C627 C646 1.368 . S
C627 H651 0.949 . S
H628 C632 0.949 . S
C629 C630 1.349 . S
C629 C631 1.327 . S
C629 H652 0.950 . S
C630 C629 1.349 . S
C630 C642 1.349 . S
C631 C629 1.327 . S
C631 C647 1.429 . S
C631 H653 0.950 . S
C632 H628 0.949 . S
C632 C640 1.574 1_455 S
C632 C648 1.368 . S
H633 C641 0.950 . S
H634 C639 0.950 . S
H635 C640 0.949 . S
H636 C642 0.950 . S
H637 C643 0.950 . S
H638 C644 0.949 . S
C639 H634 0.950 . S
C639 C641 1.327 . S
C639 C645 1.429 . S
C640 C632 1.574 1_655 S
C640 H635 0.949 . S
C640 C646 1.368 . S
C641 C625 1.349 . S
C641 H633 0.950 . S
C641 C639 1.327 . S
C642 C630 1.349 . S
C642 H636 0.950 . S
C642 C643 1.327 . S
C643 H637 0.950 . S
C643 C642 1.327 . S
C643 C647 1.429 . S
C644 C627 1.574 1_455 S
C644 H638 0.949 . S
C644 C648 1.368 . S
C645 C626 1.429 . S
C645 C639 1.429 . S
C645 C646 1.523 . S
C646 C627 1.368 . S
C646 C640 1.368 . S
C646 C645 1.523 . S
C647 C631 1.429 . S
C647 C643 1.429 . S
C647 C648 1.523 . S
C648 C632 1.368 . S
C648 C644 1.368 . S
C648 C647 1.523 . S
H649 C624 0.950 . S
H650 C626 0.950 . S
H651 C627 0.949 . S
H652 C629 0.950 . S
H653 C631 0.950 . S
C654 C655 1.349 . S
C654 C656 1.327 . S
C654 H679 0.950 . S
C655 C654 1.349 . S
C655 C671 1.349 . S
C656 C654 1.327 . S
C656 C675 1.429 . S
C656 H680 0.950 . S
C657 C674 1.594 . S
C657 C676 1.368 . S
C657 H681 0.949 . S
H658 C662 0.949 . S
C659 C660 1.349 . S
C659 C661 1.327 . S
C659 H682 0.950 . S
C660 C659 1.349 . S
C660 C672 1.349 . S
C661 C659 1.327 . S
C661 C677 1.429 . S
C661 H683 0.950 . S
C662 H658 0.949 . S
C662 C670 1.594 . S
C662 C678 1.368 . S
H663 C671 0.950 . S
H664 C669 0.950 . S
H665 C670 0.949 . S
H666 C672 0.950 . S
H667 C673 0.950 . S
H668 C674 0.949 . S
C669 H664 0.950 . S
C669 C671 1.327 . S
C669 C675 1.429 . S
C670 C662 1.594 . S
C670 H665 0.949 . S
C670 C676 1.349 1_545 S
C671 C655 1.349 . S
C671 H663 0.950 . S
C671 C669 1.327 . S
C672 C660 1.349 . S
C672 H666 0.950 . S
C672 C673 1.327 . S
C673 H667 0.950 . S
C673 C672 1.327 . S
C673 C677 1.429 . S
C674 C657 1.594 . S
C674 H668 0.949 . S
C674 C678 1.349 1_565 S
C675 C656 1.429 . S
C675 C669 1.429 . S
C675 C676 1.523 . S
C676 C657 1.368 . S
C676 C670 1.349 1_565 S
C676 C675 1.523 . S
C677 C661 1.429 . S
C677 C673 1.429 . S
C677 C678 1.523 . S
C678 C662 1.368 . S
C678 C674 1.349 1_545 S
C678 C677 1.523 . S
H679 C654 0.950 . S
H680 C656 0.950 . S
H681 C657 0.949 . S
H682 C659 0.950 . S
H683 C661 0.950 . S
C684 C685 1.349 . S
C684 C686 1.327 . S
C684 H709 0.950 . S
C685 C684 1.349 . S
C685 C701 1.349 . S
C686 C684 1.327 . S
C686 C705 1.429 . S
C686 H710 0.950 . S
C687 C704 1.631 . S
C687 C706 1.368 . S
C687 H711 0.949 . S
H688 C692 0.949 . S
C689 C690 1.349 . S
C689 C691 1.327 . S
C689 H712 0.950 . S
C690 C689 1.349 . S
C690 C702 1.349 . S
C691 C689 1.327 . S
C691 C707 1.429 . S
C691 H713 0.950 . S
C692 H688 0.949 . S
C692 C700 1.631 . S
C692 C708 1.368 . S
H693 C701 0.950 . S
H694 C699 0.950 . S
H695 C700 0.954 . S
H696 C702 0.950 . S
H697 C703 0.950 . S
H698 C704 0.954 . S
C699 H694 0.950 . S
C699 C701 1.327 . S
C699 C705 1.429 . S
C700 C692 1.631 . S
C700 H695 0.954 . S
C700 C706 1.310 1_655 S
C701 C685 1.349 . S
C701 H693 0.950 . S
C701 C699 1.327 . S
C702 C690 1.349 . S
C702 H696 0.950 . S
C702 C703 1.327 . S
C703 H697 0.950 . S
C703 C702 1.327 . S
C703 C707 1.429 . S
C704 C687 1.631 . S
C704 H698 0.954 . S
C704 C708 1.310 1_455 S
C705 C686 1.429 . S
C705 C699 1.429 . S
C705 C706 1.523 . S
C706 C687 1.368 . S
C706 C700 1.310 1_455 S
C706 C705 1.523 . S
C707 C691 1.429 . S
C707 C703 1.429 . S
C707 C708 1.523 . S
C708 C692 1.368 . S
C708 C704 1.310 1_655 S
C708 C707 1.523 . S
H709 C684 0.950 . S
H710 C686 0.950 . S
H711 C687 0.949 . S
H712 C689 0.950 . S
H713 C691 0.950 . S
C714 C715 1.349 . S
C714 C716 1.327 . S
C714 H739 0.950 . S
C715 C714 1.349 . S
C715 C731 1.349 . S
C716 C714 1.327 . S
C716 C735 1.429 . S
C716 H740 0.950 . S
C717 C734 1.574 1_565 S
C717 C736 1.368 . S
C717 H741 0.949 . S
H718 C722 0.949 . S
C719 C720 1.349 . S
C719 C721 1.327 . S
C719 H742 0.950 . S
C720 C719 1.349 . S
C720 C732 1.349 . S
C721 C719 1.327 . S
C721 C737 1.429 . S
C721 H743 0.950 . S
C722 H718 0.949 . S
C722 C730 1.574 1_545 S
C722 C738 1.368 . S
H723 C731 0.950 . S
H724 C729 0.950 . S
H725 C730 0.949 . S
H726 C732 0.950 . S
H727 C733 0.950 . S
H728 C734 0.949 . S
C729 H724 0.950 . S
C729 C731 1.327 . S
C729 C735 1.429 . S
C730 C722 1.574 1_565 S
C730 H725 0.949 . S
C730 C736 1.368 . S
C731 C715 1.349 . S
C731 H723 0.950 . S
C731 C729 1.327 . S
C732 C720 1.349 . S
C732 H726 0.950 . S
C732 C733 1.327 . S
C733 H727 0.950 . S
C733 C732 1.327 . S
C733 C737 1.429 . S
C734 C717 1.574 1_545 S
C734 H728 0.949 . S
C734 C738 1.368 . S
C735 C716 1.429 . S
C735 C729 1.429 . S
C735 C736 1.523 . S
C736 C717 1.368 . S
C736 C730 1.368 . S
C736 C735 1.523 . S
C737 C721 1.429 . S
C737 C733 1.429 . S
C737 C738 1.523 . S
C738 C722 1.368 . S
C738 C734 1.368 . S
C738 C737 1.523 . S
H739 C714 0.950 . S
H740 C716 0.950 . S
H741 C717 0.949 . S
H742 C719 0.950 . S
H743 C721 0.950 . S
C744 C745 1.349 . S
C744 C746 1.327 . S
C744 H769 0.950 . S
C745 C744 1.349 . S
C745 C761 1.349 . S
C746 C744 1.327 . S
C746 C765 1.429 . S
C746 H770 0.950 . S
C747 C764 1.574 . S
C747 C766 1.368 1_455 S
C747 H771 0.949 . S
H748 C752 0.949 . S
C749 C750 1.349 . S
C749 C751 1.327 . S
C749 H772 0.950 . S
C750 C749 1.349 . S
C750 C762 1.349 . S
C751 C749 1.327 . S
C751 C767 1.429 . S
C751 H773 0.950 . S
C752 H748 0.949 . S
C752 C760 1.574 . S
C752 C768 1.368 1_655 S
H753 C761 0.950 . S
H754 C759 0.950 . S
H755 C760 0.949 . S
H756 C762 0.950 . S
H757 C763 0.950 . S
H758 C764 0.949 . S
C759 H754 0.950 . S
C759 C761 1.327 . S
C759 C765 1.429 . S
C760 C752 1.574 . S
C760 H755 0.949 . S
C760 C766 1.368 . S
C761 C745 1.349 . S
C761 H753 0.950 . S
C761 C759 1.327 . S
C762 C750 1.349 . S
C762 H756 0.950 . S
C762 C763 1.327 . S
C763 H757 0.950 . S
C763 C762 1.327 . S
C763 C767 1.429 . S
C764 C747 1.574 . S
C764 H758 0.949 . S
C764 C768 1.368 . S
C765 C746 1.429 . S
C765 C759 1.429 . S
C765 C766 1.523 . S
C766 C747 1.368 1_655 S
C766 C760 1.368 . S
C766 C765 1.523 . S
C767 C751 1.429 . S
C767 C763 1.429 . S
C767 C768 1.523 . S
C768 C752 1.368 1_455 S
C768 C764 1.368 . S
C768 C767 1.523 . S
H769 C744 0.950 . S
H770 C746 0.950 . S
H771 C747 0.949 . S
H772 C749 0.950 . S
H773 C751 0.950 . S
C774 C775 1.349 . S
C774 C776 1.327 . S
C774 H799 0.950 . S
C775 C774 1.349 . S
C775 C791 1.349 . S
C776 C774 1.327 . S
C776 C795 1.429 . S
C776 H800 0.950 . S
C777 C794 1.574 1_545 S
C777 C796 1.368 . S
C777 H801 0.949 . S
H778 C782 0.949 . S
C779 C780 1.349 . S
C779 C781 1.327 . S
C779 H802 0.950 . S
C780 C779 1.349 . S
C780 C792 1.349 . S
C781 C779 1.327 . S
C781 C797 1.429 . S
C781 H803 0.950 . S
C782 H778 0.949 . S
C782 C790 1.574 1_565 S
C782 C798 1.368 . S
H783 C791 0.950 . S
H784 C789 0.950 . S
H785 C790 0.949 . S
H786 C792 0.950 . S
H787 C793 0.950 . S
H788 C794 0.949 . S
C789 H784 0.950 . S
C789 C791 1.327 . S
C789 C795 1.429 . S
C790 C782 1.574 1_545 S
C790 H785 0.949 . S
C790 C796 1.368 . S
C791 C775 1.349 . S
C791 H783 0.950 . S
C791 C789 1.327 . S
C792 C780 1.349 . S
C792 H786 0.950 . S
C792 C793 1.327 . S
C793 H787 0.950 . S
C793 C792 1.327 . S
C793 C797 1.429 . S
C794 C777 1.574 1_565 S
C794 H788 0.949 . S
C794 C798 1.368 . S
C795 C776 1.429 . S
C795 C789 1.429 . S
C795 C796 1.523 . S
C796 C777 1.368 . S
C796 C790 1.368 . S
C796 C795 1.523 . S
C797 C781 1.429 . S
C797 C793 1.429 . S
C797 C798 1.523 . S
C798 C782 1.368 . S
C798 C794 1.368 . S
C798 C797 1.523 . S
H799 C774 0.950 . S
H800 C776 0.950 . S
H801 C777 0.949 . S
H802 C779 0.950 . S
H803 C781 0.950 . S
C804 C805 1.349 . S
C804 C806 1.327 . S
C804 H829 0.950 . S
C805 C804 1.349 . S
C805 C821 1.349 . S
C806 C804 1.327 . S
C806 C825 1.429 . S
C806 H830 0.950 . S
C807 C824 1.552 1_455 S
C807 C826 1.368 . S
C807 H831 0.949 . S
H808 C812 0.949 . S
C809 C810 1.349 . S
C809 C811 1.327 . S
C809 H832 0.950 . S
C810 C809 1.349 . S
C810 C822 1.349 . S
C811 C809 1.327 . S
C811 C827 1.429 . S
C811 H833 0.950 . S
C812 H808 0.949 . S
C812 C820 1.552 1_655 S
C812 C828 1.368 . S
H813 C821 0.950 . S
H814 C819 0.950 . S
H815 C820 0.948 . S
H816 C822 0.950 . S
H817 C823 0.950 . S
H818 C824 0.948 . S
C819 H814 0.950 . S
C819 C821 1.327 . S
C819 C825 1.429 . S
C820 C812 1.552 1_455 S
C820 H815 0.948 . S
C820 C826 1.389 . S
C821 C805 1.349 . S
C821 H813 0.950 . S
C821 C819 1.327 . S
C822 C810 1.349 . S
C822 H816 0.950 . S
C822 C823 1.327 . S
C823 H817 0.950 . S
C823 C822 1.327 . S
C823 C827 1.429 . S
C824 C807 1.552 1_655 S
C824 H818 0.948 . S
C824 C828 1.389 . S
C825 C806 1.429 . S
C825 C819 1.429 . S
C825 C826 1.523 . S
C826 C807 1.368 . S
C826 C820 1.389 . S
C826 C825 1.523 . S
C827 C811 1.429 . S
C827 C823 1.429 . S
C827 C828 1.523 . S
C828 C812 1.368 . S
C828 C824 1.389 . S
C828 C827 1.523 . S
H829 C804 0.950 . S
H830 C806 0.950 . S
H831 C807 0.949 . S
H832 C809 0.950 . S
H833 C811 0.950 . S
C834 C835 1.349 . S
C834 C836 1.327 . S
C834 H859 0.950 . S
C835 C834 1.349 . S
C835 C851 1.349 . S
C836 C834 1.327 . S
C836 C855 1.429 . S
C836 H860 0.950 . S
C837 C854 1.574 . S
C837 C856 1.368 1_565 S
C837 H861 0.949 . S
H838 C842 0.949 . S
C839 C840 1.349 . S
C839 C841 1.327 . S
C839 H862 0.950 . S
C840 C839 1.349 . S
C840 C852 1.349 . S
C841 C839 1.327 . S
C841 C857 1.429 . S
C841 H863 0.950 . S
C842 H838 0.949 . S
C842 C850 1.574 . S
C842 C858 1.368 1_545 S
H843 C851 0.950 . S
H844 C849 0.950 . S
H845 C850 0.949 . S
H846 C852 0.950 . S
H847 C853 0.950 . S
H848 C854 0.949 . S
C849 H844 0.950 . S
C849 C851 1.327 . S
C849 C855 1.429 . S
C850 C842 1.574 . S
C850 H845 0.949 . S
C850 C856 1.368 . S
C851 C835 1.349 . S
C851 H843 0.950 . S
C851 C849 1.327 . S
C852 C840 1.349 . S
C852 H846 0.950 . S
C852 C853 1.327 . S
C853 H847 0.950 . S
C853 C852 1.327 . S
C853 C857 1.429 . S
C854 C837 1.574 . S
C854 H848 0.949 . S
C854 C858 1.368 . S
C855 C836 1.429 . S
C855 C849 1.429 . S
C855 C856 1.523 . S
C856 C837 1.368 1_545 S
C856 C850 1.368 . S
C856 C855 1.523 . S
C857 C841 1.429 . S
C857 C853 1.429 . S
C857 C858 1.523 . S
C858 C842 1.368 1_565 S
C858 C854 1.368 . S
C858 C857 1.523 . S
H859 C834 0.950 . S
H860 C836 0.950 . S
H861 C837 0.949 . S
H862 C839 0.950 . S
H863 C841 0.950 . S
C864 C865 1.349 . S
C864 C866 1.327 . S
C864 H889 0.950 . S
C865 C864 1.349 . S
C865 C881 1.349 . S
C866 C864 1.327 . S
C866 C885 1.429 . S
C866 H890 0.950 . S
C867 C884 1.574 1_554 S
C867 C886 1.368 . S
C867 H891 0.949 . S
H868 C872 0.949 . S
C869 C870 1.349 . S
C869 C871 1.327 . S
C869 H892 0.950 . S
C870 C869 1.349 . S
C870 C882 1.349 . S
C871 C869 1.327 . S
C871 C887 1.429 . S
C871 H893 0.950 . S
C872 H868 0.949 . S
C872 C880 1.574 1_556 S
C872 C888 1.368 . S
H873 C881 0.950 . S
H874 C879 0.950 . S
H875 C880 0.949 . S
H876 C882 0.950 . S
H877 C883 0.950 . S
H878 C884 0.949 . S
C879 H874 0.950 . S
C879 C881 1.327 . S
C879 C885 1.429 . S
C880 C872 1.574 1_554 S
C880 H875 0.949 . S
C880 C886 1.368 . S
C881 C865 1.349 . S
C881 H873 0.950 . S
C881 C879 1.327 . S
C882 C870 1.349 . S
C882 H876 0.950 . S
C882 C883 1.327 . S
C883 H877 0.950 . S
C883 C882 1.327 . S
C883 C887 1.429 . S
C884 C867 1.574 1_556 S
C884 H878 0.949 . S
C884 C888 1.368 . S
C885 C866 1.429 . S
C885 C879 1.429 . S
C885 C886 1.523 . S
C886 C867 1.368 . S
C886 C880 1.368 . S
C886 C885 1.523 . S
C887 C871 1.429 . S
C887 C883 1.429 . S
C887 C888 1.523 . S
C888 C872 1.368 . S
C888 C884 1.368 . S
C888 C887 1.523 . S
H889 C864 0.950 . S
H890 C866 0.950 . S
H891 C867 0.949 . S
H892 C869 0.950 . S
H893 C871 0.950 . S
C894 C895 1.349 . S
C894 C896 1.327 . S
C894 H919 0.950 . S
C895 C894 1.349 . S
C895 C911 1.349 . S
C896 C894 1.327 . S
C896 C915 1.429 . S
C896 H920 0.950 . S
C897 C914 1.574 1_556 S
C897 C916 1.368 . S
C897 H921 0.949 . S
H898 C902 0.949 . S
C899 C900 1.349 . S
C899 C901 1.327 . S
C899 H922 0.950 . S
C900 C899 1.349 . S
C900 C912 1.349 . S
C901 C899 1.327 . S
C901 C917 1.429 . S
C901 H923 0.950 . S
C902 H898 0.949 . S
C902 C910 1.574 1_554 S
C902 C918 1.368 . S
H903 C911 0.950 . S
H904 C909 0.950 . S
H905 C910 0.949 . S
H906 C912 0.950 . S
H907 C913 0.950 . S
H908 C914 0.949 . S
C909 H904 0.950 . S
C909 C911 1.327 . S
C909 C915 1.429 . S
C910 C902 1.574 1_556 S
C910 H905 0.949 . S
C910 C916 1.368 . S
C911 C895 1.349 . S
C911 H903 0.950 . S
C911 C909 1.327 . S
C912 C900 1.349 . S
C912 H906 0.950 . S
C912 C913 1.327 . S
C913 H907 0.950 . S
C913 C912 1.327 . S
C913 C917 1.429 . S
C914 C897 1.574 1_554 S
C914 H908 0.949 . S
C914 C918 1.368 . S
C915 C896 1.429 . S
C915 C909 1.429 . S
C915 C916 1.523 . S
C916 C897 1.368 . S
C916 C910 1.368 . S
C916 C915 1.523 . S
C917 C901 1.429 . S
C917 C913 1.429 . S
C917 C918 1.523 . S
C918 C902 1.368 . S
C918 C914 1.368 . S
C918 C917 1.523 . S
H919 C894 0.950 . S
H920 C896 0.950 . S
H921 C897 0.949 . S
H922 C899 0.950 . S
H923 C901 0.950 . S
C924 C925 1.349 . S
C924 C926 1.327 . S
C924 H949 0.950 . S
C925 C924 1.349 . S
C925 C941 1.349 . S
C926 C924 1.327 . S
C926 C945 1.429 . S
C926 H950 0.950 . S
C927 C944 1.574 1_556 S
C927 C946 1.368 . S
C927 H951 0.949 . S
H928 C932 0.949 . S
C929 C930 1.349 . S
C929 C931 1.327 . S
C929 H952 0.950 . S
C930 C929 1.349 . S
C930 C942 1.349 . S
C931 C929 1.327 . S
C931 C947 1.429 . S
C931 H953 0.950 . S
C932 H928 0.949 . S
C932 C940 1.574 1_554 S
C932 C948 1.368 . S
H933 C941 0.950 . S
H934 C939 0.950 . S
H935 C940 0.949 . S
H936 C942 0.950 . S
H937 C943 0.950 . S
H938 C944 0.949 . S
C939 H934 0.950 . S
C939 C941 1.327 . S
C939 C945 1.429 . S
C940 C932 1.574 1_556 S
C940 H935 0.949 . S
C940 C946 1.368 . S
C941 C925 1.349 . S
C941 H933 0.950 . S
C941 C939 1.327 . S
C942 C930 1.349 . S
C942 H936 0.950 . S
C942 C943 1.327 . S
C943 H937 0.950 . S
C943 C942 1.327 . S
C943 C947 1.429 . S
C944 C927 1.574 1_554 S
C944 H938 0.949 . S
C944 C948 1.368 . S
C945 C926 1.429 . S
C945 C939 1.429 . S
C945 C946 1.523 . S
C946 C927 1.368 . S
C946 C940 1.368 . S
C946 C945 1.523 . S
C947 C931 1.429 . S
C947 C943 1.429 . S
C947 C948 1.523 . S
C948 C932 1.368 . S
C948 C944 1.368 . S
C948 C947 1.523 . S
H949 C924 0.950 . S
H950 C926 0.950 . S
H951 C927 0.949 . S
H952 C929 0.950 . S
H953 C931 0.950 . S
C954 C955 1.349 . S
C954 C956 1.327 . S
C954 H979 0.950 . S
C955 C954 1.349 . S
C955 C971 1.349 . S
C956 C954 1.327 . S
C956 C975 1.429 . S
C956 H980 0.950 . S
C957 C974 1.574 . S
C957 C976 1.368 . S
C957 H981 0.949 . S
H958 C962 0.949 . S
C959 C960 1.349 . S
C959 C961 1.327 . S
C959 H982 0.950 . S
C960 C959 1.349 . S
C960 C972 1.349 . S
C961 C959 1.327 . S
C961 C977 1.429 . S
C961 H983 0.950 . S
C962 H958 0.949 . S
C962 C970 1.574 . S
C962 C978 1.368 . S
H963 C971 0.950 . S
H964 C969 0.950 . S
H965 C970 0.949 . S
H966 C972 0.950 . S
H967 C973 0.950 . S
H968 C974 0.949 . S
C969 H964 0.950 . S
C969 C971 1.327 . S
C969 C975 1.429 . S
C970 C962 1.574 . S
C970 H965 0.949 . S
C970 C976 1.368 1_554 S
C971 C955 1.349 . S
C971 H963 0.950 . S
C971 C969 1.327 . S
C972 C960 1.349 . S
C972 H966 0.950 . S
C972 C973 1.327 . S
C973 H967 0.950 . S
C973 C972 1.327 . S
C973 C977 1.429 . S
C974 C957 1.574 . S
C974 H968 0.949 . S
C974 C978 1.368 1_556 S
C975 C956 1.429 . S
C975 C969 1.429 . S
C975 C976 1.523 . S
C976 C957 1.368 . S
C976 C970 1.368 1_556 S
C976 C975 1.523 . S
C977 C961 1.429 . S
C977 C973 1.429 . S
C977 C978 1.523 . S
C978 C962 1.368 . S
C978 C974 1.368 1_554 S
C978 C977 1.523 . S
H979 C954 0.950 . S
H980 C956 0.950 . S
H981 C957 0.949 . S
H982 C959 0.950 . S
H983 C961 0.950 . S
C984 C985 1.349 . S
C984 C986 1.327 . S
C984 H1009 0.950 . S
C985 C984 1.349 . S
C985 C1001 1.349 . S
C986 C984 1.327 . S
C986 C1005 1.429 . S
C986 H1010 0.950 . S
C987 C1004 1.574 . S
C987 C1006 1.368 . S
C987 H1011 0.949 . S
H988 C992 0.949 . S
C989 C990 1.349 . S
C989 C991 1.327 . S
C989 H1012 0.950 . S
C990 C989 1.349 . S
C990 C1002 1.349 . S
C991 C989 1.327 . S
C991 C1007 1.429 . S
C991 H1013 0.950 . S
C992 H988 0.949 . S
C992 C1000 1.574 . S
C992 C1008 1.368 . S
H993 C1001 0.950 . S
H994 C999 0.950 . S
H995 C1000 0.949 . S
H996 C1002 0.950 . S
H997 C1003 0.950 . S
H998 C1004 0.949 . S
C999 H994 0.950 . S
C999 C1001 1.327 . S
C999 C1005 1.429 . S
C1000 C992 1.574 . S
C1000 H995 0.949 . S
C1000 C1006 1.368 . S
C1001 C985 1.349 . S
C1001 H993 0.950 . S
C1001 C999 1.327 . S
C1002 C990 1.349 . S
C1002 H996 0.950 . S
C1002 C1003 1.327 . S
C1003 H997 0.950 . S
C1003 C1002 1.327 . S
C1003 C1007 1.429 . S
C1004 C987 1.574 . S
C1004 H998 0.949 . S
C1004 C1008 1.368 . S
C1005 C986 1.429 . S
C1005 C999 1.429 . S
C1005 C1006 1.523 . S
C1006 C987 1.368 . S
C1006 C1000 1.368 . S
C1006 C1005 1.523 . S
C1007 C991 1.429 . S
C1007 C1003 1.429 . S
C1007 C1008 1.523 . S
C1008 C992 1.368 . S
C1008 C1004 1.368 . S
C1008 C1007 1.523 . S
H1009 C984 0.950 . S
H1010 C986 0.950 . S
H1011 C987 0.949 . S
H1012 C989 0.950 . S
H1013 C991 0.950 . S
C1014 C1015 1.349 . S
C1014 C1016 1.327 . S
C1014 H1039 0.950 . S
C1015 C1014 1.349 . S
C1015 C1031 1.349 . S
C1016 C1014 1.327 . S
C1016 C1035 1.429 . S
C1016 H1040 0.950 . S
C1017 C1034 1.574 . S
C1017 C1036 1.368 . S
C1017 H1041 0.949 . S
H1018 C1022 0.949 . S
C1019 C1020 1.349 . S
C1019 C1021 1.327 . S
C1019 H1042 0.950 . S
C1020 C1019 1.349 . S
C1020 C1032 1.349 . S
C1021 C1019 1.327 . S
C1021 C1037 1.429 . S
C1021 H1043 0.950 . S
C1022 H1018 0.949 . S
C1022 C1030 1.574 . S
C1022 C1038 1.368 . S
H1023 C1031 0.950 . S
H1024 C1029 0.950 . S
H1025 C1030 0.949 . S
H1026 C1032 0.950 . S
H1027 C1033 0.950 . S
H1028 C1034 0.949 . S
C1029 H1024 0.950 . S
C1029 C1031 1.327 . S
C1029 C1035 1.429 . S
C1030 C1022 1.574 . S
C1030 H1025 0.949 . S
C1030 C1036 1.368 . S
C1031 C1015 1.349 . S
C1031 H1023 0.950 . S
C1031 C1029 1.327 . S
C1032 C1020 1.349 . S
C1032 H1026 0.950 . S
C1032 C1033 1.327 . S
C1033 H1027 0.950 . S
C1033 C1032 1.327 . S
C1033 C1037 1.429 . S
C1034 C1017 1.574 . S
C1034 H1028 0.949 . S
C1034 C1038 1.368 . S
C1035 C1016 1.429 . S
C1035 C1029 1.429 . S
C1035 C1036 1.523 . S
C1036 C1017 1.368 . S
C1036 C1030 1.368 . S
C1036 C1035 1.523 . S
C1037 C1021 1.429 . S
C1037 C1033 1.429 . S
C1037 C1038 1.523 . S
C1038 C1022 1.368 . S
C1038 C1034 1.368 . S
C1038 C1037 1.523 . S
H1039 C1014 0.950 . S
H1040 C1016 0.950 . S
H1041 C1017 0.949 . S
H1042 C1019 0.950 . S
H1043 C1021 0.950 . S
C1044 C1045 1.349 . S
C1044 C1046 1.327 . S
C1044 H1069 0.950 . S
C1045 C1044 1.349 . S
C1045 C1061 1.349 . S
C1046 C1044 1.327 . S
C1046 C1065 1.429 . S
C1046 H1070 0.950 . S
C1047 C1064 1.574 . S
C1047 C1066 1.368 . S
C1047 H1071 0.949 . S
H1048 C1052 0.949 . S
C1049 C1050 1.349 . S
C1049 C1051 1.327 . S
C1049 H1072 0.950 . S
C1050 C1049 1.349 . S
C1050 C1062 1.349 . S
C1051 C1049 1.327 . S
C1051 C1067 1.429 . S
C1051 H1073 0.950 . S
C1052 H1048 0.949 . S
C1052 C1060 1.574 . S
C1052 C1068 1.368 . S
H1053 C1061 0.950 . S
H1054 C1059 0.950 . S
H1055 C1060 0.949 . S
H1056 C1062 0.950 . S
H1057 C1063 0.950 . S
H1058 C1064 0.949 . S
C1059 H1054 0.950 . S
C1059 C1061 1.327 . S
C1059 C1065 1.429 . S
C1060 C1052 1.574 . S
C1060 H1055 0.949 . S
C1060 C1066 1.368 . S
C1061 C1045 1.349 . S
C1061 H1053 0.950 . S
C1061 C1059 1.327 . S
C1062 C1050 1.349 . S
C1062 H1056 0.950 . S
C1062 C1063 1.327 . S
C1063 H1057 0.950 . S
C1063 C1062 1.327 . S
C1063 C1067 1.429 . S
C1064 C1047 1.574 . S
C1064 H1058 0.949 . S
C1064 C1068 1.368 . S
C1065 C1046 1.429 . S
C1065 C1059 1.429 . S
C1065 C1066 1.523 . S
C1066 C1047 1.368 . S
C1066 C1060 1.368 . S
C1066 C1065 1.523 . S
C1067 C1051 1.429 . S
C1067 C1063 1.429 . S
C1067 C1068 1.523 . S
C1068 C1052 1.368 . S
C1068 C1064 1.368 . S
C1068 C1067 1.523 . S
H1069 C1044 0.950 . S
H1070 C1046 0.950 . S
H1071 C1047 0.949 . S
H1072 C1049 0.950 . S
H1073 C1051 0.950 . S
C1074 C1075 1.349 . S
C1074 C1076 1.327 . S
C1074 H1099 0.950 . S
C1075 C1074 1.349 . S
C1075 C1091 1.349 . S
C1076 C1074 1.327 . S
C1076 C1095 1.429 . S
C1076 H1100 0.950 . S
C1077 C1094 1.574 . S
C1077 C1096 1.368 . S
C1077 H1101 0.949 . S
H1078 C1082 0.949 . S
C1079 C1080 1.349 . S
C1079 C1081 1.327 . S
C1079 H1102 0.950 . S
C1080 C1079 1.349 . S
C1080 C1092 1.349 . S
C1081 C1079 1.327 . S
C1081 C1097 1.429 . S
C1081 H1103 0.950 . S
C1082 H1078 0.949 . S
C1082 C1090 1.574 . S
C1082 C1098 1.368 . S
H1083 C1091 0.950 . S
H1084 C1089 0.950 . S
H1085 C1090 0.949 . S
H1086 C1092 0.950 . S
H1087 C1093 0.950 . S
H1088 C1094 0.949 . S
C1089 H1084 0.950 . S
C1089 C1091 1.327 . S
C1089 C1095 1.429 . S
C1090 C1082 1.574 . S
C1090 H1085 0.949 . S
C1090 C1096 1.368 . S
C1091 C1075 1.349 . S
C1091 H1083 0.950 . S
C1091 C1089 1.327 . S
C1092 C1080 1.349 . S
C1092 H1086 0.950 . S
C1092 C1093 1.327 . S
C1093 H1087 0.950 . S
C1093 C1092 1.327 . S
C1093 C1097 1.429 . S
C1094 C1077 1.574 . S
C1094 H1088 0.949 . S
C1094 C1098 1.368 . S
C1095 C1076 1.429 . S
C1095 C1089 1.429 . S
C1095 C1096 1.523 . S
C1096 C1077 1.368 . S
C1096 C1090 1.368 . S
C1096 C1095 1.523 . S
C1097 C1081 1.429 . S
C1097 C1093 1.429 . S
C1097 C1098 1.523 . S
C1098 C1082 1.368 . S
C1098 C1094 1.368 . S
C1098 C1097 1.523 . S
H1099 C1074 0.950 . S
H1100 C1076 0.950 . S
H1101 C1077 0.949 . S
H1102 C1079 0.950 . S
H1103 C1081 0.950 . S
C1104 C1105 1.349 . S
C1104 C1106 1.327 . S
C1104 H1129 0.950 . S
C1105 C1104 1.349 . S
C1105 C1121 1.349 . S
C1106 C1104 1.327 . S
C1106 C1125 1.429 . S
C1106 H1130 0.950 . S
C1107 C1124 1.574 . S
C1107 C1126 1.368 . S
C1107 H1131 0.949 . S
H1108 C1112 0.949 . S
C1109 C1110 1.349 . S
C1109 C1111 1.327 . S
C1109 H1132 0.950 . S
C1110 C1109 1.349 . S
C1110 C1122 1.349 . S
C1111 C1109 1.327 . S
C1111 C1127 1.429 . S
C1111 H1133 0.950 . S
C1112 H1108 0.949 . S
C1112 C1120 1.574 . S
C1112 C1128 1.368 . S
H1113 C1121 0.950 . S
H1114 C1119 0.950 . S
H1115 C1120 0.949 . S
H1116 C1122 0.950 . S
H1117 C1123 0.950 . S
H1118 C1124 0.949 . S
C1119 H1114 0.950 . S
C1119 C1121 1.327 . S
C1119 C1125 1.429 . S
C1120 C1112 1.574 . S
C1120 H1115 0.949 . S
C1120 C1126 1.368 . S
C1121 C1105 1.349 . S
C1121 H1113 0.950 . S
C1121 C1119 1.327 . S
C1122 C1110 1.349 . S
C1122 H1116 0.950 . S
C1122 C1123 1.327 . S
C1123 H1117 0.950 . S
C1123 C1122 1.327 . S
C1123 C1127 1.429 . S
C1124 C1107 1.574 . S
C1124 H1118 0.949 . S
C1124 C1128 1.368 . S
C1125 C1106 1.429 . S
C1125 C1119 1.429 . S
C1125 C1126 1.523 . S
C1126 C1107 1.368 . S
C1126 C1120 1.368 . S
C1126 C1125 1.523 . S
C1127 C1111 1.429 . S
C1127 C1123 1.429 . S
C1127 C1128 1.523 . S
C1128 C1112 1.368 . S
C1128 C1124 1.368 . S
C1128 C1127 1.523 . S
H1129 C1104 0.950 . S
H1130 C1106 0.950 . S
H1131 C1107 0.949 . S
H1132 C1109 0.950 . S
H1133 C1111 0.950 . S
C1134 C1135 1.349 . S
C1134 C1136 1.327 . S
C1134 H1159 0.950 . S
C1135 C1134 1.349 . S
C1135 C1151 1.349 . S
C1136 C1134 1.327 . S
C1136 C1155 1.429 . S
C1136 H1160 0.950 . S
C1137 C1154 1.574 . S
C1137 C1156 1.368 . S
C1137 H1161 0.949 . S
H1138 C1142 0.949 . S
C1139 C1140 1.349 . S
C1139 C1141 1.327 . S
C1139 H1162 0.950 . S
C1140 C1139 1.349 . S
C1140 C1152 1.349 . S
C1141 C1139 1.327 . S
C1141 C1157 1.429 . S
C1141 H1163 0.950 . S
C1142 H1138 0.949 . S
C1142 C1150 1.574 . S
C1142 C1158 1.368 . S
H1143 C1151 0.950 . S
H1144 C1149 0.950 . S
H1145 C1150 0.949 . S
H1146 C1152 0.950 . S
H1147 C1153 0.950 . S
H1148 C1154 0.949 . S
C1149 H1144 0.950 . S
C1149 C1151 1.327 . S
C1149 C1155 1.429 . S
C1150 C1142 1.574 . S
C1150 H1145 0.949 . S
C1150 C1156 1.368 . S
C1151 C1135 1.349 . S
C1151 H1143 0.950 . S
C1151 C1149 1.327 . S
C1152 C1140 1.349 . S
C1152 H1146 0.950 . S
C1152 C1153 1.327 . S
C1153 H1147 0.950 . S
C1153 C1152 1.327 . S
C1153 C1157 1.429 . S
C1154 C1137 1.574 . S
C1154 H1148 0.949 . S
C1154 C1158 1.368 . S
C1155 C1136 1.429 . S
C1155 C1149 1.429 . S
C1155 C1156 1.523 . S
C1156 C1137 1.368 . S
C1156 C1150 1.368 . S
C1156 C1155 1.523 . S
C1157 C1141 1.429 . S
C1157 C1153 1.429 . S
C1157 C1158 1.523 . S
C1158 C1142 1.368 . S
C1158 C1154 1.368 . S
C1158 C1157 1.523 . S
H1159 C1134 0.950 . S
H1160 C1136 0.950 . S
H1161 C1137 0.949 . S
H1162 C1139 0.950 . S
H1163 C1141 0.950 . S
C1164 C1165 1.349 . S
C1164 C1166 1.327 . S
C1164 H1189 0.950 . S
C1165 C1164 1.349 . S
C1165 C1181 1.349 . S
C1166 C1164 1.327 . S
C1166 C1185 1.429 . S
C1166 H1190 0.950 . S
C1167 C1184 1.574 . S
C1167 C1186 1.368 . S
C1167 H1191 0.949 . S
H1168 C1172 0.949 . S
C1169 C1170 1.349 . S
C1169 C1171 1.327 . S
C1169 H1192 0.950 . S
C1170 C1169 1.349 . S
C1170 C1182 1.349 . S
C1171 C1169 1.327 . S
C1171 C1187 1.429 . S
C1171 H1193 0.950 . S
C1172 H1168 0.949 . S
C1172 C1180 1.574 . S
C1172 C1188 1.368 . S
H1173 C1181 0.950 . S
H1174 C1179 0.950 . S
H1175 C1180 0.949 . S
H1176 C1182 0.950 . S
H1177 C1183 0.950 . S
H1178 C1184 0.949 . S
C1179 H1174 0.950 . S
C1179 C1181 1.327 . S
C1179 C1185 1.429 . S
C1180 C1172 1.574 . S
C1180 H1175 0.949 . S
C1180 C1186 1.368 . S
C1181 C1165 1.349 . S
C1181 H1173 0.950 . S
C1181 C1179 1.327 . S
C1182 C1170 1.349 . S
C1182 H1176 0.950 . S
C1182 C1183 1.327 . S
C1183 H1177 0.950 . S
C1183 C1182 1.327 . S
C1183 C1187 1.429 . S
C1184 C1167 1.574 . S
C1184 H1178 0.949 . S
C1184 C1188 1.368 . S
C1185 C1166 1.429 . S
C1185 C1179 1.429 . S
C1185 C1186 1.523 . S
C1186 C1167 1.368 . S
C1186 C1180 1.368 . S
C1186 C1185 1.523 . S
C1187 C1171 1.429 . S
C1187 C1183 1.429 . S
C1187 C1188 1.523 . S
C1188 C1172 1.368 . S
C1188 C1184 1.368 . S
C1188 C1187 1.523 . S
H1189 C1164 0.950 . S
H1190 C1166 0.950 . S
H1191 C1167 0.949 . S
H1192 C1169 0.950 . S
H1193 C1171 0.950 . S
C1194 C1195 1.349 . S
C1194 C1196 1.327 . S
C1194 H1219 0.950 . S
C1195 C1194 1.349 . S
C1195 C1211 1.349 . S
C1196 C1194 1.327 . S
C1196 C1215 1.429 . S
C1196 H1220 0.950 . S
C1197 C1214 1.574 . S
C1197 C1216 1.368 . S
C1197 H1221 0.949 . S
H1198 C1202 0.949 . S
C1199 C1200 1.349 . S
C1199 C1201 1.327 . S
C1199 H1222 0.950 . S
C1200 C1199 1.349 . S
C1200 C1212 1.349 . S
C1201 C1199 1.327 . S
C1201 C1217 1.429 . S
C1201 H1223 0.950 . S
C1202 H1198 0.949 . S
C1202 C1210 1.574 . S
C1202 C1218 1.368 . S
H1203 C1211 0.950 . S
H1204 C1209 0.950 . S
H1205 C1210 0.949 . S
H1206 C1212 0.950 . S
H1207 C1213 0.950 . S
H1208 C1214 0.949 . S
C1209 H1204 0.950 . S
C1209 C1211 1.327 . S
C1209 C1215 1.429 . S
C1210 C1202 1.574 . S
C1210 H1205 0.949 . S
C1210 C1216 1.368 . S
C1211 C1195 1.349 . S
C1211 H1203 0.950 . S
C1211 C1209 1.327 . S
C1212 C1200 1.349 . S
C1212 H1206 0.950 . S
C1212 C1213 1.327 . S
C1213 H1207 0.950 . S
C1213 C1212 1.327 . S
C1213 C1217 1.429 . S
C1214 C1197 1.574 . S
C1214 H1208 0.949 . S
C1214 C1218 1.368 . S
C1215 C1196 1.429 . S
C1215 C1209 1.429 . S
C1215 C1216 1.523 . S
C1216 C1197 1.368 . S
C1216 C1210 1.368 . S
C1216 C1215 1.523 . S
C1217 C1201 1.429 . S
C1217 C1213 1.429 . S
C1217 C1218 1.523 . S
C1218 C1202 1.368 . S
C1218 C1214 1.368 . S
C1218 C1217 1.523 . S
H1219 C1194 0.950 . S
H1220 C1196 0.950 . S
H1221 C1197 0.949 . S
H1222 C1199 0.950 . S
H1223 C1201 0.950 . S
C1224 C1225 1.349 . S
C1224 C1226 1.327 . S
C1224 H1249 0.950 . S
C1225 C1224 1.349 . S
C1225 C1241 1.349 . S
C1226 C1224 1.327 . S
C1226 C1245 1.429 . S
C1226 H1250 0.950 . S
C1227 C1244 1.574 . S
C1227 C1246 1.368 . S
C1227 H1251 0.949 . S
H1228 C1232 0.949 . S
C1229 C1230 1.349 . S
C1229 C1231 1.327 . S
C1229 H1252 0.950 . S
C1230 C1229 1.349 . S
C1230 C1242 1.349 . S
C1231 C1229 1.327 . S
C1231 C1247 1.429 . S
C1231 H1253 0.950 . S
C1232 H1228 0.949 . S
C1232 C1240 1.574 . S
C1232 C1248 1.368 . S
H1233 C1241 0.950 . S
H1234 C1239 0.950 . S
H1235 C1240 0.949 . S
H1236 C1242 0.950 . S
H1237 C1243 0.950 . S
H1238 C1244 0.949 . S
C1239 H1234 0.950 . S
C1239 C1241 1.327 . S
C1239 C1245 1.429 . S
C1240 C1232 1.574 . S
C1240 H1235 0.949 . S
C1240 C1246 1.368 . S
C1241 C1225 1.349 . S
C1241 H1233 0.950 . S
C1241 C1239 1.327 . S
C1242 C1230 1.349 . S
C1242 H1236 0.950 . S
C1242 C1243 1.327 . S
C1243 H1237 0.950 . S
C1243 C1242 1.327 . S
C1243 C1247 1.429 . S
C1244 C1227 1.574 . S
C1244 H1238 0.949 . S
C1244 C1248 1.368 . S
C1245 C1226 1.429 . S
C1245 C1239 1.429 . S
C1245 C1246 1.523 . S
C1246 C1227 1.368 . S
C1246 C1240 1.368 . S
C1246 C1245 1.523 . S
C1247 C1231 1.429 . S
C1247 C1243 1.429 . S
C1247 C1248 1.523 . S
C1248 C1232 1.368 . S
C1248 C1244 1.368 . S
C1248 C1247 1.523 . S
H1249 C1224 0.950 . S
H1250 C1226 0.950 . S
H1251 C1227 0.949 . S
H1252 C1229 0.950 . S
H1253 C1231 0.950 . S
C1254 C1255 1.349 . S
C1254 C1256 1.327 . S
C1254 H1279 0.950 . S
C1255 C1254 1.349 . S
C1255 C1271 1.349 . S
C1256 C1254 1.327 . S
C1256 C1275 1.429 . S
C1256 H1280 0.950 . S
C1257 C1274 1.574 . S
C1257 C1276 1.368 . S
C1257 H1281 0.949 . S
H1258 C1262 0.949 . S
C1259 C1260 1.349 . S
C1259 C1261 1.327 . S
C1259 H1282 0.950 . S
C1260 C1259 1.349 . S
C1260 C1272 1.349 . S
C1261 C1259 1.327 . S
C1261 C1277 1.429 . S
C1261 H1283 0.950 . S
C1262 H1258 0.949 . S
C1262 C1270 1.574 . S
C1262 C1278 1.368 . S
H1263 C1271 0.950 . S
H1264 C1269 0.950 . S
H1265 C1270 0.949 . S
H1266 C1272 0.950 . S
H1267 C1273 0.950 . S
H1268 C1274 0.949 . S
C1269 H1264 0.950 . S
C1269 C1271 1.327 . S
C1269 C1275 1.429 . S
C1270 C1262 1.574 . S
C1270 H1265 0.949 . S
C1270 C1276 1.368 . S
C1271 C1255 1.349 . S
C1271 H1263 0.950 . S
C1271 C1269 1.327 . S
C1272 C1260 1.349 . S
C1272 H1266 0.950 . S
C1272 C1273 1.327 . S
C1273 H1267 0.950 . S
C1273 C1272 1.327 . S
C1273 C1277 1.429 . S
C1274 C1257 1.574 . S
C1274 H1268 0.949 . S
C1274 C1278 1.368 . S
C1275 C1256 1.429 . S
C1275 C1269 1.429 . S
C1275 C1276 1.523 . S
C1276 C1257 1.368 . S
C1276 C1270 1.368 . S
C1276 C1275 1.523 . S
C1277 C1261 1.429 . S
C1277 C1273 1.429 . S
C1277 C1278 1.523 . S
C1278 C1262 1.368 . S
C1278 C1274 1.368 . S
C1278 C1277 1.523 . S
H1279 C1254 0.950 . S
H1280 C1256 0.950 . S
H1281 C1257 0.949 . S
H1282 C1259 0.950 . S
H1283 C1261 0.950 . S
C1284 C1285 1.349 . S
C1284 C1286 1.327 . S
C1284 H1309 0.950 . S
C1285 C1284 1.349 . S
C1285 C1301 1.349 . S
C1286 C1284 1.327 . S
C1286 C1305 1.429 . S
C1286 H1310 0.950 . S
C1287 C1304 1.574 . S
C1287 C1306 1.368 . S
C1287 H1311 0.949 . S
H1288 C1292 0.949 . S
C1289 C1290 1.349 . S
C1289 C1291 1.327 . S
C1289 H1312 0.950 . S
C1290 C1289 1.349 . S
C1290 C1302 1.349 . S
C1291 C1289 1.327 . S
C1291 C1307 1.429 . S
C1291 H1313 0.950 . S
C1292 H1288 0.949 . S
C1292 C1300 1.574 . S
C1292 C1308 1.368 . S
H1293 C1301 0.950 . S
H1294 C1299 0.950 . S
H1295 C1300 0.949 . S
H1296 C1302 0.950 . S
H1297 C1303 0.950 . S
H1298 C1304 0.949 . S
C1299 H1294 0.950 . S
C1299 C1301 1.327 . S
C1299 C1305 1.429 . S
C1300 C1292 1.574 . S
C1300 H1295 0.949 . S
C1300 C1306 1.368 . S
C1301 C1285 1.349 . S
C1301 H1293 0.950 . S
C1301 C1299 1.327 . S
C1302 C1290 1.349 . S
C1302 H1296 0.950 . S
C1302 C1303 1.327 . S
C1303 H1297 0.950 . S
C1303 C1302 1.327 . S
C1303 C1307 1.429 . S
C1304 C1287 1.574 . S
C1304 H1298 0.949 . S
C1304 C1308 1.368 . S
C1305 C1286 1.429 . S
C1305 C1299 1.429 . S
C1305 C1306 1.523 . S
C1306 C1287 1.368 . S
C1306 C1300 1.368 . S
C1306 C1305 1.523 . S
C1307 C1291 1.429 . S
C1307 C1303 1.429 . S
C1307 C1308 1.523 . S
C1308 C1292 1.368 . S
C1308 C1304 1.368 . S
C1308 C1307 1.523 . S
H1309 C1284 0.950 . S
H1310 C1286 0.950 . S
H1311 C1287 0.949 . S
H1312 C1289 0.950 . S
H1313 C1291 0.950 . S
C1314 C1315 1.349 . S
C1314 C1316 1.327 . S
C1314 H1339 0.950 . S
C1315 C1314 1.349 . S
C1315 C1331 1.349 . S
C1316 C1314 1.327 . S
C1316 C1335 1.429 . S
C1316 H1340 0.950 . S
C1317 C1334 1.574 . S
C1317 C1336 1.368 . S
C1317 H1341 0.949 . S
H1318 C1322 0.949 . S
C1319 C1320 1.349 . S
C1319 C1321 1.327 . S
C1319 H1342 0.950 . S
C1320 C1319 1.349 . S
C1320 C1332 1.349 . S
C1321 C1319 1.327 . S
C1321 C1337 1.429 . S
C1321 H1343 0.950 . S
C1322 H1318 0.949 . S
C1322 C1330 1.574 . S
C1322 C1338 1.368 . S
H1323 C1331 0.950 . S
H1324 C1329 0.950 . S
H1325 C1330 0.949 . S
H1326 C1332 0.950 . S
H1327 C1333 0.950 . S
H1328 C1334 0.949 . S
C1329 H1324 0.950 . S
C1329 C1331 1.327 . S
C1329 C1335 1.429 . S
C1330 C1322 1.574 . S
C1330 H1325 0.949 . S
C1330 C1336 1.368 . S
C1331 C1315 1.349 . S
C1331 H1323 0.950 . S
C1331 C1329 1.327 . S
C1332 C1320 1.349 . S
C1332 H1326 0.950 . S
C1332 C1333 1.327 . S
C1333 H1327 0.950 . S
C1333 C1332 1.327 . S
C1333 C1337 1.429 . S
C1334 C1317 1.574 . S
C1334 H1328 0.949 . S
C1334 C1338 1.368 . S
C1335 C1316 1.429 . S
C1335 C1329 1.429 . S
C1335 C1336 1.523 . S
C1336 C1317 1.368 . S
C1336 C1330 1.368 . S
C1336 C1335 1.523 . S
C1337 C1321 1.429 . S
C1337 C1333 1.429 . S
C1337 C1338 1.523 . S
C1338 C1322 1.368 . S
C1338 C1334 1.368 . S
C1338 C1337 1.523 . S
H1339 C1314 0.950 . S
H1340 C1316 0.950 . S
H1341 C1317 0.949 . S
H1342 C1319 0.950 . S
H1343 C1321 0.950 . S
C1344 C1345 1.349 . S
C1344 C1346 1.327 . S
C1344 H1369 0.950 . S
C1345 C1344 1.349 . S
C1345 C1361 1.349 . S
C1346 C1344 1.327 . S
C1346 C1365 1.429 . S
C1346 H1370 0.950 . S
C1347 C1364 1.574 . S
C1347 C1366 1.368 . S
C1347 H1371 0.949 . S
H1348 C1352 0.949 . S
C1349 C1350 1.349 . S
C1349 C1351 1.327 . S
C1349 H1372 0.950 . S
C1350 C1349 1.349 . S
C1350 C1362 1.349 . S
C1351 C1349 1.327 . S
C1351 C1367 1.429 . S
C1351 H1373 0.950 . S
C1352 H1348 0.949 . S
C1352 C1360 1.574 . S
C1352 C1368 1.368 . S
H1353 C1361 0.950 . S
H1354 C1359 0.950 . S
H1355 C1360 0.949 . S
H1356 C1362 0.950 . S
H1357 C1363 0.950 . S
H1358 C1364 0.949 . S
C1359 H1354 0.950 . S
C1359 C1361 1.327 . S
C1359 C1365 1.429 . S
C1360 C1352 1.574 . S
C1360 H1355 0.949 . S
C1360 C1366 1.368 . S
C1361 C1345 1.349 . S
C1361 H1353 0.950 . S
C1361 C1359 1.327 . S
C1362 C1350 1.349 . S
C1362 H1356 0.950 . S
C1362 C1363 1.327 . S
C1363 H1357 0.950 . S
C1363 C1362 1.327 . S
C1363 C1367 1.429 . S
C1364 C1347 1.574 . S
C1364 H1358 0.949 . S
C1364 C1368 1.368 . S
C1365 C1346 1.429 . S
C1365 C1359 1.429 . S
C1365 C1366 1.523 . S
C1366 C1347 1.368 . S
C1366 C1360 1.368 . S
C1366 C1365 1.523 . S
C1367 C1351 1.429 . S
C1367 C1363 1.429 . S
C1367 C1368 1.523 . S
C1368 C1352 1.368 . S
C1368 C1364 1.368 . S
C1368 C1367 1.523 . S
H1369 C1344 0.950 . S
H1370 C1346 0.950 . S
H1371 C1347 0.949 . S
H1372 C1349 0.950 . S
H1373 C1351 0.950 . S
C1374 C1375 1.349 . S
C1374 C1376 1.327 . S
C1374 H1399 0.950 . S
C1375 C1374 1.349 . S
C1375 C1391 1.349 . S
C1376 C1374 1.327 . S
C1376 C1395 1.429 . S
C1376 H1400 0.950 . S
C1377 C1394 1.574 . S
C1377 C1396 1.368 . S
C1377 H1401 0.949 . S
H1378 C1382 0.949 . S
C1379 C1380 1.349 . S
C1379 C1381 1.327 . S
C1379 H1402 0.950 . S
C1380 C1379 1.349 . S
C1380 C1392 1.349 . S
C1381 C1379 1.327 . S
C1381 C1397 1.429 . S
C1381 H1403 0.950 . S
C1382 H1378 0.949 . S
C1382 C1390 1.574 . S
C1382 C1398 1.368 . S
H1383 C1391 0.950 . S
H1384 C1389 0.950 . S
H1385 C1390 0.949 . S
H1386 C1392 0.950 . S
H1387 C1393 0.950 . S
H1388 C1394 0.949 . S
C1389 H1384 0.950 . S
C1389 C1391 1.327 . S
C1389 C1395 1.429 . S
C1390 C1382 1.574 . S
C1390 H1385 0.949 . S
C1390 C1396 1.368 . S
C1391 C1375 1.349 . S
C1391 H1383 0.950 . S
C1391 C1389 1.327 . S
C1392 C1380 1.349 . S
C1392 H1386 0.950 . S
C1392 C1393 1.327 . S
C1393 H1387 0.950 . S
C1393 C1392 1.327 . S
C1393 C1397 1.429 . S
C1394 C1377 1.574 . S
C1394 H1388 0.949 . S
C1394 C1398 1.368 . S
C1395 C1376 1.429 . S
C1395 C1389 1.429 . S
C1395 C1396 1.523 . S
C1396 C1377 1.368 . S
C1396 C1390 1.368 . S
C1396 C1395 1.523 . S
C1397 C1381 1.429 . S
C1397 C1393 1.429 . S
C1397 C1398 1.523 . S
C1398 C1382 1.368 . S
C1398 C1394 1.368 . S
C1398 C1397 1.523 . S
H1399 C1374 0.950 . S
H1400 C1376 0.950 . S
H1401 C1377 0.949 . S
H1402 C1379 0.950 . S
H1403 C1381 0.950 . S
C1404 C1405 1.349 . S
C1404 C1406 1.327 . S
C1404 H1429 0.950 . S
C1405 C1404 1.349 . S
C1405 C1421 1.349 . S
C1406 C1404 1.327 . S
C1406 C1425 1.429 . S
C1406 H1430 0.950 . S
C1407 C1424 1.574 . S
C1407 C1426 1.368 . S
C1407 H1431 0.949 . S
H1408 C1412 0.949 . S
C1409 C1410 1.349 . S
C1409 C1411 1.327 . S
C1409 H1432 0.950 . S
C1410 C1409 1.349 . S
C1410 C1422 1.349 . S
C1411 C1409 1.327 . S
C1411 C1427 1.429 . S
C1411 H1433 0.950 . S
C1412 H1408 0.949 . S
C1412 C1420 1.574 . S
C1412 C1428 1.368 . S
H1413 C1421 0.950 . S
H1414 C1419 0.950 . S
H1415 C1420 0.949 . S
H1416 C1422 0.950 . S
H1417 C1423 0.950 . S
H1418 C1424 0.949 . S
C1419 H1414 0.950 . S
C1419 C1421 1.327 . S
C1419 C1425 1.429 . S
C1420 C1412 1.574 . S
C1420 H1415 0.949 . S
C1420 C1426 1.368 . S
C1421 C1405 1.349 . S
C1421 H1413 0.950 . S
C1421 C1419 1.327 . S
C1422 C1410 1.349 . S
C1422 H1416 0.950 . S
C1422 C1423 1.327 . S
C1423 H1417 0.950 . S
C1423 C1422 1.327 . S
C1423 C1427 1.429 . S
C1424 C1407 1.574 . S
C1424 H1418 0.949 . S
C1424 C1428 1.368 . S
C1425 C1406 1.429 . S
C1425 C1419 1.429 . S
C1425 C1426 1.523 . S
C1426 C1407 1.368 . S
C1426 C1420 1.368 . S
C1426 C1425 1.523 . S
C1427 C1411 1.429 . S
C1427 C1423 1.429 . S
C1427 C1428 1.523 . S
C1428 C1412 1.368 . S
C1428 C1424 1.368 . S
C1428 C1427 1.523 . S
H1429 C1404 0.950 . S
H1430 C1406 0.950 . S
H1431 C1407 0.949 . S
H1432 C1409 0.950 . S
H1433 C1411 0.950 . S
C1434 C1435 1.349 . S
C1434 C1436 1.327 . S
C1434 H1459 0.950 . S
C1435 C1434 1.349 . S
C1435 C1451 1.349 . S
C1436 C1434 1.327 . S
C1436 C1455 1.429 . S
C1436 H1460 0.950 . S
C1437 C1454 1.574 . S
C1437 C1456 1.368 . S
C1437 H1461 0.949 . S
H1438 C1442 0.949 . S
C1439 C1440 1.349 . S
C1439 C1441 1.327 . S
C1439 H1462 0.950 . S
C1440 C1439 1.349 . S
C1440 C1452 1.349 . S
C1441 C1439 1.327 . S
C1441 C1457 1.429 . S
C1441 H1463 0.950 . S
C1442 H1438 0.949 . S
C1442 C1450 1.574 . S
C1442 C1458 1.368 . S
H1443 C1451 0.950 . S
H1444 C1449 0.950 . S
H1445 C1450 0.949 . S
H1446 C1452 0.950 . S
H1447 C1453 0.950 . S
H1448 C1454 0.949 . S
C1449 H1444 0.950 . S
C1449 C1451 1.327 . S
C1449 C1455 1.429 . S
C1450 C1442 1.574 . S
C1450 H1445 0.949 . S
C1450 C1456 1.368 . S
C1451 C1435 1.349 . S
C1451 H1443 0.950 . S
C1451 C1449 1.327 . S
C1452 C1440 1.349 . S
C1452 H1446 0.950 . S
C1452 C1453 1.327 . S
C1453 H1447 0.950 . S
C1453 C1452 1.327 . S
C1453 C1457 1.429 . S
C1454 C1437 1.574 . S
C1454 H1448 0.949 . S
C1454 C1458 1.368 . S
C1455 C1436 1.429 . S
C1455 C1449 1.429 . S
C1455 C1456 1.523 . S
C1456 C1437 1.368 . S
C1456 C1450 1.368 . S
C1456 C1455 1.523 . S
C1457 C1441 1.429 . S
C1457 C1453 1.429 . S
C1457 C1458 1.523 . S
C1458 C1442 1.368 . S
C1458 C1454 1.368 . S
C1458 C1457 1.523 . S
H1459 C1434 0.950 . S
H1460 C1436 0.950 . S
H1461 C1437 0.949 . S
H1462 C1439 0.950 . S
H1463 C1441 0.950 . S
C1464 C1465 1.349 . S
C1464 C1466 1.327 . S
C1464 H1489 0.950 . S
C1465 C1464 1.349 . S
C1465 C1481 1.349 . S
C1466 C1464 1.327 . S
C1466 C1485 1.429 . S
C1466 H1490 0.950 . S
C1467 C1484 1.574 . S
C1467 C1486 1.368 . S
C1467 H1491 0.949 . S
H1468 C1472 0.949 . S
C1469 C1470 1.349 . S
C1469 C1471 1.327 . S
C1469 H1492 0.950 . S
C1470 C1469 1.349 . S
C1470 C1482 1.349 . S
C1471 C1469 1.327 . S
C1471 C1487 1.429 . S
C1471 H1493 0.950 . S
C1472 H1468 0.949 . S
C1472 C1480 1.574 . S
C1472 C1488 1.368 . S
H1473 C1481 0.950 . S
H1474 C1479 0.950 . S
H1475 C1480 0.949 . S
H1476 C1482 0.950 . S
H1477 C1483 0.950 . S
H1478 C1484 0.949 . S
C1479 H1474 0.950 . S
C1479 C1481 1.327 . S
C1479 C1485 1.429 . S
C1480 C1472 1.574 . S
C1480 H1475 0.949 . S
C1480 C1486 1.368 . S
C1481 C1465 1.349 . S
C1481 H1473 0.950 . S
C1481 C1479 1.327 . S
C1482 C1470 1.349 . S
C1482 H1476 0.950 . S
C1482 C1483 1.327 . S
C1483 H1477 0.950 . S
C1483 C1482 1.327 . S
C1483 C1487 1.429 . S
C1484 C1467 1.574 . S
C1484 H1478 0.949 . S
C1484 C1488 1.368 . S
C1485 C1466 1.429 . S
C1485 C1479 1.429 . S
C1485 C1486 1.523 . S
C1486 C1467 1.368 . S
C1486 C1480 1.368 . S
C1486 C1485 1.523 . S
C1487 C1471 1.429 . S
C1487 C1483 1.429 . S
C1487 C1488 1.523 . S
C1488 C1472 1.368 . S
C1488 C1484 1.368 . S
C1488 C1487 1.523 . S
H1489 C1464 0.950 . S
H1490 C1466 0.950 . S
H1491 C1467 0.949 . S
H1492 C1469 0.950 . S
H1493 C1471 0.950 . S
C1494 C1495 1.349 . S
C1494 C1496 1.327 . S
C1494 H1519 0.950 . S
C1495 C1494 1.349 . S
C1495 C1511 1.349 . S
C1496 C1494 1.327 . S
C1496 C1515 1.429 . S
C1496 H1520 0.950 . S
C1497 C1514 1.574 . S
C1497 C1516 1.368 . S
C1497 H1521 0.949 . S
H1498 C1502 0.949 . S
C1499 C1500 1.349 . S
C1499 C1501 1.327 . S
C1499 H1522 0.950 . S
C1500 C1499 1.349 . S
C1500 C1512 1.349 . S
C1501 C1499 1.327 . S
C1501 C1517 1.429 . S
C1501 H1523 0.950 . S
C1502 H1498 0.949 . S
C1502 C1510 1.574 . S
C1502 C1518 1.368 . S
H1503 C1511 0.950 . S
H1504 C1509 0.950 . S
H1505 C1510 0.949 . S
H1506 C1512 0.950 . S
H1507 C1513 0.950 . S
H1508 C1514 0.949 . S
C1509 H1504 0.950 . S
C1509 C1511 1.327 . S
C1509 C1515 1.429 . S
C1510 C1502 1.574 . S
C1510 H1505 0.949 . S
C1510 C1516 1.368 . S
C1511 C1495 1.349 . S
C1511 H1503 0.950 . S
C1511 C1509 1.327 . S
C1512 C1500 1.349 . S
C1512 H1506 0.950 . S
C1512 C1513 1.327 . S
C1513 H1507 0.950 . S
C1513 C1512 1.327 . S
C1513 C1517 1.429 . S
C1514 C1497 1.574 . S
C1514 H1508 0.949 . S
C1514 C1518 1.368 . S
C1515 C1496 1.429 . S
C1515 C1509 1.429 . S
C1515 C1516 1.523 . S
C1516 C1497 1.368 . S
C1516 C1510 1.368 . S
C1516 C1515 1.523 . S
C1517 C1501 1.429 . S
C1517 C1513 1.429 . S
C1517 C1518 1.523 . S
C1518 C1502 1.368 . S
C1518 C1514 1.368 . S
C1518 C1517 1.523 . S
H1519 C1494 0.950 . S
H1520 C1496 0.950 . S
H1521 C1497 0.949 . S
H1522 C1499 0.950 . S
H1523 C1501 0.950 . S
C1524 C1525 1.349 . S
C1524 C1526 1.327 . S
C1524 H1549 0.950 . S
C1525 C1524 1.349 . S
C1525 C1541 1.349 . S
C1526 C1524 1.327 . S
C1526 C1545 1.429 . S
C1526 H1550 0.950 . S
C1527 C1544 1.574 . S
C1527 C1546 1.368 . S
C1527 H1551 0.949 . S
H1528 C1532 0.949 . S
C1529 C1530 1.349 . S
C1529 C1531 1.327 . S
C1529 H1552 0.950 . S
C1530 C1529 1.349 . S
C1530 C1542 1.349 . S
C1531 C1529 1.327 . S
C1531 C1547 1.429 . S
C1531 H1553 0.950 . S
C1532 H1528 0.949 . S
C1532 C1540 1.574 . S
C1532 C1548 1.368 . S
H1533 C1541 0.950 . S
H1534 C1539 0.950 . S
H1535 C1540 0.949 . S
H1536 C1542 0.950 . S
H1537 C1543 0.950 . S
H1538 C1544 0.949 . S
C1539 H1534 0.950 . S
C1539 C1541 1.327 . S
C1539 C1545 1.429 . S
C1540 C1532 1.574 . S
C1540 H1535 0.949 . S
C1540 C1546 1.368 . S
C1541 C1525 1.349 . S
C1541 H1533 0.950 . S
C1541 C1539 1.327 . S
C1542 C1530 1.349 . S
C1542 H1536 0.950 . S
C1542 C1543 1.327 . S
C1543 H1537 0.950 . S
C1543 C1542 1.327 . S
C1543 C1547 1.429 . S
C1544 C1527 1.574 . S
C1544 H1538 0.949 . S
C1544 C1548 1.368 . S
C1545 C1526 1.429 . S
C1545 C1539 1.429 . S
C1545 C1546 1.523 . S
C1546 C1527 1.368 . S
C1546 C1540 1.368 . S
C1546 C1545 1.523 . S
C1547 C1531 1.429 . S
C1547 C1543 1.429 . S
C1547 C1548 1.523 . S
C1548 C1532 1.368 . S
C1548 C1544 1.368 . S
C1548 C1547 1.523 . S
H1549 C1524 0.950 . S
H1550 C1526 0.950 . S
H1551 C1527 0.949 . S
H1552 C1529 0.950 . S
H1553 C1531 0.950 . S
C1554 C1555 1.349 . S
C1554 C1556 1.327 . S
C1554 H1579 0.950 . S
C1555 C1554 1.349 . S
C1555 C1571 1.349 . S
C1556 C1554 1.327 . S
C1556 C1575 1.429 . S
C1556 H1580 0.950 . S
C1557 C1574 1.574 . S
C1557 C1576 1.368 . S
C1557 H1581 0.949 . S
H1558 C1562 0.949 . S
C1559 C1560 1.349 . S
C1559 C1561 1.327 . S
C1559 H1582 0.950 . S
C1560 C1559 1.349 . S
C1560 C1572 1.349 . S
C1561 C1559 1.327 . S
C1561 C1577 1.429 . S
C1561 H1583 0.950 . S
C1562 H1558 0.949 . S
C1562 C1570 1.574 . S
C1562 C1578 1.368 . S
H1563 C1571 0.950 . S
H1564 C1569 0.950 . S
H1565 C1570 0.949 . S
H1566 C1572 0.950 . S
H1567 C1573 0.950 . S
H1568 C1574 0.949 . S
C1569 H1564 0.950 . S
C1569 C1571 1.327 . S
C1569 C1575 1.429 . S
C1570 C1562 1.574 . S
C1570 H1565 0.949 . S
C1570 C1576 1.368 . S
C1571 C1555 1.349 . S
C1571 H1563 0.950 . S
C1571 C1569 1.327 . S
C1572 C1560 1.349 . S
C1572 H1566 0.950 . S
C1572 C1573 1.327 . S
C1573 H1567 0.950 . S
C1573 C1572 1.327 . S
C1573 C1577 1.429 . S
C1574 C1557 1.574 . S
C1574 H1568 0.949 . S
C1574 C1578 1.368 . S
C1575 C1556 1.429 . S
C1575 C1569 1.429 . S
C1575 C1576 1.523 . S
C1576 C1557 1.368 . S
C1576 C1570 1.368 . S
C1576 C1575 1.523 . S
C1577 C1561 1.429 . S
C1577 C1573 1.429 . S
C1577 C1578 1.523 . S
C1578 C1562 1.368 . S
C1578 C1574 1.368 . S
C1578 C1577 1.523 . S
H1579 C1554 0.950 . S
H1580 C1556 0.950 . S
H1581 C1557 0.949 . S
H1582 C1559 0.950 . S
H1583 C1561 0.950 . S
C1584 C1585 1.349 . S
C1584 C1586 1.327 . S
C1584 H1609 0.950 . S
C1585 C1584 1.349 . S
C1585 C1601 1.349 . S
C1586 C1584 1.327 . S
C1586 C1605 1.429 . S
C1586 H1610 0.950 . S
C1587 C1604 1.574 . S
C1587 C1606 1.368 . S
C1587 H1611 0.949 . S
H1588 C1592 0.949 . S
C1589 C1590 1.349 . S
C1589 C1591 1.327 . S
C1589 H1612 0.950 . S
C1590 C1589 1.349 . S
C1590 C1602 1.349 . S
C1591 C1589 1.327 . S
C1591 C1607 1.429 . S
C1591 H1613 0.950 . S
C1592 H1588 0.949 . S
C1592 C1600 1.574 . S
C1592 C1608 1.368 . S
H1593 C1601 0.950 . S
H1594 C1599 0.950 . S
H1595 C1600 0.949 . S
H1596 C1602 0.950 . S
H1597 C1603 0.950 . S
H1598 C1604 0.949 . S
C1599 H1594 0.950 . S
C1599 C1601 1.327 . S
C1599 C1605 1.429 . S
C1600 C1592 1.574 . S
C1600 H1595 0.949 . S
C1600 C1606 1.368 . S
C1601 C1585 1.349 . S
C1601 H1593 0.950 . S
C1601 C1599 1.327 . S
C1602 C1590 1.349 . S
C1602 H1596 0.950 . S
C1602 C1603 1.327 . S
C1603 H1597 0.950 . S
C1603 C1602 1.327 . S
C1603 C1607 1.429 . S
C1604 C1587 1.574 . S
C1604 H1598 0.949 . S
C1604 C1608 1.368 . S
C1605 C1586 1.429 . S
C1605 C1599 1.429 . S
C1605 C1606 1.523 . S
C1606 C1587 1.368 . S
C1606 C1600 1.368 . S
C1606 C1605 1.523 . S
C1607 C1591 1.429 . S
C1607 C1603 1.429 . S
C1607 C1608 1.523 . S
C1608 C1592 1.368 . S
C1608 C1604 1.368 . S
C1608 C1607 1.523 . S
H1609 C1584 0.950 . S
H1610 C1586 0.950 . S
H1611 C1587 0.949 . S
H1612 C1589 0.950 . S
H1613 C1591 0.950 . S
C1614 C1615 1.349 . S
C1614 C1616 1.327 . S
C1614 H1639 0.950 . S
C1615 C1614 1.349 . S
C1615 C1631 1.349 . S
C1616 C1614 1.327 . S
C1616 C1635 1.429 . S
C1616 H1640 0.950 . S
C1617 C1634 1.574 . S
C1617 C1636 1.368 . S
C1617 H1641 0.949 . S
H1618 C1622 0.949 . S
C1619 C1620 1.349 . S
C1619 C1621 1.327 . S
C1619 H1642 0.950 . S
C1620 C1619 1.349 . S
C1620 C1632 1.349 . S
C1621 C1619 1.327 . S
C1621 C1637 1.429 . S
C1621 H1643 0.950 . S
C1622 H1618 0.949 . S
C1622 C1630 1.574 . S
C1622 C1638 1.368 . S
H1623 C1631 0.950 . S
H1624 C1629 0.950 . S
H1625 C1630 0.949 . S
H1626 C1632 0.950 . S
H1627 C1633 0.950 . S
H1628 C1634 0.949 . S
C1629 H1624 0.950 . S
C1629 C1631 1.327 . S
C1629 C1635 1.429 . S
C1630 C1622 1.574 . S
C1630 H1625 0.949 . S
C1630 C1636 1.368 . S
C1631 C1615 1.349 . S
C1631 H1623 0.950 . S
C1631 C1629 1.327 . S
C1632 C1620 1.349 . S
C1632 H1626 0.950 . S
C1632 C1633 1.327 . S
C1633 H1627 0.950 . S
C1633 C1632 1.327 . S
C1633 C1637 1.429 . S
C1634 C1617 1.574 . S
C1634 H1628 0.949 . S
C1634 C1638 1.368 . S
C1635 C1616 1.429 . S
C1635 C1629 1.429 . S
C1635 C1636 1.523 . S
C1636 C1617 1.368 . S
C1636 C1630 1.368 . S
C1636 C1635 1.523 . S
C1637 C1621 1.429 . S
C1637 C1633 1.429 . S
C1637 C1638 1.523 . S
C1638 C1622 1.368 . S
C1638 C1634 1.368 . S
C1638 C1637 1.523 . S
H1639 C1614 0.950 . S
H1640 C1616 0.950 . S
H1641 C1617 0.949 . S
H1642 C1619 0.950 . S
H1643 C1621 0.950 . S
C1644 C1645 1.349 . S
C1644 C1646 1.327 . S
C1644 H1669 0.950 . S
C1645 C1644 1.349 . S
C1645 C1661 1.349 . S
C1646 C1644 1.327 . S
C1646 C1665 1.429 . S
C1646 H1670 0.950 . S
C1647 C1664 1.574 . S
C1647 C1666 1.368 . S
C1647 H1671 0.949 . S
H1648 C1652 0.949 . S
C1649 C1650 1.349 . S
C1649 C1651 1.327 . S
C1649 H1672 0.950 . S
C1650 C1649 1.349 . S
C1650 C1662 1.349 . S
C1651 C1649 1.327 . S
C1651 C1667 1.429 . S
C1651 H1673 0.950 . S
C1652 H1648 0.949 . S
C1652 C1660 1.574 . S
C1652 C1668 1.368 . S
H1653 C1661 0.950 . S
H1654 C1659 0.950 . S
H1655 C1660 0.949 . S
H1656 C1662 0.950 . S
H1657 C1663 0.950 . S
H1658 C1664 0.949 . S
C1659 H1654 0.950 . S
C1659 C1661 1.327 . S
C1659 C1665 1.429 . S
C1660 C1652 1.574 . S
C1660 H1655 0.949 . S
C1660 C1666 1.368 . S
C1661 C1645 1.349 . S
C1661 H1653 0.950 . S
C1661 C1659 1.327 . S
C1662 C1650 1.349 . S
C1662 H1656 0.950 . S
C1662 C1663 1.327 . S
C1663 H1657 0.950 . S
C1663 C1662 1.327 . S
C1663 C1667 1.429 . S
C1664 C1647 1.574 . S
C1664 H1658 0.949 . S
C1664 C1668 1.368 . S
C1665 C1646 1.429 . S
C1665 C1659 1.429 . S
C1665 C1666 1.523 . S
C1666 C1647 1.368 . S
C1666 C1660 1.368 . S
C1666 C1665 1.523 . S
C1667 C1651 1.429 . S
C1667 C1663 1.429 . S
C1667 C1668 1.523 . S
C1668 C1652 1.368 . S
C1668 C1664 1.368 . S
C1668 C1667 1.523 . S
H1669 C1644 0.950 . S
H1670 C1646 0.950 . S
H1671 C1647 0.949 . S
H1672 C1649 0.950 . S
H1673 C1651 0.950 . S
C1674 C1675 1.349 . S
C1674 C1676 1.327 . S
C1674 H1699 0.950 . S
C1675 C1674 1.349 . S
C1675 C1691 1.349 . S
C1676 C1674 1.327 . S
C1676 C1695 1.429 . S
C1676 H1700 0.950 . S
C1677 C1694 1.574 . S
C1677 C1696 1.368 . S
C1677 H1701 0.949 . S
H1678 C1682 0.949 . S
C1679 C1680 1.349 . S
C1679 C1681 1.327 . S
C1679 H1702 0.950 . S
C1680 C1679 1.349 . S
C1680 C1692 1.349 . S
C1681 C1679 1.327 . S
C1681 C1697 1.429 . S
C1681 H1703 0.950 . S
C1682 H1678 0.949 . S
C1682 C1690 1.574 . S
C1682 C1698 1.368 . S
H1683 C1691 0.950 . S
H1684 C1689 0.950 . S
H1685 C1690 0.949 . S
H1686 C1692 0.950 . S
H1687 C1693 0.950 . S
H1688 C1694 0.949 . S
C1689 H1684 0.950 . S
C1689 C1691 1.327 . S
C1689 C1695 1.429 . S
C1690 C1682 1.574 . S
C1690 H1685 0.949 . S
C1690 C1696 1.368 . S
C1691 C1675 1.349 . S
C1691 H1683 0.950 . S
C1691 C1689 1.327 . S
C1692 C1680 1.349 . S
C1692 H1686 0.950 . S
C1692 C1693 1.327 . S
C1693 H1687 0.950 . S
C1693 C1692 1.327 . S
C1693 C1697 1.429 . S
C1694 C1677 1.574 . S
C1694 H1688 0.949 . S
C1694 C1698 1.368 . S
C1695 C1676 1.429 . S
C1695 C1689 1.429 . S
C1695 C1696 1.523 . S
C1696 C1677 1.368 . S
C1696 C1690 1.368 . S
C1696 C1695 1.523 . S
C1697 C1681 1.429 . S
C1697 C1693 1.429 . S
C1697 C1698 1.523 . S
C1698 C1682 1.368 . S
C1698 C1694 1.368 . S
C1698 C1697 1.523 . S
H1699 C1674 0.950 . S
H1700 C1676 0.950 . S
H1701 C1677 0.949 . S
H1702 C1679 0.950 . S
H1703 C1681 0.950 . S
C1704 C1705 1.349 . S
C1704 C1706 1.327 . S
C1704 H1729 0.950 . S
C1705 C1704 1.349 . S
C1705 C1721 1.349 . S
C1706 C1704 1.327 . S
C1706 C1725 1.429 . S
C1706 H1730 0.950 . S
C1707 C1724 1.574 . S
C1707 C1726 1.368 . S
C1707 H1731 0.949 . S
H1708 C1712 0.949 . S
C1709 C1710 1.349 . S
C1709 C1711 1.327 . S
C1709 H1732 0.950 . S
C1710 C1709 1.349 . S
C1710 C1722 1.349 . S
C1711 C1709 1.327 . S
C1711 C1727 1.429 . S
C1711 H1733 0.950 . S
C1712 H1708 0.949 . S
C1712 C1720 1.574 . S
C1712 C1728 1.368 . S
H1713 C1721 0.950 . S
H1714 C1719 0.950 . S
H1715 C1720 0.949 . S
H1716 C1722 0.950 . S
H1717 C1723 0.950 . S
H1718 C1724 0.949 . S
C1719 H1714 0.950 . S
C1719 C1721 1.327 . S
C1719 C1725 1.429 . S
C1720 C1712 1.574 . S
C1720 H1715 0.949 . S
C1720 C1726 1.368 . S
C1721 C1705 1.349 . S
C1721 H1713 0.950 . S
C1721 C1719 1.327 . S
C1722 C1710 1.349 . S
C1722 H1716 0.950 . S
C1722 C1723 1.327 . S
C1723 H1717 0.950 . S
C1723 C1722 1.327 . S
C1723 C1727 1.429 . S
C1724 C1707 1.574 . S
C1724 H1718 0.949 . S
C1724 C1728 1.368 . S
C1725 C1706 1.429 . S
C1725 C1719 1.429 . S
C1725 C1726 1.523 . S
C1726 C1707 1.368 . S
C1726 C1720 1.368 . S
C1726 C1725 1.523 . S
C1727 C1711 1.429 . S
C1727 C1723 1.429 . S
C1727 C1728 1.523 . S
C1728 C1712 1.368 . S
C1728 C1724 1.368 . S
C1728 C1727 1.523 . S
H1729 C1704 0.950 . S
H1730 C1706 0.950 . S
H1731 C1707 0.949 . S
H1732 C1709 0.950 . S
H1733 C1711 0.950 . S
C1734 C1735 1.349 . S
C1734 C1736 1.327 . S
C1734 H1759 0.950 . S
C1735 C1734 1.349 . S
C1735 C1751 1.349 . S
C1736 C1734 1.327 . S
C1736 C1755 1.429 . S
C1736 H1760 0.950 . S
C1737 C1754 1.574 . S
C1737 C1756 1.368 . S
C1737 H1761 0.949 . S
H1738 C1742 0.949 . S
C1739 C1740 1.349 . S
C1739 C1741 1.327 . S
C1739 H1762 0.950 . S
C1740 C1739 1.349 . S
C1740 C1752 1.349 . S
C1741 C1739 1.327 . S
C1741 C1757 1.429 . S
C1741 H1763 0.950 . S
C1742 H1738 0.949 . S
C1742 C1750 1.574 . S
C1742 C1758 1.368 . S
H1743 C1751 0.950 . S
H1744 C1749 0.950 . S
H1745 C1750 0.949 . S
H1746 C1752 0.950 . S
H1747 C1753 0.950 . S
H1748 C1754 0.949 . S
C1749 H1744 0.950 . S
C1749 C1751 1.327 . S
C1749 C1755 1.429 . S
C1750 C1742 1.574 . S
C1750 H1745 0.949 . S
C1750 C1756 1.368 . S
C1751 C1735 1.349 . S
C1751 H1743 0.950 . S
C1751 C1749 1.327 . S
C1752 C1740 1.349 . S
C1752 H1746 0.950 . S
C1752 C1753 1.327 . S
C1753 H1747 0.950 . S
C1753 C1752 1.327 . S
C1753 C1757 1.429 . S
C1754 C1737 1.574 . S
C1754 H1748 0.949 . S
C1754 C1758 1.368 . S
C1755 C1736 1.429 . S
C1755 C1749 1.429 . S
C1755 C1756 1.523 . S
C1756 C1737 1.368 . S
C1756 C1750 1.368 . S
C1756 C1755 1.523 . S
C1757 C1741 1.429 . S
C1757 C1753 1.429 . S
C1757 C1758 1.523 . S
C1758 C1742 1.368 . S
C1758 C1754 1.368 . S
C1758 C1757 1.523 . S
H1759 C1734 0.950 . S
H1760 C1736 0.950 . S
H1761 C1737 0.949 . S
H1762 C1739 0.950 . S
H1763 C1741 0.950 . S
C1764 C1765 1.349 . S
C1764 C1766 1.327 . S
C1764 H1789 0.950 . S
C1765 C1764 1.349 . S
C1765 C1781 1.349 . S
C1766 C1764 1.327 . S
C1766 C1785 1.429 . S
C1766 H1790 0.950 . S
C1767 C1784 1.574 . S
C1767 C1786 1.368 . S
C1767 H1791 0.949 . S
H1768 C1772 0.949 . S
C1769 C1770 1.349 . S
C1769 C1771 1.327 . S
C1769 H1792 0.950 . S
C1770 C1769 1.349 . S
C1770 C1782 1.349 . S
C1771 C1769 1.327 . S
C1771 C1787 1.429 . S
C1771 H1793 0.950 . S
C1772 H1768 0.949 . S
C1772 C1780 1.574 . S
C1772 C1788 1.368 . S
H1773 C1781 0.950 . S
H1774 C1779 0.950 . S
H1775 C1780 0.949 . S
H1776 C1782 0.950 . S
H1777 C1783 0.950 . S
H1778 C1784 0.949 . S
C1779 H1774 0.950 . S
C1779 C1781 1.327 . S
C1779 C1785 1.429 . S
C1780 C1772 1.574 . S
C1780 H1775 0.949 . S
C1780 C1786 1.368 . S
C1781 C1765 1.349 . S
C1781 H1773 0.950 . S
C1781 C1779 1.327 . S
C1782 C1770 1.349 . S
C1782 H1776 0.950 . S
C1782 C1783 1.327 . S
C1783 H1777 0.950 . S
C1783 C1782 1.327 . S
C1783 C1787 1.429 . S
C1784 C1767 1.574 . S
C1784 H1778 0.949 . S
C1784 C1788 1.368 . S
C1785 C1766 1.429 . S
C1785 C1779 1.429 . S
C1785 C1786 1.523 . S
C1786 C1767 1.368 . S
C1786 C1780 1.368 . S
C1786 C1785 1.523 . S
C1787 C1771 1.429 . S
C1787 C1783 1.429 . S
C1787 C1788 1.523 . S
C1788 C1772 1.368 . S
C1788 C1784 1.368 . S
C1788 C1787 1.523 . S
H1789 C1764 0.950 . S
H1790 C1766 0.950 . S
H1791 C1767 0.949 . S
H1792 C1769 0.950 . S
H1793 C1771 0.950 . S
C1794 C1795 1.349 . S
C1794 C1796 1.327 . S
C1794 H1819 0.950 . S
C1795 C1794 1.349 . S
C1795 C1811 1.349 . S
C1796 C1794 1.327 . S
C1796 C1815 1.429 . S
C1796 H1820 0.950 . S
C1797 C1814 1.574 . S
C1797 C1816 1.368 . S
C1797 H1821 0.949 . S
H1798 C1802 0.949 . S
C1799 C1800 1.349 . S
C1799 C1801 1.327 . S
C1799 H1822 0.950 . S
C1800 C1799 1.349 . S
C1800 C1812 1.349 . S
C1801 C1799 1.327 . S
C1801 C1817 1.429 . S
C1801 H1823 0.950 . S
C1802 H1798 0.949 . S
C1802 C1810 1.574 . S
C1802 C1818 1.368 . S
H1803 C1811 0.950 . S
H1804 C1809 0.950 . S
H1805 C1810 0.949 . S
H1806 C1812 0.950 . S
H1807 C1813 0.950 . S
H1808 C1814 0.949 . S
C1809 H1804 0.950 . S
C1809 C1811 1.327 . S
C1809 C1815 1.429 . S
C1810 C1802 1.574 . S
C1810 H1805 0.949 . S
C1810 C1816 1.368 . S
C1811 C1795 1.349 . S
C1811 H1803 0.950 . S
C1811 C1809 1.327 . S
C1812 C1800 1.349 . S
C1812 H1806 0.950 . S
C1812 C1813 1.327 . S
C1813 H1807 0.950 . S
C1813 C1812 1.327 . S
C1813 C1817 1.429 . S
C1814 C1797 1.574 . S
C1814 H1808 0.949 . S
C1814 C1818 1.368 . S
C1815 C1796 1.429 . S
C1815 C1809 1.429 . S
C1815 C1816 1.523 . S
C1816 C1797 1.368 . S
C1816 C1810 1.368 . S
C1816 C1815 1.523 . S
C1817 C1801 1.429 . S
C1817 C1813 1.429 . S
C1817 C1818 1.523 . S
C1818 C1802 1.368 . S
C1818 C1814 1.368 . S
C1818 C1817 1.523 . S
H1819 C1794 0.950 . S
H1820 C1796 0.950 . S
H1821 C1797 0.949 . S
H1822 C1799 0.950 . S
H1823 C1801 0.950 . S
C1824 C1825 1.349 . S
C1824 C1826 1.327 . S
C1824 H1849 0.950 . S
C1825 C1824 1.349 . S
C1825 C1841 1.349 . S
C1826 C1824 1.327 . S
C1826 C1845 1.429 . S
C1826 H1850 0.950 . S
C1827 C1844 1.574 . S
C1827 C1846 1.368 . S
C1827 H1851 0.949 . S
H1828 C1832 0.949 . S
C1829 C1830 1.349 . S
C1829 C1831 1.327 . S
C1829 H1852 0.950 . S
C1830 C1829 1.349 . S
C1830 C1842 1.349 . S
C1831 C1829 1.327 . S
C1831 C1847 1.429 . S
C1831 H1853 0.950 . S
C1832 H1828 0.949 . S
C1832 C1840 1.574 . S
C1832 C1848 1.368 . S
H1833 C1841 0.950 . S
H1834 C1839 0.950 . S
H1835 C1840 0.949 . S
H1836 C1842 0.950 . S
H1837 C1843 0.950 . S
H1838 C1844 0.949 . S
C1839 H1834 0.950 . S
C1839 C1841 1.327 . S
C1839 C1845 1.429 . S
C1840 C1832 1.574 . S
C1840 H1835 0.949 . S
C1840 C1846 1.368 . S
C1841 C1825 1.349 . S
C1841 H1833 0.950 . S
C1841 C1839 1.327 . S
C1842 C1830 1.349 . S
C1842 H1836 0.950 . S
C1842 C1843 1.327 . S
C1843 H1837 0.950 . S
C1843 C1842 1.327 . S
C1843 C1847 1.429 . S
C1844 C1827 1.574 . S
C1844 H1838 0.949 . S
C1844 C1848 1.368 . S
C1845 C1826 1.429 . S
C1845 C1839 1.429 . S
C1845 C1846 1.523 . S
C1846 C1827 1.368 . S
C1846 C1840 1.368 . S
C1846 C1845 1.523 . S
C1847 C1831 1.429 . S
C1847 C1843 1.429 . S
C1847 C1848 1.523 . S
C1848 C1832 1.368 . S
C1848 C1844 1.368 . S
C1848 C1847 1.523 . S
H1849 C1824 0.950 . S
H1850 C1826 0.950 . S
H1851 C1827 0.949 . S
H1852 C1829 0.950 . S
H1853 C1831 0.950 . S
C1854 C1855 1.349 . S
C1854 C1856 1.327 . S
C1854 H1879 0.950 . S
C1855 C1854 1.349 . S
C1855 C1871 1.349 . S
C1856 C1854 1.327 . S
C1856 C1875 1.429 . S
C1856 H1880 0.950 . S
C1857 C1874 1.574 . S
C1857 C1876 1.368 . S
C1857 H1881 0.949 . S
H1858 C1862 0.949 . S
C1859 C1860 1.349 . S
C1859 C1861 1.327 . S
C1859 H1882 0.950 . S
C1860 C1859 1.349 . S
C1860 C1872 1.349 . S
C1861 C1859 1.327 . S
C1861 C1877 1.429 . S
C1861 H1883 0.950 . S
C1862 H1858 0.949 . S
C1862 C1870 1.574 . S
C1862 C1878 1.368 . S
H1863 C1871 0.950 . S
H1864 C1869 0.950 . S
H1865 C1870 0.949 . S
H1866 C1872 0.950 . S
H1867 C1873 0.950 . S
H1868 C1874 0.949 . S
C1869 H1864 0.950 . S
C1869 C1871 1.327 . S
C1869 C1875 1.429 . S
C1870 C1862 1.574 . S
C1870 H1865 0.949 . S
C1870 C1876 1.368 . S
C1871 C1855 1.349 . S
C1871 H1863 0.950 . S
C1871 C1869 1.327 . S
C1872 C1860 1.349 . S
C1872 H1866 0.950 . S
C1872 C1873 1.327 . S
C1873 H1867 0.950 . S
C1873 C1872 1.327 . S
C1873 C1877 1.429 . S
C1874 C1857 1.574 . S
C1874 H1868 0.949 . S
C1874 C1878 1.368 . S
C1875 C1856 1.429 . S
C1875 C1869 1.429 . S
C1875 C1876 1.523 . S
C1876 C1857 1.368 . S
C1876 C1870 1.368 . S
C1876 C1875 1.523 . S
C1877 C1861 1.429 . S
C1877 C1873 1.429 . S
C1877 C1878 1.523 . S
C1878 C1862 1.368 . S
C1878 C1874 1.368 . S
C1878 C1877 1.523 . S
H1879 C1854 0.950 . S
H1880 C1856 0.950 . S
H1881 C1857 0.949 . S
H1882 C1859 0.950 . S
H1883 C1861 0.950 . S
C1884 C1885 1.349 . S
C1884 C1886 1.327 . S
C1884 H1909 0.950 . S
C1885 C1884 1.349 . S
C1885 C1901 1.349 . S
C1886 C1884 1.327 . S
C1886 C1905 1.429 . S
C1886 H1910 0.950 . S
C1887 C1904 1.574 . S
C1887 C1906 1.368 . S
C1887 H1911 0.949 . S
H1888 C1892 0.949 . S
C1889 C1890 1.349 . S
C1889 C1891 1.327 . S
C1889 H1912 0.950 . S
C1890 C1889 1.349 . S
C1890 C1902 1.349 . S
C1891 C1889 1.327 . S
C1891 C1907 1.429 . S
C1891 H1913 0.950 . S
C1892 H1888 0.949 . S
C1892 C1900 1.574 . S
C1892 C1908 1.368 . S
H1893 C1901 0.950 . S
H1894 C1899 0.950 . S
H1895 C1900 0.949 . S
H1896 C1902 0.950 . S
H1897 C1903 0.950 . S
H1898 C1904 0.949 . S
C1899 H1894 0.950 . S
C1899 C1901 1.327 . S
C1899 C1905 1.429 . S
C1900 C1892 1.574 . S
C1900 H1895 0.949 . S
C1900 C1906 1.368 . S
C1901 C1885 1.349 . S
C1901 H1893 0.950 . S
C1901 C1899 1.327 . S
C1902 C1890 1.349 . S
C1902 H1896 0.950 . S
C1902 C1903 1.327 . S
C1903 H1897 0.950 . S
C1903 C1902 1.327 . S
C1903 C1907 1.429 . S
C1904 C1887 1.574 . S
C1904 H1898 0.949 . S
C1904 C1908 1.368 . S
C1905 C1886 1.429 . S
C1905 C1899 1.429 . S
C1905 C1906 1.523 . S
C1906 C1887 1.368 . S
C1906 C1900 1.368 . S
C1906 C1905 1.523 . S
C1907 C1891 1.429 . S
C1907 C1903 1.429 . S
C1907 C1908 1.523 . S
C1908 C1892 1.368 . S
C1908 C1904 1.368 . S
C1908 C1907 1.523 . S
H1909 C1884 0.950 . S
H1910 C1886 0.950 . S
H1911 C1887 0.949 . S
H1912 C1889 0.950 . S
H1913 C1891 0.950 . S
C1914 C1915 1.349 . S
C1914 C1916 1.327 . S
C1914 H1939 0.950 . S
C1915 C1914 1.349 . S
C1915 C1931 1.349 . S
C1916 C1914 1.327 . S
C1916 C1935 1.429 . S
C1916 H1940 0.950 . S
C1917 C1934 1.574 . S
C1917 C1936 1.368 . S
C1917 H1941 0.949 . S
H1918 C1922 0.949 . S
C1919 C1920 1.349 . S
C1919 C1921 1.327 . S
C1919 H1942 0.950 . S
C1920 C1919 1.349 . S
C1920 C1932 1.349 . S
C1921 C1919 1.327 . S
C1921 C1937 1.429 . S
C1921 H1943 0.950 . S
C1922 H1918 0.949 . S
C1922 C1930 1.574 . S
C1922 C1938 1.368 . S
H1923 C1931 0.950 . S
H1924 C1929 0.950 . S
H1925 C1930 0.949 . S
H1926 C1932 0.950 . S
H1927 C1933 0.950 . S
H1928 C1934 0.949 . S
C1929 H1924 0.950 . S
C1929 C1931 1.327 . S
C1929 C1935 1.429 . S
C1930 C1922 1.574 . S
C1930 H1925 0.949 . S
C1930 C1936 1.368 . S
C1931 C1915 1.349 . S
C1931 H1923 0.950 . S
C1931 C1929 1.327 . S
C1932 C1920 1.349 . S
C1932 H1926 0.950 . S
C1932 C1933 1.327 . S
C1933 H1927 0.950 . S
C1933 C1932 1.327 . S
C1933 C1937 1.429 . S
C1934 C1917 1.574 . S
C1934 H1928 0.949 . S
C1934 C1938 1.368 . S
C1935 C1916 1.429 . S
C1935 C1929 1.429 . S
C1935 C1936 1.523 . S
C1936 C1917 1.368 . S
C1936 C1930 1.368 . S
C1936 C1935 1.523 . S
C1937 C1921 1.429 . S
C1937 C1933 1.429 . S
C1937 C1938 1.523 . S
C1938 C1922 1.368 . S
C1938 C1934 1.368 . S
C1938 C1937 1.523 . S
H1939 C1914 0.950 . S
H1940 C1916 0.950 . S
H1941 C1917 0.949 . S
H1942 C1919 0.950 . S
H1943 C1921 0.950 . S
C1944 C1945 1.349 . S
C1944 C1946 1.327 . S
C1944 H1969 0.950 . S
C1945 C1944 1.349 . S
C1945 C1961 1.349 . S
C1946 C1944 1.327 . S
C1946 C1965 1.429 . S
C1946 H1970 0.950 . S
C1947 C1964 1.574 . S
C1947 C1966 1.368 . S
C1947 H1971 0.949 . S
H1948 C1952 0.949 . S
C1949 C1950 1.349 . S
C1949 C1951 1.327 . S
C1949 H1972 0.950 . S
C1950 C1949 1.349 . S
C1950 C1962 1.349 . S
C1951 C1949 1.327 . S
C1951 C1967 1.429 . S
C1951 H1973 0.950 . S
C1952 H1948 0.949 . S
C1952 C1960 1.574 . S
C1952 C1968 1.368 . S
H1953 C1961 0.950 . S
H1954 C1959 0.950 . S
H1955 C1960 0.949 . S
H1956 C1962 0.950 . S
H1957 C1963 0.950 . S
H1958 C1964 0.949 . S
C1959 H1954 0.950 . S
C1959 C1961 1.327 . S
C1959 C1965 1.429 . S
C1960 C1952 1.574 . S
C1960 H1955 0.949 . S
C1960 C1966 1.368 . S
C1961 C1945 1.349 . S
C1961 H1953 0.950 . S
C1961 C1959 1.327 . S
C1962 C1950 1.349 . S
C1962 H1956 0.950 . S
C1962 C1963 1.327 . S
C1963 H1957 0.950 . S
C1963 C1962 1.327 . S
C1963 C1967 1.429 . S
C1964 C1947 1.574 . S
C1964 H1958 0.949 . S
C1964 C1968 1.368 . S
C1965 C1946 1.429 . S
C1965 C1959 1.429 . S
C1965 C1966 1.523 . S
C1966 C1947 1.368 . S
C1966 C1960 1.368 . S
C1966 C1965 1.523 . S
C1967 C1951 1.429 . S
C1967 C1963 1.429 . S
C1967 C1968 1.523 . S
C1968 C1952 1.368 . S
C1968 C1964 1.368 . S
C1968 C1967 1.523 . S
H1969 C1944 0.950 . S
H1970 C1946 0.950 . S
H1971 C1947 0.949 . S
H1972 C1949 0.950 . S
H1973 C1951 0.950 . S
C1974 C1975 1.349 . S
C1974 C1976 1.327 . S
C1974 H1999 0.950 . S
C1975 C1974 1.349 . S
C1975 C1991 1.349 . S
C1976 C1974 1.327 . S
C1976 C1995 1.429 . S
C1976 H2000 0.950 . S
C1977 C1994 1.574 . S
C1977 C1996 1.368 . S
C1977 H2001 0.949 . S
H1978 C1982 0.949 . S
C1979 C1980 1.349 . S
C1979 C1981 1.327 . S
C1979 H2002 0.950 . S
C1980 C1979 1.349 . S
C1980 C1992 1.349 . S
C1981 C1979 1.327 . S
C1981 C1997 1.429 . S
C1981 H2003 0.950 . S
C1982 H1978 0.949 . S
C1982 C1990 1.574 . S
C1982 C1998 1.368 . S
H1983 C1991 0.950 . S
H1984 C1989 0.950 . S
H1985 C1990 0.949 . S
H1986 C1992 0.950 . S
H1987 C1993 0.950 . S
H1988 C1994 0.949 . S
C1989 H1984 0.950 . S
C1989 C1991 1.327 . S
C1989 C1995 1.429 . S
C1990 C1982 1.574 . S
C1990 H1985 0.949 . S
C1990 C1996 1.368 . S
C1991 C1975 1.349 . S
C1991 H1983 0.950 . S
C1991 C1989 1.327 . S
C1992 C1980 1.349 . S
C1992 H1986 0.950 . S
C1992 C1993 1.327 . S
C1993 H1987 0.950 . S
C1993 C1992 1.327 . S
C1993 C1997 1.429 . S
C1994 C1977 1.574 . S
C1994 H1988 0.949 . S
C1994 C1998 1.368 . S
C1995 C1976 1.429 . S
C1995 C1989 1.429 . S
C1995 C1996 1.523 . S
C1996 C1977 1.368 . S
C1996 C1990 1.368 . S
C1996 C1995 1.523 . S
C1997 C1981 1.429 . S
C1997 C1993 1.429 . S
C1997 C1998 1.523 . S
C1998 C1982 1.368 . S
C1998 C1994 1.368 . S
C1998 C1997 1.523 . S
H1999 C1974 0.950 . S
H2000 C1976 0.950 . S
H2001 C1977 0.949 . S
H2002 C1979 0.950 . S
H2003 C1981 0.950 . S
C2004 C2005 1.349 . S
C2004 C2006 1.327 . S
C2004 H2029 0.950 . S
C2005 C2004 1.349 . S
C2005 C2021 1.349 . S
C2006 C2004 1.327 . S
C2006 C2025 1.429 . S
C2006 H2030 0.950 . S
C2007 C2024 1.574 . S
C2007 C2026 1.368 . S
C2007 H2031 0.949 . S
H2008 C2012 0.949 . S
C2009 C2010 1.349 . S
C2009 C2011 1.327 . S
C2009 H2032 0.950 . S
C2010 C2009 1.349 . S
C2010 C2022 1.349 . S
C2011 C2009 1.327 . S
C2011 C2027 1.429 . S
C2011 H2033 0.950 . S
C2012 H2008 0.949 . S
C2012 C2020 1.574 . S
C2012 C2028 1.368 . S
H2013 C2021 0.950 . S
H2014 C2019 0.950 . S
H2015 C2020 0.949 . S
H2016 C2022 0.950 . S
H2017 C2023 0.950 . S
H2018 C2024 0.949 . S
C2019 H2014 0.950 . S
C2019 C2021 1.327 . S
C2019 C2025 1.429 . S
C2020 C2012 1.574 . S
C2020 H2015 0.949 . S
C2020 C2026 1.368 . S
C2021 C2005 1.349 . S
C2021 H2013 0.950 . S
C2021 C2019 1.327 . S
C2022 C2010 1.349 . S
C2022 H2016 0.950 . S
C2022 C2023 1.327 . S
C2023 H2017 0.950 . S
C2023 C2022 1.327 . S
C2023 C2027 1.429 . S
C2024 C2007 1.574 . S
C2024 H2018 0.949 . S
C2024 C2028 1.368 . S
C2025 C2006 1.429 . S
C2025 C2019 1.429 . S
C2025 C2026 1.523 . S
C2026 C2007 1.368 . S
C2026 C2020 1.368 . S
C2026 C2025 1.523 . S
C2027 C2011 1.429 . S
C2027 C2023 1.429 . S
C2027 C2028 1.523 . S
C2028 C2012 1.368 . S
C2028 C2024 1.368 . S
C2028 C2027 1.523 . S
H2029 C2004 0.950 . S
H2030 C2006 0.950 . S
H2031 C2007 0.949 . S
H2032 C2009 0.950 . S
H2033 C2011 0.950 . S
C2034 C2035 1.349 . S
C2034 C2036 1.327 . S
C2034 H2059 0.950 . S
C2035 C2034 1.349 . S
C2035 C2051 1.349 . S
C2036 C2034 1.327 . S
C2036 C2055 1.429 . S
C2036 H2060 0.950 . S
C2037 C2054 1.574 . S
C2037 C2056 1.368 . S
C2037 H2061 0.949 . S
H2038 C2042 0.949 . S
C2039 C2040 1.349 . S
C2039 C2041 1.327 . S
C2039 H2062 0.950 . S
C2040 C2039 1.349 . S
C2040 C2052 1.349 . S
C2041 C2039 1.327 . S
C2041 C2057 1.429 . S
C2041 H2063 0.950 . S
C2042 H2038 0.949 . S
C2042 C2050 1.574 . S
C2042 C2058 1.368 . S
H2043 C2051 0.950 . S
H2044 C2049 0.950 . S
H2045 C2050 0.949 . S
H2046 C2052 0.950 . S
H2047 C2053 0.950 . S
H2048 C2054 0.949 . S
C2049 H2044 0.950 . S
C2049 C2051 1.327 . S
C2049 C2055 1.429 . S
C2050 C2042 1.574 . S
C2050 H2045 0.949 . S
C2050 C2056 1.368 . S
C2051 C2035 1.349 . S
C2051 H2043 0.950 . S
C2051 C2049 1.327 . S
C2052 C2040 1.349 . S
C2052 H2046 0.950 . S
C2052 C2053 1.327 . S
C2053 H2047 0.950 . S
C2053 C2052 1.327 . S
C2053 C2057 1.429 . S
C2054 C2037 1.574 . S
C2054 H2048 0.949 . S
C2054 C2058 1.368 . S
C2055 C2036 1.429 . S
C2055 C2049 1.429 . S
C2055 C2056 1.523 . S
C2056 C2037 1.368 . S
C2056 C2050 1.368 . S
C2056 C2055 1.523 . S
C2057 C2041 1.429 . S
C2057 C2053 1.429 . S
C2057 C2058 1.523 . S
C2058 C2042 1.368 . S
C2058 C2054 1.368 . S
C2058 C2057 1.523 . S
H2059 C2034 0.950 . S
H2060 C2036 0.950 . S
H2061 C2037 0.949 . S
H2062 C2039 0.950 . S
H2063 C2041 0.950 . S
C2064 C2065 1.349 . S
C2064 C2066 1.327 . S
C2064 H2089 0.950 . S
C2065 C2064 1.349 . S
C2065 C2081 1.349 . S
C2066 C2064 1.327 . S
C2066 C2085 1.429 . S
C2066 H2090 0.950 . S
C2067 C2084 1.574 . S
C2067 C2086 1.368 . S
C2067 H2091 0.949 . S
H2068 C2072 0.949 . S
C2069 C2070 1.349 . S
C2069 C2071 1.327 . S
C2069 H2092 0.950 . S
C2070 C2069 1.349 . S
C2070 C2082 1.349 . S
C2071 C2069 1.327 . S
C2071 C2087 1.429 . S
C2071 H2093 0.950 . S
C2072 H2068 0.949 . S
C2072 C2080 1.574 . S
C2072 C2088 1.368 . S
H2073 C2081 0.950 . S
H2074 C2079 0.950 . S
H2075 C2080 0.949 . S
H2076 C2082 0.950 . S
H2077 C2083 0.950 . S
H2078 C2084 0.949 . S
C2079 H2074 0.950 . S
C2079 C2081 1.327 . S
C2079 C2085 1.429 . S
C2080 C2072 1.574 . S
C2080 H2075 0.949 . S
C2080 C2086 1.368 . S
C2081 C2065 1.349 . S
C2081 H2073 0.950 . S
C2081 C2079 1.327 . S
C2082 C2070 1.349 . S
C2082 H2076 0.950 . S
C2082 C2083 1.327 . S
C2083 H2077 0.950 . S
C2083 C2082 1.327 . S
C2083 C2087 1.429 . S
C2084 C2067 1.574 . S
C2084 H2078 0.949 . S
C2084 C2088 1.368 . S
C2085 C2066 1.429 . S
C2085 C2079 1.429 . S
C2085 C2086 1.523 . S
C2086 C2067 1.368 . S
C2086 C2080 1.368 . S
C2086 C2085 1.523 . S
C2087 C2071 1.429 . S
C2087 C2083 1.429 . S
C2087 C2088 1.523 . S
C2088 C2072 1.368 . S
C2088 C2084 1.368 . S
C2088 C2087 1.523 . S
H2089 C2064 0.950 . S
H2090 C2066 0.950 . S
H2091 C2067 0.949 . S
H2092 C2069 0.950 . S
H2093 C2071 0.950 . S
C2094 C2095 1.349 . S
C2094 C2096 1.327 . S
C2094 H2119 0.950 . S
C2095 C2094 1.349 . S
C2095 C2111 1.349 . S
C2096 C2094 1.327 . S
C2096 C2115 1.429 . S
C2096 H2120 0.950 . S
C2097 C2114 1.574 . S
C2097 C2116 1.368 . S
C2097 H2121 0.949 . S
H2098 C2102 0.949 . S
C2099 C2100 1.349 . S
C2099 C2101 1.327 . S
C2099 H2122 0.950 . S
C2100 C2099 1.349 . S
C2100 C2112 1.349 . S
C2101 C2099 1.327 . S
C2101 C2117 1.429 . S
C2101 H2123 0.950 . S
C2102 H2098 0.949 . S
C2102 C2110 1.574 . S
C2102 C2118 1.368 . S
H2103 C2111 0.950 . S
H2104 C2109 0.950 . S
H2105 C2110 0.949 . S
H2106 C2112 0.950 . S
H2107 C2113 0.950 . S
H2108 C2114 0.949 . S
C2109 H2104 0.950 . S
C2109 C2111 1.327 . S
C2109 C2115 1.429 . S
C2110 C2102 1.574 . S
C2110 H2105 0.949 . S
C2110 C2116 1.368 . S
C2111 C2095 1.349 . S
C2111 H2103 0.950 . S
C2111 C2109 1.327 . S
C2112 C2100 1.349 . S
C2112 H2106 0.950 . S
C2112 C2113 1.327 . S
C2113 H2107 0.950 . S
C2113 C2112 1.327 . S
C2113 C2117 1.429 . S
C2114 C2097 1.574 . S
C2114 H2108 0.949 . S
C2114 C2118 1.368 . S
C2115 C2096 1.429 . S
C2115 C2109 1.429 . S
C2115 C2116 1.523 . S
C2116 C2097 1.368 . S
C2116 C2110 1.368 . S
C2116 C2115 1.523 . S
C2117 C2101 1.429 . S
C2117 C2113 1.429 . S
C2117 C2118 1.523 . S
C2118 C2102 1.368 . S
C2118 C2114 1.368 . S
C2118 C2117 1.523 . S
H2119 C2094 0.950 . S
H2120 C2096 0.950 . S
H2121 C2097 0.949 . S
H2122 C2099 0.950 . S
H2123 C2101 0.950 . S
C2124 C2125 1.349 . S
C2124 C2126 1.327 . S
C2124 H2149 0.950 . S
C2125 C2124 1.349 . S
C2125 C2141 1.349 . S
C2126 C2124 1.327 . S
C2126 C2145 1.429 . S
C2126 H2150 0.950 . S
C2127 C2144 1.574 . S
C2127 C2146 1.368 . S
C2127 H2151 0.949 . S
H2128 C2132 0.949 . S
C2129 C2130 1.349 . S
C2129 C2131 1.327 . S
C2129 H2152 0.950 . S
C2130 C2129 1.349 . S
C2130 C2142 1.349 . S
C2131 C2129 1.327 . S
C2131 C2147 1.429 . S
C2131 H2153 0.950 . S
C2132 H2128 0.949 . S
C2132 C2140 1.574 . S
C2132 C2148 1.368 . S
H2133 C2141 0.950 . S
H2134 C2139 0.950 . S
H2135 C2140 0.949 . S
H2136 C2142 0.950 . S
H2137 C2143 0.950 . S
H2138 C2144 0.949 . S
C2139 H2134 0.950 . S
C2139 C2141 1.327 . S
C2139 C2145 1.429 . S
C2140 C2132 1.574 . S
C2140 H2135 0.949 . S
C2140 C2146 1.368 . S
C2141 C2125 1.349 . S
C2141 H2133 0.950 . S
C2141 C2139 1.327 . S
C2142 C2130 1.349 . S
C2142 H2136 0.950 . S
C2142 C2143 1.327 . S
C2143 H2137 0.950 . S
C2143 C2142 1.327 . S
C2143 C2147 1.429 . S
C2144 C2127 1.574 . S
C2144 H2138 0.949 . S
C2144 C2148 1.368 . S
C2145 C2126 1.429 . S
C2145 C2139 1.429 . S
C2145 C2146 1.523 . S
C2146 C2127 1.368 . S
C2146 C2140 1.368 . S
C2146 C2145 1.523 . S
C2147 C2131 1.429 . S
C2147 C2143 1.429 . S
C2147 C2148 1.523 . S
C2148 C2132 1.368 . S
C2148 C2144 1.368 . S
C2148 C2147 1.523 . S
H2149 C2124 0.950 . S
H2150 C2126 0.950 . S
H2151 C2127 0.949 . S
H2152 C2129 0.950 . S
H2153 C2131 0.950 . S
C2154 C2155 1.349 . S
C2154 C2156 1.327 . S
C2154 H2179 0.950 . S
C2155 C2154 1.349 . S
C2155 C2171 1.349 . S
C2156 C2154 1.327 . S
C2156 C2175 1.429 . S
C2156 H2180 0.950 . S
C2157 C2174 1.574 . S
C2157 C2176 1.368 . S
C2157 H2181 0.949 . S
H2158 C2162 0.949 . S
C2159 C2160 1.349 . S
C2159 C2161 1.327 . S
C2159 H2182 0.950 . S
C2160 C2159 1.349 . S
C2160 C2172 1.349 . S
C2161 C2159 1.327 . S
C2161 C2177 1.429 . S
C2161 H2183 0.950 . S
C2162 H2158 0.949 . S
C2162 C2170 1.574 . S
C2162 C2178 1.368 . S
H2163 C2171 0.950 . S
H2164 C2169 0.950 . S
H2165 C2170 0.949 . S
H2166 C2172 0.950 . S
H2167 C2173 0.950 . S
H2168 C2174 0.949 . S
C2169 H2164 0.950 . S
C2169 C2171 1.327 . S
C2169 C2175 1.429 . S
C2170 C2162 1.574 . S
C2170 H2165 0.949 . S
C2170 C2176 1.368 . S
C2171 C2155 1.349 . S
C2171 H2163 0.950 . S
C2171 C2169 1.327 . S
C2172 C2160 1.349 . S
C2172 H2166 0.950 . S
C2172 C2173 1.327 . S
C2173 H2167 0.950 . S
C2173 C2172 1.327 . S
C2173 C2177 1.429 . S
C2174 C2157 1.574 . S
C2174 H2168 0.949 . S
C2174 C2178 1.368 . S
C2175 C2156 1.429 . S
C2175 C2169 1.429 . S
C2175 C2176 1.523 . S
C2176 C2157 1.368 . S
C2176 C2170 1.368 . S
C2176 C2175 1.523 . S
C2177 C2161 1.429 . S
C2177 C2173 1.429 . S
C2177 C2178 1.523 . S
C2178 C2162 1.368 . S
C2178 C2174 1.368 . S
C2178 C2177 1.523 . S
H2179 C2154 0.950 . S
H2180 C2156 0.950 . S
H2181 C2157 0.949 . S
H2182 C2159 0.950 . S
H2183 C2161 0.950 . S
C2184 C2185 1.349 . S
C2184 C2186 1.327 . S
C2184 H2209 0.950 . S
C2185 C2184 1.349 . S
C2185 C2201 1.349 . S
C2186 C2184 1.327 . S
C2186 C2205 1.429 . S
C2186 H2210 0.950 . S
C2187 C2204 1.574 . S
C2187 C2206 1.368 . S
C2187 H2211 0.949 . S
H2188 C2192 0.949 . S
C2189 C2190 1.349 . S
C2189 C2191 1.327 . S
C2189 H2212 0.950 . S
C2190 C2189 1.349 . S
C2190 C2202 1.349 . S
C2191 C2189 1.327 . S
C2191 C2207 1.429 . S
C2191 H2213 0.950 . S
C2192 H2188 0.949 . S
C2192 C2200 1.574 . S
C2192 C2208 1.368 . S
H2193 C2201 0.950 . S
H2194 C2199 0.950 . S
H2195 C2200 0.949 . S
H2196 C2202 0.950 . S
H2197 C2203 0.950 . S
H2198 C2204 0.949 . S
C2199 H2194 0.950 . S
C2199 C2201 1.327 . S
C2199 C2205 1.429 . S
C2200 C2192 1.574 . S
C2200 H2195 0.949 . S
C2200 C2206 1.368 . S
C2201 C2185 1.349 . S
C2201 H2193 0.950 . S
C2201 C2199 1.327 . S
C2202 C2190 1.349 . S
C2202 H2196 0.950 . S
C2202 C2203 1.327 . S
C2203 H2197 0.950 . S
C2203 C2202 1.327 . S
C2203 C2207 1.429 . S
C2204 C2187 1.574 . S
C2204 H2198 0.949 . S
C2204 C2208 1.368 . S
C2205 C2186 1.429 . S
C2205 C2199 1.429 . S
C2205 C2206 1.523 . S
C2206 C2187 1.368 . S
C2206 C2200 1.368 . S
C2206 C2205 1.523 . S
C2207 C2191 1.429 . S
C2207 C2203 1.429 . S
C2207 C2208 1.523 . S
C2208 C2192 1.368 . S
C2208 C2204 1.368 . S
C2208 C2207 1.523 . S
H2209 C2184 0.950 . S
H2210 C2186 0.950 . S
H2211 C2187 0.949 . S
H2212 C2189 0.950 . S
H2213 C2191 0.950 . S
C2214 C2215 1.349 . S
C2214 C2216 1.327 . S
C2214 H2239 0.950 . S
C2215 C2214 1.349 . S
C2215 C2231 1.349 . S
C2216 C2214 1.327 . S
C2216 C2235 1.429 . S
C2216 H2240 0.950 . S
C2217 C2234 1.574 . S
C2217 C2236 1.368 . S
C2217 H2241 0.949 . S
H2218 C2222 0.949 . S
C2219 C2220 1.349 . S
C2219 C2221 1.327 . S
C2219 H2242 0.950 . S
C2220 C2219 1.349 . S
C2220 C2232 1.349 . S
C2221 C2219 1.327 . S
C2221 C2237 1.429 . S
C2221 H2243 0.950 . S
C2222 H2218 0.949 . S
C2222 C2230 1.574 . S
C2222 C2238 1.368 . S
H2223 C2231 0.950 . S
H2224 C2229 0.950 . S
H2225 C2230 0.949 . S
H2226 C2232 0.950 . S
H2227 C2233 0.950 . S
H2228 C2234 0.949 . S
C2229 H2224 0.950 . S
C2229 C2231 1.327 . S
C2229 C2235 1.429 . S
C2230 C2222 1.574 . S
C2230 H2225 0.949 . S
C2230 C2236 1.368 . S
C2231 C2215 1.349 . S
C2231 H2223 0.950 . S
C2231 C2229 1.327 . S
C2232 C2220 1.349 . S
C2232 H2226 0.950 . S
C2232 C2233 1.327 . S
C2233 H2227 0.950 . S
C2233 C2232 1.327 . S
C2233 C2237 1.429 . S
C2234 C2217 1.574 . S
C2234 H2228 0.949 . S
C2234 C2238 1.368 . S
C2235 C2216 1.429 . S
C2235 C2229 1.429 . S
C2235 C2236 1.523 . S
C2236 C2217 1.368 . S
C2236 C2230 1.368 . S
C2236 C2235 1.523 . S
C2237 C2221 1.429 . S
C2237 C2233 1.429 . S
C2237 C2238 1.523 . S
C2238 C2222 1.368 . S
C2238 C2234 1.368 . S
C2238 C2237 1.523 . S
H2239 C2214 0.950 . S
H2240 C2216 0.950 . S
H2241 C2217 0.949 . S
H2242 C2219 0.950 . S
H2243 C2221 0.950 . S
C2244 C2245 1.349 . S
C2244 C2246 1.327 . S
C2244 H2269 0.950 . S
C2245 C2244 1.349 . S
C2245 C2261 1.349 . S
C2246 C2244 1.327 . S
C2246 C2265 1.429 . S
C2246 H2270 0.950 . S
C2247 C2264 1.574 . S
C2247 C2266 1.368 . S
C2247 H2271 0.949 . S
H2248 C2252 0.949 . S
C2249 C2250 1.349 . S
C2249 C2251 1.327 . S
C2249 H2272 0.950 . S
C2250 C2249 1.349 . S
C2250 C2262 1.349 . S
C2251 C2249 1.327 . S
C2251 C2267 1.429 . S
C2251 H2273 0.950 . S
C2252 H2248 0.949 . S
C2252 C2260 1.574 . S
C2252 C2268 1.368 . S
H2253 C2261 0.950 . S
H2254 C2259 0.950 . S
H2255 C2260 0.949 . S
H2256 C2262 0.950 . S
H2257 C2263 0.950 . S
H2258 C2264 0.949 . S
C2259 H2254 0.950 . S
C2259 C2261 1.327 . S
C2259 C2265 1.429 . S
C2260 C2252 1.574 . S
C2260 H2255 0.949 . S
C2260 C2266 1.368 . S
C2261 C2245 1.349 . S
C2261 H2253 0.950 . S
C2261 C2259 1.327 . S
C2262 C2250 1.349 . S
C2262 H2256 0.950 . S
C2262 C2263 1.327 . S
C2263 H2257 0.950 . S
C2263 C2262 1.327 . S
C2263 C2267 1.429 . S
C2264 C2247 1.574 . S
C2264 H2258 0.949 . S
C2264 C2268 1.368 . S
C2265 C2246 1.429 . S
C2265 C2259 1.429 . S
C2265 C2266 1.523 . S
C2266 C2247 1.368 . S
C2266 C2260 1.368 . S
C2266 C2265 1.523 . S
C2267 C2251 1.429 . S
C2267 C2263 1.429 . S
C2267 C2268 1.523 . S
C2268 C2252 1.368 . S
C2268 C2264 1.368 . S
C2268 C2267 1.523 . S
H2269 C2244 0.950 . S
H2270 C2246 0.950 . S
H2271 C2247 0.949 . S
H2272 C2249 0.950 . S
H2273 C2251 0.950 . S
C2274 C2275 1.349 . S
C2274 C2276 1.327 . S
C2274 H2299 0.950 . S
C2275 C2274 1.349 . S
C2275 C2291 1.349 . S
C2276 C2274 1.327 . S
C2276 C2295 1.429 . S
C2276 H2300 0.950 . S
C2277 C2294 1.574 . S
C2277 C2296 1.368 . S
C2277 H2301 0.949 . S
H2278 C2282 0.949 . S
C2279 C2280 1.349 . S
C2279 C2281 1.327 . S
C2279 H2302 0.950 . S
C2280 C2279 1.349 . S
C2280 C2292 1.349 . S
C2281 C2279 1.327 . S
C2281 C2297 1.429 . S
C2281 H2303 0.950 . S
C2282 H2278 0.949 . S
C2282 C2290 1.574 . S
C2282 C2298 1.368 . S
H2283 C2291 0.950 . S
H2284 C2289 0.950 . S
H2285 C2290 0.949 . S
H2286 C2292 0.950 . S
H2287 C2293 0.950 . S
H2288 C2294 0.949 . S
C2289 H2284 0.950 . S
C2289 C2291 1.327 . S
C2289 C2295 1.429 . S
C2290 C2282 1.574 . S
C2290 H2285 0.949 . S
C2290 C2296 1.368 . S
C2291 C2275 1.349 . S
C2291 H2283 0.950 . S
C2291 C2289 1.327 . S
C2292 C2280 1.349 . S
C2292 H2286 0.950 . S
C2292 C2293 1.327 . S
C2293 H2287 0.950 . S
C2293 C2292 1.327 . S
C2293 C2297 1.429 . S
C2294 C2277 1.574 . S
C2294 H2288 0.949 . S
C2294 C2298 1.368 . S
C2295 C2276 1.429 . S
C2295 C2289 1.429 . S
C2295 C2296 1.523 . S
C2296 C2277 1.368 . S
C2296 C2290 1.368 . S
C2296 C2295 1.523 . S
C2297 C2281 1.429 . S
C2297 C2293 1.429 . S
C2297 C2298 1.523 . S
C2298 C2282 1.368 . S
C2298 C2294 1.368 . S
C2298 C2297 1.523 . S
H2299 C2274 0.950 . S
H2300 C2276 0.950 . S
H2301 C2277 0.949 . S
H2302 C2279 0.950 . S
H2303 C2281 0.950 . S
C2304 C2305 1.349 . S
C2304 C2306 1.327 . S
C2304 H2329 0.950 . S
C2305 C2304 1.349 . S
C2305 C2321 1.349 . S
C2306 C2304 1.327 . S
C2306 C2325 1.429 . S
C2306 H2330 0.950 . S
C2307 C2324 1.574 . S
C2307 C2326 1.368 . S
C2307 H2331 0.949 . S
H2308 C2312 0.949 . S
C2309 C2310 1.349 . S
C2309 C2311 1.327 . S
C2309 H2332 0.950 . S
C2310 C2309 1.349 . S
C2310 C2322 1.349 . S
C2311 C2309 1.327 . S
C2311 C2327 1.429 . S
C2311 H2333 0.950 . S
C2312 H2308 0.949 . S
C2312 C2320 1.574 . S
C2312 C2328 1.368 . S
H2313 C2321 0.950 . S
H2314 C2319 0.950 . S
H2315 C2320 0.949 . S
H2316 C2322 0.950 . S
H2317 C2323 0.950 . S
H2318 C2324 0.949 . S
C2319 H2314 0.950 . S
C2319 C2321 1.327 . S
C2319 C2325 1.429 . S
C2320 C2312 1.574 . S
C2320 H2315 0.949 . S
C2320 C2326 1.368 . S
C2321 C2305 1.349 . S
C2321 H2313 0.950 . S
C2321 C2319 1.327 . S
C2322 C2310 1.349 . S
C2322 H2316 0.950 . S
C2322 C2323 1.327 . S
C2323 H2317 0.950 . S
C2323 C2322 1.327 . S
C2323 C2327 1.429 . S
C2324 C2307 1.574 . S
C2324 H2318 0.949 . S
C2324 C2328 1.368 . S
C2325 C2306 1.429 . S
C2325 C2319 1.429 . S
C2325 C2326 1.523 . S
C2326 C2307 1.368 . S
C2326 C2320 1.368 . S
C2326 C2325 1.523 . S
C2327 C2311 1.429 . S
C2327 C2323 1.429 . S
C2327 C2328 1.523 . S
C2328 C2312 1.368 . S
C2328 C2324 1.368 . S
C2328 C2327 1.523 . S
H2329 C2304 0.950 . S
H2330 C2306 0.950 . S
H2331 C2307 0.949 . S
H2332 C2309 0.950 . S
H2333 C2311 0.950 . S
C2334 C2335 1.349 . S
C2334 C2336 1.327 . S
C2334 H2359 0.950 . S
C2335 C2334 1.349 . S
C2335 C2351 1.349 . S
C2336 C2334 1.327 . S
C2336 C2355 1.429 . S
C2336 H2360 0.950 . S
C2337 C2354 1.574 . S
C2337 C2356 1.368 . S
C2337 H2361 0.949 . S
H2338 C2342 0.949 . S
C2339 C2340 1.349 . S
C2339 C2341 1.327 . S
C2339 H2362 0.950 . S
C2340 C2339 1.349 . S
C2340 C2352 1.349 . S
C2341 C2339 1.327 . S
C2341 C2357 1.429 . S
C2341 H2363 0.950 . S
C2342 H2338 0.949 . S
C2342 C2350 1.574 . S
C2342 C2358 1.368 . S
H2343 C2351 0.950 . S
H2344 C2349 0.950 . S
H2345 C2350 0.949 . S
H2346 C2352 0.950 . S
H2347 C2353 0.950 . S
H2348 C2354 0.949 . S
C2349 H2344 0.950 . S
C2349 C2351 1.327 . S
C2349 C2355 1.429 . S
C2350 C2342 1.574 . S
C2350 H2345 0.949 . S
C2350 C2356 1.368 . S
C2351 C2335 1.349 . S
C2351 H2343 0.950 . S
C2351 C2349 1.327 . S
C2352 C2340 1.349 . S
C2352 H2346 0.950 . S
C2352 C2353 1.327 . S
C2353 H2347 0.950 . S
C2353 C2352 1.327 . S
C2353 C2357 1.429 . S
C2354 C2337 1.574 . S
C2354 H2348 0.949 . S
C2354 C2358 1.368 . S
C2355 C2336 1.429 . S
C2355 C2349 1.429 . S
C2355 C2356 1.523 . S
C2356 C2337 1.368 . S
C2356 C2350 1.368 . S
C2356 C2355 1.523 . S
C2357 C2341 1.429 . S
C2357 C2353 1.429 . S
C2357 C2358 1.523 . S
C2358 C2342 1.368 . S
C2358 C2354 1.368 . S
C2358 C2357 1.523 . S
H2359 C2334 0.950 . S
H2360 C2336 0.950 . S
H2361 C2337 0.949 . S
H2362 C2339 0.950 . S
H2363 C2341 0.950 . S
C2364 C2365 1.349 . S
C2364 C2366 1.327 . S
C2364 H2389 0.950 . S
C2365 C2364 1.349 . S
C2365 C2381 1.349 . S
C2366 C2364 1.327 . S
C2366 C2385 1.429 . S
C2366 H2390 0.950 . S
C2367 C2384 1.574 . S
C2367 C2386 1.368 . S
C2367 H2391 0.949 . S
H2368 C2372 0.949 . S
C2369 C2370 1.349 . S
C2369 C2371 1.327 . S
C2369 H2392 0.950 . S
C2370 C2369 1.349 . S
C2370 C2382 1.349 . S
C2371 C2369 1.327 . S
C2371 C2387 1.429 . S
C2371 H2393 0.950 . S
C2372 H2368 0.949 . S
C2372 C2380 1.574 . S
C2372 C2388 1.368 . S
H2373 C2381 0.950 . S
H2374 C2379 0.950 . S
H2375 C2380 0.949 . S
H2376 C2382 0.950 . S
H2377 C2383 0.950 . S
H2378 C2384 0.949 . S
C2379 H2374 0.950 . S
C2379 C2381 1.327 . S
C2379 C2385 1.429 . S
C2380 C2372 1.574 . S
C2380 H2375 0.949 . S
C2380 C2386 1.368 . S
C2381 C2365 1.349 . S
C2381 H2373 0.950 . S
C2381 C2379 1.327 . S
C2382 C2370 1.349 . S
C2382 H2376 0.950 . S
C2382 C2383 1.327 . S
C2383 H2377 0.950 . S
C2383 C2382 1.327 . S
C2383 C2387 1.429 . S
C2384 C2367 1.574 . S
C2384 H2378 0.949 . S
C2384 C2388 1.368 . S
C2385 C2366 1.429 . S
C2385 C2379 1.429 . S
C2385 C2386 1.523 . S
C2386 C2367 1.368 . S
C2386 C2380 1.368 . S
C2386 C2385 1.523 . S
C2387 C2371 1.429 . S
C2387 C2383 1.429 . S
C2387 C2388 1.523 . S
C2388 C2372 1.368 . S
C2388 C2384 1.368 . S
C2388 C2387 1.523 . S
H2389 C2364 0.950 . S
H2390 C2366 0.950 . S
H2391 C2367 0.949 . S
H2392 C2369 0.950 . S
H2393 C2371 0.950 . S
C2394 C2395 1.349 . S
C2394 C2396 1.327 . S
C2394 H2419 0.950 . S
C2395 C2394 1.349 . S
C2395 C2411 1.349 . S
C2396 C2394 1.327 . S
C2396 C2415 1.429 . S
C2396 H2420 0.950 . S
C2397 C2414 1.574 . S
C2397 C2416 1.368 . S
C2397 H2421 0.949 . S
H2398 C2402 0.949 . S
C2399 C2400 1.349 . S
C2399 C2401 1.327 . S
C2399 H2422 0.950 . S
C2400 C2399 1.349 . S
C2400 C2412 1.349 . S
C2401 C2399 1.327 . S
C2401 C2417 1.429 . S
C2401 H2423 0.950 . S
C2402 H2398 0.949 . S
C2402 C2410 1.574 . S
C2402 C2418 1.368 . S
H2403 C2411 0.950 . S
H2404 C2409 0.950 . S
H2405 C2410 0.949 . S
H2406 C2412 0.950 . S
H2407 C2413 0.950 . S
H2408 C2414 0.949 . S
C2409 H2404 0.950 . S
C2409 C2411 1.327 . S
C2409 C2415 1.429 . S
C2410 C2402 1.574 . S
C2410 H2405 0.949 . S
C2410 C2416 1.368 . S
C2411 C2395 1.349 . S
C2411 H2403 0.950 . S
C2411 C2409 1.327 . S
C2412 C2400 1.349 . S
C2412 H2406 0.950 . S
C2412 C2413 1.327 . S
C2413 H2407 0.950 . S
C2413 C2412 1.327 . S
C2413 C2417 1.429 . S
C2414 C2397 1.574 . S
C2414 H2408 0.949 . S
C2414 C2418 1.368 . S
C2415 C2396 1.429 . S
C2415 C2409 1.429 . S
C2415 C2416 1.523 . S
C2416 C2397 1.368 . S
C2416 C2410 1.368 . S
C2416 C2415 1.523 . S
C2417 C2401 1.429 . S
C2417 C2413 1.429 . S
C2417 C2418 1.523 . S
C2418 C2402 1.368 . S
C2418 C2414 1.368 . S
C2418 C2417 1.523 . S
H2419 C2394 0.950 . S
H2420 C2396 0.950 . S
H2421 C2397 0.949 . S
H2422 C2399 0.950 . S
H2423 C2401 0.950 . S
C2424 C2425 1.349 . S
C2424 C2426 1.327 . S
C2424 H2449 0.950 . S
C2425 C2424 1.349 . S
C2425 C2441 1.349 . S
C2426 C2424 1.327 . S
C2426 C2445 1.429 . S
C2426 H2450 0.950 . S
C2427 C2444 1.574 . S
C2427 C2446 1.368 . S
C2427 H2451 0.949 . S
H2428 C2432 0.949 . S
C2429 C2430 1.349 . S
C2429 C2431 1.327 . S
C2429 H2452 0.950 . S
C2430 C2429 1.349 . S
C2430 C2442 1.349 . S
C2431 C2429 1.327 . S
C2431 C2447 1.429 . S
C2431 H2453 0.950 . S
C2432 H2428 0.949 . S
C2432 C2440 1.574 . S
C2432 C2448 1.368 . S
H2433 C2441 0.950 . S
H2434 C2439 0.950 . S
H2435 C2440 0.949 . S
H2436 C2442 0.950 . S
H2437 C2443 0.950 . S
H2438 C2444 0.949 . S
C2439 H2434 0.950 . S
C2439 C2441 1.327 . S
C2439 C2445 1.429 . S
C2440 C2432 1.574 . S
C2440 H2435 0.949 . S
C2440 C2446 1.368 . S
C2441 C2425 1.349 . S
C2441 H2433 0.950 . S
C2441 C2439 1.327 . S
C2442 C2430 1.349 . S
C2442 H2436 0.950 . S
C2442 C2443 1.327 . S
C2443 H2437 0.950 . S
C2443 C2442 1.327 . S
C2443 C2447 1.429 . S
C2444 C2427 1.574 . S
C2444 H2438 0.949 . S
C2444 C2448 1.368 . S
C2445 C2426 1.429 . S
C2445 C2439 1.429 . S
C2445 C2446 1.523 . S
C2446 C2427 1.368 . S
C2446 C2440 1.368 . S
C2446 C2445 1.523 . S
C2447 C2431 1.429 . S
C2447 C2443 1.429 . S
C2447 C2448 1.523 . S
C2448 C2432 1.368 . S
C2448 C2444 1.368 . S
C2448 C2447 1.523 . S
H2449 C2424 0.950 . S
H2450 C2426 0.950 . S
H2451 C2427 0.949 . S
H2452 C2429 0.950 . S
H2453 C2431 0.950 . S
C2454 C2455 1.349 . S
C2454 C2456 1.327 . S
C2454 H2479 0.950 . S
C2455 C2454 1.349 . S
C2455 C2471 1.349 . S
C2456 C2454 1.327 . S
C2456 C2475 1.429 . S
C2456 H2480 0.950 . S
C2457 C2474 1.574 . S
C2457 C2476 1.368 . S
C2457 H2481 0.949 . S
H2458 C2462 0.949 . S
C2459 C2460 1.349 . S
C2459 C2461 1.327 . S
C2459 H2482 0.950 . S
C2460 C2459 1.349 . S
C2460 C2472 1.349 . S
C2461 C2459 1.327 . S
C2461 C2477 1.429 . S
C2461 H2483 0.950 . S
C2462 H2458 0.949 . S
C2462 C2470 1.574 . S
C2462 C2478 1.368 . S
H2463 C2471 0.950 . S
H2464 C2469 0.950 . S
H2465 C2470 0.949 . S
H2466 C2472 0.950 . S
H2467 C2473 0.950 . S
H2468 C2474 0.949 . S
C2469 H2464 0.950 . S
C2469 C2471 1.327 . S
C2469 C2475 1.429 . S
C2470 C2462 1.574 . S
C2470 H2465 0.949 . S
C2470 C2476 1.368 . S
C2471 C2455 1.349 . S
C2471 H2463 0.950 . S
C2471 C2469 1.327 . S
C2472 C2460 1.349 . S
C2472 H2466 0.950 . S
C2472 C2473 1.327 . S
C2473 H2467 0.950 . S
C2473 C2472 1.327 . S
C2473 C2477 1.429 . S
C2474 C2457 1.574 . S
C2474 H2468 0.949 . S
C2474 C2478 1.368 . S
C2475 C2456 1.429 . S
C2475 C2469 1.429 . S
C2475 C2476 1.523 . S
C2476 C2457 1.368 . S
C2476 C2470 1.368 . S
C2476 C2475 1.523 . S
C2477 C2461 1.429 . S
C2477 C2473 1.429 . S
C2477 C2478 1.523 . S
C2478 C2462 1.368 . S
C2478 C2474 1.368 . S
C2478 C2477 1.523 . S
H2479 C2454 0.950 . S
H2480 C2456 0.950 . S
H2481 C2457 0.949 . S
H2482 C2459 0.950 . S
H2483 C2461 0.950 . S
C2484 C2485 1.349 . S
C2484 C2486 1.327 . S
C2484 H2509 0.950 . S
C2485 C2484 1.349 . S
C2485 C2501 1.349 . S
C2486 C2484 1.327 . S
C2486 C2505 1.429 . S
C2486 H2510 0.950 . S
C2487 C2504 1.574 . S
C2487 C2506 1.368 . S
C2487 H2511 0.949 . S
H2488 C2492 0.949 . S
C2489 C2490 1.349 . S
C2489 C2491 1.327 . S
C2489 H2512 0.950 . S
C2490 C2489 1.349 . S
C2490 C2502 1.349 . S
C2491 C2489 1.327 . S
C2491 C2507 1.429 . S
C2491 H2513 0.950 . S
C2492 H2488 0.949 . S
C2492 C2500 1.574 . S
C2492 C2508 1.368 . S
H2493 C2501 0.950 . S
H2494 C2499 0.950 . S
H2495 C2500 0.949 . S
H2496 C2502 0.950 . S
H2497 C2503 0.950 . S
H2498 C2504 0.949 . S
C2499 H2494 0.950 . S
C2499 C2501 1.327 . S
C2499 C2505 1.429 . S
C2500 C2492 1.574 . S
C2500 H2495 0.949 . S
C2500 C2506 1.368 . S
C2501 C2485 1.349 . S
C2501 H2493 0.950 . S
C2501 C2499 1.327 . S
C2502 C2490 1.349 . S
C2502 H2496 0.950 . S
C2502 C2503 1.327 . S
C2503 H2497 0.950 . S
C2503 C2502 1.327 . S
C2503 C2507 1.429 . S
C2504 C2487 1.574 . S
C2504 H2498 0.949 . S
C2504 C2508 1.368 . S
C2505 C2486 1.429 . S
C2505 C2499 1.429 . S
C2505 C2506 1.523 . S
C2506 C2487 1.368 . S
C2506 C2500 1.368 . S
C2506 C2505 1.523 . S
C2507 C2491 1.429 . S
C2507 C2503 1.429 . S
C2507 C2508 1.523 . S
C2508 C2492 1.368 . S
C2508 C2504 1.368 . S
C2508 C2507 1.523 . S
H2509 C2484 0.950 . S
H2510 C2486 0.950 . S
H2511 C2487 0.949 . S
H2512 C2489 0.950 . S
H2513 C2491 0.950 . S
C2514 C2515 1.349 . S
C2514 C2516 1.327 . S
C2514 H2539 0.950 . S
C2515 C2514 1.349 . S
C2515 C2531 1.349 . S
C2516 C2514 1.327 . S
C2516 C2535 1.429 . S
C2516 H2540 0.950 . S
C2517 C2534 1.574 . S
C2517 C2536 1.368 . S
C2517 H2541 0.949 . S
H2518 C2522 0.949 . S
C2519 C2520 1.349 . S
C2519 C2521 1.327 . S
C2519 H2542 0.950 . S
C2520 C2519 1.349 . S
C2520 C2532 1.349 . S
C2521 C2519 1.327 . S
C2521 C2537 1.429 . S
C2521 H2543 0.950 . S
C2522 H2518 0.949 . S
C2522 C2530 1.574 . S
C2522 C2538 1.368 . S
H2523 C2531 0.950 . S
H2524 C2529 0.950 . S
H2525 C2530 0.949 . S
H2526 C2532 0.950 . S
H2527 C2533 0.950 . S
H2528 C2534 0.949 . S
C2529 H2524 0.950 . S
C2529 C2531 1.327 . S
C2529 C2535 1.429 . S
C2530 C2522 1.574 . S
C2530 H2525 0.949 . S
C2530 C2536 1.368 . S
C2531 C2515 1.349 . S
C2531 H2523 0.950 . S
C2531 C2529 1.327 . S
C2532 C2520 1.349 . S
C2532 H2526 0.950 . S
C2532 C2533 1.327 . S
C2533 H2527 0.950 . S
C2533 C2532 1.327 . S
C2533 C2537 1.429 . S
C2534 C2517 1.574 . S
C2534 H2528 0.949 . S
C2534 C2538 1.368 . S
C2535 C2516 1.429 . S
C2535 C2529 1.429 . S
C2535 C2536 1.523 . S
C2536 C2517 1.368 . S
C2536 C2530 1.368 . S
C2536 C2535 1.523 . S
C2537 C2521 1.429 . S
C2537 C2533 1.429 . S
C2537 C2538 1.523 . S
C2538 C2522 1.368 . S
C2538 C2534 1.368 . S
C2538 C2537 1.523 . S
H2539 C2514 0.950 . S
H2540 C2516 0.950 . S
H2541 C2517 0.949 . S
H2542 C2519 0.950 . S
H2543 C2521 0.950 . S
C2544 C2545 1.349 . S
C2544 C2546 1.327 . S
C2544 H2569 0.950 . S
C2545 C2544 1.349 . S
C2545 C2561 1.349 . S
C2546 C2544 1.327 . S
C2546 C2565 1.429 . S
C2546 H2570 0.950 . S
C2547 C2564 1.574 . S
C2547 C2566 1.368 . S
C2547 H2571 0.949 . S
H2548 C2552 0.949 . S
C2549 C2550 1.349 . S
C2549 C2551 1.327 . S
C2549 H2572 0.950 . S
C2550 C2549 1.349 . S
C2550 C2562 1.349 . S
C2551 C2549 1.327 . S
C2551 C2567 1.429 . S
C2551 H2573 0.950 . S
C2552 H2548 0.949 . S
C2552 C2560 1.574 . S
C2552 C2568 1.368 . S
H2553 C2561 0.950 . S
H2554 C2559 0.950 . S
H2555 C2560 0.949 . S
H2556 C2562 0.950 . S
H2557 C2563 0.950 . S
H2558 C2564 0.949 . S
C2559 H2554 0.950 . S
C2559 C2561 1.327 . S
C2559 C2565 1.429 . S
C2560 C2552 1.574 . S
C2560 H2555 0.949 . S
C2560 C2566 1.368 . S
C2561 C2545 1.349 . S
C2561 H2553 0.950 . S
C2561 C2559 1.327 . S
C2562 C2550 1.349 . S
C2562 H2556 0.950 . S
C2562 C2563 1.327 . S
C2563 H2557 0.950 . S
C2563 C2562 1.327 . S
C2563 C2567 1.429 . S
C2564 C2547 1.574 . S
C2564 H2558 0.949 . S
C2564 C2568 1.368 . S
C2565 C2546 1.429 . S
C2565 C2559 1.429 . S
C2565 C2566 1.523 . S
C2566 C2547 1.368 . S
C2566 C2560 1.368 . S
C2566 C2565 1.523 . S
C2567 C2551 1.429 . S
C2567 C2563 1.429 . S
C2567 C2568 1.523 . S
C2568 C2552 1.368 . S
C2568 C2564 1.368 . S
C2568 C2567 1.523 . S
H2569 C2544 0.950 . S
H2570 C2546 0.950 . S
H2571 C2547 0.949 . S
H2572 C2549 0.950 . S
H2573 C2551 0.950 . S
C2574 C2575 1.349 . S
C2574 C2576 1.327 . S
C2574 H2599 0.950 . S
C2575 C2574 1.349 . S
C2575 C2591 1.349 . S
C2576 C2574 1.327 . S
C2576 C2595 1.429 . S
C2576 H2600 0.950 . S
C2577 C2594 1.574 . S
C2577 C2596 1.368 . S
C2577 H2601 0.949 . S
H2578 C2582 0.949 . S
C2579 C2580 1.349 . S
C2579 C2581 1.327 . S
C2579 H2602 0.950 . S
C2580 C2579 1.349 . S
C2580 C2592 1.349 . S
C2581 C2579 1.327 . S
C2581 C2597 1.429 . S
C2581 H2603 0.950 . S
C2582 H2578 0.949 . S
C2582 C2590 1.574 . S
C2582 C2598 1.368 . S
H2583 C2591 0.950 . S
H2584 C2589 0.950 . S
H2585 C2590 0.949 . S
H2586 C2592 0.950 . S
H2587 C2593 0.950 . S
H2588 C2594 0.949 . S
C2589 H2584 0.950 . S
C2589 C2591 1.327 . S
C2589 C2595 1.429 . S
C2590 C2582 1.574 . S
C2590 H2585 0.949 . S
C2590 C2596 1.368 . S
C2591 C2575 1.349 . S
C2591 H2583 0.950 . S
C2591 C2589 1.327 . S
C2592 C2580 1.349 . S
C2592 H2586 0.950 . S
C2592 C2593 1.327 . S
C2593 H2587 0.950 . S
C2593 C2592 1.327 . S
C2593 C2597 1.429 . S
C2594 C2577 1.574 . S
C2594 H2588 0.949 . S
C2594 C2598 1.368 . S
C2595 C2576 1.429 . S
C2595 C2589 1.429 . S
C2595 C2596 1.523 . S
C2596 C2577 1.368 . S
C2596 C2590 1.368 . S
C2596 C2595 1.523 . S
C2597 C2581 1.429 . S
C2597 C2593 1.429 . S
C2597 C2598 1.523 . S
C2598 C2582 1.368 . S
C2598 C2594 1.368 . S
C2598 C2597 1.523 . S
H2599 C2574 0.950 . S
H2600 C2576 0.950 . S
H2601 C2577 0.949 . S
H2602 C2579 0.950 . S
H2603 C2581 0.950 . S
C2604 C2605 1.349 . S
C2604 C2606 1.327 . S
C2604 H2629 0.950 . S
C2605 C2604 1.349 . S
C2605 C2621 1.349 . S
C2606 C2604 1.327 . S
C2606 C2625 1.429 . S
C2606 H2630 0.950 . S
C2607 C2624 1.574 . S
C2607 C2626 1.368 . S
C2607 H2631 0.949 . S
H2608 C2612 0.949 . S
C2609 C2610 1.349 . S
C2609 C2611 1.327 . S
C2609 H2632 0.950 . S
C2610 C2609 1.349 . S
C2610 C2622 1.349 . S
C2611 C2609 1.327 . S
C2611 C2627 1.429 . S
C2611 H2633 0.950 . S
C2612 H2608 0.949 . S
C2612 C2620 1.574 . S
C2612 C2628 1.368 . S
H2613 C2621 0.950 . S
H2614 C2619 0.950 . S
H2615 C2620 0.949 . S
H2616 C2622 0.950 . S
H2617 C2623 0.950 . S
H2618 C2624 0.949 . S
C2619 H2614 0.950 . S
C2619 C2621 1.327 . S
C2619 C2625 1.429 . S
C2620 C2612 1.574 . S
C2620 H2615 0.949 . S
C2620 C2626 1.368 . S
C2621 C2605 1.349 . S
C2621 H2613 0.950 . S
C2621 C2619 1.327 . S
C2622 C2610 1.349 . S
C2622 H2616 0.950 . S
C2622 C2623 1.327 . S
C2623 H2617 0.950 . S
C2623 C2622 1.327 . S
C2623 C2627 1.429 . S
C2624 C2607 1.574 . S
C2624 H2618 0.949 . S
C2624 C2628 1.368 . S
C2625 C2606 1.429 . S
C2625 C2619 1.429 . S
C2625 C2626 1.523 . S
C2626 C2607 1.368 . S
C2626 C2620 1.368 . S
C2626 C2625 1.523 . S
C2627 C2611 1.429 . S
C2627 C2623 1.429 . S
C2627 C2628 1.523 . S
C2628 C2612 1.368 . S
C2628 C2624 1.368 . S
C2628 C2627 1.523 . S
H2629 C2604 0.950 . S
H2630 C2606 0.950 . S
H2631 C2607 0.949 . S
H2632 C2609 0.950 . S
H2633 C2611 0.950 . S
C2634 C2635 1.349 . S
C2634 C2636 1.327 . S
C2634 H2659 0.950 . S
C2635 C2634 1.349 . S
C2635 C2651 1.349 . S
C2636 C2634 1.327 . S
C2636 C2655 1.429 . S
C2636 H2660 0.950 . S
C2637 C2654 1.574 . S
C2637 C2656 1.368 . S
C2637 H2661 0.949 . S
H2638 C2642 0.949 . S
C2639 C2640 1.349 . S
C2639 C2641 1.327 . S
C2639 H2662 0.950 . S
C2640 C2639 1.349 . S
C2640 C2652 1.349 . S
C2641 C2639 1.327 . S
C2641 C2657 1.429 . S
C2641 H2663 0.950 . S
C2642 H2638 0.949 . S
C2642 C2650 1.574 . S
C2642 C2658 1.368 . S
H2643 C2651 0.950 . S
H2644 C2649 0.950 . S
H2645 C2650 0.949 . S
H2646 C2652 0.950 . S
H2647 C2653 0.950 . S
H2648 C2654 0.949 . S
C2649 H2644 0.950 . S
C2649 C2651 1.327 . S
C2649 C2655 1.429 . S
C2650 C2642 1.574 . S
C2650 H2645 0.949 . S
C2650 C2656 1.368 . S
C2651 C2635 1.349 . S
C2651 H2643 0.950 . S
C2651 C2649 1.327 . S
C2652 C2640 1.349 . S
C2652 H2646 0.950 . S
C2652 C2653 1.327 . S
C2653 H2647 0.950 . S
C2653 C2652 1.327 . S
C2653 C2657 1.429 . S
C2654 C2637 1.574 . S
C2654 H2648 0.949 . S
C2654 C2658 1.368 . S
C2655 C2636 1.429 . S
C2655 C2649 1.429 . S
C2655 C2656 1.523 . S
C2656 C2637 1.368 . S
C2656 C2650 1.368 . S
C2656 C2655 1.523 . S
C2657 C2641 1.429 . S
C2657 C2653 1.429 . S
C2657 C2658 1.523 . S
C2658 C2642 1.368 . S
C2658 C2654 1.368 . S
C2658 C2657 1.523 . S
H2659 C2634 0.950 . S
H2660 C2636 0.950 . S
H2661 C2637 0.949 . S
H2662 C2639 0.950 . S
H2663 C2641 0.950 . S
C2664 C2665 1.349 . S
C2664 C2666 1.327 . S
C2664 H2689 0.950 . S
C2665 C2664 1.349 . S
C2665 C2681 1.349 . S
C2666 C2664 1.327 . S
C2666 C2685 1.429 . S
C2666 H2690 0.950 . S
C2667 C2684 1.574 . S
C2667 C2686 1.368 . S
C2667 H2691 0.949 . S
H2668 C2672 0.949 . S
C2669 C2670 1.349 . S
C2669 C2671 1.327 . S
C2669 H2692 0.950 . S
C2670 C2669 1.349 . S
C2670 C2682 1.349 . S
C2671 C2669 1.327 . S
C2671 C2687 1.429 . S
C2671 H2693 0.950 . S
C2672 H2668 0.949 . S
C2672 C2680 1.574 . S
C2672 C2688 1.368 . S
H2673 C2681 0.950 . S
H2674 C2679 0.950 . S
H2675 C2680 0.949 . S
H2676 C2682 0.950 . S
H2677 C2683 0.950 . S
H2678 C2684 0.949 . S
C2679 H2674 0.950 . S
C2679 C2681 1.327 . S
C2679 C2685 1.429 . S
C2680 C2672 1.574 . S
C2680 H2675 0.949 . S
C2680 C2686 1.368 . S
C2681 C2665 1.349 . S
C2681 H2673 0.950 . S
C2681 C2679 1.327 . S
C2682 C2670 1.349 . S
C2682 H2676 0.950 . S
C2682 C2683 1.327 . S
C2683 H2677 0.950 . S
C2683 C2682 1.327 . S
C2683 C2687 1.429 . S
C2684 C2667 1.574 . S
C2684 H2678 0.949 . S
C2684 C2688 1.368 . S
C2685 C2666 1.429 . S
C2685 C2679 1.429 . S
C2685 C2686 1.523 . S
C2686 C2667 1.368 . S
C2686 C2680 1.368 . S
C2686 C2685 1.523 . S
C2687 C2671 1.429 . S
C2687 C2683 1.429 . S
C2687 C2688 1.523 . S
C2688 C2672 1.368 . S
C2688 C2684 1.368 . S
C2688 C2687 1.523 . S
H2689 C2664 0.950 . S
H2690 C2666 0.950 . S
H2691 C2667 0.949 . S
H2692 C2669 0.950 . S
H2693 C2671 0.950 . S
C2694 C2695 1.349 . S
C2694 C2696 1.327 . S
C2694 H2719 0.950 . S
C2695 C2694 1.349 . S
C2695 C2711 1.349 . S
C2696 C2694 1.327 . S
C2696 C2715 1.429 . S
C2696 H2720 0.950 . S
C2697 C2714 1.574 . S
C2697 C2716 1.368 . S
C2697 H2721 0.949 . S
H2698 C2702 0.949 . S
C2699 C2700 1.349 . S
C2699 C2701 1.327 . S
C2699 H2722 0.950 . S
C2700 C2699 1.349 . S
C2700 C2712 1.349 . S
C2701 C2699 1.327 . S
C2701 C2717 1.429 . S
C2701 H2723 0.950 . S
C2702 H2698 0.949 . S
C2702 C2710 1.574 . S
C2702 C2718 1.368 . S
H2703 C2711 0.950 . S
H2704 C2709 0.950 . S
H2705 C2710 0.949 . S
H2706 C2712 0.950 . S
H2707 C2713 0.950 . S
H2708 C2714 0.949 . S
C2709 H2704 0.950 . S
C2709 C2711 1.327 . S
C2709 C2715 1.429 . S
C2710 C2702 1.574 . S
C2710 H2705 0.949 . S
C2710 C2716 1.368 . S
C2711 C2695 1.349 . S
C2711 H2703 0.950 . S
C2711 C2709 1.327 . S
C2712 C2700 1.349 . S
C2712 H2706 0.950 . S
C2712 C2713 1.327 . S
C2713 H2707 0.950 . S
C2713 C2712 1.327 . S
C2713 C2717 1.429 . S
C2714 C2697 1.574 . S
C2714 H2708 0.949 . S
C2714 C2718 1.368 . S
C2715 C2696 1.429 . S
C2715 C2709 1.429 . S
C2715 C2716 1.523 . S
C2716 C2697 1.368 . S
C2716 C2710 1.368 . S
C2716 C2715 1.523 . S
C2717 C2701 1.429 . S
C2717 C2713 1.429 . S
C2717 C2718 1.523 . S
C2718 C2702 1.368 . S
C2718 C2714 1.368 . S
C2718 C2717 1.523 . S
H2719 C2694 0.950 . S
H2720 C2696 0.950 . S
H2721 C2697 0.949 . S
H2722 C2699 0.950 . S
H2723 C2701 0.950 . S
C2724 C2725 1.349 . S
C2724 C2726 1.327 . S
C2724 H2749 0.950 . S
C2725 C2724 1.349 . S
C2725 C2741 1.349 . S
C2726 C2724 1.327 . S
C2726 C2745 1.429 . S
C2726 H2750 0.950 . S
C2727 C2744 1.574 . S
C2727 C2746 1.368 . S
C2727 H2751 0.949 . S
H2728 C2732 0.949 . S
C2729 C2730 1.349 . S
C2729 C2731 1.327 . S
C2729 H2752 0.950 . S
C2730 C2729 1.349 . S
C2730 C2742 1.349 . S
C2731 C2729 1.327 . S
C2731 C2747 1.429 . S
C2731 H2753 0.950 . S
C2732 H2728 0.949 . S
C2732 C2740 1.574 . S
C2732 C2748 1.368 . S
H2733 C2741 0.950 . S
H2734 C2739 0.950 . S
H2735 C2740 0.949 . S
H2736 C2742 0.950 . S
H2737 C2743 0.950 . S
H2738 C2744 0.949 . S
C2739 H2734 0.950 . S
C2739 C2741 1.327 . S
C2739 C2745 1.429 . S
C2740 C2732 1.574 . S
C2740 H2735 0.949 . S
C2740 C2746 1.368 . S
C2741 C2725 1.349 . S
C2741 H2733 0.950 . S
C2741 C2739 1.327 . S
C2742 C2730 1.349 . S
C2742 H2736 0.950 . S
C2742 C2743 1.327 . S
C2743 H2737 0.950 . S
C2743 C2742 1.327 . S
C2743 C2747 1.429 . S
C2744 C2727 1.574 . S
C2744 H2738 0.949 . S
C2744 C2748 1.368 . S
C2745 C2726 1.429 . S
C2745 C2739 1.429 . S
C2745 C2746 1.523 . S
C2746 C2727 1.368 . S
C2746 C2740 1.368 . S
C2746 C2745 1.523 . S
C2747 C2731 1.429 . S
C2747 C2743 1.429 . S
C2747 C2748 1.523 . S
C2748 C2732 1.368 . S
C2748 C2744 1.368 . S
C2748 C2747 1.523 . S
H2749 C2724 0.950 . S
H2750 C2726 0.950 . S
H2751 C2727 0.949 . S
H2752 C2729 0.950 . S
H2753 C2731 0.950 . S
C2754 C2755 1.349 . S
C2754 C2756 1.327 . S
C2754 H2779 0.950 . S
C2755 C2754 1.349 . S
C2755 C2771 1.349 . S
C2756 C2754 1.327 . S
C2756 C2775 1.429 . S
C2756 H2780 0.950 . S
C2757 C2774 1.574 . S
C2757 C2776 1.368 . S
C2757 H2781 0.949 . S
H2758 C2762 0.949 . S
C2759 C2760 1.349 . S
C2759 C2761 1.327 . S
C2759 H2782 0.950 . S
C2760 C2759 1.349 . S
C2760 C2772 1.349 . S
C2761 C2759 1.327 . S
C2761 C2777 1.429 . S
C2761 H2783 0.950 . S
C2762 H2758 0.949 . S
C2762 C2770 1.574 . S
C2762 C2778 1.368 . S
H2763 C2771 0.950 . S
H2764 C2769 0.950 . S
H2765 C2770 0.949 . S
H2766 C2772 0.950 . S
H2767 C2773 0.950 . S
H2768 C2774 0.949 . S
C2769 H2764 0.950 . S
C2769 C2771 1.327 . S
C2769 C2775 1.429 . S
C2770 C2762 1.574 . S
C2770 H2765 0.949 . S
C2770 C2776 1.368 . S
C2771 C2755 1.349 . S
C2771 H2763 0.950 . S
C2771 C2769 1.327 . S
C2772 C2760 1.349 . S
C2772 H2766 0.950 . S
C2772 C2773 1.327 . S
C2773 H2767 0.950 . S
C2773 C2772 1.327 . S
C2773 C2777 1.429 . S
C2774 C2757 1.574 . S
C2774 H2768 0.949 . S
C2774 C2778 1.368 . S
C2775 C2756 1.429 . S
C2775 C2769 1.429 . S
C2775 C2776 1.523 . S
C2776 C2757 1.368 . S
C2776 C2770 1.368 . S
C2776 C2775 1.523 . S
C2777 C2761 1.429 . S
C2777 C2773 1.429 . S
C2777 C2778 1.523 . S
C2778 C2762 1.368 . S
C2778 C2774 1.368 . S
C2778 C2777 1.523 . S
H2779 C2754 0.950 . S
H2780 C2756 0.950 . S
H2781 C2757 0.949 . S
H2782 C2759 0.950 . S
H2783 C2761 0.950 . S
C2784 C2785 1.349 . S
C2784 C2786 1.327 . S
C2784 H2809 0.950 . S
C2785 C2784 1.349 . S
C2785 C2801 1.349 . S
C2786 C2784 1.327 . S
C2786 C2805 1.429 . S
C2786 H2810 0.950 . S
C2787 C2804 1.574 . S
C2787 C2806 1.368 . S
C2787 H2811 0.949 . S
H2788 C2792 0.949 . S
C2789 C2790 1.349 . S
C2789 C2791 1.327 . S
C2789 H2812 0.950 . S
C2790 C2789 1.349 . S
C2790 C2802 1.349 . S
C2791 C2789 1.327 . S
C2791 C2807 1.429 . S
C2791 H2813 0.950 . S
C2792 H2788 0.949 . S
C2792 C2800 1.574 . S
C2792 C2808 1.368 . S
H2793 C2801 0.950 . S
H2794 C2799 0.950 . S
H2795 C2800 0.949 . S
H2796 C2802 0.950 . S
H2797 C2803 0.950 . S
H2798 C2804 0.949 . S
C2799 H2794 0.950 . S
C2799 C2801 1.327 . S
C2799 C2805 1.429 . S
C2800 C2792 1.574 . S
C2800 H2795 0.949 . S
C2800 C2806 1.368 . S
C2801 C2785 1.349 . S
C2801 H2793 0.950 . S
C2801 C2799 1.327 . S
C2802 C2790 1.349 . S
C2802 H2796 0.950 . S
C2802 C2803 1.327 . S
C2803 H2797 0.950 . S
C2803 C2802 1.327 . S
C2803 C2807 1.429 . S
C2804 C2787 1.574 . S
C2804 H2798 0.949 . S
C2804 C2808 1.368 . S
C2805 C2786 1.429 . S
C2805 C2799 1.429 . S
C2805 C2806 1.523 . S
C2806 C2787 1.368 . S
C2806 C2800 1.368 . S
C2806 C2805 1.523 . S
C2807 C2791 1.429 . S
C2807 C2803 1.429 . S
C2807 C2808 1.523 . S
C2808 C2792 1.368 . S
C2808 C2804 1.368 . S
C2808 C2807 1.523 . S
H2809 C2784 0.950 . S
H2810 C2786 0.950 . S
H2811 C2787 0.949 . S
H2812 C2789 0.950 . S
H2813 C2791 0.950 . S
C2814 C2815 1.349 . S
C2814 C2816 1.327 . S
C2814 H2839 0.950 . S
C2815 C2814 1.349 . S
C2815 C2831 1.349 . S
C2816 C2814 1.327 . S
C2816 C2835 1.429 . S
C2816 H2840 0.950 . S
C2817 C2834 1.574 . S
C2817 C2836 1.368 . S
C2817 H2841 0.949 . S
H2818 C2822 0.949 . S
C2819 C2820 1.349 . S
C2819 C2821 1.327 . S
C2819 H2842 0.950 . S
C2820 C2819 1.349 . S
C2820 C2832 1.349 . S
C2821 C2819 1.327 . S
C2821 C2837 1.429 . S
C2821 H2843 0.950 . S
C2822 H2818 0.949 . S
C2822 C2830 1.574 . S
C2822 C2838 1.368 . S
H2823 C2831 0.950 . S
H2824 C2829 0.950 . S
H2825 C2830 0.949 . S
H2826 C2832 0.950 . S
H2827 C2833 0.950 . S
H2828 C2834 0.949 . S
C2829 H2824 0.950 . S
C2829 C2831 1.327 . S
C2829 C2835 1.429 . S
C2830 C2822 1.574 . S
C2830 H2825 0.949 . S
C2830 C2836 1.368 . S
C2831 C2815 1.349 . S
C2831 H2823 0.950 . S
C2831 C2829 1.327 . S
C2832 C2820 1.349 . S
C2832 H2826 0.950 . S
C2832 C2833 1.327 . S
C2833 H2827 0.950 . S
C2833 C2832 1.327 . S
C2833 C2837 1.429 . S
C2834 C2817 1.574 . S
C2834 H2828 0.949 . S
C2834 C2838 1.368 . S
C2835 C2816 1.429 . S
C2835 C2829 1.429 . S
C2835 C2836 1.523 . S
C2836 C2817 1.368 . S
C2836 C2830 1.368 . S
C2836 C2835 1.523 . S
C2837 C2821 1.429 . S
C2837 C2833 1.429 . S
C2837 C2838 1.523 . S
C2838 C2822 1.368 . S
C2838 C2834 1.368 . S
C2838 C2837 1.523 . S
H2839 C2814 0.950 . S
H2840 C2816 0.950 . S
H2841 C2817 0.949 . S
H2842 C2819 0.950 . S
H2843 C2821 0.950 . S
C2844 C2845 1.349 . S
C2844 C2846 1.327 . S
C2844 H2869 0.950 . S
C2845 C2844 1.349 . S
C2845 C2861 1.349 . S
C2846 C2844 1.327 . S
C2846 C2865 1.429 . S
C2846 H2870 0.950 . S
C2847 C2864 1.574 . S
C2847 C2866 1.368 . S
C2847 H2871 0.949 . S
H2848 C2852 0.949 . S
C2849 C2850 1.349 . S
C2849 C2851 1.327 . S
C2849 H2872 0.950 . S
C2850 C2849 1.349 . S
C2850 C2862 1.349 . S
C2851 C2849 1.327 . S
C2851 C2867 1.429 . S
C2851 H2873 0.950 . S
C2852 H2848 0.949 . S
C2852 C2860 1.574 . S
C2852 C2868 1.368 . S
H2853 C2861 0.950 . S
H2854 C2859 0.950 . S
H2855 C2860 0.949 . S
H2856 C2862 0.950 . S
H2857 C2863 0.950 . S
H2858 C2864 0.949 . S
C2859 H2854 0.950 . S
C2859 C2861 1.327 . S
C2859 C2865 1.429 . S
C2860 C2852 1.574 . S
C2860 H2855 0.949 . S
C2860 C2866 1.368 . S
C2861 C2845 1.349 . S
C2861 H2853 0.950 . S
C2861 C2859 1.327 . S
C2862 C2850 1.349 . S
C2862 H2856 0.950 . S
C2862 C2863 1.327 . S
C2863 H2857 0.950 . S
C2863 C2862 1.327 . S
C2863 C2867 1.429 . S
C2864 C2847 1.574 . S
C2864 H2858 0.949 . S
C2864 C2868 1.368 . S
C2865 C2846 1.429 . S
C2865 C2859 1.429 . S
C2865 C2866 1.523 . S
C2866 C2847 1.368 . S
C2866 C2860 1.368 . S
C2866 C2865 1.523 . S
C2867 C2851 1.429 . S
C2867 C2863 1.429 . S
C2867 C2868 1.523 . S
C2868 C2852 1.368 . S
C2868 C2864 1.368 . S
C2868 C2867 1.523 . S
H2869 C2844 0.950 . S
H2870 C2846 0.950 . S
H2871 C2847 0.949 . S
H2872 C2849 0.950 . S
H2873 C2851 0.950 . S
C2874 C2875 1.349 . S
C2874 C2876 1.327 . S
C2874 H2899 0.950 . S
C2875 C2874 1.349 . S
C2875 C2891 1.349 . S
C2876 C2874 1.327 . S
C2876 C2895 1.429 . S
C2876 H2900 0.950 . S
C2877 C2894 1.574 . S
C2877 C2896 1.368 . S
C2877 H2901 0.949 . S
H2878 C2882 0.949 . S
C2879 C2880 1.349 . S
C2879 C2881 1.327 . S
C2879 H2902 0.950 . S
C2880 C2879 1.349 . S
C2880 C2892 1.349 . S
C2881 C2879 1.327 . S
C2881 C2897 1.429 . S
C2881 H2903 0.950 . S
C2882 H2878 0.949 . S
C2882 C2890 1.574 . S
C2882 C2898 1.368 . S
H2883 C2891 0.950 . S
H2884 C2889 0.950 . S
H2885 C2890 0.949 . S
H2886 C2892 0.950 . S
H2887 C2893 0.950 . S
H2888 C2894 0.949 . S
C2889 H2884 0.950 . S
C2889 C2891 1.327 . S
C2889 C2895 1.429 . S
C2890 C2882 1.574 . S
C2890 H2885 0.949 . S
C2890 C2896 1.368 . S
C2891 C2875 1.349 . S
C2891 H2883 0.950 . S
C2891 C2889 1.327 . S
C2892 C2880 1.349 . S
C2892 H2886 0.950 . S
C2892 C2893 1.327 . S
C2893 H2887 0.950 . S
C2893 C2892 1.327 . S
C2893 C2897 1.429 . S
C2894 C2877 1.574 . S
C2894 H2888 0.949 . S
C2894 C2898 1.368 . S
C2895 C2876 1.429 . S
C2895 C2889 1.429 . S
C2895 C2896 1.523 . S
C2896 C2877 1.368 . S
C2896 C2890 1.368 . S
C2896 C2895 1.523 . S
C2897 C2881 1.429 . S
C2897 C2893 1.429 . S
C2897 C2898 1.523 . S
C2898 C2882 1.368 . S
C2898 C2894 1.368 . S
C2898 C2897 1.523 . S
H2899 C2874 0.950 . S
H2900 C2876 0.950 . S
H2901 C2877 0.949 . S
H2902 C2879 0.950 . S
H2903 C2881 0.950 . S
C2904 C2905 1.349 . S
C2904 C2906 1.327 . S
C2904 H2929 0.950 . S
C2905 C2904 1.349 . S
C2905 C2921 1.349 . S
C2906 C2904 1.327 . S
C2906 C2925 1.429 . S
C2906 H2930 0.950 . S
C2907 C2924 1.574 . S
C2907 C2926 1.368 . S
C2907 H2931 0.949 . S
H2908 C2912 0.949 . S
C2909 C2910 1.349 . S
C2909 C2911 1.327 . S
C2909 H2932 0.950 . S
C2910 C2909 1.349 . S
C2910 C2922 1.349 . S
C2911 C2909 1.327 . S
C2911 C2927 1.429 . S
C2911 H2933 0.950 . S
C2912 H2908 0.949 . S
C2912 C2920 1.574 . S
C2912 C2928 1.368 . S
H2913 C2921 0.950 . S
H2914 C2919 0.950 . S
H2915 C2920 0.949 . S
H2916 C2922 0.950 . S
H2917 C2923 0.950 . S
H2918 C2924 0.949 . S
C2919 H2914 0.950 . S
C2919 C2921 1.327 . S
C2919 C2925 1.429 . S
C2920 C2912 1.574 . S
C2920 H2915 0.949 . S
C2920 C2926 1.368 . S
C2921 C2905 1.349 . S
C2921 H2913 0.950 . S
C2921 C2919 1.327 . S
C2922 C2910 1.349 . S
C2922 H2916 0.950 . S
C2922 C2923 1.327 . S
C2923 H2917 0.950 . S
C2923 C2922 1.327 . S
C2923 C2927 1.429 . S
C2924 C2907 1.574 . S
C2924 H2918 0.949 . S
C2924 C2928 1.368 . S
C2925 C2906 1.429 . S
C2925 C2919 1.429 . S
C2925 C2926 1.523 . S
C2926 C2907 1.368 . S
C2926 C2920 1.368 . S
C2926 C2925 1.523 . S
C2927 C2911 1.429 . S
C2927 C2923 1.429 . S
C2927 C2928 1.523 . S
C2928 C2912 1.368 . S
C2928 C2924 1.368 . S
C2928 C2927 1.523 . S
H2929 C2904 0.950 . S
H2930 C2906 0.950 . S
H2931 C2907 0.949 . S
H2932 C2909 0.950 . S
H2933 C2911 0.950 . S
C2934 C2935 1.349 . S
C2934 C2936 1.327 . S
C2934 H2959 0.950 . S
C2935 C2934 1.349 . S
C2935 C2951 1.349 . S
C2936 C2934 1.327 . S
C2936 C2955 1.429 . S
C2936 H2960 0.950 . S
C2937 C2954 1.574 . S
C2937 C2956 1.368 . S
C2937 H2961 0.949 . S
H2938 C2942 0.949 . S
C2939 C2940 1.349 . S
C2939 C2941 1.327 . S
C2939 H2962 0.950 . S
C2940 C2939 1.349 . S
C2940 C2952 1.349 . S
C2941 C2939 1.327 . S
C2941 C2957 1.429 . S
C2941 H2963 0.950 . S
C2942 H2938 0.949 . S
C2942 C2950 1.574 . S
C2942 C2958 1.368 . S
H2943 C2951 0.950 . S
H2944 C2949 0.950 . S
H2945 C2950 0.949 . S
H2946 C2952 0.950 . S
H2947 C2953 0.950 . S
H2948 C2954 0.949 . S
C2949 H2944 0.950 . S
C2949 C2951 1.327 . S
C2949 C2955 1.429 . S
C2950 C2942 1.574 . S
C2950 H2945 0.949 . S
C2950 C2956 1.368 . S
C2951 C2935 1.349 . S
C2951 H2943 0.950 . S
C2951 C2949 1.327 . S
C2952 C2940 1.349 . S
C2952 H2946 0.950 . S
C2952 C2953 1.327 . S
C2953 H2947 0.950 . S
C2953 C2952 1.327 . S
C2953 C2957 1.429 . S
C2954 C2937 1.574 . S
C2954 H2948 0.949 . S
C2954 C2958 1.368 . S
C2955 C2936 1.429 . S
C2955 C2949 1.429 . S
C2955 C2956 1.523 . S
C2956 C2937 1.368 . S
C2956 C2950 1.368 . S
C2956 C2955 1.523 . S
C2957 C2941 1.429 . S
C2957 C2953 1.429 . S
C2957 C2958 1.523 . S
C2958 C2942 1.368 . S
C2958 C2954 1.368 . S
C2958 C2957 1.523 . S
H2959 C2934 0.950 . S
H2960 C2936 0.950 . S
H2961 C2937 0.949 . S
H2962 C2939 0.950 . S
H2963 C2941 0.950 . S
C2964 C2965 1.349 . S
C2964 C2966 1.327 . S
C2964 H2989 0.950 . S
C2965 C2964 1.349 . S
C2965 C2981 1.349 . S
C2966 C2964 1.327 . S
C2966 C2985 1.429 . S
C2966 H2990 0.950 . S
C2967 C2984 1.574 . S
C2967 C2986 1.368 . S
C2967 H2991 0.949 . S
H2968 C2972 0.949 . S
C2969 C2970 1.349 . S
C2969 C2971 1.327 . S
C2969 H2992 0.950 . S
C2970 C2969 1.349 . S
C2970 C2982 1.349 . S
C2971 C2969 1.327 . S
C2971 C2987 1.429 . S
C2971 H2993 0.950 . S
C2972 H2968 0.949 . S
C2972 C2980 1.574 . S
C2972 C2988 1.368 . S
H2973 C2981 0.950 . S
H2974 C2979 0.950 . S
H2975 C2980 0.949 . S
H2976 C2982 0.950 . S
H2977 C2983 0.950 . S
H2978 C2984 0.949 . S
C2979 H2974 0.950 . S
C2979 C2981 1.327 . S
C2979 C2985 1.429 . S
C2980 C2972 1.574 . S
C2980 H2975 0.949 . S
C2980 C2986 1.368 . S
C2981 C2965 1.349 . S
C2981 H2973 0.950 . S
C2981 C2979 1.327 . S
C2982 C2970 1.349 . S
C2982 H2976 0.950 . S
C2982 C2983 1.327 . S
C2983 H2977 0.950 . S
C2983 C2982 1.327 . S
C2983 C2987 1.429 . S
C2984 C2967 1.574 . S
C2984 H2978 0.949 . S
C2984 C2988 1.368 . S
C2985 C2966 1.429 . S
C2985 C2979 1.429 . S
C2985 C2986 1.523 . S
C2986 C2967 1.368 . S
C2986 C2980 1.368 . S
C2986 C2985 1.523 . S
C2987 C2971 1.429 . S
C2987 C2983 1.429 . S
C2987 C2988 1.523 . S
C2988 C2972 1.368 . S
C2988 C2984 1.368 . S
C2988 C2987 1.523 . S
H2989 C2964 0.950 . S
H2990 C2966 0.950 . S
H2991 C2967 0.949 . S
H2992 C2969 0.950 . S
H2993 C2971 0.950 . S
C2994 C2995 1.349 . S
C2994 C2996 1.327 . S
C2994 H3019 0.950 . S
C2995 C2994 1.349 . S
C2995 C3011 1.349 . S
C2996 C2994 1.327 . S
C2996 C3015 1.429 . S
C2996 H3020 0.950 . S
C2997 C3014 1.574 . S
C2997 C3016 1.368 . S
C2997 H3021 0.949 . S
H2998 C3002 0.949 . S
C2999 C3000 1.349 . S
C2999 C3001 1.327 . S
C2999 H3022 0.950 . S
C3000 C2999 1.349 . S
C3000 C3012 1.349 . S
C3001 C2999 1.327 . S
C3001 C3017 1.429 . S
C3001 H3023 0.950 . S
C3002 H2998 0.949 . S
C3002 C3010 1.574 . S
C3002 C3018 1.368 . S
H3003 C3011 0.950 . S
H3004 C3009 0.950 . S
H3005 C3010 0.949 . S
H3006 C3012 0.950 . S
H3007 C3013 0.950 . S
H3008 C3014 0.949 . S
C3009 H3004 0.950 . S
C3009 C3011 1.327 . S
C3009 C3015 1.429 . S
C3010 C3002 1.574 . S
C3010 H3005 0.949 . S
C3010 C3016 1.368 . S
C3011 C2995 1.349 . S
C3011 H3003 0.950 . S
C3011 C3009 1.327 . S
C3012 C3000 1.349 . S
C3012 H3006 0.950 . S
C3012 C3013 1.327 . S
C3013 H3007 0.950 . S
C3013 C3012 1.327 . S
C3013 C3017 1.429 . S
C3014 C2997 1.574 . S
C3014 H3008 0.949 . S
C3014 C3018 1.368 . S
C3015 C2996 1.429 . S
C3015 C3009 1.429 . S
C3015 C3016 1.523 . S
C3016 C2997 1.368 . S
C3016 C3010 1.368 . S
C3016 C3015 1.523 . S
C3017 C3001 1.429 . S
C3017 C3013 1.429 . S
C3017 C3018 1.523 . S
C3018 C3002 1.368 . S
C3018 C3014 1.368 . S
C3018 C3017 1.523 . S
H3019 C2994 0.950 . S
H3020 C2996 0.950 . S
H3021 C2997 0.949 . S
H3022 C2999 0.950 . S
H3023 C3001 0.950 . S
C3024 C3025 1.349 . S
C3024 C3026 1.327 . S
C3024 H3049 0.950 . S
C3025 C3024 1.349 . S
C3025 C3041 1.349 . S
C3026 C3024 1.327 . S
C3026 C3045 1.429 . S
C3026 H3050 0.950 . S
C3027 C3044 1.574 . S
C3027 C3046 1.368 . S
C3027 H3051 0.949 . S
H3028 C3032 0.949 . S
C3029 C3030 1.349 . S
C3029 C3031 1.327 . S
C3029 H3052 0.950 . S
C3030 C3029 1.349 . S
C3030 C3042 1.349 . S
C3031 C3029 1.327 . S
C3031 C3047 1.429 . S
C3031 H3053 0.950 . S
C3032 H3028 0.949 . S
C3032 C3040 1.574 . S
C3032 C3048 1.368 . S
H3033 C3041 0.950 . S
H3034 C3039 0.950 . S
H3035 C3040 0.949 . S
H3036 C3042 0.950 . S
H3037 C3043 0.950 . S
H3038 C3044 0.949 . S
C3039 H3034 0.950 . S
C3039 C3041 1.327 . S
C3039 C3045 1.429 . S
C3040 C3032 1.574 . S
C3040 H3035 0.949 . S
C3040 C3046 1.368 . S
C3041 C3025 1.349 . S
C3041 H3033 0.950 . S
C3041 C3039 1.327 . S
C3042 C3030 1.349 . S
C3042 H3036 0.950 . S
C3042 C3043 1.327 . S
C3043 H3037 0.950 . S
C3043 C3042 1.327 . S
C3043 C3047 1.429 . S
C3044 C3027 1.574 . S
C3044 H3038 0.949 . S
C3044 C3048 1.368 . S
C3045 C3026 1.429 . S
C3045 C3039 1.429 . S
C3045 C3046 1.523 . S
C3046 C3027 1.368 . S
C3046 C3040 1.368 . S
C3046 C3045 1.523 . S
C3047 C3031 1.429 . S
C3047 C3043 1.429 . S
C3047 C3048 1.523 . S
C3048 C3032 1.368 . S
C3048 C3044 1.368 . S
C3048 C3047 1.523 . S
H3049 C3024 0.950 . S
H3050 C3026 0.950 . S
H3051 C3027 0.949 . S
H3052 C3029 0.950 . S
H3053 C3031 0.950 . S
C3054 C3055 1.349 . S
C3054 C3056 1.327 . S
C3054 H3079 0.950 . S
C3055 C3054 1.349 . S
C3055 C3071 1.349 . S
C3056 C3054 1.327 . S
C3056 C3075 1.429 . S
C3056 H3080 0.950 . S
C3057 C3074 1.574 . S
C3057 C3076 1.368 . S
C3057 H3081 0.949 . S
H3058 C3062 0.949 . S
C3059 C3060 1.349 . S
C3059 C3061 1.327 . S
C3059 H3082 0.950 . S
C3060 C3059 1.349 . S
C3060 C3072 1.349 . S
C3061 C3059 1.327 . S
C3061 C3077 1.429 . S
C3061 H3083 0.950 . S
C3062 H3058 0.949 . S
C3062 C3070 1.574 . S
C3062 C3078 1.368 . S
H3063 C3071 0.950 . S
H3064 C3069 0.950 . S
H3065 C3070 0.949 . S
H3066 C3072 0.950 . S
H3067 C3073 0.950 . S
H3068 C3074 0.949 . S
C3069 H3064 0.950 . S
C3069 C3071 1.327 . S
C3069 C3075 1.429 . S
C3070 C3062 1.574 . S
C3070 H3065 0.949 . S
C3070 C3076 1.368 . S
C3071 C3055 1.349 . S
C3071 H3063 0.950 . S
C3071 C3069 1.327 . S
C3072 C3060 1.349 . S
C3072 H3066 0.950 . S
C3072 C3073 1.327 . S
C3073 H3067 0.950 . S
C3073 C3072 1.327 . S
C3073 C3077 1.429 . S
C3074 C3057 1.574 . S
C3074 H3068 0.949 . S
C3074 C3078 1.368 . S
C3075 C3056 1.429 . S
C3075 C3069 1.429 . S
C3075 C3076 1.523 . S
C3076 C3057 1.368 . S
C3076 C3070 1.368 . S
C3076 C3075 1.523 . S
C3077 C3061 1.429 . S
C3077 C3073 1.429 . S
C3077 C3078 1.523 . S
C3078 C3062 1.368 . S
C3078 C3074 1.368 . S
C3078 C3077 1.523 . S
H3079 C3054 0.950 . S
H3080 C3056 0.950 . S
H3081 C3057 0.949 . S
H3082 C3059 0.950 . S
H3083 C3061 0.950 . S
C3084 C3085 1.349 . S
C3084 C3086 1.327 . S
C3084 H3109 0.950 . S
C3085 C3084 1.349 . S
C3085 C3101 1.349 . S
C3086 C3084 1.327 . S
C3086 C3105 1.429 . S
C3086 H3110 0.950 . S
C3087 C3104 1.574 . S
C3087 C3106 1.368 . S
C3087 H3111 0.949 . S
H3088 C3092 0.949 . S
C3089 C3090 1.349 . S
C3089 C3091 1.327 . S
C3089 H3112 0.950 . S
C3090 C3089 1.349 . S
C3090 C3102 1.349 . S
C3091 C3089 1.327 . S
C3091 C3107 1.429 . S
C3091 H3113 0.950 . S
C3092 H3088 0.949 . S
C3092 C3100 1.574 . S
C3092 C3108 1.368 . S
H3093 C3101 0.950 . S
H3094 C3099 0.950 . S
H3095 C3100 0.949 . S
H3096 C3102 0.950 . S
H3097 C3103 0.950 . S
H3098 C3104 0.949 . S
C3099 H3094 0.950 . S
C3099 C3101 1.327 . S
C3099 C3105 1.429 . S
C3100 C3092 1.574 . S
C3100 H3095 0.949 . S
C3100 C3106 1.368 . S
C3101 C3085 1.349 . S
C3101 H3093 0.950 . S
C3101 C3099 1.327 . S
C3102 C3090 1.349 . S
C3102 H3096 0.950 . S
C3102 C3103 1.327 . S
C3103 H3097 0.950 . S
C3103 C3102 1.327 . S
C3103 C3107 1.429 . S
C3104 C3087 1.574 . S
C3104 H3098 0.949 . S
C3104 C3108 1.368 . S
C3105 C3086 1.429 . S
C3105 C3099 1.429 . S
C3105 C3106 1.523 . S
C3106 C3087 1.368 . S
C3106 C3100 1.368 . S
C3106 C3105 1.523 . S
C3107 C3091 1.429 . S
C3107 C3103 1.429 . S
C3107 C3108 1.523 . S
C3108 C3092 1.368 . S
C3108 C3104 1.368 . S
C3108 C3107 1.523 . S
H3109 C3084 0.950 . S
H3110 C3086 0.950 . S
H3111 C3087 0.949 . S
H3112 C3089 0.950 . S
H3113 C3091 0.950 . S
C3114 C3115 1.349 . S
C3114 C3116 1.327 . S
C3114 H3139 0.950 . S
C3115 C3114 1.349 . S
C3115 C3131 1.349 . S
C3116 C3114 1.327 . S
C3116 C3135 1.429 . S
C3116 H3140 0.950 . S
C3117 C3134 1.574 . S
C3117 C3136 1.368 . S
C3117 H3141 0.949 . S
H3118 C3122 0.949 . S
C3119 C3120 1.349 . S
C3119 C3121 1.327 . S
C3119 H3142 0.950 . S
C3120 C3119 1.349 . S
C3120 C3132 1.349 . S
C3121 C3119 1.327 . S
C3121 C3137 1.429 . S
C3121 H3143 0.950 . S
C3122 H3118 0.949 . S
C3122 C3130 1.574 . S
C3122 C3138 1.368 . S
H3123 C3131 0.950 . S
H3124 C3129 0.950 . S
H3125 C3130 0.949 . S
H3126 C3132 0.950 . S
H3127 C3133 0.950 . S
H3128 C3134 0.949 . S
C3129 H3124 0.950 . S
C3129 C3131 1.327 . S
C3129 C3135 1.429 . S
C3130 C3122 1.574 . S
C3130 H3125 0.949 . S
C3130 C3136 1.368 . S
C3131 C3115 1.349 . S
C3131 H3123 0.950 . S
C3131 C3129 1.327 . S
C3132 C3120 1.349 . S
C3132 H3126 0.950 . S
C3132 C3133 1.327 . S
C3133 H3127 0.950 . S
C3133 C3132 1.327 . S
C3133 C3137 1.429 . S
C3134 C3117 1.574 . S
C3134 H3128 0.949 . S
C3134 C3138 1.368 . S
C3135 C3116 1.429 . S
C3135 C3129 1.429 . S
C3135 C3136 1.523 . S
C3136 C3117 1.368 . S
C3136 C3130 1.368 . S
C3136 C3135 1.523 . S
C3137 C3121 1.429 . S
C3137 C3133 1.429 . S
C3137 C3138 1.523 . S
C3138 C3122 1.368 . S
C3138 C3134 1.368 . S
C3138 C3137 1.523 . S
H3139 C3114 0.950 . S
H3140 C3116 0.950 . S
H3141 C3117 0.949 . S
H3142 C3119 0.950 . S
H3143 C3121 0.950 . S
C3144 C3145 1.349 . S
C3144 C3146 1.327 . S
C3144 H3169 0.950 . S
C3145 C3144 1.349 . S
C3145 C3161 1.349 . S
C3146 C3144 1.327 . S
C3146 C3165 1.429 . S
C3146 H3170 0.950 . S
C3147 C3164 1.574 . S
C3147 C3166 1.368 . S
C3147 H3171 0.949 . S
H3148 C3152 0.949 . S
C3149 C3150 1.349 . S
C3149 C3151 1.327 . S
C3149 H3172 0.950 . S
C3150 C3149 1.349 . S
C3150 C3162 1.349 . S
C3151 C3149 1.327 . S
C3151 C3167 1.429 . S
C3151 H3173 0.950 . S
C3152 H3148 0.949 . S
C3152 C3160 1.574 . S
C3152 C3168 1.368 . S
H3153 C3161 0.950 . S
H3154 C3159 0.950 . S
H3155 C3160 0.949 . S
H3156 C3162 0.950 . S
H3157 C3163 0.950 . S
H3158 C3164 0.949 . S
C3159 H3154 0.950 . S
C3159 C3161 1.327 . S
C3159 C3165 1.429 . S
C3160 C3152 1.574 . S
C3160 H3155 0.949 . S
C3160 C3166 1.368 . S
C3161 C3145 1.349 . S
C3161 H3153 0.950 . S
C3161 C3159 1.327 . S
C3162 C3150 1.349 . S
C3162 H3156 0.950 . S
C3162 C3163 1.327 . S
C3163 H3157 0.950 . S
C3163 C3162 1.327 . S
C3163 C3167 1.429 . S
C3164 C3147 1.574 . S
C3164 H3158 0.949 . S
C3164 C3168 1.368 . S
C3165 C3146 1.429 . S
C3165 C3159 1.429 . S
C3165 C3166 1.523 . S
C3166 C3147 1.368 . S
C3166 C3160 1.368 . S
C3166 C3165 1.523 . S
C3167 C3151 1.429 . S
C3167 C3163 1.429 . S
C3167 C3168 1.523 . S
C3168 C3152 1.368 . S
C3168 C3164 1.368 . S
C3168 C3167 1.523 . S
H3169 C3144 0.950 . S
H3170 C3146 0.950 . S
H3171 C3147 0.949 . S
H3172 C3149 0.950 . S
H3173 C3151 0.950 . S
C3174 C3175 1.349 . S
C3174 C3176 1.327 . S
C3174 H3199 0.950 . S
C3175 C3174 1.349 . S
C3175 C3191 1.349 . S
C3176 C3174 1.327 . S
C3176 C3195 1.429 . S
C3176 H3200 0.950 . S
C3177 C3194 1.574 . S
C3177 C3196 1.368 . S
C3177 H3201 0.949 . S
H3178 C3182 0.949 . S
C3179 C3180 1.349 . S
C3179 C3181 1.327 . S
C3179 H3202 0.950 . S
C3180 C3179 1.349 . S
C3180 C3192 1.349 . S
C3181 C3179 1.327 . S
C3181 C3197 1.429 . S
C3181 H3203 0.950 . S
C3182 H3178 0.949 . S
C3182 C3190 1.574 . S
C3182 C3198 1.368 . S
H3183 C3191 0.950 . S
H3184 C3189 0.950 . S
H3185 C3190 0.949 . S
H3186 C3192 0.950 . S
H3187 C3193 0.950 . S
H3188 C3194 0.949 . S
C3189 H3184 0.950 . S
C3189 C3191 1.327 . S
C3189 C3195 1.429 . S
C3190 C3182 1.574 . S
C3190 H3185 0.949 . S
C3190 C3196 1.368 . S
C3191 C3175 1.349 . S
C3191 H3183 0.950 . S
C3191 C3189 1.327 . S
C3192 C3180 1.349 . S
C3192 H3186 0.950 . S
C3192 C3193 1.327 . S
C3193 H3187 0.950 . S
C3193 C3192 1.327 . S
C3193 C3197 1.429 . S
C3194 C3177 1.574 . S
C3194 H3188 0.949 . S
C3194 C3198 1.368 . S
C3195 C3176 1.429 . S
C3195 C3189 1.429 . S
C3195 C3196 1.523 . S
C3196 C3177 1.368 . S
C3196 C3190 1.368 . S
C3196 C3195 1.523 . S
C3197 C3181 1.429 . S
C3197 C3193 1.429 . S
C3197 C3198 1.523 . S
C3198 C3182 1.368 . S
C3198 C3194 1.368 . S
C3198 C3197 1.523 . S
H3199 C3174 0.950 . S
H3200 C3176 0.950 . S
H3201 C3177 0.949 . S
H3202 C3179 0.950 . S
H3203 C3181 0.950 . S
C3204 C3205 1.349 . S
C3204 C3206 1.327 . S
C3204 H3229 0.950 . S
C3205 C3204 1.349 . S
C3205 C3221 1.349 . S
C3206 C3204 1.327 . S
C3206 C3225 1.429 . S
C3206 H3230 0.950 . S
C3207 C3224 1.574 . S
C3207 C3226 1.368 . S
C3207 H3231 0.949 . S
H3208 C3212 0.949 . S
C3209 C3210 1.349 . S
C3209 C3211 1.327 . S
C3209 H3232 0.950 . S
C3210 C3209 1.349 . S
C3210 C3222 1.349 . S
C3211 C3209 1.327 . S
C3211 C3227 1.429 . S
C3211 H3233 0.950 . S
C3212 H3208 0.949 . S
C3212 C3220 1.574 . S
C3212 C3228 1.368 . S
H3213 C3221 0.950 . S
H3214 C3219 0.950 . S
H3215 C3220 0.949 . S
H3216 C3222 0.950 . S
H3217 C3223 0.950 . S
H3218 C3224 0.949 . S
C3219 H3214 0.950 . S
C3219 C3221 1.327 . S
C3219 C3225 1.429 . S
C3220 C3212 1.574 . S
C3220 H3215 0.949 . S
C3220 C3226 1.368 . S
C3221 C3205 1.349 . S
C3221 H3213 0.950 . S
C3221 C3219 1.327 . S
C3222 C3210 1.349 . S
C3222 H3216 0.950 . S
C3222 C3223 1.327 . S
C3223 H3217 0.950 . S
C3223 C3222 1.327 . S
C3223 C3227 1.429 . S
C3224 C3207 1.574 . S
C3224 H3218 0.949 . S
C3224 C3228 1.368 . S
C3225 C3206 1.429 . S
C3225 C3219 1.429 . S
C3225 C3226 1.523 . S
C3226 C3207 1.368 . S
C3226 C3220 1.368 . S
C3226 C3225 1.523 . S
C3227 C3211 1.429 . S
C3227 C3223 1.429 . S
C3227 C3228 1.523 . S
C3228 C3212 1.368 . S
C3228 C3224 1.368 . S
C3228 C3227 1.523 . S
H3229 C3204 0.950 . S
H3230 C3206 0.950 . S
H3231 C3207 0.949 . S
H3232 C3209 0.950 . S
H3233 C3211 0.950 . S
C3234 C3235 1.349 . S
C3234 C3236 1.327 . S
C3234 H3259 0.950 . S
C3235 C3234 1.349 . S
C3235 C3251 1.349 . S
C3236 C3234 1.327 . S
C3236 C3255 1.429 . S
C3236 H3260 0.950 . S
C3237 C3254 1.574 . S
C3237 C3256 1.368 . S
C3237 H3261 0.949 . S
H3238 C3242 0.949 . S
C3239 C3240 1.349 . S
C3239 C3241 1.327 . S
C3239 H3262 0.950 . S
C3240 C3239 1.349 . S
C3240 C3252 1.349 . S
C3241 C3239 1.327 . S
C3241 C3257 1.429 . S
C3241 H3263 0.950 . S
C3242 H3238 0.949 . S
C3242 C3250 1.574 . S
C3242 C3258 1.368 . S
H3243 C3251 0.950 . S
H3244 C3249 0.950 . S
H3245 C3250 0.949 . S
H3246 C3252 0.950 . S
H3247 C3253 0.950 . S
H3248 C3254 0.949 . S
C3249 H3244 0.950 . S
C3249 C3251 1.327 . S
C3249 C3255 1.429 . S
C3250 C3242 1.574 . S
C3250 H3245 0.949 . S
C3250 C3256 1.368 . S
C3251 C3235 1.349 . S
C3251 H3243 0.950 . S
C3251 C3249 1.327 . S
C3252 C3240 1.349 . S
C3252 H3246 0.950 . S
C3252 C3253 1.327 . S
C3253 H3247 0.950 . S
C3253 C3252 1.327 . S
C3253 C3257 1.429 . S
C3254 C3237 1.574 . S
C3254 H3248 0.949 . S
C3254 C3258 1.368 . S
C3255 C3236 1.429 . S
C3255 C3249 1.429 . S
C3255 C3256 1.523 . S
C3256 C3237 1.368 . S
C3256 C3250 1.368 . S
C3256 C3255 1.523 . S
C3257 C3241 1.429 . S
C3257 C3253 1.429 . S
C3257 C3258 1.523 . S
C3258 C3242 1.368 . S
C3258 C3254 1.368 . S
C3258 C3257 1.523 . S
H3259 C3234 0.950 . S
H3260 C3236 0.950 . S
H3261 C3237 0.949 . S
H3262 C3239 0.950 . S
H3263 C3241 0.950 . S
C3264 C3265 1.349 . S
C3264 C3266 1.327 . S
C3264 H3289 0.950 . S
C3265 C3264 1.349 . S
C3265 C3281 1.349 . S
C3266 C3264 1.327 . S
C3266 C3285 1.429 . S
C3266 H3290 0.950 . S
C3267 C3284 1.574 . S
C3267 C3286 1.368 . S
C3267 H3291 0.949 . S
H3268 C3272 0.949 . S
C3269 C3270 1.349 . S
C3269 C3271 1.327 . S
C3269 H3292 0.950 . S
C3270 C3269 1.349 . S
C3270 C3282 1.349 . S
C3271 C3269 1.327 . S
C3271 C3287 1.429 . S
C3271 H3293 0.950 . S
C3272 H3268 0.949 . S
C3272 C3280 1.574 . S
C3272 C3288 1.368 . S
H3273 C3281 0.950 . S
H3274 C3279 0.950 . S
H3275 C3280 0.949 . S
H3276 C3282 0.950 . S
H3277 C3283 0.950 . S
H3278 C3284 0.949 . S
C3279 H3274 0.950 . S
C3279 C3281 1.327 . S
C3279 C3285 1.429 . S
C3280 C3272 1.574 . S
C3280 H3275 0.949 . S
C3280 C3286 1.368 . S
C3281 C3265 1.349 . S
C3281 H3273 0.950 . S
C3281 C3279 1.327 . S
C3282 C3270 1.349 . S
C3282 H3276 0.950 . S
C3282 C3283 1.327 . S
C3283 H3277 0.950 . S
C3283 C3282 1.327 . S
C3283 C3287 1.429 . S
C3284 C3267 1.574 . S
C3284 H3278 0.949 . S
C3284 C3288 1.368 . S
C3285 C3266 1.429 . S
C3285 C3279 1.429 . S
C3285 C3286 1.523 . S
C3286 C3267 1.368 . S
C3286 C3280 1.368 . S
C3286 C3285 1.523 . S
C3287 C3271 1.429 . S
C3287 C3283 1.429 . S
C3287 C3288 1.523 . S
C3288 C3272 1.368 . S
C3288 C3284 1.368 . S
C3288 C3287 1.523 . S
H3289 C3264 0.950 . S
H3290 C3266 0.950 . S
H3291 C3267 0.949 . S
H3292 C3269 0.950 . S
H3293 C3271 0.950 . S
C3294 C3295 1.349 . S
C3294 C3296 1.327 . S
C3294 H3319 0.950 . S
C3295 C3294 1.349 . S
C3295 C3311 1.349 . S
C3296 C3294 1.327 . S
C3296 C3315 1.429 . S
C3296 H3320 0.950 . S
C3297 C3314 1.574 . S
C3297 C3316 1.368 . S
C3297 H3321 0.949 . S
H3298 C3302 0.949 . S
C3299 C3300 1.349 . S
C3299 C3301 1.327 . S
C3299 H3322 0.950 . S
C3300 C3299 1.349 . S
C3300 C3312 1.349 . S
C3301 C3299 1.327 . S
C3301 C3317 1.429 . S
C3301 H3323 0.950 . S
C3302 H3298 0.949 . S
C3302 C3310 1.574 . S
C3302 C3318 1.368 . S
H3303 C3311 0.950 . S
H3304 C3309 0.950 . S
H3305 C3310 0.949 . S
H3306 C3312 0.950 . S
H3307 C3313 0.950 . S
H3308 C3314 0.949 . S
C3309 H3304 0.950 . S
C3309 C3311 1.327 . S
C3309 C3315 1.429 . S
C3310 C3302 1.574 . S
C3310 H3305 0.949 . S
C3310 C3316 1.368 . S
C3311 C3295 1.349 . S
C3311 H3303 0.950 . S
C3311 C3309 1.327 . S
C3312 C3300 1.349 . S
C3312 H3306 0.950 . S
C3312 C3313 1.327 . S
C3313 H3307 0.950 . S
C3313 C3312 1.327 . S
C3313 C3317 1.429 . S
C3314 C3297 1.574 . S
C3314 H3308 0.949 . S
C3314 C3318 1.368 . S
C3315 C3296 1.429 . S
C3315 C3309 1.429 . S
C3315 C3316 1.523 . S
C3316 C3297 1.368 . S
C3316 C3310 1.368 . S
C3316 C3315 1.523 . S
C3317 C3301 1.429 . S
C3317 C3313 1.429 . S
C3317 C3318 1.523 . S
C3318 C3302 1.368 . S
C3318 C3314 1.368 . S
C3318 C3317 1.523 . S
H3319 C3294 0.950 . S
H3320 C3296 0.950 . S
H3321 C3297 0.949 . S
H3322 C3299 0.950 . S
H3323 C3301 0.950 . S
C3324 C3325 1.349 . S
C3324 C3326 1.327 . S
C3324 H3349 0.950 . S
C3325 C3324 1.349 . S
C3325 C3341 1.349 . S
C3326 C3324 1.327 . S
C3326 C3345 1.429 . S
C3326 H3350 0.950 . S
C3327 C3344 1.574 . S
C3327 C3346 1.368 . S
C3327 H3351 0.949 . S
H3328 C3332 0.949 . S
C3329 C3330 1.349 . S
C3329 C3331 1.327 . S
C3329 H3352 0.950 . S
C3330 C3329 1.349 . S
C3330 C3342 1.349 . S
C3331 C3329 1.327 . S
C3331 C3347 1.429 . S
C3331 H3353 0.950 . S
C3332 H3328 0.949 . S
C3332 C3340 1.574 . S
C3332 C3348 1.368 . S
H3333 C3341 0.950 . S
H3334 C3339 0.950 . S
H3335 C3340 0.949 . S
H3336 C3342 0.950 . S
H3337 C3343 0.950 . S
H3338 C3344 0.949 . S
C3339 H3334 0.950 . S
C3339 C3341 1.327 . S
C3339 C3345 1.429 . S
C3340 C3332 1.574 . S
C3340 H3335 0.949 . S
C3340 C3346 1.368 . S
C3341 C3325 1.349 . S
C3341 H3333 0.950 . S
C3341 C3339 1.327 . S
C3342 C3330 1.349 . S
C3342 H3336 0.950 . S
C3342 C3343 1.327 . S
C3343 H3337 0.950 . S
C3343 C3342 1.327 . S
C3343 C3347 1.429 . S
C3344 C3327 1.574 . S
C3344 H3338 0.949 . S
C3344 C3348 1.368 . S
C3345 C3326 1.429 . S
C3345 C3339 1.429 . S
C3345 C3346 1.523 . S
C3346 C3327 1.368 . S
C3346 C3340 1.368 . S
C3346 C3345 1.523 . S
C3347 C3331 1.429 . S
C3347 C3343 1.429 . S
C3347 C3348 1.523 . S
C3348 C3332 1.368 . S
C3348 C3344 1.368 . S
C3348 C3347 1.523 . S
H3349 C3324 0.950 . S
H3350 C3326 0.950 . S
H3351 C3327 0.949 . S
H3352 C3329 0.950 . S
H3353 C3331 0.950 . S
C3354 C3355 1.349 . S
C3354 C3356 1.327 . S
C3354 H3379 0.950 . S
C3355 C3354 1.349 . S
C3355 C3371 1.349 . S
C3356 C3354 1.327 . S
C3356 C3375 1.429 . S
C3356 H3380 0.950 . S
C3357 C3374 1.574 . S
C3357 C3376 1.368 . S
C3357 H3381 0.949 . S
H3358 C3362 0.949 . S
C3359 C3360 1.349 . S
C3359 C3361 1.327 . S
C3359 H3382 0.950 . S
C3360 C3359 1.349 . S
C3360 C3372 1.349 . S
C3361 C3359 1.327 . S
C3361 C3377 1.429 . S
C3361 H3383 0.950 . S
C3362 H3358 0.949 . S
C3362 C3370 1.574 . S
C3362 C3378 1.368 . S
H3363 C3371 0.950 . S
H3364 C3369 0.950 . S
H3365 C3370 0.949 . S
H3366 C3372 0.950 . S
H3367 C3373 0.950 . S
H3368 C3374 0.949 . S
C3369 H3364 0.950 . S
C3369 C3371 1.327 . S
C3369 C3375 1.429 . S
C3370 C3362 1.574 . S
C3370 H3365 0.949 . S
C3370 C3376 1.368 . S
C3371 C3355 1.349 . S
C3371 H3363 0.950 . S
C3371 C3369 1.327 . S
C3372 C3360 1.349 . S
C3372 H3366 0.950 . S
C3372 C3373 1.327 . S
C3373 H3367 0.950 . S
C3373 C3372 1.327 . S
C3373 C3377 1.429 . S
C3374 C3357 1.574 . S
C3374 H3368 0.949 . S
C3374 C3378 1.368 . S
C3375 C3356 1.429 . S
C3375 C3369 1.429 . S
C3375 C3376 1.523 . S
C3376 C3357 1.368 . S
C3376 C3370 1.368 . S
C3376 C3375 1.523 . S
C3377 C3361 1.429 . S
C3377 C3373 1.429 . S
C3377 C3378 1.523 . S
C3378 C3362 1.368 . S
C3378 C3374 1.368 . S
C3378 C3377 1.523 . S
H3379 C3354 0.950 . S
H3380 C3356 0.950 . S
H3381 C3357 0.949 . S
H3382 C3359 0.950 . S
H3383 C3361 0.950 . S
C3384 C3385 1.349 . S
C3384 C3386 1.327 . S
C3384 H3409 0.950 . S
C3385 C3384 1.349 . S
C3385 C3401 1.349 . S
C3386 C3384 1.327 . S
C3386 C3405 1.429 . S
C3386 H3410 0.950 . S
C3387 C3404 1.574 . S
C3387 C3406 1.368 . S
C3387 H3411 0.949 . S
H3388 C3392 0.949 . S
C3389 C3390 1.349 . S
C3389 C3391 1.327 . S
C3389 H3412 0.950 . S
C3390 C3389 1.349 . S
C3390 C3402 1.349 . S
C3391 C3389 1.327 . S
C3391 C3407 1.429 . S
C3391 H3413 0.950 . S
C3392 H3388 0.949 . S
C3392 C3400 1.574 . S
C3392 C3408 1.368 . S
H3393 C3401 0.950 . S
H3394 C3399 0.950 . S
H3395 C3400 0.949 . S
H3396 C3402 0.950 . S
H3397 C3403 0.950 . S
H3398 C3404 0.949 . S
C3399 H3394 0.950 . S
C3399 C3401 1.327 . S
C3399 C3405 1.429 . S
C3400 C3392 1.574 . S
C3400 H3395 0.949 . S
C3400 C3406 1.368 . S
C3401 C3385 1.349 . S
C3401 H3393 0.950 . S
C3401 C3399 1.327 . S
C3402 C3390 1.349 . S
C3402 H3396 0.950 . S
C3402 C3403 1.327 . S
C3403 H3397 0.950 . S
C3403 C3402 1.327 . S
C3403 C3407 1.429 . S
C3404 C3387 1.574 . S
C3404 H3398 0.949 . S
C3404 C3408 1.368 . S
C3405 C3386 1.429 . S
C3405 C3399 1.429 . S
C3405 C3406 1.523 . S
C3406 C3387 1.368 . S
C3406 C3400 1.368 . S
C3406 C3405 1.523 . S
C3407 C3391 1.429 . S
C3407 C3403 1.429 . S
C3407 C3408 1.523 . S
C3408 C3392 1.368 . S
C3408 C3404 1.368 . S
C3408 C3407 1.523 . S
H3409 C3384 0.950 . S
H3410 C3386 0.950 . S
H3411 C3387 0.949 . S
H3412 C3389 0.950 . S
H3413 C3391 0.950 . S
C3414 C3415 1.349 . S
C3414 C3416 1.327 . S
C3414 H3439 0.950 . S
C3415 C3414 1.349 . S
C3415 C3431 1.349 . S
C3416 C3414 1.327 . S
C3416 C3435 1.429 . S
C3416 H3440 0.950 . S
C3417 C3434 1.574 . S
C3417 C3436 1.368 . S
C3417 H3441 0.949 . S
H3418 C3422 0.949 . S
C3419 C3420 1.349 . S
C3419 C3421 1.327 . S
C3419 H3442 0.950 . S
C3420 C3419 1.349 . S
C3420 C3432 1.349 . S
C3421 C3419 1.327 . S
C3421 C3437 1.429 . S
C3421 H3443 0.950 . S
C3422 H3418 0.949 . S
C3422 C3430 1.574 . S
C3422 C3438 1.368 . S
H3423 C3431 0.950 . S
H3424 C3429 0.950 . S
H3425 C3430 0.949 . S
H3426 C3432 0.950 . S
H3427 C3433 0.950 . S
H3428 C3434 0.949 . S
C3429 H3424 0.950 . S
C3429 C3431 1.327 . S
C3429 C3435 1.429 . S
C3430 C3422 1.574 . S
C3430 H3425 0.949 . S
C3430 C3436 1.368 . S
C3431 C3415 1.349 . S
C3431 H3423 0.950 . S
C3431 C3429 1.327 . S
C3432 C3420 1.349 . S
C3432 H3426 0.950 . S
C3432 C3433 1.327 . S
C3433 H3427 0.950 . S
C3433 C3432 1.327 . S
C3433 C3437 1.429 . S
C3434 C3417 1.574 . S
C3434 H3428 0.949 . S
C3434 C3438 1.368 . S
C3435 C3416 1.429 . S
C3435 C3429 1.429 . S
C3435 C3436 1.523 . S
C3436 C3417 1.368 . S
C3436 C3430 1.368 . S
C3436 C3435 1.523 . S
C3437 C3421 1.429 . S
C3437 C3433 1.429 . S
C3437 C3438 1.523 . S
C3438 C3422 1.368 . S
C3438 C3434 1.368 . S
C3438 C3437 1.523 . S
H3439 C3414 0.950 . S
H3440 C3416 0.950 . S
H3441 C3417 0.949 . S
H3442 C3419 0.950 . S
H3443 C3421 0.950 . S
C3444 C3445 1.349 . S
C3444 C3446 1.327 . S
C3444 H3469 0.950 . S
C3445 C3444 1.349 . S
C3445 C3461 1.349 . S
C3446 C3444 1.327 . S
C3446 C3465 1.429 . S
C3446 H3470 0.950 . S
C3447 C3464 1.574 . S
C3447 C3466 1.368 . S
C3447 H3471 0.949 . S
H3448 C3452 0.949 . S
C3449 C3450 1.349 . S
C3449 C3451 1.327 . S
C3449 H3472 0.950 . S
C3450 C3449 1.349 . S
C3450 C3462 1.349 . S
C3451 C3449 1.327 . S
C3451 C3467 1.429 . S
C3451 H3473 0.950 . S
C3452 H3448 0.949 . S
C3452 C3460 1.574 . S
C3452 C3468 1.368 . S
H3453 C3461 0.950 . S
H3454 C3459 0.950 . S
H3455 C3460 0.949 . S
H3456 C3462 0.950 . S
H3457 C3463 0.950 . S
H3458 C3464 0.949 . S
C3459 H3454 0.950 . S
C3459 C3461 1.327 . S
C3459 C3465 1.429 . S
C3460 C3452 1.574 . S
C3460 H3455 0.949 . S
C3460 C3466 1.368 . S
C3461 C3445 1.349 . S
C3461 H3453 0.950 . S
C3461 C3459 1.327 . S
C3462 C3450 1.349 . S
C3462 H3456 0.950 . S
C3462 C3463 1.327 . S
C3463 H3457 0.950 . S
C3463 C3462 1.327 . S
C3463 C3467 1.429 . S
C3464 C3447 1.574 . S
C3464 H3458 0.949 . S
C3464 C3468 1.368 . S
C3465 C3446 1.429 . S
C3465 C3459 1.429 . S
C3465 C3466 1.523 . S
C3466 C3447 1.368 . S
C3466 C3460 1.368 . S
C3466 C3465 1.523 . S
C3467 C3451 1.429 . S
C3467 C3463 1.429 . S
C3467 C3468 1.523 . S
C3468 C3452 1.368 . S
C3468 C3464 1.368 . S
C3468 C3467 1.523 . S
H3469 C3444 0.950 . S
H3470 C3446 0.950 . S
H3471 C3447 0.949 . S
H3472 C3449 0.950 . S
H3473 C3451 0.950 . S
C3474 C3475 1.349 . S
C3474 C3476 1.327 . S
C3474 H3499 0.950 . S
C3475 C3474 1.349 . S
C3475 C3491 1.349 . S
C3476 C3474 1.327 . S
C3476 C3495 1.429 . S
C3476 H3500 0.950 . S
C3477 C3494 1.574 . S
C3477 C3496 1.368 . S
C3477 H3501 0.949 . S
H3478 C3482 0.949 . S
C3479 C3480 1.349 . S
C3479 C3481 1.327 . S
C3479 H3502 0.950 . S
C3480 C3479 1.349 . S
C3480 C3492 1.349 . S
C3481 C3479 1.327 . S
C3481 C3497 1.429 . S
C3481 H3503 0.950 . S
C3482 H3478 0.949 . S
C3482 C3490 1.574 . S
C3482 C3498 1.368 . S
H3483 C3491 0.950 . S
H3484 C3489 0.950 . S
H3485 C3490 0.949 . S
H3486 C3492 0.950 . S
H3487 C3493 0.950 . S
H3488 C3494 0.949 . S
C3489 H3484 0.950 . S
C3489 C3491 1.327 . S
C3489 C3495 1.429 . S
C3490 C3482 1.574 . S
C3490 H3485 0.949 . S
C3490 C3496 1.368 . S
C3491 C3475 1.349 . S
C3491 H3483 0.950 . S
C3491 C3489 1.327 . S
C3492 C3480 1.349 . S
C3492 H3486 0.950 . S
C3492 C3493 1.327 . S
C3493 H3487 0.950 . S
C3493 C3492 1.327 . S
C3493 C3497 1.429 . S
C3494 C3477 1.574 . S
C3494 H3488 0.949 . S
C3494 C3498 1.368 . S
C3495 C3476 1.429 . S
C3495 C3489 1.429 . S
C3495 C3496 1.523 . S
C3496 C3477 1.368 . S
C3496 C3490 1.368 . S
C3496 C3495 1.523 . S
C3497 C3481 1.429 . S
C3497 C3493 1.429 . S
C3497 C3498 1.523 . S
C3498 C3482 1.368 . S
C3498 C3494 1.368 . S
C3498 C3497 1.523 . S
H3499 C3474 0.950 . S
H3500 C3476 0.950 . S
H3501 C3477 0.949 . S
H3502 C3479 0.950 . S
H3503 C3481 0.950 . S
C625 C117 1.485 . S
C630 C0 1.485 . S
C655 C130 1.485 . S
C660 C13 1.485 . S
C685 C143 1.485 . S
C690 C26 1.485 . S
C715 C39 1.485 . S
C720 C104 1.485 . S
C745 C195 1.485 . S
C750 C52 1.485 . S
C775 C65 1.485 . S
C780 C156 1.485 . S
C805 C169 1.485 . S
C810 C78 1.485 . S
C835 C182 1.485 . S
C840 C91 1.485 . S
C865 C208 1.485 . S
C870 C234 1.485 . S
C895 C221 1.485 . S
C900 C286 1.485 . S
C925 C247 1.485 . S
C930 C299 1.485 . S
C955 C260 1.485 . S
C960 C273 1.485 . S
C985 C312 1.485 . S
C990 C429 1.485 . S
C1015 C442 1.485 . S
C1020 C325 1.485 . S
C1045 C338 1.485 . S
C1050 C455 1.485 . S
C1075 C351 1.485 . S
C1080 C416 1.485 . S
C1105 C507 1.485 . S
C1110 C364 1.485 . S
C1135 C468 1.485 . S
C1140 C377 1.485 . S
C1165 C481 1.485 . S
C1170 C390 1.485 . S
C1195 C494 1.485 . S
C1200 C403 1.485 . S
C1225 C520 1.485 . S
C1230 C546 1.485 . S
C1255 C533 1.485 . S
C1260 C598 1.485 . S
C1285 C559 1.485 . S
C1290 C611 1.485 . S
C1315 C585 1.485 . S
C1320 C572 1.485 . S
C1345 C109 0.781 . S
C1350 C8 0.801 . S
C1375 C122 0.781 . S
C1380 C21 0.801 . S
C1405 C34 0.801 . S
C1410 C135 0.781 . S
C1435 C47 0.801 . S
C1440 C148 0.781 . S
C1465 C60 0.801 . S
C1470 C161 0.781 . S
C1495 C73 0.801 . S
C1500 C174 0.781 . S
C1525 C86 0.801 . S
C1530 C187 0.781 . S
C1555 C200 0.781 . S
C1560 C99 0.801 . S
C1585 C112 0.801 . S
C1590 C213 0.781 . S
C1615 C304 0.781 . S
C1620 C125 0.801 . S
C1645 C138 0.801 . S
C1650 C278 0.781 . S
C1675 C151 0.801 . S
C1680 C291 0.781 . S
C1705 C164 0.801 . S
C1710 C226 0.781 . S
C1735 C177 0.801 . S
C1740 C239 0.781 . S
C1765 C190 0.801 . S
C1770 C252 0.781 . S
C1795 C265 0.781 . S
C1800 C203 0.801 . S
C1825 C5 0.781 . S
C1830 C216 0.801 . S
C1855 C229 0.801 . S
C1860 C57 0.781 . S
C1885 C242 0.801 . S
C1890 C70 0.781 . S
C1915 C255 0.801 . S
C1920 C83 0.781 . S
C1945 C96 0.781 . S
C1950 C268 0.801 . S
C1975 C281 0.801 . S
C1980 C31 0.781 . S
C2005 C294 0.801 . S
C2010 C44 0.781 . S
C2035 C18 0.781 . S
C2040 C307 0.801 . S
C2065 C421 0.781 . S
C2070 C320 0.801 . S
C2095 C333 0.801 . S
C2100 C434 0.781 . S
C2125 C346 0.801 . S
C2130 C447 0.781 . S
C2155 C460 0.781 . S
C2160 C359 0.801 . S
C2185 C473 0.781 . S
C2190 C372 0.801 . S
C2215 C385 0.801 . S
C2220 C486 0.781 . S
C2245 C499 0.781 . S
C2250 C398 0.801 . S
C2275 C512 0.781 . S
C2280 C411 0.801 . S
C2305 C424 0.801 . S
C2310 C525 0.781 . S
C2335 C437 0.801 . S
C2340 C616 0.781 . S
C2365 C450 0.801 . S
C2370 C590 0.781 . S
C2395 C603 0.781 . S
C2400 C463 0.801 . S
C2425 C476 0.801 . S
C2430 C538 0.781 . S
C2455 C489 0.801 . S
C2460 C551 0.781 . S
C2485 C564 0.781 . S
C2490 C502 0.801 . S
C2515 C577 0.781 . S
C2520 C515 0.801 . S
C2545 C528 0.801 . S
C2550 C317 0.781 . S
C2575 C541 0.801 . S
C2580 C369 0.781 . S
C2605 C382 0.781 . S
C2610 C554 0.801 . S
C2635 C567 0.801 . S
C2640 C395 0.781 . S
C2665 C580 0.801 . S
C2670 C408 0.781 . S
C2695 C343 0.781 . S
C2700 C593 0.801 . S
C2725 C606 0.801 . S
C2730 C356 0.781 . S
C2755 C330 0.781 . S
C2760 C619 0.801 . S
C2785 C413 1.360 . S
C2790 C10 1.360 . S
C2815 C23 1.360 . S
C2820 C374 1.360 . S
C2845 C387 1.360 . S
C2850 C36 1.360 . S
C2875 C400 1.360 . S
C2880 C49 1.360 . S
C2905 C62 1.360 . S
C2910 C335 1.360 . S
C2935 C348 1.360 . S
C2940 C75 1.360 . S
C2965 C361 1.360 . S
C2970 C88 1.360 . S
C2995 C101 1.360 . S
C3000 C322 1.360 . S
C3025 C582 1.360 . S
C3030 C114 1.360 . S
C3055 C127 1.360 . S
C3060 C543 1.360 . S
C3085 C140 1.360 . S
C3090 C556 1.360 . S
C3115 C569 1.360 . S
C3120 C153 1.360 . S
C3145 C621 1.360 . S
C3150 C166 1.360 . S
C3175 C595 1.360 . S
C3180 C179 1.360 . S
C3205 C192 1.360 . S
C3210 C608 1.360 . S
C3235 C530 1.360 . S
C3240 C205 1.360 . S
C3265 C218 1.360 . S
C3270 C517 1.360 . S
C3295 C439 1.360 . S
C3300 C231 1.360 . S
C3325 C244 1.360 . S
C3330 C452 1.360 . S
C3355 C465 1.360 . S
C3360 C257 1.360 . S
C3385 C426 1.360 . S
C3390 C270 1.360 . S
C3415 C283 1.360 . S
C3420 C491 1.360 . S
C3445 C504 1.360 . S
C3450 C296 1.360 . S
C3475 C478 1.360 . S
C3480 C309 1.360 . S
