# Generated by pormake.
# Topology uky, (4)-cn, num edge types: 1
# Building blocks:
#     Node 0, Type 0, BuildingBlock: GALJAG_clean_sbu_0, # of connection points: 4
#     Node 1, Type 0, BuildingBlock: GALJAG_clean_sbu_0, # of connection points: 4
#     Node 2, Type 0, BuildingBlock: GALJAG_clean_sbu_0, # of connection points: 4
#     Node 3, Type 0, BuildingBlock: GALJAG_clean_sbu_0, # of connection points: 4
#     Node 4, Type 0, BuildingBlock: GALJAG_clean_sbu_0, # of connection points: 4
#     Node 5, Type 0, BuildingBlock: GALJAG_clean_sbu_0, # of connection points: 4
#     Node 6, Type 0, BuildingBlock: GALJAG_clean_sbu_0, # of connection points: 4
#     Node 7, Type 0, BuildingBlock: GALJAG_clean_sbu_0, # of connection points: 4
#     Node 8, Type 0, BuildingBlock: GALJAG_clean_sbu_0, # of connection points: 4
#     Node 9, Type 0, BuildingBlock: GALJAG_clean_sbu_0, # of connection points: 4
#     Node 10, Type 0, BuildingBlock: GALJAG_clean_sbu_0, # of connection points: 4
#     Node 11, Type 0, BuildingBlock: GALJAG_clean_sbu_0, # of connection points: 4
#     Node 12, Type 0, BuildingBlock: GALJAG_clean_sbu_0, # of connection points: 4
#     Node 13, Type 0, BuildingBlock: GALJAG_clean_sbu_0, # of connection points: 4
#     Node 14, Type 0, BuildingBlock: GALJAG_clean_sbu_0, # of connection points: 4
#     Node 15, Type 0, BuildingBlock: GALJAG_clean_sbu_0, # of connection points: 4
#     Node 16, Type 0, BuildingBlock: GALJAG_clean_sbu_0, # of connection points: 4
#     Node 17, Type 0, BuildingBlock: GALJAG_clean_sbu_0, # of connection points: 4
#     Node 18, Type 0, BuildingBlock: GALJAG_clean_sbu_0, # of connection points: 4
#     Node 19, Type 0, BuildingBlock: GALJAG_clean_sbu_0, # of connection points: 4
#     Node 20, Type 0, BuildingBlock: GALJAG_clean_sbu_0, # of connection points: 4
#     Node 21, Type 0, BuildingBlock: GALJAG_clean_sbu_0, # of connection points: 4
#     Node 22, Type 0, BuildingBlock: GALJAG_clean_sbu_0, # of connection points: 4
#     Node 23, Type 0, BuildingBlock: GALJAG_clean_sbu_0, # of connection points: 4
#     Node 24, Type 0, BuildingBlock: GALJAG_clean_sbu_0, # of connection points: 4
#     Node 25, Type 0, BuildingBlock: GALJAG_clean_sbu_0, # of connection points: 4
#     Node 26, Type 0, BuildingBlock: GALJAG_clean_sbu_0, # of connection points: 4
#     Node 27, Type 0, BuildingBlock: GALJAG_clean_sbu_0, # of connection points: 4
#     Node 28, Type 0, BuildingBlock: GALJAG_clean_sbu_0, # of connection points: 4
#     Node 29, Type 0, BuildingBlock: GALJAG_clean_sbu_0, # of connection points: 4
#     Node 30, Type 0, BuildingBlock: GALJAG_clean_sbu_0, # of connection points: 4
#     Node 31, Type 0, BuildingBlock: GALJAG_clean_sbu_0, # of connection points: 4
#     Node 32, Type 0, BuildingBlock: GALJAG_clean_sbu_0, # of connection points: 4
#     Node 33, Type 0, BuildingBlock: GALJAG_clean_sbu_0, # of connection points: 4
#     Node 34, Type 0, BuildingBlock: GALJAG_clean_sbu_0, # of connection points: 4
#     Node 35, Type 0, BuildingBlock: GALJAG_clean_sbu_0, # of connection points: 4
#     Node 36, Type 0, BuildingBlock: GALJAG_clean_sbu_0, # of connection points: 4
#     Node 37, Type 0, BuildingBlock: GALJAG_clean_sbu_0, # of connection points: 4
#     Node 38, Type 0, BuildingBlock: GALJAG_clean_sbu_0, # of connection points: 4
#     Node 39, Type 0, BuildingBlock: GALJAG_clean_sbu_0, # of connection points: 4
#     Node 40, Type 0, BuildingBlock: GALJAG_clean_sbu_0, # of connection points: 4
#     Node 41, Type 0, BuildingBlock: GALJAG_clean_sbu_0, # of connection points: 4
#     Node 42, Type 0, BuildingBlock: GALJAG_clean_sbu_0, # of connection points: 4
#     Node 43, Type 0, BuildingBlock: GALJAG_clean_sbu_0, # of connection points: 4
#     Node 44, Type 0, BuildingBlock: GALJAG_clean_sbu_0, # of connection points: 4
#     Node 45, Type 0, BuildingBlock: GALJAG_clean_sbu_0, # of connection points: 4
#     Node 46, Type 0, BuildingBlock: GALJAG_clean_sbu_0, # of connection points: 4
#     Node 47, Type 0, BuildingBlock: GALJAG_clean_sbu_0, # of connection points: 4
#     Edge 48, Type (0, 0), None
#     Edge 49, Type (0, 0), None
#     Edge 50, Type (0, 0), None
#     Edge 51, Type (0, 0), None
#     Edge 52, Type (0, 0), None
#     Edge 53, Type (0, 0), None
#     Edge 54, Type (0, 0), None
#     Edge 55, Type (0, 0), None
#     Edge 56, Type (0, 0), None
#     Edge 57, Type (0, 0), None
#     Edge 58, Type (0, 0), None
#     Edge 59, Type (0, 0), None
#     Edge 60, Type (0, 0), None
#     Edge 61, Type (0, 0), None
#     Edge 62, Type (0, 0), None
#     Edge 63, Type (0, 0), None
#     Edge 64, Type (0, 0), None
#     Edge 65, Type (0, 0), None
#     Edge 66, Type (0, 0), None
#     Edge 67, Type (0, 0), None
#     Edge 68, Type (0, 0), None
#     Edge 69, Type (0, 0), None
#     Edge 70, Type (0, 0), None
#     Edge 71, Type (0, 0), None
#     Edge 72, Type (0, 0), None
#     Edge 73, Type (0, 0), None
#     Edge 74, Type (0, 0), None
#     Edge 75, Type (0, 0), None
#     Edge 76, Type (0, 0), None
#     Edge 77, Type (0, 0), None
#     Edge 78, Type (0, 0), None
#     Edge 79, Type (0, 0), None
#     Edge 80, Type (0, 0), None
#     Edge 81, Type (0, 0), None
#     Edge 82, Type (0, 0), None
#     Edge 83, Type (0, 0), None
#     Edge 84, Type (0, 0), None
#     Edge 85, Type (0, 0), None
#     Edge 86, Type (0, 0), None
#     Edge 87, Type (0, 0), None
#     Edge 88, Type (0, 0), None
#     Edge 89, Type (0, 0), None
#     Edge 90, Type (0, 0), None
#     Edge 91, Type (0, 0), None
#     Edge 92, Type (0, 0), None
#     Edge 93, Type (0, 0), None
#     Edge 94, Type (0, 0), None
#     Edge 95, Type (0, 0), None
#     Edge 96, Type (0, 0), None
#     Edge 97, Type (0, 0), None
#     Edge 98, Type (0, 0), None
#     Edge 99, Type (0, 0), None
#     Edge 100, Type (0, 0), None
#     Edge 101, Type (0, 0), None
#     Edge 102, Type (0, 0), None
#     Edge 103, Type (0, 0), None
#     Edge 104, Type (0, 0), None
#     Edge 105, Type (0, 0), None
#     Edge 106, Type (0, 0), None
#     Edge 107, Type (0, 0), None
#     Edge 108, Type (0, 0), None
#     Edge 109, Type (0, 0), None
#     Edge 110, Type (0, 0), None
#     Edge 111, Type (0, 0), None
#     Edge 112, Type (0, 0), None
#     Edge 113, Type (0, 0), None
#     Edge 114, Type (0, 0), None
#     Edge 115, Type (0, 0), None
#     Edge 116, Type (0, 0), None
#     Edge 117, Type (0, 0), None
#     Edge 118, Type (0, 0), None
#     Edge 119, Type (0, 0), None
#     Edge 120, Type (0, 0), None
#     Edge 121, Type (0, 0), None
#     Edge 122, Type (0, 0), None
#     Edge 123, Type (0, 0), None
#     Edge 124, Type (0, 0), None
#     Edge 125, Type (0, 0), None
#     Edge 126, Type (0, 0), None
#     Edge 127, Type (0, 0), None
#     Edge 128, Type (0, 0), None
#     Edge 129, Type (0, 0), None
#     Edge 130, Type (0, 0), None
#     Edge 131, Type (0, 0), None
#     Edge 132, Type (0, 0), None
#     Edge 133, Type (0, 0), None
#     Edge 134, Type (0, 0), None
#     Edge 135, Type (0, 0), None
#     Edge 136, Type (0, 0), None
#     Edge 137, Type (0, 0), None
#     Edge 138, Type (0, 0), None
#     Edge 139, Type (0, 0), None
#     Edge 140, Type (0, 0), None
#     Edge 141, Type (0, 0), None
#     Edge 142, Type (0, 0), None
#     Edge 143, Type (0, 0), None
# Relax obj value: 0.129
# Max RMSD: 0.166
# Mean RMSD: 0.166
data_MOF--net-uky--node1-GALJAG_clean_sbu_0--edge1-none
_symmetry_space_group_name_H-M    P1
_symmetry_Int_Tables_number       1
_symmetry_cell_setting            triclinic
loop_
_symmetry_equiv_pos_as_xyz
'x, y, z'
_cell_length_a     28.777826
_cell_length_b     28.777806
_cell_length_c     28.777215
_cell_angle_alpha  89.999083
_cell_angle_beta   89.999678
_cell_angle_gamma 90.001534
loop_
_atom_site_label
_atom_site_type_symbol
_atom_site_fract_x
_atom_site_fract_y
_atom_site_fract_z
_atom_type_partial_charge
In0 In 0.2058 0.20267 0.36612 0.0
O1 O 0.17274 0.13262 0.38327 0.0
O2 O 0.12815 0.1886 0.36489 0.0
C3 C 0.28505 0.18105 0.32027 0.0
C4 C 0.21965 0.21366 0.45774 0.0
C5 C 0.18421 0.27532 0.31156 0.0
O6 O 0.24646 0.16275 0.3104 0.0
O7 O 0.28424 0.20758 0.355 0.0
O8 O 0.20203 0.28037 0.35142 0.0
O9 O 0.17477 0.23392 0.30048 0.0
C10 C 0.13168 0.14711 0.37853 0.0
O11 O 0.20741 0.2474 0.4324 0.0
O12 O 0.22608 0.1758 0.43676 0.0
In13 In 1e-05 0.9593 0.62556 0.0
O14 O 0.0603 0.90676 0.62515 0.0
O15 O -0.00078 0.89225 0.66497 0.0
C16 C 0.03117 0.02795 0.57 0.0
C17 C 0.00237 -0.00843 0.71259 0.0
C18 C 0.92612 0.93688 0.57247 0.0
O19 O 0.0461 -0.01321 0.56677 0.0
O20 O 0.00336 0.03492 0.60307 0.0
O21 O 0.92305 0.96395 0.60687 0.0
O22 O 0.96558 0.91882 0.56676 0.0
C23 C 0.03977 0.88021 0.65357 0.0
O24 O 0.96421 0.98257 0.69266 0.0
O25 O 0.03832 -0.01292 0.68779 0.0
In26 In 0.2646 0.76694 0.86588 0.0
O27 O 0.26279 0.72217 0.93217 0.0
O28 O 0.24448 0.79385 0.93654 0.0
C29 C 0.28626 0.6947 0.81073 0.0
C30 C 0.33873 0.82247 0.87842 0.0
C31 C 0.18523 0.78869 0.82035 0.0
O32 O 0.26858 0.68932 0.85062 0.0
O33 O 0.29553 0.73621 0.79993 0.0
O34 O 0.22376 0.80716 0.81054 0.0
O35 O 0.18617 0.76187 0.85486 0.0
C36 C 0.25073 0.75597 0.95751 0.0
O37 O 0.29766 0.83705 0.88281 0.0
O38 O 0.34228 0.78088 0.86508 0.0
In39 In 0.47 0.01138 0.12486 0.0
O40 O 0.40972 0.06394 0.1245 0.0
O41 O 0.47092 0.0785 0.16411 0.0
C42 C 0.43882 0.94263 0.06941 0.0
C43 C 0.46754 0.97922 0.21192 0.0
C44 C 0.5441 0.0335 0.07192 0.0
O45 O 0.42414 0.98386 0.0659 0.0
O46 O 0.46639 0.93567 0.10269 0.0
O47 O 0.547 0.00657 0.10643 0.0
O48 O 0.50468 0.05159 0.06598 0.0
C49 C 0.43034 0.09052 0.15284 0.0
O50 O 0.50572 -0.01191 0.19198 0.0
O51 O 0.43161 0.98378 0.18712 0.0
In52 In 0.20947 0.75009 0.09436 0.0
O53 O 0.2325 0.7141 0.02727 0.0
O54 O 0.2373 0.7882 0.03206 0.0
C55 C 0.18663 0.67685 0.14813 0.0
C56 C 0.13045 0.78993 0.06638 0.0
C57 C 0.27841 0.78106 0.1496 0.0
O58 O 0.21358 0.67319 0.11369 0.0
O59 O 0.16892 0.71651 0.15351 0.0
O60 O 0.23745 0.79655 0.15259 0.0
O61 O 0.28508 0.75276 0.11688 0.0
C62 C 0.2416 0.75222 0.00729 0.0
O63 O 0.1571 0.81048 0.09471 0.0
O64 O 0.14238 0.74933 0.05505 0.0
In65 In 0.45276 0.95609 0.35329 0.0
O66 O 0.38274 0.92285 0.33633 0.0
O67 O 0.43899 0.8784 0.35424 0.0
C68 C 0.43114 0.03538 0.39903 0.0
C69 C 0.46373 0.97003 0.26168 0.0
C70 C 0.52488 0.93425 0.40844 0.0
O71 O 0.41249 -0.00311 0.40863 0.0
O72 O 0.45804 0.03446 0.36458 0.0
O73 O 0.53039 0.95209 0.36863 0.0
O74 O 0.48335 0.92497 0.41913 0.0
C75 C 0.39741 0.88183 0.34087 0.0
O76 O 0.4975 0.95789 0.28702 0.0
O77 O 0.42585 0.97632 0.28265 0.0
In78 In 0.26098 0.21999 0.59453 0.0
O79 O 0.31353 0.15974 0.59491 0.0
O80 O 0.32804 0.22088 0.55518 0.0
C81 C 0.19219 0.18892 0.64994 0.0
C82 C 0.22881 0.21751 0.50749 0.0
C83 C 0.28351 0.29371 0.64781 0.0
O84 O 0.23329 0.17383 0.65316 0.0
O85 O 0.18535 0.21687 0.61695 0.0
O86 O 0.25652 0.29696 0.61336 0.0
O87 O 0.30142 0.25417 0.65347 0.0
C88 C 0.34008 0.18032 0.56652 0.0
O89 O 0.23768 0.2557 0.52741 0.0
O90 O 0.23334 0.18159 0.53231 0.0
In91 In 0.01719 0.01465 0.85396 0.0
O92 O 0.9724 0.01287 0.7877 0.0
O93 O 0.04406 -0.00554 0.7833 0.0
C94 C 0.94515 0.03644 0.90929 0.0
C95 C 0.07269 0.08877 0.8414 0.0
C96 C 0.03891 0.93529 0.89949 0.0
O97 O 0.93959 0.01869 0.86945 0.0
O98 O -0.01329 0.04568 0.91993 0.0
O99 O 0.05751 0.97379 0.9092 0.0
O100 O 0.01198 0.93626 0.86508 0.0
C101 C 0.00618 0.00075 0.76235 0.0
O102 O 0.0873 0.04771 0.83705 0.0
O103 O 0.03109 0.09232 0.85468 0.0
In104 In 0.38076 0.20816 0.2174 0.0
O105 O 0.44747 0.23 0.25475 0.0
O106 O 0.44373 0.23622 0.18064 0.0
C107 C 0.32364 0.18222 0.28707 0.0
C108 C 0.40847 0.1302 0.1755 0.0
C109 C 0.32911 0.2811 0.19023 0.0
O110 O 0.35955 0.20651 0.29402 0.0
O111 O 0.31842 0.16848 0.24583 0.0
O112 O 0.32587 0.24193 0.1706 0.0
O113 O 0.36024 0.28397 0.22084 0.0
C114 C 0.46793 0.23998 0.21708 0.0
O115 O 0.38035 0.15755 0.15554 0.0
O116 O 0.41975 0.14096 0.21646 0.0
In117 In 0.01727 0.11148 0.45507 0.0
O118 O 0.01412 0.1787 0.49824 0.0
O119 O -0.00542 0.18094 0.42679 0.0
C120 C 0.03509 0.06131 0.53178 0.0
C121 C 0.09245 0.12424 0.40097 0.0
C122 C 0.94121 0.0618 0.43093 0.0
O123 O 0.01479 0.10023 0.53325 0.0
O124 O 0.04914 0.0491 0.49203 0.0
O125 O 0.98136 0.0516 0.41662 0.0
O126 O 0.93905 0.09858 0.45442 0.0
C127 C 0.00068 0.20291 0.46415 0.0
O128 O 0.05165 0.12829 0.38565 0.0
O129 O 0.09535 0.11114 0.44269 0.0
In130 In 0.08941 0.76223 0.71745 0.0
O131 O 0.08975 0.81319 0.6559 0.0
O132 O 0.05037 0.82942 0.71692 0.0
C133 C 0.14124 0.68962 0.68973 0.0
C134 C 0.00228 0.73027 0.71699 0.0
C135 C 0.14656 0.78774 0.78723 0.0
O136 O 0.14435 0.72894 0.67037 0.0
O137 O 0.11014 0.68645 0.72034 0.0
O138 O 0.11073 0.76328 0.79405 0.0
O139 O 0.15166 0.80186 0.74612 0.0
C140 C 0.06164 0.84041 0.67602 0.0
O141 O 0.02273 0.74015 0.7547 0.0
O142 O 0.02647 0.73422 0.68058 0.0
In143 In 0.453 0.85843 0.955 0.0
O144 O 0.41868 0.84165 0.88555 0.0
O145 O 0.37492 0.85842 0.94266 0.0
C146 C 0.52928 0.90778 0.93091 0.0
C147 C 0.46973 0.76706 0.96423 0.0
C148 C 0.43495 0.90911 0.03133 0.0
O149 O 0.48924 0.91796 0.91631 0.0
O150 O 0.53123 0.87117 0.9547 0.0
O151 O 0.45494 0.87004 0.03315 0.0
O152 O 0.42132 0.92123 -0.00859 0.0
C153 C 0.37786 0.84546 0.9009 0.0
O154 O 0.45644 0.79132 -0.00166 0.0
O155 O 0.47559 0.78895 0.92679 0.0
In156 In 0.36137 0.76715 0.26488 0.0
O157 O 0.37859 0.80177 0.33407 0.0
O158 O 0.36118 0.84528 0.27698 0.0
C159 C 0.31079 0.69177 0.28941 0.0
C160 C 0.45271 0.75006 0.25589 0.0
C161 C 0.31172 0.78493 0.18785 0.0
O162 O 0.30096 0.73214 0.30329 0.0
O163 O 0.34769 0.68901 0.26616 0.0
O164 O 0.35032 0.76401 0.18672 0.0
O165 O 0.2996 0.79959 0.2274 0.0
C166 C 0.37448 0.84253 0.31864 0.0
O167 O 0.42861 0.76359 0.22177 0.0
O168 O 0.43068 0.74409 0.29324 0.0
In169 In 0.45791 0.1306 0.50241 0.0
O170 O 0.48011 0.19733 0.46532 0.0
O171 O 0.48614 0.19336 0.53942 0.0
C172 C 0.43223 0.07389 0.43232 0.0
C173 C 0.37984 0.15847 0.544 0.0
C174 C 0.53024 0.07835 0.53007 0.0
O175 O 0.45691 0.1096 0.42573 0.0
O176 O 0.41798 0.0687 0.47339 0.0
O177 O 0.49086 0.07531 0.54931 0.0
O178 O 0.53362 0.10958 0.49962 0.0
C179 C 0.49007 0.21765 0.50307 0.0
O180 O 0.407 0.1302 0.564 0.0
O181 O 0.39084 0.16984 0.50313 0.0
In182 In 0.10874 0.20303 0.76486 0.0
O183 O 0.04153 0.20653 0.72168 0.0
O184 O 0.03938 0.22592 0.79318 0.0
C185 C 0.15881 0.18506 0.68814 0.0
C186 C 0.09569 0.1279 0.81895 0.0
C187 C 0.15876 0.27883 0.78909 0.0
O188 O 0.11998 0.20555 0.6867 0.0
O189 O 0.17095 0.1709 0.72787 0.0
O190 O 0.16878 0.23862 0.80332 0.0
O191 O 0.12197 0.2812 0.76563 0.0
C192 C 0.01739 0.21999 0.75581 0.0
O193 O 0.09179 0.16873 0.83426 0.0
O194 O 0.10877 0.12496 0.77723 0.0
In195 In 0.01249 0.83973 0.0026 0.0
O196 O 0.06352 0.84003 0.06408 0.0
O197 O 0.07959 0.80054 0.00309 0.0
C198 C 0.94016 0.89186 0.03048 0.0
C199 C 0.98035 0.75267 0.00315 0.0
C200 C 0.03796 0.89667 0.93266 0.0
O201 O 0.97955 0.89485 0.0497 0.0
O202 O 0.93677 0.86071 -7e-05 0.0
O203 O 0.01334 0.86093 0.92599 0.0
O204 O 0.05227 0.90177 0.97371 0.0
C205 C 0.09066 0.81183 0.04396 0.0
O206 O -0.00971 0.77305 0.96542 0.0
O207 O 0.9843 0.77691 0.03953 0.0
In208 In 0.21599 0.36677 0.20646 0.0
O209 O 0.1526 0.36687 0.15756 0.0
O210 O 0.21581 0.39937 0.13602 0.0
C211 C 0.18615 0.31222 0.27657 0.0
C212 C 0.21638 0.45532 0.23457 0.0
C213 C 0.29234 0.31608 0.18763 0.0
O214 O 0.17432 0.30532 0.23488 0.0
O215 O 0.2098 0.34844 0.28322 0.0
O216 O 0.2932 0.35172 0.21314 0.0
O217 O 0.25358 0.30755 0.16908 0.0
C218 C 0.17375 0.39082 0.12738 0.0
O219 O 0.25372 0.43385 0.22592 0.0
O220 O 0.17965 0.43147 0.23176 0.0
In221 In 0.71485 0.10457 0.76487 0.0
O222 O 0.75313 0.03717 0.74787 0.0
O223 O 0.67921 0.03896 0.74064 0.0
C224 C 0.79148 0.15502 0.78305 0.0
C225 C 0.67139 0.08261 0.84383 0.0
C226 C 0.68554 0.15878 0.69428 0.0
O227 O 0.79206 0.11925 0.7577 0.0
O228 O 0.75281 0.16388 0.80167 0.0
O229 O 0.67402 0.16624 0.73594 0.0
O230 O 0.70865 0.12216 0.68787 0.0
C231 C 0.71609 0.01525 0.7392 0.0
O232 O 0.65009 0.10364 0.81167 0.0
O233 O 0.71411 0.07588 0.83702 0.0
In234 In 0.12673 0.46107 0.01272 0.0
O235 O 0.19319 0.50177 -0.002 0.0
O236 O 0.19317 0.42808 -0.01242 0.0
C237 C 0.06795 0.52925 0.0386 0.0
C238 C 0.15063 0.4152 0.08958 0.0
C239 C 0.07965 0.43739 0.93537 0.0
O240 O 0.10541 0.53732 0.0172 0.0
O241 O 0.06159 0.48729 0.04946 0.0
O242 O 0.07377 0.4164 0.97353 0.0
O243 O 0.11131 0.4676 0.93563 0.0
C244 C 0.21599 0.46557 -0.01221 0.0
O245 O 0.12686 0.39532 0.05834 0.0
O246 O 0.15907 0.45768 0.08303 0.0
In247 In 0.75577 0.86486 0.26574 0.0
O248 O 0.71717 0.93241 0.24984 0.0
O249 O 0.791 0.93085 0.24196 0.0
C250 C 0.67908 0.81443 0.28363 0.0
C251 C 0.80013 0.88556 0.34459 0.0
C252 C 0.78463 0.81099 0.19468 0.0
O253 O 0.67848 0.85053 0.25874 0.0
O254 O 0.71782 0.80522 0.30195 0.0
O255 O 0.7961 0.80313 0.23628 0.0
O256 O 0.76174 0.8478 0.18857 0.0
C257 C 0.75408 0.9545 0.24104 0.0
O258 O 0.82137 0.86656 0.31118 0.0
O259 O 0.75705 0.89103 0.33894 0.0
In260 In 0.85475 0.00533 0.01553 0.0
O261 O 0.78743 0.96698 -0.00155 0.0
O262 O 0.78903 0.04094 -0.00848 0.0
C263 C 0.90544 0.92883 0.03347 0.0
C264 C 0.83272 0.04844 0.09468 0.0
C265 C 0.90864 0.03475 0.94471 0.0
O266 O 0.86949 0.92815 0.00839 0.0
O267 O 0.91437 0.96753 0.052 0.0
O268 O 0.91623 0.04633 -0.01367 0.0
O269 O 0.87203 0.01157 0.93846 0.0
C270 C 0.76541 0.00401 -0.01005 0.0
O271 O 0.85381 0.06988 0.06266 0.0
O272 O 0.82599 0.00575 0.08766 0.0
In273 In 0.25449 0.60395 0.70498 0.0
O274 O 0.21668 0.53681 0.72378 0.0
O275 O 0.29077 0.53888 0.72958 0.0
C276 C 0.17808 0.65475 0.6868 0.0
C277 C 0.29636 0.58028 0.6256 0.0
C278 C 0.28437 0.65804 0.77546 0.0
O279 O 0.17731 0.6189 0.71202 0.0
O280 O 0.21679 0.66349 0.66823 0.0
O281 O 0.29608 0.66529 0.7338 0.0
O282 O 0.26088 0.62167 0.78189 0.0
C283 C 0.25396 0.51512 0.73208 0.0
O284 O 0.31785 0.60355 0.65606 0.0
O285 O 0.25416 0.57231 0.63411 0.0
In286 In 0.11391 0.50712 0.4539 0.0
O287 O 0.18194 0.46751 0.46605 0.0
O288 O 0.18076 0.54079 0.47742 0.0
C289 C 0.06392 0.43016 0.43631 0.0
C290 C 0.13092 0.55505 0.376 0.0
C291 C 0.05999 0.53461 0.52552 0.0
O292 O 0.10053 0.4296 0.46051 0.0
O293 O 0.05402 0.469 0.4185 0.0
O294 O 0.05178 0.54625 0.48406 0.0
O295 O 0.09707 0.51208 0.53126 0.0
C296 C 0.2043 0.50387 0.47627 0.0
O297 O 0.11988 0.57521 0.41335 0.0
O298 O 0.13099 0.51126 0.37766 0.0
In299 In 0.35569 0.46369 0.95426 0.0
O300 O 0.35283 0.39722 0.91038 0.0
O301 O 0.33234 0.46171 0.88 0.0
C302 C 0.40968 0.43517 0.02539 0.0
C303 C 0.26578 0.46605 0.97815 0.0
C304 C 0.40596 0.54048 0.9366 0.0
O305 O 0.41764 0.42378 0.9838 0.0
O306 O 0.37272 0.45783 0.03148 0.0
O307 O 0.36979 0.541 0.96139 0.0
O308 O 0.41534 0.50177 0.91827 0.0
C309 C 0.33627 0.4183 0.87561 0.0
O310 O 0.28804 0.50273 0.96888 0.0
O311 O 0.28931 0.42907 0.97795 0.0
In312 In 0.7088 0.72044 0.87525 0.0
O313 O 0.73198 0.75615 0.94243 0.0
O314 O 0.73667 0.68207 0.93739 0.0
C315 C 0.68653 0.79432 0.82204 0.0
C316 C 0.62982 0.68057 0.90333 0.0
C317 C 0.77748 0.68919 0.81984 0.0
O318 O 0.71353 0.79738 0.8565 0.0
O319 O 0.66843 0.75488 0.81633 0.0
O320 O 0.7363 0.67437 0.8165 0.0
O321 O 0.78445 0.71698 0.85293 0.0
C322 C 0.74107 0.71796 0.96227 0.0
O323 O 0.65637 0.66009 0.87487 0.0
O324 O 0.64177 0.72116 0.91467 0.0
In325 In 0.5178 0.45579 0.1165 0.0
O326 O 0.47289 0.45748 0.18266 0.0
O327 O 0.54454 0.47588 0.18723 0.0
C328 C 0.44607 0.43383 0.06093 0.0
C329 C 0.57326 0.38163 0.12901 0.0
C330 C 0.53927 0.53528 0.07105 0.0
O331 O 0.44025 0.45147 0.10078 0.0
O332 O 0.4877 0.42477 0.05044 0.0
O333 O 0.55816 0.4969 0.06145 0.0
O334 O 0.51222 0.53415 0.10536 0.0
C335 C 0.50661 0.46956 0.20809 0.0
O336 O 0.58788 0.42268 0.13349 0.0
O337 O 0.53168 0.37813 0.11565 0.0
In338 In 0.76119 0.24991 0.37571 0.0
O339 O 0.81381 0.31011 0.37524 0.0
O340 O 0.82823 0.24907 0.41514 0.0
C341 C 0.69272 0.28115 0.31999 0.0
C342 C 0.72883 0.25262 0.46269 0.0
C343 C 0.7833 0.1757 0.32292 0.0
O344 O 0.73398 0.29574 0.3166 0.0
O345 O 0.68557 0.25364 0.35328 0.0
O346 O 0.75619 0.17292 0.3573 0.0
O347 O 0.80159 0.21504 0.31706 0.0
C348 C 0.84031 0.28959 0.40372 0.0
O349 O 0.73776 0.21438 0.44287 0.0
O350 O 0.73344 0.28848 0.4378 0.0
In351 In 0.95245 0.51358 0.61719 0.0
O352 O 0.88243 0.54683 0.63412 0.0
O353 O 0.93876 0.59125 0.61633 0.0
C354 C 0.93107 0.43411 0.57169 0.0
C355 C 0.96377 0.49982 0.70876 0.0
C356 C 0.02382 0.53569 0.56127 0.0
O357 O 0.91191 0.47242 0.56232 0.0
O358 O 0.95831 0.43528 0.60585 0.0
O359 O 0.02992 0.51798 0.60105 0.0
O360 O 0.98212 0.54472 0.55104 0.0
C361 C 0.89715 0.58785 0.6296 0.0
O362 O -0.00253 0.51185 0.68328 0.0
O363 O 0.9258 0.49354 0.68795 0.0
In364 In 0.70572 0.26772 0.60402 0.0
O365 O 0.70744 0.22285 0.53784 0.0
O366 O 0.72591 0.29449 0.53331 0.0
C367 C 0.68395 0.19547 0.65904 0.0
C368 C 0.63152 0.32319 0.59157 0.0
C369 C 0.7851 0.28929 0.64968 0.0
O370 O 0.70166 0.19006 0.61917 0.0
O371 O 0.67471 0.23698 0.66987 0.0
O372 O 0.74659 0.30784 0.65945 0.0
O373 O 0.78413 0.26253 0.61514 0.0
C374 C 0.7196 0.25657 0.51243 0.0
O375 O 0.67256 0.33774 0.58689 0.0
O376 O 0.62804 0.28166 0.60513 0.0
In377 In 0.9704 0.45853 0.84558 0.0
O378 O 0.91007 0.40606 0.84597 0.0
O379 O 0.9712 0.39143 0.80629 0.0
C380 C 0.93911 0.52718 0.90104 0.0
C381 C 0.96774 0.49068 0.75852 0.0
C382 C 0.04469 0.43674 0.8984 0.0
O383 O 0.92471 0.48588 0.90471 0.0
O384 O 0.96647 0.53426 0.86762 0.0
O385 O 0.04739 0.46363 0.86383 0.0
O386 O 0.00539 0.41844 0.90445 0.0
C387 C 0.93059 0.3795 0.81755 0.0
O388 O 0.00598 0.48175 0.77834 0.0
O389 O 0.93188 0.48623 0.78344 0.0
In390 In 0.76414 0.7028 0.10361 0.0
O391 O 0.76227 0.74778 0.03748 0.0
O392 O 0.74408 0.67607 0.03287 0.0
C393 C 0.78606 0.77458 0.15916 0.0
C394 C 0.8384 0.64744 0.09112 0.0
C395 C 0.68471 0.68119 0.14913 0.0
O396 O 0.76842 0.78036 0.11931 0.0
O397 O 0.79515 0.73296 0.16968 0.0
O398 O 0.72313 0.66236 0.15869 0.0
O399 O 0.68577 0.70827 0.11483 0.0
C400 C 0.75025 0.71404 0.01203 0.0
O401 O 0.79737 0.63278 0.08659 0.0
O402 O 0.84184 0.68903 0.10447 0.0
In403 In 0.49998 0.51105 0.34483 0.0
O404 O 0.56023 0.5636 0.34527 0.0
O405 O 0.49915 0.5781 0.30546 0.0
C406 C 0.53123 0.4427 0.4007 0.0
C407 C 0.50267 0.47874 0.25784 0.0
C408 C 0.42547 0.5329 0.39728 0.0
O409 O 0.54552 0.48405 0.40424 0.0
O410 O 0.50404 0.43541 0.36719 0.0
O411 O 0.42298 0.50579 0.36288 0.0
O412 O 0.46471 0.55135 0.40335 0.0
C413 C 0.53971 0.59012 0.31682 0.0
O414 O 0.46444 0.48764 0.27766 0.0
O415 O 0.53854 0.4833 0.28273 0.0
In416 In 0.86137 0.70282 0.70519 0.0
O417 O 0.92852 0.7067 0.7484 0.0
O418 O 0.93076 0.72538 0.6767 0.0
C419 C 0.8109 0.68518 0.78171 0.0
C420 C 0.87422 0.62718 0.65177 0.0
C421 C 0.81189 0.7789 0.68076 0.0
O422 O 0.84997 0.7052 0.78334 0.0
O423 O 0.79868 0.67134 0.74189 0.0
O424 O 0.8017 0.73876 0.66642 0.0
O425 O 0.84856 0.78102 0.70442 0.0
C426 C 0.95269 0.71986 0.71418 0.0
O427 O 0.87802 0.66786 0.63604 0.0
O428 O 0.86137 0.62463 0.69358 0.0
In429 In 0.51231 0.63042 0.96766 0.0
O430 O 0.56308 0.63024 0.90597 0.0
O431 O 0.57929 0.66982 0.96686 0.0
C432 C 0.44043 0.5777 0.93971 0.0
C433 C 0.48002 0.71745 0.96714 0.0
C434 C 0.53812 0.57384 0.03782 0.0
O435 O 0.47991 0.57492 0.92066 0.0
O436 O 0.43667 0.60895 0.9701 0.0
O437 O 0.5131 0.60933 0.04431 0.0
O438 O 0.55264 0.56883 -0.00317 0.0
C439 C 0.5902 0.65856 0.92594 0.0
O440 O 0.48997 0.69707 0.00486 0.0
O441 O 0.48395 0.6932 0.93076 0.0
In442 In 0.6089 0.26707 0.2053 0.0
O443 O 0.59238 0.30165 0.13591 0.0
O444 O 0.60898 0.34519 0.19323 0.0
C445 C 0.65815 0.19072 0.18129 0.0
C446 C 0.51754 0.25027 0.21428 0.0
C447 C 0.65936 0.28504 0.28178 0.0
O448 O 0.66848 0.23075 0.16677 0.0
O449 O 0.62146 0.18883 0.20495 0.0
O450 O 0.62021 0.2652 0.28349 0.0
O451 O 0.67169 0.29854 0.24188 0.0
C452 C 0.59617 0.34241 0.15141 0.0
O453 O 0.54173 0.2634 0.2485 0.0
O454 O 0.53947 0.24465 0.17683 0.0
In455 In 0.95812 0.33957 0.46775 0.0
O456 O 0.90714 0.33983 0.4062 0.0
O457 O 0.89114 0.30013 0.46706 0.0
C458 C 0.02966 0.39274 0.43954 0.0
C459 C -0.00957 0.25253 0.46706 0.0
C460 C 0.93232 0.3957 0.53828 0.0
O461 O -0.00998 0.39542 0.42081 0.0
O462 O 0.03377 0.36134 0.46975 0.0
O463 O 0.95765 0.36038 0.54448 0.0
O464 O 0.91755 0.40078 0.49739 0.0
C465 C 0.88008 0.31148 0.42621 0.0
O466 O 0.98073 0.27295 0.50482 0.0
O467 O -0.0137 0.27676 0.43069 0.0
In468 In 0.88062 0.2622 0.75272 0.0
O469 O 0.88037 0.31267 0.81467 0.0
O470 O 0.91978 0.3293 0.75377 0.0
C471 C 0.82846 0.18975 0.7802 0.0
C472 C 0.96777 0.23024 0.75302 0.0
C473 C 0.82371 0.28815 0.68287 0.0
O474 O 0.82547 0.22904 0.79962 0.0
O475 O 0.85964 0.18647 0.74968 0.0
O476 O 0.85943 0.26353 0.6761 0.0
O477 O 0.81862 0.30224 0.72401 0.0
C478 C 0.90858 0.33997 0.79478 0.0
O479 O 0.94729 0.2402 0.71535 0.0
O480 O 0.94357 0.234 0.78945 0.0
In481 In 0.95319 0.61173 0.01518 0.0
O482 O 0.91839 0.62822 0.08447 0.0
O483 O 0.87503 0.6118 0.02697 0.0
C484 C 0.02978 0.56288 0.03924 0.0
C485 C 0.96997 0.70308 0.00604 0.0
C486 C 0.93521 0.56074 0.93908 0.0
O487 O -0.01016 0.55254 0.05403 0.0
O488 O 0.03147 0.5994 0.01531 0.0
O489 O 0.95477 0.60002 0.93704 0.0
O490 O 0.922 0.54853 0.97911 0.0
C491 C 0.87768 0.62454 0.06881 0.0
O492 O 0.95699 0.6788 0.97182 0.0
O493 O 0.97543 0.68125 0.04357 0.0
In494 In 0.5895 0.70781 0.25258 0.0
O495 O 0.52282 0.73005 0.21536 0.0
O496 O 0.52653 0.7358 0.28949 0.0
C497 C 0.64615 0.68224 0.18238 0.0
C498 C 0.56163 0.6298 0.29423 0.0
C499 C 0.64197 0.77986 0.28057 0.0
O500 O 0.61059 0.70715 0.17591 0.0
O501 O 0.65121 0.6677 0.22336 0.0
O502 O 0.64492 0.74036 0.29958 0.0
O503 O 0.61066 0.78354 0.25022 0.0
C504 C 0.50233 0.73977 0.25308 0.0
O505 O 0.58982 0.65702 0.31424 0.0
O506 O 0.55037 0.64068 0.2533 0.0
In507 In 0.51693 0.35864 0.5152 0.0
O508 O 0.51337 0.29157 0.47184 0.0
O509 O 0.49482 0.28905 0.54356 0.0
C510 C 0.53504 0.40933 0.43892 0.0
C511 C 0.59226 0.34603 0.56917 0.0
C512 C 0.44018 0.40742 0.539 0.0
O513 O 0.51551 0.37004 0.43701 0.0
O514 O 0.54814 0.42172 0.47893 0.0
O515 O 0.4801 0.41796 0.55369 0.0
O516 O 0.4386 0.37077 0.51528 0.0
C517 C 0.50039 0.26725 0.50602 0.0
O518 O 0.55148 0.34215 0.58463 0.0
O519 O 0.59504 0.35889 0.52737 0.0
In520 In 0.70973 0.87558 0.70692 0.0
O521 O 0.75097 0.94223 0.71943 0.0
O522 O 0.67753 0.9428 0.73113 0.0
C523 C 0.778 0.81684 0.68136 0.0
C524 C 0.66215 0.89738 0.63051 0.0
C525 C 0.68683 0.82896 0.78477 0.0
O526 O 0.78603 0.85457 0.7023 0.0
O527 O 0.73602 0.81013 0.6708 0.0
O528 O 0.66596 0.8224 0.74668 0.0
O529 O 0.71655 0.86108 0.78424 0.0
C530 C 0.71508 0.96543 0.72976 0.0
O531 O 0.64245 0.87651 0.66384 0.0
O532 O 0.7052 0.90415 0.63501 0.0
In533 In 0.20778 0.59578 0.26394 0.0
O534 O 0.25003 0.52882 0.25525 0.0
O535 O 0.17718 0.52741 0.24102 0.0
C536 C 0.27641 0.65425 0.2889 0.0
C537 C 0.15632 0.57859 0.33925 0.0
C538 C 0.18633 0.64251 0.18566 0.0
O539 O 0.28433 0.61586 0.26907 0.0
O540 O 0.23432 0.66179 0.29858 0.0
O541 O 0.16579 0.64994 0.22373 0.0
O542 O 0.21513 0.60957 0.18639 0.0
C543 C 0.21473 0.5051 0.24415 0.0
O544 O 0.13773 0.59013 0.30117 0.0
O545 O 0.20015 0.57805 0.33953 0.0
In546 In 0.61548 0.96481 0.51465 0.0
O547 O 0.68294 0.00316 0.49785 0.0
O548 O 0.68115 0.92926 0.49048 0.0
C549 C 0.56494 0.04134 0.53292 0.0
C550 C 0.63711 0.92097 0.5935 0.0
C551 C 0.56145 0.93581 0.4438 0.0
O552 O 0.60088 0.04206 0.50782 0.0
O553 O 0.55597 0.00258 0.55132 0.0
O554 O 0.55388 0.9241 0.48539 0.0
O555 O 0.59808 0.95895 0.43757 0.0
C556 C 0.70487 0.96613 0.48912 0.0
O557 O 0.61646 0.89977 0.56105 0.0
O558 O 0.64366 0.96378 0.58703 0.0
In559 In 0.26136 0.37509 0.76309 0.0
O560 O 0.33008 0.37747 0.80344 0.0
O561 O 0.26726 0.39929 0.83667 0.0
C562 C 0.28354 0.3283 0.68511 0.0
C563 C 0.25532 0.46533 0.74164 0.0
C564 C 0.19288 0.31656 0.78845 0.0
O565 O 0.30423 0.32136 0.72321 0.0
O566 O 0.25431 0.36086 0.68565 0.0
O567 O 0.18495 0.35449 0.76781 0.0
O568 O 0.23489 0.30952 0.79876 0.0
C569 C 0.31078 0.39471 0.83897 0.0
O570 O 0.21972 0.44191 0.7524 0.0
O571 O 0.29287 0.44282 0.73934 0.0
In572 In 0.34319 0.50893 0.51145 0.0
O573 O 0.3432 0.57502 0.55658 0.0
O574 O 0.31051 0.51305 0.5816 0.0
C575 C 0.39047 0.53227 0.43417 0.0
C576 C 0.2541 0.50422 0.48588 0.0
C577 C 0.40196 0.441 0.53803 0.0
O578 O 0.39615 0.55352 0.4722 0.0
O579 O 0.35893 0.50195 0.43449 0.0
O580 O 0.36452 0.4327 0.5167 0.0
O581 O 0.40829 0.48305 0.54852 0.0
C582 C 0.31923 0.55551 0.58789 0.0
O583 O 0.27684 0.46804 0.49629 0.0
O584 O 0.27686 0.54174 0.48595 0.0
In585 In 0.76008 0.094 0.20814 0.0
O586 O 0.82715 0.09352 0.16466 0.0
O587 O 0.76471 0.06425 0.13673 0.0
C588 C 0.78295 0.14088 0.28583 0.0
C589 C 0.75491 0.00432 0.23163 0.0
C590 C 0.69193 0.15269 0.18212 0.0
O591 O 0.80403 0.1471 0.24779 0.0
O592 O 0.75303 0.10895 0.28534 0.0
O593 O 0.68381 0.11511 0.20328 0.0
O594 O 0.73394 0.15925 0.17157 0.0
C595 C 0.8076 0.0717 0.13185 0.0
O596 O 0.71896 0.02738 0.22119 0.0
O597 O 0.79244 0.02702 0.23278 0.0
In598 In 0.62584 0.01004 0.95724 0.0
O599 O 0.62647 0.07715 0.91388 0.0
O600 O 0.65512 0.01457 0.88563 0.0
C601 C 0.57891 0.03313 0.03482 0.0
C602 C 0.7156 0.0049 0.98044 0.0
C603 C 0.56725 0.94164 0.9316 0.0
O604 O 0.57254 0.05393 -0.00333 0.0
O605 O 0.61101 0.00339 0.0345 0.0
O606 O 0.60482 0.93371 0.95286 0.0
O607 O 0.56065 0.98357 0.92077 0.0
C608 C 0.64795 0.05753 0.8809 0.0
O609 O 0.69253 0.96897 0.96998 0.0
O610 O 0.69288 0.0424 0.98178 0.0
In611 In 0.8447 0.95952 0.45738 0.0
O612 O 0.84335 0.89153 0.41554 0.0
O613 O 0.81763 0.95421 0.38487 0.0
C614 C 0.89146 0.937 0.53525 0.0
C615 C 0.7547 0.96509 0.47978 0.0
C616 C 0.90333 0.02783 0.43167 0.0
O617 O 0.89812 0.91615 0.49718 0.0
O618 O 0.85917 0.96654 0.53471 0.0
O619 O 0.86556 0.03586 0.45254 0.0
O620 O 0.91014 -0.01419 0.42127 0.0
C621 C 0.8237 0.91096 0.38135 0.0
O622 O 0.77795 0.00089 0.46926 0.0
O623 O 0.77732 0.92756 0.48148 0.0
loop_
_geom_bond_atom_site_label_1
_geom_bond_atom_site_label_2
_geom_bond_distance
_geom_bond_site_symmetry_2
_ccdc_geom_bond_type
In0 O1 2.294 . S
In0 O2 2.326 . S
In0 O6 2.266 . S
In0 O7 2.326 . S
In0 O8 2.266 . S
In0 O9 2.326 . S
In0 O11 2.294 . S
In0 O12 2.326 . S
O1 In0 2.294 . S
O1 C10 1.240 . S
O2 In0 2.326 . S
O2 C10 1.252 . S
C3 O6 1.252 . S
C3 O7 1.260 . S
C4 O11 1.240 . S
C4 O12 1.252 . S
C5 O8 1.252 . S
C5 O9 1.260 . S
O6 In0 2.266 . S
O6 C3 1.252 . S
O7 In0 2.326 . S
O7 C3 1.260 . S
O8 In0 2.266 . S
O8 C5 1.252 . S
O9 In0 2.326 . S
O9 C5 1.260 . S
C10 O1 1.240 . S
C10 O2 1.252 . S
O11 In0 2.294 . S
O11 C4 1.240 . S
O12 In0 2.326 . S
O12 C4 1.252 . S
In13 O14 2.294 . S
In13 O15 2.326 . S
In13 O19 2.266 1_565 S
In13 O20 2.326 1_565 S
In13 O21 2.266 1_455 S
In13 O22 2.326 . S
In13 O24 2.293 . S
In13 O25 2.326 . S
O14 In13 2.294 . S
O14 C23 1.240 . S
O15 In13 2.326 . S
O15 C23 1.252 . S
C16 O19 1.252 . S
C16 O20 1.260 . S
C17 O24 1.238 1_545 S
C17 O25 1.252 1_545 S
C18 O21 1.252 . S
C18 O22 1.260 1_655 S
O19 In13 2.266 1_545 S
O19 C16 1.252 . S
O20 In13 2.326 1_545 S
O20 C16 1.260 . S
O21 In13 2.266 1_655 S
O21 C18 1.252 . S
O22 In13 2.326 . S
O22 C18 1.260 1_455 S
C23 O14 1.240 . S
C23 O15 1.252 . S
O24 In13 2.293 . S
O24 C17 1.238 1_565 S
O25 In13 2.326 . S
O25 C17 1.252 1_565 S
In26 O27 2.294 . S
In26 O28 2.326 . S
In26 O32 2.266 . S
In26 O33 2.326 . S
In26 O34 2.266 . S
In26 O35 2.326 . S
In26 O37 2.294 . S
In26 O38 2.326 . S
O27 In26 2.294 . S
O27 C36 1.240 . S
O28 In26 2.326 . S
O28 C36 1.252 . S
C29 O32 1.252 . S
C29 O33 1.260 . S
C30 O37 1.240 . S
C30 O38 1.252 . S
C31 O34 1.252 . S
C31 O35 1.260 . S
O32 In26 2.266 . S
O32 C29 1.252 . S
O33 In26 2.326 . S
O33 C29 1.260 . S
O34 In26 2.266 . S
O34 C31 1.252 . S
O35 In26 2.326 . S
O35 C31 1.260 . S
C36 O27 1.240 . S
C36 O28 1.252 . S
O37 In26 2.294 . S
O37 C30 1.240 . S
O38 In26 2.326 . S
O38 C30 1.252 . S
In39 O40 2.294 . S
In39 O41 2.326 . S
In39 O45 2.266 1_545 S
In39 O46 2.326 1_545 S
In39 O47 2.266 . S
In39 O48 2.326 . S
In39 O50 2.294 . S
In39 O51 2.326 . S
O40 In39 2.294 . S
O40 C49 1.240 . S
O41 In39 2.326 . S
O41 C49 1.252 . S
C42 O45 1.252 . S
C42 O46 1.260 . S
C43 O50 1.239 1_565 S
C43 O51 1.252 1_565 S
C44 O47 1.252 . S
C44 O48 1.260 . S
O45 In39 2.266 1_565 S
O45 C42 1.252 . S
O46 In39 2.326 1_565 S
O46 C42 1.260 . S
O47 In39 2.266 . S
O47 C44 1.252 . S
O48 In39 2.326 . S
O48 C44 1.260 . S
C49 O40 1.240 . S
C49 O41 1.252 . S
O50 In39 2.294 . S
O50 C43 1.239 1_545 S
O51 In39 2.326 . S
O51 C43 1.252 1_545 S
In52 O53 2.294 . S
In52 O54 2.326 . S
In52 O58 2.266 . S
In52 O59 2.326 . S
In52 O60 2.266 . S
In52 O61 2.326 . S
In52 O63 2.294 . S
In52 O64 2.326 . S
O53 In52 2.294 . S
O53 C62 1.240 . S
O54 In52 2.326 . S
O54 C62 1.252 . S
C55 O58 1.252 . S
C55 O59 1.260 . S
C56 O63 1.240 . S
C56 O64 1.252 . S
C57 O60 1.252 . S
C57 O61 1.260 . S
O58 In52 2.266 . S
O58 C55 1.252 . S
O59 In52 2.326 . S
O59 C55 1.260 . S
O60 In52 2.266 . S
O60 C57 1.252 . S
O61 In52 2.326 . S
O61 C57 1.260 . S
C62 O53 1.240 . S
C62 O54 1.252 . S
O63 In52 2.294 . S
O63 C56 1.240 . S
O64 In52 2.326 . S
O64 C56 1.252 . S
In65 O66 2.294 . S
In65 O67 2.326 . S
In65 O71 2.266 1_565 S
In65 O72 2.326 1_565 S
In65 O73 2.266 . S
In65 O74 2.326 . S
In65 O76 2.294 . S
In65 O77 2.326 . S
O66 In65 2.294 . S
O66 C75 1.240 . S
O67 In65 2.326 . S
O67 C75 1.252 . S
C68 O71 1.252 . S
C68 O72 1.260 . S
C69 O76 1.239 1_545 S
C69 O77 1.252 1_545 S
C70 O73 1.252 . S
C70 O74 1.260 . S
O71 In65 2.266 1_545 S
O71 C68 1.252 . S
O72 In65 2.326 1_545 S
O72 C68 1.260 . S
O73 In65 2.266 . S
O73 C70 1.252 . S
O74 In65 2.326 . S
O74 C70 1.260 . S
C75 O66 1.240 . S
C75 O67 1.252 . S
O76 In65 2.294 . S
O76 C69 1.239 1_565 S
O77 In65 2.326 . S
O77 C69 1.252 1_565 S
In78 O79 2.294 . S
In78 O80 2.326 . S
In78 O84 2.266 . S
In78 O85 2.326 . S
In78 O86 2.266 . S
In78 O87 2.326 . S
In78 O89 2.294 . S
In78 O90 2.326 . S
O79 In78 2.294 . S
O79 C88 1.240 . S
O80 In78 2.326 . S
O80 C88 1.252 . S
C81 O84 1.252 . S
C81 O85 1.260 . S
C82 O89 1.240 . S
C82 O90 1.252 . S
C83 O86 1.252 . S
C83 O87 1.260 . S
O84 In78 2.266 . S
O84 C81 1.252 . S
O85 In78 2.326 . S
O85 C81 1.260 . S
O86 In78 2.266 . S
O86 C83 1.252 . S
O87 In78 2.326 . S
O87 C83 1.260 . S
C88 O79 1.240 . S
C88 O80 1.252 . S
O89 In78 2.294 . S
O89 C82 1.240 . S
O90 In78 2.326 . S
O90 C82 1.252 . S
In91 O92 2.293 . S
In91 O93 2.326 . S
In91 O97 2.266 1_455 S
In91 O98 2.326 . S
In91 O99 2.266 1_545 S
In91 O100 2.326 1_545 S
In91 O102 2.294 . S
In91 O103 2.326 . S
O92 In91 2.293 . S
O92 C101 1.238 1_545 S
O93 In91 2.326 . S
O93 C101 1.252 1_545 S
C94 O97 1.252 . S
C94 O98 1.260 1_655 S
C95 O102 1.240 . S
C95 O103 1.252 . S
C96 O99 1.252 . S
C96 O100 1.260 . S
O97 In91 2.266 1_655 S
O97 C94 1.252 . S
O98 In91 2.326 . S
O98 C94 1.260 1_455 S
O99 In91 2.266 1_565 S
O99 C96 1.252 . S
O100 In91 2.326 1_565 S
O100 C96 1.260 . S
C101 O92 1.238 1_565 S
C101 O93 1.252 1_565 S
O102 In91 2.294 . S
O102 C95 1.240 . S
O103 In91 2.326 . S
O103 C95 1.252 . S
In104 O105 2.294 . S
In104 O106 2.326 . S
In104 O110 2.266 . S
In104 O111 2.326 . S
In104 O112 2.266 . S
In104 O113 2.326 . S
In104 O115 2.294 . S
In104 O116 2.326 . S
O105 In104 2.294 . S
O105 C114 1.240 . S
O106 In104 2.326 . S
O106 C114 1.252 . S
C107 O110 1.252 . S
C107 O111 1.260 . S
C108 O115 1.240 . S
C108 O116 1.252 . S
C109 O112 1.252 . S
C109 O113 1.260 . S
O110 In104 2.266 . S
O110 C107 1.252 . S
O111 In104 2.326 . S
O111 C107 1.260 . S
O112 In104 2.266 . S
O112 C109 1.252 . S
O113 In104 2.326 . S
O113 C109 1.260 . S
C114 O105 1.240 . S
C114 O106 1.252 . S
O115 In104 2.294 . S
O115 C108 1.240 . S
O116 In104 2.326 . S
O116 C108 1.252 . S
In117 O118 2.294 . S
In117 O119 2.326 . S
In117 O123 2.266 . S
In117 O124 2.326 . S
In117 O125 2.266 1_455 S
In117 O126 2.326 1_455 S
In117 O128 2.294 . S
In117 O129 2.326 . S
O118 In117 2.294 . S
O118 C127 1.239 1_455 S
O119 In117 2.326 . S
O119 C127 1.252 1_455 S
C120 O123 1.252 . S
C120 O124 1.260 . S
C121 O128 1.240 . S
C121 O129 1.252 . S
C122 O125 1.252 . S
C122 O126 1.260 . S
O123 In117 2.266 . S
O123 C120 1.252 . S
O124 In117 2.326 . S
O124 C120 1.260 . S
O125 In117 2.266 1_655 S
O125 C122 1.252 . S
O126 In117 2.326 1_655 S
O126 C122 1.260 . S
C127 O118 1.239 1_655 S
C127 O119 1.252 1_655 S
O128 In117 2.294 . S
O128 C121 1.240 . S
O129 In117 2.326 . S
O129 C121 1.252 . S
In130 O131 2.294 . S
In130 O132 2.326 . S
In130 O136 2.266 . S
In130 O137 2.326 . S
In130 O138 2.266 . S
In130 O139 2.326 . S
In130 O141 2.294 . S
In130 O142 2.326 . S
O131 In130 2.294 . S
O131 C140 1.240 . S
O132 In130 2.326 . S
O132 C140 1.252 . S
C133 O136 1.252 . S
C133 O137 1.260 . S
C134 O141 1.240 . S
C134 O142 1.252 . S
C135 O138 1.252 . S
C135 O139 1.260 . S
O136 In130 2.266 . S
O136 C133 1.252 . S
O137 In130 2.326 . S
O137 C133 1.260 . S
O138 In130 2.266 . S
O138 C135 1.252 . S
O139 In130 2.326 . S
O139 C135 1.260 . S
C140 O131 1.240 . S
C140 O132 1.252 . S
O141 In130 2.294 . S
O141 C134 1.240 . S
O142 In130 2.326 . S
O142 C134 1.252 . S
In143 O144 2.294 . S
In143 O145 2.326 . S
In143 O149 2.266 . S
In143 O150 2.326 . S
In143 O151 2.266 1_556 S
In143 O152 2.326 . S
In143 O154 2.294 . S
In143 O155 2.326 . S
O144 In143 2.294 . S
O144 C153 1.240 . S
O145 In143 2.326 . S
O145 C153 1.252 . S
C146 O149 1.252 . S
C146 O150 1.260 . S
C147 O154 1.240 . S
C147 O155 1.252 . S
C148 O151 1.252 . S
C148 O152 1.260 1_554 S
O149 In143 2.266 . S
O149 C146 1.252 . S
O150 In143 2.326 . S
O150 C146 1.260 . S
O151 In143 2.266 1_554 S
O151 C148 1.252 . S
O152 In143 2.326 . S
O152 C148 1.260 1_556 S
C153 O144 1.240 . S
C153 O145 1.252 . S
O154 In143 2.294 . S
O154 C147 1.240 . S
O155 In143 2.326 . S
O155 C147 1.252 . S
In156 O157 2.294 . S
In156 O158 2.326 . S
In156 O162 2.266 . S
In156 O163 2.326 . S
In156 O164 2.266 . S
In156 O165 2.326 . S
In156 O167 2.294 . S
In156 O168 2.326 . S
O157 In156 2.294 . S
O157 C166 1.240 . S
O158 In156 2.326 . S
O158 C166 1.252 . S
C159 O162 1.252 . S
C159 O163 1.260 . S
C160 O167 1.240 . S
C160 O168 1.252 . S
C161 O164 1.252 . S
C161 O165 1.260 . S
O162 In156 2.266 . S
O162 C159 1.252 . S
O163 In156 2.326 . S
O163 C159 1.260 . S
O164 In156 2.266 . S
O164 C161 1.252 . S
O165 In156 2.326 . S
O165 C161 1.260 . S
C166 O157 1.240 . S
C166 O158 1.252 . S
O167 In156 2.294 . S
O167 C160 1.240 . S
O168 In156 2.326 . S
O168 C160 1.252 . S
In169 O170 2.294 . S
In169 O171 2.326 . S
In169 O175 2.266 . S
In169 O176 2.326 . S
In169 O177 2.266 . S
In169 O178 2.326 . S
In169 O180 2.294 . S
In169 O181 2.326 . S
O170 In169 2.294 . S
O170 C179 1.240 . S
O171 In169 2.326 . S
O171 C179 1.252 . S
C172 O175 1.252 . S
C172 O176 1.260 . S
C173 O180 1.240 . S
C173 O181 1.252 . S
C174 O177 1.252 . S
C174 O178 1.260 . S
O175 In169 2.266 . S
O175 C172 1.252 . S
O176 In169 2.326 . S
O176 C172 1.260 . S
O177 In169 2.266 . S
O177 C174 1.252 . S
O178 In169 2.326 . S
O178 C174 1.260 . S
C179 O170 1.240 . S
C179 O171 1.252 . S
O180 In169 2.294 . S
O180 C173 1.240 . S
O181 In169 2.326 . S
O181 C173 1.252 . S
In182 O183 2.294 . S
In182 O184 2.326 . S
In182 O188 2.266 . S
In182 O189 2.326 . S
In182 O190 2.266 . S
In182 O191 2.326 . S
In182 O193 2.294 . S
In182 O194 2.326 . S
O183 In182 2.294 . S
O183 C192 1.240 . S
O184 In182 2.326 . S
O184 C192 1.252 . S
C185 O188 1.252 . S
C185 O189 1.260 . S
C186 O193 1.240 . S
C186 O194 1.252 . S
C187 O190 1.252 . S
C187 O191 1.260 . S
O188 In182 2.266 . S
O188 C185 1.252 . S
O189 In182 2.326 . S
O189 C185 1.260 . S
O190 In182 2.266 . S
O190 C187 1.252 . S
O191 In182 2.326 . S
O191 C187 1.260 . S
C192 O183 1.240 . S
C192 O184 1.252 . S
O193 In182 2.294 . S
O193 C186 1.240 . S
O194 In182 2.326 . S
O194 C186 1.252 . S
In195 O196 2.294 . S
In195 O197 2.326 . S
In195 O201 2.266 1_455 S
In195 O202 2.326 1_455 S
In195 O203 2.266 1_554 S
In195 O204 2.326 . S
In195 O206 2.293 . S
In195 O207 2.326 . S
O196 In195 2.294 . S
O196 C205 1.240 . S
O197 In195 2.326 . S
O197 C205 1.252 . S
C198 O201 1.252 . S
C198 O202 1.260 . S
C199 O206 1.238 1_655 S
C199 O207 1.252 1_655 S
C200 O203 1.252 . S
C200 O204 1.260 1_556 S
O201 In195 2.266 1_655 S
O201 C198 1.252 . S
O202 In195 2.326 1_655 S
O202 C198 1.260 . S
O203 In195 2.266 1_556 S
O203 C200 1.252 . S
O204 In195 2.326 . S
O204 C200 1.260 1_554 S
C205 O196 1.240 . S
C205 O197 1.252 . S
O206 In195 2.293 . S
O206 C199 1.238 1_455 S
O207 In195 2.326 . S
O207 C199 1.252 1_455 S
In208 O209 2.294 . S
In208 O210 2.326 . S
In208 O214 2.266 . S
In208 O215 2.326 . S
In208 O216 2.266 . S
In208 O217 2.326 . S
In208 O219 2.294 . S
In208 O220 2.326 . S
O209 In208 2.294 . S
O209 C218 1.240 . S
O210 In208 2.326 . S
O210 C218 1.252 . S
C211 O214 1.252 . S
C211 O215 1.260 . S
C212 O219 1.240 . S
C212 O220 1.252 . S
C213 O216 1.252 . S
C213 O217 1.260 . S
O214 In208 2.266 . S
O214 C211 1.252 . S
O215 In208 2.326 . S
O215 C211 1.260 . S
O216 In208 2.266 . S
O216 C213 1.252 . S
O217 In208 2.326 . S
O217 C213 1.260 . S
C218 O209 1.240 . S
C218 O210 1.252 . S
O219 In208 2.294 . S
O219 C212 1.240 . S
O220 In208 2.326 . S
O220 C212 1.252 . S
In221 O222 2.294 . S
In221 O223 2.326 . S
In221 O227 2.266 . S
In221 O228 2.326 . S
In221 O229 2.266 . S
In221 O230 2.326 . S
In221 O232 2.294 . S
In221 O233 2.326 . S
O222 In221 2.294 . S
O222 C231 1.240 . S
O223 In221 2.326 . S
O223 C231 1.252 . S
C224 O227 1.252 . S
C224 O228 1.260 . S
C225 O232 1.240 . S
C225 O233 1.252 . S
C226 O229 1.252 . S
C226 O230 1.260 . S
O227 In221 2.266 . S
O227 C224 1.252 . S
O228 In221 2.326 . S
O228 C224 1.260 . S
O229 In221 2.266 . S
O229 C226 1.252 . S
O230 In221 2.326 . S
O230 C226 1.260 . S
C231 O222 1.240 . S
C231 O223 1.252 . S
O232 In221 2.294 . S
O232 C225 1.240 . S
O233 In221 2.326 . S
O233 C225 1.252 . S
In234 O235 2.294 . S
In234 O236 2.326 . S
In234 O240 2.266 . S
In234 O241 2.326 . S
In234 O242 2.266 1_554 S
In234 O243 2.326 1_554 S
In234 O245 2.294 . S
In234 O246 2.326 . S
O235 In234 2.294 . S
O235 C244 1.239 1_554 S
O236 In234 2.326 . S
O236 C244 1.252 1_554 S
C237 O240 1.252 . S
C237 O241 1.260 . S
C238 O245 1.240 . S
C238 O246 1.252 . S
C239 O242 1.252 . S
C239 O243 1.260 . S
O240 In234 2.266 . S
O240 C237 1.252 . S
O241 In234 2.326 . S
O241 C237 1.260 . S
O242 In234 2.266 1_556 S
O242 C239 1.252 . S
O243 In234 2.326 1_556 S
O243 C239 1.260 . S
C244 O235 1.239 1_556 S
C244 O236 1.252 1_556 S
O245 In234 2.294 . S
O245 C238 1.240 . S
O246 In234 2.326 . S
O246 C238 1.252 . S
In247 O248 2.294 . S
In247 O249 2.326 . S
In247 O253 2.266 . S
In247 O254 2.326 . S
In247 O255 2.266 . S
In247 O256 2.326 . S
In247 O258 2.294 . S
In247 O259 2.326 . S
O248 In247 2.294 . S
O248 C257 1.240 . S
O249 In247 2.326 . S
O249 C257 1.252 . S
C250 O253 1.252 . S
C250 O254 1.260 . S
C251 O258 1.240 . S
C251 O259 1.252 . S
C252 O255 1.252 . S
C252 O256 1.260 . S
O253 In247 2.266 . S
O253 C250 1.252 . S
O254 In247 2.326 . S
O254 C250 1.260 . S
O255 In247 2.266 . S
O255 C252 1.252 . S
O256 In247 2.326 . S
O256 C252 1.260 . S
C257 O248 1.240 . S
C257 O249 1.252 . S
O258 In247 2.294 . S
O258 C251 1.240 . S
O259 In247 2.326 . S
O259 C251 1.252 . S
In260 O261 2.293 . S
In260 O262 2.326 . S
In260 O266 2.266 1_545 S
In260 O267 2.326 . S
In260 O268 2.266 1_554 S
In260 O269 2.326 1_554 S
In260 O271 2.294 . S
In260 O272 2.326 . S
O261 In260 2.293 . S
O261 C270 1.238 1_554 S
O262 In260 2.326 . S
O262 C270 1.252 1_554 S
C263 O266 1.252 . S
C263 O267 1.260 1_565 S
C264 O271 1.240 . S
C264 O272 1.252 . S
C265 O268 1.252 . S
C265 O269 1.260 . S
O266 In260 2.266 1_565 S
O266 C263 1.252 . S
O267 In260 2.326 . S
O267 C263 1.260 1_545 S
O268 In260 2.266 1_556 S
O268 C265 1.252 . S
O269 In260 2.326 1_556 S
O269 C265 1.260 . S
C270 O261 1.238 1_556 S
C270 O262 1.252 1_556 S
O271 In260 2.294 . S
O271 C264 1.240 . S
O272 In260 2.326 . S
O272 C264 1.252 . S
In273 O274 2.294 . S
In273 O275 2.326 . S
In273 O279 2.266 . S
In273 O280 2.326 . S
In273 O281 2.266 . S
In273 O282 2.326 . S
In273 O284 2.294 . S
In273 O285 2.326 . S
O274 In273 2.294 . S
O274 C283 1.240 . S
O275 In273 2.326 . S
O275 C283 1.252 . S
C276 O279 1.252 . S
C276 O280 1.260 . S
C277 O284 1.240 . S
C277 O285 1.252 . S
C278 O281 1.252 . S
C278 O282 1.260 . S
O279 In273 2.266 . S
O279 C276 1.252 . S
O280 In273 2.326 . S
O280 C276 1.260 . S
O281 In273 2.266 . S
O281 C278 1.252 . S
O282 In273 2.326 . S
O282 C278 1.260 . S
C283 O274 1.240 . S
C283 O275 1.252 . S
O284 In273 2.294 . S
O284 C277 1.240 . S
O285 In273 2.326 . S
O285 C277 1.252 . S
In286 O287 2.294 . S
In286 O288 2.326 . S
In286 O292 2.266 . S
In286 O293 2.326 . S
In286 O294 2.266 . S
In286 O295 2.326 . S
In286 O297 2.294 . S
In286 O298 2.326 . S
O287 In286 2.294 . S
O287 C296 1.240 . S
O288 In286 2.326 . S
O288 C296 1.252 . S
C289 O292 1.252 . S
C289 O293 1.260 . S
C290 O297 1.240 . S
C290 O298 1.252 . S
C291 O294 1.252 . S
C291 O295 1.260 . S
O292 In286 2.266 . S
O292 C289 1.252 . S
O293 In286 2.326 . S
O293 C289 1.260 . S
O294 In286 2.266 . S
O294 C291 1.252 . S
O295 In286 2.326 . S
O295 C291 1.260 . S
C296 O287 1.240 . S
C296 O288 1.252 . S
O297 In286 2.294 . S
O297 C290 1.240 . S
O298 In286 2.326 . S
O298 C290 1.252 . S
In299 O300 2.294 . S
In299 O301 2.326 . S
In299 O305 2.266 1_556 S
In299 O306 2.326 1_556 S
In299 O307 2.266 . S
In299 O308 2.326 . S
In299 O310 2.294 . S
In299 O311 2.326 . S
O300 In299 2.294 . S
O300 C309 1.240 . S
O301 In299 2.326 . S
O301 C309 1.252 . S
C302 O305 1.252 . S
C302 O306 1.260 . S
C303 O310 1.239 1_554 S
C303 O311 1.252 1_554 S
C304 O307 1.252 . S
C304 O308 1.260 . S
O305 In299 2.266 1_554 S
O305 C302 1.252 . S
O306 In299 2.326 1_554 S
O306 C302 1.260 . S
O307 In299 2.266 . S
O307 C304 1.252 . S
O308 In299 2.326 . S
O308 C304 1.260 . S
C309 O300 1.240 . S
C309 O301 1.252 . S
O310 In299 2.294 . S
O310 C303 1.239 1_556 S
O311 In299 2.326 . S
O311 C303 1.252 1_556 S
In312 O313 2.294 . S
In312 O314 2.326 . S
In312 O318 2.266 . S
In312 O319 2.326 . S
In312 O320 2.266 . S
In312 O321 2.326 . S
In312 O323 2.294 . S
In312 O324 2.326 . S
O313 In312 2.294 . S
O313 C322 1.240 . S
O314 In312 2.326 . S
O314 C322 1.252 . S
C315 O318 1.252 . S
C315 O319 1.260 . S
C316 O323 1.240 . S
C316 O324 1.252 . S
C317 O320 1.252 . S
C317 O321 1.260 . S
O318 In312 2.266 . S
O318 C315 1.252 . S
O319 In312 2.326 . S
O319 C315 1.260 . S
O320 In312 2.266 . S
O320 C317 1.252 . S
O321 In312 2.326 . S
O321 C317 1.260 . S
C322 O313 1.240 . S
C322 O314 1.252 . S
O323 In312 2.294 . S
O323 C316 1.240 . S
O324 In312 2.326 . S
O324 C316 1.252 . S
In325 O326 2.294 . S
In325 O327 2.326 . S
In325 O331 2.266 . S
In325 O332 2.326 . S
In325 O333 2.266 . S
In325 O334 2.326 . S
In325 O336 2.294 . S
In325 O337 2.326 . S
O326 In325 2.294 . S
O326 C335 1.240 . S
O327 In325 2.326 . S
O327 C335 1.252 . S
C328 O331 1.252 . S
C328 O332 1.260 . S
C329 O336 1.240 . S
C329 O337 1.252 . S
C330 O333 1.252 . S
C330 O334 1.260 . S
O331 In325 2.266 . S
O331 C328 1.252 . S
O332 In325 2.326 . S
O332 C328 1.260 . S
O333 In325 2.266 . S
O333 C330 1.252 . S
O334 In325 2.326 . S
O334 C330 1.260 . S
C335 O326 1.240 . S
C335 O327 1.252 . S
O336 In325 2.294 . S
O336 C329 1.240 . S
O337 In325 2.326 . S
O337 C329 1.252 . S
In338 O339 2.294 . S
In338 O340 2.326 . S
In338 O344 2.266 . S
In338 O345 2.326 . S
In338 O346 2.266 . S
In338 O347 2.326 . S
In338 O349 2.294 . S
In338 O350 2.326 . S
O339 In338 2.294 . S
O339 C348 1.240 . S
O340 In338 2.326 . S
O340 C348 1.252 . S
C341 O344 1.252 . S
C341 O345 1.260 . S
C342 O349 1.240 . S
C342 O350 1.252 . S
C343 O346 1.252 . S
C343 O347 1.260 . S
O344 In338 2.266 . S
O344 C341 1.252 . S
O345 In338 2.326 . S
O345 C341 1.260 . S
O346 In338 2.266 . S
O346 C343 1.252 . S
O347 In338 2.326 . S
O347 C343 1.260 . S
C348 O339 1.240 . S
C348 O340 1.252 . S
O349 In338 2.294 . S
O349 C342 1.240 . S
O350 In338 2.326 . S
O350 C342 1.252 . S
In351 O352 2.294 . S
In351 O353 2.326 . S
In351 O357 2.266 . S
In351 O358 2.326 . S
In351 O359 2.266 1_655 S
In351 O360 2.326 . S
In351 O362 2.294 . S
In351 O363 2.326 . S
O352 In351 2.294 . S
O352 C361 1.240 . S
O353 In351 2.326 . S
O353 C361 1.252 . S
C354 O357 1.252 . S
C354 O358 1.260 . S
C355 O362 1.240 . S
C355 O363 1.252 . S
C356 O359 1.252 . S
C356 O360 1.260 1_455 S
O357 In351 2.266 . S
O357 C354 1.252 . S
O358 In351 2.326 . S
O358 C354 1.260 . S
O359 In351 2.266 1_455 S
O359 C356 1.252 . S
O360 In351 2.326 . S
O360 C356 1.260 1_655 S
C361 O352 1.240 . S
C361 O353 1.252 . S
O362 In351 2.294 . S
O362 C355 1.240 . S
O363 In351 2.326 . S
O363 C355 1.252 . S
In364 O365 2.294 . S
In364 O366 2.326 . S
In364 O370 2.266 . S
In364 O371 2.326 . S
In364 O372 2.266 . S
In364 O373 2.326 . S
In364 O375 2.294 . S
In364 O376 2.326 . S
O365 In364 2.294 . S
O365 C374 1.240 . S
O366 In364 2.326 . S
O366 C374 1.252 . S
C367 O370 1.252 . S
C367 O371 1.260 . S
C368 O375 1.240 . S
C368 O376 1.252 . S
C369 O372 1.252 . S
C369 O373 1.260 . S
O370 In364 2.266 . S
O370 C367 1.252 . S
O371 In364 2.326 . S
O371 C367 1.260 . S
O372 In364 2.266 . S
O372 C369 1.252 . S
O373 In364 2.326 . S
O373 C369 1.260 . S
C374 O365 1.240 . S
C374 O366 1.252 . S
O375 In364 2.294 . S
O375 C368 1.240 . S
O376 In364 2.326 . S
O376 C368 1.252 . S
In377 O378 2.294 . S
In377 O379 2.326 . S
In377 O383 2.266 . S
In377 O384 2.326 . S
In377 O385 2.266 1_655 S
In377 O386 2.326 . S
In377 O388 2.294 . S
In377 O389 2.326 . S
O378 In377 2.294 . S
O378 C387 1.240 . S
O379 In377 2.326 . S
O379 C387 1.252 . S
C380 O383 1.252 . S
C380 O384 1.260 . S
C381 O388 1.240 . S
C381 O389 1.252 . S
C382 O385 1.252 . S
C382 O386 1.260 1_455 S
O383 In377 2.266 . S
O383 C380 1.252 . S
O384 In377 2.326 . S
O384 C380 1.260 . S
O385 In377 2.266 1_455 S
O385 C382 1.252 . S
O386 In377 2.326 . S
O386 C382 1.260 1_655 S
C387 O378 1.240 . S
C387 O379 1.252 . S
O388 In377 2.294 . S
O388 C381 1.240 . S
O389 In377 2.326 . S
O389 C381 1.252 . S
In390 O391 2.294 . S
In390 O392 2.326 . S
In390 O396 2.266 . S
In390 O397 2.326 . S
In390 O398 2.266 . S
In390 O399 2.326 . S
In390 O401 2.294 . S
In390 O402 2.326 . S
O391 In390 2.294 . S
O391 C400 1.240 . S
O392 In390 2.326 . S
O392 C400 1.252 . S
C393 O396 1.252 . S
C393 O397 1.260 . S
C394 O401 1.240 . S
C394 O402 1.252 . S
C395 O398 1.252 . S
C395 O399 1.260 . S
O396 In390 2.266 . S
O396 C393 1.252 . S
O397 In390 2.326 . S
O397 C393 1.260 . S
O398 In390 2.266 . S
O398 C395 1.252 . S
O399 In390 2.326 . S
O399 C395 1.260 . S
C400 O391 1.240 . S
C400 O392 1.252 . S
O401 In390 2.294 . S
O401 C394 1.240 . S
O402 In390 2.326 . S
O402 C394 1.252 . S
In403 O404 2.294 . S
In403 O405 2.326 . S
In403 O409 2.266 . S
In403 O410 2.326 . S
In403 O411 2.266 . S
In403 O412 2.326 . S
In403 O414 2.294 . S
In403 O415 2.326 . S
O404 In403 2.294 . S
O404 C413 1.240 . S
O405 In403 2.326 . S
O405 C413 1.252 . S
C406 O409 1.252 . S
C406 O410 1.260 . S
C407 O414 1.240 . S
C407 O415 1.252 . S
C408 O411 1.252 . S
C408 O412 1.260 . S
O409 In403 2.266 . S
O409 C406 1.252 . S
O410 In403 2.326 . S
O410 C406 1.260 . S
O411 In403 2.266 . S
O411 C408 1.252 . S
O412 In403 2.326 . S
O412 C408 1.260 . S
C413 O404 1.240 . S
C413 O405 1.252 . S
O414 In403 2.294 . S
O414 C407 1.240 . S
O415 In403 2.326 . S
O415 C407 1.252 . S
In416 O417 2.294 . S
In416 O418 2.326 . S
In416 O422 2.266 . S
In416 O423 2.326 . S
In416 O424 2.266 . S
In416 O425 2.326 . S
In416 O427 2.294 . S
In416 O428 2.326 . S
O417 In416 2.294 . S
O417 C426 1.240 . S
O418 In416 2.326 . S
O418 C426 1.252 . S
C419 O422 1.252 . S
C419 O423 1.260 . S
C420 O427 1.240 . S
C420 O428 1.252 . S
C421 O424 1.252 . S
C421 O425 1.260 . S
O422 In416 2.266 . S
O422 C419 1.252 . S
O423 In416 2.326 . S
O423 C419 1.260 . S
O424 In416 2.266 . S
O424 C421 1.252 . S
O425 In416 2.326 . S
O425 C421 1.260 . S
C426 O417 1.240 . S
C426 O418 1.252 . S
O427 In416 2.294 . S
O427 C420 1.240 . S
O428 In416 2.326 . S
O428 C420 1.252 . S
In429 O430 2.294 . S
In429 O431 2.326 . S
In429 O435 2.266 . S
In429 O436 2.326 . S
In429 O437 2.266 1_556 S
In429 O438 2.326 . S
In429 O440 2.294 . S
In429 O441 2.326 . S
O430 In429 2.294 . S
O430 C439 1.240 . S
O431 In429 2.326 . S
O431 C439 1.252 . S
C432 O435 1.252 . S
C432 O436 1.260 . S
C433 O440 1.240 . S
C433 O441 1.252 . S
C434 O437 1.252 . S
C434 O438 1.260 1_554 S
O435 In429 2.266 . S
O435 C432 1.252 . S
O436 In429 2.326 . S
O436 C432 1.260 . S
O437 In429 2.266 1_554 S
O437 C434 1.252 . S
O438 In429 2.326 . S
O438 C434 1.260 1_556 S
C439 O430 1.240 . S
C439 O431 1.252 . S
O440 In429 2.294 . S
O440 C433 1.240 . S
O441 In429 2.326 . S
O441 C433 1.252 . S
In442 O443 2.294 . S
In442 O444 2.326 . S
In442 O448 2.266 . S
In442 O449 2.326 . S
In442 O450 2.266 . S
In442 O451 2.326 . S
In442 O453 2.294 . S
In442 O454 2.326 . S
O443 In442 2.294 . S
O443 C452 1.240 . S
O444 In442 2.326 . S
O444 C452 1.252 . S
C445 O448 1.252 . S
C445 O449 1.260 . S
C446 O453 1.240 . S
C446 O454 1.252 . S
C447 O450 1.252 . S
C447 O451 1.260 . S
O448 In442 2.266 . S
O448 C445 1.252 . S
O449 In442 2.326 . S
O449 C445 1.260 . S
O450 In442 2.266 . S
O450 C447 1.252 . S
O451 In442 2.326 . S
O451 C447 1.260 . S
C452 O443 1.240 . S
C452 O444 1.252 . S
O453 In442 2.294 . S
O453 C446 1.240 . S
O454 In442 2.326 . S
O454 C446 1.252 . S
In455 O456 2.294 . S
In455 O457 2.326 . S
In455 O461 2.266 1_655 S
In455 O462 2.326 1_655 S
In455 O463 2.266 . S
In455 O464 2.326 . S
In455 O466 2.294 . S
In455 O467 2.326 . S
O456 In455 2.294 . S
O456 C465 1.240 . S
O457 In455 2.326 . S
O457 C465 1.252 . S
C458 O461 1.252 . S
C458 O462 1.260 . S
C459 O466 1.239 1_455 S
C459 O467 1.252 1_455 S
C460 O463 1.252 . S
C460 O464 1.260 . S
O461 In455 2.266 1_455 S
O461 C458 1.252 . S
O462 In455 2.326 1_455 S
O462 C458 1.260 . S
O463 In455 2.266 . S
O463 C460 1.252 . S
O464 In455 2.326 . S
O464 C460 1.260 . S
C465 O456 1.240 . S
C465 O457 1.252 . S
O466 In455 2.294 . S
O466 C459 1.239 1_655 S
O467 In455 2.326 . S
O467 C459 1.252 1_655 S
In468 O469 2.294 . S
In468 O470 2.326 . S
In468 O474 2.266 . S
In468 O475 2.326 . S
In468 O476 2.266 . S
In468 O477 2.326 . S
In468 O479 2.294 . S
In468 O480 2.326 . S
O469 In468 2.294 . S
O469 C478 1.240 . S
O470 In468 2.326 . S
O470 C478 1.252 . S
C471 O474 1.252 . S
C471 O475 1.260 . S
C472 O479 1.240 . S
C472 O480 1.252 . S
C473 O476 1.252 . S
C473 O477 1.260 . S
O474 In468 2.266 . S
O474 C471 1.252 . S
O475 In468 2.326 . S
O475 C471 1.260 . S
O476 In468 2.266 . S
O476 C473 1.252 . S
O477 In468 2.326 . S
O477 C473 1.260 . S
C478 O469 1.240 . S
C478 O470 1.252 . S
O479 In468 2.294 . S
O479 C472 1.240 . S
O480 In468 2.326 . S
O480 C472 1.252 . S
In481 O482 2.294 . S
In481 O483 2.326 . S
In481 O487 2.266 1_655 S
In481 O488 2.326 1_655 S
In481 O489 2.266 1_554 S
In481 O490 2.326 . S
In481 O492 2.293 . S
In481 O493 2.326 . S
O482 In481 2.294 . S
O482 C491 1.240 . S
O483 In481 2.326 . S
O483 C491 1.252 . S
C484 O487 1.252 . S
C484 O488 1.260 . S
C485 O492 1.238 1_455 S
C485 O493 1.252 1_455 S
C486 O489 1.252 . S
C486 O490 1.260 1_556 S
O487 In481 2.266 1_455 S
O487 C484 1.252 . S
O488 In481 2.326 1_455 S
O488 C484 1.260 . S
O489 In481 2.266 1_556 S
O489 C486 1.252 . S
O490 In481 2.326 . S
O490 C486 1.260 1_554 S
C491 O482 1.240 . S
C491 O483 1.252 . S
O492 In481 2.293 . S
O492 C485 1.238 1_655 S
O493 In481 2.326 . S
O493 C485 1.252 1_655 S
In494 O495 2.294 . S
In494 O496 2.326 . S
In494 O500 2.266 . S
In494 O501 2.326 . S
In494 O502 2.266 . S
In494 O503 2.326 . S
In494 O505 2.294 . S
In494 O506 2.326 . S
O495 In494 2.294 . S
O495 C504 1.240 . S
O496 In494 2.326 . S
O496 C504 1.252 . S
C497 O500 1.252 . S
C497 O501 1.260 . S
C498 O505 1.240 . S
C498 O506 1.252 . S
C499 O502 1.252 . S
C499 O503 1.260 . S
O500 In494 2.266 . S
O500 C497 1.252 . S
O501 In494 2.326 . S
O501 C497 1.260 . S
O502 In494 2.266 . S
O502 C499 1.252 . S
O503 In494 2.326 . S
O503 C499 1.260 . S
C504 O495 1.240 . S
C504 O496 1.252 . S
O505 In494 2.294 . S
O505 C498 1.240 . S
O506 In494 2.326 . S
O506 C498 1.252 . S
In507 O508 2.294 . S
In507 O509 2.326 . S
In507 O513 2.266 . S
In507 O514 2.326 . S
In507 O515 2.266 . S
In507 O516 2.326 . S
In507 O518 2.294 . S
In507 O519 2.326 . S
O508 In507 2.294 . S
O508 C517 1.240 . S
O509 In507 2.326 . S
O509 C517 1.252 . S
C510 O513 1.252 . S
C510 O514 1.260 . S
C511 O518 1.240 . S
C511 O519 1.252 . S
C512 O515 1.252 . S
C512 O516 1.260 . S
O513 In507 2.266 . S
O513 C510 1.252 . S
O514 In507 2.326 . S
O514 C510 1.260 . S
O515 In507 2.266 . S
O515 C512 1.252 . S
O516 In507 2.326 . S
O516 C512 1.260 . S
C517 O508 1.240 . S
C517 O509 1.252 . S
O518 In507 2.294 . S
O518 C511 1.240 . S
O519 In507 2.326 . S
O519 C511 1.252 . S
In520 O521 2.294 . S
In520 O522 2.326 . S
In520 O526 2.266 . S
In520 O527 2.326 . S
In520 O528 2.266 . S
In520 O529 2.326 . S
In520 O531 2.294 . S
In520 O532 2.326 . S
O521 In520 2.294 . S
O521 C530 1.240 . S
O522 In520 2.326 . S
O522 C530 1.252 . S
C523 O526 1.252 . S
C523 O527 1.260 . S
C524 O531 1.240 . S
C524 O532 1.252 . S
C525 O528 1.252 . S
C525 O529 1.260 . S
O526 In520 2.266 . S
O526 C523 1.252 . S
O527 In520 2.326 . S
O527 C523 1.260 . S
O528 In520 2.266 . S
O528 C525 1.252 . S
O529 In520 2.326 . S
O529 C525 1.260 . S
C530 O521 1.240 . S
C530 O522 1.252 . S
O531 In520 2.294 . S
O531 C524 1.240 . S
O532 In520 2.326 . S
O532 C524 1.252 . S
In533 O534 2.294 . S
In533 O535 2.326 . S
In533 O539 2.266 . S
In533 O540 2.326 . S
In533 O541 2.266 . S
In533 O542 2.326 . S
In533 O544 2.294 . S
In533 O545 2.326 . S
O534 In533 2.294 . S
O534 C543 1.240 . S
O535 In533 2.326 . S
O535 C543 1.252 . S
C536 O539 1.252 . S
C536 O540 1.260 . S
C537 O544 1.240 . S
C537 O545 1.252 . S
C538 O541 1.252 . S
C538 O542 1.260 . S
O539 In533 2.266 . S
O539 C536 1.252 . S
O540 In533 2.326 . S
O540 C536 1.260 . S
O541 In533 2.266 . S
O541 C538 1.252 . S
O542 In533 2.326 . S
O542 C538 1.260 . S
C543 O534 1.240 . S
C543 O535 1.252 . S
O544 In533 2.294 . S
O544 C537 1.240 . S
O545 In533 2.326 . S
O545 C537 1.252 . S
In546 O547 2.294 . S
In546 O548 2.326 . S
In546 O552 2.266 1_565 S
In546 O553 2.326 . S
In546 O554 2.266 . S
In546 O555 2.326 . S
In546 O557 2.294 . S
In546 O558 2.326 . S
O547 In546 2.294 . S
O547 C556 1.240 . S
O548 In546 2.326 . S
O548 C556 1.252 . S
C549 O552 1.252 . S
C549 O553 1.260 1_545 S
C550 O557 1.240 . S
C550 O558 1.252 . S
C551 O554 1.252 . S
C551 O555 1.260 . S
O552 In546 2.266 1_545 S
O552 C549 1.252 . S
O553 In546 2.326 . S
O553 C549 1.260 1_565 S
O554 In546 2.266 . S
O554 C551 1.252 . S
O555 In546 2.326 . S
O555 C551 1.260 . S
C556 O547 1.240 . S
C556 O548 1.252 . S
O557 In546 2.294 . S
O557 C550 1.240 . S
O558 In546 2.326 . S
O558 C550 1.252 . S
In559 O560 2.294 . S
In559 O561 2.326 . S
In559 O565 2.266 . S
In559 O566 2.326 . S
In559 O567 2.266 . S
In559 O568 2.326 . S
In559 O570 2.294 . S
In559 O571 2.326 . S
O560 In559 2.294 . S
O560 C569 1.240 . S
O561 In559 2.326 . S
O561 C569 1.252 . S
C562 O565 1.252 . S
C562 O566 1.260 . S
C563 O570 1.240 . S
C563 O571 1.252 . S
C564 O567 1.252 . S
C564 O568 1.260 . S
O565 In559 2.266 . S
O565 C562 1.252 . S
O566 In559 2.326 . S
O566 C562 1.260 . S
O567 In559 2.266 . S
O567 C564 1.252 . S
O568 In559 2.326 . S
O568 C564 1.260 . S
C569 O560 1.240 . S
C569 O561 1.252 . S
O570 In559 2.294 . S
O570 C563 1.240 . S
O571 In559 2.326 . S
O571 C563 1.252 . S
In572 O573 2.294 . S
In572 O574 2.326 . S
In572 O578 2.266 . S
In572 O579 2.326 . S
In572 O580 2.266 . S
In572 O581 2.326 . S
In572 O583 2.294 . S
In572 O584 2.326 . S
O573 In572 2.294 . S
O573 C582 1.240 . S
O574 In572 2.326 . S
O574 C582 1.252 . S
C575 O578 1.252 . S
C575 O579 1.260 . S
C576 O583 1.240 . S
C576 O584 1.252 . S
C577 O580 1.252 . S
C577 O581 1.260 . S
O578 In572 2.266 . S
O578 C575 1.252 . S
O579 In572 2.326 . S
O579 C575 1.260 . S
O580 In572 2.266 . S
O580 C577 1.252 . S
O581 In572 2.326 . S
O581 C577 1.260 . S
C582 O573 1.240 . S
C582 O574 1.252 . S
O583 In572 2.294 . S
O583 C576 1.240 . S
O584 In572 2.326 . S
O584 C576 1.252 . S
In585 O586 2.294 . S
In585 O587 2.326 . S
In585 O591 2.266 . S
In585 O592 2.326 . S
In585 O593 2.266 . S
In585 O594 2.326 . S
In585 O596 2.294 . S
In585 O597 2.326 . S
O586 In585 2.294 . S
O586 C595 1.240 . S
O587 In585 2.326 . S
O587 C595 1.252 . S
C588 O591 1.252 . S
C588 O592 1.260 . S
C589 O596 1.240 . S
C589 O597 1.252 . S
C590 O593 1.252 . S
C590 O594 1.260 . S
O591 In585 2.266 . S
O591 C588 1.252 . S
O592 In585 2.326 . S
O592 C588 1.260 . S
O593 In585 2.266 . S
O593 C590 1.252 . S
O594 In585 2.326 . S
O594 C590 1.260 . S
C595 O586 1.240 . S
C595 O587 1.252 . S
O596 In585 2.294 . S
O596 C589 1.240 . S
O597 In585 2.326 . S
O597 C589 1.252 . S
In598 O599 2.294 . S
In598 O600 2.326 . S
In598 O604 2.266 1_556 S
In598 O605 2.326 1_556 S
In598 O606 2.266 1_545 S
In598 O607 2.326 . S
In598 O609 2.293 . S
In598 O610 2.326 . S
O599 In598 2.294 . S
O599 C608 1.240 . S
O600 In598 2.326 . S
O600 C608 1.252 . S
C601 O604 1.252 . S
C601 O605 1.260 . S
C602 O609 1.238 1_554 S
C602 O610 1.252 1_554 S
C603 O606 1.252 . S
C603 O607 1.260 1_565 S
O604 In598 2.266 1_554 S
O604 C601 1.252 . S
O605 In598 2.326 1_554 S
O605 C601 1.260 . S
O606 In598 2.266 1_565 S
O606 C603 1.252 . S
O607 In598 2.326 . S
O607 C603 1.260 1_545 S
C608 O599 1.240 . S
C608 O600 1.252 . S
O609 In598 2.293 . S
O609 C602 1.238 1_556 S
O610 In598 2.326 . S
O610 C602 1.252 1_556 S
In611 O612 2.294 . S
In611 O613 2.326 . S
In611 O617 2.266 . S
In611 O618 2.326 . S
In611 O619 2.266 1_565 S
In611 O620 2.326 . S
In611 O622 2.294 . S
In611 O623 2.326 . S
O612 In611 2.294 . S
O612 C621 1.240 . S
O613 In611 2.326 . S
O613 C621 1.252 . S
C614 O617 1.252 . S
C614 O618 1.260 . S
C615 O622 1.240 . S
C615 O623 1.252 . S
C616 O619 1.252 . S
C616 O620 1.260 1_545 S
O617 In611 2.266 . S
O617 C614 1.252 . S
O618 In611 2.326 . S
O618 C614 1.260 . S
O619 In611 2.266 1_545 S
O619 C616 1.252 . S
O620 In611 2.326 . S
O620 C616 1.260 1_565 S
C621 O612 1.240 . S
C621 O613 1.252 . S
O622 In611 2.294 . S
O622 C615 1.240 . S
O623 In611 2.326 . S
O623 C615 1.252 . S
C82 C4 1.421 . S
C17 C101 1.421 1_545 S
C36 C62 1.421 1_556 S
C69 C43 1.421 1_545 S
C446 C114 1.421 . S
C459 C127 1.421 1_455 S
C134 C426 1.421 1_455 S
C147 C433 1.421 . S
C504 C160 1.421 . S
C517 C179 1.421 . S
C472 C192 1.421 1_655 S
C485 C199 1.421 1_455 S
C212 C543 1.421 . S
C231 C530 1.421 1_545 S
C244 C303 1.421 1_556 S
C589 C257 1.421 1_545 S
C602 C270 1.421 1_554 S
C563 C283 1.421 . S
C576 C296 1.421 . S
C400 C322 1.421 1_554 S
C407 C335 1.421 . S
C342 C374 1.421 . S
C355 C381 1.421 . S
C615 C556 1.421 . S
C211 C5 1.344 . S
C18 C614 1.344 . S
C29 C278 1.344 . S
C601 C44 1.344 . S
C55 C538 1.344 . S
C551 C70 1.344 . S
C83 C562 1.344 . S
C265 C94 1.344 . S
C107 C3 1.344 . S
C16 C120 1.344 . S
C135 C31 1.344 . S
C148 C42 1.344 . S
C161 C57 1.344 . S
C68 C172 1.344 . S
C185 C81 1.344 . S
C200 C96 1.344 . S
C213 C109 1.344 . S
C224 C471 1.344 . S
C484 C237 1.344 . S
C499 C250 1.344 . S
C263 C198 1.344 . S
C276 C133 1.344 . S
C458 C289 1.344 . S
C432 C304 1.344 . S
C315 C525 1.344 . S
C328 C302 1.344 . S
C343 C588 1.344 . S
C356 C291 1.344 . S
C367 C226 1.344 . S
C239 C382 1.344 . S
C252 C393 1.344 . S
C575 C408 1.344 . S
C317 C419 1.344 . S
C330 C434 1.344 . S
C447 C341 1.344 . S
C354 C460 1.344 . S
C473 C369 1.344 . S
C380 C486 1.344 . S
C497 C395 1.344 . S
C406 C510 1.344 . S
C523 C421 1.344 . S
C536 C159 1.344 . S
C174 C549 1.344 . S
C564 C187 1.344 . S
C577 C512 1.344 . S
C445 C590 1.344 . S
C603 C146 1.344 . S
C122 C616 1.344 . S
C121 C10 1.071 . S
C23 C140 1.071 . S
C153 C30 1.071 . S
C108 C49 1.071 . S
C56 C205 1.071 . S
C75 C166 1.071 . S
C173 C88 1.071 . S
C186 C95 1.071 . S
C218 C238 1.071 . S
C225 C608 1.071 . S
C251 C621 1.071 . S
C595 C264 1.071 . S
C582 C277 1.071 . S
C537 C290 1.071 . S
C309 C569 1.071 . S
C439 C316 1.071 . S
C452 C329 1.071 . S
C348 C465 1.071 . S
C420 C361 1.071 . S
C511 C368 1.071 . S
C478 C387 1.071 . S
C394 C491 1.071 . S
C498 C413 1.071 . S
C550 C524 1.071 . S
