# Generated by pormake.
# Topology uop, (4)-cn, num edge types: 1
# Building blocks:
#     Node 0, Type 0, BuildingBlock: CEKHIL_clean_sbu_0, # of connection points: 4
#     Node 1, Type 0, BuildingBlock: CEKHIL_clean_sbu_0, # of connection points: 4
#     Node 2, Type 0, BuildingBlock: CEKHIL_clean_sbu_0, # of connection points: 4
#     Node 3, Type 0, BuildingBlock: CEKHIL_clean_sbu_0, # of connection points: 4
#     Node 4, Type 0, BuildingBlock: CEKHIL_clean_sbu_0, # of connection points: 4
#     Node 5, Type 0, BuildingBlock: CEKHIL_clean_sbu_0, # of connection points: 4
#     Node 6, Type 0, BuildingBlock: CEKHIL_clean_sbu_0, # of connection points: 4
#     Node 7, Type 0, BuildingBlock: CEKHIL_clean_sbu_0, # of connection points: 4
#     Node 8, Type 0, BuildingBlock: CEKHIL_clean_sbu_0, # of connection points: 4
#     Node 9, Type 0, BuildingBlock: CEKHIL_clean_sbu_0, # of connection points: 4
#     Node 10, Type 0, BuildingBlock: CEKHIL_clean_sbu_0, # of connection points: 4
#     Node 11, Type 0, BuildingBlock: CEKHIL_clean_sbu_0, # of connection points: 4
#     Edge 12, Type (0, 0), BuildingBlock: ZUJKAS_clean_linker_0, # of connection points: 2
#     Edge 13, Type (0, 0), BuildingBlock: ZUJKAS_clean_linker_0, # of connection points: 2
#     Edge 14, Type (0, 0), BuildingBlock: ZUJKAS_clean_linker_0, # of connection points: 2
#     Edge 15, Type (0, 0), BuildingBlock: ZUJKAS_clean_linker_0, # of connection points: 2
#     Edge 16, Type (0, 0), BuildingBlock: ZUJKAS_clean_linker_0, # of connection points: 2
#     Edge 17, Type (0, 0), BuildingBlock: ZUJKAS_clean_linker_0, # of connection points: 2
#     Edge 18, Type (0, 0), BuildingBlock: ZUJKAS_clean_linker_0, # of connection points: 2
#     Edge 19, Type (0, 0), BuildingBlock: ZUJKAS_clean_linker_0, # of connection points: 2
#     Edge 20, Type (0, 0), BuildingBlock: ZUJKAS_clean_linker_0, # of connection points: 2
#     Edge 21, Type (0, 0), BuildingBlock: ZUJKAS_clean_linker_0, # of connection points: 2
#     Edge 22, Type (0, 0), BuildingBlock: ZUJKAS_clean_linker_0, # of connection points: 2
#     Edge 23, Type (0, 0), BuildingBlock: ZUJKAS_clean_linker_0, # of connection points: 2
#     Edge 24, Type (0, 0), BuildingBlock: ZUJKAS_clean_linker_0, # of connection points: 2
#     Edge 25, Type (0, 0), BuildingBlock: ZUJKAS_clean_linker_0, # of connection points: 2
#     Edge 26, Type (0, 0), BuildingBlock: ZUJKAS_clean_linker_0, # of connection points: 2
#     Edge 27, Type (0, 0), BuildingBlock: ZUJKAS_clean_linker_0, # of connection points: 2
#     Edge 28, Type (0, 0), BuildingBlock: ZUJKAS_clean_linker_0, # of connection points: 2
#     Edge 29, Type (0, 0), BuildingBlock: ZUJKAS_clean_linker_0, # of connection points: 2
#     Edge 30, Type (0, 0), BuildingBlock: ZUJKAS_clean_linker_0, # of connection points: 2
#     Edge 31, Type (0, 0), BuildingBlock: ZUJKAS_clean_linker_0, # of connection points: 2
#     Edge 32, Type (0, 0), BuildingBlock: ZUJKAS_clean_linker_0, # of connection points: 2
#     Edge 33, Type (0, 0), BuildingBlock: ZUJKAS_clean_linker_0, # of connection points: 2
#     Edge 34, Type (0, 0), BuildingBlock: ZUJKAS_clean_linker_0, # of connection points: 2
#     Edge 35, Type (0, 0), BuildingBlock: ZUJKAS_clean_linker_0, # of connection points: 2
# Relax obj value: 0.151
# Max RMSD: 0.163
# Mean RMSD: 0.160
data_MOF--net-uop--node1-CEKHIL_clean_sbu_0--edge1-ZUJKAS_clean_linker_0
_symmetry_space_group_name_H-M    P1
_symmetry_Int_Tables_number       1
_symmetry_cell_setting            triclinic
loop_
_symmetry_equiv_pos_as_xyz
'x, y, z'
_cell_length_a     42.374479
_cell_length_b     41.549506
_cell_length_c     57.598503
_cell_angle_alpha  89.958689
_cell_angle_beta   89.99855
_cell_angle_gamma 120.67188
loop_
_atom_site_label
_atom_site_type_symbol
_atom_site_fract_x
_atom_site_fract_y
_atom_site_fract_z
_atom_type_partial_charge
Co0 Co 0.25158 0.3881 0.20553 0.0
O1 O 0.20261 0.36281 0.21762 0.0
O2 O 0.21699 0.36253 0.18065 0.0
C3 C 0.27578 0.36932 0.23342 0.0
O4 O 0.29934 0.40992 0.18712 0.0
Co5 Co 0.31493 0.45072 0.23479 0.0
O6 O 0.34531 0.44163 0.21259 0.0
C7 C 0.26295 0.46636 0.21045 0.0
C8 C 0.19172 0.35174 0.19655 0.0
C9 C 0.33352 0.42676 0.19273 0.0
O10 O 0.24859 0.43443 0.20019 0.0
O11 O 0.28792 0.47689 0.22599 0.0
O12 O 0.25865 0.3474 0.216 0.0
O13 O 0.27455 0.39966 0.23441 0.0
Co14 Co 0.84617 0.24996 0.5276 0.0
O15 O 0.89076 0.2654 0.54449 0.0
O16 O 0.84769 0.27794 0.55466 0.0
C17 C 0.83122 0.19046 0.52236 0.0
O18 O 0.79604 0.23739 0.51577 0.0
Co19 Co 0.83577 0.22273 0.47655 0.0
O20 O 0.78378 0.20842 0.4812 0.0
C21 C 0.88227 0.30301 0.48698 0.0
C22 C 0.87865 0.27999 0.55942 0.0
C23 C 0.77416 0.21991 0.49883 0.0
O24 O 0.87127 0.29666 0.5082 0.0
O25 O 0.87374 0.27698 0.47208 0.0
O26 O 0.82386 0.20089 0.54188 0.0
O27 O 0.85016 0.21676 0.50753 0.0
Co28 Co 0.6011 0.85 0.86409 0.0
O29 O 0.62202 0.82139 0.87483 0.0
O30 O 0.62414 0.83955 0.83841 0.0
C31 C 0.62342 0.8914 0.89342 0.0
O32 O 0.58342 0.88121 0.8472 0.0
Co33 Co 0.54376 0.85557 0.89495 0.0
O34 O 0.55567 0.89805 0.87388 0.0
C35 C 0.52261 0.78594 0.86931 0.0
C36 C 0.63301 0.82242 0.85372 0.0
C37 C 0.5694 0.9009 0.85375 0.0
O38 O 0.55311 0.80254 0.85806 0.0
O39 O 0.51505 0.80136 0.88595 0.0
O40 O 0.64391 0.89582 0.87552 0.0
O41 O 0.59175 0.86113 0.89367 0.0
Co42 Co 0.74124 0.60423 0.20004 0.0
O43 O 0.79026 0.63165 0.2118 0.0
O44 O 0.77505 0.63114 0.17493 0.0
C45 C 0.71548 0.62047 0.22836 0.0
O46 O 0.69287 0.58 0.1822 0.0
Co47 Co 0.68148 0.53912 0.23019 0.0
O48 O 0.64853 0.54426 0.20796 0.0
C49 C 0.73747 0.52981 0.20621 0.0
C50 C 0.80062 0.64296 0.1907 0.0
C51 C 0.6589 0.56014 0.18818 0.0
O52 O 0.747 0.55962 0.1943 0.0
O53 O 0.71443 0.51897 0.22297 0.0
O54 O 0.73172 0.64318 0.21108 0.0
O55 O 0.71882 0.59136 0.22897 0.0
Co56 Co 0.14308 0.74139 0.52988 0.0
O57 O 0.09888 0.72612 0.54715 0.0
O58 O 0.14166 0.71281 0.55669 0.0
C59 C 0.15807 0.80103 0.5253 0.0
O60 O 0.19261 0.75323 0.51733 0.0
Co61 Co 0.1531 0.76966 0.47926 0.0
O62 O 0.20562 0.7862 0.48425 0.0
C63 C 0.10833 0.68873 0.48889 0.0
C64 C 0.11082 0.71088 0.56171 0.0
C65 C 0.21484 0.77254 0.50093 0.0
O66 O 0.11751 0.69503 0.51041 0.0
O67 O 0.11762 0.71483 0.47389 0.0
O68 O 0.16625 0.79027 0.54439 0.0
O69 O 0.13872 0.77513 0.51035 0.0
Co70 Co 0.3905 0.14136 0.86372 0.0
O71 O 0.36762 0.16852 0.87367 0.0
O72 O 0.3679 0.15092 0.83741 0.0
C73 C 0.36813 0.09971 0.89297 0.0
O74 O 0.41041 0.11159 0.84757 0.0
Co75 Co 0.4479 0.13823 0.89597 0.0
O76 O 0.43909 0.0968 0.8748 0.0
C77 C 0.46705 0.20763 0.87075 0.0
C78 C 0.35759 0.16735 0.8523 0.0
C79 C 0.42569 0.09327 0.8545 0.0
O80 O 0.43788 0.1898 0.85832 0.0
O81 O 0.47422 0.19292 0.88799 0.0
O82 O 0.3481 0.09468 0.87471 0.0
O83 O 0.39919 0.13065 0.89358 0.0
Co84 Co 0.59429 0.73949 0.46928 0.0
O85 O 0.62654 0.72792 0.4528 0.0
O86 O 0.5692 0.70891 0.44259 0.0
C87 C 0.6352 0.80049 0.47337 0.0
O88 O 0.55364 0.74764 0.48107 0.0
Co89 Co 0.61023 0.76879 0.51981 0.0
O90 O 0.57362 0.78378 0.51292 0.0
C91 C 0.58085 0.68865 0.51084 0.0
C92 C 0.60001 0.71045 0.43802 0.0
C93 C 0.55054 0.76823 0.49651 0.0
O94 O 0.57691 0.69399 0.4893 0.0
O95 O 0.59563 0.7152 0.52572 0.0
O96 O 0.61691 0.78789 0.45416 0.0
O97 O 0.6304 0.77563 0.48872 0.0
Co98 Co 0.8589 0.60361 0.79593 0.0
O99 O 0.83488 0.62898 0.78466 0.0
O100 O 0.851 0.62928 0.8213 0.0
C101 C 0.90062 0.62208 0.76726 0.0
O102 O 0.88554 0.58165 0.81337 0.0
Co103 Co 0.85723 0.54057 0.76575 0.0
O104 O 0.89765 0.5493 0.78705 0.0
C105 C 0.7912 0.52573 0.79166 0.0
C106 C 0.8359 0.64006 0.80582 0.0
C107 C 0.90215 0.56441 0.80699 0.0
O108 O 0.80981 0.5574 0.80207 0.0
O109 O 0.80438 0.51517 0.77533 0.0
O110 O 0.90627 0.64416 0.78474 0.0
O111 O 0.86887 0.5919 0.76668 0.0
Co112 Co 0.24493 0.8474 0.13333 0.0
O113 O 0.19526 0.81848 0.12283 0.0
O114 O 0.21167 0.83813 0.15897 0.0
C115 C 0.26371 0.88754 0.10329 0.0
O116 O 0.29399 0.87932 0.15001 0.0
Co117 Co 0.3079 0.85208 0.1031 0.0
O118 O 0.33823 0.89594 0.12315 0.0
C119 C 0.26039 0.78368 0.13022 0.0
C120 C 0.1855 0.8205 0.14384 0.0
C121 C 0.32756 0.89933 0.1432 0.0
O122 O 0.24521 0.80003 0.14027 0.0
O123 O 0.28419 0.79885 0.11397 0.0
O124 O 0.24795 0.89272 0.12107 0.0
O125 O 0.2652 0.85731 0.10361 0.0
Co126 Co 0.39489 0.248 0.47112 0.0
O127 O 0.36627 0.26313 0.45338 0.0
O128 O 0.42226 0.27574 0.44416 0.0
C129 C 0.3502 0.18856 0.47624 0.0
O130 O 0.43215 0.23585 0.48404 0.0
Co131 Co 0.37646 0.22173 0.52207 0.0
O132 O 0.41362 0.20648 0.51838 0.0
C133 C 0.41296 0.30218 0.5114 0.0
C134 C 0.39351 0.27778 0.43883 0.0
C135 C 0.4357 0.21819 0.50123 0.0
O136 O 0.416 0.295 0.49008 0.0
O137 O 0.39585 0.27667 0.5267 0.0
O138 O 0.36902 0.19883 0.4571 0.0
O139 O 0.35664 0.21488 0.49084 0.0
Co140 Co 0.13509 0.38832 0.79049 0.0
O141 O 0.15797 0.36199 0.77897 0.0
O142 O 0.14445 0.3638 0.81593 0.0
C143 C 0.09143 0.36862 0.76299 0.0
O144 O 0.11015 0.41173 0.80828 0.0
Co145 Co 0.13512 0.44988 0.75948 0.0
O146 O 0.09716 0.44371 0.78216 0.0
C147 C 0.20269 0.46567 0.78381 0.0
C148 C 0.1583 0.35198 0.80024 0.0
C149 C 0.09395 0.42958 0.80231 0.0
O150 O 0.18469 0.43463 0.79501 0.0
O151 O 0.18856 0.47534 0.76757 0.0
O152 O 0.0868 0.34745 0.78082 0.0
O153 O 0.12323 0.39855 0.76139 0.0
Co154 Co 0.75009 0.14469 0.13309 0.0
O155 O 0.80042 0.16878 0.12399 0.0
O156 O 0.78044 0.15102 0.15995 0.0
C157 C 0.7297 0.104 0.10337 0.0
O158 O 0.69937 0.11743 0.14826 0.0
Co159 Co 0.69425 0.14851 0.09978 0.0
O160 O 0.65835 0.10793 0.12028 0.0
C161 C 0.74584 0.21491 0.12684 0.0
C162 C 0.80789 0.16608 0.14545 0.0
C163 C 0.66618 0.10215 0.14066 0.0
O164 O 0.75496 0.19481 0.13886 0.0
O165 O 0.72453 0.20243 0.10919 0.0
O166 O 0.74263 0.09689 0.12188 0.0
O167 O 0.73224 0.13625 0.10283 0.0
H168 H 0.29758 0.7473 0.12197 0.0
H169 H 0.28208 0.68529 0.13509 0.0
H170 H 0.1846 0.67113 0.16844 0.0
H171 H 0.2006 0.73406 0.15593 0.0
H172 H 0.21984 0.6503 0.19642 0.0
H173 H 0.20816 0.5839 0.11169 0.0
H174 H 0.25149 0.62661 0.11345 0.0
H175 H 0.2096 0.62793 0.11432 0.0
C176 C 0.27263 0.73095 0.13191 0.0
C177 C 0.25026 0.7456 0.13784 0.0
C178 C 0.2636 0.69527 0.13921 0.0
C179 C 0.23163 0.67311 0.15219 0.0
C180 C 0.20918 0.6876 0.1582 0.0
H181 H 0.2046 0.45299 0.18283 0.0
H182 H 0.18735 0.49827 0.17021 0.0
C183 C 0.21843 0.72359 0.15111 0.0
C184 C 0.22366 0.63616 0.16093 0.0
H185 H 0.22535 0.55832 0.14428 0.0
C186 C 0.22019 0.62977 0.18497 0.0
C187 C 0.22297 0.60875 0.14601 0.0
C188 C 0.22281 0.612 0.11993 0.0
C189 C 0.21926 0.5983 0.1946 0.0
C190 C 0.22305 0.57328 0.17983 0.0
C191 C 0.22326 0.57793 0.15568 0.0
C192 C 0.23095 0.54481 0.18903 0.0
C193 C 0.21513 0.59275 0.22055 0.0
C194 C 0.26127 0.55599 0.20364 0.0
C195 C 0.27104 0.53029 0.21098 0.0
C196 C 0.25108 0.49288 0.2035 0.0
C197 C 0.22058 0.48161 0.18889 0.0
C198 C 0.21063 0.5074 0.1817 0.0
H199 H 0.19856 0.60419 0.2278 0.0
H200 H 0.20191 0.56272 0.22532 0.0
H201 H 0.24263 0.60812 0.22877 0.0
H202 H 0.27815 0.58495 0.20889 0.0
H203 H 0.29489 0.54011 0.22203 0.0
H204 H 0.73697 0.22175 0.53699 0.0
H205 H 0.67606 0.21445 0.53834 0.0
H206 H 0.66629 0.19887 0.46408 0.0
H207 H 0.7267 0.20484 0.46268 0.0
H208 H 0.65469 0.25786 0.51891 0.0
H209 H 0.56849 0.11421 0.48444 0.0
H210 H 0.61549 0.13253 0.49324 0.0
H211 H 0.60516 0.1438 0.46511 0.0
C212 C 0.7217 0.21637 0.52096 0.0
C213 C 0.73663 0.21382 0.49972 0.0
C214 C 0.68687 0.21216 0.52178 0.0
C215 C 0.66634 0.20554 0.50137 0.0
C216 C 0.68113 0.20288 0.48014 0.0
H217 H 0.48307 0.23017 0.46557 0.0
H218 H 0.53777 0.2246 0.46646 0.0
C219 C 0.7158 0.20657 0.47934 0.0
C220 C 0.63064 0.20403 0.50218 0.0
H221 H 0.54057 0.15189 0.48615 0.0
C222 C 0.62968 0.23447 0.51199 0.0
C223 C 0.59797 0.17346 0.49316 0.0
C224 C 0.59668 0.13899 0.48361 0.0
C225 C 0.59718 0.23555 0.51252 0.0
C226 C 0.56493 0.20553 0.50296 0.0
C227 C 0.56557 0.17488 0.49339 0.0
C228 C 0.53056 0.20628 0.50219 0.0
C229 C 0.59746 0.26904 0.52289 0.0
C230 C 0.50836 0.19731 0.52197 0.0
C231 C 0.47699 0.20033 0.52156 0.0
C232 C 0.46755 0.21263 0.50137 0.0
C233 C 0.48962 0.22083 0.48145 0.0
C234 C 0.5208 0.21756 0.48186 0.0
H235 H 0.62537 0.29113 0.52839 0.0
H236 H 0.5868 0.28114 0.51008 0.0
H237 H 0.57904 0.26009 0.53824 0.0
H238 H 0.51566 0.18857 0.53781 0.0
H239 H 0.46065 0.19382 0.5372 0.0
H240 H 0.45944 0.73783 0.89233 0.0
H241 H 0.40972 0.67741 0.879 0.0
H242 H 0.47062 0.68728 0.81675 0.0
H243 H 0.521 0.74763 0.83012 0.0
H244 H 0.37139 0.66986 0.83957 0.0
H245 H 0.43143 0.57849 0.83581 0.0
H246 H 0.45239 0.62189 0.85186 0.0
H247 H 0.45792 0.62233 0.8209 0.0
C248 C 0.46259 0.72701 0.87594 0.0
C249 C 0.4941 0.74777 0.86219 0.0
C250 C 0.43416 0.69237 0.8684 0.0
C251 C 0.43662 0.67775 0.847 0.0
C252 C 0.46849 0.69772 0.83355 0.0
H253 H 0.25203 0.53062 0.76201 0.0
H254 H 0.31098 0.57982 0.77689 0.0
C255 C 0.49713 0.73236 0.84114 0.0
C256 C 0.40417 0.64386 0.83771 0.0
H257 H 0.37347 0.55569 0.81707 0.0
C258 C 0.37181 0.64483 0.8348 0.0
C259 C 0.40478 0.6112 0.83165 0.0
C260 C 0.43838 0.60814 0.8354 0.0
C261 C 0.34013 0.61424 0.82565 0.0
C262 C 0.34108 0.5821 0.81879 0.0
C263 C 0.37314 0.58066 0.82211 0.0
C264 C 0.30865 0.5499 0.80818 0.0
C265 C 0.30579 0.61649 0.82352 0.0
C266 C 0.28877 0.51617 0.82042 0.0
C267 C 0.25499 0.48782 0.81195 0.0
C268 C 0.24066 0.49294 0.79113 0.0
C269 C 0.26194 0.52592 0.77825 0.0
C270 C 0.29567 0.55409 0.78669 0.0
H271 H 0.30714 0.6392 0.83444 0.0
H272 H 0.30233 0.62232 0.80518 0.0
H273 H 0.28117 0.5896 0.82862 0.0
H274 H 0.29853 0.5125 0.83703 0.0
H275 H 0.23944 0.46269 0.82224 0.0
H276 H 0.76067 0.52252 0.16329 0.0
H277 H 0.77442 0.4745 0.15105 0.0
H278 H 0.76142 0.435 0.22167 0.0
H279 H 0.74629 0.48185 0.23384 0.0
H280 H 0.82394 0.45228 0.16248 0.0
H281 H 0.68211 0.34439 0.18782 0.0
H282 H 0.69724 0.39352 0.18681 0.0
H283 H 0.70846 0.37437 0.21134 0.0
C284 C 0.76126 0.50391 0.17624 0.0
C285 C 0.75164 0.50531 0.19941 0.0
C286 C 0.76918 0.47658 0.16924 0.0
C287 C 0.76798 0.45065 0.18538 0.0
C288 C 0.76146 0.45411 0.20885 0.0
H289 H 0.77521 0.24665 0.16894 0.0
H290 H 0.78788 0.30762 0.18323 0.0
C291 C 0.75289 0.4809 0.21577 0.0
C292 C 0.77016 0.41802 0.17738 0.0
H293 H 0.72093 0.32259 0.17531 0.0
C294 C 0.80151 0.42392 0.16533 0.0
C295 C 0.74056 0.38105 0.18087 0.0
C296 C 0.70505 0.37285 0.1922 0.0
C297 C 0.80405 0.39363 0.15682 0.0
C298 C 0.77469 0.35691 0.16065 0.0
C299 C 0.74356 0.35098 0.17279 0.0
C300 C 0.7741 0.3239 0.15088 0.0
C301 C 0.83776 0.40076 0.14367 0.0
C302 C 0.76265 0.31342 0.12792 0.0
C303 C 0.75489 0.27851 0.11979 0.0
C304 C 0.75856 0.25359 0.13452 0.0
C305 C 0.77206 0.26516 0.15717 0.0
C306 C 0.77944 0.29998 0.16535 0.0
H307 H 0.85968 0.43074 0.144 0.0
H308 H 0.84866 0.3837 0.15113 0.0
H309 H 0.83029 0.39199 0.12532 0.0
H310 H 0.758 0.3315 0.11665 0.0
H311 H 0.74487 0.2706 0.10219 0.0
H312 H 0.48523 0.72432 0.47433 0.0
H313 H 0.4314 0.73133 0.47437 0.0
H314 H 0.48978 0.83103 0.51612 0.0
H315 H 0.54323 0.82338 0.51691 0.0
H316 H 0.42424 0.78771 0.53303 0.0
H317 H 0.41056 0.80067 0.43857 0.0
H318 H 0.41026 0.75843 0.4454 0.0
H319 H 0.45069 0.80311 0.45118 0.0
C320 C 0.48671 0.74792 0.48336 0.0
C321 C 0.51847 0.77328 0.49563 0.0
C322 C 0.456 0.75207 0.48321 0.0
C323 C 0.45677 0.78215 0.49485 0.0
C324 C 0.4886 0.8077 0.50693 0.0
H325 H 0.27611 0.82521 0.47776 0.0
H326 H 0.33686 0.83157 0.47729 0.0
C327 C 0.5191 0.80325 0.50739 0.0
C328 C 0.42368 0.78569 0.49562 0.0
H329 H 0.35761 0.78569 0.46175 0.0
C330 C 0.40994 0.78773 0.51741 0.0
C331 C 0.40536 0.78647 0.47527 0.0
C332 C 0.42023 0.78748 0.4513 0.0
C333 C 0.37773 0.78921 0.51944 0.0
C334 C 0.358 0.78727 0.49915 0.0
C335 C 0.37244 0.78663 0.47733 0.0
C336 C 0.32174 0.78452 0.50018 0.0
C337 C 0.36544 0.79312 0.54334 0.0
C338 C 0.29302 0.75584 0.51304 0.0
C339 C 0.25859 0.75253 0.51364 0.0
C340 C 0.25186 0.77728 0.5009 0.0
C341 C 0.28047 0.80572 0.48775 0.0
C342 C 0.31516 0.80937 0.48747 0.0
H343 H 0.38906 0.8072 0.55546 0.0
H344 H 0.35119 0.80931 0.54286 0.0
H345 H 0.34629 0.76488 0.55047 0.0
H346 H 0.29704 0.73556 0.52236 0.0
H347 H 0.23698 0.72996 0.52365 0.0
H348 H 0.51778 0.26185 0.899 0.0
H349 H 0.5673 0.32405 0.88787 0.0
H350 H 0.5292 0.30269 0.81694 0.0
H351 H 0.47871 0.24094 0.82817 0.0
H352 H 0.62039 0.33569 0.85978 0.0
H353 H 0.55265 0.4085 0.8236 0.0
H354 H 0.52804 0.36603 0.84042 0.0
H355 H 0.53656 0.36403 0.80997 0.0
C356 C 0.51958 0.27068 0.8811 0.0
C357 C 0.49455 0.24648 0.8644 0.0
C358 C 0.5478 0.30627 0.87479 0.0
C359 C 0.55179 0.31824 0.85162 0.0
C360 C 0.52614 0.29453 0.83503 0.0
H361 H 0.74194 0.4579 0.77287 0.0
H362 H 0.68221 0.41139 0.78841 0.0
C363 C 0.49747 0.2591 0.84143 0.0
C364 C 0.58522 0.35329 0.8444 0.0
H365 H 0.6161 0.43339 0.81264 0.0
C366 C 0.61936 0.35732 0.84985 0.0
C367 C 0.58395 0.38161 0.83146 0.0
C368 C 0.5483 0.38002 0.82624 0.0
C369 C 0.65212 0.38809 0.84196 0.0
C370 C 0.65069 0.41526 0.82806 0.0
C371 C 0.61684 0.41217 0.82321 0.0
C372 C 0.68427 0.44556 0.81729 0.0
C373 C 0.68816 0.39098 0.84794 0.0
C374 C 0.70466 0.48032 0.82829 0.0
C375 C 0.73899 0.50707 0.81953 0.0
C376 C 0.75337 0.49925 0.79969 0.0
C377 C 0.73192 0.46483 0.78825 0.0
C378 C 0.6977 0.43824 0.79701 0.0
H379 H 0.68483 0.36961 0.86087 0.0
H380 H 0.70056 0.3872 0.83196 0.0
H381 H 0.70762 0.41921 0.85497 0.0
H382 H 0.69461 0.48618 0.84408 0.0
H383 H 0.75469 0.53331 0.82873 0.0
H384 H 0.59541 0.55652 0.19883 0.0
H385 H 0.542 0.53577 0.17415 0.0
H386 H 0.60198 0.52874 0.11574 0.0
H387 H 0.65637 0.54991 0.14078 0.0
H388 H 0.52812 0.56033 0.12937 0.0
H389 H 0.51406 0.41956 0.12675 0.0
H390 H 0.54549 0.45341 0.14736 0.0
H391 H 0.55517 0.46086 0.11685 0.0
C392 C 0.59755 0.5513 0.18062 0.0
C393 C 0.62978 0.55434 0.17175 0.0
C394 C 0.56709 0.53968 0.16647 0.0
C395 C 0.56794 0.53049 0.14315 0.0
C396 C 0.60078 0.53561 0.13372 0.0
H397 H 0.33316 0.43534 0.14528 0.0
H398 H 0.38549 0.45419 0.11879 0.0
C399 C 0.63176 0.54779 0.14798 0.0
C400 C 0.5325 0.51105 0.13061 0.0
H401 H 0.45985 0.42177 0.13107 0.0
C402 C 0.51314 0.53001 0.12841 0.0
C403 C 0.51321 0.4716 0.12883 0.0
C404 C 0.53286 0.44992 0.12995 0.0
C405 C 0.47464 0.51044 0.12907 0.0
C406 C 0.4555 0.4711 0.13181 0.0
C407 C 0.47471 0.452 0.12939 0.0
C408 C 0.42083 0.45236 0.14524 0.0
C409 C 0.45516 0.53227 0.13039 0.0
C410 C 0.42291 0.44362 0.16851 0.0
C411 C 0.39355 0.4332 0.18349 0.0
C412 C 0.36123 0.43101 0.17554 0.0
C413 C 0.35788 0.4369 0.15182 0.0
C414 C 0.38771 0.44779 0.13672 0.0
H415 H 0.47388 0.56253 0.12682 0.0
H416 H 0.4324 0.5211 0.11761 0.0
H417 H 0.44316 0.52924 0.14796 0.0
H418 H 0.44822 0.44707 0.1755 0.0
H419 H 0.39673 0.42837 0.2016 0.0
H420 H 0.08825 0.62622 0.51479 0.0
H421 H 0.05345 0.56131 0.50239 0.0
H422 H 0.04466 0.59605 0.43333 0.0
H423 H 0.07976 0.66176 0.44555 0.0
H424 H 0.97703 0.53896 0.45393 0.0
H425 H 0.08612 0.5035 0.45957 0.0
H426 H 0.08483 0.52828 0.48472 0.0
H427 H 0.09589 0.55109 0.45685 0.0
C428 C 0.07918 0.62032 0.4969 0.0
C429 C 0.08689 0.64931 0.48116 0.0
C430 C 0.05955 0.58313 0.48981 0.0
C431 C 0.04725 0.57407 0.46685 0.0
C432 C 0.05443 0.60269 0.45105 0.0
H433 H 0.91966 0.32918 0.44584 0.0
H434 H 0.95938 0.39469 0.43414 0.0
C435 C 0.07435 0.64012 0.45811 0.0
C436 C 0.02466 0.53433 0.46031 0.0
H437 H 0.02362 0.45201 0.4651 0.0
C438 C 0.98734 0.51995 0.45564 0.0
C439 C 0.03835 0.50973 0.46223 0.0
C440 C 0.0786 0.52398 0.46588 0.0
C441 C 0.9627 0.48125 0.45521 0.0
C442 C 0.97589 0.45676 0.45961 0.0
C443 C 0.01365 0.47105 0.46196 0.0
C444 C 0.95067 0.41729 0.46565 0.0
C445 C 0.92241 0.4667 0.45149 0.0
C446 C 0.93315 0.40872 0.4873 0.0
C447 C 0.9109 0.37162 0.49417 0.0
C448 C 0.90564 0.34233 0.47943 0.0
C449 C 0.92307 0.35108 0.45759 0.0
C450 C 0.9457 0.38838 0.45083 0.0
H451 H 0.91771 0.48793 0.44302 0.0
H452 H 0.90992 0.44099 0.44066 0.0
H453 H 0.90821 0.45938 0.46854 0.0
H454 H 0.93721 0.43087 0.49906 0.0
H455 H 0.89794 0.36597 0.51108 0.0
H456 H 0.44509 0.10541 0.80848 0.0
H457 H 0.46681 0.07093 0.78504 0.0
H458 H 0.44004 0.99248 0.84129 0.0
H459 H 0.41884 0.02661 0.86446 0.0
H460 H 0.52554 0.06633 0.79881 0.0
H461 H 0.41144 0.92299 0.78644 0.0
H462 H 0.40398 0.96147 0.79195 0.0
H463 H 0.40941 0.93631 0.81571 0.0
C464 C 0.44267 0.07998 0.81538 0.0
C465 C 0.4305 0.06866 0.83828 0.0
C466 C 0.45511 0.06039 0.80203 0.0
C467 C 0.45459 0.02877 0.81124 0.0
C468 C 0.43988 0.01613 0.83349 0.0
H469 H 0.58008 0.96936 0.8628 0.0
H470 H 0.55927 0.00388 0.8397 0.0
C471 C 0.42809 0.03589 0.84687 0.0
C472 C 0.4753 0.0128 0.80029 0.0
H473 H 0.47077 0.92864 0.79914 0.0
C474 C 0.51342 0.03622 0.79785 0.0
C475 C 0.45973 0.97368 0.79807 0.0
C476 C 0.41879 0.94731 0.79791 0.0
C477 C 0.53656 0.02127 0.7973 0.0
C478 C 0.5211 0.98218 0.79972 0.0
C479 C 0.48287 0.95873 0.79802 0.0
C480 C 0.54226 0.96631 0.81019 0.0
C481 C 0.57746 0.04765 0.79628 0.0
C482 C 0.54042 0.93391 0.80124 0.0
C483 C 0.5526 0.91405 0.81458 0.0
C484 C 0.56591 0.92598 0.83719 0.0
C485 C 0.56998 0.95965 0.8454 0.0
C486 C 0.55839 0.97963 0.83205 0.0
H487 H 0.58418 0.07149 0.7845 0.0
H488 H 0.5877 0.05938 0.81382 0.0
H489 H 0.59202 0.03331 0.79019 0.0
H490 H 0.52765 0.92285 0.78456 0.0
H491 H 0.54887 0.88792 0.80798 0.0
H492 H 0.5572 0.62691 0.48367 0.0
H493 H 0.53311 0.56252 0.49604 0.0
H494 H 0.54919 0.59703 0.56772 0.0
H495 H 0.57361 0.66223 0.55555 0.0
H496 H 0.57329 0.53635 0.53024 0.0
H497 H 0.43503 0.5094 0.55626 0.0
H498 H 0.46176 0.54532 0.53515 0.0
H499 H 0.47633 0.55172 0.56484 0.0
C500 C 0.55573 0.62106 0.50209 0.0
C501 C 0.56722 0.64979 0.51862 0.0
C502 C 0.54203 0.58422 0.5091 0.0
C503 C 0.53935 0.57526 0.53273 0.0
C504 C 0.55103 0.60363 0.5494 0.0
H505 H 0.41615 0.3307 0.55505 0.0
H506 H 0.44938 0.39675 0.56667 0.0
C507 C 0.565 0.64076 0.54238 0.0
C508 C 0.5237 0.53574 0.53931 0.0
H509 H 0.44072 0.45685 0.54842 0.0
C510 C 0.54458 0.51896 0.53492 0.0
C511 C 0.48642 0.51339 0.54564 0.0
C512 C 0.46333 0.53062 0.55082 0.0
C513 C 0.52827 0.47998 0.53479 0.0
C514 C 0.49009 0.4575 0.53866 0.0
C515 C 0.46995 0.47429 0.54525 0.0
C516 C 0.46996 0.41756 0.53221 0.0
C517 C 0.55158 0.46313 0.5292 0.0
C518 C 0.46984 0.40773 0.50893 0.0
C519 C 0.45088 0.37034 0.5022 0.0
C520 C 0.43144 0.34189 0.51864 0.0
C521 C 0.43093 0.35189 0.54195 0.0
C522 C 0.44994 0.38953 0.54866 0.0
H523 H 0.58066 0.48227 0.53421 0.0
H524 H 0.54125 0.4359 0.53818 0.0
H525 H 0.5508 0.45831 0.5102 0.0
H526 H 0.48444 0.42911 0.4959 0.0
H527 H 0.45172 0.36384 0.48409 0.0
H528 H 0.96347 0.56358 0.79598 0.0
H529 H -0.00217 0.54465 0.82045 0.0
H530 H 0.93098 0.53608 0.87935 0.0
H531 H 0.8959 0.55515 0.85449 0.0
H532 H 0.03714 0.56876 0.86401 0.0
H533 H 0.91042 0.42806 0.8693 0.0
H534 H 0.9118 0.46189 0.84906 0.0
H535 H 0.91113 0.46932 0.87972 0.0
C536 C 0.95647 0.5584 0.81424 0.0
C537 C 0.92669 0.5602 0.82327 0.0
C538 C 0.97633 0.54786 0.82829 0.0
C539 C 0.96676 0.5386 0.85168 0.0
C540 C 0.93863 0.54287 0.86129 0.0
H541 H 0.10413 0.44002 0.84957 0.0
H542 H 0.07251 0.46144 0.8758 0.0
C543 C 0.91876 0.55387 0.84714 0.0
C544 C 0.98336 0.51953 0.86401 0.0
H545 H 0.96656 0.43018 0.8647 0.0
C546 C 0.02179 0.5385 0.86547 0.0
C547 C 0.96321 0.48014 0.86645 0.0
C548 C 0.92183 0.45842 0.86616 0.0
C549 C 0.0406 0.51882 0.86477 0.0
C550 C 0.02021 0.4794 0.86273 0.0
C551 C 0.98204 0.46047 0.86585 0.0
C552 C 0.03547 0.45999 0.84939 0.0
C553 C 0.08184 0.54044 0.86265 0.0
C554 C 0.02421 0.45088 0.82623 0.0
C555 C 0.04214 0.43906 0.81139 0.0
C556 C 0.07163 0.43578 0.81939 0.0
C557 C 0.08141 0.44233 0.84301 0.0
C558 C 0.06352 0.45466 0.85795 0.0
H559 H 0.09367 0.57078 0.86603 0.0
H560 H 0.09393 0.52939 0.87516 0.0
H561 H 0.0899 0.53699 0.84489 0.0
H562 H 0.00273 0.45493 0.81923 0.0
H563 H 0.03376 0.43383 0.79335 0.0
H564 H 0.38653 0.96615 0.13245 0.0
H565 H 0.44196 0.00162 0.15534 0.0
H566 H 0.39025 0.92699 0.21333 0.0
H567 H 0.33412 0.89074 0.19004 0.0
H568 H 0.46424 0.03793 0.19883 0.0
H569 H 0.4736 0.90881 0.1955 0.0
H570 H 0.43921 0.91157 0.17865 0.0
H571 H 0.43543 0.90809 0.20972 0.0
C572 C 0.38655 0.95783 0.15029 0.0
C573 C 0.35632 0.9254 0.15936 0.0
C574 C 0.41822 0.97826 0.16344 0.0
C575 C 0.42055 0.9666 0.18592 0.0
C576 C 0.38921 0.93617 0.1959 0.0
H577 H 0.66071 0.10637 0.18818 0.0
H578 H 0.60433 0.07181 0.21164 0.0
C579 C 0.35712 0.91568 0.18266 0.0
C580 C 0.45761 0.98316 0.19643 0.0
H581 H 0.52835 0.96635 0.19408 0.0
C582 C 0.47829 0.02223 0.19895 0.0
C583 C 0.47584 0.96255 0.19696 0.0
C584 C 0.4551 0.92043 0.19509 0.0
C585 C 0.51681 0.04154 0.19816 0.0
C586 C 0.53478 0.02107 0.19492 0.0
C587 C 0.51434 0.98189 0.19628 0.0
C588 C 0.57069 0.03841 0.18288 0.0
C589 C 0.53771 0.08373 0.1977 0.0
C590 C 0.57064 0.03016 0.15928 0.0
C591 C 0.60231 0.04972 0.14601 0.0
C592 C 0.635 0.07792 0.15604 0.0
C593 C 0.63585 0.08471 0.18004 0.0
C594 C 0.60371 0.06518 0.1934 0.0
H595 H 0.51979 0.09542 0.20138 0.0
H596 H 0.56003 0.09473 0.21079 0.0
H597 H 0.55052 0.0938 0.18037 0.0
H598 H 0.54547 0.00969 0.15079 0.0
H599 H 0.60087 0.0436 0.12762 0.0
H600 H 0.31015 0.40968 0.2719 0.0
H601 H 0.34059 0.39449 0.3021 0.0
H602 H 0.31913 0.29567 0.26433 0.0
H603 H 0.28756 0.31032 0.2341 0.0
H604 H 0.29839 0.27971 0.30818 0.0
H605 H 0.43862 0.40233 0.30713 0.0
H606 H 0.40572 0.41713 0.30908 0.0
H607 H 0.40663 0.39232 0.28367 0.0
C608 C 0.31228 0.38495 0.26983 0.0
C609 C 0.29635 0.36108 0.2507 0.0
C610 C 0.33011 0.37653 0.287 0.0
C611 C 0.33287 0.34439 0.28525 0.0
C612 C 0.31763 0.32084 0.26589 0.0
H613 H 0.43879 0.29633 0.40105 0.0
H614 H 0.42745 0.3117 0.36195 0.0
C615 C 0.29953 0.32916 0.2487 0.0
C616 C 0.34789 0.33351 0.30497 0.0
H617 H 0.41834 0.36897 0.34402 0.0
C618 C 0.32496 0.29893 0.31573 0.0
C619 C 0.38282 0.35824 0.31461 0.0
C620 C 0.40997 0.39437 0.30283 0.0
C621 C 0.33491 0.28954 0.33673 0.0
C622 C 0.36822 0.31585 0.34752 0.0
C623 C 0.3924 0.34925 0.33597 0.0
C624 C 0.37713 0.30988 0.37136 0.0
C625 C 0.30924 0.25179 0.3474 0.0
C626 C 0.35343 0.30539 0.38969 0.0
C627 C 0.35972 0.29654 0.4119 0.0
C628 C 0.39011 0.29249 0.41625 0.0
C629 C 0.41509 0.29922 0.39819 0.0
C630 C 0.40863 0.30788 0.37586 0.0
H631 H 0.29175 0.2311 0.33401 0.0
H632 H 0.32464 0.24078 0.35682 0.0
H633 H 0.29085 0.25454 0.35992 0.0
H634 H 0.32951 0.30785 0.38668 0.0
H635 H 0.34019 0.2919 0.42552 0.0
H636 H 0.94596 0.2929 0.57216 0.0
H637 H 0.973 0.30786 0.61091 0.0
H638 H 0.88006 0.313 0.63658 0.0
H639 H 0.85299 0.29867 0.59761 0.0
H640 H 0.94639 0.36913 0.65445 0.0
H641 H 0.93429 0.23078 0.66335 0.0
H642 H 0.95855 0.25443 0.63743 0.0
H643 H 0.91112 0.241 0.64078 0.0
C644 C 0.93144 0.29764 0.58597 0.0
C645 C 0.89721 0.29427 0.58192 0.0
C646 C 0.94678 0.30588 0.60813 0.0
C647 C 0.92798 0.31043 0.6267 0.0
C648 C 0.89474 0.30911 0.6225 0.0
H649 H 0.02048 0.30977 0.76307 0.0
H650 H 0.97346 0.29513 0.73338 0.0
C651 C 0.87941 0.30106 0.60024 0.0
C652 C 0.9431 0.31595 0.65046 0.0
H653 H 0.97697 0.27901 0.68913 0.0
C654 C 0.95258 0.34921 0.66224 0.0
C655 C 0.95002 0.28937 0.66095 0.0
C656 C 0.93757 0.2517 0.65008 0.0
C657 C 0.97141 0.35784 0.68348 0.0
C658 C 0.98164 0.33291 0.69276 0.0
C659 C 0.96964 0.29841 0.68184 0.0
C660 C 0.00807 0.34363 0.71215 0.0
C661 C 0.98072 0.39386 0.69551 0.0
C662 C 0.04303 0.37559 0.71 0.0
C663 C 0.06973 0.38396 0.72682 0.0
C664 C 0.06218 0.36025 0.74602 0.0
C665 C 0.02703 0.32848 0.74841 0.0
C666 C 0.00017 0.32017 0.73154 0.0
H667 H 0.96004 0.40197 0.69154 0.0
H668 H 0.98231 0.39155 0.71463 0.0
H669 H 0.00769 0.41664 0.68915 0.0
H670 H 0.05016 0.39346 0.69486 0.0
H671 H 0.09661 0.40857 0.72445 0.0
H672 H 0.69374 0.94585 0.90371 0.0
H673 H 0.71512 0.98248 0.93966 0.0
H674 H 0.6032 0.93206 0.96344 0.0
H675 H 0.58185 0.89481 0.92804 0.0
H676 H 0.70134 0.03304 0.9603 0.0
H677 H 0.65131 0.90772 0.01596 0.0
H678 H 0.65398 0.90584 0.98477 0.0
H679 H 0.61544 0.90546 0.99823 0.0
C680 C 0.67375 0.9429 0.91655 0.0
C681 C 0.63622 0.91718 0.9133 0.0
C682 C 0.68597 0.9637 0.93705 0.0
C683 C 0.66077 0.95909 0.95444 0.0
C684 C 0.62315 0.93509 0.95054 0.0
H685 H 0.68789 0.10444 0.06783 0.0
H686 H 0.67236 0.06823 0.03196 0.0
C687 C 0.61099 0.91406 0.93024 0.0
C688 C 0.67353 0.97898 0.97681 0.0
H689 H 0.66624 0.96479 0.03539 0.0
C690 C 0.694 0.01818 0.97673 0.0
C691 C 0.66473 0.95944 0.99818 0.0
C692 C 0.64552 0.91729 -0.00067 0.0
C693 C 0.70452 0.03846 0.99754 0.0
C694 C 0.69323 0.01893 0.01892 0.0
C695 C 0.67421 0.9797 0.01898 0.0
C696 C 0.70035 0.0387 0.04136 0.0
C697 C 0.7278 0.08058 0.99637 0.0
C698 C 0.71917 0.0323 0.05914 0.0
C699 C 0.72728 0.0523 0.07992 0.0
C700 C 0.71688 0.07913 0.08307 0.0
C701 C 0.69664 0.08426 0.06569 0.0
C702 C 0.68809 0.06389 0.04511 0.0
H703 H 0.74373 0.08996 0.97994 0.0
H704 H 0.70973 0.09266 0.99695 0.0
H705 H 0.74725 0.09197 0.01118 0.0
H706 H 0.72847 0.0126 0.05668 0.0
H707 H 0.74293 0.04786 0.09309 0.0
H708 H 0.66544 0.72633 0.42001 0.0
H709 H 0.67734 0.70833 0.38233 0.0
H710 H 0.56102 0.64447 0.36848 0.0
H711 H 0.54894 0.66391 0.40609 0.0
H712 H 0.65884 0.64243 0.36594 0.0
H713 H 0.59778 0.70542 0.30991 0.0
H714 H 0.60507 0.71484 0.34062 0.0
H715 H 0.5664 0.67184 0.33047 0.0
C716 C 0.6423 0.70835 0.40902 0.0
C717 C 0.60623 0.69653 0.41597 0.0
C718 C 0.64917 0.69817 0.38743 0.0
C719 C 0.62014 0.67557 0.37239 0.0
C720 C 0.58391 0.66277 0.37953 0.0
H721 H 0.66479 0.56929 0.25787 0.0
H722 H 0.63639 0.58098 0.29107 0.0
C723 C 0.57702 0.67352 0.40109 0.0
C724 C 0.62845 0.66492 0.34965 0.0
H725 H 0.62042 0.6706 0.29095 0.0
C726 C 0.65033 0.64852 0.34956 0.0
C727 C 0.6177 0.67332 0.32828 0.0
C728 C 0.59573 0.69264 0.32722 0.0
C729 C 0.66231 0.64085 0.32879 0.0
C730 C 0.6509 0.64842 0.30742 0.0
C731 C 0.62875 0.66451 0.30739 0.0
C732 C 0.66281 0.64061 0.28507 0.0
C733 C 0.6882 0.62597 0.32998 0.0
C734 C 0.68526 0.66996 0.26988 0.0
C735 C 0.70112 0.66323 0.25057 0.0
C736 C 0.6949 0.62714 0.24643 0.0
C737 C 0.67058 0.59751 0.26085 0.0
C738 C 0.65435 0.60412 0.27985 0.0
H739 H 0.70185 0.63131 0.34718 0.0
H740 H 0.67252 0.59526 0.32716 0.0
H741 H 0.70973 0.63886 0.31638 0.0
H742 H 0.6919 0.6983 0.27357 0.0
H743 H 0.71961 0.6865 0.23961 0.0
H744 H 0.04236 0.69511 0.57376 0.0
H745 H 0.01438 0.67877 0.61224 0.0
H746 H 0.10867 0.67708 0.63882 0.0
H747 H 0.13672 0.69279 0.60009 0.0
H748 H 0.04192 0.61935 0.65644 0.0
H749 H 0.05146 0.75677 0.66423 0.0
H750 H 0.02778 0.73238 0.63836 0.0
H751 H 0.07543 0.74695 0.64202 0.0
C752 C 0.05698 0.69081 0.58771 0.0
C753 C 0.0919 0.69563 0.58401 0.0
C754 C 0.04107 0.68172 0.60971 0.0
C755 C 0.05996 0.67779 0.62845 0.0
C756 C 0.09389 0.68044 0.62458 0.0
H757 H 0.97134 0.68103 0.76548 0.0
H758 H 0.01664 0.69467 0.73479 0.0
C759 C 0.10979 0.68929 0.60246 0.0
C760 C 0.04448 0.67213 0.65212 0.0
H761 H 0.01019 0.7089 0.69056 0.0
C762 C 0.03542 0.63912 0.6641 0.0
C763 C 0.03706 0.6985 0.66238 0.0
C764 C 0.04881 0.73582 0.6512 0.0
C765 C 0.01681 0.63063 0.68543 0.0
C766 C 0.00643 0.65549 0.69463 0.0
C767 C 0.01772 0.68962 0.68337 0.0
C768 C 0.981 0.64531 0.71455 0.0
C769 C 0.00804 0.59494 0.69772 0.0
C770 C 0.94602 0.61315 0.71331 0.0
C771 C 0.92027 0.60534 0.73073 0.0
C772 C 0.92882 0.6298 0.74961 0.0
C773 C 0.96401 0.66175 0.75108 0.0
C774 C 0.9899 0.66949 0.73363 0.0
H775 H 0.02854 0.58671 0.69347 0.0
H776 H 0.00725 0.59777 0.71685 0.0
H777 H 0.98081 0.572 0.69189 0.0
H778 H 0.93813 0.59469 0.69844 0.0
H779 H 0.89334 0.58056 0.72908 0.0
H780 H 0.24764 0.94161 0.09244 0.0
H781 H 0.26169 0.97687 0.056 0.0
H782 H 0.3217 0.92496 0.03207 0.0
H783 H 0.30692 0.88897 0.06802 0.0
H784 H 0.3252 0.02649 0.03501 0.0
H785 H 0.24931 0.90085 0.97976 0.0
H786 H 0.24521 0.89908 0.01098 0.0
H787 H 0.2833 0.89888 0.99726 0.0
C788 C 0.26404 0.93797 0.07945 0.0
C789 C 0.27583 0.91228 0.08287 0.0
C790 C 0.27193 0.95799 0.05865 0.0
C791 C 0.29179 0.95264 0.04111 0.0
C792 C 0.30527 0.92852 0.04508 0.0
H793 H 0.40978 0.09669 0.92765 0.0
H794 H 0.38855 0.05946 0.9631 0.0
C795 C 0.29709 0.90825 0.0657 0.0
C796 C 0.29871 0.97233 0.01865 0.0
H797 H 0.29092 0.958 0.96007 0.0
C798 C 0.31741 0.01154 0.01863 0.0
C799 C 0.28769 0.95271 0.99732 0.0
C800 C 0.26491 0.91056 0.99629 0.0
C801 C 0.32687 0.03174 0.99778 0.0
C802 C 0.31827 0.01214 0.97645 0.0
C803 C 0.29808 0.97292 0.97646 0.0
C804 C 0.33098 0.03197 0.95403 0.0
C805 C 0.34591 0.07388 0.99884 0.0
C806 C 0.30578 0.02706 0.93658 0.0
C807 C 0.31794 0.04783 0.91603 0.0
C808 C 0.35542 0.07383 0.91282 0.0
C809 C 0.38067 0.07723 0.92983 0.0
C810 C 0.36858 0.05621 0.95016 0.0
H811 H 0.33998 0.08344 0.01541 0.0
H812 H 0.37602 0.08583 0.99779 0.0
H813 H 0.33743 0.08521 0.9842 0.0
H814 H 0.27666 0.00808 0.93916 0.0
H815 H 0.29795 0.04469 0.90314 0.0
H816 H 0.86421 0.18016 0.117 0.0
H817 H 0.92851 0.20637 0.12703 0.0
H818 H 0.90315 0.20985 0.1992 0.0
H819 H 0.83795 0.1825 0.18926 0.0
H820 H 0.97155 0.27497 0.14629 0.0
H821 H 0.96891 0.16457 0.20218 0.0
H822 H 0.93077 0.15613 0.18393 0.0
H823 H 0.93836 0.18029 0.21108 0.0
C824 C 0.87216 0.18614 0.13507 0.0
C825 C 0.84612 0.17952 0.15237 0.0
C826 C 0.90894 0.20106 0.14076 0.0
C827 C 0.92058 0.20985 0.16384 0.0
C828 C 0.89459 0.2026 0.18131 0.0
H829 H 0.13485 0.32911 0.22666 0.0
H830 H 0.06938 0.29347 0.21808 0.0
C831 C 0.85747 0.18721 0.17563 0.0
C832 C 0.96032 0.22912 0.16901 0.0
H833 H 0.02562 0.22193 0.19936 0.0
C834 C 0.98342 0.2633 0.15783 0.0
C835 C 0.97562 0.21379 0.18406 0.0
C836 C 0.95224 0.17652 0.19588 0.0
C837 C 0.02141 0.28288 0.16147 0.0
C838 C 0.03676 0.26755 0.17647 0.0
C839 C 0.0137 0.23343 0.18776 0.0
C840 C 0.07655 0.28746 0.18148 0.0
C841 C 0.04466 0.32021 0.14965 0.0
C842 C 0.10228 0.29538 0.16375 0.0
C843 C 0.1399 0.31603 0.16856 0.0
C844 C 0.15221 0.32874 0.19122 0.0
C845 C 0.12627 0.31983 0.20899 0.0
C846 C 0.08882 0.29937 0.20416 0.0
H847 H 0.02787 0.33191 0.14316 0.0
H848 H 0.06584 0.34077 0.16166 0.0
H849 H 0.05886 0.31663 0.13456 0.0
H850 H 0.09327 0.28582 0.14619 0.0
H851 H 0.15924 0.32223 0.15456 0.0
H852 H 0.84117 0.16104 0.48261 0.0
H853 H 0.81317 0.09458 0.47274 0.0
H854 H 0.75982 0.06422 0.53952 0.0
H855 H 0.78762 0.1304 0.54962 0.0
H856 H 0.81064 0.02858 0.50833 0.0
H857 H 0.68272 0.02244 0.47789 0.0
H858 H 0.72711 0.06465 0.47568 0.0
H859 H 0.70547 0.04939 0.50346 0.0
C860 C 0.82373 0.14019 0.49525 0.0
C861 C 0.81633 0.15077 0.51681 0.0
C862 C 0.80795 0.1024 0.48962 0.0
C863 C 0.78464 0.07494 0.50547 0.0
C864 C 0.77791 0.08532 0.52719 0.0
H865 H 0.67025 0.83497 0.51353 0.0
H866 H 0.70962 0.90226 0.52015 0.0
C867 C 0.7937 0.12303 0.53286 0.0
C868 C 0.76523 0.03532 0.49886 0.0
H869 H 0.68238 0.96568 0.4795 0.0
C870 C 0.78269 0.01469 0.50188 0.0
C871 C 0.72903 0.01785 0.49031 0.0
C872 C 0.70977 0.03954 0.48649 0.0
C873 C 0.76433 0.9763 0.49688 0.0
C874 C 0.72755 0.95846 0.48909 0.0
C875 C 0.71053 0.97949 0.48558 0.0
C876 C 0.70574 0.91783 0.48484 0.0
C877 C 0.78445 0.9553 0.49984 0.0
C878 C 0.68998 0.90453 0.46296 0.0
C879 C 0.6671 0.86628 0.45924 0.0
C880 C 0.65966 0.84076 0.47737 0.0
C881 C 0.6757 0.85407 0.49924 0.0
C882 C 0.69842 0.89241 0.50298 0.0
H883 H 0.81468 0.97447 0.49943 0.0
H884 H 0.77717 0.94089 0.51691 0.0
H885 H 0.77668 0.93384 0.48608 0.0
H886 H 0.69516 0.92381 0.4488 0.0
H887 H 0.65519 0.85674 0.44219 0.0
H888 H 0.82515 0.66091 0.84898 0.0
H889 H 0.7937 0.69534 0.85797 0.0
H890 H 0.77769 0.70446 0.78486 0.0
H891 H 0.80906 0.67055 0.77574 0.0
H892 H 0.80223 0.772 0.81101 0.0
H893 H 0.6809 0.64788 0.8499 0.0
H894 H 0.72484 0.65978 0.86168 0.0
H895 H 0.71395 0.64399 0.83218 0.0
C896 C 0.81514 0.67051 0.83486 0.0
C897 C 0.81931 0.6628 0.81169 0.0
C898 C 0.79709 0.69 0.84 0.0
C899 C 0.78305 0.70197 0.82204 0.0
C900 C 0.78826 0.69534 0.79893 0.0
H901 H 0.65615 0.81357 0.81083 0.0
H902 H 0.69351 0.78516 0.80249 0.0
C903 C 0.80611 0.67585 0.79379 0.0
C904 C 0.76186 0.72044 0.82711 0.0
H905 H 0.68086 0.70454 0.8499 0.0
C906 C 0.77572 0.75738 0.81956 0.0
C907 C 0.72725 0.70106 0.83811 0.0
C908 C 0.71057 0.66088 0.84581 0.0
C909 C 0.75604 0.77577 0.82308 0.0
C910 C 0.72127 0.75629 0.83394 0.0
C911 C 0.70749 0.71934 0.8415 0.0
C912 C 0.69915 0.77398 0.83852 0.0
C913 C 0.77297 0.81605 0.81559 0.0
C914 C 0.68928 0.77625 0.86141 0.0
C915 C 0.66768 0.79186 0.86613 0.0
C916 C 0.65549 0.80562 0.84806 0.0
C917 C 0.6653 0.80334 0.82509 0.0
C918 C 0.68683 0.78739 0.82034 0.0
H919 H 0.80309 0.82954 0.81303 0.0
H920 H 0.76066 0.81723 0.79884 0.0
H921 H 0.76764 0.83246 0.82858 0.0
H922 H 0.6984 0.766 0.87568 0.0
H923 H 0.66072 0.79328 0.88405 0.0
H924 H 0.83375 0.66061 0.14783 0.0
H925 H 0.90004 0.69436 0.13987 0.0
H926 H 0.92218 0.71235 0.21326 0.0
H927 H 0.85656 0.67856 0.22134 0.0
H928 H 0.95812 0.76831 0.15249 0.0
H929 H 0.97481 0.65657 0.19302 0.0
H930 H 0.93059 0.64966 0.18499 0.0
H931 H 0.95262 0.67412 0.21129 0.0
C932 C 0.85281 0.6721 0.1622 0.0
C933 C 0.84002 0.66655 0.18521 0.0
C934 C 0.89058 0.6913 0.15765 0.0
C935 C 0.91586 0.70509 0.17604 0.0
C936 C 0.90307 0.70117 0.19888 0.0
H937 H 0.15421 0.8153 0.18654 0.0
H938 H 0.08866 0.78913 0.19494 0.0
C939 C 0.86554 0.68195 0.20344 0.0
C940 C 0.95565 0.72257 0.17164 0.0
H941 H 0.02942 0.71281 0.18308 0.0
C942 C 0.97373 0.75616 0.15907 0.0
C943 C 0.97584 0.70657 0.18031 0.0
C944 C 0.95749 0.66957 0.19297 0.0
C945 C 0.01174 0.77453 0.15525 0.0
C946 C 0.0319 0.75861 0.16405 0.0
C947 C 0.01383 0.72507 0.17661 0.0
C948 C 0.07141 0.77513 0.15918 0.0
C949 C 0.03019 0.811 0.14204 0.0
C950 C 0.08304 0.77521 0.13643 0.0
C951 C 0.1201 0.78972 0.13165 0.0
C952 C 0.14632 0.80446 0.14955 0.0
C953 C 0.13463 0.80418 0.17242 0.0
C954 C 0.09732 0.78934 0.17722 0.0
H955 H 0.01272 0.82381 0.14121 0.0
H956 H 0.05685 0.83127 0.15015 0.0
H957 H 0.0357 0.80582 0.12401 0.0
H958 H 0.06335 0.76374 0.12237 0.0
H959 H 0.12817 0.78948 0.11383 0.0
H960 H 0.21818 0.86124 0.54344 0.0
H961 H 0.24069 0.92709 0.53536 0.0
H962 H 0.14845 0.89581 0.48987 0.0
H963 H 0.12714 0.82963 0.49684 0.0
H964 H 0.20552 0.94655 0.47021 0.0
H965 H 0.21 -0.00445 0.55946 0.0
H966 H 0.23673 0.97339 0.55819 0.0
H967 H 0.18803 0.94644 0.55254 0.0
C968 C 0.20264 0.8685 0.53183 0.0
C969 C 0.17096 0.84059 0.52078 0.0
C970 C 0.21525 0.90612 0.52743 0.0
C971 C 0.19567 0.91651 0.51255 0.0
C972 C 0.16384 0.8885 0.50157 0.0
H973 H 0.29007 0.15973 0.50429 0.0
H974 H 0.24579 0.09341 0.51159 0.0
C975 C 0.15173 0.85078 0.50551 0.0
C976 C 0.2102 0.95652 0.50715 0.0
H977 H 0.25196 0.04295 0.53206 0.0
C978 C 0.21497 0.96756 0.48376 0.0
C979 C 0.22151 0.98403 0.52473 0.0
C980 C 0.21333 0.9741 0.55009 0.0
C981 C 0.23299 0.00542 0.47752 0.0
C982 C 0.24822 0.03297 0.49513 0.0
C983 C 0.24116 0.02191 0.5185 0.0
C984 C 0.27357 0.07302 0.4898 0.0
C985 C 0.23558 0.01528 0.45209 0.0
C986 C 0.30409 0.08361 0.4754 0.0
C987 C 0.32873 0.12125 0.47081 0.0
C988 C 0.32404 0.14902 0.4812 0.0
C989 C 0.29418 0.13867 0.49612 0.0
C990 C 0.26892 0.10088 0.50024 0.0
H991 H 0.21126 0.99361 0.44245 0.0
H992 H 0.23766 0.04276 0.44939 0.0
H993 H 0.26014 0.01632 0.44448 0.0
H994 H 0.30922 0.0628 0.46794 0.0
H995 H 0.35191 0.12864 0.45952 0.0
H996 H 0.18594 0.3226 0.76996 0.0
H997 H 0.21616 0.28748 0.77876 0.0
H998 H 0.19923 0.29482 0.85194 0.0
H999 H 0.16838 0.32993 0.84325 0.0
H1000 H 0.27956 0.31365 0.80554 0.0
H1001 H 0.16314 0.18288 0.842 0.0
H1002 H 0.15656 0.21567 0.82514 0.0
H1003 H 0.1705 0.22549 0.85499 0.0
C1004 C 0.1883 0.31653 0.78796 0.0
C1005 C 0.17479 0.32907 0.80594 0.0
C1006 C 0.2056 0.29644 0.79292 0.0
C1007 C 0.20963 0.28831 0.81595 0.0
C1008 C 0.19581 0.30032 0.83401 0.0
H1009 H 0.32622 0.19424 0.88147 0.0
H1010 H 0.2896 0.22226 0.87148 0.0
C1011 C 0.17839 0.3205 0.82904 0.0
C1012 C 0.23013 0.26903 0.82087 0.0
H1013 H 0.22221 0.18977 0.84433 0.0
C1014 C 0.267 0.28646 0.8139 0.0
C1015 C 0.21356 0.23359 0.83175 0.0
C1016 C 0.17368 0.21306 0.83876 0.0
C1017 C 0.28799 0.26967 0.8179 0.0
C1018 C 0.27148 0.23432 0.82885 0.0
C1019 C 0.23461 0.21681 0.83579 0.0
C1020 C 0.29272 0.21611 0.83443 0.0
C1021 C 0.32793 0.29023 0.81097 0.0
C1022 C 0.30627 0.20303 0.81682 0.0
C1023 C 0.32726 0.18683 0.82246 0.0
C1024 C 0.33502 0.18369 0.84579 0.0
C1025 C 0.32096 0.19647 0.86331 0.0
C1026 C 0.29989 0.21237 0.85768 0.0
H1027 H 0.33804 0.31994 0.80646 0.0
H1028 H 0.34511 0.28935 0.82523 0.0
H1029 H 0.33159 0.27639 0.79559 0.0
H1030 H 0.30064 0.20543 0.79875 0.0
H1031 H 0.33763 0.1771 0.80863 0.0
loop_
_geom_bond_atom_site_label_1
_geom_bond_atom_site_label_2
_geom_bond_distance
_geom_bond_site_symmetry_2
_ccdc_geom_bond_type
Co0 O1 2.216 . S
Co0 O2 2.091 . S
Co0 O4 2.004 . S
Co0 O10 2.021 . S
Co0 O12 2.137 . S
Co0 O13 2.244 . S
O1 Co0 2.216 . S
O1 C8 1.247 . S
O2 Co0 2.091 . S
O2 C8 1.261 . S
C3 O12 1.247 . S
C3 O13 1.272 . S
O4 Co0 2.004 . S
O4 C9 1.259 . S
Co5 O6 2.061 . S
Co5 O11 2.052 . S
Co5 O13 2.135 . S
O6 Co5 2.061 . S
O6 C9 1.235 . S
C7 O10 1.238 . S
C7 O11 1.241 . S
C8 O1 1.247 . S
C8 O2 1.261 . S
C9 O4 1.259 . S
C9 O6 1.235 . S
O10 Co0 2.021 . S
O10 C7 1.238 . S
O11 Co5 2.052 . S
O11 C7 1.241 . S
O12 Co0 2.137 . S
O12 C3 1.247 . S
O13 Co0 2.244 . S
O13 C3 1.272 . S
O13 Co5 2.135 . S
Co14 O15 2.216 . S
Co14 O16 2.091 . S
Co14 O18 2.004 . S
Co14 O24 2.021 . S
Co14 O26 2.137 . S
Co14 O27 2.244 . S
O15 Co14 2.216 . S
O15 C22 1.247 . S
O16 Co14 2.091 . S
O16 C22 1.261 . S
C17 O26 1.247 . S
C17 O27 1.272 . S
O18 Co14 2.004 . S
O18 C23 1.259 . S
Co19 O20 2.061 . S
Co19 O25 2.052 . S
Co19 O27 2.135 . S
O20 Co19 2.061 . S
O20 C23 1.235 . S
C21 O24 1.238 . S
C21 O25 1.241 . S
C22 O15 1.247 . S
C22 O16 1.261 . S
C23 O18 1.259 . S
C23 O20 1.235 . S
O24 Co14 2.021 . S
O24 C21 1.238 . S
O25 Co19 2.052 . S
O25 C21 1.241 . S
O26 Co14 2.137 . S
O26 C17 1.247 . S
O27 Co14 2.244 . S
O27 C17 1.272 . S
O27 Co19 2.135 . S
Co28 O29 2.216 . S
Co28 O30 2.091 . S
Co28 O32 2.004 . S
Co28 O38 2.021 . S
Co28 O40 2.137 . S
Co28 O41 2.244 . S
O29 Co28 2.216 . S
O29 C36 1.247 . S
O30 Co28 2.091 . S
O30 C36 1.261 . S
C31 O40 1.247 . S
C31 O41 1.272 . S
O32 Co28 2.004 . S
O32 C37 1.259 . S
Co33 O34 2.061 . S
Co33 O39 2.052 . S
Co33 O41 2.135 . S
O34 Co33 2.061 . S
O34 C37 1.235 . S
C35 O38 1.238 . S
C35 O39 1.241 . S
C36 O29 1.247 . S
C36 O30 1.261 . S
C37 O32 1.259 . S
C37 O34 1.235 . S
O38 Co28 2.021 . S
O38 C35 1.238 . S
O39 Co33 2.052 . S
O39 C35 1.241 . S
O40 Co28 2.137 . S
O40 C31 1.247 . S
O41 Co28 2.244 . S
O41 C31 1.272 . S
O41 Co33 2.135 . S
Co42 O43 2.216 . S
Co42 O44 2.091 . S
Co42 O46 2.004 . S
Co42 O52 2.021 . S
Co42 O54 2.137 . S
Co42 O55 2.244 . S
O43 Co42 2.216 . S
O43 C50 1.247 . S
O44 Co42 2.091 . S
O44 C50 1.261 . S
C45 O54 1.247 . S
C45 O55 1.272 . S
O46 Co42 2.004 . S
O46 C51 1.259 . S
Co47 O48 2.061 . S
Co47 O53 2.052 . S
Co47 O55 2.135 . S
O48 Co47 2.061 . S
O48 C51 1.235 . S
C49 O52 1.238 . S
C49 O53 1.241 . S
C50 O43 1.247 . S
C50 O44 1.261 . S
C51 O46 1.259 . S
C51 O48 1.235 . S
O52 Co42 2.021 . S
O52 C49 1.238 . S
O53 Co47 2.052 . S
O53 C49 1.241 . S
O54 Co42 2.137 . S
O54 C45 1.247 . S
O55 Co42 2.244 . S
O55 C45 1.272 . S
O55 Co47 2.135 . S
Co56 O57 2.216 . S
Co56 O58 2.091 . S
Co56 O60 2.004 . S
Co56 O66 2.021 . S
Co56 O68 2.137 . S
Co56 O69 2.244 . S
O57 Co56 2.216 . S
O57 C64 1.247 . S
O58 Co56 2.091 . S
O58 C64 1.261 . S
C59 O68 1.247 . S
C59 O69 1.272 . S
O60 Co56 2.004 . S
O60 C65 1.259 . S
Co61 O62 2.061 . S
Co61 O67 2.052 . S
Co61 O69 2.135 . S
O62 Co61 2.061 . S
O62 C65 1.235 . S
C63 O66 1.238 . S
C63 O67 1.241 . S
C64 O57 1.247 . S
C64 O58 1.261 . S
C65 O60 1.259 . S
C65 O62 1.235 . S
O66 Co56 2.021 . S
O66 C63 1.238 . S
O67 Co61 2.052 . S
O67 C63 1.241 . S
O68 Co56 2.137 . S
O68 C59 1.247 . S
O69 Co56 2.244 . S
O69 C59 1.272 . S
O69 Co61 2.135 . S
Co70 O71 2.216 . S
Co70 O72 2.091 . S
Co70 O74 2.004 . S
Co70 O80 2.021 . S
Co70 O82 2.137 . S
Co70 O83 2.244 . S
O71 Co70 2.216 . S
O71 C78 1.247 . S
O72 Co70 2.091 . S
O72 C78 1.261 . S
C73 O82 1.247 . S
C73 O83 1.272 . S
O74 Co70 2.004 . S
O74 C79 1.259 . S
Co75 O76 2.061 . S
Co75 O81 2.052 . S
Co75 O83 2.135 . S
O76 Co75 2.061 . S
O76 C79 1.235 . S
C77 O80 1.238 . S
C77 O81 1.241 . S
C78 O71 1.247 . S
C78 O72 1.261 . S
C79 O74 1.259 . S
C79 O76 1.235 . S
O80 Co70 2.021 . S
O80 C77 1.238 . S
O81 Co75 2.052 . S
O81 C77 1.241 . S
O82 Co70 2.137 . S
O82 C73 1.247 . S
O83 Co70 2.244 . S
O83 C73 1.272 . S
O83 Co75 2.135 . S
Co84 O85 2.216 . S
Co84 O86 2.091 . S
Co84 O88 2.004 . S
Co84 O94 2.021 . S
Co84 O96 2.137 . S
Co84 O97 2.244 . S
O85 Co84 2.216 . S
O85 C92 1.247 . S
O86 Co84 2.091 . S
O86 C92 1.261 . S
C87 O96 1.247 . S
C87 O97 1.272 . S
O88 Co84 2.004 . S
O88 C93 1.259 . S
Co89 O90 2.061 . S
Co89 O95 2.052 . S
Co89 O97 2.135 . S
O90 Co89 2.061 . S
O90 C93 1.235 . S
C91 O94 1.238 . S
C91 O95 1.241 . S
C92 O85 1.247 . S
C92 O86 1.261 . S
C93 O88 1.259 . S
C93 O90 1.235 . S
O94 Co84 2.021 . S
O94 C91 1.238 . S
O95 Co89 2.052 . S
O95 C91 1.241 . S
O96 Co84 2.137 . S
O96 C87 1.247 . S
O97 Co84 2.244 . S
O97 C87 1.272 . S
O97 Co89 2.135 . S
Co98 O99 2.216 . S
Co98 O100 2.091 . S
Co98 O102 2.004 . S
Co98 O108 2.021 . S
Co98 O110 2.137 . S
Co98 O111 2.244 . S
O99 Co98 2.216 . S
O99 C106 1.247 . S
O100 Co98 2.091 . S
O100 C106 1.261 . S
C101 O110 1.247 . S
C101 O111 1.272 . S
O102 Co98 2.004 . S
O102 C107 1.259 . S
Co103 O104 2.061 . S
Co103 O109 2.052 . S
Co103 O111 2.135 . S
O104 Co103 2.061 . S
O104 C107 1.235 . S
C105 O108 1.238 . S
C105 O109 1.241 . S
C106 O99 1.247 . S
C106 O100 1.261 . S
C107 O102 1.259 . S
C107 O104 1.235 . S
O108 Co98 2.021 . S
O108 C105 1.238 . S
O109 Co103 2.052 . S
O109 C105 1.241 . S
O110 Co98 2.137 . S
O110 C101 1.247 . S
O111 Co98 2.244 . S
O111 C101 1.272 . S
O111 Co103 2.135 . S
Co112 O113 2.216 . S
Co112 O114 2.091 . S
Co112 O116 2.004 . S
Co112 O122 2.021 . S
Co112 O124 2.137 . S
Co112 O125 2.244 . S
O113 Co112 2.216 . S
O113 C120 1.247 . S
O114 Co112 2.091 . S
O114 C120 1.261 . S
C115 O124 1.247 . S
C115 O125 1.272 . S
O116 Co112 2.004 . S
O116 C121 1.259 . S
Co117 O118 2.061 . S
Co117 O123 2.052 . S
Co117 O125 2.135 . S
O118 Co117 2.061 . S
O118 C121 1.235 . S
C119 O122 1.238 . S
C119 O123 1.241 . S
C120 O113 1.247 . S
C120 O114 1.261 . S
C121 O116 1.259 . S
C121 O118 1.235 . S
O122 Co112 2.021 . S
O122 C119 1.238 . S
O123 Co117 2.052 . S
O123 C119 1.241 . S
O124 Co112 2.137 . S
O124 C115 1.247 . S
O125 Co112 2.244 . S
O125 C115 1.272 . S
O125 Co117 2.135 . S
Co126 O127 2.216 . S
Co126 O128 2.091 . S
Co126 O130 2.004 . S
Co126 O136 2.021 . S
Co126 O138 2.137 . S
Co126 O139 2.244 . S
O127 Co126 2.216 . S
O127 C134 1.247 . S
O128 Co126 2.091 . S
O128 C134 1.261 . S
C129 O138 1.247 . S
C129 O139 1.272 . S
O130 Co126 2.004 . S
O130 C135 1.259 . S
Co131 O132 2.061 . S
Co131 O137 2.052 . S
Co131 O139 2.135 . S
O132 Co131 2.061 . S
O132 C135 1.235 . S
C133 O136 1.238 . S
C133 O137 1.241 . S
C134 O127 1.247 . S
C134 O128 1.261 . S
C135 O130 1.259 . S
C135 O132 1.235 . S
O136 Co126 2.021 . S
O136 C133 1.238 . S
O137 Co131 2.052 . S
O137 C133 1.241 . S
O138 Co126 2.137 . S
O138 C129 1.247 . S
O139 Co126 2.244 . S
O139 C129 1.272 . S
O139 Co131 2.135 . S
Co140 O141 2.216 . S
Co140 O142 2.091 . S
Co140 O144 2.004 . S
Co140 O150 2.021 . S
Co140 O152 2.137 . S
Co140 O153 2.244 . S
O141 Co140 2.216 . S
O141 C148 1.247 . S
O142 Co140 2.091 . S
O142 C148 1.261 . S
C143 O152 1.247 . S
C143 O153 1.272 . S
O144 Co140 2.004 . S
O144 C149 1.259 . S
Co145 O146 2.061 . S
Co145 O151 2.052 . S
Co145 O153 2.135 . S
O146 Co145 2.061 . S
O146 C149 1.235 . S
C147 O150 1.238 . S
C147 O151 1.241 . S
C148 O141 1.247 . S
C148 O142 1.261 . S
C149 O144 1.259 . S
C149 O146 1.235 . S
O150 Co140 2.021 . S
O150 C147 1.238 . S
O151 Co145 2.052 . S
O151 C147 1.241 . S
O152 Co140 2.137 . S
O152 C143 1.247 . S
O153 Co140 2.244 . S
O153 C143 1.272 . S
O153 Co145 2.135 . S
Co154 O155 2.216 . S
Co154 O156 2.091 . S
Co154 O158 2.004 . S
Co154 O164 2.021 . S
Co154 O166 2.137 . S
Co154 O167 2.244 . S
O155 Co154 2.216 . S
O155 C162 1.247 . S
O156 Co154 2.091 . S
O156 C162 1.261 . S
C157 O166 1.247 . S
C157 O167 1.272 . S
O158 Co154 2.004 . S
O158 C163 1.259 . S
Co159 O160 2.061 . S
Co159 O165 2.052 . S
Co159 O167 2.135 . S
O160 Co159 2.061 . S
O160 C163 1.235 . S
C161 O164 1.238 . S
C161 O165 1.241 . S
C162 O155 1.247 . S
C162 O156 1.261 . S
C163 O158 1.259 . S
C163 O160 1.235 . S
O164 Co154 2.021 . S
O164 C161 1.238 . S
O165 Co159 2.052 . S
O165 C161 1.241 . S
O166 Co154 2.137 . S
O166 C157 1.247 . S
O167 Co154 2.244 . S
O167 C157 1.272 . S
O167 Co159 2.135 . S
H168 C176 0.929 . S
H169 C178 0.930 . S
H170 C180 0.930 . S
H171 C183 0.929 . S
H172 C186 0.930 . S
H173 C188 0.960 . S
H174 C188 0.960 . S
H175 C188 0.960 . S
C176 H168 0.929 . S
C176 C177 1.377 . S
C176 C178 1.384 . S
C177 C176 1.377 . S
C177 C183 1.390 . S
C178 H169 0.930 . S
C178 C176 1.384 . S
C178 C179 1.372 . S
C179 C178 1.372 . S
C179 C180 1.400 . S
C179 C184 1.490 . S
C180 H170 0.930 . S
C180 C179 1.400 . S
C180 C183 1.386 . S
H181 C197 0.930 . S
H182 C198 0.931 . S
C183 H171 0.929 . S
C183 C177 1.390 . S
C183 C180 1.386 . S
C184 C179 1.490 . S
C184 C186 1.395 . S
C184 C187 1.403 . S
H185 C191 0.930 . S
C186 H172 0.930 . S
C186 C184 1.395 . S
C186 C189 1.403 . S
C187 C184 1.403 . S
C187 C188 1.524 . S
C187 C191 1.400 . S
C188 H173 0.960 . S
C188 H174 0.960 . S
C188 H175 0.960 . S
C188 C187 1.524 . S
C189 C186 1.403 . S
C189 C190 1.392 . S
C189 C193 1.495 . S
C190 C189 1.392 . S
C190 C191 1.385 . S
C190 C192 1.478 . S
C191 H185 0.930 . S
C191 C187 1.400 . S
C191 C190 1.385 . S
C192 C190 1.478 . S
C192 C194 1.381 . S
C192 C198 1.383 . S
C193 C189 1.495 . S
C193 H199 0.959 . S
C193 H200 0.961 . S
C193 H201 0.960 . S
C194 C192 1.381 . S
C194 C195 1.394 . S
C194 H202 0.930 . S
C195 C194 1.394 . S
C195 C196 1.383 . S
C195 H203 0.929 . S
C196 C195 1.383 . S
C196 C197 1.377 . S
C197 H181 0.930 . S
C197 C196 1.377 . S
C197 C198 1.379 . S
C198 H182 0.931 . S
C198 C192 1.383 . S
C198 C197 1.379 . S
H199 C193 0.959 . S
H200 C193 0.961 . S
H201 C193 0.960 . S
H202 C194 0.930 . S
H203 C195 0.929 . S
H204 C212 0.929 . S
H205 C214 0.930 . S
H206 C216 0.930 . S
H207 C219 0.929 . S
H208 C222 0.930 . S
H209 C224 0.960 . S
H210 C224 0.960 . S
H211 C224 0.960 . S
C212 H204 0.929 . S
C212 C213 1.377 . S
C212 C214 1.384 . S
C213 C212 1.377 . S
C213 C219 1.390 . S
C214 H205 0.930 . S
C214 C212 1.384 . S
C214 C215 1.372 . S
C215 C214 1.372 . S
C215 C216 1.400 . S
C215 C220 1.490 . S
C216 H206 0.930 . S
C216 C215 1.400 . S
C216 C219 1.386 . S
H217 C233 0.930 . S
H218 C234 0.931 . S
C219 H207 0.929 . S
C219 C213 1.390 . S
C219 C216 1.386 . S
C220 C215 1.490 . S
C220 C222 1.395 . S
C220 C223 1.403 . S
H221 C227 0.930 . S
C222 H208 0.930 . S
C222 C220 1.395 . S
C222 C225 1.403 . S
C223 C220 1.403 . S
C223 C224 1.524 . S
C223 C227 1.400 . S
C224 H209 0.960 . S
C224 H210 0.960 . S
C224 H211 0.960 . S
C224 C223 1.524 . S
C225 C222 1.403 . S
C225 C226 1.392 . S
C225 C229 1.495 . S
C226 C225 1.392 . S
C226 C227 1.385 . S
C226 C228 1.478 . S
C227 H221 0.930 . S
C227 C223 1.400 . S
C227 C226 1.385 . S
C228 C226 1.478 . S
C228 C230 1.381 . S
C228 C234 1.383 . S
C229 C225 1.495 . S
C229 H235 0.959 . S
C229 H236 0.961 . S
C229 H237 0.960 . S
C230 C228 1.381 . S
C230 C231 1.394 . S
C230 H238 0.930 . S
C231 C230 1.394 . S
C231 C232 1.383 . S
C231 H239 0.929 . S
C232 C231 1.383 . S
C232 C233 1.377 . S
C233 H217 0.930 . S
C233 C232 1.377 . S
C233 C234 1.379 . S
C234 H218 0.931 . S
C234 C228 1.383 . S
C234 C233 1.379 . S
H235 C229 0.959 . S
H236 C229 0.961 . S
H237 C229 0.960 . S
H238 C230 0.930 . S
H239 C231 0.929 . S
H240 C248 0.929 . S
H241 C250 0.930 . S
H242 C252 0.930 . S
H243 C255 0.929 . S
H244 C258 0.930 . S
H245 C260 0.960 . S
H246 C260 0.960 . S
H247 C260 0.960 . S
C248 H240 0.929 . S
C248 C249 1.377 . S
C248 C250 1.384 . S
C249 C248 1.377 . S
C249 C255 1.390 . S
C250 H241 0.930 . S
C250 C248 1.384 . S
C250 C251 1.372 . S
C251 C250 1.372 . S
C251 C252 1.400 . S
C251 C256 1.490 . S
C252 H242 0.930 . S
C252 C251 1.400 . S
C252 C255 1.386 . S
H253 C269 0.930 . S
H254 C270 0.931 . S
C255 H243 0.929 . S
C255 C249 1.390 . S
C255 C252 1.386 . S
C256 C251 1.490 . S
C256 C258 1.395 . S
C256 C259 1.403 . S
H257 C263 0.930 . S
C258 H244 0.930 . S
C258 C256 1.395 . S
C258 C261 1.403 . S
C259 C256 1.403 . S
C259 C260 1.524 . S
C259 C263 1.400 . S
C260 H245 0.960 . S
C260 H246 0.960 . S
C260 H247 0.960 . S
C260 C259 1.524 . S
C261 C258 1.403 . S
C261 C262 1.392 . S
C261 C265 1.495 . S
C262 C261 1.392 . S
C262 C263 1.385 . S
C262 C264 1.478 . S
C263 H257 0.930 . S
C263 C259 1.400 . S
C263 C262 1.385 . S
C264 C262 1.478 . S
C264 C266 1.381 . S
C264 C270 1.383 . S
C265 C261 1.495 . S
C265 H271 0.959 . S
C265 H272 0.961 . S
C265 H273 0.960 . S
C266 C264 1.381 . S
C266 C267 1.394 . S
C266 H274 0.930 . S
C267 C266 1.394 . S
C267 C268 1.383 . S
C267 H275 0.929 . S
C268 C267 1.383 . S
C268 C269 1.377 . S
C269 H253 0.930 . S
C269 C268 1.377 . S
C269 C270 1.379 . S
C270 H254 0.931 . S
C270 C264 1.383 . S
C270 C269 1.379 . S
H271 C265 0.959 . S
H272 C265 0.961 . S
H273 C265 0.960 . S
H274 C266 0.930 . S
H275 C267 0.929 . S
H276 C284 0.929 . S
H277 C286 0.930 . S
H278 C288 0.930 . S
H279 C291 0.929 . S
H280 C294 0.930 . S
H281 C296 0.960 . S
H282 C296 0.960 . S
H283 C296 0.960 . S
C284 H276 0.929 . S
C284 C285 1.377 . S
C284 C286 1.384 . S
C285 C284 1.377 . S
C285 C291 1.390 . S
C286 H277 0.930 . S
C286 C284 1.384 . S
C286 C287 1.372 . S
C287 C286 1.372 . S
C287 C288 1.400 . S
C287 C292 1.490 . S
C288 H278 0.930 . S
C288 C287 1.400 . S
C288 C291 1.386 . S
H289 C305 0.930 . S
H290 C306 0.931 . S
C291 H279 0.929 . S
C291 C285 1.390 . S
C291 C288 1.386 . S
C292 C287 1.490 . S
C292 C294 1.395 . S
C292 C295 1.403 . S
H293 C299 0.930 . S
C294 H280 0.930 . S
C294 C292 1.395 . S
C294 C297 1.403 . S
C295 C292 1.403 . S
C295 C296 1.524 . S
C295 C299 1.400 . S
C296 H281 0.960 . S
C296 H282 0.960 . S
C296 H283 0.960 . S
C296 C295 1.524 . S
C297 C294 1.403 . S
C297 C298 1.392 . S
C297 C301 1.495 . S
C298 C297 1.392 . S
C298 C299 1.385 . S
C298 C300 1.478 . S
C299 H293 0.930 . S
C299 C295 1.400 . S
C299 C298 1.385 . S
C300 C298 1.478 . S
C300 C302 1.381 . S
C300 C306 1.383 . S
C301 C297 1.495 . S
C301 H307 0.959 . S
C301 H308 0.961 . S
C301 H309 0.960 . S
C302 C300 1.381 . S
C302 C303 1.394 . S
C302 H310 0.930 . S
C303 C302 1.394 . S
C303 C304 1.383 . S
C303 H311 0.929 . S
C304 C303 1.383 . S
C304 C305 1.377 . S
C305 H289 0.930 . S
C305 C304 1.377 . S
C305 C306 1.379 . S
C306 H290 0.931 . S
C306 C300 1.383 . S
C306 C305 1.379 . S
H307 C301 0.959 . S
H308 C301 0.961 . S
H309 C301 0.960 . S
H310 C302 0.930 . S
H311 C303 0.929 . S
H312 C320 0.929 . S
H313 C322 0.930 . S
H314 C324 0.930 . S
H315 C327 0.929 . S
H316 C330 0.930 . S
H317 C332 0.960 . S
H318 C332 0.960 . S
H319 C332 0.960 . S
C320 H312 0.929 . S
C320 C321 1.377 . S
C320 C322 1.384 . S
C321 C320 1.377 . S
C321 C327 1.390 . S
C322 H313 0.930 . S
C322 C320 1.384 . S
C322 C323 1.372 . S
C323 C322 1.372 . S
C323 C324 1.400 . S
C323 C328 1.490 . S
C324 H314 0.930 . S
C324 C323 1.400 . S
C324 C327 1.386 . S
H325 C341 0.930 . S
H326 C342 0.931 . S
C327 H315 0.929 . S
C327 C321 1.390 . S
C327 C324 1.386 . S
C328 C323 1.490 . S
C328 C330 1.395 . S
C328 C331 1.403 . S
H329 C335 0.930 . S
C330 H316 0.930 . S
C330 C328 1.395 . S
C330 C333 1.403 . S
C331 C328 1.403 . S
C331 C332 1.524 . S
C331 C335 1.400 . S
C332 H317 0.960 . S
C332 H318 0.960 . S
C332 H319 0.960 . S
C332 C331 1.524 . S
C333 C330 1.403 . S
C333 C334 1.392 . S
C333 C337 1.495 . S
C334 C333 1.392 . S
C334 C335 1.385 . S
C334 C336 1.478 . S
C335 H329 0.930 . S
C335 C331 1.400 . S
C335 C334 1.385 . S
C336 C334 1.478 . S
C336 C338 1.381 . S
C336 C342 1.383 . S
C337 C333 1.495 . S
C337 H343 0.959 . S
C337 H344 0.961 . S
C337 H345 0.960 . S
C338 C336 1.381 . S
C338 C339 1.394 . S
C338 H346 0.930 . S
C339 C338 1.394 . S
C339 C340 1.383 . S
C339 H347 0.929 . S
C340 C339 1.383 . S
C340 C341 1.377 . S
C341 H325 0.930 . S
C341 C340 1.377 . S
C341 C342 1.379 . S
C342 H326 0.931 . S
C342 C336 1.383 . S
C342 C341 1.379 . S
H343 C337 0.959 . S
H344 C337 0.961 . S
H345 C337 0.960 . S
H346 C338 0.930 . S
H347 C339 0.929 . S
H348 C356 0.929 . S
H349 C358 0.930 . S
H350 C360 0.930 . S
H351 C363 0.929 . S
H352 C366 0.930 . S
H353 C368 0.960 . S
H354 C368 0.960 . S
H355 C368 0.960 . S
C356 H348 0.929 . S
C356 C357 1.377 . S
C356 C358 1.384 . S
C357 C356 1.377 . S
C357 C363 1.390 . S
C358 H349 0.930 . S
C358 C356 1.384 . S
C358 C359 1.372 . S
C359 C358 1.372 . S
C359 C360 1.400 . S
C359 C364 1.490 . S
C360 H350 0.930 . S
C360 C359 1.400 . S
C360 C363 1.386 . S
H361 C377 0.930 . S
H362 C378 0.931 . S
C363 H351 0.929 . S
C363 C357 1.390 . S
C363 C360 1.386 . S
C364 C359 1.490 . S
C364 C366 1.395 . S
C364 C367 1.403 . S
H365 C371 0.930 . S
C366 H352 0.930 . S
C366 C364 1.395 . S
C366 C369 1.403 . S
C367 C364 1.403 . S
C367 C368 1.524 . S
C367 C371 1.400 . S
C368 H353 0.960 . S
C368 H354 0.960 . S
C368 H355 0.960 . S
C368 C367 1.524 . S
C369 C366 1.403 . S
C369 C370 1.392 . S
C369 C373 1.495 . S
C370 C369 1.392 . S
C370 C371 1.385 . S
C370 C372 1.478 . S
C371 H365 0.930 . S
C371 C367 1.400 . S
C371 C370 1.385 . S
C372 C370 1.478 . S
C372 C374 1.381 . S
C372 C378 1.383 . S
C373 C369 1.495 . S
C373 H379 0.959 . S
C373 H380 0.961 . S
C373 H381 0.960 . S
C374 C372 1.381 . S
C374 C375 1.394 . S
C374 H382 0.930 . S
C375 C374 1.394 . S
C375 C376 1.383 . S
C375 H383 0.929 . S
C376 C375 1.383 . S
C376 C377 1.377 . S
C377 H361 0.930 . S
C377 C376 1.377 . S
C377 C378 1.379 . S
C378 H362 0.931 . S
C378 C372 1.383 . S
C378 C377 1.379 . S
H379 C373 0.959 . S
H380 C373 0.961 . S
H381 C373 0.960 . S
H382 C374 0.930 . S
H383 C375 0.929 . S
H384 C392 0.929 . S
H385 C394 0.930 . S
H386 C396 0.930 . S
H387 C399 0.929 . S
H388 C402 0.930 . S
H389 C404 0.960 . S
H390 C404 0.960 . S
H391 C404 0.960 . S
C392 H384 0.929 . S
C392 C393 1.377 . S
C392 C394 1.384 . S
C393 C392 1.377 . S
C393 C399 1.390 . S
C394 H385 0.930 . S
C394 C392 1.384 . S
C394 C395 1.372 . S
C395 C394 1.372 . S
C395 C396 1.400 . S
C395 C400 1.490 . S
C396 H386 0.930 . S
C396 C395 1.400 . S
C396 C399 1.386 . S
H397 C413 0.930 . S
H398 C414 0.931 . S
C399 H387 0.929 . S
C399 C393 1.390 . S
C399 C396 1.386 . S
C400 C395 1.490 . S
C400 C402 1.395 . S
C400 C403 1.403 . S
H401 C407 0.930 . S
C402 H388 0.930 . S
C402 C400 1.395 . S
C402 C405 1.403 . S
C403 C400 1.403 . S
C403 C404 1.524 . S
C403 C407 1.400 . S
C404 H389 0.960 . S
C404 H390 0.960 . S
C404 H391 0.960 . S
C404 C403 1.524 . S
C405 C402 1.403 . S
C405 C406 1.392 . S
C405 C409 1.495 . S
C406 C405 1.392 . S
C406 C407 1.385 . S
C406 C408 1.478 . S
C407 H401 0.930 . S
C407 C403 1.400 . S
C407 C406 1.385 . S
C408 C406 1.478 . S
C408 C410 1.381 . S
C408 C414 1.383 . S
C409 C405 1.495 . S
C409 H415 0.959 . S
C409 H416 0.961 . S
C409 H417 0.960 . S
C410 C408 1.381 . S
C410 C411 1.394 . S
C410 H418 0.930 . S
C411 C410 1.394 . S
C411 C412 1.383 . S
C411 H419 0.929 . S
C412 C411 1.383 . S
C412 C413 1.377 . S
C413 H397 0.930 . S
C413 C412 1.377 . S
C413 C414 1.379 . S
C414 H398 0.931 . S
C414 C408 1.383 . S
C414 C413 1.379 . S
H415 C409 0.959 . S
H416 C409 0.961 . S
H417 C409 0.960 . S
H418 C410 0.930 . S
H419 C411 0.929 . S
H420 C428 0.929 . S
H421 C430 0.930 1_655 S
H422 C432 0.930 . S
H423 C435 0.929 . S
H424 C438 0.930 . S
H425 C440 0.960 . S
H426 C440 0.960 . S
H427 C440 0.960 . S
C428 H420 0.929 . S
C428 C429 1.377 . S
C428 C430 1.384 . S
C429 C428 1.377 . S
C429 C435 1.390 . S
C430 H421 0.930 1_455 S
C430 C428 1.384 . S
C430 C431 1.372 . S
C431 C430 1.372 . S
C431 C432 1.400 . S
C431 C436 1.490 . S
C432 H422 0.930 . S
C432 C431 1.400 . S
C432 C435 1.386 . S
H433 C449 0.930 . S
H434 C450 0.931 . S
C435 H423 0.929 . S
C435 C429 1.390 . S
C435 C432 1.386 . S
C436 C431 1.490 . S
C436 C438 1.395 1_455 S
C436 C439 1.403 . S
H437 C443 0.930 . S
C438 H424 0.930 . S
C438 C436 1.395 1_655 S
C438 C441 1.403 . S
C439 C436 1.403 . S
C439 C440 1.524 . S
C439 C443 1.400 . S
C440 H425 0.960 . S
C440 H426 0.960 . S
C440 H427 0.960 . S
C440 C439 1.524 . S
C441 C438 1.403 . S
C441 C442 1.392 . S
C441 C445 1.495 . S
C442 C441 1.392 . S
C442 C443 1.385 1_655 S
C442 C444 1.478 . S
C443 H437 0.930 . S
C443 C439 1.400 . S
C443 C442 1.385 1_455 S
C444 C442 1.478 . S
C444 C446 1.381 . S
C444 C450 1.383 . S
C445 C441 1.495 . S
C445 H451 0.959 . S
C445 H452 0.961 . S
C445 H453 0.960 . S
C446 C444 1.381 . S
C446 C447 1.394 . S
C446 H454 0.930 . S
C447 C446 1.394 . S
C447 C448 1.383 . S
C447 H455 0.929 . S
C448 C447 1.383 . S
C448 C449 1.377 . S
C449 H433 0.930 . S
C449 C448 1.377 . S
C449 C450 1.379 . S
C450 H434 0.931 . S
C450 C444 1.383 . S
C450 C449 1.379 . S
H451 C445 0.959 . S
H452 C445 0.961 . S
H453 C445 0.960 . S
H454 C446 0.930 . S
H455 C447 0.929 . S
H456 C464 0.929 . S
H457 C466 0.930 . S
H458 C468 0.930 . S
H459 C471 0.929 . S
H460 C474 0.930 . S
H461 C476 0.960 . S
H462 C476 0.960 . S
H463 C476 0.960 . S
C464 H456 0.929 . S
C464 C465 1.377 . S
C464 C466 1.384 . S
C465 C464 1.377 . S
C465 C471 1.390 . S
C466 H457 0.930 . S
C466 C464 1.384 . S
C466 C467 1.372 . S
C467 C466 1.372 . S
C467 C468 1.400 . S
C467 C472 1.490 . S
C468 H458 0.930 . S
C468 C467 1.400 . S
C468 C471 1.386 . S
H469 C485 0.930 . S
H470 C486 0.931 . S
C471 H459 0.929 . S
C471 C465 1.390 . S
C471 C468 1.386 . S
C472 C467 1.490 . S
C472 C474 1.395 . S
C472 C475 1.403 1_545 S
H473 C479 0.930 . S
C474 H460 0.930 . S
C474 C472 1.395 . S
C474 C477 1.403 . S
C475 C472 1.403 1_565 S
C475 C476 1.524 . S
C475 C479 1.400 . S
C476 H461 0.960 . S
C476 H462 0.960 . S
C476 H463 0.960 . S
C476 C475 1.524 . S
C477 C474 1.403 . S
C477 C478 1.392 1_545 S
C477 C481 1.495 . S
C478 C477 1.392 1_565 S
C478 C479 1.385 . S
C478 C480 1.478 . S
C479 H473 0.930 . S
C479 C475 1.400 . S
C479 C478 1.385 . S
C480 C478 1.478 . S
C480 C482 1.381 . S
C480 C486 1.383 . S
C481 C477 1.495 . S
C481 H487 0.959 . S
C481 H488 0.961 . S
C481 H489 0.960 . S
C482 C480 1.381 . S
C482 C483 1.394 . S
C482 H490 0.930 . S
C483 C482 1.394 . S
C483 C484 1.383 . S
C483 H491 0.929 . S
C484 C483 1.383 . S
C484 C485 1.377 . S
C485 H469 0.930 . S
C485 C484 1.377 . S
C485 C486 1.379 . S
C486 H470 0.931 . S
C486 C480 1.383 . S
C486 C485 1.379 . S
H487 C481 0.959 . S
H488 C481 0.961 . S
H489 C481 0.960 . S
H490 C482 0.930 . S
H491 C483 0.929 . S
H492 C500 0.929 . S
H493 C502 0.930 . S
H494 C504 0.930 . S
H495 C507 0.929 . S
H496 C510 0.930 . S
H497 C512 0.960 . S
H498 C512 0.960 . S
H499 C512 0.960 . S
C500 H492 0.929 . S
C500 C501 1.377 . S
C500 C502 1.384 . S
C501 C500 1.377 . S
C501 C507 1.390 . S
C502 H493 0.930 . S
C502 C500 1.384 . S
C502 C503 1.372 . S
C503 C502 1.372 . S
C503 C504 1.400 . S
C503 C508 1.490 . S
C504 H494 0.930 . S
C504 C503 1.400 . S
C504 C507 1.386 . S
H505 C521 0.930 . S
H506 C522 0.931 . S
C507 H495 0.929 . S
C507 C501 1.390 . S
C507 C504 1.386 . S
C508 C503 1.490 . S
C508 C510 1.395 . S
C508 C511 1.403 . S
H509 C515 0.930 . S
C510 H496 0.930 . S
C510 C508 1.395 . S
C510 C513 1.403 . S
C511 C508 1.403 . S
C511 C512 1.524 . S
C511 C515 1.400 . S
C512 H497 0.960 . S
C512 H498 0.960 . S
C512 H499 0.960 . S
C512 C511 1.524 . S
C513 C510 1.403 . S
C513 C514 1.392 . S
C513 C517 1.495 . S
C514 C513 1.392 . S
C514 C515 1.385 . S
C514 C516 1.478 . S
C515 H509 0.930 . S
C515 C511 1.400 . S
C515 C514 1.385 . S
C516 C514 1.478 . S
C516 C518 1.381 . S
C516 C522 1.383 . S
C517 C513 1.495 . S
C517 H523 0.959 . S
C517 H524 0.961 . S
C517 H525 0.960 . S
C518 C516 1.381 . S
C518 C519 1.394 . S
C518 H526 0.930 . S
C519 C518 1.394 . S
C519 C520 1.383 . S
C519 H527 0.929 . S
C520 C519 1.383 . S
C520 C521 1.377 . S
C521 H505 0.930 . S
C521 C520 1.377 . S
C521 C522 1.379 . S
C522 H506 0.931 . S
C522 C516 1.383 . S
C522 C521 1.379 . S
H523 C517 0.959 . S
H524 C517 0.961 . S
H525 C517 0.960 . S
H526 C518 0.930 . S
H527 C519 0.929 . S
H528 C536 0.929 . S
H529 C538 0.930 . S
H530 C540 0.930 . S
H531 C543 0.929 . S
H532 C546 0.930 . S
H533 C548 0.960 . S
H534 C548 0.960 . S
H535 C548 0.960 . S
C536 H528 0.929 . S
C536 C537 1.377 . S
C536 C538 1.384 . S
C537 C536 1.377 . S
C537 C543 1.390 . S
C538 H529 0.930 . S
C538 C536 1.384 . S
C538 C539 1.372 . S
C539 C538 1.372 . S
C539 C540 1.400 . S
C539 C544 1.490 . S
C540 H530 0.930 . S
C540 C539 1.400 . S
C540 C543 1.386 . S
H541 C557 0.930 . S
H542 C558 0.931 . S
C543 H531 0.929 . S
C543 C537 1.390 . S
C543 C540 1.386 . S
C544 C539 1.490 . S
C544 C546 1.395 1_655 S
C544 C547 1.403 . S
H545 C551 0.930 . S
C546 H532 0.930 . S
C546 C544 1.395 1_455 S
C546 C549 1.403 . S
C547 C544 1.403 . S
C547 C548 1.524 . S
C547 C551 1.400 . S
C548 H533 0.960 . S
C548 H534 0.960 . S
C548 H535 0.960 . S
C548 C547 1.524 . S
C549 C546 1.403 . S
C549 C550 1.392 . S
C549 C553 1.495 . S
C550 C549 1.392 . S
C550 C551 1.385 1_455 S
C550 C552 1.478 . S
C551 H545 0.930 . S
C551 C547 1.400 . S
C551 C550 1.385 1_655 S
C552 C550 1.478 . S
C552 C554 1.381 . S
C552 C558 1.383 . S
C553 C549 1.495 . S
C553 H559 0.959 . S
C553 H560 0.961 . S
C553 H561 0.960 . S
C554 C552 1.381 . S
C554 C555 1.394 . S
C554 H562 0.930 . S
C555 C554 1.394 . S
C555 C556 1.383 . S
C555 H563 0.929 . S
C556 C555 1.383 . S
C556 C557 1.377 . S
C557 H541 0.930 . S
C557 C556 1.377 . S
C557 C558 1.379 . S
C558 H542 0.931 . S
C558 C552 1.383 . S
C558 C557 1.379 . S
H559 C553 0.959 . S
H560 C553 0.961 . S
H561 C553 0.960 . S
H562 C554 0.930 . S
H563 C555 0.929 . S
H564 C572 0.929 . S
H565 C574 0.930 . S
H566 C576 0.930 . S
H567 C579 0.929 . S
H568 C582 0.930 . S
H569 C584 0.960 . S
H570 C584 0.960 . S
H571 C584 0.960 . S
C572 H564 0.929 . S
C572 C573 1.377 . S
C572 C574 1.384 . S
C573 C572 1.377 . S
C573 C579 1.390 . S
C574 H565 0.930 . S
C574 C572 1.384 . S
C574 C575 1.372 . S
C575 C574 1.372 . S
C575 C576 1.400 . S
C575 C580 1.490 . S
C576 H566 0.930 . S
C576 C575 1.400 . S
C576 C579 1.386 . S
H577 C593 0.930 . S
H578 C594 0.931 . S
C579 H567 0.929 . S
C579 C573 1.390 . S
C579 C576 1.386 . S
C580 C575 1.490 . S
C580 C582 1.395 1_565 S
C580 C583 1.403 . S
H581 C587 0.930 . S
C582 H568 0.930 . S
C582 C580 1.395 1_545 S
C582 C585 1.403 . S
C583 C580 1.403 . S
C583 C584 1.524 . S
C583 C587 1.400 . S
C584 H569 0.960 . S
C584 H570 0.960 . S
C584 H571 0.960 . S
C584 C583 1.524 . S
C585 C582 1.403 . S
C585 C586 1.392 . S
C585 C589 1.495 . S
C586 C585 1.392 . S
C586 C587 1.385 1_545 S
C586 C588 1.478 . S
C587 H581 0.930 . S
C587 C583 1.400 . S
C587 C586 1.385 1_565 S
C588 C586 1.478 . S
C588 C590 1.381 . S
C588 C594 1.383 . S
C589 C585 1.495 . S
C589 H595 0.959 . S
C589 H596 0.961 . S
C589 H597 0.960 . S
C590 C588 1.381 . S
C590 C591 1.394 . S
C590 H598 0.930 . S
C591 C590 1.394 . S
C591 C592 1.383 . S
C591 H599 0.929 . S
C592 C591 1.383 . S
C592 C593 1.377 . S
C593 H577 0.930 . S
C593 C592 1.377 . S
C593 C594 1.379 . S
C594 H578 0.931 . S
C594 C588 1.383 . S
C594 C593 1.379 . S
H595 C589 0.959 . S
H596 C589 0.961 . S
H597 C589 0.960 . S
H598 C590 0.930 . S
H599 C591 0.929 . S
H600 C608 0.929 . S
H601 C610 0.930 . S
H602 C612 0.930 . S
H603 C615 0.929 . S
H604 C618 0.930 . S
H605 C620 0.960 . S
H606 C620 0.960 . S
H607 C620 0.960 . S
C608 H600 0.929 . S
C608 C609 1.377 . S
C608 C610 1.384 . S
C609 C608 1.377 . S
C609 C615 1.390 . S
C610 H601 0.930 . S
C610 C608 1.384 . S
C610 C611 1.372 . S
C611 C610 1.372 . S
C611 C612 1.400 . S
C611 C616 1.490 . S
C612 H602 0.930 . S
C612 C611 1.400 . S
C612 C615 1.386 . S
H613 C629 0.930 . S
H614 C630 0.931 . S
C615 H603 0.929 . S
C615 C609 1.390 . S
C615 C612 1.386 . S
C616 C611 1.490 . S
C616 C618 1.395 . S
C616 C619 1.403 . S
H617 C623 0.930 . S
C618 H604 0.930 . S
C618 C616 1.395 . S
C618 C621 1.403 . S
C619 C616 1.403 . S
C619 C620 1.524 . S
C619 C623 1.400 . S
C620 H605 0.960 . S
C620 H606 0.960 . S
C620 H607 0.960 . S
C620 C619 1.524 . S
C621 C618 1.403 . S
C621 C622 1.392 . S
C621 C625 1.495 . S
C622 C621 1.392 . S
C622 C623 1.385 . S
C622 C624 1.478 . S
C623 H617 0.930 . S
C623 C619 1.400 . S
C623 C622 1.385 . S
C624 C622 1.478 . S
C624 C626 1.381 . S
C624 C630 1.383 . S
C625 C621 1.495 . S
C625 H631 0.959 . S
C625 H632 0.961 . S
C625 H633 0.960 . S
C626 C624 1.381 . S
C626 C627 1.394 . S
C626 H634 0.930 . S
C627 C626 1.394 . S
C627 C628 1.383 . S
C627 H635 0.929 . S
C628 C627 1.383 . S
C628 C629 1.377 . S
C629 H613 0.930 . S
C629 C628 1.377 . S
C629 C630 1.379 . S
C630 H614 0.931 . S
C630 C624 1.383 . S
C630 C629 1.379 . S
H631 C625 0.959 . S
H632 C625 0.961 . S
H633 C625 0.960 . S
H634 C626 0.930 . S
H635 C627 0.929 . S
H636 C644 0.929 . S
H637 C646 0.930 1_455 S
H638 C648 0.930 . S
H639 C651 0.929 . S
H640 C654 0.930 . S
H641 C656 0.960 . S
H642 C656 0.960 . S
H643 C656 0.960 . S
C644 H636 0.929 . S
C644 C645 1.377 . S
C644 C646 1.384 . S
C645 C644 1.377 . S
C645 C651 1.390 . S
C646 H637 0.930 1_655 S
C646 C644 1.384 . S
C646 C647 1.372 . S
C647 C646 1.372 . S
C647 C648 1.400 . S
C647 C652 1.490 . S
C648 H638 0.930 . S
C648 C647 1.400 . S
C648 C651 1.386 . S
H649 C665 0.930 . S
H650 C666 0.931 1_655 S
C651 H639 0.929 . S
C651 C645 1.390 . S
C651 C648 1.386 . S
C652 C647 1.490 . S
C652 C654 1.395 1_655 S
C652 C655 1.403 . S
H653 C659 0.930 . S
C654 H640 0.930 . S
C654 C652 1.395 1_455 S
C654 C657 1.403 . S
C655 C652 1.403 . S
C655 C656 1.524 . S
C655 C659 1.400 1_655 S
C656 H641 0.960 . S
C656 H642 0.960 . S
C656 H643 0.960 . S
C656 C655 1.524 . S
C657 C654 1.403 . S
C657 C658 1.392 . S
C657 C661 1.495 . S
C658 C657 1.392 . S
C658 C659 1.385 . S
C658 C660 1.478 . S
C659 H653 0.930 . S
C659 C655 1.400 1_455 S
C659 C658 1.385 . S
C660 C658 1.478 . S
C660 C662 1.381 . S
C660 C666 1.383 . S
C661 C657 1.495 . S
C661 H667 0.959 . S
C661 H668 0.961 . S
C661 H669 0.960 . S
C662 C660 1.381 . S
C662 C663 1.394 . S
C662 H670 0.930 . S
C663 C662 1.394 . S
C663 C664 1.383 . S
C663 H671 0.929 . S
C664 C663 1.383 . S
C664 C665 1.377 . S
C665 H649 0.930 . S
C665 C664 1.377 . S
C665 C666 1.379 . S
C666 H650 0.931 1_455 S
C666 C660 1.383 . S
C666 C665 1.379 . S
H667 C661 0.959 . S
H668 C661 0.961 . S
H669 C661 0.960 . S
H670 C662 0.930 . S
H671 C663 0.929 . S
H672 C680 0.929 . S
H673 C682 0.930 . S
H674 C684 0.930 . S
H675 C687 0.929 . S
H676 C690 0.930 . S
H677 C692 0.960 . S
H678 C692 0.960 1_556 S
H679 C692 0.960 1_556 S
C680 H672 0.929 . S
C680 C681 1.377 . S
C680 C682 1.384 . S
C681 C680 1.377 . S
C681 C687 1.390 . S
C682 H673 0.930 . S
C682 C680 1.384 . S
C682 C683 1.372 . S
C683 C682 1.372 . S
C683 C684 1.400 . S
C683 C688 1.490 . S
C684 H674 0.930 . S
C684 C683 1.400 . S
C684 C687 1.386 . S
H685 C701 0.930 . S
H686 C702 0.931 . S
C687 H675 0.929 . S
C687 C681 1.390 . S
C687 C684 1.386 . S
C688 C683 1.490 . S
C688 C690 1.395 1_565 S
C688 C691 1.421 . S
H689 C695 0.930 . S
C690 H676 0.930 . S
C690 C688 1.395 1_545 S
C690 C693 1.403 . S
C691 C688 1.421 . S
C691 C692 1.522 1_556 S
C691 C695 1.382 1_556 S
C692 H677 0.960 . S
C692 H678 0.960 1_554 S
C692 H679 0.960 1_554 S
C692 C691 1.522 1_554 S
C693 C690 1.403 . S
C693 C694 1.392 1_556 S
C693 C697 1.495 . S
C694 C693 1.392 1_554 S
C694 C695 1.385 1_545 S
C694 C696 1.478 . S
C695 H689 0.930 . S
C695 C691 1.382 1_554 S
C695 C694 1.385 1_565 S
C696 C694 1.478 . S
C696 C698 1.381 . S
C696 C702 1.383 . S
C697 C693 1.495 . S
C697 H703 0.959 . S
C697 H704 0.961 1_556 S
C697 H705 0.960 1_556 S
C698 C696 1.381 . S
C698 C699 1.394 . S
C698 H706 0.930 . S
C699 C698 1.394 . S
C699 C700 1.383 . S
C699 H707 0.929 . S
C700 C699 1.383 . S
C700 C701 1.377 . S
C701 H685 0.930 . S
C701 C700 1.377 . S
C701 C702 1.379 . S
C702 H686 0.931 . S
C702 C696 1.383 . S
C702 C701 1.379 . S
H703 C697 0.959 . S
H704 C697 0.961 1_554 S
H705 C697 0.960 1_554 S
H706 C698 0.930 . S
H707 C699 0.929 . S
H708 C716 0.929 . S
H709 C718 0.930 . S
H710 C720 0.930 . S
H711 C723 0.929 . S
H712 C726 0.930 . S
H713 C728 0.960 . S
H714 C728 0.960 . S
H715 C728 0.960 . S
C716 H708 0.929 . S
C716 C717 1.377 . S
C716 C718 1.384 . S
C717 C716 1.377 . S
C717 C723 1.390 . S
C718 H709 0.930 . S
C718 C716 1.384 . S
C718 C719 1.372 . S
C719 C718 1.372 . S
C719 C720 1.400 . S
C719 C724 1.490 . S
C720 H710 0.930 . S
C720 C719 1.400 . S
C720 C723 1.386 . S
H721 C737 0.930 . S
H722 C738 0.931 . S
C723 H711 0.929 . S
C723 C717 1.390 . S
C723 C720 1.386 . S
C724 C719 1.490 . S
C724 C726 1.395 . S
C724 C727 1.403 . S
H725 C731 0.930 . S
C726 H712 0.930 . S
C726 C724 1.395 . S
C726 C729 1.403 . S
C727 C724 1.403 . S
C727 C728 1.524 . S
C727 C731 1.400 . S
C728 H713 0.960 . S
C728 H714 0.960 . S
C728 H715 0.960 . S
C728 C727 1.524 . S
C729 C726 1.403 . S
C729 C730 1.392 . S
C729 C733 1.495 . S
C730 C729 1.392 . S
C730 C731 1.385 . S
C730 C732 1.478 . S
C731 H725 0.930 . S
C731 C727 1.400 . S
C731 C730 1.385 . S
C732 C730 1.478 . S
C732 C734 1.381 . S
C732 C738 1.383 . S
C733 C729 1.495 . S
C733 H739 0.959 . S
C733 H740 0.961 . S
C733 H741 0.960 . S
C734 C732 1.381 . S
C734 C735 1.394 . S
C734 H742 0.930 . S
C735 C734 1.394 . S
C735 C736 1.383 . S
C735 H743 0.929 . S
C736 C735 1.383 . S
C736 C737 1.377 . S
C737 H721 0.930 . S
C737 C736 1.377 . S
C737 C738 1.379 . S
C738 H722 0.931 . S
C738 C732 1.383 . S
C738 C737 1.379 . S
H739 C733 0.959 . S
H740 C733 0.961 . S
H741 C733 0.960 . S
H742 C734 0.930 . S
H743 C735 0.929 . S
H744 C752 0.929 . S
H745 C754 0.930 . S
H746 C756 0.930 . S
H747 C759 0.929 . S
H748 C762 0.930 . S
H749 C764 0.961 1_655 S
H750 C764 0.960 1_655 S
H751 C764 0.960 . S
C752 H744 0.929 . S
C752 C753 1.377 . S
C752 C754 1.384 . S
C753 C752 1.377 . S
C753 C759 1.390 . S
C754 H745 0.930 . S
C754 C752 1.384 . S
C754 C755 1.372 . S
C755 C754 1.372 . S
C755 C756 1.400 . S
C755 C760 1.490 . S
C756 H746 0.930 . S
C756 C755 1.400 . S
C756 C759 1.386 . S
H757 C773 0.930 . S
H758 C774 0.952 . S
C759 H747 0.929 . S
C759 C753 1.390 . S
C759 C756 1.386 . S
C760 C755 1.490 . S
C760 C762 1.395 . S
C760 C763 1.397 1_455 S
H761 C767 0.930 . S
C762 H748 0.930 . S
C762 C760 1.395 . S
C762 C765 1.403 1_455 S
C763 C760 1.397 1_655 S
C763 C764 1.526 1_655 S
C763 C767 1.402 . S
C764 H749 0.961 1_455 S
C764 H750 0.960 1_455 S
C764 H751 0.960 . S
C764 C763 1.526 1_455 S
C765 C762 1.403 1_655 S
C765 C766 1.392 . S
C765 C769 1.495 . S
C766 C765 1.392 . S
C766 C767 1.385 . S
C766 C768 1.478 . S
C767 H761 0.930 . S
C767 C763 1.402 . S
C767 C766 1.385 . S
C768 C766 1.478 . S
C768 C770 1.381 . S
C768 C774 1.383 . S
C769 C765 1.495 . S
C769 H775 0.959 1_655 S
C769 H776 0.961 1_655 S
C769 H777 0.960 . S
C770 C768 1.381 . S
C770 C771 1.394 . S
C770 H778 0.930 . S
C771 C770 1.394 . S
C771 C772 1.383 . S
C771 H779 0.929 . S
C772 C771 1.383 . S
C772 C773 1.377 . S
C773 H757 0.930 . S
C773 C772 1.377 . S
C773 C774 1.379 . S
C774 H758 0.952 . S
C774 C768 1.383 . S
C774 C773 1.379 . S
H775 C769 0.959 1_455 S
H776 C769 0.961 1_455 S
H777 C769 0.960 . S
H778 C770 0.930 . S
H779 C771 0.929 . S
H780 C788 0.929 . S
H781 C790 0.930 . S
H782 C792 0.930 . S
H783 C795 0.929 . S
H784 C798 0.930 . S
H785 C800 0.960 . S
H786 C800 0.960 1_554 S
H787 C800 0.960 1_554 S
C788 H780 0.929 . S
C788 C789 1.377 . S
C788 C790 1.384 . S
C789 C788 1.377 . S
C789 C795 1.390 . S
C790 H781 0.930 . S
C790 C788 1.384 . S
C790 C791 1.372 . S
C791 C790 1.372 . S
C791 C792 1.400 . S
C791 C796 1.490 . S
C792 H782 0.930 . S
C792 C791 1.400 . S
C792 C795 1.386 . S
H793 C809 0.930 . S
H794 C810 0.931 . S
C795 H783 0.929 . S
C795 C789 1.390 . S
C795 C792 1.386 . S
C796 C791 1.490 . S
C796 C798 1.395 1_565 S
C796 C799 1.427 . S
H797 C803 0.930 . S
C798 H784 0.930 . S
C798 C796 1.395 1_545 S
C798 C801 1.403 . S
C799 C796 1.427 . S
C799 C800 1.522 1_554 S
C799 C803 1.376 1_554 S
C800 H785 0.960 . S
C800 H786 0.960 1_556 S
C800 H787 0.960 1_556 S
C800 C799 1.522 1_556 S
C801 C798 1.403 . S
C801 C802 1.392 1_554 S
C801 C805 1.495 . S
C802 C801 1.392 1_556 S
C802 C803 1.385 1_545 S
C802 C804 1.478 . S
C803 H797 0.930 . S
C803 C799 1.376 1_556 S
C803 C802 1.385 1_565 S
C804 C802 1.478 . S
C804 C806 1.381 . S
C804 C810 1.383 . S
C805 C801 1.495 . S
C805 H811 0.959 . S
C805 H812 0.961 1_554 S
C805 H813 0.960 1_554 S
C806 C804 1.381 . S
C806 C807 1.394 . S
C806 H814 0.930 . S
C807 C806 1.394 . S
C807 C808 1.383 . S
C807 H815 0.929 . S
C808 C807 1.383 . S
C808 C809 1.377 . S
C809 H793 0.930 . S
C809 C808 1.377 . S
C809 C810 1.379 . S
C810 H794 0.931 . S
C810 C804 1.383 . S
C810 C809 1.379 . S
H811 C805 0.959 . S
H812 C805 0.961 1_556 S
H813 C805 0.960 1_556 S
H814 C806 0.930 . S
H815 C807 0.929 . S
H816 C824 0.929 . S
H817 C826 0.930 . S
H818 C828 0.930 . S
H819 C831 0.929 . S
H820 C834 0.930 . S
H821 C836 0.960 . S
H822 C836 0.960 . S
H823 C836 0.960 . S
C824 H816 0.929 . S
C824 C825 1.377 . S
C824 C826 1.384 . S
C825 C824 1.377 . S
C825 C831 1.390 . S
C826 H817 0.930 . S
C826 C824 1.384 . S
C826 C827 1.372 . S
C827 C826 1.372 . S
C827 C828 1.400 . S
C827 C832 1.490 . S
C828 H818 0.930 . S
C828 C827 1.400 . S
C828 C831 1.386 . S
H829 C845 0.930 . S
H830 C846 0.931 . S
C831 H819 0.929 . S
C831 C825 1.390 . S
C831 C828 1.386 . S
C832 C827 1.490 . S
C832 C834 1.395 . S
C832 C835 1.403 . S
H833 C839 0.930 . S
C834 H820 0.930 . S
C834 C832 1.395 . S
C834 C837 1.403 1_655 S
C835 C832 1.403 . S
C835 C836 1.524 . S
C835 C839 1.400 1_655 S
C836 H821 0.960 . S
C836 H822 0.960 . S
C836 H823 0.960 . S
C836 C835 1.524 . S
C837 C834 1.403 1_455 S
C837 C838 1.392 . S
C837 C841 1.495 . S
C838 C837 1.392 . S
C838 C839 1.385 . S
C838 C840 1.478 . S
C839 H833 0.930 . S
C839 C835 1.400 1_455 S
C839 C838 1.385 . S
C840 C838 1.478 . S
C840 C842 1.381 . S
C840 C846 1.383 . S
C841 C837 1.495 . S
C841 H847 0.959 . S
C841 H848 0.961 . S
C841 H849 0.960 . S
C842 C840 1.381 . S
C842 C843 1.394 . S
C842 H850 0.930 . S
C843 C842 1.394 . S
C843 C844 1.383 . S
C843 H851 0.929 . S
C844 C843 1.383 . S
C844 C845 1.377 . S
C845 H829 0.930 . S
C845 C844 1.377 . S
C845 C846 1.379 . S
C846 H830 0.931 . S
C846 C840 1.383 . S
C846 C845 1.379 . S
H847 C841 0.959 . S
H848 C841 0.961 . S
H849 C841 0.960 . S
H850 C842 0.930 . S
H851 C843 0.929 . S
H852 C860 0.929 . S
H853 C862 0.930 . S
H854 C864 0.930 . S
H855 C867 0.929 . S
H856 C870 0.930 . S
H857 C872 0.960 . S
H858 C872 0.960 . S
H859 C872 0.960 . S
C860 H852 0.929 . S
C860 C861 1.377 . S
C860 C862 1.384 . S
C861 C860 1.377 . S
C861 C867 1.390 . S
C862 H853 0.930 . S
C862 C860 1.384 . S
C862 C863 1.372 . S
C863 C862 1.372 . S
C863 C864 1.400 . S
C863 C868 1.490 . S
C864 H854 0.930 . S
C864 C863 1.400 . S
C864 C867 1.386 . S
H865 C881 0.930 . S
H866 C882 0.931 . S
C867 H855 0.929 . S
C867 C861 1.390 . S
C867 C864 1.386 . S
C868 C863 1.490 . S
C868 C870 1.395 . S
C868 C871 1.403 . S
H869 C875 0.930 . S
C870 H856 0.930 . S
C870 C868 1.395 . S
C870 C873 1.403 1_545 S
C871 C868 1.403 . S
C871 C872 1.524 . S
C871 C875 1.400 1_545 S
C872 H857 0.960 . S
C872 H858 0.960 . S
C872 H859 0.960 . S
C872 C871 1.524 . S
C873 C870 1.403 1_565 S
C873 C874 1.392 . S
C873 C877 1.495 . S
C874 C873 1.392 . S
C874 C875 1.385 . S
C874 C876 1.478 . S
C875 H869 0.930 . S
C875 C871 1.400 1_565 S
C875 C874 1.385 . S
C876 C874 1.478 . S
C876 C878 1.381 . S
C876 C882 1.383 . S
C877 C873 1.495 . S
C877 H883 0.959 . S
C877 H884 0.961 . S
C877 H885 0.960 . S
C878 C876 1.381 . S
C878 C879 1.394 . S
C878 H886 0.930 . S
C879 C878 1.394 . S
C879 C880 1.383 . S
C879 H887 0.929 . S
C880 C879 1.383 . S
C880 C881 1.377 . S
C881 H865 0.930 . S
C881 C880 1.377 . S
C881 C882 1.379 . S
C882 H866 0.931 . S
C882 C876 1.383 . S
C882 C881 1.379 . S
H883 C877 0.959 . S
H884 C877 0.961 . S
H885 C877 0.960 . S
H886 C878 0.930 . S
H887 C879 0.929 . S
H888 C896 0.929 . S
H889 C898 0.930 . S
H890 C900 0.930 . S
H891 C903 0.929 . S
H892 C906 0.930 . S
H893 C908 0.960 . S
H894 C908 0.960 . S
H895 C908 0.960 . S
C896 H888 0.929 . S
C896 C897 1.377 . S
C896 C898 1.384 . S
C897 C896 1.377 . S
C897 C903 1.390 . S
C898 H889 0.930 . S
C898 C896 1.384 . S
C898 C899 1.372 . S
C899 C898 1.372 . S
C899 C900 1.400 . S
C899 C904 1.490 . S
C900 H890 0.930 . S
C900 C899 1.400 . S
C900 C903 1.386 . S
H901 C917 0.930 . S
H902 C918 0.931 . S
C903 H891 0.929 . S
C903 C897 1.390 . S
C903 C900 1.386 . S
C904 C899 1.490 . S
C904 C906 1.395 . S
C904 C907 1.403 . S
H905 C911 0.930 . S
C906 H892 0.930 . S
C906 C904 1.395 . S
C906 C909 1.403 . S
C907 C904 1.403 . S
C907 C908 1.524 . S
C907 C911 1.400 . S
C908 H893 0.960 . S
C908 H894 0.960 . S
C908 H895 0.960 . S
C908 C907 1.524 . S
C909 C906 1.403 . S
C909 C910 1.392 . S
C909 C913 1.495 . S
C910 C909 1.392 . S
C910 C911 1.385 . S
C910 C912 1.478 . S
C911 H905 0.930 . S
C911 C907 1.400 . S
C911 C910 1.385 . S
C912 C910 1.478 . S
C912 C914 1.381 . S
C912 C918 1.383 . S
C913 C909 1.495 . S
C913 H919 0.959 . S
C913 H920 0.961 . S
C913 H921 0.960 . S
C914 C912 1.381 . S
C914 C915 1.394 . S
C914 H922 0.930 . S
C915 C914 1.394 . S
C915 C916 1.383 . S
C915 H923 0.929 . S
C916 C915 1.383 . S
C916 C917 1.377 . S
C917 H901 0.930 . S
C917 C916 1.377 . S
C917 C918 1.379 . S
C918 H902 0.931 . S
C918 C912 1.383 . S
C918 C917 1.379 . S
H919 C913 0.959 . S
H920 C913 0.961 . S
H921 C913 0.960 . S
H922 C914 0.930 . S
H923 C915 0.929 . S
H924 C932 0.929 . S
H925 C934 0.930 . S
H926 C936 0.930 . S
H927 C939 0.929 . S
H928 C942 0.930 . S
H929 C944 0.960 . S
H930 C944 0.960 . S
H931 C944 0.960 . S
C932 H924 0.929 . S
C932 C933 1.377 . S
C932 C934 1.384 . S
C933 C932 1.377 . S
C933 C939 1.390 . S
C934 H925 0.930 . S
C934 C932 1.384 . S
C934 C935 1.372 . S
C935 C934 1.372 . S
C935 C936 1.400 . S
C935 C940 1.490 . S
C936 H926 0.930 . S
C936 C935 1.400 . S
C936 C939 1.386 . S
H937 C953 0.930 . S
H938 C954 0.931 . S
C939 H927 0.929 . S
C939 C933 1.390 . S
C939 C936 1.386 . S
C940 C935 1.490 . S
C940 C942 1.395 . S
C940 C943 1.403 . S
H941 C947 0.930 . S
C942 H928 0.930 . S
C942 C940 1.395 . S
C942 C945 1.403 1_655 S
C943 C940 1.403 . S
C943 C944 1.524 . S
C943 C947 1.400 1_655 S
C944 H929 0.960 . S
C944 H930 0.960 . S
C944 H931 0.960 . S
C944 C943 1.524 . S
C945 C942 1.403 1_455 S
C945 C946 1.392 . S
C945 C949 1.495 . S
C946 C945 1.392 . S
C946 C947 1.385 . S
C946 C948 1.478 . S
C947 H941 0.930 . S
C947 C943 1.400 1_455 S
C947 C946 1.385 . S
C948 C946 1.478 . S
C948 C950 1.381 . S
C948 C954 1.383 . S
C949 C945 1.495 . S
C949 H955 0.959 . S
C949 H956 0.961 . S
C949 H957 0.960 . S
C950 C948 1.381 . S
C950 C951 1.394 . S
C950 H958 0.930 . S
C951 C950 1.394 . S
C951 C952 1.383 . S
C951 H959 0.929 . S
C952 C951 1.383 . S
C952 C953 1.377 . S
C953 H937 0.930 . S
C953 C952 1.377 . S
C953 C954 1.379 . S
C954 H938 0.931 . S
C954 C948 1.383 . S
C954 C953 1.379 . S
H955 C949 0.959 . S
H956 C949 0.961 . S
H957 C949 0.960 . S
H958 C950 0.930 . S
H959 C951 0.929 . S
H960 C968 0.929 . S
H961 C970 0.930 . S
H962 C972 0.930 . S
H963 C975 0.929 . S
H964 C978 0.930 . S
H965 C980 0.960 . S
H966 C980 0.960 . S
H967 C980 0.960 . S
C968 H960 0.929 . S
C968 C969 1.377 . S
C968 C970 1.384 . S
C969 C968 1.377 . S
C969 C975 1.390 . S
C970 H961 0.930 . S
C970 C968 1.384 . S
C970 C971 1.372 . S
C971 C970 1.372 . S
C971 C972 1.400 . S
C971 C976 1.490 . S
C972 H962 0.930 . S
C972 C971 1.400 . S
C972 C975 1.386 . S
H973 C989 0.930 . S
H974 C990 0.931 . S
C975 H963 0.929 . S
C975 C969 1.390 . S
C975 C972 1.386 . S
C976 C971 1.490 . S
C976 C978 1.395 . S
C976 C979 1.403 . S
H977 C983 0.930 . S
C978 H964 0.930 . S
C978 C976 1.395 . S
C978 C981 1.403 1_565 S
C979 C976 1.403 . S
C979 C980 1.524 . S
C979 C983 1.400 1_565 S
C980 H965 0.960 . S
C980 H966 0.960 . S
C980 H967 0.960 . S
C980 C979 1.524 . S
C981 C978 1.403 1_545 S
C981 C982 1.392 . S
C981 C985 1.495 . S
C982 C981 1.392 . S
C982 C983 1.385 . S
C982 C984 1.478 . S
C983 H977 0.930 . S
C983 C979 1.400 1_545 S
C983 C982 1.385 . S
C984 C982 1.478 . S
C984 C986 1.381 . S
C984 C990 1.383 . S
C985 C981 1.495 . S
C985 H991 0.959 . S
C985 H992 0.961 . S
C985 H993 0.960 . S
C986 C984 1.381 . S
C986 C987 1.394 . S
C986 H994 0.930 . S
C987 C986 1.394 . S
C987 C988 1.383 . S
C987 H995 0.929 . S
C988 C987 1.383 . S
C988 C989 1.377 . S
C989 H973 0.930 . S
C989 C988 1.377 . S
C989 C990 1.379 . S
C990 H974 0.931 . S
C990 C984 1.383 . S
C990 C989 1.379 . S
H991 C985 0.959 . S
H992 C985 0.961 . S
H993 C985 0.960 . S
H994 C986 0.930 . S
H995 C987 0.929 . S
H996 C1004 0.929 . S
H997 C1006 0.930 . S
H998 C1008 0.930 . S
H999 C1011 0.929 . S
H1000 C1014 0.930 . S
H1001 C1016 0.960 . S
H1002 C1016 0.960 . S
H1003 C1016 0.960 . S
C1004 H996 0.929 . S
C1004 C1005 1.377 . S
C1004 C1006 1.384 . S
C1005 C1004 1.377 . S
C1005 C1011 1.390 . S
C1006 H997 0.930 . S
C1006 C1004 1.384 . S
C1006 C1007 1.372 . S
C1007 C1006 1.372 . S
C1007 C1008 1.400 . S
C1007 C1012 1.490 . S
C1008 H998 0.930 . S
C1008 C1007 1.400 . S
C1008 C1011 1.386 . S
H1009 C1025 0.930 . S
H1010 C1026 0.931 . S
C1011 H999 0.929 . S
C1011 C1005 1.390 . S
C1011 C1008 1.386 . S
C1012 C1007 1.490 . S
C1012 C1014 1.395 . S
C1012 C1015 1.403 . S
H1013 C1019 0.930 . S
C1014 H1000 0.930 . S
C1014 C1012 1.395 . S
C1014 C1017 1.403 . S
C1015 C1012 1.403 . S
C1015 C1016 1.524 . S
C1015 C1019 1.400 . S
C1016 H1001 0.960 . S
C1016 H1002 0.960 . S
C1016 H1003 0.960 . S
C1016 C1015 1.524 . S
C1017 C1014 1.403 . S
C1017 C1018 1.392 . S
C1017 C1021 1.495 . S
C1018 C1017 1.392 . S
C1018 C1019 1.385 . S
C1018 C1020 1.478 . S
C1019 H1013 0.930 . S
C1019 C1015 1.400 . S
C1019 C1018 1.385 . S
C1020 C1018 1.478 . S
C1020 C1022 1.381 . S
C1020 C1026 1.383 . S
C1021 C1017 1.495 . S
C1021 H1027 0.959 . S
C1021 H1028 0.961 . S
C1021 H1029 0.960 . S
C1022 C1020 1.381 . S
C1022 C1023 1.394 . S
C1022 H1030 0.930 . S
C1023 C1022 1.394 . S
C1023 C1024 1.383 . S
C1023 H1031 0.929 . S
C1024 C1023 1.383 . S
C1024 C1025 1.377 . S
C1025 H1009 0.930 . S
C1025 C1024 1.377 . S
C1025 C1026 1.379 . S
C1026 H1010 0.931 . S
C1026 C1020 1.383 . S
C1026 C1025 1.379 . S
H1027 C1021 0.959 . S
H1028 C1021 0.961 . S
H1029 C1021 0.960 . S
H1030 C1022 0.930 . S
H1031 C1023 0.929 . S
C177 C119 1.805 . S
C196 C7 1.801 . S
C213 C23 1.904 . S
C232 C135 1.895 . S
C249 C35 1.806 . S
C268 C147 1.793 . S
C285 C49 1.811 . S
C304 C161 1.806 . S
C321 C93 1.905 . S
C340 C65 1.906 . S
C357 C77 1.811 . S
C376 C105 1.816 . S
C393 C51 0.808 . S
C412 C9 0.791 . S
C429 C63 0.840 . S
C448 C21 0.813 . S
C465 C79 0.719 . S
C484 C37 0.735 . S
C501 C91 0.832 . S
C520 C133 0.824 . S
C537 C107 0.809 . S
C556 C149 0.774 . S
C573 C121 0.690 . S
C592 C163 0.686 . S
C609 C3 1.571 . S
C628 C134 1.570 . S
C645 C22 1.568 . S
C664 C143 1.563 . S
C681 C31 1.559 . S
C700 C157 1.557 . S
C717 C92 1.565 . S
C736 C45 1.573 . S
C753 C64 1.567 . S
C772 C101 1.561 . S
C789 C115 1.559 . S
C808 C73 1.557 . S
C825 C162 1.074 . S
C844 C8 1.081 . S
C861 C17 1.141 . S
C880 C87 1.159 . S
C897 C106 1.076 . S
C916 C36 1.090 . S
C933 C50 1.073 . S
C952 C120 1.076 . S
C969 C59 1.128 . S
C988 C129 1.100 . S
C1005 C148 1.068 . S
C1024 C78 1.057 . S
