# Generated by pormake.
# Topology wjd, (6)-cn, num edge types: 1
# Building blocks:
#     Node 0, Type 0, BuildingBlock: PAMTUU_clean_sbu_0, # of connection points: 6
#     Node 1, Type 0, BuildingBlock: PAMTUU_clean_sbu_0, # of connection points: 6
#     Node 2, Type 0, BuildingBlock: PAMTUU_clean_sbu_0, # of connection points: 6
#     Node 3, Type 0, BuildingBlock: PAMTUU_clean_sbu_0, # of connection points: 6
#     Node 4, Type 0, BuildingBlock: PAMTUU_clean_sbu_0, # of connection points: 6
#     Node 5, Type 0, BuildingBlock: PAMTUU_clean_sbu_0, # of connection points: 6
#     Node 6, Type 0, BuildingBlock: PAMTUU_clean_sbu_0, # of connection points: 6
#     Node 7, Type 0, BuildingBlock: PAMTUU_clean_sbu_0, # of connection points: 6
#     Node 8, Type 0, BuildingBlock: PAMTUU_clean_sbu_0, # of connection points: 6
#     Node 9, Type 0, BuildingBlock: PAMTUU_clean_sbu_0, # of connection points: 6
#     Node 10, Type 0, BuildingBlock: PAMTUU_clean_sbu_0, # of connection points: 6
#     Node 11, Type 0, BuildingBlock: PAMTUU_clean_sbu_0, # of connection points: 6
#     Edge 12, Type (0, 0), BuildingBlock: OJICUG_clean_linker_0, # of connection points: 2
#     Edge 13, Type (0, 0), BuildingBlock: OJICUG_clean_linker_0, # of connection points: 2
#     Edge 14, Type (0, 0), BuildingBlock: OJICUG_clean_linker_0, # of connection points: 2
#     Edge 15, Type (0, 0), BuildingBlock: OJICUG_clean_linker_0, # of connection points: 2
#     Edge 16, Type (0, 0), BuildingBlock: OJICUG_clean_linker_0, # of connection points: 2
#     Edge 17, Type (0, 0), BuildingBlock: OJICUG_clean_linker_0, # of connection points: 2
#     Edge 18, Type (0, 0), BuildingBlock: OJICUG_clean_linker_0, # of connection points: 2
#     Edge 19, Type (0, 0), BuildingBlock: OJICUG_clean_linker_0, # of connection points: 2
#     Edge 20, Type (0, 0), BuildingBlock: OJICUG_clean_linker_0, # of connection points: 2
#     Edge 21, Type (0, 0), BuildingBlock: OJICUG_clean_linker_0, # of connection points: 2
#     Edge 22, Type (0, 0), BuildingBlock: OJICUG_clean_linker_0, # of connection points: 2
#     Edge 23, Type (0, 0), BuildingBlock: OJICUG_clean_linker_0, # of connection points: 2
#     Edge 24, Type (0, 0), BuildingBlock: OJICUG_clean_linker_0, # of connection points: 2
#     Edge 25, Type (0, 0), BuildingBlock: OJICUG_clean_linker_0, # of connection points: 2
#     Edge 26, Type (0, 0), BuildingBlock: OJICUG_clean_linker_0, # of connection points: 2
#     Edge 27, Type (0, 0), BuildingBlock: OJICUG_clean_linker_0, # of connection points: 2
#     Edge 28, Type (0, 0), BuildingBlock: OJICUG_clean_linker_0, # of connection points: 2
#     Edge 29, Type (0, 0), BuildingBlock: OJICUG_clean_linker_0, # of connection points: 2
#     Edge 30, Type (0, 0), BuildingBlock: OJICUG_clean_linker_0, # of connection points: 2
#     Edge 31, Type (0, 0), BuildingBlock: OJICUG_clean_linker_0, # of connection points: 2
#     Edge 32, Type (0, 0), BuildingBlock: OJICUG_clean_linker_0, # of connection points: 2
#     Edge 33, Type (0, 0), BuildingBlock: OJICUG_clean_linker_0, # of connection points: 2
#     Edge 34, Type (0, 0), BuildingBlock: OJICUG_clean_linker_0, # of connection points: 2
#     Edge 35, Type (0, 0), BuildingBlock: OJICUG_clean_linker_0, # of connection points: 2
#     Edge 36, Type (0, 0), BuildingBlock: OJICUG_clean_linker_0, # of connection points: 2
#     Edge 37, Type (0, 0), BuildingBlock: OJICUG_clean_linker_0, # of connection points: 2
#     Edge 38, Type (0, 0), BuildingBlock: OJICUG_clean_linker_0, # of connection points: 2
#     Edge 39, Type (0, 0), BuildingBlock: OJICUG_clean_linker_0, # of connection points: 2
#     Edge 40, Type (0, 0), BuildingBlock: OJICUG_clean_linker_0, # of connection points: 2
#     Edge 41, Type (0, 0), BuildingBlock: OJICUG_clean_linker_0, # of connection points: 2
#     Edge 42, Type (0, 0), BuildingBlock: OJICUG_clean_linker_0, # of connection points: 2
#     Edge 43, Type (0, 0), BuildingBlock: OJICUG_clean_linker_0, # of connection points: 2
#     Edge 44, Type (0, 0), BuildingBlock: OJICUG_clean_linker_0, # of connection points: 2
#     Edge 45, Type (0, 0), BuildingBlock: OJICUG_clean_linker_0, # of connection points: 2
#     Edge 46, Type (0, 0), BuildingBlock: OJICUG_clean_linker_0, # of connection points: 2
#     Edge 47, Type (0, 0), BuildingBlock: OJICUG_clean_linker_0, # of connection points: 2
# Relax obj value: 0.095
# Max RMSD: 0.232
# Mean RMSD: 0.232
data_MOF--net-wjd--node1-PAMTUU_clean_sbu_0--edge1-OJICUG_clean_linker_0
_symmetry_space_group_name_H-M    P1
_symmetry_Int_Tables_number       1
_symmetry_cell_setting            triclinic
loop_
_symmetry_equiv_pos_as_xyz
'x, y, z'
_cell_length_a     31.19182
_cell_length_b     31.184947
_cell_length_c     38.399583
_cell_angle_alpha  90.329576
_cell_angle_beta   89.837671
_cell_angle_gamma 119.9118
loop_
_atom_site_label
_atom_site_type_symbol
_atom_site_fract_x
_atom_site_fract_y
_atom_site_fract_z
_atom_type_partial_charge
Tb0 Tb 0.34922 0.09447 0.14582 0.0
Tb1 Tb 0.40671 0.1995 0.1023 0.0
C2 C 0.42189 0.19174 0.18336 0.0
C3 C 0.23914 0.97988 0.17046 0.0
C4 C 0.13615 0.91735 0.16061 0.0
C5 C 0.16011 0.9116 0.18979 0.0
C6 C 0.21126 0.94257 0.19461 0.0
C7 C 0.21502 0.98642 0.14188 0.0
C8 C 0.16426 0.95545 0.13693 0.0
C9 C 0.29298 1.01287 0.17498 0.0
O10 O 0.31252 0.13768 0.15481 0.0
O11 O 0.32843 0.1747 0.10192 0.0
O12 O 0.38296 0.1394 0.06363 0.0
O13 O 0.31702 0.08144 0.09459 0.0
O14 O 0.41172 0.26832 0.09372 0.0
O15 O 0.45965 0.24825 0.06648 0.0
O16 O 0.46422 0.1845 0.11815 0.0
O17 O 0.4187 0.10013 0.12708 0.0
O18 O 0.4072 0.14446 0.18046 0.0
O19 O 0.41457 0.21637 0.15844 0.0
C20 C 0.30252 0.16096 0.13066 0.0
O21 O 0.32002 1.01749 0.14771 0.0
O22 O 0.30612 0.05572 0.18922 0.0
C23 C 0.34265 0.09556 0.06581 0.0
C24 C 0.49259 0.33252 0.08223 0.0
C25 C 0.57323 0.42697 0.0993 0.0
C26 C 0.54259 0.42079 0.07063 0.0
C27 C 0.50271 0.37401 0.06219 0.0
C28 C 0.52245 0.33851 0.11118 0.0
C29 C 0.56237 0.3852 0.1196 0.0
C30 C 0.45002 0.28361 0.07338 0.0
C31 C 0.46124 0.1412 0.12154 0.0
H32 H 0.13956 0.88248 0.20844 0.0
H33 H 0.22903 0.9372 0.21704 0.0
H34 H 0.23546 1.01549 0.12324 0.0
H35 H 0.14693 0.96151 0.11454 0.0
H36 H 0.55011 0.45188 0.05419 0.0
H37 H 0.47988 0.37018 0.03987 0.0
H38 H 0.51489 0.30705 0.12726 0.0
H39 H 0.58469 0.3886 0.14212 0.0
Tb40 Tb 0.85893 0.67506 0.41098 0.0
Tb41 Tb 0.82781 0.74526 0.36612 0.0
C42 C 0.82682 0.74663 0.44846 0.0
C43 C 0.90561 0.58741 0.42721 0.0
C44 C 0.94168 0.52251 0.40902 0.0
C45 C 0.96342 0.55734 0.43628 0.0
C46 C 0.94543 0.58914 0.44534 0.0
C47 C 0.8855 0.55456 0.39878 0.0
C48 C 0.90321 0.52247 0.38988 0.0
C49 C 0.88369 0.61769 0.43945 0.0
O50 O 0.78082 0.64783 0.41787 0.0
O51 O 0.76499 0.66866 0.36442 0.0
O52 O 0.85722 0.7153 0.32848 0.0
O53 O 0.84385 0.64557 0.35766 0.0
O54 O 0.77985 0.77315 0.35638 0.0
O55 O 0.84645 0.79774 0.3265 0.0
O56 O 0.90209 0.79143 0.38723 0.0
O57 O 0.92424 0.73226 0.38523 0.0
O58 O 0.85389 0.72466 0.45048 0.0
O59 O 0.80895 0.75157 0.41893 0.0
C60 C 0.75036 0.63959 0.392 0.0
O61 O 0.83914 0.60409 0.42856 0.0
O62 O 0.91194 0.66575 0.43908 0.0
C63 C 0.8536 0.67172 0.32901 0.0
C64 C 0.82592 0.85792 0.34258 0.0
C65 C 0.85675 0.958 0.35767 0.0
C66 C 0.8222 0.93249 0.33097 0.0
C67 C 0.80703 0.88292 0.32345 0.0
C68 C 0.86029 0.88312 0.36927 0.0
C69 C 0.87572 0.93272 0.37665 0.0
C70 C 0.81058 0.80596 0.33451 0.0
C71 C 0.93637 0.77891 0.38438 0.0
H72 H 0.99375 0.55936 0.45124 0.0
H73 H 0.96191 0.6143 0.46715 0.0
H74 H 0.85497 0.55247 0.38402 0.0
H75 H 0.88508 0.49608 0.36898 0.0
H76 H 0.80727 0.95104 0.31562 0.0
H77 H 0.78068 0.86417 0.30266 0.0
H78 H 0.8752 0.86438 0.38443 0.0
H79 H 0.90188 0.95103 0.3976 0.0
Tb80 Tb 0.98444 0.26131 0.14521 0.0
Tb81 Tb 0.87712 0.21075 0.10572 0.0
C82 C 0.89034 0.23825 0.18629 0.0
C83 C 0.10228 0.27144 0.16719 0.0
C84 C 0.16605 0.23262 0.157 0.0
C85 C 0.1735 0.26488 0.18508 0.0
C86 C 0.14189 0.28432 0.19005 0.0
C87 C 0.09417 0.23833 0.13973 0.0
C88 C 0.12586 0.2194 0.13454 0.0
C89 C 0.06846 0.2912 0.17194 0.0
O90 O 0.94409 0.18161 0.15597 0.0
O91 O 0.90236 0.15764 0.10477 0.0
O92 O 0.93471 0.24587 0.06541 0.0
O93 O 0.99427 0.23831 0.09421 0.0
O94 O 0.82646 0.21196 0.07021 0.0
O95 O 0.8084 0.14617 0.09931 0.0
O96 O 0.89126 0.28349 0.12057 0.0
O97 O 0.97621 0.32314 0.12523 0.0
O98 O 0.93694 0.27112 0.18123 0.0
O99 O 0.86392 0.2047 0.16245 0.0
C100 C 0.91831 0.14683 0.13296 0.0
O101 O 0.06102 0.31066 0.14423 0.0
O102 O 1.02704 0.26179 0.18776 0.0
C103 C 0.97818 0.2483 0.0658 0.0
C104 C 0.74315 0.16082 0.08707 0.0
C105 C 0.64898 0.14755 0.10364 0.0
C106 C 0.65532 0.12366 0.07452 0.0
C107 C 0.70203 0.13031 0.06632 0.0
C108 C 0.73697 0.18398 0.11652 0.0
C109 C 0.69034 0.17743 0.12472 0.0
C110 C 0.79197 0.16728 0.07824 0.0
C111 C 0.93452 0.32415 0.12153 0.0
H112 H 0.20428 0.27581 0.20275 0.0
H113 H 0.14845 0.30943 0.2116 0.0
H114 H 0.06326 0.22704 0.1222 0.0
H115 H 0.11866 0.19403 0.11305 0.0
H116 H 0.62448 0.10093 0.0575 0.0
H117 H 0.70612 0.11191 0.04359 0.0
H118 H 0.76824 0.20725 0.13308 0.0
H119 H 0.68668 0.19588 0.14757 0.0
Tb120 Tb 0.42736 0.20859 0.40706 0.0
Tb121 Tb 0.35466 0.10699 0.36261 0.0
C122 C 0.35705 0.10567 0.44482 0.0
C123 C 0.51557 0.343 0.42406 0.0
C124 C 0.57954 0.4443 0.40751 0.0
C125 C 0.5454 0.43045 0.4352 0.0
C126 C 0.51406 0.3805 0.44344 0.0
C127 C 0.5477 0.35652 0.39524 0.0
C128 C 0.57932 0.40649 0.38714 0.0
C129 C 0.48604 0.29065 0.43555 0.0
O130 O 0.45461 0.15744 0.41274 0.0
O131 O 0.43111 0.12034 0.35924 0.0
O132 O 0.38219 0.16639 0.3256 0.0
O133 O 0.45412 0.2219 0.35312 0.0
O134 O 0.32577 1.03101 0.35248 0.0
O135 O 0.30119 0.07344 0.32334 0.0
O136 O 0.30951 0.13533 0.38557 0.0
O137 O 0.36866 0.21658 0.3835 0.0
O138 O 0.37947 0.15467 0.44696 0.0
O139 O 0.3504 0.08234 0.41516 0.0
C140 C 0.46112 0.13445 0.3864 0.0
O141 O 0.43798 0.27081 0.43633 0.0
O142 O 0.49924 0.25995 0.42314 0.0
C143 C 0.42614 0.20564 0.32517 0.0
C144 C 0.24085 0.99297 0.33888 0.0
C145 C 0.14076 0.92433 0.35375 0.0
C146 C 0.1656 0.91565 0.3263 0.0
C147 C 0.21517 0.94976 0.31888 0.0
C148 C 0.21629 1.00183 0.36629 0.0
C149 C 0.16668 0.96796 0.37357 0.0
C150 C 0.29279 1.02927 0.33087 0.0
C151 C 0.32196 0.18215 0.38345 0.0
H152 H 0.54362 0.45829 0.45111 0.0
H153 H 0.48948 0.37121 0.4656 0.0
H154 H 0.54961 0.32854 0.37956 0.0
H155 H 0.60521 0.41538 0.36586 0.0
H156 H 0.14655 0.88268 0.31029 0.0
H157 H 0.23338 0.94245 0.29748 0.0
H158 H 0.23553 1.035 0.38207 0.0
H159 H 0.14887 0.97551 0.39509 0.0
Tb160 Tb 0.8142 0.72861 0.1475 0.0
Tb161 Tb 0.86543 0.67334 0.10545 0.0
C162 C 0.84079 0.65926 0.1863 0.0
C163 C 0.80485 0.83644 0.1746 0.0
C164 C 0.84372 0.93917 0.16403 0.0
C165 C 0.79275 0.90563 0.16026 0.0
C166 C 0.77356 0.85489 0.16557 0.0
C167 C 0.85569 0.87001 0.17913 0.0
C168 C 0.87482 0.92083 0.17414 0.0
C169 C 0.78485 0.78222 0.17625 0.0
O170 O 0.89421 0.76842 0.15721 0.0
O171 O 0.918 0.7518 0.10519 0.0
O172 O 0.83034 0.69711 0.06602 0.0
O173 O 0.83549 0.76226 0.09699 0.0
O174 O 0.92922 0.66728 0.09925 0.0
O175 O 0.86409 0.62273 0.06835 0.0
O176 O 0.79308 0.61458 0.12036 0.0
O177 O 0.75241 0.65881 0.12686 0.0
O178 O 0.80612 0.67076 0.18193 0.0
O179 O 0.87396 0.66775 0.16191 0.0
C180 C 0.92858 0.77845 0.13366 0.0
O181 O 0.76639 0.75805 0.14723 0.0
O182 O 0.8121 0.76724 0.19191 0.0
C183 C 0.82603 0.7371 0.068 0.0
C184 C 0.91268 0.58618 0.08496 0.0
C185 C 0.9238 0.50281 0.09886 0.0
C186 C 0.87916 0.49691 0.08539 0.0
C187 C 0.87364 0.53796 0.07858 0.0
C188 C 0.95759 0.59226 0.09783 0.0
C189 C 0.96307 0.55113 0.10479 0.0
C190 C 0.90759 0.63024 0.07754 0.0
C191 C 0.75204 0.61655 0.1219 0.0
H192 H 0.76768 0.91861 0.15289 0.0
H193 H 0.73435 0.82985 0.16178 0.0
H194 H 0.88099 0.85697 0.18566 0.0
H195 H 0.91425 0.94556 0.17695 0.0
H196 H 0.84838 0.46043 0.0797 0.0
H197 H 0.83872 0.53175 0.06823 0.0
H198 H 0.98858 0.62895 0.10268 0.0
H199 H 0.99785 0.55726 0.11534 0.0
Tb200 Tb 0.88882 0.24187 0.41163 0.0
Tb201 Tb 0.99089 0.2711 0.36744 0.0
C202 C 0.99202 0.27464 0.44989 0.0
C203 C 0.75495 0.19735 0.43058 0.0
C204 C 0.65481 0.16152 0.41112 0.0
C205 C 0.67102 0.17677 0.4456 0.0
C206 C 0.72031 0.19432 0.45515 0.0
C207 C 0.73928 0.18175 0.3962 0.0
C208 C 0.6897 0.16399 0.38656 0.0
C209 C 0.80764 0.22047 0.44084 0.0
O210 O 0.9403 0.31989 0.41792 0.0
O211 O 0.9772 0.33405 0.36454 0.0
O212 O 0.93221 0.23976 0.32963 0.0
O213 O 0.87436 0.25295 0.35741 0.0
O214 O 0.06691 0.31835 0.35798 0.0
O215 O 1.025 0.25155 0.32817 0.0
O216 O 0.96225 0.19732 0.38942 0.0
O217 O 0.88075 0.175 0.38806 0.0
O218 O 0.94297 0.24842 0.45179 0.0
O219 O 1.0154 0.2908 0.42029 0.0
C220 C 0.96292 0.34965 0.3919 0.0
O221 O 0.83715 0.26292 0.4264 0.0
O222 O 0.82746 0.19218 0.4418 0.0
C223 C 0.89161 0.24221 0.32939 0.0
C224 C 0.10574 0.27214 0.34369 0.0
C225 C 0.17523 0.24125 0.35747 0.0
C226 C 0.18388 0.27582 0.33102 0.0
C227 C 0.14938 0.291 0.32416 0.0
C228 C 0.09692 0.23775 0.37014 0.0
C229 C 0.13122 0.2223 0.37688 0.0
C230 C 0.069 0.28741 0.33604 0.0
C231 C 0.91542 0.16299 0.38719 0.0
H232 H 0.64597 0.17673 0.4652 0.0
H233 H 0.73167 0.20675 0.48168 0.0
H234 H 0.76553 0.1841 0.37671 0.0
H235 H 0.67881 0.1524 0.35987 0.0
H236 H 0.2171 0.2907 0.31531 0.0
H237 H 0.15669 0.3173 0.3035 0.0
H238 H 0.06342 0.22278 0.38556 0.0
H239 H 0.12364 0.1961 0.39764 0.0
Tb240 Tb 0.22729 0.39954 0.6081 0.0
Tb241 Tb 0.12149 0.34193 0.65009 0.0
C242 C 0.12416 0.33552 0.57003 0.0
C243 C 0.36141 0.48745 0.58741 0.0
C244 C 0.45679 0.56973 0.60093 0.0
C245 C 0.41835 0.57645 0.58788 0.0
C246 C 0.37137 0.53595 0.58123 0.0
C247 C 0.39993 0.48055 0.5999 0.0
C248 C 0.44696 0.52113 0.60666 0.0
C249 C 0.31193 0.44395 0.57977 0.0
O250 O 0.21257 0.45697 0.62526 0.0
O251 O 0.12776 0.41134 0.63088 0.0
O252 O 0.17121 0.39898 0.68556 0.0
O253 O 0.24236 0.40372 0.66441 0.0
O254 O 1.04451 0.31268 0.65188 0.0
O255 O 0.08257 0.30007 0.69381 0.0
O256 O 0.16314 0.30335 0.65795 0.0
O257 O 0.20231 0.32131 0.60565 0.0
O258 O 0.1679 0.37625 0.56904 0.0
O259 O 0.10842 0.30971 0.5986 0.0
C260 C 0.16915 0.45406 0.62687 0.0
O261 O 0.29699 0.40596 0.60028 0.0
O262 O 0.27588 0.45213 0.57208 0.0
C263 C 0.21762 0.411 0.68948 0.0
C264 C 1.00761 0.2324 0.67508 0.0
C265 C 0.9467 0.12931 0.66521 0.0
C266 C 0.93889 0.15333 0.69368 0.0
C267 C 0.96908 0.2046 0.6985 0.0
C268 C 1.01634 0.20815 0.6474 0.0
C269 C 0.98613 0.15732 0.6424 0.0
C270 C 1.03982 0.28632 0.67941 0.0
C271 C 0.18712 0.29406 0.63365 0.0
H272 H 0.42465 0.61316 0.58236 0.0
H273 H 0.34295 0.54276 0.5711 0.0
H274 H 0.39369 0.44363 0.60452 0.0
H275 H 0.47537 0.51438 0.61688 0.0
H276 H 0.90873 0.13272 0.71166 0.0
H277 H 0.96214 0.22253 0.72028 0.0
H278 H 1.0465 0.22858 0.62945 0.0
H279 H 0.99368 0.13987 0.62061 0.0
Tb280 Tb 0.28391 0.96517 0.87145 0.0
Tb281 Tb 0.23272 0.85596 0.90837 0.0
C282 C 0.25939 0.87305 0.82805 0.0
C283 C 0.29521 0.08433 0.85112 0.0
C284 C 0.25962 0.15071 0.86263 0.0
C285 C 0.30234 0.16469 0.84238 0.0
C286 C 0.31997 0.13178 0.83672 0.0
C287 C 0.25221 0.06988 0.87089 0.0
C288 C 0.23455 0.10269 0.87656 0.0
C289 C 0.31458 0.0502 0.84651 0.0
O290 O 0.20413 0.92518 0.86062 0.0
O291 O 0.18021 0.88184 0.91112 0.0
O292 O 0.26688 0.91201 0.95032 0.0
O293 O 0.26008 0.97274 0.92242 0.0
O294 O 0.23376 0.80263 0.94117 0.0
O295 O 0.16789 0.78685 0.91282 0.0
O296 O 0.30579 0.87121 0.89352 0.0
O297 O 0.34538 0.9563 0.89144 0.0
O298 O 0.29367 0.91863 0.83472 0.0
O299 O 0.22546 0.84605 0.8513 0.0
C300 C 0.16959 0.89925 0.88361 0.0
O301 O 0.33269 0.0418 0.87455 0.0
O302 O 0.28574 1.00932 0.82968 0.0
C303 C 0.27035 0.95604 0.95035 0.0
C304 C 0.18242 0.72035 0.92071 0.0
C305 C 0.16809 0.62688 0.89961 0.0
C306 C 0.13388 0.63035 0.92173 0.0
C307 C 0.14106 0.67661 0.9322 0.0
C308 C 0.21602 0.71722 0.89789 0.0
C309 C 0.20903 0.67096 0.88757 0.0
C310 C 0.18919 0.76869 0.93214 0.0
C311 C 0.34644 0.91451 0.89412 0.0
H312 H 0.32216 0.20111 0.83083 0.0
H313 H 0.35311 0.14352 0.82133 0.0
H314 H 0.23262 1.03334 0.88231 0.0
H315 H 0.20195 0.09083 0.89257 0.0
H316 H 0.10234 0.59729 0.93186 0.0
H317 H 0.11448 0.67822 0.9496 0.0
H318 H 0.24782 0.75051 0.88826 0.0
H319 H 0.23584 0.66968 0.87025 0.0
Tb320 Tb 0.7046 0.85982 0.60805 0.0
Tb321 Tb 0.76051 0.8077 0.64692 0.0
C322 C 0.76908 0.82245 0.56812 0.0
C323 C 0.61879 0.9083 0.58896 0.0
C324 C 0.53607 0.91989 0.60384 0.0
C325 C 0.56905 0.9468 0.57681 0.0
C326 C 0.60992 0.94099 0.56946 0.0
C327 C 0.58661 0.88196 0.61633 0.0
C328 C 0.54567 0.88765 0.62367 0.0
C329 C 0.66208 0.90273 0.58083 0.0
O330 O 0.64598 0.78744 0.62288 0.0
O331 O 0.69039 0.74668 0.62608 0.0
O332 O 0.70371 0.79937 0.68263 0.0
O333 O 0.69892 0.86709 0.66482 0.0
O334 O 0.78976 0.75985 0.64409 0.0
O335 O 0.79831 0.8028 0.69053 0.0
O336 O 0.80028 0.88719 0.65861 0.0
O337 O 0.78295 0.91252 0.6078 0.0
O338 O 0.728 0.82496 0.56765 0.0
O339 O 0.79477 0.83203 0.59672 0.0
C340 C 0.64796 0.74638 0.62298 0.0
O341 O 0.69896 0.92385 0.60255 0.0
O342 O 0.65313 0.85853 0.57208 0.0
C343 C 0.69177 0.83353 0.6884 0.0
C344 C 0.86755 0.79687 0.67155 0.0
C345 C 0.97003 0.83668 0.65994 0.0
C346 C 0.95122 0.86762 0.66968 0.0
C347 C 0.90048 0.848 0.67518 0.0
C348 C 0.88644 0.76575 0.66284 0.0
C349 C 0.93715 0.78544 0.65701 0.0
C350 C 0.81344 0.77649 0.67346 0.0
C351 C 0.80977 0.92229 0.63598 0.0
H352 H 0.5626 0.97144 0.56073 0.0
H353 H 0.63447 0.96182 0.54832 0.0
H354 H 0.59309 0.85689 0.63194 0.0
H355 H 0.52153 0.8668 0.64497 0.0
H356 H 0.97549 0.90726 0.67181 0.0
H357 H 0.88695 0.8731 0.68135 0.0
H358 H 0.86178 0.72632 0.65966 0.0
H359 H 0.95061 0.76058 0.64991 0.0
Tb360 Tb 0.12005 0.32589 0.86563 0.0
Tb361 Tb 0.2179 0.39671 0.91401 0.0
C362 C 0.22212 0.39967 0.83186 0.0
C363 C 1.00781 0.21342 0.8398 0.0
C364 C 0.94152 0.1132 0.85523 0.0
C365 C 0.94314 0.13183 0.8216 0.0
C366 C 0.97609 0.18159 0.81396 0.0
C367 C 1.00635 0.19504 0.87331 0.0
C368 C 0.9735 0.1455 0.88097 0.0
C369 C 1.04489 0.26478 0.83152 0.0
O370 O 0.14742 0.28021 0.88869 0.0
O371 O 0.22861 0.33988 0.88994 0.0
O372 O 0.161 0.34507 0.95066 0.0
O373 O 0.09158 0.32233 0.91733 0.0
O374 O 0.27922 0.40674 0.94353 0.0
O375 O 0.26332 0.46603 0.93715 0.0
O376 O 0.16804 0.4259 0.91498 0.0
O377 O 0.1346 0.40221 0.8606 0.0
O378 O 0.18213 0.35615 0.83042 0.0
O379 O 0.23749 0.4258 0.86084 0.0
C380 C 0.19449 0.29315 0.88816 0.0
O381 O 1.0456 0.29868 0.85195 0.0
O382 O 0.08924 0.27209 0.82614 0.0
C383 C 0.11244 0.32499 0.9474 0.0
C384 C 0.34754 0.48965 0.94107 0.0
C385 C 0.44534 0.56341 0.9244 0.0
C386 C 0.41605 0.57381 0.94695 0.0
C387 C 0.36789 0.53738 0.95523 0.0
C388 C 0.37706 0.47847 0.91924 0.0
C389 C 0.42578 0.51506 0.91117 0.0
C390 C 0.29496 0.45371 0.94847 0.0
C391 C 0.14948 0.43382 0.88685 0.0
H392 H 0.91869 0.10807 0.80127 0.0
H393 H 0.97712 0.19508 0.78785 0.0
H394 H 1.03119 0.21891 0.89345 0.0
H395 H 0.97384 0.13228 0.90693 0.0
H396 H 0.43026 0.61055 0.95787 0.0
H397 H 0.34601 0.54688 0.9722 0.0
H398 H 0.36225 0.44194 0.90786 0.0
H399 H 0.44746 0.50608 0.89364 0.0
Tb400 Tb 0.24203 0.87132 0.60248 0.0
Tb401 Tb 0.29145 0.97845 0.64328 0.0
C402 C 0.28156 0.97341 0.56377 0.0
C403 C 0.19465 0.737 0.58338 0.0
C404 C 0.18157 0.64276 0.60046 0.0
C405 C 0.22739 0.68084 0.58813 0.0
C406 C 0.23388 0.72732 0.57976 0.0
C407 C 0.14858 0.69876 0.59503 0.0
C408 C 0.14213 0.65226 0.60356 0.0
C409 C 0.20091 0.7862 0.57469 0.0
O410 O 0.31376 0.885 0.61941 0.0
O411 O 0.35392 0.96992 0.62479 0.0
O412 O 0.29728 0.92905 0.67938 0.0
O413 O 0.23127 0.85702 0.6588 0.0
O414 O 0.34056 0.05514 0.64338 0.0
O415 O 0.29057 1.02008 0.6863 0.0
O416 O 0.21142 0.93854 0.65206 0.0
O417 O 0.18905 0.89666 0.60062 0.0
O418 O 0.27891 0.9298 0.56315 0.0
O419 O 0.27066 0.98927 0.59206 0.0
C420 C 0.35467 0.92804 0.62107 0.0
O421 O 0.17816 0.80218 0.59488 0.0
O422 O 0.24523 0.82164 0.56667 0.0
C423 C 0.26304 0.88272 0.68363 0.0
C424 C 0.30007 0.09543 0.66656 0.0
C425 C 0.25982 0.1581 0.65737 0.0
C426 C 0.29148 0.16529 0.68563 0.0
C427 C 0.3116 0.13423 0.69011 0.0
C428 C 0.26767 0.08764 0.63885 0.0
C429 C 0.24802 0.11877 0.63417 0.0
C430 C 0.32015 0.06187 0.67104 0.0
C431 C 0.17753 0.91288 0.62856 0.0
H432 H 0.25836 0.67468 0.58459 0.0
H433 H 0.26971 0.7556 0.57045 0.0
H434 H 0.11748 0.70492 0.59777 0.0
H435 H 0.10645 0.62407 0.61314 0.0
H436 H 0.30139 0.19544 0.70385 0.0
H437 H 0.33614 0.14054 0.71186 0.0
H438 H 0.25741 0.05734 0.62077 0.0
H439 H 0.22317 0.11176 0.6125 0.0
Tb440 Tb 0.74998 0.79393 0.87326 0.0
Tb441 Tb 0.69496 0.84677 0.91406 0.0
C442 C 0.68494 0.82495 0.83272 0.0
C443 C 0.8579 0.78501 0.84995 0.0
C444 C 0.96124 0.82716 0.85856 0.0
C445 C 0.93683 0.79564 0.8301 0.0
C446 C 0.88547 0.77462 0.82589 0.0
C447 C 0.88247 0.81736 0.87782 0.0
C448 C 0.93341 0.83797 0.88218 0.0
C449 C 0.80405 0.76421 0.84574 0.0
O450 O 0.79104 0.87366 0.86397 0.0
O451 O 0.77342 0.89904 0.91505 0.0
O452 O 0.71696 0.81074 0.95401 0.0
O453 O 0.78272 0.8164 0.92404 0.0
O454 O 0.64206 0.84423 0.94945 0.0
O455 O 0.68985 0.91092 0.92135 0.0
O456 O 0.63657 0.77543 0.89677 0.0
O457 O 0.67913 0.73286 0.89263 0.0
O458 O 0.69504 0.78928 0.83729 0.0
O459 O 0.69199 0.85726 0.85755 0.0
C460 C 0.80074 0.90854 0.88709 0.0
O461 O 0.77753 0.74464 0.87366 0.0
O462 O 0.79105 0.7929 0.83 0.0
C463 C 0.75701 0.80653 0.95266 0.0
C464 C 0.60898 0.8949 0.93292 0.0
C465 C 0.52717 0.90697 0.91629 0.0
C466 C 0.55723 0.93128 0.9453 0.0
C467 C 0.59768 0.92524 0.95352 0.0
C468 C 0.57971 0.87118 0.90363 0.0
C469 C 0.53924 0.87712 0.89541 0.0
C470 C 0.65169 0.8889 0.9419 0.0
C471 C 0.63732 0.73371 0.89604 0.0
H472 H 0.95724 0.78644 0.81154 0.0
H473 H 0.86734 0.75023 0.80397 0.0
H474 H 0.86229 0.82681 0.89634 0.0
H475 H 0.95111 0.86269 0.90403 0.0
H476 H 0.54879 0.95402 0.9622 0.0
H477 H 0.61996 0.94401 0.97617 0.0
H478 H 0.58811 0.84796 0.88719 0.0
H479 H 0.5174 0.85835 0.87262 0.0
C480 C 0.2177 0.21366 0.11658 0.0
C481 C 0.20036 0.21333 0.15046 0.0
H482 H 0.2633 0.19732 0.08376 0.0
C483 C 0.21567 0.19415 0.1777 0.0
H484 H 0.20687 0.22858 0.0951 0.0
C485 C 0.24773 0.17573 0.17114 0.0
C486 C 0.26562 0.17678 0.1373 0.0
H487 H 0.20255 0.19303 0.20401 0.0
H488 H 0.25921 0.16159 0.19273 0.0
C489 C 0.25012 0.19583 0.1101 0.0
C490 C 1.05368 0.9026 0.36992 0.0
C491 C 0.08836 0.88753 0.36211 0.0
H492 H 0.97841 0.88031 0.38289 0.0
C493 C 0.07271 0.83679 0.36249 0.0
H494 H 0.06449 0.94143 0.36961 0.0
C495 C 1.02369 0.80195 0.37027 0.0
C496 C 0.98877 0.8168 0.37766 0.0
H497 H 0.09856 0.82395 0.3571 0.0
H498 H 1.01316 0.76318 0.37015 0.0
C499 C 1.00433 0.86759 0.37744 0.0
C500 C 0.86736 0.05665 0.11823 0.0
C501 C 0.90207 0.09407 0.14023 0.0
H502 H 0.82199 0.97902 0.10847 0.0
C503 C 0.91848 0.08013 0.1699 0.0
H504 H 0.85375 0.0658 0.09515 0.0
C505 C 0.90009 1.02995 0.17754 0.0
C506 C 0.86446 0.99265 0.1559 0.0
H507 H 0.94508 0.10793 0.18745 0.0
H508 H 0.91292 1.02033 0.2008 0.0
C509 C 0.84871 1.00672 0.12603 0.0
C510 C 0.29817 0.24667 0.37244 0.0
C511 C 0.28374 0.19674 0.37827 0.0
H512 H 0.27556 0.29969 0.36156 0.0
C513 C 0.23302 0.16143 0.37782 0.0
H514 H 0.33685 0.27499 0.3726 0.0
C515 C 0.19769 0.1758 0.37142 0.0
C516 C 0.21235 0.22569 0.36504 0.0
H517 H 0.22059 0.12266 0.38209 0.0
H518 H 0.15895 0.14768 0.37077 0.0
C519 C 0.26301 0.2609 0.36583 0.0
C520 C 1.04733 0.86852 0.18088 0.0
C521 C 0.08248 0.883 0.15395 0.0
H522 H 0.97095 0.82494 0.19555 0.0
C523 C 0.06608 0.8643 0.12021 0.0
H524 H 0.05869 0.8826 0.20709 0.0
C525 C 1.01607 0.83141 0.11361 0.0
C526 C 0.98091 0.81651 0.14051 0.0
H527 H 0.09216 0.87425 0.09893 0.0
H528 H 1.00509 0.81721 0.08739 0.0
C529 C 0.99701 0.83586 0.17419 0.0
C530 C 0.83693 1.02587 0.36743 0.0
C531 C 0.87222 1.01048 0.36604 0.0
H532 H 0.82266 0.08538 0.37555 0.0
C533 C 0.9221 0.04553 0.37272 0.0
H534 H 0.79815 0.99974 0.36293 0.0
C535 C 0.93636 0.09501 0.38004 0.0
C536 C 0.90096 0.11037 0.38113 0.0
H537 H 0.95027 1.03491 0.37163 0.0
H538 H 0.97512 0.12124 0.38452 0.0
C539 C 0.85105 0.07504 0.37496 0.0
C540 C 0.24041 0.20989 0.61786 0.0
C541 C 0.23977 0.19186 0.65144 0.0
H542 H 0.22417 0.25596 0.58591 0.0
C543 C 0.21977 0.20619 0.67899 0.0
H544 H 0.25593 0.19985 0.59614 0.0
C545 C 0.20107 0.23809 0.67306 0.0
C546 C 0.20261 0.25682 0.63954 0.0
H547 H 0.21836 0.19252 0.70508 0.0
H548 H 0.18645 0.24894 0.69489 0.0
C549 C 0.22228 0.24214 0.61201 0.0
C550 C 0.10024 0.8865 0.84359 0.0
C551 C 0.11714 0.88456 0.87716 0.0
H552 H 1.03754 0.86939 0.81121 0.0
C553 C 0.08258 0.8647 0.90441 0.0
H554 H 0.12589 0.90123 0.82199 0.0
C555 C 1.03233 0.8466 0.89826 0.0
C556 C 1.01512 0.84749 0.86464 0.0
H557 H 0.09425 0.86251 0.93057 0.0
H558 H 1.00672 0.83082 0.91981 0.0
C559 C 1.04964 0.86781 0.83734 0.0
C560 C 0.86555 0.99011 0.6775 0.0
C561 C 0.84754 0.97441 0.64351 0.0
H562 H 0.9107 0.05159 0.71119 0.0
C563 C 0.86322 1.00983 0.6169 0.0
H564 H 0.85389 0.96377 0.69863 0.0
C565 C 0.8956 0.05976 0.62407 0.0
C566 C 0.91291 0.07576 0.65809 0.0
H567 H 0.85 0.99909 0.59047 0.0
H568 H 0.90625 0.08609 0.60299 0.0
C569 C 0.89766 0.04039 0.68477 0.0
C570 C 0.2607 0.27035 0.88378 0.0
C571 C 0.2101 0.25564 0.88325 0.0
H572 H 0.31574 0.24905 0.87818 0.0
C573 C 0.17555 0.2057 0.87653 0.0
H574 H 0.28845 0.30844 0.88905 0.0
C575 C 0.19142 0.1715 0.86998 0.0
C576 C 0.24218 0.18654 0.86996 0.0
H577 H 0.13633 0.19316 0.87576 0.0
H578 H 0.16398 0.13349 0.86425 0.0
C579 C 0.27649 0.23632 0.87725 0.0
C580 C 0.11049 0.91323 0.66504 0.0
C581 C 0.12473 0.89648 0.6355 0.0
H582 H 1.05044 0.90734 0.69606 0.0
C583 C 0.08767 0.86102 0.6137 0.0
H584 H 0.13806 0.9404 0.68243 0.0
C585 C 1.03769 0.84186 0.62168 0.0
C586 C 1.02339 0.85789 0.6515 0.0
H587 H 0.09716 0.84715 0.59075 0.0
H588 H 1.01015 0.81448 0.60438 0.0
C589 C 0.06032 0.89432 0.67286 0.0
C590 C 0.88129 0.04766 0.89565 0.0
C591 C 0.90659 0.06044 0.86365 0.0
H592 H 0.82861 0.99001 0.92825 0.0
C593 C 0.89827 1.02247 0.83997 0.0
H594 H 0.88637 0.07597 0.91433 0.0
C595 C 0.86497 0.97297 0.84795 0.0
C596 C 0.83913 0.96036 0.87974 0.0
H597 H 0.91767 1.03098 0.81531 0.0
H598 H 0.85897 0.94471 0.82894 0.0
C599 C 0.84802 0.99828 0.90359 0.0
C600 C 0.42036 0.2438 0.27078 0.0
C601 C 0.44526 0.22515 0.2905 0.0
H602 H 0.3946 0.249 0.22011 0.0
C603 C 0.47294 0.20727 0.27334 0.0
H604 H 0.39787 0.2567 0.28362 0.0
C605 C 0.46983 0.20143 0.23717 0.0
C606 C 0.4399 0.21444 0.21781 0.0
H607 H 0.49145 0.19168 0.28809 0.0
H608 H 0.48693 0.18241 0.22475 0.0
C609 C 0.4182 0.23905 0.23447 0.0
C610 C 0.8088 0.61922 0.2788 0.0
C611 C 0.85418 0.6508 0.29488 0.0
H612 H 0.76903 0.59693 0.23057 0.0
C613 C 0.89705 0.67528 0.27438 0.0
H614 H 0.77517 0.60092 0.29411 0.0
C615 C 0.89374 0.67248 0.23802 0.0
C616 C 0.84727 0.64626 0.22194 0.0
H617 H 0.93223 0.70068 0.28635 0.0
H618 H 0.92652 0.69556 0.22277 0.0
C619 C 0.80528 0.6173 0.24248 0.0
C620 C 0.85091 0.19148 0.24043 0.0
C621 C 0.87114 0.23588 0.22176 0.0
H622 H 0.84088 0.15879 0.29096 0.0
C623 C 0.88463 0.28023 0.23975 0.0
H624 H 0.84094 0.15698 0.22718 0.0
C625 C 0.88342 0.28106 0.27615 0.0
C626 C 0.86948 0.23769 0.29494 0.0
H627 H 0.90056 0.31497 0.22583 0.0
H628 H 0.89914 0.31644 0.28948 0.0
C629 C 0.85069 0.1925 0.27691 0.0
C630 C 0.22578 0.45346 0.74612 0.0
C631 C 0.23799 0.42413 0.72502 0.0
H632 H 0.21433 0.47089 0.79816 0.0
C633 C 0.25903 0.39824 0.74042 0.0
H634 H 0.20935 0.47362 0.73475 0.0
C635 C 0.26118 0.39615 0.77675 0.0
C636 C 0.24363 0.42101 0.79792 0.0
H637 H 0.26817 0.37491 0.72474 0.0
H638 H 0.27138 0.37082 0.78823 0.0
C639 C 0.22915 0.45236 0.78238 0.0
C640 C 0.30079 0.87217 0.77354 0.0
C641 C 0.25637 0.85654 0.79172 0.0
H642 H 0.33727 0.89177 0.7242 0.0
C643 C 0.21191 0.83767 0.77297 0.0
H644 H 0.3355 0.88672 0.78748 0.0
C645 C 0.21293 0.84049 0.73646 0.0
C646 C 0.25842 0.86227 0.71875 0.0
H647 H 0.1773 0.82597 0.78648 0.0
H648 H 0.17905 0.83069 0.72257 0.0
C649 C 0.30182 0.87515 0.73737 0.0
C650 C 0.69999 0.87957 0.74374 0.0
C651 C 0.67531 0.83582 0.72396 0.0
H652 H 0.72182 0.91053 0.79516 0.0
C653 C 0.64409 0.79108 0.74085 0.0
H654 H 0.72474 0.9144 0.73123 0.0
C655 C 0.64252 0.78885 0.77706 0.0
C656 C 0.67208 0.83135 0.79701 0.0
H657 H 0.62462 0.75691 0.72608 0.0
H658 H 0.6218 0.75302 0.78942 0.0
C659 C 0.69834 0.87734 0.78028 0.0
C660 C 0.31916 0.04189 0.97421 0.0
C661 C 0.29019 0.99061 0.98046 0.0
H662 H 0.35924 0.11515 0.99597 0.0
C663 C 0.27979 0.9742 0.01495 0.0
H664 H 0.32819 0.05574 0.94783 0.0
C665 C 0.29666 1.00856 0.04251 0.0
C666 C 0.32542 0.05992 0.03618 0.0
H667 H 0.2576 0.9351 0.02057 0.0
H668 H 0.28737 0.9948 0.06889 0.0
C669 C 0.33712 0.07608 1.00172 0.0
C670 C 0.77501 0.77782 0.47693 0.0
C671 C 0.813 0.76576 0.4798 0.0
H672 H 0.73164 0.805 0.5019 0.0
C673 C 0.83695 0.77342 0.51199 0.0
H674 H 0.75523 0.77231 0.45268 0.0
C675 C 0.8234 0.79289 0.54036 0.0
C676 C 0.78525 0.80472 0.53732 0.0
H677 H 0.86629 0.76477 0.5152 0.0
H678 H 0.84252 0.79806 0.56487 0.0
C679 C 0.76127 0.79678 0.50522 0.0
C680 C 1.02841 0.29187 0.97458 0.0
C681 C 0.0786 0.30492 0.97799 0.0
H682 H 0.95761 0.26398 0.99916 0.0
C683 C 0.09489 0.29787 0.01034 0.0
H684 H 1.01422 0.29671 0.95011 0.0
C685 C 0.06189 0.27838 0.03845 0.0
C686 C 1.01185 0.26589 0.03506 0.0
H687 H 0.13302 0.30725 0.01394 0.0
H688 H 0.076 0.27391 0.06308 0.0
C689 C 0.99562 0.27291 1.00274 0.0
C690 C 0.32828 1.02374 0.47334 0.0
C691 C 0.33899 0.07336 0.47614 0.0
H692 H 0.30186 0.95366 0.4982 0.0
C693 C 0.33031 0.08965 0.5081 0.0
H694 H 0.33476 1.00964 0.44924 0.0
C695 C 0.31079 0.05687 0.5363 0.0
C696 C 0.29996 1.0072 0.53327 0.0
H697 H 0.33791 0.12735 0.51118 0.0
H698 H 0.30462 0.07072 0.56061 0.0
C699 C 0.30924 0.99127 0.50146 0.0
C700 C 0.78046 0.77804 0.0446 0.0
C701 C 0.80768 0.7537 0.03824 0.0
H702 H 0.74207 0.81289 0.02278 0.0
C703 C 0.81691 0.74608 1.0037 0.0
H704 H 0.77227 0.78405 0.07102 0.0
C705 C 0.80054 0.76366 0.9762 0.0
C706 C 0.77337 0.78807 0.98253 0.0
H707 H 0.83763 0.7275 0.99797 0.0
H708 H 0.8089 0.7577 0.94982 0.0
C709 C 0.76291 0.79443 0.01705 0.0
C710 C 1.04052 0.28061 0.54232 0.0
C711 C 0.09034 0.31892 0.53928 0.0
H712 H 0.97002 0.23674 0.51699 0.0
C713 C 0.10652 0.34237 0.50706 0.0
H714 H 1.02647 0.26187 0.5669 0.0
C715 C 0.0742 0.32784 0.47865 0.0
C716 C 1.02438 0.28957 0.48147 0.0
H717 H 0.14425 0.3721 0.5037 0.0
H718 H 0.0886 0.34719 0.45431 0.0
C719 C 1.00786 0.26628 0.51381 0.0
C720 C 0.59853 0.18667 0.12007 0.0
C721 C 0.6003 0.144 0.11071 0.0
H722 H 0.55376 0.21898 0.1311 0.0
C723 C 0.55541 0.09906 0.10684 0.0
H724 H 0.63219 0.222 0.12287 0.0
C725 C 0.50984 0.09723 0.11157 0.0
C726 C 0.5084 0.14045 0.11982 0.0
H727 H 0.55553 0.0654 0.09993 0.0
H728 H 0.4759 0.06244 0.10774 0.0
C729 C 0.55333 0.18494 0.1245 0.0
C730 C 0.68123 0.57569 0.42733 0.0
C731 C 0.70105 0.59411 0.39423 0.0
H732 H 0.62855 0.51484 0.45745 0.0
C733 C 0.67731 0.56485 0.36483 0.0
H734 H 0.69861 0.59726 0.45056 0.0
C735 C 0.63645 0.51687 0.36879 0.0
C736 C 0.61835 0.49742 0.40222 0.0
H737 H 0.69196 0.57781 0.33901 0.0
H738 H 0.61993 0.49454 0.34573 0.0
C739 C 0.64061 0.52824 0.43128 0.0
C740 C 0.97607 0.41511 0.10647 0.0
C741 C 0.93467 0.37176 0.11863 0.0
H742 H 1.00502 0.49024 0.08994 0.0
C743 C 0.89109 0.37296 0.12608 0.0
H744 H 1.0101 0.41534 0.10035 0.0
C745 C 0.88825 0.41565 0.12049 0.0
C746 C 0.92874 0.45853 0.10691 0.0
H747 H 0.85865 0.34052 0.13601 0.0
H748 H 0.85397 0.41485 0.12672 0.0
C749 C 0.97308 0.45802 0.10055 0.0
C750 C 0.54293 0.15096 0.36231 0.0
C751 C 0.50578 0.12925 0.38774 0.0
H752 H 0.61948 0.17905 0.34982 0.0
C753 C 0.51632 0.11259 0.41869 0.0
H754 H 0.5361 0.16513 0.33854 0.0
C755 C 0.56367 0.12 0.4251 0.0
C756 C 0.60236 0.14549 0.4011 0.0
H757 H 0.48842 0.096 0.43883 0.0
H758 H 0.5704 0.10753 0.44968 0.0
C759 C 0.59083 0.15915 0.36896 0.0
C760 C 0.61691 0.52067 0.10411 0.0
C761 C 0.61783 0.47605 0.10696 0.0
H762 H 0.65824 0.60024 0.10708 0.0
C763 C 0.66252 0.47851 0.11625 0.0
H764 H 0.58298 0.52013 0.09728 0.0
C765 C 0.70523 0.52404 0.12184 0.0
C766 C 0.70478 0.56876 0.11845 0.0
H767 H 0.66498 0.44518 0.11826 0.0
H768 H 0.73896 0.52401 0.12842 0.0
C769 C 0.65989 0.56657 0.10999 0.0
C770 C 0.96564 0.4618 0.43158 0.0
C771 C 0.9555 0.4833 0.40298 0.0
H772 H 0.97711 0.40387 0.45015 0.0
C773 C 0.95467 0.46397 0.36944 0.0
H774 H 0.96601 0.47479 0.45784 0.0
C775 C 0.96109 0.42261 0.36501 0.0
C776 C 0.96808 0.39962 0.39407 0.0
H777 H 0.94762 0.47987 0.34669 0.0
H778 H 0.95756 0.40694 0.33922 0.0
C779 C 0.97179 0.42071 0.42718 0.0
C780 C 0.13178 0.54899 0.60256 0.0
C781 C 0.17555 0.59368 0.61015 0.0
H782 H 0.09496 0.4694 0.6022 0.0
C783 C 0.21464 0.59126 0.62632 0.0
H784 H 0.10094 0.54935 0.58999 0.0
C785 C 0.21131 0.54576 0.63294 0.0
C786 C 0.16857 0.50117 0.624 0.0
H787 H 0.24832 0.62467 0.63356 0.0
H788 H 0.24282 0.54559 0.6446 0.0
C789 C 0.12825 0.50313 0.60955 0.0
C790 C 0.43831 0.95754 0.90706 0.0
C791 C 0.39409 0.9147 0.89764 0.0
H792 H 0.51514 0.98894 0.92028 0.0
C793 C 0.39479 0.87019 0.89318 0.0
H794 H 0.4391 0.99238 0.91078 0.0
C795 C 0.43799 0.86817 0.89863 0.0
C796 C 0.48202 0.91056 0.90882 0.0
H797 H 0.3616 0.83633 0.88586 0.0
H798 H 0.43641 0.83284 0.89578 0.0
C799 C 0.48176 0.95544 0.91276 0.0
C800 C 0.55594 0.69901 0.62816 0.0
C801 C 0.60009 0.69923 0.62012 0.0
H802 H 0.47703 0.65839 0.62938 0.0
C803 C 0.59707 0.65539 0.60755 0.0
H804 H 0.55673 0.73184 0.63843 0.0
C805 C 0.55072 0.61295 0.60181 0.0
C806 C 0.5065 0.61345 0.60875 0.0
H807 H 0.63036 0.65438 0.60101 0.0
H808 H 0.54958 0.5803 0.5909 0.0
C809 C 0.50998 0.65682 0.62272 0.0
C810 C 0.11689 0.53583 0.88385 0.0
C811 C 0.16318 0.57773 0.89146 0.0
H812 H 0.07612 0.45688 0.87538 0.0
C813 C 0.20485 0.57175 0.89367 0.0
H814 H 0.08411 0.53924 0.88173 0.0
C815 C 0.20011 0.525 0.89019 0.0
C816 C 0.1538 0.48302 0.88389 0.0
H817 H 0.2409 0.60287 0.89985 0.0
H818 H 0.23265 0.52138 0.89358 0.0
C819 C 0.1123 0.48883 0.87984 0.0
C820 C 0.40202 0.88265 0.62151 0.0
C821 C 0.40227 0.92782 0.61886 0.0
H822 H 0.44314 0.84476 0.61863 0.0
C823 C 0.44758 0.97111 0.61254 0.0
H824 H 0.36799 0.84842 0.62644 0.0
C825 C 0.49122 0.9689 0.60808 0.0
C826 C 0.49058 0.92343 0.61017 0.0
H827 H 0.44916 1.00648 0.61029 0.0
H828 H 0.52547 1.00281 0.60295 0.0
C829 C 0.4454 0.88051 0.61729 0.0
C830 C 0.58452 0.64182 0.90847 0.0
C831 C 0.58872 0.68739 0.89922 0.0
H832 H 0.53548 0.56629 0.92377 0.0
C833 C 0.54514 0.68989 0.89542 0.0
H834 H 0.6173 0.63861 0.91159 0.0
C835 C 0.49899 0.64911 0.90248 0.0
C836 C 0.4947 0.60432 0.91345 0.0
H837 H 0.54655 0.72395 0.88776 0.0
H838 H 0.46646 0.65293 0.89996 0.0
C839 C 0.53777 0.6005 0.91544 0.0
loop_
_geom_bond_atom_site_label_1
_geom_bond_atom_site_label_2
_geom_bond_distance
_geom_bond_site_symmetry_2
_ccdc_geom_bond_type
Tb0 C9 2.764 1_545 S
Tb0 O10 2.325 . S
Tb0 O13 2.303 . S
Tb0 O17 2.322 . S
Tb0 O18 2.349 . S
Tb0 O21 2.415 . S
Tb0 O22 2.399 . S
Tb1 O11 2.322 . S
Tb1 O12 2.349 . S
Tb1 O14 2.415 . S
Tb1 O15 2.399 . S
Tb1 O16 2.325 . S
Tb1 O19 2.303 . S
Tb1 C30 2.764 . S
C2 O18 1.261 . S
C2 O19 1.257 . S
C3 C6 1.358 . S
C3 C7 1.332 . S
C3 C9 1.504 . S
C4 C5 1.373 . S
C4 C8 1.308 . S
C5 C4 1.373 . S
C5 C6 1.429 . S
C5 H32 0.932 . S
C6 C3 1.358 . S
C6 C5 1.429 . S
C6 H33 0.930 . S
C7 C3 1.332 . S
C7 C8 1.394 . S
C7 H34 0.932 . S
C8 C4 1.308 . S
C8 C7 1.394 . S
C8 H35 0.929 . S
C9 Tb0 2.764 1_565 S
C9 C3 1.504 . S
C9 O21 1.239 1_565 S
C9 O22 1.263 1_565 S
O10 Tb0 2.325 . S
O10 C20 1.236 . S
O11 Tb1 2.322 . S
O11 C20 1.257 . S
O12 Tb1 2.349 . S
O12 C23 1.261 . S
O13 Tb0 2.303 . S
O13 C23 1.257 . S
O14 Tb1 2.415 . S
O14 C30 1.239 . S
O15 Tb1 2.399 . S
O15 C30 1.263 . S
O16 Tb1 2.325 . S
O16 C31 1.236 . S
O17 Tb0 2.322 . S
O17 C31 1.257 . S
O18 Tb0 2.349 . S
O18 C2 1.261 . S
O19 Tb1 2.303 . S
O19 C2 1.257 . S
C20 O10 1.236 . S
C20 O11 1.257 . S
O21 Tb0 2.415 . S
O21 C9 1.239 1_545 S
O22 Tb0 2.399 . S
O22 C9 1.263 1_545 S
C23 O12 1.261 . S
C23 O13 1.257 . S
C24 C27 1.358 . S
C24 C28 1.332 . S
C24 C30 1.504 . S
C25 C26 1.373 . S
C25 C29 1.308 . S
C26 C25 1.373 . S
C26 C27 1.429 . S
C26 H36 0.932 . S
C27 C24 1.358 . S
C27 C26 1.429 . S
C27 H37 0.930 . S
C28 C24 1.332 . S
C28 C29 1.394 . S
C28 H38 0.932 . S
C29 C25 1.308 . S
C29 C28 1.394 . S
C29 H39 0.929 . S
C30 Tb1 2.764 . S
C30 O14 1.239 . S
C30 O15 1.263 . S
C30 C24 1.504 . S
C31 O16 1.236 . S
C31 O17 1.257 . S
H32 C5 0.932 . S
H33 C6 0.930 . S
H34 C7 0.932 . S
H35 C8 0.929 . S
H36 C26 0.932 . S
H37 C27 0.930 . S
H38 C28 0.932 . S
H39 C29 0.929 . S
Tb40 C49 2.764 . S
Tb40 O50 2.325 . S
Tb40 O53 2.303 . S
Tb40 O57 2.322 . S
Tb40 O58 2.349 . S
Tb40 O61 2.415 . S
Tb40 O62 2.399 . S
Tb41 O51 2.322 . S
Tb41 O52 2.349 . S
Tb41 O54 2.415 . S
Tb41 O55 2.399 . S
Tb41 O56 2.325 . S
Tb41 O59 2.303 . S
Tb41 C70 2.764 . S
C42 O58 1.261 . S
C42 O59 1.257 . S
C43 C46 1.358 . S
C43 C47 1.332 . S
C43 C49 1.504 . S
C44 C45 1.373 . S
C44 C48 1.308 . S
C45 C44 1.373 . S
C45 C46 1.429 . S
C45 H72 0.932 . S
C46 C43 1.358 . S
C46 C45 1.429 . S
C46 H73 0.930 . S
C47 C43 1.332 . S
C47 C48 1.394 . S
C47 H74 0.932 . S
C48 C44 1.308 . S
C48 C47 1.394 . S
C48 H75 0.929 . S
C49 Tb40 2.764 . S
C49 C43 1.504 . S
C49 O61 1.239 . S
C49 O62 1.263 . S
O50 Tb40 2.325 . S
O50 C60 1.236 . S
O51 Tb41 2.322 . S
O51 C60 1.257 . S
O52 Tb41 2.349 . S
O52 C63 1.261 . S
O53 Tb40 2.303 . S
O53 C63 1.257 . S
O54 Tb41 2.415 . S
O54 C70 1.239 . S
O55 Tb41 2.399 . S
O55 C70 1.263 . S
O56 Tb41 2.325 . S
O56 C71 1.236 . S
O57 Tb40 2.322 . S
O57 C71 1.257 . S
O58 Tb40 2.349 . S
O58 C42 1.261 . S
O59 Tb41 2.303 . S
O59 C42 1.257 . S
C60 O50 1.236 . S
C60 O51 1.257 . S
O61 Tb40 2.415 . S
O61 C49 1.239 . S
O62 Tb40 2.399 . S
O62 C49 1.263 . S
C63 O52 1.261 . S
C63 O53 1.257 . S
C64 C67 1.358 . S
C64 C68 1.332 . S
C64 C70 1.504 . S
C65 C66 1.373 . S
C65 C69 1.308 . S
C66 C65 1.373 . S
C66 C67 1.429 . S
C66 H76 0.932 . S
C67 C64 1.358 . S
C67 C66 1.429 . S
C67 H77 0.930 . S
C68 C64 1.332 . S
C68 C69 1.394 . S
C68 H78 0.932 . S
C69 C65 1.308 . S
C69 C68 1.394 . S
C69 H79 0.929 . S
C70 Tb41 2.764 . S
C70 O54 1.239 . S
C70 O55 1.263 . S
C70 C64 1.504 . S
C71 O56 1.236 . S
C71 O57 1.257 . S
H72 C45 0.932 . S
H73 C46 0.930 . S
H74 C47 0.932 . S
H75 C48 0.929 . S
H76 C66 0.932 . S
H77 C67 0.930 . S
H78 C68 0.932 . S
H79 C69 0.929 . S
Tb80 C89 2.764 1_655 S
Tb80 O90 2.325 . S
Tb80 O93 2.303 . S
Tb80 O97 2.322 . S
Tb80 O98 2.349 . S
Tb80 O101 2.415 . S
Tb80 O102 2.399 . S
Tb81 O91 2.322 . S
Tb81 O92 2.349 . S
Tb81 O94 2.415 . S
Tb81 O95 2.399 . S
Tb81 O96 2.325 . S
Tb81 O99 2.303 . S
Tb81 C110 2.764 . S
C82 O98 1.261 . S
C82 O99 1.257 . S
C83 C86 1.358 . S
C83 C87 1.332 . S
C83 C89 1.504 . S
C84 C85 1.373 . S
C84 C88 1.308 . S
C85 C84 1.373 . S
C85 C86 1.429 . S
C85 H112 0.932 . S
C86 C83 1.358 . S
C86 C85 1.429 . S
C86 H113 0.930 . S
C87 C83 1.332 . S
C87 C88 1.394 . S
C87 H114 0.932 . S
C88 C84 1.308 . S
C88 C87 1.394 . S
C88 H115 0.929 . S
C89 Tb80 2.764 1_455 S
C89 C83 1.504 . S
C89 O101 1.239 1_455 S
C89 O102 1.263 1_455 S
O90 Tb80 2.325 . S
O90 C100 1.236 . S
O91 Tb81 2.322 . S
O91 C100 1.257 . S
O92 Tb81 2.349 . S
O92 C103 1.261 . S
O93 Tb80 2.303 . S
O93 C103 1.257 . S
O94 Tb81 2.415 . S
O94 C110 1.239 . S
O95 Tb81 2.399 . S
O95 C110 1.263 . S
O96 Tb81 2.325 . S
O96 C111 1.236 . S
O97 Tb80 2.322 . S
O97 C111 1.257 . S
O98 Tb80 2.349 . S
O98 C82 1.261 . S
O99 Tb81 2.303 . S
O99 C82 1.257 . S
C100 O90 1.236 . S
C100 O91 1.257 . S
O101 Tb80 2.415 . S
O101 C89 1.239 1_655 S
O102 Tb80 2.399 . S
O102 C89 1.263 1_655 S
C103 O92 1.261 . S
C103 O93 1.257 . S
C104 C107 1.358 . S
C104 C108 1.332 . S
C104 C110 1.504 . S
C105 C106 1.373 . S
C105 C109 1.308 . S
C106 C105 1.373 . S
C106 C107 1.429 . S
C106 H116 0.932 . S
C107 C104 1.358 . S
C107 C106 1.429 . S
C107 H117 0.930 . S
C108 C104 1.332 . S
C108 C109 1.394 . S
C108 H118 0.932 . S
C109 C105 1.308 . S
C109 C108 1.394 . S
C109 H119 0.929 . S
C110 Tb81 2.764 . S
C110 O94 1.239 . S
C110 O95 1.263 . S
C110 C104 1.504 . S
C111 O96 1.236 . S
C111 O97 1.257 . S
H112 C85 0.932 . S
H113 C86 0.930 . S
H114 C87 0.932 . S
H115 C88 0.929 . S
H116 C106 0.932 . S
H117 C107 0.930 . S
H118 C108 0.932 . S
H119 C109 0.929 . S
Tb120 C129 2.764 . S
Tb120 O130 2.325 . S
Tb120 O133 2.303 . S
Tb120 O137 2.322 . S
Tb120 O138 2.349 . S
Tb120 O141 2.415 . S
Tb120 O142 2.399 . S
Tb121 O131 2.322 . S
Tb121 O132 2.349 . S
Tb121 O134 2.415 . S
Tb121 O135 2.399 . S
Tb121 O136 2.325 . S
Tb121 O139 2.303 . S
Tb121 C150 2.764 1_545 S
C122 O138 1.261 . S
C122 O139 1.257 . S
C123 C126 1.358 . S
C123 C127 1.332 . S
C123 C129 1.504 . S
C124 C125 1.373 . S
C124 C128 1.308 . S
C125 C124 1.373 . S
C125 C126 1.429 . S
C125 H152 0.932 . S
C126 C123 1.358 . S
C126 C125 1.429 . S
C126 H153 0.930 . S
C127 C123 1.332 . S
C127 C128 1.394 . S
C127 H154 0.932 . S
C128 C124 1.308 . S
C128 C127 1.394 . S
C128 H155 0.929 . S
C129 Tb120 2.764 . S
C129 C123 1.504 . S
C129 O141 1.239 . S
C129 O142 1.263 . S
O130 Tb120 2.325 . S
O130 C140 1.236 . S
O131 Tb121 2.322 . S
O131 C140 1.257 . S
O132 Tb121 2.349 . S
O132 C143 1.261 . S
O133 Tb120 2.303 . S
O133 C143 1.257 . S
O134 Tb121 2.415 . S
O134 C150 1.239 1_545 S
O135 Tb121 2.399 . S
O135 C150 1.263 1_545 S
O136 Tb121 2.325 . S
O136 C151 1.236 . S
O137 Tb120 2.322 . S
O137 C151 1.257 . S
O138 Tb120 2.349 . S
O138 C122 1.261 . S
O139 Tb121 2.303 . S
O139 C122 1.257 . S
C140 O130 1.236 . S
C140 O131 1.257 . S
O141 Tb120 2.415 . S
O141 C129 1.239 . S
O142 Tb120 2.399 . S
O142 C129 1.263 . S
C143 O132 1.261 . S
C143 O133 1.257 . S
C144 C147 1.358 . S
C144 C148 1.332 . S
C144 C150 1.504 . S
C145 C146 1.373 . S
C145 C149 1.308 . S
C146 C145 1.373 . S
C146 C147 1.429 . S
C146 H156 0.932 . S
C147 C144 1.358 . S
C147 C146 1.429 . S
C147 H157 0.930 . S
C148 C144 1.332 . S
C148 C149 1.394 . S
C148 H158 0.932 . S
C149 C145 1.308 . S
C149 C148 1.394 . S
C149 H159 0.929 . S
C150 Tb121 2.764 1_565 S
C150 O134 1.239 1_565 S
C150 O135 1.263 1_565 S
C150 C144 1.504 . S
C151 O136 1.236 . S
C151 O137 1.257 . S
H152 C125 0.932 . S
H153 C126 0.930 . S
H154 C127 0.932 . S
H155 C128 0.929 . S
H156 C146 0.932 . S
H157 C147 0.930 . S
H158 C148 0.932 . S
H159 C149 0.929 . S
Tb160 C169 2.764 . S
Tb160 O170 2.325 . S
Tb160 O173 2.303 . S
Tb160 O177 2.322 . S
Tb160 O178 2.349 . S
Tb160 O181 2.415 . S
Tb160 O182 2.399 . S
Tb161 O171 2.322 . S
Tb161 O172 2.349 . S
Tb161 O174 2.415 . S
Tb161 O175 2.399 . S
Tb161 O176 2.325 . S
Tb161 O179 2.303 . S
Tb161 C190 2.764 . S
C162 O178 1.261 . S
C162 O179 1.257 . S
C163 C166 1.358 . S
C163 C167 1.332 . S
C163 C169 1.504 . S
C164 C165 1.373 . S
C164 C168 1.308 . S
C165 C164 1.373 . S
C165 C166 1.429 . S
C165 H192 0.932 . S
C166 C163 1.358 . S
C166 C165 1.429 . S
C166 H193 0.930 . S
C167 C163 1.332 . S
C167 C168 1.394 . S
C167 H194 0.932 . S
C168 C164 1.308 . S
C168 C167 1.394 . S
C168 H195 0.929 . S
C169 Tb160 2.764 . S
C169 C163 1.504 . S
C169 O181 1.239 . S
C169 O182 1.263 . S
O170 Tb160 2.325 . S
O170 C180 1.236 . S
O171 Tb161 2.322 . S
O171 C180 1.257 . S
O172 Tb161 2.349 . S
O172 C183 1.261 . S
O173 Tb160 2.303 . S
O173 C183 1.257 . S
O174 Tb161 2.415 . S
O174 C190 1.239 . S
O175 Tb161 2.399 . S
O175 C190 1.263 . S
O176 Tb161 2.325 . S
O176 C191 1.236 . S
O177 Tb160 2.322 . S
O177 C191 1.257 . S
O178 Tb160 2.349 . S
O178 C162 1.261 . S
O179 Tb161 2.303 . S
O179 C162 1.257 . S
C180 O170 1.236 . S
C180 O171 1.257 . S
O181 Tb160 2.415 . S
O181 C169 1.239 . S
O182 Tb160 2.399 . S
O182 C169 1.263 . S
C183 O172 1.261 . S
C183 O173 1.257 . S
C184 C187 1.358 . S
C184 C188 1.332 . S
C184 C190 1.504 . S
C185 C186 1.373 . S
C185 C189 1.308 . S
C186 C185 1.373 . S
C186 C187 1.429 . S
C186 H196 0.932 . S
C187 C184 1.358 . S
C187 C186 1.429 . S
C187 H197 0.930 . S
C188 C184 1.332 . S
C188 C189 1.394 . S
C188 H198 0.932 . S
C189 C185 1.308 . S
C189 C188 1.394 . S
C189 H199 0.929 . S
C190 Tb161 2.764 . S
C190 O174 1.239 . S
C190 O175 1.263 . S
C190 C184 1.504 . S
C191 O176 1.236 . S
C191 O177 1.257 . S
H192 C165 0.932 . S
H193 C166 0.930 . S
H194 C167 0.932 . S
H195 C168 0.929 . S
H196 C186 0.932 . S
H197 C187 0.930 . S
H198 C188 0.932 . S
H199 C189 0.929 . S
Tb200 C209 2.764 . S
Tb200 O210 2.325 . S
Tb200 O213 2.303 . S
Tb200 O217 2.322 . S
Tb200 O218 2.349 . S
Tb200 O221 2.415 . S
Tb200 O222 2.399 . S
Tb201 O211 2.322 . S
Tb201 O212 2.349 . S
Tb201 O214 2.415 . S
Tb201 O215 2.399 . S
Tb201 O216 2.325 . S
Tb201 O219 2.303 . S
Tb201 C230 2.764 1_655 S
C202 O218 1.261 . S
C202 O219 1.257 . S
C203 C206 1.358 . S
C203 C207 1.332 . S
C203 C209 1.504 . S
C204 C205 1.373 . S
C204 C208 1.308 . S
C205 C204 1.373 . S
C205 C206 1.429 . S
C205 H232 0.932 . S
C206 C203 1.358 . S
C206 C205 1.429 . S
C206 H233 0.930 . S
C207 C203 1.332 . S
C207 C208 1.394 . S
C207 H234 0.932 . S
C208 C204 1.308 . S
C208 C207 1.394 . S
C208 H235 0.929 . S
C209 Tb200 2.764 . S
C209 C203 1.504 . S
C209 O221 1.239 . S
C209 O222 1.263 . S
O210 Tb200 2.325 . S
O210 C220 1.236 . S
O211 Tb201 2.322 . S
O211 C220 1.257 . S
O212 Tb201 2.349 . S
O212 C223 1.261 . S
O213 Tb200 2.303 . S
O213 C223 1.257 . S
O214 Tb201 2.415 . S
O214 C230 1.239 1_655 S
O215 Tb201 2.399 . S
O215 C230 1.263 1_655 S
O216 Tb201 2.325 . S
O216 C231 1.236 . S
O217 Tb200 2.322 . S
O217 C231 1.257 . S
O218 Tb200 2.349 . S
O218 C202 1.261 . S
O219 Tb201 2.303 . S
O219 C202 1.257 . S
C220 O210 1.236 . S
C220 O211 1.257 . S
O221 Tb200 2.415 . S
O221 C209 1.239 . S
O222 Tb200 2.399 . S
O222 C209 1.263 . S
C223 O212 1.261 . S
C223 O213 1.257 . S
C224 C227 1.358 . S
C224 C228 1.332 . S
C224 C230 1.504 . S
C225 C226 1.373 . S
C225 C229 1.308 . S
C226 C225 1.373 . S
C226 C227 1.429 . S
C226 H236 0.932 . S
C227 C224 1.358 . S
C227 C226 1.429 . S
C227 H237 0.930 . S
C228 C224 1.332 . S
C228 C229 1.394 . S
C228 H238 0.932 . S
C229 C225 1.308 . S
C229 C228 1.394 . S
C229 H239 0.929 . S
C230 Tb201 2.764 1_455 S
C230 O214 1.239 1_455 S
C230 O215 1.263 1_455 S
C230 C224 1.504 . S
C231 O216 1.236 . S
C231 O217 1.257 . S
H232 C205 0.932 . S
H233 C206 0.930 . S
H234 C207 0.932 . S
H235 C208 0.929 . S
H236 C226 0.932 . S
H237 C227 0.930 . S
H238 C228 0.932 . S
H239 C229 0.929 . S
Tb240 C249 2.764 . S
Tb240 O250 2.325 . S
Tb240 O253 2.303 . S
Tb240 O257 2.322 . S
Tb240 O258 2.349 . S
Tb240 O261 2.415 . S
Tb240 O262 2.399 . S
Tb241 O251 2.322 . S
Tb241 O252 2.349 . S
Tb241 O254 2.415 . S
Tb241 O255 2.399 . S
Tb241 O256 2.325 . S
Tb241 O259 2.303 . S
Tb241 C270 2.764 1_455 S
C242 O258 1.261 . S
C242 O259 1.257 . S
C243 C246 1.358 . S
C243 C247 1.332 . S
C243 C249 1.504 . S
C244 C245 1.373 . S
C244 C248 1.308 . S
C245 C244 1.373 . S
C245 C246 1.429 . S
C245 H272 0.932 . S
C246 C243 1.358 . S
C246 C245 1.429 . S
C246 H273 0.930 . S
C247 C243 1.332 . S
C247 C248 1.394 . S
C247 H274 0.932 . S
C248 C244 1.308 . S
C248 C247 1.394 . S
C248 H275 0.929 . S
C249 Tb240 2.764 . S
C249 C243 1.504 . S
C249 O261 1.239 . S
C249 O262 1.263 . S
O250 Tb240 2.325 . S
O250 C260 1.236 . S
O251 Tb241 2.322 . S
O251 C260 1.257 . S
O252 Tb241 2.349 . S
O252 C263 1.261 . S
O253 Tb240 2.303 . S
O253 C263 1.257 . S
O254 Tb241 2.415 . S
O254 C270 1.239 1_455 S
O255 Tb241 2.399 . S
O255 C270 1.263 1_455 S
O256 Tb241 2.325 . S
O256 C271 1.236 . S
O257 Tb240 2.322 . S
O257 C271 1.257 . S
O258 Tb240 2.349 . S
O258 C242 1.261 . S
O259 Tb241 2.303 . S
O259 C242 1.257 . S
C260 O250 1.236 . S
C260 O251 1.257 . S
O261 Tb240 2.415 . S
O261 C249 1.239 . S
O262 Tb240 2.399 . S
O262 C249 1.263 . S
C263 O252 1.261 . S
C263 O253 1.257 . S
C264 C267 1.358 . S
C264 C268 1.332 . S
C264 C270 1.504 . S
C265 C266 1.373 . S
C265 C269 1.308 . S
C266 C265 1.373 . S
C266 C267 1.429 . S
C266 H276 0.932 . S
C267 C264 1.358 . S
C267 C266 1.429 . S
C267 H277 0.930 . S
C268 C264 1.332 . S
C268 C269 1.394 . S
C268 H278 0.932 . S
C269 C265 1.308 . S
C269 C268 1.394 . S
C269 H279 0.929 . S
C270 Tb241 2.764 1_655 S
C270 O254 1.239 1_655 S
C270 O255 1.263 1_655 S
C270 C264 1.504 . S
C271 O256 1.236 . S
C271 O257 1.257 . S
H272 C245 0.932 . S
H273 C246 0.930 . S
H274 C247 0.932 . S
H275 C248 0.929 . S
H276 C266 0.932 . S
H277 C267 0.930 . S
H278 C268 0.932 . S
H279 C269 0.929 . S
Tb280 C289 2.764 1_565 S
Tb280 O290 2.325 . S
Tb280 O293 2.303 . S
Tb280 O297 2.322 . S
Tb280 O298 2.349 . S
Tb280 O301 2.415 . S
Tb280 O302 2.399 . S
Tb281 O291 2.322 . S
Tb281 O292 2.349 . S
Tb281 O294 2.415 . S
Tb281 O295 2.399 . S
Tb281 O296 2.325 . S
Tb281 O299 2.303 . S
Tb281 C310 2.764 . S
C282 O298 1.261 . S
C282 O299 1.257 . S
C283 C286 1.358 . S
C283 C287 1.332 . S
C283 C289 1.504 . S
C284 C285 1.373 . S
C284 C288 1.308 . S
C285 C284 1.373 . S
C285 C286 1.429 . S
C285 H312 0.932 . S
C286 C283 1.358 . S
C286 C285 1.429 . S
C286 H313 0.930 . S
C287 C283 1.332 . S
C287 C288 1.394 . S
C287 H314 0.932 . S
C288 C284 1.308 . S
C288 C287 1.394 . S
C288 H315 0.929 . S
C289 Tb280 2.764 1_545 S
C289 C283 1.504 . S
C289 O301 1.239 1_545 S
C289 O302 1.263 1_545 S
O290 Tb280 2.325 . S
O290 C300 1.236 . S
O291 Tb281 2.322 . S
O291 C300 1.257 . S
O292 Tb281 2.349 . S
O292 C303 1.261 . S
O293 Tb280 2.303 . S
O293 C303 1.257 . S
O294 Tb281 2.415 . S
O294 C310 1.239 . S
O295 Tb281 2.399 . S
O295 C310 1.263 . S
O296 Tb281 2.325 . S
O296 C311 1.236 . S
O297 Tb280 2.322 . S
O297 C311 1.257 . S
O298 Tb280 2.349 . S
O298 C282 1.261 . S
O299 Tb281 2.303 . S
O299 C282 1.257 . S
C300 O290 1.236 . S
C300 O291 1.257 . S
O301 Tb280 2.415 . S
O301 C289 1.239 1_565 S
O302 Tb280 2.399 . S
O302 C289 1.263 1_565 S
C303 O292 1.261 . S
C303 O293 1.257 . S
C304 C307 1.358 . S
C304 C308 1.332 . S
C304 C310 1.504 . S
C305 C306 1.373 . S
C305 C309 1.308 . S
C306 C305 1.373 . S
C306 C307 1.429 . S
C306 H316 0.932 . S
C307 C304 1.358 . S
C307 C306 1.429 . S
C307 H317 0.930 . S
C308 C304 1.332 . S
C308 C309 1.394 . S
C308 H318 0.932 . S
C309 C305 1.308 . S
C309 C308 1.394 . S
C309 H319 0.929 . S
C310 Tb281 2.764 . S
C310 O294 1.239 . S
C310 O295 1.263 . S
C310 C304 1.504 . S
C311 O296 1.236 . S
C311 O297 1.257 . S
H312 C285 0.932 . S
H313 C286 0.930 . S
H314 C287 0.932 . S
H315 C288 0.929 . S
H316 C306 0.932 . S
H317 C307 0.930 . S
H318 C308 0.932 . S
H319 C309 0.929 . S
Tb320 C329 2.764 . S
Tb320 O330 2.325 . S
Tb320 O333 2.303 . S
Tb320 O337 2.322 . S
Tb320 O338 2.349 . S
Tb320 O341 2.415 . S
Tb320 O342 2.399 . S
Tb321 O331 2.322 . S
Tb321 O332 2.349 . S
Tb321 O334 2.415 . S
Tb321 O335 2.399 . S
Tb321 O336 2.325 . S
Tb321 O339 2.303 . S
Tb321 C350 2.764 . S
C322 O338 1.261 . S
C322 O339 1.257 . S
C323 C326 1.358 . S
C323 C327 1.332 . S
C323 C329 1.504 . S
C324 C325 1.373 . S
C324 C328 1.308 . S
C325 C324 1.373 . S
C325 C326 1.429 . S
C325 H352 0.932 . S
C326 C323 1.358 . S
C326 C325 1.429 . S
C326 H353 0.930 . S
C327 C323 1.332 . S
C327 C328 1.394 . S
C327 H354 0.932 . S
C328 C324 1.308 . S
C328 C327 1.394 . S
C328 H355 0.929 . S
C329 Tb320 2.764 . S
C329 C323 1.504 . S
C329 O341 1.239 . S
C329 O342 1.263 . S
O330 Tb320 2.325 . S
O330 C340 1.236 . S
O331 Tb321 2.322 . S
O331 C340 1.257 . S
O332 Tb321 2.349 . S
O332 C343 1.261 . S
O333 Tb320 2.303 . S
O333 C343 1.257 . S
O334 Tb321 2.415 . S
O334 C350 1.239 . S
O335 Tb321 2.399 . S
O335 C350 1.263 . S
O336 Tb321 2.325 . S
O336 C351 1.236 . S
O337 Tb320 2.322 . S
O337 C351 1.257 . S
O338 Tb320 2.349 . S
O338 C322 1.261 . S
O339 Tb321 2.303 . S
O339 C322 1.257 . S
C340 O330 1.236 . S
C340 O331 1.257 . S
O341 Tb320 2.415 . S
O341 C329 1.239 . S
O342 Tb320 2.399 . S
O342 C329 1.263 . S
C343 O332 1.261 . S
C343 O333 1.257 . S
C344 C347 1.358 . S
C344 C348 1.332 . S
C344 C350 1.504 . S
C345 C346 1.373 . S
C345 C349 1.308 . S
C346 C345 1.373 . S
C346 C347 1.429 . S
C346 H356 0.932 . S
C347 C344 1.358 . S
C347 C346 1.429 . S
C347 H357 0.930 . S
C348 C344 1.332 . S
C348 C349 1.394 . S
C348 H358 0.932 . S
C349 C345 1.308 . S
C349 C348 1.394 . S
C349 H359 0.929 . S
C350 Tb321 2.764 . S
C350 O334 1.239 . S
C350 O335 1.263 . S
C350 C344 1.504 . S
C351 O336 1.236 . S
C351 O337 1.257 . S
H352 C325 0.932 . S
H353 C326 0.930 . S
H354 C327 0.932 . S
H355 C328 0.929 . S
H356 C346 0.932 . S
H357 C347 0.930 . S
H358 C348 0.932 . S
H359 C349 0.929 . S
Tb360 C369 2.764 1_455 S
Tb360 O370 2.325 . S
Tb360 O373 2.303 . S
Tb360 O377 2.322 . S
Tb360 O378 2.349 . S
Tb360 O381 2.415 . S
Tb360 O382 2.399 . S
Tb361 O371 2.322 . S
Tb361 O372 2.349 . S
Tb361 O374 2.415 . S
Tb361 O375 2.399 . S
Tb361 O376 2.325 . S
Tb361 O379 2.303 . S
Tb361 C390 2.764 . S
C362 O378 1.261 . S
C362 O379 1.257 . S
C363 C366 1.358 . S
C363 C367 1.332 . S
C363 C369 1.504 . S
C364 C365 1.373 . S
C364 C368 1.308 . S
C365 C364 1.373 . S
C365 C366 1.429 . S
C365 H392 0.932 . S
C366 C363 1.358 . S
C366 C365 1.429 . S
C366 H393 0.930 . S
C367 C363 1.332 . S
C367 C368 1.394 . S
C367 H394 0.932 . S
C368 C364 1.308 . S
C368 C367 1.394 . S
C368 H395 0.929 . S
C369 Tb360 2.764 1_655 S
C369 C363 1.504 . S
C369 O381 1.239 1_655 S
C369 O382 1.263 1_655 S
O370 Tb360 2.325 . S
O370 C380 1.236 . S
O371 Tb361 2.322 . S
O371 C380 1.257 . S
O372 Tb361 2.349 . S
O372 C383 1.261 . S
O373 Tb360 2.303 . S
O373 C383 1.257 . S
O374 Tb361 2.415 . S
O374 C390 1.239 . S
O375 Tb361 2.399 . S
O375 C390 1.263 . S
O376 Tb361 2.325 . S
O376 C391 1.236 . S
O377 Tb360 2.322 . S
O377 C391 1.257 . S
O378 Tb360 2.349 . S
O378 C362 1.261 . S
O379 Tb361 2.303 . S
O379 C362 1.257 . S
C380 O370 1.236 . S
C380 O371 1.257 . S
O381 Tb360 2.415 . S
O381 C369 1.239 1_455 S
O382 Tb360 2.399 . S
O382 C369 1.263 1_455 S
C383 O372 1.261 . S
C383 O373 1.257 . S
C384 C387 1.358 . S
C384 C388 1.332 . S
C384 C390 1.504 . S
C385 C386 1.373 . S
C385 C389 1.308 . S
C386 C385 1.373 . S
C386 C387 1.429 . S
C386 H396 0.932 . S
C387 C384 1.358 . S
C387 C386 1.429 . S
C387 H397 0.930 . S
C388 C384 1.332 . S
C388 C389 1.394 . S
C388 H398 0.932 . S
C389 C385 1.308 . S
C389 C388 1.394 . S
C389 H399 0.929 . S
C390 Tb361 2.764 . S
C390 O374 1.239 . S
C390 O375 1.263 . S
C390 C384 1.504 . S
C391 O376 1.236 . S
C391 O377 1.257 . S
H392 C365 0.932 . S
H393 C366 0.930 . S
H394 C367 0.932 . S
H395 C368 0.929 . S
H396 C386 0.932 . S
H397 C387 0.930 . S
H398 C388 0.932 . S
H399 C389 0.929 . S
Tb400 C409 2.764 . S
Tb400 O410 2.325 . S
Tb400 O413 2.303 . S
Tb400 O417 2.322 . S
Tb400 O418 2.349 . S
Tb400 O421 2.415 . S
Tb400 O422 2.399 . S
Tb401 O411 2.322 . S
Tb401 O412 2.349 . S
Tb401 O414 2.415 . S
Tb401 O415 2.399 . S
Tb401 O416 2.325 . S
Tb401 O419 2.303 . S
Tb401 C430 2.764 1_565 S
C402 O418 1.261 . S
C402 O419 1.257 . S
C403 C406 1.358 . S
C403 C407 1.332 . S
C403 C409 1.504 . S
C404 C405 1.373 . S
C404 C408 1.308 . S
C405 C404 1.373 . S
C405 C406 1.429 . S
C405 H432 0.932 . S
C406 C403 1.358 . S
C406 C405 1.429 . S
C406 H433 0.930 . S
C407 C403 1.332 . S
C407 C408 1.394 . S
C407 H434 0.932 . S
C408 C404 1.308 . S
C408 C407 1.394 . S
C408 H435 0.929 . S
C409 Tb400 2.764 . S
C409 C403 1.504 . S
C409 O421 1.239 . S
C409 O422 1.263 . S
O410 Tb400 2.325 . S
O410 C420 1.236 . S
O411 Tb401 2.322 . S
O411 C420 1.257 . S
O412 Tb401 2.349 . S
O412 C423 1.261 . S
O413 Tb400 2.303 . S
O413 C423 1.257 . S
O414 Tb401 2.415 . S
O414 C430 1.239 1_565 S
O415 Tb401 2.399 . S
O415 C430 1.263 1_565 S
O416 Tb401 2.325 . S
O416 C431 1.236 . S
O417 Tb400 2.322 . S
O417 C431 1.257 . S
O418 Tb400 2.349 . S
O418 C402 1.261 . S
O419 Tb401 2.303 . S
O419 C402 1.257 . S
C420 O410 1.236 . S
C420 O411 1.257 . S
O421 Tb400 2.415 . S
O421 C409 1.239 . S
O422 Tb400 2.399 . S
O422 C409 1.263 . S
C423 O412 1.261 . S
C423 O413 1.257 . S
C424 C427 1.358 . S
C424 C428 1.332 . S
C424 C430 1.504 . S
C425 C426 1.373 . S
C425 C429 1.308 . S
C426 C425 1.373 . S
C426 C427 1.429 . S
C426 H436 0.932 . S
C427 C424 1.358 . S
C427 C426 1.429 . S
C427 H437 0.930 . S
C428 C424 1.332 . S
C428 C429 1.394 . S
C428 H438 0.932 . S
C429 C425 1.308 . S
C429 C428 1.394 . S
C429 H439 0.929 . S
C430 Tb401 2.764 1_545 S
C430 O414 1.239 1_545 S
C430 O415 1.263 1_545 S
C430 C424 1.504 . S
C431 O416 1.236 . S
C431 O417 1.257 . S
H432 C405 0.932 . S
H433 C406 0.930 . S
H434 C407 0.932 . S
H435 C408 0.929 . S
H436 C426 0.932 . S
H437 C427 0.930 . S
H438 C428 0.932 . S
H439 C429 0.929 . S
Tb440 C449 2.764 . S
Tb440 O450 2.325 . S
Tb440 O453 2.303 . S
Tb440 O457 2.322 . S
Tb440 O458 2.349 . S
Tb440 O461 2.415 . S
Tb440 O462 2.399 . S
Tb441 O451 2.322 . S
Tb441 O452 2.349 . S
Tb441 O454 2.415 . S
Tb441 O455 2.399 . S
Tb441 O456 2.325 . S
Tb441 O459 2.303 . S
Tb441 C470 2.764 . S
C442 O458 1.261 . S
C442 O459 1.257 . S
C443 C446 1.358 . S
C443 C447 1.332 . S
C443 C449 1.504 . S
C444 C445 1.373 . S
C444 C448 1.308 . S
C445 C444 1.373 . S
C445 C446 1.429 . S
C445 H472 0.932 . S
C446 C443 1.358 . S
C446 C445 1.429 . S
C446 H473 0.930 . S
C447 C443 1.332 . S
C447 C448 1.394 . S
C447 H474 0.932 . S
C448 C444 1.308 . S
C448 C447 1.394 . S
C448 H475 0.929 . S
C449 Tb440 2.764 . S
C449 C443 1.504 . S
C449 O461 1.239 . S
C449 O462 1.263 . S
O450 Tb440 2.325 . S
O450 C460 1.236 . S
O451 Tb441 2.322 . S
O451 C460 1.257 . S
O452 Tb441 2.349 . S
O452 C463 1.261 . S
O453 Tb440 2.303 . S
O453 C463 1.257 . S
O454 Tb441 2.415 . S
O454 C470 1.239 . S
O455 Tb441 2.399 . S
O455 C470 1.263 . S
O456 Tb441 2.325 . S
O456 C471 1.236 . S
O457 Tb440 2.322 . S
O457 C471 1.257 . S
O458 Tb440 2.349 . S
O458 C442 1.261 . S
O459 Tb441 2.303 . S
O459 C442 1.257 . S
C460 O450 1.236 . S
C460 O451 1.257 . S
O461 Tb440 2.415 . S
O461 C449 1.239 . S
O462 Tb440 2.399 . S
O462 C449 1.263 . S
C463 O452 1.261 . S
C463 O453 1.257 . S
C464 C467 1.358 . S
C464 C468 1.332 . S
C464 C470 1.504 . S
C465 C466 1.373 . S
C465 C469 1.308 . S
C466 C465 1.373 . S
C466 C467 1.429 . S
C466 H476 0.932 . S
C467 C464 1.358 . S
C467 C466 1.429 . S
C467 H477 0.930 . S
C468 C464 1.332 . S
C468 C469 1.394 . S
C468 H478 0.932 . S
C469 C465 1.308 . S
C469 C468 1.394 . S
C469 H479 0.929 . S
C470 Tb441 2.764 . S
C470 O454 1.239 . S
C470 O455 1.263 . S
C470 C464 1.504 . S
C471 O456 1.236 . S
C471 O457 1.257 . S
H472 C445 0.932 . S
H473 C446 0.930 . S
H474 C447 0.932 . S
H475 C448 0.929 . S
H476 C466 0.932 . S
H477 C467 0.930 . S
H478 C468 0.932 . S
H479 C469 0.929 . S
C480 C481 1.387 . S
C480 H484 0.950 . S
C480 C489 1.390 . S
C481 C480 1.387 . S
C481 C483 1.387 . S
H482 C489 0.950 . S
C483 C481 1.387 . S
C483 C485 1.390 . S
C483 H487 0.950 . S
H484 C480 0.950 . S
C485 C483 1.390 . S
C485 C486 1.387 . S
C485 H488 0.950 . S
C486 C485 1.387 . S
C486 C489 1.387 . S
H487 C483 0.950 . S
H488 C485 0.950 . S
C489 C480 1.390 . S
C489 H482 0.950 . S
C489 C486 1.387 . S
C490 C491 1.387 . S
C490 H494 0.950 . S
C490 C499 1.390 1_455 S
C491 C490 1.387 . S
C491 C493 1.388 . S
H492 C499 0.950 . S
C493 C491 1.388 . S
C493 C495 1.379 1_455 S
C493 H497 0.961 . S
H494 C490 0.950 . S
C495 C493 1.379 1_655 S
C495 C496 1.387 . S
C495 H498 0.950 . S
C496 C495 1.387 . S
C496 C499 1.387 . S
H497 C493 0.961 . S
H498 C495 0.950 . S
C499 C490 1.390 1_655 S
C499 H492 0.950 . S
C499 C496 1.387 . S
C500 C501 1.387 . S
C500 H504 0.950 . S
C500 C509 1.390 . S
C501 C500 1.387 . S
C501 C503 1.387 . S
H502 C509 0.950 1_565 S
C503 C501 1.387 . S
C503 C505 1.390 1_545 S
C503 H507 0.950 . S
H504 C500 0.950 . S
C505 C503 1.390 1_565 S
C505 C506 1.387 . S
C505 H508 0.950 . S
C506 C505 1.387 . S
C506 C509 1.387 1_565 S
H507 C503 0.950 . S
H508 C505 0.950 . S
C509 C500 1.390 . S
C509 H502 0.950 1_545 S
C509 C506 1.387 1_545 S
C510 C511 1.387 . S
C510 H514 0.950 . S
C510 C519 1.390 . S
C511 C510 1.387 . S
C511 C513 1.387 . S
H512 C519 0.950 . S
C513 C511 1.387 . S
C513 C515 1.390 . S
C513 H517 0.950 . S
H514 C510 0.950 . S
C515 C513 1.390 . S
C515 C516 1.387 . S
C515 H518 0.950 . S
C516 C515 1.387 . S
C516 C519 1.387 . S
H517 C513 0.950 . S
H518 C515 0.950 . S
C519 C510 1.390 . S
C519 H512 0.950 . S
C519 C516 1.387 . S
C520 C521 1.387 1_655 S
C520 H524 0.959 . S
C520 C529 1.390 . S
C521 C520 1.387 1_455 S
C521 C523 1.387 . S
H522 C529 0.950 . S
C523 C521 1.387 . S
C523 C525 1.390 1_455 S
C523 H527 0.950 . S
H524 C520 0.959 . S
C525 C523 1.390 1_655 S
C525 C526 1.387 . S
C525 H528 0.950 . S
C526 C525 1.387 . S
C526 C529 1.387 . S
H527 C523 0.950 . S
H528 C525 0.950 . S
C529 C520 1.390 . S
C529 H522 0.950 . S
C529 C526 1.387 . S
C530 C531 1.387 1_545 S
C530 H534 0.950 1_545 S
C530 C539 1.390 . S
C531 C530 1.387 1_565 S
C531 C533 1.387 . S
H532 C539 0.950 . S
C533 C531 1.387 . S
C533 C535 1.390 1_565 S
C533 H537 0.950 . S
H534 C530 0.950 1_565 S
C535 C533 1.390 1_545 S
C535 C536 1.387 . S
C535 H538 0.950 . S
C536 C535 1.387 . S
C536 C539 1.387 . S
H537 C533 0.950 . S
H538 C535 0.950 . S
C539 C530 1.390 . S
C539 H532 0.950 . S
C539 C536 1.387 . S
C540 C541 1.387 . S
C540 H544 0.950 . S
C540 C549 1.390 . S
C541 C540 1.387 . S
C541 C543 1.387 . S
H542 C549 0.950 . S
C543 C541 1.387 . S
C543 C545 1.390 . S
C543 H547 0.950 . S
H544 C540 0.950 . S
C545 C543 1.390 . S
C545 C546 1.387 . S
C545 H548 0.950 . S
C546 C545 1.387 . S
C546 C549 1.387 . S
H547 C543 0.950 . S
H548 C545 0.950 . S
C549 C540 1.390 . S
C549 H542 0.950 . S
C549 C546 1.387 . S
C550 C551 1.387 . S
C550 H554 0.950 . S
C550 C559 1.390 . S
C551 C550 1.387 . S
C551 C553 1.387 . S
H552 C559 0.950 . S
C553 C551 1.387 . S
C553 C555 1.390 1_455 S
C553 H557 0.950 . S
H554 C550 0.950 . S
C555 C553 1.390 1_655 S
C555 C556 1.387 . S
C555 H558 0.950 . S
C556 C555 1.387 . S
C556 C559 1.387 1_655 S
H557 C553 0.950 . S
H558 C555 0.950 . S
C559 C550 1.390 . S
C559 H552 0.950 . S
C559 C556 1.387 1_455 S
C560 C561 1.387 . S
C560 H564 0.950 . S
C560 C569 1.390 . S
C561 C560 1.387 . S
C561 C563 1.387 . S
H562 C569 0.950 1_545 S
C563 C561 1.387 . S
C563 C565 1.390 1_565 S
C563 H567 0.950 . S
H564 C560 0.950 . S
C565 C563 1.390 1_545 S
C565 C566 1.387 . S
C565 H568 0.950 . S
C566 C565 1.387 . S
C566 C569 1.387 1_545 S
H567 C563 0.950 . S
H568 C565 0.950 . S
C569 C560 1.390 . S
C569 H562 0.950 1_565 S
C569 C566 1.387 1_565 S
C570 C571 1.387 . S
C570 H574 0.950 . S
C570 C579 1.390 . S
C571 C570 1.387 . S
C571 C573 1.387 . S
H572 C579 0.950 . S
C573 C571 1.387 . S
C573 C575 1.390 . S
C573 H577 0.950 . S
H574 C570 0.950 . S
C575 C573 1.390 . S
C575 C576 1.387 . S
C575 H578 0.950 . S
C576 C575 1.387 . S
C576 C579 1.387 . S
H577 C573 0.950 . S
H578 C575 0.950 . S
C579 C570 1.390 . S
C579 H572 0.950 . S
C579 C576 1.387 . S
C580 C581 1.387 . S
C580 H584 0.950 . S
C580 C589 1.390 . S
C581 C580 1.387 . S
C581 C583 1.387 . S
H582 C589 0.948 1_655 S
C583 C581 1.387 . S
C583 C585 1.390 1_455 S
C583 H587 0.950 . S
H584 C580 0.950 . S
C585 C583 1.390 1_655 S
C585 C586 1.387 . S
C585 H588 0.950 . S
C586 C585 1.387 . S
C586 C589 1.387 1_655 S
H587 C583 0.950 . S
H588 C585 0.950 . S
C589 C580 1.390 . S
C589 H582 0.948 1_455 S
C589 C586 1.387 1_455 S
C590 C591 1.387 . S
C590 H594 0.950 . S
C590 C599 1.390 1_545 S
C591 C590 1.387 . S
C591 C593 1.387 1_545 S
H592 C599 0.950 . S
C593 C591 1.387 1_565 S
C593 C595 1.390 . S
C593 H597 0.950 . S
H594 C590 0.950 . S
C595 C593 1.390 . S
C595 C596 1.387 . S
C595 H598 0.950 . S
C596 C595 1.387 . S
C596 C599 1.387 . S
H597 C593 0.950 . S
H598 C595 0.950 . S
C599 C590 1.390 1_565 S
C599 H592 0.950 . S
C599 C596 1.387 . S
C600 C601 1.387 . S
C600 H604 0.950 . S
C600 C609 1.390 . S
C601 C600 1.387 . S
C601 C603 1.387 . S
H602 C609 0.950 . S
C603 C601 1.387 . S
C603 C605 1.390 . S
C603 H607 0.950 . S
H604 C600 0.950 . S
C605 C603 1.390 . S
C605 C606 1.387 . S
C605 H608 0.950 . S
C606 C605 1.387 . S
C606 C609 1.387 . S
H607 C603 0.950 . S
H608 C605 0.950 . S
C609 C600 1.390 . S
C609 H602 0.950 . S
C609 C606 1.387 . S
C610 C611 1.387 . S
C610 H614 0.950 . S
C610 C619 1.390 . S
C611 C610 1.387 . S
C611 C613 1.387 . S
H612 C619 0.950 . S
C613 C611 1.387 . S
C613 C615 1.390 . S
C613 H617 0.950 . S
H614 C610 0.950 . S
C615 C613 1.390 . S
C615 C616 1.387 . S
C615 H618 0.950 . S
C616 C615 1.387 . S
C616 C619 1.387 . S
H617 C613 0.950 . S
H618 C615 0.950 . S
C619 C610 1.390 . S
C619 H612 0.950 . S
C619 C616 1.387 . S
C620 C621 1.387 . S
C620 H624 0.950 . S
C620 C629 1.390 . S
C621 C620 1.387 . S
C621 C623 1.387 . S
H622 C629 0.950 . S
C623 C621 1.387 . S
C623 C625 1.390 . S
C623 H627 0.950 . S
H624 C620 0.950 . S
C625 C623 1.390 . S
C625 C626 1.387 . S
C625 H628 0.950 . S
C626 C625 1.387 . S
C626 C629 1.387 . S
H627 C623 0.950 . S
H628 C625 0.950 . S
C629 C620 1.390 . S
C629 H622 0.950 . S
C629 C626 1.387 . S
C630 C631 1.387 . S
C630 H634 0.950 . S
C630 C639 1.390 . S
C631 C630 1.387 . S
C631 C633 1.387 . S
H632 C639 0.950 . S
C633 C631 1.387 . S
C633 C635 1.390 . S
C633 H637 0.950 . S
H634 C630 0.950 . S
C635 C633 1.390 . S
C635 C636 1.387 . S
C635 H638 0.950 . S
C636 C635 1.387 . S
C636 C639 1.387 . S
H637 C633 0.950 . S
H638 C635 0.950 . S
C639 C630 1.390 . S
C639 H632 0.950 . S
C639 C636 1.387 . S
C640 C641 1.387 . S
C640 H644 0.950 . S
C640 C649 1.390 . S
C641 C640 1.387 . S
C641 C643 1.387 . S
H642 C649 0.950 . S
C643 C641 1.387 . S
C643 C645 1.390 . S
C643 H647 0.950 . S
H644 C640 0.950 . S
C645 C643 1.390 . S
C645 C646 1.387 . S
C645 H648 0.950 . S
C646 C645 1.387 . S
C646 C649 1.387 . S
H647 C643 0.950 . S
H648 C645 0.950 . S
C649 C640 1.390 . S
C649 H642 0.950 . S
C649 C646 1.387 . S
C650 C651 1.387 . S
C650 H654 0.950 . S
C650 C659 1.390 . S
C651 C650 1.387 . S
C651 C653 1.387 . S
H652 C659 0.950 . S
C653 C651 1.387 . S
C653 C655 1.390 . S
C653 H657 0.950 . S
H654 C650 0.950 . S
C655 C653 1.390 . S
C655 C656 1.387 . S
C655 H658 0.950 . S
C656 C655 1.387 . S
C656 C659 1.387 . S
H657 C653 0.950 . S
H658 C655 0.950 . S
C659 C650 1.390 . S
C659 H652 0.950 . S
C659 C656 1.387 . S
C660 C661 1.387 . S
C660 H664 0.950 . S
C660 C669 1.390 1_566 S
C661 C660 1.387 . S
C661 C663 1.387 . S
H662 C669 0.950 . S
C663 C661 1.387 . S
C663 C665 1.390 1_566 S
C663 H667 0.950 . S
H664 C660 0.950 . S
C665 C663 1.390 1_544 S
C665 C666 1.387 . S
C665 H668 0.950 . S
C666 C665 1.387 . S
C666 C669 1.387 . S
H667 C663 0.950 . S
H668 C665 0.950 . S
C669 C660 1.390 1_544 S
C669 H662 0.950 . S
C669 C666 1.387 . S
C670 C671 1.387 . S
C670 H674 0.950 . S
C670 C679 1.390 . S
C671 C670 1.387 . S
C671 C673 1.387 . S
H672 C679 0.950 . S
C673 C671 1.387 . S
C673 C675 1.390 . S
C673 H677 0.950 . S
H674 C670 0.950 . S
C675 C673 1.390 . S
C675 C676 1.387 . S
C675 H678 0.950 . S
C676 C675 1.387 . S
C676 C679 1.387 . S
H677 C673 0.950 . S
H678 C675 0.950 . S
C679 C670 1.390 . S
C679 H672 0.950 . S
C679 C676 1.387 . S
C680 C681 1.387 . S
C680 H684 0.950 . S
C680 C689 1.390 1_456 S
C681 C680 1.387 . S
C681 C683 1.387 . S
H682 C689 0.950 . S
C683 C681 1.387 . S
C683 C685 1.390 1_456 S
C683 H687 0.950 . S
H684 C680 0.950 . S
C685 C683 1.390 1_654 S
C685 C686 1.387 . S
C685 H688 0.950 . S
C686 C685 1.387 . S
C686 C689 1.387 . S
H687 C683 0.950 . S
H688 C685 0.950 . S
C689 C680 1.390 1_654 S
C689 H682 0.950 . S
C689 C686 1.387 . S
C690 C691 1.387 . S
C690 H694 0.950 . S
C690 C699 1.390 1_545 S
C691 C690 1.387 . S
C691 C693 1.387 . S
H692 C699 0.950 . S
C693 C691 1.387 . S
C693 C695 1.390 1_545 S
C693 H697 0.950 . S
H694 C690 0.950 . S
C695 C693 1.390 1_565 S
C695 C696 1.387 . S
C695 H698 0.950 . S
C696 C695 1.387 . S
C696 C699 1.387 . S
H697 C693 0.950 . S
H698 C695 0.950 . S
C699 C690 1.390 1_565 S
C699 H692 0.950 . S
C699 C696 1.387 . S
C700 C701 1.387 1_556 S
C700 H704 0.950 . S
C700 C709 1.390 . S
C701 C700 1.387 1_554 S
C701 C703 1.387 . S
H702 C709 0.950 . S
C703 C701 1.387 . S
C703 C705 1.390 . S
C703 H707 0.950 . S
H704 C700 0.950 . S
C705 C703 1.390 . S
C705 C706 1.387 1_554 S
C705 H708 0.950 . S
C706 C705 1.387 1_556 S
C706 C709 1.387 . S
H707 C703 0.950 . S
H708 C705 0.950 . S
C709 C700 1.390 . S
C709 H702 0.950 . S
C709 C706 1.387 . S
C710 C711 1.387 . S
C710 H714 0.950 . S
C710 C719 1.390 1_455 S
C711 C710 1.387 . S
C711 C713 1.387 . S
H712 C719 0.950 . S
C713 C711 1.387 . S
C713 C715 1.390 1_455 S
C713 H717 0.950 . S
H714 C710 0.950 . S
C715 C713 1.390 1_655 S
C715 C716 1.387 . S
C715 H718 0.950 . S
C716 C715 1.387 . S
C716 C719 1.387 . S
H717 C713 0.950 . S
H718 C715 0.950 . S
C719 C710 1.390 1_655 S
C719 H712 0.950 . S
C719 C716 1.387 . S
C720 C721 1.387 . S
C720 H724 0.950 . S
C720 C729 1.390 . S
C721 C720 1.387 . S
C721 C723 1.387 . S
H722 C729 0.950 . S
C723 C721 1.387 . S
C723 C725 1.390 . S
C723 H727 0.950 . S
H724 C720 0.950 . S
C725 C723 1.390 . S
C725 C726 1.387 . S
C725 H728 0.950 . S
C726 C725 1.387 . S
C726 C729 1.387 . S
H727 C723 0.950 . S
H728 C725 0.950 . S
C729 C720 1.390 . S
C729 H722 0.950 . S
C729 C726 1.387 . S
C730 C731 1.387 . S
C730 H734 0.950 . S
C730 C739 1.390 . S
C731 C730 1.387 . S
C731 C733 1.387 . S
H732 C739 0.950 . S
C733 C731 1.387 . S
C733 C735 1.390 . S
C733 H737 0.950 . S
H734 C730 0.950 . S
C735 C733 1.390 . S
C735 C736 1.387 . S
C735 H738 0.950 . S
C736 C735 1.387 . S
C736 C739 1.387 . S
H737 C733 0.950 . S
H738 C735 0.950 . S
C739 C730 1.390 . S
C739 H732 0.950 . S
C739 C736 1.387 . S
C740 C741 1.387 . S
C740 H744 0.950 . S
C740 C749 1.390 . S
C741 C740 1.387 . S
C741 C743 1.387 . S
H742 C749 0.950 . S
C743 C741 1.387 . S
C743 C745 1.390 . S
C743 H747 0.950 . S
H744 C740 0.950 . S
C745 C743 1.390 . S
C745 C746 1.387 . S
C745 H748 0.950 . S
C746 C745 1.387 . S
C746 C749 1.387 . S
H747 C743 0.950 . S
H748 C745 0.950 . S
C749 C740 1.390 . S
C749 H742 0.950 . S
C749 C746 1.387 . S
C750 C751 1.387 . S
C750 H754 0.950 . S
C750 C759 1.390 . S
C751 C750 1.387 . S
C751 C753 1.387 . S
H752 C759 0.950 . S
C753 C751 1.387 . S
C753 C755 1.390 . S
C753 H757 0.950 . S
H754 C750 0.950 . S
C755 C753 1.390 . S
C755 C756 1.387 . S
C755 H758 0.950 . S
C756 C755 1.387 . S
C756 C759 1.387 . S
H757 C753 0.950 . S
H758 C755 0.950 . S
C759 C750 1.390 . S
C759 H752 0.950 . S
C759 C756 1.387 . S
C760 C761 1.387 . S
C760 H764 0.950 . S
C760 C769 1.390 . S
C761 C760 1.387 . S
C761 C763 1.387 . S
H762 C769 0.950 . S
C763 C761 1.387 . S
C763 C765 1.390 . S
C763 H767 0.950 . S
H764 C760 0.950 . S
C765 C763 1.390 . S
C765 C766 1.387 . S
C765 H768 0.950 . S
C766 C765 1.387 . S
C766 C769 1.387 . S
H767 C763 0.950 . S
H768 C765 0.950 . S
C769 C760 1.390 . S
C769 H762 0.950 . S
C769 C766 1.387 . S
C770 C771 1.387 . S
C770 H774 0.950 . S
C770 C779 1.390 . S
C771 C770 1.387 . S
C771 C773 1.387 . S
H772 C779 0.950 . S
C773 C771 1.387 . S
C773 C775 1.390 . S
C773 H777 0.950 . S
H774 C770 0.950 . S
C775 C773 1.390 . S
C775 C776 1.387 . S
C775 H778 0.950 . S
C776 C775 1.387 . S
C776 C779 1.387 . S
H777 C773 0.950 . S
H778 C775 0.950 . S
C779 C770 1.390 . S
C779 H772 0.950 . S
C779 C776 1.387 . S
C780 C781 1.387 . S
C780 H784 0.950 . S
C780 C789 1.390 . S
C781 C780 1.387 . S
C781 C783 1.387 . S
H782 C789 0.950 . S
C783 C781 1.387 . S
C783 C785 1.390 . S
C783 H787 0.950 . S
H784 C780 0.950 . S
C785 C783 1.390 . S
C785 C786 1.387 . S
C785 H788 0.950 . S
C786 C785 1.387 . S
C786 C789 1.387 . S
H787 C783 0.950 . S
H788 C785 0.950 . S
C789 C780 1.390 . S
C789 H782 0.950 . S
C789 C786 1.387 . S
C790 C791 1.387 . S
C790 H794 0.950 . S
C790 C799 1.390 . S
C791 C790 1.387 . S
C791 C793 1.387 . S
H792 C799 0.950 . S
C793 C791 1.387 . S
C793 C795 1.390 . S
C793 H797 0.950 . S
H794 C790 0.950 . S
C795 C793 1.390 . S
C795 C796 1.387 . S
C795 H798 0.950 . S
C796 C795 1.387 . S
C796 C799 1.387 . S
H797 C793 0.950 . S
H798 C795 0.950 . S
C799 C790 1.390 . S
C799 H792 0.950 . S
C799 C796 1.387 . S
C800 C801 1.387 . S
C800 H804 0.950 . S
C800 C809 1.390 . S
C801 C800 1.387 . S
C801 C803 1.387 . S
H802 C809 0.950 . S
C803 C801 1.387 . S
C803 C805 1.390 . S
C803 H807 0.950 . S
H804 C800 0.950 . S
C805 C803 1.390 . S
C805 C806 1.387 . S
C805 H808 0.950 . S
C806 C805 1.387 . S
C806 C809 1.387 . S
H807 C803 0.950 . S
H808 C805 0.950 . S
C809 C800 1.390 . S
C809 H802 0.950 . S
C809 C806 1.387 . S
C810 C811 1.387 . S
C810 H814 0.950 . S
C810 C819 1.390 . S
C811 C810 1.387 . S
C811 C813 1.387 . S
H812 C819 0.950 . S
C813 C811 1.387 . S
C813 C815 1.390 . S
C813 H817 0.950 . S
H814 C810 0.950 . S
C815 C813 1.390 . S
C815 C816 1.387 . S
C815 H818 0.950 . S
C816 C815 1.387 . S
C816 C819 1.387 . S
H817 C813 0.950 . S
H818 C815 0.950 . S
C819 C810 1.390 . S
C819 H812 0.950 . S
C819 C816 1.387 . S
C820 C821 1.387 . S
C820 H824 0.950 . S
C820 C829 1.390 . S
C821 C820 1.387 . S
C821 C823 1.387 . S
H822 C829 0.950 . S
C823 C821 1.387 . S
C823 C825 1.390 . S
C823 H827 0.950 . S
H824 C820 0.950 . S
C825 C823 1.390 . S
C825 C826 1.387 . S
C825 H828 0.950 . S
C826 C825 1.387 . S
C826 C829 1.387 . S
H827 C823 0.950 . S
H828 C825 0.950 . S
C829 C820 1.390 . S
C829 H822 0.950 . S
C829 C826 1.387 . S
C830 C831 1.387 . S
C830 H834 0.950 . S
C830 C839 1.390 . S
C831 C830 1.387 . S
C831 C833 1.387 . S
H832 C839 0.950 . S
C833 C831 1.387 . S
C833 C835 1.390 . S
C833 H837 0.950 . S
H834 C830 0.950 . S
C835 C833 1.390 . S
C835 C836 1.387 . S
C835 H838 0.950 . S
C836 C835 1.387 . S
C836 C839 1.387 . S
H837 C833 0.950 . S
H838 C835 0.950 . S
C839 C830 1.390 . S
C839 H832 0.950 . S
C839 C836 1.387 . S
C481 C84 1.357 . S
C486 C20 1.344 . S
C491 C145 1.358 . S
C496 C71 1.346 . S
C501 C100 1.347 . S
C506 C164 1.359 . S
C511 C151 1.347 . S
C516 C225 1.360 . S
C521 C4 1.359 . S
C526 C180 1.347 . S
C531 C65 1.359 . S
C536 C231 1.347 . S
C541 C425 1.359 . S
C546 C271 1.347 . S
C551 C300 1.348 . S
C556 C444 1.360 . S
C561 C351 1.345 . S
C566 C265 1.357 . S
C571 C380 1.345 . S
C576 C284 1.358 . S
C581 C431 1.346 . S
C586 C345 1.358 . S
C591 C364 1.357 . S
C596 C460 1.345 . S
C601 C143 1.717 . S
C606 C2 1.719 . S
C611 C63 1.719 . S
C616 C162 1.716 . S
C621 C82 1.720 . S
C626 C223 1.716 . S
C631 C263 1.720 . S
C636 C362 1.716 . S
C641 C282 1.717 . S
C646 C423 1.719 . S
C651 C343 1.716 . S
C656 C442 1.719 . S
C661 C303 2.522 . S
C666 C23 2.522 . S
C671 C42 2.520 . S
C676 C322 2.521 . S
C681 C383 2.522 . S
C686 C103 2.522 . S
C691 C122 2.520 . S
C696 C402 2.520 . S
C701 C183 2.522 . S
C706 C463 2.522 . S
C711 C242 2.521 . S
C716 C202 2.522 . S
C721 C105 1.632 . S
C726 C31 1.625 . S
C731 C60 1.626 . S
C736 C124 1.633 . S
C741 C111 1.626 . S
C746 C185 1.633 . S
C751 C140 1.628 . S
C756 C204 1.635 . S
C761 C25 1.635 . S
C766 C191 1.628 . S
C771 C44 1.633 . S
C776 C220 1.626 . S
C781 C404 1.634 . S
C786 C260 1.627 . S
C791 C311 1.627 . S
C796 C465 1.634 . S
C801 C340 1.626 . S
C806 C244 1.633 . S
C811 C305 1.635 . S
C816 C391 1.628 . S
C821 C420 1.627 . S
C826 C324 1.635 . S
C831 C471 1.627 . S
C836 C385 1.634 . S
