# Generated by pormake.
# Topology umn, (4)-cn, num edge types: 1
# Building blocks:
#     Node 0, Type 0, BuildingBlock: CEKHIL_clean_sbu_0, # of connection points: 4
#     Node 1, Type 0, BuildingBlock: CEKHIL_clean_sbu_0, # of connection points: 4
#     Node 2, Type 0, BuildingBlock: CEKHIL_clean_sbu_0, # of connection points: 4
#     Node 3, Type 0, BuildingBlock: CEKHIL_clean_sbu_0, # of connection points: 4
#     Node 4, Type 0, BuildingBlock: CEKHIL_clean_sbu_0, # of connection points: 4
#     Node 5, Type 0, BuildingBlock: CEKHIL_clean_sbu_0, # of connection points: 4
#     Node 6, Type 0, BuildingBlock: CEKHIL_clean_sbu_0, # of connection points: 4
#     Node 7, Type 0, BuildingBlock: CEKHIL_clean_sbu_0, # of connection points: 4
#     Node 8, Type 0, BuildingBlock: CEKHIL_clean_sbu_0, # of connection points: 4
#     Node 9, Type 0, BuildingBlock: CEKHIL_clean_sbu_0, # of connection points: 4
#     Node 10, Type 0, BuildingBlock: CEKHIL_clean_sbu_0, # of connection points: 4
#     Node 11, Type 0, BuildingBlock: CEKHIL_clean_sbu_0, # of connection points: 4
#     Node 12, Type 0, BuildingBlock: CEKHIL_clean_sbu_0, # of connection points: 4
#     Node 13, Type 0, BuildingBlock: CEKHIL_clean_sbu_0, # of connection points: 4
#     Node 14, Type 0, BuildingBlock: CEKHIL_clean_sbu_0, # of connection points: 4
#     Node 15, Type 0, BuildingBlock: CEKHIL_clean_sbu_0, # of connection points: 4
#     Node 16, Type 0, BuildingBlock: CEKHIL_clean_sbu_0, # of connection points: 4
#     Node 17, Type 0, BuildingBlock: CEKHIL_clean_sbu_0, # of connection points: 4
#     Node 18, Type 0, BuildingBlock: CEKHIL_clean_sbu_0, # of connection points: 4
#     Node 19, Type 0, BuildingBlock: CEKHIL_clean_sbu_0, # of connection points: 4
#     Node 20, Type 0, BuildingBlock: CEKHIL_clean_sbu_0, # of connection points: 4
#     Node 21, Type 0, BuildingBlock: CEKHIL_clean_sbu_0, # of connection points: 4
#     Node 22, Type 0, BuildingBlock: CEKHIL_clean_sbu_0, # of connection points: 4
#     Node 23, Type 0, BuildingBlock: CEKHIL_clean_sbu_0, # of connection points: 4
#     Node 24, Type 0, BuildingBlock: CEKHIL_clean_sbu_0, # of connection points: 4
#     Node 25, Type 0, BuildingBlock: CEKHIL_clean_sbu_0, # of connection points: 4
#     Node 26, Type 0, BuildingBlock: CEKHIL_clean_sbu_0, # of connection points: 4
#     Node 27, Type 0, BuildingBlock: CEKHIL_clean_sbu_0, # of connection points: 4
#     Node 28, Type 0, BuildingBlock: CEKHIL_clean_sbu_0, # of connection points: 4
#     Node 29, Type 0, BuildingBlock: CEKHIL_clean_sbu_0, # of connection points: 4
#     Node 30, Type 0, BuildingBlock: CEKHIL_clean_sbu_0, # of connection points: 4
#     Node 31, Type 0, BuildingBlock: CEKHIL_clean_sbu_0, # of connection points: 4
#     Node 32, Type 0, BuildingBlock: CEKHIL_clean_sbu_0, # of connection points: 4
#     Node 33, Type 0, BuildingBlock: CEKHIL_clean_sbu_0, # of connection points: 4
#     Node 34, Type 0, BuildingBlock: CEKHIL_clean_sbu_0, # of connection points: 4
#     Node 35, Type 0, BuildingBlock: CEKHIL_clean_sbu_0, # of connection points: 4
#     Edge 36, Type (0, 0), BuildingBlock: UVAHIK_clean_linker_0, # of connection points: 2
#     Edge 37, Type (0, 0), BuildingBlock: UVAHIK_clean_linker_0, # of connection points: 2
#     Edge 38, Type (0, 0), BuildingBlock: UVAHIK_clean_linker_0, # of connection points: 2
#     Edge 39, Type (0, 0), BuildingBlock: UVAHIK_clean_linker_0, # of connection points: 2
#     Edge 40, Type (0, 0), BuildingBlock: UVAHIK_clean_linker_0, # of connection points: 2
#     Edge 41, Type (0, 0), BuildingBlock: UVAHIK_clean_linker_0, # of connection points: 2
#     Edge 42, Type (0, 0), BuildingBlock: UVAHIK_clean_linker_0, # of connection points: 2
#     Edge 43, Type (0, 0), BuildingBlock: UVAHIK_clean_linker_0, # of connection points: 2
#     Edge 44, Type (0, 0), BuildingBlock: UVAHIK_clean_linker_0, # of connection points: 2
#     Edge 45, Type (0, 0), BuildingBlock: UVAHIK_clean_linker_0, # of connection points: 2
#     Edge 46, Type (0, 0), BuildingBlock: UVAHIK_clean_linker_0, # of connection points: 2
#     Edge 47, Type (0, 0), BuildingBlock: UVAHIK_clean_linker_0, # of connection points: 2
#     Edge 48, Type (0, 0), BuildingBlock: UVAHIK_clean_linker_0, # of connection points: 2
#     Edge 49, Type (0, 0), BuildingBlock: UVAHIK_clean_linker_0, # of connection points: 2
#     Edge 50, Type (0, 0), BuildingBlock: UVAHIK_clean_linker_0, # of connection points: 2
#     Edge 51, Type (0, 0), BuildingBlock: UVAHIK_clean_linker_0, # of connection points: 2
#     Edge 52, Type (0, 0), BuildingBlock: UVAHIK_clean_linker_0, # of connection points: 2
#     Edge 53, Type (0, 0), BuildingBlock: UVAHIK_clean_linker_0, # of connection points: 2
#     Edge 54, Type (0, 0), BuildingBlock: UVAHIK_clean_linker_0, # of connection points: 2
#     Edge 55, Type (0, 0), BuildingBlock: UVAHIK_clean_linker_0, # of connection points: 2
#     Edge 56, Type (0, 0), BuildingBlock: UVAHIK_clean_linker_0, # of connection points: 2
#     Edge 57, Type (0, 0), BuildingBlock: UVAHIK_clean_linker_0, # of connection points: 2
#     Edge 58, Type (0, 0), BuildingBlock: UVAHIK_clean_linker_0, # of connection points: 2
#     Edge 59, Type (0, 0), BuildingBlock: UVAHIK_clean_linker_0, # of connection points: 2
#     Edge 60, Type (0, 0), BuildingBlock: UVAHIK_clean_linker_0, # of connection points: 2
#     Edge 61, Type (0, 0), BuildingBlock: UVAHIK_clean_linker_0, # of connection points: 2
#     Edge 62, Type (0, 0), BuildingBlock: UVAHIK_clean_linker_0, # of connection points: 2
#     Edge 63, Type (0, 0), BuildingBlock: UVAHIK_clean_linker_0, # of connection points: 2
#     Edge 64, Type (0, 0), BuildingBlock: UVAHIK_clean_linker_0, # of connection points: 2
#     Edge 65, Type (0, 0), BuildingBlock: UVAHIK_clean_linker_0, # of connection points: 2
#     Edge 66, Type (0, 0), BuildingBlock: UVAHIK_clean_linker_0, # of connection points: 2
#     Edge 67, Type (0, 0), BuildingBlock: UVAHIK_clean_linker_0, # of connection points: 2
#     Edge 68, Type (0, 0), BuildingBlock: UVAHIK_clean_linker_0, # of connection points: 2
#     Edge 69, Type (0, 0), BuildingBlock: UVAHIK_clean_linker_0, # of connection points: 2
#     Edge 70, Type (0, 0), BuildingBlock: UVAHIK_clean_linker_0, # of connection points: 2
#     Edge 71, Type (0, 0), BuildingBlock: UVAHIK_clean_linker_0, # of connection points: 2
#     Edge 72, Type (0, 0), BuildingBlock: UVAHIK_clean_linker_0, # of connection points: 2
#     Edge 73, Type (0, 0), BuildingBlock: UVAHIK_clean_linker_0, # of connection points: 2
#     Edge 74, Type (0, 0), BuildingBlock: UVAHIK_clean_linker_0, # of connection points: 2
#     Edge 75, Type (0, 0), BuildingBlock: UVAHIK_clean_linker_0, # of connection points: 2
#     Edge 76, Type (0, 0), BuildingBlock: UVAHIK_clean_linker_0, # of connection points: 2
#     Edge 77, Type (0, 0), BuildingBlock: UVAHIK_clean_linker_0, # of connection points: 2
#     Edge 78, Type (0, 0), BuildingBlock: UVAHIK_clean_linker_0, # of connection points: 2
#     Edge 79, Type (0, 0), BuildingBlock: UVAHIK_clean_linker_0, # of connection points: 2
#     Edge 80, Type (0, 0), BuildingBlock: UVAHIK_clean_linker_0, # of connection points: 2
#     Edge 81, Type (0, 0), BuildingBlock: UVAHIK_clean_linker_0, # of connection points: 2
#     Edge 82, Type (0, 0), BuildingBlock: UVAHIK_clean_linker_0, # of connection points: 2
#     Edge 83, Type (0, 0), BuildingBlock: UVAHIK_clean_linker_0, # of connection points: 2
#     Edge 84, Type (0, 0), BuildingBlock: UVAHIK_clean_linker_0, # of connection points: 2
#     Edge 85, Type (0, 0), BuildingBlock: UVAHIK_clean_linker_0, # of connection points: 2
#     Edge 86, Type (0, 0), BuildingBlock: UVAHIK_clean_linker_0, # of connection points: 2
#     Edge 87, Type (0, 0), BuildingBlock: UVAHIK_clean_linker_0, # of connection points: 2
#     Edge 88, Type (0, 0), BuildingBlock: UVAHIK_clean_linker_0, # of connection points: 2
#     Edge 89, Type (0, 0), BuildingBlock: UVAHIK_clean_linker_0, # of connection points: 2
#     Edge 90, Type (0, 0), BuildingBlock: UVAHIK_clean_linker_0, # of connection points: 2
#     Edge 91, Type (0, 0), BuildingBlock: UVAHIK_clean_linker_0, # of connection points: 2
#     Edge 92, Type (0, 0), BuildingBlock: UVAHIK_clean_linker_0, # of connection points: 2
#     Edge 93, Type (0, 0), BuildingBlock: UVAHIK_clean_linker_0, # of connection points: 2
#     Edge 94, Type (0, 0), BuildingBlock: UVAHIK_clean_linker_0, # of connection points: 2
#     Edge 95, Type (0, 0), BuildingBlock: UVAHIK_clean_linker_0, # of connection points: 2
#     Edge 96, Type (0, 0), BuildingBlock: UVAHIK_clean_linker_0, # of connection points: 2
#     Edge 97, Type (0, 0), BuildingBlock: UVAHIK_clean_linker_0, # of connection points: 2
#     Edge 98, Type (0, 0), BuildingBlock: UVAHIK_clean_linker_0, # of connection points: 2
#     Edge 99, Type (0, 0), BuildingBlock: UVAHIK_clean_linker_0, # of connection points: 2
#     Edge 100, Type (0, 0), BuildingBlock: UVAHIK_clean_linker_0, # of connection points: 2
#     Edge 101, Type (0, 0), BuildingBlock: UVAHIK_clean_linker_0, # of connection points: 2
#     Edge 102, Type (0, 0), BuildingBlock: UVAHIK_clean_linker_0, # of connection points: 2
#     Edge 103, Type (0, 0), BuildingBlock: UVAHIK_clean_linker_0, # of connection points: 2
#     Edge 104, Type (0, 0), BuildingBlock: UVAHIK_clean_linker_0, # of connection points: 2
#     Edge 105, Type (0, 0), BuildingBlock: UVAHIK_clean_linker_0, # of connection points: 2
#     Edge 106, Type (0, 0), BuildingBlock: UVAHIK_clean_linker_0, # of connection points: 2
#     Edge 107, Type (0, 0), BuildingBlock: UVAHIK_clean_linker_0, # of connection points: 2
# Relax obj value: 0.180
# Max RMSD: 0.211
# Mean RMSD: 0.211
data_MOF--net-umn--node1-CEKHIL_clean_sbu_0--edge1-UVAHIK_clean_linker_0
_symmetry_space_group_name_H-M    P1
_symmetry_Int_Tables_number       1
_symmetry_cell_setting            triclinic
loop_
_symmetry_equiv_pos_as_xyz
'x, y, z'
_cell_length_a     104.89492
_cell_length_b     104.82078
_cell_length_c     47.198709
_cell_angle_alpha  89.986621
_cell_angle_beta   89.989432
_cell_angle_gamma 120.01736
loop_
_atom_site_label
_atom_site_type_symbol
_atom_site_fract_x
_atom_site_fract_y
_atom_site_fract_z
_atom_type_partial_charge
Co0 Co 0.3709 0.10454 0.23046 0.0
O1 O 0.37366 0.12391 0.22491 0.0
O2 O 0.35218 0.10314 0.22299 0.0
C3 C 0.38921 0.1071 0.20172 0.0
O4 O 0.36381 0.0827 0.23388 0.0
Co5 Co 0.3947 0.10054 0.26033 0.0
O6 O 0.38261 0.07978 0.24814 0.0
C7 C 0.37386 0.1047 0.29538 0.0
C8 C 0.35956 0.11741 0.2206 0.0
C9 C 0.36943 0.07455 0.23947 0.0
O10 O 0.36772 0.10553 0.27242 0.0
O11 O 0.38537 0.1034 0.29536 0.0
O12 O 0.37655 0.10413 0.19154 0.0
O13 O 0.39116 0.11022 0.22858 0.0
Co14 Co 0.88979 0.26172 0.23527 0.0
O15 O 0.87015 0.24568 0.22947 0.0
O16 O 0.8903 0.24382 0.22912 0.0
C17 C 0.88865 0.27787 0.20527 0.0
O18 O 0.91176 0.27578 0.23913 0.0
Co19 Co 0.89497 0.29044 0.26321 0.0
O20 O 0.91517 0.29831 0.24821 0.0
C21 C 0.88995 0.26557 0.29988 0.0
C22 C 0.8761 0.23749 0.22615 0.0
C23 C 0.92011 0.28979 0.24176 0.0
O24 O 0.88825 0.25794 0.27743 0.0
O25 O 0.89223 0.27877 0.29898 0.0
O26 O 0.89107 0.26764 0.19605 0.0
O27 O 0.88512 0.27699 0.23189 0.0
Co28 Co 0.73037 0.62289 0.23406 0.0
O29 O 0.74584 0.61862 0.22677 0.0
O30 O 0.74856 0.641 0.22737 0.0
C31 C 0.71349 0.60585 0.20475 0.0
O32 O 0.71696 0.63145 0.23991 0.0
Co33 Co 0.70189 0.59968 0.26339 0.0
O34 O 0.6946 0.61318 0.25281 0.0
C35 C 0.72751 0.61917 0.29873 0.0
C36 C 0.75442 0.63272 0.22381 0.0
C37 C 0.7033 0.62653 0.24577 0.0
O38 O 0.73483 0.62497 0.27591 0.0
O39 O 0.71423 0.6084 0.2985 0.0
O40 O 0.72371 0.61843 0.19514 0.0
O41 O 0.71473 0.60314 0.23114 0.0
Co42 Co 0.10563 0.37416 0.28281 0.0
O43 O 0.12515 0.37738 0.28813 0.0
O44 O 0.10466 0.35565 0.29056 0.0
C45 C 0.10784 0.39241 0.31128 0.0
O46 O 0.08375 0.36671 0.27947 0.0
Co47 Co 0.10128 0.39749 0.25201 0.0
O48 O 0.08058 0.38526 0.26446 0.0
C49 C 0.10561 0.37658 0.21777 0.0
C50 C 0.11893 0.3633 0.29263 0.0
C51 C 0.07547 0.37213 0.27341 0.0
O52 O 0.10647 0.37071 0.24105 0.0
O53 O 0.10438 0.38814 0.21715 0.0
O54 O 0.10522 0.37987 0.32154 0.0
O55 O 0.11092 0.39437 0.28437 0.0
Co56 Co 0.62594 0.73406 0.28255 0.0
O57 O 0.62113 0.7495 0.28283 0.0
O58 O 0.64368 0.75282 0.2865 0.0
C59 C 0.60874 0.71904 0.31398 0.0
O60 O 0.63512 0.72101 0.28427 0.0
Co61 Co 0.60401 0.70338 0.25912 0.0
O62 O 0.61713 0.69756 0.27828 0.0
C63 C 0.62279 0.72682 0.2189 0.0
C64 C 0.63514 0.75851 0.28613 0.0
C65 C 0.63036 0.70708 0.28452 0.0
O66 O 0.62844 0.73556 0.24011 0.0
O67 O 0.61234 0.71346 0.22165 0.0
O68 O 0.62099 0.73028 0.3223 0.0
O69 O 0.6064 0.71818 0.28681 0.0
Co70 Co 0.2603 0.88831 0.27835 0.0
O71 O 0.24432 0.86861 0.28378 0.0
O72 O 0.24229 0.88867 0.28412 0.0
C73 C 0.27636 0.88724 0.30858 0.0
O74 O 0.2744 0.91034 0.27464 0.0
Co75 Co 0.28896 0.89338 0.25052 0.0
O76 O 0.29686 0.91345 0.26623 0.0
C77 C 0.26434 0.88871 0.21373 0.0
C78 C 0.23601 0.87443 0.28674 0.0
C79 C 0.28845 0.91856 0.2724 0.0
O80 O 0.25668 0.88687 0.23618 0.0
O81 O 0.27754 0.89103 0.21458 0.0
O82 O 0.266 0.88951 0.31763 0.0
O83 O 0.27556 0.88366 0.28199 0.0
Co84 Co 0.62299 0.88932 0.78683 0.0
O85 O 0.61992 0.86977 0.79088 0.0
O86 O 0.6416 0.89031 0.79318 0.0
C87 C 0.60502 0.88672 0.81654 0.0
O88 O 0.63036 0.91125 0.78472 0.0
Co89 Co 0.59934 0.89402 0.75835 0.0
O90 O 0.61151 0.91449 0.77228 0.0
C91 C 0.61968 0.88981 0.72207 0.0
C92 C 0.63404 0.87602 0.79482 0.0
C93 C 0.62476 0.91954 0.78037 0.0
O94 O 0.62593 0.8889 0.74476 0.0
O95 O 0.60813 0.89103 0.72253 0.0
O96 O 0.61768 0.88928 0.826 0.0
O97 O 0.60283 0.88397 0.78954 0.0
Co98 Co 0.10516 0.73303 0.78201 0.0
O99 O 0.12453 0.74871 0.79094 0.0
O100 O 0.10469 0.75103 0.7878 0.0
C101 C 0.10495 0.71631 0.81253 0.0
O102 O 0.08341 0.71924 0.77406 0.0
Co103 Co 0.10197 0.70543 0.75282 0.0
O104 O 0.08066 0.6981 0.75615 0.0
C105 C 0.10829 0.73099 0.71751 0.0
C106 C 0.11874 0.75709 0.79284 0.0
C107 C 0.07541 0.70612 0.76428 0.0
O108 O 0.10868 0.73782 0.74036 0.0
O109 O 0.10628 0.71789 0.71763 0.0
O110 O 0.10211 0.7264 0.82087 0.0
O111 O 0.10964 0.71763 0.78659 0.0
Co112 Co 0.26175 0.37212 0.77838 0.0
O113 O 0.24597 0.37586 0.78612 0.0
O114 O 0.24379 0.35371 0.78427 0.0
C115 C 0.27832 0.38883 0.80845 0.0
O116 O 0.27553 0.36404 0.77193 0.0
Co117 Co 0.29006 0.39602 0.74982 0.0
O118 O 0.29778 0.38284 0.76003 0.0
C119 C 0.26471 0.37665 0.7139 0.0
C120 C 0.23764 0.36168 0.78843 0.0
C121 C 0.28928 0.36936 0.76646 0.0
O122 O 0.25741 0.37053 0.73657 0.0
O123 O 0.27792 0.38754 0.71439 0.0
O124 O 0.26815 0.37606 0.81738 0.0
O125 O 0.27715 0.39195 0.78228 0.0
Co126 Co 0.88847 0.62392 0.73442 0.0
O127 O 0.86893 0.62025 0.72731 0.0
O128 O 0.88913 0.64224 0.72596 0.0
C129 C 0.88759 0.60604 0.70666 0.0
O130 O 0.91035 0.63172 0.73949 0.0
Co131 Co 0.89239 0.60075 0.76699 0.0
O132 O 0.91322 0.61311 0.75537 0.0
C133 C 0.8873 0.62158 0.79962 0.0
C134 C 0.87492 0.63431 0.72293 0.0
C135 C 0.9185 0.62624 0.74626 0.0
O136 O 0.88667 0.62727 0.77594 0.0
O137 O 0.8887 0.61014 0.80104 0.0
O138 O 0.89007 0.61848 0.69608 0.0
O139 O 0.88363 0.60385 0.73315 0.0
Co140 Co 0.37057 0.2647 0.73464 0.0
O141 O 0.37511 0.24906 0.73307 0.0
O142 O 0.35288 0.24632 0.72744 0.0
C143 C 0.38892 0.28066 0.7062 0.0
O144 O 0.36166 0.27798 0.73357 0.0
Co145 Co 0.39198 0.2943 0.76291 0.0
O146 O 0.37892 0.30087 0.74621 0.0
C147 C 0.37198 0.2694 0.79919 0.0
C148 C 0.36121 0.2404 0.72776 0.0
C149 C 0.36616 0.29176 0.73685 0.0
O150 O 0.36662 0.26164 0.77664 0.0
O151 O 0.38284 0.28264 0.79859 0.0
O152 O 0.37694 0.26991 0.69572 0.0
O153 O 0.39031 0.28052 0.73353 0.0
Co154 Co 0.73135 0.10446 0.72982 0.0
O155 O 0.74727 0.12439 0.72734 0.0
O156 O 0.7497 0.10456 0.72576 0.0
C157 C 0.71642 0.10657 0.69804 0.0
O158 O 0.71744 0.08232 0.73081 0.0
Co159 Co 0.70166 0.09818 0.75438 0.0
O160 O 0.69459 0.07844 0.73769 0.0
C161 C 0.72515 0.10236 0.79389 0.0
C162 C 0.75584 0.11884 0.72464 0.0
C163 C 0.7034 0.07375 0.73202 0.0
O164 O 0.73346 0.1046 0.77228 0.0
O165 O 0.712 0.10011 0.79163 0.0
O166 O 0.72714 0.10461 0.69001 0.0
O167 O 0.71608 0.10901 0.72497 0.0
Co168 Co 0.03349 0.43942 0.56216 0.0
O169 O 0.03772 0.45944 0.55996 0.0
O170 O 0.01535 0.43978 0.55885 0.0
C171 C 0.05019 0.44133 0.5297 0.0
O172 O 0.02499 0.41721 0.56289 0.0
Co173 Co 0.05673 0.43264 0.58554 0.0
O174 O 0.04386 0.41307 0.5684 0.0
C175 C 0.03798 0.43713 0.62597 0.0
C176 C 0.02362 0.45405 0.55773 0.0
C177 C 0.03034 0.40853 0.56327 0.0
O178 O 0.03189 0.4396 0.60469 0.0
O179 O 0.04862 0.43454 0.62318 0.0
O180 O 0.03751 0.43952 0.52218 0.0
O181 O 0.05321 0.44373 0.55657 0.0
Co182 Co 0.55583 0.59553 0.5629 0.0
O183 O 0.53594 0.57958 0.55983 0.0
O184 O 0.5558 0.57724 0.55834 0.0
C185 C 0.55387 0.6107 0.53154 0.0
O186 O 0.57797 0.60944 0.5644 0.0
Co187 Co 0.56207 0.62509 0.58825 0.0
O188 O 0.582 0.63226 0.57257 0.0
C189 C 0.55754 0.60119 0.6271 0.0
C190 C 0.54154 0.57107 0.55695 0.0
C191 C 0.58663 0.62344 0.56647 0.0
O192 O 0.5554 0.59304 0.60528 0.0
O193 O 0.55993 0.61441 0.62518 0.0
O194 O 0.55588 0.60006 0.52322 0.0
O195 O 0.55133 0.61088 0.55847 0.0
Co196 Co 0.39635 0.95625 0.565 0.0
O197 O 0.41203 0.95223 0.55817 0.0
O198 O 0.41456 0.97453 0.56009 0.0
C199 C 0.38003 0.94001 0.53394 0.0
O200 O 0.38275 0.96463 0.57038 0.0
Co201 Co 0.36752 0.93269 0.59209 0.0
O202 O 0.36009 0.94579 0.57948 0.0
C203 C 0.3924 0.95142 0.62941 0.0
C204 C 0.42056 0.9664 0.55618 0.0
C205 C 0.36883 0.95931 0.57376 0.0
O206 O 0.40006 0.9575 0.60708 0.0
O207 O 0.37908 0.94078 0.62829 0.0
O208 O 0.39058 0.95274 0.52572 0.0
O209 O 0.38071 0.93652 0.56012 0.0
Co210 Co 0.77148 0.70333 0.61661 0.0
O211 O 0.79134 0.70727 0.62008 0.0
O212 O 0.77142 0.68507 0.62175 0.0
C213 C 0.77335 0.72065 0.64735 0.0
O214 O 0.74937 0.69509 0.61489 0.0
Co215 Co 0.76531 0.72641 0.59005 0.0
O216 O 0.74531 0.71378 0.60568 0.0
C217 C 0.7703 0.70708 0.55216 0.0
C218 C 0.78568 0.69315 0.6232 0.0
C219 C 0.74071 0.7004 0.61243 0.0
O220 O 0.77206 0.70106 0.57436 0.0
O221 O 0.76799 0.71798 0.55349 0.0
O222 O 0.77131 0.70804 0.65609 0.0
O223 O 0.776 0.72322 0.62039 0.0
Co224 Co 0.29302 0.06873 0.61785 0.0
O225 O 0.28985 0.08518 0.62103 0.0
O226 O 0.31165 0.08659 0.62268 0.0
C227 C 0.27553 0.05389 0.64902 0.0
O228 O 0.30047 0.05419 0.6164 0.0
Co229 Co 0.26903 0.03965 0.59208 0.0
O230 O 0.28115 0.03174 0.60784 0.0
C231 C 0.28886 0.06342 0.55351 0.0
C232 C 0.30401 0.09324 0.62414 0.0
C233 C 0.29463 0.04013 0.6143 0.0
O234 O 0.29522 0.0713 0.57547 0.0
O235 O 0.27763 0.05044 0.55527 0.0
O236 O 0.28832 0.06419 0.6575 0.0
O237 O 0.27294 0.05389 0.62207 0.0
Co238 Co 0.9283 0.22357 0.61929 0.0
O239 O 0.91239 0.20384 0.62471 0.0
O240 O 0.91004 0.2237 0.62277 0.0
C241 C 0.94357 0.22268 0.65201 0.0
O242 O 0.94217 0.24561 0.61505 0.0
Co243 Co 0.95763 0.22889 0.595 0.0
O244 O 0.96492 0.24948 0.60692 0.0
C245 C 0.93366 0.22304 0.55538 0.0
C246 C 0.9039 0.20952 0.62624 0.0
C247 C 0.95611 0.25425 0.61201 0.0
O248 O 0.92557 0.22158 0.57693 0.0
O249 O 0.94688 0.22554 0.5578 0.0
O250 O 0.93305 0.22513 0.6591 0.0
O251 O 0.9436 0.21912 0.62561 0.0
Co252 Co 0.29066 0.22152 0.12074 0.0
O253 O 0.28569 0.20121 0.12199 0.0
O254 O 0.30833 0.22039 0.1243 0.0
C255 C 0.27383 0.21987 0.15252 0.0
O256 O 0.3001 0.2438 0.12117 0.0
Co257 Co 0.26889 0.23055 0.09779 0.0
O258 O 0.2822 0.24949 0.11693 0.0
C259 C 0.28701 0.22508 0.05718 0.0
C260 C 0.29972 0.20618 0.12465 0.0
C261 C 0.2955 0.25309 0.12199 0.0
O262 O 0.29266 0.22193 0.07829 0.0
O263 O 0.27682 0.22835 0.06015 0.0
O264 O 0.28614 0.22093 0.16063 0.0
O265 O 0.27125 0.21812 0.12545 0.0
Co266 Co 0.77104 0.06626 0.11667 0.0
O267 O 0.79131 0.0817 0.11754 0.0
O268 O 0.77206 0.08497 0.12108 0.0
C269 C 0.7732 0.0511 0.14779 0.0
O270 O 0.74881 0.05334 0.11777 0.0
Co271 Co 0.76187 0.03563 0.09294 0.0
O272 O 0.743 0.02977 0.11247 0.0
C273 C 0.76674 0.05932 0.05303 0.0
C274 C 0.78628 0.09067 0.12108 0.0
C275 C 0.73949 0.03947 0.11826 0.0
O276 O 0.77022 0.06806 0.07433 0.0
O277 O 0.76351 0.04585 0.05559 0.0
O278 O 0.77205 0.06224 0.15629 0.0
O279 O 0.77464 0.05024 0.1206 0.0
Co280 Co 0.92795 0.7031 0.11951 0.0
O281 O 0.91218 0.70668 0.12832 0.0
O282 O 0.91002 0.68457 0.12523 0.0
C283 C 0.94474 0.71944 0.14983 0.0
O284 O 0.94187 0.69531 0.1119 0.0
Co285 Co 0.95551 0.72735 0.09028 0.0
O286 O 0.9638 0.71458 0.0999 0.0
C287 C 0.93009 0.70805 0.05493 0.0
C288 C 0.90387 0.69249 0.1302 0.0
C289 C 0.95565 0.70102 0.10622 0.0
O290 O 0.92326 0.70174 0.07787 0.0
O291 O 0.94313 0.71922 0.05494 0.0
O292 O 0.93453 0.70658 0.15827 0.0
O293 O 0.94333 0.72303 0.12409 0.0
Co294 Co 0.55501 0.96108 0.06144 0.0
O295 O 0.53518 0.95724 0.0577 0.0
O296 O 0.55519 0.97939 0.05643 0.0
C297 C 0.55319 0.94381 0.03056 0.0
O298 O 0.57706 0.96931 0.06371 0.0
Co299 Co 0.56131 0.93798 0.08755 0.0
O300 O 0.58129 0.95062 0.07159 0.0
C301 C 0.55642 0.95735 0.12572 0.0
C302 C 0.54093 0.97139 0.05472 0.0
C303 C 0.58577 0.96406 0.06571 0.0
O304 O 0.55443 0.96331 0.10366 0.0
O305 O 0.55864 0.9464 0.12424 0.0
O306 O 0.55531 0.95647 0.02193 0.0
O307 O 0.5505 0.9412 0.05749 0.0
Co308 Co 0.03338 0.59337 0.0615 0.0
O309 O 0.03718 0.57729 0.05999 0.0
O310 O 0.01506 0.57511 0.05757 0.0
C311 C 0.05064 0.60801 0.02975 0.0
O312 O 0.02526 0.60738 0.0612 0.0
Co313 Co 0.05662 0.62327 0.08557 0.0
O314 O 0.04429 0.63028 0.06725 0.0
C315 C 0.03725 0.6 0.12546 0.0
C316 C 0.02306 0.56883 0.05704 0.0
C317 C 0.03083 0.62144 0.06134 0.0
O318 O 0.0312 0.59156 0.104 0.0
O319 O 0.04809 0.61317 0.12298 0.0
O320 O 0.03801 0.59725 0.02168 0.0
O321 O 0.05327 0.6086 0.0568 0.0
Co322 Co 0.39884 0.43849 0.06579 0.0
O323 O 0.4139 0.45857 0.05943 0.0
O324 O 0.41766 0.43958 0.06223 0.0
C325 C 0.38264 0.43765 0.03347 0.0
O326 O 0.38615 0.41635 0.071 0.0
Co327 Co 0.36874 0.431 0.09007 0.0
O328 O 0.36269 0.41105 0.07539 0.0
C329 C 0.39329 0.43847 0.12957 0.0
C330 C 0.42303 0.45362 0.05811 0.0
C331 C 0.37226 0.40711 0.0718 0.0
O332 O 0.40171 0.44096 0.10803 0.0
O333 O 0.3797 0.43475 0.12715 0.0
O334 O 0.3937 0.43612 0.02613 0.0
O335 O 0.38261 0.4415 0.05964 0.0
Co336 Co 0.70444 0.77363 0.89695 0.0
O337 O 0.70857 0.79367 0.89655 0.0
O338 O 0.68635 0.77391 0.89315 0.0
C339 C 0.72176 0.77638 0.86536 0.0
O340 O 0.69588 0.75148 0.89532 0.0
Co341 Co 0.727 0.76579 0.9203 0.0
O342 O 0.71408 0.74646 0.90226 0.0
C343 C 0.7079 0.76985 0.9606 0.0
C344 C 0.69448 0.78818 0.89334 0.0
C345 C 0.70083 0.74247 0.89572 0.0
O346 O 0.70203 0.77264 0.93937 0.0
O347 O 0.7186 0.76733 0.95786 0.0
O348 O 0.70931 0.77492 0.85719 0.0
O349 O 0.72422 0.77793 0.8925 0.0
Co350 Co 0.22137 0.93018 0.8995 0.0
O351 O 0.20183 0.91454 0.89141 0.0
O352 O 0.22148 0.91192 0.89519 0.0
C353 C 0.22168 0.94645 0.86759 0.0
O354 O 0.24319 0.94379 0.90692 0.0
Co355 Co 0.22526 0.9587 0.92609 0.0
O356 O 0.24645 0.96527 0.92414 0.0
C357 C 0.2191 0.93385 0.96363 0.0
C358 C 0.20743 0.90597 0.89029 0.0
C359 C 0.25139 0.9569 0.91654 0.0
O360 O 0.21806 0.92628 0.94146 0.0
O361 O 0.22144 0.94705 0.96226 0.0
O362 O 0.22429 0.93608 0.86014 0.0
O363 O 0.21719 0.9457 0.89354 0.0
Co364 Co 0.06526 0.28959 0.89898 0.0
O365 O 0.08161 0.28636 0.89486 0.0
O366 O 0.08281 0.30802 0.89084 0.0
C367 C 0.04937 0.27096 0.87106 0.0
O368 O 0.05076 0.29702 0.90092 0.0
Co369 Co 0.03749 0.26655 0.93011 0.0
O370 O 0.02906 0.27863 0.91643 0.0
C371 C 0.06253 0.28798 0.96407 0.0
C372 C 0.08947 0.30038 0.88976 0.0
C373 C 0.03705 0.29163 0.9068 0.0
O374 O 0.06932 0.2936 0.94072 0.0
O375 O 0.04979 0.27637 0.96489 0.0
O376 O 0.05934 0.28335 0.86036 0.0
O377 O 0.05039 0.26938 0.89816 0.0
Co378 Co 0.43783 0.04036 0.94498 0.0
O379 O 0.4576 0.04403 0.94879 0.0
O380 O 0.43742 0.02219 0.95348 0.0
C381 C 0.44032 0.05904 0.97245 0.0
O382 O 0.41579 0.03243 0.94374 0.0
Co383 Co 0.43206 0.06269 0.91373 0.0
O384 O 0.41173 0.0503 0.92792 0.0
C385 C 0.43633 0.04161 0.87988 0.0
C386 C 0.45171 0.03006 0.95425 0.0
C387 C 0.40714 0.03748 0.93813 0.0
O388 O 0.43783 0.03619 0.90323 0.0
O389 O 0.43462 0.05288 0.87912 0.0
O390 O 0.43823 0.04684 0.98353 0.0
O391 O 0.44273 0.06044 0.9453 0.0
Co392 Co 0.95691 0.39744 0.94633 0.0
O393 O 0.95215 0.4127 0.95239 0.0
O394 O 0.97477 0.41611 0.95011 0.0
C395 C 0.94136 0.38127 0.97856 0.0
O396 O 0.96611 0.38453 0.94173 0.0
Co397 Co 0.93411 0.36763 0.92146 0.0
O398 O 0.94777 0.36125 0.93586 0.0
C399 C 0.95182 0.3921 0.8823 0.0
C400 C 0.96625 0.42166 0.95401 0.0
C401 C 0.96126 0.37061 0.94038 0.0
O402 O 0.95764 0.4004 0.90402 0.0
O403 O 0.94174 0.37855 0.88447 0.0
O404 O 0.95395 0.39232 0.98595 0.0
O405 O 0.93751 0.3813 0.95236 0.0
Co406 Co 0.59439 0.55814 0.9463 0.0
O407 O 0.57857 0.53855 0.95338 0.0
O408 O 0.57608 0.55825 0.94891 0.0
C409 C 0.61001 0.55855 0.97956 0.0
O410 O 0.60822 0.58005 0.94001 0.0
Co411 Co 0.62364 0.56284 0.92263 0.0
O412 O 0.63095 0.58358 0.93348 0.0
C413 C 0.59974 0.55687 0.88268 0.0
C414 C 0.57001 0.54418 0.95371 0.0
C415 C 0.6222 0.58853 0.93722 0.0
O416 O 0.59149 0.55514 0.90412 0.0
O417 O 0.61305 0.55966 0.88528 0.0
O418 O 0.59936 0.56092 0.98597 0.0
O419 O 0.60981 0.55398 0.95385 0.0
Co420 Co 0.9552 0.55718 0.44612 0.0
O421 O 0.95174 0.53763 0.45241 0.0
O422 O 0.97374 0.55781 0.45142 0.0
C423 C 0.93849 0.55647 0.47708 0.0
O424 O 0.9629 0.57912 0.44153 0.0
Co425 Co 0.93096 0.56139 0.41882 0.0
O426 O 0.94369 0.5821 0.43069 0.0
C427 C 0.95063 0.55656 0.38156 0.0
C428 C 0.9659 0.54362 0.45502 0.0
C429 C 0.95717 0.58731 0.4373 0.0
O430 O 0.95689 0.55523 0.40389 0.0
O431 O 0.93955 0.55854 0.38273 0.0
O432 O 0.95127 0.55891 0.48547 0.0
O433 O 0.93526 0.55242 0.45078 0.0
Co434 Co 0.43607 0.39845 0.45112 0.0
O435 O 0.45582 0.41451 0.45535 0.0
O436 O 0.43572 0.41637 0.45846 0.0
C437 C 0.43831 0.38248 0.47979 0.0
O438 O 0.41401 0.38431 0.44883 0.0
Co439 Co 0.43069 0.36999 0.42155 0.0
O440 O 0.41026 0.36217 0.43508 0.0
C441 C 0.43523 0.39507 0.38625 0.0
C442 C 0.44999 0.42272 0.4598 0.0
C443 C 0.40548 0.37051 0.44375 0.0
O444 O 0.43658 0.40227 0.40914 0.0
O445 O 0.4335 0.38207 0.38634 0.0
O446 O 0.43602 0.39261 0.49011 0.0
O447 O 0.44096 0.38331 0.45277 0.0
Co448 Co 0.59367 0.03764 0.45114 0.0
O449 O 0.57729 0.04088 0.45445 0.0
O450 O 0.57588 0.0191 0.45745 0.0
C451 C 0.60896 0.05569 0.48084 0.0
O452 O 0.60821 0.03023 0.44963 0.0
Co453 Co 0.62213 0.06134 0.42274 0.0
O454 O 0.6303 0.04922 0.43743 0.0
C455 C 0.59786 0.04056 0.38641 0.0
C456 C 0.56926 0.02678 0.45849 0.0
C457 C 0.62213 0.03594 0.44549 0.0
O458 O 0.59054 0.0345 0.40907 0.0
O459 O 0.6106 0.05217 0.38684 0.0
O460 O 0.59875 0.04309 0.49035 0.0
O461 O 0.60852 0.0578 0.45377 0.0
Co462 Co 0.22032 0.29167 0.39717 0.0
O463 O 0.20049 0.2879 0.39387 0.0
O464 O 0.22055 0.30999 0.39181 0.0
C465 C 0.21822 0.27417 0.36676 0.0
O466 O 0.24241 0.29978 0.39865 0.0
Co467 Co 0.22639 0.26857 0.42411 0.0
O468 O 0.24641 0.28111 0.40848 0.0
C469 C 0.22157 0.28812 0.46165 0.0
C470 C 0.20627 0.30202 0.39058 0.0
C471 C 0.25103 0.29444 0.40135 0.0
O472 O 0.21989 0.29414 0.43935 0.0
O473 O 0.22374 0.27715 0.46053 0.0
O474 O 0.22028 0.28675 0.35776 0.0
O475 O 0.21568 0.27174 0.39377 0.0
Co476 Co 0.70142 0.92989 0.39787 0.0
O477 O 0.70492 0.91383 0.39162 0.0
O478 O 0.68308 0.9123 0.38922 0.0
C479 C 0.71976 0.94655 0.37032 0.0
O480 O 0.69375 0.94411 0.40197 0.0
Co481 Co 0.72458 0.95749 0.42966 0.0
O482 O 0.71242 0.96593 0.4164 0.0
C483 C 0.70371 0.93168 0.46292 0.0
C484 C 0.6909 0.90587 0.38674 0.0
C485 C 0.69926 0.95787 0.4076 0.0
O486 O 0.69782 0.92507 0.43953 0.0
O487 O 0.7152 0.9445 0.4638 0.0
O488 O 0.70735 0.93677 0.35939 0.0
O489 O 0.72149 0.94491 0.39707 0.0
Co490 Co 0.06461 0.77388 0.40405 0.0
O491 O 0.08027 0.79298 0.39347 0.0
O492 O 0.08217 0.77288 0.39626 0.0
C493 C 0.04712 0.77345 0.3757 0.0
O494 O 0.05069 0.75233 0.41334 0.0
Co495 Co 0.03803 0.77169 0.43605 0.0
O496 O 0.03004 0.75024 0.43235 0.0
C497 C 0.06429 0.77762 0.46872 0.0
C498 C 0.08834 0.78689 0.39066 0.0
C499 C 0.03766 0.74463 0.42367 0.0
O500 O 0.07056 0.7778 0.44521 0.0
O501 O 0.05135 0.77595 0.46982 0.0
O502 O 0.05675 0.77028 0.366 0.0
O503 O 0.04944 0.77873 0.40127 0.0
C504 C 0.2867 0.94152 0.26958 0.0
C505 C 0.29517 0.93472 0.27399 0.0
C506 C 0.29358 0.9568 0.26602 0.0
C507 C 0.32859 0.98682 0.24042 0.0
H508 H 0.3168 0.01304 0.27419 0.0
C509 C 0.36616 0.0493 0.24161 0.0
C510 C 0.35996 0.05837 0.23812 0.0
C511 C 0.35719 0.03408 0.24358 0.0
C512 C 0.32004 0.0058 0.26423 0.0
H513 H 0.31732 0.93865 0.28083 0.0
H514 H 0.32923 0.9652 0.27489 0.0
H515 H 0.30292 0.98666 0.28502 0.0
H516 H 0.33946 0.05851 0.2329 0.0
H517 H 0.32376 0.03177 0.23611 0.0
H518 H 0.34572 0.00581 0.21976 0.0
C519 C 0.31734 0.95873 0.27338 0.0
C520 C 0.31215 0.99075 0.27053 0.0
C521 C 0.31051 0.94353 0.27689 0.0
C522 C 0.34459 0.05182 0.23559 0.0
C523 C 0.33559 0.03654 0.23766 0.0
C524 C 0.33641 0.00179 0.23405 0.0
C525 C 0.309 0.96543 0.26688 0.0
C526 C 0.31658 0.98121 0.25916 0.0
C527 C 0.34181 0.02755 0.24206 0.0
C528 C 0.33242 0.01148 0.24634 0.0
H529 H 0.27485 0.935 0.26731 0.0
H530 H 0.28691 0.96174 0.26113 0.0
H531 H 0.33201 0.97963 0.23079 0.0
H532 H 0.37796 0.05396 0.24357 0.0
H533 H 0.36231 0.02746 0.24729 0.0
C534 C 0.05009 0.3681 0.26734 0.0
C535 C 0.05933 0.36233 0.27349 0.0
C536 C 0.03511 0.35873 0.26274 0.0
C537 C 0.00416 0.32147 0.27373 0.0
H538 H 0.98827 0.33123 0.20831 0.0
C539 C 0.94278 0.28755 0.24275 0.0
C540 C 0.93618 0.29627 0.23914 0.0
C541 C 0.9581 0.2941 0.24367 0.0
C542 C 0.99256 0.32836 0.22661 0.0
H543 H 0.05988 0.34219 0.28136 0.0
H544 H 0.03357 0.3258 0.27341 0.0
H545 H 0.0145 0.34578 0.21871 0.0
H546 H 0.94038 0.3185 0.23198 0.0
H547 H 0.96701 0.32987 0.23356 0.0
H548 H 0.98209 0.30426 0.282 0.0
C549 C 0.03802 0.3376 0.27204 0.0
C550 C 0.00753 0.33671 0.23263 0.0
C551 C 0.05308 0.347 0.27661 0.0
C552 C 0.94515 0.31151 0.23503 0.0
C553 C 0.96041 0.31801 0.2357 0.0
C554 C 0.98913 0.3131 0.26771 0.0
C555 C 0.02902 0.34339 0.26423 0.0
C556 C 0.0134 0.33359 0.25666 0.0
C557 C 0.96703 0.30942 0.24062 0.0
C558 C 0.98315 0.31673 0.24451 0.0
H559 H 0.05449 0.37985 0.2651 0.0
H560 H 0.02832 0.36349 0.25745 0.0
H561 H 0.00842 0.31885 0.29238 0.0
H562 H 0.93613 0.27577 0.24596 0.0
H563 H 0.96296 0.28723 0.24726 0.0
C564 C 0.7074 0.65229 0.24541 0.0
C565 C 0.69777 0.637 0.24771 0.0
C566 C 0.70249 0.66216 0.25173 0.0
C567 C 0.6747 0.66414 0.29502 0.0
H568 H 0.67957 0.69579 0.24551 0.0
C569 C 0.63559 0.68688 0.29524 0.0
C570 C 0.64086 0.7018 0.2891 0.0
C571 C 0.6451 0.68123 0.29506 0.0
C572 C 0.67843 0.68723 0.25991 0.0
H573 H 0.67518 0.62011 0.25658 0.0
H574 H 0.66674 0.63729 0.26749 0.0
H575 H 0.69133 0.68141 0.23334 0.0
H576 H 0.66039 0.72271 0.27958 0.0
H577 H 0.67708 0.71274 0.27922 0.0
H578 H 0.6615 0.66961 0.32121 0.0
C579 C 0.67813 0.64163 0.26138 0.0
C580 C 0.6851 0.67897 0.25285 0.0
C581 C 0.68297 0.6318 0.25492 0.0
C582 C 0.65601 0.71116 0.28439 0.0
C583 C 0.66554 0.70545 0.28398 0.0
C584 C 0.66811 0.67241 0.30214 0.0
C585 C 0.68793 0.65687 0.26061 0.0
C586 C 0.68282 0.66703 0.26984 0.0
C587 C 0.66009 0.69035 0.28863 0.0
C588 C 0.66946 0.68368 0.28414 0.0
H589 H 0.71886 0.65666 0.23984 0.0
H590 H 0.71021 0.67389 0.2508 0.0
H591 H 0.67307 0.65517 0.3088 0.0
H592 H 0.62399 0.67942 0.29913 0.0
H593 H 0.64052 0.66951 0.29844 0.0
C594 C 0.64981 0.94208 0.78287 0.0
C595 C 0.6344 0.9357 0.78182 0.0
C596 C 0.65891 0.95731 0.77992 0.0
C597 C 0.65866 0.99251 0.78156 0.0
H598 H 0.69012 0.00554 0.72621 0.0
C599 C 0.68189 0.04833 0.7291 0.0
C600 C 0.6972 0.05763 0.73107 0.0
C601 C 0.67555 0.03333 0.73461 0.0
C602 C 0.68146 0.00204 0.74189 0.0
H603 H 0.61649 0.94037 0.77854 0.0
H604 H 0.63228 0.96675 0.77323 0.0
H605 H 0.67674 0.97966 0.74093 0.0
H606 H 0.71799 0.05828 0.73784 0.0
H607 H 0.70679 0.03186 0.74728 0.0
H608 H 0.66303 0.01472 0.78188 0.0
C609 C 0.63738 0.96007 0.77644 0.0
C610 C 0.67387 0.98729 0.75046 0.0
C611 C 0.62831 0.94491 0.77931 0.0
C612 C 0.70615 0.0514 0.73623 0.0
C613 C 0.69976 0.03631 0.7417 0.0
C614 C 0.66614 0.00716 0.77287 0.0
C615 C 0.65277 0.96641 0.77609 0.0
C616 C 0.66216 0.98232 0.7699 0.0
C617 C 0.68438 0.0273 0.7421 0.0
C618 C 0.67736 0.01198 0.75247 0.0
H619 H 0.65486 0.93529 0.78482 0.0
H620 H 0.67074 0.96193 0.78008 0.0
H621 H 0.6499 0.98908 0.79701 0.0
H622 H 0.6747 0.05274 0.72471 0.0
H623 H 0.66366 0.02652 0.73411 0.0
C624 C 0.05113 0.70332 0.7788 0.0
C625 C 0.05959 0.70033 0.75981 0.0
C626 C 0.03591 0.69687 0.77473 0.0
C627 C 0.00571 0.66469 0.73871 0.0
H628 H 0.9825 0.68263 0.75976 0.0
C629 C 0.9413 0.65024 0.73487 0.0
C630 C 0.93468 0.63563 0.74472 0.0
C631 C 0.95664 0.65915 0.73468 0.0
C632 C 0.98887 0.67756 0.75343 0.0
H633 H 0.05921 0.6894 0.72056 0.0
H634 H 0.03298 0.67872 0.71284 0.0
H635 H 0.00938 0.69709 0.76254 0.0
H636 H 0.939 0.61897 0.76212 0.0
H637 H 0.9655 0.63447 0.76217 0.0
H638 H 0.98539 0.64532 0.72905 0.0
C639 C 0.0378 0.6854 0.73157 0.0
C640 C 0.00423 0.68577 0.75538 0.0
C641 C 0.05284 0.69154 0.73595 0.0
C642 C 0.94369 0.63012 0.75419 0.0
C643 C 0.95893 0.639 0.75409 0.0
C644 C 0.99046 0.65659 0.73655 0.0
C645 C 0.02906 0.68759 0.75132 0.0
C646 C 0.0128 0.67936 0.74827 0.0
C647 C 0.96559 0.65359 0.7443 0.0
C648 C 0.98184 0.66282 0.74435 0.0
H649 H 0.05616 0.71016 0.79725 0.0
H650 H 0.02948 0.69872 0.79042 0.0
H651 H 0.0119 0.65928 0.73348 0.0
H652 H 0.93467 0.65483 0.72744 0.0
H653 H 0.96149 0.67033 0.72679 0.0
C654 C 0.36122 0.31229 0.72782 0.0
C655 C 0.35581 0.29717 0.73188 0.0
C656 C 0.35161 0.31781 0.72694 0.0
C657 C 0.31663 0.31048 0.75583 0.0
H658 H 0.32343 0.34326 0.70761 0.0
C659 C 0.28596 0.34391 0.76607 0.0
C660 C 0.29528 0.35928 0.76469 0.0
C661 C 0.29146 0.33446 0.7604 0.0
C662 C 0.3214 0.3341 0.72121 0.0
H663 H 0.33605 0.27586 0.7369 0.0
H664 H 0.31918 0.28563 0.73557 0.0
H665 H 0.33605 0.32956 0.69751 0.0
H666 H 0.31786 0.37675 0.75803 0.0
H667 H 0.32735 0.36032 0.74835 0.0
H668 H 0.30232 0.3154 0.78007 0.0
C669 C 0.33088 0.29315 0.73313 0.0
C670 C 0.32858 0.32625 0.71537 0.0
C671 C 0.34052 0.28757 0.7337 0.0
C672 C 0.31031 0.36498 0.75893 0.0
C673 C 0.31575 0.35558 0.75317 0.0
C674 C 0.30941 0.31835 0.76165 0.0
C675 C 0.33639 0.30836 0.73027 0.0
C676 C 0.32665 0.3147 0.73319 0.0
C677 C 0.30632 0.34025 0.75313 0.0
C678 C 0.31216 0.33055 0.74495 0.0
H679 H 0.37294 0.31994 0.72619 0.0
H680 H 0.3562 0.32961 0.72502 0.0
H681 H 0.31503 0.30168 0.77003 0.0
H682 H 0.27432 0.33916 0.77051 0.0
H683 H 0.28399 0.32266 0.76066 0.0
C684 C 0.02622 0.38307 0.55894 0.0
C685 C 0.02031 0.39244 0.56177 0.0
C686 C 0.01747 0.36801 0.56376 0.0
C687 C 0.98051 0.33656 0.57006 0.0
H688 H -0.00123 0.32379 0.62628 0.0
C689 C 0.95276 0.27637 0.61107 0.0
C690 C 0.96213 0.27037 0.61164 0.0
C691 C 0.95855 0.29152 0.60728 0.0
C692 C 0.99354 0.32714 0.61048 0.0
H693 H 0.00026 0.39316 0.56928 0.0
H694 H 0.98488 0.36661 0.57749 0.0
H695 H 0.01111 0.34947 0.61161 0.0
H696 H 0.98496 0.27568 0.60975 0.0
H697 H 0.99493 0.30184 0.60288 0.0
H698 H 0.96316 0.31404 0.56821 0.0
C699 C 0.99634 0.37107 0.57178 0.0
C700 C 0.0006 0.34183 0.6021 0.0
C701 C 0.00514 0.38623 0.56704 0.0
C702 C 0.9774 0.27989 0.60942 0.0
C703 C 0.98315 0.29495 0.60564 0.0
C704 C 0.97347 0.32174 0.57827 0.0
C705 C 0.00263 0.36199 0.57136 0.0
C706 C 0.99434 0.3466 0.58136 0.0
C707 C 0.9738 0.30093 0.60415 0.0
C708 C 0.98011 0.31684 0.59809 0.0
H709 H 0.0378 0.38746 0.55442 0.0
H710 H 0.02248 0.36114 0.56272 0.0
H711 H 0.97547 0.34004 0.55411 0.0
H712 H 0.94093 0.26933 0.6127 0.0
H713 H 0.95109 0.29584 0.60649 0.0
C714 C 0.61219 0.64485 0.56644 0.0
C715 C 0.60273 0.62951 0.56587 0.0
C716 C 0.62712 0.65077 0.57204 0.0
C717 C 0.65817 0.64447 0.57405 0.0
H718 H 0.67127 0.67313 0.63502 0.0
C719 C 0.71853 0.67504 0.61272 0.0
C720 C 0.72464 0.69041 0.61444 0.0
C721 C 0.70329 0.66582 0.61023 0.0
C722 C 0.6678 0.66518 0.61795 0.0
H723 H 0.60179 0.60836 0.56823 0.0
H724 H 0.62812 0.61886 0.57769 0.0
H725 H 0.64556 0.6606 0.62043 0.0
H726 H 0.71952 0.70805 0.61666 0.0
H727 H 0.69315 0.69208 0.61216 0.0
H728 H 0.68058 0.6495 0.57084 0.0
C729 C 0.62381 0.62621 0.57411 0.0
C730 C 0.65311 0.65803 0.6096 0.0
C731 C 0.60878 0.62023 0.56863 0.0
C732 C 0.71519 0.69628 0.61522 0.0
C733 C 0.70003 0.68709 0.61284 0.0
C734 C 0.67296 0.65175 0.58227 0.0
C735 C 0.63294 0.6415 0.57698 0.0
C736 C 0.64825 0.64791 0.58711 0.0
C737 C 0.69393 0.6718 0.60967 0.0
C738 C 0.67798 0.66246 0.60383 0.0
H739 H 0.60796 0.65233 0.56395 0.0
H740 H 0.63404 0.66263 0.5735 0.0
H741 H 0.65462 0.63667 0.55671 0.0
H742 H 0.72552 0.67018 0.61207 0.0
H743 H 0.69887 0.65406 0.60815 0.0
C744 C 0.29766 0.01805 0.61609 0.0
C745 C 0.30412 0.03347 0.61573 0.0
C746 C 0.30623 0.01151 0.61176 0.0
C747 C 0.34325 0.0166 0.61144 0.0
H748 H 0.32688 0.98652 0.55309 0.0
C749 C 0.37212 0.98473 0.5743 0.0
C750 C 0.36278 0.96935 0.57329 0.0
C751 C 0.36624 0.99404 0.57704 0.0
C752 C 0.33157 0.99485 0.56947 0.0
H753 H 0.32482 0.05412 0.61293 0.0
H754 H 0.33985 0.04255 0.60553 0.0
H755 H 0.31424 -0.00015 0.56581 0.0
H756 H 0.33995 0.95177 0.57308 0.0
H757 H 0.32978 0.96792 0.57802 0.0
H758 H 0.36038 0.01124 0.61566 0.0
C759 C 0.32812 0.03562 0.60895 0.0
C760 C 0.32433 0.00245 0.57677 0.0
C761 C 0.31951 0.04221 0.61322 0.0
C762 C 0.34747 0.96355 0.57391 0.0
C763 C 0.34162 0.97283 0.57654 0.0
C764 C 0.35048 0.00889 0.60425 0.0
C765 C 0.32143 0.02023 0.60709 0.0
C766 C 0.32991 0.01314 0.59827 0.0
C767 C 0.35093 0.98815 0.57856 0.0
C768 C 0.3445 0.9977 0.58364 0.0
H769 H 0.28588 0.01099 0.61845 0.0
H770 H 0.30088 -0.0004 0.6111 0.0
H771 H 0.34776 0.02483 0.62803 0.0
H772 H 0.38398 0.98954 0.57387 0.0
H773 H 0.37365 0.00583 0.57827 0.0
C774 C 0.35345 0.38117 0.06103 0.0
C775 C 0.36716 0.39127 0.07259 0.0
C776 C 0.34739 0.36613 0.06599 0.0
C777 C 0.35505 0.33779 0.09703 0.0
H778 H 0.31282 0.31744 0.10851 0.0
C779 C 0.31986 0.2747 0.11024 0.0
C780 C 0.30631 0.26887 0.12436 0.0
C781 C 0.32877 0.28991 0.10691 0.0
C782 C 0.32466 0.32296 0.10602 0.0
H783 H 0.38563 0.39368 0.09732 0.0
H784 H 0.37479 0.36747 0.10718 0.0
H785 H 0.32547 0.34302 0.09484 0.0
H786 H 0.29204 0.27418 0.1485 0.0
H787 H 0.30801 0.30076 0.14447 0.0
H788 H 0.35425 0.31782 0.10978 0.0
C789 C 0.36884 0.37102 0.09358 0.0
C790 C 0.33191 0.33763 0.09741 0.0
C791 C 0.37507 0.38606 0.08799 0.0
C792 C 0.30239 0.27846 0.13723 0.0
C793 C 0.31147 0.29367 0.13458 0.0
C794 C 0.34781 0.32314 0.10621 0.0
C795 C 0.35472 0.3609 0.08336 0.0
C796 C 0.34717 0.34521 0.09242 0.0
C797 C 0.32442 0.29957 0.1182 0.0
C798 C 0.33249 0.31549 0.11061 0.0
H799 H 0.34724 0.38496 0.0488 0.0
H800 H 0.33673 0.35864 0.0569 0.0
H801 H 0.3668 0.34322 0.09327 0.0
H802 H 0.32306 0.26749 0.09993 0.0
H803 H 0.33856 0.29396 0.09398 0.0
C804 C 0.61146 0.96989 0.0561 0.0
C805 C 0.60171 0.97434 0.06606 0.0
C806 C 0.62653 0.97856 0.06121 0.0
C807 C 0.65537 0.01495 0.09054 0.0
H808 H 0.6749 0.99254 0.10511 0.0
C809 C 0.71808 0.04237 0.10615 0.0
C810 C 0.72375 0.03459 0.12055 0.0
C811 C 0.70292 0.03612 0.10244 0.0
C812 C 0.6696 -0.00099 0.10181 0.0
H813 H 0.59993 0.99147 0.08823 0.0
H814 H 0.62604 0.00622 0.09854 0.0
H815 H 0.64945 0.97984 0.09082 0.0
H816 H 0.71824 0.01498 0.14479 0.0
H817 H 0.6917 0.0045 0.14031 0.0
H818 H 0.67532 0.03403 0.10342 0.0
C819 C 0.6223 0.99637 0.0859 0.0
C820 C 0.65501 0.99172 0.09278 0.0
C821 C 0.60729 0.9879 0.08004 0.0
C822 C 0.71406 0.02109 0.13335 0.0
C823 C 0.69888 0.01503 0.13041 0.0
C824 C 0.66989 0.02223 0.1003 0.0
C825 C 0.63208 0.99161 0.07726 0.0
C826 C 0.64773 -0.00042 0.08663 0.0
C827 C 0.69313 0.02212 0.1137 0.0
C828 C 0.67727 0.01437 0.10576 0.0
H829 H 0.60738 0.9595 0.04507 0.0
H830 H 0.63375 0.97477 0.0533 0.0
H831 H 0.65022 0.02144 0.08585 0.0
H832 H 0.72538 0.05276 0.09584 0.0
H833 H 0.69903 0.04191 0.08923 0.0
C834 C 0.97739 0.69766 0.10008 0.0
C835 C 0.96219 0.69142 0.10472 0.0
C836 C 0.98353 0.68873 0.09585 0.0
C837 C 0.97438 0.65186 0.07196 0.0
H838 H 0.01307 0.66372 0.10243 0.0
C839 C 0.00585 0.61904 0.06374 0.0
C840 C 0.02105 0.62771 0.05849 0.0
C841 C -0.00274 0.6257 0.06725 0.0
C842 C 0.0023 0.66035 0.09361 0.0
H843 H 0.94157 0.67083 0.1094 0.0
H844 H 0.95243 0.65515 0.10234 0.0
H845 H 0.00065 0.67709 0.11618 0.0
H846 H 0.03883 0.64989 0.04975 0.0
H847 H 0.02383 0.66141 0.05571 0.0
H848 H 0.97616 0.635 0.04947 0.0
C849 C 0.9595 0.66701 0.10162 0.0
C850 C 0.99519 0.66797 0.10151 0.0
C851 C 0.95332 0.67599 0.10589 0.0
C852 C 0.02721 0.64294 0.05432 0.0
C853 C 0.01865 0.64956 0.05781 0.0
C854 C 0.98151 0.64412 0.06418 0.0
C855 C 0.97465 0.67331 0.09629 0.0
C856 C 0.98131 0.66405 0.0903 0.0
C857 C 0.00378 0.64108 0.06553 0.0
C858 C 0.99567 0.64855 0.07446 0.0
H859 H 0.98457 0.70949 0.09904 0.0
H860 H 0.9952 0.69393 0.09139 0.0
H861 H 0.96372 0.64865 0.06283 0.0
H862 H 0.00079 0.60727 0.06699 0.0
H863 H 0.98578 0.61895 0.07309 0.0
C864 C 0.61902 0.61067 0.93278 0.0
C865 C 0.62832 0.60462 0.93483 0.0
C866 C 0.62485 0.62557 0.92609 0.0
C867 C 0.65606 0.65495 0.88842 0.0
H868 H 0.64887 0.68231 0.93114 0.0
C869 C 0.69585 0.7168 0.88877 0.0
C870 C 0.69047 0.7266 0.8915 0.0
C871 C 0.68623 0.70165 0.88914 0.0
C872 C 0.65071 0.67474 0.91858 0.0
H873 H 0.6511 0.60971 0.93346 0.0
H874 H 0.66113 0.63554 0.92184 0.0
H875 H 0.63571 0.65615 0.94365 0.0
H876 H 0.67067 0.7282 0.89504 0.0
H877 H 0.65382 0.7016 0.89556 0.0
H878 H 0.67125 0.67344 0.86372 0.0
C879 C 0.64935 0.62871 0.92483 0.0
C880 C 0.64324 0.65981 0.92585 0.0
C881 C 0.64358 0.61393 0.93166 0.0
C882 C 0.67517 0.72093 0.89297 0.0
C883 C 0.66552 0.70571 0.89347 0.0
C884 C 0.66344 0.6698 0.88105 0.0
C885 C 0.64001 0.63456 0.9212 0.0
C886 C 0.64624 0.64991 0.91141 0.0
C887 C 0.67101 0.69594 0.89224 0.0
C888 C 0.66122 0.67993 0.89665 0.0
H889 H 0.60722 0.60381 0.93518 0.0
H890 H 0.61746 0.62991 0.92357 0.0
H891 H 0.65831 0.64744 0.8766 0.0
H892 H 0.70757 0.72081 0.88742 0.0
H893 H 0.69083 0.69442 0.88845 0.0
C894 C 0.38508 0.01287 0.9492 0.0
C895 C 0.39111 0.02781 0.94192 0.0
C896 C 0.36981 0.00357 0.95039 0.0
C897 C 0.33764 0.98533 0.93147 0.0
H898 H 0.31333 0.0008 0.95946 0.0
C899 C 0.27603 0.96053 0.90252 0.0
C900 C 0.26695 0.96209 0.92234 0.0
C901 C 0.29109 0.96666 0.90804 0.0
C902 C 0.31987 0.99612 0.95199 0.0
H903 H 0.38581 0.04476 0.93093 0.0
H904 H 0.35941 0.02862 0.93262 0.0
H905 H 0.33974 0.01507 0.96539 0.0
H906 H 0.26593 0.96992 0.96428 0.0
H907 H 0.29188 0.97994 0.9745 0.0
H908 H 0.31761 0.96624 0.91841 0.0
C909 C 0.3664 0.02407 0.93777 0.0
C910 C 0.33507 0.00443 0.95506 0.0
C911 C 0.38158 0.03332 0.93661 0.0
C912 C 0.27285 0.96896 0.94836 0.0
C913 C 0.28772 0.97473 0.95415 0.0
C914 C 0.32234 0.9769 0.92862 0.0
C915 C 0.36034 0.00908 0.94445 0.0
C916 C 0.34415 -0.00069 0.94425 0.0
C917 C 0.29715 0.97413 0.93371 0.0
C918 C 0.3133 0.98233 0.93845 0.0
H919 H 0.39212 0.00828 0.95342 0.0
H920 H 0.36543 0.99209 0.95586 0.0
H921 H 0.34438 0.98113 0.92277 0.0
H922 H 0.27161 0.95515 0.8824 0.0
H923 H 0.29805 0.96607 0.89175 0.0
C924 C 0.01591 0.29587 0.91398 0.0
C925 C 0.03063 0.30137 0.90581 0.0
C926 C 0.01045 0.30539 0.91809 0.0
C927 C 0.0151 0.3414 0.90245 0.0
H928 H 0.99421 0.33508 0.97363 0.0
C929 C 0.98662 0.3744 0.93436 0.0
C930 C 0.97177 0.36521 0.94182 0.0
C931 C 0.99609 0.36867 0.93244 0.0
C932 C 5e-05 0.337 0.95373 0.0
H933 H 0.05084 0.32109 0.89347 0.0
H934 H 0.04109 0.33775 0.90038 0.0
H935 H 0.00615 0.3208 0.96287 0.0
H936 H 0.95537 0.3431 0.95459 0.0
H937 H 0.97187 0.33316 0.95145 0.0
H938 H 0.0085 0.35725 0.89292 0.0
C939 C 0.03393 0.32605 0.90388 0.0
C940 C 0.00683 0.32882 0.94755 0.0
C941 C 0.03947 0.31651 0.89992 0.0
C942 C 0.96674 0.35041 0.94863 0.0
C943 C 0.97622 0.34475 0.94703 0.0
C944 C 0.00824 0.34958 0.90861 0.0
C945 C 0.01953 0.3206 0.91395 0.0
C946 C 0.014 0.33062 0.9215 0.0
C947 C 0.9909 0.35374 0.93841 0.0
C948 C 0.00028 0.3471 0.93395 0.0
H949 H 0.00872 0.28427 0.91839 0.0
H950 H -0.00082 0.30089 0.92523 0.0
H951 H 0.0206 0.34297 0.88226 0.0
H952 H 0.99077 0.38585 0.9289 0.0
H953 H 0.00739 0.37582 0.92587 0.0
C954 C 0.03461 0.72033 0.4086 0.0
C955 C 0.03143 0.72869 0.42753 0.0
C956 C 0.02797 0.70506 0.41209 0.0
C957 C 0.99527 0.67447 0.44623 0.0
H958 H 0.01369 0.65161 0.42578 0.0
C959 C 0.98118 0.61008 0.44875 0.0
C960 C 0.96662 0.60349 0.43874 0.0
C961 C 0.99004 0.62544 0.44931 0.0
C962 C 0.00848 0.65788 0.43194 0.0
H963 H 0.01978 0.72797 0.46599 0.0
H964 H 0.00872 0.7016 0.47274 0.0
H965 H 0.02805 0.67852 0.42399 0.0
H966 H 0.95004 0.60785 0.42108 0.0
H967 H 0.96546 0.63436 0.42153 0.0
H968 H 0.97587 0.654 0.45485 0.0
C969 C 0.01576 0.70658 0.45449 0.0
C970 C 0.01663 0.67326 0.43055 0.0
C971 C 0.02212 0.72171 0.45068 0.0
C972 C 0.96114 0.61253 0.42924 0.0
C973 C 0.96998 0.62777 0.42962 0.0
C974 C 0.98722 0.65918 0.44789 0.0
C975 C 0.01827 0.698 0.43487 0.0
C976 C 0.01005 0.68171 0.43742 0.0
C977 C 0.98449 0.63442 0.43979 0.0
C978 C 0.99362 0.65069 0.44028 0.0
H979 H 0.04181 0.72552 0.39064 0.0
H980 H 0.03005 0.69876 0.39646 0.0
H981 H 0.98974 0.68056 0.45126 0.0
H982 H 0.98572 0.60341 0.45622 0.0
H983 H 0.00115 0.63026 0.45746 0.0
C984 C 0.27331 0.31971 0.40134 0.0
C985 C 0.26709 0.30435 0.39906 0.0
C986 C 0.28857 0.32883 0.40357 0.0
C987 C 0.32386 0.32939 0.39359 0.0
H988 H 0.33761 0.35694 0.45647 0.0
C989 C 0.38003 0.34897 0.4421 0.0
C990 C 0.38937 0.36428 0.44444 0.0
C991 C 0.36507 0.3431 0.4369 0.0
C992 C 0.33392 0.34941 0.43866 0.0
H993 H 0.27201 0.28661 0.39557 0.0
H994 H 0.29846 0.30242 0.39951 0.0
H995 H 0.31156 0.34442 0.4431 0.0
H996 H 0.3901 0.38535 0.44549 0.0
H997 H 0.36374 0.37494 0.43659 0.0
H998 H 0.34604 0.33396 0.38973 0.0
C999 C 0.29163 0.30748 0.39952 0.0
C1000 C 0.31906 0.34232 0.43089 0.0
C1001 C 0.27644 0.29839 0.39745 0.0
C1002 C 0.3832 0.3735 0.44371 0.0
C1003 C 0.36814 0.36758 0.43856 0.0
C1004 C 0.33862 0.33638 0.40144 0.0
C1005 C 0.29785 0.32274 0.40325 0.0
C1006 C 0.31384 0.33195 0.40873 0.0
C1007 C 0.3591 0.35238 0.43403 0.0
C1008 C 0.3437 0.34615 0.4245 0.0
H1009 H 0.26639 0.32464 0.40266 0.0
H1010 H 0.29309 0.34058 0.40613 0.0
H1011 H 0.32021 0.32168 0.37607 0.0
H1012 H 0.38437 0.34153 0.44302 0.0
H1013 H 0.35823 0.33129 0.4342 0.0
C1014 C 0.67434 0.95557 0.40579 0.0
C1015 C 0.68976 0.96449 0.40572 0.0
C1016 C 0.66542 0.96194 0.4076 0.0
C1017 C 0.6658 0.99713 0.39912 0.0
H1018 H 0.63619 0.9822 0.45844 0.0
C1019 C 0.64408 0.0327 0.44465 0.0
C1020 C 0.62872 0.02638 0.44638 0.0
C1021 C 0.65033 0.0239 0.43984 0.0
C1022 C 0.64429 0.98636 0.4416 0.0
H1023 H 0.7079 0.98704 0.40584 0.0
H1024 H 0.6924 -0.0019 0.40897 0.0
H1025 H 0.64899 0.96881 0.44631 0.0
H1026 H 0.60793 0.00575 0.44651 0.0
H1027 H 0.61897 0.99033 0.43819 0.0
H1028 H 0.66139 0.01485 0.39481 0.0
C1029 C 0.68717 0.98622 0.40764 0.0
C1030 C 0.65156 0.97869 0.43456 0.0
C1031 C 0.69606 0.97987 0.40606 0.0
C1032 C 0.61981 0.01095 0.44525 0.0
C1033 C 0.6261 0.00212 0.44043 0.0
C1034 C 0.65858 0.00479 0.40618 0.0
C1035 C 0.67179 0.97732 0.40901 0.0
C1036 C 0.66264 0.98421 0.41372 0.0
C1037 C 0.64138 0.0086 0.43668 0.0
C1038 C 0.64804 -0.00031 0.42796 0.0
H1039 H 0.66916 0.94367 0.40556 0.0
H1040 H 0.65358 0.95485 0.40835 0.0
H1041 H 0.67409 0.00148 0.38261 0.0
H1042 H 0.65129 0.04452 0.44584 0.0
H1043 H 0.66219 0.02913 0.43778 0.0
C1044 C 0.29195 0.06003 0.50145 0.0
C1045 C 0.29588 0.06924 0.52539 0.0
C1046 C 0.30006 0.06503 0.47621 0.0
C1047 C 0.33715 0.09296 0.45046 0.0
H1048 H 0.31917 0.08132 0.37626 0.0
C1049 C 0.37091 0.10016 0.34814 0.0
C1050 C 0.36628 0.10366 0.32278 0.0
C1051 C 0.36255 0.09717 0.373 0.0
C1052 C 0.32439 0.08482 0.39679 0.0
H1053 H 0.31103 0.09127 0.54079 0.0
H1054 H 0.32488 0.09999 0.49688 0.0
H1055 H 0.30364 0.0739 0.41841 0.0
H1056 H 0.34949 0.10743 0.3043 0.0
H1057 H 0.33514 0.10247 0.34758 0.0
H1058 H 0.35789 0.10398 0.42887 0.0
C1059 C 0.31577 0.08878 0.49776 0.0
C1060 C 0.31546 0.08039 0.42102 0.0
C1061 C 0.30771 0.08379 0.52295 0.0
C1062 C 0.3534 0.1047 0.32331 0.0
C1063 C 0.34507 0.10171 0.34813 0.0
C1064 C 0.34607 0.09736 0.42625 0.0
C1065 C 0.31228 0.07938 0.47422 0.0
C1066 C 0.32171 0.08437 0.44822 0.0
C1067 C 0.34935 0.09761 0.37319 0.0
C1068 C 0.33983 0.09332 0.39905 0.0
H1069 H 0.28299 0.04875 0.50252 0.0
H1070 H 0.29708 0.05744 0.45861 0.0
H1071 H 0.3424 0.09608 0.47103 0.0
H1072 H 0.3807 0.09918 0.34861 0.0
H1073 H 0.36617 0.09396 0.3918 0.0
C1074 C 0.93746 0.22999 0.50366 0.0
C1075 C 0.92788 0.2236 0.52683 0.0
C1076 C 0.93243 0.23296 0.47834 0.0
C1077 C 0.89886 0.22488 0.43746 0.0
H1078 H 0.92387 0.26394 0.40648 0.0
C1079 C 0.88794 0.24466 0.32955 0.0
C1080 C 0.89107 0.25937 0.3276 0.0
C1081 C 0.89125 0.23945 0.3542 0.0
C1082 C 0.91669 0.25303 0.41496 0.0
H1083 H 0.90523 0.21451 0.5407 0.0
H1084 H 0.89652 0.21958 0.49662 0.0
H1085 H 0.93219 0.25583 0.44732 0.0
H1086 H 0.89958 0.27988 0.35087 0.0
H1087 H 0.90528 0.27076 0.39382 0.0
H1088 H 0.8833 0.22217 0.40515 0.0
C1089 C 0.90793 0.22235 0.49802 0.0
C1090 C 0.92156 0.24829 0.43816 0.0
C1091 C 0.91296 0.21947 0.52338 0.0
C1092 C 0.89699 0.2685 0.3515 0.0
C1093 C 0.90041 0.26332 0.37607 0.0
C1094 C 0.89404 0.22958 0.41406 0.0
C1095 C 0.91769 0.22951 0.47545 0.0
C1096 C 0.9127 0.23418 0.44981 0.0
C1097 C 0.8979 0.24883 0.37752 0.0
C1098 C 0.90286 0.24376 0.40261 0.0
H1099 H 0.94901 0.23334 0.50548 0.0
H1100 H 0.9402 0.23828 0.46121 0.0
H1101 H 0.89178 0.21391 0.44579 0.0
H1102 H 0.88338 0.23727 0.31163 0.0
H1103 H 0.88921 0.22825 0.35451 0.0
C1104 C 0.7639 0.70335 0.50007 0.0
C1105 C 0.76942 0.69995 0.52435 0.0
C1106 C 0.76098 0.69496 0.47525 0.0
C1107 C 0.75228 0.65771 0.45216 0.0
H1108 H 0.75887 0.67436 0.37666 0.0
C1109 C 0.72583 0.62252 0.35127 0.0
C1110 C 0.73417 0.62664 0.32611 0.0
C1111 C 0.73119 0.63116 0.37578 0.0
C1112 C 0.75707 0.66952 0.39759 0.0
H1113 H 0.77698 0.68551 0.54076 0.0
H1114 H 0.77207 0.67113 0.49765 0.0
H1115 H 0.76676 0.69066 0.4178 0.0
H1116 H 0.75512 0.64278 0.30777 0.0
H1117 H 0.76446 0.65764 0.35046 0.0
H1118 H 0.74262 0.63658 0.432 0.0
C1119 C 0.76968 0.68005 0.49794 0.0
C1120 C 0.76146 0.67888 0.4212 0.0
C1121 C 0.77261 0.68842 0.52265 0.0
C1122 C 0.74831 0.63923 0.32662 0.0
C1123 C 0.75364 0.64788 0.35107 0.0
C1124 C 0.74783 0.64836 0.42858 0.0
C1125 C 0.7635 0.68296 0.47413 0.0
C1126 C 0.75911 0.6731 0.44881 0.0
C1127 C 0.74502 0.64416 0.37577 0.0
C1128 C 0.75015 0.65413 0.40096 0.0
H1129 H 0.76124 0.71209 0.50057 0.0
H1130 H 0.75617 0.69748 0.45735 0.0
H1131 H 0.75011 0.65284 0.4731 0.0
H1132 H 0.71487 0.61297 0.35174 0.0
H1133 H 0.72421 0.62799 0.39437 0.0
C1134 C 0.1058 0.37498 0.16426 0.0
C1135 C 0.10427 0.36846 0.19099 0.0
C1136 C 0.103 0.36662 0.13939 0.0
C1137 C 0.09564 0.32946 0.11284 0.0
H1138 H 0.07877 0.33911 0.04903 0.0
C1139 C 0.06405 0.29023 0.01757 0.0
C1140 C 0.06918 0.29644 0.99061 0.0
C1141 C 0.06948 0.29891 0.04211 0.0
C1142 C 0.08352 0.33632 0.06669 0.0
H1143 H 0.09865 0.34794 0.21233 0.0
H1144 H 0.09319 0.33341 0.16971 0.0
H1145 H 0.08623 0.35469 0.09102 0.0
H1146 H 0.08424 0.3167 0.9686 0.0
H1147 H 0.09328 0.33174 0.01116 0.0
H1148 H 0.09215 0.31062 0.08858 0.0
C1149 C 0.09706 0.34506 0.16746 0.0
C1150 C 0.08796 0.34535 0.09076 0.0
C1151 C 0.10014 0.35346 0.19216 0.0
C1152 C 0.08005 0.31146 0.98892 0.0
C1153 C 0.0852 0.32015 0.01329 0.0
C1154 C 0.09087 0.32026 0.08898 0.0
C1155 C 0.09829 0.35142 0.14061 0.0
C1156 C 0.0941 0.34208 0.11431 0.0
C1157 C 0.07987 0.31403 0.04011 0.0
C1158 C 0.08479 0.32361 0.06566 0.0
H1159 H 0.10901 0.38651 0.16253 0.0
H1160 H 0.10445 0.37211 0.11924 0.0
H1161 H 0.10061 0.32665 0.13003 0.0
H1162 H 0.05568 0.27874 0.01969 0.0
H1163 H 0.06518 0.29393 0.06258 0.0
C1164 C 0.64075 0.74702 0.18689 0.0
C1165 C 0.62981 0.73217 0.19063 0.0
C1166 C 0.64889 0.75177 0.16176 0.0
C1167 C 0.66086 0.73763 0.10175 0.0
H1168 H 0.67325 0.77603 0.06906 0.0
C1169 C 0.68969 0.77167 0.99252 0.0
C1170 C 0.70087 0.7681 0.98889 0.0
C1171 C 0.68156 0.76818 0.01767 0.0
C1172 C 0.66985 0.76524 0.07783 0.0
H1173 H 0.61853 0.71081 0.17007 0.0
H1174 H 0.63263 0.71914 0.12609 0.0
H1175 H 0.65692 0.76777 0.11011 0.0
H1176 H 0.71257 0.75852 0.00964 0.0
H1177 H 0.69848 0.7526 0.05367 0.0
H1178 H 0.67359 0.735 0.0692 0.0
C1179 C 0.63505 0.72707 0.14287 0.0
C1180 C 0.66056 0.76055 0.10154 0.0
C1181 C 0.62684 0.72232 0.16802 0.0
C1182 C 0.70408 0.76146 0.01161 0.0
C1183 C 0.69588 0.75792 0.03678 0.0
C1184 C 0.67018 0.74234 0.07809 0.0
C1185 C 0.64637 0.7418 0.13962 0.0
C1186 C 0.65592 0.74666 0.11382 0.0
C1187 C 0.68433 0.76099 0.03994 0.0
C1188 C 0.6748 0.75621 0.06578 0.0
H1189 H 0.64337 0.75496 0.20376 0.0
H1190 H 0.65757 0.76316 0.16016 0.0
H1191 H 0.65769 0.72696 0.11083 0.0
H1192 H 0.68687 0.77678 0.97557 0.0
H1193 H 0.6727 0.77063 0.01918 0.0
C1194 C 0.24324 0.8863 0.1843 0.0
C1195 C 0.25809 0.88995 0.18616 0.0
C1196 C 0.23787 0.8897 0.15999 0.0
C1197 C 0.22774 0.8929 0.10083 0.0
H1198 H 0.25287 0.93182 0.06934 0.0
C1199 C 0.21608 0.91278 0.99399 0.0
C1200 C 0.21974 0.92763 0.99166 0.0
C1201 C 0.21936 0.90755 0.01865 0.0
C1202 C 0.24564 0.92096 0.07801 0.0
H1203 H 0.27875 0.89954 0.16311 0.0
H1204 H 0.26934 0.90538 0.12069 0.0
H1205 H 0.26159 0.92338 0.10907 0.0
H1206 H 0.22907 0.94839 0.01432 0.0
H1207 H 0.23465 0.93921 0.05736 0.0
H1208 H 0.21176 0.89054 0.06979 0.0
C1209 C 0.26189 0.90001 0.13825 0.0
C1210 C 0.25074 0.91604 0.10056 0.0
C1211 C 0.26725 0.89651 0.1625 0.0
C1212 C 0.22603 0.93689 0.01529 0.0
C1213 C 0.22941 0.93167 0.03989 0.0
C1214 C 0.22269 0.89779 0.0781 0.0
C1215 C 0.24721 0.89695 0.13693 0.0
C1216 C 0.24187 0.90194 0.1123 0.0
C1217 C 0.22646 0.91703 0.0416 0.0
C1218 C 0.23156 0.91191 0.06643 0.0
H1219 H 0.23583 0.88125 0.20205 0.0
H1220 H 0.22653 0.88723 0.15981 0.0
H1221 H 0.22064 0.88196 0.10924 0.0
H1222 H 0.21124 0.90531 0.97627 0.0
H1223 H 0.21697 0.89623 0.01914 0.0
C1224 C 0.62049 0.8901 0.6684 0.0
C1225 C 0.62731 0.89113 0.69466 0.0
C1226 C 0.62845 0.89288 0.643 0.0
C1227 C 0.66533 0.91512 0.61525 0.0
H1228 H 0.65368 0.88787 0.55226 0.0
C1229 C 0.70253 0.92958 0.51626 0.0
C1230 C 0.69569 0.92483 0.48973 0.0
C1231 C 0.69435 0.92428 0.54135 0.0
C1232 C 0.65704 0.89577 0.56937 0.0
H1233 H 0.64789 0.8957 0.71448 0.0
H1234 H 0.66168 0.90088 0.67047 0.0
H1235 H 0.63843 0.88101 0.59483 0.0
H1236 H 0.67484 0.9106 0.46892 0.0
H1237 H 0.6606 0.90193 0.51211 0.0
H1238 H 0.6835 0.9302 0.58984 0.0
C1239 C 0.65016 0.89778 0.66955 0.0
C1240 C 0.64828 0.89175 0.59384 0.0
C1241 C 0.64218 0.89471 0.69477 0.0
C1242 C 0.68056 0.91439 0.48896 0.0
C1243 C 0.67234 0.90934 0.51394 0.0
C1244 C 0.67392 0.91929 0.59062 0.0
C1245 C 0.64346 0.89707 0.64345 0.0
C1246 C 0.65239 0.90136 0.61706 0.0
C1247 C 0.67903 0.91434 0.5406 0.0
C1248 C 0.66997 0.90967 0.56725 0.0
H1249 H 0.60909 0.88739 0.6675 0.0
H1250 H 0.62304 0.89229 0.6231 0.0
H1251 H 0.66869 0.92279 0.6328 0.0
H1252 H 0.71417 0.93756 0.51767 0.0
H1253 H 0.70008 0.92814 0.56133 0.0
C1254 C 0.08572 0.77868 0.49481 0.0
C1255 C 0.07164 0.77726 0.49553 0.0
C1256 C 0.09158 0.77561 0.51881 0.0
C1257 C 0.08713 0.76964 0.59687 0.0
H1258 H 0.10591 0.74633 0.58387 0.0
C1259 C 0.11141 0.75278 0.68955 0.0
C1260 C 0.10825 0.73805 0.69009 0.0
C1261 C 0.10878 0.75875 0.66522 0.0
C1262 C 0.10066 0.7528 0.58792 0.0
H1263 H 0.05305 0.77217 0.52286 0.0
H1264 H 0.06325 0.76684 0.5646 0.0
H1265 H 0.09759 0.75486 0.54366 0.0
H1266 H 0.10049 0.7183 0.66465 0.0
H1267 H 0.09589 0.7287 0.62223 0.0
H1268 H 0.08976 0.76717 0.64114 0.0
C1269 C 0.06982 0.7704 0.54546 0.0
C1270 C 0.09603 0.75786 0.56481 0.0
C1271 C 0.06395 0.77347 0.52143 0.0
C1272 C 0.10316 0.7297 0.66504 0.0
C1273 C 0.1005 0.73568 0.64065 0.0
C1274 C 0.09178 0.76461 0.61997 0.0
C1275 C 0.08355 0.77104 0.54426 0.0
C1276 C 0.08911 0.76628 0.56895 0.0
C1277 C 0.10289 0.75016 0.64067 0.0
C1278 C 0.09854 0.75604 0.61585 0.0
H1279 H 0.09205 0.78163 0.47535 0.0
H1280 H 0.10232 0.77655 0.51723 0.0
H1281 H 0.08196 0.77618 0.60093 0.0
H1282 H 0.11544 0.75961 0.70832 0.0
H1283 H 0.1111 0.77004 0.66586 0.0
C1284 C 0.21939 0.30697 0.49075 0.0
C1285 C 0.22249 0.29537 0.48933 0.0
C1286 C 0.22239 0.31546 0.51529 0.0
C1287 C 0.23054 0.31694 0.592 0.0
H1288 H 0.24993 0.35922 0.5804 0.0
C1289 C 0.2438 0.35699 0.68566 0.0
C1290 C 0.2581 0.36936 0.68638 0.0
C1291 C 0.23847 0.34836 0.66122 0.0
C1292 C 0.24456 0.34745 0.58403 0.0
H1293 H 0.23055 0.28323 0.51341 0.0
H1294 H 0.23574 0.29805 0.55637 0.0
H1295 H 0.24231 0.34275 0.53959 0.0
H1296 H 0.27764 0.3827 0.66114 0.0
H1297 H 0.26827 0.36768 0.61847 0.0
H1298 H 0.23307 0.32167 0.63645 0.0
C1299 C 0.23095 0.30054 0.53837 0.0
C1300 C 0.24005 0.33798 0.56062 0.0
C1301 C 0.22797 0.29203 0.51371 0.0
C1302 C 0.26657 0.37332 0.66142 0.0
C1303 C 0.26119 0.36468 0.6369 0.0
C1304 C 0.23498 0.32641 0.61542 0.0
C1305 C 0.22855 0.31261 0.53919 0.0
C1306 C 0.23302 0.3226 0.56429 0.0
C1307 C 0.24723 0.35185 0.63676 0.0
C1308 C 0.24209 0.3418 0.61174 0.0
H1309 H 0.21504 0.30984 0.47254 0.0
H1310 H 0.22008 0.32445 0.51537 0.0
H1311 H 0.22509 0.30516 0.59561 0.0
H1312 H 0.23688 0.3536 0.70435 0.0
H1313 H 0.22754 0.33874 0.66168 0.0
C1314 C 0.92895 0.70728 1.00131 0.0
C1315 C 0.92316 0.70063 0.02765 0.0
C1316 C 0.92349 0.69928 0.97602 0.0
C1317 C 0.89299 0.66303 0.94724 0.0
H1318 H 0.92083 0.67166 0.88614 0.0
C1319 C 0.88689 0.62362 0.85305 0.0
C1320 C 0.88835 0.62987 0.826 0.0
C1321 C 0.8897 0.63224 0.87756 0.0
C1322 C 0.91293 0.66917 0.90305 0.0
H1323 H 0.9068 0.68033 0.04775 0.0
H1324 H 0.8979 0.6664 1.00452 0.0
H1325 H 0.92854 0.68707 0.92837 0.0
H1326 H 0.89368 0.65013 0.8038 0.0
H1327 H 0.89893 0.66506 0.84637 0.0
H1328 H 0.87769 0.64457 0.92206 0.0
C1329 C 0.90627 0.6779 1.00285 0.0
C1330 C 0.91728 0.6781 0.92723 0.0
C1331 C 0.9115 0.68595 0.02794 0.0
C1332 C 0.89234 0.64485 0.82418 0.0
C1333 C 0.89545 0.65348 0.84855 0.0
C1334 C 0.88878 0.65388 0.92331 0.0
C1335 C 0.9123 0.68432 0.97643 0.0
C1336 C 0.9074 0.67519 0.94984 0.0
C1337 C 0.89434 0.64733 0.87545 0.0
C1338 C 0.89871 0.65688 0.901 0.0
H1339 H 0.9379 0.71857 1.00023 0.0
H1340 H 0.92823 0.70483 0.95621 0.0
H1341 H 0.88486 0.66051 0.96363 0.0
H1342 H 0.88389 0.61217 0.85526 0.0
H1343 H 0.88878 0.62725 0.89811 0.0
C1344 C 0.29023 0.23256 1.00562 0.0
C1345 C 0.29379 0.22645 0.02876 0.0
C1346 C 0.29824 0.23582 0.98025 0.0
C1347 C 0.3349 0.24449 0.95385 0.0
H1348 H 0.31706 0.23892 0.87964 0.0
C1349 C 0.36866 0.27149 0.85165 0.0
C1350 C 0.36425 0.26312 0.82655 0.0
C1351 C 0.36025 0.2662 0.87646 0.0
C1352 C 0.32222 0.24045 0.90019 0.0
H1353 H 0.30818 0.2183 0.04255 0.0
H1354 H 0.32195 0.22386 0.99848 0.0
H1355 H 0.30145 0.23065 0.92178 0.0
H1356 H 0.3477 0.24228 0.80846 0.0
H1357 H 0.3332 0.23312 0.8516 0.0
H1358 H 0.35566 0.25427 0.9323 0.0
C1359 C 0.31315 0.22639 1.0001 0.0
C1360 C 0.31327 0.23584 0.92437 0.0
C1361 C 0.30513 0.22309 0.02536 0.0
C1362 C 0.35147 0.24911 0.82726 0.0
C1363 C 0.34305 0.24387 0.85198 0.0
C1364 C 0.34386 0.24919 0.9297 0.0
C1365 C 0.31004 0.23311 0.97744 0.0
C1366 C 0.31948 0.23779 0.95153 0.0
C1367 C 0.34718 0.25244 0.87678 0.0
C1368 C 0.33764 0.24723 0.90254 0.0
H1369 H 0.28162 0.23535 0.00743 0.0
H1370 H 0.29558 0.24104 0.96327 0.0
H1371 H 0.34009 0.24634 0.97443 0.0
H1372 H 0.37839 0.28234 0.85197 0.0
H1373 H 0.36372 0.27314 0.89512 0.0
C1374 C 0.74493 0.10274 0.82456 0.0
C1375 C 0.73066 0.10077 0.82207 0.0
C1376 C 0.74952 0.09917 0.84967 0.0
C1377 C 0.74153 0.09195 0.92629 0.0
H1378 H 0.76219 0.07008 0.91845 0.0
C1379 C 0.76742 0.07931 0.02249 0.0
C1380 C 0.76498 0.06486 0.02499 0.0
C1381 C 0.76393 0.08407 0.9975 0.0
C1382 C 0.75638 0.07613 0.92103 0.0
H1383 H 0.71031 0.09405 0.84488 0.0
H1384 H 0.71841 0.08795 0.88882 0.0
H1385 H 0.75453 0.07795 0.87619 0.0
H1386 H 0.75742 0.0443 1.00235 0.0
H1387 H 0.75146 0.05269 0.95859 0.0
H1388 H 0.74324 0.08999 0.97114 0.0
C1389 C 0.72603 0.09226 0.87119 0.0
C1390 C 0.75212 0.08078 0.89679 0.0
C1391 C 0.72138 0.09578 0.84596 0.0
C1392 C 0.75951 0.0555 1.00127 0.0
C1393 C 0.75609 0.06032 0.97613 0.0
C1394 C 0.74589 0.08741 0.95053 0.0
C1395 C 0.74004 0.0936 0.87313 0.0
C1396 C 0.74464 0.08876 0.89908 0.0
C1397 C 0.75796 0.07457 0.97416 0.0
C1398 C 0.75338 0.07943 0.94823 0.0
H1399 H 0.75247 0.10663 0.80678 0.0
H1400 H 0.76049 0.10063 0.85058 0.0
H1401 H 0.73586 0.09813 0.92887 0.0
H1402 H 0.77166 0.0869 0.04016 0.0
H1403 H 0.76579 0.0952 0.99656 0.0
C1404 C 0.02026 0.43964 0.65818 0.0
C1405 C 0.03114 0.43567 0.65439 0.0
C1406 C 0.01208 0.4362 0.68328 0.0
C1407 C -0.00028 0.40958 0.74245 0.0
H1408 H 0.98681 0.43508 0.7755 0.0
C1409 C 0.95558 0.38866 0.83069 0.0
C1410 C 0.95854 0.39808 0.85404 0.0
C1411 C 0.96392 0.39382 0.80576 0.0
C1412 C 0.99035 0.42783 0.76662 0.0
H1413 H 0.04233 0.42549 0.67488 0.0
H1414 H 0.02816 0.41963 0.71881 0.0
H1415 H 0.00361 0.44369 0.7351 0.0
H1416 H 0.97214 0.42061 0.86862 0.0
H1417 H 0.98656 0.42953 0.82536 0.0
H1418 H 0.98665 0.3938 0.77417 0.0
C1419 C 0.02582 0.42523 0.70208 0.0
C1420 C -9e-05 0.43273 0.74329 0.0
C1421 C 0.03408 0.42875 0.67698 0.0
C1422 C 0.96951 0.41299 0.85116 0.0
C1423 C 0.9778 0.41814 0.82623 0.0
C1424 C 0.99012 0.40466 0.76569 0.0
C1425 C 0.01449 0.42862 0.70532 0.0
C1426 C 0.00474 0.42367 0.73087 0.0
C1427 C 0.97539 0.40854 0.80346 0.0
C1428 C 0.98528 0.4137 0.7781 0.0
H1429 H 0.01767 0.44499 0.64132 0.0
H1430 H 0.00341 0.43892 0.68486 0.0
H1431 H 0.00302 0.4022 0.73326 0.0
H1432 H 0.94726 0.37712 0.83204 0.0
H1433 H 0.96156 0.38617 0.78846 0.0
C1434 C 0.57926 0.55387 0.85068 0.0
C1435 C 0.59409 0.55768 0.85414 0.0
C1436 C 0.57445 0.55725 0.8256 0.0
C1437 C 0.58875 0.58369 0.76622 0.0
H1438 H 0.55011 0.55861 0.73372 0.0
C1439 C 0.56546 0.60487 0.67834 0.0
C1440 C 0.55883 0.59538 0.65514 0.0
C1441 C 0.56879 0.59975 0.70316 0.0
C1442 C 0.56096 0.56574 0.74246 0.0
H1443 H 0.61528 0.56737 0.83301 0.0
H1444 H 0.60682 0.57307 0.78914 0.0
H1445 H 0.55821 0.54984 0.774 0.0
H1446 H 0.54984 0.57283 0.64063 0.0
H1447 H 0.55558 0.56399 0.68371 0.0
H1448 H 0.59158 0.59952 0.7345 0.0
C1449 C 0.59897 0.56768 0.8061 0.0
C1450 C 0.56557 0.56074 0.7657 0.0
C1451 C 0.60378 0.56423 0.83117 0.0
C1452 C 0.55497 0.5805 0.65799 0.0
C1453 C 0.55822 0.57538 0.68281 0.0
C1454 C 0.58411 0.58871 0.74307 0.0
C1455 C 0.58433 0.56457 0.80327 0.0
C1456 C 0.57954 0.56964 0.77788 0.0
C1457 C 0.56549 0.58501 0.7055 0.0
C1458 C 0.57016 0.57981 0.73084 0.0
H1459 H 0.57145 0.54883 0.86785 0.0
H1460 H 0.56312 0.55474 0.82429 0.0
H1461 H 0.59949 0.59094 0.77526 0.0
H1462 H 0.56864 0.61639 0.67696 0.0
H1463 H 0.57418 0.60742 0.72039 0.0
C1464 C 0.43087 0.03719 0.82755 0.0
C1465 C 0.43505 0.03344 0.85317 0.0
C1466 C 0.42775 0.02825 0.80349 0.0
C1467 C 0.41611 0.98978 0.78332 0.0
H1468 H 0.42613 0.00589 0.70741 0.0
C1469 C 0.38998 0.955 0.68162 0.0
C1470 C 0.39883 0.95845 0.65723 0.0
C1471 C 0.39539 0.96353 0.70629 0.0
C1472 C 0.42337 0.00118 0.72847 0.0
H1473 H 0.43987 0.01761 0.87292 0.0
H1474 H 0.43463 0.00224 0.83105 0.0
H1475 H 0.43426 0.02248 0.74802 0.0
H1476 H 0.42071 0.97309 0.64054 0.0
H1477 H 0.43012 0.9877 0.68347 0.0
H1478 H 0.40525 0.96847 0.76374 0.0
C1479 C 0.43347 0.01193 0.82969 0.0
C1480 C 0.42789 0.01072 0.75177 0.0
C1481 C 0.43661 0.02085 0.85369 0.0
C1482 C 0.41349 0.97013 0.65875 0.0
C1483 C 0.41888 0.97863 0.68335 0.0
C1484 C 0.41154 0.98023 0.76 0.0
C1485 C 0.42872 0.01533 0.80441 0.0
C1486 C 0.42429 0.00517 0.77953 0.0
C1487 C 0.40979 0.97571 0.70719 0.0
C1488 C 0.41506 0.98579 0.73223 0.0
H1489 H 0.42948 0.04674 0.8263 0.0
H1490 H 0.42404 0.03119 0.78446 0.0
H1491 H 0.41297 0.98509 0.80435 0.0
H1492 H 0.37862 0.94616 0.68128 0.0
H1493 H 0.38805 0.96097 0.72419 0.0
C1494 C 0.5576 0.95799 0.17933 0.0
C1495 C 0.55793 0.96478 0.15344 0.0
C1496 C 0.56051 0.96581 0.20493 0.0
C1497 C 0.5657 0.00144 0.23572 0.0
H1498 H 0.58537 0.99259 0.29558 0.0
C1499 C 0.59707 0.03948 0.33278 0.0
C1500 C 0.59182 0.03259 0.3592 0.0
C1501 C 0.59208 0.03133 0.30755 0.0
C1502 C 0.57987 0.99515 0.27899 0.0
H1503 H 0.5616 0.98521 0.1344 0.0
H1504 H 0.56726 -0.00115 0.17815 0.0
H1505 H 0.5781 0.97784 0.25243 0.0
H1506 H 0.57715 0.01166 0.37958 0.0
H1507 H 0.56892 0.99754 0.33579 0.0
H1508 H 0.56822 0.01924 0.26219 0.0
C1509 C 0.56422 0.98736 0.17926 0.0
C1510 C 0.57552 0.9866 0.2543 0.0
C1511 C 0.56102 0.97948 0.15389 0.0
C1512 C 0.58138 0.01742 0.35969 0.0
C1513 C 0.5767 0.00926 0.33463 0.0
C1514 C 0.57038 0.0102 0.26016 0.0
C1515 C 0.56414 0.98074 0.20525 0.0
C1516 C 0.56834 0.98957 0.23219 0.0
C1517 C 0.58206 0.01608 0.30835 0.0
C1518 C 0.57746 0.00711 0.28204 0.0
H1519 H 0.55523 0.94668 0.1798 0.0
H1520 H 0.55998 0.96013 0.22441 0.0
H1521 H 0.5599 0.00396 0.21973 0.0
H1522 H 0.60513 0.05112 0.33162 0.0
H1523 H 0.59639 0.03682 0.28747 0.0
C1524 C 0.96963 0.55495 0.35153 0.0
C1525 C 0.95782 0.55769 0.35365 0.0
C1526 C 0.97804 0.55835 0.32669 0.0
C1527 C 0.9905 0.56109 0.26679 0.0
H1528 H 0.00115 0.59867 0.23212 0.0
C1529 C 0.01962 0.57959 0.15753 0.0
C1530 C 0.03027 0.59454 0.15375 0.0
C1531 C 0.01148 0.57469 0.18267 0.0
C1532 C -0.00161 0.5882 0.24166 0.0
H1533 H 0.94527 0.56561 0.33049 0.0
H1534 H 0.95985 0.57142 0.28719 0.0
H1535 H 0.98489 0.59029 0.27326 0.0
H1536 H 0.041 0.61595 0.17416 0.0
H1537 H 0.02683 0.60737 0.21808 0.0
H1538 H 0.0041 0.55906 0.23524 0.0
C1539 C 0.96272 0.5668 0.30495 0.0
C1540 C 0.98889 0.58329 0.26504 0.0
C1541 C 0.95424 0.5633 0.32973 0.0
C1542 C 0.03294 0.60436 0.17629 0.0
C1543 C 0.0247 0.59946 0.20138 0.0
C1544 C -8e-05 0.56595 0.24325 0.0
C1545 C 0.97493 0.56467 0.30332 0.0
C1546 C 0.98479 0.56966 0.27793 0.0
C1547 C 0.01367 0.58461 0.2047 0.0
C1548 C 0.00401 0.57959 0.23037 0.0
H1549 H 0.97276 0.55065 0.36945 0.0
H1550 H 0.98738 0.55661 0.32628 0.0
H1551 H 0.98754 0.55051 0.27608 0.0
H1552 H 0.01723 0.57168 0.14071 0.0
H1553 H 0.00304 0.56321 0.18436 0.0
C1554 C 0.41404 0.4416 0.16087 0.0
C1555 C 0.39925 0.43802 0.15801 0.0
C1556 C 0.41912 0.43866 0.18606 0.0
C1557 C 0.4105 0.42947 0.26221 0.0
H1558 H 0.4344 0.41102 0.25323 0.0
C1559 C 0.43535 0.41564 0.35861 0.0
C1560 C 0.4341 0.40162 0.35897 0.0
C1561 C 0.43227 0.42107 0.33401 0.0
C1562 C 0.4277 0.41612 0.25613 0.0
H1563 H 0.37845 0.42925 0.18032 0.0
H1564 H 0.38734 0.42421 0.22431 0.0
H1565 H 0.42655 0.41901 0.21148 0.0
H1566 H 0.42916 0.38261 0.33304 0.0
H1567 H 0.42387 0.39211 0.29012 0.0
H1568 H 0.41139 0.42628 0.30684 0.0
C1569 C 0.39502 0.4293 0.20697 0.0
C1570 C 0.42333 0.42085 0.2322 0.0
C1571 C 0.38991 0.43221 0.18168 0.0
C1572 C 0.43031 0.39346 0.33362 0.0
C1573 C 0.42727 0.39892 0.30895 0.0
C1574 C 0.41494 0.4248 0.28617 0.0
C1575 C 0.40958 0.4321 0.20919 0.0
C1576 C 0.41462 0.42755 0.23489 0.0
C1577 C 0.42791 0.41267 0.309 0.0
C1578 C 0.42356 0.418 0.28345 0.0
H1579 H 0.42163 0.44617 0.14324 0.0
H1580 H 0.43048 0.44126 0.18722 0.0
H1581 H 0.40387 0.43464 0.2651 0.0
H1582 H 0.4383 0.42232 0.3776 0.0
H1583 H 0.43316 0.43181 0.33469 0.0
C1584 C 0.29588 0.18087 0.13173 0.0
C1585 C 0.30552 0.19614 0.12973 0.0
C1586 C 0.3012 0.1715 0.13919 0.0
C1587 C 0.33527 0.16943 0.14502 0.0
H1588 H 0.31351 0.14011 0.20275 0.0
C1589 C 0.36106 0.14116 0.20758 0.0
C1590 C 0.3525 0.12586 0.21151 0.0
C1591 C 0.35475 0.1491 0.19673 0.0
C1592 C 0.31961 0.14812 0.18637 0.0
H1593 H 0.32831 0.21353 0.13302 0.0
H1594 H 0.33757 0.1972 0.14627 0.0
H1595 H 0.30358 0.15499 0.18371 0.0
H1596 H 0.33054 0.1069 0.20788 0.0
H1597 H 0.31948 0.12083 0.18889 0.0
H1598 H 0.35141 0.16271 0.14801 0.0
C1599 C 0.32594 0.19244 0.14183 0.0
C1600 C 0.31391 0.15662 0.17542 0.0
C1601 C 0.32062 0.20181 0.13438 0.0
C1602 C 0.3374 0.1187 0.2051 0.0
C1603 C 0.33107 0.12666 0.19429 0.0
C1604 C 0.34097 0.16096 0.156 0.0
C1605 C 0.31625 0.17721 0.14476 0.0
C1606 C 0.32178 0.16748 0.15486 0.0
C1607 C 0.33974 0.14191 0.18961 0.0
C1608 C 0.33329 0.15035 0.17705 0.0
H1609 H 0.28418 0.17618 0.12815 0.0
H1610 H 0.2935 0.15978 0.14088 0.0
H1611 H 0.34146 0.17754 0.12886 0.0
H1612 H 0.37272 0.14701 0.21242 0.0
H1613 H 0.36165 0.16088 0.19385 0.0
C1614 C 0.81145 0.11201 0.12977 0.0
C1615 C 0.79622 0.1064 0.12729 0.0
C1616 C 0.82068 0.12647 0.1388 0.0
C1617 C 0.82272 0.16241 0.14852 0.0
H1618 H 0.85124 0.16821 0.20674 0.0
C1619 C 0.85192 0.21572 0.21337 0.0
C1620 C 0.86716 0.22197 0.21733 0.0
C1621 C 0.84359 0.20154 0.20238 0.0
C1622 C 0.84344 0.16679 0.19028 0.0
H1623 H 0.77876 0.11167 0.13124 0.0
H1624 H 0.79485 0.13688 0.14712 0.0
H1625 H 0.83633 0.14389 0.18559 0.0
H1626 H 0.88558 0.21811 0.2138 0.0
H1627 H 0.87099 0.19327 0.19447 0.0
H1628 H 0.82973 0.18526 0.15338 0.0
C1629 C 0.79969 0.13015 0.14193 0.0
C1630 C 0.83494 0.15289 0.17811 0.0
C1631 C 0.79046 0.11569 0.13293 0.0
C1632 C 0.87384 0.21357 0.21099 0.0
C1633 C 0.86549 0.19935 0.19999 0.0
C1634 C 0.83121 0.17629 0.16069 0.0
C1635 C 0.81486 0.1356 0.14546 0.0
C1636 C 0.82441 0.15053 0.15725 0.0
C1637 C 0.85033 0.1933 0.19512 0.0
C1638 C 0.84157 0.1786 0.18186 0.0
H1639 H 0.81622 0.10512 0.12548 0.0
H1640 H 0.83236 0.13045 0.1409 0.0
H1641 H 0.81485 0.16098 0.1322 0.0
H1642 H 0.84644 0.22189 0.21821 0.0
H1643 H 0.83188 0.19706 0.19937 0.0
C1644 C 0.77578 0.62949 0.21184 0.0
C1645 C 0.77001 0.6389 0.2159 0.0
C1646 C 0.79033 0.63512 0.20312 0.0
C1647 C 0.82624 0.66926 0.19949 0.0
H1648 H 0.83436 0.64854 0.14045 0.0
C1649 C 0.8822 0.69492 0.14332 0.0
C1650 C 0.88829 0.68585 0.13859 0.0
C1651 C 0.86772 0.68893 0.15268 0.0
C1652 C 0.83229 0.65435 0.15718 0.0
H1653 H 0.77498 0.66161 0.21446 0.0
H1654 H 0.80044 0.67147 0.19902 0.0
H1655 H 0.80921 0.63871 0.15758 0.0
H1656 H 0.88396 0.66334 0.13944 0.0
H1657 H 0.85858 0.65282 0.15603 0.0
H1658 H 0.84929 0.68491 0.19906 0.0
C1659 C 0.79372 0.65974 0.20282 0.0
C1660 C 0.8179 0.64873 0.16698 0.0
C1661 C 0.77914 0.6541 0.21153 0.0
C1662 C 0.87954 0.6706 0.14289 0.0
C1663 C 0.86501 0.66458 0.15228 0.0
C1664 C 0.84062 0.67487 0.1897 0.0
C1665 C 0.79942 0.65028 0.1983 0.0
C1666 C 0.81472 0.65616 0.18818 0.0
C1667 C 0.85901 0.67372 0.15754 0.0
C1668 C 0.84378 0.66752 0.16834 0.0
H1669 H 0.76903 0.61772 0.21516 0.0
H1670 H 0.79447 0.62759 0.20024 0.0
H1671 H 0.82416 0.6751 0.21615 0.0
H1672 H 0.88864 0.70672 0.14005 0.0
H1673 H 0.86332 0.69621 0.15603 0.0
C1674 C 0.14304 0.3653 0.30414 0.0
C1675 C 0.1277 0.35654 0.3013 0.0
C1676 C 0.15133 0.35924 0.31434 0.0
C1677 C 0.15068 0.32419 0.32492 0.0
H1678 H 0.18101 0.34651 0.38059 0.0
C1679 C 0.18166 0.29954 0.38232 0.0
C1680 C 0.19702 0.30855 0.38408 0.0
C1681 C 0.17292 0.30541 0.37378 0.0
C1682 C 0.17266 0.34021 0.3649 0.0
H1683 H 0.10901 0.3345 0.30632 0.0
H1684 H 0.12352 0.3239 0.32429 0.0
H1685 H 0.16628 0.35659 0.36152 0.0
H1686 H 0.21527 0.33085 0.37918 0.0
H1687 H 0.19999 0.3411 0.36405 0.0
H1688 H 0.15711 0.30785 0.32817 0.0
C1689 C 0.12913 0.33544 0.31843 0.0
C1690 C 0.16424 0.34598 0.35396 0.0
C1691 C 0.12083 0.34151 0.30823 0.0
C1692 C 0.20345 0.32364 0.37802 0.0
C1693 C 0.1947 0.32952 0.36948 0.0
C1694 C 0.1591 0.31842 0.33586 0.0
C1695 C 0.14444 0.34429 0.32191 0.0
C1696 C 0.15321 0.33805 0.33377 0.0
C1697 C 0.17938 0.3204 0.36684 0.0
C1698 C 0.1702 0.32639 0.3559 0.0
H1699 H 0.14866 0.37692 0.29887 0.0
H1700 H 0.16314 0.36627 0.31633 0.0
H1701 H 0.14238 0.31792 0.30913 0.0
H1702 H 0.17638 0.28787 0.38701 0.0
H1703 H 0.16112 0.29817 0.37241 0.0
C1704 C 0.66949 0.88222 0.36969 0.0
C1705 C 0.68443 0.89048 0.3772 0.0
C1706 C 0.66375 0.86803 0.3586 0.0
C1707 C 0.67538 0.8446 0.32175 0.0
H1708 H 0.63755 0.81244 0.34597 0.0
C1709 C 0.65588 0.78366 0.29758 0.0
C1710 C 0.6409 0.77431 0.29149 0.0
C1711 C 0.66102 0.79824 0.30569 0.0
C1712 C 0.64803 0.82136 0.33867 0.0
H1713 H 0.70496 0.89023 0.37984 0.0
H1714 H 0.69491 0.86547 0.36084 0.0
H1715 H 0.64666 0.83697 0.36589 0.0
H1716 H 0.61966 0.77302 0.2879 0.0
H1717 H 0.62868 0.79853 0.30175 0.0
H1718 H 0.67681 0.82898 0.29471 0.0
C1719 C 0.6877 0.87003 0.36302 0.0
C1720 C 0.65325 0.83539 0.35012 0.0
C1721 C 0.69342 0.88417 0.3741 0.0
C1722 C 0.63126 0.77995 0.2926 0.0
C1723 C 0.6364 0.79452 0.30072 0.0
C1724 C 0.67016 0.83058 0.31028 0.0
C1725 C 0.67286 0.86189 0.3548 0.0
C1726 C 0.66704 0.84711 0.34197 0.0
C1727 C 0.65127 0.80374 0.30785 0.0
C1728 C 0.65648 0.81879 0.31879 0.0
H1729 H 0.66232 0.88683 0.37181 0.0
H1730 H 0.65229 0.86203 0.35232 0.0
H1731 H 0.68593 0.85349 0.31469 0.0
H1732 H 0.66356 0.77961 0.29693 0.0
H1733 H 0.67252 0.80504 0.31128 0.0
C1734 C 0.10991 0.81079 0.37609 0.0
C1735 C 0.10371 0.7956 0.38082 0.0
C1736 C 0.1242 0.81911 0.36573 0.0
C1737 C 0.15244 0.81595 0.32566 0.0
H1738 H 0.17852 0.85479 0.35658 0.0
C1739 C 0.21414 0.84996 0.29755 0.0
C1740 C 0.22033 0.86526 0.29427 0.0
C1741 C 0.19966 0.84133 0.30687 0.0
C1742 C 0.1713 0.84405 0.34746 0.0
H1743 H 0.10765 0.77719 0.37875 0.0
H1744 H 0.13281 0.79182 0.3607 0.0
H1745 H 0.154 0.83978 0.37661 0.0
H1746 H 0.21611 0.88346 0.29727 0.0
H1747 H 0.19069 0.86831 0.31332 0.0
H1748 H 0.16976 0.82025 0.29648 0.0
C1749 C 0.1265 0.79723 0.36479 0.0
C1750 C 0.15728 0.83544 0.35899 0.0
C1751 C 0.11215 0.78889 0.37527 0.0
C1752 C 0.21164 0.8717 0.29971 0.0
C1753 C 0.19713 0.86305 0.30907 0.0
C1754 C 0.16647 0.82459 0.31409 0.0
C1755 C 0.13263 0.81242 0.35984 0.0
C1756 C 0.14769 0.82132 0.34817 0.0
C1757 C 0.19106 0.8478 0.31312 0.0
C1758 C 0.17603 0.83874 0.32485 0.0
H1759 H 0.10367 0.81629 0.3801 0.0
H1760 H 0.12856 0.83074 0.36179 0.0
H1761 H 0.1452 0.8052 0.31662 0.0
H1762 H 0.22057 0.84467 0.29352 0.0
H1763 H 0.19535 0.82964 0.31004 0.0
C1764 C 0.63226 0.85189 0.80543 0.0
C1765 C 0.64092 0.86726 0.80285 0.0
C1766 C 0.63836 0.84366 0.81569 0.0
C1767 C 0.67339 0.84448 0.82783 0.0
H1768 H 0.6507 0.8144 0.88375 0.0
C1769 C 0.69736 0.81309 0.8863 0.0
C1770 C 0.68818 0.79773 0.88777 0.0
C1771 C 0.69169 0.82202 0.87786 0.0
C1772 C 0.65711 0.82269 0.86802 0.0
H1773 H 0.66287 0.88604 0.80807 0.0
H1774 H 0.67356 0.87162 0.82613 0.0
H1775 H 0.64075 0.82903 0.86358 0.0
H1776 H 0.66578 0.77971 0.88265 0.0
H1777 H 0.65591 0.79531 0.86774 0.0
H1778 H 0.6897 0.83806 0.83209 0.0
C1779 C 0.66206 0.86595 0.82008 0.0
C1780 C 0.65141 0.83104 0.85643 0.0
C1781 C 0.65594 0.8742 0.80982 0.0
C1782 C 0.67312 0.79152 0.88174 0.0
C1783 C 0.66745 0.80046 0.8733 0.0
C1784 C 0.67909 0.83612 0.83941 0.0
C1785 C 0.65326 0.85063 0.82357 0.0
C1786 C 0.65945 0.84195 0.83608 0.0
C1787 C 0.67674 0.81577 0.87076 0.0
C1788 C 0.67097 0.82509 0.85951 0.0
H1789 H 0.62066 0.84622 0.80008 0.0
H1790 H 0.63139 0.83183 0.81766 0.0
H1791 H 0.67976 0.85271 0.81198 0.0
H1792 H 0.709 0.81819 0.89095 0.0
H1793 H 0.69906 0.83382 0.87656 0.0
C1794 C 0.12138 0.7815 0.80552 0.0
C1795 C 0.12776 0.77264 0.8014 0.0
C1796 C 0.12995 0.79598 0.81517 0.0
C1797 C 0.16428 0.8199 0.85387 0.0
H1798 H 0.16012 0.85168 0.82187 0.0
C1799 C 0.20446 0.88131 0.87871 0.0
C1800 C 0.19822 0.89032 0.88253 0.0
C1801 C 0.19575 0.86676 0.86952 0.0
C1802 C 0.16128 0.84289 0.83124 0.0
H1803 H 0.14814 0.77205 0.80339 0.0
H1804 H 0.16305 0.79729 0.81986 0.0
H1805 H 0.14501 0.82671 0.80374 0.0
H1806 H 0.17794 0.89109 0.88059 0.0
H1807 H 0.16278 0.86573 0.86494 0.0
H1808 H 0.18057 0.83608 0.88135 0.0
C1809 C 0.15141 0.79301 0.81615 0.0
C1810 C 0.15263 0.8286 0.82085 0.0
C1811 C 0.14288 0.77858 0.80653 0.0
C1812 C 0.18309 0.88444 0.87767 0.0
C1813 C 0.17441 0.86994 0.86852 0.0
C1814 C 0.17293 0.83418 0.86426 0.0
C1815 C 0.14502 0.80182 0.82086 0.0
C1816 C 0.15406 0.81697 0.83203 0.0
C1817 C 0.18067 0.861 0.86401 0.0
C1818 C 0.17152 0.84582 0.85306 0.0
H1819 H 0.10975 0.77719 0.80177 0.0
H1820 H 0.1247 0.80249 0.8188 0.0
H1821 H 0.16546 0.8111 0.86321 0.0
H1822 H 0.2161 0.88556 0.88225 0.0
H1823 H 0.2009 0.86015 0.86603 0.0
C1824 C 0.11334 0.3221 0.87468 0.0
C1825 C 0.10506 0.30707 0.88151 0.0
C1826 C 0.12778 0.32811 0.86487 0.0
C1827 C 0.15223 0.31744 0.82956 0.0
H1828 H 0.18338 0.35535 0.8559 0.0
C1829 C 0.21352 0.33996 0.80243 0.0
C1830 C 0.22206 0.3551 0.79665 0.0
C1831 C 0.19906 0.33401 0.8121 0.0
C1832 C 0.17476 0.34483 0.84807 0.0
H1833 H 0.10549 0.28661 0.88419 0.0
H1834 H 0.1307 0.29713 0.8673 0.0
H1835 H 0.1586 0.3453 0.87508 0.0
H1836 H 0.22204 0.37579 0.79552 0.0
H1837 H 0.19677 0.36536 0.81193 0.0
H1838 H 0.16836 0.31698 0.80248 0.0
C1839 C 0.12598 0.30422 0.86913 0.0
C1840 C 0.16059 0.33908 0.8591 0.0
C1841 C 0.11158 0.29823 0.87899 0.0
C1842 C 0.21576 0.36409 0.79999 0.0
C1843 C 0.20132 0.35814 0.80957 0.0
C1844 C 0.16639 0.32321 0.81849 0.0
C1845 C 0.13416 0.31917 0.86166 0.0
C1846 C 0.1492 0.32531 0.84999 0.0
C1847 C 0.19288 0.34308 0.81609 0.0
C1848 C 0.1778 0.33696 0.82764 0.0
H1849 H 0.10858 0.32916 0.87637 0.0
H1850 H 0.13381 0.33965 0.85907 0.0
H1851 H 0.1436 0.30689 0.82183 0.0
H1852 H 0.21811 0.33278 0.8001 0.0
H1853 H 0.19287 0.32238 0.81717 0.0
C1854 C 0.87255 0.65578 0.70683 0.0
C1855 C 0.86595 0.64077 0.71369 0.0
C1856 C 0.86402 0.66158 0.69645 0.0
C1857 C 0.82877 0.65031 0.66066 0.0
H1858 H 0.83507 0.68815 0.68643 0.0
C1859 C 0.78879 0.67171 0.636 0.0
C1860 C 0.79506 0.68677 0.62984 0.0
C1861 C 0.79767 0.66602 0.64476 0.0
C1862 C 0.83331 0.67765 0.67876 0.0
H1863 H 0.84523 0.62011 0.7158 0.0
H1864 H 0.83038 0.63026 0.69805 0.0
H1865 H 0.85018 0.67853 0.70556 0.0
H1866 H 0.81556 0.70759 0.62692 0.0
H1867 H 0.83104 0.69762 0.64189 0.0
H1868 H 0.81184 0.6494 0.63397 0.0
C1869 C 0.84215 0.6375 0.70019 0.0
C1870 C 0.84195 0.67215 0.68973 0.0
C1871 C 0.85065 0.63172 0.71055 0.0
C1872 C 0.81039 0.69594 0.6317 0.0
C1873 C 0.81926 0.69026 0.64044 0.0
C1874 C 0.82012 0.65581 0.64969 0.0
C1875 C 0.84876 0.65244 0.69275 0.0
C1876 C 0.83973 0.6584 0.68087 0.0
C1877 C 0.81297 0.6753 0.64751 0.0
C1878 C 0.82229 0.66953 0.65866 0.0
H1879 H 0.88432 0.663 0.70899 0.0
H1880 H 0.86943 0.67312 0.69069 0.0
H1881 H 0.82696 0.63978 0.65309 0.0
H1882 H 0.77699 0.66439 0.63478 0.0
H1883 H 0.7925 0.65445 0.65026 0.0
C1884 C 0.34049 0.21587 0.71298 0.0
C1885 C 0.35538 0.2248 0.7203 0.0
C1886 C 0.33527 0.20152 0.7033 0.0
C1887 C 0.34795 0.17837 0.6691 0.0
H1888 H 0.30953 0.14644 0.69121 0.0
C1889 C 0.32579 0.11723 0.63862 0.0
C1890 C 0.31082 0.10899 0.63137 0.0
C1891 C 0.33173 0.13165 0.64867 0.0
C1892 C 0.32022 0.15529 0.6846 0.0
H1893 H 0.37637 0.22559 0.72413 0.0
H1894 H 0.36718 0.20044 0.70755 0.0
H1895 H 0.31885 0.17075 0.71215 0.0
H1896 H 0.2905 0.10957 0.62757 0.0
H1897 H 0.30089 0.13471 0.64475 0.0
H1898 H 0.34928 0.16285 0.6415 0.0
C1899 C 0.35962 0.20462 0.70887 0.0
C1900 C 0.32556 0.16919 0.69663 0.0
C1901 C 0.36484 0.21897 0.71857 0.0
C1902 C 0.30205 0.1156 0.6332 0.0
C1903 C 0.30797 0.12997 0.64323 0.0
C1904 C 0.34261 0.16443 0.65707 0.0
C1905 C 0.34482 0.19582 0.70077 0.0
C1906 C 0.33944 0.1809 0.68888 0.0
C1907 C 0.32278 0.13802 0.65165 0.0
C1908 C 0.32864 0.15279 0.66455 0.0
H1909 H 0.33294 0.22008 0.71402 0.0
H1910 H 0.32384 0.19506 0.69697 0.0
H1911 H 0.3586 0.18724 0.66241 0.0
H1912 H 0.33281 0.11241 0.63743 0.0
H1913 H 0.34318 0.13758 0.65509 0.0
C1914 C 0.87957 0.20674 0.63984 0.0
C1915 C 0.88823 0.20032 0.63376 0.0
C1916 C 0.86519 0.19807 0.64986 0.0
C1917 C 0.84174 0.16295 0.68669 0.0
H1918 H 0.80971 0.16855 0.66144 0.0
C1919 C 0.78059 0.12231 0.71235 0.0
C1920 C 0.77163 0.1284 0.71846 0.0
C1921 C 0.79514 0.13137 0.70358 0.0
C1922 C 0.81859 0.16699 0.66896 0.0
H1923 H 0.88846 0.17975 0.63222 0.0
H1924 H 0.86335 0.16464 0.64923 0.0
H1925 H 0.83426 0.1838 0.64156 0.0
H1926 H 0.77104 0.14876 0.72144 0.0
H1927 H 0.79644 0.16453 0.70643 0.0
H1928 H 0.82603 0.14607 0.71397 0.0
C1929 C 0.86774 0.17638 0.64686 0.0
C1930 C 0.83263 0.17571 0.65755 0.0
C1931 C 0.88209 0.18503 0.63691 0.0
C1932 C 0.77765 0.14373 0.71669 0.0
C1933 C 0.79216 0.15276 0.70791 0.0
C1934 C 0.82769 0.15422 0.69808 0.0
C1935 C 0.85923 0.18284 0.65394 0.0
C1936 C 0.84434 0.17373 0.6662 0.0
C1937 C 0.80097 0.14665 0.70075 0.0
C1938 C 0.81597 0.15613 0.68928 0.0
H1939 H 0.88404 0.21851 0.63768 0.0
H1940 H 0.85891 0.20337 0.65528 0.0
H1941 H 0.8506 0.16135 0.69417 0.0
H1942 H 0.77624 0.11053 0.71352 0.0
H1943 H 0.80166 0.12634 0.69805 0.0
C1944 C 0.00244 0.4578 0.54622 0.0
C1945 C 0.01749 0.46375 0.55201 0.0
C1946 C -0.00297 0.46697 0.53769 0.0
C1947 C 0.0094 0.50256 0.50285 0.0
H1948 H 0.97162 0.49687 0.52729 0.0
C1949 C 0.98759 0.54147 0.4705 0.0
C1950 C 0.97254 0.53474 0.46388 0.0
C1951 C 0.99345 0.53313 0.48158 0.0
C1952 C 0.98214 0.49849 0.52006 0.0
H1953 H 0.03855 0.48399 0.55479 0.0
H1954 H 0.02908 0.49996 0.54022 0.0
H1955 H 0.98099 0.48182 0.54788 0.0
H1956 H 0.95195 0.51395 0.46262 0.0
H1957 H 0.96221 0.49941 0.48151 0.0
H1958 H 0.0105 0.51914 0.47485 0.0
C1959 C 0.02151 0.48821 0.54175 0.0
C1960 C 0.9875 0.4899 0.53189 0.0
C1961 C 0.02691 0.47907 0.55027 0.0
C1962 C 0.96358 0.51947 0.46767 0.0
C1963 C 0.96942 0.51115 0.47871 0.0
C1964 C 0.00404 0.51115 0.491 0.0
C1965 C 0.00658 0.48223 0.53481 0.0
C1966 C 0.00114 0.49178 0.52328 0.0
C1967 C 0.98436 0.51792 0.48623 0.0
C1968 C 0.99029 0.50912 0.49932 0.0
H1969 H 0.99492 0.44603 0.54738 0.0
H1970 H 0.98548 0.46203 0.53232 0.0
H1971 H 0.01986 0.50411 0.49546 0.0
H1972 H 0.99475 0.55324 0.46786 0.0
H1973 H 0.00499 0.53866 0.4873 0.0
C1974 C 0.5383 0.54653 0.5436 0.0
C1975 C 0.53209 0.5553 0.55037 0.0
C1976 C 0.52935 0.53199 0.53462 0.0
C1977 C 0.49087 0.50136 0.5332 0.0
H1978 H 0.50383 0.48896 0.46708 0.0
C1979 C 0.45288 0.44691 0.47496 0.0
C1980 C 0.45925 0.43836 0.46758 0.0
C1981 C 0.4617 0.46139 0.48443 0.0
C1982 C 0.50012 0.49222 0.4857 0.0
H1983 H 0.51162 0.55561 0.55405 0.0
H1984 H 0.49605 0.53031 0.53831 0.0
H1985 H 0.51954 0.51346 0.48675 0.0
H1986 H 0.47985 0.43834 0.4636 0.0
H1987 H 0.49517 0.46348 0.48025 0.0
H1988 H 0.47145 0.4801 0.53215 0.0
C1989 C 0.5078 0.5346 0.54007 0.0
C1990 C 0.50914 0.50622 0.49702 0.0
C1991 C 0.51674 0.54912 0.54897 0.0
C1992 C 0.47461 0.44466 0.46912 0.0
C1993 C 0.48341 0.4591 0.47853 0.0
C1994 C 0.48185 0.48734 0.52189 0.0
C1995 C 0.51403 0.52597 0.53235 0.0
C1996 C 0.50461 0.51093 0.5209 0.0
C1997 C 0.47704 0.46756 0.48661 0.0
C1998 C 0.48639 0.48262 0.49804 0.0
H1999 H 0.5501 0.55099 0.54456 0.0
H2000 H 0.53443 0.52551 0.5292 0.0
H2001 H 0.48716 0.50464 0.55179 0.0
H2002 H 0.44107 0.44236 0.47393 0.0
H2003 H 0.45651 0.46773 0.49015 0.0
C2004 C 0.54508 0.005 0.47211 0.0
C2005 C 0.55354 0.02007 0.46572 0.0
C2006 C 0.53053 -0.00097 0.48131 0.0
C2007 C 0.50613 0.00989 0.51615 0.0
H2008 H 0.47483 0.97216 0.4894 0.0
C2009 C 0.4449 0.98795 0.5427 0.0
C2010 C 0.43618 0.97282 0.54831 0.0
C2011 C 0.45936 0.99376 0.53316 0.0
C2012 C 0.4835 0.98263 0.49734 0.0
H2013 H 0.55328 0.04062 0.46298 0.0
H2014 H 0.5279 0.03016 0.47879 0.0
H2015 H 0.49967 0.98204 0.47054 0.0
H2016 H 0.43587 0.95197 0.54924 0.0
H2017 H 0.46116 0.96214 0.53307 0.0
H2018 H 0.49002 0.01047 0.54304 0.0
C2019 C 0.53257 0.02301 0.47713 0.0
C2020 C 0.4977 0.98829 0.48649 0.0
C2021 C 0.54706 0.02897 0.46789 0.0
C2022 C 0.4423 0.96367 0.54493 0.0
C2023 C 0.45675 0.96948 0.53547 0.0
C2024 C 0.49195 0.00422 0.52705 0.0
C2025 C 0.52423 0.00804 0.48434 0.0
C2026 C 0.50914 0.00199 0.49575 0.0
C2027 C 0.46537 0.98454 0.52911 0.0
C2028 C 0.48048 0.99054 0.51775 0.0
H2029 H 0.54979 0.99789 0.47065 0.0
H2030 H 0.52438 0.98745 0.48688 0.0
H2031 H 0.5148 0.02038 0.52401 0.0
H2032 H 0.44045 0.99526 0.54504 0.0
H2033 H 0.46569 0.0054 0.5282 0.0
C2034 C 0.45438 0.00872 0.96985 0.0
C2035 C 0.46088 0.02368 0.96259 0.0
C2036 C 0.46304 0.00301 0.97984 0.0
C2037 C 0.50133 0.01044 0.9829 0.0
H2038 H 0.48726 0.98437 0.048 0.0
C2039 C 0.53817 0.993 0.04181 0.0
C2040 C 0.5317 0.9779 0.04786 0.0
C2041 C 0.52949 -0.00115 0.0327 0.0
C2042 C 0.49127 0.99155 0.0297 0.0
H2043 H 0.48154 0.04432 0.95943 0.0
H2044 H 0.4966 0.03439 0.97705 0.0
H2045 H 0.47204 0.99368 0.02796 0.0
H2046 H 0.51106 0.95719 0.05011 0.0
H2047 H 0.49595 0.9674 0.03411 0.0
H2048 H 0.52056 0.00832 0.98464 0.0
C2049 C 0.48486 0.02703 0.97479 0.0
C2050 C 0.48255 0.99684 0.01816 0.0
C2051 C 0.47622 0.03273 0.96481 0.0
C2052 C 0.51636 0.96887 0.04558 0.0
C2053 C 0.50769 0.97473 0.03655 0.0
C2054 C 0.51005 0.00517 0.99446 0.0
C2055 C 0.47835 0.01215 0.98272 0.0
C2056 C 0.48748 0.00632 0.99462 0.0
C2057 C 0.5142 0.98973 0.02956 0.0
C2058 C 0.50511 0.99567 0.01795 0.0
H2059 H 0.44258 0.00147 0.96827 0.0
H2060 H 0.45774 0.99144 0.98538 0.0
H2061 H 0.50534 0.01757 0.96453 0.0
H2062 H 0.54996 0.00023 0.04347 0.0
H2063 H 0.53476 0.0105 0.02785 0.0
C2064 C 0.02584 0.54688 0.04857 0.0
C2065 C 0.01664 0.553 0.05094 0.0
C2066 C 0.02018 0.5324 0.0394 0.0
C2067 C 0.98603 0.497 0.02912 0.0
H2068 H 0.00853 0.49132 0.97019 0.0
C2069 C 0.96267 0.44276 0.96668 0.0
C2070 C 0.97221 0.43719 0.96218 0.0
C2071 C 0.96807 0.45701 0.97709 0.0
C2072 C 0.0022 0.49269 0.98684 0.0
H2073 H 0.99419 0.54857 0.04692 0.0
H2074 H 0.98428 0.52319 0.03085 0.0
H2075 H 0.01789 0.51561 0.99125 0.0
H2076 H 0.99492 0.44225 0.96432 0.0
H2077 H 0.00434 0.46709 0.98274 0.0
H2078 H 0.97037 0.47405 0.02479 0.0
C2079 C 0.99586 0.52961 0.03613 0.0
C2080 C 0.00756 0.50659 0.99892 0.0
C2081 C 0.00154 0.54414 0.04525 0.0
C2082 C 0.98731 0.44627 0.96749 0.0
C2083 C 0.99271 0.46051 0.97797 0.0
C2084 C 0.98068 0.48307 0.01709 0.0
C2085 C 0.0052 0.52373 0.03249 0.0
C2086 C -0.00046 0.50888 0.02019 0.0
C2087 C 0.98311 0.46596 0.98326 0.0
C2088 C 0.98871 0.48077 0.9958 0.0
H2089 H 0.03752 0.5534 0.05298 0.0
H2090 H 0.02757 0.52805 0.03727 0.0
H2091 H 0.9797 0.49843 0.04566 0.0
H2092 H 0.95097 0.43603 0.96267 0.0
H2093 H 0.96044 0.46099 0.98046 0.0
C2094 C 0.44792 0.45762 0.04551 0.0
C2095 C 0.43856 0.46339 0.05012 0.0
C2096 C 0.46216 0.46664 0.03515 0.0
C2097 C 0.49123 0.50544 0.02597 0.0
H2098 H 0.50417 0.4897 0.96517 0.0
C2099 C 0.54541 0.54139 0.96512 0.0
C2100 C 0.55429 0.53502 0.96104 0.0
C2101 C 0.53091 0.53279 0.97461 0.0
C2102 C 0.50076 0.49421 0.98227 0.0
H2103 H 0.43689 0.4832 0.04846 0.0
H2104 H 0.46172 0.49889 0.03033 0.0
H2105 H 0.47997 0.4744 0.98635 0.0
H2106 H 0.55486 0.51462 0.96283 0.0
H2107 H 0.52969 0.49971 0.97949 0.0
H2108 H 0.51206 0.52523 0.02199 0.0
C2109 C 0.4581 0.48745 0.03484 0.0
C2110 C 0.48692 0.48544 0.99446 0.0
C2111 C 0.44386 0.47843 0.04512 0.0
C2112 C 0.54828 0.51985 0.96576 0.0
C2113 C 0.53382 0.51128 0.97518 0.0
C2114 C 0.50508 0.51422 0.01379 0.0
C2115 C 0.46731 0.48159 0.02929 0.0
C2116 C 0.48205 0.49093 0.01654 0.0
C2117 C 0.52504 0.51768 0.98009 0.0
C2118 C 0.51002 0.50867 0.99192 0.0
H2119 H 0.44415 0.44608 0.04924 0.0
H2120 H 0.46911 0.46188 0.0315 0.0
H2121 H 0.48781 0.50992 0.04313 0.0
H2122 H 0.54975 0.55305 0.9616 0.0
H2123 H 0.52433 0.53799 0.97787 0.0
C2124 C 0.44967 0.07581 0.01375 0.0
C2125 C 0.43991 0.07021 0.99078 0.0
C2126 C 0.44719 0.08316 0.0359 0.0
C2127 C 0.42294 0.09808 0.05971 0.0
H2128 H 0.43202 0.08901 0.13406 0.0
C2129 C 0.40573 0.11691 0.16007 0.0
C2130 C 0.40031 0.10697 0.18281 0.0
C2131 C 0.41325 0.11479 0.13773 0.0
C2132 C 0.42928 0.09159 0.11353 0.0
H2133 H 0.42005 0.06811 0.9726 0.0
H2134 H 0.41536 0.08053 0.01149 0.0
H2135 H 0.4395 0.08111 0.09212 0.0
H2136 H 0.39855 0.08709 0.20027 0.0
H2137 H 0.41128 0.08306 0.1611 0.0
H2138 H 0.41181 0.10763 0.08114 0.0
C2139 C 0.42526 0.07976 0.01218 0.0
C2140 C 0.43384 0.08726 0.08927 0.0
C2141 C 0.42794 0.07265 0.98971 0.0
C2142 C 0.40298 0.09514 0.18337 0.0
C2143 C 0.41027 0.09284 0.16074 0.0
C2144 C 0.4182 0.10222 0.08398 0.0
C2145 C 0.4346 0.08471 0.03609 0.0
C2146 C 0.43064 0.09032 0.06193 0.0
C2147 C 0.41516 0.10241 0.13715 0.0
C2148 C 0.42118 0.09892 0.11131 0.0
H2149 H 0.45888 0.07388 0.0152 0.0
H2150 H 0.4549 0.08715 0.05339 0.0
H2151 H 0.42041 0.10086 0.03918 0.0
H2152 H 0.40359 0.126 0.15901 0.0
H2153 H 0.41713 0.12264 0.12045 0.0
C2154 C 0.90687 0.2983 0.17554 0.0
C2155 C 0.89269 0.29087 0.18733 0.0
C2156 C 0.91044 0.30899 0.15469 0.0
C2157 C 0.89489 0.3188 0.09587 0.0
H2158 H 0.93223 0.35536 0.09789 0.0
C2159 C 0.91806 0.36211 1.00273 0.0
C2160 C 0.93336 0.36899 0.99873 0.0
C2161 C 0.91139 0.35253 0.02587 0.0
C2162 C 0.92181 0.34514 0.09681 0.0
H2163 H 0.87107 0.28867 0.18663 0.0
H2164 H 0.87726 0.30738 0.1493 0.0
H2165 H 0.92381 0.33964 0.13963 0.0
H2166 H 0.95347 0.3704 0.01411 0.0
H2167 H 0.94195 0.35348 0.0533 0.0
H2168 H 0.89323 0.32407 0.0525 0.0
C2169 C 0.88565 0.30504 0.15671 0.0
C2170 C 0.91694 0.3362 0.12085 0.0
C2171 C 0.88216 0.29449 0.1782 0.0
C2172 C 0.94168 0.36541 0.01695 0.0
C2173 C 0.93508 0.35582 0.03963 0.0
C2174 C 0.89984 0.32774 0.07156 0.0
C2175 C 0.89982 0.31228 0.14456 0.0
C2176 C 0.90363 0.32275 0.12048 0.0
C2177 C 0.91995 0.34967 0.04512 0.0
C2178 C 0.9136 0.34082 0.0715 0.0
H2179 H 0.91509 0.29549 0.18187 0.0
H2180 H 0.92139 0.31424 0.14556 0.0
H2181 H 0.88461 0.30843 0.09493 0.0
H2182 H 0.91143 0.36476 0.98903 0.0
H2183 H 0.8997 0.34791 0.02938 0.0
C2184 C 0.62426 0.57244 0.0216 0.0
C2185 C 0.62174 0.56194 1.00062 0.0
C2186 C 0.63376 0.57478 0.04409 0.0
C2187 C 0.66386 0.56944 0.07046 0.0
H2188 H 0.65052 0.5763 0.14258 0.0
C2189 C 0.69835 0.58356 0.17486 0.0
C2190 C 0.70047 0.59667 0.18722 0.0
C2191 C 0.68774 0.57661 0.1535 0.0
C2192 C 0.65438 0.57434 0.12265 0.0
H2193 H 0.62776 0.54609 0.98601 0.0
H2194 H 0.64448 0.55007 0.02602 0.0
H2195 H 0.63447 0.56942 0.1014 0.0
H2196 H 0.69325 0.61271 0.18752 0.0
H2197 H 0.67441 0.60035 0.15126 0.0
H2198 H 0.68391 0.57458 0.09206 0.0
C2199 C 0.63904 0.55653 0.02482 0.0
C2200 C 0.64522 0.57048 0.09896 0.0
C2201 C 0.62952 0.55426 1.00191 0.0
C2202 C 0.69155 0.60243 0.17874 0.0
C2203 C 0.68082 0.59537 0.15791 0.0
C2204 C 0.67302 0.5732 0.09437 0.0
C2205 C 0.64093 0.56655 0.04659 0.0
C2206 C 0.65002 0.5685 0.07231 0.0
C2207 C 0.679 0.58256 0.14459 0.0
C2208 C 0.66853 0.57615 0.12049 0.0
H2209 H 0.61865 0.57875 0.02093 0.0
H2210 H 0.63533 0.58297 0.05981 0.0
H2211 H 0.6679 0.56799 0.0503 0.0
H2212 H 0.70536 0.57914 0.18068 0.0
H2213 H 0.68656 0.56675 0.1436 0.0
C2214 C 0.09899 0.40993 0.32436 0.0
C2215 C 0.10752 0.40339 0.33042 0.0
C2216 C 0.09575 0.41716 0.34586 0.0
C2217 C 0.09301 0.41659 0.42442 0.0
H2218 H 0.08542 0.44878 0.41305 0.0
C2219 C 0.07187 0.43839 0.51567 0.0
C2220 C 0.05995 0.44027 0.50822 0.0
C2221 C 0.08005 0.4362 0.49454 0.0
C2222 C 0.08749 0.43976 0.41657 0.0
H2223 H 0.1203 0.40021 0.36272 0.0
H2224 H 0.11537 0.41337 0.39958 0.0
H2225 H 0.09555 0.44115 0.37426 0.0
H2226 H 0.0476 0.44183 0.4728 0.0
H2227 H 0.06167 0.43802 0.43647 0.0
H2228 H 0.0847 0.415 0.4665 0.0
C2229 C 0.11065 0.41252 0.37878 0.0
C2230 C 0.09326 0.43536 0.39427 0.0
C2231 C 0.11365 0.40514 0.35755 0.0
C2232 C 0.0567 0.44038 0.47934 0.0
C2233 C 0.06487 0.43832 0.45839 0.0
C2234 C 0.0873 0.42101 0.4467 0.0
C2235 C 0.10113 0.41807 0.37366 0.0
C2236 C 0.09593 0.42358 0.39777 0.0
C2237 C 0.07653 0.43601 0.46562 0.0
C2238 C 0.08423 0.4325 0.44296 0.0
H2239 H 0.09397 0.40855 0.3037 0.0
H2240 H 0.08833 0.42124 0.34109 0.0
H2241 H 0.09461 0.40727 0.42789 0.0
H2242 H 0.07463 0.43823 0.53772 0.0
H2243 H 0.08904 0.43453 0.50084 0.0
C2244 C 0.56096 0.63663 0.51731 0.0
C2245 C 0.55472 0.62163 0.51068 0.0
C2246 C 0.5641 0.64702 0.49565 0.0
C2247 C 0.571 0.65073 0.4179 0.0
H2248 H 0.5707 0.68731 0.42685 0.0
C2249 C 0.58879 0.69327 0.32671 0.0
C2250 C 0.59899 0.70776 0.33479 0.0
C2251 C 0.58104 0.68247 0.3474 0.0
C2252 C 0.57084 0.67713 0.42403 0.0
H2253 H 0.54576 0.60557 0.4768 0.0
H2254 H 0.55053 0.62339 0.43958 0.0
H2255 H 0.5615 0.66916 0.46514 0.0
H2256 H 0.60851 0.72246 0.37071 0.0
H2257 H 0.59505 0.7038 0.40642 0.0
H2258 H 0.5805 0.65874 0.37703 0.0
C2259 C 0.55364 0.62736 0.46106 0.0
C2260 C 0.56563 0.66675 0.44605 0.0
C2261 C 0.55077 0.61711 0.48249 0.0
C2262 C 0.60077 0.71137 0.36376 0.0
C2263 C 0.59296 0.70068 0.3843 0.0
C2264 C 0.57612 0.66105 0.3959 0.0
C2265 C 0.56085 0.64252 0.46709 0.0
C2266 C 0.56575 0.65344 0.44339 0.0
C2267 C 0.58321 0.68603 0.37648 0.0
C2268 C 0.57628 0.67446 0.39878 0.0
H2269 H 0.56419 0.64042 0.53887 0.0
H2270 H 0.56969 0.65859 0.50115 0.0
H2271 H 0.57162 0.6408 0.41518 0.0
H2272 H 0.58721 0.69017 0.30456 0.0
H2273 H 0.57352 0.67128 0.34067 0.0
C2274 C 0.36229 0.91669 0.50824 0.0
C2275 C 0.36741 0.93154 0.51483 0.0
C2276 C 0.3527 0.91006 0.48513 0.0
C2277 C 0.34307 0.92145 0.41785 0.0
H2278 H 0.30903 0.88214 0.41535 0.0
C2279 C 0.29557 0.90514 0.34069 0.0
C2280 C 0.28937 0.89154 0.32663 0.0
C2281 C 0.30638 0.90881 0.36128 0.0
C2282 C 0.31868 0.89304 0.4156 0.0
H2283 H 0.36578 0.95076 0.50419 0.0
H2284 H 0.34882 0.9392 0.46501 0.0
H2285 H 0.32455 0.89042 0.458 0.0
H2286 H 0.28957 0.87108 0.32283 0.0
H2287 H 0.30852 0.87742 0.35973 0.0
H2288 H 0.33698 0.92433 0.37609 0.0
C2289 C 0.35248 0.93273 0.4767 0.0
C2290 C 0.32753 0.8978 0.44003 0.0
C2291 C 0.36207 0.93932 0.49937 0.0
C2292 C 0.29439 0.88173 0.33312 0.0
C2293 C 0.30507 0.88529 0.35436 0.0
C2294 C 0.33424 0.91675 0.39368 0.0
C2295 C 0.34814 0.91823 0.46847 0.0
C2296 C 0.33956 0.91225 0.44175 0.0
C2297 C 0.31107 0.89884 0.3688 0.0
C2298 C 0.32171 0.90266 0.39253 0.0
H2299 H 0.3664 0.91054 0.51971 0.0
H2300 H 0.34951 0.89885 0.47943 0.0
H2301 H 0.35251 0.93249 0.41804 0.0
H2302 H 0.29177 0.91283 0.33623 0.0
H2303 H 0.31065 0.91925 0.37217 0.0
C2304 C 0.58629 0.89406 0.82964 0.0
C2305 C 0.59431 0.88705 0.83641 0.0
C2306 C 0.57884 0.8971 0.85101 0.0
C2307 C 0.58077 0.90247 0.92911 0.0
H2308 H 0.54562 0.90518 0.91812 0.0
C2309 C 0.55729 0.92262 0.01874 0.0
C2310 C 0.55419 0.93361 0.01015 0.0
C2311 C 0.55983 0.91433 0.99841 0.0
C2312 C 0.55545 0.90447 0.92153 0.0
H2313 H 0.59985 0.87662 0.87004 0.0
H2314 H 0.5864 0.8812 0.90673 0.0
H2315 H 0.55414 0.8954 0.88017 0.0
H2316 H 0.5506 0.94403 0.97368 0.0
H2317 H 0.5549 0.92968 0.93865 0.0
H2318 H 0.58225 0.91175 0.9702 0.0
C2319 C 0.58627 0.88496 0.88542 0.0
C2320 C 0.56037 0.89891 0.89971 0.0
C2321 C 0.59386 0.88217 0.8643 0.0
C2322 C 0.55303 0.93568 0.98103 0.0
C2323 C 0.55538 0.92735 0.96086 0.0
C2324 C 0.57582 0.90793 0.95091 0.0
C2325 C 0.57917 0.893 0.8794 0.0
C2326 C 0.57322 0.898 0.90306 0.0
C2327 C 0.55909 0.91676 0.96919 0.0
C2328 C 0.56324 0.90923 0.94727 0.0
H2329 H 0.58658 0.89805 0.80834 0.0
H2330 H 0.57354 0.90336 0.84554 0.0
H2331 H 0.59088 0.90226 0.9324 0.0
H2332 H 0.55828 0.9208 0.04102 0.0
H2333 H 0.56258 0.90618 1.00552 0.0
C2334 C 0.06971 0.63378 0.01488 0.0
C2335 C 0.06069 0.61877 0.00856 0.0
C2336 C 0.07705 0.64401 0.99303 0.0
C2337 C 0.07423 0.6475 0.91487 0.0
H2338 H 0.11113 0.68398 0.92447 0.0
C2339 C 0.09987 0.69065 0.82433 0.0
C2340 C 0.10363 0.70494 0.83286 0.0
C2341 C 0.09675 0.67967 0.84474 0.0
C2342 C 0.10082 0.67381 0.92144 0.0
H2343 H 0.05319 0.60255 0.97493 0.0
H2344 H 0.0664 0.62007 0.93739 0.0
H2345 H 0.10186 0.66582 0.96271 0.0
H2346 H 0.10784 0.71915 0.86923 0.0
H2347 H 0.10269 0.70028 0.90439 0.0
H2348 H 0.07314 0.65556 0.87374 0.0
C2349 C 0.0674 0.62419 0.95879 0.0
C2350 C 0.09545 0.66343 0.94346 0.0
C2351 C 0.05992 0.61409 0.98041 0.0
C2352 C 0.10492 0.70822 0.86196 0.0
C2353 C 0.10206 0.69741 0.88219 0.0
C2354 C 0.07966 0.65781 0.89282 0.0
C2355 C 0.07566 0.63936 0.96453 0.0
C2356 C 0.08197 0.65019 0.94064 0.0
C2357 C 0.09763 0.68292 0.87394 0.0
C2358 C 0.0929 0.6712 0.89597 0.0
H2359 H 0.07045 0.6377 0.03638 0.0
H2360 H 0.08325 0.6556 0.99836 0.0
H2361 H 0.06366 0.63763 0.91195 0.0
H2362 H 0.09871 0.68781 0.80205 0.0
H2363 H 0.09342 0.6686 0.83771 0.0
C2364 C 0.29358 0.41062 0.83948 0.0
C2365 C 0.29129 0.39761 0.8264 0.0
C2366 C 0.30336 0.41657 0.86245 0.0
C2367 C 0.31873 0.40352 0.91851 0.0
H2368 H 0.34563 0.44482 0.93421 0.0
C2369 C 0.36769 0.42276 0.99281 0.0
C2370 C 0.37034 0.43345 0.01343 0.0
C2371 C 0.35693 0.41914 0.97218 0.0
C2372 C 0.33797 0.43327 0.93028 0.0
H2373 H 0.2978 0.38103 0.82578 0.0
H2374 H 0.31525 0.39166 0.86463 0.0
H2375 H 0.32996 0.43776 0.89179 0.0
H2376 H 0.36372 0.44873 0.02881 0.0
H2377 H 0.34485 0.44257 0.9918 0.0
H2378 H 0.32701 0.39896 0.95627 0.0
C2379 C 0.30933 0.39714 0.85793 0.0
C2380 C 0.32904 0.42922 0.90598 0.0
C2381 C 0.29952 0.39117 0.83535 0.0
C2382 C 0.36182 0.44039 0.01321 0.0
C2383 C 0.35115 0.43695 0.992 0.0
C2384 C 0.32765 0.40755 0.94252 0.0
C2385 C 0.31092 0.40954 0.8726 0.0
C2386 C 0.31962 0.41425 0.89941 0.0
C2387 C 0.34864 0.42627 0.9713 0.0
C2388 C 0.33762 0.42242 0.94833 0.0
H2389 H 0.28709 0.41558 0.83326 0.0
H2390 H 0.30432 0.42613 0.87325 0.0
H2391 H 0.31125 0.39192 0.91468 0.0
H2392 H 0.37404 0.41718 0.9925 0.0
H2393 H 0.35533 0.41095 0.95642 0.0
C2394 C 0.9057 0.60313 0.67841 0.0
C2395 C 0.89143 0.59665 0.68965 0.0
C2396 C 0.9088 0.59678 0.65541 0.0
C2397 C 0.89655 0.56413 0.61009 0.0
H2398 H 0.91823 0.59383 0.55293 0.0
C2399 C 0.91486 0.55119 0.5013 0.0
C2400 C 0.9299 0.56066 0.49582 0.0
C2401 C 0.90784 0.55447 0.52324 0.0
C2402 C 0.91217 0.58538 0.56862 0.0
H2403 H 0.86931 0.57806 0.68661 0.0
H2404 H 0.87478 0.56668 0.64619 0.0
H2405 H 0.91097 0.60075 0.59662 0.0
H2406 H 0.94921 0.58114 0.50789 0.0
H2407 H 0.93708 0.58699 0.54525 0.0
H2408 H 0.8982 0.54883 0.58206 0.0
C2409 C 0.88359 0.57667 0.65544 0.0
C2410 C 0.90806 0.58935 0.59374 0.0
C2411 C 0.88048 0.58308 0.6787 0.0
C2412 C 0.93758 0.57369 0.51159 0.0
C2413 C 0.9306 0.57705 0.53299 0.0
C2414 C 0.90076 0.56012 0.5848 0.0
C2415 C 0.89765 0.58384 0.6428 0.0
C2416 C 0.90059 0.5789 0.61516 0.0
C2417 C 0.91572 0.5674 0.53953 0.0
C2418 C 0.909 0.57082 0.56413 0.0
H2419 H 0.91428 0.61369 0.68624 0.0
H2420 H 0.91981 0.60242 0.64656 0.0
H2421 H 0.89072 0.55581 0.62613 0.0
H2422 H 0.90877 0.54098 0.48966 0.0
H2423 H 0.89635 0.54684 0.52771 0.0
C2424 C 0.40456 0.28791 0.66322 0.0
C2425 C 0.39972 0.29217 0.6872 0.0
C2426 C 0.41202 0.29794 0.6414 0.0
C2427 C 0.42805 0.33778 0.62018 0.0
H2428 H 0.41934 0.32073 0.54492 0.0
C2429 C 0.44737 0.37547 0.52212 0.0
C2430 C 0.43792 0.3711 0.49866 0.0
C2431 C 0.4451 0.36554 0.54398 0.0
C2432 C 0.42179 0.32576 0.5657 0.0
H2433 H 0.39918 0.31033 0.70765 0.0
H2434 H 0.41141 0.32769 0.66914 0.0
H2435 H 0.41091 0.30476 0.58585 0.0
H2436 H 0.41877 0.35294 0.47933 0.0
H2437 H 0.41428 0.33572 0.51781 0.0
H2438 H 0.4378 0.35879 0.6 0.0
C2439 C 0.41007 0.31679 0.66734 0.0
C2440 C 0.41718 0.31652 0.58944 0.0
C2441 C 0.40299 0.30682 0.68958 0.0
C2442 C 0.42642 0.35648 0.4969 0.0
C2443 C 0.42387 0.34661 0.51913 0.0
C2444 C 0.43235 0.34702 0.59643 0.0
C2445 C 0.41433 0.31239 0.64248 0.0
C2446 C 0.42014 0.32236 0.61714 0.0
C2447 C 0.43295 0.3511 0.54343 0.0
C2448 C 0.4292 0.34118 0.56874 0.0
H2449 H 0.40211 0.27662 0.66089 0.0
H2450 H 0.41554 0.29416 0.62329 0.0
H2451 H 0.43083 0.34282 0.64094 0.0
H2452 H 0.45625 0.38677 0.52402 0.0
H2453 H 0.45265 0.3694 0.56171 0.0
C2454 C 0.61555 0.06701 0.52844 0.0
C2455 C 0.62004 0.06638 0.50071 0.0
C2456 C 0.62587 0.07445 0.54971 0.0
C2457 C 0.66579 0.09963 0.56473 0.0
H2458 H 0.6558 0.07782 0.63543 0.0
C2459 C 0.70894 0.10659 0.64806 0.0
C2460 C 0.70544 0.10555 0.67705 0.0
C2461 C 0.69849 0.10426 0.6274 0.0
C2462 C 0.65868 0.08423 0.61608 0.0
H2463 H 0.63886 0.07365 0.47305 0.0
H2464 H 0.65712 0.08643 0.51052 0.0
H2465 H 0.63797 0.06944 0.59713 0.0
H2466 H 0.68828 0.10164 0.70713 0.0
H2467 H 0.66978 0.09742 0.67078 0.0
H2468 H 0.68676 0.11412 0.58361 0.0
C2469 C 0.64555 0.08138 0.51575 0.0
C2470 C 0.64844 0.07942 0.59399 0.0
C2471 C 0.63511 0.07409 0.49422 0.0
C2472 C 0.6913 0.10255 0.68497 0.0
C2473 C 0.68071 0.10005 0.66415 0.0
C2474 C 0.67609 0.10441 0.58685 0.0
C2475 C 0.64103 0.08122 0.54401 0.0
C2476 C 0.65186 0.08697 0.56789 0.0
C2477 C 0.68415 0.10069 0.63509 0.0
C2478 C 0.67272 0.09665 0.6127 0.0
H2479 H 0.60396 0.06125 0.53398 0.0
H2480 H 0.62192 0.07446 0.57091 0.0
H2481 H 0.66877 0.10585 0.54515 0.0
H2482 H 0.71976 0.10893 0.6412 0.0
H2483 H 0.7015 0.10466 0.60533 0.0
C2484 C 0.7742 0.7292 0.69674 0.0
C2485 C 0.77238 0.73088 0.66772 0.0
C2486 C 0.77169 0.73735 0.71705 0.0
C2487 C 0.74961 0.7549 0.72833 0.0
H2488 H 0.77234 0.76904 0.79766 0.0
C2489 C 0.73123 0.77983 0.81617 0.0
C2490 C 0.73175 0.77559 0.84418 0.0
C2491 C 0.73857 0.7771 0.79447 0.0
C2492 C 0.76581 0.76506 0.77854 0.0
H2493 H 0.76696 0.74281 0.63712 0.0
H2494 H 0.76237 0.75711 0.6729 0.0
H2495 H 0.78113 0.75985 0.75914 0.0
H2496 H 0.74092 0.76573 0.87173 0.0
H2497 H 0.75352 0.76049 0.83354 0.0
H2498 H 0.734 0.75951 0.74785 0.0
C2499 C 0.76578 0.74942 0.67982 0.0
C2500 C 0.77089 0.75986 0.75638 0.0
C2501 C 0.76849 0.74133 0.65933 0.0
C2502 C 0.7404 0.76918 0.85034 0.0
C2503 C 0.74762 0.76621 0.82841 0.0
C2504 C 0.74449 0.76001 0.75048 0.0
C2505 C 0.76714 0.74734 0.70896 0.0
C2506 C 0.76274 0.75453 0.73114 0.0
C2507 C 0.74643 0.76976 0.80003 0.0
C2508 C 0.75244 0.76504 0.77603 0.0
H2509 H 0.77724 0.72126 0.70391 0.0
H2510 H 0.77267 0.73531 0.73922 0.0
H2511 H 0.74291 0.75062 0.70945 0.0
H2512 H 0.72478 0.78497 0.81084 0.0
H2513 H 0.73775 0.78042 0.77314 0.0
C2514 C 0.25661 0.02805 0.66348 0.0
C2515 C 0.26516 0.04311 0.66976 0.0
C2516 C 0.24923 0.0178 0.68527 0.0
C2517 C 0.25141 0.01481 0.76374 0.0
H2518 H 0.21575 0.97724 0.75335 0.0
C2519 C 0.22616 0.97177 0.85454 0.0
C2520 C 0.22321 0.95764 0.84658 0.0
C2521 C 0.22914 0.98253 0.83376 0.0
C2522 C 0.22571 0.98772 0.75659 0.0
H2523 H 0.27174 0.05941 0.70306 0.0
H2524 H 0.25835 0.04184 0.74047 0.0
H2525 H 0.22465 0.99531 0.71494 0.0
H2526 H 0.22037 0.9435 0.81073 0.0
H2527 H 0.22531 0.96203 0.7749 0.0
H2528 H 0.25251 0.00716 0.80527 0.0
C2529 C 0.25779 0.0377 0.71922 0.0
C2530 C 0.23087 -0.00195 0.73449 0.0
C2531 C 0.26535 0.04782 0.69767 0.0
C2532 C 0.22267 0.95431 0.81759 0.0
C2533 C 0.22539 0.96491 0.79697 0.0
C2534 C 0.24617 0.00455 0.78587 0.0
C2535 C 0.25009 0.02248 0.71363 0.0
C2536 C 0.24392 0.01169 0.7376 0.0
C2537 C 0.22893 0.97924 0.80472 0.0
C2538 C 0.23339 0.99079 0.78244 0.0
H2539 H 0.25636 0.02411 0.64216 0.0
H2540 H 0.24347 0.00619 0.68005 0.0
H2541 H 0.26167 0.025 0.76691 0.0
H2542 H 0.22671 0.97464 0.87672 0.0
H2543 H 0.23179 0.99348 0.84039 0.0
C2544 C 0.95117 0.22444 0.70244 0.0
C2545 C 0.95429 0.2237 0.67369 0.0
C2546 C 0.96125 0.22628 0.72354 0.0
C2547 C 0.00069 0.24168 0.73539 0.0
H2548 H 0.98794 0.22269 0.80873 0.0
C2549 C 0.04237 0.2575 0.82554 0.0
C2550 C 0.03801 0.25981 0.85227 0.0
C2551 C 0.032 0.25003 0.80433 0.0
C2552 C 0.99169 0.22816 0.78846 0.0
H2553 H 0.97041 0.22405 0.6446 0.0
H2554 H 0.98829 0.22742 0.68177 0.0
H2555 H 0.97033 0.2153 0.76975 0.0
H2556 H 0.01933 0.25552 0.87834 0.0
H2557 H 0.00106 0.24273 0.84098 0.0
H2558 H 0.02185 0.25493 0.75413 0.0
C2559 C 0.97793 0.22656 0.68782 0.0
C2560 C 0.9816 0.22389 0.76606 0.0
C2561 C 0.96769 0.22456 0.66655 0.0
C2562 C 0.02295 0.25371 0.85801 0.0
C2563 C 0.01251 0.24641 0.83651 0.0
C2564 C 0.01075 0.246 0.75779 0.0
C2565 C 0.97483 0.22753 0.71659 0.0
C2566 C 0.98592 0.23076 0.73936 0.0
C2567 C 0.01698 0.24496 0.80903 0.0
C2568 C 0.00637 0.23944 0.78478 0.0
H2569 H 0.94093 0.22378 0.70877 0.0
H2570 H 0.95856 0.22721 0.74532 0.0
H2571 H 0.00435 0.24738 0.71531 0.0
H2572 H 0.05395 0.26209 0.82061 0.0
H2573 H 0.03587 0.24875 0.78383 0.0
C2574 C 0.25374 0.22545 0.16502 0.0
C2575 C 0.26424 0.22161 0.17333 0.0
C2576 C 0.24597 0.22856 0.18551 0.0
C2577 C 0.23612 0.22444 0.26217 0.0
H2578 H 0.23589 0.26096 0.25151 0.0
C2579 C 0.22557 0.25542 0.3537 0.0
C2580 C 0.21907 0.26386 0.34653 0.0
C2581 C 0.22881 0.24805 0.33247 0.0
C2582 C 0.23555 0.25057 0.25473 0.0
H2583 H 0.27432 0.21735 0.20951 0.0
H2584 H 0.2608 0.22265 0.24493 0.0
H2585 H 0.24506 0.25186 0.21396 0.0
H2586 H 0.20974 0.27028 0.31221 0.0
H2587 H 0.21468 0.25701 0.27573 0.0
H2588 H 0.22674 0.22325 0.30315 0.0
C2589 C 0.2585 0.22327 0.22276 0.0
C2590 C 0.24084 0.24536 0.23309 0.0
C2591 C 0.26634 0.22034 0.20239 0.0
C2592 C 0.21494 0.26398 0.31828 0.0
C2593 C 0.21791 0.25649 0.29729 0.0
C2594 C 0.23072 0.22961 0.28382 0.0
C2595 C 0.24842 0.22769 0.21464 0.0
C2596 C 0.24136 0.23233 0.23663 0.0
C2597 C 0.22541 0.24889 0.30382 0.0
C2598 C 0.23048 0.24283 0.2805 0.0
H2599 H 0.2519 0.22654 0.14279 0.0
H2600 H 0.23818 0.23184 0.17858 0.0
H2601 H 0.23627 0.21429 0.26548 0.0
H2602 H 0.22894 0.25522 0.3753 0.0
H2603 H 0.23463 0.24235 0.33834 0.0
C2604 C 0.77874 0.04563 0.19576 0.0
C2605 C 0.77271 0.04041 0.16882 0.0
C2606 C 0.77616 0.03587 0.21801 0.0
C2607 C 0.76057 0.99631 0.23779 0.0
H2608 H 0.75151 0.00957 0.30772 0.0
C2609 C 0.74222 0.96052 0.34033 0.0
C2610 C 0.72981 0.9596 0.35355 0.0
C2611 C 0.7497 0.97107 0.3191 0.0
C2612 C 0.75401 0.00567 0.2884 0.0
H2613 H 0.75992 0.02085 0.14353 0.0
H2614 H 0.75491 0.00361 0.18285 0.0
H2615 H 0.76014 0.02585 0.267 0.0
H2616 H 0.71542 0.96882 0.35514 0.0
H2617 H 0.72858 0.98741 0.319 0.0
H2618 H 0.75373 0.97581 0.25923 0.0
C2619 C 0.7619 0.0153 0.18665 0.0
C2620 C 0.75914 0.0151 0.26503 0.0
C2621 C 0.76473 0.02515 0.16409 0.0
C2622 C 0.72524 0.96962 0.3459 0.0
C2623 C 0.73276 0.98022 0.32504 0.0
C2624 C 0.7554 0.98684 0.26131 0.0
C2625 C 0.76717 0.0206 0.21416 0.0
C2626 C 0.7624 0.01055 0.23928 0.0
C2627 C 0.74489 0.9809 0.31089 0.0
C2628 C 0.75185 0.99135 0.28678 0.0
H2629 H 0.78508 0.05736 0.19991 0.0
H2630 H 0.78083 0.04038 0.23856 0.0
H2631 H 0.76306 0.99246 0.21843 0.0
H2632 H 0.74567 0.95262 0.34537 0.0
H2633 H 0.75904 0.97133 0.30871 0.0
C2634 C 0.0309 0.78041 0.34859 0.0
C2635 C 0.03385 0.76957 0.35883 0.0
C2636 C 0.02035 0.77697 0.32714 0.0
C2637 C 0.98885 0.74543 0.29129 0.0
H2638 H 0.00147 0.76957 0.22341 0.0
C2639 C 0.96235 0.72074 0.18591 0.0
C2640 C 0.95736 0.72829 0.16879 0.0
C2641 C 0.97181 0.72775 0.20854 0.0
C2642 C -0.0023 0.76284 0.24235 0.0
H2643 H 0.02795 0.74668 0.35559 0.0
H2644 H 0.00935 0.74054 0.31915 0.0
H2645 H 0.01664 0.7781 0.26647 0.0
H2646 H 0.95905 0.74942 0.16083 0.0
H2647 H 0.97588 0.76191 0.20094 0.0
H2648 H 0.9702 0.73 0.26727 0.0
C2649 C 0.01504 0.75167 0.32743 0.0
C2650 C 0.00635 0.76774 0.26703 0.0
C2651 C 0.02567 0.75516 0.34836 0.0
C2652 C 0.96285 0.74339 0.17361 0.0
C2653 C 0.97238 0.75048 0.19662 0.0
C2654 C 0.98027 0.74057 0.2668 0.0
C2655 C 0.01247 0.76258 0.31602 0.0
C2656 C 0.00223 0.75884 0.2915 0.0
C2657 C 0.97648 0.74252 0.21497 0.0
C2658 C 0.98482 0.74896 0.24172 0.0
H2659 H 0.03732 0.79168 0.35594 0.0
H2660 H 0.01859 0.78559 0.31882 0.0
H2661 H 0.98521 0.73844 0.3099 0.0
H2662 H 0.95842 0.70913 0.18248 0.0
H2663 H 0.9751 0.72141 0.22169 0.0
loop_
_geom_bond_atom_site_label_1
_geom_bond_atom_site_label_2
_geom_bond_distance
_geom_bond_site_symmetry_2
_ccdc_geom_bond_type
Co0 O1 2.216 . S
Co0 O2 2.091 . S
Co0 O4 2.004 . S
Co0 O10 2.021 . S
Co0 O12 2.137 . S
Co0 O13 2.244 . S
O1 Co0 2.216 . S
O1 C8 1.247 . S
O2 Co0 2.091 . S
O2 C8 1.261 . S
C3 O12 1.247 . S
C3 O13 1.272 . S
O4 Co0 2.004 . S
O4 C9 1.259 . S
Co5 O6 2.061 . S
Co5 O11 2.052 . S
Co5 O13 2.135 . S
O6 Co5 2.061 . S
O6 C9 1.235 . S
C7 O10 1.238 . S
C7 O11 1.241 . S
C8 O1 1.247 . S
C8 O2 1.261 . S
C9 O4 1.259 . S
C9 O6 1.235 . S
O10 Co0 2.021 . S
O10 C7 1.238 . S
O11 Co5 2.052 . S
O11 C7 1.241 . S
O12 Co0 2.137 . S
O12 C3 1.247 . S
O13 Co0 2.244 . S
O13 C3 1.272 . S
O13 Co5 2.135 . S
Co14 O15 2.216 . S
Co14 O16 2.091 . S
Co14 O18 2.004 . S
Co14 O24 2.021 . S
Co14 O26 2.137 . S
Co14 O27 2.244 . S
O15 Co14 2.216 . S
O15 C22 1.247 . S
O16 Co14 2.091 . S
O16 C22 1.261 . S
C17 O26 1.247 . S
C17 O27 1.272 . S
O18 Co14 2.004 . S
O18 C23 1.259 . S
Co19 O20 2.061 . S
Co19 O25 2.052 . S
Co19 O27 2.135 . S
O20 Co19 2.061 . S
O20 C23 1.235 . S
C21 O24 1.238 . S
C21 O25 1.241 . S
C22 O15 1.247 . S
C22 O16 1.261 . S
C23 O18 1.259 . S
C23 O20 1.235 . S
O24 Co14 2.021 . S
O24 C21 1.238 . S
O25 Co19 2.052 . S
O25 C21 1.241 . S
O26 Co14 2.137 . S
O26 C17 1.247 . S
O27 Co14 2.244 . S
O27 C17 1.272 . S
O27 Co19 2.135 . S
Co28 O29 2.216 . S
Co28 O30 2.091 . S
Co28 O32 2.004 . S
Co28 O38 2.021 . S
Co28 O40 2.137 . S
Co28 O41 2.244 . S
O29 Co28 2.216 . S
O29 C36 1.247 . S
O30 Co28 2.091 . S
O30 C36 1.261 . S
C31 O40 1.247 . S
C31 O41 1.272 . S
O32 Co28 2.004 . S
O32 C37 1.259 . S
Co33 O34 2.061 . S
Co33 O39 2.052 . S
Co33 O41 2.135 . S
O34 Co33 2.061 . S
O34 C37 1.235 . S
C35 O38 1.238 . S
C35 O39 1.241 . S
C36 O29 1.247 . S
C36 O30 1.261 . S
C37 O32 1.259 . S
C37 O34 1.235 . S
O38 Co28 2.021 . S
O38 C35 1.238 . S
O39 Co33 2.052 . S
O39 C35 1.241 . S
O40 Co28 2.137 . S
O40 C31 1.247 . S
O41 Co28 2.244 . S
O41 C31 1.272 . S
O41 Co33 2.135 . S
Co42 O43 2.216 . S
Co42 O44 2.091 . S
Co42 O46 2.004 . S
Co42 O52 2.021 . S
Co42 O54 2.137 . S
Co42 O55 2.244 . S
O43 Co42 2.216 . S
O43 C50 1.247 . S
O44 Co42 2.091 . S
O44 C50 1.261 . S
C45 O54 1.247 . S
C45 O55 1.272 . S
O46 Co42 2.004 . S
O46 C51 1.259 . S
Co47 O48 2.061 . S
Co47 O53 2.052 . S
Co47 O55 2.135 . S
O48 Co47 2.061 . S
O48 C51 1.235 . S
C49 O52 1.238 . S
C49 O53 1.241 . S
C50 O43 1.247 . S
C50 O44 1.261 . S
C51 O46 1.259 . S
C51 O48 1.235 . S
O52 Co42 2.021 . S
O52 C49 1.238 . S
O53 Co47 2.052 . S
O53 C49 1.241 . S
O54 Co42 2.137 . S
O54 C45 1.247 . S
O55 Co42 2.244 . S
O55 C45 1.272 . S
O55 Co47 2.135 . S
Co56 O57 2.216 . S
Co56 O58 2.091 . S
Co56 O60 2.004 . S
Co56 O66 2.021 . S
Co56 O68 2.137 . S
Co56 O69 2.244 . S
O57 Co56 2.216 . S
O57 C64 1.247 . S
O58 Co56 2.091 . S
O58 C64 1.261 . S
C59 O68 1.247 . S
C59 O69 1.272 . S
O60 Co56 2.004 . S
O60 C65 1.259 . S
Co61 O62 2.061 . S
Co61 O67 2.052 . S
Co61 O69 2.135 . S
O62 Co61 2.061 . S
O62 C65 1.235 . S
C63 O66 1.238 . S
C63 O67 1.241 . S
C64 O57 1.247 . S
C64 O58 1.261 . S
C65 O60 1.259 . S
C65 O62 1.235 . S
O66 Co56 2.021 . S
O66 C63 1.238 . S
O67 Co61 2.052 . S
O67 C63 1.241 . S
O68 Co56 2.137 . S
O68 C59 1.247 . S
O69 Co56 2.244 . S
O69 C59 1.272 . S
O69 Co61 2.135 . S
Co70 O71 2.216 . S
Co70 O72 2.091 . S
Co70 O74 2.004 . S
Co70 O80 2.021 . S
Co70 O82 2.137 . S
Co70 O83 2.244 . S
O71 Co70 2.216 . S
O71 C78 1.247 . S
O72 Co70 2.091 . S
O72 C78 1.261 . S
C73 O82 1.247 . S
C73 O83 1.272 . S
O74 Co70 2.004 . S
O74 C79 1.259 . S
Co75 O76 2.061 . S
Co75 O81 2.052 . S
Co75 O83 2.135 . S
O76 Co75 2.061 . S
O76 C79 1.235 . S
C77 O80 1.238 . S
C77 O81 1.241 . S
C78 O71 1.247 . S
C78 O72 1.261 . S
C79 O74 1.259 . S
C79 O76 1.235 . S
O80 Co70 2.021 . S
O80 C77 1.238 . S
O81 Co75 2.052 . S
O81 C77 1.241 . S
O82 Co70 2.137 . S
O82 C73 1.247 . S
O83 Co70 2.244 . S
O83 C73 1.272 . S
O83 Co75 2.135 . S
Co84 O85 2.216 . S
Co84 O86 2.091 . S
Co84 O88 2.004 . S
Co84 O94 2.021 . S
Co84 O96 2.137 . S
Co84 O97 2.244 . S
O85 Co84 2.216 . S
O85 C92 1.247 . S
O86 Co84 2.091 . S
O86 C92 1.261 . S
C87 O96 1.247 . S
C87 O97 1.272 . S
O88 Co84 2.004 . S
O88 C93 1.259 . S
Co89 O90 2.061 . S
Co89 O95 2.052 . S
Co89 O97 2.135 . S
O90 Co89 2.061 . S
O90 C93 1.235 . S
C91 O94 1.238 . S
C91 O95 1.241 . S
C92 O85 1.247 . S
C92 O86 1.261 . S
C93 O88 1.259 . S
C93 O90 1.235 . S
O94 Co84 2.021 . S
O94 C91 1.238 . S
O95 Co89 2.052 . S
O95 C91 1.241 . S
O96 Co84 2.137 . S
O96 C87 1.247 . S
O97 Co84 2.244 . S
O97 C87 1.272 . S
O97 Co89 2.135 . S
Co98 O99 2.216 . S
Co98 O100 2.091 . S
Co98 O102 2.004 . S
Co98 O108 2.021 . S
Co98 O110 2.137 . S
Co98 O111 2.244 . S
O99 Co98 2.216 . S
O99 C106 1.247 . S
O100 Co98 2.091 . S
O100 C106 1.261 . S
C101 O110 1.247 . S
C101 O111 1.272 . S
O102 Co98 2.004 . S
O102 C107 1.259 . S
Co103 O104 2.061 . S
Co103 O109 2.052 . S
Co103 O111 2.135 . S
O104 Co103 2.061 . S
O104 C107 1.235 . S
C105 O108 1.238 . S
C105 O109 1.241 . S
C106 O99 1.247 . S
C106 O100 1.261 . S
C107 O102 1.259 . S
C107 O104 1.235 . S
O108 Co98 2.021 . S
O108 C105 1.238 . S
O109 Co103 2.052 . S
O109 C105 1.241 . S
O110 Co98 2.137 . S
O110 C101 1.247 . S
O111 Co98 2.244 . S
O111 C101 1.272 . S
O111 Co103 2.135 . S
Co112 O113 2.216 . S
Co112 O114 2.091 . S
Co112 O116 2.004 . S
Co112 O122 2.021 . S
Co112 O124 2.137 . S
Co112 O125 2.244 . S
O113 Co112 2.216 . S
O113 C120 1.247 . S
O114 Co112 2.091 . S
O114 C120 1.261 . S
C115 O124 1.247 . S
C115 O125 1.272 . S
O116 Co112 2.004 . S
O116 C121 1.259 . S
Co117 O118 2.061 . S
Co117 O123 2.052 . S
Co117 O125 2.135 . S
O118 Co117 2.061 . S
O118 C121 1.235 . S
C119 O122 1.238 . S
C119 O123 1.241 . S
C120 O113 1.247 . S
C120 O114 1.261 . S
C121 O116 1.259 . S
C121 O118 1.235 . S
O122 Co112 2.021 . S
O122 C119 1.238 . S
O123 Co117 2.052 . S
O123 C119 1.241 . S
O124 Co112 2.137 . S
O124 C115 1.247 . S
O125 Co112 2.244 . S
O125 C115 1.272 . S
O125 Co117 2.135 . S
Co126 O127 2.216 . S
Co126 O128 2.091 . S
Co126 O130 2.004 . S
Co126 O136 2.021 . S
Co126 O138 2.137 . S
Co126 O139 2.244 . S
O127 Co126 2.216 . S
O127 C134 1.247 . S
O128 Co126 2.091 . S
O128 C134 1.261 . S
C129 O138 1.247 . S
C129 O139 1.272 . S
O130 Co126 2.004 . S
O130 C135 1.259 . S
Co131 O132 2.061 . S
Co131 O137 2.052 . S
Co131 O139 2.135 . S
O132 Co131 2.061 . S
O132 C135 1.235 . S
C133 O136 1.238 . S
C133 O137 1.241 . S
C134 O127 1.247 . S
C134 O128 1.261 . S
C135 O130 1.259 . S
C135 O132 1.235 . S
O136 Co126 2.021 . S
O136 C133 1.238 . S
O137 Co131 2.052 . S
O137 C133 1.241 . S
O138 Co126 2.137 . S
O138 C129 1.247 . S
O139 Co126 2.244 . S
O139 C129 1.272 . S
O139 Co131 2.135 . S
Co140 O141 2.216 . S
Co140 O142 2.091 . S
Co140 O144 2.004 . S
Co140 O150 2.021 . S
Co140 O152 2.137 . S
Co140 O153 2.244 . S
O141 Co140 2.216 . S
O141 C148 1.247 . S
O142 Co140 2.091 . S
O142 C148 1.261 . S
C143 O152 1.247 . S
C143 O153 1.272 . S
O144 Co140 2.004 . S
O144 C149 1.259 . S
Co145 O146 2.061 . S
Co145 O151 2.052 . S
Co145 O153 2.135 . S
O146 Co145 2.061 . S
O146 C149 1.235 . S
C147 O150 1.238 . S
C147 O151 1.241 . S
C148 O141 1.247 . S
C148 O142 1.261 . S
C149 O144 1.259 . S
C149 O146 1.235 . S
O150 Co140 2.021 . S
O150 C147 1.238 . S
O151 Co145 2.052 . S
O151 C147 1.241 . S
O152 Co140 2.137 . S
O152 C143 1.247 . S
O153 Co140 2.244 . S
O153 C143 1.272 . S
O153 Co145 2.135 . S
Co154 O155 2.216 . S
Co154 O156 2.091 . S
Co154 O158 2.004 . S
Co154 O164 2.021 . S
Co154 O166 2.137 . S
Co154 O167 2.244 . S
O155 Co154 2.216 . S
O155 C162 1.247 . S
O156 Co154 2.091 . S
O156 C162 1.261 . S
C157 O166 1.247 . S
C157 O167 1.272 . S
O158 Co154 2.004 . S
O158 C163 1.259 . S
Co159 O160 2.061 . S
Co159 O165 2.052 . S
Co159 O167 2.135 . S
O160 Co159 2.061 . S
O160 C163 1.235 . S
C161 O164 1.238 . S
C161 O165 1.241 . S
C162 O155 1.247 . S
C162 O156 1.261 . S
C163 O158 1.259 . S
C163 O160 1.235 . S
O164 Co154 2.021 . S
O164 C161 1.238 . S
O165 Co159 2.052 . S
O165 C161 1.241 . S
O166 Co154 2.137 . S
O166 C157 1.247 . S
O167 Co154 2.244 . S
O167 C157 1.272 . S
O167 Co159 2.135 . S
Co168 O169 2.216 . S
Co168 O170 2.091 . S
Co168 O172 2.004 . S
Co168 O178 2.021 . S
Co168 O180 2.137 . S
Co168 O181 2.244 . S
O169 Co168 2.216 . S
O169 C176 1.247 . S
O170 Co168 2.091 . S
O170 C176 1.261 . S
C171 O180 1.247 . S
C171 O181 1.272 . S
O172 Co168 2.004 . S
O172 C177 1.259 . S
Co173 O174 2.061 . S
Co173 O179 2.052 . S
Co173 O181 2.135 . S
O174 Co173 2.061 . S
O174 C177 1.235 . S
C175 O178 1.238 . S
C175 O179 1.241 . S
C176 O169 1.247 . S
C176 O170 1.261 . S
C177 O172 1.259 . S
C177 O174 1.235 . S
O178 Co168 2.021 . S
O178 C175 1.238 . S
O179 Co173 2.052 . S
O179 C175 1.241 . S
O180 Co168 2.137 . S
O180 C171 1.247 . S
O181 Co168 2.244 . S
O181 C171 1.272 . S
O181 Co173 2.135 . S
Co182 O183 2.216 . S
Co182 O184 2.091 . S
Co182 O186 2.004 . S
Co182 O192 2.021 . S
Co182 O194 2.137 . S
Co182 O195 2.244 . S
O183 Co182 2.216 . S
O183 C190 1.247 . S
O184 Co182 2.091 . S
O184 C190 1.261 . S
C185 O194 1.247 . S
C185 O195 1.272 . S
O186 Co182 2.004 . S
O186 C191 1.259 . S
Co187 O188 2.061 . S
Co187 O193 2.052 . S
Co187 O195 2.135 . S
O188 Co187 2.061 . S
O188 C191 1.235 . S
C189 O192 1.238 . S
C189 O193 1.241 . S
C190 O183 1.247 . S
C190 O184 1.261 . S
C191 O186 1.259 . S
C191 O188 1.235 . S
O192 Co182 2.021 . S
O192 C189 1.238 . S
O193 Co187 2.052 . S
O193 C189 1.241 . S
O194 Co182 2.137 . S
O194 C185 1.247 . S
O195 Co182 2.244 . S
O195 C185 1.272 . S
O195 Co187 2.135 . S
Co196 O197 2.216 . S
Co196 O198 2.091 . S
Co196 O200 2.004 . S
Co196 O206 2.021 . S
Co196 O208 2.137 . S
Co196 O209 2.244 . S
O197 Co196 2.216 . S
O197 C204 1.247 . S
O198 Co196 2.091 . S
O198 C204 1.261 . S
C199 O208 1.247 . S
C199 O209 1.272 . S
O200 Co196 2.004 . S
O200 C205 1.259 . S
Co201 O202 2.061 . S
Co201 O207 2.052 . S
Co201 O209 2.135 . S
O202 Co201 2.061 . S
O202 C205 1.235 . S
C203 O206 1.238 . S
C203 O207 1.241 . S
C204 O197 1.247 . S
C204 O198 1.261 . S
C205 O200 1.259 . S
C205 O202 1.235 . S
O206 Co196 2.021 . S
O206 C203 1.238 . S
O207 Co201 2.052 . S
O207 C203 1.241 . S
O208 Co196 2.137 . S
O208 C199 1.247 . S
O209 Co196 2.244 . S
O209 C199 1.272 . S
O209 Co201 2.135 . S
Co210 O211 2.216 . S
Co210 O212 2.091 . S
Co210 O214 2.004 . S
Co210 O220 2.021 . S
Co210 O222 2.137 . S
Co210 O223 2.244 . S
O211 Co210 2.216 . S
O211 C218 1.247 . S
O212 Co210 2.091 . S
O212 C218 1.261 . S
C213 O222 1.247 . S
C213 O223 1.272 . S
O214 Co210 2.004 . S
O214 C219 1.259 . S
Co215 O216 2.061 . S
Co215 O221 2.052 . S
Co215 O223 2.135 . S
O216 Co215 2.061 . S
O216 C219 1.235 . S
C217 O220 1.238 . S
C217 O221 1.241 . S
C218 O211 1.247 . S
C218 O212 1.261 . S
C219 O214 1.259 . S
C219 O216 1.235 . S
O220 Co210 2.021 . S
O220 C217 1.238 . S
O221 Co215 2.052 . S
O221 C217 1.241 . S
O222 Co210 2.137 . S
O222 C213 1.247 . S
O223 Co210 2.244 . S
O223 C213 1.272 . S
O223 Co215 2.135 . S
Co224 O225 2.216 . S
Co224 O226 2.091 . S
Co224 O228 2.004 . S
Co224 O234 2.021 . S
Co224 O236 2.137 . S
Co224 O237 2.244 . S
O225 Co224 2.216 . S
O225 C232 1.247 . S
O226 Co224 2.091 . S
O226 C232 1.261 . S
C227 O236 1.247 . S
C227 O237 1.272 . S
O228 Co224 2.004 . S
O228 C233 1.259 . S
Co229 O230 2.061 . S
Co229 O235 2.052 . S
Co229 O237 2.135 . S
O230 Co229 2.061 . S
O230 C233 1.235 . S
C231 O234 1.238 . S
C231 O235 1.241 . S
C232 O225 1.247 . S
C232 O226 1.261 . S
C233 O228 1.259 . S
C233 O230 1.235 . S
O234 Co224 2.021 . S
O234 C231 1.238 . S
O235 Co229 2.052 . S
O235 C231 1.241 . S
O236 Co224 2.137 . S
O236 C227 1.247 . S
O237 Co224 2.244 . S
O237 C227 1.272 . S
O237 Co229 2.135 . S
Co238 O239 2.216 . S
Co238 O240 2.091 . S
Co238 O242 2.004 . S
Co238 O248 2.021 . S
Co238 O250 2.137 . S
Co238 O251 2.244 . S
O239 Co238 2.216 . S
O239 C246 1.247 . S
O240 Co238 2.091 . S
O240 C246 1.261 . S
C241 O250 1.247 . S
C241 O251 1.272 . S
O242 Co238 2.004 . S
O242 C247 1.259 . S
Co243 O244 2.061 . S
Co243 O249 2.052 . S
Co243 O251 2.135 . S
O244 Co243 2.061 . S
O244 C247 1.235 . S
C245 O248 1.238 . S
C245 O249 1.241 . S
C246 O239 1.247 . S
C246 O240 1.261 . S
C247 O242 1.259 . S
C247 O244 1.235 . S
O248 Co238 2.021 . S
O248 C245 1.238 . S
O249 Co243 2.052 . S
O249 C245 1.241 . S
O250 Co238 2.137 . S
O250 C241 1.247 . S
O251 Co238 2.244 . S
O251 C241 1.272 . S
O251 Co243 2.135 . S
Co252 O253 2.216 . S
Co252 O254 2.091 . S
Co252 O256 2.004 . S
Co252 O262 2.021 . S
Co252 O264 2.137 . S
Co252 O265 2.244 . S
O253 Co252 2.216 . S
O253 C260 1.247 . S
O254 Co252 2.091 . S
O254 C260 1.261 . S
C255 O264 1.247 . S
C255 O265 1.272 . S
O256 Co252 2.004 . S
O256 C261 1.259 . S
Co257 O258 2.061 . S
Co257 O263 2.052 . S
Co257 O265 2.135 . S
O258 Co257 2.061 . S
O258 C261 1.235 . S
C259 O262 1.238 . S
C259 O263 1.241 . S
C260 O253 1.247 . S
C260 O254 1.261 . S
C261 O256 1.259 . S
C261 O258 1.235 . S
O262 Co252 2.021 . S
O262 C259 1.238 . S
O263 Co257 2.052 . S
O263 C259 1.241 . S
O264 Co252 2.137 . S
O264 C255 1.247 . S
O265 Co252 2.244 . S
O265 C255 1.272 . S
O265 Co257 2.135 . S
Co266 O267 2.216 . S
Co266 O268 2.091 . S
Co266 O270 2.004 . S
Co266 O276 2.021 . S
Co266 O278 2.137 . S
Co266 O279 2.244 . S
O267 Co266 2.216 . S
O267 C274 1.247 . S
O268 Co266 2.091 . S
O268 C274 1.261 . S
C269 O278 1.247 . S
C269 O279 1.272 . S
O270 Co266 2.004 . S
O270 C275 1.259 . S
Co271 O272 2.061 . S
Co271 O277 2.052 . S
Co271 O279 2.135 . S
O272 Co271 2.061 . S
O272 C275 1.235 . S
C273 O276 1.238 . S
C273 O277 1.241 . S
C274 O267 1.247 . S
C274 O268 1.261 . S
C275 O270 1.259 . S
C275 O272 1.235 . S
O276 Co266 2.021 . S
O276 C273 1.238 . S
O277 Co271 2.052 . S
O277 C273 1.241 . S
O278 Co266 2.137 . S
O278 C269 1.247 . S
O279 Co266 2.244 . S
O279 C269 1.272 . S
O279 Co271 2.135 . S
Co280 O281 2.216 . S
Co280 O282 2.091 . S
Co280 O284 2.004 . S
Co280 O290 2.021 . S
Co280 O292 2.137 . S
Co280 O293 2.244 . S
O281 Co280 2.216 . S
O281 C288 1.247 . S
O282 Co280 2.091 . S
O282 C288 1.261 . S
C283 O292 1.247 . S
C283 O293 1.272 . S
O284 Co280 2.004 . S
O284 C289 1.259 . S
Co285 O286 2.061 . S
Co285 O291 2.052 . S
Co285 O293 2.135 . S
O286 Co285 2.061 . S
O286 C289 1.235 . S
C287 O290 1.238 . S
C287 O291 1.241 . S
C288 O281 1.247 . S
C288 O282 1.261 . S
C289 O284 1.259 . S
C289 O286 1.235 . S
O290 Co280 2.021 . S
O290 C287 1.238 . S
O291 Co285 2.052 . S
O291 C287 1.241 . S
O292 Co280 2.137 . S
O292 C283 1.247 . S
O293 Co280 2.244 . S
O293 C283 1.272 . S
O293 Co285 2.135 . S
Co294 O295 2.216 . S
Co294 O296 2.091 . S
Co294 O298 2.004 . S
Co294 O304 2.021 . S
Co294 O306 2.137 . S
Co294 O307 2.244 . S
O295 Co294 2.216 . S
O295 C302 1.247 . S
O296 Co294 2.091 . S
O296 C302 1.261 . S
C297 O306 1.247 . S
C297 O307 1.272 . S
O298 Co294 2.004 . S
O298 C303 1.259 . S
Co299 O300 2.061 . S
Co299 O305 2.052 . S
Co299 O307 2.135 . S
O300 Co299 2.061 . S
O300 C303 1.235 . S
C301 O304 1.238 . S
C301 O305 1.241 . S
C302 O295 1.247 . S
C302 O296 1.261 . S
C303 O298 1.259 . S
C303 O300 1.235 . S
O304 Co294 2.021 . S
O304 C301 1.238 . S
O305 Co299 2.052 . S
O305 C301 1.241 . S
O306 Co294 2.137 . S
O306 C297 1.247 . S
O307 Co294 2.244 . S
O307 C297 1.272 . S
O307 Co299 2.135 . S
Co308 O309 2.216 . S
Co308 O310 2.091 . S
Co308 O312 2.004 . S
Co308 O318 2.021 . S
Co308 O320 2.137 . S
Co308 O321 2.244 . S
O309 Co308 2.216 . S
O309 C316 1.247 . S
O310 Co308 2.091 . S
O310 C316 1.261 . S
C311 O320 1.247 . S
C311 O321 1.272 . S
O312 Co308 2.004 . S
O312 C317 1.259 . S
Co313 O314 2.061 . S
Co313 O319 2.052 . S
Co313 O321 2.135 . S
O314 Co313 2.061 . S
O314 C317 1.235 . S
C315 O318 1.238 . S
C315 O319 1.241 . S
C316 O309 1.247 . S
C316 O310 1.261 . S
C317 O312 1.259 . S
C317 O314 1.235 . S
O318 Co308 2.021 . S
O318 C315 1.238 . S
O319 Co313 2.052 . S
O319 C315 1.241 . S
O320 Co308 2.137 . S
O320 C311 1.247 . S
O321 Co308 2.244 . S
O321 C311 1.272 . S
O321 Co313 2.135 . S
Co322 O323 2.216 . S
Co322 O324 2.091 . S
Co322 O326 2.004 . S
Co322 O332 2.021 . S
Co322 O334 2.137 . S
Co322 O335 2.244 . S
O323 Co322 2.216 . S
O323 C330 1.247 . S
O324 Co322 2.091 . S
O324 C330 1.261 . S
C325 O334 1.247 . S
C325 O335 1.272 . S
O326 Co322 2.004 . S
O326 C331 1.259 . S
Co327 O328 2.061 . S
Co327 O333 2.052 . S
Co327 O335 2.135 . S
O328 Co327 2.061 . S
O328 C331 1.235 . S
C329 O332 1.238 . S
C329 O333 1.241 . S
C330 O323 1.247 . S
C330 O324 1.261 . S
C331 O326 1.259 . S
C331 O328 1.235 . S
O332 Co322 2.021 . S
O332 C329 1.238 . S
O333 Co327 2.052 . S
O333 C329 1.241 . S
O334 Co322 2.137 . S
O334 C325 1.247 . S
O335 Co322 2.244 . S
O335 C325 1.272 . S
O335 Co327 2.135 . S
Co336 O337 2.216 . S
Co336 O338 2.091 . S
Co336 O340 2.004 . S
Co336 O346 2.021 . S
Co336 O348 2.137 . S
Co336 O349 2.244 . S
O337 Co336 2.216 . S
O337 C344 1.247 . S
O338 Co336 2.091 . S
O338 C344 1.261 . S
C339 O348 1.247 . S
C339 O349 1.272 . S
O340 Co336 2.004 . S
O340 C345 1.259 . S
Co341 O342 2.061 . S
Co341 O347 2.052 . S
Co341 O349 2.135 . S
O342 Co341 2.061 . S
O342 C345 1.235 . S
C343 O346 1.238 . S
C343 O347 1.241 . S
C344 O337 1.247 . S
C344 O338 1.261 . S
C345 O340 1.259 . S
C345 O342 1.235 . S
O346 Co336 2.021 . S
O346 C343 1.238 . S
O347 Co341 2.052 . S
O347 C343 1.241 . S
O348 Co336 2.137 . S
O348 C339 1.247 . S
O349 Co336 2.244 . S
O349 C339 1.272 . S
O349 Co341 2.135 . S
Co350 O351 2.216 . S
Co350 O352 2.091 . S
Co350 O354 2.004 . S
Co350 O360 2.021 . S
Co350 O362 2.137 . S
Co350 O363 2.244 . S
O351 Co350 2.216 . S
O351 C358 1.247 . S
O352 Co350 2.091 . S
O352 C358 1.261 . S
C353 O362 1.247 . S
C353 O363 1.272 . S
O354 Co350 2.004 . S
O354 C359 1.259 . S
Co355 O356 2.061 . S
Co355 O361 2.052 . S
Co355 O363 2.135 . S
O356 Co355 2.061 . S
O356 C359 1.235 . S
C357 O360 1.238 . S
C357 O361 1.241 . S
C358 O351 1.247 . S
C358 O352 1.261 . S
C359 O354 1.259 . S
C359 O356 1.235 . S
O360 Co350 2.021 . S
O360 C357 1.238 . S
O361 Co355 2.052 . S
O361 C357 1.241 . S
O362 Co350 2.137 . S
O362 C353 1.247 . S
O363 Co350 2.244 . S
O363 C353 1.272 . S
O363 Co355 2.135 . S
Co364 O365 2.216 . S
Co364 O366 2.091 . S
Co364 O368 2.004 . S
Co364 O374 2.021 . S
Co364 O376 2.137 . S
Co364 O377 2.244 . S
O365 Co364 2.216 . S
O365 C372 1.247 . S
O366 Co364 2.091 . S
O366 C372 1.261 . S
C367 O376 1.247 . S
C367 O377 1.272 . S
O368 Co364 2.004 . S
O368 C373 1.259 . S
Co369 O370 2.061 . S
Co369 O375 2.052 . S
Co369 O377 2.135 . S
O370 Co369 2.061 . S
O370 C373 1.235 . S
C371 O374 1.238 . S
C371 O375 1.241 . S
C372 O365 1.247 . S
C372 O366 1.261 . S
C373 O368 1.259 . S
C373 O370 1.235 . S
O374 Co364 2.021 . S
O374 C371 1.238 . S
O375 Co369 2.052 . S
O375 C371 1.241 . S
O376 Co364 2.137 . S
O376 C367 1.247 . S
O377 Co364 2.244 . S
O377 C367 1.272 . S
O377 Co369 2.135 . S
Co378 O379 2.216 . S
Co378 O380 2.091 . S
Co378 O382 2.004 . S
Co378 O388 2.021 . S
Co378 O390 2.137 . S
Co378 O391 2.244 . S
O379 Co378 2.216 . S
O379 C386 1.247 . S
O380 Co378 2.091 . S
O380 C386 1.261 . S
C381 O390 1.247 . S
C381 O391 1.272 . S
O382 Co378 2.004 . S
O382 C387 1.259 . S
Co383 O384 2.061 . S
Co383 O389 2.052 . S
Co383 O391 2.135 . S
O384 Co383 2.061 . S
O384 C387 1.235 . S
C385 O388 1.238 . S
C385 O389 1.241 . S
C386 O379 1.247 . S
C386 O380 1.261 . S
C387 O382 1.259 . S
C387 O384 1.235 . S
O388 Co378 2.021 . S
O388 C385 1.238 . S
O389 Co383 2.052 . S
O389 C385 1.241 . S
O390 Co378 2.137 . S
O390 C381 1.247 . S
O391 Co378 2.244 . S
O391 C381 1.272 . S
O391 Co383 2.135 . S
Co392 O393 2.216 . S
Co392 O394 2.091 . S
Co392 O396 2.004 . S
Co392 O402 2.021 . S
Co392 O404 2.137 . S
Co392 O405 2.244 . S
O393 Co392 2.216 . S
O393 C400 1.247 . S
O394 Co392 2.091 . S
O394 C400 1.261 . S
C395 O404 1.247 . S
C395 O405 1.272 . S
O396 Co392 2.004 . S
O396 C401 1.259 . S
Co397 O398 2.061 . S
Co397 O403 2.052 . S
Co397 O405 2.135 . S
O398 Co397 2.061 . S
O398 C401 1.235 . S
C399 O402 1.238 . S
C399 O403 1.241 . S
C400 O393 1.247 . S
C400 O394 1.261 . S
C401 O396 1.259 . S
C401 O398 1.235 . S
O402 Co392 2.021 . S
O402 C399 1.238 . S
O403 Co397 2.052 . S
O403 C399 1.241 . S
O404 Co392 2.137 . S
O404 C395 1.247 . S
O405 Co392 2.244 . S
O405 C395 1.272 . S
O405 Co397 2.135 . S
Co406 O407 2.216 . S
Co406 O408 2.091 . S
Co406 O410 2.004 . S
Co406 O416 2.021 . S
Co406 O418 2.137 . S
Co406 O419 2.244 . S
O407 Co406 2.216 . S
O407 C414 1.247 . S
O408 Co406 2.091 . S
O408 C414 1.261 . S
C409 O418 1.247 . S
C409 O419 1.272 . S
O410 Co406 2.004 . S
O410 C415 1.259 . S
Co411 O412 2.061 . S
Co411 O417 2.052 . S
Co411 O419 2.135 . S
O412 Co411 2.061 . S
O412 C415 1.235 . S
C413 O416 1.238 . S
C413 O417 1.241 . S
C414 O407 1.247 . S
C414 O408 1.261 . S
C415 O410 1.259 . S
C415 O412 1.235 . S
O416 Co406 2.021 . S
O416 C413 1.238 . S
O417 Co411 2.052 . S
O417 C413 1.241 . S
O418 Co406 2.137 . S
O418 C409 1.247 . S
O419 Co406 2.244 . S
O419 C409 1.272 . S
O419 Co411 2.135 . S
Co420 O421 2.216 . S
Co420 O422 2.091 . S
Co420 O424 2.004 . S
Co420 O430 2.021 . S
Co420 O432 2.137 . S
Co420 O433 2.244 . S
O421 Co420 2.216 . S
O421 C428 1.247 . S
O422 Co420 2.091 . S
O422 C428 1.261 . S
C423 O432 1.247 . S
C423 O433 1.272 . S
O424 Co420 2.004 . S
O424 C429 1.259 . S
Co425 O426 2.061 . S
Co425 O431 2.052 . S
Co425 O433 2.135 . S
O426 Co425 2.061 . S
O426 C429 1.235 . S
C427 O430 1.238 . S
C427 O431 1.241 . S
C428 O421 1.247 . S
C428 O422 1.261 . S
C429 O424 1.259 . S
C429 O426 1.235 . S
O430 Co420 2.021 . S
O430 C427 1.238 . S
O431 Co425 2.052 . S
O431 C427 1.241 . S
O432 Co420 2.137 . S
O432 C423 1.247 . S
O433 Co420 2.244 . S
O433 C423 1.272 . S
O433 Co425 2.135 . S
Co434 O435 2.216 . S
Co434 O436 2.091 . S
Co434 O438 2.004 . S
Co434 O444 2.021 . S
Co434 O446 2.137 . S
Co434 O447 2.244 . S
O435 Co434 2.216 . S
O435 C442 1.247 . S
O436 Co434 2.091 . S
O436 C442 1.261 . S
C437 O446 1.247 . S
C437 O447 1.272 . S
O438 Co434 2.004 . S
O438 C443 1.259 . S
Co439 O440 2.061 . S
Co439 O445 2.052 . S
Co439 O447 2.135 . S
O440 Co439 2.061 . S
O440 C443 1.235 . S
C441 O444 1.238 . S
C441 O445 1.241 . S
C442 O435 1.247 . S
C442 O436 1.261 . S
C443 O438 1.259 . S
C443 O440 1.235 . S
O444 Co434 2.021 . S
O444 C441 1.238 . S
O445 Co439 2.052 . S
O445 C441 1.241 . S
O446 Co434 2.137 . S
O446 C437 1.247 . S
O447 Co434 2.244 . S
O447 C437 1.272 . S
O447 Co439 2.135 . S
Co448 O449 2.216 . S
Co448 O450 2.091 . S
Co448 O452 2.004 . S
Co448 O458 2.021 . S
Co448 O460 2.137 . S
Co448 O461 2.244 . S
O449 Co448 2.216 . S
O449 C456 1.247 . S
O450 Co448 2.091 . S
O450 C456 1.261 . S
C451 O460 1.247 . S
C451 O461 1.272 . S
O452 Co448 2.004 . S
O452 C457 1.259 . S
Co453 O454 2.061 . S
Co453 O459 2.052 . S
Co453 O461 2.135 . S
O454 Co453 2.061 . S
O454 C457 1.235 . S
C455 O458 1.238 . S
C455 O459 1.241 . S
C456 O449 1.247 . S
C456 O450 1.261 . S
C457 O452 1.259 . S
C457 O454 1.235 . S
O458 Co448 2.021 . S
O458 C455 1.238 . S
O459 Co453 2.052 . S
O459 C455 1.241 . S
O460 Co448 2.137 . S
O460 C451 1.247 . S
O461 Co448 2.244 . S
O461 C451 1.272 . S
O461 Co453 2.135 . S
Co462 O463 2.216 . S
Co462 O464 2.091 . S
Co462 O466 2.004 . S
Co462 O472 2.021 . S
Co462 O474 2.137 . S
Co462 O475 2.244 . S
O463 Co462 2.216 . S
O463 C470 1.247 . S
O464 Co462 2.091 . S
O464 C470 1.261 . S
C465 O474 1.247 . S
C465 O475 1.272 . S
O466 Co462 2.004 . S
O466 C471 1.259 . S
Co467 O468 2.061 . S
Co467 O473 2.052 . S
Co467 O475 2.135 . S
O468 Co467 2.061 . S
O468 C471 1.235 . S
C469 O472 1.238 . S
C469 O473 1.241 . S
C470 O463 1.247 . S
C470 O464 1.261 . S
C471 O466 1.259 . S
C471 O468 1.235 . S
O472 Co462 2.021 . S
O472 C469 1.238 . S
O473 Co467 2.052 . S
O473 C469 1.241 . S
O474 Co462 2.137 . S
O474 C465 1.247 . S
O475 Co462 2.244 . S
O475 C465 1.272 . S
O475 Co467 2.135 . S
Co476 O477 2.216 . S
Co476 O478 2.091 . S
Co476 O480 2.004 . S
Co476 O486 2.021 . S
Co476 O488 2.137 . S
Co476 O489 2.244 . S
O477 Co476 2.216 . S
O477 C484 1.247 . S
O478 Co476 2.091 . S
O478 C484 1.261 . S
C479 O488 1.247 . S
C479 O489 1.272 . S
O480 Co476 2.004 . S
O480 C485 1.259 . S
Co481 O482 2.061 . S
Co481 O487 2.052 . S
Co481 O489 2.135 . S
O482 Co481 2.061 . S
O482 C485 1.235 . S
C483 O486 1.238 . S
C483 O487 1.241 . S
C484 O477 1.247 . S
C484 O478 1.261 . S
C485 O480 1.259 . S
C485 O482 1.235 . S
O486 Co476 2.021 . S
O486 C483 1.238 . S
O487 Co481 2.052 . S
O487 C483 1.241 . S
O488 Co476 2.137 . S
O488 C479 1.247 . S
O489 Co476 2.244 . S
O489 C479 1.272 . S
O489 Co481 2.135 . S
Co490 O491 2.216 . S
Co490 O492 2.091 . S
Co490 O494 2.004 . S
Co490 O500 2.021 . S
Co490 O502 2.137 . S
Co490 O503 2.244 . S
O491 Co490 2.216 . S
O491 C498 1.247 . S
O492 Co490 2.091 . S
O492 C498 1.261 . S
C493 O502 1.247 . S
C493 O503 1.272 . S
O494 Co490 2.004 . S
O494 C499 1.259 . S
Co495 O496 2.061 . S
Co495 O501 2.052 . S
Co495 O503 2.135 . S
O496 Co495 2.061 . S
O496 C499 1.235 . S
C497 O500 1.238 . S
C497 O501 1.241 . S
C498 O491 1.247 . S
C498 O492 1.261 . S
C499 O494 1.259 . S
C499 O496 1.235 . S
O500 Co490 2.021 . S
O500 C497 1.238 . S
O501 Co495 2.052 . S
O501 C497 1.241 . S
O502 Co490 2.137 . S
O502 C493 1.247 . S
O503 Co490 2.244 . S
O503 C493 1.272 . S
O503 Co495 2.135 . S
C504 C505 1.349 . S
C504 C506 1.327 . S
C504 H529 0.950 . S
C505 C504 1.349 . S
C505 C521 1.349 . S
C506 C504 1.327 . S
C506 C525 1.429 . S
C506 H530 0.950 . S
C507 C524 1.574 1_565 S
C507 C526 1.368 . S
C507 H531 0.949 . S
H508 C512 0.949 . S
C509 C510 1.349 . S
C509 C511 1.327 . S
C509 H532 0.950 . S
C510 C509 1.349 . S
C510 C522 1.349 . S
C511 C509 1.327 . S
C511 C527 1.429 . S
C511 H533 0.950 . S
C512 H508 0.949 . S
C512 C520 1.574 1_545 S
C512 C528 1.368 . S
H513 C521 0.950 . S
H514 C519 0.950 . S
H515 C520 0.949 . S
H516 C522 0.950 . S
H517 C523 0.950 . S
H518 C524 0.949 . S
C519 H514 0.950 . S
C519 C521 1.327 . S
C519 C525 1.429 . S
C520 C512 1.574 1_565 S
C520 H515 0.949 . S
C520 C526 1.368 . S
C521 C505 1.349 . S
C521 H513 0.950 . S
C521 C519 1.327 . S
C522 C510 1.349 . S
C522 H516 0.950 . S
C522 C523 1.327 . S
C523 H517 0.950 . S
C523 C522 1.327 . S
C523 C527 1.429 . S
C524 C507 1.574 1_545 S
C524 H518 0.949 . S
C524 C528 1.368 . S
C525 C506 1.429 . S
C525 C519 1.429 . S
C525 C526 1.523 . S
C526 C507 1.368 . S
C526 C520 1.368 . S
C526 C525 1.523 . S
C527 C511 1.429 . S
C527 C523 1.429 . S
C527 C528 1.523 . S
C528 C512 1.368 . S
C528 C524 1.368 . S
C528 C527 1.523 . S
H529 C504 0.950 . S
H530 C506 0.950 . S
H531 C507 0.949 . S
H532 C509 0.950 . S
H533 C511 0.950 . S
C534 C535 1.349 . S
C534 C536 1.327 . S
C534 H559 0.950 . S
C535 C534 1.349 . S
C535 C551 1.349 . S
C536 C534 1.327 . S
C536 C555 1.429 . S
C536 H560 0.950 . S
C537 C554 1.574 1_455 S
C537 C556 1.368 . S
C537 H561 0.949 . S
H538 C542 0.949 . S
C539 C540 1.349 . S
C539 C541 1.327 . S
C539 H562 0.950 . S
C540 C539 1.349 . S
C540 C552 1.349 . S
C541 C539 1.327 . S
C541 C557 1.429 . S
C541 H563 0.950 . S
C542 H538 0.949 . S
C542 C550 1.574 1_655 S
C542 C558 1.368 . S
H543 C551 0.950 . S
H544 C549 0.950 . S
H545 C550 0.949 . S
H546 C552 0.950 . S
H547 C553 0.950 . S
H548 C554 0.949 . S
C549 H544 0.950 . S
C549 C551 1.327 . S
C549 C555 1.429 . S
C550 C542 1.574 1_455 S
C550 H545 0.949 . S
C550 C556 1.368 . S
C551 C535 1.349 . S
C551 H543 0.950 . S
C551 C549 1.327 . S
C552 C540 1.349 . S
C552 H546 0.950 . S
C552 C553 1.327 . S
C553 H547 0.950 . S
C553 C552 1.327 . S
C553 C557 1.429 . S
C554 C537 1.574 1_655 S
C554 H548 0.949 . S
C554 C558 1.368 . S
C555 C536 1.429 . S
C555 C549 1.429 . S
C555 C556 1.523 . S
C556 C537 1.368 . S
C556 C550 1.368 . S
C556 C555 1.523 . S
C557 C541 1.429 . S
C557 C553 1.429 . S
C557 C558 1.523 . S
C558 C542 1.368 . S
C558 C554 1.368 . S
C558 C557 1.523 . S
H559 C534 0.950 . S
H560 C536 0.950 . S
H561 C537 0.949 . S
H562 C539 0.950 . S
H563 C541 0.950 . S
C564 C565 1.349 . S
C564 C566 1.327 . S
C564 H589 0.950 . S
C565 C564 1.349 . S
C565 C581 1.349 . S
C566 C564 1.327 . S
C566 C585 1.429 . S
C566 H590 0.950 . S
C567 C584 1.574 . S
C567 C586 1.368 . S
C567 H591 0.949 . S
H568 C572 0.949 . S
C569 C570 1.349 . S
C569 C571 1.327 . S
C569 H592 0.950 . S
C570 C569 1.349 . S
C570 C582 1.349 . S
C571 C569 1.327 . S
C571 C587 1.429 . S
C571 H593 0.950 . S
C572 H568 0.949 . S
C572 C580 1.574 . S
C572 C588 1.368 . S
H573 C581 0.950 . S
H574 C579 0.950 . S
H575 C580 0.949 . S
H576 C582 0.950 . S
H577 C583 0.950 . S
H578 C584 0.949 . S
C579 H574 0.950 . S
C579 C581 1.327 . S
C579 C585 1.429 . S
C580 C572 1.574 . S
C580 H575 0.949 . S
C580 C586 1.368 . S
C581 C565 1.349 . S
C581 H573 0.950 . S
C581 C579 1.327 . S
C582 C570 1.349 . S
C582 H576 0.950 . S
C582 C583 1.327 . S
C583 H577 0.950 . S
C583 C582 1.327 . S
C583 C587 1.429 . S
C584 C567 1.574 . S
C584 H578 0.949 . S
C584 C588 1.368 . S
C585 C566 1.429 . S
C585 C579 1.429 . S
C585 C586 1.523 . S
C586 C567 1.368 . S
C586 C580 1.368 . S
C586 C585 1.523 . S
C587 C571 1.429 . S
C587 C583 1.429 . S
C587 C588 1.523 . S
C588 C572 1.368 . S
C588 C584 1.368 . S
C588 C587 1.523 . S
H589 C564 0.950 . S
H590 C566 0.950 . S
H591 C567 0.949 . S
H592 C569 0.950 . S
H593 C571 0.950 . S
C594 C595 1.349 . S
C594 C596 1.327 . S
C594 H619 0.950 . S
C595 C594 1.349 . S
C595 C611 1.349 . S
C596 C594 1.327 . S
C596 C615 1.429 . S
C596 H620 0.950 . S
C597 C614 1.574 1_565 S
C597 C616 1.368 . S
C597 H621 0.949 . S
H598 C602 0.949 . S
C599 C600 1.349 . S
C599 C601 1.327 . S
C599 H622 0.950 . S
C600 C599 1.349 . S
C600 C612 1.349 . S
C601 C599 1.327 . S
C601 C617 1.429 . S
C601 H623 0.950 . S
C602 H598 0.949 . S
C602 C610 1.574 1_545 S
C602 C618 1.368 . S
H603 C611 0.950 . S
H604 C609 0.950 . S
H605 C610 0.949 . S
H606 C612 0.950 . S
H607 C613 0.950 . S
H608 C614 0.949 . S
C609 H604 0.950 . S
C609 C611 1.327 . S
C609 C615 1.429 . S
C610 C602 1.574 1_565 S
C610 H605 0.949 . S
C610 C616 1.368 . S
C611 C595 1.349 . S
C611 H603 0.950 . S
C611 C609 1.327 . S
C612 C600 1.349 . S
C612 H606 0.950 . S
C612 C613 1.327 . S
C613 H607 0.950 . S
C613 C612 1.327 . S
C613 C617 1.429 . S
C614 C597 1.574 1_545 S
C614 H608 0.949 . S
C614 C618 1.368 . S
C615 C596 1.429 . S
C615 C609 1.429 . S
C615 C616 1.523 . S
C616 C597 1.368 . S
C616 C610 1.368 . S
C616 C615 1.523 . S
C617 C601 1.429 . S
C617 C613 1.429 . S
C617 C618 1.523 . S
C618 C602 1.368 . S
C618 C614 1.368 . S
C618 C617 1.523 . S
H619 C594 0.950 . S
H620 C596 0.950 . S
H621 C597 0.949 . S
H622 C599 0.950 . S
H623 C601 0.950 . S
C624 C625 1.349 . S
C624 C626 1.327 . S
C624 H649 0.950 . S
C625 C624 1.349 . S
C625 C641 1.349 . S
C626 C624 1.327 . S
C626 C645 1.429 . S
C626 H650 0.950 . S
C627 C644 1.574 1_455 S
C627 C646 1.368 . S
C627 H651 0.949 . S
H628 C632 0.949 . S
C629 C630 1.349 . S
C629 C631 1.327 . S
C629 H652 0.950 . S
C630 C629 1.349 . S
C630 C642 1.349 . S
C631 C629 1.327 . S
C631 C647 1.429 . S
C631 H653 0.950 . S
C632 H628 0.949 . S
C632 C640 1.574 1_655 S
C632 C648 1.368 . S
H633 C641 0.950 . S
H634 C639 0.950 . S
H635 C640 0.949 . S
H636 C642 0.950 . S
H637 C643 0.950 . S
H638 C644 0.949 . S
C639 H634 0.950 . S
C639 C641 1.327 . S
C639 C645 1.429 . S
C640 C632 1.574 1_455 S
C640 H635 0.949 . S
C640 C646 1.368 . S
C641 C625 1.349 . S
C641 H633 0.950 . S
C641 C639 1.327 . S
C642 C630 1.349 . S
C642 H636 0.950 . S
C642 C643 1.327 . S
C643 H637 0.950 . S
C643 C642 1.327 . S
C643 C647 1.429 . S
C644 C627 1.574 1_655 S
C644 H638 0.949 . S
C644 C648 1.368 . S
C645 C626 1.429 . S
C645 C639 1.429 . S
C645 C646 1.523 . S
C646 C627 1.368 . S
C646 C640 1.368 . S
C646 C645 1.523 . S
C647 C631 1.429 . S
C647 C643 1.429 . S
C647 C648 1.523 . S
C648 C632 1.368 . S
C648 C644 1.368 . S
C648 C647 1.523 . S
H649 C624 0.950 . S
H650 C626 0.950 . S
H651 C627 0.949 . S
H652 C629 0.950 . S
H653 C631 0.950 . S
C654 C655 1.349 . S
C654 C656 1.327 . S
C654 H679 0.950 . S
C655 C654 1.349 . S
C655 C671 1.349 . S
C656 C654 1.327 . S
C656 C675 1.429 . S
C656 H680 0.950 . S
C657 C674 1.574 . S
C657 C676 1.368 . S
C657 H681 0.949 . S
H658 C662 0.949 . S
C659 C660 1.349 . S
C659 C661 1.327 . S
C659 H682 0.950 . S
C660 C659 1.349 . S
C660 C672 1.349 . S
C661 C659 1.327 . S
C661 C677 1.429 . S
C661 H683 0.950 . S
C662 H658 0.949 . S
C662 C670 1.574 . S
C662 C678 1.368 . S
H663 C671 0.950 . S
H664 C669 0.950 . S
H665 C670 0.949 . S
H666 C672 0.950 . S
H667 C673 0.950 . S
H668 C674 0.949 . S
C669 H664 0.950 . S
C669 C671 1.327 . S
C669 C675 1.429 . S
C670 C662 1.574 . S
C670 H665 0.949 . S
C670 C676 1.368 . S
C671 C655 1.349 . S
C671 H663 0.950 . S
C671 C669 1.327 . S
C672 C660 1.349 . S
C672 H666 0.950 . S
C672 C673 1.327 . S
C673 H667 0.950 . S
C673 C672 1.327 . S
C673 C677 1.429 . S
C674 C657 1.574 . S
C674 H668 0.949 . S
C674 C678 1.368 . S
C675 C656 1.429 . S
C675 C669 1.429 . S
C675 C676 1.523 . S
C676 C657 1.368 . S
C676 C670 1.368 . S
C676 C675 1.523 . S
C677 C661 1.429 . S
C677 C673 1.429 . S
C677 C678 1.523 . S
C678 C662 1.368 . S
C678 C674 1.368 . S
C678 C677 1.523 . S
H679 C654 0.950 . S
H680 C656 0.950 . S
H681 C657 0.949 . S
H682 C659 0.950 . S
H683 C661 0.950 . S
C684 C685 1.349 . S
C684 C686 1.327 . S
C684 H709 0.950 . S
C685 C684 1.349 . S
C685 C701 1.349 . S
C686 C684 1.327 . S
C686 C705 1.430 1_455 S
C686 H710 0.950 . S
C687 C704 1.574 . S
C687 C706 1.368 . S
C687 H711 0.949 . S
H688 C692 0.949 . S
C689 C690 1.349 . S
C689 C691 1.327 . S
C689 H712 0.950 . S
C690 C689 1.349 . S
C690 C702 1.349 . S
C691 C689 1.327 . S
C691 C707 1.429 . S
C691 H713 0.950 . S
C692 H688 0.949 . S
C692 C700 1.574 . S
C692 C708 1.368 . S
H693 C701 0.950 . S
H694 C699 0.950 . S
H695 C700 0.949 1_455 S
H696 C702 0.950 . S
H697 C703 0.950 . S
H698 C704 0.949 . S
C699 H694 0.950 . S
C699 C701 1.327 1_655 S
C699 C705 1.427 . S
C700 C692 1.574 . S
C700 H695 0.949 1_655 S
C700 C706 1.368 . S
C701 C685 1.349 . S
C701 H693 0.950 . S
C701 C699 1.327 1_455 S
C702 C690 1.349 . S
C702 H696 0.950 . S
C702 C703 1.327 . S
C703 H697 0.950 . S
C703 C702 1.327 . S
C703 C707 1.429 . S
C704 C687 1.574 . S
C704 H698 0.949 . S
C704 C708 1.368 . S
C705 C686 1.430 1_655 S
C705 C699 1.427 . S
C705 C706 1.523 . S
C706 C687 1.368 . S
C706 C700 1.368 . S
C706 C705 1.523 . S
C707 C691 1.429 . S
C707 C703 1.429 . S
C707 C708 1.523 . S
C708 C692 1.368 . S
C708 C704 1.368 . S
C708 C707 1.523 . S
H709 C684 0.950 . S
H710 C686 0.950 . S
H711 C687 0.949 . S
H712 C689 0.950 . S
H713 C691 0.950 . S
C714 C715 1.349 . S
C714 C716 1.327 . S
C714 H739 0.950 . S
C715 C714 1.349 . S
C715 C731 1.349 . S
C716 C714 1.327 . S
C716 C735 1.429 . S
C716 H740 0.950 . S
C717 C734 1.574 . S
C717 C736 1.368 . S
C717 H741 0.949 . S
H718 C722 0.949 . S
C719 C720 1.349 . S
C719 C721 1.327 . S
C719 H742 0.950 . S
C720 C719 1.349 . S
C720 C732 1.349 . S
C721 C719 1.327 . S
C721 C737 1.429 . S
C721 H743 0.950 . S
C722 H718 0.949 . S
C722 C730 1.574 . S
C722 C738 1.368 . S
H723 C731 0.950 . S
H724 C729 0.950 . S
H725 C730 0.949 . S
H726 C732 0.950 . S
H727 C733 0.950 . S
H728 C734 0.949 . S
C729 H724 0.950 . S
C729 C731 1.327 . S
C729 C735 1.429 . S
C730 C722 1.574 . S
C730 H725 0.949 . S
C730 C736 1.368 . S
C731 C715 1.349 . S
C731 H723 0.950 . S
C731 C729 1.327 . S
C732 C720 1.349 . S
C732 H726 0.950 . S
C732 C733 1.327 . S
C733 H727 0.950 . S
C733 C732 1.327 . S
C733 C737 1.429 . S
C734 C717 1.574 . S
C734 H728 0.949 . S
C734 C738 1.368 . S
C735 C716 1.429 . S
C735 C729 1.429 . S
C735 C736 1.523 . S
C736 C717 1.368 . S
C736 C730 1.368 . S
C736 C735 1.523 . S
C737 C721 1.429 . S
C737 C733 1.429 . S
C737 C738 1.523 . S
C738 C722 1.368 . S
C738 C734 1.368 . S
C738 C737 1.523 . S
H739 C714 0.950 . S
H740 C716 0.950 . S
H741 C717 0.949 . S
H742 C719 0.950 . S
H743 C721 0.950 . S
C744 C745 1.349 . S
C744 C746 1.327 . S
C744 H769 0.950 . S
C745 C744 1.349 . S
C745 C761 1.349 . S
C746 C744 1.327 . S
C746 C765 1.429 . S
C746 H770 0.950 . S
C747 C764 1.574 . S
C747 C766 1.368 . S
C747 H771 0.949 . S
H748 C752 0.949 1_565 S
C749 C750 1.349 . S
C749 C751 1.327 1_565 S
C749 H772 0.955 1_565 S
C750 C749 1.349 . S
C750 C762 1.349 . S
C751 C749 1.327 1_545 S
C751 C767 1.429 . S
C751 H773 0.950 . S
C752 H748 0.949 1_545 S
C752 C760 1.574 . S
C752 C768 1.368 . S
H753 C761 0.950 . S
H754 C759 0.950 . S
H755 C760 0.949 . S
H756 C762 0.950 . S
H757 C763 0.950 . S
H758 C764 0.949 . S
C759 H754 0.950 . S
C759 C761 1.327 . S
C759 C765 1.429 . S
C760 C752 1.574 . S
C760 H755 0.949 . S
C760 C766 1.368 . S
C761 C745 1.349 . S
C761 H753 0.950 . S
C761 C759 1.327 . S
C762 C750 1.349 . S
C762 H756 0.950 . S
C762 C763 1.327 . S
C763 H757 0.950 . S
C763 C762 1.327 . S
C763 C767 1.429 1_565 S
C764 C747 1.574 . S
C764 H758 0.949 . S
C764 C768 1.368 . S
C765 C746 1.429 . S
C765 C759 1.429 . S
C765 C766 1.523 . S
C766 C747 1.368 . S
C766 C760 1.368 . S
C766 C765 1.523 . S
C767 C751 1.429 . S
C767 C763 1.429 1_545 S
C767 C768 1.522 . S
C768 C752 1.368 . S
C768 C764 1.368 . S
C768 C767 1.522 . S
H769 C744 0.950 . S
H770 C746 0.950 . S
H771 C747 0.949 . S
H772 C749 0.955 1_545 S
H773 C751 0.950 . S
C774 C775 1.349 . S
C774 C776 1.327 . S
C774 H799 0.950 . S
C775 C774 1.349 . S
C775 C791 1.349 . S
C776 C774 1.327 . S
C776 C795 1.429 . S
C776 H800 0.950 . S
C777 C794 1.574 . S
C777 C796 1.368 . S
C777 H801 0.949 . S
H778 C782 0.949 . S
C779 C780 1.349 . S
C779 C781 1.327 . S
C779 H802 0.950 . S
C780 C779 1.349 . S
C780 C792 1.349 . S
C781 C779 1.327 . S
C781 C797 1.429 . S
C781 H803 0.950 . S
C782 H778 0.949 . S
C782 C790 1.574 . S
C782 C798 1.368 . S
H783 C791 0.950 . S
H784 C789 0.950 . S
H785 C790 0.949 . S
H786 C792 0.950 . S
H787 C793 0.950 . S
H788 C794 0.949 . S
C789 H784 0.950 . S
C789 C791 1.327 . S
C789 C795 1.429 . S
C790 C782 1.574 . S
C790 H785 0.949 . S
C790 C796 1.368 . S
C791 C775 1.349 . S
C791 H783 0.950 . S
C791 C789 1.327 . S
C792 C780 1.349 . S
C792 H786 0.950 . S
C792 C793 1.327 . S
C793 H787 0.950 . S
C793 C792 1.327 . S
C793 C797 1.429 . S
C794 C777 1.574 . S
C794 H788 0.949 . S
C794 C798 1.368 . S
C795 C776 1.429 . S
C795 C789 1.429 . S
C795 C796 1.523 . S
C796 C777 1.368 . S
C796 C790 1.368 . S
C796 C795 1.523 . S
C797 C781 1.429 . S
C797 C793 1.429 . S
C797 C798 1.523 . S
C798 C782 1.368 . S
C798 C794 1.368 . S
C798 C797 1.523 . S
H799 C774 0.950 . S
H800 C776 0.950 . S
H801 C777 0.949 . S
H802 C779 0.950 . S
H803 C781 0.950 . S
C804 C805 1.349 . S
C804 C806 1.327 . S
C804 H829 0.950 . S
C805 C804 1.349 . S
C805 C821 1.413 . S
C806 C804 1.327 . S
C806 C825 1.431 1_565 S
C806 H830 0.950 . S
C807 C824 1.574 . S
C807 C826 1.368 . S
C807 H831 0.949 . S
H808 C812 0.949 . S
C809 C810 1.349 . S
C809 C811 1.327 . S
C809 H832 0.950 . S
C810 C809 1.349 . S
C810 C822 1.349 . S
C811 C809 1.327 . S
C811 C827 1.429 . S
C811 H833 0.950 . S
C812 H808 0.949 . S
C812 C820 1.574 1_545 S
C812 C828 1.368 . S
H813 C821 0.888 1_545 S
H814 C819 0.950 . S
H815 C820 0.952 . S
H816 C822 0.950 . S
H817 C823 0.950 . S
H818 C824 0.949 . S
C819 H814 0.950 . S
C819 C821 1.328 1_545 S
C819 C825 1.426 . S
C820 C812 1.574 1_565 S
C820 H815 0.952 . S
C820 C826 1.365 1_565 S
C821 C805 1.413 . S
C821 H813 0.888 1_565 S
C821 C819 1.328 1_565 S
C822 C810 1.349 . S
C822 H816 0.950 . S
C822 C823 1.327 . S
C823 H817 0.950 . S
C823 C822 1.327 . S
C823 C827 1.429 . S
C824 C807 1.574 . S
C824 H818 0.949 . S
C824 C828 1.368 . S
C825 C806 1.431 1_545 S
C825 C819 1.426 . S
C825 C826 1.523 . S
C826 C807 1.368 . S
C826 C820 1.365 1_545 S
C826 C825 1.523 . S
C827 C811 1.429 . S
C827 C823 1.429 . S
C827 C828 1.523 . S
C828 C812 1.368 . S
C828 C824 1.368 . S
C828 C827 1.523 . S
H829 C804 0.950 . S
H830 C806 0.950 . S
H831 C807 0.949 . S
H832 C809 0.950 . S
H833 C811 0.950 . S
C834 C835 1.349 . S
C834 C836 1.327 . S
C834 H859 0.950 . S
C835 C834 1.349 . S
C835 C851 1.349 . S
C836 C834 1.327 . S
C836 C855 1.429 . S
C836 H860 0.950 . S
C837 C854 1.574 . S
C837 C856 1.368 . S
C837 H861 0.949 . S
H838 C842 0.949 1_455 S
C839 C840 1.349 . S
C839 C841 1.327 1_455 S
C839 H862 0.950 . S
C840 C839 1.349 . S
C840 C852 1.349 . S
C841 C839 1.327 1_655 S
C841 C857 1.429 . S
C841 H863 0.950 . S
C842 H838 0.949 1_655 S
C842 C850 1.574 . S
C842 C858 1.368 . S
H843 C851 0.950 . S
H844 C849 0.950 . S
H845 C850 0.949 . S
H846 C852 0.950 . S
H847 C853 0.950 . S
H848 C854 0.949 . S
C849 H844 0.950 . S
C849 C851 1.327 . S
C849 C855 1.429 . S
C850 C842 1.574 . S
C850 H845 0.949 . S
C850 C856 1.368 . S
C851 C835 1.349 . S
C851 H843 0.950 . S
C851 C849 1.327 . S
C852 C840 1.349 . S
C852 H846 0.950 . S
C852 C853 1.327 . S
C853 H847 0.950 . S
C853 C852 1.327 . S
C853 C857 1.429 1_455 S
C854 C837 1.574 . S
C854 H848 0.949 . S
C854 C858 1.368 . S
C855 C836 1.429 . S
C855 C849 1.429 . S
C855 C856 1.523 . S
C856 C837 1.368 . S
C856 C850 1.368 . S
C856 C855 1.523 . S
C857 C841 1.429 . S
C857 C853 1.429 1_655 S
C857 C858 1.522 . S
C858 C842 1.368 . S
C858 C854 1.368 . S
C858 C857 1.522 . S
H859 C834 0.950 . S
H860 C836 0.950 . S
H861 C837 0.949 . S
H862 C839 0.950 . S
H863 C841 0.950 . S
C864 C865 1.349 . S
C864 C866 1.327 . S
C864 H889 0.950 . S
C865 C864 1.349 . S
C865 C881 1.349 . S
C866 C864 1.327 . S
C866 C885 1.429 . S
C866 H890 0.950 . S
C867 C884 1.574 . S
C867 C886 1.368 . S
C867 H891 0.949 . S
H868 C872 0.949 . S
C869 C870 1.349 . S
C869 C871 1.327 . S
C869 H892 0.950 . S
C870 C869 1.349 . S
C870 C882 1.349 . S
C871 C869 1.327 . S
C871 C887 1.429 . S
C871 H893 0.950 . S
C872 H868 0.949 . S
C872 C880 1.574 . S
C872 C888 1.368 . S
H873 C881 0.950 . S
H874 C879 0.950 . S
H875 C880 0.949 . S
H876 C882 0.950 . S
H877 C883 0.950 . S
H878 C884 0.949 . S
C879 H874 0.950 . S
C879 C881 1.327 . S
C879 C885 1.429 . S
C880 C872 1.574 . S
C880 H875 0.949 . S
C880 C886 1.368 . S
C881 C865 1.349 . S
C881 H873 0.950 . S
C881 C879 1.327 . S
C882 C870 1.349 . S
C882 H876 0.950 . S
C882 C883 1.327 . S
C883 H877 0.950 . S
C883 C882 1.327 . S
C883 C887 1.429 . S
C884 C867 1.574 . S
C884 H878 0.949 . S
C884 C888 1.368 . S
C885 C866 1.429 . S
C885 C879 1.429 . S
C885 C886 1.523 . S
C886 C867 1.368 . S
C886 C880 1.368 . S
C886 C885 1.523 . S
C887 C871 1.429 . S
C887 C883 1.429 . S
C887 C888 1.523 . S
C888 C872 1.368 . S
C888 C884 1.368 . S
C888 C887 1.523 . S
H889 C864 0.950 . S
H890 C866 0.950 . S
H891 C867 0.949 . S
H892 C869 0.950 . S
H893 C871 0.950 . S
C894 C895 1.349 . S
C894 C896 1.327 . S
C894 H919 0.950 . S
C895 C894 1.349 . S
C895 C911 1.349 . S
C896 C894 1.327 . S
C896 C915 1.430 1_545 S
C896 H920 0.950 . S
C897 C914 1.574 . S
C897 C916 1.368 . S
C897 H921 0.949 . S
H898 C902 0.949 . S
C899 C900 1.349 . S
C899 C901 1.327 . S
C899 H922 0.950 . S
C900 C899 1.349 . S
C900 C912 1.349 . S
C901 C899 1.327 . S
C901 C917 1.429 . S
C901 H923 0.950 . S
C902 H898 0.949 . S
C902 C910 1.574 . S
C902 C918 1.368 . S
H903 C911 0.950 . S
H904 C909 0.950 . S
H905 C910 0.949 1_545 S
H906 C912 0.950 . S
H907 C913 0.950 . S
H908 C914 0.949 . S
C909 H904 0.950 . S
C909 C911 1.327 1_565 S
C909 C915 1.427 . S
C910 C902 1.574 . S
C910 H905 0.949 1_565 S
C910 C916 1.368 . S
C911 C895 1.349 . S
C911 H903 0.950 . S
C911 C909 1.327 1_545 S
C912 C900 1.349 . S
C912 H906 0.950 . S
C912 C913 1.327 . S
C913 H907 0.950 . S
C913 C912 1.327 . S
C913 C917 1.429 . S
C914 C897 1.574 . S
C914 H908 0.949 . S
C914 C918 1.368 . S
C915 C896 1.430 1_565 S
C915 C909 1.427 . S
C915 C916 1.523 . S
C916 C897 1.368 . S
C916 C910 1.368 . S
C916 C915 1.523 . S
C917 C901 1.429 . S
C917 C913 1.429 . S
C917 C918 1.523 . S
C918 C902 1.368 . S
C918 C914 1.368 . S
C918 C917 1.523 . S
H919 C894 0.950 . S
H920 C896 0.950 . S
H921 C897 0.949 . S
H922 C899 0.950 . S
H923 C901 0.950 . S
C924 C925 1.349 . S
C924 C926 1.327 . S
C924 H949 0.950 . S
C925 C924 1.349 . S
C925 C941 1.349 . S
C926 C924 1.327 . S
C926 C945 1.429 . S
C926 H950 0.950 . S
C927 C944 1.574 . S
C927 C946 1.368 . S
C927 H951 0.949 . S
H928 C932 0.949 . S
C929 C930 1.349 . S
C929 C931 1.327 . S
C929 H952 0.950 . S
C930 C929 1.349 . S
C930 C942 1.349 . S
C931 C929 1.327 . S
C931 C947 1.429 1_655 S
C931 H953 0.950 . S
C932 H928 0.949 . S
C932 C940 1.574 . S
C932 C948 1.368 . S
H933 C941 0.950 . S
H934 C939 0.950 . S
H935 C940 0.949 . S
H936 C942 0.950 . S
H937 C943 0.950 . S
H938 C944 0.949 1_655 S
C939 H934 0.950 . S
C939 C941 1.327 . S
C939 C945 1.429 . S
C940 C932 1.574 . S
C940 H935 0.949 . S
C940 C946 1.368 . S
C941 C925 1.349 . S
C941 H933 0.950 . S
C941 C939 1.327 . S
C942 C930 1.349 . S
C942 H936 0.950 . S
C942 C943 1.327 1_655 S
C943 H937 0.950 . S
C943 C942 1.327 1_455 S
C943 C947 1.429 . S
C944 C927 1.574 . S
C944 H938 0.949 1_455 S
C944 C948 1.368 . S
C945 C926 1.429 . S
C945 C939 1.429 . S
C945 C946 1.523 . S
C946 C927 1.368 . S
C946 C940 1.368 . S
C946 C945 1.523 . S
C947 C931 1.429 1_455 S
C947 C943 1.429 . S
C947 C948 1.522 . S
C948 C932 1.368 . S
C948 C944 1.368 . S
C948 C947 1.522 . S
H949 C924 0.950 . S
H950 C926 0.950 . S
H951 C927 0.949 . S
H952 C929 0.950 . S
H953 C931 0.950 . S
C954 C955 1.349 . S
C954 C956 1.327 . S
C954 H979 0.950 . S
C955 C954 1.349 . S
C955 C971 1.349 . S
C956 C954 1.327 . S
C956 C975 1.429 . S
C956 H980 0.950 . S
C957 C974 1.574 . S
C957 C976 1.368 . S
C957 H981 0.949 . S
H958 C962 0.949 . S
C959 C960 1.349 . S
C959 C961 1.327 . S
C959 H982 0.950 . S
C960 C959 1.349 . S
C960 C972 1.349 . S
C961 C959 1.327 . S
C961 C977 1.430 1_655 S
C961 H983 0.950 . S
C962 H958 0.949 . S
C962 C970 1.574 . S
C962 C978 1.368 . S
H963 C971 0.950 . S
H964 C969 0.950 . S
H965 C970 0.949 . S
H966 C972 0.950 . S
H967 C973 0.984 . S
H968 C974 0.948 1_655 S
C969 H964 0.950 . S
C969 C971 1.327 . S
C969 C975 1.429 . S
C970 C962 1.574 . S
C970 H965 0.949 . S
C970 C976 1.368 . S
C971 C955 1.349 . S
C971 H963 0.950 . S
C971 C969 1.327 . S
C972 C960 1.349 . S
C972 H966 0.950 . S
C972 C973 1.328 1_655 S
C973 H967 0.984 . S
C973 C972 1.328 1_455 S
C973 C977 1.398 . S
C974 C957 1.574 . S
C974 H968 0.948 1_455 S
C974 C978 1.368 . S
C975 C956 1.429 . S
C975 C969 1.429 . S
C975 C976 1.523 . S
C976 C957 1.368 . S
C976 C970 1.368 . S
C976 C975 1.523 . S
C977 C961 1.430 1_455 S
C977 C973 1.398 . S
C977 C978 1.523 . S
C978 C962 1.368 . S
C978 C974 1.368 . S
C978 C977 1.523 . S
H979 C954 0.950 . S
H980 C956 0.950 . S
H981 C957 0.949 . S
H982 C959 0.950 . S
H983 C961 0.950 . S
C984 C985 1.349 . S
C984 C986 1.327 . S
C984 H1009 0.950 . S
C985 C984 1.349 . S
C985 C1001 1.349 . S
C986 C984 1.327 . S
C986 C1005 1.429 . S
C986 H1010 0.950 . S
C987 C1004 1.574 . S
C987 C1006 1.368 . S
C987 H1011 0.949 . S
H988 C992 0.949 . S
C989 C990 1.349 . S
C989 C991 1.327 . S
C989 H1012 0.950 . S
C990 C989 1.349 . S
C990 C1002 1.349 . S
C991 C989 1.327 . S
C991 C1007 1.429 . S
C991 H1013 0.950 . S
C992 H988 0.949 . S
C992 C1000 1.574 . S
C992 C1008 1.368 . S
H993 C1001 0.950 . S
H994 C999 0.950 . S
H995 C1000 0.949 . S
H996 C1002 0.950 . S
H997 C1003 0.950 . S
H998 C1004 0.949 . S
C999 H994 0.950 . S
C999 C1001 1.327 . S
C999 C1005 1.429 . S
C1000 C992 1.574 . S
C1000 H995 0.949 . S
C1000 C1006 1.368 . S
C1001 C985 1.349 . S
C1001 H993 0.950 . S
C1001 C999 1.327 . S
C1002 C990 1.349 . S
C1002 H996 0.950 . S
C1002 C1003 1.327 . S
C1003 H997 0.950 . S
C1003 C1002 1.327 . S
C1003 C1007 1.429 . S
C1004 C987 1.574 . S
C1004 H998 0.949 . S
C1004 C1008 1.368 . S
C1005 C986 1.429 . S
C1005 C999 1.429 . S
C1005 C1006 1.523 . S
C1006 C987 1.368 . S
C1006 C1000 1.368 . S
C1006 C1005 1.523 . S
C1007 C991 1.429 . S
C1007 C1003 1.429 . S
C1007 C1008 1.523 . S
C1008 C992 1.368 . S
C1008 C1004 1.368 . S
C1008 C1007 1.523 . S
H1009 C984 0.950 . S
H1010 C986 0.950 . S
H1011 C987 0.949 . S
H1012 C989 0.950 . S
H1013 C991 0.950 . S
C1014 C1015 1.349 . S
C1014 C1016 1.327 . S
C1014 H1039 0.950 . S
C1015 C1014 1.349 . S
C1015 C1031 1.349 . S
C1016 C1014 1.327 . S
C1016 C1035 1.429 . S
C1016 H1040 0.950 . S
C1017 C1034 1.574 . S
C1017 C1036 1.368 . S
C1017 H1041 0.949 . S
H1018 C1022 0.949 . S
C1019 C1020 1.349 . S
C1019 C1021 1.327 . S
C1019 H1042 0.950 . S
C1020 C1019 1.349 . S
C1020 C1032 1.349 . S
C1021 C1019 1.327 . S
C1021 C1037 1.429 1_545 S
C1021 H1043 0.950 1_545 S
C1022 H1018 0.949 . S
C1022 C1030 1.574 . S
C1022 C1038 1.368 . S
H1023 C1031 0.950 . S
H1024 C1029 0.950 . S
H1025 C1030 0.949 . S
H1026 C1032 0.950 . S
H1027 C1033 0.950 . S
H1028 C1034 0.949 . S
C1029 H1024 0.950 . S
C1029 C1031 1.327 . S
C1029 C1035 1.429 . S
C1030 C1022 1.574 . S
C1030 H1025 0.949 . S
C1030 C1036 1.368 . S
C1031 C1015 1.349 . S
C1031 H1023 0.950 . S
C1031 C1029 1.327 . S
C1032 C1020 1.349 . S
C1032 H1026 0.950 . S
C1032 C1033 1.327 . S
C1033 H1027 0.950 . S
C1033 C1032 1.327 . S
C1033 C1037 1.429 1_545 S
C1034 C1017 1.574 . S
C1034 H1028 0.949 . S
C1034 C1038 1.368 . S
C1035 C1016 1.429 . S
C1035 C1029 1.429 . S
C1035 C1036 1.523 . S
C1036 C1017 1.368 . S
C1036 C1030 1.368 . S
C1036 C1035 1.523 . S
C1037 C1021 1.429 1_565 S
C1037 C1033 1.429 1_565 S
C1037 C1038 1.522 . S
C1038 C1022 1.368 . S
C1038 C1034 1.368 . S
C1038 C1037 1.522 . S
H1039 C1014 0.950 . S
H1040 C1016 0.950 . S
H1041 C1017 0.949 . S
H1042 C1019 0.950 . S
H1043 C1021 0.950 1_565 S
C1044 C1045 1.349 . S
C1044 C1046 1.327 . S
C1044 H1069 0.950 . S
C1045 C1044 1.349 . S
C1045 C1061 1.349 . S
C1046 C1044 1.327 . S
C1046 C1065 1.429 . S
C1046 H1070 0.950 . S
C1047 C1064 1.574 . S
C1047 C1066 1.368 . S
C1047 H1071 0.949 . S
H1048 C1052 0.949 . S
C1049 C1050 1.349 . S
C1049 C1051 1.327 . S
C1049 H1072 0.950 . S
C1050 C1049 1.349 . S
C1050 C1062 1.349 . S
C1051 C1049 1.327 . S
C1051 C1067 1.429 . S
C1051 H1073 0.950 . S
C1052 H1048 0.949 . S
C1052 C1060 1.574 . S
C1052 C1068 1.368 . S
H1053 C1061 0.950 . S
H1054 C1059 0.950 . S
H1055 C1060 0.949 . S
H1056 C1062 0.950 . S
H1057 C1063 0.950 . S
H1058 C1064 0.949 . S
C1059 H1054 0.950 . S
C1059 C1061 1.327 . S
C1059 C1065 1.429 . S
C1060 C1052 1.574 . S
C1060 H1055 0.949 . S
C1060 C1066 1.368 . S
C1061 C1045 1.349 . S
C1061 H1053 0.950 . S
C1061 C1059 1.327 . S
C1062 C1050 1.349 . S
C1062 H1056 0.950 . S
C1062 C1063 1.327 . S
C1063 H1057 0.950 . S
C1063 C1062 1.327 . S
C1063 C1067 1.429 . S
C1064 C1047 1.574 . S
C1064 H1058 0.949 . S
C1064 C1068 1.368 . S
C1065 C1046 1.429 . S
C1065 C1059 1.429 . S
C1065 C1066 1.523 . S
C1066 C1047 1.368 . S
C1066 C1060 1.368 . S
C1066 C1065 1.523 . S
C1067 C1051 1.429 . S
C1067 C1063 1.429 . S
C1067 C1068 1.523 . S
C1068 C1052 1.368 . S
C1068 C1064 1.368 . S
C1068 C1067 1.523 . S
H1069 C1044 0.950 . S
H1070 C1046 0.950 . S
H1071 C1047 0.949 . S
H1072 C1049 0.950 . S
H1073 C1051 0.950 . S
C1074 C1075 1.349 . S
C1074 C1076 1.327 . S
C1074 H1099 0.950 . S
C1075 C1074 1.349 . S
C1075 C1091 1.349 . S
C1076 C1074 1.327 . S
C1076 C1095 1.429 . S
C1076 H1100 0.950 . S
C1077 C1094 1.574 . S
C1077 C1096 1.368 . S
C1077 H1101 0.949 . S
H1078 C1082 0.949 . S
C1079 C1080 1.349 . S
C1079 C1081 1.327 . S
C1079 H1102 0.950 . S
C1080 C1079 1.349 . S
C1080 C1092 1.349 . S
C1081 C1079 1.327 . S
C1081 C1097 1.429 . S
C1081 H1103 0.950 . S
C1082 H1078 0.949 . S
C1082 C1090 1.574 . S
C1082 C1098 1.368 . S
H1083 C1091 0.950 . S
H1084 C1089 0.950 . S
H1085 C1090 0.949 . S
H1086 C1092 0.950 . S
H1087 C1093 0.950 . S
H1088 C1094 0.949 . S
C1089 H1084 0.950 . S
C1089 C1091 1.327 . S
C1089 C1095 1.429 . S
C1090 C1082 1.574 . S
C1090 H1085 0.949 . S
C1090 C1096 1.368 . S
C1091 C1075 1.349 . S
C1091 H1083 0.950 . S
C1091 C1089 1.327 . S
C1092 C1080 1.349 . S
C1092 H1086 0.950 . S
C1092 C1093 1.327 . S
C1093 H1087 0.950 . S
C1093 C1092 1.327 . S
C1093 C1097 1.429 . S
C1094 C1077 1.574 . S
C1094 H1088 0.949 . S
C1094 C1098 1.368 . S
C1095 C1076 1.429 . S
C1095 C1089 1.429 . S
C1095 C1096 1.523 . S
C1096 C1077 1.368 . S
C1096 C1090 1.368 . S
C1096 C1095 1.523 . S
C1097 C1081 1.429 . S
C1097 C1093 1.429 . S
C1097 C1098 1.523 . S
C1098 C1082 1.368 . S
C1098 C1094 1.368 . S
C1098 C1097 1.523 . S
H1099 C1074 0.950 . S
H1100 C1076 0.950 . S
H1101 C1077 0.949 . S
H1102 C1079 0.950 . S
H1103 C1081 0.950 . S
C1104 C1105 1.349 . S
C1104 C1106 1.327 . S
C1104 H1129 0.950 . S
C1105 C1104 1.349 . S
C1105 C1121 1.349 . S
C1106 C1104 1.327 . S
C1106 C1125 1.429 . S
C1106 H1130 0.950 . S
C1107 C1124 1.574 . S
C1107 C1126 1.368 . S
C1107 H1131 0.949 . S
H1108 C1112 0.949 . S
C1109 C1110 1.349 . S
C1109 C1111 1.327 . S
C1109 H1132 0.950 . S
C1110 C1109 1.349 . S
C1110 C1122 1.349 . S
C1111 C1109 1.327 . S
C1111 C1127 1.429 . S
C1111 H1133 0.950 . S
C1112 H1108 0.949 . S
C1112 C1120 1.574 . S
C1112 C1128 1.368 . S
H1113 C1121 0.950 . S
H1114 C1119 0.950 . S
H1115 C1120 0.949 . S
H1116 C1122 0.950 . S
H1117 C1123 0.950 . S
H1118 C1124 0.949 . S
C1119 H1114 0.950 . S
C1119 C1121 1.327 . S
C1119 C1125 1.429 . S
C1120 C1112 1.574 . S
C1120 H1115 0.949 . S
C1120 C1126 1.368 . S
C1121 C1105 1.349 . S
C1121 H1113 0.950 . S
C1121 C1119 1.327 . S
C1122 C1110 1.349 . S
C1122 H1116 0.950 . S
C1122 C1123 1.327 . S
C1123 H1117 0.950 . S
C1123 C1122 1.327 . S
C1123 C1127 1.429 . S
C1124 C1107 1.574 . S
C1124 H1118 0.949 . S
C1124 C1128 1.368 . S
C1125 C1106 1.429 . S
C1125 C1119 1.429 . S
C1125 C1126 1.523 . S
C1126 C1107 1.368 . S
C1126 C1120 1.368 . S
C1126 C1125 1.523 . S
C1127 C1111 1.429 . S
C1127 C1123 1.429 . S
C1127 C1128 1.523 . S
C1128 C1112 1.368 . S
C1128 C1124 1.368 . S
C1128 C1127 1.523 . S
H1129 C1104 0.950 . S
H1130 C1106 0.950 . S
H1131 C1107 0.949 . S
H1132 C1109 0.950 . S
H1133 C1111 0.950 . S
C1134 C1135 1.349 . S
C1134 C1136 1.327 . S
C1134 H1159 0.950 . S
C1135 C1134 1.349 . S
C1135 C1151 1.349 . S
C1136 C1134 1.327 . S
C1136 C1155 1.429 . S
C1136 H1160 0.950 . S
C1137 C1154 1.574 . S
C1137 C1156 1.368 . S
C1137 H1161 0.949 . S
H1138 C1142 0.949 . S
C1139 C1140 1.349 1_554 S
C1139 C1141 1.327 . S
C1139 H1162 0.950 . S
C1140 C1139 1.349 1_556 S
C1140 C1152 1.349 . S
C1141 C1139 1.327 . S
C1141 C1157 1.429 . S
C1141 H1163 0.950 . S
C1142 H1138 0.949 . S
C1142 C1150 1.574 . S
C1142 C1158 1.368 . S
H1143 C1151 0.950 . S
H1144 C1149 0.950 . S
H1145 C1150 0.949 . S
H1146 C1152 0.950 . S
H1147 C1153 0.950 . S
H1148 C1154 0.949 . S
C1149 H1144 0.950 . S
C1149 C1151 1.327 . S
C1149 C1155 1.429 . S
C1150 C1142 1.574 . S
C1150 H1145 0.949 . S
C1150 C1156 1.368 . S
C1151 C1135 1.349 . S
C1151 H1143 0.950 . S
C1151 C1149 1.327 . S
C1152 C1140 1.349 . S
C1152 H1146 0.950 . S
C1152 C1153 1.327 1_556 S
C1153 H1147 0.950 . S
C1153 C1152 1.327 1_554 S
C1153 C1157 1.429 . S
C1154 C1137 1.574 . S
C1154 H1148 0.949 . S
C1154 C1158 1.368 . S
C1155 C1136 1.429 . S
C1155 C1149 1.429 . S
C1155 C1156 1.523 . S
C1156 C1137 1.368 . S
C1156 C1150 1.368 . S
C1156 C1155 1.523 . S
C1157 C1141 1.429 . S
C1157 C1153 1.429 . S
C1157 C1158 1.523 . S
C1158 C1142 1.368 . S
C1158 C1154 1.368 . S
C1158 C1157 1.523 . S
H1159 C1134 0.950 . S
H1160 C1136 0.950 . S
H1161 C1137 0.949 . S
H1162 C1139 0.950 . S
H1163 C1141 0.950 . S
C1164 C1165 1.349 . S
C1164 C1166 1.327 . S
C1164 H1189 0.950 . S
C1165 C1164 1.349 . S
C1165 C1181 1.349 . S
C1166 C1164 1.327 . S
C1166 C1185 1.429 . S
C1166 H1190 0.950 . S
C1167 C1184 1.574 . S
C1167 C1186 1.368 . S
C1167 H1191 0.949 . S
H1168 C1172 0.949 . S
C1169 C1170 1.349 . S
C1169 C1171 1.327 1_556 S
C1169 H1192 0.950 . S
C1170 C1169 1.349 . S
C1170 C1182 1.349 1_556 S
C1171 C1169 1.327 1_554 S
C1171 C1187 1.429 . S
C1171 H1193 0.950 . S
C1172 H1168 0.949 . S
C1172 C1180 1.574 . S
C1172 C1188 1.368 . S
H1173 C1181 0.950 . S
H1174 C1179 0.950 . S
H1175 C1180 0.949 . S
H1176 C1182 0.950 . S
H1177 C1183 0.950 . S
H1178 C1184 0.949 . S
C1179 H1174 0.950 . S
C1179 C1181 1.327 . S
C1179 C1185 1.429 . S
C1180 C1172 1.574 . S
C1180 H1175 0.949 . S
C1180 C1186 1.368 . S
C1181 C1165 1.349 . S
C1181 H1173 0.950 . S
C1181 C1179 1.327 . S
C1182 C1170 1.349 1_554 S
C1182 H1176 0.950 . S
C1182 C1183 1.327 . S
C1183 H1177 0.950 . S
C1183 C1182 1.327 . S
C1183 C1187 1.429 . S
C1184 C1167 1.574 . S
C1184 H1178 0.949 . S
C1184 C1188 1.368 . S
C1185 C1166 1.429 . S
C1185 C1179 1.429 . S
C1185 C1186 1.523 . S
C1186 C1167 1.368 . S
C1186 C1180 1.368 . S
C1186 C1185 1.523 . S
C1187 C1171 1.429 . S
C1187 C1183 1.429 . S
C1187 C1188 1.523 . S
C1188 C1172 1.368 . S
C1188 C1184 1.368 . S
C1188 C1187 1.523 . S
H1189 C1164 0.950 . S
H1190 C1166 0.950 . S
H1191 C1167 0.949 . S
H1192 C1169 0.950 . S
H1193 C1171 0.950 . S
C1194 C1195 1.349 . S
C1194 C1196 1.327 . S
C1194 H1219 0.950 . S
C1195 C1194 1.349 . S
C1195 C1211 1.349 . S
C1196 C1194 1.327 . S
C1196 C1215 1.429 . S
C1196 H1220 0.950 . S
C1197 C1214 1.574 . S
C1197 C1216 1.368 . S
C1197 H1221 0.949 . S
H1198 C1202 0.949 . S
C1199 C1200 1.349 . S
C1199 C1201 1.327 1_556 S
C1199 H1222 0.950 . S
C1200 C1199 1.349 . S
C1200 C1212 1.349 1_556 S
C1201 C1199 1.327 1_554 S
C1201 C1217 1.429 . S
C1201 H1223 0.950 . S
C1202 H1198 0.949 . S
C1202 C1210 1.574 . S
C1202 C1218 1.368 . S
H1203 C1211 0.950 . S
H1204 C1209 0.950 . S
H1205 C1210 0.949 . S
H1206 C1212 0.950 . S
H1207 C1213 0.950 . S
H1208 C1214 0.949 . S
C1209 H1204 0.950 . S
C1209 C1211 1.327 . S
C1209 C1215 1.429 . S
C1210 C1202 1.574 . S
C1210 H1205 0.949 . S
C1210 C1216 1.368 . S
C1211 C1195 1.349 . S
C1211 H1203 0.950 . S
C1211 C1209 1.327 . S
C1212 C1200 1.349 1_554 S
C1212 H1206 0.950 . S
C1212 C1213 1.327 . S
C1213 H1207 0.950 . S
C1213 C1212 1.327 . S
C1213 C1217 1.429 . S
C1214 C1197 1.574 . S
C1214 H1208 0.949 . S
C1214 C1218 1.368 . S
C1215 C1196 1.429 . S
C1215 C1209 1.429 . S
C1215 C1216 1.523 . S
C1216 C1197 1.368 . S
C1216 C1210 1.368 . S
C1216 C1215 1.523 . S
C1217 C1201 1.429 . S
C1217 C1213 1.429 . S
C1217 C1218 1.523 . S
C1218 C1202 1.368 . S
C1218 C1214 1.368 . S
C1218 C1217 1.523 . S
H1219 C1194 0.950 . S
H1220 C1196 0.950 . S
H1221 C1197 0.949 . S
H1222 C1199 0.950 . S
H1223 C1201 0.950 . S
C1224 C1225 1.349 . S
C1224 C1226 1.327 . S
C1224 H1249 0.950 . S
C1225 C1224 1.349 . S
C1225 C1241 1.349 . S
C1226 C1224 1.327 . S
C1226 C1245 1.429 . S
C1226 H1250 0.950 . S
C1227 C1244 1.574 . S
C1227 C1246 1.368 . S
C1227 H1251 0.949 . S
H1228 C1232 0.949 . S
C1229 C1230 1.349 . S
C1229 C1231 1.327 . S
C1229 H1252 0.950 . S
C1230 C1229 1.349 . S
C1230 C1242 1.349 . S
C1231 C1229 1.327 . S
C1231 C1247 1.429 . S
C1231 H1253 0.950 . S
C1232 H1228 0.949 . S
C1232 C1240 1.574 . S
C1232 C1248 1.368 . S
H1233 C1241 0.950 . S
H1234 C1239 0.950 . S
H1235 C1240 0.949 . S
H1236 C1242 0.950 . S
H1237 C1243 0.950 . S
H1238 C1244 0.949 . S
C1239 H1234 0.950 . S
C1239 C1241 1.327 . S
C1239 C1245 1.429 . S
C1240 C1232 1.574 . S
C1240 H1235 0.949 . S
C1240 C1246 1.368 . S
C1241 C1225 1.349 . S
C1241 H1233 0.950 . S
C1241 C1239 1.327 . S
C1242 C1230 1.349 . S
C1242 H1236 0.950 . S
C1242 C1243 1.327 . S
C1243 H1237 0.950 . S
C1243 C1242 1.327 . S
C1243 C1247 1.429 . S
C1244 C1227 1.574 . S
C1244 H1238 0.949 . S
C1244 C1248 1.368 . S
C1245 C1226 1.429 . S
C1245 C1239 1.429 . S
C1245 C1246 1.523 . S
C1246 C1227 1.368 . S
C1246 C1240 1.368 . S
C1246 C1245 1.523 . S
C1247 C1231 1.429 . S
C1247 C1243 1.429 . S
C1247 C1248 1.523 . S
C1248 C1232 1.368 . S
C1248 C1244 1.368 . S
C1248 C1247 1.523 . S
H1249 C1224 0.950 . S
H1250 C1226 0.950 . S
H1251 C1227 0.949 . S
H1252 C1229 0.950 . S
H1253 C1231 0.950 . S
C1254 C1255 1.349 . S
C1254 C1256 1.327 . S
C1254 H1279 0.950 . S
C1255 C1254 1.349 . S
C1255 C1271 1.349 . S
C1256 C1254 1.327 . S
C1256 C1275 1.429 . S
C1256 H1280 0.950 . S
C1257 C1274 1.574 . S
C1257 C1276 1.368 . S
C1257 H1281 0.949 . S
H1258 C1262 0.949 . S
C1259 C1260 1.349 . S
C1259 C1261 1.327 . S
C1259 H1282 0.950 . S
C1260 C1259 1.349 . S
C1260 C1272 1.349 . S
C1261 C1259 1.327 . S
C1261 C1277 1.429 . S
C1261 H1283 0.950 . S
C1262 H1258 0.949 . S
C1262 C1270 1.574 . S
C1262 C1278 1.368 . S
H1263 C1271 0.950 . S
H1264 C1269 0.950 . S
H1265 C1270 0.949 . S
H1266 C1272 0.950 . S
H1267 C1273 0.950 . S
H1268 C1274 0.949 . S
C1269 H1264 0.950 . S
C1269 C1271 1.327 . S
C1269 C1275 1.429 . S
C1270 C1262 1.574 . S
C1270 H1265 0.949 . S
C1270 C1276 1.368 . S
C1271 C1255 1.349 . S
C1271 H1263 0.950 . S
C1271 C1269 1.327 . S
C1272 C1260 1.349 . S
C1272 H1266 0.950 . S
C1272 C1273 1.327 . S
C1273 H1267 0.950 . S
C1273 C1272 1.327 . S
C1273 C1277 1.429 . S
C1274 C1257 1.574 . S
C1274 H1268 0.949 . S
C1274 C1278 1.368 . S
C1275 C1256 1.429 . S
C1275 C1269 1.429 . S
C1275 C1276 1.523 . S
C1276 C1257 1.368 . S
C1276 C1270 1.368 . S
C1276 C1275 1.523 . S
C1277 C1261 1.429 . S
C1277 C1273 1.429 . S
C1277 C1278 1.523 . S
C1278 C1262 1.368 . S
C1278 C1274 1.368 . S
C1278 C1277 1.523 . S
H1279 C1254 0.950 . S
H1280 C1256 0.950 . S
H1281 C1257 0.949 . S
H1282 C1259 0.950 . S
H1283 C1261 0.950 . S
C1284 C1285 1.349 . S
C1284 C1286 1.327 . S
C1284 H1309 0.950 . S
C1285 C1284 1.349 . S
C1285 C1301 1.349 . S
C1286 C1284 1.327 . S
C1286 C1305 1.429 . S
C1286 H1310 0.950 . S
C1287 C1304 1.574 . S
C1287 C1306 1.368 . S
C1287 H1311 0.949 . S
H1288 C1292 0.949 . S
C1289 C1290 1.349 . S
C1289 C1291 1.327 . S
C1289 H1312 0.950 . S
C1290 C1289 1.349 . S
C1290 C1302 1.349 . S
C1291 C1289 1.327 . S
C1291 C1307 1.429 . S
C1291 H1313 0.950 . S
C1292 H1288 0.949 . S
C1292 C1300 1.574 . S
C1292 C1308 1.368 . S
H1293 C1301 0.950 . S
H1294 C1299 0.950 . S
H1295 C1300 0.949 . S
H1296 C1302 0.950 . S
H1297 C1303 0.950 . S
H1298 C1304 0.949 . S
C1299 H1294 0.950 . S
C1299 C1301 1.327 . S
C1299 C1305 1.429 . S
C1300 C1292 1.574 . S
C1300 H1295 0.949 . S
C1300 C1306 1.368 . S
C1301 C1285 1.349 . S
C1301 H1293 0.950 . S
C1301 C1299 1.327 . S
C1302 C1290 1.349 . S
C1302 H1296 0.950 . S
C1302 C1303 1.327 . S
C1303 H1297 0.950 . S
C1303 C1302 1.327 . S
C1303 C1307 1.429 . S
C1304 C1287 1.574 . S
C1304 H1298 0.949 . S
C1304 C1308 1.368 . S
C1305 C1286 1.429 . S
C1305 C1299 1.429 . S
C1305 C1306 1.523 . S
C1306 C1287 1.368 . S
C1306 C1300 1.368 . S
C1306 C1305 1.523 . S
C1307 C1291 1.429 . S
C1307 C1303 1.429 . S
C1307 C1308 1.523 . S
C1308 C1292 1.368 . S
C1308 C1304 1.368 . S
C1308 C1307 1.523 . S
H1309 C1284 0.950 . S
H1310 C1286 0.950 . S
H1311 C1287 0.949 . S
H1312 C1289 0.950 . S
H1313 C1291 0.950 . S
C1314 C1315 1.349 1_556 S
C1314 C1316 1.327 . S
C1314 H1339 0.950 . S
C1315 C1314 1.349 1_554 S
C1315 C1331 1.349 . S
C1316 C1314 1.327 . S
C1316 C1335 1.429 . S
C1316 H1340 0.950 . S
C1317 C1334 1.574 . S
C1317 C1336 1.368 . S
C1317 H1341 0.949 . S
H1318 C1322 0.949 . S
C1319 C1320 1.349 . S
C1319 C1321 1.327 . S
C1319 H1342 0.950 . S
C1320 C1319 1.349 . S
C1320 C1332 1.349 . S
C1321 C1319 1.327 . S
C1321 C1337 1.429 . S
C1321 H1343 0.950 . S
C1322 H1318 0.949 . S
C1322 C1330 1.574 . S
C1322 C1338 1.368 . S
H1323 C1331 0.950 . S
H1324 C1329 0.950 . S
H1325 C1330 0.949 . S
H1326 C1332 0.950 . S
H1327 C1333 0.950 . S
H1328 C1334 0.949 . S
C1329 H1324 0.950 . S
C1329 C1331 1.327 1_556 S
C1329 C1335 1.429 . S
C1330 C1322 1.574 . S
C1330 H1325 0.949 . S
C1330 C1336 1.368 . S
C1331 C1315 1.349 . S
C1331 H1323 0.950 . S
C1331 C1329 1.327 1_554 S
C1332 C1320 1.349 . S
C1332 H1326 0.950 . S
C1332 C1333 1.327 . S
C1333 H1327 0.950 . S
C1333 C1332 1.327 . S
C1333 C1337 1.429 . S
C1334 C1317 1.574 . S
C1334 H1328 0.949 . S
C1334 C1338 1.368 . S
C1335 C1316 1.429 . S
C1335 C1329 1.429 . S
C1335 C1336 1.523 . S
C1336 C1317 1.368 . S
C1336 C1330 1.368 . S
C1336 C1335 1.523 . S
C1337 C1321 1.429 . S
C1337 C1333 1.429 . S
C1337 C1338 1.523 . S
C1338 C1322 1.368 . S
C1338 C1334 1.368 . S
C1338 C1337 1.523 . S
H1339 C1314 0.950 . S
H1340 C1316 0.950 . S
H1341 C1317 0.949 . S
H1342 C1319 0.950 . S
H1343 C1321 0.950 . S
C1344 C1345 1.349 1_556 S
C1344 C1346 1.327 . S
C1344 H1369 0.950 . S
C1345 C1344 1.349 1_554 S
C1345 C1361 1.349 . S
C1346 C1344 1.327 . S
C1346 C1365 1.429 . S
C1346 H1370 0.950 . S
C1347 C1364 1.574 . S
C1347 C1366 1.368 . S
C1347 H1371 0.949 . S
H1348 C1352 0.949 . S
C1349 C1350 1.349 . S
C1349 C1351 1.327 . S
C1349 H1372 0.950 . S
C1350 C1349 1.349 . S
C1350 C1362 1.349 . S
C1351 C1349 1.327 . S
C1351 C1367 1.429 . S
C1351 H1373 0.950 . S
C1352 H1348 0.949 . S
C1352 C1360 1.574 . S
C1352 C1368 1.368 . S
H1353 C1361 0.950 . S
H1354 C1359 0.950 . S
H1355 C1360 0.949 . S
H1356 C1362 0.950 . S
H1357 C1363 0.950 . S
H1358 C1364 0.949 . S
C1359 H1354 0.950 . S
C1359 C1361 1.327 1_556 S
C1359 C1365 1.429 . S
C1360 C1352 1.574 . S
C1360 H1355 0.949 . S
C1360 C1366 1.368 . S
C1361 C1345 1.349 . S
C1361 H1353 0.950 . S
C1361 C1359 1.327 1_554 S
C1362 C1350 1.349 . S
C1362 H1356 0.950 . S
C1362 C1363 1.327 . S
C1363 H1357 0.950 . S
C1363 C1362 1.327 . S
C1363 C1367 1.429 . S
C1364 C1347 1.574 . S
C1364 H1358 0.949 . S
C1364 C1368 1.368 . S
C1365 C1346 1.429 . S
C1365 C1359 1.429 . S
C1365 C1366 1.523 . S
C1366 C1347 1.368 . S
C1366 C1360 1.368 . S
C1366 C1365 1.523 . S
C1367 C1351 1.429 . S
C1367 C1363 1.429 . S
C1367 C1368 1.523 . S
C1368 C1352 1.368 . S
C1368 C1364 1.368 . S
C1368 C1367 1.523 . S
H1369 C1344 0.950 . S
H1370 C1346 0.950 . S
H1371 C1347 0.949 . S
H1372 C1349 0.950 . S
H1373 C1351 0.950 . S
C1374 C1375 1.349 . S
C1374 C1376 1.327 . S
C1374 H1399 0.950 . S
C1375 C1374 1.349 . S
C1375 C1391 1.349 . S
C1376 C1374 1.327 . S
C1376 C1395 1.429 . S
C1376 H1400 0.950 . S
C1377 C1394 1.574 . S
C1377 C1396 1.368 . S
C1377 H1401 0.949 . S
H1378 C1382 0.949 . S
C1379 C1380 1.349 . S
C1379 C1381 1.327 1_554 S
C1379 H1402 0.950 . S
C1380 C1379 1.349 . S
C1380 C1392 1.349 1_554 S
C1381 C1379 1.327 1_556 S
C1381 C1397 1.429 . S
C1381 H1403 0.950 . S
C1382 H1378 0.949 . S
C1382 C1390 1.574 . S
C1382 C1398 1.368 . S
H1383 C1391 0.950 . S
H1384 C1389 0.950 . S
H1385 C1390 0.949 . S
H1386 C1392 0.950 . S
H1387 C1393 0.950 . S
H1388 C1394 0.949 . S
C1389 H1384 0.950 . S
C1389 C1391 1.327 . S
C1389 C1395 1.429 . S
C1390 C1382 1.574 . S
C1390 H1385 0.949 . S
C1390 C1396 1.368 . S
C1391 C1375 1.349 . S
C1391 H1383 0.950 . S
C1391 C1389 1.327 . S
C1392 C1380 1.349 1_556 S
C1392 H1386 0.950 . S
C1392 C1393 1.327 . S
C1393 H1387 0.950 . S
C1393 C1392 1.327 . S
C1393 C1397 1.429 . S
C1394 C1377 1.574 . S
C1394 H1388 0.949 . S
C1394 C1398 1.368 . S
C1395 C1376 1.429 . S
C1395 C1389 1.429 . S
C1395 C1396 1.523 . S
C1396 C1377 1.368 . S
C1396 C1390 1.368 . S
C1396 C1395 1.523 . S
C1397 C1381 1.429 . S
C1397 C1393 1.429 . S
C1397 C1398 1.523 . S
C1398 C1382 1.368 . S
C1398 C1394 1.368 . S
C1398 C1397 1.523 . S
H1399 C1374 0.950 . S
H1400 C1376 0.950 . S
H1401 C1377 0.949 . S
H1402 C1379 0.950 . S
H1403 C1381 0.950 . S
C1404 C1405 1.349 . S
C1404 C1406 1.327 . S
C1404 H1429 0.950 . S
C1405 C1404 1.349 . S
C1405 C1421 1.349 . S
C1406 C1404 1.327 . S
C1406 C1425 1.429 . S
C1406 H1430 0.950 . S
C1407 C1424 1.574 1_455 S
C1407 C1426 1.368 . S
C1407 H1431 0.949 . S
H1408 C1412 0.949 . S
C1409 C1410 1.349 . S
C1409 C1411 1.327 . S
C1409 H1432 0.950 . S
C1410 C1409 1.349 . S
C1410 C1422 1.349 . S
C1411 C1409 1.327 . S
C1411 C1427 1.429 . S
C1411 H1433 0.950 . S
C1412 H1408 0.949 . S
C1412 C1420 1.574 1_655 S
C1412 C1428 1.368 . S
H1413 C1421 0.950 . S
H1414 C1419 0.950 . S
H1415 C1420 0.949 . S
H1416 C1422 0.950 . S
H1417 C1423 0.950 . S
H1418 C1424 0.949 . S
C1419 H1414 0.950 . S
C1419 C1421 1.327 . S
C1419 C1425 1.429 . S
C1420 C1412 1.574 1_455 S
C1420 H1415 0.949 . S
C1420 C1426 1.368 . S
C1421 C1405 1.349 . S
C1421 H1413 0.950 . S
C1421 C1419 1.327 . S
C1422 C1410 1.349 . S
C1422 H1416 0.950 . S
C1422 C1423 1.327 . S
C1423 H1417 0.950 . S
C1423 C1422 1.327 . S
C1423 C1427 1.429 . S
C1424 C1407 1.574 1_655 S
C1424 H1418 0.949 . S
C1424 C1428 1.368 . S
C1425 C1406 1.429 . S
C1425 C1419 1.429 . S
C1425 C1426 1.523 . S
C1426 C1407 1.368 . S
C1426 C1420 1.368 . S
C1426 C1425 1.523 . S
C1427 C1411 1.429 . S
C1427 C1423 1.429 . S
C1427 C1428 1.523 . S
C1428 C1412 1.368 . S
C1428 C1424 1.368 . S
C1428 C1427 1.523 . S
H1429 C1404 0.950 . S
H1430 C1406 0.950 . S
H1431 C1407 0.949 . S
H1432 C1409 0.950 . S
H1433 C1411 0.950 . S
C1434 C1435 1.349 . S
C1434 C1436 1.327 . S
C1434 H1459 0.950 . S
C1435 C1434 1.349 . S
C1435 C1451 1.349 . S
C1436 C1434 1.327 . S
C1436 C1455 1.429 . S
C1436 H1460 0.950 . S
C1437 C1454 1.574 . S
C1437 C1456 1.368 . S
C1437 H1461 0.949 . S
H1438 C1442 0.949 . S
C1439 C1440 1.349 . S
C1439 C1441 1.327 . S
C1439 H1462 0.950 . S
C1440 C1439 1.349 . S
C1440 C1452 1.349 . S
C1441 C1439 1.327 . S
C1441 C1457 1.429 . S
C1441 H1463 0.950 . S
C1442 H1438 0.949 . S
C1442 C1450 1.574 . S
C1442 C1458 1.368 . S
H1443 C1451 0.950 . S
H1444 C1449 0.950 . S
H1445 C1450 0.949 . S
H1446 C1452 0.950 . S
H1447 C1453 0.950 . S
H1448 C1454 0.949 . S
C1449 H1444 0.950 . S
C1449 C1451 1.327 . S
C1449 C1455 1.429 . S
C1450 C1442 1.574 . S
C1450 H1445 0.949 . S
C1450 C1456 1.368 . S
C1451 C1435 1.349 . S
C1451 H1443 0.950 . S
C1451 C1449 1.327 . S
C1452 C1440 1.349 . S
C1452 H1446 0.950 . S
C1452 C1453 1.327 . S
C1453 H1447 0.950 . S
C1453 C1452 1.327 . S
C1453 C1457 1.429 . S
C1454 C1437 1.574 . S
C1454 H1448 0.949 . S
C1454 C1458 1.368 . S
C1455 C1436 1.429 . S
C1455 C1449 1.429 . S
C1455 C1456 1.523 . S
C1456 C1437 1.368 . S
C1456 C1450 1.368 . S
C1456 C1455 1.523 . S
C1457 C1441 1.429 . S
C1457 C1453 1.429 . S
C1457 C1458 1.523 . S
C1458 C1442 1.368 . S
C1458 C1454 1.368 . S
C1458 C1457 1.523 . S
H1459 C1434 0.950 . S
H1460 C1436 0.950 . S
H1461 C1437 0.949 . S
H1462 C1439 0.950 . S
H1463 C1441 0.950 . S
C1464 C1465 1.349 . S
C1464 C1466 1.327 . S
C1464 H1489 0.950 . S
C1465 C1464 1.349 . S
C1465 C1481 1.349 . S
C1466 C1464 1.327 . S
C1466 C1485 1.429 . S
C1466 H1490 0.950 . S
C1467 C1484 1.574 . S
C1467 C1486 1.368 1_565 S
C1467 H1491 0.949 . S
H1468 C1472 0.949 . S
C1469 C1470 1.349 . S
C1469 C1471 1.327 . S
C1469 H1492 0.950 . S
C1470 C1469 1.349 . S
C1470 C1482 1.349 . S
C1471 C1469 1.327 . S
C1471 C1487 1.429 . S
C1471 H1493 0.950 . S
C1472 H1468 0.949 . S
C1472 C1480 1.574 . S
C1472 C1488 1.368 1_545 S
H1473 C1481 0.950 . S
H1474 C1479 0.939 1_565 S
H1475 C1480 0.949 . S
H1476 C1482 0.950 . S
H1477 C1483 0.937 1_545 S
H1478 C1484 0.949 . S
C1479 H1474 0.939 1_545 S
C1479 C1481 1.327 . S
C1479 C1485 1.429 . S
C1480 C1472 1.574 . S
C1480 H1475 0.949 . S
C1480 C1486 1.368 . S
C1481 C1465 1.349 . S
C1481 H1473 0.950 . S
C1481 C1479 1.327 . S
C1482 C1470 1.349 . S
C1482 H1476 0.950 . S
C1482 C1483 1.327 . S
C1483 H1477 0.937 1_565 S
C1483 C1482 1.327 . S
C1483 C1487 1.429 . S
C1484 C1467 1.574 . S
C1484 H1478 0.949 . S
C1484 C1488 1.368 . S
C1485 C1466 1.429 . S
C1485 C1479 1.429 . S
C1485 C1486 1.523 . S
C1486 C1467 1.368 1_545 S
C1486 C1480 1.368 . S
C1486 C1485 1.523 . S
C1487 C1471 1.429 . S
C1487 C1483 1.429 . S
C1487 C1488 1.523 . S
C1488 C1472 1.368 1_565 S
C1488 C1484 1.368 . S
C1488 C1487 1.523 . S
H1489 C1464 0.950 . S
H1490 C1466 0.950 . S
H1491 C1467 0.949 . S
H1492 C1469 0.950 . S
H1493 C1471 0.950 . S
C1494 C1495 1.349 . S
C1494 C1496 1.327 . S
C1494 H1519 0.950 . S
C1495 C1494 1.349 . S
C1495 C1511 1.349 . S
C1496 C1494 1.327 . S
C1496 C1515 1.429 . S
C1496 H1520 0.950 . S
C1497 C1514 1.574 . S
C1497 C1516 1.368 1_545 S
C1497 H1521 0.949 . S
H1498 C1502 0.949 . S
C1499 C1500 1.349 . S
C1499 C1501 1.327 . S
C1499 H1522 0.950 . S
C1500 C1499 1.349 . S
C1500 C1512 1.349 . S
C1501 C1499 1.327 . S
C1501 C1517 1.429 . S
C1501 H1523 0.950 . S
C1502 H1498 0.949 . S
C1502 C1510 1.574 . S
C1502 C1518 1.368 1_565 S
H1503 C1511 0.950 . S
H1504 C1509 0.950 . S
H1505 C1510 0.949 . S
H1506 C1512 0.950 . S
H1507 C1513 0.950 . S
H1508 C1514 0.949 . S
C1509 H1504 0.950 . S
C1509 C1511 1.327 . S
C1509 C1515 1.429 . S
C1510 C1502 1.574 . S
C1510 H1505 0.949 . S
C1510 C1516 1.368 . S
C1511 C1495 1.349 . S
C1511 H1503 0.950 . S
C1511 C1509 1.327 . S
C1512 C1500 1.349 . S
C1512 H1506 0.950 . S
C1512 C1513 1.327 . S
C1513 H1507 0.950 . S
C1513 C1512 1.327 . S
C1513 C1517 1.429 . S
C1514 C1497 1.574 . S
C1514 H1508 0.949 . S
C1514 C1518 1.368 . S
C1515 C1496 1.429 . S
C1515 C1509 1.429 . S
C1515 C1516 1.523 . S
C1516 C1497 1.368 1_565 S
C1516 C1510 1.368 . S
C1516 C1515 1.523 . S
C1517 C1501 1.429 . S
C1517 C1513 1.429 . S
C1517 C1518 1.523 . S
C1518 C1502 1.368 1_545 S
C1518 C1514 1.368 . S
C1518 C1517 1.523 . S
H1519 C1494 0.950 . S
H1520 C1496 0.950 . S
H1521 C1497 0.949 . S
H1522 C1499 0.950 . S
H1523 C1501 0.950 . S
C1524 C1525 1.349 . S
C1524 C1526 1.327 . S
C1524 H1549 0.950 . S
C1525 C1524 1.349 . S
C1525 C1541 1.349 . S
C1526 C1524 1.327 . S
C1526 C1545 1.429 . S
C1526 H1550 0.950 . S
C1527 C1544 1.574 . S
C1527 C1546 1.368 . S
C1527 H1551 0.949 . S
H1528 C1532 0.949 . S
C1529 C1530 1.349 . S
C1529 C1531 1.327 . S
C1529 H1552 0.950 . S
C1530 C1529 1.349 . S
C1530 C1542 1.349 . S
C1531 C1529 1.327 . S
C1531 C1547 1.429 . S
C1531 H1553 0.950 . S
C1532 H1528 0.949 . S
C1532 C1540 1.574 . S
C1532 C1548 1.368 . S
H1533 C1541 0.950 . S
H1534 C1539 0.950 . S
H1535 C1540 0.949 . S
H1536 C1542 0.950 . S
H1537 C1543 0.950 . S
H1538 C1544 0.949 . S
C1539 H1534 0.950 . S
C1539 C1541 1.327 . S
C1539 C1545 1.429 . S
C1540 C1532 1.574 . S
C1540 H1535 0.949 . S
C1540 C1546 1.368 1_455 S
C1541 C1525 1.349 . S
C1541 H1533 0.950 . S
C1541 C1539 1.327 . S
C1542 C1530 1.349 . S
C1542 H1536 0.950 . S
C1542 C1543 1.327 . S
C1543 H1537 0.950 . S
C1543 C1542 1.327 . S
C1543 C1547 1.429 . S
C1544 C1527 1.574 . S
C1544 H1538 0.949 . S
C1544 C1548 1.368 1_655 S
C1545 C1526 1.429 . S
C1545 C1539 1.429 . S
C1545 C1546 1.523 . S
C1546 C1527 1.368 . S
C1546 C1540 1.368 1_655 S
C1546 C1545 1.523 . S
C1547 C1531 1.429 . S
C1547 C1543 1.429 . S
C1547 C1548 1.523 . S
C1548 C1532 1.368 . S
C1548 C1544 1.368 1_455 S
C1548 C1547 1.523 . S
H1549 C1524 0.950 . S
H1550 C1526 0.950 . S
H1551 C1527 0.949 . S
H1552 C1529 0.950 . S
H1553 C1531 0.950 . S
C1554 C1555 1.349 . S
C1554 C1556 1.327 . S
C1554 H1579 0.950 . S
C1555 C1554 1.349 . S
C1555 C1571 1.349 . S
C1556 C1554 1.327 . S
C1556 C1575 1.429 . S
C1556 H1580 0.950 . S
C1557 C1574 1.574 . S
C1557 C1576 1.368 . S
C1557 H1581 0.949 . S
H1558 C1562 0.949 . S
C1559 C1560 1.349 . S
C1559 C1561 1.327 . S
C1559 H1582 0.950 . S
C1560 C1559 1.349 . S
C1560 C1572 1.349 . S
C1561 C1559 1.327 . S
C1561 C1577 1.429 . S
C1561 H1583 0.950 . S
C1562 H1558 0.949 . S
C1562 C1570 1.574 . S
C1562 C1578 1.368 . S
H1563 C1571 0.950 . S
H1564 C1569 0.950 . S
H1565 C1570 0.949 . S
H1566 C1572 0.950 . S
H1567 C1573 0.950 . S
H1568 C1574 0.949 . S
C1569 H1564 0.950 . S
C1569 C1571 1.327 . S
C1569 C1575 1.429 . S
C1570 C1562 1.574 . S
C1570 H1565 0.949 . S
C1570 C1576 1.368 . S
C1571 C1555 1.349 . S
C1571 H1563 0.950 . S
C1571 C1569 1.327 . S
C1572 C1560 1.349 . S
C1572 H1566 0.950 . S
C1572 C1573 1.327 . S
C1573 H1567 0.950 . S
C1573 C1572 1.327 . S
C1573 C1577 1.429 . S
C1574 C1557 1.574 . S
C1574 H1568 0.949 . S
C1574 C1578 1.368 . S
C1575 C1556 1.429 . S
C1575 C1569 1.429 . S
C1575 C1576 1.523 . S
C1576 C1557 1.368 . S
C1576 C1570 1.368 . S
C1576 C1575 1.523 . S
C1577 C1561 1.429 . S
C1577 C1573 1.429 . S
C1577 C1578 1.523 . S
C1578 C1562 1.368 . S
C1578 C1574 1.368 . S
C1578 C1577 1.523 . S
H1579 C1554 0.950 . S
H1580 C1556 0.950 . S
H1581 C1557 0.949 . S
H1582 C1559 0.950 . S
H1583 C1561 0.950 . S
C1584 C1585 1.349 . S
C1584 C1586 1.327 . S
C1584 H1609 0.950 . S
C1585 C1584 1.349 . S
C1585 C1601 1.349 . S
C1586 C1584 1.327 . S
C1586 C1605 1.429 . S
C1586 H1610 0.950 . S
C1587 C1604 1.574 . S
C1587 C1606 1.368 . S
C1587 H1611 0.949 . S
H1588 C1592 0.949 . S
C1589 C1590 1.349 . S
C1589 C1591 1.327 . S
C1589 H1612 0.950 . S
C1590 C1589 1.349 . S
C1590 C1602 1.349 . S
C1591 C1589 1.327 . S
C1591 C1607 1.429 . S
C1591 H1613 0.950 . S
C1592 H1588 0.949 . S
C1592 C1600 1.574 . S
C1592 C1608 1.368 . S
H1593 C1601 0.950 . S
H1594 C1599 0.950 . S
H1595 C1600 0.949 . S
H1596 C1602 0.950 . S
H1597 C1603 0.950 . S
H1598 C1604 0.949 . S
C1599 H1594 0.950 . S
C1599 C1601 1.327 . S
C1599 C1605 1.429 . S
C1600 C1592 1.574 . S
C1600 H1595 0.949 . S
C1600 C1606 1.368 . S
C1601 C1585 1.349 . S
C1601 H1593 0.950 . S
C1601 C1599 1.327 . S
C1602 C1590 1.349 . S
C1602 H1596 0.950 . S
C1602 C1603 1.327 . S
C1603 H1597 0.950 . S
C1603 C1602 1.327 . S
C1603 C1607 1.429 . S
C1604 C1587 1.574 . S
C1604 H1598 0.949 . S
C1604 C1608 1.368 . S
C1605 C1586 1.429 . S
C1605 C1599 1.429 . S
C1605 C1606 1.523 . S
C1606 C1587 1.368 . S
C1606 C1600 1.368 . S
C1606 C1605 1.523 . S
C1607 C1591 1.429 . S
C1607 C1603 1.429 . S
C1607 C1608 1.523 . S
C1608 C1592 1.368 . S
C1608 C1604 1.368 . S
C1608 C1607 1.523 . S
H1609 C1584 0.950 . S
H1610 C1586 0.950 . S
H1611 C1587 0.949 . S
H1612 C1589 0.950 . S
H1613 C1591 0.950 . S
C1614 C1615 1.349 . S
C1614 C1616 1.327 . S
C1614 H1639 0.950 . S
C1615 C1614 1.349 . S
C1615 C1631 1.349 . S
C1616 C1614 1.327 . S
C1616 C1635 1.429 . S
C1616 H1640 0.950 . S
C1617 C1634 1.574 . S
C1617 C1636 1.368 . S
C1617 H1641 0.949 . S
H1618 C1622 0.949 . S
C1619 C1620 1.349 . S
C1619 C1621 1.327 . S
C1619 H1642 0.950 . S
C1620 C1619 1.349 . S
C1620 C1632 1.349 . S
C1621 C1619 1.327 . S
C1621 C1637 1.429 . S
C1621 H1643 0.950 . S
C1622 H1618 0.949 . S
C1622 C1630 1.574 . S
C1622 C1638 1.368 . S
H1623 C1631 0.950 . S
H1624 C1629 0.950 . S
H1625 C1630 0.949 . S
H1626 C1632 0.950 . S
H1627 C1633 0.950 . S
H1628 C1634 0.949 . S
C1629 H1624 0.950 . S
C1629 C1631 1.327 . S
C1629 C1635 1.429 . S
C1630 C1622 1.574 . S
C1630 H1625 0.949 . S
C1630 C1636 1.368 . S
C1631 C1615 1.349 . S
C1631 H1623 0.950 . S
C1631 C1629 1.327 . S
C1632 C1620 1.349 . S
C1632 H1626 0.950 . S
C1632 C1633 1.327 . S
C1633 H1627 0.950 . S
C1633 C1632 1.327 . S
C1633 C1637 1.429 . S
C1634 C1617 1.574 . S
C1634 H1628 0.949 . S
C1634 C1638 1.368 . S
C1635 C1616 1.429 . S
C1635 C1629 1.429 . S
C1635 C1636 1.523 . S
C1636 C1617 1.368 . S
C1636 C1630 1.368 . S
C1636 C1635 1.523 . S
C1637 C1621 1.429 . S
C1637 C1633 1.429 . S
C1637 C1638 1.523 . S
C1638 C1622 1.368 . S
C1638 C1634 1.368 . S
C1638 C1637 1.523 . S
H1639 C1614 0.950 . S
H1640 C1616 0.950 . S
H1641 C1617 0.949 . S
H1642 C1619 0.950 . S
H1643 C1621 0.950 . S
C1644 C1645 1.349 . S
C1644 C1646 1.327 . S
C1644 H1669 0.950 . S
C1645 C1644 1.349 . S
C1645 C1661 1.349 . S
C1646 C1644 1.327 . S
C1646 C1665 1.429 . S
C1646 H1670 0.950 . S
C1647 C1664 1.574 . S
C1647 C1666 1.368 . S
C1647 H1671 0.949 . S
H1648 C1652 0.949 . S
C1649 C1650 1.349 . S
C1649 C1651 1.327 . S
C1649 H1672 0.950 . S
C1650 C1649 1.349 . S
C1650 C1662 1.349 . S
C1651 C1649 1.327 . S
C1651 C1667 1.429 . S
C1651 H1673 0.950 . S
C1652 H1648 0.949 . S
C1652 C1660 1.574 . S
C1652 C1668 1.368 . S
H1653 C1661 0.950 . S
H1654 C1659 0.950 . S
H1655 C1660 0.949 . S
H1656 C1662 0.950 . S
H1657 C1663 0.950 . S
H1658 C1664 0.949 . S
C1659 H1654 0.950 . S
C1659 C1661 1.327 . S
C1659 C1665 1.429 . S
C1660 C1652 1.574 . S
C1660 H1655 0.949 . S
C1660 C1666 1.368 . S
C1661 C1645 1.349 . S
C1661 H1653 0.950 . S
C1661 C1659 1.327 . S
C1662 C1650 1.349 . S
C1662 H1656 0.950 . S
C1662 C1663 1.327 . S
C1663 H1657 0.950 . S
C1663 C1662 1.327 . S
C1663 C1667 1.429 . S
C1664 C1647 1.574 . S
C1664 H1658 0.949 . S
C1664 C1668 1.368 . S
C1665 C1646 1.429 . S
C1665 C1659 1.429 . S
C1665 C1666 1.523 . S
C1666 C1647 1.368 . S
C1666 C1660 1.368 . S
C1666 C1665 1.523 . S
C1667 C1651 1.429 . S
C1667 C1663 1.429 . S
C1667 C1668 1.523 . S
C1668 C1652 1.368 . S
C1668 C1664 1.368 . S
C1668 C1667 1.523 . S
H1669 C1644 0.950 . S
H1670 C1646 0.950 . S
H1671 C1647 0.949 . S
H1672 C1649 0.950 . S
H1673 C1651 0.950 . S
C1674 C1675 1.349 . S
C1674 C1676 1.327 . S
C1674 H1699 0.950 . S
C1675 C1674 1.349 . S
C1675 C1691 1.349 . S
C1676 C1674 1.327 . S
C1676 C1695 1.429 . S
C1676 H1700 0.950 . S
C1677 C1694 1.574 . S
C1677 C1696 1.368 . S
C1677 H1701 0.949 . S
H1678 C1682 0.949 . S
C1679 C1680 1.349 . S
C1679 C1681 1.327 . S
C1679 H1702 0.950 . S
C1680 C1679 1.349 . S
C1680 C1692 1.349 . S
C1681 C1679 1.327 . S
C1681 C1697 1.429 . S
C1681 H1703 0.950 . S
C1682 H1678 0.949 . S
C1682 C1690 1.574 . S
C1682 C1698 1.368 . S
H1683 C1691 0.950 . S
H1684 C1689 0.950 . S
H1685 C1690 0.949 . S
H1686 C1692 0.950 . S
H1687 C1693 0.950 . S
H1688 C1694 0.949 . S
C1689 H1684 0.950 . S
C1689 C1691 1.327 . S
C1689 C1695 1.429 . S
C1690 C1682 1.574 . S
C1690 H1685 0.949 . S
C1690 C1696 1.368 . S
C1691 C1675 1.349 . S
C1691 H1683 0.950 . S
C1691 C1689 1.327 . S
C1692 C1680 1.349 . S
C1692 H1686 0.950 . S
C1692 C1693 1.327 . S
C1693 H1687 0.950 . S
C1693 C1692 1.327 . S
C1693 C1697 1.429 . S
C1694 C1677 1.574 . S
C1694 H1688 0.949 . S
C1694 C1698 1.368 . S
C1695 C1676 1.429 . S
C1695 C1689 1.429 . S
C1695 C1696 1.523 . S
C1696 C1677 1.368 . S
C1696 C1690 1.368 . S
C1696 C1695 1.523 . S
C1697 C1681 1.429 . S
C1697 C1693 1.429 . S
C1697 C1698 1.523 . S
C1698 C1682 1.368 . S
C1698 C1694 1.368 . S
C1698 C1697 1.523 . S
H1699 C1674 0.950 . S
H1700 C1676 0.950 . S
H1701 C1677 0.949 . S
H1702 C1679 0.950 . S
H1703 C1681 0.950 . S
C1704 C1705 1.349 . S
C1704 C1706 1.327 . S
C1704 H1729 0.950 . S
C1705 C1704 1.349 . S
C1705 C1721 1.349 . S
C1706 C1704 1.327 . S
C1706 C1725 1.429 . S
C1706 H1730 0.950 . S
C1707 C1724 1.574 . S
C1707 C1726 1.368 . S
C1707 H1731 0.949 . S
H1708 C1712 0.949 . S
C1709 C1710 1.349 . S
C1709 C1711 1.327 . S
C1709 H1732 0.950 . S
C1710 C1709 1.349 . S
C1710 C1722 1.349 . S
C1711 C1709 1.327 . S
C1711 C1727 1.429 . S
C1711 H1733 0.950 . S
C1712 H1708 0.949 . S
C1712 C1720 1.574 . S
C1712 C1728 1.368 . S
H1713 C1721 0.950 . S
H1714 C1719 0.950 . S
H1715 C1720 0.949 . S
H1716 C1722 0.950 . S
H1717 C1723 0.950 . S
H1718 C1724 0.949 . S
C1719 H1714 0.950 . S
C1719 C1721 1.327 . S
C1719 C1725 1.429 . S
C1720 C1712 1.574 . S
C1720 H1715 0.949 . S
C1720 C1726 1.368 . S
C1721 C1705 1.349 . S
C1721 H1713 0.950 . S
C1721 C1719 1.327 . S
C1722 C1710 1.349 . S
C1722 H1716 0.950 . S
C1722 C1723 1.327 . S
C1723 H1717 0.950 . S
C1723 C1722 1.327 . S
C1723 C1727 1.429 . S
C1724 C1707 1.574 . S
C1724 H1718 0.949 . S
C1724 C1728 1.368 . S
C1725 C1706 1.429 . S
C1725 C1719 1.429 . S
C1725 C1726 1.523 . S
C1726 C1707 1.368 . S
C1726 C1720 1.368 . S
C1726 C1725 1.523 . S
C1727 C1711 1.429 . S
C1727 C1723 1.429 . S
C1727 C1728 1.523 . S
C1728 C1712 1.368 . S
C1728 C1724 1.368 . S
C1728 C1727 1.523 . S
H1729 C1704 0.950 . S
H1730 C1706 0.950 . S
H1731 C1707 0.949 . S
H1732 C1709 0.950 . S
H1733 C1711 0.950 . S
C1734 C1735 1.349 . S
C1734 C1736 1.327 . S
C1734 H1759 0.950 . S
C1735 C1734 1.349 . S
C1735 C1751 1.349 . S
C1736 C1734 1.327 . S
C1736 C1755 1.429 . S
C1736 H1760 0.950 . S
C1737 C1754 1.574 . S
C1737 C1756 1.368 . S
C1737 H1761 0.949 . S
H1738 C1742 0.949 . S
C1739 C1740 1.349 . S
C1739 C1741 1.327 . S
C1739 H1762 0.950 . S
C1740 C1739 1.349 . S
C1740 C1752 1.349 . S
C1741 C1739 1.327 . S
C1741 C1757 1.429 . S
C1741 H1763 0.950 . S
C1742 H1738 0.949 . S
C1742 C1750 1.574 . S
C1742 C1758 1.368 . S
H1743 C1751 0.950 . S
H1744 C1749 0.950 . S
H1745 C1750 0.949 . S
H1746 C1752 0.950 . S
H1747 C1753 0.950 . S
H1748 C1754 0.949 . S
C1749 H1744 0.950 . S
C1749 C1751 1.327 . S
C1749 C1755 1.429 . S
C1750 C1742 1.574 . S
C1750 H1745 0.949 . S
C1750 C1756 1.368 . S
C1751 C1735 1.349 . S
C1751 H1743 0.950 . S
C1751 C1749 1.327 . S
C1752 C1740 1.349 . S
C1752 H1746 0.950 . S
C1752 C1753 1.327 . S
C1753 H1747 0.950 . S
C1753 C1752 1.327 . S
C1753 C1757 1.429 . S
C1754 C1737 1.574 . S
C1754 H1748 0.949 . S
C1754 C1758 1.368 . S
C1755 C1736 1.429 . S
C1755 C1749 1.429 . S
C1755 C1756 1.523 . S
C1756 C1737 1.368 . S
C1756 C1750 1.368 . S
C1756 C1755 1.523 . S
C1757 C1741 1.429 . S
C1757 C1753 1.429 . S
C1757 C1758 1.523 . S
C1758 C1742 1.368 . S
C1758 C1754 1.368 . S
C1758 C1757 1.523 . S
H1759 C1734 0.950 . S
H1760 C1736 0.950 . S
H1761 C1737 0.949 . S
H1762 C1739 0.950 . S
H1763 C1741 0.950 . S
C1764 C1765 1.349 . S
C1764 C1766 1.327 . S
C1764 H1789 0.950 . S
C1765 C1764 1.349 . S
C1765 C1781 1.349 . S
C1766 C1764 1.327 . S
C1766 C1785 1.429 . S
C1766 H1790 0.950 . S
C1767 C1784 1.574 . S
C1767 C1786 1.368 . S
C1767 H1791 0.949 . S
H1768 C1772 0.949 . S
C1769 C1770 1.349 . S
C1769 C1771 1.327 . S
C1769 H1792 0.950 . S
C1770 C1769 1.349 . S
C1770 C1782 1.349 . S
C1771 C1769 1.327 . S
C1771 C1787 1.429 . S
C1771 H1793 0.950 . S
C1772 H1768 0.949 . S
C1772 C1780 1.574 . S
C1772 C1788 1.368 . S
H1773 C1781 0.950 . S
H1774 C1779 0.950 . S
H1775 C1780 0.949 . S
H1776 C1782 0.950 . S
H1777 C1783 0.950 . S
H1778 C1784 0.949 . S
C1779 H1774 0.950 . S
C1779 C1781 1.327 . S
C1779 C1785 1.429 . S
C1780 C1772 1.574 . S
C1780 H1775 0.949 . S
C1780 C1786 1.368 . S
C1781 C1765 1.349 . S
C1781 H1773 0.950 . S
C1781 C1779 1.327 . S
C1782 C1770 1.349 . S
C1782 H1776 0.950 . S
C1782 C1783 1.327 . S
C1783 H1777 0.950 . S
C1783 C1782 1.327 . S
C1783 C1787 1.429 . S
C1784 C1767 1.574 . S
C1784 H1778 0.949 . S
C1784 C1788 1.368 . S
C1785 C1766 1.429 . S
C1785 C1779 1.429 . S
C1785 C1786 1.523 . S
C1786 C1767 1.368 . S
C1786 C1780 1.368 . S
C1786 C1785 1.523 . S
C1787 C1771 1.429 . S
C1787 C1783 1.429 . S
C1787 C1788 1.523 . S
C1788 C1772 1.368 . S
C1788 C1784 1.368 . S
C1788 C1787 1.523 . S
H1789 C1764 0.950 . S
H1790 C1766 0.950 . S
H1791 C1767 0.949 . S
H1792 C1769 0.950 . S
H1793 C1771 0.950 . S
C1794 C1795 1.349 . S
C1794 C1796 1.327 . S
C1794 H1819 0.950 . S
C1795 C1794 1.349 . S
C1795 C1811 1.349 . S
C1796 C1794 1.327 . S
C1796 C1815 1.429 . S
C1796 H1820 0.950 . S
C1797 C1814 1.574 . S
C1797 C1816 1.368 . S
C1797 H1821 0.949 . S
H1798 C1802 0.949 . S
C1799 C1800 1.349 . S
C1799 C1801 1.327 . S
C1799 H1822 0.950 . S
C1800 C1799 1.349 . S
C1800 C1812 1.349 . S
C1801 C1799 1.327 . S
C1801 C1817 1.429 . S
C1801 H1823 0.950 . S
C1802 H1798 0.949 . S
C1802 C1810 1.574 . S
C1802 C1818 1.368 . S
H1803 C1811 0.950 . S
H1804 C1809 0.950 . S
H1805 C1810 0.949 . S
H1806 C1812 0.950 . S
H1807 C1813 0.950 . S
H1808 C1814 0.949 . S
C1809 H1804 0.950 . S
C1809 C1811 1.327 . S
C1809 C1815 1.429 . S
C1810 C1802 1.574 . S
C1810 H1805 0.949 . S
C1810 C1816 1.368 . S
C1811 C1795 1.349 . S
C1811 H1803 0.950 . S
C1811 C1809 1.327 . S
C1812 C1800 1.349 . S
C1812 H1806 0.950 . S
C1812 C1813 1.327 . S
C1813 H1807 0.950 . S
C1813 C1812 1.327 . S
C1813 C1817 1.429 . S
C1814 C1797 1.574 . S
C1814 H1808 0.949 . S
C1814 C1818 1.368 . S
C1815 C1796 1.429 . S
C1815 C1809 1.429 . S
C1815 C1816 1.523 . S
C1816 C1797 1.368 . S
C1816 C1810 1.368 . S
C1816 C1815 1.523 . S
C1817 C1801 1.429 . S
C1817 C1813 1.429 . S
C1817 C1818 1.523 . S
C1818 C1802 1.368 . S
C1818 C1814 1.368 . S
C1818 C1817 1.523 . S
H1819 C1794 0.950 . S
H1820 C1796 0.950 . S
H1821 C1797 0.949 . S
H1822 C1799 0.950 . S
H1823 C1801 0.950 . S
C1824 C1825 1.349 . S
C1824 C1826 1.327 . S
C1824 H1849 0.950 . S
C1825 C1824 1.349 . S
C1825 C1841 1.349 . S
C1826 C1824 1.327 . S
C1826 C1845 1.429 . S
C1826 H1850 0.950 . S
C1827 C1844 1.574 . S
C1827 C1846 1.368 . S
C1827 H1851 0.949 . S
H1828 C1832 0.949 . S
C1829 C1830 1.349 . S
C1829 C1831 1.327 . S
C1829 H1852 0.950 . S
C1830 C1829 1.349 . S
C1830 C1842 1.349 . S
C1831 C1829 1.327 . S
C1831 C1847 1.429 . S
C1831 H1853 0.950 . S
C1832 H1828 0.949 . S
C1832 C1840 1.574 . S
C1832 C1848 1.368 . S
H1833 C1841 0.950 . S
H1834 C1839 0.950 . S
H1835 C1840 0.949 . S
H1836 C1842 0.950 . S
H1837 C1843 0.950 . S
H1838 C1844 0.949 . S
C1839 H1834 0.950 . S
C1839 C1841 1.327 . S
C1839 C1845 1.429 . S
C1840 C1832 1.574 . S
C1840 H1835 0.949 . S
C1840 C1846 1.368 . S
C1841 C1825 1.349 . S
C1841 H1833 0.950 . S
C1841 C1839 1.327 . S
C1842 C1830 1.349 . S
C1842 H1836 0.950 . S
C1842 C1843 1.327 . S
C1843 H1837 0.950 . S
C1843 C1842 1.327 . S
C1843 C1847 1.429 . S
C1844 C1827 1.574 . S
C1844 H1838 0.949 . S
C1844 C1848 1.368 . S
C1845 C1826 1.429 . S
C1845 C1839 1.429 . S
C1845 C1846 1.523 . S
C1846 C1827 1.368 . S
C1846 C1840 1.368 . S
C1846 C1845 1.523 . S
C1847 C1831 1.429 . S
C1847 C1843 1.429 . S
C1847 C1848 1.523 . S
C1848 C1832 1.368 . S
C1848 C1844 1.368 . S
C1848 C1847 1.523 . S
H1849 C1824 0.950 . S
H1850 C1826 0.950 . S
H1851 C1827 0.949 . S
H1852 C1829 0.950 . S
H1853 C1831 0.950 . S
C1854 C1855 1.349 . S
C1854 C1856 1.327 . S
C1854 H1879 0.950 . S
C1855 C1854 1.349 . S
C1855 C1871 1.349 . S
C1856 C1854 1.327 . S
C1856 C1875 1.429 . S
C1856 H1880 0.950 . S
C1857 C1874 1.574 . S
C1857 C1876 1.368 . S
C1857 H1881 0.949 . S
H1858 C1862 0.949 . S
C1859 C1860 1.349 . S
C1859 C1861 1.327 . S
C1859 H1882 0.950 . S
C1860 C1859 1.349 . S
C1860 C1872 1.349 . S
C1861 C1859 1.327 . S
C1861 C1877 1.429 . S
C1861 H1883 0.950 . S
C1862 H1858 0.949 . S
C1862 C1870 1.574 . S
C1862 C1878 1.368 . S
H1863 C1871 0.950 . S
H1864 C1869 0.950 . S
H1865 C1870 0.949 . S
H1866 C1872 0.950 . S
H1867 C1873 0.950 . S
H1868 C1874 0.949 . S
C1869 H1864 0.950 . S
C1869 C1871 1.327 . S
C1869 C1875 1.429 . S
C1870 C1862 1.574 . S
C1870 H1865 0.949 . S
C1870 C1876 1.368 . S
C1871 C1855 1.349 . S
C1871 H1863 0.950 . S
C1871 C1869 1.327 . S
C1872 C1860 1.349 . S
C1872 H1866 0.950 . S
C1872 C1873 1.327 . S
C1873 H1867 0.950 . S
C1873 C1872 1.327 . S
C1873 C1877 1.429 . S
C1874 C1857 1.574 . S
C1874 H1868 0.949 . S
C1874 C1878 1.368 . S
C1875 C1856 1.429 . S
C1875 C1869 1.429 . S
C1875 C1876 1.523 . S
C1876 C1857 1.368 . S
C1876 C1870 1.368 . S
C1876 C1875 1.523 . S
C1877 C1861 1.429 . S
C1877 C1873 1.429 . S
C1877 C1878 1.523 . S
C1878 C1862 1.368 . S
C1878 C1874 1.368 . S
C1878 C1877 1.523 . S
H1879 C1854 0.950 . S
H1880 C1856 0.950 . S
H1881 C1857 0.949 . S
H1882 C1859 0.950 . S
H1883 C1861 0.950 . S
C1884 C1885 1.349 . S
C1884 C1886 1.327 . S
C1884 H1909 0.950 . S
C1885 C1884 1.349 . S
C1885 C1901 1.349 . S
C1886 C1884 1.327 . S
C1886 C1905 1.429 . S
C1886 H1910 0.950 . S
C1887 C1904 1.574 . S
C1887 C1906 1.368 . S
C1887 H1911 0.949 . S
H1888 C1892 0.949 . S
C1889 C1890 1.349 . S
C1889 C1891 1.327 . S
C1889 H1912 0.950 . S
C1890 C1889 1.349 . S
C1890 C1902 1.349 . S
C1891 C1889 1.327 . S
C1891 C1907 1.429 . S
C1891 H1913 0.950 . S
C1892 H1888 0.949 . S
C1892 C1900 1.574 . S
C1892 C1908 1.368 . S
H1893 C1901 0.950 . S
H1894 C1899 0.950 . S
H1895 C1900 0.949 . S
H1896 C1902 0.950 . S
H1897 C1903 0.950 . S
H1898 C1904 0.949 . S
C1899 H1894 0.950 . S
C1899 C1901 1.327 . S
C1899 C1905 1.429 . S
C1900 C1892 1.574 . S
C1900 H1895 0.949 . S
C1900 C1906 1.368 . S
C1901 C1885 1.349 . S
C1901 H1893 0.950 . S
C1901 C1899 1.327 . S
C1902 C1890 1.349 . S
C1902 H1896 0.950 . S
C1902 C1903 1.327 . S
C1903 H1897 0.950 . S
C1903 C1902 1.327 . S
C1903 C1907 1.429 . S
C1904 C1887 1.574 . S
C1904 H1898 0.949 . S
C1904 C1908 1.368 . S
C1905 C1886 1.429 . S
C1905 C1899 1.429 . S
C1905 C1906 1.523 . S
C1906 C1887 1.368 . S
C1906 C1900 1.368 . S
C1906 C1905 1.523 . S
C1907 C1891 1.429 . S
C1907 C1903 1.429 . S
C1907 C1908 1.523 . S
C1908 C1892 1.368 . S
C1908 C1904 1.368 . S
C1908 C1907 1.523 . S
H1909 C1884 0.950 . S
H1910 C1886 0.950 . S
H1911 C1887 0.949 . S
H1912 C1889 0.950 . S
H1913 C1891 0.950 . S
C1914 C1915 1.349 . S
C1914 C1916 1.327 . S
C1914 H1939 0.950 . S
C1915 C1914 1.349 . S
C1915 C1931 1.349 . S
C1916 C1914 1.327 . S
C1916 C1935 1.429 . S
C1916 H1940 0.950 . S
C1917 C1934 1.574 . S
C1917 C1936 1.368 . S
C1917 H1941 0.949 . S
H1918 C1922 0.949 . S
C1919 C1920 1.349 . S
C1919 C1921 1.327 . S
C1919 H1942 0.950 . S
C1920 C1919 1.349 . S
C1920 C1932 1.349 . S
C1921 C1919 1.327 . S
C1921 C1937 1.429 . S
C1921 H1943 0.950 . S
C1922 H1918 0.949 . S
C1922 C1930 1.574 . S
C1922 C1938 1.368 . S
H1923 C1931 0.950 . S
H1924 C1929 0.950 . S
H1925 C1930 0.949 . S
H1926 C1932 0.950 . S
H1927 C1933 0.950 . S
H1928 C1934 0.949 . S
C1929 H1924 0.950 . S
C1929 C1931 1.327 . S
C1929 C1935 1.429 . S
C1930 C1922 1.574 . S
C1930 H1925 0.949 . S
C1930 C1936 1.368 . S
C1931 C1915 1.349 . S
C1931 H1923 0.950 . S
C1931 C1929 1.327 . S
C1932 C1920 1.349 . S
C1932 H1926 0.950 . S
C1932 C1933 1.327 . S
C1933 H1927 0.950 . S
C1933 C1932 1.327 . S
C1933 C1937 1.429 . S
C1934 C1917 1.574 . S
C1934 H1928 0.949 . S
C1934 C1938 1.368 . S
C1935 C1916 1.429 . S
C1935 C1929 1.429 . S
C1935 C1936 1.523 . S
C1936 C1917 1.368 . S
C1936 C1930 1.368 . S
C1936 C1935 1.523 . S
C1937 C1921 1.429 . S
C1937 C1933 1.429 . S
C1937 C1938 1.523 . S
C1938 C1922 1.368 . S
C1938 C1934 1.368 . S
C1938 C1937 1.523 . S
H1939 C1914 0.950 . S
H1940 C1916 0.950 . S
H1941 C1917 0.949 . S
H1942 C1919 0.950 . S
H1943 C1921 0.950 . S
C1944 C1945 1.349 . S
C1944 C1946 1.327 . S
C1944 H1969 0.950 . S
C1945 C1944 1.349 . S
C1945 C1961 1.349 . S
C1946 C1944 1.327 . S
C1946 C1965 1.429 . S
C1946 H1970 0.950 1_455 S
C1947 C1964 1.574 . S
C1947 C1966 1.368 . S
C1947 H1971 0.949 . S
H1948 C1952 0.949 . S
C1949 C1950 1.349 . S
C1949 C1951 1.327 . S
C1949 H1972 0.950 . S
C1950 C1949 1.349 . S
C1950 C1962 1.349 . S
C1951 C1949 1.327 . S
C1951 C1967 1.429 . S
C1951 H1973 0.950 1_655 S
C1952 H1948 0.949 . S
C1952 C1960 1.574 . S
C1952 C1968 1.368 . S
H1953 C1961 0.950 . S
H1954 C1959 0.950 . S
H1955 C1960 0.949 . S
H1956 C1962 0.950 . S
H1957 C1963 0.950 . S
H1958 C1964 0.949 . S
C1959 H1954 0.950 . S
C1959 C1961 1.327 . S
C1959 C1965 1.429 . S
C1960 C1952 1.574 . S
C1960 H1955 0.949 . S
C1960 C1966 1.368 1_655 S
C1961 C1945 1.349 . S
C1961 H1953 0.950 . S
C1961 C1959 1.327 . S
C1962 C1950 1.349 . S
C1962 H1956 0.950 . S
C1962 C1963 1.327 . S
C1963 H1957 0.950 . S
C1963 C1962 1.327 . S
C1963 C1967 1.429 . S
C1964 C1947 1.574 . S
C1964 H1958 0.949 . S
C1964 C1968 1.368 1_455 S
C1965 C1946 1.429 . S
C1965 C1959 1.429 . S
C1965 C1966 1.523 . S
C1966 C1947 1.368 . S
C1966 C1960 1.368 1_455 S
C1966 C1965 1.523 . S
C1967 C1951 1.429 . S
C1967 C1963 1.429 . S
C1967 C1968 1.523 . S
C1968 C1952 1.368 . S
C1968 C1964 1.368 1_655 S
C1968 C1967 1.523 . S
H1969 C1944 0.950 . S
H1970 C1946 0.950 1_655 S
H1971 C1947 0.949 . S
H1972 C1949 0.950 . S
H1973 C1951 0.950 1_455 S
C1974 C1975 1.349 . S
C1974 C1976 1.327 . S
C1974 H1999 0.950 . S
C1975 C1974 1.349 . S
C1975 C1991 1.349 . S
C1976 C1974 1.327 . S
C1976 C1995 1.429 . S
C1976 H2000 0.950 . S
C1977 C1994 1.574 . S
C1977 C1996 1.368 . S
C1977 H2001 0.949 . S
H1978 C1982 0.949 . S
C1979 C1980 1.349 . S
C1979 C1981 1.327 . S
C1979 H2002 0.950 . S
C1980 C1979 1.349 . S
C1980 C1992 1.349 . S
C1981 C1979 1.327 . S
C1981 C1997 1.429 . S
C1981 H2003 0.950 . S
C1982 H1978 0.949 . S
C1982 C1990 1.574 . S
C1982 C1998 1.368 . S
H1983 C1991 0.950 . S
H1984 C1989 0.950 . S
H1985 C1990 0.949 . S
H1986 C1992 0.950 . S
H1987 C1993 0.950 . S
H1988 C1994 0.949 . S
C1989 H1984 0.950 . S
C1989 C1991 1.327 . S
C1989 C1995 1.429 . S
C1990 C1982 1.574 . S
C1990 H1985 0.949 . S
C1990 C1996 1.368 . S
C1991 C1975 1.349 . S
C1991 H1983 0.950 . S
C1991 C1989 1.327 . S
C1992 C1980 1.349 . S
C1992 H1986 0.950 . S
C1992 C1993 1.327 . S
C1993 H1987 0.950 . S
C1993 C1992 1.327 . S
C1993 C1997 1.429 . S
C1994 C1977 1.574 . S
C1994 H1988 0.949 . S
C1994 C1998 1.368 . S
C1995 C1976 1.429 . S
C1995 C1989 1.429 . S
C1995 C1996 1.523 . S
C1996 C1977 1.368 . S
C1996 C1990 1.368 . S
C1996 C1995 1.523 . S
C1997 C1981 1.429 . S
C1997 C1993 1.429 . S
C1997 C1998 1.523 . S
C1998 C1982 1.368 . S
C1998 C1994 1.368 . S
C1998 C1997 1.523 . S
H1999 C1974 0.950 . S
H2000 C1976 0.950 . S
H2001 C1977 0.949 . S
H2002 C1979 0.950 . S
H2003 C1981 0.950 . S
C2004 C2005 1.349 . S
C2004 C2006 1.327 . S
C2004 H2029 0.950 . S
C2005 C2004 1.349 . S
C2005 C2021 1.349 . S
C2006 C2004 1.327 . S
C2006 C2025 1.429 . S
C2006 H2030 0.950 1_545 S
C2007 C2024 1.574 . S
C2007 C2026 1.368 . S
C2007 H2031 0.949 . S
H2008 C2012 0.949 . S
C2009 C2010 1.349 . S
C2009 C2011 1.327 . S
C2009 H2032 0.950 . S
C2010 C2009 1.349 . S
C2010 C2022 1.349 . S
C2011 C2009 1.327 . S
C2011 C2027 1.429 . S
C2011 H2033 0.950 1_565 S
C2012 H2008 0.949 . S
C2012 C2020 1.574 . S
C2012 C2028 1.368 . S
H2013 C2021 0.950 . S
H2014 C2019 0.950 . S
H2015 C2020 0.949 . S
H2016 C2022 0.950 . S
H2017 C2023 0.950 . S
H2018 C2024 0.949 . S
C2019 H2014 0.950 . S
C2019 C2021 1.327 . S
C2019 C2025 1.429 . S
C2020 C2012 1.574 . S
C2020 H2015 0.949 . S
C2020 C2026 1.368 1_565 S
C2021 C2005 1.349 . S
C2021 H2013 0.950 . S
C2021 C2019 1.327 . S
C2022 C2010 1.349 . S
C2022 H2016 0.950 . S
C2022 C2023 1.327 . S
C2023 H2017 0.950 . S
C2023 C2022 1.327 . S
C2023 C2027 1.429 . S
C2024 C2007 1.574 . S
C2024 H2018 0.949 . S
C2024 C2028 1.368 1_545 S
C2025 C2006 1.429 . S
C2025 C2019 1.429 . S
C2025 C2026 1.523 . S
C2026 C2007 1.368 . S
C2026 C2020 1.368 1_545 S
C2026 C2025 1.523 . S
C2027 C2011 1.429 . S
C2027 C2023 1.429 . S
C2027 C2028 1.523 . S
C2028 C2012 1.368 . S
C2028 C2024 1.368 1_565 S
C2028 C2027 1.523 . S
H2029 C2004 0.950 . S
H2030 C2006 0.950 1_565 S
H2031 C2007 0.949 . S
H2032 C2009 0.950 . S
H2033 C2011 0.950 1_545 S
C2034 C2035 1.349 . S
C2034 C2036 1.327 . S
C2034 H2059 0.950 . S
C2035 C2034 1.349 . S
C2035 C2051 1.349 . S
C2036 C2034 1.327 . S
C2036 C2055 1.429 . S
C2036 H2060 0.948 1_546 S
C2037 C2054 1.574 . S
C2037 C2056 1.368 . S
C2037 H2061 0.949 . S
H2038 C2042 0.949 . S
C2039 C2040 1.349 . S
C2039 C2041 1.327 . S
C2039 H2062 0.950 . S
C2040 C2039 1.349 . S
C2040 C2052 1.349 . S
C2041 C2039 1.327 . S
C2041 C2057 1.429 . S
C2041 H2063 0.947 1_564 S
C2042 H2038 0.949 . S
C2042 C2050 1.574 . S
C2042 C2058 1.368 . S
H2043 C2051 0.950 . S
H2044 C2049 0.950 . S
H2045 C2050 0.949 . S
H2046 C2052 0.950 . S
H2047 C2053 0.950 . S
H2048 C2054 0.949 . S
C2049 H2044 0.950 . S
C2049 C2051 1.327 . S
C2049 C2055 1.429 . S
C2050 C2042 1.574 . S
C2050 H2045 0.949 . S
C2050 C2056 1.368 1_564 S
C2051 C2035 1.349 . S
C2051 H2043 0.950 . S
C2051 C2049 1.327 . S
C2052 C2040 1.349 . S
C2052 H2046 0.950 . S
C2052 C2053 1.327 . S
C2053 H2047 0.950 . S
C2053 C2052 1.327 . S
C2053 C2057 1.429 . S
C2054 C2037 1.574 . S
C2054 H2048 0.949 . S
C2054 C2058 1.368 1_546 S
C2055 C2036 1.429 . S
C2055 C2049 1.429 . S
C2055 C2056 1.523 . S
C2056 C2037 1.368 . S
C2056 C2050 1.368 1_546 S
C2056 C2055 1.523 . S
C2057 C2041 1.429 . S
C2057 C2053 1.429 . S
C2057 C2058 1.523 . S
C2058 C2042 1.368 . S
C2058 C2054 1.368 1_564 S
C2058 C2057 1.523 . S
H2059 C2034 0.950 . S
H2060 C2036 0.948 1_564 S
H2061 C2037 0.949 . S
H2062 C2039 0.950 . S
H2063 C2041 0.947 1_546 S
C2064 C2065 1.349 . S
C2064 C2066 1.327 . S
C2064 H2089 0.950 . S
C2065 C2064 1.349 . S
C2065 C2081 1.349 . S
C2066 C2064 1.327 . S
C2066 C2085 1.429 . S
C2066 H2090 0.950 1_554 S
C2067 C2084 1.574 . S
C2067 C2086 1.368 1_655 S
C2067 H2091 0.949 . S
H2068 C2072 0.949 . S
C2069 C2070 1.349 . S
C2069 C2071 1.327 . S
C2069 H2092 0.950 . S
C2070 C2069 1.349 . S
C2070 C2082 1.349 . S
C2071 C2069 1.327 . S
C2071 C2087 1.429 . S
C2071 H2093 0.950 1_556 S
C2072 H2068 0.949 . S
C2072 C2080 1.574 . S
C2072 C2088 1.368 1_455 S
H2073 C2081 0.950 . S
H2074 C2079 0.950 1_655 S
H2075 C2080 0.949 . S
H2076 C2082 0.950 . S
H2077 C2083 0.950 1_455 S
H2078 C2084 0.949 . S
C2079 H2074 0.950 1_455 S
C2079 C2081 1.327 . S
C2079 C2085 1.429 . S
C2080 C2072 1.574 . S
C2080 H2075 0.949 . S
C2080 C2086 1.368 1_556 S
C2081 C2065 1.349 . S
C2081 H2073 0.950 . S
C2081 C2079 1.327 . S
C2082 C2070 1.349 . S
C2082 H2076 0.950 . S
C2082 C2083 1.327 . S
C2083 H2077 0.950 1_655 S
C2083 C2082 1.327 . S
C2083 C2087 1.429 . S
C2084 C2067 1.574 . S
C2084 H2078 0.949 . S
C2084 C2088 1.368 1_554 S
C2085 C2066 1.429 . S
C2085 C2079 1.429 . S
C2085 C2086 1.523 . S
C2086 C2067 1.368 1_455 S
C2086 C2080 1.368 1_554 S
C2086 C2085 1.523 . S
C2087 C2071 1.429 . S
C2087 C2083 1.429 . S
C2087 C2088 1.523 . S
C2088 C2072 1.368 1_655 S
C2088 C2084 1.368 1_556 S
C2088 C2087 1.523 . S
H2089 C2064 0.950 . S
H2090 C2066 0.950 1_556 S
H2091 C2067 0.949 . S
H2092 C2069 0.950 . S
H2093 C2071 0.950 1_554 S
C2094 C2095 1.349 . S
C2094 C2096 1.327 . S
C2094 H2119 0.950 . S
C2095 C2094 1.349 . S
C2095 C2111 1.349 . S
C2096 C2094 1.327 . S
C2096 C2115 1.429 . S
C2096 H2120 0.950 . S
C2097 C2114 1.574 . S
C2097 C2116 1.368 . S
C2097 H2121 0.949 . S
H2098 C2102 0.949 . S
C2099 C2100 1.349 . S
C2099 C2101 1.327 . S
C2099 H2122 0.950 . S
C2100 C2099 1.349 . S
C2100 C2112 1.349 . S
C2101 C2099 1.327 . S
C2101 C2117 1.429 . S
C2101 H2123 0.950 . S
C2102 H2098 0.949 . S
C2102 C2110 1.574 . S
C2102 C2118 1.368 . S
H2103 C2111 0.950 . S
H2104 C2109 0.950 . S
H2105 C2110 0.949 . S
H2106 C2112 0.950 . S
H2107 C2113 0.950 . S
H2108 C2114 0.949 . S
C2109 H2104 0.950 . S
C2109 C2111 1.327 . S
C2109 C2115 1.429 . S
C2110 C2102 1.574 . S
C2110 H2105 0.949 . S
C2110 C2116 1.368 1_556 S
C2111 C2095 1.349 . S
C2111 H2103 0.950 . S
C2111 C2109 1.327 . S
C2112 C2100 1.349 . S
C2112 H2106 0.950 . S
C2112 C2113 1.327 . S
C2113 H2107 0.950 . S
C2113 C2112 1.327 . S
C2113 C2117 1.429 . S
C2114 C2097 1.574 . S
C2114 H2108 0.949 . S
C2114 C2118 1.368 1_554 S
C2115 C2096 1.429 . S
C2115 C2109 1.429 . S
C2115 C2116 1.523 . S
C2116 C2097 1.368 . S
C2116 C2110 1.368 1_554 S
C2116 C2115 1.523 . S
C2117 C2101 1.429 . S
C2117 C2113 1.429 . S
C2117 C2118 1.523 . S
C2118 C2102 1.368 . S
C2118 C2114 1.368 1_556 S
C2118 C2117 1.523 . S
H2119 C2094 0.950 . S
H2120 C2096 0.950 . S
H2121 C2097 0.949 . S
H2122 C2099 0.950 . S
H2123 C2101 0.950 . S
C2124 C2125 1.349 1_554 S
C2124 C2126 1.327 . S
C2124 H2149 0.950 . S
C2125 C2124 1.349 1_556 S
C2125 C2141 1.349 . S
C2126 C2124 1.327 . S
C2126 C2145 1.429 . S
C2126 H2150 0.950 . S
C2127 C2144 1.574 . S
C2127 C2146 1.368 . S
C2127 H2151 0.949 . S
H2128 C2132 0.949 . S
C2129 C2130 1.349 . S
C2129 C2131 1.327 . S
C2129 H2152 0.950 . S
C2130 C2129 1.349 . S
C2130 C2142 1.349 . S
C2131 C2129 1.327 . S
C2131 C2147 1.429 . S
C2131 H2153 0.950 . S
C2132 H2128 0.949 . S
C2132 C2140 1.574 . S
C2132 C2148 1.368 . S
H2133 C2141 0.950 . S
H2134 C2139 0.950 . S
H2135 C2140 0.949 . S
H2136 C2142 0.950 . S
H2137 C2143 0.950 . S
H2138 C2144 0.949 . S
C2139 H2134 0.950 . S
C2139 C2141 1.327 1_554 S
C2139 C2145 1.429 . S
C2140 C2132 1.574 . S
C2140 H2135 0.949 . S
C2140 C2146 1.368 . S
C2141 C2125 1.349 . S
C2141 H2133 0.950 . S
C2141 C2139 1.327 1_556 S
C2142 C2130 1.349 . S
C2142 H2136 0.950 . S
C2142 C2143 1.327 . S
C2143 H2137 0.950 . S
C2143 C2142 1.327 . S
C2143 C2147 1.429 . S
C2144 C2127 1.574 . S
C2144 H2138 0.949 . S
C2144 C2148 1.368 . S
C2145 C2126 1.429 . S
C2145 C2139 1.429 . S
C2145 C2146 1.523 . S
C2146 C2127 1.368 . S
C2146 C2140 1.368 . S
C2146 C2145 1.523 . S
C2147 C2131 1.429 . S
C2147 C2143 1.429 . S
C2147 C2148 1.523 . S
C2148 C2132 1.368 . S
C2148 C2144 1.368 . S
C2148 C2147 1.523 . S
H2149 C2124 0.950 . S
H2150 C2126 0.950 . S
H2151 C2127 0.949 . S
H2152 C2129 0.950 . S
H2153 C2131 0.950 . S
C2154 C2155 1.349 . S
C2154 C2156 1.327 . S
C2154 H2179 0.950 . S
C2155 C2154 1.349 . S
C2155 C2171 1.349 . S
C2156 C2154 1.327 . S
C2156 C2175 1.429 . S
C2156 H2180 0.950 . S
C2157 C2174 1.574 . S
C2157 C2176 1.368 . S
C2157 H2181 0.949 . S
H2158 C2162 0.949 . S
C2159 C2160 1.349 . S
C2159 C2161 1.327 1_556 S
C2159 H2182 0.950 . S
C2160 C2159 1.349 . S
C2160 C2172 1.349 1_556 S
C2161 C2159 1.327 1_554 S
C2161 C2177 1.429 . S
C2161 H2183 0.950 . S
C2162 H2158 0.949 . S
C2162 C2170 1.574 . S
C2162 C2178 1.368 . S
H2163 C2171 0.950 . S
H2164 C2169 0.950 . S
H2165 C2170 0.949 . S
H2166 C2172 0.950 . S
H2167 C2173 0.950 . S
H2168 C2174 0.949 . S
C2169 H2164 0.950 . S
C2169 C2171 1.327 . S
C2169 C2175 1.429 . S
C2170 C2162 1.574 . S
C2170 H2165 0.949 . S
C2170 C2176 1.368 . S
C2171 C2155 1.349 . S
C2171 H2163 0.950 . S
C2171 C2169 1.327 . S
C2172 C2160 1.349 1_554 S
C2172 H2166 0.950 . S
C2172 C2173 1.327 . S
C2173 H2167 0.950 . S
C2173 C2172 1.327 . S
C2173 C2177 1.429 . S
C2174 C2157 1.574 . S
C2174 H2168 0.949 . S
C2174 C2178 1.368 . S
C2175 C2156 1.429 . S
C2175 C2169 1.429 . S
C2175 C2176 1.523 . S
C2176 C2157 1.368 . S
C2176 C2170 1.368 . S
C2176 C2175 1.523 . S
C2177 C2161 1.429 . S
C2177 C2173 1.429 . S
C2177 C2178 1.523 . S
C2178 C2162 1.368 . S
C2178 C2174 1.368 . S
C2178 C2177 1.523 . S
H2179 C2154 0.950 . S
H2180 C2156 0.950 . S
H2181 C2157 0.949 . S
H2182 C2159 0.950 . S
H2183 C2161 0.950 . S
C2184 C2185 1.349 1_554 S
C2184 C2186 1.327 . S
C2184 H2209 0.950 1_554 S
C2185 C2184 1.349 1_556 S
C2185 C2201 1.349 . S
C2186 C2184 1.327 . S
C2186 C2205 1.429 . S
C2186 H2210 0.950 . S
C2187 C2204 1.574 . S
C2187 C2206 1.368 . S
C2187 H2211 0.949 . S
H2188 C2192 0.949 . S
C2189 C2190 1.349 . S
C2189 C2191 1.327 . S
C2189 H2212 0.950 . S
C2190 C2189 1.349 . S
C2190 C2202 1.349 . S
C2191 C2189 1.327 . S
C2191 C2207 1.429 . S
C2191 H2213 0.950 . S
C2192 H2188 0.949 . S
C2192 C2200 1.574 . S
C2192 C2208 1.368 . S
H2193 C2201 0.950 . S
H2194 C2199 0.950 . S
H2195 C2200 0.949 . S
H2196 C2202 0.950 . S
H2197 C2203 0.950 . S
H2198 C2204 0.949 . S
C2199 H2194 0.950 . S
C2199 C2201 1.327 1_554 S
C2199 C2205 1.429 . S
C2200 C2192 1.574 . S
C2200 H2195 0.949 . S
C2200 C2206 1.368 . S
C2201 C2185 1.349 . S
C2201 H2193 0.950 . S
C2201 C2199 1.327 1_556 S
C2202 C2190 1.349 . S
C2202 H2196 0.950 . S
C2202 C2203 1.327 . S
C2203 H2197 0.950 . S
C2203 C2202 1.327 . S
C2203 C2207 1.429 . S
C2204 C2187 1.574 . S
C2204 H2198 0.949 . S
C2204 C2208 1.368 . S
C2205 C2186 1.429 . S
C2205 C2199 1.429 . S
C2205 C2206 1.523 . S
C2206 C2187 1.368 . S
C2206 C2200 1.368 . S
C2206 C2205 1.523 . S
C2207 C2191 1.429 . S
C2207 C2203 1.429 . S
C2207 C2208 1.523 . S
C2208 C2192 1.368 . S
C2208 C2204 1.368 . S
C2208 C2207 1.523 . S
H2209 C2184 0.950 1_556 S
H2210 C2186 0.950 . S
H2211 C2187 0.949 . S
H2212 C2189 0.950 . S
H2213 C2191 0.950 . S
C2214 C2215 1.349 . S
C2214 C2216 1.327 . S
C2214 H2239 0.950 . S
C2215 C2214 1.349 . S
C2215 C2231 1.349 . S
C2216 C2214 1.327 . S
C2216 C2235 1.429 . S
C2216 H2240 0.950 . S
C2217 C2234 1.574 . S
C2217 C2236 1.368 . S
C2217 H2241 0.949 . S
H2218 C2222 0.949 . S
C2219 C2220 1.349 . S
C2219 C2221 1.327 . S
C2219 H2242 0.950 . S
C2220 C2219 1.349 . S
C2220 C2232 1.349 . S
C2221 C2219 1.327 . S
C2221 C2237 1.429 . S
C2221 H2243 0.950 . S
C2222 H2218 0.949 . S
C2222 C2230 1.574 . S
C2222 C2238 1.368 . S
H2223 C2231 0.950 . S
H2224 C2229 0.950 . S
H2225 C2230 0.949 . S
H2226 C2232 0.950 . S
H2227 C2233 0.950 . S
H2228 C2234 0.949 . S
C2229 H2224 0.950 . S
C2229 C2231 1.327 . S
C2229 C2235 1.429 . S
C2230 C2222 1.574 . S
C2230 H2225 0.949 . S
C2230 C2236 1.368 . S
C2231 C2215 1.349 . S
C2231 H2223 0.950 . S
C2231 C2229 1.327 . S
C2232 C2220 1.349 . S
C2232 H2226 0.950 . S
C2232 C2233 1.327 . S
C2233 H2227 0.950 . S
C2233 C2232 1.327 . S
C2233 C2237 1.429 . S
C2234 C2217 1.574 . S
C2234 H2228 0.949 . S
C2234 C2238 1.368 . S
C2235 C2216 1.429 . S
C2235 C2229 1.429 . S
C2235 C2236 1.523 . S
C2236 C2217 1.368 . S
C2236 C2230 1.368 . S
C2236 C2235 1.523 . S
C2237 C2221 1.429 . S
C2237 C2233 1.429 . S
C2237 C2238 1.523 . S
C2238 C2222 1.368 . S
C2238 C2234 1.368 . S
C2238 C2237 1.523 . S
H2239 C2214 0.950 . S
H2240 C2216 0.950 . S
H2241 C2217 0.949 . S
H2242 C2219 0.950 . S
H2243 C2221 0.950 . S
C2244 C2245 1.349 . S
C2244 C2246 1.327 . S
C2244 H2269 0.950 . S
C2245 C2244 1.349 . S
C2245 C2261 1.349 . S
C2246 C2244 1.327 . S
C2246 C2265 1.429 . S
C2246 H2270 0.950 . S
C2247 C2264 1.574 . S
C2247 C2266 1.368 . S
C2247 H2271 0.949 . S
H2248 C2252 0.949 . S
C2249 C2250 1.349 . S
C2249 C2251 1.327 . S
C2249 H2272 0.950 . S
C2250 C2249 1.349 . S
C2250 C2262 1.349 . S
C2251 C2249 1.327 . S
C2251 C2267 1.429 . S
C2251 H2273 0.950 . S
C2252 H2248 0.949 . S
C2252 C2260 1.574 . S
C2252 C2268 1.368 . S
H2253 C2261 0.950 . S
H2254 C2259 0.950 . S
H2255 C2260 0.949 . S
H2256 C2262 0.950 . S
H2257 C2263 0.950 . S
H2258 C2264 0.949 . S
C2259 H2254 0.950 . S
C2259 C2261 1.327 . S
C2259 C2265 1.429 . S
C2260 C2252 1.574 . S
C2260 H2255 0.949 . S
C2260 C2266 1.368 . S
C2261 C2245 1.349 . S
C2261 H2253 0.950 . S
C2261 C2259 1.327 . S
C2262 C2250 1.349 . S
C2262 H2256 0.950 . S
C2262 C2263 1.327 . S
C2263 H2257 0.950 . S
C2263 C2262 1.327 . S
C2263 C2267 1.429 . S
C2264 C2247 1.574 . S
C2264 H2258 0.949 . S
C2264 C2268 1.368 . S
C2265 C2246 1.429 . S
C2265 C2259 1.429 . S
C2265 C2266 1.523 . S
C2266 C2247 1.368 . S
C2266 C2260 1.368 . S
C2266 C2265 1.523 . S
C2267 C2251 1.429 . S
C2267 C2263 1.429 . S
C2267 C2268 1.523 . S
C2268 C2252 1.368 . S
C2268 C2264 1.368 . S
C2268 C2267 1.523 . S
H2269 C2244 0.950 . S
H2270 C2246 0.950 . S
H2271 C2247 0.949 . S
H2272 C2249 0.950 . S
H2273 C2251 0.950 . S
C2274 C2275 1.349 . S
C2274 C2276 1.327 . S
C2274 H2299 0.950 . S
C2275 C2274 1.349 . S
C2275 C2291 1.349 . S
C2276 C2274 1.327 . S
C2276 C2295 1.429 . S
C2276 H2300 0.950 . S
C2277 C2294 1.574 . S
C2277 C2296 1.368 . S
C2277 H2301 0.949 . S
H2278 C2282 0.949 . S
C2279 C2280 1.349 . S
C2279 C2281 1.327 . S
C2279 H2302 0.950 . S
C2280 C2279 1.349 . S
C2280 C2292 1.349 . S
C2281 C2279 1.327 . S
C2281 C2297 1.429 . S
C2281 H2303 0.950 . S
C2282 H2278 0.949 . S
C2282 C2290 1.574 . S
C2282 C2298 1.368 . S
H2283 C2291 0.950 . S
H2284 C2289 0.950 . S
H2285 C2290 0.949 . S
H2286 C2292 0.950 . S
H2287 C2293 0.950 . S
H2288 C2294 0.949 . S
C2289 H2284 0.950 . S
C2289 C2291 1.327 . S
C2289 C2295 1.429 . S
C2290 C2282 1.574 . S
C2290 H2285 0.949 . S
C2290 C2296 1.368 . S
C2291 C2275 1.349 . S
C2291 H2283 0.950 . S
C2291 C2289 1.327 . S
C2292 C2280 1.349 . S
C2292 H2286 0.950 . S
C2292 C2293 1.327 . S
C2293 H2287 0.950 . S
C2293 C2292 1.327 . S
C2293 C2297 1.429 . S
C2294 C2277 1.574 . S
C2294 H2288 0.949 . S
C2294 C2298 1.368 . S
C2295 C2276 1.429 . S
C2295 C2289 1.429 . S
C2295 C2296 1.523 . S
C2296 C2277 1.368 . S
C2296 C2290 1.368 . S
C2296 C2295 1.523 . S
C2297 C2281 1.429 . S
C2297 C2293 1.429 . S
C2297 C2298 1.523 . S
C2298 C2282 1.368 . S
C2298 C2294 1.368 . S
C2298 C2297 1.523 . S
H2299 C2274 0.950 . S
H2300 C2276 0.950 . S
H2301 C2277 0.949 . S
H2302 C2279 0.950 . S
H2303 C2281 0.950 . S
C2304 C2305 1.349 . S
C2304 C2306 1.327 . S
C2304 H2329 0.950 . S
C2305 C2304 1.349 . S
C2305 C2321 1.349 . S
C2306 C2304 1.327 . S
C2306 C2325 1.429 . S
C2306 H2330 0.950 . S
C2307 C2324 1.574 . S
C2307 C2326 1.368 . S
C2307 H2331 0.949 . S
H2308 C2312 0.949 . S
C2309 C2310 1.349 . S
C2309 C2311 1.327 1_554 S
C2309 H2332 0.950 . S
C2310 C2309 1.349 . S
C2310 C2322 1.349 1_554 S
C2311 C2309 1.327 1_556 S
C2311 C2327 1.429 . S
C2311 H2333 0.950 . S
C2312 H2308 0.949 . S
C2312 C2320 1.574 . S
C2312 C2328 1.368 . S
H2313 C2321 0.950 . S
H2314 C2319 0.950 . S
H2315 C2320 0.949 . S
H2316 C2322 0.950 . S
H2317 C2323 0.950 . S
H2318 C2324 0.949 . S
C2319 H2314 0.950 . S
C2319 C2321 1.327 . S
C2319 C2325 1.429 . S
C2320 C2312 1.574 . S
C2320 H2315 0.949 . S
C2320 C2326 1.368 . S
C2321 C2305 1.349 . S
C2321 H2313 0.950 . S
C2321 C2319 1.327 . S
C2322 C2310 1.349 1_556 S
C2322 H2316 0.950 . S
C2322 C2323 1.327 . S
C2323 H2317 0.950 . S
C2323 C2322 1.327 . S
C2323 C2327 1.429 . S
C2324 C2307 1.574 . S
C2324 H2318 0.949 . S
C2324 C2328 1.368 . S
C2325 C2306 1.429 . S
C2325 C2319 1.429 . S
C2325 C2326 1.523 . S
C2326 C2307 1.368 . S
C2326 C2320 1.368 . S
C2326 C2325 1.523 . S
C2327 C2311 1.429 . S
C2327 C2323 1.429 . S
C2327 C2328 1.523 . S
C2328 C2312 1.368 . S
C2328 C2324 1.368 . S
C2328 C2327 1.523 . S
H2329 C2304 0.950 . S
H2330 C2306 0.950 . S
H2331 C2307 0.949 . S
H2332 C2309 0.950 . S
H2333 C2311 0.950 . S
C2334 C2335 1.349 . S
C2334 C2336 1.327 1_554 S
C2334 H2359 0.950 . S
C2335 C2334 1.349 . S
C2335 C2351 1.349 1_554 S
C2336 C2334 1.327 1_556 S
C2336 C2355 1.429 . S
C2336 H2360 0.950 . S
C2337 C2354 1.574 . S
C2337 C2356 1.368 . S
C2337 H2361 0.949 . S
H2338 C2342 0.949 . S
C2339 C2340 1.349 . S
C2339 C2341 1.327 . S
C2339 H2362 0.950 . S
C2340 C2339 1.349 . S
C2340 C2352 1.349 . S
C2341 C2339 1.327 . S
C2341 C2357 1.429 . S
C2341 H2363 0.950 . S
C2342 H2338 0.949 . S
C2342 C2350 1.574 . S
C2342 C2358 1.368 . S
H2343 C2351 0.950 . S
H2344 C2349 0.950 . S
H2345 C2350 0.949 . S
H2346 C2352 0.950 . S
H2347 C2353 0.950 . S
H2348 C2354 0.949 . S
C2349 H2344 0.950 . S
C2349 C2351 1.327 . S
C2349 C2355 1.429 . S
C2350 C2342 1.574 . S
C2350 H2345 0.949 . S
C2350 C2356 1.368 . S
C2351 C2335 1.349 1_556 S
C2351 H2343 0.950 . S
C2351 C2349 1.327 . S
C2352 C2340 1.349 . S
C2352 H2346 0.950 . S
C2352 C2353 1.327 . S
C2353 H2347 0.950 . S
C2353 C2352 1.327 . S
C2353 C2357 1.429 . S
C2354 C2337 1.574 . S
C2354 H2348 0.949 . S
C2354 C2358 1.368 . S
C2355 C2336 1.429 . S
C2355 C2349 1.429 . S
C2355 C2356 1.523 . S
C2356 C2337 1.368 . S
C2356 C2350 1.368 . S
C2356 C2355 1.523 . S
C2357 C2341 1.429 . S
C2357 C2353 1.429 . S
C2357 C2358 1.523 . S
C2358 C2342 1.368 . S
C2358 C2354 1.368 . S
C2358 C2357 1.523 . S
H2359 C2334 0.950 . S
H2360 C2336 0.950 . S
H2361 C2337 0.949 . S
H2362 C2339 0.950 . S
H2363 C2341 0.950 . S
C2364 C2365 1.349 . S
C2364 C2366 1.327 . S
C2364 H2389 0.950 . S
C2365 C2364 1.349 . S
C2365 C2381 1.349 . S
C2366 C2364 1.327 . S
C2366 C2385 1.429 . S
C2366 H2390 0.950 . S
C2367 C2384 1.574 . S
C2367 C2386 1.368 . S
C2367 H2391 0.949 . S
H2368 C2372 0.949 . S
C2369 C2370 1.349 . S
C2369 C2371 1.327 1_554 S
C2369 H2392 0.950 . S
C2370 C2369 1.349 . S
C2370 C2382 1.333 1_554 S
C2371 C2369 1.327 1_556 S
C2371 C2387 1.429 . S
C2371 H2393 0.950 . S
C2372 H2368 0.949 . S
C2372 C2380 1.574 . S
C2372 C2388 1.368 . S
H2373 C2381 0.950 . S
H2374 C2379 0.950 . S
H2375 C2380 0.949 . S
H2376 C2382 0.937 1_554 S
H2377 C2383 0.950 . S
H2378 C2384 0.949 . S
C2379 H2374 0.950 . S
C2379 C2381 1.327 . S
C2379 C2385 1.429 . S
C2380 C2372 1.574 . S
C2380 H2375 0.949 . S
C2380 C2386 1.368 . S
C2381 C2365 1.349 . S
C2381 H2373 0.950 . S
C2381 C2379 1.327 . S
C2382 C2370 1.333 1_556 S
C2382 H2376 0.937 1_556 S
C2382 C2383 1.356 . S
C2383 H2377 0.950 . S
C2383 C2382 1.356 . S
C2383 C2387 1.429 . S
C2384 C2367 1.574 . S
C2384 H2378 0.949 . S
C2384 C2388 1.368 . S
C2385 C2366 1.429 . S
C2385 C2379 1.429 . S
C2385 C2386 1.523 . S
C2386 C2367 1.368 . S
C2386 C2380 1.368 . S
C2386 C2385 1.523 . S
C2387 C2371 1.429 . S
C2387 C2383 1.429 . S
C2387 C2388 1.523 . S
C2388 C2372 1.368 . S
C2388 C2384 1.368 . S
C2388 C2387 1.523 . S
H2389 C2364 0.950 . S
H2390 C2366 0.950 . S
H2391 C2367 0.949 . S
H2392 C2369 0.950 . S
H2393 C2371 0.950 . S
C2394 C2395 1.349 . S
C2394 C2396 1.327 . S
C2394 H2419 0.950 . S
C2395 C2394 1.349 . S
C2395 C2411 1.349 . S
C2396 C2394 1.327 . S
C2396 C2415 1.429 . S
C2396 H2420 0.950 . S
C2397 C2414 1.574 . S
C2397 C2416 1.368 . S
C2397 H2421 0.949 . S
H2398 C2402 0.949 . S
C2399 C2400 1.349 . S
C2399 C2401 1.327 . S
C2399 H2422 0.950 . S
C2400 C2399 1.349 . S
C2400 C2412 1.349 . S
C2401 C2399 1.327 . S
C2401 C2417 1.429 . S
C2401 H2423 0.950 . S
C2402 H2398 0.949 . S
C2402 C2410 1.574 . S
C2402 C2418 1.368 . S
H2403 C2411 0.950 . S
H2404 C2409 0.950 . S
H2405 C2410 0.949 . S
H2406 C2412 0.950 . S
H2407 C2413 0.950 . S
H2408 C2414 0.949 . S
C2409 H2404 0.950 . S
C2409 C2411 1.327 . S
C2409 C2415 1.429 . S
C2410 C2402 1.574 . S
C2410 H2405 0.949 . S
C2410 C2416 1.368 . S
C2411 C2395 1.349 . S
C2411 H2403 0.950 . S
C2411 C2409 1.327 . S
C2412 C2400 1.349 . S
C2412 H2406 0.950 . S
C2412 C2413 1.327 . S
C2413 H2407 0.950 . S
C2413 C2412 1.327 . S
C2413 C2417 1.429 . S
C2414 C2397 1.574 . S
C2414 H2408 0.949 . S
C2414 C2418 1.368 . S
C2415 C2396 1.429 . S
C2415 C2409 1.429 . S
C2415 C2416 1.523 . S
C2416 C2397 1.368 . S
C2416 C2410 1.368 . S
C2416 C2415 1.523 . S
C2417 C2401 1.429 . S
C2417 C2413 1.429 . S
C2417 C2418 1.523 . S
C2418 C2402 1.368 . S
C2418 C2414 1.368 . S
C2418 C2417 1.523 . S
H2419 C2394 0.950 . S
H2420 C2396 0.950 . S
H2421 C2397 0.949 . S
H2422 C2399 0.950 . S
H2423 C2401 0.950 . S
C2424 C2425 1.349 . S
C2424 C2426 1.327 . S
C2424 H2449 0.950 . S
C2425 C2424 1.349 . S
C2425 C2441 1.349 . S
C2426 C2424 1.327 . S
C2426 C2445 1.429 . S
C2426 H2450 0.950 . S
C2427 C2444 1.574 . S
C2427 C2446 1.368 . S
C2427 H2451 0.949 . S
H2428 C2432 0.949 . S
C2429 C2430 1.349 . S
C2429 C2431 1.327 . S
C2429 H2452 0.950 . S
C2430 C2429 1.349 . S
C2430 C2442 1.349 . S
C2431 C2429 1.327 . S
C2431 C2447 1.429 . S
C2431 H2453 0.950 . S
C2432 H2428 0.949 . S
C2432 C2440 1.574 . S
C2432 C2448 1.368 . S
H2433 C2441 0.950 . S
H2434 C2439 0.950 . S
H2435 C2440 0.949 . S
H2436 C2442 0.950 . S
H2437 C2443 0.950 . S
H2438 C2444 0.949 . S
C2439 H2434 0.950 . S
C2439 C2441 1.327 . S
C2439 C2445 1.429 . S
C2440 C2432 1.574 . S
C2440 H2435 0.949 . S
C2440 C2446 1.368 . S
C2441 C2425 1.349 . S
C2441 H2433 0.950 . S
C2441 C2439 1.327 . S
C2442 C2430 1.349 . S
C2442 H2436 0.950 . S
C2442 C2443 1.327 . S
C2443 H2437 0.950 . S
C2443 C2442 1.327 . S
C2443 C2447 1.429 . S
C2444 C2427 1.574 . S
C2444 H2438 0.949 . S
C2444 C2448 1.368 . S
C2445 C2426 1.429 . S
C2445 C2439 1.429 . S
C2445 C2446 1.523 . S
C2446 C2427 1.368 . S
C2446 C2440 1.368 . S
C2446 C2445 1.523 . S
C2447 C2431 1.429 . S
C2447 C2443 1.429 . S
C2447 C2448 1.523 . S
C2448 C2432 1.368 . S
C2448 C2444 1.368 . S
C2448 C2447 1.523 . S
H2449 C2424 0.950 . S
H2450 C2426 0.950 . S
H2451 C2427 0.949 . S
H2452 C2429 0.950 . S
H2453 C2431 0.950 . S
C2454 C2455 1.349 . S
C2454 C2456 1.327 . S
C2454 H2479 0.950 . S
C2455 C2454 1.349 . S
C2455 C2471 1.349 . S
C2456 C2454 1.327 . S
C2456 C2475 1.429 . S
C2456 H2480 0.950 . S
C2457 C2474 1.574 . S
C2457 C2476 1.368 . S
C2457 H2481 0.949 . S
H2458 C2462 0.949 . S
C2459 C2460 1.349 . S
C2459 C2461 1.327 . S
C2459 H2482 0.950 . S
C2460 C2459 1.349 . S
C2460 C2472 1.349 . S
C2461 C2459 1.327 . S
C2461 C2477 1.429 . S
C2461 H2483 0.950 . S
C2462 H2458 0.949 . S
C2462 C2470 1.574 . S
C2462 C2478 1.368 . S
H2463 C2471 0.950 . S
H2464 C2469 0.950 . S
H2465 C2470 0.949 . S
H2466 C2472 0.950 . S
H2467 C2473 0.950 . S
H2468 C2474 0.949 . S
C2469 H2464 0.950 . S
C2469 C2471 1.327 . S
C2469 C2475 1.429 . S
C2470 C2462 1.574 . S
C2470 H2465 0.949 . S
C2470 C2476 1.368 . S
C2471 C2455 1.349 . S
C2471 H2463 0.950 . S
C2471 C2469 1.327 . S
C2472 C2460 1.349 . S
C2472 H2466 0.950 . S
C2472 C2473 1.327 . S
C2473 H2467 0.950 . S
C2473 C2472 1.327 . S
C2473 C2477 1.429 . S
C2474 C2457 1.574 . S
C2474 H2468 0.949 . S
C2474 C2478 1.368 . S
C2475 C2456 1.429 . S
C2475 C2469 1.429 . S
C2475 C2476 1.523 . S
C2476 C2457 1.368 . S
C2476 C2470 1.368 . S
C2476 C2475 1.523 . S
C2477 C2461 1.429 . S
C2477 C2473 1.429 . S
C2477 C2478 1.523 . S
C2478 C2462 1.368 . S
C2478 C2474 1.368 . S
C2478 C2477 1.523 . S
H2479 C2454 0.950 . S
H2480 C2456 0.950 . S
H2481 C2457 0.949 . S
H2482 C2459 0.950 . S
H2483 C2461 0.950 . S
C2484 C2485 1.349 . S
C2484 C2486 1.327 . S
C2484 H2509 0.950 . S
C2485 C2484 1.349 . S
C2485 C2501 1.349 . S
C2486 C2484 1.327 . S
C2486 C2505 1.429 . S
C2486 H2510 0.950 . S
C2487 C2504 1.574 . S
C2487 C2506 1.368 . S
C2487 H2511 0.949 . S
H2488 C2492 0.949 . S
C2489 C2490 1.349 . S
C2489 C2491 1.327 . S
C2489 H2512 0.950 . S
C2490 C2489 1.349 . S
C2490 C2502 1.349 . S
C2491 C2489 1.327 . S
C2491 C2507 1.429 . S
C2491 H2513 0.950 . S
C2492 H2488 0.949 . S
C2492 C2500 1.574 . S
C2492 C2508 1.368 . S
H2493 C2501 0.950 . S
H2494 C2499 0.950 . S
H2495 C2500 0.949 . S
H2496 C2502 0.950 . S
H2497 C2503 0.950 . S
H2498 C2504 0.949 . S
C2499 H2494 0.950 . S
C2499 C2501 1.327 . S
C2499 C2505 1.429 . S
C2500 C2492 1.574 . S
C2500 H2495 0.949 . S
C2500 C2506 1.368 . S
C2501 C2485 1.349 . S
C2501 H2493 0.950 . S
C2501 C2499 1.327 . S
C2502 C2490 1.349 . S
C2502 H2496 0.950 . S
C2502 C2503 1.327 . S
C2503 H2497 0.950 . S
C2503 C2502 1.327 . S
C2503 C2507 1.429 . S
C2504 C2487 1.574 . S
C2504 H2498 0.949 . S
C2504 C2508 1.368 . S
C2505 C2486 1.429 . S
C2505 C2499 1.429 . S
C2505 C2506 1.523 . S
C2506 C2487 1.368 . S
C2506 C2500 1.368 . S
C2506 C2505 1.523 . S
C2507 C2491 1.429 . S
C2507 C2503 1.429 . S
C2507 C2508 1.523 . S
C2508 C2492 1.368 . S
C2508 C2504 1.368 . S
C2508 C2507 1.523 . S
H2509 C2484 0.950 . S
H2510 C2486 0.950 . S
H2511 C2487 0.949 . S
H2512 C2489 0.950 . S
H2513 C2491 0.950 . S
C2514 C2515 1.349 . S
C2514 C2516 1.327 . S
C2514 H2539 0.950 . S
C2515 C2514 1.349 . S
C2515 C2531 1.349 . S
C2516 C2514 1.327 . S
C2516 C2535 1.429 . S
C2516 H2540 0.950 . S
C2517 C2534 1.574 . S
C2517 C2536 1.368 . S
C2517 H2541 0.949 . S
H2518 C2522 0.949 . S
C2519 C2520 1.349 . S
C2519 C2521 1.327 . S
C2519 H2542 0.950 . S
C2520 C2519 1.349 . S
C2520 C2532 1.349 . S
C2521 C2519 1.327 . S
C2521 C2537 1.429 . S
C2521 H2543 0.950 . S
C2522 H2518 0.949 . S
C2522 C2530 1.574 . S
C2522 C2538 1.368 . S
H2523 C2531 0.950 . S
H2524 C2529 0.950 . S
H2525 C2530 0.949 . S
H2526 C2532 0.950 . S
H2527 C2533 0.950 . S
H2528 C2534 0.949 . S
C2529 H2524 0.950 . S
C2529 C2531 1.327 . S
C2529 C2535 1.429 . S
C2530 C2522 1.574 . S
C2530 H2525 0.949 . S
C2530 C2536 1.368 1_565 S
C2531 C2515 1.349 . S
C2531 H2523 0.950 . S
C2531 C2529 1.327 . S
C2532 C2520 1.349 . S
C2532 H2526 0.950 . S
C2532 C2533 1.327 . S
C2533 H2527 0.950 . S
C2533 C2532 1.327 . S
C2533 C2537 1.429 . S
C2534 C2517 1.574 . S
C2534 H2528 0.949 . S
C2534 C2538 1.368 1_545 S
C2535 C2516 1.429 . S
C2535 C2529 1.429 . S
C2535 C2536 1.523 . S
C2536 C2517 1.368 . S
C2536 C2530 1.368 1_545 S
C2536 C2535 1.523 . S
C2537 C2521 1.429 . S
C2537 C2533 1.429 . S
C2537 C2538 1.523 . S
C2538 C2522 1.368 . S
C2538 C2534 1.368 1_565 S
C2538 C2537 1.523 . S
H2539 C2514 0.950 . S
H2540 C2516 0.950 . S
H2541 C2517 0.949 . S
H2542 C2519 0.950 . S
H2543 C2521 0.950 . S
C2544 C2545 1.349 . S
C2544 C2546 1.327 . S
C2544 H2569 0.950 . S
C2545 C2544 1.349 . S
C2545 C2561 1.349 . S
C2546 C2544 1.327 . S
C2546 C2565 1.429 . S
C2546 H2570 0.950 . S
C2547 C2564 1.570 . S
C2547 C2566 1.375 1_455 S
C2547 H2571 0.948 1_455 S
H2548 C2552 0.948 1_455 S
C2549 C2550 1.349 . S
C2549 C2551 1.327 . S
C2549 H2572 0.950 . S
C2550 C2549 1.349 . S
C2550 C2562 1.349 . S
C2551 C2549 1.327 . S
C2551 C2567 1.429 . S
C2551 H2573 0.950 . S
C2552 H2548 0.948 1_655 S
C2552 C2560 1.570 . S
C2552 C2568 1.375 1_655 S
H2553 C2561 0.950 . S
H2554 C2559 0.950 . S
H2555 C2560 0.949 . S
H2556 C2562 0.950 . S
H2557 C2563 0.950 . S
H2558 C2564 0.949 . S
C2559 H2554 0.950 . S
C2559 C2561 1.327 . S
C2559 C2565 1.429 . S
C2560 C2552 1.570 . S
C2560 H2555 0.949 . S
C2560 C2566 1.368 . S
C2561 C2545 1.349 . S
C2561 H2553 0.950 . S
C2561 C2559 1.327 . S
C2562 C2550 1.349 . S
C2562 H2556 0.950 . S
C2562 C2563 1.327 . S
C2563 H2557 0.950 . S
C2563 C2562 1.327 . S
C2563 C2567 1.429 . S
C2564 C2547 1.570 . S
C2564 H2558 0.949 . S
C2564 C2568 1.368 . S
C2565 C2546 1.429 . S
C2565 C2559 1.429 . S
C2565 C2566 1.523 . S
C2566 C2547 1.375 1_655 S
C2566 C2560 1.368 . S
C2566 C2565 1.523 . S
C2567 C2551 1.429 . S
C2567 C2563 1.429 . S
C2567 C2568 1.523 . S
C2568 C2552 1.375 1_455 S
C2568 C2564 1.368 . S
C2568 C2567 1.523 . S
H2569 C2544 0.950 . S
H2570 C2546 0.950 . S
H2571 C2547 0.948 1_655 S
H2572 C2549 0.950 . S
H2573 C2551 0.950 . S
C2574 C2575 1.349 . S
C2574 C2576 1.327 . S
C2574 H2599 0.950 . S
C2575 C2574 1.349 . S
C2575 C2591 1.349 . S
C2576 C2574 1.327 . S
C2576 C2595 1.429 . S
C2576 H2600 0.950 . S
C2577 C2594 1.574 . S
C2577 C2596 1.368 . S
C2577 H2601 0.949 . S
H2578 C2582 0.949 . S
C2579 C2580 1.349 . S
C2579 C2581 1.327 . S
C2579 H2602 0.950 . S
C2580 C2579 1.349 . S
C2580 C2592 1.349 . S
C2581 C2579 1.327 . S
C2581 C2597 1.429 . S
C2581 H2603 0.950 . S
C2582 H2578 0.949 . S
C2582 C2590 1.574 . S
C2582 C2598 1.368 . S
H2583 C2591 0.950 . S
H2584 C2589 0.950 . S
H2585 C2590 0.949 . S
H2586 C2592 0.950 . S
H2587 C2593 0.950 . S
H2588 C2594 0.949 . S
C2589 H2584 0.950 . S
C2589 C2591 1.327 . S
C2589 C2595 1.429 . S
C2590 C2582 1.574 . S
C2590 H2585 0.949 . S
C2590 C2596 1.368 . S
C2591 C2575 1.349 . S
C2591 H2583 0.950 . S
C2591 C2589 1.327 . S
C2592 C2580 1.349 . S
C2592 H2586 0.950 . S
C2592 C2593 1.327 . S
C2593 H2587 0.950 . S
C2593 C2592 1.327 . S
C2593 C2597 1.429 . S
C2594 C2577 1.574 . S
C2594 H2588 0.949 . S
C2594 C2598 1.368 . S
C2595 C2576 1.429 . S
C2595 C2589 1.429 . S
C2595 C2596 1.523 . S
C2596 C2577 1.368 . S
C2596 C2590 1.368 . S
C2596 C2595 1.523 . S
C2597 C2581 1.429 . S
C2597 C2593 1.429 . S
C2597 C2598 1.523 . S
C2598 C2582 1.368 . S
C2598 C2594 1.368 . S
C2598 C2597 1.523 . S
H2599 C2574 0.950 . S
H2600 C2576 0.950 . S
H2601 C2577 0.949 . S
H2602 C2579 0.950 . S
H2603 C2581 0.950 . S
C2604 C2605 1.349 . S
C2604 C2606 1.327 . S
C2604 H2629 0.950 . S
C2605 C2604 1.349 . S
C2605 C2621 1.349 . S
C2606 C2604 1.327 . S
C2606 C2625 1.429 . S
C2606 H2630 0.950 . S
C2607 C2624 1.574 . S
C2607 C2626 1.368 1_565 S
C2607 H2631 0.949 . S
H2608 C2612 0.949 . S
C2609 C2610 1.349 . S
C2609 C2611 1.327 . S
C2609 H2632 0.950 . S
C2610 C2609 1.349 . S
C2610 C2622 1.349 . S
C2611 C2609 1.327 . S
C2611 C2627 1.429 . S
C2611 H2633 0.950 . S
C2612 H2608 0.949 . S
C2612 C2620 1.574 . S
C2612 C2628 1.368 1_545 S
H2613 C2621 0.950 . S
H2614 C2619 0.950 . S
H2615 C2620 0.949 . S
H2616 C2622 0.950 . S
H2617 C2623 0.950 . S
H2618 C2624 0.949 . S
C2619 H2614 0.950 . S
C2619 C2621 1.327 . S
C2619 C2625 1.429 . S
C2620 C2612 1.574 . S
C2620 H2615 0.949 . S
C2620 C2626 1.368 . S
C2621 C2605 1.349 . S
C2621 H2613 0.950 . S
C2621 C2619 1.327 . S
C2622 C2610 1.349 . S
C2622 H2616 0.950 . S
C2622 C2623 1.327 . S
C2623 H2617 0.950 . S
C2623 C2622 1.327 . S
C2623 C2627 1.429 . S
C2624 C2607 1.574 . S
C2624 H2618 0.949 . S
C2624 C2628 1.368 . S
C2625 C2606 1.429 . S
C2625 C2619 1.429 . S
C2625 C2626 1.523 . S
C2626 C2607 1.368 1_545 S
C2626 C2620 1.368 . S
C2626 C2625 1.523 . S
C2627 C2611 1.429 . S
C2627 C2623 1.429 . S
C2627 C2628 1.523 . S
C2628 C2612 1.368 1_565 S
C2628 C2624 1.368 . S
C2628 C2627 1.523 . S
H2629 C2604 0.950 . S
H2630 C2606 0.950 . S
H2631 C2607 0.949 . S
H2632 C2609 0.950 . S
H2633 C2611 0.950 . S
C2634 C2635 1.349 . S
C2634 C2636 1.327 . S
C2634 H2659 0.950 . S
C2635 C2634 1.349 . S
C2635 C2651 1.349 . S
C2636 C2634 1.327 . S
C2636 C2655 1.429 . S
C2636 H2660 0.950 . S
C2637 C2654 1.574 1_455 S
C2637 C2656 1.368 . S
C2637 H2661 0.949 . S
H2638 C2642 0.949 . S
C2639 C2640 1.349 . S
C2639 C2641 1.327 . S
C2639 H2662 0.950 . S
C2640 C2639 1.349 . S
C2640 C2652 1.349 . S
C2641 C2639 1.327 . S
C2641 C2657 1.429 . S
C2641 H2663 0.950 . S
C2642 H2638 0.949 . S
C2642 C2650 1.574 1_655 S
C2642 C2658 1.368 . S
H2643 C2651 0.950 . S
H2644 C2649 0.950 . S
H2645 C2650 0.949 . S
H2646 C2652 0.950 . S
H2647 C2653 0.950 . S
H2648 C2654 0.949 . S
C2649 H2644 0.950 . S
C2649 C2651 1.327 . S
C2649 C2655 1.429 . S
C2650 C2642 1.574 1_455 S
C2650 H2645 0.949 . S
C2650 C2656 1.368 . S
C2651 C2635 1.349 . S
C2651 H2643 0.950 . S
C2651 C2649 1.327 . S
C2652 C2640 1.349 . S
C2652 H2646 0.950 . S
C2652 C2653 1.327 . S
C2653 H2647 0.950 . S
C2653 C2652 1.327 . S
C2653 C2657 1.429 . S
C2654 C2637 1.574 1_655 S
C2654 H2648 0.949 . S
C2654 C2658 1.368 . S
C2655 C2636 1.429 . S
C2655 C2649 1.429 . S
C2655 C2656 1.523 . S
C2656 C2637 1.368 . S
C2656 C2650 1.368 . S
C2656 C2655 1.523 . S
C2657 C2641 1.429 . S
C2657 C2653 1.429 . S
C2657 C2658 1.523 . S
C2658 C2642 1.368 . S
C2658 C2654 1.368 . S
C2658 C2657 1.523 . S
H2659 C2634 0.950 . S
H2660 C2636 0.950 . S
H2661 C2637 0.949 . S
H2662 C2639 0.950 . S
H2663 C2641 0.950 . S
C505 C79 0.624 . S
C510 C9 0.624 . S
C535 C51 0.624 . S
C540 C23 0.624 . S
C565 C37 0.624 . S
C570 C65 0.624 . S
C595 C93 0.624 . S
C600 C163 0.624 . S
C625 C107 0.624 . S
C630 C135 0.624 . S
C655 C149 0.625 . S
C660 C121 0.625 . S
C685 C177 0.624 . S
C690 C247 0.624 . S
C715 C191 0.624 . S
C720 C219 0.624 . S
C745 C233 0.625 . S
C750 C205 0.625 . S
C775 C331 0.624 . S
C780 C261 0.624 . S
C805 C303 0.624 . S
C810 C275 0.624 . S
C835 C289 0.624 . S
C840 C317 0.624 . S
C865 C415 0.624 . S
C870 C345 0.624 . S
C895 C387 0.624 . S
C900 C359 0.624 . S
C925 C373 0.624 . S
C930 C401 0.624 . S
C955 C499 0.624 . S
C960 C429 0.624 . S
C985 C471 0.624 . S
C990 C443 0.624 . S
C1015 C485 0.625 . S
C1020 C457 0.625 . S
C1045 C231 1.466 . S
C1050 C7 1.466 . S
C1075 C245 1.466 . S
C1080 C21 1.466 . S
C1105 C217 1.466 . S
C1110 C35 1.466 . S
C1135 C49 1.466 . S
C1140 C371 1.466 . S
C1165 C63 1.466 . S
C1170 C343 1.466 . S
C1195 C77 1.466 . S
C1200 C357 1.466 . S
C1225 C91 1.466 . S
C1230 C483 1.466 . S
C1255 C497 1.466 . S
C1260 C105 1.466 . S
C1285 C469 1.466 . S
C1290 C119 1.466 . S
C1315 C287 1.466 . S
C1320 C133 1.466 . S
C1345 C259 1.466 . S
C1350 C147 1.466 . S
C1375 C161 1.466 . S
C1380 C273 1.466 . S
C1405 C175 1.466 . S
C1410 C399 1.466 . S
C1435 C413 1.466 . S
C1440 C189 1.466 . S
C1465 C385 1.466 . S
C1470 C203 1.466 . S
C1495 C301 1.466 . S
C1500 C455 1.466 . S
C1525 C427 1.466 . S
C1530 C315 1.466 . S
C1555 C329 1.466 . S
C1560 C441 1.466 . S
C1585 C260 1.627 . S
C1590 C8 1.627 . S
C1615 C274 1.627 . S
C1620 C22 1.627 . S
C1645 C36 1.627 . S
C1650 C288 1.627 . S
C1675 C50 1.628 . S
C1680 C470 1.628 . S
C1705 C484 1.627 . S
C1710 C64 1.627 . S
C1735 C498 1.627 . S
C1740 C78 1.627 . S
C1765 C92 1.627 . S
C1770 C344 1.627 . S
C1795 C106 1.627 . S
C1800 C358 1.627 . S
C1825 C372 1.626 . S
C1830 C120 1.626 . S
C1855 C134 1.627 . S
C1860 C218 1.627 . S
C1885 C148 1.626 . S
C1890 C232 1.626 . S
C1915 C246 1.627 . S
C1920 C162 1.627 . S
C1945 C176 1.627 . S
C1950 C428 1.627 . S
C1975 C190 1.627 . S
C1980 C442 1.627 . S
C2005 C456 1.626 . S
C2010 C204 1.626 . S
C2035 C386 1.627 . S
C2040 C302 1.627 . S
C2065 C316 1.627 . S
C2070 C400 1.627 . S
C2095 C330 1.627 . S
C2100 C414 1.627 . S
C2125 C381 1.580 . S
C2130 C3 1.580 . S
C2155 C17 1.579 . S
C2160 C395 1.579 . S
C2185 C409 1.579 . S
C2190 C31 1.579 . S
C2215 C45 1.579 . S
C2220 C171 1.579 . S
C2245 C185 1.579 . S
C2250 C59 1.579 . S
C2275 C199 1.579 . S
C2280 C73 1.579 . S
C2305 C87 1.580 . S
C2310 C297 1.580 . S
C2335 C311 1.579 . S
C2340 C101 1.579 . S
C2365 C115 1.579 . S
C2370 C325 1.579 . S
C2395 C129 1.579 . S
C2400 C423 1.579 . S
C2425 C143 1.579 . S
C2430 C437 1.579 . S
C2455 C451 1.579 . S
C2460 C157 1.579 . S
C2485 C213 1.580 . S
C2490 C339 1.580 . S
C2515 C227 1.579 . S
C2520 C353 1.579 . S
C2545 C241 1.579 . S
C2550 C367 1.579 . S
C2575 C255 1.579 . S
C2580 C465 1.579 . S
C2605 C269 1.579 . S
C2610 C479 1.579 . S
C2635 C493 1.579 . S
C2640 C283 1.579 . S
