# Generated by pormake.
# Topology nov, (5)-cn, num edge types: 1
# Building blocks:
#     Node 0, Type 0, BuildingBlock: BEQFEK_clean_sbu_0, # of connection points: 5
#     Node 1, Type 0, BuildingBlock: BEQFEK_clean_sbu_0, # of connection points: 5
#     Node 2, Type 0, BuildingBlock: BEQFEK_clean_sbu_0, # of connection points: 5
#     Node 3, Type 0, BuildingBlock: BEQFEK_clean_sbu_0, # of connection points: 5
#     Node 4, Type 0, BuildingBlock: BEQFEK_clean_sbu_0, # of connection points: 5
#     Node 5, Type 0, BuildingBlock: BEQFEK_clean_sbu_0, # of connection points: 5
#     Node 6, Type 0, BuildingBlock: BEQFEK_clean_sbu_0, # of connection points: 5
#     Node 7, Type 0, BuildingBlock: BEQFEK_clean_sbu_0, # of connection points: 5
#     Edge 8, Type (0, 0), BuildingBlock: ZUJKAS_clean_linker_0, # of connection points: 2
#     Edge 9, Type (0, 0), BuildingBlock: ZUJKAS_clean_linker_0, # of connection points: 2
#     Edge 10, Type (0, 0), BuildingBlock: ZUJKAS_clean_linker_0, # of connection points: 2
#     Edge 11, Type (0, 0), BuildingBlock: ZUJKAS_clean_linker_0, # of connection points: 2
#     Edge 12, Type (0, 0), BuildingBlock: ZUJKAS_clean_linker_0, # of connection points: 2
#     Edge 13, Type (0, 0), BuildingBlock: ZUJKAS_clean_linker_0, # of connection points: 2
#     Edge 14, Type (0, 0), BuildingBlock: ZUJKAS_clean_linker_0, # of connection points: 2
#     Edge 15, Type (0, 0), BuildingBlock: ZUJKAS_clean_linker_0, # of connection points: 2
#     Edge 16, Type (0, 0), BuildingBlock: ZUJKAS_clean_linker_0, # of connection points: 2
#     Edge 17, Type (0, 0), BuildingBlock: ZUJKAS_clean_linker_0, # of connection points: 2
#     Edge 18, Type (0, 0), BuildingBlock: ZUJKAS_clean_linker_0, # of connection points: 2
#     Edge 19, Type (0, 0), BuildingBlock: ZUJKAS_clean_linker_0, # of connection points: 2
#     Edge 20, Type (0, 0), BuildingBlock: ZUJKAS_clean_linker_0, # of connection points: 2
#     Edge 21, Type (0, 0), BuildingBlock: ZUJKAS_clean_linker_0, # of connection points: 2
#     Edge 22, Type (0, 0), BuildingBlock: ZUJKAS_clean_linker_0, # of connection points: 2
#     Edge 23, Type (0, 0), BuildingBlock: ZUJKAS_clean_linker_0, # of connection points: 2
#     Edge 24, Type (0, 0), BuildingBlock: ZUJKAS_clean_linker_0, # of connection points: 2
#     Edge 25, Type (0, 0), BuildingBlock: ZUJKAS_clean_linker_0, # of connection points: 2
#     Edge 26, Type (0, 0), BuildingBlock: ZUJKAS_clean_linker_0, # of connection points: 2
#     Edge 27, Type (0, 0), BuildingBlock: ZUJKAS_clean_linker_0, # of connection points: 2
# Relax obj value: 0.072
# Max RMSD: 0.100
# Mean RMSD: 0.100
data_MOF--net-nov--node1-BEQFEK_clean_sbu_0--edge1-ZUJKAS_clean_linker_0
_symmetry_space_group_name_H-M    P1
_symmetry_Int_Tables_number       1
_symmetry_cell_setting            triclinic
loop_
_symmetry_equiv_pos_as_xyz
'x, y, z'
_cell_length_a     47.416115
_cell_length_b     52.39773
_cell_length_c     33.004155
_cell_angle_alpha  89.996741
_cell_angle_beta   90.054824
_cell_angle_gamma 89.983314
loop_
_atom_site_label
_atom_site_type_symbol
_atom_site_fract_x
_atom_site_fract_y
_atom_site_fract_z
_atom_type_partial_charge
Co0 Co 0.9633 0.14168 0.19378 0.0
Co1 Co 0.02984 0.139 0.18953 0.0
C2 C 0.99452 0.09868 0.15165 0.0
O3 O 0.97194 0.10993 0.16268 0.0
O4 O 0.0187 0.10757 0.16077 0.0
C5 C 0.90761 0.1218 0.20872 0.0
O6 O 0.92011 0.09973 0.20288 0.0
C7 C 0.09022 0.12402 0.2008 0.0
C8 C 0.11049 0.16165 0.19278 0.0
C9 C 0.11633 0.13622 0.20057 0.0
N10 N 0.07003 0.14162 0.19381 0.0
N11 N 0.08241 0.164 0.18899 0.0
C12 C 0.0845 0.09615 0.20621 0.0
H13 H 0.06401 0.09086 0.1925 0.0
H14 H 0.08352 0.09174 0.23906 0.0
H15 H 0.10163 0.0846 0.19247 0.0
C16 C 0.97711 0.15137 0.27996 0.0
N17 N 0.98473 0.14389 0.24245 0.0
N18 N 0.01238 0.14189 0.24089 0.0
C19 C 0.02318 0.14771 0.27748 0.0
C20 C 1.0013 0.15419 0.30342 0.0
C21 C 0.9478 0.15953 0.2907 0.0
H22 H 0.93981 0.17299 0.26741 0.0
H23 H 0.9338 0.14256 0.29055 0.0
H24 H 0.94682 0.16876 0.32089 0.0
O25 O 0.97182 0.17143 0.15845 0.0
O26 O 0.01848 0.16841 0.15579 0.0
H27 H 0.06329 0.16579 0.27032 0.0
H28 H 0.05806 0.15136 0.31951 0.0
C29 C 0.05407 0.14924 0.28654 0.0
H30 H 0.06462 0.13165 0.2758 0.0
H31 H 0.07163 0.18097 0.18316 0.0
O32 O 0.9221 0.14218 0.20648 0.0
C33 C 0.99561 0.17947 0.14582 0.0
Co34 Co 0.55355 0.8569 0.69145 0.0
Co35 Co 0.4871 0.8591 0.68663 0.0
C36 C 0.52211 0.9005 0.6513 0.0
O37 O 0.5448 0.88919 0.66176 0.0
O38 O 0.49802 0.89124 0.65989 0.0
C39 C 0.60809 0.87684 0.71293 0.0
O40 O 0.59436 0.89861 0.71412 0.0
C41 C 0.42666 0.87332 0.69876 0.0
C42 C 0.40634 0.83694 0.68154 0.0
C43 C 0.40058 0.86157 0.69412 0.0
N44 N 0.4469 0.85624 0.6894 0.0
N45 N 0.4345 0.83458 0.67921 0.0
C46 C 0.43219 0.9005 0.71009 0.0
H47 H 0.45397 0.90613 0.70182 0.0
H48 H 0.42968 0.90279 0.7433 0.0
H49 H 0.41669 0.91323 0.69499 0.0
C50 C 0.53956 0.84587 0.77726 0.0
N51 N 0.53197 0.85366 0.73987 0.0
N52 N 0.50427 0.8552 0.73802 0.0
C53 C 0.4934 0.84861 0.77421 0.0
C54 C 0.51532 0.84233 0.80028 0.0
C55 C 0.56901 0.83824 0.78829 0.0
H56 H 0.57786 0.82587 0.76416 0.0
H57 H 0.58233 0.8556 0.79022 0.0
H58 H 0.56989 0.82798 0.81764 0.0
O59 O 0.54555 0.8276 0.65482 0.0
O60 O 0.49892 0.83051 0.65168 0.0
H61 H 0.45356 0.83053 0.76424 0.0
H62 H 0.45828 0.84267 0.81517 0.0
C63 C 0.4625 0.84631 0.78262 0.0
H64 H 0.45181 0.86424 0.7738 0.0
H65 H 0.44528 0.81813 0.67044 0.0
O66 O 0.5947 0.85653 0.70419 0.0
C67 C 0.52187 0.81968 0.64157 0.0
Co68 Co 0.96215 0.85708 0.81062 0.0
Co69 Co 0.02856 0.8587 0.81709 0.0
C70 C 0.99343 0.90012 0.85234 0.0
O71 O 0.97073 0.88909 0.84121 0.0
O72 O 0.01751 0.89072 0.84403 0.0
C73 C 0.90735 0.87721 0.79016 0.0
O74 O 0.92054 0.89923 0.79177 0.0
C75 C 0.08907 0.87281 0.80584 0.0
C76 C 0.10925 0.83623 0.82235 0.0
C77 C 0.11514 0.8609 0.81003 0.0
N78 N 0.06878 0.85577 0.81506 0.0
N79 N 0.08109 0.83401 0.82496 0.0
C80 C 0.08358 0.90008 0.79491 0.0
H81 H 0.06248 0.90614 0.80566 0.0
H82 H 0.08413 0.9022 0.76149 0.0
H83 H 0.10013 0.91259 0.80801 0.0
C84 C 0.97698 0.84664 0.72495 0.0
N85 N 0.98425 0.85406 0.76265 0.0
N86 N 0.01194 0.85516 0.76523 0.0
C87 C 0.02313 0.84857 0.72924 0.0
C88 C 1.00142 0.84281 0.70251 0.0
C89 C 0.94753 0.83956 0.71303 0.0
H90 H 0.93852 0.82645 0.73603 0.0
H91 H 0.93432 0.85704 0.71249 0.0
H92 H 0.94672 0.83029 0.68285 0.0
O93 O 0.96961 0.82747 0.84684 0.0
O94 O 0.0162 0.83004 0.85146 0.0
H95 H 0.06243 0.82979 0.74047 0.0
H96 H 0.05862 0.84171 0.68925 0.0
C97 C 0.05408 0.84562 0.72163 0.0
H98 H 0.06506 0.86339 0.73044 0.0
H99 H 0.07024 0.81756 0.83351 0.0
O100 O 0.92114 0.85682 0.79689 0.0
C101 C 0.99302 0.81932 0.86075 0.0
Co102 Co 0.55432 0.1412 0.3104 0.0
Co103 Co 0.48795 0.13776 0.31056 0.0
C104 C 0.52211 0.09767 0.35028 0.0
O105 O 0.54481 0.10929 0.34073 0.0
O106 O 0.49803 0.10621 0.3397 0.0
C107 C 0.60876 0.12213 0.28735 0.0
O108 O 0.59445 0.10113 0.28026 0.0
C109 C 0.42799 0.12332 0.29636 0.0
C110 C 0.40872 0.16171 0.29374 0.0
C111 C 0.40262 0.13599 0.28983 0.0
N112 N 0.44814 0.14089 0.30334 0.0
N113 N 0.43632 0.16372 0.30231 0.0
C114 C 0.43361 0.09535 0.29243 0.0
H115 H 0.45614 0.09193 0.28512 0.0
H116 H 0.41995 0.08683 0.26868 0.0
H117 H 0.42879 0.0859 0.3217 0.0
C118 C 0.54296 0.1508 0.22325 0.0
N119 N 0.53449 0.14333 0.2604 0.0
N120 N 0.50691 0.14049 0.26025 0.0
C121 C 0.49708 0.14541 0.22277 0.0
C122 C 0.51946 0.15246 0.19816 0.0
C123 C 0.57217 0.15992 0.21401 0.0
H124 H 0.58037 0.17132 0.23978 0.0
H125 H 0.58616 0.14314 0.20998 0.0
H126 H 0.57282 0.17162 0.18602 0.0
O127 O 0.5447 0.17094 0.34499 0.0
O128 O 0.4981 0.16718 0.34498 0.0
H129 H 0.45599 0.16219 0.22422 0.0
H130 H 0.46388 0.1455 0.17779 0.0
C131 C 0.46656 0.1452 0.2112 0.0
H132 H 0.45637 0.1278 0.22335 0.0
H133 H 0.44733 0.18078 0.30627 0.0
O134 O 0.59576 0.14169 0.30046 0.0
C135 C 0.52044 0.17863 0.35621 0.0
Co136 Co 0.46465 0.63889 0.19189 0.0
Co137 Co 0.53122 0.63709 0.18799 0.0
C138 C 0.49662 0.59599 0.15071 0.0
O139 O 0.47381 0.60698 0.16148 0.0
O140 O 0.52063 0.6053 0.15975 0.0
C141 C 0.40983 0.61864 0.21147 0.0
O142 O 0.42324 0.59669 0.21067 0.0
C143 C 0.59206 0.6234 0.19908 0.0
C144 C 0.61112 0.66161 0.19199 0.0
C145 C 0.61778 0.63628 0.19919 0.0
N146 N 0.57133 0.64054 0.19245 0.0
N147 N 0.58299 0.66327 0.18818 0.0
C148 C 0.5872 0.59536 0.20385 0.0
H149 H 0.56688 0.58968 0.18999 0.0
H150 H 0.58635 0.59063 0.23659 0.0
H151 H 0.60467 0.58436 0.18984 0.0
C152 C 0.47808 0.64905 0.2781 0.0
N153 N 0.48591 0.6417 0.24062 0.0
N154 N 0.51359 0.64007 0.2392 0.0
C155 C 0.52421 0.646 0.27586 0.0
C156 C 0.50215 0.65213 0.3017 0.0
C157 C 0.4486 0.65676 0.28879 0.0
H158 H 0.44007 0.66952 0.26491 0.0
H159 H 0.43511 0.63948 0.28988 0.0
H160 H 0.44756 0.66664 0.31847 0.0
O161 O 0.47275 0.66846 0.15601 0.0
O162 O 0.51944 0.66601 0.15354 0.0
H163 H 0.56408 0.66457 0.26935 0.0
H164 H 0.55887 0.64972 0.3182 0.0
C165 C 0.55504 0.64779 0.28517 0.0
H166 H 0.56587 0.63041 0.27414 0.0
H167 H 0.57168 0.68001 0.18273 0.0
O168 O 0.42348 0.63905 0.20438 0.0
C169 C 0.49641 0.67669 0.14324 0.0
Co170 Co 0.05223 0.35932 0.69419 0.0
Co171 Co 0.98566 0.36041 0.68961 0.0
C172 C 0.02006 0.40224 0.6537 0.0
O173 O 0.04298 0.3915 0.66461 0.0
O174 O 0.99619 0.39249 0.66216 0.0
C175 C 0.11116 0.37276 0.68839 0.0
O176 O 0.1024 0.38709 0.65825 0.0
C177 C 0.92568 0.37499 0.70321 0.0
C178 C 0.9046 0.33873 0.68732 0.0
C179 C 0.89935 0.36347 0.69996 0.0
N180 N 0.94551 0.35767 0.69319 0.0
N181 N 0.93267 0.3361 0.68373 0.0
C182 C 0.93187 0.40215 0.71398 0.0
H183 H 0.95299 0.40785 0.70287 0.0
H184 H 0.93165 0.40429 0.7474 0.0
H185 H 0.91549 0.41497 0.70115 0.0
C186 C 0.03872 0.34871 0.78011 0.0
N187 N 0.03078 0.356 0.74264 0.0
N188 N 1.00305 0.35683 0.74092 0.0
C189 C 0.99249 0.35008 0.77724 0.0
C190 C 0.01468 0.34462 0.8033 0.0
C191 C 0.06845 0.34203 0.79115 0.0
H192 H 0.0768 0.32799 0.76903 0.0
H193 H 0.08172 0.35943 0.78915 0.0
H194 H 0.07005 0.33396 0.82212 0.0
O195 O 0.04438 0.32995 0.65751 0.0
O196 O 0.99763 0.3318 0.65481 0.0
H197 H 0.95333 0.33094 0.76671 0.0
H198 H 0.95777 0.34227 0.81815 0.0
C199 C 0.96173 0.34664 0.78576 0.0
H200 H 0.95032 0.36437 0.77786 0.0
H201 H 0.9431 0.31952 0.67467 0.0
O202 O 0.09334 0.35929 0.70769 0.0
C203 C 0.02084 0.32149 0.64449 0.0
Co204 Co 0.46148 0.35566 0.80981 0.0
Co205 Co 0.52788 0.35767 0.81024 0.0
C206 C 0.49475 0.39886 0.84877 0.0
O207 O 0.47175 0.38764 0.83946 0.0
O208 O 0.51858 0.38972 0.83841 0.0
C209 C 0.40807 0.37461 0.78189 0.0
O210 O 0.42354 0.39386 0.76939 0.0
C211 C 0.58814 0.37101 0.79682 0.0
C212 C 0.60706 0.33245 0.7981 0.0
C213 C 0.6136 0.358 0.79281 0.0
N214 N 0.56765 0.35378 0.80384 0.0
N215 N 0.57921 0.33085 0.80497 0.0
C216 C 0.58276 0.39888 0.79087 0.0
H217 H 0.56041 0.40218 0.78233 0.0
H218 H 0.5969 0.40672 0.76714 0.0
H219 H 0.587 0.40907 0.8197 0.0
C220 C 0.47279 0.3451 0.72268 0.0
N221 N 0.48134 0.35254 0.75985 0.0
N222 N 0.509 0.35471 0.7599 0.0
C223 C 0.51883 0.34931 0.72261 0.0
C224 C 0.49631 0.3428 0.69784 0.0
C225 C 0.4434 0.33658 0.71306 0.0
H226 H 0.434 0.3269 0.73969 0.0
H227 H 0.43037 0.35354 0.70569 0.0
H228 H 0.44296 0.32341 0.68674 0.0
O229 O 0.47027 0.32606 0.84525 0.0
O230 O 0.51693 0.32892 0.8454 0.0
H231 H 0.55946 0.33171 0.72544 0.0
H232 H 0.55229 0.34778 0.67814 0.0
C233 C 0.5494 0.34867 0.71147 0.0
H234 H 0.55998 0.36603 0.7231 0.0
H235 H 0.56795 0.31401 0.80965 0.0
O236 O 0.42 0.3561 0.80003 0.0
C237 C 0.49433 0.31804 0.85683 0.0
Co238 Co 0.05645 0.64078 0.31073 0.0
Co239 Co 0.98993 0.6407 0.31146 0.0
C240 C 0.02241 0.5989 0.35083 0.0
O241 O 0.04575 0.60934 0.34112 0.0
O242 O 0.99886 0.60868 0.34044 0.0
C243 C 0.11144 0.6196 0.2945 0.0
O244 O 0.09773 0.59782 0.29527 0.0
C245 C 0.93018 0.62714 0.2954 0.0
C246 C 0.91037 0.66526 0.29905 0.0
C247 C 0.9046 0.63984 0.2912 0.0
N248 N 0.95012 0.64442 0.30492 0.0
N249 N 0.93801 0.66707 0.3076 0.0
C250 C 0.93618 0.59961 0.2872 0.0
H251 H 0.95877 0.59691 0.27944 0.0
H252 H 0.92264 0.59244 0.26223 0.0
H253 H 0.93149 0.58836 0.31487 0.0
C254 C 0.04552 0.64913 0.22318 0.0
N255 N 0.03651 0.6434 0.2608 0.0
N256 N 0.00876 0.64291 0.26093 0.0
C257 C 0.99924 0.64822 0.22335 0.0
C258 C 0.02222 0.65238 0.19812 0.0
C259 C 0.07582 0.65319 0.21229 0.0
H260 H 0.08782 0.63548 0.21866 0.0
H261 H 0.07841 0.65812 0.17982 0.0
H262 H 0.08474 0.66862 0.23144 0.0
O263 O 0.04814 0.6708 0.34575 0.0
O264 O 1.00137 0.66956 0.34603 0.0
H265 H 0.96562 0.6584 0.18135 0.0
H266 H 0.95633 0.63588 0.22035 0.0
C267 C 0.96888 0.65318 0.21352 0.0
H268 H 0.96103 0.66904 0.23265 0.0
H269 H 0.9488 0.68392 0.31417 0.0
O270 O 0.09791 0.64024 0.30039 0.0
C271 C 0.02445 0.67971 0.35728 0.0
H272 H 0.03732 0.92813 0.88265 0.0
H273 H 0.03519 0.96187 0.93356 0.0
H274 H 0.94442 0.95726 0.93415 0.0
H275 H 0.9462 0.9235 0.88291 0.0
H276 H 0.96741 0.00838 0.93517 0.0
H277 H 0.01448 0.94578 0.05302 0.0
H278 H 0.03441 0.94787 0.00687 0.0
H279 H 1.00002 0.93347 0.00631 0.0
C280 C 0.01684 0.93442 0.89321 0.0
C281 C 0.99193 0.92286 0.87898 0.0
C282 C 0.0157 0.95361 0.92249 0.0
C283 C 0.98969 0.9616 0.93819 0.0
C284 C 0.96471 0.95114 0.92262 0.0
H285 H 0.94691 0.07521 0.12259 0.0
H286 H 0.94427 0.04103 0.07224 0.0
C287 C 0.9658 0.93188 0.8933 0.0
C288 C 0.98872 0.98036 0.9717 0.0
H289 H 0.00928 0.98956 0.06979 0.0
C290 C 0.97635 0.00426 0.96472 0.0
C291 C 1.00036 0.97481 0.01019 0.0
C292 C 0.01287 0.94902 0.01983 0.0
C293 C 0.97614 0.02316 0.99491 0.0
C294 C 0.98814 0.01772 0.03327 0.0
C295 C 1.00011 0.99365 0.04037 0.0
C296 C 0.98948 0.03711 0.06589 0.0
C297 C 0.96397 0.04904 0.98505 0.0
C298 C 0.01575 0.04539 0.08034 0.0
C299 C 0.01737 0.06473 0.10938 0.0
C300 C 0.99269 0.07614 0.12461 0.0
C301 C 0.96634 0.06699 0.11132 0.0
C302 C 0.96477 0.0476 0.0823 0.0
H303 H 0.96171 0.05197 0.95186 0.0
H304 H 0.94274 0.05072 0.9989 0.0
H305 H 0.97741 0.06451 0.99755 0.0
H306 H 0.03508 0.03737 0.06831 0.0
H307 H 0.03801 0.07119 0.119 0.0
H308 H 0.56931 0.07471 0.38158 0.0
H309 H 0.57126 0.04124 0.43311 0.0
H310 H 0.48049 0.03655 0.43291 0.0
H311 H 0.4782 0.07009 0.38159 0.0
H312 H 0.50556 0.0433 0.5109 0.0
H313 H 0.55521 0.96384 0.425 0.0
H314 H 0.57305 0.99405 0.4221 0.0
H315 H 0.53854 0.99066 0.4003 0.0
C316 C 0.54975 0.06631 0.39198 0.0
C317 C 0.52359 0.07519 0.37749 0.0
C318 C 0.55093 0.04711 0.42137 0.0
C319 C 0.52603 0.03637 0.43664 0.0
C320 C 0.49995 0.04462 0.42144 0.0
H321 H 0.47826 0.92858 0.62097 0.0
H322 H 0.48054 0.96301 0.5714 0.0
C323 C 0.49871 0.06375 0.39201 0.0
C324 C 0.52701 0.01768 0.47026 0.0
H325 H 0.54885 0.95767 0.49537 0.0
C326 C 0.51498 0.02455 0.50754 0.0
C327 C 0.53956 0.99338 0.46582 0.0
C328 C 0.55216 0.98486 0.4261 0.0
C329 C 0.51519 0.00773 0.54063 0.0
C330 C 0.52726 0.98322 0.536 0.0
C331 C 0.53966 0.9765 0.49886 0.0
C332 C 0.52613 0.9638 0.56861 0.0
C333 C 0.50279 0.01649 0.58036 0.0
C334 C 0.55102 0.95271 0.58345 0.0
C335 C 0.54982 0.93285 0.6117 0.0
C336 C 0.52365 0.92357 0.62538 0.0
C337 C 0.49879 0.93526 0.61125 0.0
C338 C 0.50003 0.95507 0.58301 0.0
H339 H 0.50237 0.03765 0.58256 0.0
H340 H 0.48075 0.00956 0.5827 0.0
H341 H 0.5149 0.00879 0.60646 0.0
H342 H 0.57138 0.95913 0.5726 0.0
H343 H 0.56938 0.92428 0.62186 0.0
H344 H 0.54067 0.56921 0.11808 0.0
H345 H 0.5384 0.53558 0.06699 0.0
H346 H 0.44754 0.53768 0.0711 0.0
H347 H 0.4495 0.57165 0.12183 0.0
H348 H 0.5136 0.4873 0.06718 0.0
H349 H 0.46472 0.55016 0.95104 0.0
H350 H 0.48021 0.56246 0.99704 0.0
H351 H 0.44574 0.5482 0.99801 0.0
C352 C 0.52015 0.56242 0.10844 0.0
C353 C 0.49525 0.57338 0.12378 0.0
C354 C 0.51892 0.54319 0.07918 0.0
C355 C 0.49282 0.53457 0.06461 0.0
C356 C 0.46791 0.54453 0.08124 0.0
H357 H 0.44829 0.42244 0.88112 0.0
H358 H 0.44755 0.45591 0.93279 0.0
C359 C 0.46909 0.56381 0.11048 0.0
C360 C 0.49181 0.51549 0.0315 0.0
H361 H 0.47056 0.50668 0.93352 0.0
C362 C 0.50422 0.49152 0.03795 0.0
C363 C 0.47958 0.52111 0.99338 0.0
C364 C 0.46701 0.54694 0.98416 0.0
C365 C 0.50451 0.47291 0.00739 0.0
C366 C 0.49246 0.4786 0.9692 0.0
C367 C 0.47981 0.50245 0.96284 0.0
C368 C 0.49291 0.45994 0.93553 0.0
C369 C 0.51735 0.44716 0.01638 0.0
C370 C 0.51862 0.45183 0.91896 0.0
C371 C 0.51916 0.43277 0.88938 0.0
C372 C 0.49394 0.42148 0.87575 0.0
C373 C 0.46811 0.4306 0.89102 0.0
C374 C 0.46763 0.44971 0.92059 0.0
H375 H 0.51948 0.44378 0.04948 0.0
H376 H 0.50442 0.43159 0.00309 0.0
H377 H 0.5387 0.44619 0.00274 0.0
H378 H 0.53833 0.4599 0.92953 0.0
H379 H 0.53941 0.42638 0.87813 0.0
H380 H 0.97568 0.4291 0.62201 0.0
H381 H 0.97746 0.46274 0.57086 0.0
H382 H 0.06834 0.46075 0.57359 0.0
H383 H 0.06688 0.42682 0.62441 0.0
H384 H 1.00265 0.51124 0.57033 0.0
H385 H 0.0496 0.44755 0.45384 0.0
H386 H 0.0344 0.43555 0.5002 0.0
H387 H 0.06904 0.44945 0.50049 0.0
C388 C 0.9961 0.43593 0.61208 0.0
C389 C 0.02115 0.425 0.62703 0.0
C390 C 0.99704 0.45517 0.58279 0.0
C391 C 0.02301 0.4638 0.56781 0.0
C392 C 0.04807 0.4539 0.5841 0.0
H393 H 0.06825 0.57407 0.38265 0.0
H394 H 0.06828 0.54079 0.43458 0.0
C395 C 0.04717 0.43464 0.61338 0.0
C396 C 0.02373 0.48273 0.53448 0.0
H397 H 0.04416 0.49104 0.43611 0.0
C398 C 0.01168 0.50684 0.54096 0.0
C399 C 0.03549 0.47687 0.49618 0.0
C400 C 0.04766 0.45089 0.48697 0.0
C401 C 0.01138 0.5254 0.5103 0.0
C402 C 0.02302 0.51949 0.47196 0.0
C403 C 0.03523 0.49545 0.46553 0.0
C404 C 0.02284 0.53816 0.43827 0.0
C405 C 0.99908 0.55133 0.5194 0.0
C406 C 0.99727 0.54701 0.42213 0.0
C407 C 0.99712 0.56599 0.3924 0.0
C408 C 0.0226 0.57644 0.37816 0.0
C409 C 0.04823 0.56658 0.39303 0.0
C410 C 0.04832 0.54757 0.42275 0.0
H411 H 0.99735 0.5548 0.55252 0.0
H412 H 0.01212 0.5667 0.50579 0.0
H413 H 0.97759 0.55257 0.50618 0.0
H414 H 0.97738 0.53955 0.4331 0.0
H415 H 0.977 0.57297 0.38145 0.0
H416 H 0.37474 0.09407 0.31995 0.0
H417 H 0.32615 0.08081 0.30404 0.0
H418 H 0.31936 0.14234 0.21781 0.0
H419 H 0.36744 0.15562 0.23357 0.0
H420 H 0.27818 0.11569 0.31334 0.0
H421 H 0.28758 0.07881 0.15676 0.0
H422 H 0.31713 0.08024 0.19137 0.0
H423 H 0.30588 0.1084 0.16472 0.0
C424 C 0.36305 0.1043 0.2969 0.0
C425 C 0.37484 0.12575 0.27775 0.0
C426 C 0.33533 0.0968 0.288 0.0
C427 C 0.31937 0.11038 0.25932 0.0
C428 C 0.33149 0.13132 0.23946 0.0
H429 H 0.16461 0.15267 0.1658 0.0
H430 H 0.21283 0.14007 0.18166 0.0
C431 C 0.35888 0.13899 0.2487 0.0
C432 C 0.28914 0.10476 0.25257 0.0
H433 H 0.24176 0.09434 0.17654 0.0
C434 C 0.27007 0.11033 0.2838 0.0
C435 C 0.2788 0.09782 0.21397 0.0
C436 C 0.29842 0.09073 0.17985 0.0
C437 C 0.24089 0.11126 0.2765 0.0
C438 C 0.23061 0.10588 0.2371 0.0
C439 C 0.24965 0.09852 0.20668 0.0
C440 C 0.20097 0.11126 0.22543 0.0
C441 C 0.22159 0.11991 0.31016 0.0
C442 C 0.17817 0.09888 0.24415 0.0
C443 C 0.15041 0.10626 0.23535 0.0
C444 C 0.14507 0.12589 0.20728 0.0
C445 C 0.16799 0.13751 0.1876 0.0
C446 C 0.19558 0.13023 0.19648 0.0
H447 H 0.23346 0.12753 0.33656 0.0
H448 H 0.20692 0.13492 0.29918 0.0
H449 H 0.20879 0.10349 0.32072 0.0
H450 H 0.18184 0.08399 0.26627 0.0
H451 H 0.13339 0.09734 0.25186 0.0
H452 H 0.35451 0.8545 0.6473 0.0
H453 H 0.30548 0.86374 0.66459 0.0
H454 H 0.33259 0.89847 0.77656 0.0
H455 H 0.38181 0.88965 0.7589 0.0
H456 H 0.28168 0.84192 0.72934 0.0
H457 H 0.2701 0.947 0.741 0.0
H458 H 0.29942 0.93206 0.71534 0.0
H459 H 0.29912 0.93435 0.76969 0.0
C460 C 0.35003 0.86476 0.67506 0.0
C461 C 0.37193 0.87156 0.70159 0.0
C462 C 0.32204 0.87005 0.6849 0.0
C463 C 0.31533 0.88198 0.72172 0.0
C464 C 0.33727 0.88983 0.74753 0.0
H465 H 0.16253 0.85115 0.85298 0.0
H466 H 0.21122 0.85991 0.83307 0.0
C467 C 0.36542 0.88479 0.73741 0.0
C468 C 0.28551 0.88272 0.73531 0.0
H469 H 0.23262 0.92181 0.76864 0.0
C470 C 0.27095 0.85945 0.7376 0.0
C471 C 0.27147 0.90558 0.74601 0.0
C472 C 0.28571 0.93121 0.74257 0.0
C473 C 0.24291 0.85832 0.7507 0.0
C474 C 0.22915 0.88102 0.76271 0.0
C475 C 0.2434 0.90442 0.75981 0.0
C476 C 0.19994 0.8803 0.77843 0.0
C477 C 0.22817 0.83277 0.75135 0.0
C478 C 0.17751 0.88992 0.75522 0.0
C479 C 0.14958 0.88507 0.76669 0.0
C480 C 0.14383 0.87056 0.80155 0.0
C481 C 0.16637 0.86232 0.8259 0.0
C482 C 0.19416 0.86731 0.81461 0.0
H483 H 0.23928 0.8184 0.73242 0.0
H484 H 0.22758 0.82551 0.78293 0.0
H485 H 0.20612 0.83454 0.74037 0.0
H486 H 0.18161 0.89987 0.72705 0.0
H487 H 0.13272 0.89118 0.74685 0.0
H488 H 0.87105 0.91732 0.78039 0.0
H489 H 0.82033 0.91571 0.76723 0.0
H490 H 0.82352 0.83347 0.76563 0.0
H491 H 0.87421 0.83487 0.77947 0.0
H492 H 0.79139 0.89495 0.70267 0.0
H493 H 0.76026 0.84722 0.84602 0.0
H494 H 0.79478 0.86092 0.8386 0.0
H495 H 0.78637 0.83028 0.81728 0.0
C496 C 0.86099 0.89886 0.77734 0.0
C497 C 0.87669 0.87621 0.78128 0.0
C498 C 0.83197 0.89799 0.7698 0.0
C499 C 0.81802 0.87448 0.76613 0.0
C500 C 0.8337 0.85183 0.7693 0.0
H501 H 0.64246 0.83483 0.71732 0.0
H502 H 0.69346 0.83391 0.72927 0.0
C503 C 0.86273 0.85267 0.77698 0.0
C504 C 0.78716 0.8738 0.75827 0.0
H505 H 0.72435 0.85301 0.79686 0.0
C506 C 0.77673 0.88584 0.72332 0.0
C507 C 0.76805 0.86184 0.78519 0.0
C508 C 0.77783 0.84952 0.82407 0.0
C509 C 0.74776 0.88607 0.71438 0.0
C510 C 0.72865 0.87428 0.74143 0.0
C511 C 0.73907 0.86202 0.77617 0.0
C512 C 0.69772 0.87488 0.73453 0.0
C513 C 0.73787 0.89864 0.67576 0.0
C514 C 0.68313 0.89818 0.7342 0.0
C515 C 0.65402 0.89879 0.72746 0.0
C516 C 0.63887 0.87607 0.721 0.0
C517 C 0.65349 0.85269 0.72196 0.0
C518 C 0.68263 0.85212 0.72884 0.0
H519 H 0.75533 0.90092 0.65364 0.0
H520 H 0.72072 0.88741 0.66133 0.0
H521 H 0.72948 0.91789 0.68289 0.0
H522 H 0.69428 0.91594 0.7393 0.0
H523 H 0.64343 0.91711 0.72712 0.0
H524 H 0.64288 0.08362 0.26033 0.0
H525 H 0.69366 0.08519 0.24774 0.0
H526 H 0.69514 0.16439 0.28313 0.0
H527 H 0.64439 0.16293 0.29633 0.0
H528 H 0.72346 0.11599 0.19415 0.0
H529 H 0.75777 0.13346 0.3527 0.0
H530 H 0.72258 0.12298 0.34008 0.0
H531 H 0.73231 0.15589 0.3338 0.0
C532 C 0.65399 0.10136 0.26563 0.0
C533 C 0.63956 0.12311 0.2796 0.0
C534 C 0.68303 0.10223 0.25836 0.0
C535 C 0.69828 0.12479 0.26508 0.0
C536 C 0.68392 0.14662 0.27857 0.0
H537 H 0.876 0.16332 0.23106 0.0
H538 H 0.8251 0.16481 0.24393 0.0
C539 C 0.65486 0.14578 0.28589 0.0
C540 C 0.7291 0.12553 0.25709 0.0
H541 H 0.79315 0.13532 0.30211 0.0
C542 C 0.7387 0.12016 0.21777 0.0
C543 C 0.74895 0.13106 0.28793 0.0
C544 C 0.73999 0.13596 0.3311 0.0
C545 C 0.76759 0.12032 0.2084 0.0
C546 C 0.78742 0.12564 0.23929 0.0
C547 C 0.77786 0.13129 0.2785 0.0
C548 C 0.81824 0.12473 0.23168 0.0
C549 C 0.77666 0.11508 0.16539 0.0
C550 C 0.83128 0.10164 0.22113 0.0
C551 C 0.86031 0.10069 0.21393 0.0
C552 C 0.8769 0.12285 0.2171 0.0
C553 C 0.86381 0.14594 0.22811 0.0
C554 C 0.83475 0.14683 0.23555 0.0
H555 H 0.75899 0.11758 0.14361 0.0
H556 H 0.79423 0.12789 0.15639 0.0
H557 H 0.78422 0.09509 0.16307 0.0
H558 H 0.81898 0.08428 0.21863 0.0
H559 H 0.86969 0.08258 0.20564 0.0
H560 H 0.87779 0.59588 0.31542 0.0
H561 H 0.82942 0.58266 0.29816 0.0
H562 H 0.82055 0.64889 0.22166 0.0
H563 H 0.86844 0.66219 0.23888 0.0
H564 H 0.78009 0.61726 0.31217 0.0
H565 H 0.79118 0.58675 0.15219 0.0
H566 H 0.82031 0.58662 0.18761 0.0
H567 H 0.80918 0.61596 0.16434 0.0
C568 C 0.8657 0.60723 0.2942 0.0
C569 C 0.87686 0.62995 0.2782 0.0
C570 C 0.8381 0.59975 0.28456 0.0
C571 C 0.82164 0.61464 0.25823 0.0
C572 C 0.83309 0.63693 0.2415 0.0
H573 H 0.66553 0.65485 0.16559 0.0
H574 H 0.71413 0.64343 0.18112 0.0
C575 C 0.86036 0.64458 0.25155 0.0
C576 C 0.7916 0.60866 0.25068 0.0
H577 H 0.74485 0.59944 0.17347 0.0
C578 C 0.77225 0.61269 0.28214 0.0
C579 C 0.78163 0.6028 0.21145 0.0
C580 C 0.80165 0.59755 0.17696 0.0
C581 C 0.74308 0.61306 0.27468 0.0
C582 C 0.7331 0.60863 0.23481 0.0
C583 C 0.75249 0.60287 0.20398 0.0
C584 C 0.70328 0.61339 0.22333 0.0
C585 C 0.72341 0.6201 0.30884 0.0
C586 C 0.6809 0.59996 0.24126 0.0
C587 C 0.6529 0.60668 0.23272 0.0
C588 C 0.64688 0.62669 0.20561 0.0
C589 C 0.6694 0.63937 0.18665 0.0
C590 C 0.69724 0.63278 0.19534 0.0
H591 H 0.73494 0.62747 0.33572 0.0
H592 H 0.70804 0.63482 0.29886 0.0
H593 H 0.71141 0.60294 0.31834 0.0
H594 H 0.68507 0.5847 0.26257 0.0
H595 H 0.63619 0.59692 0.24869 0.0
H596 H 0.85152 0.35402 0.65796 0.0
H597 H 0.80339 0.36588 0.67594 0.0
H598 H 0.83443 0.40741 0.77962 0.0
H599 H 0.8828 0.3951 0.76213 0.0
H600 H 0.79319 0.37242 0.79859 0.0
H601 H 0.75746 0.43137 0.66962 0.0
H602 H 0.77377 0.40237 0.65276 0.0
H603 H 0.79434 0.42559 0.68009 0.0
C604 C 0.84815 0.36613 0.68412 0.0
C605 C 0.87097 0.37394 0.70828 0.0
C606 C 0.82065 0.37311 0.69416 0.0
C607 C 0.81534 0.38799 0.72865 0.0
C608 C 0.83812 0.39629 0.75247 0.0
H609 H 0.63917 0.40281 0.81733 0.0
H610 H 0.68807 0.41599 0.80409 0.0
C611 C 0.86578 0.38942 0.74225 0.0
C612 C 0.78583 0.39191 0.74208 0.0
H613 H 0.72072 0.40869 0.70653 0.0
C614 C 0.77745 0.38107 0.77906 0.0
C615 C 0.7653 0.40322 0.7166 0.0
C616 C 0.77323 0.41653 0.67775 0.0
C617 C 0.74887 0.37945 0.78967 0.0
C618 C 0.72828 0.38895 0.76268 0.0
C619 C 0.73666 0.40136 0.72706 0.0
C620 C 0.69819 0.38269 0.76826 0.0
C621 C 0.74059 0.36607 0.82833 0.0
C622 C 0.68786 0.35985 0.75204 0.0
C623 C 0.66014 0.35236 0.75934 0.0
C624 C 0.64209 0.36767 0.78278 0.0
C625 C 0.6523 0.39091 0.79833 0.0
C626 C 0.68025 0.39837 0.79109 0.0
H627 H 0.75908 0.36203 0.84802 0.0
H628 H 0.72526 0.37789 0.84549 0.0
H629 H 0.73008 0.34773 0.82085 0.0
H630 H 0.7015 0.3475 0.73446 0.0
H631 H 0.6529 0.33437 0.74694 0.0
H632 H 0.36928 0.33962 0.80837 0.0
H633 H 0.31866 0.33845 0.79351 0.0
H634 H 0.32666 0.40683 0.72183 0.0
H635 H 0.37722 0.40823 0.7365 0.0
H636 H 0.27682 0.37882 0.8088 0.0
H637 H 0.28737 0.35351 0.64598 0.0
H638 H 0.31555 0.34881 0.6821 0.0
H639 H 0.30823 0.38015 0.66276 0.0
C640 C 0.3603 0.35442 0.78942 0.0
C641 C 0.37734 0.37399 0.77352 0.0
C642 C 0.33136 0.35373 0.78103 0.0
C643 C 0.31901 0.37239 0.75624 0.0
C644 C 0.33588 0.39206 0.74061 0.0
H645 H 0.15344 0.40246 0.65786 0.0
H646 H 0.20334 0.40201 0.67623 0.0
C647 C 0.36476 0.39288 0.74918 0.0
C648 C 0.28844 0.37146 0.7469 0.0
H649 H 0.24162 0.36401 0.66917 0.0
C650 C 0.26904 0.37545 0.77835 0.0
C651 C 0.27845 0.36711 0.70714 0.0
C652 C 0.2984 0.36194 0.6725 0.0
C653 C 0.23985 0.37589 0.77088 0.0
C654 C 0.22981 0.37159 0.73101 0.0
C655 C 0.24929 0.36733 0.69969 0.0
C656 C 0.19926 0.37196 0.72082 0.0
C657 C 0.22012 0.38177 0.8055 0.0
C658 C 0.1803 0.35507 0.73954 0.0
C659 C 0.15164 0.35541 0.7293 0.0
C660 C 0.14144 0.37241 0.6997 0.0
C661 C 0.16054 0.38911 0.68076 0.0
C662 C 0.18912 0.38887 0.69121 0.0
H663 H 0.23124 0.39141 0.83089 0.0
H664 H 0.20242 0.39411 0.79541 0.0
H665 H 0.21117 0.36367 0.81728 0.0
H666 H 0.18771 0.34142 0.76176 0.0
H667 H 0.13753 0.34218 0.74429 0.0
H668 H 0.14586 0.66141 0.28764 0.0
H669 H 0.1964 0.66207 0.27251 0.0
H670 H 0.1971 0.57986 0.26705 0.0
H671 H 0.14659 0.57899 0.28167 0.0
H672 H 0.24096 0.64011 0.31545 0.0
H673 H 0.23434 0.60007 0.16016 0.0
H674 H 0.20389 0.6121 0.18682 0.0
H675 H 0.21737 0.58078 0.19791 0.0
C676 C 0.15673 0.64346 0.28312 0.0
C677 C 0.14212 0.62014 0.28572 0.0
C678 C 0.18563 0.64388 0.27449 0.0
C679 C 0.20044 0.62104 0.26802 0.0
C680 C 0.18599 0.59774 0.27106 0.0
H681 H 0.37379 0.57841 0.22177 0.0
H682 H 0.32321 0.57988 0.23615 0.0
C683 C 0.15711 0.59729 0.27967 0.0
C684 C 0.23112 0.62152 0.25902 0.0
H685 H 0.28018 0.60322 0.18904 0.0
C686 C 0.24955 0.63222 0.2877 0.0
C687 C 0.24226 0.61122 0.22277 0.0
C688 C 0.22345 0.6006 0.18994 0.0
C689 C 0.27888 0.63229 0.28157 0.0
C690 C 0.29002 0.62172 0.24554 0.0
C691 C 0.27159 0.61122 0.21671 0.0
C692 C 0.32079 0.62109 0.23731 0.0
C693 C 0.29776 0.64307 0.31416 0.0
C694 C 0.33618 0.6438 0.23283 0.0
C695 C 0.36511 0.64305 0.22454 0.0
C696 C 0.3792 0.61954 0.22046 0.0
C697 C 0.36366 0.59684 0.22484 0.0
C698 C 0.33473 0.59762 0.23299 0.0
H699 H 0.28658 0.64495 0.34358 0.0
H700 H 0.31665 0.63084 0.3186 0.0
H701 H 0.30506 0.66232 0.30489 0.0
H702 H 0.32574 0.66212 0.23537 0.0
H703 H 0.37641 0.66089 0.22127 0.0
H704 H 0.03613 0.35835 0.87694 0.0
H705 H 0.03373 0.3338 0.94058 0.0
H706 H 0.98689 0.27474 0.87923 0.0
H707 H 0.98952 0.29897 0.81592 0.0
H708 H 0.98303 0.3139 0.983 0.0
H709 H 0.05694 0.23859 0.93058 0.0
H710 H 0.05466 0.26954 0.9067 0.0
H711 H 0.02861 0.24556 0.89609 0.0
C712 C 0.02533 0.34013 0.87733 0.0
C713 C 0.01291 0.33048 0.84189 0.0
C714 C 0.02388 0.32623 0.9135 0.0
C715 C 0.01028 0.30244 0.91438 0.0
C716 C 0.99765 0.29297 0.87902 0.0
H717 H 0.95214 0.20265 0.1048 0.0
H718 H 0.95596 0.23525 0.05191 0.0
C719 C 0.99903 0.30685 0.84303 0.0
C720 C 0.00966 0.28702 0.95186 0.0
H721 H 0.03115 0.22993 0.99064 0.0
C722 C 0.99372 0.29563 0.98496 0.0
C723 C 0.02387 0.26337 0.95428 0.0
C724 C 0.04221 0.25374 0.9202 0.0
C725 C 0.99095 0.28073 0.02015 0.0
C726 C 1.00424 0.25659 0.02188 0.0
C727 C 0.02081 0.24838 0.98915 0.0
C728 C 1.00127 0.23923 0.05703 0.0
C729 C 0.97397 0.29098 0.05518 0.0
C730 C 0.02544 0.23067 0.07742 0.0
C731 C 0.02337 0.21193 0.10726 0.0
C732 C 0.99706 0.20126 0.11731 0.0
C733 C 0.9727 0.21054 0.0979 0.0
C734 C 0.97483 0.22927 0.06782 0.0
H735 H 0.97168 0.31206 0.05354 0.0
H736 H 0.95255 0.28248 0.05437 0.0
H737 H 0.98388 0.28588 0.08459 0.0
H738 H 0.04605 0.23807 0.0695 0.0
H739 H 0.04256 0.20537 0.12175 0.0
H740 H 0.4749 0.79474 0.61514 0.0
H741 H 0.47173 0.76194 0.56312 0.0
H742 H 0.56216 0.76309 0.54937 0.0
H743 H 0.56565 0.79589 0.60208 0.0
H744 H 0.48887 0.7694 0.48444 0.0
H745 H 0.54401 0.68634 0.55269 0.0
H746 H 0.53153 0.71299 0.58243 0.0
H747 H 0.56368 0.71564 0.55398 0.0
C748 C 0.49422 0.78785 0.60152 0.0
C749 C 0.52056 0.79809 0.61264 0.0
C750 C 0.49234 0.76903 0.57182 0.0
C751 C 0.51669 0.75994 0.55262 0.0
C752 C 0.54313 0.76952 0.56436 0.0
H753 H 0.53069 0.69609 0.31456 0.0
H754 H 0.53387 0.72077 0.3773 0.0
C755 C 0.54508 0.78837 0.59431 0.0
C756 C 0.51397 0.7423 0.51781 0.0
H757 H 0.53328 0.68365 0.48212 0.0
C758 C 0.49842 0.75058 0.48407 0.0
C759 C 0.52623 0.71769 0.51759 0.0
C760 C 0.5421 0.70746 0.55373 0.0
C761 C 0.49534 0.73516 0.44971 0.0
C762 C 0.50845 0.71095 0.44887 0.0
C763 C 0.52341 0.70232 0.48291 0.0
C764 C 0.50773 0.69498 0.41201 0.0
C765 C 0.47815 0.7449 0.41443 0.0
C766 C 0.49238 0.67208 0.41113 0.0
C767 C 0.49061 0.65788 0.37526 0.0
C768 C 0.50444 0.66635 0.34017 0.0
C769 C 0.52012 0.68905 0.34142 0.0
C770 C 0.52183 0.7032 0.37707 0.0
H771 H 0.46419 0.76097 0.42339 0.0
H772 H 0.49259 0.75183 0.39039 0.0
H773 H 0.46498 0.72942 0.40136 0.0
H774 H 0.48136 0.6655 0.4379 0.0
H775 H 0.4784 0.64041 0.37481 0.0
H776 H 0.94829 0.79299 0.89349 0.0
H777 H 0.95027 0.75935 0.9451 0.0
H778 H 0.0411 0.7633 0.94486 0.0
H779 H 0.03946 0.7964 0.89322 0.0
H780 H 0.02027 0.71319 0.9479 0.0
H781 H 0.97054 0.77627 0.06328 0.0
H782 H 0.95069 0.77133 0.01753 0.0
H783 H 0.98358 0.78829 0.01563 0.0
C784 C 0.96868 0.78652 0.90416 0.0
C785 C 0.99369 0.79762 0.88952 0.0
C786 C 0.96976 0.76737 0.93373 0.0
C787 C 0.99583 0.75913 0.94915 0.0
C788 C 0.02077 0.76943 0.9334 0.0
H789 H 0.0439 0.69854 0.17847 0.0
H790 H 0.03743 0.72211 0.1151 0.0
C791 C 0.01974 0.78847 0.90396 0.0
C792 C 0.99751 0.74088 0.9833 0.0
H793 H 0.98445 0.73541 0.08457 0.0
C794 C 0.0122 0.71786 0.97773 0.0
C795 C 0.98725 0.74726 0.02222 0.0
C796 C 0.97231 0.77219 0.03034 0.0
C797 C 0.0174 0.70126 0.01031 0.0
C798 C 0.00735 0.70779 0.04926 0.0
C799 C 0.99209 0.7305 0.05459 0.0
C800 C 0.01363 0.69218 0.08553 0.0
C801 C 0.03452 0.67741 0.0032 0.0
C802 C 1.00283 0.66736 0.08955 0.0
C803 C 0.0068 0.65378 0.12562 0.0
C804 C 0.02143 0.66494 0.1581 0.0
C805 C 0.0329 0.68944 0.15358 0.0
C806 C 0.02902 0.70295 0.11759 0.0
H807 H 0.04548 0.6778 0.97346 0.0
H808 H 0.05048 0.67487 0.02752 0.0
H809 H 0.02032 0.66059 0.00367 0.0
H810 H 0.99052 0.65887 0.06542 0.0
H811 H 0.99763 0.63495 0.12872 0.0
H812 H 0.46921 0.35451 0.62713 0.0
H813 H 0.47145 0.33074 0.56268 0.0
H814 H 0.52896 0.27692 0.61709 0.0
H815 H 0.52664 0.30035 0.6811 0.0
H816 H 0.52592 0.31476 0.51595 0.0
H817 H 0.45743 0.23604 0.57147 0.0
H818 H 0.45693 0.26762 0.59347 0.0
H819 H 0.48517 0.24602 0.60517 0.0
C820 C 0.48238 0.33767 0.62501 0.0
C821 C 0.49796 0.3293 0.65867 0.0
C822 C 0.48372 0.32423 0.58838 0.0
C823 C 0.50037 0.30215 0.58538 0.0
C824 C 0.51602 0.29393 0.61895 0.0
H825 H 0.56248 0.20373 0.39741 0.0
H826 H 0.55676 0.23672 0.44932 0.0
C827 C 0.51479 0.30737 0.65532 0.0
C828 C 0.50092 0.28696 0.54777 0.0
H829 H 0.48207 0.22886 0.5101 0.0
C830 C 0.5161 0.29609 0.51433 0.0
C831 C 0.48792 0.26275 0.54591 0.0
C832 C 0.47073 0.25249 0.58075 0.0
C833 C 0.51938 0.28113 0.4793 0.0
C834 C 0.50736 0.25644 0.47814 0.0
C835 C 0.4914 0.24775 0.51116 0.0
C836 C 0.51134 0.2389 0.44346 0.0
C837 C 0.53566 0.29182 0.44392 0.0
C838 C 0.48774 0.22923 0.42302 0.0
C839 C 0.49089 0.21029 0.3937 0.0
C840 C 0.51776 0.20051 0.38433 0.0
C841 C 0.54152 0.21088 0.40384 0.0
C842 C 0.53831 0.22985 0.43333 0.0
H843 H 0.5369 0.31298 0.44519 0.0
H844 H 0.55748 0.28419 0.44463 0.0
H845 H 0.52586 0.28612 0.41472 0.0
H846 H 0.46675 0.23592 0.4305 0.0
H847 H 0.47213 0.20289 0.37911 0.0
H848 H 0.48699 0.79819 0.81268 0.0
H849 H 0.48299 0.7738 0.87557 0.0
H850 H 0.53527 0.82909 0.93679 0.0
H851 H 0.53882 0.85394 0.87363 0.0
H852 H 0.52799 0.75262 0.91874 0.0
H853 H 0.46636 0.82063 0.01305 0.0
H854 H 0.46854 0.82328 0.95857 0.0
H855 H 0.4976 0.83329 0.98963 0.0
C856 C 0.49725 0.80533 0.83974 0.0
C857 C 0.5129 0.82804 0.83869 0.0
C858 C 0.49506 0.79136 0.87553 0.0
C859 C 0.50849 0.79984 0.91092 0.0
C860 C 0.52429 0.82251 0.90996 0.0
H861 H 0.54317 0.70183 0.11637 0.0
H862 H 0.54595 0.73362 0.06257 0.0
C863 C 0.52649 0.83655 0.87399 0.0
C864 C 0.50699 0.78403 0.94801 0.0
H865 H 0.48204 0.78269 0.04507 0.0
C866 C 0.51802 0.75921 0.9464 0.0
C867 C 0.49369 0.79265 0.98382 0.0
C868 C 0.48063 0.81884 0.98653 0.0
C869 C 0.51613 0.74272 0.97969 0.0
C870 C 0.50324 0.75143 0.01575 0.0
C871 C 0.49208 0.77621 0.01741 0.0
C872 C 0.501 0.73472 0.05169 0.0
C873 C 0.52746 0.7159 0.97575 0.0
C874 C 0.47463 0.72562 0.06444 0.0
C875 C 0.47289 0.70741 0.09538 0.0
C876 C 0.49754 0.69809 0.11397 0.0
C877 C 0.52377 0.70833 0.1024 0.0
C878 C 0.52545 0.7265 0.07164 0.0
H879 H 0.53094 0.71047 0.94359 0.0
H880 H 0.54797 0.71455 0.99183 0.0
H881 H 0.51279 0.70191 0.98968 0.0
H882 H 0.45552 0.73185 0.04939 0.0
H883 H 0.45237 0.70001 0.10366 0.0
H884 H 0.06523 0.29864 0.60499 0.0
H885 H 0.06249 0.26662 0.55086 0.0
H886 H 0.97207 0.26405 0.56364 0.0
H887 H 0.97444 0.29594 0.61727 0.0
H888 H 0.03584 0.21523 0.54726 0.0
H889 H 0.98757 0.28705 0.4443 0.0
H890 H 0.00581 0.29582 0.49028 0.0
H891 H 0.97054 0.28342 0.49259 0.0
C892 C 0.0448 0.29103 0.59663 0.0
C893 C 0.02003 0.30013 0.61509 0.0
C894 C 0.04329 0.27272 0.56578 0.0
C895 C 0.01704 0.26332 0.55301 0.0
C896 C 0.99248 0.27138 0.57277 0.0
H897 H 0.9777 0.14333 0.37704 0.0
H898 H 0.98183 0.16853 0.4398 0.0
C899 C 0.99393 0.28963 0.60343 0.0
C900 C 0.01496 0.24643 0.51725 0.0
H901 H 0.99016 0.24469 0.42023 0.0
C902 C 0.02589 0.22159 0.51943 0.0
C903 C 1.00215 0.25497 0.48099 0.0
C904 C 0.99102 0.28183 0.47656 0.0
C905 C 0.02408 0.2049 0.48617 0.0
C906 C 0.01083 0.21333 0.45017 0.0
C907 C 1.00009 0.23824 0.44803 0.0
C908 C 0.00908 0.19723 0.41343 0.0
C909 C 0.03683 0.17861 0.48942 0.0
C910 C 0.0226 0.20527 0.3779 0.0
C911 C 0.02009 0.19111 0.34235 0.0
C912 C 1.004 0.16863 0.34166 0.0
C913 C 0.99035 0.16054 0.3771 0.0
C914 C 0.99287 0.17478 0.41286 0.0
H915 H 0.05106 0.17687 0.51605 0.0
H916 H 0.0197 0.16433 0.49268 0.0
H917 H 0.0489 0.17386 0.4616 0.0
H918 H 0.03497 0.22265 0.37763 0.0
H919 H 0.03044 0.19793 0.31518 0.0
H920 H 0.45163 0.29375 0.89787 0.0
H921 H 0.45665 0.26151 0.9513 0.0
H922 H 0.54678 0.26146 0.93437 0.0
H923 H 0.54216 0.29357 0.88134 0.0
H924 H 0.48591 0.21061 0.95278 0.0
H925 H 0.53217 0.28417 0.05473 0.0
H926 H 0.51249 0.29231 0.00969 0.0
H927 H 0.54821 0.28122 0.00561 0.0
C928 C 0.47248 0.28663 0.90514 0.0
C929 C 0.49651 0.29652 0.88573 0.0
C930 C 0.47529 0.26819 0.93557 0.0
C931 C 0.50211 0.25943 0.94695 0.0
C932 C 0.52595 0.26825 0.92624 0.0
H933 H 0.54638 0.14235 0.12661 0.0
H934 H 0.5427 0.16682 0.06299 0.0
C935 C 0.52321 0.28664 0.89596 0.0
C936 C 0.50552 0.24259 0.98249 0.0
H937 H 0.53056 0.24199 0.07941 0.0
C938 C 0.49572 0.21736 0.98048 0.0
C939 C 0.51817 0.25164 0.01853 0.0
C940 C 0.52821 0.27886 0.02263 0.0
C941 C 0.49833 0.20085 0.01385 0.0
C942 C 0.51116 0.2099 0.04975 0.0
C943 C 0.52096 0.23511 0.05162 0.0
C944 C 0.51286 0.19424 0.0869 0.0
C945 C 0.48675 0.17411 0.01095 0.0
C946 C 0.49767 0.20183 0.12124 0.0
C947 C 0.49984 0.18808 0.1572 0.0
C948 C 0.51727 0.16647 0.1595 0.0
C949 C 0.53267 0.15888 0.12527 0.0
C950 C 0.53044 0.17269 0.08905 0.0
H951 H 0.47355 0.17139 0.98345 0.0
H952 H 0.50451 0.16033 0.00978 0.0
H953 H 0.4739 0.16955 0.03812 0.0
H954 H 0.48422 0.21855 0.12024 0.0
H955 H 0.48817 0.19456 0.18346 0.0
H956 H 0.06808 0.70142 0.39998 0.0
H957 H 0.06438 0.73299 0.4546 0.0
H958 H 0.97464 0.738 0.43508 0.0
H959 H 0.97797 0.70652 0.38089 0.0
H960 H 0.0395 0.78478 0.45851 0.0
H961 H 0.98487 0.71285 0.55431 0.0
H962 H 1.00432 0.70429 0.50932 0.0
H963 H 0.9697 0.71796 0.50504 0.0
C964 C 0.04763 0.70952 0.40691 0.0
C965 C 0.02328 0.70115 0.38646 0.0
C966 C 0.04557 0.72756 0.43806 0.0
C967 C 0.01918 0.73745 0.44915 0.0
C968 C 0.99513 0.73026 0.42729 0.0
H969 H 0.97997 0.85567 0.6284 0.0
H970 H 0.98432 0.83134 0.56483 0.0
C971 C 0.99712 0.71226 0.39631 0.0
C972 C 0.01634 0.75381 0.48542 0.0
H973 H 0.98855 0.75456 0.58072 0.0
C974 C 0.02836 0.77827 0.48527 0.0
C975 C 1.00201 0.74505 0.5203 0.0
C976 C 0.98965 0.71853 0.52262 0.0
C977 C 0.02622 0.79434 0.51923 0.0
C978 C 0.0115 0.78569 0.55387 0.0
C979 C 0.99961 0.76119 0.55395 0.0
C980 C 0.0094 0.80108 0.59133 0.0
C981 C 0.04021 0.82018 0.51823 0.0
C982 C 0.02156 0.79185 0.62719 0.0
C983 C 0.01893 0.80553 0.6632 0.0
C984 C 1.00407 0.8287 0.66399 0.0
C985 C 0.99167 0.83791 0.62825 0.0
C986 C 0.99433 0.82417 0.59206 0.0
H987 H 0.05531 0.82191 0.49266 0.0
H988 H 0.02385 0.83515 0.51464 0.0
H989 H 0.05162 0.8239 0.54704 0.0
H990 H 0.03304 0.77397 0.62732 0.0
H991 H 0.02829 0.79789 0.69059 0.0
loop_
_geom_bond_atom_site_label_1
_geom_bond_atom_site_label_2
_geom_bond_distance
_geom_bond_site_symmetry_2
_ccdc_geom_bond_type
Co0 O3 1.970 . S
Co0 N17 1.989 . S
Co0 O25 1.967 . S
Co0 O32 1.920 . S
Co1 O4 1.966 . S
Co1 N10 2.022 . S
Co1 N18 1.993 . S
Co1 O26 1.941 . S
C2 O3 1.268 . S
C2 O4 1.254 1_655 S
O3 Co0 1.970 . S
O3 C2 1.268 . S
O4 Co1 1.966 . S
O4 C2 1.254 1_455 S
C5 O6 1.235 . S
C5 O32 1.289 . S
O6 C5 1.235 . S
C7 C9 1.400 . S
C7 N10 1.351 . S
C7 C12 1.501 . S
C8 C9 1.387 . S
C8 N11 1.341 . S
C9 C7 1.400 . S
C9 C8 1.387 . S
N10 Co1 2.022 . S
N10 C7 1.351 . S
N10 N11 1.365 . S
N11 C8 1.341 . S
N11 N10 1.365 . S
N11 H31 0.862 . S
C12 C7 1.501 . S
C12 H13 0.961 . S
C12 H14 0.961 . S
C12 H15 0.960 . S
H13 C12 0.961 . S
H14 C12 0.961 . S
H15 C12 0.960 . S
C16 N17 1.342 . S
C16 C20 1.398 1_655 S
C16 C21 1.499 . S
N17 Co0 1.989 . S
N17 C16 1.342 . S
N17 N18 1.388 1_655 S
N18 Co1 1.993 . S
N18 N17 1.388 1_455 S
N18 C19 1.346 . S
C19 N18 1.346 . S
C19 C20 1.399 . S
C19 C29 1.510 . S
C20 C16 1.398 1_455 S
C20 C19 1.399 . S
C21 C16 1.499 . S
C21 H22 0.959 . S
C21 H23 0.960 . S
C21 H24 0.961 . S
H22 C21 0.959 . S
H23 C21 0.960 . S
H24 C21 0.961 . S
O25 Co0 1.967 . S
O25 C33 1.258 . S
O26 Co1 1.941 . S
O26 C33 1.266 1_455 S
H27 C29 0.959 . S
H28 C29 0.961 . S
C29 C19 1.510 . S
C29 H27 0.959 . S
C29 H28 0.961 . S
C29 H30 0.960 . S
H30 C29 0.960 . S
H31 N11 0.862 . S
O32 Co0 1.920 . S
O32 C5 1.289 . S
C33 O25 1.258 . S
C33 O26 1.266 1_655 S
Co34 O37 1.970 . S
Co34 N51 1.989 . S
Co34 O59 1.967 . S
Co34 O66 1.920 . S
Co35 O38 1.966 . S
Co35 N44 2.022 . S
Co35 N52 1.993 . S
Co35 O60 1.941 . S
C36 O37 1.258 . S
C36 O38 1.263 . S
O37 Co34 1.970 . S
O37 C36 1.258 . S
O38 Co35 1.966 . S
O38 C36 1.263 . S
C39 O40 1.235 . S
C39 O66 1.289 . S
O40 C39 1.235 . S
C41 C43 1.400 . S
C41 N44 1.351 . S
C41 C46 1.501 . S
C42 C43 1.387 . S
C42 N45 1.341 . S
C43 C41 1.400 . S
C43 C42 1.387 . S
N44 Co35 2.022 . S
N44 C41 1.351 . S
N44 N45 1.365 . S
N45 C42 1.341 . S
N45 N44 1.365 . S
N45 H65 0.862 . S
C46 C41 1.501 . S
C46 H47 0.961 . S
C46 H48 0.961 . S
C46 H49 0.960 . S
H47 C46 0.961 . S
H48 C46 0.961 . S
H49 C46 0.960 . S
C50 N51 1.342 . S
C50 C54 1.401 . S
C50 C55 1.499 . S
N51 Co34 1.989 . S
N51 C50 1.342 . S
N51 N52 1.388 . S
N52 Co35 1.993 . S
N52 N51 1.388 . S
N52 C53 1.346 . S
C53 N52 1.346 . S
C53 C54 1.396 . S
C53 C63 1.510 . S
C54 C50 1.401 . S
C54 C53 1.396 . S
C55 C50 1.499 . S
C55 H56 0.959 . S
C55 H57 0.960 . S
C55 H58 0.961 . S
H56 C55 0.959 . S
H57 C55 0.960 . S
H58 C55 0.961 . S
O59 Co34 1.967 . S
O59 C67 1.258 . S
O60 Co35 1.941 . S
O60 C67 1.266 . S
H61 C63 0.959 . S
H62 C63 0.961 . S
C63 C53 1.510 . S
C63 H61 0.959 . S
C63 H62 0.961 . S
C63 H64 0.960 . S
H64 C63 0.960 . S
H65 N45 0.862 . S
O66 Co34 1.920 . S
O66 C39 1.289 . S
C67 O59 1.258 . S
C67 O60 1.266 . S
Co68 O71 1.970 . S
Co68 N85 1.989 . S
Co68 O93 1.967 . S
Co68 O100 1.920 . S
Co69 O72 1.966 . S
Co69 N78 2.022 . S
Co69 N86 1.993 . S
Co69 O94 1.941 . S
C70 O71 1.268 . S
C70 O72 1.254 1_655 S
O71 Co68 1.970 . S
O71 C70 1.268 . S
O72 Co69 1.966 . S
O72 C70 1.254 1_455 S
C73 O74 1.235 . S
C73 O100 1.289 . S
O74 C73 1.235 . S
C75 C77 1.400 . S
C75 N78 1.351 . S
C75 C80 1.501 . S
C76 C77 1.387 . S
C76 N79 1.341 . S
C77 C75 1.400 . S
C77 C76 1.387 . S
N78 Co69 2.022 . S
N78 C75 1.351 . S
N78 N79 1.365 . S
N79 C76 1.341 . S
N79 N78 1.365 . S
N79 H99 0.862 . S
C80 C75 1.501 . S
C80 H81 0.961 . S
C80 H82 0.961 . S
C80 H83 0.960 . S
H81 C80 0.961 . S
H82 C80 0.961 . S
H83 C80 0.960 . S
C84 N85 1.342 . S
C84 C88 1.398 1_655 S
C84 C89 1.499 . S
N85 Co68 1.989 . S
N85 C84 1.342 . S
N85 N86 1.388 1_655 S
N86 Co69 1.993 . S
N86 N85 1.388 1_455 S
N86 C87 1.346 . S
C87 N86 1.346 . S
C87 C88 1.399 . S
C87 C97 1.510 . S
C88 C84 1.398 1_455 S
C88 C87 1.399 . S
C89 C84 1.499 . S
C89 H90 0.959 . S
C89 H91 0.960 . S
C89 H92 0.961 . S
H90 C89 0.959 . S
H91 C89 0.960 . S
H92 C89 0.961 . S
O93 Co68 1.967 . S
O93 C101 1.258 . S
O94 Co69 1.941 . S
O94 C101 1.266 1_455 S
H95 C97 0.959 . S
H96 C97 0.961 . S
C97 C87 1.510 . S
C97 H95 0.959 . S
C97 H96 0.961 . S
C97 H98 0.960 . S
H98 C97 0.960 . S
H99 N79 0.862 . S
O100 Co68 1.920 . S
O100 C73 1.289 . S
C101 O93 1.258 . S
C101 O94 1.266 1_655 S
Co102 O105 1.970 . S
Co102 N119 1.989 . S
Co102 O127 1.967 . S
Co102 O134 1.920 . S
Co103 O106 1.966 . S
Co103 N112 2.022 . S
Co103 N120 1.993 . S
Co103 O128 1.941 . S
C104 O105 1.258 . S
C104 O106 1.263 . S
O105 Co102 1.970 . S
O105 C104 1.258 . S
O106 Co103 1.966 . S
O106 C104 1.263 . S
C107 O108 1.235 . S
C107 O134 1.289 . S
O108 C107 1.235 . S
C109 C111 1.400 . S
C109 N112 1.351 . S
C109 C114 1.501 . S
C110 C111 1.387 . S
C110 N113 1.341 . S
C111 C109 1.400 . S
C111 C110 1.387 . S
N112 Co103 2.022 . S
N112 C109 1.351 . S
N112 N113 1.365 . S
N113 C110 1.341 . S
N113 N112 1.365 . S
N113 H133 0.862 . S
C114 C109 1.501 . S
C114 H115 0.961 . S
C114 H116 0.961 . S
C114 H117 0.960 . S
H115 C114 0.961 . S
H116 C114 0.961 . S
H117 C114 0.960 . S
C118 N119 1.342 . S
C118 C122 1.401 . S
C118 C123 1.499 . S
N119 Co102 1.989 . S
N119 C118 1.342 . S
N119 N120 1.388 . S
N120 Co103 1.993 . S
N120 N119 1.388 . S
N120 C121 1.346 . S
C121 N120 1.346 . S
C121 C122 1.396 . S
C121 C131 1.510 . S
C122 C118 1.401 . S
C122 C121 1.396 . S
C123 C118 1.499 . S
C123 H124 0.959 . S
C123 H125 0.960 . S
C123 H126 0.961 . S
H124 C123 0.959 . S
H125 C123 0.960 . S
H126 C123 0.961 . S
O127 Co102 1.967 . S
O127 C135 1.258 . S
O128 Co103 1.941 . S
O128 C135 1.266 . S
H129 C131 0.959 . S
H130 C131 0.961 . S
C131 C121 1.510 . S
C131 H129 0.959 . S
C131 H130 0.961 . S
C131 H132 0.960 . S
H132 C131 0.960 . S
H133 N113 0.862 . S
O134 Co102 1.920 . S
O134 C107 1.289 . S
C135 O127 1.258 . S
C135 O128 1.266 . S
Co136 O139 1.970 . S
Co136 N153 1.989 . S
Co136 O161 1.967 . S
Co136 O168 1.920 . S
Co137 O140 1.966 . S
Co137 N146 2.022 . S
Co137 N154 1.993 . S
Co137 O162 1.941 . S
C138 O139 1.258 . S
C138 O140 1.263 . S
O139 Co136 1.970 . S
O139 C138 1.258 . S
O140 Co137 1.966 . S
O140 C138 1.263 . S
C141 O142 1.235 . S
C141 O168 1.289 . S
O142 C141 1.235 . S
C143 C145 1.400 . S
C143 N146 1.351 . S
C143 C148 1.501 . S
C144 C145 1.387 . S
C144 N147 1.341 . S
C145 C143 1.400 . S
C145 C144 1.387 . S
N146 Co137 2.022 . S
N146 C143 1.351 . S
N146 N147 1.365 . S
N147 C144 1.341 . S
N147 N146 1.365 . S
N147 H167 0.862 . S
C148 C143 1.501 . S
C148 H149 0.961 . S
C148 H150 0.961 . S
C148 H151 0.960 . S
H149 C148 0.961 . S
H150 C148 0.961 . S
H151 C148 0.960 . S
C152 N153 1.342 . S
C152 C156 1.401 . S
C152 C157 1.499 . S
N153 Co136 1.989 . S
N153 C152 1.342 . S
N153 N154 1.388 . S
N154 Co137 1.993 . S
N154 N153 1.388 . S
N154 C155 1.346 . S
C155 N154 1.346 . S
C155 C156 1.396 . S
C155 C165 1.510 . S
C156 C152 1.401 . S
C156 C155 1.396 . S
C157 C152 1.499 . S
C157 H158 0.959 . S
C157 H159 0.960 . S
C157 H160 0.961 . S
H158 C157 0.959 . S
H159 C157 0.960 . S
H160 C157 0.961 . S
O161 Co136 1.967 . S
O161 C169 1.258 . S
O162 Co137 1.941 . S
O162 C169 1.266 . S
H163 C165 0.959 . S
H164 C165 0.961 . S
C165 C155 1.510 . S
C165 H163 0.959 . S
C165 H164 0.961 . S
C165 H166 0.960 . S
H166 C165 0.960 . S
H167 N147 0.862 . S
O168 Co136 1.920 . S
O168 C141 1.289 . S
C169 O161 1.258 . S
C169 O162 1.266 . S
Co170 O173 1.970 . S
Co170 N187 1.989 . S
Co170 O195 1.967 . S
Co170 O202 1.920 . S
Co171 O174 1.966 . S
Co171 N180 2.022 . S
Co171 N188 1.993 . S
Co171 O196 1.941 . S
C172 O173 1.258 . S
C172 O174 1.263 1_455 S
O173 Co170 1.970 . S
O173 C172 1.258 . S
O174 Co171 1.966 . S
O174 C172 1.263 1_655 S
C175 O176 1.235 . S
C175 O202 1.289 . S
O176 C175 1.235 . S
C177 C179 1.400 . S
C177 N180 1.351 . S
C177 C182 1.501 . S
C178 C179 1.387 . S
C178 N181 1.341 . S
C179 C177 1.400 . S
C179 C178 1.387 . S
N180 Co171 2.022 . S
N180 C177 1.351 . S
N180 N181 1.365 . S
N181 C178 1.341 . S
N181 N180 1.365 . S
N181 H201 0.862 . S
C182 C177 1.501 . S
C182 H183 0.961 . S
C182 H184 0.961 . S
C182 H185 0.960 . S
H183 C182 0.961 . S
H184 C182 0.961 . S
H185 C182 0.960 . S
C186 N187 1.342 . S
C186 C190 1.401 . S
C186 C191 1.499 . S
N187 Co170 1.989 . S
N187 C186 1.342 . S
N187 N188 1.388 1_455 S
N188 Co171 1.993 . S
N188 N187 1.388 1_655 S
N188 C189 1.346 . S
C189 N188 1.346 . S
C189 C190 1.396 1_655 S
C189 C199 1.510 . S
C190 C186 1.401 . S
C190 C189 1.396 1_455 S
C191 C186 1.499 . S
C191 H192 0.959 . S
C191 H193 0.960 . S
C191 H194 0.961 . S
H192 C191 0.959 . S
H193 C191 0.960 . S
H194 C191 0.961 . S
O195 Co170 1.967 . S
O195 C203 1.258 . S
O196 Co171 1.941 . S
O196 C203 1.266 1_655 S
H197 C199 0.959 . S
H198 C199 0.961 . S
C199 C189 1.510 . S
C199 H197 0.959 . S
C199 H198 0.961 . S
C199 H200 0.960 . S
H200 C199 0.960 . S
H201 N181 0.862 . S
O202 Co170 1.920 . S
O202 C175 1.289 . S
C203 O195 1.258 . S
C203 O196 1.266 1_455 S
Co204 O207 1.970 . S
Co204 N221 1.989 . S
Co204 O229 1.967 . S
Co204 O236 1.920 . S
Co205 O208 1.966 . S
Co205 N214 2.022 . S
Co205 N222 1.993 . S
Co205 O230 1.941 . S
C206 O207 1.258 . S
C206 O208 1.263 . S
O207 Co204 1.970 . S
O207 C206 1.258 . S
O208 Co205 1.966 . S
O208 C206 1.263 . S
C209 O210 1.235 . S
C209 O236 1.289 . S
O210 C209 1.235 . S
C211 C213 1.400 . S
C211 N214 1.351 . S
C211 C216 1.501 . S
C212 C213 1.387 . S
C212 N215 1.341 . S
C213 C211 1.400 . S
C213 C212 1.387 . S
N214 Co205 2.022 . S
N214 C211 1.351 . S
N214 N215 1.365 . S
N215 C212 1.341 . S
N215 N214 1.365 . S
N215 H235 0.862 . S
C216 C211 1.501 . S
C216 H217 0.961 . S
C216 H218 0.961 . S
C216 H219 0.960 . S
H217 C216 0.961 . S
H218 C216 0.961 . S
H219 C216 0.960 . S
C220 N221 1.342 . S
C220 C224 1.401 . S
C220 C225 1.499 . S
N221 Co204 1.989 . S
N221 C220 1.342 . S
N221 N222 1.388 . S
N222 Co205 1.993 . S
N222 N221 1.388 . S
N222 C223 1.346 . S
C223 N222 1.346 . S
C223 C224 1.396 . S
C223 C233 1.510 . S
C224 C220 1.401 . S
C224 C223 1.396 . S
C225 C220 1.499 . S
C225 H226 0.959 . S
C225 H227 0.960 . S
C225 H228 0.961 . S
H226 C225 0.959 . S
H227 C225 0.960 . S
H228 C225 0.961 . S
O229 Co204 1.967 . S
O229 C237 1.258 . S
O230 Co205 1.941 . S
O230 C237 1.266 . S
H231 C233 0.959 . S
H232 C233 0.961 . S
C233 C223 1.510 . S
C233 H231 0.959 . S
C233 H232 0.961 . S
C233 H234 0.960 . S
H234 C233 0.960 . S
H235 N215 0.862 . S
O236 Co204 1.920 . S
O236 C209 1.289 . S
C237 O229 1.258 . S
C237 O230 1.266 . S
Co238 O241 1.970 . S
Co238 N255 1.989 . S
Co238 O263 1.967 . S
Co238 O270 1.920 . S
Co239 O242 1.966 . S
Co239 N248 2.022 . S
Co239 N256 1.993 . S
Co239 O264 1.941 . S
C240 O241 1.258 . S
C240 O242 1.263 1_455 S
O241 Co238 1.970 . S
O241 C240 1.258 . S
O242 Co239 1.966 . S
O242 C240 1.263 1_655 S
C243 O244 1.235 . S
C243 O270 1.289 . S
O244 C243 1.235 . S
C245 C247 1.400 . S
C245 N248 1.351 . S
C245 C250 1.501 . S
C246 C247 1.387 . S
C246 N249 1.341 . S
C247 C245 1.400 . S
C247 C246 1.387 . S
N248 Co239 2.022 . S
N248 C245 1.351 . S
N248 N249 1.365 . S
N249 C246 1.341 . S
N249 N248 1.365 . S
N249 H269 0.862 . S
C250 C245 1.501 . S
C250 H251 0.961 . S
C250 H252 0.961 . S
C250 H253 0.960 . S
H251 C250 0.961 . S
H252 C250 0.961 . S
H253 C250 0.960 . S
C254 N255 1.342 . S
C254 C258 1.401 . S
C254 C259 1.499 . S
N255 Co238 1.989 . S
N255 C254 1.342 . S
N255 N256 1.388 1_455 S
N256 Co239 1.993 . S
N256 N255 1.388 1_655 S
N256 C257 1.346 . S
C257 N256 1.346 . S
C257 C258 1.396 1_655 S
C257 C267 1.510 . S
C258 C254 1.401 . S
C258 C257 1.396 1_455 S
C259 C254 1.499 . S
C259 H260 0.959 . S
C259 H261 0.960 . S
C259 H262 0.961 . S
H260 C259 0.959 . S
H261 C259 0.960 . S
H262 C259 0.961 . S
O263 Co238 1.967 . S
O263 C271 1.258 . S
O264 Co239 1.941 . S
O264 C271 1.266 1_655 S
H265 C267 0.959 . S
H266 C267 0.961 . S
C267 C257 1.510 . S
C267 H265 0.959 . S
C267 H266 0.961 . S
C267 H268 0.960 . S
H268 C267 0.960 . S
H269 N249 0.862 . S
O270 Co238 1.920 . S
O270 C243 1.289 . S
C271 O263 1.258 . S
C271 O264 1.266 1_455 S
H272 C280 0.929 . S
H273 C282 0.930 . S
H274 C284 0.930 . S
H275 C287 0.929 . S
H276 C290 0.930 . S
H277 C292 0.960 . S
H278 C292 0.960 1_556 S
H279 C292 0.960 . S
C280 H272 0.929 . S
C280 C281 1.377 . S
C280 C282 1.384 . S
C281 C280 1.377 . S
C281 C287 1.390 1_455 S
C282 H273 0.930 . S
C282 C280 1.384 . S
C282 C283 1.372 . S
C283 C282 1.372 . S
C283 C284 1.400 1_455 S
C283 C288 1.490 . S
C284 H274 0.930 . S
C284 C283 1.400 1_655 S
C284 C287 1.386 . S
H285 C301 0.930 . S
H286 C302 0.931 . S
C287 H275 0.929 . S
C287 C281 1.390 1_655 S
C287 C284 1.386 . S
C288 C283 1.490 . S
C288 C290 1.383 1_465 S
C288 C291 1.417 . S
H289 C295 0.930 . S
C290 H276 0.930 . S
C290 C288 1.383 1_645 S
C290 C293 1.403 . S
C291 C288 1.417 . S
C291 C292 1.523 1_556 S
C291 C295 1.397 1_566 S
C292 H277 0.960 . S
C292 H278 0.960 1_554 S
C292 H279 0.960 . S
C292 C291 1.523 1_554 S
C293 C290 1.403 . S
C293 C294 1.392 1_556 S
C293 C297 1.495 . S
C294 C293 1.392 1_554 S
C294 C295 1.385 1_655 S
C294 C296 1.478 . S
C295 H289 0.930 . S
C295 C291 1.397 1_544 S
C295 C294 1.385 1_455 S
C296 C294 1.478 . S
C296 C298 1.381 1_655 S
C296 C302 1.383 . S
C297 C293 1.495 . S
C297 H303 0.959 . S
C297 H304 0.961 1_556 S
C297 H305 0.960 . S
C298 C296 1.381 1_455 S
C298 C299 1.394 . S
C298 H306 0.930 . S
C299 C298 1.394 . S
C299 C300 1.383 1_455 S
C299 H307 0.929 . S
C300 C299 1.383 1_655 S
C300 C301 1.377 . S
C301 H285 0.930 . S
C301 C300 1.377 . S
C301 C302 1.379 . S
C302 H286 0.931 . S
C302 C296 1.383 . S
C302 C301 1.379 . S
H303 C297 0.959 . S
H304 C297 0.961 1_554 S
H305 C297 0.960 . S
H306 C298 0.930 . S
H307 C299 0.929 . S
H308 C316 0.929 . S
H309 C318 0.930 . S
H310 C320 0.930 . S
H311 C323 0.929 . S
H312 C326 0.930 . S
H313 C328 0.960 . S
H314 C328 0.960 . S
H315 C328 0.960 . S
C316 H308 0.929 . S
C316 C317 1.377 . S
C316 C318 1.384 . S
C317 C316 1.377 . S
C317 C323 1.390 . S
C318 H309 0.930 . S
C318 C316 1.384 . S
C318 C319 1.372 . S
C319 C318 1.372 . S
C319 C320 1.400 . S
C319 C324 1.490 . S
C320 H310 0.930 . S
C320 C319 1.400 . S
C320 C323 1.386 . S
H321 C337 0.930 . S
H322 C338 0.931 . S
C323 H311 0.929 . S
C323 C317 1.390 . S
C323 C320 1.386 . S
C324 C319 1.490 . S
C324 C326 1.395 . S
C324 C327 1.403 1_545 S
H325 C331 0.930 . S
C326 H312 0.930 . S
C326 C324 1.395 . S
C326 C329 1.403 . S
C327 C324 1.403 1_565 S
C327 C328 1.524 . S
C327 C331 1.400 . S
C328 H313 0.960 . S
C328 H314 0.960 . S
C328 H315 0.960 . S
C328 C327 1.524 . S
C329 C326 1.403 . S
C329 C330 1.392 1_545 S
C329 C333 1.495 . S
C330 C329 1.392 1_565 S
C330 C331 1.385 . S
C330 C332 1.478 . S
C331 H325 0.930 . S
C331 C327 1.400 . S
C331 C330 1.385 . S
C332 C330 1.478 . S
C332 C334 1.381 . S
C332 C338 1.383 . S
C333 C329 1.495 . S
C333 H339 0.959 . S
C333 H340 0.961 . S
C333 H341 0.960 . S
C334 C332 1.381 . S
C334 C335 1.394 . S
C334 H342 0.930 . S
C335 C334 1.394 . S
C335 C336 1.383 . S
C335 H343 0.929 . S
C336 C335 1.383 . S
C336 C337 1.377 . S
C337 H321 0.930 . S
C337 C336 1.377 . S
C337 C338 1.379 . S
C338 H322 0.931 . S
C338 C332 1.383 . S
C338 C337 1.379 . S
H339 C333 0.959 . S
H340 C333 0.961 . S
H341 C333 0.960 . S
H342 C334 0.930 . S
H343 C335 0.929 . S
H344 C352 0.929 . S
H345 C354 0.930 . S
H346 C356 0.930 . S
H347 C359 0.929 . S
H348 C362 0.930 . S
H349 C364 0.960 . S
H350 C364 0.960 . S
H351 C364 0.960 1_554 S
C352 H344 0.929 . S
C352 C353 1.377 . S
C352 C354 1.384 . S
C353 C352 1.377 . S
C353 C359 1.390 . S
C354 H345 0.930 . S
C354 C352 1.384 . S
C354 C355 1.372 . S
C355 C354 1.372 . S
C355 C356 1.400 . S
C355 C360 1.490 . S
C356 H346 0.930 . S
C356 C355 1.400 . S
C356 C359 1.386 . S
H357 C373 0.930 . S
H358 C374 0.931 . S
C359 H347 0.929 . S
C359 C353 1.390 . S
C359 C356 1.386 . S
C360 C355 1.490 . S
C360 C362 1.395 . S
C360 C363 1.403 1_554 S
H361 C367 0.930 . S
C362 H348 0.930 . S
C362 C360 1.395 . S
C362 C365 1.403 . S
C363 C360 1.403 1_556 S
C363 C364 1.524 . S
C363 C367 1.400 . S
C364 H349 0.960 . S
C364 H350 0.960 . S
C364 H351 0.960 1_556 S
C364 C363 1.524 . S
C365 C362 1.403 . S
C365 C366 1.392 1_554 S
C365 C369 1.495 . S
C366 C365 1.392 1_556 S
C366 C367 1.385 . S
C366 C368 1.478 . S
C367 H361 0.930 . S
C367 C363 1.400 . S
C367 C366 1.385 . S
C368 C366 1.478 . S
C368 C370 1.381 . S
C368 C374 1.383 . S
C369 C365 1.495 . S
C369 H375 0.959 . S
C369 H376 0.961 . S
C369 H377 0.960 1_554 S
C370 C368 1.381 . S
C370 C371 1.394 . S
C370 H378 0.930 . S
C371 C370 1.394 . S
C371 C372 1.383 . S
C371 H379 0.929 . S
C372 C371 1.383 . S
C372 C373 1.377 . S
C373 H357 0.930 . S
C373 C372 1.377 . S
C373 C374 1.379 . S
C374 H358 0.931 . S
C374 C368 1.383 . S
C374 C373 1.379 . S
H375 C369 0.959 . S
H376 C369 0.961 . S
H377 C369 0.960 1_556 S
H378 C370 0.930 . S
H379 C371 0.929 . S
H380 C388 0.929 . S
H381 C390 0.930 . S
H382 C392 0.930 . S
H383 C395 0.929 . S
H384 C398 0.930 . S
H385 C400 0.960 . S
H386 C400 0.927 1_655 S
H387 C400 0.990 . S
C388 H380 0.929 . S
C388 C389 1.377 1_655 S
C388 C390 1.384 . S
C389 C388 1.377 1_455 S
C389 C395 1.390 . S
C390 H381 0.930 . S
C390 C388 1.384 . S
C390 C391 1.372 1_655 S
C391 C390 1.372 1_455 S
C391 C392 1.400 . S
C391 C396 1.490 . S
C392 H382 0.930 . S
C392 C391 1.400 . S
C392 C395 1.386 . S
H393 C409 0.930 . S
H394 C410 0.931 . S
C395 H383 0.929 . S
C395 C389 1.390 . S
C395 C392 1.386 . S
C396 C391 1.490 . S
C396 C398 1.395 . S
C396 C399 1.403 . S
H397 C403 0.930 . S
C398 H384 0.930 . S
C398 C396 1.395 . S
C398 C401 1.403 . S
C399 C396 1.403 . S
C399 C400 1.528 . S
C399 C403 1.400 . S
C400 H385 0.960 . S
C400 H386 0.927 1_455 S
C400 H387 0.990 . S
C400 C399 1.528 . S
C401 C398 1.403 . S
C401 C402 1.392 . S
C401 C405 1.495 . S
C402 C401 1.392 . S
C402 C403 1.385 . S
C402 C404 1.478 . S
C403 H397 0.930 . S
C403 C399 1.400 . S
C403 C402 1.385 . S
C404 C402 1.478 . S
C404 C406 1.381 1_455 S
C404 C410 1.383 . S
C405 C401 1.495 . S
C405 H411 0.959 . S
C405 H412 0.961 . S
C405 H413 0.960 1_455 S
C406 C404 1.381 1_655 S
C406 C407 1.394 . S
C406 H414 0.930 . S
C407 C406 1.394 . S
C407 C408 1.383 1_655 S
C407 H415 0.929 . S
C408 C407 1.383 1_455 S
C408 C409 1.377 . S
C409 H393 0.930 . S
C409 C408 1.377 . S
C409 C410 1.379 . S
C410 H394 0.931 . S
C410 C404 1.383 . S
C410 C409 1.379 . S
H411 C405 0.959 . S
H412 C405 0.961 . S
H413 C405 0.960 1_655 S
H414 C406 0.930 . S
H415 C407 0.929 . S
H416 C424 0.929 . S
H417 C426 0.930 . S
H418 C428 0.930 . S
H419 C431 0.929 . S
H420 C434 0.930 . S
H421 C436 0.960 . S
H422 C436 0.960 . S
H423 C436 0.960 . S
C424 H416 0.929 . S
C424 C425 1.377 . S
C424 C426 1.384 . S
C425 C424 1.377 . S
C425 C431 1.390 . S
C426 H417 0.930 . S
C426 C424 1.384 . S
C426 C427 1.372 . S
C427 C426 1.372 . S
C427 C428 1.400 . S
C427 C432 1.490 . S
C428 H418 0.930 . S
C428 C427 1.400 . S
C428 C431 1.386 . S
H429 C445 0.930 . S
H430 C446 0.931 . S
C431 H419 0.929 . S
C431 C425 1.390 . S
C431 C428 1.386 . S
C432 C427 1.490 . S
C432 C434 1.395 . S
C432 C435 1.403 . S
H433 C439 0.930 . S
C434 H420 0.930 . S
C434 C432 1.395 . S
C434 C437 1.403 . S
C435 C432 1.403 . S
C435 C436 1.524 . S
C435 C439 1.400 . S
C436 H421 0.960 . S
C436 H422 0.960 . S
C436 H423 0.960 . S
C436 C435 1.524 . S
C437 C434 1.403 . S
C437 C438 1.392 . S
C437 C441 1.495 . S
C438 C437 1.392 . S
C438 C439 1.385 . S
C438 C440 1.478 . S
C439 H433 0.930 . S
C439 C435 1.400 . S
C439 C438 1.385 . S
C440 C438 1.478 . S
C440 C442 1.381 . S
C440 C446 1.383 . S
C441 C437 1.495 . S
C441 H447 0.959 . S
C441 H448 0.961 . S
C441 H449 0.960 . S
C442 C440 1.381 . S
C442 C443 1.394 . S
C442 H450 0.930 . S
C443 C442 1.394 . S
C443 C444 1.383 . S
C443 H451 0.929 . S
C444 C443 1.383 . S
C444 C445 1.377 . S
C445 H429 0.930 . S
C445 C444 1.377 . S
C445 C446 1.379 . S
C446 H430 0.931 . S
C446 C440 1.383 . S
C446 C445 1.379 . S
H447 C441 0.959 . S
H448 C441 0.961 . S
H449 C441 0.960 . S
H450 C442 0.930 . S
H451 C443 0.929 . S
H452 C460 0.929 . S
H453 C462 0.930 . S
H454 C464 0.930 . S
H455 C467 0.929 . S
H456 C470 0.930 . S
H457 C472 0.960 . S
H458 C472 0.960 . S
H459 C472 0.960 . S
C460 H452 0.929 . S
C460 C461 1.377 . S
C460 C462 1.384 . S
C461 C460 1.377 . S
C461 C467 1.390 . S
C462 H453 0.930 . S
C462 C460 1.384 . S
C462 C463 1.372 . S
C463 C462 1.372 . S
C463 C464 1.400 . S
C463 C468 1.490 . S
C464 H454 0.930 . S
C464 C463 1.400 . S
C464 C467 1.386 . S
H465 C481 0.930 . S
H466 C482 0.931 . S
C467 H455 0.929 . S
C467 C461 1.390 . S
C467 C464 1.386 . S
C468 C463 1.490 . S
C468 C470 1.395 . S
C468 C471 1.403 . S
H469 C475 0.930 . S
C470 H456 0.930 . S
C470 C468 1.395 . S
C470 C473 1.403 . S
C471 C468 1.403 . S
C471 C472 1.524 . S
C471 C475 1.400 . S
C472 H457 0.960 . S
C472 H458 0.960 . S
C472 H459 0.960 . S
C472 C471 1.524 . S
C473 C470 1.403 . S
C473 C474 1.392 . S
C473 C477 1.495 . S
C474 C473 1.392 . S
C474 C475 1.385 . S
C474 C476 1.478 . S
C475 H469 0.930 . S
C475 C471 1.400 . S
C475 C474 1.385 . S
C476 C474 1.478 . S
C476 C478 1.381 . S
C476 C482 1.383 . S
C477 C473 1.495 . S
C477 H483 0.959 . S
C477 H484 0.961 . S
C477 H485 0.960 . S
C478 C476 1.381 . S
C478 C479 1.394 . S
C478 H486 0.930 . S
C479 C478 1.394 . S
C479 C480 1.383 . S
C479 H487 0.929 . S
C480 C479 1.383 . S
C480 C481 1.377 . S
C481 H465 0.930 . S
C481 C480 1.377 . S
C481 C482 1.379 . S
C482 H466 0.931 . S
C482 C476 1.383 . S
C482 C481 1.379 . S
H483 C477 0.959 . S
H484 C477 0.961 . S
H485 C477 0.960 . S
H486 C478 0.930 . S
H487 C479 0.929 . S
H488 C496 0.929 . S
H489 C498 0.930 . S
H490 C500 0.930 . S
H491 C503 0.929 . S
H492 C506 0.930 . S
H493 C508 0.960 . S
H494 C508 0.960 . S
H495 C508 0.960 . S
C496 H488 0.929 . S
C496 C497 1.377 . S
C496 C498 1.384 . S
C497 C496 1.377 . S
C497 C503 1.390 . S
C498 H489 0.930 . S
C498 C496 1.384 . S
C498 C499 1.372 . S
C499 C498 1.372 . S
C499 C500 1.400 . S
C499 C504 1.490 . S
C500 H490 0.930 . S
C500 C499 1.400 . S
C500 C503 1.386 . S
H501 C517 0.930 . S
H502 C518 0.931 . S
C503 H491 0.929 . S
C503 C497 1.390 . S
C503 C500 1.386 . S
C504 C499 1.490 . S
C504 C506 1.395 . S
C504 C507 1.403 . S
H505 C511 0.930 . S
C506 H492 0.930 . S
C506 C504 1.395 . S
C506 C509 1.403 . S
C507 C504 1.403 . S
C507 C508 1.524 . S
C507 C511 1.400 . S
C508 H493 0.960 . S
C508 H494 0.960 . S
C508 H495 0.960 . S
C508 C507 1.524 . S
C509 C506 1.403 . S
C509 C510 1.392 . S
C509 C513 1.495 . S
C510 C509 1.392 . S
C510 C511 1.385 . S
C510 C512 1.478 . S
C511 H505 0.930 . S
C511 C507 1.400 . S
C511 C510 1.385 . S
C512 C510 1.478 . S
C512 C514 1.381 . S
C512 C518 1.383 . S
C513 C509 1.495 . S
C513 H519 0.959 . S
C513 H520 0.961 . S
C513 H521 0.960 . S
C514 C512 1.381 . S
C514 C515 1.394 . S
C514 H522 0.930 . S
C515 C514 1.394 . S
C515 C516 1.383 . S
C515 H523 0.929 . S
C516 C515 1.383 . S
C516 C517 1.377 . S
C517 H501 0.930 . S
C517 C516 1.377 . S
C517 C518 1.379 . S
C518 H502 0.931 . S
C518 C512 1.383 . S
C518 C517 1.379 . S
H519 C513 0.959 . S
H520 C513 0.961 . S
H521 C513 0.960 . S
H522 C514 0.930 . S
H523 C515 0.929 . S
H524 C532 0.929 . S
H525 C534 0.930 . S
H526 C536 0.930 . S
H527 C539 0.929 . S
H528 C542 0.930 . S
H529 C544 0.960 . S
H530 C544 0.960 . S
H531 C544 0.960 . S
C532 H524 0.929 . S
C532 C533 1.377 . S
C532 C534 1.384 . S
C533 C532 1.377 . S
C533 C539 1.390 . S
C534 H525 0.930 . S
C534 C532 1.384 . S
C534 C535 1.372 . S
C535 C534 1.372 . S
C535 C536 1.400 . S
C535 C540 1.490 . S
C536 H526 0.930 . S
C536 C535 1.400 . S
C536 C539 1.386 . S
H537 C553 0.930 . S
H538 C554 0.931 . S
C539 H527 0.929 . S
C539 C533 1.390 . S
C539 C536 1.386 . S
C540 C535 1.490 . S
C540 C542 1.395 . S
C540 C543 1.403 . S
H541 C547 0.930 . S
C542 H528 0.930 . S
C542 C540 1.395 . S
C542 C545 1.403 . S
C543 C540 1.403 . S
C543 C544 1.524 . S
C543 C547 1.400 . S
C544 H529 0.960 . S
C544 H530 0.960 . S
C544 H531 0.960 . S
C544 C543 1.524 . S
C545 C542 1.403 . S
C545 C546 1.392 . S
C545 C549 1.495 . S
C546 C545 1.392 . S
C546 C547 1.385 . S
C546 C548 1.478 . S
C547 H541 0.930 . S
C547 C543 1.400 . S
C547 C546 1.385 . S
C548 C546 1.478 . S
C548 C550 1.381 . S
C548 C554 1.383 . S
C549 C545 1.495 . S
C549 H555 0.959 . S
C549 H556 0.961 . S
C549 H557 0.960 . S
C550 C548 1.381 . S
C550 C551 1.394 . S
C550 H558 0.930 . S
C551 C550 1.394 . S
C551 C552 1.383 . S
C551 H559 0.929 . S
C552 C551 1.383 . S
C552 C553 1.377 . S
C553 H537 0.930 . S
C553 C552 1.377 . S
C553 C554 1.379 . S
C554 H538 0.931 . S
C554 C548 1.383 . S
C554 C553 1.379 . S
H555 C549 0.959 . S
H556 C549 0.961 . S
H557 C549 0.960 . S
H558 C550 0.930 . S
H559 C551 0.929 . S
H560 C568 0.929 . S
H561 C570 0.930 . S
H562 C572 0.930 . S
H563 C575 0.929 . S
H564 C578 0.930 . S
H565 C580 0.960 . S
H566 C580 0.960 . S
H567 C580 0.960 . S
C568 H560 0.929 . S
C568 C569 1.377 . S
C568 C570 1.384 . S
C569 C568 1.377 . S
C569 C575 1.390 . S
C570 H561 0.930 . S
C570 C568 1.384 . S
C570 C571 1.372 . S
C571 C570 1.372 . S
C571 C572 1.400 . S
C571 C576 1.490 . S
C572 H562 0.930 . S
C572 C571 1.400 . S
C572 C575 1.386 . S
H573 C589 0.930 . S
H574 C590 0.931 . S
C575 H563 0.929 . S
C575 C569 1.390 . S
C575 C572 1.386 . S
C576 C571 1.490 . S
C576 C578 1.395 . S
C576 C579 1.403 . S
H577 C583 0.930 . S
C578 H564 0.930 . S
C578 C576 1.395 . S
C578 C581 1.403 . S
C579 C576 1.403 . S
C579 C580 1.524 . S
C579 C583 1.400 . S
C580 H565 0.960 . S
C580 H566 0.960 . S
C580 H567 0.960 . S
C580 C579 1.524 . S
C581 C578 1.403 . S
C581 C582 1.392 . S
C581 C585 1.495 . S
C582 C581 1.392 . S
C582 C583 1.385 . S
C582 C584 1.478 . S
C583 H577 0.930 . S
C583 C579 1.400 . S
C583 C582 1.385 . S
C584 C582 1.478 . S
C584 C586 1.381 . S
C584 C590 1.383 . S
C585 C581 1.495 . S
C585 H591 0.959 . S
C585 H592 0.961 . S
C585 H593 0.960 . S
C586 C584 1.381 . S
C586 C587 1.394 . S
C586 H594 0.930 . S
C587 C586 1.394 . S
C587 C588 1.383 . S
C587 H595 0.929 . S
C588 C587 1.383 . S
C588 C589 1.377 . S
C589 H573 0.930 . S
C589 C588 1.377 . S
C589 C590 1.379 . S
C590 H574 0.931 . S
C590 C584 1.383 . S
C590 C589 1.379 . S
H591 C585 0.959 . S
H592 C585 0.961 . S
H593 C585 0.960 . S
H594 C586 0.930 . S
H595 C587 0.929 . S
H596 C604 0.929 . S
H597 C606 0.930 . S
H598 C608 0.930 . S
H599 C611 0.929 . S
H600 C614 0.930 . S
H601 C616 0.960 . S
H602 C616 0.960 . S
H603 C616 0.960 . S
C604 H596 0.929 . S
C604 C605 1.377 . S
C604 C606 1.384 . S
C605 C604 1.377 . S
C605 C611 1.390 . S
C606 H597 0.930 . S
C606 C604 1.384 . S
C606 C607 1.372 . S
C607 C606 1.372 . S
C607 C608 1.400 . S
C607 C612 1.490 . S
C608 H598 0.930 . S
C608 C607 1.400 . S
C608 C611 1.386 . S
H609 C625 0.930 . S
H610 C626 0.931 . S
C611 H599 0.929 . S
C611 C605 1.390 . S
C611 C608 1.386 . S
C612 C607 1.490 . S
C612 C614 1.395 . S
C612 C615 1.403 . S
H613 C619 0.930 . S
C614 H600 0.930 . S
C614 C612 1.395 . S
C614 C617 1.403 . S
C615 C612 1.403 . S
C615 C616 1.524 . S
C615 C619 1.400 . S
C616 H601 0.960 . S
C616 H602 0.960 . S
C616 H603 0.960 . S
C616 C615 1.524 . S
C617 C614 1.403 . S
C617 C618 1.392 . S
C617 C621 1.495 . S
C618 C617 1.392 . S
C618 C619 1.385 . S
C618 C620 1.478 . S
C619 H613 0.930 . S
C619 C615 1.400 . S
C619 C618 1.385 . S
C620 C618 1.478 . S
C620 C622 1.381 . S
C620 C626 1.383 . S
C621 C617 1.495 . S
C621 H627 0.959 . S
C621 H628 0.961 . S
C621 H629 0.960 . S
C622 C620 1.381 . S
C622 C623 1.394 . S
C622 H630 0.930 . S
C623 C622 1.394 . S
C623 C624 1.383 . S
C623 H631 0.929 . S
C624 C623 1.383 . S
C624 C625 1.377 . S
C625 H609 0.930 . S
C625 C624 1.377 . S
C625 C626 1.379 . S
C626 H610 0.931 . S
C626 C620 1.383 . S
C626 C625 1.379 . S
H627 C621 0.959 . S
H628 C621 0.961 . S
H629 C621 0.960 . S
H630 C622 0.930 . S
H631 C623 0.929 . S
H632 C640 0.929 . S
H633 C642 0.930 . S
H634 C644 0.930 . S
H635 C647 0.929 . S
H636 C650 0.930 . S
H637 C652 0.960 . S
H638 C652 0.960 . S
H639 C652 0.960 . S
C640 H632 0.929 . S
C640 C641 1.377 . S
C640 C642 1.384 . S
C641 C640 1.377 . S
C641 C647 1.390 . S
C642 H633 0.930 . S
C642 C640 1.384 . S
C642 C643 1.372 . S
C643 C642 1.372 . S
C643 C644 1.400 . S
C643 C648 1.490 . S
C644 H634 0.930 . S
C644 C643 1.400 . S
C644 C647 1.386 . S
H645 C661 0.930 . S
H646 C662 0.931 . S
C647 H635 0.929 . S
C647 C641 1.390 . S
C647 C644 1.386 . S
C648 C643 1.490 . S
C648 C650 1.395 . S
C648 C651 1.403 . S
H649 C655 0.930 . S
C650 H636 0.930 . S
C650 C648 1.395 . S
C650 C653 1.403 . S
C651 C648 1.403 . S
C651 C652 1.524 . S
C651 C655 1.400 . S
C652 H637 0.960 . S
C652 H638 0.960 . S
C652 H639 0.960 . S
C652 C651 1.524 . S
C653 C650 1.403 . S
C653 C654 1.392 . S
C653 C657 1.495 . S
C654 C653 1.392 . S
C654 C655 1.385 . S
C654 C656 1.478 . S
C655 H649 0.930 . S
C655 C651 1.400 . S
C655 C654 1.385 . S
C656 C654 1.478 . S
C656 C658 1.381 . S
C656 C662 1.383 . S
C657 C653 1.495 . S
C657 H663 0.959 . S
C657 H664 0.961 . S
C657 H665 0.960 . S
C658 C656 1.381 . S
C658 C659 1.394 . S
C658 H666 0.930 . S
C659 C658 1.394 . S
C659 C660 1.383 . S
C659 H667 0.929 . S
C660 C659 1.383 . S
C660 C661 1.377 . S
C661 H645 0.930 . S
C661 C660 1.377 . S
C661 C662 1.379 . S
C662 H646 0.931 . S
C662 C656 1.383 . S
C662 C661 1.379 . S
H663 C657 0.959 . S
H664 C657 0.961 . S
H665 C657 0.960 . S
H666 C658 0.930 . S
H667 C659 0.929 . S
H668 C676 0.929 . S
H669 C678 0.930 . S
H670 C680 0.930 . S
H671 C683 0.929 . S
H672 C686 0.930 . S
H673 C688 0.960 . S
H674 C688 0.960 . S
H675 C688 0.960 . S
C676 H668 0.929 . S
C676 C677 1.377 . S
C676 C678 1.384 . S
C677 C676 1.377 . S
C677 C683 1.390 . S
C678 H669 0.930 . S
C678 C676 1.384 . S
C678 C679 1.372 . S
C679 C678 1.372 . S
C679 C680 1.400 . S
C679 C684 1.490 . S
C680 H670 0.930 . S
C680 C679 1.400 . S
C680 C683 1.386 . S
H681 C697 0.930 . S
H682 C698 0.931 . S
C683 H671 0.929 . S
C683 C677 1.390 . S
C683 C680 1.386 . S
C684 C679 1.490 . S
C684 C686 1.395 . S
C684 C687 1.403 . S
H685 C691 0.930 . S
C686 H672 0.930 . S
C686 C684 1.395 . S
C686 C689 1.403 . S
C687 C684 1.403 . S
C687 C688 1.524 . S
C687 C691 1.400 . S
C688 H673 0.960 . S
C688 H674 0.960 . S
C688 H675 0.960 . S
C688 C687 1.524 . S
C689 C686 1.403 . S
C689 C690 1.392 . S
C689 C693 1.495 . S
C690 C689 1.392 . S
C690 C691 1.385 . S
C690 C692 1.478 . S
C691 H685 0.930 . S
C691 C687 1.400 . S
C691 C690 1.385 . S
C692 C690 1.478 . S
C692 C694 1.381 . S
C692 C698 1.383 . S
C693 C689 1.495 . S
C693 H699 0.959 . S
C693 H700 0.961 . S
C693 H701 0.960 . S
C694 C692 1.381 . S
C694 C695 1.394 . S
C694 H702 0.930 . S
C695 C694 1.394 . S
C695 C696 1.383 . S
C695 H703 0.929 . S
C696 C695 1.383 . S
C696 C697 1.377 . S
C697 H681 0.930 . S
C697 C696 1.377 . S
C697 C698 1.379 . S
C698 H682 0.931 . S
C698 C692 1.383 . S
C698 C697 1.379 . S
H699 C693 0.959 . S
H700 C693 0.961 . S
H701 C693 0.960 . S
H702 C694 0.930 . S
H703 C695 0.929 . S
H704 C712 0.929 . S
H705 C714 0.930 . S
H706 C716 0.930 . S
H707 C719 0.929 . S
H708 C722 0.930 . S
H709 C724 0.960 . S
H710 C724 0.960 . S
H711 C724 0.960 . S
C712 H704 0.929 . S
C712 C713 1.377 . S
C712 C714 1.384 . S
C713 C712 1.377 . S
C713 C719 1.390 . S
C714 H705 0.930 . S
C714 C712 1.384 . S
C714 C715 1.372 . S
C715 C714 1.372 . S
C715 C716 1.400 . S
C715 C720 1.490 . S
C716 H706 0.930 . S
C716 C715 1.400 . S
C716 C719 1.386 . S
H717 C733 0.930 . S
H718 C734 0.931 . S
C719 H707 0.929 . S
C719 C713 1.390 . S
C719 C716 1.386 . S
C720 C715 1.490 . S
C720 C722 1.395 1_455 S
C720 C723 1.403 . S
H721 C727 0.930 . S
C722 H708 0.930 . S
C722 C720 1.395 1_655 S
C722 C725 1.403 . S
C723 C720 1.403 . S
C723 C724 1.524 . S
C723 C727 1.400 . S
C724 H709 0.960 . S
C724 H710 0.960 . S
C724 H711 0.960 . S
C724 C723 1.524 . S
C725 C722 1.403 . S
C725 C726 1.398 . S
C725 C729 1.495 1_556 S
C726 C725 1.398 . S
C726 C727 1.403 1_655 S
C726 C728 1.456 1_556 S
C727 H721 0.930 . S
C727 C723 1.400 . S
C727 C726 1.403 1_455 S
C728 C726 1.456 1_554 S
C728 C730 1.381 . S
C728 C734 1.383 . S
C729 C725 1.495 1_554 S
C729 H735 0.959 . S
C729 H736 0.961 . S
C729 H737 0.960 . S
C730 C728 1.381 . S
C730 C731 1.394 . S
C730 H738 0.932 . S
C731 C730 1.394 . S
C731 C732 1.383 . S
C731 H739 0.926 1_655 S
C732 C731 1.383 . S
C732 C733 1.377 . S
C733 H717 0.930 . S
C733 C732 1.377 . S
C733 C734 1.379 . S
C734 H718 0.931 . S
C734 C728 1.383 . S
C734 C733 1.379 . S
H735 C729 0.959 . S
H736 C729 0.961 . S
H737 C729 0.960 . S
H738 C730 0.932 . S
H739 C731 0.926 1_455 S
H740 C748 0.929 . S
H741 C750 0.930 . S
H742 C752 0.930 . S
H743 C755 0.929 . S
H744 C758 0.930 . S
H745 C760 0.960 . S
H746 C760 0.960 . S
H747 C760 0.960 . S
C748 H740 0.929 . S
C748 C749 1.377 . S
C748 C750 1.384 . S
C749 C748 1.377 . S
C749 C755 1.390 . S
C750 H741 0.930 . S
C750 C748 1.384 . S
C750 C751 1.372 . S
C751 C750 1.372 . S
C751 C752 1.400 . S
C751 C756 1.490 . S
C752 H742 0.930 . S
C752 C751 1.400 . S
C752 C755 1.386 . S
H753 C769 0.930 . S
H754 C770 0.931 . S
C755 H743 0.929 . S
C755 C749 1.390 . S
C755 C752 1.386 . S
C756 C751 1.490 . S
C756 C758 1.395 . S
C756 C759 1.403 . S
H757 C763 0.930 . S
C758 H744 0.930 . S
C758 C756 1.395 . S
C758 C761 1.403 . S
C759 C756 1.403 . S
C759 C760 1.524 . S
C759 C763 1.400 . S
C760 H745 0.960 . S
C760 H746 0.960 . S
C760 H747 0.960 . S
C760 C759 1.524 . S
C761 C758 1.403 . S
C761 C762 1.392 . S
C761 C765 1.495 . S
C762 C761 1.392 . S
C762 C763 1.385 . S
C762 C764 1.478 . S
C763 H757 0.930 . S
C763 C759 1.400 . S
C763 C762 1.385 . S
C764 C762 1.478 . S
C764 C766 1.381 . S
C764 C770 1.383 . S
C765 C761 1.495 . S
C765 H771 0.959 . S
C765 H772 0.961 . S
C765 H773 0.960 . S
C766 C764 1.381 . S
C766 C767 1.394 . S
C766 H774 0.930 . S
C767 C766 1.394 . S
C767 C768 1.383 . S
C767 H775 0.929 . S
C768 C767 1.383 . S
C768 C769 1.377 . S
C769 H753 0.930 . S
C769 C768 1.377 . S
C769 C770 1.379 . S
C770 H754 0.931 . S
C770 C764 1.383 . S
C770 C769 1.379 . S
H771 C765 0.959 . S
H772 C765 0.961 . S
H773 C765 0.960 . S
H774 C766 0.930 . S
H775 C767 0.929 . S
H776 C784 0.929 . S
H777 C786 0.930 . S
H778 C788 0.930 . S
H779 C791 0.929 . S
H780 C794 0.931 . S
H781 C796 0.960 . S
H782 C796 0.960 . S
H783 C796 0.960 1_455 S
C784 H776 0.929 . S
C784 C785 1.377 . S
C784 C786 1.384 . S
C785 C784 1.377 . S
C785 C791 1.390 1_655 S
C786 H777 0.930 . S
C786 C784 1.384 . S
C786 C787 1.372 . S
C787 C786 1.372 . S
C787 C788 1.400 1_655 S
C787 C792 1.492 1_556 S
C788 H778 0.930 . S
C788 C787 1.400 1_455 S
C788 C791 1.386 . S
H789 C805 0.930 . S
H790 C806 0.931 . S
C791 H779 0.929 . S
C791 C785 1.390 1_455 S
C791 C788 1.386 . S
C792 C787 1.492 1_554 S
C792 C794 1.394 1_554 S
C792 C795 1.402 . S
H793 C799 0.930 . S
C794 H780 0.931 . S
C794 C792 1.394 1_556 S
C794 C797 1.403 1_656 S
C795 C792 1.402 . S
C795 C796 1.524 . S
C795 C799 1.400 1_655 S
C796 H781 0.960 . S
C796 H782 0.960 . S
C796 H783 0.960 1_655 S
C796 C795 1.524 . S
C797 C794 1.403 1_454 S
C797 C798 1.392 . S
C797 C801 1.495 . S
C798 C797 1.392 . S
C798 C799 1.385 . S
C798 C800 1.478 . S
C799 H793 0.930 . S
C799 C795 1.400 1_455 S
C799 C798 1.385 . S
C800 C798 1.478 . S
C800 C802 1.381 1_455 S
C800 C806 1.383 . S
C801 C797 1.495 . S
C801 H807 0.959 1_554 S
C801 H808 0.961 . S
C801 H809 0.960 1_455 S
C802 C800 1.381 1_655 S
C802 C803 1.394 . S
C802 H810 0.930 . S
C803 C802 1.394 . S
C803 C804 1.383 1_655 S
C803 H811 0.929 . S
C804 C803 1.383 1_455 S
C804 C805 1.377 . S
C805 H789 0.930 . S
C805 C804 1.377 . S
C805 C806 1.379 . S
C806 H790 0.931 . S
C806 C800 1.383 . S
C806 C805 1.379 . S
H807 C801 0.959 1_556 S
H808 C801 0.961 . S
H809 C801 0.960 1_655 S
H810 C802 0.930 . S
H811 C803 0.929 . S
H812 C820 0.929 . S
H813 C822 0.930 . S
H814 C824 0.930 . S
H815 C827 0.929 . S
H816 C830 0.930 . S
H817 C832 0.960 . S
H818 C832 0.960 . S
H819 C832 0.960 . S
C820 H812 0.929 . S
C820 C821 1.377 . S
C820 C822 1.384 . S
C821 C820 1.377 . S
C821 C827 1.390 . S
C822 H813 0.930 . S
C822 C820 1.384 . S
C822 C823 1.372 . S
C823 C822 1.372 . S
C823 C824 1.400 . S
C823 C828 1.490 . S
C824 H814 0.930 . S
C824 C823 1.400 . S
C824 C827 1.386 . S
H825 C841 0.930 . S
H826 C842 0.931 . S
C827 H815 0.929 . S
C827 C821 1.390 . S
C827 C824 1.386 . S
C828 C823 1.490 . S
C828 C830 1.395 . S
C828 C831 1.403 . S
H829 C835 0.930 . S
C830 H816 0.930 . S
C830 C828 1.395 . S
C830 C833 1.403 . S
C831 C828 1.403 . S
C831 C832 1.524 . S
C831 C835 1.400 . S
C832 H817 0.960 . S
C832 H818 0.960 . S
C832 H819 0.960 . S
C832 C831 1.524 . S
C833 C830 1.403 . S
C833 C834 1.392 . S
C833 C837 1.495 . S
C834 C833 1.392 . S
C834 C835 1.385 . S
C834 C836 1.478 . S
C835 H829 0.930 . S
C835 C831 1.400 . S
C835 C834 1.385 . S
C836 C834 1.478 . S
C836 C838 1.381 . S
C836 C842 1.383 . S
C837 C833 1.495 . S
C837 H843 0.959 . S
C837 H844 0.961 . S
C837 H845 0.960 . S
C838 C836 1.381 . S
C838 C839 1.394 . S
C838 H846 0.930 . S
C839 C838 1.394 . S
C839 C840 1.383 . S
C839 H847 0.929 . S
C840 C839 1.383 . S
C840 C841 1.377 . S
C841 H825 0.930 . S
C841 C840 1.377 . S
C841 C842 1.379 . S
C842 H826 0.931 . S
C842 C836 1.383 . S
C842 C841 1.379 . S
H843 C837 0.959 . S
H844 C837 0.961 . S
H845 C837 0.960 . S
H846 C838 0.930 . S
H847 C839 0.929 . S
H848 C856 0.929 . S
H849 C858 0.930 . S
H850 C860 0.930 . S
H851 C863 0.929 . S
H852 C866 0.930 . S
H853 C868 0.960 . S
H854 C868 0.960 . S
H855 C868 0.960 . S
C856 H848 0.929 . S
C856 C857 1.377 . S
C856 C858 1.384 . S
C857 C856 1.377 . S
C857 C863 1.390 . S
C858 H849 0.930 . S
C858 C856 1.384 . S
C858 C859 1.372 . S
C859 C858 1.372 . S
C859 C860 1.400 . S
C859 C864 1.490 . S
C860 H850 0.930 . S
C860 C859 1.400 . S
C860 C863 1.386 . S
H861 C877 0.930 . S
H862 C878 0.931 . S
C863 H851 0.929 . S
C863 C857 1.390 . S
C863 C860 1.386 . S
C864 C859 1.490 . S
C864 C866 1.395 . S
C864 C867 1.403 . S
H865 C871 0.930 1_554 S
C866 H852 0.930 . S
C866 C864 1.395 . S
C866 C869 1.403 . S
C867 C864 1.403 . S
C867 C868 1.524 . S
C867 C871 1.400 . S
C868 H853 0.960 . S
C868 H854 0.960 . S
C868 H855 0.960 . S
C868 C867 1.524 . S
C869 C866 1.403 . S
C869 C870 1.392 . S
C869 C873 1.495 . S
C870 C869 1.392 . S
C870 C871 1.385 . S
C870 C872 1.478 1_556 S
C871 H865 0.930 1_556 S
C871 C867 1.400 . S
C871 C870 1.385 . S
C872 C870 1.478 1_554 S
C872 C874 1.381 . S
C872 C878 1.383 . S
C873 C869 1.495 . S
C873 H879 0.959 . S
C873 H880 0.961 . S
C873 H881 0.960 . S
C874 C872 1.381 . S
C874 C875 1.394 . S
C874 H882 0.930 . S
C875 C874 1.394 . S
C875 C876 1.383 . S
C875 H883 0.929 . S
C876 C875 1.383 . S
C876 C877 1.377 . S
C877 H861 0.930 . S
C877 C876 1.377 . S
C877 C878 1.379 . S
C878 H862 0.931 . S
C878 C872 1.383 . S
C878 C877 1.379 . S
H879 C873 0.959 . S
H880 C873 0.961 . S
H881 C873 0.960 . S
H882 C874 0.930 . S
H883 C875 0.929 . S
H884 C892 0.929 . S
H885 C894 0.930 . S
H886 C896 0.930 . S
H887 C899 0.929 . S
H888 C902 0.930 . S
H889 C904 0.960 . S
H890 C904 0.960 1_455 S
H891 C904 0.960 . S
C892 H884 0.929 . S
C892 C893 1.377 . S
C892 C894 1.384 . S
C893 C892 1.377 . S
C893 C899 1.390 1_455 S
C894 H885 0.930 . S
C894 C892 1.384 . S
C894 C895 1.372 . S
C895 C894 1.372 . S
C895 C896 1.400 1_455 S
C895 C900 1.490 . S
C896 H886 0.930 . S
C896 C895 1.400 1_655 S
C896 C899 1.386 . S
H897 C913 0.930 . S
H898 C914 0.931 . S
C899 H887 0.929 . S
C899 C893 1.390 1_655 S
C899 C896 1.386 . S
C900 C895 1.490 . S
C900 C902 1.395 . S
C900 C903 1.402 1_455 S
H901 C907 0.944 . S
C902 H888 0.930 . S
C902 C900 1.395 . S
C902 C905 1.403 . S
C903 C900 1.402 1_655 S
C903 C904 1.525 . S
C903 C907 1.399 . S
C904 H889 0.960 . S
C904 H890 0.960 1_655 S
C904 H891 0.960 . S
C904 C903 1.525 . S
C905 C902 1.403 . S
C905 C906 1.392 . S
C905 C909 1.495 . S
C906 C905 1.392 . S
C906 C907 1.374 1_455 S
C906 C908 1.478 . S
C907 H901 0.944 . S
C907 C903 1.399 . S
C907 C906 1.374 1_655 S
C908 C906 1.478 . S
C908 C910 1.381 . S
C908 C914 1.383 1_455 S
C909 C905 1.495 . S
C909 H915 0.959 . S
C909 H916 0.961 . S
C909 H917 0.960 . S
C910 C908 1.381 . S
C910 C911 1.394 . S
C910 H918 0.930 . S
C911 C910 1.394 . S
C911 C912 1.383 . S
C911 H919 0.929 . S
C912 C911 1.383 . S
C912 C913 1.377 1_455 S
C913 H897 0.930 . S
C913 C912 1.377 1_655 S
C913 C914 1.379 . S
C914 H898 0.931 . S
C914 C908 1.383 1_655 S
C914 C913 1.379 . S
H915 C909 0.959 . S
H916 C909 0.961 . S
H917 C909 0.960 . S
H918 C910 0.930 . S
H919 C911 0.929 . S
H920 C928 0.929 . S
H921 C930 0.930 . S
H922 C932 0.930 . S
H923 C935 0.929 . S
H924 C938 0.930 . S
H925 C940 0.960 . S
H926 C940 0.960 . S
H927 C940 0.960 . S
C928 H920 0.929 . S
C928 C929 1.377 . S
C928 C930 1.384 . S
C929 C928 1.377 . S
C929 C935 1.390 . S
C930 H921 0.930 . S
C930 C928 1.384 . S
C930 C931 1.372 . S
C931 C930 1.372 . S
C931 C932 1.400 . S
C931 C936 1.490 1_556 S
C932 H922 0.930 . S
C932 C931 1.400 . S
C932 C935 1.386 . S
H933 C949 0.930 . S
H934 C950 0.931 . S
C935 H923 0.929 . S
C935 C929 1.390 . S
C935 C932 1.386 . S
C936 C931 1.490 1_554 S
C936 C938 1.395 1_554 S
C936 C939 1.403 . S
H937 C943 0.930 . S
C938 H924 0.930 . S
C938 C936 1.395 1_556 S
C938 C941 1.403 1_556 S
C939 C936 1.403 . S
C939 C940 1.524 . S
C939 C943 1.400 . S
C940 H925 0.960 . S
C940 H926 0.960 . S
C940 H927 0.960 . S
C940 C939 1.524 . S
C941 C938 1.403 1_554 S
C941 C942 1.392 . S
C941 C945 1.495 . S
C942 C941 1.392 . S
C942 C943 1.385 . S
C942 C944 1.478 . S
C943 H937 0.930 . S
C943 C939 1.400 . S
C943 C942 1.385 . S
C944 C942 1.478 . S
C944 C946 1.381 . S
C944 C950 1.383 . S
C945 C941 1.495 . S
C945 H951 0.959 1_554 S
C945 H952 0.961 . S
C945 H953 0.960 . S
C946 C944 1.381 . S
C946 C947 1.394 . S
C946 H954 0.930 . S
C947 C946 1.394 . S
C947 C948 1.383 . S
C947 H955 0.929 . S
C948 C947 1.383 . S
C948 C949 1.377 . S
C949 H933 0.930 . S
C949 C948 1.377 . S
C949 C950 1.379 . S
C950 H934 0.931 . S
C950 C944 1.383 . S
C950 C949 1.379 . S
H951 C945 0.959 1_556 S
H952 C945 0.961 . S
H953 C945 0.960 . S
H954 C946 0.930 . S
H955 C947 0.929 . S
H956 C964 0.929 . S
H957 C966 0.930 . S
H958 C968 0.930 . S
H959 C971 0.929 . S
H960 C974 0.930 . S
H961 C976 0.960 . S
H962 C976 0.960 . S
H963 C976 0.960 . S
C964 H956 0.929 . S
C964 C965 1.377 . S
C964 C966 1.384 . S
C965 C964 1.377 . S
C965 C971 1.390 1_455 S
C966 H957 0.930 . S
C966 C964 1.384 . S
C966 C967 1.372 . S
C967 C966 1.372 . S
C967 C968 1.400 1_455 S
C967 C972 1.490 . S
C968 H958 0.930 . S
C968 C967 1.400 1_655 S
C968 C971 1.386 . S
H969 C985 0.930 . S
H970 C986 0.931 . S
C971 H959 0.929 . S
C971 C965 1.390 1_655 S
C971 C968 1.386 . S
C972 C967 1.490 . S
C972 C974 1.395 . S
C972 C975 1.403 1_455 S
H973 C979 0.930 . S
C974 H960 0.930 . S
C974 C972 1.395 . S
C974 C977 1.403 . S
C975 C972 1.403 1_655 S
C975 C976 1.524 . S
C975 C979 1.400 . S
C976 H961 0.960 . S
C976 H962 0.960 . S
C976 H963 0.960 . S
C976 C975 1.524 . S
C977 C974 1.403 . S
C977 C978 1.392 . S
C977 C981 1.495 . S
C978 C977 1.392 . S
C978 C979 1.385 1_455 S
C978 C980 1.478 . S
C979 H973 0.930 . S
C979 C975 1.400 . S
C979 C978 1.385 1_655 S
C980 C978 1.478 . S
C980 C982 1.381 . S
C980 C986 1.383 1_455 S
C981 C977 1.495 . S
C981 H987 0.959 . S
C981 H988 0.961 . S
C981 H989 0.960 . S
C982 C980 1.381 . S
C982 C983 1.394 . S
C982 H990 0.930 . S
C983 C982 1.394 . S
C983 C984 1.383 . S
C983 H991 0.929 . S
C984 C983 1.383 . S
C984 C985 1.377 1_455 S
C985 H969 0.930 . S
C985 C984 1.377 1_655 S
C985 C986 1.379 . S
C986 H970 0.931 . S
C986 C980 1.383 1_655 S
C986 C985 1.379 . S
H987 C981 0.959 . S
H988 C981 0.961 . S
H989 C981 0.960 . S
H990 C982 0.930 . S
H991 C983 0.929 . S
C281 C70 1.681 1_455 S
C300 C2 1.665 . S
C317 C104 1.679 . S
C336 C36 1.691 . S
C353 C138 1.677 . S
C372 C206 1.667 . S
C389 C172 1.679 . S
C408 C240 1.661 . S
C425 C111 1.105 . S
C444 C9 1.104 . S
C461 C43 1.098 . S
C480 C77 1.058 . S
C497 C73 1.933 . S
C516 C39 1.935 . S
C533 C107 1.932 . S
C552 C5 1.940 . S
C569 C247 1.105 . S
C588 C145 1.114 . S
C605 C179 1.097 . S
C624 C213 1.055 . S
C641 C209 1.933 . S
C660 C175 1.915 . S
C677 C243 1.933 . S
C696 C141 1.916 . S
C713 C190 1.208 . S
C732 C33 1.213 . S
C749 C67 1.204 . S
C768 C156 1.196 . S
C785 C101 1.208 . S
C804 C258 1.214 . S
C821 C224 1.208 . S
C840 C135 1.213 . S
C857 C54 1.207 . S
C876 C169 1.197 . S
C893 C203 1.208 . S
C912 C20 1.214 . S
C929 C237 1.208 . S
C948 C122 1.213 . S
C965 C271 1.207 . S
C984 C88 1.212 . S
