# Generated by pormake.
# Topology qtz-e, (6)-cn, num edge types: 1
# Building blocks:
#     Node 0, Type 0, BuildingBlock: BETFAJ_clean_sbu_0, # of connection points: 6
#     Node 1, Type 0, BuildingBlock: BETFAJ_clean_sbu_0, # of connection points: 6
#     Node 2, Type 0, BuildingBlock: BETFAJ_clean_sbu_0, # of connection points: 6
#     Node 3, Type 0, BuildingBlock: BETFAJ_clean_sbu_0, # of connection points: 6
#     Node 4, Type 0, BuildingBlock: BETFAJ_clean_sbu_0, # of connection points: 6
#     Node 5, Type 0, BuildingBlock: BETFAJ_clean_sbu_0, # of connection points: 6
#     Edge 6, Type (0, 0), BuildingBlock: MIFKUJ_clean_linker_0, # of connection points: 2
#     Edge 7, Type (0, 0), BuildingBlock: MIFKUJ_clean_linker_0, # of connection points: 2
#     Edge 8, Type (0, 0), BuildingBlock: MIFKUJ_clean_linker_0, # of connection points: 2
#     Edge 9, Type (0, 0), BuildingBlock: MIFKUJ_clean_linker_0, # of connection points: 2
#     Edge 10, Type (0, 0), BuildingBlock: MIFKUJ_clean_linker_0, # of connection points: 2
#     Edge 11, Type (0, 0), BuildingBlock: MIFKUJ_clean_linker_0, # of connection points: 2
#     Edge 12, Type (0, 0), BuildingBlock: MIFKUJ_clean_linker_0, # of connection points: 2
#     Edge 13, Type (0, 0), BuildingBlock: MIFKUJ_clean_linker_0, # of connection points: 2
#     Edge 14, Type (0, 0), BuildingBlock: MIFKUJ_clean_linker_0, # of connection points: 2
#     Edge 15, Type (0, 0), BuildingBlock: MIFKUJ_clean_linker_0, # of connection points: 2
#     Edge 16, Type (0, 0), BuildingBlock: MIFKUJ_clean_linker_0, # of connection points: 2
#     Edge 17, Type (0, 0), BuildingBlock: MIFKUJ_clean_linker_0, # of connection points: 2
#     Edge 18, Type (0, 0), BuildingBlock: MIFKUJ_clean_linker_0, # of connection points: 2
#     Edge 19, Type (0, 0), BuildingBlock: MIFKUJ_clean_linker_0, # of connection points: 2
#     Edge 20, Type (0, 0), BuildingBlock: MIFKUJ_clean_linker_0, # of connection points: 2
#     Edge 21, Type (0, 0), BuildingBlock: MIFKUJ_clean_linker_0, # of connection points: 2
#     Edge 22, Type (0, 0), BuildingBlock: MIFKUJ_clean_linker_0, # of connection points: 2
#     Edge 23, Type (0, 0), BuildingBlock: MIFKUJ_clean_linker_0, # of connection points: 2
# Relax obj value: 0.115
# Max RMSD: 0.182
# Mean RMSD: 0.182
data_MOF--net-qtz-e--node1-BETFAJ_clean_sbu_0--edge1-MIFKUJ_clean_linker_0
_symmetry_space_group_name_H-M    P1
_symmetry_Int_Tables_number       1
_symmetry_cell_setting            triclinic
loop_
_symmetry_equiv_pos_as_xyz
'x, y, z'
_cell_length_a     32.508081
_cell_length_b     32.582963
_cell_length_c     63.648722
_cell_angle_alpha  90.07479
_cell_angle_beta   89.956741
_cell_angle_gamma 119.84435
loop_
_atom_site_label
_atom_site_type_symbol
_atom_site_fract_x
_atom_site_fract_y
_atom_site_fract_z
_atom_type_partial_charge
Sm0 Sm 0.20022 0.45462 0.0484 0.0
Sm1 Sm 0.18909 0.36141 0.03211 0.0
C2 C 0.19684 0.52882 0.06275 0.0
C3 C 0.19283 0.54339 0.08454 0.0
C4 C 0.1497 0.51997 0.09569 0.0
C5 C 0.14703 0.53138 0.1167 0.0
C6 C 0.18738 0.56645 0.1272 0.0
C7 C 0.23026 0.59048 0.11594 0.0
C8 C 0.23289 0.57923 0.09488 0.0
C9 C 0.2572 0.42637 0.06838 0.0
C10 C 0.13941 0.35966 0.07564 0.0
C11 C 0.19914 0.29381 0.01374 0.0
C12 C 0.2183 0.28961 0.99323 0.0
C13 C 0.26337 0.32434 0.98617 0.0
C14 C 0.27875 0.32193 0.96586 0.0
C15 C 0.24922 0.285 0.95215 0.0
C16 C 0.2046 0.24982 0.95943 0.0
C17 C 0.18941 0.25205 0.97975 0.0
C18 C 0.11697 0.37837 0.022 0.0
C19 C 0.24817 0.45771 1.00278 0.0
O20 O 0.15952 0.49115 0.0552 0.0
O21 O 0.2369 0.53046 0.05785 0.0
O22 O 0.24892 0.4233 0.04895 0.0
O23 O 0.23632 0.44619 0.07772 0.0
O24 O 0.13899 0.39684 0.06766 0.0
O25 O 0.1631 0.34153 0.06625 0.0
O26 O 0.22911 0.32292 0.02767 0.0
O27 O 0.1602 0.29606 1.01279 0.0
O28 O 0.16038 0.40779 0.0213 0.0
O29 O 0.10912 0.3374 0.02857 0.0
O30 O 0.23414 0.41244 1.00569 0.0
O31 O 0.2387 0.48236 0.0166 0.0
H32 H 0.11803 0.49208 0.08835 0.0
H33 H 0.11353 0.51182 0.12489 0.0
H34 H 0.26188 0.61817 0.1234 0.0
H35 H 0.26657 0.59813 0.08677 0.0
H36 H 0.28629 0.35403 0.99611 0.0
H37 H 0.31312 0.3498 0.96065 0.0
H38 H 0.18127 0.22062 0.94934 0.0
H39 H 0.1545 0.22491 0.98479 0.0
Sm40 Sm 0.76008 0.21197 0.38507 0.0
Sm41 Sm 0.83593 0.19015 0.36895 0.0
C42 C 0.68785 0.2206 0.39841 0.0
C43 C 0.67027 0.21987 0.41997 0.0
C44 C 0.62168 0.20111 0.42384 0.0
C45 C 0.60494 0.19788 0.44447 0.0
C46 C 0.6365 0.21318 0.46166 0.0
C47 C 0.68517 0.23197 0.45761 0.0
C48 C 0.70179 0.23532 0.43706 0.0
C49 C 0.8442 0.25641 0.40717 0.0
C50 C 0.77995 0.13855 0.41086 0.0
C51 C 0.91132 0.19327 0.35137 0.0
C52 C 0.93394 0.20834 0.33037 0.0
C53 C 0.96082 0.25644 0.32485 0.0
C54 C 0.97944 0.26978 0.30454 0.0
C55 C 0.97153 0.23538 0.28921 0.0
C56 C 0.94504 0.18733 0.29489 0.0
C57 C 0.92682 0.17406 0.3152 0.0
C58 C 0.7445 0.12742 0.35724 0.0
C59 C 0.81036 0.25905 0.33995 0.0
O60 O 0.68297 0.18031 0.3917 0.0
O61 O 0.72928 0.25708 0.39368 0.0
O62 O 0.84059 0.2517 0.38749 0.0
O63 O 0.80262 0.2377 0.41555 0.0
O64 O 0.74604 0.14451 0.40256 0.0
O65 O 0.82299 0.1594 0.40252 0.0
O66 O 0.91413 0.22612 0.36413 0.0
O67 O 0.86953 0.15519 0.35171 0.0
O68 O 0.76366 0.17153 0.3576 0.0
O69 O 0.7739 0.11364 0.3632 0.0
O70 O 0.83583 0.23794 0.34233 0.0
O71 O 0.7785 0.25476 0.35409 0.0
H72 H 0.59664 0.18864 0.41094 0.0
H73 H 0.56729 0.1837 0.44691 0.0
H74 H 0.71054 0.24334 0.47036 0.0
H75 H 0.73939 0.24961 0.43461 0.0
H76 H 0.96716 0.28388 0.33613 0.0
H77 H 0.00024 0.30712 0.30092 0.0
H78 H 0.93735 0.15969 0.28353 0.0
H79 H 0.90628 0.13672 0.31893 0.0
Sm80 Sm 0.52623 0.74646 0.71845 0.0
Sm81 Sm 0.6107 0.8414 0.70598 0.0
C82 C 0.45769 0.66088 0.72861 0.0
C83 C 0.43408 0.63881 0.74887 0.0
C84 C 0.45182 0.61609 0.76175 0.0
C85 C 0.43199 0.59876 0.78156 0.0
C86 C 0.39372 0.60345 0.789 0.0
C87 C 0.37505 0.62484 0.77584 0.0
C88 C 0.39485 0.64214 0.75602 0.0
C89 C 0.52919 0.82303 0.7382 0.0
C90 C 0.61525 0.79758 0.75012 0.0
C91 C 0.6655 0.92603 0.68942 0.0
C92 C 0.67437 0.94185 0.66727 0.0
C93 C 0.67676 0.98444 0.66137 0.0
C94 C 0.68352 -0.00136 0.64026 0.0
C95 C 0.68825 0.9706 0.62461 0.0
C96 C 0.68548 0.92775 0.63065 0.0
C97 C 0.67833 0.91343 0.65167 0.0
C98 C 0.62229 0.76536 0.69833 0.0
C99 C 0.52632 0.78385 0.67073 0.0
O100 O 0.50208 0.67146 0.72642 0.0
O101 O 0.44963 0.69366 0.72106 0.0
O102 O 0.53865 0.82131 0.71915 0.0
O103 O 0.51616 0.78301 0.7473 0.0
O104 O 0.58561 0.7568 0.74113 0.0
O105 O 0.62476 0.83828 0.74139 0.0
O106 O 0.62295 0.91256 0.69658 0.0
O107 O 0.68141 0.89809 0.69537 0.0
O108 O 0.5851 0.76706 0.69502 0.0
O109 O 0.65598 0.80464 0.70606 0.0
O110 O 0.56915 0.81948 0.67482 0.0
O111 O 0.50142 0.75137 0.68499 0.0
H112 H 0.48179 0.61261 0.75673 0.0
H113 H 0.44765 0.58293 0.7913 0.0
H114 H 0.34512 0.62836 0.78086 0.0
H115 H 0.37984 0.65891 0.74646 0.0
H116 H 0.67301 0.00654 0.67306 0.0
H117 H 0.68445 0.03136 0.63621 0.0
H118 H 0.68946 0.90538 0.6192 0.0
H119 H 0.67586 0.87998 0.6557 0.0
Sm120 Sm 0.78338 0.53089 0.05208 0.0
Sm121 Sm 0.79237 0.62196 0.03445 0.0
C122 C 0.78501 0.45561 0.0661 0.0
C123 C 0.78677 0.43902 0.0876 0.0
C124 C 0.82313 0.42973 0.09315 0.0
C125 C 0.82701 0.41703 0.11378 0.0
C126 C 0.79445 0.41315 0.12937 0.0
C127 C 0.75765 0.42186 0.12365 0.0
C128 C 0.75399 0.43484 0.10308 0.0
C129 C 0.73124 0.5629 0.07382 0.0
C130 C 0.84934 0.62824 0.07621 0.0
C131 C 0.77972 0.68945 0.01774 0.0
C132 C 0.77045 0.7012 0.99651 0.0
C133 C 0.73657 0.71539 0.99375 0.0
C134 C 0.72717 0.72637 0.9737 0.0
C135 C 0.7517 0.72363 0.95599 0.0
C136 C 0.7857 0.70938 0.95888 0.0
C137 C 0.79478 0.69803 0.97889 0.0
C138 C 0.86169 0.60265 0.02174 0.0
C139 C 0.73 0.52322 1.00724 0.0
O140 O 0.82337 0.49383 0.05976 0.0
O141 O 0.74571 0.45486 0.06063 0.0
O142 O 0.7361 0.56349 0.05419 0.0
O143 O 0.75293 0.54322 0.08252 0.0
O144 O 0.8487 0.59034 0.06848 0.0
O145 O 0.82328 0.6446 0.0677 0.0
O146 O 0.74546 0.65151 0.02647 0.0
O147 O 0.82141 0.69383 0.02095 0.0
O148 O 0.81838 0.57347 0.02321 0.0
O149 O 0.87082 0.64494 0.02676 0.0
O150 O 0.74654 0.56939 1.0085 0.0
O151 O 0.73948 0.50009 0.0218 0.0
H152 H 0.8491 0.43311 0.08157 0.0
H153 H 0.8562 0.41127 0.1176 0.0
H154 H 0.7314 0.41848 0.13505 0.0
H155 H 0.72566 0.44204 0.0994 0.0
H156 H 0.71715 0.71772 1.0071 0.0
H157 H 0.70013 0.73632 0.97208 0.0
H158 H 0.80577 0.70741 0.94572 0.0
H159 H 0.82092 0.68687 0.98055 0.0
Sm160 Sm 0.23162 0.77184 0.38397 0.0
Sm161 Sm 0.15282 0.78826 0.36761 0.0
C162 C 0.3059 0.76634 0.39682 0.0
C163 C 0.32436 0.76873 0.41822 0.0
C164 C 0.30469 0.78055 0.43523 0.0
C165 C 0.3209 0.78178 0.45569 0.0
C166 C 0.35746 0.77157 0.45958 0.0
C167 C 0.37745 0.76021 0.44245 0.0
C168 C 0.3608 0.75851 0.42195 0.0
C169 C 0.1487 0.72585 0.40692 0.0
C170 C 0.20757 0.8432 0.40904 0.0
C171 C 0.07547 0.78228 0.35092 0.0
C172 C 0.05656 0.77439 0.32925 0.0
C173 C 0.01251 0.73457 0.32463 0.0
C174 C -0.00444 0.72524 0.30397 0.0
C175 C 0.02221 0.75582 0.28754 0.0
C176 C 0.06598 0.796 0.29224 0.0
C177 C 0.08307 0.80512 0.31283 0.0
C178 C 0.24322 0.85264 0.35476 0.0
C179 C 0.18092 0.72069 0.33919 0.0
O180 O 0.30905 0.8057 0.38984 0.0
O181 O 0.26465 0.72891 0.39287 0.0
O182 O 0.15132 0.7294 0.38717 0.0
O183 O 0.19076 0.74687 0.4149 0.0
O184 O 0.24294 0.83918 0.40101 0.0
O185 O 0.16449 0.81931 0.40094 0.0
O186 O 0.07582 0.74642 0.35995 0.0
O187 O 0.11401 0.82248 0.35467 0.0
O188 O 0.22527 0.8088 0.3559 0.0
O189 O 0.21276 0.86534 0.36032 0.0
O190 O 0.1545 0.74092 0.34107 0.0
O191 O 0.21325 0.72692 0.35347 0.0
H192 H 0.2768 0.78899 0.43269 0.0
H193 H 0.30521 0.79132 0.46844 0.0
H194 H 0.4054 0.75182 0.44494 0.0
H195 H 0.37637 0.74925 0.40904 0.0
H196 H 0.99145 0.71032 0.33699 0.0
H197 H 0.96152 0.69418 0.30084 0.0
H198 H 0.08762 0.81987 0.27989 0.0
H199 H 0.11741 0.8359 0.31578 0.0
Sm200 Sm 0.4581 0.23727 0.71736 0.0
Sm201 Sm 0.36136 0.17815 0.69657 0.0
C202 C 0.54063 0.29518 0.73464 0.0
C203 C 0.55288 0.30961 0.75679 0.0
C204 C 0.52008 0.31296 0.77008 0.0
C205 C 0.53163 0.32714 0.79099 0.0
C206 C 0.57582 0.33728 0.79919 0.0
C207 C 0.60805 0.33248 0.78607 0.0
C208 C 0.59671 0.31892 0.76501 0.0
C209 C 0.40134 0.14995 0.73544 0.0
C210 C 0.36701 0.23147 0.74 0.0
C211 C 0.2856 0.11428 0.67594 0.0
C212 C 0.27775 0.08888 0.65571 0.0
C213 C 0.29924 0.06155 0.65121 0.0
C214 C 0.29424 0.04113 0.6313 0.0
C215 C 0.26829 0.04822 0.61547 0.0
C216 C 0.24628 0.07492 0.62012 0.0
C217 C 0.25074 0.09477 0.64005 0.0
C218 C 0.40519 0.27356 0.68933 0.0
C219 C 0.45654 0.19297 0.67089 0.0
O220 O 0.51431 0.31 0.72538 0.0
O221 O 0.52724 0.25088 0.73041 0.0
O222 O 0.40668 0.15809 0.71599 0.0
O223 O 0.42702 0.1884 0.7459 0.0
O224 O 0.41093 0.26114 0.73406 0.0
O225 O 0.34096 0.19098 0.72986 0.0
O226 O 0.30509 0.10329 0.69133 0.0
O227 O 0.30203 0.15979 0.67441 0.0
O228 O 0.42443 0.24848 0.68909 0.0
O229 O 0.36023 0.24851 0.6936 0.0
O230 O 0.40974 0.17237 0.67151 0.0
O231 O 0.48343 0.22017 0.6864 0.0
H232 H 0.48559 0.30504 0.76425 0.0
H233 H 0.50582 0.32979 0.80083 0.0
H234 H 0.64235 0.34008 0.79201 0.0
H235 H 0.62222 0.31594 0.75511 0.0
H236 H 0.3207 0.05674 0.66288 0.0
H237 H 0.31185 0.02099 0.62809 0.0
H238 H 0.22568 0.08057 0.60828 0.0
H239 H 0.23388 0.11569 0.6431 0.0
H240 H 0.24071 0.69006 0.32446 0.0
H241 H 0.23934 0.65654 0.28979 0.0
H242 H 0.11234 0.6604 0.27403 0.0
H243 H 0.11324 0.69355 0.30856 0.0
H244 H 0.10871 0.57944 0.25944 0.0
H245 H 0.21768 0.74715 0.25751 0.0
H246 H 0.2863 0.82165 0.26975 0.0
H247 H 0.37849 0.76508 0.25791 0.0
H248 H 0.31024 0.68992 0.2459 0.0
H249 H 0.11704 0.57474 0.14735 0.0
H250 H 0.11341 0.59312 0.18429 0.0
H251 H 0.24795 0.60105 0.19546 0.0
H252 H 0.25202 0.58305 0.15845 0.0
H253 H 0.24792 0.67258 0.21343 0.0
H254 H 0.13672 0.50599 0.2111 0.0
H255 H 0.06639 0.4328 0.19894 0.0
H256 H 0.97605 0.48649 0.21904 0.0
H257 H 0.04573 0.56017 0.23113 0.0
C258 C 0.2121 0.68316 0.31375 0.0
C259 C 0.17737 0.69499 0.3193 0.0
C260 C 0.21147 0.66417 0.29387 0.0
C261 C 0.17608 0.6565 0.27915 0.0
C262 C 0.14007 0.66605 0.28505 0.0
C263 C 0.14081 0.68525 0.30483 0.0
C264 C 0.1779 0.64115 0.25722 0.0
C265 C 0.13894 0.59989 0.24927 0.0
C266 C 0.21766 0.66744 0.24407 0.0
C267 C 0.25881 0.71276 0.25103 0.0
C268 C 0.25254 0.75048 0.25767 0.0
C269 C 0.29136 0.79284 0.26454 0.0
C270 C 0.3367 0.79804 0.26467 0.0
C271 C 0.34333 0.76096 0.25784 0.0
C272 C 0.3046 0.71848 0.25099 0.0
C273 C 0.14567 0.57994 0.15769 0.0
C274 C 0.18486 0.57741 0.14984 0.0
C275 C 0.14348 0.59039 0.1789 0.0
C276 C 0.18005 0.59794 0.1929 0.0
C277 C 0.2192 0.59541 0.18508 0.0
C278 C 0.22159 0.58529 0.16385 0.0
C279 C 0.17862 0.6105 0.21542 0.0
C280 C 0.21771 0.65157 0.22352 0.0
C281 C 0.13874 0.58397 0.22864 0.0
C282 C 0.0967 0.5392 0.2216 0.0
C283 C 0.10194 0.50249 0.2127 0.0
C284 C 0.06216 0.46084 0.20586 0.0
C285 C 0.0169 0.45534 0.20796 0.0
C286 C 0.01121 0.49108 0.21721 0.0
C287 C 0.05083 0.53272 0.22411 0.0
H288 H 0.98615 0.42321 0.20265 0.0
H289 H 0.36671 0.83086 0.27 0.0
H290 H 0.41643 0.12817 0.63907 0.0
H291 H 0.45086 0.12915 0.60471 0.0
H292 H 0.58132 0.25299 0.62299 0.0
H293 H 0.54747 0.25191 0.65751 0.0
H294 H 0.54544 0.26261 0.58431 0.0
H295 H 0.58004 0.15467 0.61905 0.0
H296 H 0.56212 0.08446 0.64018 0.0
H297 H 0.4702 0.99394 0.59157 0.0
H298 H 0.48677 0.06383 0.57027 0.0
H299 H 0.67865 0.27629 0.49407 0.0
H300 H 0.65134 0.26979 0.53024 0.0
H301 H 0.52688 0.13655 0.51562 0.0
H302 H 0.55509 0.1417 0.47953 0.0
H303 H 0.56141 0.13173 0.55298 0.0
H304 H 0.5227 0.24035 0.51978 0.0
H305 H 0.53835 0.311 0.49941 0.0
H306 H 0.64008 0.40047 0.5455 0.0
H307 H 0.62548 0.33027 0.56602 0.0
C308 C 0.45272 0.15521 0.63592 0.0
C309 C 0.47921 0.18994 0.65109 0.0
C310 C 0.47235 0.15569 0.61625 0.0
C311 C 0.51867 0.19119 0.61125 0.0
C312 C 0.54552 0.2253 0.6265 0.0
C313 C 0.52619 0.22442 0.64629 0.0
C314 C 0.53813 0.19413 0.58975 0.0
C315 C 0.54971 0.23433 0.57759 0.0
C316 C 0.54265 0.15674 0.58081 0.0
C317 C 0.53358 0.11457 0.5933 0.0
C318 C 0.55542 0.11985 0.61297 0.0
C319 C 0.54564 0.08013 0.62496 0.0
C320 C 0.51449 0.03485 0.61735 0.0
C321 C 0.49383 0.02912 0.59754 0.0
C322 C 0.50337 0.06878 0.58551 0.0
C323 C 0.6457 0.24526 0.49852 0.0
C324 C 0.61908 0.20958 0.48373 0.0
C325 C 0.62985 0.24185 0.51924 0.0
C326 C 0.58663 0.20301 0.52567 0.0
C327 C 0.56022 0.16699 0.51106 0.0
C328 C 0.57617 0.17027 0.49032 0.0
C329 C 0.56887 0.20032 0.54755 0.0
C330 C 0.55743 0.16011 0.55976 0.0
C331 C 0.56458 0.23777 0.55661 0.0
C332 C 0.57333 0.28003 0.54432 0.0
C333 C 0.54867 0.27507 0.52549 0.0
C334 C 0.5573 0.31504 0.51393 0.0
C335 C 0.59028 0.36019 0.52112 0.0
C336 C 0.6146 0.36547 0.53993 0.0
C337 C 0.60613 0.32561 0.55154 0.0
H338 H 0.59691 0.39108 0.51215 0.0
H339 H 0.5065 0.00425 0.62681 0.0
H340 H 0.2626 0.541 0.98521 0.0
H341 H 0.2899 0.56966 0.94946 0.0
H342 H 0.31064 0.4507 0.93804 0.0
H343 H 0.28396 0.42223 0.97362 0.0
H344 H 0.38177 0.53172 0.92021 0.0
H345 H 0.21072 0.44746 0.92279 0.0
H346 H 0.13338 0.43181 0.93669 0.0
H347 H 0.16369 0.57052 0.91776 0.0
H348 H 0.24179 0.5875 0.90425 0.0
H349 H 0.37883 0.52322 0.8097 0.0
H350 H 0.35354 0.50077 0.84607 0.0
H351 H 0.33946 0.62467 0.85383 0.0
H352 H 0.36523 0.64774 0.8175 0.0
H353 H 0.26612 0.5445 0.87364 0.0
H354 H 0.43658 0.631 0.87279 0.0
H355 H 0.51083 0.64663 0.8554 0.0
H356 H 0.48041 0.50549 0.86943 0.0
H357 H 0.40599 0.48896 0.88703 0.0
C358 C 0.27376 0.52142 0.97523 0.0
C359 C 0.27067 0.47909 0.98229 0.0
C360 C 0.28917 0.53771 0.95474 0.0
C361 C 0.30179 0.51201 0.94094 0.0
C362 C 0.30109 0.47114 0.94834 0.0
C363 C 0.28555 0.45479 0.96873 0.0
C364 C 0.31266 0.52565 0.91841 0.0
C365 C 0.35631 0.53423 0.91007 0.0
C366 C 0.27981 0.52955 0.90509 0.0
C367 C 0.23233 0.51893 0.9127 0.0
C368 C 0.20104 0.47476 0.92172 0.0
C369 C 0.15708 0.46566 0.92955 0.0
C370 C 0.14369 0.50019 0.92815 0.0
C371 C 0.17417 0.54384 0.91886 0.0
C372 C 0.21831 0.55325 0.91114 0.0
C373 C 0.37037 0.54576 0.81911 0.0
C374 C 0.37458 0.58758 0.81065 0.0
C375 C 0.3556 0.53269 0.83989 0.0
C376 C 0.34499 0.56126 0.85277 0.0
C377 C 0.34727 0.60198 0.84418 0.0
C378 C 0.36202 0.61509 0.82337 0.0
C379 C 0.33498 0.55043 0.87556 0.0
C380 C 0.2916 0.54234 0.8839 0.0
C381 C 0.36807 0.54724 0.88893 0.0
C382 C 0.41549 0.55861 0.88101 0.0
C383 C 0.44596 0.60343 0.87235 0.0
C384 C 0.48794 0.61238 0.8624 0.0
C385 C 0.49988 0.57682 0.86109 0.0
C386 C 0.47078 0.53279 0.87037 0.0
C387 C 0.42879 0.52367 0.88043 0.0
H388 H 0.53169 0.58341 0.85285 0.0
H389 H 0.10967 0.49311 0.93422 0.0
H390 H 0.86546 0.26626 0.30612 0.0
H391 H 0.8662 0.29807 0.27155 0.0
H392 H 0.76636 0.33999 0.29275 0.0
H393 H 0.76404 0.30639 0.32744 0.0
H394 H 0.73869 0.29967 0.25689 0.0
H395 H 0.88716 0.42601 0.28028 0.0
H396 H 0.96675 0.46425 0.29637 0.0
H397 H 0.01331 0.4002 0.25016 0.0
H398 H 0.93385 0.36113 0.23397 0.0
H399 H 0.77748 0.4473 0.16599 0.0
H400 H 0.78291 0.42487 0.20212 0.0
H401 H 0.82738 0.32857 0.17935 0.0
H402 H 0.82129 0.34988 0.14315 0.0
H403 H 0.8849 0.40092 0.21604 0.0
H404 H 0.72972 0.27551 0.19307 0.0
H405 H 0.65024 0.24562 0.17767 0.0
H406 H 0.61667 0.31774 0.22532 0.0
H407 H 0.69631 0.3487 0.2408 0.0
C408 C 0.84396 0.28269 0.30362 0.0
C409 C 0.81455 0.28359 0.31968 0.0
C410 C 0.84473 0.30129 0.28376 0.0
C411 C 0.8168 0.3221 0.27946 0.0
C412 C 0.78828 0.32415 0.29561 0.0
C413 C 0.78713 0.30509 0.3155 0.0
C414 C 0.81516 0.33872 0.25776 0.0
C415 C 0.77077 0.32243 0.24816 0.0
C416 C 0.85684 0.36794 0.24607 0.0
C417 C 0.90452 0.39059 0.25591 0.0
C418 C 0.9143 0.41984 0.27363 0.0
C419 C 0.95939 0.44169 0.28276 0.0
C420 C -0.00496 0.4346 0.27429 0.0
C421 C 0.98562 0.40556 0.25671 0.0
C422 C 0.9406 0.38367 0.24751 0.0
C423 C 0.78819 0.42112 0.16858 0.0
C424 C 0.79892 0.40044 0.15151 0.0
C425 C 0.79166 0.40868 0.18929 0.0
C426 C 0.80627 0.37561 0.19342 0.0
C427 C 0.81728 0.35508 0.17653 0.0
C428 C 0.81361 0.36728 0.1558 0.0
C429 C 0.80859 0.36146 0.21537 0.0
C430 C 0.85303 0.37825 0.22492 0.0
C431 C 0.767 0.33353 0.22718 0.0
C432 C 0.71916 0.31491 0.21791 0.0
C433 C 0.70558 0.28544 0.20011 0.0
C434 C 0.66046 0.2682 0.1914 0.0
C435 C 0.62848 0.27991 0.20046 0.0
C436 C 0.64151 0.30878 0.21829 0.0
C437 C 0.68663 0.32616 0.22704 0.0
H438 H 0.59355 0.2665 0.19371 0.0
H439 H 0.02997 0.45165 0.28133 0.0
H440 H 0.57626 0.82631 0.63521 0.0
H441 H 0.54615 0.82168 0.59978 0.0
H442 H 0.40363 0.7283 0.62162 0.0
H443 H 0.43406 0.73114 0.65717 0.0
H444 H 0.41403 0.6999 0.58483 0.0
H445 H 0.44897 0.84941 0.61271 0.0
H446 H 0.49972 0.92514 0.63068 0.0
H447 H 0.59867 0.97028 0.57958 0.0
H448 H 0.54952 0.89403 0.56154 0.0
H449 H 0.30373 0.73524 0.49507 0.0
H450 H 0.33109 0.73684 0.53104 0.0
H451 H 0.47621 0.81121 0.50971 0.0
H452 H 0.44906 0.81016 0.47366 0.0
H453 H 0.46167 0.84963 0.54657 0.0
H454 H 0.42525 0.69638 0.51979 0.0
H455 H 0.37412 0.61849 0.50346 0.0
H456 H 0.27338 0.58153 0.55362 0.0
H457 H 0.32363 0.65951 0.57011 0.0
C458 C 0.53846 0.80469 0.63254 0.0
C459 C 0.50745 0.77956 0.64912 0.0
C460 C 0.52123 0.80222 0.61221 0.0
C461 C 0.47238 0.77564 0.60802 0.0
C462 C 0.44142 0.74937 0.62443 0.0
C463 C 0.45881 0.75113 0.64478 0.0
C464 C 0.45384 0.77599 0.5866 0.0
C465 C 0.42391 0.73269 0.57663 0.0
C466 C 0.46708 0.81876 0.57567 0.0
C467 C 0.49569 0.86571 0.58586 0.0
C468 C 0.48168 0.87538 0.6053 0.0
C469 C 0.51027 0.91838 0.61552 0.0
C470 C 0.55253 0.95249 0.60626 0.0
C471 C 0.56604 0.94376 0.58669 0.0
C472 C 0.53788 0.90059 0.57648 0.0
C473 C 0.3415 0.75221 0.49804 0.0
C474 C 0.37422 0.77246 0.48147 0.0
C475 C 0.35707 0.75285 0.5186 0.0
C476 C 0.4057 0.77385 0.52306 0.0
C477 C 0.43851 0.79473 0.50663 0.0
C478 C 0.42294 0.79376 0.48601 0.0
C479 C 0.42229 0.77357 0.54483 0.0
C480 C 0.45174 0.81693 0.55486 0.0
C481 C 0.40809 0.73092 0.55592 0.0
C482 C 0.37797 0.68396 0.54606 0.0
C483 C 0.39201 0.6718 0.52725 0.0
C484 C 0.36322 0.62761 0.51798 0.0
C485 C 0.32047 0.59513 0.52746 0.0
C486 C 0.30647 0.60674 0.54627 0.0
C487 C 0.33511 0.65092 0.55559 0.0
H488 H 0.29824 0.56094 0.52027 0.0
H489 H 0.57479 0.98572 0.61421 0.0
H490 H 0.70914 0.43486 0.99392 0.0
H491 H 0.67631 0.3979 0.95991 0.0
H492 H 0.66139 0.51763 0.9424 0.0
H493 H 0.6946 0.55508 0.97624 0.0
H494 H 0.5833 0.42903 0.92998 0.0
H495 H 0.75451 0.51433 0.92752 0.0
H496 H 0.83433 0.53345 0.93932 0.0
H497 H 0.8023 0.39156 0.92556 0.0
H498 H 0.72166 0.37106 0.91436 0.0
H499 H 0.56822 0.40738 0.81912 0.0
H500 H 0.58905 0.43434 0.85544 0.0
H501 H 0.63073 0.32915 0.86574 0.0
H502 H 0.61167 0.30349 0.82909 0.0
H503 H 0.69222 0.40615 0.88307 0.0
H504 H 0.52299 0.31997 0.88391 0.0
H505 H 0.44238 0.29862 0.87229 0.0
H506 H 0.4675 0.43647 0.88977 0.0
H507 H 0.54887 0.45937 0.90079 0.0
C508 C 0.69825 0.45306 0.98298 0.0
C509 C 0.70484 0.49811 0.98778 0.0
C510 C 0.67954 0.43189 0.96352 0.0
C511 C 0.66673 0.45518 0.94856 0.0
C512 C 0.67101 0.49902 0.95371 0.0
C513 C 0.69025 0.52047 0.97304 0.0
C514 C 0.65228 0.43569 0.92698 0.0
C515 C 0.6071 0.42427 0.91961 0.0
C516 C 0.68307 0.42851 0.91369 0.0
C517 C 0.73175 0.44098 0.92034 0.0
C518 C 0.76423 0.48701 0.92725 0.0
C519 C 0.80965 0.49811 0.93384 0.0
C520 C 0.82332 0.4637 0.93324 0.0
C521 C 0.7916 0.41813 0.92606 0.0
C522 C 0.74598 0.40671 0.91966 0.0
C523 C 0.58167 0.38993 0.82919 0.0
C524 C 0.58822 0.35326 0.82132 0.0
C525 C 0.59335 0.40518 0.85 0.0
C526 C 0.61066 0.38324 0.86359 0.0
C527 C 0.61739 0.34668 0.85566 0.0
C528 C 0.60652 0.332 0.83472 0.0
C529 C 0.62293 0.39921 0.88585 0.0
C530 C 0.66794 0.41026 0.89339 0.0
C531 C 0.59166 0.40548 0.89935 0.0
C532 C 0.54239 0.39159 0.89296 0.0
C533 C 0.51156 0.34596 0.88508 0.0
C534 C 0.46574 0.33361 0.87855 0.0
C535 C 0.45003 0.36636 0.8801 0.0
C536 C 0.47994 0.41136 0.88836 0.0
C537 C 0.52594 0.42406 0.89473 0.0
H538 H 0.41465 0.35685 0.87496 0.0
H539 H 0.85854 0.47236 0.93826 0.0
H540 H 0.29871 0.3755 0.05621 0.0
H541 H 0.37753 0.39016 0.06625 0.0
H542 H 0.39241 0.50092 0.10837 0.0
H543 H 0.31262 0.4835 0.09968 0.0
H544 H 0.45092 0.46145 0.05654 0.0
H545 H 0.4793 0.53704 0.142 0.0
H546 H 0.43575 0.51787 0.17559 0.0
H547 H 0.35294 0.37241 0.15684 0.0
H548 H 0.39591 0.39063 0.12315 0.0
H549 H 0.68695 0.61099 0.06198 0.0
H550 H 0.60494 0.58858 0.07028 0.0
H551 H 0.5974 0.48409 0.11412 0.0
H552 H 0.68005 0.50827 0.10678 0.0
H553 H 0.53505 0.5104 0.12492 0.0
H554 H 0.57596 0.45617 0.06288 0.0
H555 H 0.61971 0.46512 0.02994 0.0
H556 H 0.56041 0.54503 1.00306 0.0
H557 H 0.51702 0.53734 0.036 0.0
C558 C 0.31834 0.40172 0.06816 0.0
C559 C 0.3 0.42858 0.07707 0.0
C560 C 0.36338 0.41027 0.07385 0.0
C561 C 0.39122 0.4468 0.08806 0.0
C562 C 0.37155 0.47178 0.0978 0.0
C563 C 0.32596 0.46211 0.09264 0.0
C564 C 0.44267 0.46373 0.09013 0.0
C565 C 0.46894 0.47148 0.07159 0.0
C566 C 0.46663 0.4766 0.10971 0.0
C567 C 0.44066 0.46531 0.12998 0.0
C568 C 0.45188 0.50093 0.14507 0.0
C569 C 0.42716 0.49025 0.1641 0.0
C570 C 0.39138 0.44399 0.1683 0.0
C571 C 0.38032 0.40829 0.15349 0.0
C572 C 0.40477 0.4188 0.1344 0.0
C573 C 0.66833 0.58471 0.07404 0.0
C574 C 0.68908 0.56049 0.08337 0.0
C575 C 0.62157 0.57184 0.07874 0.0
C576 C 0.59475 0.53345 0.09219 0.0
C577 C 0.61735 0.51341 0.10351 0.0
C578 C 0.66455 0.52717 0.09923 0.0
C579 C 0.54244 0.50881 0.09136 0.0
C580 C 0.5164 0.4997 0.11003 0.0
C581 C 0.51827 0.49265 0.07199 0.0
C582 C 0.54352 0.49648 0.05197 0.0
C583 C 0.57242 0.47583 0.04998 0.0
C584 C 0.59719 0.48071 0.03132 0.0
C585 C 0.59286 0.50566 0.01444 0.0
C586 C 0.56374 0.52574 0.01617 0.0
C587 C 0.53905 0.52114 0.03482 0.0
H588 H 0.61195 0.50934 1.0 0.0
H589 H 0.37232 0.43577 0.18305 0.0
H590 H 0.15397 0.68641 0.44367 0.0
H591 H 0.10339 0.60374 0.45296 0.0
H592 H 0.00485 0.58932 0.40418 0.0
H593 H 0.0574 0.67152 0.39375 0.0
H594 H 0.0213 0.53422 0.4627 0.0
H595 H 0.98327 0.49956 0.37304 0.0
H596 H 0.01783 0.54037 0.33955 0.0
H597 H 0.15403 0.62059 0.36901 0.0
H598 H 0.12055 0.57954 0.40255 0.0
H599 H 0.84121 0.30833 0.43964 0.0
H600 H 0.90216 0.38727 0.44897 0.0
H601 H 0.00106 0.37394 0.40798 0.0
H602 H 0.93769 0.29584 0.39692 0.0
H603 H 0.0011 0.44427 0.39693 0.0
H604 H 0.01856 0.40018 0.46483 0.0
H605 H -0.00311 0.36063 0.49931 0.0
H606 H 0.9252 0.43695 0.51547 0.0
H607 H 0.94578 0.47649 0.48099 0.0
C608 C 0.12079 0.66609 0.43532 0.0
C609 C 0.11034 0.68445 0.41741 0.0
C610 C 0.09176 0.61882 0.44076 0.0
C611 C 0.05162 0.59005 0.42862 0.0
C612 C 0.03676 0.61078 0.41322 0.0
C613 C 0.06656 0.65769 0.40733 0.0
C614 C 0.03124 0.53823 0.42918 0.0
C615 C 0.0166 0.51422 0.4484 0.0
C616 C 0.02844 0.51282 0.41068 0.0
C617 C 0.04924 0.53673 0.39036 0.0
C618 C 0.02066 0.52566 0.37233 0.0
C619 C 0.04006 0.54886 0.35335 0.0
C620 C 0.08805 0.58313 0.35217 0.0
C621 C 0.11684 0.59409 0.36995 0.0
C622 C 0.09768 0.57081 0.38895 0.0
C623 C 0.87632 0.32162 0.43305 0.0
C624 C 0.88471 0.29665 0.41722 0.0
C625 C 0.9116 0.36683 0.43865 0.0
C626 C 0.95653 0.38705 0.4292 0.0
C627 C 0.96648 0.35947 0.41528 0.0
C628 C 0.93048 0.31484 0.40901 0.0
C629 C 0.9886 0.43898 0.43044 0.0
C630 C 0.00603 0.46357 0.41146 0.0
C631 C -0.00386 0.46481 0.44936 0.0
C632 C 0.98365 0.44124 0.47023 0.0
C633 C -0.00208 0.40835 0.47567 0.0
C634 C 0.98585 0.38594 0.49524 0.0
C635 C 0.95966 0.39624 0.50957 0.0
C636 C 0.94554 0.42904 0.50437 0.0
C637 C 0.9575 0.45155 0.48482 0.0
H638 H 0.95034 0.37884 0.5247 0.0
H639 H 0.10294 0.60106 0.33747 0.0
H640 H 0.40071 0.12897 0.77678 0.0
H641 H 0.40415 0.06065 0.7903 0.0
H642 H 0.37209 -0.00215 0.72851 0.0
H643 H 0.36858 0.066 0.71488 0.0
H644 H 0.3475 0.9303 0.76378 0.0
H645 H 0.48279 0.07678 0.73239 0.0
H646 H 0.5286 0.16406 0.73155 0.0
H647 H 0.55435 0.16723 0.79788 0.0
H648 H 0.50838 0.07982 0.79904 0.0
H649 H 0.54432 0.90443 0.71966 0.0
H650 H 0.51414 0.95591 0.73136 0.0
H651 H 0.45886 0.87255 0.78769 0.0
H652 H 0.48918 0.82085 0.77608 0.0
H653 H 0.52345 0.01052 0.76657 0.0
H654 H 0.34601 0.85907 0.79328 0.0
H655 H 0.29777 0.77212 0.7902 0.0
H656 H 0.35558 0.77824 0.72883 0.0
H657 H 0.40362 0.8652 0.73148 0.0
C658 C 0.39231 0.09961 0.76629 0.0
C659 C 0.38622 0.10329 0.74464 0.0
C660 C 0.39387 0.06045 0.7741 0.0
C661 C 0.38942 0.02494 0.76027 0.0
C662 C 0.37574 0.0251 0.73938 0.0
C663 C 0.37421 0.06427 0.73155 0.0
C664 C 0.4125 -0.00291 0.7653 0.0
C665 C 0.38582 0.94761 0.76508 0.0
C666 C 0.46255 0.01991 0.76661 0.0
C667 C 0.49228 0.07206 0.7658 0.0
C668 C 0.49845 0.09619 0.74675 0.0
C669 C 0.52429 0.14562 0.74623 0.0
C670 C 0.54434 0.17121 0.76466 0.0
C671 C 0.53881 0.14736 0.78362 0.0
C672 C 0.51296 0.09789 0.78421 0.0
C673 C 0.52669 0.89773 0.73475 0.0
C674 C 0.51842 0.85842 0.74683 0.0
C675 C 0.50965 0.92721 0.74146 0.0
C676 C 0.48391 0.91759 0.76026 0.0
C677 C 0.47839 0.88022 0.77307 0.0
C678 C 0.49567 0.85082 0.7664 0.0
C679 C 0.45855 0.94352 0.7649 0.0
C680 C 0.485 0.99287 0.7666 0.0
C681 C 0.40835 0.92046 0.76476 0.0
C682 C 0.37872 0.86844 0.7627 0.0
C683 C 0.34823 0.8418 0.77911 0.0
C684 C 0.32096 0.79256 0.77745 0.0
C685 C 0.32374 0.76966 0.75937 0.0
C686 C 0.35357 0.79599 0.74286 0.0
C687 C 0.38082 0.84524 0.74443 0.0
H688 H 0.30271 0.73153 0.75813 0.0
H689 H 0.56417 0.20948 0.76426 0.0
H690 H 0.6168 0.72437 0.66092 0.0
H691 H 0.59627 0.6419 0.65559 0.0
H692 H 0.60597 0.6266 0.72255 0.0
H693 H 0.63078 0.71007 0.72744 0.0
H694 H 0.62262 0.56715 0.70445 0.0
H695 H 0.49956 0.60911 0.69723 0.0
H696 H 0.46376 0.65344 0.68161 0.0
H697 H 0.46418 0.59615 0.62091 0.0
H698 H 0.50031 0.55182 0.63617 0.0
H699 H 0.37642 0.33661 0.6997 0.0
H700 H 0.42489 0.42317 0.69917 0.0
H701 H 0.54305 0.41244 0.67459 0.0
H702 H 0.49536 0.32635 0.67569 0.0
H703 H 0.46568 0.48449 0.66918 0.0
H704 H 0.64438 0.49832 0.69235 0.0
H705 H 0.67539 0.45833 0.71496 0.0
H706 H 0.55204 0.40599 0.75427 0.0
H707 H 0.52007 0.44497 0.73176 0.0
C708 C 0.61676 0.70374 0.67427 0.0
C709 C 0.62494 0.72275 0.69458 0.0
C710 C 0.60454 0.65667 0.67129 0.0
C711 C 0.59774 0.62769 0.68876 0.0
C712 C 0.6106 0.64817 0.70884 0.0
C713 C 0.62466 0.69576 0.71169 0.0
C714 C 0.57091 0.57561 0.68672 0.0
C715 C 0.58858 0.54906 0.69653 0.0
C716 C 0.52576 0.55199 0.67692 0.0
C717 C 0.50307 0.57768 0.66779 0.0
C718 C 0.49214 0.60619 0.68055 0.0
C719 C 0.47185 0.6313 0.67177 0.0
C720 C 0.46194 0.62781 0.65028 0.0
C721 C 0.472 0.59893 0.63754 0.0
C722 C 0.49233 0.57377 0.64625 0.0
C723 C 0.41265 0.35292 0.69411 0.0
C724 C 0.43235 0.32519 0.68779 0.0
C725 C 0.44027 0.40217 0.69381 0.0
C726 C 0.48772 0.42409 0.6871 0.0
C727 C 0.50686 0.39623 0.68024 0.0
C728 C 0.4795 0.34714 0.68074 0.0
C729 C 0.51719 0.47613 0.68715 0.0
C730 C 0.50006 0.50256 0.67683 0.0
C731 C 0.56179 0.49965 0.6973 0.0
C732 C 0.57969 0.47414 0.71026 0.0
C733 C 0.62378 0.47795 0.70574 0.0
C734 C 0.64146 0.45537 0.71851 0.0
C735 C 0.61559 0.42939 0.73598 0.0
C736 C 0.57183 0.42564 0.74063 0.0
C737 C 0.55378 0.44775 0.7278 0.0
H738 H 0.62964 0.41246 0.74598 0.0
H739 H 0.44634 0.64737 0.64351 0.0
H740 H 0.12219 0.41636 0.98387 0.0
H741 H 0.07375 0.44931 0.97107 0.0
H742 H 0.98772 0.39937 0.02711 0.0
H743 H 0.03446 0.36374 0.03922 0.0
H744 H 0.93589 0.39959 0.99501 0.0
H745 H 0.09691 0.51176 0.02262 0.0
H746 H 0.18431 0.55117 0.02036 0.0
H747 H 0.18022 0.59972 0.95822 0.0
H748 H 0.09285 0.55987 0.95987 0.0
H749 H 0.94742 0.62066 0.03614 0.0
H750 H 0.99128 0.58197 0.02402 0.0
H751 H 0.89393 0.52012 0.97207 0.0
H752 H 0.84836 0.5562 0.98507 0.0
H753 H 0.03626 0.57435 0.99119 0.0
H754 H 0.87431 0.40568 0.96467 0.0
H755 H 0.78689 0.36559 0.96558 0.0
H756 H 0.79229 0.43074 0.02483 0.0
H757 H 0.8798 0.47002 0.02475 0.0
C758 C 0.0918 0.41108 0.99302 0.0
C759 C 0.0818 0.38799 1.01252 0.0
C760 C 0.06439 0.43007 0.98577 0.0
C761 C 0.0281 0.42804 0.99843 0.0
C762 C 0.01575 0.40152 0.01713 0.0
C763 C 0.04233 0.38123 0.02408 0.0
C764 C 0.00727 0.4584 0.99396 0.0
C765 C 0.95779 0.43777 0.9939 0.0
C766 C 0.03588 0.50819 0.99204 0.0
C767 C 0.08839 0.53251 0.9913 0.0
C768 C 0.11467 0.53066 1.00845 0.0
C769 C 0.16413 0.55295 1.00726 0.0
C770 C 0.1877 0.5777 0.98915 0.0
C771 C 0.16189 0.58033 0.97219 0.0
C772 C 0.11242 0.5579 0.97323 0.0
C773 C 0.93637 0.59983 0.02184 0.0
C774 C 0.89464 0.59073 1.01161 0.0
C775 C 0.96131 0.57777 0.01488 0.0
C776 C 0.94505 0.54712 0.99744 0.0
C777 C 0.90632 0.54256 0.98585 0.0
C778 C 0.88056 0.56334 0.9932 0.0
C779 C 0.96493 0.5157 0.99342 0.0
C780 C 0.01427 0.53612 0.99173 0.0
C781 C 0.93614 0.4657 0.99368 0.0
C782 C 0.8836 0.44129 0.99453 0.0
C783 C 0.85684 0.41122 0.97798 0.0
C784 C 0.80733 0.38864 0.97837 0.0
C785 C 0.78416 0.39594 0.99521 0.0
C786 C 0.81043 0.42532 1.01183 0.0
C787 C 0.85997 0.44758 1.01167 0.0
H788 H 0.74583 0.37867 0.99541 0.0
H789 H 0.22598 0.59503 0.98829 0.0
H790 H 0.30661 0.82545 0.34501 0.0
H791 H 0.3924 0.87462 0.34284 0.0
H792 H 0.38114 -0.00064 0.35362 0.0
H793 H 0.29422 0.94972 0.35652 0.0
H794 H 0.44731 -0.00533 0.31726 0.0
H795 H 0.41282 0.97962 0.39178 0.0
H796 H 0.37797 0.93889 0.42518 0.0
H797 H 0.44372 0.8537 0.41733 0.0
H798 H 0.47829 0.89333 0.38367 0.0
H799 H 0.68342 0.15589 0.34497 0.0
H800 H 0.59818 0.10771 0.34048 0.0
H801 H 0.60592 0.98202 0.35432 0.0
H802 H 0.69204 0.03081 0.35947 0.0
H803 H 0.54031 0.98628 0.37726 0.0
H804 H 0.57964 0.00363 0.3045 0.0
H805 H 0.61877 0.04604 0.27194 0.0
H806 H 0.54611 0.12552 0.27581 0.0
H807 H 0.50702 0.08407 0.30858 0.0
C808 C 0.32223 0.86339 0.34683 0.0
C809 C 0.29405 0.88394 0.35119 0.0
C810 C 0.37114 0.89129 0.34555 0.0
C811 C 0.3926 0.94021 0.34826 0.0
C812 C 0.36468 0.96142 0.35157 0.0
C813 C 0.31538 0.93324 0.3532 0.0
C814 C 0.4445 0.96822 0.34849 0.0
C815 C 0.46793 0.99372 0.33045 0.0
C816 C 0.47064 0.96485 0.36543 0.0
C817 C 0.44756 0.93898 0.38503 0.0
C818 C 0.419 0.95149 0.39694 0.0
C819 C 0.39937 0.92866 0.41595 0.0
C820 C 0.40821 0.8934 0.42328 0.0
C821 C 0.43655 0.88073 0.41156 0.0
C822 C 0.45618 0.90337 0.39252 0.0
C823 C 0.6671 0.1179 0.34683 0.0
C824 C 0.69403 0.09687 0.35267 0.0
C825 C 0.61843 0.0904 0.34407 0.0
C826 C 0.5959 0.0413 0.34678 0.0
C827 C 0.6229 0.01994 0.35205 0.0
C828 C 0.67185 0.04764 0.35496 0.0
C829 C 0.54372 0.01332 0.34603 0.0
C830 C 0.52002 0.98742 0.36396 0.0
C831 C 0.51745 0.01613 0.32891 0.0
C832 C 0.54065 0.04095 0.3091 0.0
C833 C 0.57225 0.03039 0.2985 0.0
C834 C 0.59439 0.05422 0.27998 0.0
C835 C 0.58501 0.08852 0.27183 0.0
C836 C 0.55336 0.09896 0.28215 0.0
C837 C 0.53114 0.07525 0.30068 0.0
H838 H 0.6022 0.10695 0.2575 0.0
H839 H 0.39349 0.87622 0.43814 0.0
H840 H 0.40262 0.31678 0.75978 0.0
H841 H 0.38505 0.33201 0.79534 0.0
H842 H 0.27779 0.18522 0.80146 0.0
H843 H 0.29516 0.16962 0.76579 0.0
H844 H 0.30585 0.32124 0.81665 0.0
H845 H 0.29329 0.14922 0.84926 0.0
H846 H 0.32508 0.09647 0.84052 0.0
H847 H 0.44648 0.21227 0.81135 0.0
H848 H 0.41582 0.26579 0.82022 0.0
H849 H 0.19665 0.26732 0.91636 0.0
H850 H 0.22056 0.26473 0.88018 0.0
H851 H 0.35931 0.29741 0.90183 0.0
H852 H 0.33545 0.29987 0.93814 0.0
H853 H 0.32734 0.22852 0.87308 0.0
H854 H 0.34314 0.38008 0.87871 0.0
H855 H 0.31933 0.43906 0.88741 0.0
H856 H 0.21034 0.38031 0.84045 0.0
H857 H 0.23193 0.31953 0.83206 0.0
C858 C 0.37462 0.28784 0.76852 0.0
C859 C 0.35033 0.24189 0.75995 0.0
C860 C 0.36459 0.2967 0.78886 0.0
C861 C 0.3305 0.25971 0.80115 0.0
C862 C 0.30454 0.21425 0.79229 0.0
C863 C 0.31425 0.20542 0.77184 0.0
C864 C 0.32437 0.26787 0.82367 0.0
C865 C 0.31026 0.30087 0.82901 0.0
C866 C 0.33239 0.24293 0.83985 0.0
C867 C 0.35198 0.21134 0.83524 0.0
C868 C 0.32692 0.16346 0.84112 0.0
C869 C 0.34472 0.13342 0.83612 0.0
C870 C 0.38769 0.15096 0.82533 0.0
C871 C 0.41314 0.19867 0.81965 0.0
C872 C 0.39555 0.22885 0.82465 0.0
C873 C 0.23221 0.27379 0.91343 0.0
C874 C 0.26415 0.28378 0.93013 0.0
C875 C 0.24598 0.27268 0.89271 0.0
C876 C 0.29198 0.2815 0.88819 0.0
C877 C 0.3238 0.29092 0.90486 0.0
C878 C 0.31019 0.29251 0.92561 0.0
C879 C 0.30631 0.28018 0.86607 0.0
C880 C 0.32258 0.24882 0.86079 0.0
C881 C 0.30173 0.30788 0.85004 0.0
C882 C 0.28889 0.34479 0.85489 0.0
C883 C 0.31374 0.37933 0.87037 0.0
C884 C 0.30068 0.41315 0.87524 0.0
C885 C 0.26349 0.41353 0.86446 0.0
C886 C 0.23915 0.37996 0.84881 0.0
C887 C 0.25167 0.34569 0.84403 0.0
H888 H 0.25355 0.43984 0.86821 0.0
H889 H 0.40128 0.12759 0.82139 0.0
H890 H 0.9799 0.31008 0.26562 0.0
H891 H 0.00889 0.33116 0.22963 0.0
H892 H 0.03143 0.21154 0.22661 0.0
H893 H 0.00596 0.19232 0.26301 0.0
H894 H 0.10141 0.28267 0.20817 0.0
H895 H 0.93028 0.21477 0.20538 0.0
H896 H 0.85481 0.21083 0.21495 0.0
H897 H 0.9061 0.35065 0.19033 0.0
H898 H 0.98179 0.35556 0.18087 0.0
H899 H 0.12737 0.2813 0.09732 0.0
H900 H 0.09666 0.25766 0.1331 0.0
H901 H 0.07277 0.37638 0.13724 0.0
H902 H 0.10156 0.39905 0.10151 0.0
H903 H 0.00271 0.30456 0.15492 0.0
H904 H 0.1724 0.37672 0.1595 0.0
H905 H 0.2506 0.38646 0.15044 0.0
H906 H 0.20532 0.24547 0.172 0.0
H907 H 0.12666 0.23468 0.18095 0.0
C908 C 0.99184 0.28871 0.25748 0.0
C909 C 0.99017 0.2492 0.26733 0.0
C910 C 0.00778 0.30044 0.23673 0.0
C911 C 0.0214 0.27235 0.22514 0.0
C912 C 0.02078 0.2336 0.23508 0.0
C913 C 0.00558 0.22229 0.2559 0.0
C914 C 0.03612 0.28291 0.20268 0.0
C915 C 0.07944 0.2868 0.1965 0.0
C916 C 0.00824 0.28962 0.18743 0.0
C917 C 0.96193 0.28575 0.19263 0.0
C918 C 0.92547 0.24471 0.20208 0.0
C919 C 0.88258 0.24228 0.20747 0.0
C920 C 0.87555 0.28043 0.20326 0.0
C921 C 0.91129 0.32095 0.19351 0.0
C922 C 0.95424 0.32363 0.18818 0.0
C923 C 0.11501 0.30197 0.10578 0.0
C924 C 0.11701 0.34206 0.0965 0.0
C925 C 0.0978 0.28867 0.12631 0.0
C926 C 0.08312 0.31571 0.13809 0.0
C927 C 0.08383 0.35488 0.12857 0.0
C928 C 0.10042 0.36782 0.10804 0.0
C929 C 0.06786 0.30416 0.16043 0.0
C930 C 0.02451 0.30015 0.16659 0.0
C931 C 0.09596 0.29795 0.17571 0.0
C932 C 0.1435 0.30472 0.17068 0.0
C933 C 0.17906 0.34772 0.1622 0.0
C934 C 0.22346 0.35344 0.1571 0.0
C935 C 0.23282 0.31653 0.16057 0.0
C936 C 0.19795 0.27397 0.16928 0.0
C937 C 0.15348 0.26805 0.17439 0.0
H938 H 0.26707 0.32087 0.15653 0.0
H939 H 0.84247 0.27863 0.20757 0.0
H940 H 0.74187 0.06076 0.60901 0.0
H941 H 0.75615 0.0857 0.57231 0.0
H942 H 0.6691 0.94083 0.55242 0.0
H943 H 0.6538 0.91554 0.58908 0.0
H944 H 0.75079 0.98492 0.5299 0.0
H945 H 0.62526 0.01748 0.5485 0.0
H946 H 0.58861 0.05152 0.57155 0.0
H947 H 0.70704 0.19065 0.56119 0.0
H948 H 0.74476 0.15718 0.53853 0.0
H949 H 0.69451 0.08863 0.43053 0.0
H950 H 0.679 0.05644 0.46598 0.0
H951 H 0.82693 0.09964 0.47344 0.0
H952 H 0.84294 0.1321 0.4377 0.0
H953 H 0.71326 0.1046 0.50195 0.0
H954 H 0.83395 0.02226 0.50886 0.0
H955 H 0.86744 0.9845 0.48629 0.0
H956 H 0.7501 0.93847 0.44376 0.0
H957 H 0.71562 0.9754 0.46621 0.0
C958 C 0.72514 0.03415 0.59689 0.0
C959 C 0.69656 0.98605 0.60215 0.0
C960 C 0.73355 0.04852 0.57586 0.0
C961 C 0.7135 0.0152 0.55957 0.0
C962 C 0.68524 0.96717 0.56471 0.0
C963 C 0.67673 0.95275 0.58573 0.0
C964 C 0.72222 0.03042 0.53718 0.0
C965 C 0.74261 0.01111 0.52379 0.0
C966 C 0.71129 0.06433 0.5291 0.0
C967 C 0.68811 0.08472 0.54217 0.0
C968 C 0.64361 0.05524 0.55137 0.0
C969 C 0.62266 0.07443 0.56432 0.0
C970 C 0.64571 0.12318 0.56796 0.0
C971 C 0.6894 0.15287 0.55846 0.0
C972 C 0.71057 0.1338 0.54557 0.0
C973 C 0.72381 0.09082 0.43952 0.0
C974 C 0.77008 0.1131 0.43121 0.0
C975 C 0.71483 0.07254 0.45989 0.0
C976 C 0.75174 0.07574 0.47244 0.0
C977 C 0.79777 0.09644 0.46399 0.0
C978 C 0.80687 0.1149 0.44353 0.0
C979 C 0.742 0.05921 0.49463 0.0
C980 C 0.72156 0.07846 0.50803 0.0
C981 C 0.75244 0.02489 0.50261 0.0
C982 C 0.77251 0.00204 0.48911 0.0
C983 C 0.81523 0.00394 0.49473 0.0
C984 C 0.83439 0.9827 0.48195 0.0
C985 C 0.81099 0.95924 0.46356 0.0
C986 C 0.76829 0.95682 0.45796 0.0
C987 C 0.74896 0.97796 0.47069 0.0
H988 H 0.8259 0.94285 0.45368 0.0
H989 H 0.62976 0.138 0.57813 0.0
H990 H 0.64086 0.86011 0.78302 0.0
H991 H 0.66638 0.85116 0.81814 0.0
H992 H 0.6636 0.7232 0.79796 0.0
H993 H 0.63535 0.73055 0.76358 0.0
H994 H 0.62617 0.70619 0.83328 0.0
H995 H 0.77047 0.83622 0.80706 0.0
H996 H 0.82211 0.91485 0.79153 0.0
H997 H 0.79274 0.98076 0.84339 0.0
H998 H 0.74043 0.90244 0.85911 0.0
H999 H 0.74892 0.67997 0.91866 0.0
H1000 H 0.73158 0.69797 0.88374 0.0
H1001 H 0.71134 0.80899 0.90966 0.0
H1002 H 0.73148 0.79313 0.94459 0.0
H1003 H 0.75983 0.83548 0.87244 0.0
H1004 H 0.61226 0.6989 0.89716 0.0
H1005 H 0.57103 0.61946 0.91325 0.0
H1006 H 0.61828 0.56496 0.86299 0.0
H1007 H 0.65952 0.64406 0.84655 0.0
C1008 C 0.64636 0.8305 0.78608 0.0
C1009 C 0.63636 0.79619 0.77052 0.0
C1010 C 0.66107 0.82538 0.80615 0.0
C1011 C 0.66748 0.78664 0.81082 0.0
C1012 C 0.65871 0.75323 0.79497 0.0
C1013 C 0.64288 0.75767 0.77519 0.0
C1014 C 0.68155 0.77953 0.83227 0.0
C1015 C 0.65579 0.73454 0.84162 0.0
C1016 C 0.71977 0.81631 0.84356 0.0
C1017 C 0.75114 0.86344 0.83414 0.0
C1018 C 0.77474 0.86746 0.81507 0.0
C1019 C 0.80418 0.91197 0.80625 0.0
C1020 C 0.81059 0.95276 0.81644 0.0
C1021 C 0.78767 0.94913 0.8355 0.0
C1022 C 0.75816 0.90469 0.84438 0.0
C1023 C 0.74159 0.70877 0.91698 0.0
C1024 C 0.74143 0.73491 0.93458 0.0
C1025 C 0.73109 0.71865 0.89697 0.0
C1026 C 0.71923 0.75424 0.89411 0.0
C1027 C 0.72005 0.78114 0.9115 0.0
C1028 C 0.73104 0.77161 0.93152 0.0
C1029 C 0.70475 0.76246 0.87308 0.0
C1030 C 0.73021 0.80749 0.86394 0.0
C1031 C 0.66702 0.72556 0.86176 0.0
C1032 C 0.63899 0.67732 0.87067 0.0
C1033 C 0.61358 0.66987 0.8895 0.0
C1034 C 0.59037 0.62497 0.89871 0.0
C1035 C 0.59235 0.58727 0.88923 0.0
C1036 C 0.61699 0.59425 0.87036 0.0
C1037 C 0.63996 0.63901 0.86101 0.0
H1038 H 0.57446 0.55258 0.89641 0.0
H1039 H 0.8334 0.98719 0.80958 0.0
H1040 H 0.98327 0.6709 0.26697 0.0
H1041 H 0.95781 0.65463 0.23024 0.0
H1042 H -0.00217 0.80107 0.22144 0.0
H1043 H 0.02274 0.81747 0.25827 0.0
H1044 H 0.90923 0.73734 0.20403 0.0
H1045 H 0.06944 0.76171 0.20467 0.0
H1046 H 0.13154 0.74483 0.2169 0.0
H1047 H 0.04783 0.60078 0.19624 0.0
H1048 H 0.98512 0.61649 0.18432 0.0
H1049 H 0.8777 0.7157 0.09344 0.0
H1050 H 0.91316 0.7442 0.12818 0.0
H1051 H 0.90919 0.61163 0.13952 0.0
H1052 H 0.87656 0.58437 0.10466 0.0
H1053 H 0.98455 0.67516 0.15536 0.0
H1054 H 0.82311 0.64073 0.15902 0.0
H1055 H 0.75306 0.64667 0.14885 0.0
H1056 H 0.82771 0.79504 0.16349 0.0
H1057 H 0.89848 0.79009 0.17347 0.0
C1058 C 0.98617 0.69951 0.25728 0.0
C1059 C 0.00511 0.74549 0.26549 0.0
C1060 C 0.97198 0.69026 0.23626 0.0
C1061 C 0.97646 0.72679 0.22307 0.0
C1062 C -0.00569 0.77246 0.23134 0.0
C1063 C 0.00877 0.78181 0.25232 0.0
C1064 C 0.96281 0.71738 0.20061 0.0
C1065 C 0.92613 0.72444 0.19325 0.0
C1066 C 0.98397 0.6992 0.18679 0.0
C1067 C 0.02239 0.69022 0.19372 0.0
C1068 C 0.06419 0.72636 0.20287 0.0
C1069 C 0.09955 0.71698 0.20976 0.0
C1070 C 0.09368 0.67171 0.20743 0.0
C1071 C 0.0525 0.63581 0.19812 0.0
C1072 C 0.01703 0.64493 0.19128 0.0
C1073 C 0.88506 0.69303 0.10328 0.0
C1074 C 0.87437 0.64786 0.0963 0.0
C1075 C 0.90497 0.70914 0.12321 0.0
C1076 C 0.91308 0.67975 0.13674 0.0
C1077 C 0.90349 0.63515 0.12947 0.0
C1078 C 0.88472 0.61955 0.10946 0.0
C1079 C 0.93021 0.69433 0.15868 0.0
C1080 C 0.96774 0.68843 0.16599 0.0
C1081 C 0.90877 0.7121 0.17265 0.0
C1082 C 0.86625 0.71516 0.16675 0.0
C1083 C 0.82469 0.67469 0.15993 0.0
C1084 C 0.78485 0.67787 0.15422 0.0
C1085 C 0.78599 0.72124 0.15547 0.0
C1086 C 0.82693 0.76149 0.16249 0.0
C1087 C 0.86691 0.75852 0.16818 0.0
H1088 H 0.75511 0.72363 0.15105 0.0
H1089 H 0.12106 0.66451 0.21278 0.0
H1090 H 0.24496 0.95809 0.60409 0.0
H1091 H 0.23718 0.92639 0.56846 0.0
H1092 H 0.27817 0.06409 0.5428 0.0
H1093 H 0.28427 0.09523 0.57832 0.0
H1094 H 0.20903 0.00312 0.52129 0.0
H1095 H 0.35291 0.01442 0.54571 0.0
H1096 H 0.40489 0.00065 0.5692 0.0
H1097 H 0.32331 0.85135 0.55737 0.0
H1098 H 0.26958 0.86395 0.53436 0.0
H1099 H 0.29224 0.90344 0.42764 0.0
H1100 H 0.30552 0.94286 0.46167 0.0
H1101 H 0.1544 0.88189 0.46968 0.0
H1102 H 0.14108 0.84357 0.43538 0.0
H1103 H 0.2833 0.90897 0.49911 0.0
H1104 H 0.12904 0.95046 0.50045 0.0
H1105 H 0.08451 0.97193 0.47566 0.0
H1106 H 0.20299 0.03051 0.43327 0.0
H1107 H 0.24844 0.00997 0.45792 0.0
C1108 C 0.25251 0.98154 0.59081 0.0
C1109 C 0.26508 0.02907 0.59396 0.0
C1110 C 0.24822 0.96347 0.57044 0.0
C1111 C 0.25754 0.99289 0.55283 0.0
C1112 C 0.27052 0.04051 0.55604 0.0
C1113 C 0.27405 0.05833 0.57636 0.0
C1114 C 0.25282 0.97409 0.53104 0.0
C1115 C 0.22536 0.98256 0.51649 0.0
C1116 C 0.27471 0.94787 0.52451 0.0
C1117 C 0.30683 0.94013 0.53847 0.0
C1118 C 0.34567 0.97858 0.54828 0.0
C1119 C 0.37554 0.97098 0.5615 0.0
C1120 C 0.36753 0.92519 0.56477 0.0
C1121 C 0.32946 0.88682 0.55486 0.0
C1122 C 0.29918 0.89416 0.54177 0.0
C1123 C 0.26188 0.89901 0.43651 0.0
C1124 C 0.21564 0.87059 0.42872 0.0
C1125 C 0.2695 0.92136 0.45604 0.0
C1126 C 0.23103 0.91568 0.46828 0.0
C1127 C 0.18478 0.88765 0.46042 0.0
C1128 C 0.17718 0.86566 0.44078 0.0
C1129 C 0.2392 0.93767 0.48953 0.0
C1130 C 0.2671 0.92962 0.50396 0.0
C1131 C 0.21883 0.96535 0.4958 0.0
C1132 C 0.19193 0.97823 0.48095 0.0
C1133 C 0.14564 0.96807 0.48587 0.0
C1134 C 0.12023 0.98006 0.47184 0.0
C1135 C 0.14085 0.00243 0.45287 0.0
C1136 C 0.18699 0.01301 0.44793 0.0
C1137 C 0.21256 0.00115 0.46191 0.0
H1138 H 0.12112 0.01165 0.44203 0.0
H1139 H 0.39083 0.91944 0.57496 0.0
loop_
_geom_bond_atom_site_label_1
_geom_bond_atom_site_label_2
_geom_bond_distance
_geom_bond_site_symmetry_2
_ccdc_geom_bond_type
Sm0 C2 2.846 . S
Sm0 O20 2.543 . S
Sm0 O21 2.450 . S
Sm0 O22 2.681 . S
Sm0 O23 2.464 . S
Sm0 O24 2.396 . S
Sm0 O28 2.386 . S
Sm0 O31 2.408 . S
Sm1 C11 2.846 1_554 S
Sm1 O22 2.386 . S
Sm1 O25 2.408 . S
Sm1 O26 2.543 1_554 S
Sm1 O27 2.450 1_554 S
Sm1 O28 2.681 . S
Sm1 O29 2.464 . S
Sm1 O30 2.396 1_554 S
C2 Sm0 2.846 . S
C2 C3 1.506 . S
C2 O20 1.261 . S
C2 O21 1.242 . S
C3 C2 1.506 . S
C3 C4 1.358 . S
C3 C8 1.382 . S
C4 C3 1.358 . S
C4 C5 1.385 . S
C4 H32 0.930 . S
C5 C4 1.385 . S
C5 C6 1.395 . S
C5 H33 0.929 . S
C6 C5 1.395 . S
C6 C7 1.335 . S
C7 C6 1.335 . S
C7 C8 1.398 . S
C7 H34 0.930 . S
C8 C3 1.382 . S
C8 C7 1.398 . S
C8 H35 0.929 . S
C9 O22 1.271 . S
C9 O23 1.251 . S
C10 O24 1.252 . S
C10 O25 1.272 . S
C11 Sm1 2.846 1_556 S
C11 C12 1.506 . S
C11 O26 1.261 . S
C11 O27 1.242 . S
C12 C11 1.506 . S
C12 C13 1.358 . S
C12 C17 1.382 . S
C13 C12 1.358 . S
C13 C14 1.385 . S
C13 H36 0.930 . S
C14 C13 1.385 . S
C14 C15 1.395 . S
C14 H37 0.929 . S
C15 C14 1.395 . S
C15 C16 1.335 . S
C16 C15 1.335 . S
C16 C17 1.398 . S
C16 H38 0.930 . S
C17 C12 1.382 . S
C17 C16 1.398 . S
C17 H39 0.929 . S
C18 O28 1.271 . S
C18 O29 1.251 . S
C19 O30 1.252 . S
C19 O31 1.272 1_556 S
O20 Sm0 2.543 . S
O20 C2 1.261 . S
O21 Sm0 2.450 . S
O21 C2 1.242 . S
O22 Sm0 2.681 . S
O22 Sm1 2.386 . S
O22 C9 1.271 . S
O23 Sm0 2.464 . S
O23 C9 1.251 . S
O24 Sm0 2.396 . S
O24 C10 1.252 . S
O25 Sm1 2.408 . S
O25 C10 1.272 . S
O26 Sm1 2.543 1_556 S
O26 C11 1.261 . S
O27 Sm1 2.450 1_556 S
O27 C11 1.242 . S
O28 Sm0 2.386 . S
O28 Sm1 2.681 . S
O28 C18 1.271 . S
O29 Sm1 2.464 . S
O29 C18 1.251 . S
O30 Sm1 2.396 1_556 S
O30 C19 1.252 . S
O31 Sm0 2.408 . S
O31 C19 1.272 1_554 S
H32 C4 0.930 . S
H33 C5 0.929 . S
H34 C7 0.930 . S
H35 C8 0.929 . S
H36 C13 0.930 . S
H37 C14 0.929 . S
H38 C16 0.930 . S
H39 C17 0.929 . S
Sm40 C42 2.846 . S
Sm40 O60 2.543 . S
Sm40 O61 2.450 . S
Sm40 O62 2.681 . S
Sm40 O63 2.464 . S
Sm40 O64 2.396 . S
Sm40 O68 2.386 . S
Sm40 O71 2.408 . S
Sm41 C51 2.846 . S
Sm41 O62 2.386 . S
Sm41 O65 2.408 . S
Sm41 O66 2.543 . S
Sm41 O67 2.450 . S
Sm41 O68 2.681 . S
Sm41 O69 2.464 . S
Sm41 O70 2.396 . S
C42 Sm40 2.846 . S
C42 C43 1.506 . S
C42 O60 1.261 . S
C42 O61 1.242 . S
C43 C42 1.506 . S
C43 C44 1.358 . S
C43 C48 1.382 . S
C44 C43 1.358 . S
C44 C45 1.385 . S
C44 H72 0.930 . S
C45 C44 1.385 . S
C45 C46 1.395 . S
C45 H73 0.929 . S
C46 C45 1.395 . S
C46 C47 1.335 . S
C47 C46 1.335 . S
C47 C48 1.398 . S
C47 H74 0.930 . S
C48 C43 1.382 . S
C48 C47 1.398 . S
C48 H75 0.929 . S
C49 O62 1.271 . S
C49 O63 1.251 . S
C50 O64 1.252 . S
C50 O65 1.272 . S
C51 Sm41 2.846 . S
C51 C52 1.506 . S
C51 O66 1.261 . S
C51 O67 1.242 . S
C52 C51 1.506 . S
C52 C53 1.358 . S
C52 C57 1.382 . S
C53 C52 1.358 . S
C53 C54 1.385 . S
C53 H76 0.930 . S
C54 C53 1.385 . S
C54 C55 1.395 . S
C54 H77 0.929 . S
C55 C54 1.395 . S
C55 C56 1.335 . S
C56 C55 1.335 . S
C56 C57 1.398 . S
C56 H78 0.930 . S
C57 C52 1.382 . S
C57 C56 1.398 . S
C57 H79 0.929 . S
C58 O68 1.271 . S
C58 O69 1.251 . S
C59 O70 1.252 . S
C59 O71 1.272 . S
O60 Sm40 2.543 . S
O60 C42 1.261 . S
O61 Sm40 2.450 . S
O61 C42 1.242 . S
O62 Sm40 2.681 . S
O62 Sm41 2.386 . S
O62 C49 1.271 . S
O63 Sm40 2.464 . S
O63 C49 1.251 . S
O64 Sm40 2.396 . S
O64 C50 1.252 . S
O65 Sm41 2.408 . S
O65 C50 1.272 . S
O66 Sm41 2.543 . S
O66 C51 1.261 . S
O67 Sm41 2.450 . S
O67 C51 1.242 . S
O68 Sm40 2.386 . S
O68 Sm41 2.681 . S
O68 C58 1.271 . S
O69 Sm41 2.464 . S
O69 C58 1.251 . S
O70 Sm41 2.396 . S
O70 C59 1.252 . S
O71 Sm40 2.408 . S
O71 C59 1.272 . S
H72 C44 0.930 . S
H73 C45 0.929 . S
H74 C47 0.930 . S
H75 C48 0.929 . S
H76 C53 0.930 . S
H77 C54 0.929 . S
H78 C56 0.930 . S
H79 C57 0.929 . S
Sm80 C82 2.846 . S
Sm80 O100 2.543 . S
Sm80 O101 2.450 . S
Sm80 O102 2.681 . S
Sm80 O103 2.464 . S
Sm80 O104 2.396 . S
Sm80 O108 2.386 . S
Sm80 O111 2.408 . S
Sm81 C91 2.846 . S
Sm81 O102 2.386 . S
Sm81 O105 2.408 . S
Sm81 O106 2.543 . S
Sm81 O107 2.450 . S
Sm81 O108 2.681 . S
Sm81 O109 2.464 . S
Sm81 O110 2.396 . S
C82 Sm80 2.846 . S
C82 C83 1.506 . S
C82 O100 1.261 . S
C82 O101 1.242 . S
C83 C82 1.506 . S
C83 C84 1.358 . S
C83 C88 1.382 . S
C84 C83 1.358 . S
C84 C85 1.385 . S
C84 H112 0.930 . S
C85 C84 1.385 . S
C85 C86 1.395 . S
C85 H113 0.929 . S
C86 C85 1.395 . S
C86 C87 1.335 . S
C87 C86 1.335 . S
C87 C88 1.398 . S
C87 H114 0.930 . S
C88 C83 1.382 . S
C88 C87 1.398 . S
C88 H115 0.929 . S
C89 O102 1.271 . S
C89 O103 1.251 . S
C90 O104 1.252 . S
C90 O105 1.272 . S
C91 Sm81 2.846 . S
C91 C92 1.506 . S
C91 O106 1.261 . S
C91 O107 1.242 . S
C92 C91 1.506 . S
C92 C93 1.358 . S
C92 C97 1.382 . S
C93 C92 1.358 . S
C93 C94 1.385 . S
C93 H116 0.930 . S
C94 C93 1.385 . S
C94 C95 1.395 . S
C94 H117 0.929 . S
C95 C94 1.395 . S
C95 C96 1.335 . S
C96 C95 1.335 . S
C96 C97 1.398 . S
C96 H118 0.930 . S
C97 C92 1.382 . S
C97 C96 1.398 . S
C97 H119 0.929 . S
C98 O108 1.271 . S
C98 O109 1.251 . S
C99 O110 1.252 . S
C99 O111 1.272 . S
O100 Sm80 2.543 . S
O100 C82 1.261 . S
O101 Sm80 2.450 . S
O101 C82 1.242 . S
O102 Sm80 2.681 . S
O102 Sm81 2.386 . S
O102 C89 1.271 . S
O103 Sm80 2.464 . S
O103 C89 1.251 . S
O104 Sm80 2.396 . S
O104 C90 1.252 . S
O105 Sm81 2.408 . S
O105 C90 1.272 . S
O106 Sm81 2.543 . S
O106 C91 1.261 . S
O107 Sm81 2.450 . S
O107 C91 1.242 . S
O108 Sm80 2.386 . S
O108 Sm81 2.681 . S
O108 C98 1.271 . S
O109 Sm81 2.464 . S
O109 C98 1.251 . S
O110 Sm81 2.396 . S
O110 C99 1.252 . S
O111 Sm80 2.408 . S
O111 C99 1.272 . S
H112 C84 0.930 . S
H113 C85 0.929 . S
H114 C87 0.930 . S
H115 C88 0.929 . S
H116 C93 0.930 . S
H117 C94 0.929 . S
H118 C96 0.930 . S
H119 C97 0.929 . S
Sm120 C122 2.846 . S
Sm120 O140 2.543 . S
Sm120 O141 2.450 . S
Sm120 O142 2.681 . S
Sm120 O143 2.464 . S
Sm120 O144 2.396 . S
Sm120 O148 2.386 . S
Sm120 O151 2.408 . S
Sm121 C131 2.846 1_554 S
Sm121 O142 2.386 . S
Sm121 O145 2.408 . S
Sm121 O146 2.543 1_554 S
Sm121 O147 2.450 1_554 S
Sm121 O148 2.681 . S
Sm121 O149 2.464 . S
Sm121 O150 2.396 1_554 S
C122 Sm120 2.846 . S
C122 C123 1.506 . S
C122 O140 1.261 . S
C122 O141 1.242 . S
C123 C122 1.506 . S
C123 C124 1.358 . S
C123 C128 1.382 . S
C124 C123 1.358 . S
C124 C125 1.385 . S
C124 H152 0.930 . S
C125 C124 1.385 . S
C125 C126 1.395 . S
C125 H153 0.929 . S
C126 C125 1.395 . S
C126 C127 1.335 . S
C127 C126 1.335 . S
C127 C128 1.398 . S
C127 H154 0.930 . S
C128 C123 1.382 . S
C128 C127 1.398 . S
C128 H155 0.929 . S
C129 O142 1.271 . S
C129 O143 1.251 . S
C130 O144 1.252 . S
C130 O145 1.272 . S
C131 Sm121 2.846 1_556 S
C131 C132 1.506 . S
C131 O146 1.261 . S
C131 O147 1.242 . S
C132 C131 1.506 . S
C132 C133 1.358 . S
C132 C137 1.382 . S
C133 C132 1.358 . S
C133 C134 1.385 . S
C133 H156 0.930 . S
C134 C133 1.385 . S
C134 C135 1.395 . S
C134 H157 0.929 . S
C135 C134 1.395 . S
C135 C136 1.335 . S
C136 C135 1.335 . S
C136 C137 1.398 . S
C136 H158 0.930 . S
C137 C132 1.382 . S
C137 C136 1.398 . S
C137 H159 0.929 . S
C138 O148 1.271 . S
C138 O149 1.251 . S
C139 O150 1.252 . S
C139 O151 1.272 1_556 S
O140 Sm120 2.543 . S
O140 C122 1.261 . S
O141 Sm120 2.450 . S
O141 C122 1.242 . S
O142 Sm120 2.681 . S
O142 Sm121 2.386 . S
O142 C129 1.271 . S
O143 Sm120 2.464 . S
O143 C129 1.251 . S
O144 Sm120 2.396 . S
O144 C130 1.252 . S
O145 Sm121 2.408 . S
O145 C130 1.272 . S
O146 Sm121 2.543 1_556 S
O146 C131 1.261 . S
O147 Sm121 2.450 1_556 S
O147 C131 1.242 . S
O148 Sm120 2.386 . S
O148 Sm121 2.681 . S
O148 C138 1.271 . S
O149 Sm121 2.464 . S
O149 C138 1.251 . S
O150 Sm121 2.396 1_556 S
O150 C139 1.252 . S
O151 Sm120 2.408 . S
O151 C139 1.272 1_554 S
H152 C124 0.930 . S
H153 C125 0.929 . S
H154 C127 0.930 . S
H155 C128 0.929 . S
H156 C133 0.930 . S
H157 C134 0.929 . S
H158 C136 0.930 . S
H159 C137 0.929 . S
Sm160 C162 2.846 . S
Sm160 O180 2.543 . S
Sm160 O181 2.450 . S
Sm160 O182 2.681 . S
Sm160 O183 2.464 . S
Sm160 O184 2.396 . S
Sm160 O188 2.386 . S
Sm160 O191 2.408 . S
Sm161 C171 2.846 . S
Sm161 O182 2.386 . S
Sm161 O185 2.408 . S
Sm161 O186 2.543 . S
Sm161 O187 2.450 . S
Sm161 O188 2.681 . S
Sm161 O189 2.464 . S
Sm161 O190 2.396 . S
C162 Sm160 2.846 . S
C162 C163 1.506 . S
C162 O180 1.261 . S
C162 O181 1.242 . S
C163 C162 1.506 . S
C163 C164 1.358 . S
C163 C168 1.382 . S
C164 C163 1.358 . S
C164 C165 1.385 . S
C164 H192 0.930 . S
C165 C164 1.385 . S
C165 C166 1.395 . S
C165 H193 0.929 . S
C166 C165 1.395 . S
C166 C167 1.335 . S
C167 C166 1.335 . S
C167 C168 1.398 . S
C167 H194 0.930 . S
C168 C163 1.382 . S
C168 C167 1.398 . S
C168 H195 0.929 . S
C169 O182 1.271 . S
C169 O183 1.251 . S
C170 O184 1.252 . S
C170 O185 1.272 . S
C171 Sm161 2.846 . S
C171 C172 1.506 . S
C171 O186 1.261 . S
C171 O187 1.242 . S
C172 C171 1.506 . S
C172 C173 1.358 . S
C172 C177 1.382 . S
C173 C172 1.358 . S
C173 C174 1.385 . S
C173 H196 0.930 . S
C174 C173 1.385 . S
C174 C175 1.395 . S
C174 H197 0.929 . S
C175 C174 1.395 . S
C175 C176 1.335 . S
C176 C175 1.335 . S
C176 C177 1.398 . S
C176 H198 0.930 . S
C177 C172 1.382 . S
C177 C176 1.398 . S
C177 H199 0.929 . S
C178 O188 1.271 . S
C178 O189 1.251 . S
C179 O190 1.252 . S
C179 O191 1.272 . S
O180 Sm160 2.543 . S
O180 C162 1.261 . S
O181 Sm160 2.450 . S
O181 C162 1.242 . S
O182 Sm160 2.681 . S
O182 Sm161 2.386 . S
O182 C169 1.271 . S
O183 Sm160 2.464 . S
O183 C169 1.251 . S
O184 Sm160 2.396 . S
O184 C170 1.252 . S
O185 Sm161 2.408 . S
O185 C170 1.272 . S
O186 Sm161 2.543 . S
O186 C171 1.261 . S
O187 Sm161 2.450 . S
O187 C171 1.242 . S
O188 Sm160 2.386 . S
O188 Sm161 2.681 . S
O188 C178 1.271 . S
O189 Sm161 2.464 . S
O189 C178 1.251 . S
O190 Sm161 2.396 . S
O190 C179 1.252 . S
O191 Sm160 2.408 . S
O191 C179 1.272 . S
H192 C164 0.930 . S
H193 C165 0.929 . S
H194 C167 0.930 . S
H195 C168 0.929 . S
H196 C173 0.930 . S
H197 C174 0.929 . S
H198 C176 0.930 . S
H199 C177 0.929 . S
Sm200 C202 2.846 . S
Sm200 O220 2.543 . S
Sm200 O221 2.450 . S
Sm200 O222 2.681 . S
Sm200 O223 2.464 . S
Sm200 O224 2.396 . S
Sm200 O228 2.386 . S
Sm200 O231 2.408 . S
Sm201 C211 2.846 . S
Sm201 O222 2.386 . S
Sm201 O225 2.408 . S
Sm201 O226 2.543 . S
Sm201 O227 2.450 . S
Sm201 O228 2.681 . S
Sm201 O229 2.464 . S
Sm201 O230 2.396 . S
C202 Sm200 2.846 . S
C202 C203 1.506 . S
C202 O220 1.261 . S
C202 O221 1.242 . S
C203 C202 1.506 . S
C203 C204 1.358 . S
C203 C208 1.382 . S
C204 C203 1.358 . S
C204 C205 1.385 . S
C204 H232 0.930 . S
C205 C204 1.385 . S
C205 C206 1.395 . S
C205 H233 0.929 . S
C206 C205 1.395 . S
C206 C207 1.335 . S
C207 C206 1.335 . S
C207 C208 1.398 . S
C207 H234 0.930 . S
C208 C203 1.382 . S
C208 C207 1.398 . S
C208 H235 0.929 . S
C209 O222 1.271 . S
C209 O223 1.251 . S
C210 O224 1.252 . S
C210 O225 1.272 . S
C211 Sm201 2.846 . S
C211 C212 1.506 . S
C211 O226 1.261 . S
C211 O227 1.242 . S
C212 C211 1.506 . S
C212 C213 1.358 . S
C212 C217 1.382 . S
C213 C212 1.358 . S
C213 C214 1.385 . S
C213 H236 0.930 . S
C214 C213 1.385 . S
C214 C215 1.395 . S
C214 H237 0.929 . S
C215 C214 1.395 . S
C215 C216 1.335 . S
C216 C215 1.335 . S
C216 C217 1.398 . S
C216 H238 0.930 . S
C217 C212 1.382 . S
C217 C216 1.398 . S
C217 H239 0.929 . S
C218 O228 1.271 . S
C218 O229 1.251 . S
C219 O230 1.252 . S
C219 O231 1.272 . S
O220 Sm200 2.543 . S
O220 C202 1.261 . S
O221 Sm200 2.450 . S
O221 C202 1.242 . S
O222 Sm200 2.681 . S
O222 Sm201 2.386 . S
O222 C209 1.271 . S
O223 Sm200 2.464 . S
O223 C209 1.251 . S
O224 Sm200 2.396 . S
O224 C210 1.252 . S
O225 Sm201 2.408 . S
O225 C210 1.272 . S
O226 Sm201 2.543 . S
O226 C211 1.261 . S
O227 Sm201 2.450 . S
O227 C211 1.242 . S
O228 Sm200 2.386 . S
O228 Sm201 2.681 . S
O228 C218 1.271 . S
O229 Sm201 2.464 . S
O229 C218 1.251 . S
O230 Sm201 2.396 . S
O230 C219 1.252 . S
O231 Sm200 2.408 . S
O231 C219 1.272 . S
H232 C204 0.930 . S
H233 C205 0.929 . S
H234 C207 0.930 . S
H235 C208 0.929 . S
H236 C213 0.930 . S
H237 C214 0.929 . S
H238 C216 0.930 . S
H239 C217 0.929 . S
H240 C258 0.951 . S
H241 C260 0.951 . S
H242 C262 0.950 . S
H243 C263 0.950 . S
H244 C265 0.950 . S
H245 C268 0.950 . S
H246 C269 0.950 . S
H247 C271 0.950 . S
H248 C272 0.950 . S
H249 C273 0.951 . S
H250 C275 0.951 . S
H251 C277 0.950 . S
H252 C278 0.950 . S
H253 C280 0.950 . S
H254 C283 0.950 . S
H255 C284 0.950 . S
H256 C286 0.950 . S
H257 C287 0.950 . S
C258 H240 0.951 . S
C258 C259 1.366 . S
C258 C260 1.388 . S
C259 C258 1.366 . S
C259 C263 1.385 . S
C260 H241 0.951 . S
C260 C258 1.388 . S
C260 C261 1.366 . S
C261 C260 1.366 . S
C261 C262 1.414 . S
C261 C264 1.499 . S
C262 H242 0.950 . S
C262 C261 1.414 . S
C262 C263 1.374 . S
C263 H243 0.950 . S
C263 C259 1.385 . S
C263 C262 1.374 . S
C264 C261 1.499 . S
C264 C265 1.373 . S
C264 C266 1.389 . S
C265 H244 0.950 . S
C265 C264 1.373 . S
C265 C281 1.377 . S
C266 C264 1.389 . S
C266 C267 1.524 . S
C266 C280 1.377 . S
C267 C266 1.524 . S
C267 C268 1.397 . S
C267 C272 1.363 . S
C268 H245 0.950 . S
C268 C267 1.397 . S
C268 C269 1.334 . S
C269 H246 0.950 . S
C269 C268 1.334 . S
C269 C270 1.287 . S
C270 C269 1.287 . S
C270 C271 1.524 . S
C270 H289 0.913 . S
C271 H247 0.950 . S
C271 C270 1.524 . S
C271 C272 1.415 . S
C272 H248 0.950 . S
C272 C267 1.363 . S
C272 C271 1.415 . S
C273 H249 0.951 . S
C273 C274 1.366 . S
C273 C275 1.388 . S
C274 C273 1.366 . S
C274 C278 1.385 . S
C275 H250 0.951 . S
C275 C273 1.388 . S
C275 C276 1.366 . S
C276 C275 1.366 . S
C276 C277 1.414 . S
C276 C279 1.499 . S
C277 H251 0.950 . S
C277 C276 1.414 . S
C277 C278 1.374 . S
C278 H252 0.950 . S
C278 C274 1.385 . S
C278 C277 1.374 . S
C279 C276 1.499 . S
C279 C280 1.373 . S
C279 C281 1.389 . S
C280 H253 0.950 . S
C280 C266 1.377 . S
C280 C279 1.373 . S
C281 C265 1.377 . S
C281 C279 1.389 . S
C281 C282 1.524 . S
C282 C281 1.524 . S
C282 C283 1.397 . S
C282 C287 1.363 . S
C283 H254 0.950 . S
C283 C282 1.397 . S
C283 C284 1.334 . S
C284 H255 0.950 . S
C284 C283 1.334 . S
C284 C285 1.287 . S
C285 C284 1.287 . S
C285 C286 1.524 . S
C285 H288 0.999 . S
C286 H256 0.950 . S
C286 C285 1.524 . S
C286 C287 1.415 . S
C287 H257 0.950 . S
C287 C282 1.363 . S
C287 C286 1.415 . S
H288 C285 0.999 . S
H289 C270 0.913 . S
H290 C308 0.951 . S
H291 C310 0.951 . S
H292 C312 0.950 . S
H293 C313 0.950 . S
H294 C315 0.950 . S
H295 C318 0.950 . S
H296 C319 0.950 . S
H297 C321 0.950 . S
H298 C322 0.950 . S
H299 C323 0.951 . S
H300 C325 0.951 . S
H301 C327 0.950 . S
H302 C328 0.950 . S
H303 C330 0.950 . S
H304 C333 0.950 . S
H305 C334 0.950 . S
H306 C336 0.950 . S
H307 C337 0.950 . S
C308 H290 0.951 . S
C308 C309 1.366 . S
C308 C310 1.388 . S
C309 C308 1.366 . S
C309 C313 1.385 . S
C310 H291 0.951 . S
C310 C308 1.388 . S
C310 C311 1.366 . S
C311 C310 1.366 . S
C311 C312 1.414 . S
C311 C314 1.499 . S
C312 H292 0.950 . S
C312 C311 1.414 . S
C312 C313 1.374 . S
C313 H293 0.950 . S
C313 C309 1.385 . S
C313 C312 1.374 . S
C314 C311 1.499 . S
C314 C315 1.373 . S
C314 C316 1.389 . S
C315 H294 0.950 . S
C315 C314 1.373 . S
C315 C331 1.377 . S
C316 C314 1.389 . S
C316 C317 1.524 . S
C316 C330 1.377 . S
C317 C316 1.524 . S
C317 C318 1.397 . S
C317 C322 1.363 . S
C318 H295 0.950 . S
C318 C317 1.397 . S
C318 C319 1.334 . S
C319 H296 0.950 . S
C319 C318 1.334 . S
C319 C320 1.287 . S
C320 C319 1.287 . S
C320 C321 1.524 . S
C320 H339 0.913 . S
C321 H297 0.950 . S
C321 C320 1.524 . S
C321 C322 1.415 . S
C322 H298 0.950 . S
C322 C317 1.363 . S
C322 C321 1.415 . S
C323 H299 0.951 . S
C323 C324 1.366 . S
C323 C325 1.388 . S
C324 C323 1.366 . S
C324 C328 1.385 . S
C325 H300 0.951 . S
C325 C323 1.388 . S
C325 C326 1.366 . S
C326 C325 1.366 . S
C326 C327 1.414 . S
C326 C329 1.499 . S
C327 H301 0.950 . S
C327 C326 1.414 . S
C327 C328 1.374 . S
C328 H302 0.950 . S
C328 C324 1.385 . S
C328 C327 1.374 . S
C329 C326 1.499 . S
C329 C330 1.373 . S
C329 C331 1.389 . S
C330 H303 0.950 . S
C330 C316 1.377 . S
C330 C329 1.373 . S
C331 C315 1.377 . S
C331 C329 1.389 . S
C331 C332 1.524 . S
C332 C331 1.524 . S
C332 C333 1.397 . S
C332 C337 1.363 . S
C333 H304 0.950 . S
C333 C332 1.397 . S
C333 C334 1.334 . S
C334 H305 0.950 . S
C334 C333 1.334 . S
C334 C335 1.287 . S
C335 C334 1.287 . S
C335 C336 1.524 . S
C335 H338 0.999 . S
C336 H306 0.950 . S
C336 C335 1.524 . S
C336 C337 1.415 . S
C337 H307 0.950 . S
C337 C332 1.363 . S
C337 C336 1.415 . S
H338 C335 0.999 . S
H339 C320 0.913 . S
H340 C358 0.951 . S
H341 C360 0.951 . S
H342 C362 0.950 . S
H343 C363 0.950 . S
H344 C365 0.950 . S
H345 C368 0.950 . S
H346 C369 0.950 . S
H347 C371 0.950 . S
H348 C372 0.950 . S
H349 C373 0.951 . S
H350 C375 0.951 . S
H351 C377 0.950 . S
H352 C378 0.950 . S
H353 C380 0.950 . S
H354 C383 0.950 . S
H355 C384 0.950 . S
H356 C386 0.950 . S
H357 C387 0.950 . S
C358 H340 0.951 . S
C358 C359 1.366 . S
C358 C360 1.388 . S
C359 C358 1.366 . S
C359 C363 1.385 . S
C360 H341 0.951 . S
C360 C358 1.388 . S
C360 C361 1.366 . S
C361 C360 1.366 . S
C361 C362 1.414 . S
C361 C364 1.499 . S
C362 H342 0.950 . S
C362 C361 1.414 . S
C362 C363 1.374 . S
C363 H343 0.950 . S
C363 C359 1.385 . S
C363 C362 1.374 . S
C364 C361 1.499 . S
C364 C365 1.373 . S
C364 C366 1.389 . S
C365 H344 0.950 . S
C365 C364 1.373 . S
C365 C381 1.377 . S
C366 C364 1.389 . S
C366 C367 1.524 . S
C366 C380 1.377 . S
C367 C366 1.524 . S
C367 C368 1.397 . S
C367 C372 1.363 . S
C368 H345 0.950 . S
C368 C367 1.397 . S
C368 C369 1.334 . S
C369 H346 0.950 . S
C369 C368 1.334 . S
C369 C370 1.287 . S
C370 C369 1.287 . S
C370 C371 1.524 . S
C370 H389 0.913 . S
C371 H347 0.950 . S
C371 C370 1.524 . S
C371 C372 1.415 . S
C372 H348 0.950 . S
C372 C367 1.363 . S
C372 C371 1.415 . S
C373 H349 0.951 . S
C373 C374 1.366 . S
C373 C375 1.388 . S
C374 C373 1.366 . S
C374 C378 1.385 . S
C375 H350 0.951 . S
C375 C373 1.388 . S
C375 C376 1.366 . S
C376 C375 1.366 . S
C376 C377 1.414 . S
C376 C379 1.499 . S
C377 H351 0.950 . S
C377 C376 1.414 . S
C377 C378 1.374 . S
C378 H352 0.950 . S
C378 C374 1.385 . S
C378 C377 1.374 . S
C379 C376 1.499 . S
C379 C380 1.373 . S
C379 C381 1.389 . S
C380 H353 0.950 . S
C380 C366 1.377 . S
C380 C379 1.373 . S
C381 C365 1.377 . S
C381 C379 1.389 . S
C381 C382 1.524 . S
C382 C381 1.524 . S
C382 C383 1.397 . S
C382 C387 1.363 . S
C383 H354 0.950 . S
C383 C382 1.397 . S
C383 C384 1.334 . S
C384 H355 0.950 . S
C384 C383 1.334 . S
C384 C385 1.287 . S
C385 C384 1.287 . S
C385 C386 1.524 . S
C385 H388 0.999 . S
C386 H356 0.950 . S
C386 C385 1.524 . S
C386 C387 1.415 . S
C387 H357 0.950 . S
C387 C382 1.363 . S
C387 C386 1.415 . S
H388 C385 0.999 . S
H389 C370 0.913 . S
H390 C408 0.951 . S
H391 C410 0.951 . S
H392 C412 0.950 . S
H393 C413 0.950 . S
H394 C415 0.950 . S
H395 C418 0.950 . S
H396 C419 0.950 . S
H397 C421 0.950 . S
H398 C422 0.950 . S
H399 C423 0.951 . S
H400 C425 0.951 . S
H401 C427 0.950 . S
H402 C428 0.950 . S
H403 C430 0.950 . S
H404 C433 0.950 . S
H405 C434 0.950 . S
H406 C436 0.950 . S
H407 C437 0.950 . S
C408 H390 0.951 . S
C408 C409 1.366 . S
C408 C410 1.388 . S
C409 C408 1.366 . S
C409 C413 1.385 . S
C410 H391 0.951 . S
C410 C408 1.388 . S
C410 C411 1.366 . S
C411 C410 1.366 . S
C411 C412 1.414 . S
C411 C414 1.499 . S
C412 H392 0.950 . S
C412 C411 1.414 . S
C412 C413 1.374 . S
C413 H393 0.950 . S
C413 C409 1.385 . S
C413 C412 1.374 . S
C414 C411 1.499 . S
C414 C415 1.373 . S
C414 C416 1.389 . S
C415 H394 0.950 . S
C415 C414 1.373 . S
C415 C431 1.377 . S
C416 C414 1.389 . S
C416 C417 1.524 . S
C416 C430 1.377 . S
C417 C416 1.524 . S
C417 C418 1.397 . S
C417 C422 1.363 . S
C418 H395 0.950 . S
C418 C417 1.397 . S
C418 C419 1.334 . S
C419 H396 0.950 . S
C419 C418 1.334 . S
C419 C420 1.287 . S
C420 C419 1.287 . S
C420 C421 1.524 . S
C420 H439 0.913 . S
C421 H397 0.950 . S
C421 C420 1.524 . S
C421 C422 1.415 . S
C422 H398 0.950 . S
C422 C417 1.363 . S
C422 C421 1.415 . S
C423 H399 0.951 . S
C423 C424 1.366 . S
C423 C425 1.388 . S
C424 C423 1.366 . S
C424 C428 1.385 . S
C425 H400 0.951 . S
C425 C423 1.388 . S
C425 C426 1.366 . S
C426 C425 1.366 . S
C426 C427 1.414 . S
C426 C429 1.499 . S
C427 H401 0.950 . S
C427 C426 1.414 . S
C427 C428 1.374 . S
C428 H402 0.950 . S
C428 C424 1.385 . S
C428 C427 1.374 . S
C429 C426 1.499 . S
C429 C430 1.373 . S
C429 C431 1.389 . S
C430 H403 0.950 . S
C430 C416 1.377 . S
C430 C429 1.373 . S
C431 C415 1.377 . S
C431 C429 1.389 . S
C431 C432 1.524 . S
C432 C431 1.524 . S
C432 C433 1.397 . S
C432 C437 1.363 . S
C433 H404 0.950 . S
C433 C432 1.397 . S
C433 C434 1.334 . S
C434 H405 0.950 . S
C434 C433 1.334 . S
C434 C435 1.287 . S
C435 C434 1.287 . S
C435 C436 1.524 . S
C435 H438 0.999 . S
C436 H406 0.950 . S
C436 C435 1.524 . S
C436 C437 1.415 . S
C437 H407 0.950 . S
C437 C432 1.363 . S
C437 C436 1.415 . S
H438 C435 0.999 . S
H439 C420 0.913 . S
H440 C458 0.951 . S
H441 C460 0.951 . S
H442 C462 0.950 . S
H443 C463 0.950 . S
H444 C465 0.950 . S
H445 C468 0.950 . S
H446 C469 0.950 . S
H447 C471 0.950 . S
H448 C472 0.950 . S
H449 C473 0.951 . S
H450 C475 0.951 . S
H451 C477 0.950 . S
H452 C478 0.950 . S
H453 C480 0.950 . S
H454 C483 0.950 . S
H455 C484 0.950 . S
H456 C486 0.950 . S
H457 C487 0.950 . S
C458 H440 0.951 . S
C458 C459 1.366 . S
C458 C460 1.388 . S
C459 C458 1.366 . S
C459 C463 1.385 . S
C460 H441 0.951 . S
C460 C458 1.388 . S
C460 C461 1.366 . S
C461 C460 1.366 . S
C461 C462 1.414 . S
C461 C464 1.499 . S
C462 H442 0.950 . S
C462 C461 1.414 . S
C462 C463 1.374 . S
C463 H443 0.950 . S
C463 C459 1.385 . S
C463 C462 1.374 . S
C464 C461 1.499 . S
C464 C465 1.373 . S
C464 C466 1.389 . S
C465 H444 0.950 . S
C465 C464 1.373 . S
C465 C481 1.377 . S
C466 C464 1.389 . S
C466 C467 1.524 . S
C466 C480 1.377 . S
C467 C466 1.524 . S
C467 C468 1.397 . S
C467 C472 1.363 . S
C468 H445 0.950 . S
C468 C467 1.397 . S
C468 C469 1.334 . S
C469 H446 0.950 . S
C469 C468 1.334 . S
C469 C470 1.287 . S
C470 C469 1.287 . S
C470 C471 1.524 . S
C470 H489 0.913 . S
C471 H447 0.950 . S
C471 C470 1.524 . S
C471 C472 1.415 . S
C472 H448 0.950 . S
C472 C467 1.363 . S
C472 C471 1.415 . S
C473 H449 0.951 . S
C473 C474 1.366 . S
C473 C475 1.388 . S
C474 C473 1.366 . S
C474 C478 1.385 . S
C475 H450 0.951 . S
C475 C473 1.388 . S
C475 C476 1.366 . S
C476 C475 1.366 . S
C476 C477 1.414 . S
C476 C479 1.499 . S
C477 H451 0.950 . S
C477 C476 1.414 . S
C477 C478 1.374 . S
C478 H452 0.950 . S
C478 C474 1.385 . S
C478 C477 1.374 . S
C479 C476 1.499 . S
C479 C480 1.373 . S
C479 C481 1.389 . S
C480 H453 0.950 . S
C480 C466 1.377 . S
C480 C479 1.373 . S
C481 C465 1.377 . S
C481 C479 1.389 . S
C481 C482 1.524 . S
C482 C481 1.524 . S
C482 C483 1.397 . S
C482 C487 1.363 . S
C483 H454 0.950 . S
C483 C482 1.397 . S
C483 C484 1.334 . S
C484 H455 0.950 . S
C484 C483 1.334 . S
C484 C485 1.287 . S
C485 C484 1.287 . S
C485 C486 1.524 . S
C485 H488 0.999 . S
C486 H456 0.950 . S
C486 C485 1.524 . S
C486 C487 1.415 . S
C487 H457 0.950 . S
C487 C482 1.363 . S
C487 C486 1.415 . S
H488 C485 0.999 . S
H489 C470 0.913 . S
H490 C508 0.951 . S
H491 C510 0.951 . S
H492 C512 0.950 . S
H493 C513 0.950 . S
H494 C515 0.950 . S
H495 C518 0.950 . S
H496 C519 0.950 . S
H497 C521 0.950 . S
H498 C522 0.950 . S
H499 C523 0.951 . S
H500 C525 0.951 . S
H501 C527 0.950 . S
H502 C528 0.950 . S
H503 C530 0.950 . S
H504 C533 0.950 . S
H505 C534 0.950 . S
H506 C536 0.950 . S
H507 C537 0.950 . S
C508 H490 0.951 . S
C508 C509 1.366 . S
C508 C510 1.388 . S
C509 C508 1.366 . S
C509 C513 1.385 . S
C510 H491 0.951 . S
C510 C508 1.388 . S
C510 C511 1.366 . S
C511 C510 1.366 . S
C511 C512 1.414 . S
C511 C514 1.499 . S
C512 H492 0.950 . S
C512 C511 1.414 . S
C512 C513 1.374 . S
C513 H493 0.950 . S
C513 C509 1.385 . S
C513 C512 1.374 . S
C514 C511 1.499 . S
C514 C515 1.373 . S
C514 C516 1.389 . S
C515 H494 0.950 . S
C515 C514 1.373 . S
C515 C531 1.377 . S
C516 C514 1.389 . S
C516 C517 1.524 . S
C516 C530 1.377 . S
C517 C516 1.524 . S
C517 C518 1.397 . S
C517 C522 1.363 . S
C518 H495 0.950 . S
C518 C517 1.397 . S
C518 C519 1.334 . S
C519 H496 0.950 . S
C519 C518 1.334 . S
C519 C520 1.287 . S
C520 C519 1.287 . S
C520 C521 1.524 . S
C520 H539 0.913 . S
C521 H497 0.950 . S
C521 C520 1.524 . S
C521 C522 1.415 . S
C522 H498 0.950 . S
C522 C517 1.363 . S
C522 C521 1.415 . S
C523 H499 0.951 . S
C523 C524 1.366 . S
C523 C525 1.388 . S
C524 C523 1.366 . S
C524 C528 1.385 . S
C525 H500 0.951 . S
C525 C523 1.388 . S
C525 C526 1.366 . S
C526 C525 1.366 . S
C526 C527 1.414 . S
C526 C529 1.499 . S
C527 H501 0.950 . S
C527 C526 1.414 . S
C527 C528 1.374 . S
C528 H502 0.950 . S
C528 C524 1.385 . S
C528 C527 1.374 . S
C529 C526 1.499 . S
C529 C530 1.373 . S
C529 C531 1.389 . S
C530 H503 0.950 . S
C530 C516 1.377 . S
C530 C529 1.373 . S
C531 C515 1.377 . S
C531 C529 1.389 . S
C531 C532 1.524 . S
C532 C531 1.524 . S
C532 C533 1.397 . S
C532 C537 1.363 . S
C533 H504 0.950 . S
C533 C532 1.397 . S
C533 C534 1.334 . S
C534 H505 0.950 . S
C534 C533 1.334 . S
C534 C535 1.287 . S
C535 C534 1.287 . S
C535 C536 1.524 . S
C535 H538 0.999 . S
C536 H506 0.950 . S
C536 C535 1.524 . S
C536 C537 1.415 . S
C537 H507 0.950 . S
C537 C532 1.363 . S
C537 C536 1.415 . S
H538 C535 0.999 . S
H539 C520 0.913 . S
H540 C558 0.951 . S
H541 C560 0.951 . S
H542 C562 0.950 . S
H543 C563 0.950 . S
H544 C565 0.950 . S
H545 C568 0.950 . S
H546 C569 0.950 . S
H547 C571 0.950 . S
H548 C572 0.950 . S
H549 C573 0.951 . S
H550 C575 0.951 . S
H551 C577 0.950 . S
H552 C578 0.950 . S
H553 C580 0.950 . S
H554 C583 0.950 . S
H555 C584 0.950 . S
H556 C586 0.950 . S
H557 C587 0.950 1_554 S
C558 H540 0.951 . S
C558 C559 1.366 . S
C558 C560 1.388 . S
C559 C558 1.366 . S
C559 C563 1.385 . S
C560 H541 0.951 . S
C560 C558 1.388 . S
C560 C561 1.366 . S
C561 C560 1.366 . S
C561 C562 1.414 . S
C561 C564 1.499 . S
C562 H542 0.950 . S
C562 C561 1.414 . S
C562 C563 1.374 . S
C563 H543 0.950 . S
C563 C559 1.385 . S
C563 C562 1.374 . S
C564 C561 1.499 . S
C564 C565 1.373 . S
C564 C566 1.389 . S
C565 H544 0.950 . S
C565 C564 1.373 . S
C565 C581 1.377 . S
C566 C564 1.389 . S
C566 C567 1.524 . S
C566 C580 1.377 . S
C567 C566 1.524 . S
C567 C568 1.397 . S
C567 C572 1.363 . S
C568 H545 0.950 . S
C568 C567 1.397 . S
C568 C569 1.334 . S
C569 H546 0.950 . S
C569 C568 1.334 . S
C569 C570 1.287 . S
C570 C569 1.287 . S
C570 C571 1.524 . S
C570 H589 0.913 . S
C571 H547 0.950 . S
C571 C570 1.524 . S
C571 C572 1.415 . S
C572 H548 0.950 . S
C572 C567 1.363 . S
C572 C571 1.415 . S
C573 H549 0.951 . S
C573 C574 1.366 . S
C573 C575 1.388 . S
C574 C573 1.366 . S
C574 C578 1.385 . S
C575 H550 0.951 . S
C575 C573 1.388 . S
C575 C576 1.366 . S
C576 C575 1.366 . S
C576 C577 1.414 . S
C576 C579 1.499 . S
C577 H551 0.950 . S
C577 C576 1.414 . S
C577 C578 1.374 . S
C578 H552 0.950 . S
C578 C574 1.385 . S
C578 C577 1.374 . S
C579 C576 1.499 . S
C579 C580 1.373 . S
C579 C581 1.389 . S
C580 H553 0.950 . S
C580 C566 1.377 . S
C580 C579 1.373 . S
C581 C565 1.377 . S
C581 C579 1.389 . S
C581 C582 1.524 . S
C582 C581 1.524 . S
C582 C583 1.397 1_554 S
C582 C587 1.363 1_554 S
C583 H554 0.950 . S
C583 C582 1.397 1_556 S
C583 C584 1.334 . S
C584 H555 0.950 . S
C584 C583 1.334 . S
C584 C585 1.287 . S
C585 C584 1.287 . S
C585 C586 1.524 . S
C585 H588 0.999 . S
C586 H556 0.950 . S
C586 C585 1.524 . S
C586 C587 1.415 . S
C587 H557 0.950 1_556 S
C587 C582 1.363 1_556 S
C587 C586 1.415 . S
H588 C585 0.999 . S
H589 C570 0.913 . S
H590 C608 0.951 . S
H591 C610 0.951 . S
H592 C612 0.926 1_655 S
H593 C613 0.950 . S
H594 C615 0.950 . S
H595 C618 0.950 . S
H596 C619 0.950 . S
H597 C621 0.950 . S
H598 C622 0.950 . S
H599 C623 0.951 . S
H600 C625 0.951 . S
H601 C627 0.926 1_455 S
H602 C628 0.950 . S
H603 C630 0.950 . S
H604 C633 0.950 . S
H605 C634 0.950 . S
H606 C636 0.950 . S
H607 C637 0.950 . S
C608 H590 0.951 . S
C608 C609 1.366 . S
C608 C610 1.388 . S
C609 C608 1.366 . S
C609 C613 1.385 . S
C610 H591 0.951 . S
C610 C608 1.388 . S
C610 C611 1.366 . S
C611 C610 1.366 . S
C611 C612 1.414 . S
C611 C614 1.499 . S
C612 H592 0.926 1_455 S
C612 C611 1.414 . S
C612 C613 1.374 . S
C613 H593 0.950 . S
C613 C609 1.385 . S
C613 C612 1.374 . S
C614 C611 1.499 . S
C614 C615 1.373 1_455 S
C614 C616 1.389 . S
C615 H594 0.950 . S
C615 C614 1.373 1_655 S
C615 C631 1.377 . S
C616 C614 1.389 . S
C616 C617 1.524 . S
C616 C630 1.377 . S
C617 C616 1.524 . S
C617 C618 1.397 . S
C617 C622 1.363 . S
C618 H595 0.950 . S
C618 C617 1.397 . S
C618 C619 1.334 . S
C619 H596 0.950 . S
C619 C618 1.334 . S
C619 C620 1.287 . S
C620 C619 1.287 . S
C620 C621 1.524 . S
C620 H639 0.913 . S
C621 H597 0.950 . S
C621 C620 1.524 . S
C621 C622 1.415 . S
C622 H598 0.950 . S
C622 C617 1.363 . S
C622 C621 1.415 . S
C623 H599 0.951 . S
C623 C624 1.366 . S
C623 C625 1.388 . S
C624 C623 1.366 . S
C624 C628 1.385 . S
C625 H600 0.951 . S
C625 C623 1.388 . S
C625 C626 1.366 . S
C626 C625 1.366 . S
C626 C627 1.414 . S
C626 C629 1.499 . S
C627 H601 0.926 1_655 S
C627 C626 1.414 . S
C627 C628 1.374 . S
C628 H602 0.950 . S
C628 C624 1.385 . S
C628 C627 1.374 . S
C629 C626 1.499 . S
C629 C630 1.373 1_655 S
C629 C631 1.389 . S
C630 H603 0.950 . S
C630 C616 1.377 . S
C630 C629 1.373 1_455 S
C631 C615 1.377 . S
C631 C629 1.389 . S
C631 C632 1.524 . S
C632 C631 1.524 . S
C632 C633 1.397 . S
C632 C637 1.363 . S
C633 H604 0.950 . S
C633 C632 1.397 . S
C633 C634 1.334 . S
C634 H605 0.950 . S
C634 C633 1.334 . S
C634 C635 1.287 . S
C635 C634 1.287 . S
C635 C636 1.524 . S
C635 H638 0.999 . S
C636 H606 0.950 . S
C636 C635 1.524 . S
C636 C637 1.415 . S
C637 H607 0.950 . S
C637 C632 1.363 . S
C637 C636 1.415 . S
H638 C635 0.999 . S
H639 C620 0.913 . S
H640 C658 0.951 . S
H641 C660 0.951 . S
H642 C662 0.950 1_565 S
H643 C663 0.950 . S
H644 C665 0.950 . S
H645 C668 0.950 . S
H646 C669 0.950 . S
H647 C671 0.950 . S
H648 C672 0.950 . S
H649 C673 0.951 . S
H650 C675 0.951 . S
H651 C677 0.950 1_545 S
H652 C678 0.950 . S
H653 C680 0.950 . S
H654 C683 0.950 . S
H655 C684 0.950 . S
H656 C686 0.950 . S
H657 C687 0.950 . S
C658 H640 0.951 . S
C658 C659 1.366 . S
C658 C660 1.388 . S
C659 C658 1.366 . S
C659 C663 1.385 . S
C660 H641 0.951 . S
C660 C658 1.388 . S
C660 C661 1.366 . S
C661 C660 1.366 . S
C661 C662 1.414 . S
C661 C664 1.499 . S
C662 H642 0.950 1_545 S
C662 C661 1.414 . S
C662 C663 1.374 . S
C663 H643 0.950 . S
C663 C659 1.385 . S
C663 C662 1.374 . S
C664 C661 1.499 . S
C664 C665 1.373 1_545 S
C664 C666 1.389 . S
C665 H644 0.950 . S
C665 C664 1.373 1_565 S
C665 C681 1.377 . S
C666 C664 1.389 . S
C666 C667 1.524 . S
C666 C680 1.377 . S
C667 C666 1.524 . S
C667 C668 1.397 . S
C667 C672 1.363 . S
C668 H645 0.950 . S
C668 C667 1.397 . S
C668 C669 1.334 . S
C669 H646 0.950 . S
C669 C668 1.334 . S
C669 C670 1.287 . S
C670 C669 1.287 . S
C670 C671 1.524 . S
C670 H689 0.913 . S
C671 H647 0.950 . S
C671 C670 1.524 . S
C671 C672 1.415 . S
C672 H648 0.950 . S
C672 C667 1.363 . S
C672 C671 1.415 . S
C673 H649 0.951 . S
C673 C674 1.366 . S
C673 C675 1.388 . S
C674 C673 1.366 . S
C674 C678 1.385 . S
C675 H650 0.951 . S
C675 C673 1.388 . S
C675 C676 1.366 . S
C676 C675 1.366 . S
C676 C677 1.414 . S
C676 C679 1.499 . S
C677 H651 0.950 1_565 S
C677 C676 1.414 . S
C677 C678 1.374 . S
C678 H652 0.950 . S
C678 C674 1.385 . S
C678 C677 1.374 . S
C679 C676 1.499 . S
C679 C680 1.373 1_565 S
C679 C681 1.389 . S
C680 H653 0.950 . S
C680 C666 1.377 . S
C680 C679 1.373 1_545 S
C681 C665 1.377 . S
C681 C679 1.389 . S
C681 C682 1.524 . S
C682 C681 1.524 . S
C682 C683 1.397 . S
C682 C687 1.363 . S
C683 H654 0.950 . S
C683 C682 1.397 . S
C683 C684 1.334 . S
C684 H655 0.950 . S
C684 C683 1.334 . S
C684 C685 1.287 . S
C685 C684 1.287 . S
C685 C686 1.524 . S
C685 H688 0.999 . S
C686 H656 0.950 . S
C686 C685 1.524 . S
C686 C687 1.415 . S
C687 H657 0.950 . S
C687 C682 1.363 . S
C687 C686 1.415 . S
H688 C685 0.999 . S
H689 C670 0.913 . S
H690 C708 0.951 . S
H691 C710 0.951 . S
H692 C712 0.950 . S
H693 C713 0.950 . S
H694 C715 0.950 . S
H695 C718 0.950 . S
H696 C719 0.950 . S
H697 C721 0.950 . S
H698 C722 0.950 . S
H699 C723 0.951 . S
H700 C725 0.951 . S
H701 C727 0.950 . S
H702 C728 0.950 . S
H703 C730 0.950 . S
H704 C733 0.950 . S
H705 C734 0.950 . S
H706 C736 0.950 . S
H707 C737 0.950 . S
C708 H690 0.951 . S
C708 C709 1.366 . S
C708 C710 1.388 . S
C709 C708 1.366 . S
C709 C713 1.385 . S
C710 H691 0.951 . S
C710 C708 1.388 . S
C710 C711 1.366 . S
C711 C710 1.366 . S
C711 C712 1.414 . S
C711 C714 1.499 . S
C712 H692 0.950 . S
C712 C711 1.414 . S
C712 C713 1.374 . S
C713 H693 0.950 . S
C713 C709 1.385 . S
C713 C712 1.374 . S
C714 C711 1.499 . S
C714 C715 1.373 . S
C714 C716 1.389 . S
C715 H694 0.950 . S
C715 C714 1.373 . S
C715 C731 1.377 . S
C716 C714 1.389 . S
C716 C717 1.524 . S
C716 C730 1.377 . S
C717 C716 1.524 . S
C717 C718 1.397 . S
C717 C722 1.363 . S
C718 H695 0.950 . S
C718 C717 1.397 . S
C718 C719 1.334 . S
C719 H696 0.950 . S
C719 C718 1.334 . S
C719 C720 1.287 . S
C720 C719 1.287 . S
C720 C721 1.524 . S
C720 H739 0.913 . S
C721 H697 0.950 . S
C721 C720 1.524 . S
C721 C722 1.415 . S
C722 H698 0.950 . S
C722 C717 1.363 . S
C722 C721 1.415 . S
C723 H699 0.951 . S
C723 C724 1.366 . S
C723 C725 1.388 . S
C724 C723 1.366 . S
C724 C728 1.385 . S
C725 H700 0.951 . S
C725 C723 1.388 . S
C725 C726 1.366 . S
C726 C725 1.366 . S
C726 C727 1.414 . S
C726 C729 1.499 . S
C727 H701 0.950 . S
C727 C726 1.414 . S
C727 C728 1.374 . S
C728 H702 0.950 . S
C728 C724 1.385 . S
C728 C727 1.374 . S
C729 C726 1.499 . S
C729 C730 1.373 . S
C729 C731 1.389 . S
C730 H703 0.950 . S
C730 C716 1.377 . S
C730 C729 1.373 . S
C731 C715 1.377 . S
C731 C729 1.389 . S
C731 C732 1.524 . S
C732 C731 1.524 . S
C732 C733 1.397 . S
C732 C737 1.363 . S
C733 H704 0.950 . S
C733 C732 1.397 . S
C733 C734 1.334 . S
C734 H705 0.950 . S
C734 C733 1.334 . S
C734 C735 1.287 . S
C735 C734 1.287 . S
C735 C736 1.524 . S
C735 H738 0.999 . S
C736 H706 0.950 . S
C736 C735 1.524 . S
C736 C737 1.415 . S
C737 H707 0.950 . S
C737 C732 1.363 . S
C737 C736 1.415 . S
H738 C735 0.999 . S
H739 C720 0.913 . S
H740 C758 0.951 1_556 S
H741 C760 0.951 1_556 S
H742 C762 0.950 . S
H743 C763 0.950 . S
H744 C765 0.950 . S
H745 C768 0.950 . S
H746 C769 0.950 . S
H747 C771 0.950 . S
H748 C772 0.950 . S
H749 C773 0.951 . S
H750 C775 0.951 . S
H751 C777 0.950 1_556 S
H752 C778 0.950 1_556 S
H753 C780 0.950 . S
H754 C783 0.950 . S
H755 C784 0.950 . S
H756 C786 0.950 . S
H757 C787 0.950 . S
C758 H740 0.951 1_554 S
C758 C759 1.366 . S
C758 C760 1.388 . S
C759 C758 1.366 . S
C759 C763 1.385 . S
C760 H741 0.951 1_554 S
C760 C758 1.388 . S
C760 C761 1.366 . S
C761 C760 1.366 . S
C761 C762 1.414 . S
C761 C764 1.499 . S
C762 H742 0.950 . S
C762 C761 1.414 . S
C762 C763 1.374 . S
C763 H743 0.950 . S
C763 C759 1.385 . S
C763 C762 1.374 . S
C764 C761 1.499 . S
C764 C765 1.373 1_455 S
C764 C766 1.389 . S
C765 H744 0.950 . S
C765 C764 1.373 1_655 S
C765 C781 1.377 . S
C766 C764 1.389 . S
C766 C767 1.524 . S
C766 C780 1.377 . S
C767 C766 1.524 . S
C767 C768 1.397 . S
C767 C772 1.363 1_554 S
C768 H745 0.950 . S
C768 C767 1.397 . S
C768 C769 1.334 . S
C769 H746 0.950 . S
C769 C768 1.334 . S
C769 C770 1.287 . S
C770 C769 1.287 . S
C770 C771 1.524 1_554 S
C770 H789 0.907 1_554 S
C771 H747 0.950 . S
C771 C770 1.524 1_556 S
C771 C772 1.415 . S
C772 H748 0.950 . S
C772 C767 1.363 1_556 S
C772 C771 1.415 . S
C773 H749 0.951 . S
C773 C774 1.366 . S
C773 C775 1.388 . S
C774 C773 1.366 . S
C774 C778 1.385 . S
C775 H750 0.951 . S
C775 C773 1.388 . S
C775 C776 1.366 . S
C776 C775 1.366 . S
C776 C777 1.414 . S
C776 C779 1.499 . S
C777 H751 0.950 1_554 S
C777 C776 1.414 . S
C777 C778 1.374 . S
C778 H752 0.950 1_554 S
C778 C774 1.385 . S
C778 C777 1.374 . S
C779 C776 1.499 . S
C779 C780 1.373 1_655 S
C779 C781 1.389 . S
C780 H753 0.950 . S
C780 C766 1.377 . S
C780 C779 1.373 1_455 S
C781 C765 1.377 . S
C781 C779 1.389 . S
C781 C782 1.524 . S
C782 C781 1.524 . S
C782 C783 1.397 . S
C782 C787 1.363 . S
C783 H754 0.950 . S
C783 C782 1.397 . S
C783 C784 1.334 . S
C784 H755 0.950 . S
C784 C783 1.334 . S
C784 C785 1.287 . S
C785 C784 1.287 . S
C785 C786 1.524 . S
C785 H788 0.999 . S
C786 H756 0.950 . S
C786 C785 1.524 . S
C786 C787 1.415 . S
C787 H757 0.950 . S
C787 C782 1.363 . S
C787 C786 1.415 . S
H788 C785 0.999 . S
H789 C770 0.907 1_556 S
H790 C808 0.951 . S
H791 C810 0.951 . S
H792 C812 0.950 . S
H793 C813 0.950 . S
H794 C815 0.950 . S
H795 C818 0.950 . S
H796 C819 0.950 . S
H797 C821 0.950 . S
H798 C822 0.950 . S
H799 C823 0.951 . S
H800 C825 0.951 . S
H801 C827 0.950 . S
H802 C828 0.950 . S
H803 C830 0.950 . S
H804 C833 0.950 . S
H805 C834 0.950 . S
H806 C836 0.950 . S
H807 C837 0.950 . S
C808 H790 0.951 . S
C808 C809 1.366 . S
C808 C810 1.388 . S
C809 C808 1.366 . S
C809 C813 1.385 . S
C810 H791 0.951 . S
C810 C808 1.388 . S
C810 C811 1.366 . S
C811 C810 1.366 . S
C811 C812 1.414 . S
C811 C814 1.499 . S
C812 H792 0.950 . S
C812 C811 1.414 . S
C812 C813 1.374 . S
C813 H793 0.950 . S
C813 C809 1.385 . S
C813 C812 1.374 . S
C814 C811 1.499 . S
C814 C815 1.373 1_565 S
C814 C816 1.389 . S
C815 H794 0.950 . S
C815 C814 1.373 1_545 S
C815 C831 1.377 . S
C816 C814 1.389 . S
C816 C817 1.524 . S
C816 C830 1.377 . S
C817 C816 1.524 . S
C817 C818 1.397 . S
C817 C822 1.363 . S
C818 H795 0.950 . S
C818 C817 1.397 . S
C818 C819 1.334 . S
C819 H796 0.950 . S
C819 C818 1.334 . S
C819 C820 1.287 . S
C820 C819 1.287 . S
C820 C821 1.524 . S
C820 H839 0.913 . S
C821 H797 0.950 . S
C821 C820 1.524 . S
C821 C822 1.415 . S
C822 H798 0.950 . S
C822 C817 1.363 . S
C822 C821 1.415 . S
C823 H799 0.951 . S
C823 C824 1.366 . S
C823 C825 1.388 . S
C824 C823 1.366 . S
C824 C828 1.385 . S
C825 H800 0.951 . S
C825 C823 1.388 . S
C825 C826 1.366 . S
C826 C825 1.366 . S
C826 C827 1.414 . S
C826 C829 1.499 . S
C827 H801 0.950 . S
C827 C826 1.414 . S
C827 C828 1.374 . S
C828 H802 0.950 . S
C828 C824 1.385 . S
C828 C827 1.374 . S
C829 C826 1.499 . S
C829 C830 1.373 1_545 S
C829 C831 1.389 . S
C830 H803 0.950 . S
C830 C816 1.377 . S
C830 C829 1.373 1_565 S
C831 C815 1.377 . S
C831 C829 1.389 . S
C831 C832 1.524 . S
C832 C831 1.524 . S
C832 C833 1.397 . S
C832 C837 1.363 . S
C833 H804 0.950 . S
C833 C832 1.397 . S
C833 C834 1.334 . S
C834 H805 0.950 . S
C834 C833 1.334 . S
C834 C835 1.287 . S
C835 C834 1.287 . S
C835 C836 1.524 . S
C835 H838 0.999 . S
C836 H806 0.950 . S
C836 C835 1.524 . S
C836 C837 1.415 . S
C837 H807 0.950 . S
C837 C832 1.363 . S
C837 C836 1.415 . S
H838 C835 0.999 . S
H839 C820 0.913 . S
H840 C858 0.951 . S
H841 C860 0.951 . S
H842 C862 0.950 . S
H843 C863 0.950 . S
H844 C865 0.950 . S
H845 C868 0.950 . S
H846 C869 0.950 . S
H847 C871 0.950 . S
H848 C872 0.950 . S
H849 C873 0.951 . S
H850 C875 0.951 . S
H851 C877 0.950 . S
H852 C878 0.950 . S
H853 C880 0.950 . S
H854 C883 0.950 . S
H855 C884 0.950 . S
H856 C886 0.950 . S
H857 C887 0.950 . S
C858 H840 0.951 . S
C858 C859 1.366 . S
C858 C860 1.388 . S
C859 C858 1.366 . S
C859 C863 1.385 . S
C860 H841 0.951 . S
C860 C858 1.388 . S
C860 C861 1.366 . S
C861 C860 1.366 . S
C861 C862 1.414 . S
C861 C864 1.499 . S
C862 H842 0.950 . S
C862 C861 1.414 . S
C862 C863 1.374 . S
C863 H843 0.950 . S
C863 C859 1.385 . S
C863 C862 1.374 . S
C864 C861 1.499 . S
C864 C865 1.373 . S
C864 C866 1.389 . S
C865 H844 0.950 . S
C865 C864 1.373 . S
C865 C881 1.377 . S
C866 C864 1.389 . S
C866 C867 1.524 . S
C866 C880 1.377 . S
C867 C866 1.524 . S
C867 C868 1.397 . S
C867 C872 1.363 . S
C868 H845 0.950 . S
C868 C867 1.397 . S
C868 C869 1.334 . S
C869 H846 0.950 . S
C869 C868 1.334 . S
C869 C870 1.287 . S
C870 C869 1.287 . S
C870 C871 1.524 . S
C870 H889 0.913 . S
C871 H847 0.950 . S
C871 C870 1.524 . S
C871 C872 1.415 . S
C872 H848 0.950 . S
C872 C867 1.363 . S
C872 C871 1.415 . S
C873 H849 0.951 . S
C873 C874 1.366 . S
C873 C875 1.388 . S
C874 C873 1.366 . S
C874 C878 1.385 . S
C875 H850 0.951 . S
C875 C873 1.388 . S
C875 C876 1.366 . S
C876 C875 1.366 . S
C876 C877 1.414 . S
C876 C879 1.499 . S
C877 H851 0.950 . S
C877 C876 1.414 . S
C877 C878 1.374 . S
C878 H852 0.950 . S
C878 C874 1.385 . S
C878 C877 1.374 . S
C879 C876 1.499 . S
C879 C880 1.373 . S
C879 C881 1.389 . S
C880 H853 0.950 . S
C880 C866 1.377 . S
C880 C879 1.373 . S
C881 C865 1.377 . S
C881 C879 1.389 . S
C881 C882 1.524 . S
C882 C881 1.524 . S
C882 C883 1.397 . S
C882 C887 1.363 . S
C883 H854 0.950 . S
C883 C882 1.397 . S
C883 C884 1.334 . S
C884 H855 0.950 . S
C884 C883 1.334 . S
C884 C885 1.287 . S
C885 C884 1.287 . S
C885 C886 1.524 . S
C885 H888 0.999 . S
C886 H856 0.950 . S
C886 C885 1.524 . S
C886 C887 1.415 . S
C887 H857 0.950 . S
C887 C882 1.363 . S
C887 C886 1.415 . S
H888 C885 0.999 . S
H889 C870 0.913 . S
H890 C908 0.951 . S
H891 C910 0.951 1_455 S
H892 C912 0.950 . S
H893 C913 0.950 . S
H894 C915 0.950 . S
H895 C918 0.950 . S
H896 C919 0.950 . S
H897 C921 0.950 . S
H898 C922 0.950 1_455 S
H899 C923 0.951 . S
H900 C925 0.951 . S
H901 C927 0.950 . S
H902 C928 0.950 . S
H903 C930 0.950 . S
H904 C933 0.950 . S
H905 C934 0.950 . S
H906 C936 0.950 . S
H907 C937 0.950 . S
C908 H890 0.951 . S
C908 C909 1.366 . S
C908 C910 1.388 . S
C909 C908 1.366 . S
C909 C913 1.385 . S
C910 H891 0.951 1_655 S
C910 C908 1.388 . S
C910 C911 1.366 . S
C911 C910 1.366 . S
C911 C912 1.414 . S
C911 C914 1.499 1_655 S
C912 H892 0.950 . S
C912 C911 1.414 . S
C912 C913 1.374 . S
C913 H893 0.950 . S
C913 C909 1.385 . S
C913 C912 1.374 . S
C914 C911 1.499 1_455 S
C914 C915 1.373 . S
C914 C916 1.389 . S
C915 H894 0.950 . S
C915 C914 1.373 . S
C915 C931 1.377 . S
C916 C914 1.389 . S
C916 C917 1.524 1_455 S
C916 C930 1.377 . S
C917 C916 1.524 1_655 S
C917 C918 1.397 . S
C917 C922 1.363 . S
C918 H895 0.950 . S
C918 C917 1.397 . S
C918 C919 1.334 . S
C919 H896 0.950 . S
C919 C918 1.334 . S
C919 C920 1.287 . S
C920 C919 1.287 . S
C920 C921 1.524 . S
C920 H939 0.913 . S
C921 H897 0.950 . S
C921 C920 1.524 . S
C921 C922 1.415 . S
C922 H898 0.950 1_655 S
C922 C917 1.363 . S
C922 C921 1.415 . S
C923 H899 0.951 . S
C923 C924 1.366 . S
C923 C925 1.388 . S
C924 C923 1.366 . S
C924 C928 1.385 . S
C925 H900 0.951 . S
C925 C923 1.388 . S
C925 C926 1.366 . S
C926 C925 1.366 . S
C926 C927 1.414 . S
C926 C929 1.499 . S
C927 H901 0.950 . S
C927 C926 1.414 . S
C927 C928 1.374 . S
C928 H902 0.950 . S
C928 C924 1.385 . S
C928 C927 1.374 . S
C929 C926 1.499 . S
C929 C930 1.373 . S
C929 C931 1.389 . S
C930 H903 0.950 . S
C930 C916 1.377 . S
C930 C929 1.373 . S
C931 C915 1.377 . S
C931 C929 1.389 . S
C931 C932 1.524 . S
C932 C931 1.524 . S
C932 C933 1.397 . S
C932 C937 1.363 . S
C933 H904 0.950 . S
C933 C932 1.397 . S
C933 C934 1.334 . S
C934 H905 0.950 . S
C934 C933 1.334 . S
C934 C935 1.287 . S
C935 C934 1.287 . S
C935 C936 1.524 . S
C935 H938 0.999 . S
C936 H906 0.950 . S
C936 C935 1.524 . S
C936 C937 1.415 . S
C937 H907 0.950 . S
C937 C932 1.363 . S
C937 C936 1.415 . S
H938 C935 0.999 . S
H939 C920 0.913 . S
H940 C958 0.951 1_545 S
H941 C960 0.951 . S
H942 C962 0.950 . S
H943 C963 0.950 . S
H944 C965 0.950 1_565 S
H945 C968 0.950 . S
H946 C969 0.950 . S
H947 C971 0.950 . S
H948 C972 0.950 . S
H949 C973 0.951 . S
H950 C975 0.951 . S
H951 C977 0.950 . S
H952 C978 0.950 . S
H953 C980 0.950 . S
H954 C983 0.950 . S
H955 C984 0.950 . S
H956 C986 0.950 . S
H957 C987 0.950 . S
C958 H940 0.951 1_565 S
C958 C959 1.366 . S
C958 C960 1.388 1_565 S
C959 C958 1.366 . S
C959 C963 1.385 . S
C960 H941 0.951 . S
C960 C958 1.388 1_545 S
C960 C961 1.366 1_545 S
C961 C960 1.366 1_565 S
C961 C962 1.414 . S
C961 C964 1.499 1_565 S
C962 H942 0.950 . S
C962 C961 1.414 . S
C962 C963 1.374 . S
C963 H943 0.950 . S
C963 C959 1.385 . S
C963 C962 1.374 . S
C964 C961 1.499 1_545 S
C964 C965 1.373 . S
C964 C966 1.389 . S
C965 H944 0.950 1_545 S
C965 C964 1.373 . S
C965 C981 1.377 . S
C966 C964 1.389 . S
C966 C967 1.524 . S
C966 C980 1.377 . S
C967 C966 1.524 . S
C967 C968 1.397 . S
C967 C972 1.363 . S
C968 H945 0.950 . S
C968 C967 1.397 . S
C968 C969 1.334 . S
C969 H946 0.950 . S
C969 C968 1.334 . S
C969 C970 1.287 . S
C970 C969 1.287 . S
C970 C971 1.524 . S
C970 H989 0.913 . S
C971 H947 0.950 . S
C971 C970 1.524 . S
C971 C972 1.415 . S
C972 H948 0.950 . S
C972 C967 1.363 . S
C972 C971 1.415 . S
C973 H949 0.951 . S
C973 C974 1.366 . S
C973 C975 1.388 . S
C974 C973 1.366 . S
C974 C978 1.385 . S
C975 H950 0.951 . S
C975 C973 1.388 . S
C975 C976 1.366 . S
C976 C975 1.366 . S
C976 C977 1.414 . S
C976 C979 1.499 . S
C977 H951 0.950 . S
C977 C976 1.414 . S
C977 C978 1.374 . S
C978 H952 0.950 . S
C978 C974 1.385 . S
C978 C977 1.374 . S
C979 C976 1.499 . S
C979 C980 1.373 . S
C979 C981 1.389 . S
C980 H953 0.950 . S
C980 C966 1.377 . S
C980 C979 1.373 . S
C981 C965 1.377 . S
C981 C979 1.389 . S
C981 C982 1.524 1_545 S
C982 C981 1.524 1_565 S
C982 C983 1.397 1_565 S
C982 C987 1.363 . S
C983 H954 0.950 . S
C983 C982 1.397 1_545 S
C983 C984 1.334 . S
C984 H955 0.950 . S
C984 C983 1.334 . S
C984 C985 1.287 1_545 S
C985 C984 1.287 1_565 S
C985 C986 1.524 . S
C985 H988 0.999 . S
C986 H956 0.950 . S
C986 C985 1.524 . S
C986 C987 1.415 . S
C987 H957 0.950 . S
C987 C982 1.363 . S
C987 C986 1.415 . S
H988 C985 0.999 . S
H989 C970 0.913 . S
H990 C1008 0.951 . S
H991 C1010 0.951 . S
H992 C1012 0.950 . S
H993 C1013 0.950 . S
H994 C1015 0.950 . S
H995 C1018 0.950 . S
H996 C1019 0.950 . S
H997 C1021 0.950 . S
H998 C1022 0.950 . S
H999 C1023 0.951 . S
H1000 C1025 0.951 . S
H1001 C1027 0.950 . S
H1002 C1028 0.950 . S
H1003 C1030 0.950 . S
H1004 C1033 0.950 . S
H1005 C1034 0.950 . S
H1006 C1036 0.950 . S
H1007 C1037 0.950 . S
C1008 H990 0.951 . S
C1008 C1009 1.366 . S
C1008 C1010 1.388 . S
C1009 C1008 1.366 . S
C1009 C1013 1.385 . S
C1010 H991 0.951 . S
C1010 C1008 1.388 . S
C1010 C1011 1.366 . S
C1011 C1010 1.366 . S
C1011 C1012 1.414 . S
C1011 C1014 1.499 . S
C1012 H992 0.950 . S
C1012 C1011 1.414 . S
C1012 C1013 1.374 . S
C1013 H993 0.950 . S
C1013 C1009 1.385 . S
C1013 C1012 1.374 . S
C1014 C1011 1.499 . S
C1014 C1015 1.373 . S
C1014 C1016 1.389 . S
C1015 H994 0.950 . S
C1015 C1014 1.373 . S
C1015 C1031 1.377 . S
C1016 C1014 1.389 . S
C1016 C1017 1.524 . S
C1016 C1030 1.377 . S
C1017 C1016 1.524 . S
C1017 C1018 1.397 . S
C1017 C1022 1.363 . S
C1018 H995 0.950 . S
C1018 C1017 1.397 . S
C1018 C1019 1.334 . S
C1019 H996 0.950 . S
C1019 C1018 1.334 . S
C1019 C1020 1.287 . S
C1020 C1019 1.287 . S
C1020 C1021 1.524 . S
C1020 H1039 0.913 . S
C1021 H997 0.950 . S
C1021 C1020 1.524 . S
C1021 C1022 1.415 . S
C1022 H998 0.950 . S
C1022 C1017 1.363 . S
C1022 C1021 1.415 . S
C1023 H999 0.951 . S
C1023 C1024 1.366 . S
C1023 C1025 1.388 . S
C1024 C1023 1.366 . S
C1024 C1028 1.385 . S
C1025 H1000 0.951 . S
C1025 C1023 1.388 . S
C1025 C1026 1.366 . S
C1026 C1025 1.366 . S
C1026 C1027 1.414 . S
C1026 C1029 1.499 . S
C1027 H1001 0.950 . S
C1027 C1026 1.414 . S
C1027 C1028 1.374 . S
C1028 H1002 0.950 . S
C1028 C1024 1.385 . S
C1028 C1027 1.374 . S
C1029 C1026 1.499 . S
C1029 C1030 1.373 . S
C1029 C1031 1.389 . S
C1030 H1003 0.950 . S
C1030 C1016 1.377 . S
C1030 C1029 1.373 . S
C1031 C1015 1.377 . S
C1031 C1029 1.389 . S
C1031 C1032 1.524 . S
C1032 C1031 1.524 . S
C1032 C1033 1.397 . S
C1032 C1037 1.363 . S
C1033 H1004 0.950 . S
C1033 C1032 1.397 . S
C1033 C1034 1.334 . S
C1034 H1005 0.950 . S
C1034 C1033 1.334 . S
C1034 C1035 1.287 . S
C1035 C1034 1.287 . S
C1035 C1036 1.524 . S
C1035 H1038 0.999 . S
C1036 H1006 0.950 . S
C1036 C1035 1.524 . S
C1036 C1037 1.415 . S
C1037 H1007 0.950 . S
C1037 C1032 1.363 . S
C1037 C1036 1.415 . S
H1038 C1035 0.999 . S
H1039 C1020 0.913 . S
H1040 C1058 0.951 . S
H1041 C1060 0.951 1_655 S
H1042 C1062 0.950 . S
H1043 C1063 0.950 . S
H1044 C1065 0.950 . S
H1045 C1068 0.950 . S
H1046 C1069 0.950 . S
H1047 C1071 0.950 . S
H1048 C1072 0.950 1_655 S
H1049 C1073 0.951 . S
H1050 C1075 0.951 . S
H1051 C1077 0.950 . S
H1052 C1078 0.950 . S
H1053 C1080 0.950 . S
H1054 C1083 0.950 . S
H1055 C1084 0.950 . S
H1056 C1086 0.950 . S
H1057 C1087 0.950 . S
C1058 H1040 0.951 . S
C1058 C1059 1.366 . S
C1058 C1060 1.388 . S
C1059 C1058 1.366 . S
C1059 C1063 1.385 . S
C1060 H1041 0.951 1_455 S
C1060 C1058 1.388 . S
C1060 C1061 1.366 . S
C1061 C1060 1.366 . S
C1061 C1062 1.414 . S
C1061 C1064 1.499 1_455 S
C1062 H1042 0.950 . S
C1062 C1061 1.414 . S
C1062 C1063 1.374 . S
C1063 H1043 0.950 . S
C1063 C1059 1.385 . S
C1063 C1062 1.374 . S
C1064 C1061 1.499 1_655 S
C1064 C1065 1.373 . S
C1064 C1066 1.389 . S
C1065 H1044 0.950 . S
C1065 C1064 1.373 . S
C1065 C1081 1.377 . S
C1066 C1064 1.389 . S
C1066 C1067 1.524 1_655 S
C1066 C1080 1.377 . S
C1067 C1066 1.524 1_455 S
C1067 C1068 1.397 . S
C1067 C1072 1.363 . S
C1068 H1045 0.950 . S
C1068 C1067 1.397 . S
C1068 C1069 1.334 . S
C1069 H1046 0.950 . S
C1069 C1068 1.334 . S
C1069 C1070 1.287 . S
C1070 C1069 1.287 . S
C1070 C1071 1.524 . S
C1070 H1089 0.913 . S
C1071 H1047 0.950 . S
C1071 C1070 1.524 . S
C1071 C1072 1.415 . S
C1072 H1048 0.950 1_455 S
C1072 C1067 1.363 . S
C1072 C1071 1.415 . S
C1073 H1049 0.951 . S
C1073 C1074 1.366 . S
C1073 C1075 1.388 . S
C1074 C1073 1.366 . S
C1074 C1078 1.385 . S
C1075 H1050 0.951 . S
C1075 C1073 1.388 . S
C1075 C1076 1.366 . S
C1076 C1075 1.366 . S
C1076 C1077 1.414 . S
C1076 C1079 1.499 . S
C1077 H1051 0.950 . S
C1077 C1076 1.414 . S
C1077 C1078 1.374 . S
C1078 H1052 0.950 . S
C1078 C1074 1.385 . S
C1078 C1077 1.374 . S
C1079 C1076 1.499 . S
C1079 C1080 1.373 . S
C1079 C1081 1.389 . S
C1080 H1053 0.950 . S
C1080 C1066 1.377 . S
C1080 C1079 1.373 . S
C1081 C1065 1.377 . S
C1081 C1079 1.389 . S
C1081 C1082 1.524 . S
C1082 C1081 1.524 . S
C1082 C1083 1.397 . S
C1082 C1087 1.363 . S
C1083 H1054 0.950 . S
C1083 C1082 1.397 . S
C1083 C1084 1.334 . S
C1084 H1055 0.950 . S
C1084 C1083 1.334 . S
C1084 C1085 1.287 . S
C1085 C1084 1.287 . S
C1085 C1086 1.524 . S
C1085 H1088 0.999 . S
C1086 H1056 0.950 . S
C1086 C1085 1.524 . S
C1086 C1087 1.415 . S
C1087 H1057 0.950 . S
C1087 C1082 1.363 . S
C1087 C1086 1.415 . S
H1088 C1085 0.999 . S
H1089 C1070 0.913 . S
H1090 C1108 0.951 1_565 S
H1091 C1110 0.951 . S
H1092 C1112 0.950 . S
H1093 C1113 0.950 . S
H1094 C1115 0.950 1_545 S
H1095 C1118 0.950 . S
H1096 C1119 0.950 . S
H1097 C1121 0.950 . S
H1098 C1122 0.950 . S
H1099 C1123 0.951 . S
H1100 C1125 0.951 . S
H1101 C1127 0.950 . S
H1102 C1128 0.950 . S
H1103 C1130 0.950 . S
H1104 C1133 0.950 . S
H1105 C1134 0.950 . S
H1106 C1136 0.950 . S
H1107 C1137 0.950 . S
C1108 H1090 0.951 1_545 S
C1108 C1109 1.366 . S
C1108 C1110 1.388 1_545 S
C1109 C1108 1.366 . S
C1109 C1113 1.385 . S
C1110 H1091 0.951 . S
C1110 C1108 1.388 1_565 S
C1110 C1111 1.366 1_565 S
C1111 C1110 1.366 1_545 S
C1111 C1112 1.414 . S
C1111 C1114 1.499 1_545 S
C1112 H1092 0.950 . S
C1112 C1111 1.414 . S
C1112 C1113 1.374 . S
C1113 H1093 0.950 . S
C1113 C1109 1.385 . S
C1113 C1112 1.374 . S
C1114 C1111 1.499 1_565 S
C1114 C1115 1.373 . S
C1114 C1116 1.389 . S
C1115 H1094 0.950 1_565 S
C1115 C1114 1.373 . S
C1115 C1131 1.377 . S
C1116 C1114 1.389 . S
C1116 C1117 1.524 . S
C1116 C1130 1.377 . S
C1117 C1116 1.524 . S
C1117 C1118 1.397 . S
C1117 C1122 1.363 . S
C1118 H1095 0.950 . S
C1118 C1117 1.397 . S
C1118 C1119 1.334 . S
C1119 H1096 0.950 . S
C1119 C1118 1.334 . S
C1119 C1120 1.287 . S
C1120 C1119 1.287 . S
C1120 C1121 1.524 . S
C1120 H1139 0.913 . S
C1121 H1097 0.950 . S
C1121 C1120 1.524 . S
C1121 C1122 1.415 . S
C1122 H1098 0.950 . S
C1122 C1117 1.363 . S
C1122 C1121 1.415 . S
C1123 H1099 0.951 . S
C1123 C1124 1.366 . S
C1123 C1125 1.388 . S
C1124 C1123 1.366 . S
C1124 C1128 1.385 . S
C1125 H1100 0.951 . S
C1125 C1123 1.388 . S
C1125 C1126 1.366 . S
C1126 C1125 1.366 . S
C1126 C1127 1.414 . S
C1126 C1129 1.499 . S
C1127 H1101 0.950 . S
C1127 C1126 1.414 . S
C1127 C1128 1.374 . S
C1128 H1102 0.950 . S
C1128 C1124 1.385 . S
C1128 C1127 1.374 . S
C1129 C1126 1.499 . S
C1129 C1130 1.373 . S
C1129 C1131 1.389 . S
C1130 H1103 0.950 . S
C1130 C1116 1.377 . S
C1130 C1129 1.373 . S
C1131 C1115 1.377 . S
C1131 C1129 1.389 . S
C1131 C1132 1.524 . S
C1132 C1131 1.524 . S
C1132 C1133 1.397 . S
C1132 C1137 1.363 1_565 S
C1133 H1104 0.950 . S
C1133 C1132 1.397 . S
C1133 C1134 1.334 . S
C1134 H1105 0.950 . S
C1134 C1133 1.334 . S
C1134 C1135 1.287 . S
C1135 C1134 1.287 . S
C1135 C1136 1.524 1_565 S
C1135 H1138 0.992 1_565 S
C1136 H1106 0.950 . S
C1136 C1135 1.524 1_545 S
C1136 C1137 1.415 . S
C1137 H1107 0.950 . S
C1137 C1132 1.363 1_545 S
C1137 C1136 1.415 . S
H1138 C1135 0.992 1_545 S
H1139 C1120 0.913 . S
C259 C179 1.147 . S
C274 C6 1.152 . S
C309 C219 1.147 . S
C324 C46 1.152 . S
C359 C19 1.147 . S
C374 C86 1.152 . S
C409 C59 1.146 . S
C424 C126 1.152 . S
C459 C99 1.147 . S
C474 C166 1.152 . S
C509 C139 1.147 . S
C524 C206 1.152 . S
C559 C9 0.641 . S
C574 C129 0.640 . S
C609 C169 0.641 . S
C624 C49 0.642 . S
C659 C209 0.641 . S
C674 C89 0.641 . S
C709 C98 0.554 . S
C724 C218 0.554 . S
C759 C18 0.555 . S
C774 C138 0.555 . S
C809 C178 0.555 . S
C824 C58 0.555 . S
C859 C210 1.230 . S
C874 C15 1.215 . S
C909 C55 1.215 . S
C924 C10 1.231 . S
C959 C95 1.215 . S
C974 C50 1.230 . S
C1009 C90 1.230 . S
C1024 C135 1.215 . S
C1059 C175 1.215 . S
C1074 C130 1.231 . S
C1109 C215 1.215 . S
C1124 C170 1.230 . S
