# Generated by pormake.
# Topology umg, (4)-cn, num edge types: 1
# Building blocks:
#     Node 0, Type 0, BuildingBlock: ICAMEG_clean_sbu_1, # of connection points: 4
#     Node 1, Type 0, BuildingBlock: ICAMEG_clean_sbu_1, # of connection points: 4
#     Node 2, Type 0, BuildingBlock: ICAMEG_clean_sbu_1, # of connection points: 4
#     Node 3, Type 0, BuildingBlock: ICAMEG_clean_sbu_1, # of connection points: 4
#     Node 4, Type 0, BuildingBlock: ICAMEG_clean_sbu_1, # of connection points: 4
#     Node 5, Type 0, BuildingBlock: ICAMEG_clean_sbu_1, # of connection points: 4
#     Node 6, Type 0, BuildingBlock: ICAMEG_clean_sbu_1, # of connection points: 4
#     Node 7, Type 0, BuildingBlock: ICAMEG_clean_sbu_1, # of connection points: 4
#     Node 8, Type 0, BuildingBlock: ICAMEG_clean_sbu_1, # of connection points: 4
#     Node 9, Type 0, BuildingBlock: ICAMEG_clean_sbu_1, # of connection points: 4
#     Node 10, Type 0, BuildingBlock: ICAMEG_clean_sbu_1, # of connection points: 4
#     Node 11, Type 0, BuildingBlock: ICAMEG_clean_sbu_1, # of connection points: 4
#     Edge 12, Type (0, 0), BuildingBlock: MIFKUJ_clean_linker_0, # of connection points: 2
#     Edge 13, Type (0, 0), BuildingBlock: MIFKUJ_clean_linker_0, # of connection points: 2
#     Edge 14, Type (0, 0), BuildingBlock: MIFKUJ_clean_linker_0, # of connection points: 2
#     Edge 15, Type (0, 0), BuildingBlock: MIFKUJ_clean_linker_0, # of connection points: 2
#     Edge 16, Type (0, 0), BuildingBlock: MIFKUJ_clean_linker_0, # of connection points: 2
#     Edge 17, Type (0, 0), BuildingBlock: MIFKUJ_clean_linker_0, # of connection points: 2
#     Edge 18, Type (0, 0), BuildingBlock: MIFKUJ_clean_linker_0, # of connection points: 2
#     Edge 19, Type (0, 0), BuildingBlock: MIFKUJ_clean_linker_0, # of connection points: 2
#     Edge 20, Type (0, 0), BuildingBlock: MIFKUJ_clean_linker_0, # of connection points: 2
#     Edge 21, Type (0, 0), BuildingBlock: MIFKUJ_clean_linker_0, # of connection points: 2
#     Edge 22, Type (0, 0), BuildingBlock: MIFKUJ_clean_linker_0, # of connection points: 2
#     Edge 23, Type (0, 0), BuildingBlock: MIFKUJ_clean_linker_0, # of connection points: 2
#     Edge 24, Type (0, 0), BuildingBlock: MIFKUJ_clean_linker_0, # of connection points: 2
#     Edge 25, Type (0, 0), BuildingBlock: MIFKUJ_clean_linker_0, # of connection points: 2
#     Edge 26, Type (0, 0), BuildingBlock: MIFKUJ_clean_linker_0, # of connection points: 2
#     Edge 27, Type (0, 0), BuildingBlock: MIFKUJ_clean_linker_0, # of connection points: 2
#     Edge 28, Type (0, 0), BuildingBlock: MIFKUJ_clean_linker_0, # of connection points: 2
#     Edge 29, Type (0, 0), BuildingBlock: MIFKUJ_clean_linker_0, # of connection points: 2
#     Edge 30, Type (0, 0), BuildingBlock: MIFKUJ_clean_linker_0, # of connection points: 2
#     Edge 31, Type (0, 0), BuildingBlock: MIFKUJ_clean_linker_0, # of connection points: 2
#     Edge 32, Type (0, 0), BuildingBlock: MIFKUJ_clean_linker_0, # of connection points: 2
#     Edge 33, Type (0, 0), BuildingBlock: MIFKUJ_clean_linker_0, # of connection points: 2
#     Edge 34, Type (0, 0), BuildingBlock: MIFKUJ_clean_linker_0, # of connection points: 2
#     Edge 35, Type (0, 0), BuildingBlock: MIFKUJ_clean_linker_0, # of connection points: 2
# Relax obj value: 0.057
# Max RMSD: 0.149
# Mean RMSD: 0.149
data_MOF--net-umg--node1-ICAMEG_clean_sbu_1--edge1-MIFKUJ_clean_linker_0
_symmetry_space_group_name_H-M    P1
_symmetry_Int_Tables_number       1
_symmetry_cell_setting            triclinic
loop_
_symmetry_equiv_pos_as_xyz
'x, y, z'
_cell_length_a     38.972092
_cell_length_b     38.955118
_cell_length_c     117.62831
_cell_angle_alpha  90.003747
_cell_angle_beta   89.985124
_cell_angle_gamma 119.99916
loop_
_atom_site_label
_atom_site_type_symbol
_atom_site_fract_x
_atom_site_fract_y
_atom_site_fract_z
_atom_type_partial_charge
Co0 Co 0.29734 0.61137 0.08162 0.0
Co1 Co 0.27198 0.51791 0.09136 0.0
O2 O 0.30077 0.56311 0.08125 0.0
C3 C 0.27304 0.57942 0.05863 0.0
O4 O 0.24986 0.54537 0.06362 0.0
C5 C 0.35584 0.54255 0.09465 0.0
O6 O 0.36239 0.57894 0.09549 0.0
O7 O 0.2877 0.55312 0.10489 0.0
O8 O 0.30001 0.61277 0.09858 0.0
H9 H 0.17931 0.44201 0.12332 0.0
H10 H 0.35808 0.6079 0.06723 0.0
O11 O 0.29435 0.61021 0.0646 0.0
H12 H 0.43291 0.71716 0.09426 0.0
H13 H 0.32908 0.74614 0.06757 0.0
H14 H 0.25421 0.64074 0.09568 0.0
H15 H 0.35984 0.6797 0.09466 0.0
H16 H 0.33322 0.68496 0.06762 0.0
O17 O 0.32082 0.51387 0.09307 0.0
H18 H 0.21522 0.4988 0.11034 0.0
H19 H 0.26928 0.44051 0.09407 0.0
H20 H 0.24946 0.70155 0.096 0.0
H21 H 0.43111 0.64476 0.06649 0.0
H22 H 0.28709 0.75478 0.08187 0.0
H23 H 0.46902 0.69974 0.0801 0.0
O24 O 0.23848 0.58051 0.08241 0.0
H25 H 0.29582 0.46971 0.05419 0.0
H26 H 0.1956 0.45081 0.08289 0.0
H27 H 0.17517 0.40868 0.06576 0.0
H28 H 0.22547 0.41804 0.05126 0.0
H29 H 0.3149 0.51138 0.07141 0.0
H30 H 0.23422 0.3832 0.10694 0.0
H31 H 0.18873 0.38367 0.12166 0.0
O32 O 0.22281 0.52124 0.08981 0.0
C33 C 0.29663 0.58902 0.10655 0.0
C34 C 0.19895 0.44139 0.11691 0.0
C35 C 0.22981 0.40841 0.10773 0.0
N36 N 0.24402 0.47279 0.1014 0.0
C37 C 0.21926 0.47341 0.10952 0.0
C38 C 0.24964 0.44097 0.10049 0.0
C39 C 0.20428 0.40869 0.11599 0.0
C40 C 0.37435 0.63206 0.0731 0.0
N41 N 0.35472 0.64179 0.08093 0.0
C42 C 0.41571 0.65271 0.07268 0.0
C43 C 0.43696 0.68352 0.08033 0.0
C44 C 0.41672 0.69329 0.08828 0.0
C45 C 0.37535 0.67194 0.08847 0.0
C46 C 0.31262 0.7232 0.07379 0.0
C47 C 0.27087 0.6639 0.08956 0.0
C48 C 0.3148 0.68848 0.07384 0.0
N49 N 0.29426 0.65951 0.08171 0.0
C50 C 0.26797 0.6982 0.08976 0.0
C51 C 0.28906 0.72803 0.08182 0.0
C52 C 0.21338 0.54619 0.08612 0.0
C53 C 0.27365 0.46527 0.06046 0.0
C54 C 0.21765 0.45507 0.07662 0.0
C55 C 0.20592 0.43108 0.06694 0.0
C56 C 0.23416 0.43633 0.05881 0.0
N57 N 0.25643 0.48343 0.07817 0.0
C58 C 0.28431 0.48866 0.07025 0.0
Co59 Co 0.67776 0.29322 0.41678 0.0
Co60 Co 0.74266 0.26233 0.42555 0.0
O61 O 0.72843 0.29452 0.41618 0.0
C62 C 0.68608 0.2734 0.3933 0.0
O63 O 0.69532 0.24818 0.39774 0.0
C64 C 0.80353 0.34462 0.43035 0.0
O65 O 0.77428 0.3519 0.43154 0.0
O66 O 0.72325 0.27609 0.43946 0.0
O67 O 0.67781 0.29205 0.43377 0.0
H68 H 0.72078 0.16296 0.45599 0.0
H69 H 0.7442 0.35552 0.40335 0.0
O70 O 0.67707 0.29403 0.39974 0.0
H71 H 0.71208 0.42736 0.43207 0.0
H72 H 0.57972 0.3334 0.40391 0.0
H73 H 0.60384 0.24914 0.43022 0.0
H74 H 0.67396 0.35433 0.43113 0.0
H75 H 0.64371 0.33475 0.40377 0.0
O76 O 0.79632 0.3097 0.42802 0.0
H77 H 0.7023 0.20222 0.4436 0.0
H78 H 0.81547 0.25594 0.42784 0.0
H79 H 0.53954 0.24708 0.43072 0.0
H80 H 0.78289 0.42855 0.40395 0.0
H81 H 0.52718 0.28943 0.41749 0.0
H82 H 0.76699 0.46495 0.41841 0.0
O83 O 0.64783 0.23434 0.41654 0.0
H84 H 0.81659 0.29215 0.38855 0.0
H85 H 0.73175 0.18702 0.41563 0.0
H86 H 0.75338 0.16923 0.39798 0.0
H87 H 0.79611 0.22203 0.38429 0.0
H88 H 0.79396 0.30854 0.40625 0.0
H89 H 0.83524 0.21728 0.44007 0.0
H90 H 0.78768 0.17034 0.45425 0.0
O91 O 0.68927 0.21458 0.42323 0.0
C92 C 0.69716 0.28591 0.44149 0.0
C93 C 0.7417 0.18316 0.4498 0.0
C94 C 0.80597 0.21371 0.44088 0.0
N95 N 0.75765 0.23103 0.43494 0.0
C96 C 0.73136 0.20538 0.44274 0.0
C97 C 0.79463 0.23554 0.43399 0.0
C98 C 0.77926 0.18737 0.44883 0.0
C99 C 0.73682 0.37116 0.40959 0.0
N100 N 0.7067 0.3507 0.41714 0.0
C101 C 0.75895 0.41251 0.40992 0.0
C102 C 0.75005 0.43291 0.41805 0.0
C103 C 0.71926 0.41183 0.42572 0.0
C104 C 0.69782 0.37049 0.42515 0.0
C105 C 0.5848 0.31489 0.40973 0.0
C106 C 0.59877 0.26789 0.4245 0.0
C107 C 0.62093 0.31549 0.40968 0.0
N108 N 0.6276 0.29235 0.41706 0.0
C109 C 0.56227 0.26649 0.42479 0.0
C110 C 0.55533 0.29022 0.41736 0.0
C111 C 0.65545 0.20745 0.41961 0.0
C112 C 0.79806 0.26889 0.39446 0.0
C113 C 0.75024 0.21012 0.40971 0.0
C114 C 0.7625 0.19989 0.39974 0.0
C115 C 0.7865 0.22953 0.39207 0.0
N116 N 0.76161 0.24877 0.41198 0.0
C117 C 0.78528 0.27801 0.40452 0.0
Co118 Co 0.38025 0.68219 0.74826 0.0
Co119 Co 0.47515 0.74737 0.75759 0.0
O120 O 0.43014 0.7324 0.74751 0.0
C121 C 0.40932 0.68504 0.72506 0.0
O122 O 0.4431 0.69312 0.72975 0.0
C123 C 0.45508 0.81003 0.7605 0.0
O124 O 0.41811 0.7814 0.7613 0.0
O125 O 0.44036 0.73095 0.77117 0.0
O126 O 0.37985 0.68441 0.76524 0.0
H127 H 0.54739 0.7283 0.79013 0.0
H128 H 0.38643 0.74705 0.73361 0.0
O129 O 0.38011 0.67926 0.73127 0.0
H130 H 0.28053 0.72016 0.76118 0.0
H131 H 0.24261 0.58379 0.73504 0.0
H132 H 0.34841 0.60993 0.76255 0.0
H133 H 0.31466 0.68126 0.76158 0.0
H134 H 0.30578 0.64727 0.73469 0.0
O135 O 0.48257 0.80188 0.75892 0.0
H136 H 0.49128 0.70913 0.77703 0.0
H137 H 0.55498 0.81938 0.75983 0.0
H138 H 0.2856 0.54618 0.76326 0.0
H139 H 0.35285 0.78643 0.73285 0.0
H140 H 0.23217 0.5328 0.74943 0.0
H141 H 0.29958 0.77318 0.74674 0.0
O142 O 0.40856 0.65164 0.74905 0.0
H143 H 0.52563 0.8151 0.71995 0.0
H144 H 0.53876 0.73217 0.74936 0.0
H145 H 0.58041 0.75012 0.73216 0.0
H146 H 0.57398 0.79188 0.7173 0.0
H147 H 0.48434 0.79619 0.73726 0.0
H148 H 0.61177 0.83986 0.77278 0.0
H149 H 0.60819 0.7941 0.78805 0.0
O150 O 0.4684 0.69325 0.75649 0.0
C151 C 0.40426 0.70508 0.77303 0.0
C152 C 0.54937 0.74844 0.78349 0.0
C153 C 0.58548 0.81107 0.77376 0.0
N154 N 0.52004 0.76297 0.76761 0.0
C155 C 0.51775 0.7377 0.77602 0.0
C156 C 0.55324 0.79934 0.76646 0.0
C157 C 0.58346 0.78538 0.78232 0.0
C158 C 0.36299 0.74081 0.73961 0.0
N159 N 0.35238 0.71176 0.74759 0.0
C160 C 0.3442 0.76333 0.73917 0.0
C161 C 0.31436 0.75592 0.74697 0.0
C162 C 0.30367 0.7262 0.75508 0.0
C163 C 0.32315 0.70432 0.75528 0.0
C164 C 0.26563 0.58932 0.74113 0.0
C165 C 0.32517 0.60442 0.75656 0.0
C166 C 0.30146 0.62517 0.74096 0.0
N167 N 0.33055 0.63242 0.74867 0.0
C168 C 0.28973 0.56823 0.75698 0.0
C169 C 0.25978 0.56072 0.74921 0.0
C170 C 0.44229 0.65924 0.75285 0.0
C171 C 0.52879 0.797 0.72638 0.0
C172 C 0.53579 0.75035 0.74294 0.0
C173 C 0.55949 0.76046 0.73322 0.0
C174 C 0.55587 0.78391 0.72489 0.0
N175 N 0.5093 0.76331 0.74433 0.0
C176 C 0.50562 0.78635 0.73622 0.0
Co177 Co 0.71691 0.37798 0.08302 0.0
Co178 Co 0.75371 0.47635 0.09014 0.0
O179 O 0.71828 0.42847 0.08177 0.0
C180 C 0.73656 0.40265 0.05927 0.0
O181 O 0.76317 0.43718 0.06335 0.0
C182 C 0.67353 0.45762 0.09663 0.0
O183 O 0.66572 0.421 0.09804 0.0
O184 O 0.74391 0.44614 0.10458 0.0
O185 O 0.71838 0.38176 0.09994 0.0
H186 H 0.86408 0.55984 0.11722 0.0
H187 H 0.65671 0.38498 0.06934 0.0
O188 O 0.71551 0.37414 0.06601 0.0
H189 H 0.5812 0.28529 0.09879 0.0
H190 H 0.67007 0.23668 0.07181 0.0
H191 H 0.75757 0.34643 0.0973 0.0
H192 H 0.65389 0.31595 0.09764 0.0
H193 H 0.67242 0.30109 0.07074 0.0
O194 O 0.70801 0.48442 0.09357 0.0
H195 H 0.81958 0.49921 0.10648 0.0
H196 H 0.76202 0.5565 0.09172 0.0
H197 H 0.75595 0.28244 0.09871 0.0
H198 H 0.58407 0.35497 0.07014 0.0
H199 H 0.71195 0.22702 0.0859 0.0
H200 H 0.54583 0.30484 0.08498 0.0
O201 O 0.77591 0.40429 0.0827 0.0
H202 H 0.71353 0.51253 0.05348 0.0
H203 H 0.82608 0.53739 0.0781 0.0
H204 H 0.83881 0.57241 0.05975 0.0
H205 H 0.78227 0.55998 0.04729 0.0
H206 H 0.7022 0.47809 0.07186 0.0
H207 H 0.80569 0.61768 0.10236 0.0
H208 H 0.85727 0.61964 0.11519 0.0
O209 O 0.79948 0.46868 0.08686 0.0
C210 C 0.73011 0.40976 0.10722 0.0
C211 C 0.84181 0.5594 0.11163 0.0
C212 C 0.809 0.59184 0.1033 0.0
N213 N 0.78847 0.52445 0.09842 0.0
C214 C 0.81661 0.5252 0.1055 0.0
C215 C 0.78431 0.5571 0.09732 0.0
C216 C 0.83794 0.59292 0.1105 0.0
C217 C 0.64025 0.36289 0.07575 0.0
N218 N 0.65952 0.35214 0.08342 0.0
C219 C 0.59913 0.34611 0.07618 0.0
C220 C 0.5777 0.31804 0.08452 0.0
C221 C 0.59753 0.30708 0.09228 0.0
C222 C 0.6387 0.32458 0.09161 0.0
C223 C 0.68931 0.26058 0.07745 0.0
C224 C 0.73818 0.32236 0.09174 0.0
C225 C 0.69083 0.29713 0.07686 0.0
N226 N 0.7149 0.32735 0.084 0.0
C227 C 0.73747 0.28624 0.09256 0.0
C228 C 0.71281 0.25518 0.08536 0.0
C229 C 0.80436 0.43955 0.08435 0.0
C230 C 0.73841 0.51831 0.05885 0.0
C231 C 0.80136 0.53189 0.07273 0.0
C232 C 0.80872 0.55183 0.06236 0.0
C233 C 0.77699 0.54487 0.05537 0.0
N234 N 0.76346 0.50582 0.07607 0.0
C235 C 0.73217 0.49901 0.06929 0.0
Co236 Co 0.32711 0.71391 0.41431 0.0
Co237 Co 0.26336 0.74454 0.42438 0.0
O238 O 0.2758 0.71127 0.41487 0.0
C239 C 0.31212 0.73047 0.39111 0.0
O240 O 0.30255 0.75504 0.39584 0.0
C241 C 0.20609 0.6628 0.43112 0.0
O242 O 0.23609 0.65641 0.43152 0.0
O243 O 0.28836 0.73512 0.43783 0.0
O244 O 0.33128 0.71704 0.43125 0.0
H245 H 0.29309 0.85222 0.45278 0.0
H246 H 0.25805 0.64928 0.40229 0.0
O247 O 0.32354 0.71117 0.39728 0.0
H248 H 0.29932 0.58247 0.43019 0.0
H249 H 0.42371 0.67494 0.39925 0.0
H250 H 0.40394 0.76039 0.42625 0.0
H251 H 0.33604 0.65533 0.42844 0.0
H252 H 0.35919 0.67224 0.40048 0.0
O253 O 0.21169 0.69697 0.42852 0.0
H254 H 0.30853 0.81 0.44067 0.0
H255 H 0.19 0.7486 0.42857 0.0
H256 H 0.46884 0.76385 0.42537 0.0
H257 H 0.22064 0.57634 0.40371 0.0
H258 H 0.47903 0.7209 0.41179 0.0
H259 H 0.24115 0.54248 0.41777 0.0
O260 O 0.35605 0.77286 0.41349 0.0
H261 H 0.1755 0.70331 0.38991 0.0
H262 H 0.26836 0.8163 0.41361 0.0
H263 H 0.23892 0.82842 0.39661 0.0
H264 H 0.1921 0.77165 0.38463 0.0
H265 H 0.20601 0.69262 0.40691 0.0
H266 H 0.17311 0.78981 0.44066 0.0
H267 H 0.22492 0.84219 0.45283 0.0
O268 O 0.31474 0.7924 0.42041 0.0
C269 C 0.31471 0.72526 0.43934 0.0
C270 C 0.27027 0.82956 0.44749 0.0
C271 C 0.20293 0.7945 0.44069 0.0
N272 N 0.25028 0.77712 0.43385 0.0
C273 C 0.27888 0.80566 0.44059 0.0
C274 C 0.21263 0.77119 0.43389 0.0
C275 C 0.23202 0.8239 0.44752 0.0
C276 C 0.26743 0.63473 0.40834 0.0
N277 N 0.29934 0.65651 0.41522 0.0
C278 C 0.24602 0.59344 0.40914 0.0
C279 C 0.25751 0.57446 0.41704 0.0
C280 C 0.29013 0.59688 0.42402 0.0
C281 C 0.31079 0.63812 0.423 0.0
C282 C 0.41961 0.69374 0.40522 0.0
C283 C 0.40809 0.74143 0.42038 0.0
C284 C 0.38318 0.6924 0.40594 0.0
N285 N 0.37776 0.71591 0.41349 0.0
C286 C 0.44493 0.7436 0.41989 0.0
C287 C 0.45064 0.71953 0.41226 0.0
C288 C 0.34805 0.79969 0.41633 0.0
C289 C 0.19583 0.72829 0.39507 0.0
C290 C 0.24815 0.79149 0.40842 0.0
C291 C 0.23148 0.79851 0.39882 0.0
C292 C 0.20518 0.76664 0.3921 0.0
N293 N 0.23887 0.7538 0.41127 0.0
C294 C 0.21306 0.7224 0.40474 0.0
Co295 Co 0.61001 0.3323 0.7508 0.0
Co296 Co 0.51387 0.26899 0.75962 0.0
O297 O 0.56074 0.28157 0.75069 0.0
C298 C 0.58205 0.31959 0.72722 0.0
O299 O 0.54741 0.31055 0.73147 0.0
C300 C 0.53684 0.21105 0.76675 0.0
O301 O 0.57293 0.24118 0.76784 0.0
O302 O 0.54633 0.29286 0.77351 0.0
O303 O 0.60863 0.33497 0.76773 0.0
H304 H 0.43263 0.29748 0.78712 0.0
H305 H 0.60537 0.2633 0.73867 0.0
O306 O 0.61167 0.33015 0.73378 0.0
H307 H 0.70871 0.29958 0.76785 0.0
H308 H 0.7483 0.4281 0.73746 0.0
H309 H 0.64012 0.40817 0.76328 0.0
H310 H 0.67488 0.33841 0.76564 0.0
H311 H 0.68555 0.36422 0.73786 0.0
O312 O 0.50873 0.21675 0.76368 0.0
H313 H 0.49172 0.31345 0.77562 0.0
H314 H 0.43568 0.19569 0.7629 0.0
H315 H 0.70246 0.47242 0.76322 0.0
H316 H 0.63849 0.22374 0.74056 0.0
H317 H 0.75709 0.48269 0.75024 0.0
H318 H 0.69048 0.24173 0.75527 0.0
O319 O 0.58107 0.36229 0.74972 0.0
H320 H 0.47273 0.1849 0.72437 0.0
H321 H 0.44868 0.27489 0.74821 0.0
H322 H 0.40996 0.24749 0.73062 0.0
H323 H 0.42193 0.20216 0.71856 0.0
H324 H 0.51098 0.21323 0.74197 0.0
H325 H 0.37609 0.17831 0.77434 0.0
H326 H 0.37427 0.22946 0.78653 0.0
O327 O 0.51862 0.32094 0.75562 0.0
C328 C 0.58251 0.31838 0.77549 0.0
C329 C 0.43301 0.27497 0.78182 0.0
C330 C 0.4013 0.20806 0.77466 0.0
N331 N 0.46697 0.25562 0.76853 0.0
C332 C 0.46633 0.28387 0.77526 0.0
C333 C 0.43514 0.21804 0.76822 0.0
C334 C 0.40029 0.23679 0.78149 0.0
C335 C 0.6283 0.27162 0.74499 0.0
N336 N 0.63837 0.30331 0.75198 0.0
C337 C 0.64682 0.24899 0.74606 0.0
C338 C 0.67594 0.25906 0.75433 0.0
C339 C 0.68617 0.29151 0.76139 0.0
C340 C 0.66691 0.31338 0.7601 0.0
C341 C 0.72474 0.42397 0.74316 0.0
C342 C 0.66385 0.41236 0.75765 0.0
C343 C 0.68913 0.3879 0.74341 0.0
N344 N 0.65935 0.38243 0.75064 0.0
C345 C 0.69904 0.44883 0.75763 0.0
C346 C 0.72966 0.45458 0.75034 0.0
C347 C 0.54584 0.35445 0.75197 0.0
C348 C 0.4672 0.20457 0.72956 0.0
C349 C 0.45412 0.25529 0.74298 0.0
C350 C 0.43204 0.23977 0.73305 0.0
C351 C 0.43874 0.21431 0.7263 0.0
N352 N 0.48204 0.24568 0.74611 0.0
C353 C 0.48866 0.22059 0.73956 0.0
Co354 Co 0.39195 0.70447 0.58027 0.0
Co355 Co 0.48932 0.74164 0.57204 0.0
O356 O 0.44282 0.70641 0.58096 0.0
C357 C 0.41747 0.72377 0.60401 0.0
O358 O 0.45144 0.75155 0.59993 0.0
C359 C 0.47155 0.66175 0.56573 0.0
O360 O 0.43495 0.65383 0.56421 0.0
O361 O 0.45728 0.72951 0.55792 0.0
O362 O 0.39422 0.70738 0.56331 0.0
H363 H 0.5668 0.84876 0.54345 0.0
H364 H 0.40005 0.64351 0.5932 0.0
O365 O 0.38932 0.70176 0.59729 0.0
H366 H 0.29974 0.56982 0.56375 0.0
H367 H 0.25119 0.65507 0.59254 0.0
H368 H 0.359 0.74623 0.56706 0.0
H369 H 0.32993 0.64239 0.56541 0.0
H370 H 0.31592 0.658 0.59281 0.0
O371 O 0.49814 0.69626 0.56883 0.0
H372 H 0.50831 0.80494 0.55507 0.0
H373 H 0.57007 0.75184 0.56976 0.0
H374 H 0.29467 0.74407 0.56645 0.0
H375 H 0.37059 0.57098 0.59185 0.0
H376 H 0.24022 0.69822 0.57926 0.0
H377 H 0.32016 0.53367 0.57701 0.0
O378 O 0.4179 0.76336 0.58096 0.0
H379 H 0.53306 0.70772 0.60844 0.0
H380 H 0.5506 0.81617 0.5831 0.0
H381 H 0.58881 0.83205 0.60094 0.0
H382 H 0.58014 0.77758 0.61375 0.0
H383 H 0.49522 0.69322 0.59057 0.0
H384 H 0.62923 0.795 0.55827 0.0
H385 H 0.62784 0.84396 0.54502 0.0
O386 O 0.48079 0.78707 0.57511 0.0
C387 C 0.42091 0.71721 0.5557 0.0
C388 C 0.56784 0.82767 0.54922 0.0
C389 C 0.60285 0.79744 0.55753 0.0
N390 N 0.53594 0.77615 0.56315 0.0
C391 C 0.53486 0.80286 0.55585 0.0
C392 C 0.56926 0.77306 0.564 0.0
C393 C 0.60205 0.82492 0.5501 0.0
C394 C 0.3778 0.62744 0.5868 0.0
N395 N 0.36654 0.64714 0.57944 0.0
C396 C 0.36134 0.58639 0.58605 0.0
C397 C 0.33309 0.56548 0.57771 0.0
C398 C 0.32165 0.58575 0.57026 0.0
C399 C 0.33884 0.62684 0.57124 0.0
C400 C 0.27465 0.6751 0.5869 0.0
C401 C 0.33535 0.72601 0.57261 0.0
C402 C 0.31137 0.67692 0.58703 0.0
N403 N 0.34104 0.702 0.57989 0.0
C404 C 0.29903 0.72501 0.57225 0.0
C405 C 0.26851 0.69931 0.57944 0.0
C406 C 0.45236 0.79187 0.57848 0.0
C407 C 0.53716 0.73171 0.60292 0.0
C408 C 0.5466 0.79234 0.58865 0.0
C409 C 0.56838 0.80149 0.59872 0.0
C410 C 0.56353 0.77091 0.6059 0.0
N411 N 0.52077 0.75383 0.58579 0.0
C412 C 0.51592 0.72368 0.59277 0.0
Co413 Co 0.66281 0.37474 0.91715 0.0
Co414 Co 0.73201 0.47038 0.90928 0.0
O415 O 0.71399 0.42328 0.91869 0.0
C416 C 0.66413 0.40284 0.94034 0.0
O417 O 0.67553 0.43756 0.93572 0.0
C418 C 0.79239 0.44711 0.90613 0.0
O419 O 0.76312 0.41054 0.90502 0.0
O420 O 0.71507 0.43786 0.89521 0.0
O421 O 0.66847 0.37612 0.90024 0.0
H422 H 0.72 0.55128 0.87793 0.0
H423 H 0.72317 0.37655 0.9329 0.0
O424 O 0.6566 0.37318 0.93408 0.0
H425 H 0.69785 0.27215 0.90494 0.0
H426 H 0.5581 0.23732 0.92874 0.0
H427 H 0.59398 0.34666 0.90162 0.0
H428 H 0.66194 0.30924 0.90378 0.0
H429 H 0.62268 0.29902 0.93015 0.0
O430 O 0.78526 0.47514 0.90797 0.0
H431 H 0.69729 0.49252 0.8902 0.0
H432 H 0.80666 0.54859 0.90805 0.0
H433 H 0.52924 0.28537 0.89984 0.0
H434 H 0.75933 0.33985 0.93446 0.0
H435 H 0.51095 0.23016 0.91347 0.0
H436 H 0.74688 0.28734 0.92038 0.0
O437 O 0.6342 0.40496 0.91589 0.0
H438 H 0.79684 0.51062 0.94763 0.0
H439 H 0.72166 0.53616 0.9184 0.0
H440 H 0.74016 0.57471 0.93621 0.0
H441 H 0.77799 0.56199 0.95098 0.0
H442 H 0.77752 0.47261 0.92971 0.0
H443 H 0.83069 0.60792 0.89592 0.0
H444 H 0.78716 0.60955 0.88075 0.0
O445 O 0.6793 0.46656 0.91037 0.0
C446 C 0.68974 0.40199 0.89282 0.0
C447 C 0.73919 0.55101 0.88453 0.0
C448 C 0.80133 0.58276 0.89462 0.0
N449 N 0.7505 0.5173 0.8999 0.0
C450 C 0.72645 0.51787 0.89153 0.0
C451 C 0.7876 0.54908 0.90145 0.0
C452 C 0.77689 0.58366 0.88612 0.0
C453 C 0.71727 0.35346 0.92681 0.0
N454 N 0.6903 0.34489 0.9183 0.0
C455 C 0.73798 0.3329 0.9277 0.0
C456 C 0.73101 0.30347 0.91979 0.0
C457 C 0.70352 0.29495 0.91113 0.0
C458 C 0.68334 0.31611 0.9105 0.0
C459 C 0.56577 0.26113 0.92274 0.0
C460 C 0.58633 0.32265 0.90753 0.0
C461 C 0.60225 0.29615 0.92351 0.0
N462 N 0.61219 0.32623 0.91591 0.0
C463 C 0.54958 0.28808 0.90651 0.0
C464 C 0.53933 0.25713 0.91417 0.0
C465 C 0.64405 0.44024 0.91298 0.0
C466 C 0.78045 0.51651 0.94124 0.0
C467 C 0.73808 0.53044 0.92479 0.0
C468 C 0.74855 0.55241 0.93485 0.0
C469 C 0.76981 0.54528 0.94313 0.0
N470 N 0.74857 0.50223 0.92301 0.0
C471 C 0.76955 0.49519 0.93107 0.0
Co472 Co 0.27933 0.67295 0.24693 0.0
Co473 Co 0.25013 0.73874 0.23771 0.0
O474 O 0.28202 0.72426 0.24712 0.0
C475 C 0.26 0.68351 0.27028 0.0
O476 O 0.23573 0.6937 0.26568 0.0
C477 C 0.33254 0.79634 0.23191 0.0
O478 O 0.33838 0.76607 0.23104 0.0
O479 O 0.26085 0.71601 0.22392 0.0
O480 O 0.27844 0.67216 0.22997 0.0
H481 H 0.14694 0.71597 0.20846 0.0
H482 H 0.34235 0.73971 0.26009 0.0
O483 O 0.27995 0.67324 0.26398 0.0
H484 H 0.41269 0.70402 0.23181 0.0
H485 H 0.31622 0.57334 0.26069 0.0
H486 H 0.23459 0.59865 0.23368 0.0
H487 H 0.33971 0.66666 0.2329 0.0
H488 H 0.31906 0.63807 0.26042 0.0
O489 O 0.29838 0.79085 0.23444 0.0
H490 H 0.18677 0.69735 0.22056 0.0
H491 H 0.24732 0.81323 0.23464 0.0
H492 H 0.23104 0.53362 0.2336 0.0
H493 H 0.41536 0.77775 0.25933 0.0
H494 H 0.27207 0.52065 0.24717 0.0
H495 H 0.451 0.76004 0.24509 0.0
O496 O 0.22034 0.64405 0.24712 0.0
H497 H 0.28744 0.81866 0.27375 0.0
H498 H 0.17754 0.73293 0.24809 0.0
H499 H 0.16349 0.75869 0.26557 0.0
H500 H 0.2187 0.80188 0.27855 0.0
H501 H 0.30007 0.79196 0.25623 0.0
H502 H 0.20839 0.83322 0.22262 0.0
H503 H 0.15766 0.78435 0.20945 0.0
O504 O 0.20167 0.68689 0.24086 0.0
C505 C 0.27107 0.69007 0.22209 0.0
C506 C 0.16886 0.73748 0.21419 0.0
C507 C 0.20339 0.80331 0.22213 0.0
N508 N 0.21906 0.75407 0.22836 0.0
C509 C 0.1914 0.72708 0.22109 0.0
C510 C 0.22539 0.79186 0.22889 0.0
C511 C 0.17492 0.77587 0.21475 0.0
C512 C 0.35766 0.73152 0.25396 0.0
N513 N 0.3368 0.70083 0.2466 0.0
C514 C 0.399 0.75328 0.25354 0.0
C515 C 0.41898 0.74338 0.24553 0.0
C516 C 0.3975 0.71195 0.23808 0.0
C517 C 0.35618 0.69092 0.23873 0.0
C518 C 0.29825 0.57866 0.25472 0.0
C519 C 0.2527 0.59329 0.23957 0.0
C520 C 0.29968 0.6152 0.25455 0.0
N521 N 0.27722 0.62217 0.24699 0.0
C522 C 0.25049 0.55638 0.2395 0.0
C523 C 0.27348 0.54911 0.24713 0.0
C524 C 0.19393 0.65279 0.24439 0.0
C525 C 0.26314 0.79993 0.26815 0.0
C526 C 0.20167 0.75159 0.25371 0.0
C527 C 0.19357 0.76619 0.26358 0.0
C528 C 0.22456 0.79045 0.27085 0.0
N529 N 0.23956 0.76092 0.25114 0.0
C530 C 0.27013 0.78484 0.2582 0.0
Co531 Co 0.61522 0.28272 0.58353 0.0
Co532 Co 0.52053 0.25579 0.57456 0.0
O533 O 0.56755 0.28715 0.58381 0.0
C534 C 0.58584 0.26478 0.60694 0.0
O535 O 0.55106 0.24131 0.60239 0.0
C536 C 0.54786 0.33869 0.56866 0.0
O537 O 0.58371 0.34368 0.56819 0.0
O538 O 0.55319 0.26468 0.56072 0.0
O539 O 0.61454 0.28122 0.56655 0.0
H540 H 0.43704 0.15204 0.54577 0.0
H541 H 0.61452 0.34747 0.59664 0.0
O542 O 0.61609 0.28389 0.60059 0.0
H543 H 0.72059 0.41423 0.56815 0.0
H544 H 0.75086 0.3156 0.59699 0.0
H545 H 0.64199 0.2355 0.57035 0.0
H546 H 0.6824 0.34125 0.56929 0.0
H547 H 0.69034 0.32087 0.59682 0.0
O548 O 0.51835 0.30484 0.57103 0.0
H549 H 0.49617 0.19114 0.55769 0.0
H550 H 0.44444 0.25543 0.57153 0.0
H551 H 0.70207 0.2295 0.57018 0.0
H552 H 0.65217 0.42052 0.59585 0.0
H553 H 0.75705 0.26975 0.58357 0.0
H554 H 0.70553 0.45437 0.5815 0.0
O555 O 0.58356 0.22383 0.58392 0.0
H556 H 0.48074 0.2972 0.61037 0.0
H557 H 0.45328 0.18468 0.58537 0.0
H558 H 0.41415 0.17274 0.6029 0.0
H559 H 0.42783 0.22926 0.61554 0.0
H560 H 0.51933 0.30774 0.59279 0.0
H561 H 0.38486 0.21725 0.5597 0.0
H562 H 0.38085 0.16502 0.54674 0.0
O563 O 0.52224 0.20653 0.57788 0.0
C564 C 0.58897 0.27384 0.55875 0.0
C565 C 0.43837 0.17461 0.55142 0.0
C566 C 0.40911 0.21126 0.55922 0.0
N567 N 0.47357 0.22526 0.56537 0.0
C568 C 0.47171 0.19675 0.55821 0.0
C569 C 0.44293 0.23282 0.56589 0.0
C570 C 0.40687 0.18195 0.55195 0.0
C571 C 0.638 0.36199 0.59045 0.0
N572 N 0.64641 0.34013 0.58306 0.0
C573 C 0.6591 0.40336 0.59002 0.0
C574 C 0.68899 0.42233 0.58195 0.0
C575 C 0.69744 0.39983 0.57445 0.0
C576 C 0.67568 0.35851 0.57513 0.0
C577 C 0.72715 0.29797 0.5911 0.0
C578 C 0.6659 0.2533 0.57615 0.0
C579 C 0.6928 0.30078 0.59098 0.0
N580 N 0.66284 0.27875 0.58352 0.0
C581 C 0.69979 0.24968 0.57604 0.0
C582 C 0.7306 0.27224 0.58356 0.0
C583 C 0.54802 0.19795 0.58137 0.0
C584 C 0.47443 0.27234 0.60491 0.0
C585 C 0.45941 0.2094 0.59083 0.0
C586 C 0.43711 0.20248 0.60073 0.0
C587 C 0.44479 0.23421 0.60782 0.0
N588 N 0.48845 0.24688 0.58804 0.0
C589 C 0.49607 0.27816 0.59493 0.0
Co590 Co 0.31859 0.61098 0.91416 0.0
Co591 Co 0.25645 0.51639 0.90399 0.0
O592 O 0.26855 0.561 0.91393 0.0
C593 C 0.30851 0.5788 0.93722 0.0
O594 O 0.29994 0.54517 0.93233 0.0
C595 C 0.19593 0.53771 0.89875 0.0
O596 O 0.22502 0.57451 0.89804 0.0
O597 O 0.27803 0.55183 0.89055 0.0
O598 O 0.32015 0.61294 0.8972 0.0
H599 H 0.28481 0.44342 0.87358 0.0
H600 H 0.24976 0.60215 0.92736 0.0
O601 O 0.31761 0.60935 0.93119 0.0
H602 H 0.28205 0.7108 0.90028 0.0
H603 H 0.41295 0.74732 0.92918 0.0
H604 H 0.39382 0.64499 0.90118 0.0
H605 H 0.32212 0.6779 0.90087 0.0
H606 H 0.34982 0.68388 0.92834 0.0
O607 O 0.20317 0.50997 0.90098 0.0
H608 H 0.30039 0.49967 0.88632 0.0
H609 H 0.18451 0.43746 0.90033 0.0
H610 H 0.4573 0.70812 0.90166 0.0
H611 H 0.20895 0.63426 0.92707 0.0
H612 H 0.46716 0.7598 0.91574 0.0
H613 H 0.22496 0.68893 0.91343 0.0
O614 O 0.34975 0.58316 0.91401 0.0
H615 H 0.1764 0.46574 0.93984 0.0
H616 H 0.26665 0.45104 0.91351 0.0
H617 H 0.24247 0.40884 0.9306 0.0
H618 H 0.197 0.41608 0.94391 0.0
H619 H 0.2016 0.50757 0.92271 0.0
H620 H 0.16755 0.38065 0.88767 0.0
H621 H 0.21796 0.38337 0.87421 0.0
O622 O 0.30946 0.52235 0.90687 0.0
C623 C 0.30312 0.58849 0.88907 0.0
C624 C 0.26264 0.44183 0.87943 0.0
C625 C 0.1968 0.40662 0.88734 0.0
N626 N 0.2435 0.47168 0.89412 0.0
C627 C 0.27133 0.47353 0.88669 0.0
C628 C 0.20655 0.43889 0.89446 0.0
C629 C 0.22511 0.40816 0.87978 0.0
C630 C 0.25718 0.62622 0.92149 0.0
N631 N 0.28845 0.63832 0.9142 0.0
C632 C 0.23386 0.64417 0.92133 0.0
C633 C 0.24282 0.67479 0.91366 0.0
C634 C 0.27483 0.68706 0.90628 0.0
C635 C 0.29741 0.66832 0.90665 0.0
C636 C 0.40898 0.72506 0.92299 0.0
C637 C 0.39781 0.66746 0.90728 0.0
C638 C 0.37334 0.68907 0.92249 0.0
N639 N 0.36808 0.66093 0.91466 0.0
C640 C 0.43385 0.70308 0.90753 0.0
C641 C 0.43938 0.73205 0.91544 0.0
C642 C 0.34282 0.54905 0.91073 0.0
C643 C 0.19612 0.46224 0.9341 0.0
C644 C 0.24697 0.45442 0.91927 0.0
C645 C 0.23328 0.43037 0.92892 0.0
C646 C 0.20774 0.43443 0.93638 0.0
N647 N 0.23552 0.4817 0.9171 0.0
C648 C 0.21036 0.48573 0.92435 0.0
Co649 Co 0.69884 0.3262 0.24928 0.0
Co650 Co 0.73016 0.26196 0.24017 0.0
O651 O 0.69909 0.27624 0.25003 0.0
C652 C 0.72472 0.32205 0.27235 0.0
O653 O 0.74965 0.31333 0.26745 0.0
C654 C 0.64791 0.19898 0.23671 0.0
O655 O 0.63915 0.22731 0.23584 0.0
O656 O 0.71283 0.27895 0.22649 0.0
O657 O 0.696 0.32361 0.2323 0.0
H658 H 0.82466 0.28329 0.2083 0.0
H659 H 0.64085 0.26097 0.26397 0.0
O660 O 0.70193 0.32927 0.26629 0.0
H661 H 0.56062 0.28657 0.23652 0.0
H662 H 0.65842 0.42366 0.26258 0.0
H663 H 0.73782 0.39809 0.2348 0.0
H664 H 0.6336 0.32619 0.23605 0.0
H665 H 0.65905 0.36064 0.26295 0.0
O666 O 0.68352 0.20747 0.23851 0.0
H667 H 0.78617 0.30142 0.22112 0.0
H668 H 0.73869 0.19033 0.23791 0.0
H669 H 0.7378 0.46137 0.23405 0.0
H670 H 0.56795 0.22085 0.2648 0.0
H671 H 0.69788 0.47447 0.24802 0.0
H672 H 0.52734 0.23347 0.25098 0.0
O673 O 0.75775 0.35756 0.2484 0.0
H674 H 0.70991 0.19262 0.27766 0.0
H675 H 0.80831 0.27686 0.24891 0.0
H676 H 0.83062 0.25823 0.26627 0.0
H677 H 0.78124 0.21583 0.28079 0.0
H678 H 0.68893 0.21218 0.26021 0.0
H679 H 0.77653 0.17088 0.22522 0.0
H680 H 0.81998 0.2176 0.21032 0.0
O681 O 0.7771 0.31603 0.24158 0.0
C682 C 0.70134 0.30382 0.22454 0.0
C683 C 0.80596 0.26274 0.2148 0.0
C684 C 0.77889 0.19963 0.22429 0.0
N685 N 0.76052 0.2471 0.23033 0.0
C686 C 0.78418 0.27288 0.2221 0.0
C687 C 0.75751 0.21077 0.23143 0.0
C688 C 0.80328 0.22586 0.21592 0.0
C689 C 0.62337 0.26692 0.25801 0.0
N690 N 0.64145 0.29604 0.25002 0.0
C691 C 0.58211 0.24399 0.25849 0.0
C692 C 0.55934 0.25104 0.25072 0.0
C693 C 0.578 0.28082 0.2426 0.0
C694 C 0.61933 0.30312 0.24236 0.0
C695 C 0.67586 0.41826 0.25643 0.0
C696 C 0.72017 0.40348 0.24085 0.0
C697 C 0.67639 0.38268 0.25662 0.0
N698 N 0.69818 0.3756 0.24884 0.0
C699 C 0.72037 0.43941 0.24041 0.0
C700 C 0.698 0.44675 0.24826 0.0
C701 C 0.78437 0.35016 0.24491 0.0
C702 C 0.73169 0.211 0.27138 0.0
C703 C 0.78665 0.2584 0.25519 0.0
C704 C 0.79945 0.2479 0.265 0.0
C705 C 0.77173 0.22409 0.27314 0.0
N706 N 0.74733 0.24546 0.25353 0.0
C707 C 0.71997 0.22202 0.26146 0.0
H708 H 0.33372 0.64479 0.95048 0.0
H709 H 0.3278 0.64734 0.97114 0.0
H710 H 0.27094 0.51986 0.97278 0.0
H711 H 0.27673 0.51695 0.95215 0.0
H712 H 0.23173 0.55081 0.98522 0.0
H713 H 0.3643 0.57302 0.9805 0.0
H714 H 0.43223 0.6069 0.97279 0.0
H715 H 0.45387 0.71639 0.98784 0.0
H716 H 0.38582 0.68324 0.99552 0.0
H717 H 0.24178 0.51775 0.04366 0.0
H718 H 0.24775 0.5208 0.02301 0.0
H719 H 0.31593 0.64851 0.02454 0.0
H720 H 0.31089 0.64568 0.0453 0.0
H721 H 0.34915 0.62127 0.0103 0.0
H722 H 0.21858 0.59994 0.01575 0.0
H723 H 0.15055 0.56744 0.02337 0.0
H724 H 0.12451 0.45872 0.00687 0.0
H725 H 0.19258 0.49042 -0.00073 0.0
C726 C 0.32005 0.61731 0.95524 0.0
C727 C 0.30583 0.58068 0.9497 0.0
C728 C 0.31678 0.61884 0.96704 0.0
C729 C 0.29912 0.58379 0.97346 0.0
C730 C 0.28467 0.54721 0.96795 0.0
C731 C 0.2882 0.54565 0.95618 0.0
C732 C 0.29539 0.58513 0.98594 0.0
C733 C 0.25737 0.56583 0.99074 0.0
C734 C 0.32887 0.60583 0.99305 0.0
C735 C 0.36983 0.62575 0.98848 0.0
C736 C 0.38342 0.60439 0.98208 0.0
C737 C 0.42197 0.62345 0.97774 0.0
C738 C 0.44732 0.6638 0.9798 0.0
C739 C 0.43419 0.68515 0.98624 0.0
C740 C 0.39564 0.66624 0.99059 0.0
C741 C 0.25784 0.54653 0.03962 0.0
C742 C 0.27569 0.5815 0.04611 0.0
C743 C 0.26111 0.54823 0.0278 0.0
C744 C 0.28178 0.58491 0.02222 0.0
C745 C 0.29975 0.61989 0.02868 0.0
C746 C 0.29676 0.61822 0.04052 0.0
C747 C 0.2854 0.58654 0.00965 0.0
C748 C 0.32342 0.60644 0.00482 0.0
C749 C 0.25186 0.56664 0.0025 0.0
C750 C 0.21081 0.54749 0.00702 0.0
C751 C 0.19844 0.56902 0.01381 0.0
C752 C 0.15985 0.55075 0.01812 0.0
C753 C 0.13325 0.51102 0.01563 0.0
C754 C 0.14516 0.48949 0.0088 0.0
C755 C 0.18373 0.50761 0.00448 0.0
H756 H 0.10339 0.49693 0.01897 0.0
H757 H 0.47716 0.6785 0.97642 0.0
H758 H 0.65722 0.31257 0.38076 0.0
H759 H 0.6631 0.32397 0.36018 0.0
H760 H 0.72685 0.26029 0.35731 0.0
H761 H 0.72088 0.24847 0.3778 0.0
H762 H 0.76293 0.33409 0.34589 0.0
H763 H 0.63495 0.21553 0.34941 0.0
H764 H 0.5669 0.17567 0.3568 0.0
H765 H 0.53653 0.2588 0.34279 0.0
H766 H 0.60462 0.2995 0.33546 0.0
H767 H 0.75982 0.29612 0.28743 0.0
H768 H 0.7528 0.29201 0.30804 0.0
H769 H 0.67575 0.34172 0.3063 0.0
H770 H 0.68189 0.34509 0.28555 0.0
H771 H 0.64613 0.28042 0.32033 0.0
H772 H 0.77177 0.39718 0.31574 0.0
H773 H 0.83974 0.43849 0.30845 0.0
H774 H 0.87498 0.36211 0.32459 0.0
H775 H 0.80706 0.31997 0.33185 0.0
C776 C 0.67235 0.30088 0.37573 0.0
C777 C 0.68847 0.27951 0.38088 0.0
C778 C 0.67562 0.30737 0.364 0.0
C779 C 0.69532 0.29287 0.35727 0.0
C780 C 0.71157 0.27171 0.36239 0.0
C781 C 0.70793 0.26482 0.37408 0.0
C782 C 0.69933 0.29991 0.34487 0.0
C783 C 0.73748 0.3221 0.34027 0.0
C784 C 0.66596 0.2853 0.33764 0.0
C785 C 0.625 0.2608 0.34201 0.0
C786 C 0.61387 0.22551 0.348 0.0
C787 C 0.57527 0.20272 0.35216 0.0
C788 C 0.54744 0.21476 0.3503 0.0
C789 C 0.55813 0.24955 0.34424 0.0
C790 C 0.59672 0.27248 0.34008 0.0
C791 C 0.74161 0.30649 0.29142 0.0
C792 C 0.72159 0.32116 0.28487 0.0
C793 C 0.73773 0.30424 0.30322 0.0
C794 C 0.71424 0.31713 0.30873 0.0
C795 C 0.69414 0.33174 0.30222 0.0
C796 C 0.69777 0.33374 0.29038 0.0
C797 C 0.7099 0.31419 0.32127 0.0
C798 C 0.67167 0.2928 0.32592 0.0
C799 C 0.74323 0.32987 0.32857 0.0
C800 C 0.78421 0.35523 0.32427 0.0
C801 C 0.79393 0.38901 0.31767 0.0
C802 C 0.83247 0.41261 0.31355 0.0
C803 C 0.86164 0.40289 0.31604 0.0
C804 C 0.85235 0.36959 0.32267 0.0
C805 C 0.81384 0.34586 0.3268 0.0
H806 H 0.89146 0.42119 0.31284 0.0
H807 H 0.51757 0.19707 0.35352 0.0
H808 H 0.34785 0.67985 0.71254 0.0
H809 H 0.34307 0.68122 0.69183 0.0
H810 H 0.45755 0.69023 0.68861 0.0
H811 H 0.46267 0.68892 0.7093 0.0
H812 H 0.39277 0.74063 0.67724 0.0
H813 H 0.45537 0.6391 0.66449 0.0
H814 H 0.45768 0.58114 0.67198 0.0
H815 H 0.35041 0.54533 0.6907 0.0
H816 H 0.34714 0.60273 0.6832 0.0
H817 H 0.46596 0.7721 0.62075 0.0
H818 H 0.45816 0.76115 0.64128 0.0
H819 H 0.3504 0.65003 0.63588 0.0
H820 H 0.35775 0.66083 0.61529 0.0
H821 H 0.40307 0.64535 0.65144 0.0
H822 H 0.34176 0.72395 0.64461 0.0
H823 H 0.33764 0.78108 0.63726 0.0
H824 H 0.4372 0.86 0.65783 0.0
H825 H 0.44234 0.80343 0.66516 0.0
C826 C 0.37191 0.68185 0.70743 0.0
C827 C 0.40565 0.68428 0.71255 0.0
C828 C 0.36915 0.68274 0.69561 0.0
C829 C 0.39983 0.68558 0.68872 0.0
C830 C 0.43336 0.68758 0.69379 0.0
C831 C 0.43629 0.68698 0.70561 0.0
C832 C 0.3975 0.68794 0.67622 0.0
C833 C 0.39487 0.71973 0.67159 0.0
C834 C 0.39982 0.66037 0.66889 0.0
C835 C 0.4012 0.62542 0.67334 0.0
C836 C 0.43217 0.61875 0.67016 0.0
C837 C 0.43365 0.586 0.67441 0.0
C838 C 0.40421 0.55958 0.68181 0.0
C839 C 0.37323 0.56585 0.68498 0.0
C840 C 0.37158 0.59853 0.68074 0.0
C841 C 0.44053 0.74537 0.62392 0.0
C842 C 0.41238 0.71739 0.61641 0.0
C843 C 0.4361 0.73922 0.63564 0.0
C844 C 0.40361 0.7049 0.64006 0.0
C845 C 0.37564 0.67671 0.63261 0.0
C846 C 0.3798 0.68303 0.62087 0.0
C847 C 0.39916 0.69849 0.65248 0.0
C848 C 0.40068 0.66606 0.65709 0.0
C849 C 0.3956 0.72535 0.6598 0.0
C850 C 0.39262 0.75945 0.65537 0.0
C851 C 0.36301 0.75352 0.64749 0.0
C852 C 0.36045 0.7858 0.64334 0.0
C853 C 0.38717 0.82414 0.64707 0.0
C854 C 0.41653 0.83029 0.65495 0.0
C855 C 0.41926 0.79812 0.65911 0.0
H856 H 0.38506 0.84908 0.6439 0.0
H857 H 0.40541 0.53424 0.6851 0.0
H858 H 0.76388 0.46128 0.04339 0.0
H859 H 0.7457 0.45517 0.02334 0.0
H860 H 0.67206 0.32862 0.0272 0.0
H861 H 0.68988 0.33438 0.04739 0.0
H862 H 0.7218 0.35504 0.00691 0.0
H863 H 0.62626 0.37597 0.02693 0.0
H864 H 0.6064 0.41024 0.04082 0.0
H865 H 0.67 0.5185 0.02189 0.0
H866 H 0.69076 0.48501 0.00797 0.0
H867 H 0.63426 0.33484 0.95292 0.0
H868 H 0.6394 0.32941 0.97349 0.0
H869 H 0.69971 0.45685 0.97644 0.0
H870 H 0.69374 0.4625 0.95597 0.0
H871 H 0.6503 0.42344 0.99382 0.0
H872 H 0.75063 0.40653 0.97498 0.0
H873 H 0.77475 0.37554 0.96125 0.0
H874 H 0.70682 0.26336 0.97804 0.0
H875 H 0.68172 0.29356 0.99176 0.0
C876 C 0.74415 0.43205 0.03997 0.0
C877 C 0.72818 0.3983 0.04697 0.0
C878 C 0.73371 0.42867 0.02853 0.0
C879 C 0.70731 0.39151 0.02387 0.0
C880 C 0.69244 0.35753 0.03069 0.0
C881 C 0.70256 0.36091 0.0422 0.0
C882 C 0.69428 0.38873 0.01196 0.0
C883 C 0.70549 0.36928 0.00405 0.0
C884 C 0.67375 0.40809 0.00829 0.0
C885 C 0.66028 0.42802 0.01644 0.0
C886 C 0.63618 0.40713 0.02576 0.0
C887 C 0.62475 0.42641 0.03364 0.0
C888 C 0.637 0.46654 0.03225 0.0
C889 C 0.66055 0.48741 0.02295 0.0
C890 C 0.6721 0.46828 0.01505 0.0
C891 C 0.6482 0.36167 0.95797 0.0
C892 C 0.66388 0.39911 0.95282 0.0
C893 C 0.65119 0.35853 0.96971 0.0
C894 C 0.67052 0.39276 0.97646 0.0
C895 C 0.68469 0.43006 0.9714 0.0
C896 C 0.68136 0.43322 0.95968 0.0
C897 C 0.67817 0.39007 0.98867 0.0
C898 C 0.66606 0.40862 0.99667 0.0
C899 C 0.69825 0.37022 0.99241 0.0
C900 C 0.71397 0.3522 0.98432 0.0
C901 C 0.74065 0.3752 0.9757 0.0
C902 C 0.7545 0.35779 0.96792 0.0
C903 C 0.74224 0.31749 0.96875 0.0
C904 C 0.71623 0.29456 0.9774 0.0
C905 C 0.70218 0.3118 0.98518 0.0
H906 H 0.75296 0.30405 0.96272 0.0
H907 H 0.62819 0.48144 0.03837 0.0
H908 H 0.30005 0.65617 0.28306 0.0
H909 H 0.31089 0.66256 0.30365 0.0
H910 H 0.24432 0.72349 0.30612 0.0
H911 H 0.2333 0.71726 0.2856 0.0
H912 H 0.31602 0.76155 0.31765 0.0
H913 H 0.20256 0.63007 0.31425 0.0
H914 H 0.16598 0.56154 0.30701 0.0
H915 H 0.2534 0.5379 0.32134 0.0
H916 H 0.29083 0.60653 0.32854 0.0
H917 H 0.2789 0.75859 0.37609 0.0
H918 H 0.27277 0.74907 0.35556 0.0
H919 H 0.33125 0.67998 0.35736 0.0
H920 H 0.33682 0.6887 0.37803 0.0
H921 H 0.26869 0.64582 0.34347 0.0
H922 H 0.38067 0.77538 0.34775 0.0
H923 H 0.4184 0.84392 0.35493 0.0
H924 H 0.3364 0.87167 0.3388 0.0
H925 H 0.29783 0.8031 0.33165 0.0
C926 C 0.2876 0.67079 0.288 0.0
C927 C 0.26571 0.6861 0.28272 0.0
C928 C 0.29374 0.67432 0.29975 0.0
C929 C 0.27824 0.69334 0.30638 0.0
C930 C 0.2565 0.70871 0.30113 0.0
C931 C 0.25008 0.70494 0.28942 0.0
C932 C 0.2851 0.69787 0.31879 0.0
C933 C 0.30536 0.73628 0.32333 0.0
C934 C 0.27227 0.66485 0.3261 0.0
C935 C 0.24972 0.62356 0.32182 0.0
C936 C 0.21417 0.61037 0.31577 0.0
C937 C 0.19324 0.57149 0.31169 0.0
C938 C 0.20742 0.54542 0.31368 0.0
C939 C 0.24249 0.55815 0.31979 0.0
C940 C 0.26356 0.59702 0.32388 0.0
C941 C 0.29063 0.74148 0.37213 0.0
C942 C 0.30865 0.72467 0.37867 0.0
C943 C 0.28718 0.73616 0.36038 0.0
C944 C 0.30215 0.71438 0.35491 0.0
C945 C 0.31966 0.69704 0.36142 0.0
C946 C 0.3229 0.70214 0.37322 0.0
C947 C 0.29909 0.70958 0.34238 0.0
C948 C 0.27965 0.67115 0.33781 0.0
C949 C 0.31293 0.74262 0.33501 0.0
C950 C 0.33618 0.78398 0.33924 0.0
C951 C 0.37052 0.79601 0.3458 0.0
C952 C 0.39208 0.83488 0.34985 0.0
C953 C 0.37976 0.86211 0.34734 0.0
C954 C 0.34589 0.85054 0.34074 0.0
C955 C 0.3242 0.81168 0.33668 0.0
H956 H 0.39649 0.89219 0.35049 0.0
H957 H 0.19117 0.51532 0.31052 0.0
H958 H 0.65024 0.34473 0.71495 0.0
H959 H 0.65602 0.33596 0.69454 0.0
H960 H 0.52877 0.27566 0.69133 0.0
H961 H 0.52267 0.28427 0.71165 0.0
H962 H 0.56286 0.23619 0.68067 0.0
H963 H 0.58174 0.36865 0.68283 0.0
H964 H 0.6142 0.43778 0.68961 0.0
H965 H 0.72528 0.45877 0.67597 0.0
H966 H 0.69356 0.38954 0.66924 0.0
H967 H 0.52591 0.23648 0.62244 0.0
H968 H 0.53109 0.24621 0.64295 0.0
H969 H 0.65849 0.31459 0.64027 0.0
H970 H 0.65353 0.30564 0.6196 0.0
H971 H 0.63169 0.34987 0.65419 0.0
H972 H 0.61298 0.21997 0.65059 0.0
H973 H 0.58175 0.15092 0.64382 0.0
H974 H 0.47289 0.12451 0.66028 0.0
H975 H 0.50329 0.19358 0.66702 0.0
C976 C 0.62352 0.32971 0.70988 0.0
C977 C 0.58601 0.31535 0.71489 0.0
C978 C 0.62689 0.3248 0.69824 0.0
C979 C 0.59282 0.30531 0.69146 0.0
C980 C 0.55539 0.29077 0.69644 0.0
C981 C 0.552 0.29592 0.70804 0.0
C982 C 0.59587 0.29976 0.67914 0.0
C983 C 0.57762 0.261 0.67485 0.0
C984 C 0.61634 0.33218 0.67165 0.0
C985 C 0.63538 0.3738 0.67566 0.0
C986 C 0.61317 0.3879 0.68137 0.0
C987 C 0.63141 0.42712 0.68518 0.0
C988 C 0.67181 0.45261 0.68325 0.0
C989 C 0.69401 0.43897 0.67747 0.0
C990 C 0.67591 0.39975 0.67366 0.0
C991 C 0.5551 0.25339 0.62619 0.0
C992 C 0.58935 0.27007 0.6194 0.0
C993 C 0.558 0.25882 0.63794 0.0
C994 C 0.59521 0.28057 0.64316 0.0
C995 C 0.6295 0.29754 0.63641 0.0
C996 C 0.62662 0.29232 0.62461 0.0
C997 C 0.59791 0.28622 0.65566 0.0
C998 C 0.6173 0.32498 0.66 0.0
C999 C 0.57874 0.25375 0.66322 0.0
C1000 C 0.56036 0.21207 0.65924 0.0
C1001 C 0.5823 0.19952 0.6527 0.0
C1002 C 0.56475 0.16036 0.64888 0.0
C1003 C 0.52534 0.13336 0.6516 0.0
C1004 C 0.50342 0.14546 0.65817 0.0
C1005 C 0.5208 0.18461 0.66201 0.0
H1006 H 0.51181 0.10306 0.64863 0.0
H1007 H 0.68588 0.48297 0.68621 0.0
H1008 H 0.28408 0.63132 0.21428 0.0
H1009 H 0.2927 0.61717 0.19462 0.0
H1010 H 0.27831 0.7145 0.18322 0.0
H1011 H 0.26866 0.72835 0.20284 0.0
H1012 H 0.23758 0.65184 0.1701 0.0
H1013 H 0.37008 0.72207 0.18461 0.0
H1014 H 0.42376 0.73583 0.19815 0.0
H1015 H 0.41163 0.62219 0.19099 0.0
H1016 H 0.35739 0.60746 0.17754 0.0
H1017 H 0.30512 0.65929 0.11415 0.0
H1018 H 0.30696 0.67986 0.13385 0.0
H1019 H 0.3023 0.57269 0.14552 0.0
H1020 H 0.30028 0.55158 0.12585 0.0
H1021 H 0.35494 0.64245 0.15828 0.0
H1022 H 0.22111 0.57202 0.14428 0.0
H1023 H 0.16945 0.55947 0.13021 0.0
H1024 H 0.18492 0.67505 0.13641 0.0
H1025 H 0.23779 0.68879 0.15029 0.0
C1026 C 0.28273 0.64977 0.20761 0.0
C1027 C 0.27581 0.68109 0.21016 0.0
C1028 C 0.28786 0.64173 0.19637 0.0
C1029 C 0.28677 0.66518 0.18747 0.0
C1030 C 0.27937 0.69611 0.18996 0.0
C1031 C 0.27392 0.704 0.20119 0.0
C1032 C 0.29286 0.65712 0.17554 0.0
C1033 C 0.26356 0.65042 0.1675 0.0
C1034 C 0.3264 0.65451 0.17218 0.0
C1035 C 0.35942 0.66352 0.18014 0.0
C1036 C 0.37867 0.6999 0.18598 0.0
C1037 C 0.40922 0.70788 0.19363 0.0
C1038 C 0.42104 0.67986 0.19544 0.0
C1039 C 0.40241 0.64385 0.18958 0.0
C1040 C 0.37179 0.63568 0.18194 0.0
C1041 C 0.30499 0.64024 0.12088 0.0
C1042 C 0.30201 0.6035 0.11841 0.0
C1043 C 0.30611 0.65212 0.13213 0.0
C1044 C 0.30443 0.6276 0.1411 0.0
C1045 C 0.30366 0.59198 0.13869 0.0
C1046 C 0.30223 0.57989 0.12744 0.0
C1047 C 0.29978 0.63736 0.15293 0.0
C1048 C 0.32919 0.6442 0.16092 0.0
C1049 C 0.26644 0.64025 0.15626 0.0
C1050 C 0.2337 0.63159 0.14823 0.0
C1051 C 0.21371 0.59488 0.14259 0.0
C1052 C 0.18419 0.58755 0.13464 0.0
C1053 C 0.17383 0.61644 0.13241 0.0
C1054 C 0.19299 0.65271 0.13814 0.0
C1055 C 0.22281 0.66032 0.14604 0.0
H1056 H 0.15096 0.61071 0.12625 0.0
H1057 H 0.44468 0.68609 0.20138 0.0
H1058 H 0.74498 0.29959 0.45987 0.0
H1059 H 0.72911 0.30177 0.47984 0.0
H1060 H 0.61343 0.28126 0.47026 0.0
H1061 H 0.62981 0.28086 0.45023 0.0
H1062 H 0.64022 0.3317 0.4868 0.0
H1063 H 0.62985 0.20575 0.47998 0.0
H1064 H 0.65328 0.16096 0.47334 0.0
H1065 H 0.7476 0.21062 0.49781 0.0
H1066 H 0.72515 0.25625 0.50447 0.0
H1067 H 0.54363 0.25955 0.53967 0.0
H1068 H 0.56429 0.26432 0.5199 0.0
H1069 H 0.683 0.29896 0.53071 0.0
H1070 H 0.6626 0.29379 0.55058 0.0
H1071 H 0.65626 0.24284 0.5138 0.0
H1072 H 0.66064 0.36756 0.5209 0.0
H1073 H 0.63204 0.4085 0.52709 0.0
H1074 H 0.54152 0.35472 0.50161 0.0
H1075 H 0.56919 0.31309 0.49537 0.0
C1076 C 0.71624 0.29579 0.46202 0.0
C1077 C 0.68846 0.28963 0.45349 0.0
C1078 C 0.70715 0.29688 0.47344 0.0
C1079 C 0.66972 0.29073 0.47657 0.0
C1080 C 0.64243 0.2859 0.46805 0.0
C1081 C 0.6518 0.28558 0.4566 0.0
C1082 C 0.65859 0.28824 0.48873 0.0
C1083 C 0.64338 0.31198 0.49267 0.0
C1084 C 0.66306 0.26278 0.49644 0.0
C1085 C 0.67604 0.23469 0.49265 0.0
C1086 C 0.65571 0.20726 0.48391 0.0
C1087 C 0.66882 0.18174 0.48014 0.0
C1088 C 0.70197 0.18302 0.48513 0.0
C1089 C 0.72196 0.20971 0.49394 0.0
C1090 C 0.70906 0.23541 0.49772 0.0
C1091 C 0.57419 0.26825 0.53788 0.0
C1092 C 0.60151 0.27655 0.54675 0.0
C1093 C 0.58595 0.27107 0.52656 0.0
C1094 C 0.62529 0.28253 0.52385 0.0
C1095 C 0.65252 0.29023 0.53264 0.0
C1096 C 0.6408 0.28737 0.54399 0.0
C1097 C 0.63792 0.28628 0.51183 0.0
C1098 C 0.65335 0.26271 0.50793 0.0
C1099 C 0.63289 0.31128 0.5041 0.0
C1100 C 0.61682 0.33699 0.50773 0.0
C1101 C 0.63451 0.36433 0.51666 0.0
C1102 C 0.61848 0.38767 0.52017 0.0
C1103 C 0.58492 0.38411 0.51476 0.0
C1104 C 0.56747 0.3574 0.50579 0.0
C1105 C 0.58334 0.33397 0.50226 0.0
H1106 H 0.57239 0.40201 0.5175 0.0
H1107 H 0.71211 0.16328 0.48218 0.0
H1108 H 0.43951 0.75273 0.79142 0.0
H1109 H 0.41992 0.73803 0.81132 0.0
H1110 H 0.31907 0.62617 0.80159 0.0
H1111 H 0.33766 0.64122 0.78161 0.0
H1112 H 0.29992 0.65848 0.81859 0.0
H1113 H 0.40647 0.63324 0.81045 0.0
H1114 H 0.47297 0.65105 0.80342 0.0
H1115 H 0.52615 0.74333 0.82845 0.0
H1116 H 0.4599 0.72654 0.8355 0.0
H1117 H 0.26766 0.54892 0.86944 0.0
H1118 H 0.28366 0.57379 0.85 0.0
H1119 H 0.37579 0.68675 0.86244 0.0
H1120 H 0.36016 0.66225 0.88196 0.0
H1121 H 0.40015 0.65798 0.84452 0.0
H1122 H 0.29227 0.67934 0.8534 0.0
H1123 H 0.22527 0.66032 0.86024 0.0
H1124 H 0.17401 0.57308 0.83379 0.0
H1125 H 0.24075 0.59115 0.82689 0.0
C1126 C 0.41294 0.72515 0.79349 0.0
C1127 C 0.39045 0.69786 0.78495 0.0
C1128 C 0.40183 0.71678 0.80488 0.0
C1129 C 0.36855 0.68062 0.80795 0.0
C1130 C 0.34497 0.65418 0.7994 0.0
C1131 C 0.35574 0.66277 0.78799 0.0
C1132 C 0.35962 0.6693 0.82007 0.0
C1133 C 0.3217 0.65804 0.82424 0.0
C1134 C 0.38833 0.66941 0.82748 0.0
C1135 C 0.42822 0.67887 0.82343 0.0
C1136 C 0.43234 0.65746 0.81442 0.0
C1137 C 0.46998 0.66738 0.81042 0.0
C1138 C 0.50375 0.69835 0.81547 0.0
C1139 C 0.49995 0.71938 0.82454 0.0
C1140 C 0.46237 0.70967 0.82854 0.0
C1141 C 0.2913 0.5791 0.86808 0.0
C1142 C 0.31258 0.6036 0.87728 0.0
C1143 C 0.30027 0.59329 0.85695 0.0
C1144 C 0.33064 0.63219 0.85482 0.0
C1145 C 0.35217 0.65666 0.86394 0.0
C1146 C 0.34309 0.6426 0.87509 0.0
C1147 C 0.3404 0.64695 0.84301 0.0
C1148 C 0.37848 0.65875 0.83889 0.0
C1149 C 0.31175 0.64702 0.83564 0.0
C1150 C 0.27154 0.63638 0.83969 0.0
C1151 C 0.26672 0.6559 0.84909 0.0
C1152 C 0.22879 0.64531 0.85298 0.0
C1153 C 0.19541 0.61545 0.84747 0.0
C1154 C 0.1999 0.59618 0.83805 0.0
C1155 C 0.23777 0.60661 0.83415 0.0
H1156 H 0.16606 0.60729 0.85049 0.0
H1157 H 0.53287 0.70601 0.81236 0.0
H1158 H 0.68181 0.33751 0.11691 0.0
H1159 H 0.67399 0.32089 0.13714 0.0
H1160 H 0.7621 0.4412 0.14532 0.0
H1161 H 0.76968 0.45843 0.12509 0.0
H1162 H 0.77068 0.37826 0.15648 0.0
H1163 H 0.67607 0.42138 0.14982 0.0
H1164 H 0.62076 0.42124 0.13961 0.0
H1165 H 0.54509 0.29831 0.14781 0.0
H1166 H 0.60019 0.29753 0.15791 0.0
H1167 H 0.6862 0.36061 0.2161 0.0
H1168 H 0.68606 0.37803 0.19612 0.0
H1169 H 0.70296 0.28118 0.1859 0.0
H1170 H 0.70364 0.26374 0.20576 0.0
H1171 H 0.6433 0.338 0.17618 0.0
H1172 H 0.7768 0.31853 0.16587 0.0
H1173 H 0.82916 0.31402 0.1764 0.0
H1174 H 0.82637 0.38959 0.20251 0.0
H1175 H 0.77524 0.39589 0.19192 0.0
C1176 C 0.69962 0.36045 0.12299 0.0
C1177 C 0.72626 0.39933 0.1194 0.0
C1178 C 0.69503 0.3509 0.13453 0.0
C1179 C 0.71737 0.3799 0.14266 0.0
C1180 C 0.74461 0.4185 0.13913 0.0
C1181 C 0.74875 0.42827 0.12759 0.0
C1182 C 0.71192 0.36986 0.15486 0.0
C1183 C 0.74295 0.36962 0.16081 0.0
C1184 C 0.67571 0.35877 0.16045 0.0
C1185 C 0.64237 0.35931 0.15454 0.0
C1186 C 0.64773 0.39423 0.14937 0.0
C1187 C 0.6164 0.39433 0.14361 0.0
C1188 C 0.57946 0.35977 0.14304 0.0
C1189 C 0.57374 0.32505 0.14825 0.0
C1190 C 0.605 0.32477 0.154 0.0
C1191 C 0.6893 0.34262 0.2096 0.0
C1192 C 0.69568 0.31123 0.21254 0.0
C1193 C 0.68898 0.35251 0.1982 0.0
C1194 C 0.69509 0.33122 0.1896 0.0
C1195 C 0.69871 0.29824 0.19246 0.0
C1196 C 0.69919 0.28842 0.20382 0.0
C1197 C 0.70183 0.34578 0.17775 0.0
C1198 C 0.67112 0.34686 0.17187 0.0
C1199 C 0.7384 0.35776 0.17222 0.0
C1200 C 0.77187 0.35734 0.17814 0.0
C1201 C 0.78782 0.33471 0.17376 0.0
C1202 C 0.81731 0.33186 0.17974 0.0
C1203 C 0.83107 0.35149 0.19012 0.0
C1204 C 0.81584 0.37454 0.19445 0.0
C1205 C 0.78669 0.37787 0.18844 0.0
H1206 H 0.85349 0.34879 0.19481 0.0
H1207 H 0.55525 0.3599 0.13857 0.0
H1208 H 0.46401 0.7204 0.53699 0.0
H1209 H 0.4457 0.71802 0.51707 0.0
H1210 H 0.33353 0.70564 0.52709 0.0
H1211 H 0.35106 0.70675 0.54707 0.0
H1212 H 0.32358 0.65876 0.50963 0.0
H1213 H 0.4121 0.79555 0.51866 0.0
H1214 H 0.47386 0.85197 0.526 0.0
H1215 H 0.54105 0.83105 0.5008 0.0
H1216 H 0.47971 0.77408 0.49342 0.0
H1217 H 0.27684 0.72512 0.45891 0.0
H1218 H 0.29557 0.72059 0.47841 0.0
H1219 H 0.39706 0.71521 0.46615 0.0
H1220 H 0.3785 0.71947 0.44654 0.0
H1221 H 0.41359 0.76949 0.48432 0.0
H1222 H 0.32252 0.63369 0.47485 0.0
H1223 H 0.25962 0.57849 0.46767 0.0
H1224 H 0.19575 0.59971 0.49387 0.0
H1225 H 0.25825 0.65551 0.50111 0.0
C1226 C 0.43537 0.71703 0.53498 0.0
C1227 C 0.40915 0.71416 0.54363 0.0
C1228 C 0.425 0.71578 0.52357 0.0
C1229 C 0.38856 0.7124 0.52059 0.0
C1230 C 0.36186 0.70839 0.5292 0.0
C1231 C 0.372 0.70916 0.54062 0.0
C1232 C 0.37871 0.71405 0.50851 0.0
C1233 C 0.34306 0.68319 0.50414 0.0
C1234 C 0.4045 0.74559 0.50128 0.0
C1235 C 0.44135 0.78032 0.50556 0.0
C1236 C 0.44007 0.80284 0.51473 0.0
C1237 C 0.475 0.83492 0.5189 0.0
C1238 C 0.51137 0.84502 0.51389 0.0
C1239 C 0.51286 0.82315 0.50468 0.0
C1240 C 0.47802 0.79098 0.50049 0.0
C1241 C 0.30317 0.72298 0.46032 0.0
C1242 C 0.32615 0.72259 0.45115 0.0
C1243 C 0.31373 0.72027 0.47148 0.0
C1244 C 0.34751 0.71732 0.47368 0.0
C1245 C 0.37083 0.71741 0.46459 0.0
C1246 C 0.36008 0.71971 0.4534 0.0
C1247 C 0.35847 0.71435 0.48551 0.0
C1248 C 0.39427 0.74501 0.48982 0.0
C1249 C 0.33266 0.68286 0.49271 0.0
C1250 C 0.29506 0.64903 0.48846 0.0
C1251 C 0.29504 0.6268 0.47903 0.0
C1252 C 0.25946 0.59537 0.47495 0.0
C1253 C 0.2237 0.58565 0.48029 0.0
C1254 C 0.22347 0.60729 0.48974 0.0
C1255 C 0.25897 0.63881 0.49383 0.0
H1256 H 0.19618 0.56131 0.47713 0.0
H1257 H 0.53839 0.86983 0.51714 0.0
H1258 H 0.73564 0.44392 0.87472 0.0
H1259 H 0.72167 0.42813 0.85459 0.0
H1260 H 0.616 0.31868 0.86323 0.0
H1261 H 0.63018 0.33369 0.88342 0.0
H1262 H 0.65283 0.30926 0.84498 0.0
H1263 H 0.61183 0.40042 0.85729 0.0
H1264 H 0.62214 0.46156 0.86653 0.0
H1265 H 0.70915 0.53164 0.8414 0.0
H1266 H 0.70042 0.4708 0.83222 0.0
H1267 H 0.54175 0.27865 0.79453 0.0
H1268 H 0.56393 0.29295 0.81426 0.0
H1269 H 0.67384 0.39391 0.80342 0.0
H1270 H 0.65213 0.37978 0.7836 0.0
H1271 H 0.63739 0.4085 0.82244 0.0
H1272 H 0.6763 0.31548 0.80996 0.0
H1273 H 0.66526 0.25333 0.80116 0.0
H1274 H 0.57874 0.18587 0.8267 0.0
H1275 H 0.58876 0.24765 0.83555 0.0
C1276 C 0.70965 0.41624 0.87237 0.0
C1277 C 0.68367 0.39036 0.88069 0.0
C1278 C 0.70173 0.40728 0.86085 0.0
C1279 C 0.66739 0.37264 0.85743 0.0
C1280 C 0.64258 0.34567 0.8657 0.0
C1281 C 0.65066 0.35441 0.87724 0.0
C1282 C 0.65582 0.36599 0.84529 0.0
C1283 C 0.64912 0.33078 0.84008 0.0
C1284 C 0.65147 0.39438 0.83888 0.0
C1285 C 0.65575 0.43102 0.84413 0.0
C1286 C 0.63334 0.42886 0.85376 0.0
C1287 C 0.63891 0.46348 0.859 0.0
C1288 C 0.66621 0.5005 0.85455 0.0
C1289 C 0.68802 0.50294 0.84484 0.0
C1290 C 0.68284 0.46839 0.83963 0.0
C1291 C 0.57058 0.30404 0.79631 0.0
C1292 C 0.59524 0.328 0.78747 0.0
C1293 C 0.58322 0.31205 0.80759 0.0
C1294 C 0.62059 0.34427 0.81024 0.0
C1295 C 0.64491 0.36886 0.8015 0.0
C1296 C 0.63248 0.36064 0.79019 0.0
C1297 C 0.63443 0.35182 0.82216 0.0
C1298 C 0.64139 0.38714 0.82734 0.0
C1299 C 0.63867 0.32341 0.82856 0.0
C1300 C 0.63301 0.28621 0.82336 0.0
C1301 C 0.65469 0.28739 0.81365 0.0
C1302 C 0.64865 0.25223 0.80866 0.0
C1303 C 0.62124 0.21567 0.81335 0.0
C1304 C 0.59992 0.21421 0.82307 0.0
C1305 C 0.60579 0.2493 0.82808 0.0
H1306 H 0.61659 0.18848 0.80946 0.0
H1307 H 0.67046 0.52727 0.85862 0.0
H1308 H 0.87123 0.51093 0.08095 0.0
H1309 H 0.93947 0.52468 0.08014 0.0
H1310 H 0.89923 0.40042 0.08477 0.0
H1311 H 0.83044 0.38613 0.08546 0.0
H1312 H 0.96127 0.45346 0.09986 0.0
H1313 H 0.93098 0.43545 0.06008 0.0
H1314 H 0.90612 0.44639 0.04196 0.0
H1315 H 0.99378 0.57004 0.04312 0.0
H1316 H 0.01879 0.55997 0.06135 0.0
H1317 H 0.15013 0.47356 0.09138 0.0
H1318 H 0.08006 0.45298 0.0904 0.0
H1319 H 0.10969 0.57046 0.07956 0.0
H1320 H 0.18008 0.5912 0.08022 0.0
H1321 H 0.05127 0.51657 0.06703 0.0
H1322 H 0.07602 0.53875 0.10714 0.0
H1323 H 0.09926 0.53228 0.12608 0.0
H1324 H 0.02312 0.40601 0.12479 0.0
H1325 H 0.99896 0.41179 0.10588 0.0
C1326 C 0.87675 0.48641 0.08171 0.0
C1327 C 0.84541 0.44742 0.08328 0.0
C1328 C 0.91576 0.49434 0.0812 0.0
C1329 C 0.9242 0.46352 0.08234 0.0
C1330 C 0.89311 0.42452 0.08384 0.0
C1331 C 0.85392 0.41644 0.08419 0.0
C1332 C 0.96578 0.47264 0.08249 0.0
C1333 C 0.98085 0.46652 0.09262 0.0
C1334 C 0.99134 0.49088 0.07314 0.0
C1335 C 0.97654 0.497 0.06214 0.0
C1336 C 0.94475 0.46504 0.05652 0.0
C1337 C 0.93067 0.47107 0.04622 0.0
C1338 C 0.9483 0.5089 0.0414 0.0
C1339 C 0.98013 0.54076 0.04686 0.0
C1340 C 0.99429 0.5349 0.05718 0.0
C1341 C 0.14189 0.49514 0.08879 0.0
C1342 C 0.17084 0.53406 0.08585 0.0
C1343 C 0.10173 0.48333 0.0883 0.0
C1344 C 0.08966 0.51029 0.08503 0.0
C1345 C 0.11839 0.54916 0.0821 0.0
C1346 C 0.15862 0.56098 0.08251 0.0
C1347 C 0.047 0.49769 0.08446 0.0
C1348 C 0.03169 0.50318 0.07425 0.0
C1349 C 0.02126 0.47938 0.09379 0.0
C1350 C 0.03605 0.47566 0.10506 0.0
C1351 C 0.06448 0.50959 0.11086 0.0
C1352 C 0.07776 0.50605 0.1216 0.0
C1353 C 0.063 0.46874 0.12659 0.0
C1354 C 0.03463 0.43489 0.12089 0.0
C1355 C 0.021 0.43828 0.11019 0.0
H1356 H 0.07339 0.4661 0.1349 0.0
H1357 H 0.93736 0.51351 0.03342 0.0
H1358 H 0.66222 0.14084 0.4203 0.0
H1359 H 0.60916 0.07191 0.41873 0.0
H1360 H 0.52308 0.11015 0.41583 0.0
H1361 H 0.57597 0.17934 0.4172 0.0
H1362 H 0.50385 0.04684 0.43191 0.0
H1363 H 0.54444 0.08252 0.39303 0.0
H1364 H 0.59301 0.10952 0.3774 0.0
H1365 H 0.62545 0.02075 0.38345 0.0
H1366 H 0.57747 0.99359 0.39925 0.0
H1367 H 0.33924 0.86498 0.41683 0.0
H1368 H 0.39112 0.93433 0.41614 0.0
H1369 H 0.47954 0.89921 0.41274 0.0
H1370 H 0.42756 0.8295 0.41302 0.0
H1371 H 0.49778 0.96173 0.39967 0.0
H1372 H 0.45953 0.92637 0.43854 0.0
H1373 H 0.41193 0.89849 0.45439 0.0
H1374 H 0.37734 0.98602 0.44904 0.0
H1375 H 0.4243 0.01404 0.43302 0.0
C1376 C 0.63207 0.13471 0.4193 0.0
C1377 C 0.62339 0.16566 0.4188 0.0
C1378 C 0.60182 0.0953 0.41839 0.0
C1379 C 0.56238 0.08614 0.41711 0.0
C1380 C 0.55344 0.11679 0.4168 0.0
C1381 C 0.58372 0.15626 0.41754 0.0
C1382 C 0.53043 0.04445 0.41611 0.0
C1383 C 0.50211 0.02831 0.4248 0.0
C1384 C 0.52904 0.02024 0.40696 0.0
C1385 C 0.55765 0.03628 0.3974 0.0
C1386 C 0.56217 0.06897 0.39109 0.0
C1387 C 0.58956 0.08427 0.38219 0.0
C1388 C 0.61239 0.06693 0.37945 0.0
C1389 C 0.60779 0.03418 0.38559 0.0
C1390 C 0.58048 0.0188 0.39452 0.0
C1391 C 0.36965 0.8719 0.41583 0.0
C1392 C 0.37926 0.84165 0.41508 0.0
C1393 C 0.39931 0.91161 0.41548 0.0
C1394 C 0.43925 0.92192 0.41463 0.0
C1395 C 0.44889 0.89188 0.41344 0.0
C1396 C 0.41914 0.85206 0.41363 0.0
C1397 C 0.47096 0.96396 0.41547 0.0
C1398 C 0.49937 0.9802 0.40678 0.0
C1399 C 0.47271 0.9882 0.42469 0.0
C1400 C 0.44519 0.97208 0.43451 0.0
C1401 C 0.44164 0.93955 0.4407 0.0
C1402 C 0.41476 0.92372 0.44972 0.0
C1403 C 0.39155 0.9404 0.4527 0.0
C1404 C 0.3953 0.97309 0.4467 0.0
C1405 C 0.42207 0.98898 0.43766 0.0
H1406 H 0.3707 0.92805 0.45966 0.0
H1407 H 0.63357 0.07882 0.37256 0.0
H1408 H 0.59551 0.43422 0.75379 0.0
H1409 H 0.5776 0.48618 0.75299 0.0
H1410 H 0.45645 0.39831 0.7457 0.0
H1411 H 0.4738 0.34604 0.74679 0.0
H1412 H 0.49615 0.47676 0.73189 0.0
H1413 H 0.4648 0.41954 0.76979 0.0
H1414 H 0.48107 0.3972 0.78755 0.0
H1415 H 0.5775 0.51503 0.79357 0.0
H1416 H 0.56224 0.53787 0.77569 0.0
H1417 H 0.39804 0.58394 0.74438 0.0
H1418 H 0.4161 0.53231 0.74359 0.0
H1419 H 0.52731 0.61047 0.76004 0.0
H1420 H 0.5095 0.66217 0.76099 0.0
H1421 H 0.49331 0.53677 0.76888 0.0
H1422 H 0.52517 0.59608 0.7321 0.0
H1423 H 0.51287 0.62082 0.71416 0.0
H1424 H 0.42077 0.50323 0.70563 0.0
H1425 H 0.43209 0.47784 0.72364 0.0
C1426 C 0.56517 0.42603 0.75189 0.0
C1427 C 0.53596 0.38608 0.75044 0.0
C1428 C 0.55504 0.45568 0.75143 0.0
C1429 C 0.51577 0.44586 0.74929 0.0
C1430 C 0.48692 0.40629 0.74732 0.0
C1431 C 0.49683 0.37653 0.74803 0.0
C1432 C 0.50429 0.47656 0.74998 0.0
C1433 C 0.49499 0.48962 0.73996 0.0
C1434 C 0.50386 0.49379 0.76051 0.0
C1435 C 0.51268 0.48029 0.77134 0.0
C1436 C 0.48972 0.44059 0.77484 0.0
C1437 C 0.49871 0.42785 0.78494 0.0
C1438 C 0.53038 0.45466 0.79167 0.0
C1439 C 0.55303 0.49428 0.78833 0.0
C1440 C 0.54422 0.50714 0.77822 0.0
C1441 C 0.4263 0.59018 0.74786 0.0
C1442 C 0.45241 0.62734 0.75268 0.0
C1443 C 0.43662 0.56066 0.74736 0.0
C1444 C 0.47323 0.56778 0.75163 0.0
C1445 C 0.49895 0.60445 0.75667 0.0
C1446 C 0.48873 0.634 0.75717 0.0
C1447 C 0.48487 0.53708 0.75077 0.0
C1448 C 0.49431 0.52399 0.76077 0.0
C1449 C 0.48583 0.52017 0.7402 0.0
C1450 C 0.47921 0.53512 0.72928 0.0
C1451 C 0.50208 0.57553 0.72645 0.0
C1452 C 0.49532 0.58967 0.71626 0.0
C1453 C 0.466 0.56363 0.70878 0.0
C1454 C 0.44345 0.52336 0.71145 0.0
C1455 C 0.45004 0.50907 0.72164 0.0
H1456 H 0.46086 0.57468 0.7009 0.0
H1457 H 0.5373 0.44475 0.79949 0.0
H1458 H 0.59591 0.16622 0.58478 0.0
H1459 H 0.57643 0.09613 0.58526 0.0
H1460 H 0.45404 0.06371 0.58085 0.0
H1461 H 0.47308 0.13373 0.58028 0.0
H1462 H 0.46714 0.01728 0.59742 0.0
H1463 H 0.49905 0.06147 0.55869 0.0
H1464 H 0.54105 0.10623 0.54345 0.0
H1465 H 0.63285 0.08001 0.55168 0.0
H1466 H 0.59161 0.03556 0.56711 0.0
H1467 H 0.39832 0.8169 0.58086 0.0
H1468 H 0.41189 0.88522 0.58208 0.0
H1469 H 0.53745 0.92771 0.58027 0.0
H1470 H 0.5242 0.85994 0.57862 0.0
H1471 H 0.51961 0.96896 0.5667 0.0
H1472 H 0.48848 0.9252 0.60564 0.0
H1473 H 0.44678 0.88068 0.62099 0.0
H1474 H 0.35445 0.90605 0.61269 0.0
H1475 H 0.39537 0.9503 0.59719 0.0
C1476 C 0.56479 0.14426 0.58402 0.0
C1477 C 0.53607 0.15562 0.58242 0.0
C1478 C 0.55376 0.10426 0.58429 0.0
C1479 C 0.51388 0.07496 0.58302 0.0
C1480 C 0.48496 0.08603 0.58185 0.0
C1481 C 0.49597 0.12605 0.58147 0.0
C1482 C 0.50278 0.03285 0.58226 0.0
C1483 C 0.47818 0.00646 0.59066 0.0
C1484 C 0.51772 0.01918 0.5735 0.0
C1485 C 0.54239 0.04548 0.56413 0.0
C1486 C 0.52831 0.06549 0.55731 0.0
C1487 C 0.55197 0.09077 0.54863 0.0
C1488 C 0.58964 0.09604 0.54662 0.0
C1489 C 0.60369 0.07594 0.55326 0.0
C1490 C 0.58017 0.05067 0.56197 0.0
C1491 C 0.42883 0.84079 0.58078 0.0
C1492 C 0.46018 0.83293 0.57967 0.0
C1493 C 0.43653 0.87982 0.58152 0.0
C1494 C 0.47572 0.91156 0.5814 0.0
C1495 C 0.50699 0.9037 0.58037 0.0
C1496 C 0.49932 0.86485 0.57947 0.0
C1497 C 0.48445 0.95314 0.582 0.0
C1498 C 0.50852 0.97955 0.57351 0.0
C1499 C 0.46913 0.96677 0.59072 0.0
C1500 C 0.44483 0.94075 0.60018 0.0
C1501 C 0.4592 0.92111 0.60705 0.0
C1502 C 0.43572 0.89594 0.61578 0.0
C1503 C 0.39795 0.89044 0.61778 0.0
C1504 C 0.38368 0.91029 0.61111 0.0
C1505 C 0.40701 0.93543 0.60236 0.0
H1506 H 0.37972 0.87084 0.6245 0.0
H1507 H 0.60791 0.11563 0.53989 0.0
H1508 H 0.3364 0.47618 0.90901 0.0
H1509 H 0.38931 0.46025 0.91008 0.0
H1510 H 0.47507 0.58387 0.91492 0.0
H1511 H 0.42209 0.60031 0.91403 0.0
H1512 H 0.49443 0.54246 0.89771 0.0
H1513 H 0.45375 0.53023 0.93683 0.0
H1514 H 0.4049 0.50623 0.95242 0.0
H1515 H 0.37003 0.38588 0.94398 0.0
H1516 H 0.41826 0.40916 0.92822 0.0
H1517 H 0.65492 0.51497 0.9113 0.0
H1518 H 0.60462 0.53446 0.9114 0.0
H1519 H 0.5131 0.41173 0.9141 0.0
H1520 H 0.56354 0.39192 0.91444 0.0
H1521 H 0.49754 0.45497 0.92788 0.0
H1522 H 0.5315 0.4634 0.88842 0.0
H1523 H 0.576 0.48364 0.87182 0.0
H1524 H 0.61982 0.60612 0.87988 0.0
H1525 H 0.57534 0.58657 0.89652 0.0
C1526 C 0.36642 0.50007 0.91036 0.0
C1527 C 0.37497 0.53953 0.9115 0.0
C1528 C 0.39659 0.49085 0.91098 0.0
C1529 C 0.43588 0.52089 0.91264 0.0
C1530 C 0.44478 0.56035 0.91366 0.0
C1531 C 0.41449 0.56961 0.91319 0.0
C1532 C 0.46758 0.51077 0.91317 0.0
C1533 C 0.49565 0.52392 0.9044 0.0
C1534 C 0.46807 0.48551 0.92171 0.0
C1535 C 0.43939 0.47145 0.93128 0.0
C1536 C 0.43545 0.49864 0.93824 0.0
C1537 C 0.40791 0.48517 0.94712 0.0
C1538 C 0.38431 0.44455 0.94918 0.0
C1539 C 0.3883 0.41733 0.94238 0.0
C1540 C 0.41577 0.43066 0.93348 0.0
C1541 C 0.62415 0.49202 0.91193 0.0
C1542 C 0.61329 0.45184 0.91287 0.0
C1543 C 0.59537 0.50324 0.91191 0.0
C1544 C 0.55508 0.47452 0.91258 0.0
C1545 C 0.54406 0.43439 0.91357 0.0
C1546 C 0.57292 0.42312 0.91374 0.0
C1547 C 0.52454 0.48652 0.91238 0.0
C1548 C 0.49659 0.47369 0.92121 0.0
C1549 C 0.52376 0.51159 0.90379 0.0
C1550 C 0.5504 0.52353 0.89377 0.0
C1551 C 0.5508 0.49465 0.88669 0.0
C1552 C 0.576 0.506 0.87726 0.0
C1553 C 0.60097 0.54614 0.87484 0.0
C1554 C 0.60054 0.57503 0.88178 0.0
C1555 C 0.57523 0.56384 0.89119 0.0
H1556 H 0.62052 0.55484 0.86755 0.0
H1557 H 0.36299 0.43417 0.95605 0.0
H1558 H 0.12968 0.66285 0.24633 0.0
H1559 H 0.05993 0.6114 0.24717 0.0
H1560 H 0.09299 0.52122 0.24508 0.0
H1561 H 0.1631 0.57251 0.24447 0.0
H1562 H 0.03251 0.51629 0.22879 0.0
H1563 H 0.06417 0.52979 0.26882 0.0
H1564 H 0.09046 0.56747 0.28661 0.0
H1565 H 0.00589 0.60731 0.28471 0.0
H1566 H 0.97949 0.57035 0.2668 0.0
H1567 H 0.84984 0.34522 0.23933 0.0
H1568 H 0.91867 0.39794 0.23948 0.0
H1569 H 0.88313 0.48147 0.25025 0.0
H1570 H 0.81379 0.42848 0.25039 0.0
H1571 H 0.94513 0.49172 0.26214 0.0
H1572 H 0.91469 0.48399 0.2227 0.0
H1573 H 0.89019 0.45402 0.20385 0.0
H1574 H 0.97114 0.40948 0.20371 0.0
H1575 H 0.99635 0.43947 0.22255 0.0
C1576 C 0.12222 0.63211 0.24613 0.0
C1577 C 0.1519 0.62173 0.24534 0.0
C1578 C 0.08238 0.60281 0.24664 0.0
C1579 C 0.07158 0.56271 0.24621 0.0
C1580 C 0.10099 0.55213 0.24544 0.0
C1581 C 0.14093 0.58142 0.24513 0.0
C1582 C 0.02938 0.5319 0.24615 0.0
C1583 C 0.01343 0.51036 0.23613 0.0
C1584 C 0.0045 0.52565 0.25559 0.0
C1585 C 0.02013 0.54763 0.26641 0.0
C1586 C 0.05142 0.54688 0.27214 0.0
C1587 C 0.06629 0.56805 0.28226 0.0
C1588 C 0.04993 0.58986 0.28677 0.0
C1589 C 0.01857 0.59045 0.28119 0.0
C1590 C 0.00362 0.56937 0.27106 0.0
C1591 C 0.85646 0.37475 0.24174 0.0
C1592 C 0.82617 0.38254 0.24487 0.0
C1593 C 0.89593 0.40496 0.24174 0.0
C1594 C 0.906 0.44374 0.24473 0.0
C1595 C 0.87596 0.45172 0.2479 0.0
C1596 C 0.83635 0.42141 0.24795 0.0
C1597 C 0.94807 0.47557 0.24478 0.0
C1598 C 0.96407 0.49746 0.25479 0.0
C1599 C 0.97293 0.48274 0.23524 0.0
C1600 C 0.95714 0.46365 0.22407 0.0
C1601 C 0.927 0.46747 0.2187 0.0
C1602 C 0.91307 0.45059 0.208 0.0
C1603 C 0.92895 0.42968 0.20261 0.0
C1604 C 0.95884 0.42565 0.20791 0.0
C1605 C 0.97307 0.44272 0.21857 0.0
H1606 H 0.91826 0.41679 0.19431 0.0
H1607 H 0.06149 0.60623 0.2946 0.0
H1608 H 0.59434 0.40608 0.09913 0.0
H1609 H 0.54116 0.42205 0.09955 0.0
H1610 H 0.62721 0.54659 0.09699 0.0
H1611 H 0.6807 0.53101 0.09659 0.0
H1612 H 0.56652 0.52951 0.11279 0.0
H1613 H 0.58212 0.50128 0.07398 0.0
H1614 H 0.58777 0.46104 0.0587 0.0
H1615 H 0.47077 0.36575 0.06627 0.0
H1616 H 0.46467 0.40521 0.08173 0.0
H1617 H 0.43504 0.59663 0.09574 0.0
H1618 H 0.48987 0.58311 0.09658 0.0
H1619 H 0.40669 0.4574 0.09589 0.0
H1620 H 0.3518 0.47059 0.09487 0.0
H1621 H 0.46718 0.47621 0.08169 0.0
H1622 H 0.45154 0.50405 0.12057 0.0
H1623 H 0.4466 0.54333 0.13627 0.0
H1624 H 0.56369 0.63868 0.12881 0.0
H1625 H 0.56911 0.60016 0.11296 0.0
C1626 C 0.60201 0.4369 0.09878 0.0
C1627 C 0.64166 0.4673 0.09776 0.0
C1628 C 0.5716 0.44593 0.09899 0.0
C1629 C 0.58039 0.48544 0.09819 0.0
C1630 C 0.61997 0.51594 0.0976 0.0
C1631 C 0.6504 0.50694 0.09732 0.0
C1632 C 0.54813 0.49477 0.09744 0.0
C1633 C 0.54503 0.51832 0.10593 0.0
C1634 C 0.51991 0.47951 0.08857 0.0
C1635 C 0.52308 0.45608 0.07909 0.0
C1636 C 0.55768 0.47165 0.07244 0.0
C1637 C 0.56097 0.449 0.06374 0.0
C1638 C 0.52969 0.41083 0.06154 0.0
C1639 C 0.49499 0.39531 0.068 0.0
C1640 C 0.49159 0.41782 0.07672 0.0
C1641 C 0.42842 0.56611 0.09581 0.0
C1642 C 0.38909 0.53467 0.0953 0.0
C1643 C 0.45976 0.55844 0.09631 0.0
C1644 C 0.45227 0.51924 0.09642 0.0
C1645 C 0.41308 0.48785 0.09582 0.0
C1646 C 0.38176 0.49547 0.09527 0.0
C1647 C 0.48526 0.51082 0.0971 0.0
C1648 C 0.4886 0.48747 0.08857 0.0
C1649 C 0.51368 0.52624 0.10594 0.0
C1650 C 0.51057 0.54937 0.11551 0.0
C1651 C 0.47611 0.53351 0.12222 0.0
C1652 C 0.47324 0.55562 0.13116 0.0
C1653 C 0.50477 0.59352 0.13352 0.0
C1654 C 0.53927 0.60934 0.12696 0.0
C1655 C 0.54227 0.58738 0.11801 0.0
H1656 H 0.50249 0.61059 0.14044 0.0
H1657 H 0.53231 0.39331 0.05481 0.0
H1658 H 0.87069 0.33907 0.43011 0.0
H1659 H 0.93925 0.39311 0.43137 0.0
H1660 H 0.89878 0.47758 0.43415 0.0
H1661 H 0.83005 0.42374 0.4328 0.0
H1662 H 0.95879 0.50037 0.4187 0.0
H1663 H 0.9322 0.45301 0.45725 0.0
H1664 H 0.91046 0.4025 0.47235 0.0
H1665 H 0.00143 0.37652 0.46282 0.0
H1666 H 0.02337 0.42651 0.44754 0.0
H1667 H 0.13903 0.66743 0.43371 0.0
H1668 H 0.07092 0.6127 0.4349 0.0
H1669 H 0.11245 0.52883 0.43325 0.0
H1670 H 0.18094 0.58356 0.43228 0.0
H1671 H 0.05203 0.50529 0.44827 0.0
H1672 H 0.07841 0.55108 0.40973 0.0
H1673 H 0.10116 0.60141 0.39455 0.0
H1674 H 0.01093 0.62899 0.40363 0.0
H1675 H 0.98807 0.57929 0.41901 0.0
C1676 C 0.87634 0.36912 0.43103 0.0
C1677 C 0.84495 0.37714 0.43139 0.0
C1678 C 0.91552 0.39993 0.43179 0.0
C1679 C 0.92401 0.43925 0.43296 0.0
C1680 C 0.89278 0.44738 0.43328 0.0
C1681 C 0.85356 0.41658 0.43255 0.0
C1682 C 0.96555 0.47203 0.43358 0.0
C1683 C 0.97904 0.50178 0.42526 0.0
C1684 C 0.99216 0.47313 0.44195 0.0
C1685 C 0.97919 0.44325 0.45118 0.0
C1686 C 0.94738 0.43631 0.45831 0.0
C1687 C 0.93505 0.40781 0.46692 0.0
C1688 C 0.95449 0.38624 0.46853 0.0
C1689 C 0.98637 0.39322 0.46156 0.0
C1690 C 0.99879 0.42166 0.45293 0.0
C1691 C 0.13374 0.63735 0.4337 0.0
C1692 C 0.1653 0.62977 0.4328 0.0
C1693 C 0.0948 0.60612 0.43436 0.0
C1694 C 0.08664 0.56675 0.43395 0.0
C1695 C 0.11815 0.55904 0.43353 0.0
C1696 C 0.15723 0.59032 0.43296 0.0
C1697 C 0.04516 0.53376 0.43344 0.0
C1698 C 0.03174 0.50391 0.44173 0.0
C1699 C 0.01862 0.53238 0.425 0.0
C1700 C 0.03176 0.5617 0.41559 0.0
C1701 C 0.06356 0.56804 0.40854 0.0
C1702 C 0.07648 0.59645 0.3999 0.0
C1703 C 0.05756 0.61845 0.39815 0.0
C1704 C 0.02559 0.61196 0.40501 0.0
C1705 C 0.01262 0.58366 0.41369 0.0
H1706 H 0.06763 0.64046 0.39146 0.0
H1707 H 0.9449 0.36419 0.4752 0.0
H1708 H 0.59112 0.18746 0.77065 0.0
H1709 H 0.57912 0.11957 0.77115 0.0
H1710 H 0.45412 0.0746 0.76617 0.0
H1711 H 0.46568 0.14226 0.76577 0.0
H1712 H 0.46926 0.03104 0.78193 0.0
H1713 H 0.51082 0.08391 0.74402 0.0
H1714 H 0.55663 0.13393 0.73037 0.0
H1715 H 0.64961 0.11232 0.74093 0.0
H1716 H 0.60451 0.06262 0.7548 0.0
H1717 H 0.40389 0.83863 0.76103 0.0
H1718 H 0.42017 0.90749 0.76322 0.0
H1719 H 0.54454 0.94444 0.76485 0.0
H1720 H 0.52856 0.87569 0.76241 0.0
H1721 H 0.53332 0.99329 0.75177 0.0
H1722 H 0.49209 0.93827 0.78893 0.0
H1723 H 0.44797 0.88995 0.8032 0.0
H1724 H 0.35646 0.91638 0.79475 0.0
H1725 H 0.39985 0.96446 0.7803 0.0
C1726 C 0.561 0.16313 0.76981 0.0
C1727 C 0.52937 0.17021 0.76809 0.0
C1728 C 0.55424 0.1244 0.77006 0.0
C1729 C 0.51581 0.0922 0.76856 0.0
C1730 C 0.48399 0.09911 0.76733 0.0
C1731 C 0.4907 0.13779 0.76706 0.0
C1732 C 0.50891 0.05139 0.7676 0.0
C1733 C 0.48295 0.02261 0.77529 0.0
C1734 C 0.52762 0.04084 0.75909 0.0
C1735 C 0.5544 0.06983 0.75052 0.0
C1736 C 0.5411 0.08997 0.74347 0.0
C1737 C 0.56693 0.11827 0.7357 0.0
C1738 C 0.60604 0.12638 0.7348 0.0
C1739 C 0.61933 0.10606 0.74165 0.0
C1740 C 0.59364 0.0778 0.74946 0.0
C1741 C 0.43471 0.86139 0.76187 0.0
C1742 C 0.46493 0.85172 0.76162 0.0
C1743 C 0.44396 0.90072 0.76316 0.0
C1744 C 0.48353 0.93101 0.76439 0.0
C1745 C 0.5138 0.9215 0.76395 0.0
C1746 C 0.50461 0.8822 0.76258 0.0
C1747 C 0.49327 0.97262 0.76606 0.0
C1748 C 0.51978 0.00163 0.75848 0.0
C1749 C 0.47523 0.98342 0.77472 0.0
C1750 C 0.44913 0.95473 0.78346 0.0
C1751 C 0.46246 0.93358 0.79005 0.0
C1752 C 0.4376 0.90626 0.79818 0.0
C1753 C 0.3994 0.90004 0.79986 0.0
C1754 C 0.38604 0.92121 0.79343 0.0
C1755 C 0.41078 0.94853 0.78528 0.0
H1756 H 0.38019 0.87887 0.80616 0.0
H1757 H 0.62602 0.14835 0.7288 0.0
H1758 H 0.42286 0.58572 0.55867 0.0
H1759 H 0.43804 0.5321 0.55778 0.0
H1760 H 0.5571 0.61193 0.56932 0.0
H1761 H 0.54249 0.66604 0.57001 0.0
H1762 H 0.55564 0.5629 0.55262 0.0
H1763 H 0.48776 0.55112 0.58781 0.0
H1764 H 0.43307 0.54706 0.59938 0.0
H1765 H 0.35074 0.43942 0.58236 0.0
H1766 H 0.40485 0.44322 0.57053 0.0
H1767 H 0.60252 0.41711 0.57088 0.0
H1768 H 0.59117 0.47322 0.56937 0.0
H1769 H 0.46848 0.39316 0.561 0.0
H1770 H 0.4793 0.33687 0.563 0.0
H1771 H 0.47258 0.44342 0.57598 0.0
H1772 H 0.54121 0.45519 0.54074 0.0
H1773 H 0.59602 0.46116 0.52883 0.0
H1774 H 0.67722 0.56917 0.54584 0.0
H1775 H 0.62302 0.5637 0.55796 0.0
C1776 C 0.45239 0.59199 0.56092 0.0
C1777 C 0.4814 0.63001 0.56449 0.0
C1778 C 0.46097 0.56131 0.56043 0.0
C1779 C 0.49849 0.56801 0.56365 0.0
C1780 C 0.52794 0.60623 0.56683 0.0
C1781 C 0.51948 0.63702 0.56726 0.0
C1782 C 0.50643 0.53472 0.5642 0.0
C1783 C 0.5378 0.53689 0.5578 0.0
C1784 C 0.48268 0.50068 0.57085 0.0
C1785 C 0.45031 0.49764 0.57822 0.0
C1786 C 0.45796 0.52668 0.5865 0.0
C1787 C 0.42707 0.52444 0.5931 0.0
C1788 C 0.38844 0.49306 0.59159 0.0
C1789 C 0.38067 0.46374 0.58351 0.0
C1790 C 0.41145 0.46591 0.57686 0.0
C1791 C 0.57323 0.41157 0.56862 0.0
C1792 C 0.54177 0.37272 0.56704 0.0
C1793 C 0.5668 0.44365 0.56771 0.0
C1794 C 0.52908 0.43746 0.56492 0.0
C1795 C 0.49781 0.39864 0.56318 0.0
C1796 C 0.50404 0.36654 0.56429 0.0
C1797 C 0.52163 0.47117 0.56426 0.0
C1798 C 0.4904 0.46924 0.57072 0.0
C1799 C 0.54557 0.50542 0.55767 0.0
C1800 C 0.57811 0.50884 0.55033 0.0
C1801 C 0.5708 0.48008 0.542 0.0
C1802 C 0.60175 0.48338 0.5352 0.0
C1803 C 0.64007 0.51542 0.5366 0.0
C1804 C 0.64753 0.54433 0.54478 0.0
C1805 C 0.6167 0.54118 0.5516 0.0
H1806 H 0.66397 0.51787 0.53133 0.0
H1807 H 0.36455 0.49143 0.59668 0.0
H1808 H 0.16887 0.59004 0.89682 0.0
H1809 H 0.09989 0.57471 0.8969 0.0
H1810 H 0.06058 0.44984 0.89891 0.0
H1811 H 0.12933 0.46474 0.89871 0.0
H1812 H 0.01521 0.46609 0.88419 0.0
H1813 H 0.06609 0.49858 0.92245 0.0
H1814 H 0.11455 0.54125 0.9369 0.0
H1815 H 0.08923 0.63419 0.92939 0.0
H1816 H 0.04107 0.59228 0.91474 0.0
H1817 H 0.81966 0.39482 0.90443 0.0
H1818 H 0.88849 0.41055 0.90243 0.0
H1819 H 0.92725 0.53548 0.90323 0.0
H1820 H 0.8588 0.5201 0.90546 0.0
H1821 H 0.97341 0.51996 0.91619 0.0
H1822 H 0.92198 0.48812 0.87823 0.0
H1823 H 0.87524 0.4471 0.86321 0.0
H1824 H 0.90222 0.35466 0.86968 0.0
H1825 H 0.94873 0.39492 0.88485 0.0
C1826 C 0.14555 0.55929 0.89714 0.0
C1827 C 0.1545 0.5286 0.89785 0.0
C1828 C 0.10621 0.55062 0.89722 0.0
C1829 C 0.0753 0.51119 0.89805 0.0
C1830 C 0.08409 0.48044 0.89828 0.0
C1831 C 0.12338 0.48906 0.89822 0.0
C1832 C 0.03388 0.50203 0.89931 0.0
C1833 C 0.00588 0.47749 0.89124 0.0
C1834 C 0.02213 0.5176 0.90841 0.0
C1835 C 0.05025 0.54242 0.91743 0.0
C1836 C 0.07101 0.52819 0.92383 0.0
C1837 C 0.09843 0.55224 0.93206 0.0
C1838 C 0.10505 0.59045 0.93404 0.0
C1839 C 0.08412 0.60461 0.92783 0.0
C1840 C 0.05674 0.58071 0.91957 0.0
C1841 C 0.84285 0.42563 0.90418 0.0
C1842 C 0.8338 0.45621 0.90505 0.0
C1843 C 0.88212 0.43456 0.903 0.0
C1844 C 0.91288 0.47419 0.90254 0.0
C1845 C 0.90393 0.50472 0.90356 0.0
C1846 C 0.86477 0.49584 0.90481 0.0
C1847 C 0.9545 0.48397 0.90104 0.0
C1848 C 0.98261 0.50859 0.90911 0.0
C1849 C 0.96635 0.46858 0.89191 0.0
C1850 C 0.93855 0.44439 0.88275 0.0
C1851 C 0.91772 0.45892 0.87651 0.0
C1852 C 0.89131 0.43583 0.86796 0.0
C1853 C 0.88569 0.39826 0.86551 0.0
C1854 C 0.90656 0.38375 0.87159 0.0
C1855 C 0.93298 0.4067 0.88016 0.0
H1856 H 0.86522 0.38042 0.85889 0.0
H1857 H 0.12634 0.60905 0.94039 0.0
H1858 H 0.41111 0.81998 0.22969 0.0
H1859 H 0.46677 0.888 0.22902 0.0
H1860 H 0.38544 0.93257 0.23083 0.0
H1861 H 0.32964 0.86483 0.23141 0.0
H1862 H 0.44591 0.9736 0.21538 0.0
H1863 H 0.42988 0.92793 0.25428 0.0
H1864 H 0.4244 0.88121 0.26928 0.0
H1865 H 0.54069 0.90217 0.26106 0.0
H1866 H 0.5466 0.94856 0.24588 0.0
H1867 H 0.56816 0.16952 0.23484 0.0
H1868 H 0.51651 0.10019 0.23282 0.0
H1869 H 0.6051 0.06468 0.23376 0.0
H1870 H 0.6569 0.13385 0.23599 0.0
H1871 H 0.54359 0.01777 0.24688 0.0
H1872 H 0.56191 0.06633 0.20877 0.0
H1873 H 0.56738 0.1118 0.19339 0.0
H1874 H 0.44792 0.08492 0.19965 0.0
H1875 H 0.44192 0.0397 0.21519 0.0
C1876 C 0.40505 0.84425 0.22982 0.0
C1877 C 0.36603 0.83709 0.23068 0.0
C1878 C 0.43686 0.88304 0.22946 0.0
C1879 C 0.43011 0.91517 0.22999 0.0
C1880 C 0.39117 0.9081 0.23042 0.0
C1881 C 0.35937 0.86939 0.23081 0.0
C1882 C 0.4636 0.95623 0.23067 0.0
C1883 C 0.46714 0.98344 0.2223 0.0
C1884 C 0.49167 0.96859 0.23958 0.0
C1885 C 0.48851 0.9414 0.24887 0.0
C1886 C 0.45418 0.92239 0.25563 0.0
C1887 C 0.451 0.89598 0.26416 0.0
C1888 C 0.48213 0.88864 0.2661 0.0
C1889 C 0.51658 0.90783 0.25954 0.0
C1890 C 0.51987 0.9342 0.25097 0.0
C1891 C 0.57667 0.14698 0.23459 0.0
C1892 C 0.6166 0.15715 0.23552 0.0
C1893 C 0.54715 0.1074 0.23339 0.0
C1894 C 0.55707 0.07738 0.23298 0.0
C1895 C 0.59686 0.08742 0.23403 0.0
C1896 C 0.62639 0.12696 0.23528 0.0
C1897 C 0.52583 0.03543 0.23163 0.0
C1898 C 0.52264 0.008 0.23989 0.0
C1899 C 0.49818 0.02285 0.22259 0.0
C1900 C 0.50159 0.04988 0.21321 0.0
C1901 C 0.5369 0.07034 0.20692 0.0
C1902 C 0.54008 0.09603 0.19817 0.0
C1903 C 0.50805 0.10131 0.19556 0.0
C1904 C 0.47273 0.08083 0.20169 0.0
C1905 C 0.4694 0.05513 0.21046 0.0
H1906 H 0.51057 0.12122 0.18878 0.0
H1907 H 0.47959 0.86815 0.2727 0.0
loop_
_geom_bond_atom_site_label_1
_geom_bond_atom_site_label_2
_geom_bond_distance
_geom_bond_site_symmetry_2
_ccdc_geom_bond_type
Co0 O2 2.143 . S
Co0 O8 2.074 . S
Co0 O11 2.093 . S
Co0 O24 2.097 . S
Co0 N41 2.151 . S
Co0 N49 2.214 . S
Co1 O2 2.160 . S
Co1 O7 2.058 . S
Co1 O17 2.057 . S
Co1 O32 2.037 . S
Co1 N36 2.145 . S
Co1 N57 2.257 . S
O2 Co0 2.143 . S
O2 Co1 2.160 . S
C3 O4 1.278 . S
C3 O11 1.224 . S
O4 C3 1.278 . S
C5 O6 1.245 . S
C5 O17 1.232 . S
O6 C5 1.245 . S
O7 Co1 2.058 . S
O7 C33 1.269 . S
O8 Co0 2.074 . S
O8 C33 1.257 . S
H9 C34 0.930 . S
H10 C40 0.930 . S
O11 Co0 2.093 . S
O11 C3 1.224 . S
H12 C44 0.929 . S
H13 C46 0.930 . S
H14 C47 0.930 . S
H15 C45 0.929 . S
H16 C48 0.928 . S
O17 Co1 2.057 . S
O17 C5 1.232 . S
H18 C37 0.929 . S
H19 C38 0.929 . S
H20 C50 0.931 . S
H21 C42 0.929 . S
H22 C51 0.930 . S
H23 C43 0.931 . S
O24 Co0 2.097 . S
O24 C52 1.214 . S
H25 C53 0.929 . S
H26 C54 0.929 . S
H27 C55 0.930 . S
H28 C56 0.929 . S
H29 C58 0.930 . S
H30 C35 0.930 . S
H31 C39 0.930 . S
O32 Co1 2.037 . S
O32 C52 1.234 . S
C33 O7 1.269 . S
C33 O8 1.257 . S
C34 H9 0.930 . S
C34 C37 1.388 . S
C34 C39 1.418 . S
C35 H30 0.930 . S
C35 C38 1.404 . S
C35 C39 1.353 . S
N36 Co1 2.145 . S
N36 C37 1.397 . S
N36 C38 1.334 . S
C37 H18 0.929 . S
C37 C34 1.388 . S
C37 N36 1.397 . S
C38 H19 0.929 . S
C38 C35 1.404 . S
C38 N36 1.334 . S
C39 H31 0.930 . S
C39 C34 1.418 . S
C39 C35 1.353 . S
C40 H10 0.930 . S
C40 N41 1.330 . S
C40 C42 1.446 . S
N41 Co0 2.151 . S
N41 C40 1.330 . S
N41 C45 1.418 . S
C42 H21 0.929 . S
C42 C40 1.446 . S
C42 C43 1.332 . S
C43 H23 0.931 . S
C43 C42 1.332 . S
C43 C44 1.267 . S
C44 H12 0.929 . S
C44 C43 1.267 . S
C44 C45 1.251 . S
C45 H15 0.929 . S
C45 N41 1.418 . S
C45 C44 1.251 . S
C46 H13 0.930 . S
C46 C48 1.406 . S
C46 C51 1.261 . S
C47 H14 0.930 . S
C47 N49 1.325 . S
C47 C50 1.357 . S
C48 H16 0.928 . S
C48 C46 1.406 . S
C48 N49 1.261 . S
N49 Co0 2.214 . S
N49 C47 1.325 . S
N49 C48 1.261 . S
C50 H20 0.931 . S
C50 C47 1.357 . S
C50 C51 1.312 . S
C51 H22 0.930 . S
C51 C46 1.261 . S
C51 C50 1.312 . S
C52 O24 1.214 . S
C52 O32 1.234 . S
C53 H25 0.929 . S
C53 C56 1.391 . S
C53 C58 1.391 . S
C54 H26 0.929 . S
C54 C55 1.390 . S
C54 N57 1.391 . S
C55 H27 0.930 . S
C55 C54 1.390 . S
C55 C56 1.392 . S
C56 H28 0.929 . S
C56 C53 1.391 . S
C56 C55 1.392 . S
N57 Co1 2.257 . S
N57 C54 1.391 . S
N57 C58 1.388 . S
C58 H29 0.930 . S
C58 C53 1.391 . S
C58 N57 1.388 . S
Co59 O61 2.143 . S
Co59 O67 2.074 . S
Co59 O70 2.093 . S
Co59 O83 2.097 . S
Co59 N100 2.151 . S
Co59 N108 2.214 . S
Co60 O61 2.160 . S
Co60 O66 2.058 . S
Co60 O76 2.057 . S
Co60 O91 2.037 . S
Co60 N95 2.145 . S
Co60 N116 2.257 . S
O61 Co59 2.143 . S
O61 Co60 2.160 . S
C62 O63 1.278 . S
C62 O70 1.224 . S
O63 C62 1.278 . S
C64 O65 1.245 . S
C64 O76 1.232 . S
O65 C64 1.245 . S
O66 Co60 2.058 . S
O66 C92 1.269 . S
O67 Co59 2.074 . S
O67 C92 1.257 . S
H68 C93 0.930 . S
H69 C99 0.930 . S
O70 Co59 2.093 . S
O70 C62 1.224 . S
H71 C103 0.929 . S
H72 C105 0.930 . S
H73 C106 0.930 . S
H74 C104 0.929 . S
H75 C107 0.928 . S
O76 Co60 2.057 . S
O76 C64 1.232 . S
H77 C96 0.929 . S
H78 C97 0.929 . S
H79 C109 0.931 . S
H80 C101 0.929 . S
H81 C110 0.930 . S
H82 C102 0.931 . S
O83 Co59 2.097 . S
O83 C111 1.214 . S
H84 C112 0.929 . S
H85 C113 0.929 . S
H86 C114 0.930 . S
H87 C115 0.929 . S
H88 C117 0.930 . S
H89 C94 0.930 . S
H90 C98 0.930 . S
O91 Co60 2.037 . S
O91 C111 1.234 . S
C92 O66 1.269 . S
C92 O67 1.257 . S
C93 H68 0.930 . S
C93 C96 1.388 . S
C93 C98 1.418 . S
C94 H89 0.930 . S
C94 C97 1.404 . S
C94 C98 1.353 . S
N95 Co60 2.145 . S
N95 C96 1.397 . S
N95 C97 1.334 . S
C96 H77 0.929 . S
C96 C93 1.388 . S
C96 N95 1.397 . S
C97 H78 0.929 . S
C97 C94 1.404 . S
C97 N95 1.334 . S
C98 H90 0.930 . S
C98 C93 1.418 . S
C98 C94 1.353 . S
C99 H69 0.930 . S
C99 N100 1.330 . S
C99 C101 1.446 . S
N100 Co59 2.151 . S
N100 C99 1.330 . S
N100 C104 1.418 . S
C101 H80 0.929 . S
C101 C99 1.446 . S
C101 C102 1.332 . S
C102 H82 0.931 . S
C102 C101 1.332 . S
C102 C103 1.267 . S
C103 H71 0.929 . S
C103 C102 1.267 . S
C103 C104 1.251 . S
C104 H74 0.929 . S
C104 N100 1.418 . S
C104 C103 1.251 . S
C105 H72 0.930 . S
C105 C107 1.406 . S
C105 C110 1.261 . S
C106 H73 0.930 . S
C106 N108 1.325 . S
C106 C109 1.357 . S
C107 H75 0.928 . S
C107 C105 1.406 . S
C107 N108 1.261 . S
N108 Co59 2.214 . S
N108 C106 1.325 . S
N108 C107 1.261 . S
C109 H79 0.931 . S
C109 C106 1.357 . S
C109 C110 1.312 . S
C110 H81 0.930 . S
C110 C105 1.261 . S
C110 C109 1.312 . S
C111 O83 1.214 . S
C111 O91 1.234 . S
C112 H84 0.929 . S
C112 C115 1.391 . S
C112 C117 1.391 . S
C113 H85 0.929 . S
C113 C114 1.390 . S
C113 N116 1.391 . S
C114 H86 0.930 . S
C114 C113 1.390 . S
C114 C115 1.392 . S
C115 H87 0.929 . S
C115 C112 1.391 . S
C115 C114 1.392 . S
N116 Co60 2.257 . S
N116 C113 1.391 . S
N116 C117 1.388 . S
C117 H88 0.930 . S
C117 C112 1.391 . S
C117 N116 1.388 . S
Co118 O120 2.143 . S
Co118 O126 2.074 . S
Co118 O129 2.093 . S
Co118 O142 2.097 . S
Co118 N159 2.151 . S
Co118 N167 2.214 . S
Co119 O120 2.160 . S
Co119 O125 2.058 . S
Co119 O135 2.057 . S
Co119 O150 2.037 . S
Co119 N154 2.145 . S
Co119 N175 2.257 . S
O120 Co118 2.143 . S
O120 Co119 2.160 . S
C121 O122 1.278 . S
C121 O129 1.224 . S
O122 C121 1.278 . S
C123 O124 1.245 . S
C123 O135 1.232 . S
O124 C123 1.245 . S
O125 Co119 2.058 . S
O125 C151 1.269 . S
O126 Co118 2.074 . S
O126 C151 1.257 . S
H127 C152 0.930 . S
H128 C158 0.930 . S
O129 Co118 2.093 . S
O129 C121 1.224 . S
H130 C162 0.929 . S
H131 C164 0.930 . S
H132 C165 0.930 . S
H133 C163 0.929 . S
H134 C166 0.928 . S
O135 Co119 2.057 . S
O135 C123 1.232 . S
H136 C155 0.929 . S
H137 C156 0.929 . S
H138 C168 0.931 . S
H139 C160 0.929 . S
H140 C169 0.930 . S
H141 C161 0.931 . S
O142 Co118 2.097 . S
O142 C170 1.214 . S
H143 C171 0.929 . S
H144 C172 0.929 . S
H145 C173 0.930 . S
H146 C174 0.929 . S
H147 C176 0.930 . S
H148 C153 0.930 . S
H149 C157 0.930 . S
O150 Co119 2.037 . S
O150 C170 1.234 . S
C151 O125 1.269 . S
C151 O126 1.257 . S
C152 H127 0.930 . S
C152 C155 1.388 . S
C152 C157 1.418 . S
C153 H148 0.930 . S
C153 C156 1.404 . S
C153 C157 1.353 . S
N154 Co119 2.145 . S
N154 C155 1.397 . S
N154 C156 1.334 . S
C155 H136 0.929 . S
C155 C152 1.388 . S
C155 N154 1.397 . S
C156 H137 0.929 . S
C156 C153 1.404 . S
C156 N154 1.334 . S
C157 H149 0.930 . S
C157 C152 1.418 . S
C157 C153 1.353 . S
C158 H128 0.930 . S
C158 N159 1.330 . S
C158 C160 1.446 . S
N159 Co118 2.151 . S
N159 C158 1.330 . S
N159 C163 1.418 . S
C160 H139 0.929 . S
C160 C158 1.446 . S
C160 C161 1.332 . S
C161 H141 0.931 . S
C161 C160 1.332 . S
C161 C162 1.267 . S
C162 H130 0.929 . S
C162 C161 1.267 . S
C162 C163 1.251 . S
C163 H133 0.929 . S
C163 N159 1.418 . S
C163 C162 1.251 . S
C164 H131 0.930 . S
C164 C166 1.406 . S
C164 C169 1.261 . S
C165 H132 0.930 . S
C165 N167 1.325 . S
C165 C168 1.357 . S
C166 H134 0.928 . S
C166 C164 1.406 . S
C166 N167 1.261 . S
N167 Co118 2.214 . S
N167 C165 1.325 . S
N167 C166 1.261 . S
C168 H138 0.931 . S
C168 C165 1.357 . S
C168 C169 1.312 . S
C169 H140 0.930 . S
C169 C164 1.261 . S
C169 C168 1.312 . S
C170 O142 1.214 . S
C170 O150 1.234 . S
C171 H143 0.929 . S
C171 C174 1.391 . S
C171 C176 1.391 . S
C172 H144 0.929 . S
C172 C173 1.390 . S
C172 N175 1.391 . S
C173 H145 0.930 . S
C173 C172 1.390 . S
C173 C174 1.392 . S
C174 H146 0.929 . S
C174 C171 1.391 . S
C174 C173 1.392 . S
N175 Co119 2.257 . S
N175 C172 1.391 . S
N175 C176 1.388 . S
C176 H147 0.930 . S
C176 C171 1.391 . S
C176 N175 1.388 . S
Co177 O179 2.143 . S
Co177 O185 2.074 . S
Co177 O188 2.093 . S
Co177 O201 2.097 . S
Co177 N218 2.151 . S
Co177 N226 2.214 . S
Co178 O179 2.160 . S
Co178 O184 2.058 . S
Co178 O194 2.057 . S
Co178 O209 2.037 . S
Co178 N213 2.145 . S
Co178 N234 2.257 . S
O179 Co177 2.143 . S
O179 Co178 2.160 . S
C180 O181 1.278 . S
C180 O188 1.224 . S
O181 C180 1.278 . S
C182 O183 1.245 . S
C182 O194 1.232 . S
O183 C182 1.245 . S
O184 Co178 2.058 . S
O184 C210 1.269 . S
O185 Co177 2.074 . S
O185 C210 1.257 . S
H186 C211 0.930 . S
H187 C217 0.930 . S
O188 Co177 2.093 . S
O188 C180 1.224 . S
H189 C221 0.929 . S
H190 C223 0.930 . S
H191 C224 0.930 . S
H192 C222 0.929 . S
H193 C225 0.928 . S
O194 Co178 2.057 . S
O194 C182 1.232 . S
H195 C214 0.929 . S
H196 C215 0.929 . S
H197 C227 0.931 . S
H198 C219 0.929 . S
H199 C228 0.930 . S
H200 C220 0.931 . S
O201 Co177 2.097 . S
O201 C229 1.214 . S
H202 C230 0.929 . S
H203 C231 0.929 . S
H204 C232 0.930 . S
H205 C233 0.929 . S
H206 C235 0.930 . S
H207 C212 0.930 . S
H208 C216 0.930 . S
O209 Co178 2.037 . S
O209 C229 1.234 . S
C210 O184 1.269 . S
C210 O185 1.257 . S
C211 H186 0.930 . S
C211 C214 1.388 . S
C211 C216 1.418 . S
C212 H207 0.930 . S
C212 C215 1.404 . S
C212 C216 1.353 . S
N213 Co178 2.145 . S
N213 C214 1.397 . S
N213 C215 1.334 . S
C214 H195 0.929 . S
C214 C211 1.388 . S
C214 N213 1.397 . S
C215 H196 0.929 . S
C215 C212 1.404 . S
C215 N213 1.334 . S
C216 H208 0.930 . S
C216 C211 1.418 . S
C216 C212 1.353 . S
C217 H187 0.930 . S
C217 N218 1.330 . S
C217 C219 1.446 . S
N218 Co177 2.151 . S
N218 C217 1.330 . S
N218 C222 1.418 . S
C219 H198 0.929 . S
C219 C217 1.446 . S
C219 C220 1.332 . S
C220 H200 0.931 . S
C220 C219 1.332 . S
C220 C221 1.267 . S
C221 H189 0.929 . S
C221 C220 1.267 . S
C221 C222 1.251 . S
C222 H192 0.929 . S
C222 N218 1.418 . S
C222 C221 1.251 . S
C223 H190 0.930 . S
C223 C225 1.406 . S
C223 C228 1.261 . S
C224 H191 0.930 . S
C224 N226 1.325 . S
C224 C227 1.357 . S
C225 H193 0.928 . S
C225 C223 1.406 . S
C225 N226 1.261 . S
N226 Co177 2.214 . S
N226 C224 1.325 . S
N226 C225 1.261 . S
C227 H197 0.931 . S
C227 C224 1.357 . S
C227 C228 1.312 . S
C228 H199 0.930 . S
C228 C223 1.261 . S
C228 C227 1.312 . S
C229 O201 1.214 . S
C229 O209 1.234 . S
C230 H202 0.929 . S
C230 C233 1.391 . S
C230 C235 1.391 . S
C231 H203 0.929 . S
C231 C232 1.390 . S
C231 N234 1.391 . S
C232 H204 0.930 . S
C232 C231 1.390 . S
C232 C233 1.392 . S
C233 H205 0.929 . S
C233 C230 1.391 . S
C233 C232 1.392 . S
N234 Co178 2.257 . S
N234 C231 1.391 . S
N234 C235 1.388 . S
C235 H206 0.930 . S
C235 C230 1.391 . S
C235 N234 1.388 . S
Co236 O238 2.143 . S
Co236 O244 2.074 . S
Co236 O247 2.093 . S
Co236 O260 2.097 . S
Co236 N277 2.151 . S
Co236 N285 2.214 . S
Co237 O238 2.160 . S
Co237 O243 2.058 . S
Co237 O253 2.057 . S
Co237 O268 2.037 . S
Co237 N272 2.145 . S
Co237 N293 2.257 . S
O238 Co236 2.143 . S
O238 Co237 2.160 . S
C239 O240 1.278 . S
C239 O247 1.224 . S
O240 C239 1.278 . S
C241 O242 1.245 . S
C241 O253 1.232 . S
O242 C241 1.245 . S
O243 Co237 2.058 . S
O243 C269 1.269 . S
O244 Co236 2.074 . S
O244 C269 1.257 . S
H245 C270 0.930 . S
H246 C276 0.930 . S
O247 Co236 2.093 . S
O247 C239 1.224 . S
H248 C280 0.929 . S
H249 C282 0.930 . S
H250 C283 0.930 . S
H251 C281 0.929 . S
H252 C284 0.928 . S
O253 Co237 2.057 . S
O253 C241 1.232 . S
H254 C273 0.929 . S
H255 C274 0.929 . S
H256 C286 0.931 . S
H257 C278 0.929 . S
H258 C287 0.930 . S
H259 C279 0.931 . S
O260 Co236 2.097 . S
O260 C288 1.214 . S
H261 C289 0.929 . S
H262 C290 0.929 . S
H263 C291 0.930 . S
H264 C292 0.929 . S
H265 C294 0.930 . S
H266 C271 0.930 . S
H267 C275 0.930 . S
O268 Co237 2.037 . S
O268 C288 1.234 . S
C269 O243 1.269 . S
C269 O244 1.257 . S
C270 H245 0.930 . S
C270 C273 1.388 . S
C270 C275 1.418 . S
C271 H266 0.930 . S
C271 C274 1.404 . S
C271 C275 1.353 . S
N272 Co237 2.145 . S
N272 C273 1.397 . S
N272 C274 1.334 . S
C273 H254 0.929 . S
C273 C270 1.388 . S
C273 N272 1.397 . S
C274 H255 0.929 . S
C274 C271 1.404 . S
C274 N272 1.334 . S
C275 H267 0.930 . S
C275 C270 1.418 . S
C275 C271 1.353 . S
C276 H246 0.930 . S
C276 N277 1.330 . S
C276 C278 1.446 . S
N277 Co236 2.151 . S
N277 C276 1.330 . S
N277 C281 1.418 . S
C278 H257 0.929 . S
C278 C276 1.446 . S
C278 C279 1.332 . S
C279 H259 0.931 . S
C279 C278 1.332 . S
C279 C280 1.267 . S
C280 H248 0.929 . S
C280 C279 1.267 . S
C280 C281 1.251 . S
C281 H251 0.929 . S
C281 N277 1.418 . S
C281 C280 1.251 . S
C282 H249 0.930 . S
C282 C284 1.406 . S
C282 C287 1.261 . S
C283 H250 0.930 . S
C283 N285 1.325 . S
C283 C286 1.357 . S
C284 H252 0.928 . S
C284 C282 1.406 . S
C284 N285 1.261 . S
N285 Co236 2.214 . S
N285 C283 1.325 . S
N285 C284 1.261 . S
C286 H256 0.931 . S
C286 C283 1.357 . S
C286 C287 1.312 . S
C287 H258 0.930 . S
C287 C282 1.261 . S
C287 C286 1.312 . S
C288 O260 1.214 . S
C288 O268 1.234 . S
C289 H261 0.929 . S
C289 C292 1.391 . S
C289 C294 1.391 . S
C290 H262 0.929 . S
C290 C291 1.390 . S
C290 N293 1.391 . S
C291 H263 0.930 . S
C291 C290 1.390 . S
C291 C292 1.392 . S
C292 H264 0.929 . S
C292 C289 1.391 . S
C292 C291 1.392 . S
N293 Co237 2.257 . S
N293 C290 1.391 . S
N293 C294 1.388 . S
C294 H265 0.930 . S
C294 C289 1.391 . S
C294 N293 1.388 . S
Co295 O297 2.143 . S
Co295 O303 2.074 . S
Co295 O306 2.093 . S
Co295 O319 2.097 . S
Co295 N336 2.151 . S
Co295 N344 2.214 . S
Co296 O297 2.160 . S
Co296 O302 2.058 . S
Co296 O312 2.057 . S
Co296 O327 2.037 . S
Co296 N331 2.145 . S
Co296 N352 2.257 . S
O297 Co295 2.143 . S
O297 Co296 2.160 . S
C298 O299 1.278 . S
C298 O306 1.224 . S
O299 C298 1.278 . S
C300 O301 1.245 . S
C300 O312 1.232 . S
O301 C300 1.245 . S
O302 Co296 2.058 . S
O302 C328 1.269 . S
O303 Co295 2.074 . S
O303 C328 1.257 . S
H304 C329 0.930 . S
H305 C335 0.930 . S
O306 Co295 2.093 . S
O306 C298 1.224 . S
H307 C339 0.929 . S
H308 C341 0.930 . S
H309 C342 0.930 . S
H310 C340 0.929 . S
H311 C343 0.928 . S
O312 Co296 2.057 . S
O312 C300 1.232 . S
H313 C332 0.929 . S
H314 C333 0.929 . S
H315 C345 0.931 . S
H316 C337 0.929 . S
H317 C346 0.930 . S
H318 C338 0.931 . S
O319 Co295 2.097 . S
O319 C347 1.214 . S
H320 C348 0.929 . S
H321 C349 0.929 . S
H322 C350 0.930 . S
H323 C351 0.929 . S
H324 C353 0.930 . S
H325 C330 0.930 . S
H326 C334 0.930 . S
O327 Co296 2.037 . S
O327 C347 1.234 . S
C328 O302 1.269 . S
C328 O303 1.257 . S
C329 H304 0.930 . S
C329 C332 1.388 . S
C329 C334 1.418 . S
C330 H325 0.930 . S
C330 C333 1.404 . S
C330 C334 1.353 . S
N331 Co296 2.145 . S
N331 C332 1.397 . S
N331 C333 1.334 . S
C332 H313 0.929 . S
C332 C329 1.388 . S
C332 N331 1.397 . S
C333 H314 0.929 . S
C333 C330 1.404 . S
C333 N331 1.334 . S
C334 H326 0.930 . S
C334 C329 1.418 . S
C334 C330 1.353 . S
C335 H305 0.930 . S
C335 N336 1.330 . S
C335 C337 1.446 . S
N336 Co295 2.151 . S
N336 C335 1.330 . S
N336 C340 1.418 . S
C337 H316 0.929 . S
C337 C335 1.446 . S
C337 C338 1.332 . S
C338 H318 0.931 . S
C338 C337 1.332 . S
C338 C339 1.267 . S
C339 H307 0.929 . S
C339 C338 1.267 . S
C339 C340 1.251 . S
C340 H310 0.929 . S
C340 N336 1.418 . S
C340 C339 1.251 . S
C341 H308 0.930 . S
C341 C343 1.406 . S
C341 C346 1.261 . S
C342 H309 0.930 . S
C342 N344 1.325 . S
C342 C345 1.357 . S
C343 H311 0.928 . S
C343 C341 1.406 . S
C343 N344 1.261 . S
N344 Co295 2.214 . S
N344 C342 1.325 . S
N344 C343 1.261 . S
C345 H315 0.931 . S
C345 C342 1.357 . S
C345 C346 1.312 . S
C346 H317 0.930 . S
C346 C341 1.261 . S
C346 C345 1.312 . S
C347 O319 1.214 . S
C347 O327 1.234 . S
C348 H320 0.929 . S
C348 C351 1.391 . S
C348 C353 1.391 . S
C349 H321 0.929 . S
C349 C350 1.390 . S
C349 N352 1.391 . S
C350 H322 0.930 . S
C350 C349 1.390 . S
C350 C351 1.392 . S
C351 H323 0.929 . S
C351 C348 1.391 . S
C351 C350 1.392 . S
N352 Co296 2.257 . S
N352 C349 1.391 . S
N352 C353 1.388 . S
C353 H324 0.930 . S
C353 C348 1.391 . S
C353 N352 1.388 . S
Co354 O356 2.143 . S
Co354 O362 2.074 . S
Co354 O365 2.093 . S
Co354 O378 2.097 . S
Co354 N395 2.151 . S
Co354 N403 2.214 . S
Co355 O356 2.160 . S
Co355 O361 2.058 . S
Co355 O371 2.057 . S
Co355 O386 2.037 . S
Co355 N390 2.145 . S
Co355 N411 2.257 . S
O356 Co354 2.143 . S
O356 Co355 2.160 . S
C357 O358 1.278 . S
C357 O365 1.224 . S
O358 C357 1.278 . S
C359 O360 1.245 . S
C359 O371 1.232 . S
O360 C359 1.245 . S
O361 Co355 2.058 . S
O361 C387 1.269 . S
O362 Co354 2.074 . S
O362 C387 1.257 . S
H363 C388 0.930 . S
H364 C394 0.930 . S
O365 Co354 2.093 . S
O365 C357 1.224 . S
H366 C398 0.929 . S
H367 C400 0.930 . S
H368 C401 0.930 . S
H369 C399 0.929 . S
H370 C402 0.928 . S
O371 Co355 2.057 . S
O371 C359 1.232 . S
H372 C391 0.929 . S
H373 C392 0.929 . S
H374 C404 0.931 . S
H375 C396 0.929 . S
H376 C405 0.930 . S
H377 C397 0.931 . S
O378 Co354 2.097 . S
O378 C406 1.214 . S
H379 C407 0.929 . S
H380 C408 0.929 . S
H381 C409 0.930 . S
H382 C410 0.929 . S
H383 C412 0.930 . S
H384 C389 0.930 . S
H385 C393 0.930 . S
O386 Co355 2.037 . S
O386 C406 1.234 . S
C387 O361 1.269 . S
C387 O362 1.257 . S
C388 H363 0.930 . S
C388 C391 1.388 . S
C388 C393 1.418 . S
C389 H384 0.930 . S
C389 C392 1.404 . S
C389 C393 1.353 . S
N390 Co355 2.145 . S
N390 C391 1.397 . S
N390 C392 1.334 . S
C391 H372 0.929 . S
C391 C388 1.388 . S
C391 N390 1.397 . S
C392 H373 0.929 . S
C392 C389 1.404 . S
C392 N390 1.334 . S
C393 H385 0.930 . S
C393 C388 1.418 . S
C393 C389 1.353 . S
C394 H364 0.930 . S
C394 N395 1.330 . S
C394 C396 1.446 . S
N395 Co354 2.151 . S
N395 C394 1.330 . S
N395 C399 1.418 . S
C396 H375 0.929 . S
C396 C394 1.446 . S
C396 C397 1.332 . S
C397 H377 0.931 . S
C397 C396 1.332 . S
C397 C398 1.267 . S
C398 H366 0.929 . S
C398 C397 1.267 . S
C398 C399 1.251 . S
C399 H369 0.929 . S
C399 N395 1.418 . S
C399 C398 1.251 . S
C400 H367 0.930 . S
C400 C402 1.406 . S
C400 C405 1.261 . S
C401 H368 0.930 . S
C401 N403 1.325 . S
C401 C404 1.357 . S
C402 H370 0.928 . S
C402 C400 1.406 . S
C402 N403 1.261 . S
N403 Co354 2.214 . S
N403 C401 1.325 . S
N403 C402 1.261 . S
C404 H374 0.931 . S
C404 C401 1.357 . S
C404 C405 1.312 . S
C405 H376 0.930 . S
C405 C400 1.261 . S
C405 C404 1.312 . S
C406 O378 1.214 . S
C406 O386 1.234 . S
C407 H379 0.929 . S
C407 C410 1.391 . S
C407 C412 1.391 . S
C408 H380 0.929 . S
C408 C409 1.390 . S
C408 N411 1.391 . S
C409 H381 0.930 . S
C409 C408 1.390 . S
C409 C410 1.392 . S
C410 H382 0.929 . S
C410 C407 1.391 . S
C410 C409 1.392 . S
N411 Co355 2.257 . S
N411 C408 1.391 . S
N411 C412 1.388 . S
C412 H383 0.930 . S
C412 C407 1.391 . S
C412 N411 1.388 . S
Co413 O415 2.143 . S
Co413 O421 2.074 . S
Co413 O424 2.093 . S
Co413 O437 2.097 . S
Co413 N454 2.151 . S
Co413 N462 2.214 . S
Co414 O415 2.160 . S
Co414 O420 2.058 . S
Co414 O430 2.057 . S
Co414 O445 2.037 . S
Co414 N449 2.145 . S
Co414 N470 2.257 . S
O415 Co413 2.143 . S
O415 Co414 2.160 . S
C416 O417 1.278 . S
C416 O424 1.224 . S
O417 C416 1.278 . S
C418 O419 1.245 . S
C418 O430 1.232 . S
O419 C418 1.245 . S
O420 Co414 2.058 . S
O420 C446 1.269 . S
O421 Co413 2.074 . S
O421 C446 1.257 . S
H422 C447 0.930 . S
H423 C453 0.930 . S
O424 Co413 2.093 . S
O424 C416 1.224 . S
H425 C457 0.929 . S
H426 C459 0.930 . S
H427 C460 0.930 . S
H428 C458 0.929 . S
H429 C461 0.928 . S
O430 Co414 2.057 . S
O430 C418 1.232 . S
H431 C450 0.929 . S
H432 C451 0.929 . S
H433 C463 0.931 . S
H434 C455 0.929 . S
H435 C464 0.930 . S
H436 C456 0.931 . S
O437 Co413 2.097 . S
O437 C465 1.214 . S
H438 C466 0.929 . S
H439 C467 0.929 . S
H440 C468 0.930 . S
H441 C469 0.929 . S
H442 C471 0.930 . S
H443 C448 0.930 . S
H444 C452 0.930 . S
O445 Co414 2.037 . S
O445 C465 1.234 . S
C446 O420 1.269 . S
C446 O421 1.257 . S
C447 H422 0.930 . S
C447 C450 1.388 . S
C447 C452 1.418 . S
C448 H443 0.930 . S
C448 C451 1.404 . S
C448 C452 1.353 . S
N449 Co414 2.145 . S
N449 C450 1.397 . S
N449 C451 1.334 . S
C450 H431 0.929 . S
C450 C447 1.388 . S
C450 N449 1.397 . S
C451 H432 0.929 . S
C451 C448 1.404 . S
C451 N449 1.334 . S
C452 H444 0.930 . S
C452 C447 1.418 . S
C452 C448 1.353 . S
C453 H423 0.930 . S
C453 N454 1.330 . S
C453 C455 1.446 . S
N454 Co413 2.151 . S
N454 C453 1.330 . S
N454 C458 1.418 . S
C455 H434 0.929 . S
C455 C453 1.446 . S
C455 C456 1.332 . S
C456 H436 0.931 . S
C456 C455 1.332 . S
C456 C457 1.267 . S
C457 H425 0.929 . S
C457 C456 1.267 . S
C457 C458 1.251 . S
C458 H428 0.929 . S
C458 N454 1.418 . S
C458 C457 1.251 . S
C459 H426 0.930 . S
C459 C461 1.406 . S
C459 C464 1.261 . S
C460 H427 0.930 . S
C460 N462 1.325 . S
C460 C463 1.357 . S
C461 H429 0.928 . S
C461 C459 1.406 . S
C461 N462 1.261 . S
N462 Co413 2.214 . S
N462 C460 1.325 . S
N462 C461 1.261 . S
C463 H433 0.931 . S
C463 C460 1.357 . S
C463 C464 1.312 . S
C464 H435 0.930 . S
C464 C459 1.261 . S
C464 C463 1.312 . S
C465 O437 1.214 . S
C465 O445 1.234 . S
C466 H438 0.929 . S
C466 C469 1.391 . S
C466 C471 1.391 . S
C467 H439 0.929 . S
C467 C468 1.390 . S
C467 N470 1.391 . S
C468 H440 0.930 . S
C468 C467 1.390 . S
C468 C469 1.392 . S
C469 H441 0.929 . S
C469 C466 1.391 . S
C469 C468 1.392 . S
N470 Co414 2.257 . S
N470 C467 1.391 . S
N470 C471 1.388 . S
C471 H442 0.930 . S
C471 C466 1.391 . S
C471 N470 1.388 . S
Co472 O474 2.143 . S
Co472 O480 2.074 . S
Co472 O483 2.093 . S
Co472 O496 2.097 . S
Co472 N513 2.151 . S
Co472 N521 2.214 . S
Co473 O474 2.160 . S
Co473 O479 2.058 . S
Co473 O489 2.057 . S
Co473 O504 2.037 . S
Co473 N508 2.145 . S
Co473 N529 2.257 . S
O474 Co472 2.143 . S
O474 Co473 2.160 . S
C475 O476 1.278 . S
C475 O483 1.224 . S
O476 C475 1.278 . S
C477 O478 1.245 . S
C477 O489 1.232 . S
O478 C477 1.245 . S
O479 Co473 2.058 . S
O479 C505 1.269 . S
O480 Co472 2.074 . S
O480 C505 1.257 . S
H481 C506 0.930 . S
H482 C512 0.930 . S
O483 Co472 2.093 . S
O483 C475 1.224 . S
H484 C516 0.929 . S
H485 C518 0.930 . S
H486 C519 0.930 . S
H487 C517 0.929 . S
H488 C520 0.928 . S
O489 Co473 2.057 . S
O489 C477 1.232 . S
H490 C509 0.929 . S
H491 C510 0.929 . S
H492 C522 0.931 . S
H493 C514 0.929 . S
H494 C523 0.930 . S
H495 C515 0.931 . S
O496 Co472 2.097 . S
O496 C524 1.214 . S
H497 C525 0.929 . S
H498 C526 0.929 . S
H499 C527 0.930 . S
H500 C528 0.929 . S
H501 C530 0.930 . S
H502 C507 0.930 . S
H503 C511 0.930 . S
O504 Co473 2.037 . S
O504 C524 1.234 . S
C505 O479 1.269 . S
C505 O480 1.257 . S
C506 H481 0.930 . S
C506 C509 1.388 . S
C506 C511 1.418 . S
C507 H502 0.930 . S
C507 C510 1.404 . S
C507 C511 1.353 . S
N508 Co473 2.145 . S
N508 C509 1.397 . S
N508 C510 1.334 . S
C509 H490 0.929 . S
C509 C506 1.388 . S
C509 N508 1.397 . S
C510 H491 0.929 . S
C510 C507 1.404 . S
C510 N508 1.334 . S
C511 H503 0.930 . S
C511 C506 1.418 . S
C511 C507 1.353 . S
C512 H482 0.930 . S
C512 N513 1.330 . S
C512 C514 1.446 . S
N513 Co472 2.151 . S
N513 C512 1.330 . S
N513 C517 1.418 . S
C514 H493 0.929 . S
C514 C512 1.446 . S
C514 C515 1.332 . S
C515 H495 0.931 . S
C515 C514 1.332 . S
C515 C516 1.267 . S
C516 H484 0.929 . S
C516 C515 1.267 . S
C516 C517 1.251 . S
C517 H487 0.929 . S
C517 N513 1.418 . S
C517 C516 1.251 . S
C518 H485 0.930 . S
C518 C520 1.406 . S
C518 C523 1.261 . S
C519 H486 0.930 . S
C519 N521 1.325 . S
C519 C522 1.357 . S
C520 H488 0.928 . S
C520 C518 1.406 . S
C520 N521 1.261 . S
N521 Co472 2.214 . S
N521 C519 1.325 . S
N521 C520 1.261 . S
C522 H492 0.931 . S
C522 C519 1.357 . S
C522 C523 1.312 . S
C523 H494 0.930 . S
C523 C518 1.261 . S
C523 C522 1.312 . S
C524 O496 1.214 . S
C524 O504 1.234 . S
C525 H497 0.929 . S
C525 C528 1.391 . S
C525 C530 1.391 . S
C526 H498 0.929 . S
C526 C527 1.390 . S
C526 N529 1.391 . S
C527 H499 0.930 . S
C527 C526 1.390 . S
C527 C528 1.392 . S
C528 H500 0.929 . S
C528 C525 1.391 . S
C528 C527 1.392 . S
N529 Co473 2.257 . S
N529 C526 1.391 . S
N529 C530 1.388 . S
C530 H501 0.930 . S
C530 C525 1.391 . S
C530 N529 1.388 . S
Co531 O533 2.143 . S
Co531 O539 2.074 . S
Co531 O542 2.093 . S
Co531 O555 2.097 . S
Co531 N572 2.151 . S
Co531 N580 2.214 . S
Co532 O533 2.160 . S
Co532 O538 2.058 . S
Co532 O548 2.057 . S
Co532 O563 2.037 . S
Co532 N567 2.145 . S
Co532 N588 2.257 . S
O533 Co531 2.143 . S
O533 Co532 2.160 . S
C534 O535 1.278 . S
C534 O542 1.224 . S
O535 C534 1.278 . S
C536 O537 1.245 . S
C536 O548 1.232 . S
O537 C536 1.245 . S
O538 Co532 2.058 . S
O538 C564 1.269 . S
O539 Co531 2.074 . S
O539 C564 1.257 . S
H540 C565 0.930 . S
H541 C571 0.930 . S
O542 Co531 2.093 . S
O542 C534 1.224 . S
H543 C575 0.929 . S
H544 C577 0.930 . S
H545 C578 0.930 . S
H546 C576 0.929 . S
H547 C579 0.928 . S
O548 Co532 2.057 . S
O548 C536 1.232 . S
H549 C568 0.929 . S
H550 C569 0.929 . S
H551 C581 0.931 . S
H552 C573 0.929 . S
H553 C582 0.930 . S
H554 C574 0.931 . S
O555 Co531 2.097 . S
O555 C583 1.214 . S
H556 C584 0.929 . S
H557 C585 0.929 . S
H558 C586 0.930 . S
H559 C587 0.929 . S
H560 C589 0.930 . S
H561 C566 0.930 . S
H562 C570 0.930 . S
O563 Co532 2.037 . S
O563 C583 1.234 . S
C564 O538 1.269 . S
C564 O539 1.257 . S
C565 H540 0.930 . S
C565 C568 1.388 . S
C565 C570 1.418 . S
C566 H561 0.930 . S
C566 C569 1.404 . S
C566 C570 1.353 . S
N567 Co532 2.145 . S
N567 C568 1.397 . S
N567 C569 1.334 . S
C568 H549 0.929 . S
C568 C565 1.388 . S
C568 N567 1.397 . S
C569 H550 0.929 . S
C569 C566 1.404 . S
C569 N567 1.334 . S
C570 H562 0.930 . S
C570 C565 1.418 . S
C570 C566 1.353 . S
C571 H541 0.930 . S
C571 N572 1.330 . S
C571 C573 1.446 . S
N572 Co531 2.151 . S
N572 C571 1.330 . S
N572 C576 1.418 . S
C573 H552 0.929 . S
C573 C571 1.446 . S
C573 C574 1.332 . S
C574 H554 0.931 . S
C574 C573 1.332 . S
C574 C575 1.267 . S
C575 H543 0.929 . S
C575 C574 1.267 . S
C575 C576 1.251 . S
C576 H546 0.929 . S
C576 N572 1.418 . S
C576 C575 1.251 . S
C577 H544 0.930 . S
C577 C579 1.406 . S
C577 C582 1.261 . S
C578 H545 0.930 . S
C578 N580 1.325 . S
C578 C581 1.357 . S
C579 H547 0.928 . S
C579 C577 1.406 . S
C579 N580 1.261 . S
N580 Co531 2.214 . S
N580 C578 1.325 . S
N580 C579 1.261 . S
C581 H551 0.931 . S
C581 C578 1.357 . S
C581 C582 1.312 . S
C582 H553 0.930 . S
C582 C577 1.261 . S
C582 C581 1.312 . S
C583 O555 1.214 . S
C583 O563 1.234 . S
C584 H556 0.929 . S
C584 C587 1.391 . S
C584 C589 1.391 . S
C585 H557 0.929 . S
C585 C586 1.390 . S
C585 N588 1.391 . S
C586 H558 0.930 . S
C586 C585 1.390 . S
C586 C587 1.392 . S
C587 H559 0.929 . S
C587 C584 1.391 . S
C587 C586 1.392 . S
N588 Co532 2.257 . S
N588 C585 1.391 . S
N588 C589 1.388 . S
C589 H560 0.930 . S
C589 C584 1.391 . S
C589 N588 1.388 . S
Co590 O592 2.143 . S
Co590 O598 2.074 . S
Co590 O601 2.093 . S
Co590 O614 2.097 . S
Co590 N631 2.151 . S
Co590 N639 2.214 . S
Co591 O592 2.160 . S
Co591 O597 2.058 . S
Co591 O607 2.057 . S
Co591 O622 2.037 . S
Co591 N626 2.145 . S
Co591 N647 2.257 . S
O592 Co590 2.143 . S
O592 Co591 2.160 . S
C593 O594 1.278 . S
C593 O601 1.224 . S
O594 C593 1.278 . S
C595 O596 1.245 . S
C595 O607 1.232 . S
O596 C595 1.245 . S
O597 Co591 2.058 . S
O597 C623 1.269 . S
O598 Co590 2.074 . S
O598 C623 1.257 . S
H599 C624 0.930 . S
H600 C630 0.930 . S
O601 Co590 2.093 . S
O601 C593 1.224 . S
H602 C634 0.929 . S
H603 C636 0.930 . S
H604 C637 0.930 . S
H605 C635 0.929 . S
H606 C638 0.928 . S
O607 Co591 2.057 . S
O607 C595 1.232 . S
H608 C627 0.929 . S
H609 C628 0.929 . S
H610 C640 0.931 . S
H611 C632 0.929 . S
H612 C641 0.930 . S
H613 C633 0.931 . S
O614 Co590 2.097 . S
O614 C642 1.214 . S
H615 C643 0.929 . S
H616 C644 0.929 . S
H617 C645 0.930 . S
H618 C646 0.929 . S
H619 C648 0.930 . S
H620 C625 0.930 . S
H621 C629 0.930 . S
O622 Co591 2.037 . S
O622 C642 1.234 . S
C623 O597 1.269 . S
C623 O598 1.257 . S
C624 H599 0.930 . S
C624 C627 1.388 . S
C624 C629 1.418 . S
C625 H620 0.930 . S
C625 C628 1.404 . S
C625 C629 1.353 . S
N626 Co591 2.145 . S
N626 C627 1.397 . S
N626 C628 1.334 . S
C627 H608 0.929 . S
C627 C624 1.388 . S
C627 N626 1.397 . S
C628 H609 0.929 . S
C628 C625 1.404 . S
C628 N626 1.334 . S
C629 H621 0.930 . S
C629 C624 1.418 . S
C629 C625 1.353 . S
C630 H600 0.930 . S
C630 N631 1.330 . S
C630 C632 1.446 . S
N631 Co590 2.151 . S
N631 C630 1.330 . S
N631 C635 1.418 . S
C632 H611 0.929 . S
C632 C630 1.446 . S
C632 C633 1.332 . S
C633 H613 0.931 . S
C633 C632 1.332 . S
C633 C634 1.267 . S
C634 H602 0.929 . S
C634 C633 1.267 . S
C634 C635 1.251 . S
C635 H605 0.929 . S
C635 N631 1.418 . S
C635 C634 1.251 . S
C636 H603 0.930 . S
C636 C638 1.406 . S
C636 C641 1.261 . S
C637 H604 0.930 . S
C637 N639 1.325 . S
C637 C640 1.357 . S
C638 H606 0.928 . S
C638 C636 1.406 . S
C638 N639 1.261 . S
N639 Co590 2.214 . S
N639 C637 1.325 . S
N639 C638 1.261 . S
C640 H610 0.931 . S
C640 C637 1.357 . S
C640 C641 1.312 . S
C641 H612 0.930 . S
C641 C636 1.261 . S
C641 C640 1.312 . S
C642 O614 1.214 . S
C642 O622 1.234 . S
C643 H615 0.929 . S
C643 C646 1.391 . S
C643 C648 1.391 . S
C644 H616 0.929 . S
C644 C645 1.390 . S
C644 N647 1.391 . S
C645 H617 0.930 . S
C645 C644 1.390 . S
C645 C646 1.392 . S
C646 H618 0.929 . S
C646 C643 1.391 . S
C646 C645 1.392 . S
N647 Co591 2.257 . S
N647 C644 1.391 . S
N647 C648 1.388 . S
C648 H619 0.930 . S
C648 C643 1.391 . S
C648 N647 1.388 . S
Co649 O651 2.143 . S
Co649 O657 2.074 . S
Co649 O660 2.093 . S
Co649 O673 2.097 . S
Co649 N690 2.151 . S
Co649 N698 2.214 . S
Co650 O651 2.160 . S
Co650 O656 2.058 . S
Co650 O666 2.057 . S
Co650 O681 2.037 . S
Co650 N685 2.145 . S
Co650 N706 2.257 . S
O651 Co649 2.143 . S
O651 Co650 2.160 . S
C652 O653 1.278 . S
C652 O660 1.224 . S
O653 C652 1.278 . S
C654 O655 1.245 . S
C654 O666 1.232 . S
O655 C654 1.245 . S
O656 Co650 2.058 . S
O656 C682 1.269 . S
O657 Co649 2.074 . S
O657 C682 1.257 . S
H658 C683 0.930 . S
H659 C689 0.930 . S
O660 Co649 2.093 . S
O660 C652 1.224 . S
H661 C693 0.929 . S
H662 C695 0.930 . S
H663 C696 0.930 . S
H664 C694 0.929 . S
H665 C697 0.928 . S
O666 Co650 2.057 . S
O666 C654 1.232 . S
H667 C686 0.929 . S
H668 C687 0.929 . S
H669 C699 0.931 . S
H670 C691 0.929 . S
H671 C700 0.930 . S
H672 C692 0.931 . S
O673 Co649 2.097 . S
O673 C701 1.214 . S
H674 C702 0.929 . S
H675 C703 0.929 . S
H676 C704 0.930 . S
H677 C705 0.929 . S
H678 C707 0.930 . S
H679 C684 0.930 . S
H680 C688 0.930 . S
O681 Co650 2.037 . S
O681 C701 1.234 . S
C682 O656 1.269 . S
C682 O657 1.257 . S
C683 H658 0.930 . S
C683 C686 1.388 . S
C683 C688 1.418 . S
C684 H679 0.930 . S
C684 C687 1.404 . S
C684 C688 1.353 . S
N685 Co650 2.145 . S
N685 C686 1.397 . S
N685 C687 1.334 . S
C686 H667 0.929 . S
C686 C683 1.388 . S
C686 N685 1.397 . S
C687 H668 0.929 . S
C687 C684 1.404 . S
C687 N685 1.334 . S
C688 H680 0.930 . S
C688 C683 1.418 . S
C688 C684 1.353 . S
C689 H659 0.930 . S
C689 N690 1.330 . S
C689 C691 1.446 . S
N690 Co649 2.151 . S
N690 C689 1.330 . S
N690 C694 1.418 . S
C691 H670 0.929 . S
C691 C689 1.446 . S
C691 C692 1.332 . S
C692 H672 0.931 . S
C692 C691 1.332 . S
C692 C693 1.267 . S
C693 H661 0.929 . S
C693 C692 1.267 . S
C693 C694 1.251 . S
C694 H664 0.929 . S
C694 N690 1.418 . S
C694 C693 1.251 . S
C695 H662 0.930 . S
C695 C697 1.406 . S
C695 C700 1.261 . S
C696 H663 0.930 . S
C696 N698 1.325 . S
C696 C699 1.357 . S
C697 H665 0.928 . S
C697 C695 1.406 . S
C697 N698 1.261 . S
N698 Co649 2.214 . S
N698 C696 1.325 . S
N698 C697 1.261 . S
C699 H669 0.931 . S
C699 C696 1.357 . S
C699 C700 1.312 . S
C700 H671 0.930 . S
C700 C695 1.261 . S
C700 C699 1.312 . S
C701 O673 1.214 . S
C701 O681 1.234 . S
C702 H674 0.929 . S
C702 C705 1.391 . S
C702 C707 1.391 . S
C703 H675 0.929 . S
C703 C704 1.390 . S
C703 N706 1.391 . S
C704 H676 0.930 . S
C704 C703 1.390 . S
C704 C705 1.392 . S
C705 H677 0.929 . S
C705 C702 1.391 . S
C705 C704 1.392 . S
N706 Co650 2.257 . S
N706 C703 1.391 . S
N706 C707 1.388 . S
C707 H678 0.930 . S
C707 C702 1.391 . S
C707 N706 1.388 . S
H708 C726 0.951 . S
H709 C728 0.951 . S
H710 C730 0.950 . S
H711 C731 0.950 . S
H712 C733 0.950 . S
H713 C736 0.950 . S
H714 C737 0.950 . S
H715 C739 0.950 . S
H716 C740 0.950 . S
H717 C741 0.951 . S
H718 C743 0.951 . S
H719 C745 0.950 . S
H720 C746 0.950 . S
H721 C748 0.950 . S
H722 C751 0.950 . S
H723 C752 0.950 . S
H724 C754 0.950 . S
H725 C755 0.950 . S
C726 H708 0.951 . S
C726 C727 1.366 . S
C726 C728 1.388 . S
C727 C726 1.366 . S
C727 C731 1.385 . S
C728 H709 0.951 . S
C728 C726 1.388 . S
C728 C729 1.366 . S
C729 C728 1.366 . S
C729 C730 1.414 . S
C729 C732 1.499 . S
C730 H710 0.950 . S
C730 C729 1.414 . S
C730 C731 1.374 . S
C731 H711 0.950 . S
C731 C727 1.385 . S
C731 C730 1.374 . S
C732 C729 1.499 . S
C732 C733 1.373 . S
C732 C734 1.389 . S
C733 H712 0.950 . S
C733 C732 1.373 . S
C733 C749 1.377 1_556 S
C734 C732 1.389 . S
C734 C735 1.524 . S
C734 C748 1.377 1_556 S
C735 C734 1.524 . S
C735 C736 1.397 . S
C735 C740 1.363 . S
C736 H713 0.950 . S
C736 C735 1.397 . S
C736 C737 1.334 . S
C737 H714 0.950 . S
C737 C736 1.334 . S
C737 C738 1.287 . S
C738 C737 1.287 . S
C738 C739 1.524 . S
C738 H757 0.913 . S
C739 H715 0.950 . S
C739 C738 1.524 . S
C739 C740 1.415 . S
C740 H716 0.950 . S
C740 C735 1.363 . S
C740 C739 1.415 . S
C741 H717 0.951 . S
C741 C742 1.366 . S
C741 C743 1.388 . S
C742 C741 1.366 . S
C742 C746 1.385 . S
C743 H718 0.951 . S
C743 C741 1.388 . S
C743 C744 1.366 . S
C744 C743 1.366 . S
C744 C745 1.414 . S
C744 C747 1.499 . S
C745 H719 0.950 . S
C745 C744 1.414 . S
C745 C746 1.374 . S
C746 H720 0.950 . S
C746 C742 1.385 . S
C746 C745 1.374 . S
C747 C744 1.499 . S
C747 C748 1.373 . S
C747 C749 1.389 . S
C748 H721 0.950 . S
C748 C734 1.377 1_554 S
C748 C747 1.373 . S
C749 C733 1.377 1_554 S
C749 C747 1.389 . S
C749 C750 1.524 . S
C750 C749 1.524 . S
C750 C751 1.397 . S
C750 C755 1.363 . S
C751 H722 0.950 . S
C751 C750 1.397 . S
C751 C752 1.334 . S
C752 H723 0.950 . S
C752 C751 1.334 . S
C752 C753 1.287 . S
C753 C752 1.287 . S
C753 C754 1.524 . S
C753 H756 0.999 . S
C754 H724 0.950 . S
C754 C753 1.524 . S
C754 C755 1.415 . S
C755 H725 0.950 . S
C755 C750 1.363 . S
C755 C754 1.415 . S
H756 C753 0.999 . S
H757 C738 0.913 . S
H758 C776 0.951 . S
H759 C778 0.951 . S
H760 C780 0.950 . S
H761 C781 0.950 . S
H762 C783 0.950 . S
H763 C786 0.950 . S
H764 C787 0.950 . S
H765 C789 0.950 . S
H766 C790 0.950 . S
H767 C791 0.951 . S
H768 C793 0.951 . S
H769 C795 0.950 . S
H770 C796 0.950 . S
H771 C798 0.950 . S
H772 C801 0.950 . S
H773 C802 0.950 . S
H774 C804 0.950 . S
H775 C805 0.950 . S
C776 H758 0.951 . S
C776 C777 1.366 . S
C776 C778 1.388 . S
C777 C776 1.366 . S
C777 C781 1.385 . S
C778 H759 0.951 . S
C778 C776 1.388 . S
C778 C779 1.366 . S
C779 C778 1.366 . S
C779 C780 1.414 . S
C779 C782 1.499 . S
C780 H760 0.950 . S
C780 C779 1.414 . S
C780 C781 1.374 . S
C781 H761 0.950 . S
C781 C777 1.385 . S
C781 C780 1.374 . S
C782 C779 1.499 . S
C782 C783 1.373 . S
C782 C784 1.389 . S
C783 H762 0.950 . S
C783 C782 1.373 . S
C783 C799 1.377 . S
C784 C782 1.389 . S
C784 C785 1.524 . S
C784 C798 1.377 . S
C785 C784 1.524 . S
C785 C786 1.397 . S
C785 C790 1.363 . S
C786 H763 0.950 . S
C786 C785 1.397 . S
C786 C787 1.334 . S
C787 H764 0.950 . S
C787 C786 1.334 . S
C787 C788 1.287 . S
C788 C787 1.287 . S
C788 C789 1.524 . S
C788 H807 0.913 . S
C789 H765 0.950 . S
C789 C788 1.524 . S
C789 C790 1.415 . S
C790 H766 0.950 . S
C790 C785 1.363 . S
C790 C789 1.415 . S
C791 H767 0.951 . S
C791 C792 1.366 . S
C791 C793 1.388 . S
C792 C791 1.366 . S
C792 C796 1.385 . S
C793 H768 0.951 . S
C793 C791 1.388 . S
C793 C794 1.366 . S
C794 C793 1.366 . S
C794 C795 1.414 . S
C794 C797 1.499 . S
C795 H769 0.950 . S
C795 C794 1.414 . S
C795 C796 1.374 . S
C796 H770 0.950 . S
C796 C792 1.385 . S
C796 C795 1.374 . S
C797 C794 1.499 . S
C797 C798 1.373 . S
C797 C799 1.389 . S
C798 H771 0.950 . S
C798 C784 1.377 . S
C798 C797 1.373 . S
C799 C783 1.377 . S
C799 C797 1.389 . S
C799 C800 1.524 . S
C800 C799 1.524 . S
C800 C801 1.397 . S
C800 C805 1.363 . S
C801 H772 0.950 . S
C801 C800 1.397 . S
C801 C802 1.334 . S
C802 H773 0.950 . S
C802 C801 1.334 . S
C802 C803 1.287 . S
C803 C802 1.287 . S
C803 C804 1.524 . S
C803 H806 0.999 . S
C804 H774 0.950 . S
C804 C803 1.524 . S
C804 C805 1.415 . S
C805 H775 0.950 . S
C805 C800 1.363 . S
C805 C804 1.415 . S
H806 C803 0.999 . S
H807 C788 0.913 . S
H808 C826 0.951 . S
H809 C828 0.951 . S
H810 C830 0.950 . S
H811 C831 0.950 . S
H812 C833 0.950 . S
H813 C836 0.950 . S
H814 C837 0.950 . S
H815 C839 0.950 . S
H816 C840 0.950 . S
H817 C841 0.951 . S
H818 C843 0.951 . S
H819 C845 0.950 . S
H820 C846 0.950 . S
H821 C848 0.950 . S
H822 C851 0.950 . S
H823 C852 0.950 . S
H824 C854 0.950 . S
H825 C855 0.950 . S
C826 H808 0.951 . S
C826 C827 1.366 . S
C826 C828 1.388 . S
C827 C826 1.366 . S
C827 C831 1.385 . S
C828 H809 0.951 . S
C828 C826 1.388 . S
C828 C829 1.366 . S
C829 C828 1.366 . S
C829 C830 1.414 . S
C829 C832 1.499 . S
C830 H810 0.950 . S
C830 C829 1.414 . S
C830 C831 1.374 . S
C831 H811 0.950 . S
C831 C827 1.385 . S
C831 C830 1.374 . S
C832 C829 1.499 . S
C832 C833 1.373 . S
C832 C834 1.389 . S
C833 H812 0.950 . S
C833 C832 1.373 . S
C833 C849 1.377 . S
C834 C832 1.389 . S
C834 C835 1.524 . S
C834 C848 1.377 . S
C835 C834 1.524 . S
C835 C836 1.397 . S
C835 C840 1.363 . S
C836 H813 0.950 . S
C836 C835 1.397 . S
C836 C837 1.334 . S
C837 H814 0.950 . S
C837 C836 1.334 . S
C837 C838 1.287 . S
C838 C837 1.287 . S
C838 C839 1.524 . S
C838 H857 0.913 . S
C839 H815 0.950 . S
C839 C838 1.524 . S
C839 C840 1.415 . S
C840 H816 0.950 . S
C840 C835 1.363 . S
C840 C839 1.415 . S
C841 H817 0.951 . S
C841 C842 1.366 . S
C841 C843 1.388 . S
C842 C841 1.366 . S
C842 C846 1.385 . S
C843 H818 0.951 . S
C843 C841 1.388 . S
C843 C844 1.366 . S
C844 C843 1.366 . S
C844 C845 1.414 . S
C844 C847 1.499 . S
C845 H819 0.950 . S
C845 C844 1.414 . S
C845 C846 1.374 . S
C846 H820 0.950 . S
C846 C842 1.385 . S
C846 C845 1.374 . S
C847 C844 1.499 . S
C847 C848 1.373 . S
C847 C849 1.389 . S
C848 H821 0.950 . S
C848 C834 1.377 . S
C848 C847 1.373 . S
C849 C833 1.377 . S
C849 C847 1.389 . S
C849 C850 1.524 . S
C850 C849 1.524 . S
C850 C851 1.397 . S
C850 C855 1.363 . S
C851 H822 0.950 . S
C851 C850 1.397 . S
C851 C852 1.334 . S
C852 H823 0.950 . S
C852 C851 1.334 . S
C852 C853 1.287 . S
C853 C852 1.287 . S
C853 C854 1.524 . S
C853 H856 0.999 . S
C854 H824 0.950 . S
C854 C853 1.524 . S
C854 C855 1.415 . S
C855 H825 0.950 . S
C855 C850 1.363 . S
C855 C854 1.415 . S
H856 C853 0.999 . S
H857 C838 0.913 . S
H858 C876 0.951 . S
H859 C878 0.951 . S
H860 C880 0.950 . S
H861 C881 0.950 . S
H862 C883 0.950 . S
H863 C886 0.950 . S
H864 C887 0.950 . S
H865 C889 0.950 . S
H866 C890 0.950 . S
H867 C891 0.951 . S
H868 C893 0.951 . S
H869 C895 0.950 . S
H870 C896 0.950 . S
H871 C898 0.950 . S
H872 C901 0.950 . S
H873 C902 0.950 . S
H874 C904 0.950 . S
H875 C905 0.950 . S
C876 H858 0.951 . S
C876 C877 1.366 . S
C876 C878 1.388 . S
C877 C876 1.366 . S
C877 C881 1.385 . S
C878 H859 0.951 . S
C878 C876 1.388 . S
C878 C879 1.366 . S
C879 C878 1.366 . S
C879 C880 1.414 . S
C879 C882 1.499 . S
C880 H860 0.950 . S
C880 C879 1.414 . S
C880 C881 1.374 . S
C881 H861 0.950 . S
C881 C877 1.385 . S
C881 C880 1.374 . S
C882 C879 1.499 . S
C882 C883 1.373 . S
C882 C884 1.389 . S
C883 H862 0.950 . S
C883 C882 1.373 . S
C883 C899 1.377 1_554 S
C884 C882 1.389 . S
C884 C885 1.524 . S
C884 C898 1.377 1_554 S
C885 C884 1.524 . S
C885 C886 1.397 . S
C885 C890 1.363 . S
C886 H863 0.950 . S
C886 C885 1.397 . S
C886 C887 1.334 . S
C887 H864 0.950 . S
C887 C886 1.334 . S
C887 C888 1.287 . S
C888 C887 1.287 . S
C888 C889 1.524 . S
C888 H907 0.913 . S
C889 H865 0.950 . S
C889 C888 1.524 . S
C889 C890 1.415 . S
C890 H866 0.950 . S
C890 C885 1.363 . S
C890 C889 1.415 . S
C891 H867 0.951 . S
C891 C892 1.366 . S
C891 C893 1.388 . S
C892 C891 1.366 . S
C892 C896 1.385 . S
C893 H868 0.951 . S
C893 C891 1.388 . S
C893 C894 1.366 . S
C894 C893 1.366 . S
C894 C895 1.414 . S
C894 C897 1.499 . S
C895 H869 0.950 . S
C895 C894 1.414 . S
C895 C896 1.374 . S
C896 H870 0.950 . S
C896 C892 1.385 . S
C896 C895 1.374 . S
C897 C894 1.499 . S
C897 C898 1.373 . S
C897 C899 1.389 . S
C898 H871 0.950 . S
C898 C884 1.377 1_556 S
C898 C897 1.373 . S
C899 C883 1.377 1_556 S
C899 C897 1.389 . S
C899 C900 1.524 . S
C900 C899 1.524 . S
C900 C901 1.397 . S
C900 C905 1.363 . S
C901 H872 0.950 . S
C901 C900 1.397 . S
C901 C902 1.334 . S
C902 H873 0.950 . S
C902 C901 1.334 . S
C902 C903 1.287 . S
C903 C902 1.287 . S
C903 C904 1.524 . S
C903 H906 0.999 . S
C904 H874 0.950 . S
C904 C903 1.524 . S
C904 C905 1.415 . S
C905 H875 0.950 . S
C905 C900 1.363 . S
C905 C904 1.415 . S
H906 C903 0.999 . S
H907 C888 0.913 . S
H908 C926 0.951 . S
H909 C928 0.951 . S
H910 C930 0.950 . S
H911 C931 0.950 . S
H912 C933 0.950 . S
H913 C936 0.950 . S
H914 C937 0.950 . S
H915 C939 0.950 . S
H916 C940 0.950 . S
H917 C941 0.951 . S
H918 C943 0.951 . S
H919 C945 0.950 . S
H920 C946 0.950 . S
H921 C948 0.950 . S
H922 C951 0.950 . S
H923 C952 0.950 . S
H924 C954 0.950 . S
H925 C955 0.950 . S
C926 H908 0.951 . S
C926 C927 1.366 . S
C926 C928 1.388 . S
C927 C926 1.366 . S
C927 C931 1.385 . S
C928 H909 0.951 . S
C928 C926 1.388 . S
C928 C929 1.366 . S
C929 C928 1.366 . S
C929 C930 1.414 . S
C929 C932 1.499 . S
C930 H910 0.950 . S
C930 C929 1.414 . S
C930 C931 1.374 . S
C931 H911 0.950 . S
C931 C927 1.385 . S
C931 C930 1.374 . S
C932 C929 1.499 . S
C932 C933 1.373 . S
C932 C934 1.389 . S
C933 H912 0.950 . S
C933 C932 1.373 . S
C933 C949 1.377 . S
C934 C932 1.389 . S
C934 C935 1.524 . S
C934 C948 1.377 . S
C935 C934 1.524 . S
C935 C936 1.397 . S
C935 C940 1.363 . S
C936 H913 0.950 . S
C936 C935 1.397 . S
C936 C937 1.334 . S
C937 H914 0.950 . S
C937 C936 1.334 . S
C937 C938 1.287 . S
C938 C937 1.287 . S
C938 C939 1.524 . S
C938 H957 0.913 . S
C939 H915 0.950 . S
C939 C938 1.524 . S
C939 C940 1.415 . S
C940 H916 0.950 . S
C940 C935 1.363 . S
C940 C939 1.415 . S
C941 H917 0.951 . S
C941 C942 1.366 . S
C941 C943 1.388 . S
C942 C941 1.366 . S
C942 C946 1.385 . S
C943 H918 0.951 . S
C943 C941 1.388 . S
C943 C944 1.366 . S
C944 C943 1.366 . S
C944 C945 1.414 . S
C944 C947 1.499 . S
C945 H919 0.950 . S
C945 C944 1.414 . S
C945 C946 1.374 . S
C946 H920 0.950 . S
C946 C942 1.385 . S
C946 C945 1.374 . S
C947 C944 1.499 . S
C947 C948 1.373 . S
C947 C949 1.389 . S
C948 H921 0.950 . S
C948 C934 1.377 . S
C948 C947 1.373 . S
C949 C933 1.377 . S
C949 C947 1.389 . S
C949 C950 1.524 . S
C950 C949 1.524 . S
C950 C951 1.397 . S
C950 C955 1.363 . S
C951 H922 0.950 . S
C951 C950 1.397 . S
C951 C952 1.334 . S
C952 H923 0.950 . S
C952 C951 1.334 . S
C952 C953 1.287 . S
C953 C952 1.287 . S
C953 C954 1.524 . S
C953 H956 0.999 . S
C954 H924 0.950 . S
C954 C953 1.524 . S
C954 C955 1.415 . S
C955 H925 0.950 . S
C955 C950 1.363 . S
C955 C954 1.415 . S
H956 C953 0.999 . S
H957 C938 0.913 . S
H958 C976 0.951 . S
H959 C978 0.951 . S
H960 C980 0.950 . S
H961 C981 0.950 . S
H962 C983 0.950 . S
H963 C986 0.950 . S
H964 C987 0.950 . S
H965 C989 0.950 . S
H966 C990 0.950 . S
H967 C991 0.951 . S
H968 C993 0.951 . S
H969 C995 0.950 . S
H970 C996 0.950 . S
H971 C998 0.950 . S
H972 C1001 0.950 . S
H973 C1002 0.950 . S
H974 C1004 0.950 . S
H975 C1005 0.950 . S
C976 H958 0.951 . S
C976 C977 1.366 . S
C976 C978 1.388 . S
C977 C976 1.366 . S
C977 C981 1.385 . S
C978 H959 0.951 . S
C978 C976 1.388 . S
C978 C979 1.366 . S
C979 C978 1.366 . S
C979 C980 1.414 . S
C979 C982 1.499 . S
C980 H960 0.950 . S
C980 C979 1.414 . S
C980 C981 1.374 . S
C981 H961 0.950 . S
C981 C977 1.385 . S
C981 C980 1.374 . S
C982 C979 1.499 . S
C982 C983 1.373 . S
C982 C984 1.389 . S
C983 H962 0.950 . S
C983 C982 1.373 . S
C983 C999 1.377 . S
C984 C982 1.389 . S
C984 C985 1.524 . S
C984 C998 1.377 . S
C985 C984 1.524 . S
C985 C986 1.397 . S
C985 C990 1.363 . S
C986 H963 0.950 . S
C986 C985 1.397 . S
C986 C987 1.334 . S
C987 H964 0.950 . S
C987 C986 1.334 . S
C987 C988 1.287 . S
C988 C987 1.287 . S
C988 C989 1.524 . S
C988 H1007 0.913 . S
C989 H965 0.950 . S
C989 C988 1.524 . S
C989 C990 1.415 . S
C990 H966 0.950 . S
C990 C985 1.363 . S
C990 C989 1.415 . S
C991 H967 0.951 . S
C991 C992 1.366 . S
C991 C993 1.388 . S
C992 C991 1.366 . S
C992 C996 1.385 . S
C993 H968 0.951 . S
C993 C991 1.388 . S
C993 C994 1.366 . S
C994 C993 1.366 . S
C994 C995 1.414 . S
C994 C997 1.499 . S
C995 H969 0.950 . S
C995 C994 1.414 . S
C995 C996 1.374 . S
C996 H970 0.950 . S
C996 C992 1.385 . S
C996 C995 1.374 . S
C997 C994 1.499 . S
C997 C998 1.373 . S
C997 C999 1.389 . S
C998 H971 0.950 . S
C998 C984 1.377 . S
C998 C997 1.373 . S
C999 C983 1.377 . S
C999 C997 1.389 . S
C999 C1000 1.524 . S
C1000 C999 1.524 . S
C1000 C1001 1.397 . S
C1000 C1005 1.363 . S
C1001 H972 0.950 . S
C1001 C1000 1.397 . S
C1001 C1002 1.334 . S
C1002 H973 0.950 . S
C1002 C1001 1.334 . S
C1002 C1003 1.287 . S
C1003 C1002 1.287 . S
C1003 C1004 1.524 . S
C1003 H1006 0.999 . S
C1004 H974 0.950 . S
C1004 C1003 1.524 . S
C1004 C1005 1.415 . S
C1005 H975 0.950 . S
C1005 C1000 1.363 . S
C1005 C1004 1.415 . S
H1006 C1003 0.999 . S
H1007 C988 0.913 . S
H1008 C1026 0.951 . S
H1009 C1028 0.951 . S
H1010 C1030 0.950 . S
H1011 C1031 0.950 . S
H1012 C1033 0.950 . S
H1013 C1036 0.950 . S
H1014 C1037 0.950 . S
H1015 C1039 0.950 . S
H1016 C1040 0.950 . S
H1017 C1041 0.951 . S
H1018 C1043 0.951 . S
H1019 C1045 0.950 . S
H1020 C1046 0.950 . S
H1021 C1048 0.950 . S
H1022 C1051 0.950 . S
H1023 C1052 0.950 . S
H1024 C1054 0.950 . S
H1025 C1055 0.950 . S
C1026 H1008 0.951 . S
C1026 C1027 1.366 . S
C1026 C1028 1.388 . S
C1027 C1026 1.366 . S
C1027 C1031 1.385 . S
C1028 H1009 0.951 . S
C1028 C1026 1.388 . S
C1028 C1029 1.366 . S
C1029 C1028 1.366 . S
C1029 C1030 1.414 . S
C1029 C1032 1.499 . S
C1030 H1010 0.950 . S
C1030 C1029 1.414 . S
C1030 C1031 1.374 . S
C1031 H1011 0.950 . S
C1031 C1027 1.385 . S
C1031 C1030 1.374 . S
C1032 C1029 1.499 . S
C1032 C1033 1.373 . S
C1032 C1034 1.389 . S
C1033 H1012 0.950 . S
C1033 C1032 1.373 . S
C1033 C1049 1.377 . S
C1034 C1032 1.389 . S
C1034 C1035 1.524 . S
C1034 C1048 1.377 . S
C1035 C1034 1.524 . S
C1035 C1036 1.397 . S
C1035 C1040 1.363 . S
C1036 H1013 0.950 . S
C1036 C1035 1.397 . S
C1036 C1037 1.334 . S
C1037 H1014 0.950 . S
C1037 C1036 1.334 . S
C1037 C1038 1.287 . S
C1038 C1037 1.287 . S
C1038 C1039 1.524 . S
C1038 H1057 0.913 . S
C1039 H1015 0.950 . S
C1039 C1038 1.524 . S
C1039 C1040 1.415 . S
C1040 H1016 0.950 . S
C1040 C1035 1.363 . S
C1040 C1039 1.415 . S
C1041 H1017 0.951 . S
C1041 C1042 1.366 . S
C1041 C1043 1.388 . S
C1042 C1041 1.366 . S
C1042 C1046 1.385 . S
C1043 H1018 0.951 . S
C1043 C1041 1.388 . S
C1043 C1044 1.366 . S
C1044 C1043 1.366 . S
C1044 C1045 1.414 . S
C1044 C1047 1.499 . S
C1045 H1019 0.950 . S
C1045 C1044 1.414 . S
C1045 C1046 1.374 . S
C1046 H1020 0.950 . S
C1046 C1042 1.385 . S
C1046 C1045 1.374 . S
C1047 C1044 1.499 . S
C1047 C1048 1.373 . S
C1047 C1049 1.389 . S
C1048 H1021 0.950 . S
C1048 C1034 1.377 . S
C1048 C1047 1.373 . S
C1049 C1033 1.377 . S
C1049 C1047 1.389 . S
C1049 C1050 1.524 . S
C1050 C1049 1.524 . S
C1050 C1051 1.397 . S
C1050 C1055 1.363 . S
C1051 H1022 0.950 . S
C1051 C1050 1.397 . S
C1051 C1052 1.334 . S
C1052 H1023 0.950 . S
C1052 C1051 1.334 . S
C1052 C1053 1.287 . S
C1053 C1052 1.287 . S
C1053 C1054 1.524 . S
C1053 H1056 0.999 . S
C1054 H1024 0.950 . S
C1054 C1053 1.524 . S
C1054 C1055 1.415 . S
C1055 H1025 0.950 . S
C1055 C1050 1.363 . S
C1055 C1054 1.415 . S
H1056 C1053 0.999 . S
H1057 C1038 0.913 . S
H1058 C1076 0.951 . S
H1059 C1078 0.951 . S
H1060 C1080 0.950 . S
H1061 C1081 0.950 . S
H1062 C1083 0.950 . S
H1063 C1086 0.950 . S
H1064 C1087 0.950 . S
H1065 C1089 0.950 . S
H1066 C1090 0.950 . S
H1067 C1091 0.951 . S
H1068 C1093 0.951 . S
H1069 C1095 0.950 . S
H1070 C1096 0.950 . S
H1071 C1098 0.950 . S
H1072 C1101 0.950 . S
H1073 C1102 0.950 . S
H1074 C1104 0.950 . S
H1075 C1105 0.950 . S
C1076 H1058 0.951 . S
C1076 C1077 1.366 . S
C1076 C1078 1.388 . S
C1077 C1076 1.366 . S
C1077 C1081 1.385 . S
C1078 H1059 0.951 . S
C1078 C1076 1.388 . S
C1078 C1079 1.366 . S
C1079 C1078 1.366 . S
C1079 C1080 1.414 . S
C1079 C1082 1.499 . S
C1080 H1060 0.950 . S
C1080 C1079 1.414 . S
C1080 C1081 1.374 . S
C1081 H1061 0.950 . S
C1081 C1077 1.385 . S
C1081 C1080 1.374 . S
C1082 C1079 1.499 . S
C1082 C1083 1.373 . S
C1082 C1084 1.389 . S
C1083 H1062 0.950 . S
C1083 C1082 1.373 . S
C1083 C1099 1.377 . S
C1084 C1082 1.389 . S
C1084 C1085 1.524 . S
C1084 C1098 1.377 . S
C1085 C1084 1.524 . S
C1085 C1086 1.397 . S
C1085 C1090 1.363 . S
C1086 H1063 0.950 . S
C1086 C1085 1.397 . S
C1086 C1087 1.334 . S
C1087 H1064 0.950 . S
C1087 C1086 1.334 . S
C1087 C1088 1.287 . S
C1088 C1087 1.287 . S
C1088 C1089 1.524 . S
C1088 H1107 0.913 . S
C1089 H1065 0.950 . S
C1089 C1088 1.524 . S
C1089 C1090 1.415 . S
C1090 H1066 0.950 . S
C1090 C1085 1.363 . S
C1090 C1089 1.415 . S
C1091 H1067 0.951 . S
C1091 C1092 1.366 . S
C1091 C1093 1.388 . S
C1092 C1091 1.366 . S
C1092 C1096 1.385 . S
C1093 H1068 0.951 . S
C1093 C1091 1.388 . S
C1093 C1094 1.366 . S
C1094 C1093 1.366 . S
C1094 C1095 1.414 . S
C1094 C1097 1.499 . S
C1095 H1069 0.950 . S
C1095 C1094 1.414 . S
C1095 C1096 1.374 . S
C1096 H1070 0.950 . S
C1096 C1092 1.385 . S
C1096 C1095 1.374 . S
C1097 C1094 1.499 . S
C1097 C1098 1.373 . S
C1097 C1099 1.389 . S
C1098 H1071 0.950 . S
C1098 C1084 1.377 . S
C1098 C1097 1.373 . S
C1099 C1083 1.377 . S
C1099 C1097 1.389 . S
C1099 C1100 1.524 . S
C1100 C1099 1.524 . S
C1100 C1101 1.397 . S
C1100 C1105 1.363 . S
C1101 H1072 0.950 . S
C1101 C1100 1.397 . S
C1101 C1102 1.334 . S
C1102 H1073 0.950 . S
C1102 C1101 1.334 . S
C1102 C1103 1.287 . S
C1103 C1102 1.287 . S
C1103 C1104 1.524 . S
C1103 H1106 0.999 . S
C1104 H1074 0.950 . S
C1104 C1103 1.524 . S
C1104 C1105 1.415 . S
C1105 H1075 0.950 . S
C1105 C1100 1.363 . S
C1105 C1104 1.415 . S
H1106 C1103 0.999 . S
H1107 C1088 0.913 . S
H1108 C1126 0.951 . S
H1109 C1128 0.951 . S
H1110 C1130 0.950 . S
H1111 C1131 0.950 . S
H1112 C1133 0.950 . S
H1113 C1136 0.950 . S
H1114 C1137 0.950 . S
H1115 C1139 0.950 . S
H1116 C1140 0.950 . S
H1117 C1141 0.951 . S
H1118 C1143 0.951 . S
H1119 C1145 0.950 . S
H1120 C1146 0.950 . S
H1121 C1148 0.950 . S
H1122 C1151 0.950 . S
H1123 C1152 0.950 . S
H1124 C1154 0.950 . S
H1125 C1155 0.950 . S
C1126 H1108 0.951 . S
C1126 C1127 1.366 . S
C1126 C1128 1.388 . S
C1127 C1126 1.366 . S
C1127 C1131 1.385 . S
C1128 H1109 0.951 . S
C1128 C1126 1.388 . S
C1128 C1129 1.366 . S
C1129 C1128 1.366 . S
C1129 C1130 1.414 . S
C1129 C1132 1.499 . S
C1130 H1110 0.950 . S
C1130 C1129 1.414 . S
C1130 C1131 1.374 . S
C1131 H1111 0.950 . S
C1131 C1127 1.385 . S
C1131 C1130 1.374 . S
C1132 C1129 1.499 . S
C1132 C1133 1.373 . S
C1132 C1134 1.389 . S
C1133 H1112 0.950 . S
C1133 C1132 1.373 . S
C1133 C1149 1.377 . S
C1134 C1132 1.389 . S
C1134 C1135 1.524 . S
C1134 C1148 1.377 . S
C1135 C1134 1.524 . S
C1135 C1136 1.397 . S
C1135 C1140 1.363 . S
C1136 H1113 0.950 . S
C1136 C1135 1.397 . S
C1136 C1137 1.334 . S
C1137 H1114 0.950 . S
C1137 C1136 1.334 . S
C1137 C1138 1.287 . S
C1138 C1137 1.287 . S
C1138 C1139 1.524 . S
C1138 H1157 0.913 . S
C1139 H1115 0.950 . S
C1139 C1138 1.524 . S
C1139 C1140 1.415 . S
C1140 H1116 0.950 . S
C1140 C1135 1.363 . S
C1140 C1139 1.415 . S
C1141 H1117 0.951 . S
C1141 C1142 1.366 . S
C1141 C1143 1.388 . S
C1142 C1141 1.366 . S
C1142 C1146 1.385 . S
C1143 H1118 0.951 . S
C1143 C1141 1.388 . S
C1143 C1144 1.366 . S
C1144 C1143 1.366 . S
C1144 C1145 1.414 . S
C1144 C1147 1.499 . S
C1145 H1119 0.950 . S
C1145 C1144 1.414 . S
C1145 C1146 1.374 . S
C1146 H1120 0.950 . S
C1146 C1142 1.385 . S
C1146 C1145 1.374 . S
C1147 C1144 1.499 . S
C1147 C1148 1.373 . S
C1147 C1149 1.389 . S
C1148 H1121 0.950 . S
C1148 C1134 1.377 . S
C1148 C1147 1.373 . S
C1149 C1133 1.377 . S
C1149 C1147 1.389 . S
C1149 C1150 1.524 . S
C1150 C1149 1.524 . S
C1150 C1151 1.397 . S
C1150 C1155 1.363 . S
C1151 H1122 0.950 . S
C1151 C1150 1.397 . S
C1151 C1152 1.334 . S
C1152 H1123 0.950 . S
C1152 C1151 1.334 . S
C1152 C1153 1.287 . S
C1153 C1152 1.287 . S
C1153 C1154 1.524 . S
C1153 H1156 0.999 . S
C1154 H1124 0.950 . S
C1154 C1153 1.524 . S
C1154 C1155 1.415 . S
C1155 H1125 0.950 . S
C1155 C1150 1.363 . S
C1155 C1154 1.415 . S
H1156 C1153 0.999 . S
H1157 C1138 0.913 . S
H1158 C1176 0.951 . S
H1159 C1178 0.951 . S
H1160 C1180 0.950 . S
H1161 C1181 0.950 . S
H1162 C1183 0.950 . S
H1163 C1186 0.950 . S
H1164 C1187 0.950 . S
H1165 C1189 0.950 . S
H1166 C1190 0.950 . S
H1167 C1191 0.951 . S
H1168 C1193 0.951 . S
H1169 C1195 0.950 . S
H1170 C1196 0.950 . S
H1171 C1198 0.950 . S
H1172 C1201 0.950 . S
H1173 C1202 0.950 . S
H1174 C1204 0.950 . S
H1175 C1205 0.950 . S
C1176 H1158 0.951 . S
C1176 C1177 1.366 . S
C1176 C1178 1.388 . S
C1177 C1176 1.366 . S
C1177 C1181 1.385 . S
C1178 H1159 0.951 . S
C1178 C1176 1.388 . S
C1178 C1179 1.366 . S
C1179 C1178 1.366 . S
C1179 C1180 1.414 . S
C1179 C1182 1.499 . S
C1180 H1160 0.950 . S
C1180 C1179 1.414 . S
C1180 C1181 1.374 . S
C1181 H1161 0.950 . S
C1181 C1177 1.385 . S
C1181 C1180 1.374 . S
C1182 C1179 1.499 . S
C1182 C1183 1.373 . S
C1182 C1184 1.389 . S
C1183 H1162 0.950 . S
C1183 C1182 1.373 . S
C1183 C1199 1.377 . S
C1184 C1182 1.389 . S
C1184 C1185 1.524 . S
C1184 C1198 1.377 . S
C1185 C1184 1.524 . S
C1185 C1186 1.397 . S
C1185 C1190 1.363 . S
C1186 H1163 0.950 . S
C1186 C1185 1.397 . S
C1186 C1187 1.334 . S
C1187 H1164 0.950 . S
C1187 C1186 1.334 . S
C1187 C1188 1.287 . S
C1188 C1187 1.287 . S
C1188 C1189 1.524 . S
C1188 H1207 0.913 . S
C1189 H1165 0.950 . S
C1189 C1188 1.524 . S
C1189 C1190 1.415 . S
C1190 H1166 0.950 . S
C1190 C1185 1.363 . S
C1190 C1189 1.415 . S
C1191 H1167 0.951 . S
C1191 C1192 1.366 . S
C1191 C1193 1.388 . S
C1192 C1191 1.366 . S
C1192 C1196 1.385 . S
C1193 H1168 0.951 . S
C1193 C1191 1.388 . S
C1193 C1194 1.366 . S
C1194 C1193 1.366 . S
C1194 C1195 1.414 . S
C1194 C1197 1.499 . S
C1195 H1169 0.950 . S
C1195 C1194 1.414 . S
C1195 C1196 1.374 . S
C1196 H1170 0.950 . S
C1196 C1192 1.385 . S
C1196 C1195 1.374 . S
C1197 C1194 1.499 . S
C1197 C1198 1.373 . S
C1197 C1199 1.389 . S
C1198 H1171 0.950 . S
C1198 C1184 1.377 . S
C1198 C1197 1.373 . S
C1199 C1183 1.377 . S
C1199 C1197 1.389 . S
C1199 C1200 1.524 . S
C1200 C1199 1.524 . S
C1200 C1201 1.397 . S
C1200 C1205 1.363 . S
C1201 H1172 0.950 . S
C1201 C1200 1.397 . S
C1201 C1202 1.334 . S
C1202 H1173 0.950 . S
C1202 C1201 1.334 . S
C1202 C1203 1.287 . S
C1203 C1202 1.287 . S
C1203 C1204 1.524 . S
C1203 H1206 0.999 . S
C1204 H1174 0.950 . S
C1204 C1203 1.524 . S
C1204 C1205 1.415 . S
C1205 H1175 0.950 . S
C1205 C1200 1.363 . S
C1205 C1204 1.415 . S
H1206 C1203 0.999 . S
H1207 C1188 0.913 . S
H1208 C1226 0.951 . S
H1209 C1228 0.951 . S
H1210 C1230 0.950 . S
H1211 C1231 0.950 . S
H1212 C1233 0.950 . S
H1213 C1236 0.950 . S
H1214 C1237 0.950 . S
H1215 C1239 0.950 . S
H1216 C1240 0.950 . S
H1217 C1241 0.951 . S
H1218 C1243 0.951 . S
H1219 C1245 0.950 . S
H1220 C1246 0.950 . S
H1221 C1248 0.950 . S
H1222 C1251 0.950 . S
H1223 C1252 0.950 . S
H1224 C1254 0.950 . S
H1225 C1255 0.950 . S
C1226 H1208 0.951 . S
C1226 C1227 1.366 . S
C1226 C1228 1.388 . S
C1227 C1226 1.366 . S
C1227 C1231 1.385 . S
C1228 H1209 0.951 . S
C1228 C1226 1.388 . S
C1228 C1229 1.366 . S
C1229 C1228 1.366 . S
C1229 C1230 1.414 . S
C1229 C1232 1.499 . S
C1230 H1210 0.950 . S
C1230 C1229 1.414 . S
C1230 C1231 1.374 . S
C1231 H1211 0.950 . S
C1231 C1227 1.385 . S
C1231 C1230 1.374 . S
C1232 C1229 1.499 . S
C1232 C1233 1.373 . S
C1232 C1234 1.389 . S
C1233 H1212 0.950 . S
C1233 C1232 1.373 . S
C1233 C1249 1.377 . S
C1234 C1232 1.389 . S
C1234 C1235 1.524 . S
C1234 C1248 1.377 . S
C1235 C1234 1.524 . S
C1235 C1236 1.397 . S
C1235 C1240 1.363 . S
C1236 H1213 0.950 . S
C1236 C1235 1.397 . S
C1236 C1237 1.334 . S
C1237 H1214 0.950 . S
C1237 C1236 1.334 . S
C1237 C1238 1.287 . S
C1238 C1237 1.287 . S
C1238 C1239 1.524 . S
C1238 H1257 0.913 . S
C1239 H1215 0.950 . S
C1239 C1238 1.524 . S
C1239 C1240 1.415 . S
C1240 H1216 0.950 . S
C1240 C1235 1.363 . S
C1240 C1239 1.415 . S
C1241 H1217 0.951 . S
C1241 C1242 1.366 . S
C1241 C1243 1.388 . S
C1242 C1241 1.366 . S
C1242 C1246 1.385 . S
C1243 H1218 0.951 . S
C1243 C1241 1.388 . S
C1243 C1244 1.366 . S
C1244 C1243 1.366 . S
C1244 C1245 1.414 . S
C1244 C1247 1.499 . S
C1245 H1219 0.950 . S
C1245 C1244 1.414 . S
C1245 C1246 1.374 . S
C1246 H1220 0.950 . S
C1246 C1242 1.385 . S
C1246 C1245 1.374 . S
C1247 C1244 1.499 . S
C1247 C1248 1.373 . S
C1247 C1249 1.389 . S
C1248 H1221 0.950 . S
C1248 C1234 1.377 . S
C1248 C1247 1.373 . S
C1249 C1233 1.377 . S
C1249 C1247 1.389 . S
C1249 C1250 1.524 . S
C1250 C1249 1.524 . S
C1250 C1251 1.397 . S
C1250 C1255 1.363 . S
C1251 H1222 0.950 . S
C1251 C1250 1.397 . S
C1251 C1252 1.334 . S
C1252 H1223 0.950 . S
C1252 C1251 1.334 . S
C1252 C1253 1.287 . S
C1253 C1252 1.287 . S
C1253 C1254 1.524 . S
C1253 H1256 0.999 . S
C1254 H1224 0.950 . S
C1254 C1253 1.524 . S
C1254 C1255 1.415 . S
C1255 H1225 0.950 . S
C1255 C1250 1.363 . S
C1255 C1254 1.415 . S
H1256 C1253 0.999 . S
H1257 C1238 0.913 . S
H1258 C1276 0.951 . S
H1259 C1278 0.951 . S
H1260 C1280 0.950 . S
H1261 C1281 0.950 . S
H1262 C1283 0.950 . S
H1263 C1286 0.950 . S
H1264 C1287 0.950 . S
H1265 C1289 0.950 . S
H1266 C1290 0.950 . S
H1267 C1291 0.951 . S
H1268 C1293 0.951 . S
H1269 C1295 0.950 . S
H1270 C1296 0.950 . S
H1271 C1298 0.950 . S
H1272 C1301 0.950 . S
H1273 C1302 0.950 . S
H1274 C1304 0.950 . S
H1275 C1305 0.950 . S
C1276 H1258 0.951 . S
C1276 C1277 1.366 . S
C1276 C1278 1.388 . S
C1277 C1276 1.366 . S
C1277 C1281 1.385 . S
C1278 H1259 0.951 . S
C1278 C1276 1.388 . S
C1278 C1279 1.366 . S
C1279 C1278 1.366 . S
C1279 C1280 1.414 . S
C1279 C1282 1.499 . S
C1280 H1260 0.950 . S
C1280 C1279 1.414 . S
C1280 C1281 1.374 . S
C1281 H1261 0.950 . S
C1281 C1277 1.385 . S
C1281 C1280 1.374 . S
C1282 C1279 1.499 . S
C1282 C1283 1.373 . S
C1282 C1284 1.389 . S
C1283 H1262 0.950 . S
C1283 C1282 1.373 . S
C1283 C1299 1.377 . S
C1284 C1282 1.389 . S
C1284 C1285 1.524 . S
C1284 C1298 1.377 . S
C1285 C1284 1.524 . S
C1285 C1286 1.397 . S
C1285 C1290 1.363 . S
C1286 H1263 0.950 . S
C1286 C1285 1.397 . S
C1286 C1287 1.334 . S
C1287 H1264 0.950 . S
C1287 C1286 1.334 . S
C1287 C1288 1.287 . S
C1288 C1287 1.287 . S
C1288 C1289 1.524 . S
C1288 H1307 0.913 . S
C1289 H1265 0.950 . S
C1289 C1288 1.524 . S
C1289 C1290 1.415 . S
C1290 H1266 0.950 . S
C1290 C1285 1.363 . S
C1290 C1289 1.415 . S
C1291 H1267 0.951 . S
C1291 C1292 1.366 . S
C1291 C1293 1.388 . S
C1292 C1291 1.366 . S
C1292 C1296 1.385 . S
C1293 H1268 0.951 . S
C1293 C1291 1.388 . S
C1293 C1294 1.366 . S
C1294 C1293 1.366 . S
C1294 C1295 1.414 . S
C1294 C1297 1.499 . S
C1295 H1269 0.950 . S
C1295 C1294 1.414 . S
C1295 C1296 1.374 . S
C1296 H1270 0.950 . S
C1296 C1292 1.385 . S
C1296 C1295 1.374 . S
C1297 C1294 1.499 . S
C1297 C1298 1.373 . S
C1297 C1299 1.389 . S
C1298 H1271 0.950 . S
C1298 C1284 1.377 . S
C1298 C1297 1.373 . S
C1299 C1283 1.377 . S
C1299 C1297 1.389 . S
C1299 C1300 1.524 . S
C1300 C1299 1.524 . S
C1300 C1301 1.397 . S
C1300 C1305 1.363 . S
C1301 H1272 0.950 . S
C1301 C1300 1.397 . S
C1301 C1302 1.334 . S
C1302 H1273 0.950 . S
C1302 C1301 1.334 . S
C1302 C1303 1.287 . S
C1303 C1302 1.287 . S
C1303 C1304 1.524 . S
C1303 H1306 0.999 . S
C1304 H1274 0.950 . S
C1304 C1303 1.524 . S
C1304 C1305 1.415 . S
C1305 H1275 0.950 . S
C1305 C1300 1.363 . S
C1305 C1304 1.415 . S
H1306 C1303 0.999 . S
H1307 C1288 0.913 . S
H1308 C1326 0.951 . S
H1309 C1328 0.951 . S
H1310 C1330 0.950 . S
H1311 C1331 0.950 . S
H1312 C1333 0.950 . S
H1313 C1336 0.950 . S
H1314 C1337 0.950 . S
H1315 C1339 0.950 . S
H1316 C1340 0.950 . S
H1317 C1341 0.951 . S
H1318 C1343 0.951 . S
H1319 C1345 0.950 . S
H1320 C1346 0.950 . S
H1321 C1348 0.950 . S
H1322 C1351 0.950 . S
H1323 C1352 0.950 . S
H1324 C1354 0.950 . S
H1325 C1355 0.950 . S
C1326 H1308 0.951 . S
C1326 C1327 1.366 . S
C1326 C1328 1.388 . S
C1327 C1326 1.366 . S
C1327 C1331 1.385 . S
C1328 H1309 0.951 . S
C1328 C1326 1.388 . S
C1328 C1329 1.366 . S
C1329 C1328 1.366 . S
C1329 C1330 1.414 . S
C1329 C1332 1.499 . S
C1330 H1310 0.950 . S
C1330 C1329 1.414 . S
C1330 C1331 1.374 . S
C1331 H1311 0.950 . S
C1331 C1327 1.385 . S
C1331 C1330 1.374 . S
C1332 C1329 1.499 . S
C1332 C1333 1.373 . S
C1332 C1334 1.389 . S
C1333 H1312 0.950 . S
C1333 C1332 1.373 . S
C1333 C1349 1.377 1_655 S
C1334 C1332 1.389 . S
C1334 C1335 1.524 . S
C1334 C1348 1.377 1_655 S
C1335 C1334 1.524 . S
C1335 C1336 1.397 . S
C1335 C1340 1.363 . S
C1336 H1313 0.950 . S
C1336 C1335 1.397 . S
C1336 C1337 1.334 . S
C1337 H1314 0.950 . S
C1337 C1336 1.334 . S
C1337 C1338 1.287 . S
C1338 C1337 1.287 . S
C1338 C1339 1.524 . S
C1338 H1357 0.913 . S
C1339 H1315 0.950 . S
C1339 C1338 1.524 . S
C1339 C1340 1.415 . S
C1340 H1316 0.950 . S
C1340 C1335 1.363 . S
C1340 C1339 1.415 . S
C1341 H1317 0.951 . S
C1341 C1342 1.366 . S
C1341 C1343 1.388 . S
C1342 C1341 1.366 . S
C1342 C1346 1.385 . S
C1343 H1318 0.951 . S
C1343 C1341 1.388 . S
C1343 C1344 1.366 . S
C1344 C1343 1.366 . S
C1344 C1345 1.414 . S
C1344 C1347 1.499 . S
C1345 H1319 0.950 . S
C1345 C1344 1.414 . S
C1345 C1346 1.374 . S
C1346 H1320 0.950 . S
C1346 C1342 1.385 . S
C1346 C1345 1.374 . S
C1347 C1344 1.499 . S
C1347 C1348 1.373 . S
C1347 C1349 1.389 . S
C1348 H1321 0.950 . S
C1348 C1334 1.377 1_455 S
C1348 C1347 1.373 . S
C1349 C1333 1.377 1_455 S
C1349 C1347 1.389 . S
C1349 C1350 1.524 . S
C1350 C1349 1.524 . S
C1350 C1351 1.397 . S
C1350 C1355 1.363 . S
C1351 H1322 0.950 . S
C1351 C1350 1.397 . S
C1351 C1352 1.334 . S
C1352 H1323 0.950 . S
C1352 C1351 1.334 . S
C1352 C1353 1.287 . S
C1353 C1352 1.287 . S
C1353 C1354 1.524 . S
C1353 H1356 0.999 . S
C1354 H1324 0.950 . S
C1354 C1353 1.524 . S
C1354 C1355 1.415 . S
C1355 H1325 0.950 . S
C1355 C1350 1.363 . S
C1355 C1354 1.415 . S
H1356 C1353 0.999 . S
H1357 C1338 0.913 . S
H1358 C1376 0.951 . S
H1359 C1378 0.951 . S
H1360 C1380 0.950 . S
H1361 C1381 0.950 . S
H1362 C1383 0.950 . S
H1363 C1386 0.950 . S
H1364 C1387 0.950 . S
H1365 C1389 0.950 . S
H1366 C1390 0.963 . S
H1367 C1391 0.951 . S
H1368 C1393 0.951 . S
H1369 C1395 0.950 . S
H1370 C1396 0.950 . S
H1371 C1398 0.950 . S
H1372 C1401 0.950 . S
H1373 C1402 0.950 . S
H1374 C1404 0.950 . S
H1375 C1405 0.965 . S
C1376 H1358 0.951 . S
C1376 C1377 1.366 . S
C1376 C1378 1.388 . S
C1377 C1376 1.366 . S
C1377 C1381 1.385 . S
C1378 H1359 0.951 . S
C1378 C1376 1.388 . S
C1378 C1379 1.366 . S
C1379 C1378 1.366 . S
C1379 C1380 1.414 . S
C1379 C1382 1.499 . S
C1380 H1360 0.950 . S
C1380 C1379 1.414 . S
C1380 C1381 1.374 . S
C1381 H1361 0.950 . S
C1381 C1377 1.385 . S
C1381 C1380 1.374 . S
C1382 C1379 1.499 . S
C1382 C1383 1.373 . S
C1382 C1384 1.389 . S
C1383 H1362 0.950 . S
C1383 C1382 1.373 . S
C1383 C1399 1.377 1_545 S
C1384 C1382 1.389 . S
C1384 C1385 1.524 . S
C1384 C1398 1.377 1_545 S
C1385 C1384 1.524 . S
C1385 C1386 1.397 . S
C1385 C1390 1.363 . S
C1386 H1363 0.950 . S
C1386 C1385 1.397 . S
C1386 C1387 1.334 . S
C1387 H1364 0.950 . S
C1387 C1386 1.334 . S
C1387 C1388 1.287 . S
C1388 C1387 1.287 . S
C1388 C1389 1.524 . S
C1388 H1407 0.913 . S
C1389 H1365 0.950 . S
C1389 C1388 1.524 . S
C1389 C1390 1.415 . S
C1390 H1366 0.963 . S
C1390 C1385 1.363 . S
C1390 C1389 1.415 . S
C1391 H1367 0.951 . S
C1391 C1392 1.366 . S
C1391 C1393 1.388 . S
C1392 C1391 1.366 . S
C1392 C1396 1.385 . S
C1393 H1368 0.951 . S
C1393 C1391 1.388 . S
C1393 C1394 1.366 . S
C1394 C1393 1.366 . S
C1394 C1395 1.414 . S
C1394 C1397 1.499 . S
C1395 H1369 0.950 . S
C1395 C1394 1.414 . S
C1395 C1396 1.374 . S
C1396 H1370 0.950 . S
C1396 C1392 1.385 . S
C1396 C1395 1.374 . S
C1397 C1394 1.499 . S
C1397 C1398 1.373 . S
C1397 C1399 1.389 . S
C1398 H1371 0.950 . S
C1398 C1384 1.377 1_565 S
C1398 C1397 1.373 . S
C1399 C1383 1.377 1_565 S
C1399 C1397 1.389 . S
C1399 C1400 1.524 . S
C1400 C1399 1.524 . S
C1400 C1401 1.397 . S
C1400 C1405 1.363 . S
C1401 H1372 0.950 . S
C1401 C1400 1.397 . S
C1401 C1402 1.334 . S
C1402 H1373 0.950 . S
C1402 C1401 1.334 . S
C1402 C1403 1.287 . S
C1403 C1402 1.287 . S
C1403 C1404 1.524 . S
C1403 H1406 0.999 . S
C1404 H1374 0.950 . S
C1404 C1403 1.524 . S
C1404 C1405 1.415 . S
C1405 H1375 0.965 . S
C1405 C1400 1.363 . S
C1405 C1404 1.415 . S
H1406 C1403 0.999 . S
H1407 C1388 0.913 . S
H1408 C1426 0.951 . S
H1409 C1428 0.951 . S
H1410 C1430 0.950 . S
H1411 C1431 0.950 . S
H1412 C1433 0.950 . S
H1413 C1436 0.950 . S
H1414 C1437 0.950 . S
H1415 C1439 0.950 . S
H1416 C1440 0.950 . S
H1417 C1441 0.951 . S
H1418 C1443 0.951 . S
H1419 C1445 0.950 . S
H1420 C1446 0.950 . S
H1421 C1448 0.950 . S
H1422 C1451 0.950 . S
H1423 C1452 0.950 . S
H1424 C1454 0.950 . S
H1425 C1455 0.950 . S
C1426 H1408 0.951 . S
C1426 C1427 1.366 . S
C1426 C1428 1.388 . S
C1427 C1426 1.366 . S
C1427 C1431 1.385 . S
C1428 H1409 0.951 . S
C1428 C1426 1.388 . S
C1428 C1429 1.366 . S
C1429 C1428 1.366 . S
C1429 C1430 1.414 . S
C1429 C1432 1.499 . S
C1430 H1410 0.950 . S
C1430 C1429 1.414 . S
C1430 C1431 1.374 . S
C1431 H1411 0.950 . S
C1431 C1427 1.385 . S
C1431 C1430 1.374 . S
C1432 C1429 1.499 . S
C1432 C1433 1.373 . S
C1432 C1434 1.389 . S
C1433 H1412 0.950 . S
C1433 C1432 1.373 . S
C1433 C1449 1.377 . S
C1434 C1432 1.389 . S
C1434 C1435 1.524 . S
C1434 C1448 1.377 . S
C1435 C1434 1.524 . S
C1435 C1436 1.397 . S
C1435 C1440 1.363 . S
C1436 H1413 0.950 . S
C1436 C1435 1.397 . S
C1436 C1437 1.334 . S
C1437 H1414 0.950 . S
C1437 C1436 1.334 . S
C1437 C1438 1.287 . S
C1438 C1437 1.287 . S
C1438 C1439 1.524 . S
C1438 H1457 0.913 . S
C1439 H1415 0.950 . S
C1439 C1438 1.524 . S
C1439 C1440 1.415 . S
C1440 H1416 0.950 . S
C1440 C1435 1.363 . S
C1440 C1439 1.415 . S
C1441 H1417 0.951 . S
C1441 C1442 1.366 . S
C1441 C1443 1.388 . S
C1442 C1441 1.366 . S
C1442 C1446 1.385 . S
C1443 H1418 0.951 . S
C1443 C1441 1.388 . S
C1443 C1444 1.366 . S
C1444 C1443 1.366 . S
C1444 C1445 1.414 . S
C1444 C1447 1.499 . S
C1445 H1419 0.950 . S
C1445 C1444 1.414 . S
C1445 C1446 1.374 . S
C1446 H1420 0.950 . S
C1446 C1442 1.385 . S
C1446 C1445 1.374 . S
C1447 C1444 1.499 . S
C1447 C1448 1.373 . S
C1447 C1449 1.389 . S
C1448 H1421 0.950 . S
C1448 C1434 1.377 . S
C1448 C1447 1.373 . S
C1449 C1433 1.377 . S
C1449 C1447 1.389 . S
C1449 C1450 1.524 . S
C1450 C1449 1.524 . S
C1450 C1451 1.397 . S
C1450 C1455 1.363 . S
C1451 H1422 0.950 . S
C1451 C1450 1.397 . S
C1451 C1452 1.334 . S
C1452 H1423 0.950 . S
C1452 C1451 1.334 . S
C1452 C1453 1.287 . S
C1453 C1452 1.287 . S
C1453 C1454 1.524 . S
C1453 H1456 0.999 . S
C1454 H1424 0.950 . S
C1454 C1453 1.524 . S
C1454 C1455 1.415 . S
C1455 H1425 0.950 . S
C1455 C1450 1.363 . S
C1455 C1454 1.415 . S
H1456 C1453 0.999 . S
H1457 C1438 0.913 . S
H1458 C1476 0.951 . S
H1459 C1478 0.951 . S
H1460 C1480 0.950 . S
H1461 C1481 0.950 . S
H1462 C1483 0.950 . S
H1463 C1486 0.950 . S
H1464 C1487 0.950 . S
H1465 C1489 0.950 . S
H1466 C1490 0.950 . S
H1467 C1491 0.951 . S
H1468 C1493 0.951 . S
H1469 C1495 0.950 . S
H1470 C1496 0.950 . S
H1471 C1498 0.950 . S
H1472 C1501 0.950 . S
H1473 C1502 0.950 . S
H1474 C1504 0.950 . S
H1475 C1505 0.950 . S
C1476 H1458 0.951 . S
C1476 C1477 1.366 . S
C1476 C1478 1.388 . S
C1477 C1476 1.366 . S
C1477 C1481 1.385 . S
C1478 H1459 0.951 . S
C1478 C1476 1.388 . S
C1478 C1479 1.366 . S
C1479 C1478 1.366 . S
C1479 C1480 1.414 . S
C1479 C1482 1.499 . S
C1480 H1460 0.950 . S
C1480 C1479 1.414 . S
C1480 C1481 1.374 . S
C1481 H1461 0.950 . S
C1481 C1477 1.385 . S
C1481 C1480 1.374 . S
C1482 C1479 1.499 . S
C1482 C1483 1.373 . S
C1482 C1484 1.389 . S
C1483 H1462 0.950 . S
C1483 C1482 1.373 . S
C1483 C1499 1.377 1_545 S
C1484 C1482 1.389 . S
C1484 C1485 1.524 . S
C1484 C1498 1.377 1_545 S
C1485 C1484 1.524 . S
C1485 C1486 1.397 . S
C1485 C1490 1.363 . S
C1486 H1463 0.950 . S
C1486 C1485 1.397 . S
C1486 C1487 1.334 . S
C1487 H1464 0.950 . S
C1487 C1486 1.334 . S
C1487 C1488 1.287 . S
C1488 C1487 1.287 . S
C1488 C1489 1.524 . S
C1488 H1507 0.913 . S
C1489 H1465 0.950 . S
C1489 C1488 1.524 . S
C1489 C1490 1.415 . S
C1490 H1466 0.950 . S
C1490 C1485 1.363 . S
C1490 C1489 1.415 . S
C1491 H1467 0.951 . S
C1491 C1492 1.366 . S
C1491 C1493 1.388 . S
C1492 C1491 1.366 . S
C1492 C1496 1.385 . S
C1493 H1468 0.951 . S
C1493 C1491 1.388 . S
C1493 C1494 1.366 . S
C1494 C1493 1.366 . S
C1494 C1495 1.414 . S
C1494 C1497 1.499 . S
C1495 H1469 0.950 . S
C1495 C1494 1.414 . S
C1495 C1496 1.374 . S
C1496 H1470 0.950 . S
C1496 C1492 1.385 . S
C1496 C1495 1.374 . S
C1497 C1494 1.499 . S
C1497 C1498 1.373 . S
C1497 C1499 1.389 . S
C1498 H1471 0.950 . S
C1498 C1484 1.377 1_565 S
C1498 C1497 1.373 . S
C1499 C1483 1.377 1_565 S
C1499 C1497 1.389 . S
C1499 C1500 1.524 . S
C1500 C1499 1.524 . S
C1500 C1501 1.397 . S
C1500 C1505 1.363 . S
C1501 H1472 0.950 . S
C1501 C1500 1.397 . S
C1501 C1502 1.334 . S
C1502 H1473 0.950 . S
C1502 C1501 1.334 . S
C1502 C1503 1.287 . S
C1503 C1502 1.287 . S
C1503 C1504 1.524 . S
C1503 H1506 0.999 . S
C1504 H1474 0.950 . S
C1504 C1503 1.524 . S
C1504 C1505 1.415 . S
C1505 H1475 0.950 . S
C1505 C1500 1.363 . S
C1505 C1504 1.415 . S
H1506 C1503 0.999 . S
H1507 C1488 0.913 . S
H1508 C1526 0.951 . S
H1509 C1528 0.951 . S
H1510 C1530 0.950 . S
H1511 C1531 0.950 . S
H1512 C1533 0.950 . S
H1513 C1536 0.950 . S
H1514 C1537 0.950 . S
H1515 C1539 0.950 . S
H1516 C1540 0.950 . S
H1517 C1541 0.951 . S
H1518 C1543 0.951 . S
H1519 C1545 0.950 . S
H1520 C1546 0.950 . S
H1521 C1548 0.950 . S
H1522 C1551 0.950 . S
H1523 C1552 0.950 . S
H1524 C1554 0.950 . S
H1525 C1555 0.950 . S
C1526 H1508 0.951 . S
C1526 C1527 1.366 . S
C1526 C1528 1.388 . S
C1527 C1526 1.366 . S
C1527 C1531 1.385 . S
C1528 H1509 0.951 . S
C1528 C1526 1.388 . S
C1528 C1529 1.366 . S
C1529 C1528 1.366 . S
C1529 C1530 1.414 . S
C1529 C1532 1.499 . S
C1530 H1510 0.950 . S
C1530 C1529 1.414 . S
C1530 C1531 1.374 . S
C1531 H1511 0.950 . S
C1531 C1527 1.385 . S
C1531 C1530 1.374 . S
C1532 C1529 1.499 . S
C1532 C1533 1.373 . S
C1532 C1534 1.389 . S
C1533 H1512 0.950 . S
C1533 C1532 1.373 . S
C1533 C1549 1.377 . S
C1534 C1532 1.389 . S
C1534 C1535 1.524 . S
C1534 C1548 1.377 . S
C1535 C1534 1.524 . S
C1535 C1536 1.397 . S
C1535 C1540 1.363 . S
C1536 H1513 0.950 . S
C1536 C1535 1.397 . S
C1536 C1537 1.334 . S
C1537 H1514 0.950 . S
C1537 C1536 1.334 . S
C1537 C1538 1.287 . S
C1538 C1537 1.287 . S
C1538 C1539 1.524 . S
C1538 H1557 0.913 . S
C1539 H1515 0.950 . S
C1539 C1538 1.524 . S
C1539 C1540 1.415 . S
C1540 H1516 0.950 . S
C1540 C1535 1.363 . S
C1540 C1539 1.415 . S
C1541 H1517 0.951 . S
C1541 C1542 1.366 . S
C1541 C1543 1.388 . S
C1542 C1541 1.366 . S
C1542 C1546 1.385 . S
C1543 H1518 0.951 . S
C1543 C1541 1.388 . S
C1543 C1544 1.366 . S
C1544 C1543 1.366 . S
C1544 C1545 1.414 . S
C1544 C1547 1.499 . S
C1545 H1519 0.950 . S
C1545 C1544 1.414 . S
C1545 C1546 1.374 . S
C1546 H1520 0.950 . S
C1546 C1542 1.385 . S
C1546 C1545 1.374 . S
C1547 C1544 1.499 . S
C1547 C1548 1.373 . S
C1547 C1549 1.389 . S
C1548 H1521 0.950 . S
C1548 C1534 1.377 . S
C1548 C1547 1.373 . S
C1549 C1533 1.377 . S
C1549 C1547 1.389 . S
C1549 C1550 1.524 . S
C1550 C1549 1.524 . S
C1550 C1551 1.397 . S
C1550 C1555 1.363 . S
C1551 H1522 0.950 . S
C1551 C1550 1.397 . S
C1551 C1552 1.334 . S
C1552 H1523 0.950 . S
C1552 C1551 1.334 . S
C1552 C1553 1.287 . S
C1553 C1552 1.287 . S
C1553 C1554 1.524 . S
C1553 H1556 0.999 . S
C1554 H1524 0.950 . S
C1554 C1553 1.524 . S
C1554 C1555 1.415 . S
C1555 H1525 0.950 . S
C1555 C1550 1.363 . S
C1555 C1554 1.415 . S
H1556 C1553 0.999 . S
H1557 C1538 0.913 . S
H1558 C1576 0.951 . S
H1559 C1578 0.951 . S
H1560 C1580 0.950 . S
H1561 C1581 0.950 . S
H1562 C1583 0.950 . S
H1563 C1586 0.950 . S
H1564 C1587 0.950 . S
H1565 C1589 0.950 . S
H1566 C1590 0.950 1_655 S
H1567 C1591 0.951 . S
H1568 C1593 0.951 . S
H1569 C1595 0.950 . S
H1570 C1596 0.950 . S
H1571 C1598 0.950 . S
H1572 C1601 0.950 . S
H1573 C1602 0.950 . S
H1574 C1604 0.950 . S
H1575 C1605 0.950 1_455 S
C1576 H1558 0.951 . S
C1576 C1577 1.366 . S
C1576 C1578 1.388 . S
C1577 C1576 1.366 . S
C1577 C1581 1.385 . S
C1578 H1559 0.951 . S
C1578 C1576 1.388 . S
C1578 C1579 1.366 . S
C1579 C1578 1.366 . S
C1579 C1580 1.414 . S
C1579 C1582 1.499 . S
C1580 H1560 0.950 . S
C1580 C1579 1.414 . S
C1580 C1581 1.374 . S
C1581 H1561 0.950 . S
C1581 C1577 1.385 . S
C1581 C1580 1.374 . S
C1582 C1579 1.499 . S
C1582 C1583 1.373 . S
C1582 C1584 1.389 . S
C1583 H1562 0.950 . S
C1583 C1582 1.373 . S
C1583 C1599 1.377 1_455 S
C1584 C1582 1.389 . S
C1584 C1585 1.524 . S
C1584 C1598 1.377 1_455 S
C1585 C1584 1.524 . S
C1585 C1586 1.397 . S
C1585 C1590 1.363 . S
C1586 H1563 0.950 . S
C1586 C1585 1.397 . S
C1586 C1587 1.334 . S
C1587 H1564 0.950 . S
C1587 C1586 1.334 . S
C1587 C1588 1.287 . S
C1588 C1587 1.287 . S
C1588 C1589 1.524 . S
C1588 H1607 0.913 . S
C1589 H1565 0.950 . S
C1589 C1588 1.524 . S
C1589 C1590 1.415 . S
C1590 H1566 0.950 1_455 S
C1590 C1585 1.363 . S
C1590 C1589 1.415 . S
C1591 H1567 0.951 . S
C1591 C1592 1.366 . S
C1591 C1593 1.388 . S
C1592 C1591 1.366 . S
C1592 C1596 1.385 . S
C1593 H1568 0.951 . S
C1593 C1591 1.388 . S
C1593 C1594 1.366 . S
C1594 C1593 1.366 . S
C1594 C1595 1.414 . S
C1594 C1597 1.499 . S
C1595 H1569 0.950 . S
C1595 C1594 1.414 . S
C1595 C1596 1.374 . S
C1596 H1570 0.950 . S
C1596 C1592 1.385 . S
C1596 C1595 1.374 . S
C1597 C1594 1.499 . S
C1597 C1598 1.373 . S
C1597 C1599 1.389 . S
C1598 H1571 0.950 . S
C1598 C1584 1.377 1_655 S
C1598 C1597 1.373 . S
C1599 C1583 1.377 1_655 S
C1599 C1597 1.389 . S
C1599 C1600 1.524 . S
C1600 C1599 1.524 . S
C1600 C1601 1.397 . S
C1600 C1605 1.363 . S
C1601 H1572 0.950 . S
C1601 C1600 1.397 . S
C1601 C1602 1.334 . S
C1602 H1573 0.950 . S
C1602 C1601 1.334 . S
C1602 C1603 1.287 . S
C1603 C1602 1.287 . S
C1603 C1604 1.524 . S
C1603 H1606 0.999 . S
C1604 H1574 0.950 . S
C1604 C1603 1.524 . S
C1604 C1605 1.415 . S
C1605 H1575 0.950 1_655 S
C1605 C1600 1.363 . S
C1605 C1604 1.415 . S
H1606 C1603 0.999 . S
H1607 C1588 0.913 . S
H1608 C1626 0.951 . S
H1609 C1628 0.951 . S
H1610 C1630 0.950 . S
H1611 C1631 0.950 . S
H1612 C1633 0.950 . S
H1613 C1636 0.950 . S
H1614 C1637 0.950 . S
H1615 C1639 0.950 . S
H1616 C1640 0.950 . S
H1617 C1641 0.951 . S
H1618 C1643 0.951 . S
H1619 C1645 0.950 . S
H1620 C1646 0.950 . S
H1621 C1648 0.950 . S
H1622 C1651 0.950 . S
H1623 C1652 0.950 . S
H1624 C1654 0.950 . S
H1625 C1655 0.950 . S
C1626 H1608 0.951 . S
C1626 C1627 1.366 . S
C1626 C1628 1.388 . S
C1627 C1626 1.366 . S
C1627 C1631 1.385 . S
C1628 H1609 0.951 . S
C1628 C1626 1.388 . S
C1628 C1629 1.366 . S
C1629 C1628 1.366 . S
C1629 C1630 1.414 . S
C1629 C1632 1.499 . S
C1630 H1610 0.950 . S
C1630 C1629 1.414 . S
C1630 C1631 1.374 . S
C1631 H1611 0.950 . S
C1631 C1627 1.385 . S
C1631 C1630 1.374 . S
C1632 C1629 1.499 . S
C1632 C1633 1.373 . S
C1632 C1634 1.389 . S
C1633 H1612 0.950 . S
C1633 C1632 1.373 . S
C1633 C1649 1.377 . S
C1634 C1632 1.389 . S
C1634 C1635 1.524 . S
C1634 C1648 1.377 . S
C1635 C1634 1.524 . S
C1635 C1636 1.397 . S
C1635 C1640 1.363 . S
C1636 H1613 0.950 . S
C1636 C1635 1.397 . S
C1636 C1637 1.334 . S
C1637 H1614 0.950 . S
C1637 C1636 1.334 . S
C1637 C1638 1.287 . S
C1638 C1637 1.287 . S
C1638 C1639 1.524 . S
C1638 H1657 0.913 . S
C1639 H1615 0.950 . S
C1639 C1638 1.524 . S
C1639 C1640 1.415 . S
C1640 H1616 0.950 . S
C1640 C1635 1.363 . S
C1640 C1639 1.415 . S
C1641 H1617 0.951 . S
C1641 C1642 1.366 . S
C1641 C1643 1.388 . S
C1642 C1641 1.366 . S
C1642 C1646 1.385 . S
C1643 H1618 0.951 . S
C1643 C1641 1.388 . S
C1643 C1644 1.366 . S
C1644 C1643 1.366 . S
C1644 C1645 1.414 . S
C1644 C1647 1.499 . S
C1645 H1619 0.950 . S
C1645 C1644 1.414 . S
C1645 C1646 1.374 . S
C1646 H1620 0.950 . S
C1646 C1642 1.385 . S
C1646 C1645 1.374 . S
C1647 C1644 1.499 . S
C1647 C1648 1.373 . S
C1647 C1649 1.389 . S
C1648 H1621 0.950 . S
C1648 C1634 1.377 . S
C1648 C1647 1.373 . S
C1649 C1633 1.377 . S
C1649 C1647 1.389 . S
C1649 C1650 1.524 . S
C1650 C1649 1.524 . S
C1650 C1651 1.397 . S
C1650 C1655 1.363 . S
C1651 H1622 0.950 . S
C1651 C1650 1.397 . S
C1651 C1652 1.334 . S
C1652 H1623 0.950 . S
C1652 C1651 1.334 . S
C1652 C1653 1.287 . S
C1653 C1652 1.287 . S
C1653 C1654 1.524 . S
C1653 H1656 0.999 . S
C1654 H1624 0.950 . S
C1654 C1653 1.524 . S
C1654 C1655 1.415 . S
C1655 H1625 0.950 . S
C1655 C1650 1.363 . S
C1655 C1654 1.415 . S
H1656 C1653 0.999 . S
H1657 C1638 0.913 . S
H1658 C1676 0.951 . S
H1659 C1678 0.951 . S
H1660 C1680 0.950 . S
H1661 C1681 0.950 . S
H1662 C1683 0.950 . S
H1663 C1686 0.950 . S
H1664 C1687 0.950 . S
H1665 C1689 0.953 . S
H1666 C1690 0.950 1_455 S
H1667 C1691 0.951 . S
H1668 C1693 0.951 . S
H1669 C1695 0.950 . S
H1670 C1696 0.950 . S
H1671 C1698 0.950 . S
H1672 C1701 0.950 . S
H1673 C1702 0.950 . S
H1674 C1704 0.949 . S
H1675 C1705 0.950 1_655 S
C1676 H1658 0.951 . S
C1676 C1677 1.366 . S
C1676 C1678 1.388 . S
C1677 C1676 1.366 . S
C1677 C1681 1.385 . S
C1678 H1659 0.951 . S
C1678 C1676 1.388 . S
C1678 C1679 1.366 . S
C1679 C1678 1.366 . S
C1679 C1680 1.414 . S
C1679 C1682 1.499 . S
C1680 H1660 0.950 . S
C1680 C1679 1.414 . S
C1680 C1681 1.374 . S
C1681 H1661 0.950 . S
C1681 C1677 1.385 . S
C1681 C1680 1.374 . S
C1682 C1679 1.499 . S
C1682 C1683 1.373 . S
C1682 C1684 1.389 . S
C1683 H1662 0.950 . S
C1683 C1682 1.373 . S
C1683 C1699 1.377 1_655 S
C1684 C1682 1.389 . S
C1684 C1685 1.524 . S
C1684 C1698 1.377 1_655 S
C1685 C1684 1.524 . S
C1685 C1686 1.397 . S
C1685 C1690 1.363 . S
C1686 H1663 0.950 . S
C1686 C1685 1.397 . S
C1686 C1687 1.334 . S
C1687 H1664 0.950 . S
C1687 C1686 1.334 . S
C1687 C1688 1.287 . S
C1688 C1687 1.287 . S
C1688 C1689 1.524 . S
C1688 H1707 0.913 . S
C1689 H1665 0.953 . S
C1689 C1688 1.524 . S
C1689 C1690 1.415 . S
C1690 H1666 0.950 1_655 S
C1690 C1685 1.363 . S
C1690 C1689 1.415 . S
C1691 H1667 0.951 . S
C1691 C1692 1.366 . S
C1691 C1693 1.388 . S
C1692 C1691 1.366 . S
C1692 C1696 1.385 . S
C1693 H1668 0.951 . S
C1693 C1691 1.388 . S
C1693 C1694 1.366 . S
C1694 C1693 1.366 . S
C1694 C1695 1.414 . S
C1694 C1697 1.499 . S
C1695 H1669 0.950 . S
C1695 C1694 1.414 . S
C1695 C1696 1.374 . S
C1696 H1670 0.950 . S
C1696 C1692 1.385 . S
C1696 C1695 1.374 . S
C1697 C1694 1.499 . S
C1697 C1698 1.373 . S
C1697 C1699 1.389 . S
C1698 H1671 0.950 . S
C1698 C1684 1.377 1_455 S
C1698 C1697 1.373 . S
C1699 C1683 1.377 1_455 S
C1699 C1697 1.389 . S
C1699 C1700 1.524 . S
C1700 C1699 1.524 . S
C1700 C1701 1.397 . S
C1700 C1705 1.363 . S
C1701 H1672 0.950 . S
C1701 C1700 1.397 . S
C1701 C1702 1.334 . S
C1702 H1673 0.950 . S
C1702 C1701 1.334 . S
C1702 C1703 1.287 . S
C1703 C1702 1.287 . S
C1703 C1704 1.524 . S
C1703 H1706 0.999 . S
C1704 H1674 0.949 . S
C1704 C1703 1.524 . S
C1704 C1705 1.415 . S
C1705 H1675 0.950 1_455 S
C1705 C1700 1.363 . S
C1705 C1704 1.415 . S
H1706 C1703 0.999 . S
H1707 C1688 0.913 . S
H1708 C1726 0.951 . S
H1709 C1728 0.951 . S
H1710 C1730 0.950 . S
H1711 C1731 0.950 . S
H1712 C1733 0.950 . S
H1713 C1736 0.950 . S
H1714 C1737 0.950 . S
H1715 C1739 0.950 . S
H1716 C1740 0.950 . S
H1717 C1741 0.951 . S
H1718 C1743 0.951 . S
H1719 C1745 0.950 . S
H1720 C1746 0.950 . S
H1721 C1748 0.950 . S
H1722 C1751 0.950 . S
H1723 C1752 0.950 . S
H1724 C1754 0.950 . S
H1725 C1755 0.950 . S
C1726 H1708 0.951 . S
C1726 C1727 1.366 . S
C1726 C1728 1.388 . S
C1727 C1726 1.366 . S
C1727 C1731 1.385 . S
C1728 H1709 0.951 . S
C1728 C1726 1.388 . S
C1728 C1729 1.366 . S
C1729 C1728 1.366 . S
C1729 C1730 1.414 . S
C1729 C1732 1.499 . S
C1730 H1710 0.950 . S
C1730 C1729 1.414 . S
C1730 C1731 1.374 . S
C1731 H1711 0.950 . S
C1731 C1727 1.385 . S
C1731 C1730 1.374 . S
C1732 C1729 1.499 . S
C1732 C1733 1.373 . S
C1732 C1734 1.389 . S
C1733 H1712 0.950 . S
C1733 C1732 1.373 . S
C1733 C1749 1.377 1_545 S
C1734 C1732 1.389 . S
C1734 C1735 1.524 . S
C1734 C1748 1.377 1_545 S
C1735 C1734 1.524 . S
C1735 C1736 1.397 . S
C1735 C1740 1.363 . S
C1736 H1713 0.950 . S
C1736 C1735 1.397 . S
C1736 C1737 1.334 . S
C1737 H1714 0.950 . S
C1737 C1736 1.334 . S
C1737 C1738 1.287 . S
C1738 C1737 1.287 . S
C1738 C1739 1.524 . S
C1738 H1757 0.913 . S
C1739 H1715 0.950 . S
C1739 C1738 1.524 . S
C1739 C1740 1.415 . S
C1740 H1716 0.950 . S
C1740 C1735 1.363 . S
C1740 C1739 1.415 . S
C1741 H1717 0.951 . S
C1741 C1742 1.366 . S
C1741 C1743 1.388 . S
C1742 C1741 1.366 . S
C1742 C1746 1.385 . S
C1743 H1718 0.951 . S
C1743 C1741 1.388 . S
C1743 C1744 1.366 . S
C1744 C1743 1.366 . S
C1744 C1745 1.414 . S
C1744 C1747 1.499 . S
C1745 H1719 0.950 . S
C1745 C1744 1.414 . S
C1745 C1746 1.374 . S
C1746 H1720 0.950 . S
C1746 C1742 1.385 . S
C1746 C1745 1.374 . S
C1747 C1744 1.499 . S
C1747 C1748 1.373 . S
C1747 C1749 1.389 . S
C1748 H1721 0.950 . S
C1748 C1734 1.377 1_565 S
C1748 C1747 1.373 . S
C1749 C1733 1.377 1_565 S
C1749 C1747 1.389 . S
C1749 C1750 1.524 . S
C1750 C1749 1.524 . S
C1750 C1751 1.397 . S
C1750 C1755 1.363 . S
C1751 H1722 0.950 . S
C1751 C1750 1.397 . S
C1751 C1752 1.334 . S
C1752 H1723 0.950 . S
C1752 C1751 1.334 . S
C1752 C1753 1.287 . S
C1753 C1752 1.287 . S
C1753 C1754 1.524 . S
C1753 H1756 0.999 . S
C1754 H1724 0.950 . S
C1754 C1753 1.524 . S
C1754 C1755 1.415 . S
C1755 H1725 0.950 . S
C1755 C1750 1.363 . S
C1755 C1754 1.415 . S
H1756 C1753 0.999 . S
H1757 C1738 0.913 . S
H1758 C1776 0.951 . S
H1759 C1778 0.951 . S
H1760 C1780 0.950 . S
H1761 C1781 0.950 . S
H1762 C1783 0.950 . S
H1763 C1786 0.950 . S
H1764 C1787 0.950 . S
H1765 C1789 0.950 . S
H1766 C1790 0.950 . S
H1767 C1791 0.951 . S
H1768 C1793 0.951 . S
H1769 C1795 0.950 . S
H1770 C1796 0.950 . S
H1771 C1798 0.950 . S
H1772 C1801 0.950 . S
H1773 C1802 0.950 . S
H1774 C1804 0.950 . S
H1775 C1805 0.950 . S
C1776 H1758 0.951 . S
C1776 C1777 1.366 . S
C1776 C1778 1.388 . S
C1777 C1776 1.366 . S
C1777 C1781 1.385 . S
C1778 H1759 0.951 . S
C1778 C1776 1.388 . S
C1778 C1779 1.366 . S
C1779 C1778 1.366 . S
C1779 C1780 1.414 . S
C1779 C1782 1.499 . S
C1780 H1760 0.950 . S
C1780 C1779 1.414 . S
C1780 C1781 1.374 . S
C1781 H1761 0.950 . S
C1781 C1777 1.385 . S
C1781 C1780 1.374 . S
C1782 C1779 1.499 . S
C1782 C1783 1.373 . S
C1782 C1784 1.389 . S
C1783 H1762 0.950 . S
C1783 C1782 1.373 . S
C1783 C1799 1.377 . S
C1784 C1782 1.389 . S
C1784 C1785 1.524 . S
C1784 C1798 1.377 . S
C1785 C1784 1.524 . S
C1785 C1786 1.397 . S
C1785 C1790 1.363 . S
C1786 H1763 0.950 . S
C1786 C1785 1.397 . S
C1786 C1787 1.334 . S
C1787 H1764 0.950 . S
C1787 C1786 1.334 . S
C1787 C1788 1.287 . S
C1788 C1787 1.287 . S
C1788 C1789 1.524 . S
C1788 H1807 0.913 . S
C1789 H1765 0.950 . S
C1789 C1788 1.524 . S
C1789 C1790 1.415 . S
C1790 H1766 0.950 . S
C1790 C1785 1.363 . S
C1790 C1789 1.415 . S
C1791 H1767 0.951 . S
C1791 C1792 1.366 . S
C1791 C1793 1.388 . S
C1792 C1791 1.366 . S
C1792 C1796 1.385 . S
C1793 H1768 0.951 . S
C1793 C1791 1.388 . S
C1793 C1794 1.366 . S
C1794 C1793 1.366 . S
C1794 C1795 1.414 . S
C1794 C1797 1.499 . S
C1795 H1769 0.950 . S
C1795 C1794 1.414 . S
C1795 C1796 1.374 . S
C1796 H1770 0.950 . S
C1796 C1792 1.385 . S
C1796 C1795 1.374 . S
C1797 C1794 1.499 . S
C1797 C1798 1.373 . S
C1797 C1799 1.389 . S
C1798 H1771 0.950 . S
C1798 C1784 1.377 . S
C1798 C1797 1.373 . S
C1799 C1783 1.377 . S
C1799 C1797 1.389 . S
C1799 C1800 1.524 . S
C1800 C1799 1.524 . S
C1800 C1801 1.397 . S
C1800 C1805 1.363 . S
C1801 H1772 0.950 . S
C1801 C1800 1.397 . S
C1801 C1802 1.334 . S
C1802 H1773 0.950 . S
C1802 C1801 1.334 . S
C1802 C1803 1.287 . S
C1803 C1802 1.287 . S
C1803 C1804 1.524 . S
C1803 H1806 0.999 . S
C1804 H1774 0.950 . S
C1804 C1803 1.524 . S
C1804 C1805 1.415 . S
C1805 H1775 0.950 . S
C1805 C1800 1.363 . S
C1805 C1804 1.415 . S
H1806 C1803 0.999 . S
H1807 C1788 0.913 . S
H1808 C1826 0.951 . S
H1809 C1828 0.951 . S
H1810 C1830 0.950 . S
H1811 C1831 0.950 . S
H1812 C1833 0.950 . S
H1813 C1836 0.950 . S
H1814 C1837 0.950 . S
H1815 C1839 0.950 . S
H1816 C1840 0.950 . S
H1817 C1841 0.951 . S
H1818 C1843 0.951 . S
H1819 C1845 0.950 . S
H1820 C1846 0.950 . S
H1821 C1848 0.950 . S
H1822 C1851 0.950 . S
H1823 C1852 0.950 . S
H1824 C1854 0.950 . S
H1825 C1855 0.950 . S
C1826 H1808 0.951 . S
C1826 C1827 1.366 . S
C1826 C1828 1.388 . S
C1827 C1826 1.366 . S
C1827 C1831 1.385 . S
C1828 H1809 0.951 . S
C1828 C1826 1.388 . S
C1828 C1829 1.366 . S
C1829 C1828 1.366 . S
C1829 C1830 1.414 . S
C1829 C1832 1.499 . S
C1830 H1810 0.950 . S
C1830 C1829 1.414 . S
C1830 C1831 1.374 . S
C1831 H1811 0.950 . S
C1831 C1827 1.385 . S
C1831 C1830 1.374 . S
C1832 C1829 1.499 . S
C1832 C1833 1.373 . S
C1832 C1834 1.389 . S
C1833 H1812 0.950 . S
C1833 C1832 1.373 . S
C1833 C1849 1.377 1_455 S
C1834 C1832 1.389 . S
C1834 C1835 1.524 . S
C1834 C1848 1.377 1_455 S
C1835 C1834 1.524 . S
C1835 C1836 1.397 . S
C1835 C1840 1.363 . S
C1836 H1813 0.950 . S
C1836 C1835 1.397 . S
C1836 C1837 1.334 . S
C1837 H1814 0.950 . S
C1837 C1836 1.334 . S
C1837 C1838 1.287 . S
C1838 C1837 1.287 . S
C1838 C1839 1.524 . S
C1838 H1857 0.913 . S
C1839 H1815 0.950 . S
C1839 C1838 1.524 . S
C1839 C1840 1.415 . S
C1840 H1816 0.950 . S
C1840 C1835 1.363 . S
C1840 C1839 1.415 . S
C1841 H1817 0.951 . S
C1841 C1842 1.366 . S
C1841 C1843 1.388 . S
C1842 C1841 1.366 . S
C1842 C1846 1.385 . S
C1843 H1818 0.951 . S
C1843 C1841 1.388 . S
C1843 C1844 1.366 . S
C1844 C1843 1.366 . S
C1844 C1845 1.414 . S
C1844 C1847 1.499 . S
C1845 H1819 0.950 . S
C1845 C1844 1.414 . S
C1845 C1846 1.374 . S
C1846 H1820 0.950 . S
C1846 C1842 1.385 . S
C1846 C1845 1.374 . S
C1847 C1844 1.499 . S
C1847 C1848 1.373 . S
C1847 C1849 1.389 . S
C1848 H1821 0.950 . S
C1848 C1834 1.377 1_655 S
C1848 C1847 1.373 . S
C1849 C1833 1.377 1_655 S
C1849 C1847 1.389 . S
C1849 C1850 1.524 . S
C1850 C1849 1.524 . S
C1850 C1851 1.397 . S
C1850 C1855 1.363 . S
C1851 H1822 0.950 . S
C1851 C1850 1.397 . S
C1851 C1852 1.334 . S
C1852 H1823 0.950 . S
C1852 C1851 1.334 . S
C1852 C1853 1.287 . S
C1853 C1852 1.287 . S
C1853 C1854 1.524 . S
C1853 H1856 0.999 . S
C1854 H1824 0.950 . S
C1854 C1853 1.524 . S
C1854 C1855 1.415 . S
C1855 H1825 0.950 . S
C1855 C1850 1.363 . S
C1855 C1854 1.415 . S
H1856 C1853 0.999 . S
H1857 C1838 0.913 . S
H1858 C1876 0.951 . S
H1859 C1878 0.951 . S
H1860 C1880 0.950 . S
H1861 C1881 0.950 . S
H1862 C1883 0.950 . S
H1863 C1886 0.950 . S
H1864 C1887 0.950 . S
H1865 C1889 0.950 . S
H1866 C1890 0.950 . S
H1867 C1891 0.951 . S
H1868 C1893 0.951 . S
H1869 C1895 0.950 . S
H1870 C1896 0.950 . S
H1871 C1898 0.950 . S
H1872 C1901 0.950 . S
H1873 C1902 0.950 . S
H1874 C1904 0.950 . S
H1875 C1905 0.950 . S
C1876 H1858 0.951 . S
C1876 C1877 1.366 . S
C1876 C1878 1.388 . S
C1877 C1876 1.366 . S
C1877 C1881 1.385 . S
C1878 H1859 0.951 . S
C1878 C1876 1.388 . S
C1878 C1879 1.366 . S
C1879 C1878 1.366 . S
C1879 C1880 1.414 . S
C1879 C1882 1.499 . S
C1880 H1860 0.950 . S
C1880 C1879 1.414 . S
C1880 C1881 1.374 . S
C1881 H1861 0.950 . S
C1881 C1877 1.385 . S
C1881 C1880 1.374 . S
C1882 C1879 1.499 . S
C1882 C1883 1.373 . S
C1882 C1884 1.389 . S
C1883 H1862 0.950 . S
C1883 C1882 1.373 . S
C1883 C1899 1.377 1_565 S
C1884 C1882 1.389 . S
C1884 C1885 1.524 . S
C1884 C1898 1.377 1_565 S
C1885 C1884 1.524 . S
C1885 C1886 1.397 . S
C1885 C1890 1.363 . S
C1886 H1863 0.950 . S
C1886 C1885 1.397 . S
C1886 C1887 1.334 . S
C1887 H1864 0.950 . S
C1887 C1886 1.334 . S
C1887 C1888 1.287 . S
C1888 C1887 1.287 . S
C1888 C1889 1.524 . S
C1888 H1907 0.913 . S
C1889 H1865 0.950 . S
C1889 C1888 1.524 . S
C1889 C1890 1.415 . S
C1890 H1866 0.950 . S
C1890 C1885 1.363 . S
C1890 C1889 1.415 . S
C1891 H1867 0.951 . S
C1891 C1892 1.366 . S
C1891 C1893 1.388 . S
C1892 C1891 1.366 . S
C1892 C1896 1.385 . S
C1893 H1868 0.951 . S
C1893 C1891 1.388 . S
C1893 C1894 1.366 . S
C1894 C1893 1.366 . S
C1894 C1895 1.414 . S
C1894 C1897 1.499 . S
C1895 H1869 0.950 . S
C1895 C1894 1.414 . S
C1895 C1896 1.374 . S
C1896 H1870 0.950 . S
C1896 C1892 1.385 . S
C1896 C1895 1.374 . S
C1897 C1894 1.499 . S
C1897 C1898 1.373 . S
C1897 C1899 1.389 . S
C1898 H1871 0.950 . S
C1898 C1884 1.377 1_545 S
C1898 C1897 1.373 . S
C1899 C1883 1.377 1_545 S
C1899 C1897 1.389 . S
C1899 C1900 1.524 . S
C1900 C1899 1.524 . S
C1900 C1901 1.397 . S
C1900 C1905 1.363 . S
C1901 H1872 0.950 . S
C1901 C1900 1.397 . S
C1901 C1902 1.334 . S
C1902 H1873 0.950 . S
C1902 C1901 1.334 . S
C1902 C1903 1.287 . S
C1903 C1902 1.287 . S
C1903 C1904 1.524 . S
C1903 H1906 0.999 . S
C1904 H1874 0.950 . S
C1904 C1903 1.524 . S
C1904 C1905 1.415 . S
C1905 H1875 0.950 . S
C1905 C1900 1.363 . S
C1905 C1904 1.415 . S
H1906 C1903 0.999 . S
H1907 C1888 0.913 . S
C727 C593 1.312 . S
C742 C3 1.312 . S
C777 C62 1.312 . S
C792 C652 1.312 . S
C827 C121 1.312 . S
C842 C357 1.311 . S
C877 C180 1.312 . S
C892 C416 1.311 . S
C927 C475 1.312 . S
C942 C239 1.312 . S
C977 C298 1.312 . S
C992 C534 1.312 . S
C1027 C505 1.189 . S
C1042 C33 1.189 . S
C1077 C92 1.189 . S
C1092 C564 1.189 . S
C1127 C151 1.189 . S
C1142 C623 1.188 . S
C1177 C210 1.189 . S
C1192 C682 1.189 . S
C1227 C387 1.189 . S
C1242 C269 1.189 . S
C1277 C446 1.190 . S
C1292 C328 1.189 . S
C1327 C229 1.679 . S
C1342 C52 1.679 . S
C1377 C111 1.679 . S
C1392 C288 1.678 . S
C1427 C347 1.678 . S
C1442 C170 1.678 . S
C1477 C583 1.679 . S
C1492 C406 1.679 . S
C1527 C642 1.678 . S
C1542 C465 1.678 . S
C1577 C524 1.679 . S
C1592 C701 1.678 . S
C1627 C182 1.245 . S
C1642 C5 1.245 . S
C1677 C64 1.245 . S
C1692 C241 1.245 . S
C1727 C300 1.245 . S
C1742 C123 1.245 . S
C1777 C359 1.245 . S
C1792 C536 1.245 . S
C1827 C595 1.245 . S
C1842 C418 1.245 . S
C1877 C477 1.245 . S
C1892 C654 1.245 . S
