# Generated by pormake.
# Topology nbo, (4)-cn, num edge types: 1
# Building blocks:
#     Node 0, Type 0, BuildingBlock: NAWXER_clean_sbu_0, # of connection points: 4
#     Node 1, Type 0, BuildingBlock: NAWXER_clean_sbu_0, # of connection points: 4
#     Node 2, Type 0, BuildingBlock: NAWXER_clean_sbu_0, # of connection points: 4
#     Node 3, Type 0, BuildingBlock: NAWXER_clean_sbu_0, # of connection points: 4
#     Node 4, Type 0, BuildingBlock: NAWXER_clean_sbu_0, # of connection points: 4
#     Node 5, Type 0, BuildingBlock: NAWXER_clean_sbu_0, # of connection points: 4
#     Edge 6, Type (0, 0), BuildingBlock: UVAHIK_clean_linker_0, # of connection points: 2
#     Edge 7, Type (0, 0), BuildingBlock: UVAHIK_clean_linker_0, # of connection points: 2
#     Edge 8, Type (0, 0), BuildingBlock: UVAHIK_clean_linker_0, # of connection points: 2
#     Edge 9, Type (0, 0), BuildingBlock: UVAHIK_clean_linker_0, # of connection points: 2
#     Edge 10, Type (0, 0), BuildingBlock: UVAHIK_clean_linker_0, # of connection points: 2
#     Edge 11, Type (0, 0), BuildingBlock: UVAHIK_clean_linker_0, # of connection points: 2
#     Edge 12, Type (0, 0), BuildingBlock: UVAHIK_clean_linker_0, # of connection points: 2
#     Edge 13, Type (0, 0), BuildingBlock: UVAHIK_clean_linker_0, # of connection points: 2
#     Edge 14, Type (0, 0), BuildingBlock: UVAHIK_clean_linker_0, # of connection points: 2
#     Edge 15, Type (0, 0), BuildingBlock: UVAHIK_clean_linker_0, # of connection points: 2
#     Edge 16, Type (0, 0), BuildingBlock: UVAHIK_clean_linker_0, # of connection points: 2
#     Edge 17, Type (0, 0), BuildingBlock: UVAHIK_clean_linker_0, # of connection points: 2
# Relax obj value: 0.000
# Max RMSD: 0.000
# Mean RMSD: 0.000
data_MOF--net-nbo--node1-NAWXER_clean_sbu_0--edge1-UVAHIK_clean_linker_0
_symmetry_space_group_name_H-M    P1
_symmetry_Int_Tables_number       1
_symmetry_cell_setting            triclinic
loop_
_symmetry_equiv_pos_as_xyz
'x, y, z'
_cell_length_a     38.425405
_cell_length_b     38.406694
_cell_length_c     38.413613
_cell_angle_alpha  97.501153
_cell_angle_beta   97.429531
_cell_angle_gamma 97.489149
loop_
_atom_site_label
_atom_site_type_symbol
_atom_site_fract_x
_atom_site_fract_y
_atom_site_fract_z
_atom_type_partial_charge
C0 C 0.94909 0.00824 0.51252 0.0
C1 C 0.94257 0.88101 0.51619 0.0
O2 O 0.94159 0.98973 0.48147 0.0
Zn3 Zn 0.93508 0.93449 0.45854 0.0
O4 O 0.95471 0.99278 0.53955 0.0
Zn5 Zn 0.94656 0.9447 0.51467 0.0
O6 O 0.99206 0.94335 0.48803 0.0
O7 O 0.97359 0.93247 0.43043 0.0
O8 O 0.95 0.90625 0.54209 0.0
O9 O 0.93636 0.88802 0.48441 0.0
O10 O 0.8869 0.92705 0.43439 0.0
O11 O 0.89086 0.93723 0.49278 0.0
C12 C 0.99898 0.93842 0.45615 0.0
C13 C 0.87183 0.93078 0.46195 0.0
C14 C 0.53225 0.11683 0.96725 0.0
C15 C 0.53644 0.98935 0.95812 0.0
O16 O 0.5594 0.10118 0.97036 0.0
Zn17 Zn 0.53453 0.05308 0.96243 0.0
O18 O 0.50121 0.09828 0.96056 0.0
Zn19 Zn 0.47859 0.04285 0.95189 0.0
O20 O 0.45065 0.03989 0.9901 0.0
O21 O 0.50828 0.051 0.0086 0.0
O22 O 0.50455 0.9962 0.95251 0.0
O23 O 0.56219 0.01476 0.96505 0.0
O24 O 0.51218 0.04601 0.90697 0.0
O25 O 0.45395 0.03649 0.90394 0.0
C26 C 0.47638 0.04572 0.01549 0.0
C27 C 0.48117 0.04003 0.88839 0.0
C28 C 0.13707 0.54928 0.07461 0.0
C29 C 0.0099 0.55428 0.06734 0.0
O30 O 0.11819 0.51843 0.06704 0.0
Zn31 Zn 0.06295 0.49609 0.06032 0.0
O32 O 0.12196 0.57657 0.08026 0.0
Zn33 Zn 0.07356 0.55211 0.07205 0.0
O34 O 0.07147 0.52534 0.11761 0.0
O35 O 0.06038 0.46784 0.09852 0.0
O36 O 0.03532 0.57999 0.07533 0.0
O37 O 0.01669 0.52241 0.06109 0.0
O38 O 0.0557 0.47188 0.01221 0.0
O39 O 0.06583 0.53026 0.01602 0.0
C40 C 0.06623 0.49334 0.12417 0.0
C41 C 0.05932 0.49936 0.99704 0.0
C42 C 0.56585 0.62521 0.99177 0.0
C43 C 0.55895 0.49842 0.99897 0.0
O44 O 0.55813 0.59929 0.96658 0.0
Zn45 Zn 0.56194 0.56153 0.99518 0.0
O46 O 0.57235 0.61914 0.02382 0.0
Zn47 Zn 0.57375 0.57386 0.05109 0.0
O48 O 0.62223 0.5819 0.0749 0.0
O49 O 0.61762 0.56844 0.01667 0.0
O50 O 0.56596 0.51767 0.02973 0.0
O51 O 0.55452 0.51329 0.97137 0.0
O52 O 0.5164 0.56247 0.02229 0.0
O53 O 0.53587 0.57782 0.07954 0.0
C54 C 0.6369 0.57609 0.04732 0.0
C55 C 0.51011 0.5693 0.05426 0.0
C56 C 0.97361 0.51617 0.54391 0.0
C57 C 0.97728 0.38914 0.53849 0.0
O58 O 0.00548 0.50934 0.54997 0.0
Zn59 Zn 0.03135 0.46266 0.5516 0.0
O60 O 0.94784 0.4908 0.53697 0.0
Zn61 Zn 0.97546 0.45267 0.54053 0.0
O62 O 0.99762 0.46107 0.59639 0.0
O63 O 0.05592 0.47057 0.5996 0.0
O64 O 0.95039 0.40478 0.53294 0.0
O65 O 0.00842 0.40746 0.5457 0.0
O66 O 0.0593 0.46419 0.51303 0.0
O67 O 1.00173 0.45382 0.49453 0.0
C68 C 0.02862 0.46755 0.61509 0.0
C69 C 0.03362 0.45849 0.4876 0.0
C70 C 0.49898 0.95725 0.4376 0.0
C71 C 0.37131 0.96046 0.42896 0.0
O72 O 0.47402 0.93104 0.43151 0.0
Zn73 Zn 0.4351 0.95826 0.43321 0.0
O74 O 0.49142 0.98895 0.44231 0.0
Zn75 Zn 0.44481 0.01453 0.44312 0.0
O76 O 0.45155 0.03954 0.49113 0.0
O77 O 0.44241 0.9813 0.48841 0.0
O78 O 0.38984 0.9915 0.43528 0.0
O79 O 0.38693 0.93326 0.42575 0.0
O80 O 0.43698 0.98397 0.3867 0.0
O81 O 0.44717 0.04182 0.40443 0.0
C82 C 0.4484 0.01241 0.50685 0.0
C83 C 0.44179 0.01574 0.37936 0.0
C84 C 0.97128 0.06936 0.54601 0.0
C85 C 0.95081 0.04729 0.51645 0.0
C86 C 0.97357 0.10634 0.54891 0.0
C87 C 0.95534 0.17816 0.49472 0.0
H88 H 0.96844 0.2362 0.58726 0.0
C89 C 0.94291 0.32834 0.51685 0.0
C90 C 0.97301 0.35009 0.53685 0.0
C91 C 0.93953 0.29135 0.51465 0.0
C92 C 0.96484 0.22023 0.56128 0.0
H93 H 0.91573 0.0465 0.46734 0.0
H94 H 0.91812 0.11054 0.47314 0.0
H95 H 0.96294 0.17173 0.58308 0.0
H96 H 0.0227 0.35025 0.57087 0.0
H97 H 0.01615 0.28564 0.56787 0.0
H98 H 0.95597 0.22698 0.47314 0.0
C99 C 0.93373 0.09973 0.49349 0.0
C100 C 0.96196 0.18326 0.5588 0.0
C101 C 0.93209 0.06287 0.49024 0.0
C102 C 0.99929 0.33416 0.55512 0.0
C103 C 0.99551 0.29727 0.55357 0.0
C104 C 0.95746 0.21504 0.49723 0.0
C105 C 0.9548 0.12212 0.52267 0.0
C106 C 0.95737 0.16163 0.52546 0.0
C107 C 0.96576 0.27553 0.53309 0.0
C108 C 0.96245 0.2364 0.53051 0.0
H109 H 0.98619 0.05809 0.56652 0.0
H110 H 0.99062 0.12248 0.57147 0.0
H111 H 0.95268 0.16276 0.46858 0.0
H112 H 0.92229 0.33987 0.50241 0.0
H113 H 0.9163 0.27509 0.49876 0.0
C114 C 0.81148 0.92516 0.42555 0.0
C115 C 0.83273 0.92885 0.45888 0.0
C116 C 0.77481 0.92529 0.42309 0.0
C117 C 0.70806 0.95631 0.47588 0.0
H118 H 0.64027 0.89605 0.40175 0.0
C119 C 0.54609 0.91751 0.43432 0.0
C120 C 0.53665 0.95179 0.43941 0.0
C121 C 0.58185 0.91289 0.43642 0.0
C122 C 0.65884 0.91283 0.42279 0.0
H123 H 0.83181 0.93438 0.5157 0.0
H124 H 0.76808 0.93418 0.51136 0.0
H125 H 0.70325 0.89019 0.4062 0.0
H126 H 0.5575 0.00807 0.45029 0.0
H127 H 0.61942 1.0 0.45366 0.0
H128 H 0.66384 0.97872 0.49277 0.0
C129 C 0.77977 0.93185 0.48713 0.0
C130 C 0.69497 0.90975 0.4251 0.0
C131 C 0.81634 0.93178 0.48959 0.0
C132 C 0.56373 0.98125 0.44641 0.0
C133 C 0.59934 0.97664 0.44856 0.0
C134 C 0.67206 0.95942 0.47354 0.0
C135 C 0.75859 0.92909 0.4539 0.0
C136 C 0.72002 0.93155 0.45163 0.0
C137 C 0.6089 0.94243 0.44379 0.0
C138 C 0.64702 0.93793 0.44683 0.0
H139 H 0.82324 0.92287 0.40136 0.0
H140 H 0.75934 0.92343 0.39709 0.0
H141 H 0.72661 0.97382 0.49639 0.0
H142 H 0.5259 0.89424 0.42887 0.0
H143 H 0.58835 0.88617 0.43288 0.0
C144 C 0.99279 0.5815 0.56269 0.0
C145 C 0.96726 0.55338 0.54419 0.0
C146 C 0.9875 0.61675 0.56191 0.0
C147 C 0.94627 0.67276 0.50589 0.0
H148 H 0.95376 0.74092 0.59137 0.0
C149 C 0.92161 0.81616 0.49716 0.0
C150 C 0.9419 0.84367 0.5221 0.0
C151 C 0.92224 0.78068 0.50149 0.0
C152 C 0.95212 0.72247 0.56717 0.0
H153 H 0.91616 0.54011 0.51049 0.0
H154 H 0.90749 0.60191 0.50827 0.0
H155 H 0.96019 0.67921 0.59603 0.0
H156 H 0.97866 0.85571 0.57128 0.0
H157 H 0.98125 0.79385 0.57809 0.0
H158 H 0.94005 0.71574 0.4768 0.0
C159 C 0.93132 0.5965 0.5237 0.0
C160 C 0.95555 0.68705 0.56994 0.0
C161 C 0.93623 0.56122 0.5251 0.0
C162 C 0.96253 0.83502 0.55176 0.0
C163 C 0.96381 0.79945 0.55571 0.0
C164 C 0.94357 0.70825 0.50308 0.0
C165 C 0.95696 0.62456 0.54202 0.0
C166 C 0.95256 0.6619 0.53931 0.0
C167 C 0.94388 0.77171 0.53046 0.0
C168 C 0.94636 0.73369 0.53367 0.0
H169 H 0.01691 0.57627 0.57773 0.0
H170 H 0.00774 0.63795 0.57609 0.0
H171 H 0.94435 0.65392 0.48188 0.0
H172 H 0.90512 0.82207 0.47423 0.0
H173 H 0.90571 0.76033 0.48197 0.0
C174 C 0.31542 0.98744 0.42772 0.0
C175 C 0.33213 0.95693 0.42645 0.0
C176 C 0.27882 0.98485 0.42742 0.0
C177 C 0.19421 0.92248 0.40758 0.0
H178 H 0.16342 0.99261 0.47432 0.0
C179 C 0.04542 0.93356 0.41567 0.0
C180 C 0.03645 0.93967 0.45008 0.0
C181 C 0.08106 0.93503 0.41062 0.0
C182 C 0.17154 0.97271 0.45563 0.0
H183 H 0.32316 0.89956 0.42284 0.0
H184 H 0.25905 0.89506 0.42278 0.0
H185 H 0.2261 0.99566 0.46931 0.0
H186 H 0.05801 0.95168 0.50615 0.0
H187 H 0.11961 0.95404 0.49735 0.0
H188 H 0.13941 0.89911 0.39462 0.0
C189 C 0.27437 0.92099 0.42366 0.0
C190 C 0.20748 0.97469 0.45246 0.0
C191 C 0.31113 0.92359 0.42389 0.0
C192 C 0.06385 0.94703 0.47923 0.0
C193 C 0.09929 0.94858 0.4742 0.0
C194 C 0.15809 0.92054 0.41071 0.0
C195 C 0.25788 0.95169 0.42598 0.0
C196 C 0.21934 0.94956 0.42851 0.0
C197 C 0.1084 0.94284 0.43988 0.0
C198 C 0.14641 0.94549 0.43503 0.0
H199 H 0.33067 0.01354 0.42934 0.0
H200 H 0.26692 0.00895 0.42853 0.0
H201 H 0.20243 0.90288 0.38867 0.0
H202 H 0.02496 0.92777 0.39265 0.0
H203 H 0.08724 0.9307 0.38382 0.0
C204 C 0.43697 0.99234 0.31468 0.0
C205 C 0.44168 0.02155 0.34192 0.0
C206 C 0.43782 0.99741 0.27944 0.0
C207 C 0.47125 0.06311 0.22503 0.0
H208 H 0.40969 0.99946 0.14844 0.0
C209 C 0.49889 0.05111 0.08041 0.0
C210 C 0.47004 0.04599 0.0528 0.0
C211 C 0.49332 0.05062 0.11557 0.0
C212 C 0.4268 0.01777 0.16946 0.0
H213 H 0.45047 0.07909 0.35327 0.0
H214 H 0.45159 0.08795 0.29157 0.0
H215 H 0.40268 0.99445 0.20981 0.0
H216 H 0.41258 0.0368 0.04068 0.0
H217 H 0.40282 0.03631 0.10223 0.0
H218 H 0.49515 0.08664 0.18468 0.0
C219 C 0.44768 0.06108 0.29762 0.0
C220 C 0.42307 0.01461 0.2047 0.0
C221 C 0.44686 0.05601 0.33297 0.0
C222 C 0.43541 0.04071 0.06128 0.0
C223 C 0.42982 0.04026 0.09655 0.0
C224 C 0.47494 0.0663 0.18979 0.0
C225 C 0.44333 0.03182 0.27043 0.0
C226 C 0.44558 0.0369 0.23294 0.0
C227 C 0.45873 0.04508 0.12412 0.0
C228 C 0.45311 0.04334 0.16155 0.0
H229 H 0.43302 0.96541 0.32057 0.0
H230 H 0.43495 0.97425 0.25934 0.0
H231 H 0.48922 0.08055 0.24606 0.0
H232 H 0.52595 0.05514 0.07489 0.0
H233 H 0.51622 0.05383 0.13598 0.0
C234 C 0.07174 0.51539 0.18924 0.0
C235 C 0.06647 0.48668 0.16141 0.0
C236 C 0.07113 0.50959 0.22433 0.0
C237 C 0.03777 0.44276 0.27776 0.0
H238 H 0.10014 0.50507 0.35473 0.0
C239 C 0.07451 0.46327 0.44161 0.0
C240 C 0.03993 0.458 0.45022 0.0
C241 C 0.07999 0.46391 0.40631 0.0
C242 C 0.08281 0.48711 0.33361 0.0
H243 H 0.05689 0.42922 0.14886 0.0
H244 H 0.05621 0.41905 0.21028 0.0
H245 H 0.10667 0.51108 0.29348 0.0
H246 H 0.98399 0.44893 0.42825 0.0
H247 H 0.9935 0.45055 0.36717 0.0
H248 H 0.01411 0.41858 0.31789 0.0
C249 C 0.06037 0.44613 0.20483 0.0
C250 C 0.08625 0.49085 0.29842 0.0
C251 C 0.06094 0.45194 0.16962 0.0
C252 C 0.01102 0.45295 0.42266 0.0
C253 C 0.01647 0.45362 0.38748 0.0
C254 C 0.03436 0.43898 0.31295 0.0
C255 C 0.06532 0.47491 0.23263 0.0
C256 C 0.06343 0.4691 0.27002 0.0
C257 C 0.05101 0.45927 0.3788 0.0
C258 C 0.05647 0.46146 0.34135 0.0
H259 H 0.07596 0.54252 0.18395 0.0
H260 H 0.07444 0.53242 0.24488 0.0
H261 H 0.01956 0.42569 0.25664 0.0
H262 H 0.09738 0.46714 0.46215 0.0
H263 H 0.10696 0.46793 0.40056 0.0
C264 C 0.45177 0.98604 0.56326 0.0
C265 C 0.45166 0.01623 0.54612 0.0
C266 C 0.45493 0.98927 0.60023 0.0
C267 C 0.442 0.04816 0.67965 0.0
H268 H 0.50448 0.99317 0.72928 0.0
C269 C 0.44387 0.03487 0.82859 0.0
C270 C 0.47742 0.03758 0.84919 0.0
C271 C 0.44063 0.03293 0.79163 0.0
C272 C 0.48706 0.00885 0.71585 0.0
H273 H 0.4546 0.07356 0.55453 0.0
H274 H 0.46007 0.07917 0.61925 0.0
H275 H 0.49955 0.98923 0.6649 0.0
H276 H 0.53385 0.04034 0.84697 0.0
H277 H 0.52813 0.03687 0.78267 0.0
H278 H 0.42969 0.06792 0.73075 0.0
C279 C 0.45754 0.05297 0.60393 0.0
C280 C 0.48399 0.00634 0.67893 0.0
C281 C 0.45461 0.04977 0.56688 0.0
C282 C 0.50759 0.03821 0.83196 0.0
C283 C 0.50432 0.03605 0.79505 0.0
C284 C 0.44488 0.05048 0.71662 0.0
C285 C 0.45788 0.02274 0.62102 0.0
C286 C 0.46142 0.02593 0.66038 0.0
C287 C 0.47082 0.0334 0.77444 0.0
C288 C 0.46749 0.03087 0.73514 0.0
H289 H 0.44949 0.95978 0.54815 0.0
H290 H 0.45466 0.96543 0.61252 0.0
H291 H 0.42417 0.06337 0.66611 0.0
H292 H 0.42009 0.03433 0.84099 0.0
H293 H 0.41442 0.03056 0.77646 0.0
C294 C 0.06577 0.47419 0.67515 0.0
C295 C 0.03228 0.47126 0.6544 0.0
C296 C 0.06898 0.47723 0.71219 0.0
C297 C 0.02277 0.50356 0.78766 0.0
H298 H 0.08457 0.44879 0.83843 0.0
C299 C 0.05658 0.52633 0.94084 0.0
C300 C 0.05624 0.49598 0.95777 0.0
C301 C 0.05374 0.52331 0.90386 0.0
C302 C 0.06706 0.46412 0.82461 0.0
H303 H 0.97591 0.46944 0.65645 0.0
H304 H 0.98156 0.47485 0.72094 0.0
H305 H 0.0794 0.44352 0.77381 0.0
H306 H 0.05274 0.4386 0.94897 0.0
H307 H 0.04787 0.43337 0.8844 0.0
H308 H 0.01022 0.52397 0.83839 0.0
C309 C 0.00537 0.47496 0.70859 0.0
C310 C 0.06438 0.46138 0.78764 0.0
C311 C 1.00212 0.47166 0.67158 0.0
C312 C 0.0531 0.46252 0.93681 0.0
C313 C 0.05052 0.45953 0.89982 0.0
C314 C 0.02566 0.50651 0.82464 0.0
C315 C 0.03881 0.4777 0.72934 0.0
C316 C 0.04211 0.48098 0.76871 0.0
C317 C 0.05074 0.48989 0.88291 0.0
C318 C 0.04777 0.48677 0.84356 0.0
H319 H 0.08955 0.47397 0.6628 0.0
H320 H 0.09516 0.47965 0.72745 0.0
H321 H 0.00562 0.51926 0.77392 0.0
H322 H 0.05899 0.55253 0.95613 0.0
H323 H 0.05438 0.54725 0.8917 0.0
C324 C 0.19868 0.5829 0.09447 0.0
C325 C 0.17609 0.55259 0.076 0.0
C326 C 0.23558 0.58528 0.09599 0.0
C327 C 0.30629 0.52915 0.07886 0.0
H328 H 0.36365 0.61989 0.07823 0.0
C329 C 0.44575 0.54514 0.03708 0.0
C330 C 0.47293 0.56719 0.0611 0.0
C331 C 0.41041 0.54352 0.04262 0.0
C332 C 0.34793 0.59446 0.07878 0.0
H333 H 0.17438 0.50147 0.04384 0.0
H334 H 0.23806 0.5062 0.04499 0.0
H335 H 0.30003 0.6171 0.07995 0.0
H336 H 0.48438 0.60502 0.10967 0.0
H337 H 0.42202 0.60303 0.1187 0.0
H338 H 0.35412 0.50648 0.07572 0.0
C339 C 0.22779 0.52764 0.05964 0.0
C340 C 0.31147 0.59279 0.07992 0.0
C341 C 0.19108 0.52501 0.05868 0.0
C342 C 0.46399 0.58767 0.09082 0.0
C343 C 0.42841 0.58668 0.09591 0.0
C344 C 0.34252 0.53078 0.077 0.0
C345 C 0.25069 0.55765 0.07856 0.0
C346 C 0.28999 0.56001 0.07953 0.0
C347 C 0.40136 0.5645 0.07186 0.0
C348 C 0.3636 0.56337 0.07662 0.0
H349 H 0.18789 0.60452 0.10824 0.0
H350 H 0.2522 0.60862 0.11125 0.0
H351 H 0.29106 0.50354 0.07957 0.0
H352 H 0.45184 0.52897 0.014 0.0
H353 H 0.38999 0.52636 0.02361 0.0
C354 C 0.55772 0.44254 0.02641 0.0
C355 C 0.55648 0.45923 0.99588 0.0
C356 C 0.55566 0.40564 0.02365 0.0
C357 C 0.56968 0.3266 0.9646 0.0
H358 H 0.50955 0.27522 0.02049 0.0
C359 C 0.56949 0.17697 0.97411 0.0
C360 C 0.53601 0.15615 0.9712 0.0
C361 C 0.57267 0.21404 0.97741 0.0
C362 C 0.52637 0.28916 0.00462 0.0
H363 H 0.55219 0.45005 0.93844 0.0
H364 H 0.54866 0.38561 0.93367 0.0
H365 H 0.51334 0.33964 0.02515 0.0
H366 H 0.47965 0.15812 0.96972 0.0
H367 H 0.48526 0.22259 0.97559 0.0
H368 H 0.58244 0.27602 0.94384 0.0
C369 C 0.55142 0.40118 0.95977 0.0
C370 C 0.52878 0.3261 0.00752 0.0
C371 C 0.55321 0.43809 0.9625 0.0
C372 C 0.50586 0.17328 0.9719 0.0
C373 C 0.50907 0.21029 0.97548 0.0
C374 C 0.56748 0.28965 0.96191 0.0
C375 C 0.55256 0.38452 0.99031 0.0
C376 C 0.55034 0.34525 0.98744 0.0
C377 C 0.54248 0.23112 0.97821 0.0
C378 C 0.54565 0.27049 0.98174 0.0
H379 H 0.56027 0.45798 0.05255 0.0
H380 H 0.55698 0.39366 0.04771 0.0
H381 H 0.58678 0.34061 0.94902 0.0
H382 H 0.59325 0.16463 0.97366 0.0
H383 H 0.59882 0.22938 0.97977 0.0
C384 C 0.94552 0.53591 0.04369 0.0
C385 C 0.97255 0.5606 0.06515 0.0
C386 C 0.91008 0.54119 0.04185 0.0
C387 C 0.8474 0.57855 0.09174 0.0
H388 H 0.79057 0.57753 1.00047 0.0
C389 C 0.69877 0.59595 0.08011 0.0
C390 C 0.67585 0.57722 0.05016 0.0
C391 C 0.73559 0.59698 0.08227 0.0
C392 C 0.80576 0.57731 0.02619 0.0
H393 H 0.98367 0.61004 0.10172 0.0
H394 H 0.92119 0.61861 0.09937 0.0
H395 H 0.85353 0.57312 0.00359 0.0
H396 H 0.67345 0.54418 0.99942 0.0
H397 H 0.73702 0.54445 0.0038 0.0
H398 H 0.79961 0.58079 0.11437 0.0
C399 C 0.92774 0.5955 0.08364 0.0
C400 C 0.84195 0.57512 0.0279 0.0
C401 C 0.96338 0.59067 0.08485 0.0
C402 C 0.69044 0.55923 0.02267 0.0
C403 C 0.72707 0.55966 0.02511 0.0
C404 C 0.81099 0.58 0.08999 0.0
C405 C 0.90083 0.57084 0.06202 0.0
C406 C 0.86303 0.57547 0.06064 0.0
C407 C 0.75031 0.57875 0.05481 0.0
C408 C 0.78952 0.57905 0.05711 0.0
H409 H 0.95178 0.51256 0.02812 0.0
H410 H 0.88976 0.52171 0.02512 0.0
H411 H 0.86312 0.57857 0.11728 0.0
H412 H 0.68829 0.61026 0.10164 0.0
H413 H 0.75246 0.61244 0.10534 0.0
C414 C 0.54563 0.67036 0.95508 0.0
C415 C 0.56665 0.66227 0.98479 0.0
C416 C 0.54447 0.70576 0.95031 0.0
C417 C 0.56617 0.79793 1.00098 0.0
H418 H 0.54779 0.82492 0.90729 0.0
C419 C 0.57398 0.94421 0.97651 0.0
C420 C 0.5428 0.95209 0.95772 0.0
C421 C 0.57872 0.90891 0.9782 0.0
C422 C 0.55293 0.81766 0.93359 0.0
H423 H 0.60428 0.6847 0.03184 0.0
H424 H 0.6039 0.74605 0.02264 0.0
H425 H 0.55377 0.76332 0.91307 0.0
H426 H 0.49275 0.92919 0.92493 0.0
H427 H 0.50159 0.86749 0.92707 0.0
H428 H 0.56632 0.85268 0.02125 0.0
C429 C 0.58695 0.72543 0.00373 0.0
C430 C 0.55611 0.7823 0.937 0.0
C431 C 0.58746 0.69015 0.0089 0.0
C432 C 0.517 0.92395 0.93972 0.0
C433 C 0.5221 0.88867 0.94078 0.0
C434 C 0.56372 0.83334 0.9975 0.0
C435 C 0.56489 0.7339 0.97476 0.0
C436 C 0.56254 0.77182 0.97079 0.0
C437 C 0.55274 0.88083 0.96049 0.0
C438 C 0.55683 0.8435 0.96382 0.0
H439 H 0.52911 0.64938 0.93619 0.0
H440 H 0.52673 0.71096 0.92794 0.0
H441 H 0.57019 0.79105 0.02749 0.0
H442 H 0.59427 0.96531 0.99076 0.0
H443 H 0.60264 0.90352 0.99348 0.0
loop_
_geom_bond_atom_site_label_1
_geom_bond_atom_site_label_2
_geom_bond_distance
_geom_bond_site_symmetry_2
_ccdc_geom_bond_type
C0 O2 1.247 1_455 S
C0 O4 1.258 . S
C1 O8 1.247 1_655 S
C1 O9 1.258 . S
O2 C0 1.247 1_655 S
O2 Zn3 2.028 1_545 S
Zn3 O2 2.028 1_565 S
Zn3 O7 2.035 1_655 S
Zn3 O9 2.035 . S
Zn3 O10 2.028 . S
O4 C0 1.258 . S
O4 Zn5 2.035 . S
Zn5 O4 2.035 . S
Zn5 O6 2.028 . S
Zn5 O8 2.028 1_545 S
Zn5 O11 2.035 1_455 S
O6 Zn5 2.028 . S
O6 C12 1.247 . S
O7 Zn3 2.035 1_455 S
O7 C12 1.258 1_565 S
O8 C1 1.247 1_455 S
O8 Zn5 2.028 1_565 S
O9 C1 1.258 . S
O9 Zn3 2.035 . S
O10 Zn3 2.028 . S
O10 C13 1.247 . S
O11 Zn5 2.035 1_655 S
O11 C13 1.258 1_545 S
C12 O6 1.247 . S
C12 O7 1.258 1_545 S
C13 O10 1.247 . S
C13 O11 1.258 1_565 S
C14 O16 1.247 . S
C14 O18 1.258 1_554 S
C15 O22 1.247 . S
C15 O23 1.258 1_556 S
O16 C14 1.247 . S
O16 Zn17 2.028 . S
Zn17 O16 2.028 . S
Zn17 O21 2.035 . S
Zn17 O23 2.035 1_545 S
Zn17 O24 2.028 1_554 S
O18 C14 1.258 1_556 S
O18 Zn19 2.035 1_545 S
Zn19 O18 2.035 1_565 S
Zn19 O20 2.028 1_556 S
Zn19 O22 2.028 . S
Zn19 O25 2.035 . S
O20 Zn19 2.028 1_554 S
O20 C26 1.247 1_565 S
O21 Zn17 2.035 . S
O21 C26 1.258 . S
O22 C15 1.247 . S
O22 Zn19 2.028 . S
O23 C15 1.258 1_554 S
O23 Zn17 2.035 1_565 S
O24 Zn17 2.028 1_556 S
O24 C27 1.247 1_545 S
O25 Zn19 2.035 . S
O25 C27 1.258 . S
C26 O20 1.247 1_545 S
C26 O21 1.258 . S
C27 O24 1.247 1_565 S
C27 O25 1.258 . S
C28 O30 1.247 1_554 S
C28 O32 1.258 . S
C29 O36 1.247 1_556 S
C29 O37 1.258 . S
O30 C28 1.247 1_556 S
O30 Zn31 2.028 1_455 S
Zn31 O30 2.028 1_655 S
Zn31 O35 2.035 1_556 S
Zn31 O37 2.035 . S
Zn31 O38 2.028 . S
O32 C28 1.258 . S
O32 Zn33 2.035 . S
Zn33 O32 2.035 . S
Zn33 O34 2.028 . S
Zn33 O36 2.028 1_455 S
Zn33 O39 2.035 1_554 S
O34 Zn33 2.028 . S
O34 C40 1.247 . S
O35 Zn31 2.035 1_554 S
O35 C40 1.258 1_655 S
O36 C29 1.247 1_554 S
O36 Zn33 2.028 1_655 S
O37 C29 1.258 . S
O37 Zn31 2.035 . S
O38 Zn31 2.028 . S
O38 C41 1.247 . S
O39 Zn33 2.035 1_556 S
O39 C41 1.258 1_455 S
C40 O34 1.247 . S
C40 O35 1.258 1_455 S
C41 O38 1.247 . S
C41 O39 1.258 1_655 S
C42 O44 1.244 . S
C42 O46 1.261 1_556 S
C43 O50 1.251 . S
C43 O51 1.254 1_554 S
O44 C42 1.244 . S
O44 Zn45 2.028 . S
Zn45 O44 2.028 . S
Zn45 O49 2.035 . S
Zn45 O51 2.035 . S
Zn45 O52 2.028 . S
O46 C42 1.261 1_554 S
O46 Zn47 2.035 . S
Zn47 O46 2.035 . S
Zn47 O48 2.028 . S
Zn47 O50 2.028 . S
Zn47 O53 2.035 . S
O48 Zn47 2.028 . S
O48 C54 1.251 . S
O49 Zn45 2.035 . S
O49 C54 1.254 1_556 S
O50 C43 1.251 . S
O50 Zn47 2.028 . S
O51 C43 1.254 1_556 S
O51 Zn45 2.035 . S
O52 Zn45 2.028 . S
O52 C55 1.244 . S
O53 Zn47 2.035 . S
O53 C55 1.260 1_554 S
C54 O48 1.251 . S
C54 O49 1.254 1_554 S
C55 O52 1.244 . S
C55 O53 1.260 1_556 S
C56 O58 1.251 . S
C56 O60 1.254 1_455 S
C57 O64 1.244 . S
C57 O65 1.260 1_655 S
O58 C56 1.251 . S
O58 Zn59 2.028 . S
Zn59 O58 2.028 . S
Zn59 O63 2.035 . S
Zn59 O65 2.035 . S
Zn59 O66 2.028 . S
O60 C56 1.254 1_655 S
O60 Zn61 2.035 . S
Zn61 O60 2.035 . S
Zn61 O62 2.028 . S
Zn61 O64 2.028 . S
Zn61 O67 2.035 . S
O62 Zn61 2.028 . S
O62 C68 1.244 . S
O63 Zn59 2.035 . S
O63 C68 1.261 1_455 S
O64 C57 1.244 . S
O64 Zn61 2.028 . S
O65 C57 1.260 1_455 S
O65 Zn59 2.035 . S
O66 Zn59 2.028 . S
O66 C69 1.251 . S
O67 Zn61 2.035 . S
O67 C69 1.254 1_655 S
C68 O62 1.244 . S
C68 O63 1.261 1_655 S
C69 O66 1.251 . S
C69 O67 1.254 1_455 S
C70 O72 1.244 . S
C70 O74 1.261 1_565 S
C71 O78 1.251 . S
C71 O79 1.254 1_545 S
O72 C70 1.244 . S
O72 Zn73 2.028 . S
Zn73 O72 2.028 . S
Zn73 O77 2.035 . S
Zn73 O79 2.035 . S
Zn73 O80 2.028 . S
O74 C70 1.261 1_545 S
O74 Zn75 2.035 . S
Zn75 O74 2.035 . S
Zn75 O76 2.028 . S
Zn75 O78 2.028 . S
Zn75 O81 2.035 . S
O76 Zn75 2.028 . S
O76 C82 1.251 . S
O77 Zn73 2.035 . S
O77 C82 1.254 1_565 S
O78 C71 1.251 . S
O78 Zn75 2.028 . S
O79 C71 1.254 1_565 S
O79 Zn73 2.035 . S
O80 Zn73 2.028 . S
O80 C83 1.244 . S
O81 Zn75 2.035 . S
O81 C83 1.260 1_545 S
C82 O76 1.251 . S
C82 O77 1.254 1_545 S
C83 O80 1.244 . S
C83 O81 1.260 1_565 S
C84 C85 1.349 . S
C84 C86 1.327 . S
C84 H109 0.950 . S
C85 C84 1.349 . S
C85 C101 1.349 1_455 S
C86 C84 1.327 . S
C86 C105 1.429 . S
C86 H110 0.950 . S
C87 C104 1.574 . S
C87 C106 1.368 1_655 S
C87 H111 0.949 . S
H88 C92 0.949 . S
C89 C90 1.349 1_655 S
C89 C91 1.327 . S
C89 H112 0.950 . S
C90 C89 1.349 1_455 S
C90 C102 1.349 . S
C91 C89 1.327 . S
C91 C107 1.429 1_655 S
C91 H113 0.950 . S
C92 H88 0.949 . S
C92 C100 1.574 . S
C92 C108 1.368 . S
H93 C101 0.950 . S
H94 C99 0.950 . S
H95 C100 0.949 . S
H96 C102 0.950 . S
H97 C103 0.950 . S
H98 C104 0.949 . S
C99 H94 0.950 . S
C99 C101 1.327 . S
C99 C105 1.429 1_655 S
C100 C92 1.574 . S
C100 H95 0.949 . S
C100 C106 1.368 . S
C101 C85 1.349 1_655 S
C101 H93 0.950 . S
C101 C99 1.327 . S
C102 C90 1.349 . S
C102 H96 0.950 . S
C102 C103 1.327 . S
C103 H97 0.950 . S
C103 C102 1.327 . S
C103 C107 1.429 . S
C104 C87 1.574 . S
C104 H98 0.949 . S
C104 C108 1.368 1_655 S
C105 C86 1.429 . S
C105 C99 1.429 1_455 S
C105 C106 1.523 . S
C106 C87 1.368 1_455 S
C106 C100 1.368 . S
C106 C105 1.523 . S
C107 C91 1.429 1_455 S
C107 C103 1.429 . S
C107 C108 1.523 . S
C108 C92 1.368 . S
C108 C104 1.368 1_455 S
C108 C107 1.523 . S
H109 C84 0.950 . S
H110 C86 0.950 . S
H111 C87 0.949 . S
H112 C89 0.950 . S
H113 C91 0.950 . S
C114 C115 1.349 . S
C114 C116 1.327 . S
C114 H139 0.950 . S
C115 C114 1.349 . S
C115 C131 1.349 1_545 S
C116 C114 1.327 . S
C116 C135 1.429 . S
C116 H140 0.950 . S
C117 C134 1.574 . S
C117 C136 1.368 1_565 S
C117 H141 0.949 . S
H118 C122 0.949 . S
C119 C120 1.349 1_565 S
C119 C121 1.327 . S
C119 H142 0.950 . S
C120 C119 1.349 1_545 S
C120 C132 1.349 . S
C121 C119 1.327 . S
C121 C137 1.429 1_565 S
C121 H143 0.950 . S
C122 H118 0.949 . S
C122 C130 1.574 . S
C122 C138 1.368 . S
H123 C131 0.950 . S
H124 C129 0.950 . S
H125 C130 0.949 . S
H126 C132 0.950 . S
H127 C133 0.950 . S
H128 C134 0.949 . S
C129 H124 0.950 . S
C129 C131 1.327 . S
C129 C135 1.429 1_565 S
C130 C122 1.574 . S
C130 H125 0.949 . S
C130 C136 1.368 . S
C131 C115 1.349 1_565 S
C131 H123 0.950 . S
C131 C129 1.327 . S
C132 C120 1.349 . S
C132 H126 0.950 . S
C132 C133 1.327 . S
C133 H127 0.950 . S
C133 C132 1.327 . S
C133 C137 1.429 . S
C134 C117 1.574 . S
C134 H128 0.949 . S
C134 C138 1.368 1_565 S
C135 C116 1.429 . S
C135 C129 1.429 1_545 S
C135 C136 1.523 . S
C136 C117 1.368 1_545 S
C136 C130 1.368 . S
C136 C135 1.523 . S
C137 C121 1.429 1_545 S
C137 C133 1.429 . S
C137 C138 1.523 . S
C138 C122 1.368 . S
C138 C134 1.368 1_545 S
C138 C137 1.523 . S
H139 C114 0.950 . S
H140 C116 0.950 . S
H141 C117 0.949 . S
H142 C119 0.950 . S
H143 C121 0.950 . S
C144 C145 1.349 . S
C144 C146 1.327 . S
C144 H169 0.950 . S
C145 C144 1.349 . S
C145 C161 1.349 1_455 S
C146 C144 1.327 . S
C146 C165 1.429 . S
C146 H170 0.950 . S
C147 C164 1.574 . S
C147 C166 1.368 1_655 S
C147 H171 0.949 . S
H148 C152 0.949 . S
C149 C150 1.349 1_655 S
C149 C151 1.327 . S
C149 H172 0.950 . S
C150 C149 1.349 1_455 S
C150 C162 1.349 . S
C151 C149 1.327 . S
C151 C167 1.429 1_655 S
C151 H173 0.950 . S
C152 H148 0.949 . S
C152 C160 1.574 . S
C152 C168 1.368 . S
H153 C161 0.950 . S
H154 C159 0.950 . S
H155 C160 0.949 . S
H156 C162 0.950 . S
H157 C163 0.950 . S
H158 C164 0.949 . S
C159 H154 0.950 . S
C159 C161 1.327 . S
C159 C165 1.429 1_655 S
C160 C152 1.574 . S
C160 H155 0.949 . S
C160 C166 1.368 . S
C161 C145 1.349 1_655 S
C161 H153 0.950 . S
C161 C159 1.327 . S
C162 C150 1.349 . S
C162 H156 0.950 . S
C162 C163 1.327 . S
C163 H157 0.950 . S
C163 C162 1.327 . S
C163 C167 1.429 . S
C164 C147 1.574 . S
C164 H158 0.949 . S
C164 C168 1.368 1_655 S
C165 C146 1.429 . S
C165 C159 1.429 1_455 S
C165 C166 1.523 . S
C166 C147 1.368 1_455 S
C166 C160 1.368 . S
C166 C165 1.523 . S
C167 C151 1.429 1_455 S
C167 C163 1.429 . S
C167 C168 1.523 . S
C168 C152 1.368 . S
C168 C164 1.368 1_455 S
C168 C167 1.523 . S
H169 C144 0.950 . S
H170 C146 0.950 . S
H171 C147 0.949 . S
H172 C149 0.950 . S
H173 C151 0.950 . S
C174 C175 1.349 . S
C174 C176 1.327 . S
C174 H199 0.950 . S
C175 C174 1.349 . S
C175 C191 1.349 1_545 S
C176 C174 1.327 . S
C176 C195 1.429 . S
C176 H200 0.950 . S
C177 C194 1.574 . S
C177 C196 1.368 1_565 S
C177 H201 0.949 . S
H178 C182 0.949 . S
C179 C180 1.349 1_565 S
C179 C181 1.327 . S
C179 H202 0.950 . S
C180 C179 1.349 1_545 S
C180 C192 1.349 . S
C181 C179 1.327 . S
C181 C197 1.429 1_565 S
C181 H203 0.950 . S
C182 H178 0.949 . S
C182 C190 1.574 . S
C182 C198 1.368 . S
H183 C191 0.950 . S
H184 C189 0.950 . S
H185 C190 0.949 . S
H186 C192 0.950 . S
H187 C193 0.950 . S
H188 C194 0.949 . S
C189 H184 0.950 . S
C189 C191 1.327 . S
C189 C195 1.429 1_565 S
C190 C182 1.574 . S
C190 H185 0.949 . S
C190 C196 1.368 . S
C191 C175 1.349 1_565 S
C191 H183 0.950 . S
C191 C189 1.327 . S
C192 C180 1.349 . S
C192 H186 0.950 . S
C192 C193 1.327 . S
C193 H187 0.950 . S
C193 C192 1.327 . S
C193 C197 1.429 . S
C194 C177 1.574 . S
C194 H188 0.949 . S
C194 C198 1.368 1_565 S
C195 C176 1.429 . S
C195 C189 1.429 1_545 S
C195 C196 1.523 . S
C196 C177 1.368 1_545 S
C196 C190 1.368 . S
C196 C195 1.523 . S
C197 C181 1.429 1_545 S
C197 C193 1.429 . S
C197 C198 1.523 . S
C198 C182 1.368 . S
C198 C194 1.368 1_545 S
C198 C197 1.523 . S
H199 C174 0.950 . S
H200 C176 0.950 . S
H201 C177 0.949 . S
H202 C179 0.950 . S
H203 C181 0.950 . S
C204 C205 1.349 1_565 S
C204 C206 1.327 . S
C204 H229 0.950 . S
C205 C204 1.349 1_545 S
C205 C221 1.349 . S
C206 C204 1.327 . S
C206 C225 1.429 1_565 S
C206 H230 0.950 . S
C207 C224 1.574 . S
C207 C226 1.368 . S
C207 H231 0.949 . S
H208 C212 0.949 . S
C209 C210 1.349 . S
C209 C211 1.327 . S
C209 H232 0.950 . S
C210 C209 1.349 . S
C210 C222 1.349 1_545 S
C211 C209 1.327 . S
C211 C227 1.429 . S
C211 H233 0.950 . S
C212 H208 0.949 . S
C212 C220 1.574 . S
C212 C228 1.368 1_565 S
H213 C221 0.950 . S
H214 C219 0.950 . S
H215 C220 0.949 . S
H216 C222 0.950 . S
H217 C223 0.950 . S
H218 C224 0.949 . S
C219 H214 0.950 . S
C219 C221 1.327 . S
C219 C225 1.429 . S
C220 C212 1.574 . S
C220 H215 0.949 . S
C220 C226 1.368 1_565 S
C221 C205 1.349 . S
C221 H213 0.950 . S
C221 C219 1.327 . S
C222 C210 1.349 1_565 S
C222 H216 0.950 . S
C222 C223 1.327 . S
C223 H217 0.950 . S
C223 C222 1.327 . S
C223 C227 1.429 1_565 S
C224 C207 1.574 . S
C224 H218 0.949 . S
C224 C228 1.368 . S
C225 C206 1.429 1_545 S
C225 C219 1.429 . S
C225 C226 1.523 . S
C226 C207 1.368 . S
C226 C220 1.368 1_545 S
C226 C225 1.523 . S
C227 C211 1.429 . S
C227 C223 1.429 1_545 S
C227 C228 1.523 . S
C228 C212 1.368 1_545 S
C228 C224 1.368 . S
C228 C227 1.523 . S
H229 C204 0.950 . S
H230 C206 0.950 . S
H231 C207 0.949 . S
H232 C209 0.950 . S
H233 C211 0.950 . S
C234 C235 1.349 1_655 S
C234 C236 1.327 . S
C234 H259 0.950 . S
C235 C234 1.349 1_455 S
C235 C251 1.349 . S
C236 C234 1.327 . S
C236 C255 1.429 1_655 S
C236 H260 0.950 . S
C237 C254 1.574 . S
C237 C256 1.368 . S
C237 H261 0.949 . S
H238 C242 0.949 . S
C239 C240 1.349 . S
C239 C241 1.327 . S
C239 H262 0.950 . S
C240 C239 1.349 . S
C240 C252 1.349 1_455 S
C241 C239 1.327 . S
C241 C257 1.429 . S
C241 H263 0.950 . S
C242 H238 0.949 . S
C242 C250 1.574 . S
C242 C258 1.368 1_655 S
H243 C251 0.950 . S
H244 C249 0.950 . S
H245 C250 0.949 . S
H246 C252 0.950 . S
H247 C253 0.950 . S
H248 C254 0.949 . S
C249 H244 0.950 . S
C249 C251 1.327 . S
C249 C255 1.429 . S
C250 C242 1.574 . S
C250 H245 0.949 . S
C250 C256 1.368 1_655 S
C251 C235 1.349 . S
C251 H243 0.950 . S
C251 C249 1.327 . S
C252 C240 1.349 1_655 S
C252 H246 0.950 . S
C252 C253 1.327 . S
C253 H247 0.950 . S
C253 C252 1.327 . S
C253 C257 1.429 1_655 S
C254 C237 1.574 . S
C254 H248 0.949 . S
C254 C258 1.368 . S
C255 C236 1.429 1_455 S
C255 C249 1.429 . S
C255 C256 1.523 . S
C256 C237 1.368 . S
C256 C250 1.368 1_455 S
C256 C255 1.523 . S
C257 C241 1.429 . S
C257 C253 1.429 1_455 S
C257 C258 1.523 . S
C258 C242 1.368 1_455 S
C258 C254 1.368 . S
C258 C257 1.523 . S
H259 C234 0.950 . S
H260 C236 0.950 . S
H261 C237 0.949 . S
H262 C239 0.950 . S
H263 C241 0.950 . S
C264 C265 1.349 1_565 S
C264 C266 1.327 . S
C264 H289 0.950 . S
C265 C264 1.349 1_545 S
C265 C281 1.349 . S
C266 C264 1.327 . S
C266 C285 1.429 1_565 S
C266 H290 0.950 . S
C267 C284 1.574 . S
C267 C286 1.368 . S
C267 H291 0.949 . S
H268 C272 0.949 . S
C269 C270 1.349 . S
C269 C271 1.327 . S
C269 H292 0.950 . S
C270 C269 1.349 . S
C270 C282 1.349 1_545 S
C271 C269 1.327 . S
C271 C287 1.429 . S
C271 H293 0.950 . S
C272 H268 0.949 . S
C272 C280 1.574 . S
C272 C288 1.368 1_565 S
H273 C281 0.950 . S
H274 C279 0.950 . S
H275 C280 0.949 . S
H276 C282 0.950 . S
H277 C283 0.950 . S
H278 C284 0.949 . S
C279 H274 0.950 . S
C279 C281 1.327 . S
C279 C285 1.429 . S
C280 C272 1.574 . S
C280 H275 0.949 . S
C280 C286 1.368 1_565 S
C281 C265 1.349 . S
C281 H273 0.950 . S
C281 C279 1.327 . S
C282 C270 1.349 1_565 S
C282 H276 0.950 . S
C282 C283 1.327 . S
C283 H277 0.950 . S
C283 C282 1.327 . S
C283 C287 1.429 1_565 S
C284 C267 1.574 . S
C284 H278 0.949 . S
C284 C288 1.368 . S
C285 C266 1.429 1_545 S
C285 C279 1.429 . S
C285 C286 1.523 . S
C286 C267 1.368 . S
C286 C280 1.368 1_545 S
C286 C285 1.523 . S
C287 C271 1.429 . S
C287 C283 1.429 1_545 S
C287 C288 1.523 . S
C288 C272 1.368 1_545 S
C288 C284 1.368 . S
C288 C287 1.523 . S
H289 C264 0.950 . S
H290 C266 0.950 . S
H291 C267 0.949 . S
H292 C269 0.950 . S
H293 C271 0.950 . S
C294 C295 1.349 . S
C294 C296 1.327 . S
C294 H319 0.950 . S
C295 C294 1.349 . S
C295 C311 1.349 1_455 S
C296 C294 1.327 . S
C296 C315 1.429 . S
C296 H320 0.950 . S
C297 C314 1.574 . S
C297 C316 1.368 1_655 S
C297 H321 0.949 . S
H298 C302 0.949 . S
C299 C300 1.349 1_655 S
C299 C301 1.327 . S
C299 H322 0.950 . S
C300 C299 1.349 1_455 S
C300 C312 1.349 . S
C301 C299 1.327 . S
C301 C317 1.429 1_655 S
C301 H323 0.950 . S
C302 H298 0.949 . S
C302 C310 1.574 . S
C302 C318 1.368 . S
H303 C311 0.950 . S
H304 C309 0.950 . S
H305 C310 0.949 . S
H306 C312 0.950 . S
H307 C313 0.950 . S
H308 C314 0.949 . S
C309 H304 0.950 . S
C309 C311 1.327 . S
C309 C315 1.429 1_655 S
C310 C302 1.574 . S
C310 H305 0.949 . S
C310 C316 1.368 . S
C311 C295 1.349 1_655 S
C311 H303 0.950 . S
C311 C309 1.327 . S
C312 C300 1.349 . S
C312 H306 0.950 . S
C312 C313 1.327 . S
C313 H307 0.950 . S
C313 C312 1.327 . S
C313 C317 1.429 . S
C314 C297 1.574 . S
C314 H308 0.949 . S
C314 C318 1.368 1_655 S
C315 C296 1.429 . S
C315 C309 1.429 1_455 S
C315 C316 1.523 . S
C316 C297 1.368 1_455 S
C316 C310 1.368 . S
C316 C315 1.523 . S
C317 C301 1.429 1_455 S
C317 C313 1.429 . S
C317 C318 1.523 . S
C318 C302 1.368 . S
C318 C314 1.368 1_455 S
C318 C317 1.523 . S
H319 C294 0.950 . S
H320 C296 0.950 . S
H321 C297 0.949 . S
H322 C299 0.950 . S
H323 C301 0.950 . S
C324 C325 1.349 . S
C324 C326 1.327 . S
C324 H349 0.950 . S
C325 C324 1.349 . S
C325 C341 1.349 1_554 S
C326 C324 1.327 . S
C326 C345 1.429 . S
C326 H350 0.950 . S
C327 C344 1.574 . S
C327 C346 1.368 1_556 S
C327 H351 0.949 . S
H328 C332 0.949 . S
C329 C330 1.349 1_556 S
C329 C331 1.327 . S
C329 H352 0.950 . S
C330 C329 1.349 1_554 S
C330 C342 1.349 . S
C331 C329 1.327 . S
C331 C347 1.429 1_556 S
C331 H353 0.950 . S
C332 H328 0.949 . S
C332 C340 1.574 . S
C332 C348 1.368 . S
H333 C341 0.950 . S
H334 C339 0.950 . S
H335 C340 0.949 . S
H336 C342 0.950 . S
H337 C343 0.950 . S
H338 C344 0.949 . S
C339 H334 0.950 . S
C339 C341 1.327 . S
C339 C345 1.429 1_556 S
C340 C332 1.574 . S
C340 H335 0.949 . S
C340 C346 1.368 . S
C341 C325 1.349 1_556 S
C341 H333 0.950 . S
C341 C339 1.327 . S
C342 C330 1.349 . S
C342 H336 0.950 . S
C342 C343 1.327 . S
C343 H337 0.950 . S
C343 C342 1.327 . S
C343 C347 1.429 . S
C344 C327 1.574 . S
C344 H338 0.949 . S
C344 C348 1.368 1_556 S
C345 C326 1.429 . S
C345 C339 1.429 1_554 S
C345 C346 1.523 . S
C346 C327 1.368 1_554 S
C346 C340 1.368 . S
C346 C345 1.523 . S
C347 C331 1.429 1_554 S
C347 C343 1.429 . S
C347 C348 1.523 . S
C348 C332 1.368 . S
C348 C344 1.368 1_554 S
C348 C347 1.523 . S
H349 C324 0.950 . S
H350 C326 0.950 . S
H351 C327 0.949 . S
H352 C329 0.950 . S
H353 C331 0.950 . S
C354 C355 1.349 . S
C354 C356 1.327 . S
C354 H379 0.950 . S
C355 C354 1.349 . S
C355 C371 1.349 1_554 S
C356 C354 1.327 . S
C356 C375 1.429 . S
C356 H380 0.950 . S
C357 C374 1.574 . S
C357 C376 1.368 1_556 S
C357 H381 0.949 . S
H358 C362 0.949 . S
C359 C360 1.349 1_556 S
C359 C361 1.327 . S
C359 H382 0.950 . S
C360 C359 1.349 1_554 S
C360 C372 1.349 . S
C361 C359 1.327 . S
C361 C377 1.429 1_556 S
C361 H383 0.950 . S
C362 H358 0.949 . S
C362 C370 1.574 . S
C362 C378 1.368 . S
H363 C371 0.950 . S
H364 C369 0.950 . S
H365 C370 0.949 . S
H366 C372 0.950 . S
H367 C373 0.950 . S
H368 C374 0.949 . S
C369 H364 0.950 . S
C369 C371 1.327 . S
C369 C375 1.429 1_556 S
C370 C362 1.574 . S
C370 H365 0.949 . S
C370 C376 1.368 . S
C371 C355 1.349 1_556 S
C371 H363 0.950 . S
C371 C369 1.327 . S
C372 C360 1.349 . S
C372 H366 0.950 . S
C372 C373 1.327 . S
C373 H367 0.950 . S
C373 C372 1.327 . S
C373 C377 1.429 . S
C374 C357 1.574 . S
C374 H368 0.949 . S
C374 C378 1.368 1_556 S
C375 C356 1.429 . S
C375 C369 1.429 1_554 S
C375 C376 1.523 . S
C376 C357 1.368 1_554 S
C376 C370 1.368 . S
C376 C375 1.523 . S
C377 C361 1.429 1_554 S
C377 C373 1.429 . S
C377 C378 1.523 . S
C378 C362 1.368 . S
C378 C374 1.368 1_554 S
C378 C377 1.523 . S
H379 C354 0.950 . S
H380 C356 0.950 . S
H381 C357 0.949 . S
H382 C359 0.950 . S
H383 C361 0.950 . S
C384 C385 1.349 1_556 S
C384 C386 1.327 . S
C384 H409 0.950 . S
C385 C384 1.349 1_554 S
C385 C401 1.349 . S
C386 C384 1.327 . S
C386 C405 1.429 1_556 S
C386 H410 0.950 . S
C387 C404 1.574 . S
C387 C406 1.368 . S
C387 H411 0.949 . S
H388 C392 0.949 . S
C389 C390 1.349 . S
C389 C391 1.327 . S
C389 H412 0.950 . S
C390 C389 1.349 . S
C390 C402 1.349 1_554 S
C391 C389 1.327 . S
C391 C407 1.429 . S
C391 H413 0.950 . S
C392 H388 0.949 . S
C392 C400 1.574 . S
C392 C408 1.368 1_556 S
H393 C401 0.950 . S
H394 C399 0.950 . S
H395 C400 0.949 . S
H396 C402 0.950 . S
H397 C403 0.950 . S
H398 C404 0.949 . S
C399 H394 0.950 . S
C399 C401 1.327 . S
C399 C405 1.429 . S
C400 C392 1.574 . S
C400 H395 0.949 . S
C400 C406 1.368 1_556 S
C401 C385 1.349 . S
C401 H393 0.950 . S
C401 C399 1.327 . S
C402 C390 1.349 1_556 S
C402 H396 0.950 . S
C402 C403 1.327 . S
C403 H397 0.950 . S
C403 C402 1.327 . S
C403 C407 1.429 1_556 S
C404 C387 1.574 . S
C404 H398 0.949 . S
C404 C408 1.368 . S
C405 C386 1.429 1_554 S
C405 C399 1.429 . S
C405 C406 1.523 . S
C406 C387 1.368 . S
C406 C400 1.368 1_554 S
C406 C405 1.523 . S
C407 C391 1.429 . S
C407 C403 1.429 1_554 S
C407 C408 1.523 . S
C408 C392 1.368 1_554 S
C408 C404 1.368 . S
C408 C407 1.523 . S
H409 C384 0.950 . S
H410 C386 0.950 . S
H411 C387 0.949 . S
H412 C389 0.950 . S
H413 C391 0.950 . S
C414 C415 1.349 1_556 S
C414 C416 1.327 . S
C414 H439 0.950 . S
C415 C414 1.349 1_554 S
C415 C431 1.349 . S
C416 C414 1.327 . S
C416 C435 1.429 1_556 S
C416 H440 0.950 . S
C417 C434 1.574 . S
C417 C436 1.368 . S
C417 H441 0.949 . S
H418 C422 0.949 . S
C419 C420 1.349 . S
C419 C421 1.327 . S
C419 H442 0.950 . S
C420 C419 1.349 . S
C420 C432 1.349 1_554 S
C421 C419 1.327 . S
C421 C437 1.429 . S
C421 H443 0.950 . S
C422 H418 0.949 . S
C422 C430 1.574 . S
C422 C438 1.368 1_556 S
H423 C431 0.950 . S
H424 C429 0.950 . S
H425 C430 0.949 . S
H426 C432 0.950 . S
H427 C433 0.950 . S
H428 C434 0.949 . S
C429 H424 0.950 . S
C429 C431 1.327 . S
C429 C435 1.429 . S
C430 C422 1.574 . S
C430 H425 0.949 . S
C430 C436 1.368 1_556 S
C431 C415 1.349 . S
C431 H423 0.950 . S
C431 C429 1.327 . S
C432 C420 1.349 1_556 S
C432 H426 0.950 . S
C432 C433 1.327 . S
C433 H427 0.950 . S
C433 C432 1.327 . S
C433 C437 1.429 1_556 S
C434 C417 1.574 . S
C434 H428 0.949 . S
C434 C438 1.368 . S
C435 C416 1.429 1_554 S
C435 C429 1.429 . S
C435 C436 1.523 . S
C436 C417 1.368 . S
C436 C430 1.368 1_554 S
C436 C435 1.523 . S
C437 C421 1.429 . S
C437 C433 1.429 1_554 S
C437 C438 1.523 . S
C438 C422 1.368 1_554 S
C438 C434 1.368 . S
C438 C437 1.523 . S
H439 C414 0.950 . S
H440 C416 0.950 . S
H441 C417 0.949 . S
H442 C419 0.950 . S
H443 C421 0.950 . S
C85 C0 1.498 . S
C90 C57 1.495 1_455 S
C115 C13 1.498 1_545 S
C120 C70 1.502 1_545 S
C145 C56 1.498 . S
C150 C1 1.502 1_455 S
C175 C71 1.499 . S
C180 C12 1.495 . S
C205 C83 1.499 1_545 S
C210 C26 1.495 . S
C235 C40 1.498 . S
C240 C69 1.495 . S
C265 C82 1.498 . S
C270 C27 1.502 1_545 S
C295 C68 1.498 1_455 S
C300 C41 1.502 1_455 S
C325 C28 1.498 . S
C330 C55 1.495 1_554 S
C355 C43 1.499 . S
C360 C14 1.495 . S
C385 C29 1.498 1_554 S
C390 C54 1.502 . S
C415 C42 1.498 1_554 S
C420 C15 1.502 1_554 S
