# Generated by pormake.
# Topology qtz-x, (6)-cn, num edge types: 1
# Building blocks:
#     Node 0, Type 0, BuildingBlock: KUMBUR_clean_sbu_0, # of connection points: 6
#     Node 1, Type 0, BuildingBlock: KUMBUR_clean_sbu_0, # of connection points: 6
#     Node 2, Type 0, BuildingBlock: KUMBUR_clean_sbu_0, # of connection points: 6
#     Edge 3, Type (0, 0), BuildingBlock: UVAHIK_clean_linker_0, # of connection points: 2
#     Edge 4, Type (0, 0), BuildingBlock: UVAHIK_clean_linker_0, # of connection points: 2
#     Edge 5, Type (0, 0), BuildingBlock: UVAHIK_clean_linker_0, # of connection points: 2
#     Edge 6, Type (0, 0), BuildingBlock: UVAHIK_clean_linker_0, # of connection points: 2
#     Edge 7, Type (0, 0), BuildingBlock: UVAHIK_clean_linker_0, # of connection points: 2
#     Edge 8, Type (0, 0), BuildingBlock: UVAHIK_clean_linker_0, # of connection points: 2
#     Edge 9, Type (0, 0), BuildingBlock: UVAHIK_clean_linker_0, # of connection points: 2
#     Edge 10, Type (0, 0), BuildingBlock: UVAHIK_clean_linker_0, # of connection points: 2
#     Edge 11, Type (0, 0), BuildingBlock: UVAHIK_clean_linker_0, # of connection points: 2
# Relax obj value: 0.167
# Max RMSD: 0.276
# Mean RMSD: 0.276
data_MOF--net-qtz-x--node1-KUMBUR_clean_sbu_0--edge1-UVAHIK_clean_linker_0
_symmetry_space_group_name_H-M    P1
_symmetry_Int_Tables_number       1
_symmetry_cell_setting            triclinic
loop_
_symmetry_equiv_pos_as_xyz
'x, y, z'
_cell_length_a     19.331388
_cell_length_b     19.371901
_cell_length_c     62.244175
_cell_angle_alpha  89.977405
_cell_angle_beta   89.775323
_cell_angle_gamma 119.91082
loop_
_atom_site_label
_atom_site_type_symbol
_atom_site_fract_x
_atom_site_fract_y
_atom_site_fract_z
_atom_type_partial_charge
Tb0 Tb 0.27165 0.49529 0.18422 0.0
C1 C 0.93504 0.44925 0.18097 0.0
C2 C 0.86078 0.34667 0.20736 0.0
C3 C 0.82215 0.44563 0.19938 0.0
C4 C 0.92407 0.38382 0.19245 0.0
C5 C 0.88338 0.4802 0.18394 0.0
C6 C 0.81093 0.37897 0.21111 0.0
C7 C 0.95305 0.57309 0.15512 0.0
N8 N -0.00524 0.48064 0.16623 0.0
C9 C 0.00272 0.5402 0.15279 0.0
C10 C 0.89368 0.5436 0.17094 0.0
Tb11 Tb 0.07319 0.423 0.16354 0.0
N12 N 0.97272 0.35391 0.18806 0.0
C13 C 0.95691 0.28273 0.19685 0.0
C14 C 0.84798 0.27682 0.2175 0.0
C15 C 0.89558 0.24409 0.21197 0.0
H16 H 0.04849 0.5639 0.14056 0.0
H17 H 0.88508 0.18903 0.21933 0.0
H18 H 0.76236 0.35168 0.22262 0.0
H19 H 0.96076 0.6213 0.14475 0.0
H20 H -0.00721 0.2563 0.19277 0.0
H21 H 0.45699 0.7559 0.13434 0.0
H22 H 0.80022 0.24655 0.22912 0.0
H23 H 0.30691 0.35275 0.20181 0.0
H24 H 0.3512 0.67831 0.15975 0.0
H25 H 0.39883 0.30326 0.19333 0.0
H26 H 0.78216 0.46887 0.20204 0.0
H27 H 0.54285 0.70506 0.12051 0.0
H28 H 0.58265 0.60066 0.12161 0.0
H29 H 0.85524 0.56911 0.17269 0.0
H30 H 0.56737 0.47792 0.13769 0.0
N31 N 0.37247 0.58001 0.16108 0.0
C32 C 0.38697 0.65368 0.15454 0.0
C33 C 0.49595 0.66992 0.13198 0.0
C34 C 0.48469 0.59721 0.13958 0.0
C35 C 0.4478 0.69885 0.1398 0.0
C36 C 0.42236 0.55345 0.15445 0.0
H37 H 0.5004 0.36791 0.16473 0.0
N38 N 0.35541 0.44519 0.17823 0.0
C39 C 0.40352 0.35398 0.18471 0.0
C40 C 0.41353 0.48394 0.16331 0.0
C41 C 0.35186 0.38275 0.1896 0.0
C42 C 0.46048 0.39039 0.1685 0.0
C43 C 0.46692 0.45689 0.1578 0.0
O44 O 0.27767 0.56131 0.21193 0.0
O45 O 0.14649 0.4422 0.19149 0.0
O46 O 0.10598 0.53045 0.1819 0.0
O47 O 0.2453 0.59321 0.18008 0.0
O48 O 0.20652 0.39528 0.20642 0.0
O49 O 0.36797 0.53145 0.20563 0.0
O50 O 0.03711 0.41565 0.13138 0.0
O51 O 0.1985 0.4713 0.15636 0.0
O52 O 0.23608 0.38415 0.16695 0.0
O53 O 0.09739 0.32387 0.16614 0.0
O54 O 0.1387 0.51098 0.13813 0.0
O55 O -0.00617 0.31002 0.15096 0.0
C56 C 0.13904 0.39295 0.20579 0.0
C57 C 0.33189 0.5313 0.24204 0.0
C58 C 0.33755 0.55569 0.28067 0.0
C59 C 0.34834 0.58394 0.25935 0.0
C60 C 0.30848 0.47439 0.28451 0.0
C61 C 0.30765 0.45114 0.24641 0.0
C62 C 0.29432 0.42266 0.26745 0.0
C63 C 0.17771 0.59457 0.18314 0.0
C64 C 0.33921 0.56006 0.21964 0.0
C65 C 0.52647 0.49832 0.14231 0.0
C66 C 0.5352 0.56823 0.13317 0.0
C67 C 0.20698 0.51647 0.14086 0.0
C68 C 0.90737 0.3114 0.12414 0.0
C69 C 0.8982 0.31789 0.10199 0.0
C70 C 0.82235 0.29226 0.09315 0.0
C71 C 0.75537 0.25924 0.10685 0.0
C72 C 0.83989 0.27902 0.1376 0.0
C73 C 0.76431 0.25292 0.12892 0.0
C74 C 0.16432 0.32135 0.16428 0.0
C75 C 0.98804 0.33934 0.13263 0.0
H76 H 0.36984 0.64651 0.25629 0.0
H77 H 0.30012 0.45155 0.30078 0.0
H78 H 0.29948 0.41012 0.23372 0.0
H79 H 0.27442 0.36052 0.27055 0.0
H80 H 0.95036 0.34256 0.09162 0.0
H81 H 0.69629 0.23973 0.10058 0.0
H82 H 0.84541 0.27382 0.15474 0.0
H83 H 0.71247 0.22806 0.13936 0.0
Tb84 Tb 0.59814 0.92728 0.52056 0.0
C85 C 0.88098 0.2619 0.51256 0.0
C86 C 0.85183 0.33954 0.5376 0.0
C87 C -0.01034 0.3772 0.52986 0.0
C88 C 0.82605 0.27439 0.52352 0.0
C89 C 0.96345 0.31394 0.51523 0.0
C90 C 0.93392 0.38991 0.54106 0.0
C91 C 0.98737 0.24082 0.48752 0.0
N92 N 0.85326 0.20018 0.4986 0.0
C93 C 0.90491 0.19104 0.48539 0.0
C94 C 0.01684 0.30194 0.5027 0.0
Tb95 Tb 0.7176 0.12186 0.49641 0.0
N96 N 0.74742 0.22505 0.51949 0.0
C97 C 0.69161 0.24134 0.52787 0.0
C98 C 0.79448 0.35339 0.54729 0.0
C99 C 0.7141 0.3047 0.54216 0.0
H100 H 0.88259 0.14375 0.47368 0.0
H101 H 0.66936 0.31589 0.5492 0.0
H102 H 0.95492 0.43995 0.55195 0.0
H103 H 0.02809 0.23192 0.47748 0.0
H104 H 0.62922 0.20446 0.52412 0.0
H105 H 0.68587 0.74004 0.47581 0.0
H106 H 0.81175 0.40264 0.55827 0.0
H107 H 0.41559 0.86725 0.54001 0.0
H108 H 0.70092 0.83356 0.50401 0.0
H109 H 0.27632 0.77736 0.52887 0.0
H110 H 0.05281 0.41758 0.53229 0.0
H111 H 0.55864 0.66681 0.45614 0.0
H112 H 0.41477 0.62998 0.45318 0.0
H113 H 0.08072 0.34056 0.50428 0.0
H114 H 0.30138 0.63906 0.46802 0.0
N115 N 0.58837 0.82685 0.49823 0.0
C116 C 0.64713 0.80805 0.49466 0.0
C117 C 0.56596 0.71069 0.46806 0.0
C118 C 0.50234 0.72177 0.47386 0.0
C119 C 0.63791 0.7522 0.47904 0.0
C120 C 0.51532 0.78006 0.48941 0.0
H121 H 0.24864 0.69216 0.49679 0.0
N122 N 0.46631 0.83716 0.5138 0.0
C123 C 0.32514 0.77969 0.51971 0.0
C124 C 0.45189 0.78557 0.49751 0.0
C125 C 0.40405 0.83052 0.52599 0.0
C126 C 0.30979 0.73198 0.50156 0.0
C127 C 0.37345 0.73259 0.49061 0.0
O128 O 0.66234 0.93005 0.54838 0.0
O129 O 0.67023 0.05362 0.52568 0.0
O130 O 0.79478 0.09346 0.51494 0.0
O131 O 0.72078 0.95561 0.51273 0.0
O132 O 0.56642 -0.00521 0.5427 0.0
O133 O 0.54581 0.83231 0.54273 0.0
O134 O 0.74541 0.1495 0.46375 0.0
O135 O 0.63687 -0.004 0.49139 0.0
O136 O 0.515 0.96399 0.50862 0.0
O137 O 0.59454 0.09825 0.49859 0.0
O138 O 0.73376 0.05013 0.47167 0.0
O139 O 0.69146 0.20487 0.48222 0.0
C140 C 0.63031 0.06283 0.54033 0.0
C141 C 0.58019 0.87125 0.57891 0.0
C142 C 0.59389 0.8594 0.61765 0.0
C143 C 0.61577 0.85408 0.59628 0.0
C144 C 0.53731 0.88361 0.62132 0.0
C145 C 0.52164 0.89228 0.58317 0.0
C146 C 0.50149 0.89971 0.60419 0.0
C147 C 0.78947 0.02304 0.51468 0.0
C148 C 0.60333 0.866 0.5565 0.0
C149 C 0.361 0.67912 0.47386 0.0
C150 C 0.42552 0.67387 0.46544 0.0
C151 C 0.66929 0.98408 0.47538 0.0
C152 C 0.78274 0.2807 0.45421 0.0
C153 C 0.80289 0.28268 0.43239 0.0
C154 C 0.8595 0.35434 0.4225 0.0
C155 C 0.8954 0.42446 0.43482 0.0
C156 C 0.8198 0.35126 0.46624 0.0
C157 C 0.87567 0.4227 0.45652 0.0
C158 C 0.52475 0.03342 0.50204 0.0
C159 C 0.72458 0.20382 0.46398 0.0
H160 H 0.6598 0.83619 0.59318 0.0
H161 H 0.51831 0.88718 0.63748 0.0
H162 H 0.49022 0.90205 0.5704 0.0
H163 H 0.45663 0.91645 0.60721 0.0
H164 H 0.77403 0.22821 0.42309 0.0
H165 H 0.93979 0.48042 0.42777 0.0
H166 H 0.80595 0.35129 0.48311 0.0
H167 H 0.9042 0.47689 0.46589 0.0
Tb168 Tb 0.65926 0.54046 0.85708 0.0
C169 C 0.70223 0.26132 0.84481 0.0
C170 C 0.7847 0.27421 0.87533 0.0
C171 C 0.69122 0.14282 0.8615 0.0
C172 C 0.75892 0.30853 0.85957 0.0
C173 C 0.66977 0.17808 0.84503 0.0
C174 C 0.7486 0.19089 0.87668 0.0
C175 C 0.60792 0.17278 0.81096 0.0
N176 N 0.68448 0.29793 0.82902 0.0
C177 C 0.64262 0.25573 0.8114 0.0
C178 C 0.62014 0.13352 0.8281 0.0
Tb179 Tb 0.74278 0.43361 0.83108 0.0
N180 N 0.79333 0.38856 0.85734 0.0
C181 C 0.85845 0.43801 0.86937 0.0
C182 C 0.84816 0.32472 0.88861 0.0
C183 C 0.88624 0.40694 0.88531 0.0
H184 H 0.63388 0.2861 0.79802 0.0
H185 H 0.93662 0.44652 0.89514 0.0
H186 H 0.76681 0.16326 0.88885 0.0
H187 H 0.57228 0.13932 0.79736 0.0
H188 H 0.88818 0.50162 0.86714 0.0
H189 H 0.34647 0.43345 0.87109 0.0
H190 H 0.86976 0.30083 0.90095 0.0
H191 H 0.79444 0.70224 0.83105 0.0
H192 H 0.47902 0.44816 0.87836 0.0
H193 H 0.79605 0.79907 0.80525 0.0
H194 H 0.66618 0.07883 0.86215 0.0
H195 H 0.33044 0.50802 0.84103 0.0
H196 H 0.39552 0.61269 0.81217 0.0
H197 H 0.59397 0.06938 0.82763 0.0
H198 H 0.51906 0.71427 0.79455 0.0
N199 N 0.53478 0.5235 0.85142 0.0
C200 C 0.47165 0.47889 0.86485 0.0
C201 C 0.38809 0.51322 0.84391 0.0
C202 C 0.45499 0.56531 0.83169 0.0
C203 C 0.39689 0.47108 0.86089 0.0
C204 C 0.52857 0.56984 0.83615 0.0
H205 H 0.66913 0.78584 0.79233 0.0
N206 N 0.66759 0.63325 0.83277 0.0
C207 C 0.73973 0.75084 0.81106 0.0
C208 C 0.59772 0.62734 0.82656 0.0
C209 C 0.73849 0.69548 0.82574 0.0
C210 C 0.668 0.74307 0.80375 0.0
C211 C 0.59573 0.68151 0.81179 0.0
O212 O 0.70034 0.65196 0.87189 0.0
O213 O 0.72067 0.47355 0.86149 0.0
O214 O 0.61651 0.34999 0.83726 0.0
O215 O 0.55991 0.43125 0.84379 0.0
O216 O 0.61867 0.44085 0.8792 0.0
O217 O 0.6346 0.54422 0.88995 0.0
O218 O 0.77006 0.43506 0.7982 0.0
O219 O 0.70938 0.52468 0.82759 0.0
O220 O 0.78834 0.61234 0.85978 0.0
O221 O 0.84109 0.55284 0.8376 0.0
O222 O 0.66987 0.43529 0.8049 0.0
O223 O 0.85548 0.4505 0.82223 0.0
C224 C 0.67638 0.42676 0.8762 0.0
C225 C 0.61381 0.64959 0.89944 0.0
C226 C 0.54134 0.65892 0.93056 0.0
C227 C 0.59479 0.63755 0.92147 0.0
C228 C 0.50809 0.69371 0.91738 0.0
C229 C 0.58034 0.68501 0.8866 0.0
C230 C 0.52794 0.70704 0.89559 0.0
C231 C 0.55495 0.36189 0.83942 0.0
C232 C 0.66494 0.6208 0.89003 0.0
C233 C 0.522 0.6739 0.80608 0.0
C234 C 0.45164 0.6159 0.81606 0.0
C235 C 0.67025 0.49955 0.81024 0.0
C236 C 0.85049 0.37856 0.79075 0.0
C237 C 0.83957 0.36955 0.76837 0.0
C238 C 0.8503 0.31226 0.75726 0.0
C239 C 0.87265 0.26422 0.76886 0.0
C240 C 0.87201 0.32926 0.80203 0.0
C241 C 0.88317 0.27266 0.79108 0.0
C242 C 0.84854 0.61111 0.8501 0.0
C243 C 0.83753 0.43844 0.80196 0.0
H244 H 0.61969 0.60933 0.93139 0.0
H245 H 0.46705 0.71102 0.92399 0.0
H246 H 0.59395 0.69501 0.86962 0.0
H247 H 0.50212 0.73399 0.88559 0.0
H248 H 0.823 0.40746 0.75959 0.0
H249 H 0.88055 0.21908 0.76079 0.0
H250 H 0.87993 0.33409 0.81929 0.0
H251 H 0.8996 0.23481 0.79988 0.0
C252 C 0.1112 0.67421 0.19101 0.0
C253 C 0.181 0.67198 0.1859 0.0
C254 C 0.10981 0.74534 0.18961 0.0
C255 C 0.20942 0.93337 0.16028 0.0
H256 H 0.0976 -0.00159 0.19992 0.0
C257 C 0.22677 0.23874 0.15588 0.0
C258 C 0.15925 0.24326 0.16209 0.0
C259 C 0.22712 0.16719 0.15768 0.0
C260 C 0.12796 0.98033 0.18851 0.0
H261 H 0.30705 0.74534 0.17849 0.0
H262 H 0.30452 0.86922 0.1759 0.0
H263 H 0.10658 0.87974 0.2077 0.0
H264 H 0.03641 0.17477 0.17302 0.0
H265 H 0.03613 0.04919 0.17554 0.0
H266 H 0.23016 0.03324 0.14095 0.0
C267 C 0.25004 0.81506 0.18009 0.0
C268 C 0.13351 0.91273 0.19307 0.0
C269 C 0.25141 0.74389 0.18155 0.0
C270 C 0.08977 0.17346 0.1684 0.0
C271 C 0.08988 0.10169 0.17006 0.0
C272 C 0.20352 0.00069 0.15566 0.0
C273 C 0.17856 0.81587 0.18336 0.0
C274 C 0.17454 0.88881 0.17903 0.0
C275 C 0.15941 0.09843 0.16541 0.0
C276 C 0.16285 0.025 0.16975 0.0
H277 H 0.05659 0.62046 0.19529 0.0
H278 H 0.05394 0.74426 0.19242 0.0
H279 H 0.24008 0.91531 0.14896 0.0
H280 H 0.28046 0.29121 0.15037 0.0
H281 H 0.28167 0.16678 0.15393 0.0
C282 C 0.44501 0.08469 0.48347 0.0
C283 C 0.4528 0.03976 0.5 0.0
C284 C 0.3739 0.08647 0.48132 0.0
C285 C 0.23134 0.11237 0.49333 0.0
H286 H 0.03619 0.90818 0.49804 0.0
C287 C 0.93343 0.07832 0.52218 0.0
C288 C 0.86392 0.02198 0.51173 0.0
C289 C 0.00644 0.08381 0.51732 0.0
C290 C 0.08995 0.96556 0.49636 0.0
H291 H 0.3971 0.96897 0.52842 0.0
H292 H 0.27264 0.96923 0.52428 0.0
H293 H 0.16378 0.91257 0.49461 0.0
H294 H 0.81618 0.9307 0.48719 0.0
H295 H 0.94309 0.93834 0.47919 0.0
H296 H 0.15731 0.16541 0.49571 0.0
C297 C 0.31991 0.00091 0.51261 0.0
C298 C 0.16278 0.96802 0.4945 0.0
C299 C 0.39067 -0.0001 0.51484 0.0
C300 C 0.86822 0.97168 0.49627 0.0
C301 C 0.94105 0.97707 0.49142 0.0
C302 C 0.15822 0.10996 0.49528 0.0
C303 C 0.31045 0.04306 0.49567 0.0
C304 C 0.23402 0.04138 0.4936 0.0
C305 C 0.01078 0.03323 0.50187 0.0
C306 C 0.08721 0.0365 0.49737 0.0
H307 H 0.49296 0.11675 0.47201 0.0
H308 H 0.36777 0.12005 0.46828 0.0
H309 H 0.28585 0.16953 0.49273 0.0
H310 H 0.93137 0.11876 0.53386 0.0
H311 H 0.05928 0.12705 0.52578 0.0
C312 C 0.98782 0.69717 0.83722 0.0
C313 C 0.92778 0.68153 0.85236 0.0
C314 C 0.05872 0.76983 0.83742 0.0
C315 C 0.21555 0.91971 0.8456 0.0
H316 H 0.18501 0.10178 0.85298 0.0
C317 C 0.42407 0.27485 0.85643 0.0
C318 C 0.47605 0.29132 0.83901 0.0
C319 C 0.35465 0.20121 0.85799 0.0
C320 C 0.19424 0.05137 0.85102 0.0
H321 H 0.89693 0.72597 0.88071 0.0
H322 H 0.02165 0.85232 0.88131 0.0
H323 H 0.07221 0.96768 0.85781 0.0
H324 H 0.49528 0.24769 0.80888 0.0
H325 H 0.37414 0.11757 0.81173 0.0
H326 H 0.33743 0.00386 0.83838 0.0
C327 C 0.01293 0.8095 0.86891 0.0
C328 C 0.1301 0.97481 0.85394 0.0
C329 C 0.94181 0.73718 0.8686 0.0
C330 C 0.45644 0.23511 0.82265 0.0
C331 C 0.38742 0.16119 0.82426 0.0
C332 C 0.27957 -0.0037 0.84254 0.0
C333 C 0.07077 0.82748 0.85289 0.0
C334 C 0.14015 0.90833 0.85118 0.0
C335 C 0.33713 0.14317 0.84221 0.0
C336 C 0.26914 0.06252 0.84513 0.0
H337 H 0.97852 0.65522 0.82451 0.0
H338 H 0.10213 0.78237 0.82478 0.0
H339 H 0.22501 0.86947 0.84362 0.0
H340 H 0.43942 0.31663 0.86951 0.0
H341 H 0.31697 0.18816 0.87207 0.0
C342 C 0.57635 0.66686 0.96971 0.0
C343 C 0.51819 0.64287 0.95357 0.0
C344 C 0.55389 0.65336 0.99142 0.0
C345 C 0.48088 0.66336 0.03507 0.0
H346 H 0.31173 0.4549 0.05308 0.0
C347 C 0.28056 0.60326 0.1099 0.0
C348 C 0.26333 0.53703 0.12275 0.0
C349 C 0.32553 0.61849 0.09107 0.0
C350 C 0.35972 0.51315 0.04837 0.0
H351 H 0.39117 0.58436 0.94742 0.0
H352 H 0.35192 0.55944 0.98526 0.0
H353 H 0.36209 0.47518 0.01616 0.0
H354 H 0.27802 0.43372 0.12589 0.0
H355 H 0.35577 0.45955 0.09266 0.0
H356 H 0.47601 0.70204 0.06709 0.0
C357 C 0.41479 0.58917 0.98115 0.0
C358 C 0.38804 0.52488 0.02722 0.0
C359 C 0.43724 0.60393 0.95953 0.0
C360 C 0.29198 0.48616 0.1165 0.0
C361 C 0.33593 0.50064 0.09745 0.0
C362 C 0.45156 0.65194 0.05616 0.0
C363 C 0.47282 0.61411 0.99733 0.0
C364 C 0.44809 0.60033 0.02027 0.0
C365 C 0.35217 0.56639 0.0844 0.0
C366 C 0.38997 0.57692 0.06293 0.0
H367 H 0.63919 0.6973 0.96554 0.0
H368 H 0.59977 0.67303 1.00358 0.0
H369 H 0.52697 0.72221 0.03011 0.0
H370 H 0.25799 0.64256 0.11427 0.0
H371 H 0.33621 0.66897 0.0812 0.0
C372 C 0.89097 0.4174 0.38577 0.0
C373 C 0.88175 0.35569 0.3995 0.0
C374 C 0.91254 0.41895 0.36421 0.0
C375 C 0.92149 0.29093 0.32091 0.0
H376 H 0.07029 0.49338 0.29464 0.0
C377 C 0.08621 0.32098 0.24043 0.0
C378 C 0.09389 0.38018 0.22602 0.0
C379 C 0.05319 0.3147 0.26086 0.0
C380 C 0.02784 0.43648 0.30166 0.0
H381 H 0.88911 0.2478 0.40136 0.0
H382 H 0.92763 0.25091 0.36389 0.0
H383 H 0.02845 0.48967 0.33182 0.0
H384 H 0.07303 0.47933 0.22168 0.0
H385 H 0.01469 0.46799 0.25727 0.0
H386 H 0.92262 0.23781 0.29079 0.0
C387 C 0.9165 0.29729 0.36961 0.0
C388 C 0.00375 0.43429 0.32299 0.0
C389 C 0.89454 0.29554 0.39114 0.0
C390 C 0.06674 0.43229 0.23229 0.0
C391 C 0.03413 0.42634 0.25277 0.0
C392 C 0.94602 0.29311 0.29961 0.0
C393 C 0.92588 0.35906 0.35584 0.0
C394 C 0.95038 0.36146 0.33295 0.0
C395 C 0.02811 0.36824 0.2674 0.0
C396 C -0.00045 0.3659 0.28976 0.0
H397 H 0.8805 0.46406 0.39163 0.0
H398 H 0.91784 0.46673 0.35403 0.0
H399 H 0.87933 0.23388 0.32789 0.0
H400 H 0.10773 0.28083 0.23606 0.0
H401 H 0.05017 0.26987 0.27184 0.0
C402 C 0.59393 0.52982 0.78353 0.0
C403 C 0.66712 0.54955 0.79298 0.0
C404 C 0.59165 0.56928 0.76496 0.0
C405 C 0.71332 0.74678 0.7306 0.0
H406 H 0.56304 0.61695 0.68664 0.0
C407 C 0.64393 0.87802 0.65554 0.0
C408 C 0.62439 0.83451 0.63627 0.0
C409 C 0.65822 0.84745 0.67429 0.0
C410 C 0.60614 0.65398 0.69861 0.0
H411 H 0.7954 0.62154 0.78998 0.0
H412 H 0.79198 0.69058 0.75743 0.0
H413 H 0.56698 0.55623 0.72048 0.0
H414 H 0.60951 0.72705 0.62128 0.0
H415 H 0.63653 0.67447 0.65388 0.0
H416 H 0.75337 0.84431 0.70851 0.0
C417 C 0.73607 0.64711 0.76474 0.0
C418 C 0.60744 0.61937 0.71819 0.0
C419 C 0.73818 0.60783 0.78336 0.0
C420 C 0.62465 0.76214 0.63584 0.0
C421 C 0.639 0.73151 0.65461 0.0
C422 C 0.71204 0.78147 0.71097 0.0
C423 C 0.66279 0.62769 0.75516 0.0
C424 C 0.66083 0.66532 0.73447 0.0
C425 C 0.65354 0.77265 0.67421 0.0
C426 C 0.6583 0.7355 0.69473 0.0
H427 H 0.5386 0.4833 0.79042 0.0
H428 H 0.53417 0.55334 0.75812 0.0
H429 H 0.75485 0.78403 0.74284 0.0
H430 H 0.64517 0.9345 0.65632 0.0
H431 H 0.66901 0.88077 0.68905 0.0
C432 C 0.76988 0.4659 0.90682 0.0
C433 C 0.70637 0.40561 0.89528 0.0
C434 C 0.78978 0.45009 0.92704 0.0
C435 C 0.75329 0.28805 0.96567 0.0
H436 H 0.8031 0.45426 1.00761 0.0
C437 C 0.75132 0.24061 0.05797 0.0
C438 C 0.81358 0.30176 0.06978 0.0
C439 C 0.74247 0.25064 0.03606 0.0
C440 C 0.79026 0.40759 0.99607 0.0
H441 H 0.61214 0.28259 0.89579 0.0
H442 H 0.64596 0.25452 0.93142 0.0
H443 H 0.78178 0.47592 0.97038 0.0
H444 H 0.91531 0.42133 0.06784 0.0
H445 H 0.90009 0.43865 0.02968 0.0
H446 H 0.75995 0.21911 0.99175 0.0
C447 C 0.68242 0.31333 0.92458 0.0
C448 C 0.77829 0.42007 0.97465 0.0
C449 C 0.66286 0.3292 0.90424 0.0
C450 C 0.86713 0.37282 0.05917 0.0
C451 C 0.85799 0.38302 0.03735 0.0
C452 C 0.76482 0.27536 0.9872 0.0
C453 C 0.74501 0.37417 0.93646 0.0
C454 C 0.75983 0.36063 0.95913 0.0
C455 C 0.79528 0.3223 0.02557 0.0
C456 C 0.78357 0.33513 1.00263 0.0
H457 H 0.80277 0.52591 0.90042 0.0
H458 H 0.8391 0.49805 0.93553 0.0
H459 H 0.73986 0.24125 0.95412 0.0
H460 H 0.70954 0.18488 0.06565 0.0
H461 H 0.69321 0.20298 0.02746 0.0
C462 C 0.31002 0.59782 0.31618 0.0
C463 C 0.3632 0.61056 0.29919 0.0
C464 C 0.33794 0.63986 0.33544 0.0
C465 C 0.50817 0.71672 0.36952 0.0
H466 H 0.43673 0.85086 0.39636 0.0
C467 C 0.66971 0.9107 0.4428 0.0
C468 C 0.62665 0.92881 0.45769 0.0
C469 C 0.63291 0.86768 0.42425 0.0
C470 C 0.45627 0.81225 0.38939 0.0
H471 H 0.48624 0.67794 0.28863 0.0
H472 H 0.53548 0.75026 0.32255 0.0
H473 H 0.38032 0.7875 0.36196 0.0
H474 H 0.51188 0.9179 0.46482 0.0
H475 H 0.44584 0.83851 0.43314 0.0
H476 H 0.58159 0.73794 0.39704 0.0
C477 C 0.47224 0.7087 0.32082 0.0
C478 C 0.42437 0.77671 0.36956 0.0
C479 C 0.44407 0.668 0.30142 0.0
C480 C 0.54589 0.9029 0.45381 0.0
C481 C 0.50852 0.8586 0.43543 0.0
C482 C 0.53874 0.75065 0.38953 0.0
C483 C 0.41967 0.69374 0.33811 0.0
C484 C 0.45111 0.7298 0.35934 0.0
C485 C 0.55188 0.84151 0.42016 0.0
C486 C 0.51436 0.80013 0.39962 0.0
H487 H 0.24747 0.55324 0.31482 0.0
H488 H 0.29645 0.62731 0.3486 0.0
H489 H 0.52861 0.67952 0.36206 0.0
H490 H 0.7326 0.93177 0.44525 0.0
H491 H 0.66915 0.85767 0.41277 0.0
C492 C 0.89064 0.2926 0.72037 0.0
C493 C 0.83673 0.30135 0.73371 0.0
C494 C 0.87629 0.27917 0.69833 0.0
C495 C 0.80778 0.20044 0.65566 0.0
H496 H 0.70215 0.29248 0.62339 0.0
C497 C 0.74517 0.14115 0.56516 0.0
C498 C 0.66533 0.11333 0.55946 0.0
C499 C 0.77352 0.17626 0.58522 0.0
C500 C 0.73169 0.2664 0.63222 0.0
H501 H 0.7255 0.30299 0.7344 0.0
H502 H 0.69935 0.27782 0.69609 0.0
H503 H 0.73815 0.33041 0.66087 0.0
H504 H 0.55326 0.10211 0.56987 0.0
H505 H 0.60293 0.16436 0.60486 0.0
H506 H 0.80113 0.13642 0.62698 0.0
C507 C 0.75384 0.28322 0.70248 0.0
C508 C 0.75198 0.28773 0.65373 0.0
C509 C 0.76863 0.29741 0.72448 0.0
C510 C 0.61532 0.12402 0.57382 0.0
C511 C 0.6438 0.15973 0.59379 0.0
C512 C 0.7882 0.17977 0.63412 0.0
C513 C 0.80719 0.27332 0.68911 0.0
C514 C 0.78947 0.2543 0.66583 0.0
C515 C 0.7226 0.18428 0.59994 0.0
C516 C 0.74919 0.21184 0.62223 0.0
H517 H 0.94423 0.29648 0.72697 0.0
H518 H 0.91958 0.2735 0.68854 0.0
H519 H 0.83514 0.17218 0.66449 0.0
H520 H 0.78475 0.13254 0.55459 0.0
H521 H 0.8347 0.19518 0.58947 0.0
loop_
_geom_bond_atom_site_label_1
_geom_bond_atom_site_label_2
_geom_bond_distance
_geom_bond_site_symmetry_2
_ccdc_geom_bond_type
Tb0 N31 2.660 . S
Tb0 N38 2.600 . S
Tb0 O44 2.546 . S
Tb0 O45 2.610 1_455 S
Tb0 O47 2.320 . S
Tb0 O48 2.552 . S
Tb0 O49 2.413 . S
Tb0 O51 2.362 . S
Tb0 O52 2.421 . S
Tb0 C64 2.833 . S
C1 C4 1.432 . S
C1 C5 1.414 . S
C1 N8 1.359 . S
C2 C4 1.417 . S
C2 C6 1.432 . S
C2 C14 1.410 . S
C3 C5 1.444 . S
C3 C6 1.317 . S
C3 H26 0.929 . S
C4 C1 1.432 . S
C4 C2 1.417 . S
C4 N12 1.360 . S
C5 C1 1.414 . S
C5 C3 1.444 . S
C5 C10 1.385 . S
C6 C2 1.432 . S
C6 C3 1.317 . S
C6 H18 0.930 . S
C7 C9 1.392 . S
C7 C10 1.370 . S
C7 H19 0.931 . S
N8 C1 1.359 . S
N8 C9 1.327 . S
N8 Tb11 2.600 . S
C9 C7 1.392 . S
C9 N8 1.327 . S
C9 H16 0.930 . S
C10 C5 1.385 . S
C10 C7 1.370 . S
C10 H29 0.930 . S
Tb11 N8 2.600 . S
Tb11 N12 2.660 . S
Tb11 O45 2.362 . S
Tb11 O46 2.421 . S
Tb11 O50 2.546 . S
Tb11 O51 2.610 1_655 S
Tb11 O53 2.320 . S
Tb11 O54 2.552 . S
Tb11 O55 2.413 . S
Tb11 C75 2.833 . S
N12 C4 1.360 . S
N12 Tb11 2.660 . S
N12 C13 1.305 . S
C13 N12 1.305 . S
C13 C15 1.407 . S
C13 H20 0.930 . S
C14 C2 1.410 . S
C14 C15 1.345 . S
C14 H22 0.930 . S
C15 C13 1.407 . S
C15 C14 1.345 . S
C15 H17 0.930 . S
H16 C9 0.930 . S
H17 C15 0.930 . S
H18 C6 0.930 . S
H19 C7 0.931 . S
H20 C13 0.930 . S
H21 C35 0.930 . S
H22 C14 0.930 . S
H23 C41 0.930 . S
H24 C32 0.930 . S
H25 C39 0.931 . S
H26 C3 0.929 . S
H27 C33 0.930 . S
H28 C66 0.930 . S
H29 C10 0.930 . S
H30 C65 0.929 . S
N31 Tb0 2.660 . S
N31 C32 1.305 . S
N31 C36 1.360 . S
C32 H24 0.930 . S
C32 N31 1.305 . S
C32 C35 1.407 . S
C33 H27 0.930 . S
C33 C34 1.410 . S
C33 C35 1.345 . S
C34 C33 1.410 . S
C34 C36 1.417 . S
C34 C66 1.432 . S
C35 H21 0.930 . S
C35 C32 1.407 . S
C35 C33 1.345 . S
C36 N31 1.360 . S
C36 C34 1.417 . S
C36 C40 1.432 . S
H37 C42 0.930 . S
N38 Tb0 2.600 . S
N38 C40 1.359 . S
N38 C41 1.327 . S
C39 H25 0.931 . S
C39 C41 1.392 . S
C39 C42 1.370 . S
C40 C36 1.432 . S
C40 N38 1.359 . S
C40 C43 1.414 . S
C41 H23 0.930 . S
C41 N38 1.327 . S
C41 C39 1.392 . S
C42 H37 0.930 . S
C42 C39 1.370 . S
C42 C43 1.385 . S
C43 C40 1.414 . S
C43 C42 1.385 . S
C43 C65 1.444 . S
O44 Tb0 2.546 . S
O44 C64 1.251 . S
O45 Tb0 2.610 1_655 S
O45 Tb11 2.362 . S
O45 C56 1.283 . S
O46 Tb11 2.421 . S
O46 C63 1.262 1_655 S
O47 Tb0 2.320 . S
O47 C63 1.260 . S
O48 Tb0 2.552 . S
O48 C56 1.243 1_455 S
O49 Tb0 2.413 . S
O49 C64 1.256 . S
O50 Tb11 2.546 . S
O50 C75 1.251 . S
O51 Tb0 2.362 . S
O51 Tb11 2.610 1_455 S
O51 C67 1.283 . S
O52 Tb0 2.421 . S
O52 C74 1.262 1_455 S
O53 Tb11 2.320 . S
O53 C74 1.260 . S
O54 Tb11 2.552 . S
O54 C67 1.243 1_655 S
O55 Tb11 2.413 . S
O55 C75 1.256 . S
C56 O45 1.283 . S
C56 O48 1.243 1_655 S
C57 C59 1.382 . S
C57 C61 1.393 . S
C57 C64 1.500 . S
C58 C59 1.400 . S
C58 C60 1.384 . S
C59 C57 1.382 . S
C59 C58 1.400 . S
C59 H76 0.930 . S
C60 C58 1.384 . S
C60 C62 1.392 . S
C60 H77 0.931 . S
C61 C57 1.393 . S
C61 C62 1.401 . S
C61 H78 0.930 . S
C62 C60 1.392 . S
C62 C61 1.401 . S
C62 H79 0.930 . S
C63 O46 1.262 1_455 S
C63 O47 1.260 . S
C64 Tb0 2.833 . S
C64 O44 1.251 . S
C64 O49 1.256 . S
C64 C57 1.500 . S
C65 H30 0.929 . S
C65 C43 1.444 . S
C65 C66 1.317 . S
C66 H28 0.930 . S
C66 C34 1.432 . S
C66 C65 1.317 . S
C67 O51 1.283 . S
C67 O54 1.243 1_455 S
C68 C69 1.382 . S
C68 C72 1.393 . S
C68 C75 1.500 . S
C69 C68 1.382 . S
C69 C70 1.400 . S
C69 H80 0.930 . S
C70 C69 1.400 . S
C70 C71 1.384 . S
C71 C70 1.384 . S
C71 C73 1.392 . S
C71 H81 0.931 . S
C72 C68 1.393 . S
C72 C73 1.401 . S
C72 H82 0.930 . S
C73 C71 1.392 . S
C73 C72 1.401 . S
C73 H83 0.930 . S
C74 O52 1.262 1_655 S
C74 O53 1.260 . S
C75 Tb11 2.833 . S
C75 O50 1.251 . S
C75 O55 1.256 . S
C75 C68 1.500 . S
H76 C59 0.930 . S
H77 C60 0.931 . S
H78 C61 0.930 . S
H79 C62 0.930 . S
H80 C69 0.930 . S
H81 C71 0.931 . S
H82 C72 0.930 . S
H83 C73 0.930 . S
Tb84 N115 2.660 1_545 S
Tb84 N122 2.600 1_545 S
Tb84 O128 2.546 . S
Tb84 O129 2.610 . S
Tb84 O131 2.320 . S
Tb84 O132 2.552 . S
Tb84 O133 2.413 . S
Tb84 O135 2.362 . S
Tb84 O136 2.421 . S
Tb84 C148 2.833 1_545 S
C85 C88 1.432 . S
C85 C89 1.414 1_655 S
C85 N92 1.359 . S
C86 C88 1.417 . S
C86 C90 1.432 1_655 S
C86 C98 1.410 . S
C87 C89 1.444 . S
C87 C90 1.317 . S
C87 H110 0.929 . S
C88 C85 1.432 . S
C88 C86 1.417 . S
C88 N96 1.360 . S
C89 C85 1.414 1_455 S
C89 C87 1.444 . S
C89 C94 1.385 . S
C90 C86 1.432 1_455 S
C90 C87 1.317 . S
C90 H102 0.930 . S
C91 C93 1.392 . S
C91 C94 1.370 . S
C91 H103 0.931 . S
N92 C85 1.359 . S
N92 C93 1.327 1_655 S
N92 Tb95 2.600 . S
C93 C91 1.392 . S
C93 N92 1.327 1_455 S
C93 H100 0.930 . S
C94 C89 1.385 . S
C94 C91 1.370 . S
C94 H113 0.930 . S
Tb95 N92 2.600 . S
Tb95 N96 2.660 . S
Tb95 O129 2.362 . S
Tb95 O130 2.421 . S
Tb95 O134 2.546 . S
Tb95 O135 2.610 . S
Tb95 O137 2.320 . S
Tb95 O138 2.552 . S
Tb95 O139 2.413 . S
Tb95 C159 2.833 . S
N96 C88 1.360 . S
N96 Tb95 2.660 . S
N96 C97 1.305 . S
C97 N96 1.305 . S
C97 C99 1.407 . S
C97 H104 0.930 . S
C98 C86 1.410 . S
C98 C99 1.345 . S
C98 H106 0.930 . S
C99 C97 1.407 . S
C99 C98 1.345 . S
C99 H101 0.930 . S
H100 C93 0.930 . S
H101 C99 0.930 . S
H102 C90 0.930 . S
H103 C91 0.931 . S
H104 C97 0.930 . S
H105 C119 0.930 . S
H106 C98 0.930 . S
H107 C125 0.930 1_545 S
H108 C116 0.930 1_545 S
H109 C123 0.931 . S
H110 C87 0.929 . S
H111 C117 0.930 . S
H112 C150 0.930 . S
H113 C94 0.930 . S
H114 C149 0.929 . S
N115 Tb84 2.660 1_565 S
N115 C116 1.305 . S
N115 C120 1.360 . S
C116 H108 0.930 1_565 S
C116 N115 1.305 . S
C116 C119 1.407 . S
C117 H111 0.930 . S
C117 C118 1.410 . S
C117 C119 1.345 . S
C118 C117 1.410 . S
C118 C120 1.417 . S
C118 C150 1.432 . S
C119 H105 0.930 . S
C119 C116 1.407 . S
C119 C117 1.345 . S
C120 N115 1.360 . S
C120 C118 1.417 . S
C120 C124 1.432 . S
H121 C126 0.930 . S
N122 Tb84 2.600 1_565 S
N122 C124 1.359 . S
N122 C125 1.327 . S
C123 H109 0.931 . S
C123 C125 1.392 . S
C123 C126 1.370 . S
C124 C120 1.432 . S
C124 N122 1.359 . S
C124 C127 1.414 . S
C125 H107 0.930 1_565 S
C125 N122 1.327 . S
C125 C123 1.392 . S
C126 H121 0.930 . S
C126 C123 1.370 . S
C126 C127 1.385 . S
C127 C124 1.414 . S
C127 C126 1.385 . S
C127 C149 1.444 . S
O128 Tb84 2.546 . S
O128 C148 1.251 1_545 S
O129 Tb84 2.610 . S
O129 Tb95 2.362 . S
O129 C140 1.283 . S
O130 Tb95 2.421 . S
O130 C147 1.262 . S
O131 Tb84 2.320 . S
O131 C147 1.260 . S
O132 Tb84 2.552 . S
O132 C140 1.243 . S
O133 Tb84 2.413 . S
O133 C148 1.256 1_545 S
O134 Tb95 2.546 . S
O134 C159 1.251 . S
O135 Tb84 2.362 . S
O135 Tb95 2.610 . S
O135 C151 1.283 . S
O136 Tb84 2.421 . S
O136 C158 1.262 . S
O137 Tb95 2.320 . S
O137 C158 1.260 . S
O138 Tb95 2.552 . S
O138 C151 1.243 . S
O139 Tb95 2.413 . S
O139 C159 1.256 . S
C140 O129 1.283 . S
C140 O132 1.243 . S
C141 C143 1.382 . S
C141 C145 1.393 . S
C141 C148 1.500 . S
C142 C143 1.400 . S
C142 C144 1.384 . S
C143 C141 1.382 . S
C143 C142 1.400 . S
C143 H160 0.930 . S
C144 C142 1.384 . S
C144 C146 1.392 . S
C144 H161 0.931 . S
C145 C141 1.393 . S
C145 C146 1.401 . S
C145 H162 0.930 . S
C146 C144 1.392 . S
C146 C145 1.401 . S
C146 H163 0.930 . S
C147 O130 1.262 . S
C147 O131 1.260 . S
C148 Tb84 2.833 1_565 S
C148 O128 1.251 1_565 S
C148 O133 1.256 1_565 S
C148 C141 1.500 . S
C149 H114 0.929 . S
C149 C127 1.444 . S
C149 C150 1.317 . S
C150 H112 0.930 . S
C150 C118 1.432 . S
C150 C149 1.317 . S
C151 O135 1.283 . S
C151 O138 1.243 . S
C152 C153 1.382 . S
C152 C156 1.393 . S
C152 C159 1.500 . S
C153 C152 1.382 . S
C153 C154 1.400 . S
C153 H164 0.930 . S
C154 C153 1.400 . S
C154 C155 1.384 . S
C155 C154 1.384 . S
C155 C157 1.392 . S
C155 H165 0.931 . S
C156 C152 1.393 . S
C156 C157 1.401 . S
C156 H166 0.930 1_655 S
C157 C155 1.392 . S
C157 C156 1.401 . S
C157 H167 0.930 1_655 S
C158 O136 1.262 . S
C158 O137 1.260 . S
C159 Tb95 2.833 . S
C159 O134 1.251 . S
C159 O139 1.256 . S
C159 C152 1.500 . S
H160 C143 0.930 . S
H161 C144 0.931 . S
H162 C145 0.930 . S
H163 C146 0.930 . S
H164 C153 0.930 . S
H165 C155 0.931 . S
H166 C156 0.930 1_455 S
H167 C157 0.930 1_455 S
Tb168 N199 2.660 . S
Tb168 N206 2.600 . S
Tb168 O212 2.546 . S
Tb168 O213 2.610 . S
Tb168 O215 2.320 . S
Tb168 O216 2.552 . S
Tb168 O217 2.413 . S
Tb168 O219 2.362 . S
Tb168 O220 2.421 . S
Tb168 C232 2.833 . S
C169 C172 1.432 . S
C169 C173 1.414 . S
C169 N176 1.359 . S
C170 C172 1.417 . S
C170 C174 1.432 . S
C170 C182 1.410 1_655 S
C171 C173 1.444 . S
C171 C174 1.317 . S
C171 H194 0.929 . S
C172 C169 1.432 . S
C172 C170 1.417 . S
C172 N180 1.360 . S
C173 C169 1.414 . S
C173 C171 1.444 . S
C173 C178 1.385 . S
C174 C170 1.432 . S
C174 C171 1.317 . S
C174 H186 0.930 . S
C175 C177 1.392 . S
C175 C178 1.370 . S
C175 H187 0.931 . S
N176 C169 1.359 . S
N176 C177 1.327 . S
N176 Tb179 2.600 . S
C177 C175 1.392 . S
C177 N176 1.327 . S
C177 H184 0.930 . S
C178 C173 1.385 . S
C178 C175 1.370 . S
C178 H197 0.930 1_545 S
Tb179 N176 2.600 . S
Tb179 N180 2.660 . S
Tb179 O213 2.362 . S
Tb179 O214 2.421 . S
Tb179 O218 2.546 . S
Tb179 O219 2.610 . S
Tb179 O221 2.320 . S
Tb179 O222 2.552 . S
Tb179 O223 2.413 . S
Tb179 C243 2.833 . S
N180 C172 1.360 . S
N180 Tb179 2.660 . S
N180 C181 1.305 . S
C181 N180 1.305 . S
C181 C183 1.407 1_655 S
C181 H188 0.930 . S
C182 C170 1.410 1_455 S
C182 C183 1.345 . S
C182 H190 0.930 . S
C183 C181 1.407 1_455 S
C183 C182 1.345 . S
C183 H185 0.930 . S
H184 C177 0.930 . S
H185 C183 0.930 . S
H186 C174 0.930 . S
H187 C175 0.931 . S
H188 C181 0.930 . S
H189 C203 0.930 . S
H190 C182 0.930 . S
H191 C209 0.930 . S
H192 C200 0.930 . S
H193 C207 0.931 . S
H194 C171 0.929 . S
H195 C201 0.930 . S
H196 C234 0.930 . S
H197 C178 0.930 1_565 S
H198 C233 0.929 . S
N199 Tb168 2.660 . S
N199 C200 1.305 . S
N199 C204 1.360 . S
C200 H192 0.930 . S
C200 N199 1.305 . S
C200 C203 1.407 . S
C201 H195 0.930 . S
C201 C202 1.410 . S
C201 C203 1.345 . S
C202 C201 1.410 . S
C202 C204 1.417 . S
C202 C234 1.432 . S
C203 H189 0.930 . S
C203 C200 1.407 . S
C203 C201 1.345 . S
C204 N199 1.360 . S
C204 C202 1.417 . S
C204 C208 1.432 . S
H205 C210 0.930 . S
N206 Tb168 2.600 . S
N206 C208 1.359 . S
N206 C209 1.327 . S
C207 H193 0.931 . S
C207 C209 1.392 . S
C207 C210 1.370 . S
C208 C204 1.432 . S
C208 N206 1.359 . S
C208 C211 1.414 . S
C209 H191 0.930 . S
C209 N206 1.327 . S
C209 C207 1.392 . S
C210 H205 0.930 . S
C210 C207 1.370 . S
C210 C211 1.385 . S
C211 C208 1.414 . S
C211 C210 1.385 . S
C211 C233 1.444 . S
O212 Tb168 2.546 . S
O212 C232 1.251 . S
O213 Tb168 2.610 . S
O213 Tb179 2.362 . S
O213 C224 1.283 . S
O214 Tb179 2.421 . S
O214 C231 1.262 . S
O215 Tb168 2.320 . S
O215 C231 1.260 . S
O216 Tb168 2.552 . S
O216 C224 1.243 . S
O217 Tb168 2.413 . S
O217 C232 1.256 . S
O218 Tb179 2.546 . S
O218 C243 1.251 . S
O219 Tb168 2.362 . S
O219 Tb179 2.610 . S
O219 C235 1.283 . S
O220 Tb168 2.421 . S
O220 C242 1.262 . S
O221 Tb179 2.320 . S
O221 C242 1.260 . S
O222 Tb179 2.552 . S
O222 C235 1.243 . S
O223 Tb179 2.413 . S
O223 C243 1.256 . S
C224 O213 1.283 . S
C224 O216 1.243 . S
C225 C227 1.382 . S
C225 C229 1.393 . S
C225 C232 1.500 . S
C226 C227 1.400 . S
C226 C228 1.384 . S
C227 C225 1.382 . S
C227 C226 1.400 . S
C227 H244 0.930 . S
C228 C226 1.384 . S
C228 C230 1.392 . S
C228 H245 0.931 . S
C229 C225 1.393 . S
C229 C230 1.401 . S
C229 H246 0.930 . S
C230 C228 1.392 . S
C230 C229 1.401 . S
C230 H247 0.930 . S
C231 O214 1.262 . S
C231 O215 1.260 . S
C232 Tb168 2.833 . S
C232 O212 1.251 . S
C232 O217 1.256 . S
C232 C225 1.500 . S
C233 H198 0.929 . S
C233 C211 1.444 . S
C233 C234 1.317 . S
C234 H196 0.930 . S
C234 C202 1.432 . S
C234 C233 1.317 . S
C235 O219 1.283 . S
C235 O222 1.243 . S
C236 C237 1.382 . S
C236 C240 1.393 . S
C236 C243 1.500 . S
C237 C236 1.382 . S
C237 C238 1.400 . S
C237 H248 0.930 . S
C238 C237 1.400 . S
C238 C239 1.384 . S
C239 C238 1.384 . S
C239 C241 1.392 . S
C239 H249 0.931 . S
C240 C236 1.393 . S
C240 C241 1.401 . S
C240 H250 0.930 . S
C241 C239 1.392 . S
C241 C240 1.401 . S
C241 H251 0.930 . S
C242 O220 1.262 . S
C242 O221 1.260 . S
C243 Tb179 2.833 . S
C243 O218 1.251 . S
C243 O223 1.256 . S
C243 C236 1.500 . S
H244 C227 0.930 . S
H245 C228 0.931 . S
H246 C229 0.930 . S
H247 C230 0.930 . S
H248 C237 0.930 . S
H249 C239 0.931 . S
H250 C240 0.930 . S
H251 C241 0.930 . S
C252 C253 1.349 1_655 S
C252 C254 1.327 . S
C252 H277 0.950 . S
C253 C252 1.349 1_455 S
C253 C269 1.349 . S
C254 C252 1.327 . S
C254 C273 1.429 1_655 S
C254 H278 0.950 . S
C255 C272 1.574 . S
C255 C274 1.368 . S
C255 H279 0.949 . S
H256 C260 0.949 . S
C257 C258 1.349 1_455 S
C257 C259 1.327 . S
C257 H280 0.950 . S
C258 C257 1.349 1_655 S
C258 C270 1.349 . S
C259 C257 1.327 . S
C259 C275 1.429 1_455 S
C259 H281 0.950 . S
C260 H256 0.949 . S
C260 C268 1.574 . S
C260 C276 1.368 . S
H261 C269 0.950 . S
H262 C267 0.950 . S
H263 C268 0.949 . S
H264 C270 0.950 . S
H265 C271 0.950 . S
H266 C272 0.949 1_545 S
C267 H262 0.950 . S
C267 C269 1.327 . S
C267 C273 1.429 . S
C268 C260 1.574 . S
C268 H263 0.949 . S
C268 C274 1.368 1_655 S
C269 C253 1.349 . S
C269 H261 0.950 . S
C269 C267 1.327 . S
C270 C258 1.349 . S
C270 H264 0.950 . S
C270 C271 1.327 . S
C271 H265 0.950 . S
C271 C270 1.327 . S
C271 C275 1.429 . S
C272 C255 1.574 . S
C272 H266 0.949 1_565 S
C272 C276 1.368 1_455 S
C273 C254 1.429 1_455 S
C273 C267 1.429 . S
C273 C274 1.523 . S
C274 C255 1.368 . S
C274 C268 1.368 1_455 S
C274 C273 1.523 . S
C275 C259 1.429 1_655 S
C275 C271 1.429 . S
C275 C276 1.523 1_545 S
C276 C260 1.368 . S
C276 C272 1.368 1_655 S
C276 C275 1.523 1_565 S
H277 C252 0.950 . S
H278 C254 0.950 . S
H279 C255 0.949 . S
H280 C257 0.950 . S
H281 C259 0.950 . S
C282 C283 1.349 . S
C282 C284 1.327 . S
C282 H307 0.950 . S
C283 C282 1.349 . S
C283 C299 1.349 . S
C284 C282 1.327 . S
C284 C303 1.429 . S
C284 H308 0.950 . S
C285 C302 1.574 . S
C285 C304 1.368 . S
C285 H309 0.949 . S
H286 C290 0.949 . S
C287 C288 1.349 1_455 S
C287 C289 1.327 . S
C287 H310 0.950 . S
C288 C287 1.349 1_655 S
C288 C300 1.349 . S
C289 C287 1.327 . S
C289 C305 1.429 . S
C289 H311 0.950 . S
C290 H286 0.949 . S
C290 C298 1.574 . S
C290 C306 1.368 . S
H291 C299 0.950 . S
H292 C297 0.950 . S
H293 C298 0.949 . S
H294 C300 0.950 . S
H295 C301 0.950 . S
H296 C302 0.949 . S
C297 H292 0.950 . S
C297 C299 1.327 . S
C297 C303 1.429 . S
C298 C290 1.574 . S
C298 H293 0.949 . S
C298 C304 1.368 . S
C299 C283 1.349 . S
C299 H291 0.950 . S
C299 C297 1.327 . S
C300 C288 1.349 . S
C300 H294 0.950 . S
C300 C301 1.327 1_655 S
C301 H295 0.950 . S
C301 C300 1.327 1_455 S
C301 C305 1.429 . S
C302 C285 1.574 . S
C302 H296 0.949 . S
C302 C306 1.368 . S
C303 C284 1.429 . S
C303 C297 1.429 . S
C303 C304 1.523 . S
C304 C285 1.368 . S
C304 C298 1.368 . S
C304 C303 1.523 . S
C305 C289 1.429 . S
C305 C301 1.429 . S
C305 C306 1.523 . S
C306 C290 1.368 . S
C306 C302 1.368 . S
C306 C305 1.523 . S
H307 C282 0.950 . S
H308 C284 0.950 . S
H309 C285 0.949 . S
H310 C287 0.950 . S
H311 C289 0.950 . S
C312 C313 1.350 1_455 S
C312 C314 1.329 . S
C312 H337 0.947 1_455 S
C313 C312 1.350 1_655 S
C313 C329 1.349 1_655 S
C314 C312 1.329 . S
C314 C333 1.429 . S
C314 H338 0.950 . S
C315 C332 1.574 . S
C315 C334 1.368 . S
C315 H339 0.949 . S
H316 C320 0.949 1_545 S
C317 C318 1.349 . S
C317 C319 1.327 . S
C317 H340 0.950 . S
C318 C317 1.349 . S
C318 C330 1.349 . S
C319 C317 1.327 . S
C319 C335 1.429 . S
C319 H341 0.950 . S
C320 H316 0.949 1_565 S
C320 C328 1.574 . S
C320 C336 1.368 . S
H321 C329 0.950 . S
H322 C327 0.950 . S
H323 C328 0.949 . S
H324 C330 0.950 . S
H325 C331 0.950 . S
H326 C332 0.949 . S
C327 H322 0.950 . S
C327 C329 1.327 . S
C327 C333 1.429 . S
C328 C320 1.574 . S
C328 H323 0.949 . S
C328 C334 1.368 . S
C329 C313 1.349 1_455 S
C329 H321 0.950 . S
C329 C327 1.327 . S
C330 C318 1.349 . S
C330 H324 0.950 . S
C330 C331 1.327 . S
C331 H325 0.950 . S
C331 C330 1.327 . S
C331 C335 1.429 . S
C332 C315 1.574 . S
C332 H326 0.949 . S
C332 C336 1.368 . S
C333 C314 1.429 . S
C333 C327 1.429 . S
C333 C334 1.523 . S
C334 C315 1.368 . S
C334 C328 1.368 . S
C334 C333 1.523 . S
C335 C319 1.429 . S
C335 C331 1.429 . S
C335 C336 1.523 1_545 S
C336 C320 1.368 . S
C336 C332 1.368 . S
C336 C335 1.523 1_565 S
H337 C312 0.947 1_655 S
H338 C314 0.950 . S
H339 C315 0.949 . S
H340 C317 0.950 . S
H341 C319 0.950 . S
C342 C343 1.349 . S
C342 C344 1.327 . S
C342 H367 0.950 . S
C343 C342 1.349 . S
C343 C359 1.349 . S
C344 C342 1.327 . S
C344 C363 1.429 . S
C344 H368 0.950 1_556 S
C345 C362 1.574 . S
C345 C364 1.368 . S
C345 H369 0.949 . S
H346 C350 0.949 . S
C347 C348 1.349 . S
C347 C349 1.327 . S
C347 H370 0.950 . S
C348 C347 1.349 . S
C348 C360 1.349 . S
C349 C347 1.327 . S
C349 C365 1.429 . S
C349 H371 0.950 . S
C350 H346 0.949 . S
C350 C358 1.574 . S
C350 C366 1.368 . S
H351 C359 0.950 . S
H352 C357 0.950 . S
H353 C358 0.949 . S
H354 C360 0.950 . S
H355 C361 0.950 . S
H356 C362 0.949 . S
C357 H352 0.950 . S
C357 C359 1.327 . S
C357 C363 1.429 . S
C358 C350 1.574 . S
C358 H353 0.949 . S
C358 C364 1.368 . S
C359 C343 1.349 . S
C359 H351 0.950 . S
C359 C357 1.327 . S
C360 C348 1.349 . S
C360 H354 0.950 . S
C360 C361 1.327 . S
C361 H355 0.950 . S
C361 C360 1.327 . S
C361 C365 1.429 . S
C362 C345 1.574 . S
C362 H356 0.949 . S
C362 C366 1.368 . S
C363 C344 1.429 . S
C363 C357 1.429 . S
C363 C364 1.523 1_556 S
C364 C345 1.368 . S
C364 C358 1.368 . S
C364 C363 1.523 1_554 S
C365 C349 1.429 . S
C365 C361 1.429 . S
C365 C366 1.523 . S
C366 C350 1.368 . S
C366 C362 1.368 . S
C366 C365 1.523 . S
H367 C342 0.950 . S
H368 C344 0.950 1_554 S
H369 C345 0.949 . S
H370 C347 0.950 . S
H371 C349 0.950 . S
C372 C373 1.349 . S
C372 C374 1.327 . S
C372 H397 0.950 . S
C373 C372 1.349 . S
C373 C389 1.349 . S
C374 C372 1.327 . S
C374 C393 1.429 . S
C374 H398 0.950 . S
C375 C392 1.574 . S
C375 C394 1.368 . S
C375 H399 0.949 . S
H376 C380 0.949 . S
C377 C378 1.349 . S
C377 C379 1.327 . S
C377 H400 0.950 . S
C378 C377 1.349 . S
C378 C390 1.349 . S
C379 C377 1.327 . S
C379 C395 1.429 . S
C379 H401 0.950 . S
C380 H376 0.949 . S
C380 C388 1.574 . S
C380 C396 1.368 . S
H381 C389 0.950 . S
H382 C387 0.950 . S
H383 C388 0.949 . S
H384 C390 0.950 . S
H385 C391 0.950 . S
H386 C392 0.949 . S
C387 H382 0.950 . S
C387 C389 1.327 . S
C387 C393 1.429 . S
C388 C380 1.574 . S
C388 H383 0.949 . S
C388 C394 1.368 . S
C389 C373 1.349 . S
C389 H381 0.950 . S
C389 C387 1.327 . S
C390 C378 1.349 . S
C390 H384 0.950 . S
C390 C391 1.327 . S
C391 H385 0.950 . S
C391 C390 1.327 . S
C391 C395 1.429 . S
C392 C375 1.574 . S
C392 H386 0.949 . S
C392 C396 1.368 . S
C393 C374 1.429 . S
C393 C387 1.429 . S
C393 C394 1.523 . S
C394 C375 1.368 . S
C394 C388 1.368 . S
C394 C393 1.523 . S
C395 C379 1.429 . S
C395 C391 1.429 . S
C395 C396 1.523 . S
C396 C380 1.368 . S
C396 C392 1.368 . S
C396 C395 1.523 . S
H397 C372 0.950 . S
H398 C374 0.950 . S
H399 C375 0.949 . S
H400 C377 0.950 . S
H401 C379 0.950 . S
C402 C403 1.349 . S
C402 C404 1.327 . S
C402 H427 0.950 . S
C403 C402 1.349 . S
C403 C419 1.349 . S
C404 C402 1.327 . S
C404 C423 1.429 . S
C404 H428 0.950 . S
C405 C422 1.574 . S
C405 C424 1.368 . S
C405 H429 0.949 . S
H406 C410 0.949 . S
C407 C408 1.349 . S
C407 C409 1.327 . S
C407 H430 0.950 . S
C408 C407 1.349 . S
C408 C420 1.349 . S
C409 C407 1.327 . S
C409 C425 1.429 . S
C409 H431 0.950 . S
C410 H406 0.949 . S
C410 C418 1.574 . S
C410 C426 1.368 . S
H411 C419 0.950 . S
H412 C417 0.950 . S
H413 C418 0.949 . S
H414 C420 0.950 . S
H415 C421 0.950 . S
H416 C422 0.949 . S
C417 H412 0.950 . S
C417 C419 1.327 . S
C417 C423 1.429 . S
C418 C410 1.574 . S
C418 H413 0.949 . S
C418 C424 1.368 . S
C419 C403 1.349 . S
C419 H411 0.950 . S
C419 C417 1.327 . S
C420 C408 1.349 . S
C420 H414 0.950 . S
C420 C421 1.327 . S
C421 H415 0.950 . S
C421 C420 1.327 . S
C421 C425 1.429 . S
C422 C405 1.574 . S
C422 H416 0.949 . S
C422 C426 1.368 . S
C423 C404 1.429 . S
C423 C417 1.429 . S
C423 C424 1.523 . S
C424 C405 1.368 . S
C424 C418 1.368 . S
C424 C423 1.523 . S
C425 C409 1.429 . S
C425 C421 1.429 . S
C425 C426 1.523 . S
C426 C410 1.368 . S
C426 C422 1.368 . S
C426 C425 1.523 . S
H427 C402 0.950 . S
H428 C404 0.950 . S
H429 C405 0.949 . S
H430 C407 0.950 . S
H431 C409 0.950 . S
C432 C433 1.349 . S
C432 C434 1.327 . S
C432 H457 0.950 . S
C433 C432 1.349 . S
C433 C449 1.349 . S
C434 C432 1.327 . S
C434 C453 1.429 . S
C434 H458 0.950 . S
C435 C452 1.574 . S
C435 C454 1.368 . S
C435 H459 0.949 . S
H436 C440 0.949 . S
C437 C438 1.349 . S
C437 C439 1.327 . S
C437 H460 0.950 . S
C438 C437 1.349 . S
C438 C450 1.349 . S
C439 C437 1.327 . S
C439 C455 1.429 . S
C439 H461 0.950 . S
C440 H436 0.949 . S
C440 C448 1.574 . S
C440 C456 1.368 . S
H441 C449 0.950 . S
H442 C447 0.950 . S
H443 C448 0.949 . S
H444 C450 0.950 . S
H445 C451 0.950 . S
H446 C452 0.949 . S
C447 H442 0.950 . S
C447 C449 1.327 . S
C447 C453 1.429 . S
C448 C440 1.574 . S
C448 H443 0.949 . S
C448 C454 1.368 . S
C449 C433 1.349 . S
C449 H441 0.950 . S
C449 C447 1.327 . S
C450 C438 1.349 . S
C450 H444 0.950 . S
C450 C451 1.327 . S
C451 H445 0.950 . S
C451 C450 1.327 . S
C451 C455 1.429 . S
C452 C435 1.574 . S
C452 H446 0.949 . S
C452 C456 1.368 . S
C453 C434 1.429 . S
C453 C447 1.429 . S
C453 C454 1.523 . S
C454 C435 1.368 . S
C454 C448 1.368 . S
C454 C453 1.523 . S
C455 C439 1.429 . S
C455 C451 1.429 . S
C455 C456 1.523 1_554 S
C456 C440 1.368 . S
C456 C452 1.368 . S
C456 C455 1.523 1_556 S
H457 C432 0.950 . S
H458 C434 0.950 . S
H459 C435 0.949 . S
H460 C437 0.950 . S
H461 C439 0.950 . S
C462 C463 1.349 . S
C462 C464 1.327 . S
C462 H487 0.950 . S
C463 C462 1.349 . S
C463 C479 1.349 . S
C464 C462 1.327 . S
C464 C483 1.429 . S
C464 H488 0.950 . S
C465 C482 1.574 . S
C465 C484 1.368 . S
C465 H489 0.949 . S
H466 C470 0.949 . S
C467 C468 1.349 1_565 S
C467 C469 1.327 . S
C467 H490 0.950 . S
C468 C467 1.349 1_545 S
C468 C480 1.349 . S
C469 C467 1.327 . S
C469 C485 1.429 . S
C469 H491 0.950 . S
C470 H466 0.949 . S
C470 C478 1.574 . S
C470 C486 1.368 . S
H471 C479 0.950 . S
H472 C477 0.950 . S
H473 C478 0.949 . S
H474 C480 0.950 . S
H475 C481 0.950 . S
H476 C482 0.949 . S
C477 H472 0.950 . S
C477 C479 1.327 . S
C477 C483 1.429 . S
C478 C470 1.574 . S
C478 H473 0.949 . S
C478 C484 1.368 . S
C479 C463 1.349 . S
C479 H471 0.950 . S
C479 C477 1.327 . S
C480 C468 1.349 . S
C480 H474 0.950 . S
C480 C481 1.327 . S
C481 H475 0.950 . S
C481 C480 1.327 . S
C481 C485 1.429 1_545 S
C482 C465 1.574 . S
C482 H476 0.949 . S
C482 C486 1.368 . S
C483 C464 1.429 . S
C483 C477 1.429 . S
C483 C484 1.523 . S
C484 C465 1.368 . S
C484 C478 1.368 . S
C484 C483 1.523 . S
C485 C469 1.429 . S
C485 C481 1.429 1_565 S
C485 C486 1.523 . S
C486 C470 1.368 . S
C486 C482 1.368 . S
C486 C485 1.523 . S
H487 C462 0.950 . S
H488 C464 0.950 . S
H489 C465 0.949 . S
H490 C467 0.950 . S
H491 C469 0.950 . S
C492 C493 1.349 . S
C492 C494 1.327 . S
C492 H517 0.950 . S
C493 C492 1.349 . S
C493 C509 1.349 1_455 S
C494 C492 1.327 . S
C494 C513 1.429 1_455 S
C494 H518 0.950 . S
C495 C512 1.574 . S
C495 C514 1.368 . S
C495 H519 0.949 . S
H496 C500 0.949 . S
C497 C498 1.349 . S
C497 C499 1.327 . S
C497 H520 0.950 . S
C498 C497 1.349 . S
C498 C510 1.349 . S
C499 C497 1.327 . S
C499 C515 1.429 . S
C499 H521 0.950 . S
C500 H496 0.949 . S
C500 C508 1.574 . S
C500 C516 1.368 . S
H501 C509 0.950 . S
H502 C507 0.950 . S
H503 C508 0.949 1_455 S
H504 C510 0.950 . S
H505 C511 0.950 . S
H506 C512 0.949 . S
C507 H502 0.950 . S
C507 C509 1.327 . S
C507 C513 1.429 . S
C508 C500 1.574 . S
C508 H503 0.949 1_655 S
C508 C514 1.368 . S
C509 C493 1.349 1_655 S
C509 H501 0.950 . S
C509 C507 1.327 . S
C510 C498 1.349 . S
C510 H504 0.950 . S
C510 C511 1.327 . S
C511 H505 0.950 . S
C511 C510 1.327 . S
C511 C515 1.429 . S
C512 C495 1.574 . S
C512 H506 0.949 . S
C512 C516 1.368 . S
C513 C494 1.429 1_655 S
C513 C507 1.429 . S
C513 C514 1.523 . S
C514 C495 1.368 . S
C514 C508 1.368 . S
C514 C513 1.523 . S
C515 C499 1.429 . S
C515 C511 1.429 . S
C515 C516 1.523 . S
C516 C500 1.368 . S
C516 C512 1.368 . S
C516 C515 1.523 . S
H517 C492 0.950 . S
H518 C494 0.950 . S
H519 C495 0.949 . S
H520 C497 0.950 . S
H521 C499 0.950 . S
C253 C63 1.314 . S
C258 C74 1.314 . S
C283 C158 1.315 . S
C288 C147 1.315 . S
C313 C242 1.315 . S
C318 C231 1.315 . S
C343 C226 1.974 . S
C348 C67 2.135 . S
C373 C154 0.857 . S
C378 C56 0.923 . S
C403 C235 2.136 . S
C408 C142 1.974 . S
C433 C224 0.921 . S
C438 C70 0.857 . S
C463 C58 1.974 . S
C468 C151 2.136 . S
C493 C238 0.857 1_455 S
C498 C140 0.921 . S
