# Generated by pormake.
# Topology uot, (4)-cn, num edge types: 1
# Building blocks:
#     Node 0, Type 0, BuildingBlock: AZAVOO_clean_sbu_0, # of connection points: 4
#     Node 1, Type 0, BuildingBlock: AZAVOO_clean_sbu_0, # of connection points: 4
#     Node 2, Type 0, BuildingBlock: AZAVOO_clean_sbu_0, # of connection points: 4
#     Node 3, Type 0, BuildingBlock: AZAVOO_clean_sbu_0, # of connection points: 4
#     Node 4, Type 0, BuildingBlock: AZAVOO_clean_sbu_0, # of connection points: 4
#     Node 5, Type 0, BuildingBlock: AZAVOO_clean_sbu_0, # of connection points: 4
#     Node 6, Type 0, BuildingBlock: AZAVOO_clean_sbu_0, # of connection points: 4
#     Node 7, Type 0, BuildingBlock: AZAVOO_clean_sbu_0, # of connection points: 4
#     Node 8, Type 0, BuildingBlock: AZAVOO_clean_sbu_0, # of connection points: 4
#     Node 9, Type 0, BuildingBlock: AZAVOO_clean_sbu_0, # of connection points: 4
#     Node 10, Type 0, BuildingBlock: AZAVOO_clean_sbu_0, # of connection points: 4
#     Node 11, Type 0, BuildingBlock: AZAVOO_clean_sbu_0, # of connection points: 4
#     Node 12, Type 0, BuildingBlock: AZAVOO_clean_sbu_0, # of connection points: 4
#     Node 13, Type 0, BuildingBlock: AZAVOO_clean_sbu_0, # of connection points: 4
#     Node 14, Type 0, BuildingBlock: AZAVOO_clean_sbu_0, # of connection points: 4
#     Node 15, Type 0, BuildingBlock: AZAVOO_clean_sbu_0, # of connection points: 4
#     Edge 16, Type (0, 0), BuildingBlock: KIFKEQ_clean_linker_1, # of connection points: 2
#     Edge 17, Type (0, 0), BuildingBlock: KIFKEQ_clean_linker_1, # of connection points: 2
#     Edge 18, Type (0, 0), BuildingBlock: KIFKEQ_clean_linker_1, # of connection points: 2
#     Edge 19, Type (0, 0), BuildingBlock: KIFKEQ_clean_linker_1, # of connection points: 2
#     Edge 20, Type (0, 0), BuildingBlock: KIFKEQ_clean_linker_1, # of connection points: 2
#     Edge 21, Type (0, 0), BuildingBlock: KIFKEQ_clean_linker_1, # of connection points: 2
#     Edge 22, Type (0, 0), BuildingBlock: KIFKEQ_clean_linker_1, # of connection points: 2
#     Edge 23, Type (0, 0), BuildingBlock: KIFKEQ_clean_linker_1, # of connection points: 2
#     Edge 24, Type (0, 0), BuildingBlock: KIFKEQ_clean_linker_1, # of connection points: 2
#     Edge 25, Type (0, 0), BuildingBlock: KIFKEQ_clean_linker_1, # of connection points: 2
#     Edge 26, Type (0, 0), BuildingBlock: KIFKEQ_clean_linker_1, # of connection points: 2
#     Edge 27, Type (0, 0), BuildingBlock: KIFKEQ_clean_linker_1, # of connection points: 2
#     Edge 28, Type (0, 0), BuildingBlock: KIFKEQ_clean_linker_1, # of connection points: 2
#     Edge 29, Type (0, 0), BuildingBlock: KIFKEQ_clean_linker_1, # of connection points: 2
#     Edge 30, Type (0, 0), BuildingBlock: KIFKEQ_clean_linker_1, # of connection points: 2
#     Edge 31, Type (0, 0), BuildingBlock: KIFKEQ_clean_linker_1, # of connection points: 2
#     Edge 32, Type (0, 0), BuildingBlock: KIFKEQ_clean_linker_1, # of connection points: 2
#     Edge 33, Type (0, 0), BuildingBlock: KIFKEQ_clean_linker_1, # of connection points: 2
#     Edge 34, Type (0, 0), BuildingBlock: KIFKEQ_clean_linker_1, # of connection points: 2
#     Edge 35, Type (0, 0), BuildingBlock: KIFKEQ_clean_linker_1, # of connection points: 2
#     Edge 36, Type (0, 0), BuildingBlock: KIFKEQ_clean_linker_1, # of connection points: 2
#     Edge 37, Type (0, 0), BuildingBlock: KIFKEQ_clean_linker_1, # of connection points: 2
#     Edge 38, Type (0, 0), BuildingBlock: KIFKEQ_clean_linker_1, # of connection points: 2
#     Edge 39, Type (0, 0), BuildingBlock: KIFKEQ_clean_linker_1, # of connection points: 2
#     Edge 40, Type (0, 0), BuildingBlock: KIFKEQ_clean_linker_1, # of connection points: 2
#     Edge 41, Type (0, 0), BuildingBlock: KIFKEQ_clean_linker_1, # of connection points: 2
#     Edge 42, Type (0, 0), BuildingBlock: KIFKEQ_clean_linker_1, # of connection points: 2
#     Edge 43, Type (0, 0), BuildingBlock: KIFKEQ_clean_linker_1, # of connection points: 2
#     Edge 44, Type (0, 0), BuildingBlock: KIFKEQ_clean_linker_1, # of connection points: 2
#     Edge 45, Type (0, 0), BuildingBlock: KIFKEQ_clean_linker_1, # of connection points: 2
#     Edge 46, Type (0, 0), BuildingBlock: KIFKEQ_clean_linker_1, # of connection points: 2
#     Edge 47, Type (0, 0), BuildingBlock: KIFKEQ_clean_linker_1, # of connection points: 2
# Relax obj value: 0.217
# Max RMSD: 0.317
# Mean RMSD: 0.231
data_MOF--net-uot--node1-AZAVOO_clean_sbu_0--edge1-KIFKEQ_clean_linker_1
_symmetry_space_group_name_H-M    P1
_symmetry_Int_Tables_number       1
_symmetry_cell_setting            triclinic
loop_
_symmetry_equiv_pos_as_xyz
'x, y, z'
_cell_length_a     49.394999
_cell_length_b     35.839603
_cell_length_c     41.314601
_cell_angle_alpha  90.002585
_cell_angle_beta   90.030924
_cell_angle_gamma 90.084435
loop_
_atom_site_label
_atom_site_type_symbol
_atom_site_fract_x
_atom_site_fract_y
_atom_site_fract_z
_atom_type_partial_charge
Mg0 Mg 0.17464 0.4461 0.32203 0.0
O1 O 0.15682 0.4928 0.29005 0.0
O2 O 0.18389 0.54218 0.29658 0.0
Mg3 Mg 0.21673 0.52862 0.33375 0.0
C4 C 0.16331 0.52653 0.28371 0.0
C5 C 0.13608 0.38236 0.32064 0.0
O6 O 0.1412 0.38939 0.35125 0.0
O7 O 0.21086 0.43549 0.28857 0.0
O8 O 0.23638 0.48538 0.30035 0.0
O9 O 0.14953 0.46545 0.36325 0.0
O10 O 0.19159 0.48381 0.35427 0.0
C11 C 0.23282 0.45425 0.28588 0.0
C12 C 0.17037 0.48471 0.37227 0.0
O13 O 0.14777 0.40199 0.29906 0.0
Mg14 Mg 0.47513 0.69416 0.6719 0.0
O15 O 0.45553 0.75162 0.67854 0.0
O16 O 0.48444 0.79684 0.66504 0.0
Mg17 Mg 0.52291 0.76748 0.6473 0.0
C18 C 0.46142 0.78613 0.67556 0.0
C19 C 0.42824 0.64862 0.70463 0.0
O20 O 0.44782 0.64114 0.72514 0.0
O21 O 0.46987 0.69673 0.6166 0.0
O22 O 0.49977 0.74194 0.60508 0.0
O23 O 0.49343 0.70071 0.72149 0.0
O24 O 0.51337 0.71737 0.67584 0.0
C25 C 0.48215 0.71786 0.59638 0.0
C26 C 0.51367 0.71633 0.70684 0.0
O27 O 0.43332 0.66858 0.6799 0.0
Mg28 Mg 0.82881 0.54535 0.32676 0.0
O29 O 0.84473 0.49472 0.29807 0.0
O30 O 0.82206 0.44536 0.31687 0.0
Mg31 Mg 0.79341 0.46347 0.35743 0.0
C32 C 0.83968 0.45973 0.29799 0.0
C33 C 0.84896 0.61882 0.30653 0.0
O34 O 0.83309 0.62419 0.33163 0.0
O35 O 0.78859 0.54675 0.29964 0.0
O36 O 0.76711 0.49887 0.32315 0.0
O37 O 0.8601 0.53711 0.36446 0.0
O38 O 0.8191 0.51247 0.36618 0.0
C39 C 0.76735 0.52696 0.30407 0.0
C40 C 0.84244 0.51691 0.37957 0.0
O41 O 0.8499 0.58645 0.29402 0.0
Mg42 Mg 0.52482 0.31545 0.68465 0.0
O43 O 0.54423 0.25778 0.69146 0.0
O44 O 0.51213 0.21396 0.69121 0.0
Mg45 Mg 0.47195 0.24338 0.68002 0.0
C46 C 0.53688 0.22375 0.69404 0.0
C47 C 0.57274 0.36753 0.7002 0.0
O48 O 0.55347 0.38067 0.7189 0.0
O49 O 0.52043 0.3058 0.62947 0.0
O50 O 0.48763 0.26271 0.63117 0.0
O51 O 0.51514 0.31535 0.73822 0.0
O52 O 0.48754 0.29574 0.69974 0.0
C53 C 0.50377 0.28369 0.61531 0.0
C54 C 0.49239 0.30016 0.72991 0.0
O55 O 0.56733 0.34043 0.68136 0.0
Mg56 Mg 0.18524 0.55478 0.66504 0.0
O57 O 0.16801 0.50483 0.69318 0.0
O58 O 0.19372 0.45572 0.68092 0.0
Mg59 Mg 0.22553 0.4737 0.64367 0.0
C60 C 0.17392 0.47034 0.69613 0.0
C61 C 0.1493 0.61948 0.67464 0.0
O62 O 0.1557 0.61852 0.64379 0.0
O63 O 0.22226 0.56016 0.69789 0.0
O64 O 0.24702 0.51213 0.68011 0.0
O65 O 0.15826 0.54147 0.62392 0.0
O66 O 0.20046 0.52136 0.62835 0.0
C67 C 0.24417 0.54117 0.69775 0.0
C68 C 0.17835 0.523 0.61189 0.0
O69 O 0.15962 0.59532 0.69353 0.0
Mg70 Mg 0.5302 0.68269 0.28733 0.0
O71 O 0.54663 0.74274 0.28624 0.0
O72 O 0.5121 0.78279 0.28485 0.0
Mg73 Mg 0.47317 0.74821 0.28993 0.0
C74 C 0.53746 0.77598 0.28447 0.0
C75 C 0.5786 0.6281 0.30044 0.0
O76 O 0.55846 0.60543 0.30719 0.0
O77 O 0.52136 0.68715 0.34219 0.0
O78 O 0.48638 0.72651 0.33913 0.0
O79 O 0.5256 0.68689 0.23328 0.0
O80 O 0.4933 0.69988 0.26851 0.0
C81 C 0.50245 0.70611 0.3556 0.0
C82 C 0.5016 0.69961 0.23914 0.0
O83 O 0.57352 0.66192 0.29352 0.0
Mg84 Mg 0.82221 0.45432 0.66883 0.0
O85 O 0.83806 0.50366 0.69947 0.0
O86 O 0.81653 0.55393 0.68069 0.0
Mg87 Mg 0.7886 0.53766 0.63873 0.0
C88 C 0.83348 0.53876 0.69997 0.0
C89 C 0.84793 0.38343 0.68391 0.0
O90 O 0.84067 0.38332 0.6533 0.0
O91 O 0.78139 0.45304 0.69448 0.0
O92 O 0.76091 0.50173 0.67118 0.0
O93 O 0.85479 0.46324 0.6329 0.0
O94 O 0.81419 0.48874 0.62983 0.0
C95 C 0.76041 0.47313 0.6897 0.0
C96 C 0.83793 0.48438 0.61752 0.0
O97 O 0.84146 0.4113 0.70132 0.0
Mg98 Mg 0.46982 0.30576 0.30037 0.0
O99 O 0.45357 0.24688 0.29121 0.0
O100 O 0.4857 0.20436 0.29953 0.0
Mg101 Mg 0.52268 0.23666 0.31832 0.0
C102 C 0.46164 0.21311 0.29126 0.0
C103 C 0.42105 0.36088 0.29007 0.0
O104 O 0.44079 0.38543 0.29148 0.0
O105 O 0.46613 0.298 0.3556 0.0
O106 O 0.4992 0.25597 0.3626 0.0
O107 O 0.48778 0.30567 0.25003 0.0
O108 O 0.50934 0.28796 0.29423 0.0
C109 C 0.48046 0.27682 0.37377 0.0
C110 C 0.50929 0.29202 0.26345 0.0
O111 O 0.42643 0.32653 0.29403 0.0
Mg112 Mg 0.68161 0.95694 0.81889 0.0
O113 O 0.66559 0.00837 0.79151 0.0
O114 O 0.68705 0.0579 0.81183 0.0
Mg115 Mg 0.71541 0.0388 0.85249 0.0
C116 C 0.66993 0.04349 0.79232 0.0
C117 C 0.63591 0.92016 0.78224 0.0
O118 O 0.62416 0.94866 0.79642 0.0
O119 O 0.72223 0.95769 0.79269 0.0
O120 O 0.74276 0.00502 0.81817 0.0
O121 O 0.64982 0.96304 0.85641 0.0
O122 O 0.69041 0.98866 0.85949 0.0
C123 C 0.74321 0.97761 0.79835 0.0
C124 C 0.66697 0.98327 0.87228 0.0
O125 O 0.66154 0.91744 0.78352 0.0
Mg126 Mg 0.97711 0.18189 0.18947 0.0
O127 O 0.95974 0.24073 0.19632 0.0
O128 O 0.99344 0.28221 0.19764 0.0
Mg129 Mg 0.03275 0.2501 0.18765 0.0
C130 C 0.9683 0.27415 0.19949 0.0
C131 C 0.9271 0.13366 0.20375 0.0
O132 O 0.94544 0.12015 0.22357 0.0
O133 O 0.98319 0.19208 0.13459 0.0
O134 O 0.01768 0.23244 0.13802 0.0
O135 O 0.9855 0.18028 0.24334 0.0
O136 O 0.01471 0.1987 0.20619 0.0
C137 C 1.00115 0.21295 0.12131 0.0
C138 C 0.00898 0.19395 0.2361 0.0
O139 O 0.93384 0.15978 0.18449 0.0
Mg140 Mg 0.32516 0.05097 0.81923 0.0
O141 O 0.34156 0.00369 0.78678 0.0
O142 O 0.31775 0.95271 0.79956 0.0
Mg143 Mg 0.28895 0.96581 0.84133 0.0
C144 C 0.33594 0.96916 0.78287 0.0
C145 C 0.37263 0.09318 0.78996 0.0
O146 O 0.38405 0.06207 0.79971 0.0
O147 O 0.28542 0.05551 0.79102 0.0
O148 O 0.26359 0.0051 0.80957 0.0
O149 O 0.35555 0.03807 0.85693 0.0
O150 O 0.31463 0.01327 0.8551 0.0
C151 C 0.26417 0.03519 0.79296 0.0
C152 C 0.33772 0.0159 0.86941 0.0
O153 O 0.34697 0.09583 0.79073 0.0
Mg154 Mg 0.02669 0.81292 0.19756 0.0
O155 O 0.04321 0.75351 0.20008 0.0
O156 O 0.01018 0.71212 0.19211 0.0
Mg157 Mg 0.97129 0.74632 0.18373 0.0
C158 C 0.03494 0.71989 0.19797 0.0
C159 C 0.07658 0.86763 0.19235 0.0
O160 O 0.05749 0.891 0.18348 0.0
O161 O 0.0237 0.81031 0.14176 0.0
O162 O 0.98793 0.77213 0.13745 0.0
O163 O 0.01556 0.80802 0.25025 0.0
O164 O 0.98822 0.79451 0.20948 0.0
C165 C 0.0057 0.7935 0.12476 0.0
C166 C 0.99248 0.79558 0.24003 0.0
O167 O 0.07037 0.8339 0.19825 0.0
Mg168 Mg 0.67715 0.04994 0.16187 0.0
O169 O 0.66106 1.00022 0.19199 0.0
O170 O 0.68401 0.95056 0.17437 0.0
Mg171 Mg 0.71291 0.96729 0.13363 0.0
C172 C 0.66624 0.96526 0.19283 0.0
C173 C 0.64853 0.11935 0.17466 0.0
O174 O 0.65551 0.11833 0.14398 0.0
O175 O 0.71726 0.05256 0.18932 0.0
O176 O 0.73887 0.00401 0.16728 0.0
O177 O 0.64586 0.03969 0.12444 0.0
O178 O 0.68691 0.0154 0.12352 0.0
C179 C 0.73854 0.03273 0.18565 0.0
C180 C 0.66353 0.0189 0.11006 0.0
O181 O 0.65614 0.09287 0.19306 0.0
Mg182 Mg 0.03002 0.19546 0.80596 0.0
O183 O 0.04924 0.25243 0.79548 0.0
O184 O 0.02086 0.29829 0.8086 0.0
Mg185 Mg 0.98255 0.27002 0.82833 0.0
C186 C 0.04353 0.28704 0.79753 0.0
C187 C 0.07702 0.13583 0.80338 0.0
O188 O 0.05842 0.11479 0.81694 0.0
O189 O 0.03681 0.20207 0.86091 0.0
O190 O 0.00638 0.24699 0.87091 0.0
O191 O 0.00946 0.19736 0.75712 0.0
O192 O 0.9916 0.2178 0.80276 0.0
C193 C 0.02443 0.224 0.8804 0.0
C194 C 0.98957 0.21333 0.77211 0.0
O195 O 0.07152 0.16961 0.79684 0.0
Mg196 Mg 0.32749 0.93674 0.16093 0.0
O197 O 0.3432 0.9902 0.18563 0.0
O198 O 0.31982 0.03807 0.16553 0.0
Mg199 Mg 0.28951 0.01587 0.12832 0.0
C200 C 0.33811 0.02507 0.1842 0.0
C201 C 0.37778 0.90655 0.19132 0.0
O202 O 0.3855 0.93711 0.17638 0.0
O203 O 0.28864 0.93618 0.19115 0.0
O204 O 0.26614 0.98271 0.16693 0.0
O205 O 0.35627 0.94353 0.12021 0.0
O206 O 0.31485 0.96646 0.12033 0.0
C207 C 0.26734 0.95603 0.18744 0.0
C208 C 0.33757 0.96216 0.10557 0.0
O209 O 0.35255 0.90022 0.19444 0.0
Mg210 Mg 0.9756 0.81049 0.80901 0.0
O211 O 0.95607 0.75267 0.80425 0.0
O212 O 0.98713 0.70864 0.8127 0.0
Mg213 Mg 0.02691 0.73872 0.82544 0.0
C214 C 0.96297 0.71843 0.80579 0.0
C215 C 0.92857 0.8697 0.81304 0.0
O216 O 0.94791 0.88985 0.82616 0.0
O217 O 0.97549 0.80667 0.8649 0.0
O218 O 0.00894 0.76508 0.87067 0.0
O219 O 0.99003 0.80615 0.75714 0.0
O220 O 0.01363 0.78889 0.79994 0.0
C221 C 0.99175 0.78776 0.88269 0.0
C222 C 0.01179 0.79155 0.76914 0.0
O223 O 0.93346 0.83614 0.80507 0.0
H224 H 0.24704 0.38105 0.28914 0.0
H225 H 0.27431 0.48789 0.25371 0.0
H226 H 0.29279 0.35677 0.28464 0.0
H227 H 0.3199 0.46317 0.24724 0.0
H228 H 0.40031 0.43117 0.2942 0.0
H229 H 0.35407 0.451 0.28442 0.0
H230 H 0.33222 0.33798 0.25838 0.0
H231 H 0.37839 0.31793 0.26986 0.0
C232 C 0.26258 0.39881 0.27887 0.0
C233 C 0.25718 0.43646 0.27208 0.0
C234 C 0.28898 0.38493 0.27637 0.0
C235 C 0.31041 0.40829 0.26647 0.0
C236 C 0.3042 0.44473 0.25613 0.0
C237 C 0.27796 0.45879 0.25929 0.0
C238 C 0.38565 0.41058 0.2863 0.0
C239 C 0.39297 0.37296 0.2831 0.0
C240 C 0.35909 0.42201 0.28027 0.0
C241 C 0.33918 0.39621 0.27032 0.0
C242 C 0.34676 0.35862 0.26641 0.0
C243 C 0.37328 0.3471 0.27294 0.0
H244 H 0.38167 0.66978 0.67419 0.0
H245 H 0.41191 0.59594 0.74853 0.0
H246 H 0.33614 0.64547 0.68252 0.0
H247 H 0.36613 0.57154 0.75681 0.0
H248 H 0.29073 0.50446 0.71358 0.0
H249 H 0.33503 0.53268 0.72225 0.0
H250 H 0.29841 0.64197 0.72335 0.0
H251 H 0.25397 0.6138 0.71458 0.0
C252 C 0.37858 0.6485 0.69244 0.0
C253 C 0.40046 0.63457 0.7105 0.0
C254 C 0.35242 0.63488 0.69748 0.0
C255 C 0.34753 0.60676 0.72048 0.0
C256 C 0.36932 0.59318 0.73891 0.0
C257 C 0.3955 0.60715 0.73413 0.0
C258 C 0.29197 0.53443 0.71671 0.0
C259 C 0.26887 0.55691 0.7129 0.0
C260 C 0.31739 0.5506 0.72173 0.0
C261 C 0.32023 0.58958 0.72282 0.0
C262 C 0.29683 0.61186 0.72205 0.0
C263 C 0.27134 0.59566 0.71737 0.0
H264 H 0.62139 0.6595 0.26854 0.0
H265 H 0.59887 0.56367 0.32588 0.0
H266 H 0.66669 0.63404 0.26162 0.0
H267 H 0.6445 0.53905 0.32058 0.0
H268 H 0.7215 0.48669 0.29184 0.0
H269 H 0.67572 0.51098 0.28625 0.0
H270 H 0.70739 0.62355 0.28817 0.0
H271 H 0.75309 0.59906 0.29186 0.0
C272 C 0.62625 0.63319 0.28004 0.0
C273 C 0.60658 0.61363 0.29785 0.0
C274 C 0.65229 0.61856 0.27612 0.0
C275 C 0.65945 0.58428 0.29036 0.0
C276 C 0.63971 0.56501 0.30848 0.0
C277 C 0.61356 0.57933 0.31191 0.0
C278 C 0.71867 0.5166 0.29006 0.0
C279 C 0.74089 0.54094 0.29243 0.0
C280 C 0.69237 0.53061 0.28737 0.0
C281 C 0.6876 0.56934 0.28768 0.0
C282 C 0.71007 0.59359 0.2877 0.0
C283 C 0.73642 0.57952 0.28976 0.0
H284 H 0.58916 0.43005 0.73261 0.0
H285 H 0.61914 0.34034 0.67269 0.0
H286 H 0.63484 0.45569 0.73655 0.0
H287 H 0.66481 0.36614 0.6766 0.0
H288 H 0.74717 0.40307 0.71102 0.0
H289 H 0.70172 0.37727 0.71732 0.0
H290 H 0.66746 0.48592 0.69868 0.0
H291 H 0.71279 0.51184 0.69248 0.0
C292 C 0.60548 0.41577 0.72029 0.0
C293 C 0.60047 0.38322 0.7022 0.0
C294 C 0.63164 0.43052 0.72255 0.0
C295 C 0.65344 0.41285 0.70705 0.0
C296 C 0.64849 0.38009 0.68922 0.0
C297 C 0.62228 0.36552 0.68671 0.0
C298 C 0.73 0.42171 0.70911 0.0
C299 C 0.73365 0.4595 0.70098 0.0
C300 C 0.70395 0.40679 0.71235 0.0
C301 C 0.68102 0.42944 0.70797 0.0
C302 C 0.68471 0.46775 0.70223 0.0
C303 C 0.71072 0.48259 0.69865 0.0
H304 H 0.75744 0.90632 0.78277 0.0
H305 H 0.78999 0.01772 0.79172 0.0
H306 H 0.80297 0.88105 0.78209 0.0
H307 H 0.83576 0.99269 0.78932 0.0
H308 H 0.90741 0.93415 0.83746 0.0
H309 H 0.86333 0.96135 0.82637 0.0
H310 H 0.84571 0.87139 0.75977 0.0
H311 H 0.88936 0.8433 0.77224 0.0
C312 C 0.77435 0.92559 0.78325 0.0
C313 C 0.77007 0.96401 0.78772 0.0
C314 C 0.80061 0.91105 0.78292 0.0
C315 C 0.82323 0.93468 0.7865 0.0
C316 C 0.81889 0.97347 0.78767 0.0
C317 C 0.79262 0.98793 0.78856 0.0
C318 C 0.89411 0.9202 0.82046 0.0
C319 C 0.9018 0.88642 0.80597 0.0
C320 C 0.86888 0.93603 0.81374 0.0
C321 C 0.85081 0.9188 0.79193 0.0
C322 C 0.8588 0.88527 0.77702 0.0
C323 C 0.88389 0.86915 0.78414 0.0
H324 H 0.75155 0.10373 0.20479 0.0
H325 H 0.7854 0.99341 0.19334 0.0
H326 H 0.79699 0.12902 0.21303 0.0
H327 H 0.83068 0.01873 0.20143 0.0
H328 H 0.90808 0.07376 0.23768 0.0
H329 H 0.86183 0.05 0.23993 0.0
H330 H 0.83604 0.13728 0.17486 0.0
H331 H 0.88233 0.16128 0.17269 0.0
C332 C 0.76856 0.08471 0.20488 0.0
C333 C 0.76484 0.04656 0.19818 0.0
C334 C 0.79462 0.09929 0.20922 0.0
C335 C 0.81744 0.07596 0.20739 0.0
C336 C 0.81353 0.03744 0.20304 0.0
C337 C 0.78755 0.02293 0.19838 0.0
C338 C 0.89256 0.08798 0.22388 0.0
C339 C 0.89894 0.11931 0.20484 0.0
C340 C 0.86606 0.0743 0.22518 0.0
C341 C 0.84526 0.09183 0.20769 0.0
C342 C 0.85155 0.12348 0.18898 0.0
C343 C 0.87812 0.137 0.18747 0.0
H344 H 0.11716 0.16807 0.76717 0.0
H345 H 0.09816 0.06884 0.82204 0.0
H346 H 0.16201 0.14321 0.75535 0.0
H347 H 0.14318 0.04463 0.81136 0.0
H348 H 0.21898 0.9956 0.77667 0.0
H349 H 0.17303 0.01964 0.77243 0.0
H350 H 0.20373 0.13215 0.7818 0.0
H351 H 0.24969 0.10808 0.78462 0.0
C352 C 0.12258 0.14096 0.77677 0.0
C353 C 0.10411 0.12049 0.79568 0.0
C354 C 0.14834 0.12674 0.77005 0.0
C355 C 0.15634 0.09182 0.78229 0.0
C356 C 0.13765 0.07123 0.80087 0.0
C357 C 0.11184 0.08529 0.80733 0.0
C358 C 0.21595 0.02553 0.77681 0.0
C359 C 0.23794 0.04991 0.78131 0.0
C360 C 0.18956 0.03933 0.77479 0.0
C361 C 0.1845 0.0778 0.77773 0.0
C362 C 0.20675 0.10237 0.7794 0.0
C363 C 0.23321 0.08856 0.78095 0.0
H364 H 0.25126 0.88473 0.19988 0.0
H365 H 0.22439 0.99906 0.20509 0.0
H366 H 0.20478 0.8634 0.20572 0.0
H367 H 0.17795 0.97793 0.21279 0.0
H368 H 0.09915 0.93248 0.17063 0.0
H369 H 0.14547 0.95391 0.17747 0.0
H370 H 0.16383 0.85485 0.23307 0.0
H371 H 0.11768 0.83266 0.22476 0.0
C372 C 0.23554 0.90529 0.20375 0.0
C373 C 0.24142 0.94356 0.20171 0.0
C374 C 0.20875 0.89307 0.20701 0.0
C375 C 0.18733 0.91892 0.20884 0.0
C376 C 0.19372 0.95718 0.21025 0.0
C377 C 0.22041 0.96936 0.20637 0.0
C378 C 0.11307 0.9153 0.18433 0.0
C379 C 0.10477 0.88077 0.19692 0.0
C380 C 0.13965 0.92778 0.18863 0.0
C381 C 0.15857 0.90633 0.20611 0.0
C382 C 0.15006 0.87198 0.21914 0.0
C383 C 0.12354 0.85925 0.21442 0.0
H384 H 0.10865 0.51894 0.27483 0.0
H385 H 0.17694 0.58721 0.24745 0.0
H386 H 0.078 0.56376 0.24978 0.0
H387 H 0.14662 0.63101 0.2209 0.0
H388 H 0.028 0.64414 0.18984 0.0
H389 H 0.05958 0.59444 0.20431 0.0
H390 H 0.11691 0.6772 0.23776 0.0
H391 H 0.08612 0.72636 0.2221 0.0
C392 C 0.11716 0.54301 0.26264 0.0
C393 C 0.14518 0.54978 0.26346 0.0
C394 C 0.09957 0.56875 0.24815 0.0
C395 C 0.10968 0.60156 0.23372 0.0
C396 C 0.13793 0.60678 0.23262 0.0
C397 C 0.1554 0.58146 0.24759 0.0
C398 C 0.04751 0.65165 0.19993 0.0
C399 C 0.05447 0.68932 0.20475 0.0
C400 C 0.06559 0.62311 0.20844 0.0
C401 C 0.09096 0.63157 0.22224 0.0
C402 C 0.09793 0.66934 0.22655 0.0
C403 C 0.08007 0.69773 0.21775 0.0
H404 H 0.50909 0.75318 0.76476 0.0
H405 H 0.56442 0.73012 0.68642 0.0
H406 H 0.54048 0.80053 0.78561 0.0
H407 H 0.59529 0.77746 0.7066 0.0
H408 H 0.6533 0.85153 0.76211 0.0
H409 H 0.6255 0.79719 0.74947 0.0
H410 H 0.5532 0.86256 0.76477 0.0
H411 H 0.58091 0.91666 0.77802 0.0
C412 C 0.52824 0.75755 0.75257 0.0
C413 C 0.53434 0.73832 0.72394 0.0
C414 C 0.54603 0.7849 0.76419 0.0
C415 C 0.57016 0.79305 0.74744 0.0
C416 C 0.57698 0.77177 0.72016 0.0
C417 C 0.55924 0.74473 0.70853 0.0
C418 C 0.63148 0.85439 0.76251 0.0
C419 C 0.61931 0.88844 0.77095 0.0
C420 C 0.61556 0.82321 0.75543 0.0
C421 C 0.58716 0.82548 0.75654 0.0
C422 C 0.57502 0.85969 0.76447 0.0
C423 C 0.59092 0.89083 0.77159 0.0
H424 H 0.91296 0.27066 0.19692 0.0
H425 H 0.97885 0.34511 0.22099 0.0
H426 H 0.88058 0.31727 0.21511 0.0
H427 H 0.94649 0.39127 0.24018 0.0
H428 H 0.88137 0.47773 0.25658 0.0
H429 H 0.91122 0.43491 0.22765 0.0
H430 H 0.86603 0.34133 0.26562 0.0
H431 H 0.83591 0.38381 0.29352 0.0
C432 C 0.92057 0.29703 0.20597 0.0
C433 C 0.94857 0.30395 0.2077 0.0
C434 C 0.90197 0.32374 0.21659 0.0
C435 C 0.91085 0.35798 0.22951 0.0
C436 C 0.93883 0.36545 0.23009 0.0
C437 C 0.95745 0.33882 0.21922 0.0
C438 C 0.87757 0.44803 0.25835 0.0
C439 C 0.85624 0.43432 0.27756 0.0
C440 C 0.89483 0.42343 0.24195 0.0
C441 C 0.8912 0.38456 0.24437 0.0
C442 C 0.86931 0.37102 0.26272 0.0
C443 C 0.85206 0.39551 0.27898 0.0
H444 H 0.43835 0.30368 0.73072 0.0
H445 H 0.50626 0.25087 0.77749 0.0
H446 H 0.40845 0.25526 0.7505 0.0
H447 H 0.47606 0.2024 0.7987 0.0
H448 H 0.42659 0.09589 0.77651 0.0
H449 H 0.45514 0.15107 0.77178 0.0
H450 H 0.38566 0.2212 0.79023 0.0
H451 H 0.35699 0.16605 0.79334 0.0
C452 C 0.44656 0.2826 0.74676 0.0
C453 C 0.47447 0.2809 0.75269 0.0
C454 C 0.42943 0.25465 0.75807 0.0
C455 C 0.43989 0.22437 0.77566 0.0
C456 C 0.46747 0.2249 0.78455 0.0
C457 C 0.48469 0.25302 0.77307 0.0
C458 C 0.41743 0.12315 0.77927 0.0
C459 C 0.3895 0.12667 0.78477 0.0
C460 C 0.43386 0.1548 0.77714 0.0
C461 C 0.4228 0.1907 0.78094 0.0
C462 C 0.39485 0.19408 0.7868 0.0
C463 C 0.37836 0.16246 0.78842 0.0
H464 H 0.18598 0.40196 0.72156 0.0
H465 H 0.12155 0.48289 0.71477 0.0
H466 H 0.1557 0.35914 0.74949 0.0
H467 H 0.0908 0.43944 0.74128 0.0
H468 H 0.04482 0.36252 0.80881 0.0
H469 H 0.07749 0.40788 0.78844 0.0
H470 H 0.11947 0.31964 0.73781 0.0
H471 H 0.08766 0.27438 0.75933 0.0
C472 C 0.16532 0.41062 0.72607 0.0
C473 C 0.15617 0.44578 0.71579 0.0
C474 C 0.14783 0.38591 0.74187 0.0
C475 C 0.12056 0.39542 0.74734 0.0
C476 C 0.11167 0.43113 0.73791 0.0
C477 C 0.12931 0.45609 0.72254 0.0
C478 C 0.06114 0.35284 0.79348 0.0
C479 C 0.0636 0.31478 0.78575 0.0
C480 C 0.07983 0.3789 0.78162 0.0
C481 C 0.10126 0.36763 0.76139 0.0
C482 C 0.10368 0.32947 0.75383 0.0
C483 C 0.08524 0.30342 0.76602 0.0
H484 H 0.42833 0.90148 0.16567 0.0
H485 H 0.37175 0.84274 0.22705 0.0
H486 H 0.4588 0.84853 0.16724 0.0
H487 H 0.403 0.79037 0.23029 0.0
H488 H 0.45071 0.68977 0.21736 0.0
H489 H 0.42069 0.74026 0.201 0.0
H490 H 0.48906 0.81591 0.19964 0.0
H491 H 0.51899 0.76456 0.2136 0.0
C492 C 0.42263 0.8775 0.1801 0.0
C493 C 0.39761 0.87629 0.19632 0.0
C494 C 0.44016 0.84703 0.18094 0.0
C495 C 0.43333 0.81481 0.1985 0.0
C496 C 0.40864 0.81418 0.21563 0.0
C497 C 0.39086 0.84443 0.21428 0.0
C498 C 0.45937 0.71677 0.21164 0.0
C499 C 0.48706 0.72338 0.2163 0.0
C500 C 0.44215 0.74598 0.20315 0.0
C501 C 0.45224 0.78255 0.20014 0.0
C502 C 0.48045 0.78822 0.20166 0.0
C503 C 0.49775 0.7587 0.20935 0.0
H504 H 0.87234 0.51884 0.74463 0.0
H505 H 0.8323 0.61487 0.70337 0.0
H506 H 0.90202 0.56023 0.7755 0.0
H507 H 0.86235 0.65585 0.73301 0.0
H508 H 0.90791 0.72564 0.80319 0.0
H509 H 0.87499 0.68052 0.78337 0.0
H510 H 0.93931 0.60112 0.76687 0.0
H511 H 0.97207 0.64581 0.78799 0.0
C512 C 0.8697 0.54871 0.74229 0.0
C513 C 0.8499 0.5634 0.72138 0.0
C514 C 0.88689 0.57249 0.75981 0.0
C515 C 0.88477 0.61153 0.75676 0.0
C516 C 0.86442 0.62606 0.73654 0.0
C517 C 0.8472 0.60239 0.71926 0.0
C518 C 0.915 0.69838 0.79571 0.0
C519 C 0.94269 0.6895 0.79695 0.0
C520 C 0.89611 0.67252 0.78412 0.0
C521 C 0.90442 0.63721 0.77299 0.0
C522 C 0.93202 0.6278 0.77548 0.0
C523 C 0.95089 0.65356 0.78747 0.0
H524 H 0.63117 0.13199 0.23657 0.0
H525 H 0.62419 0.1735 0.13866 0.0
H526 H 0.59886 0.17902 0.25462 0.0
H527 H 0.59199 0.22055 0.15683 0.0
H528 H 0.50839 0.26034 0.20283 0.0
H529 H 0.54422 0.22145 0.17925 0.0
H530 H 0.59647 0.24813 0.25989 0.0
H531 H 0.56093 0.28637 0.28332 0.0
C532 C 0.62294 0.15132 0.21898 0.0
C533 C 0.63026 0.14905 0.18625 0.0
C534 C 0.60453 0.17833 0.2293 0.0
C535 C 0.59299 0.20347 0.20707 0.0
C536 C 0.60044 0.20138 0.17439 0.0
C537 C 0.61901 0.17456 0.16411 0.0
C538 C 0.52781 0.25863 0.2149 0.0
C539 C 0.53187 0.2759 0.24499 0.0
C540 C 0.54825 0.23633 0.20155 0.0
C541 C 0.57288 0.23121 0.21818 0.0
C542 C 0.57748 0.25087 0.24698 0.0
C543 C 0.5572 0.27294 0.26023 0.0
H544 H 0.67122 0.11978 0.79031 0.0
H545 H 0.62975 0.02467 0.74914 0.0
H546 H 0.64018 0.16143 0.76275 0.0
H547 H 0.59904 0.06665 0.72062 0.0
H548 H 0.52851 0.15162 0.71384 0.0
H549 H 0.56207 0.10726 0.73328 0.0
H550 H 0.6257 0.18659 0.71252 0.0
H551 H 0.59207 0.23138 0.69404 0.0
C552 C 0.65577 0.10768 0.77492 0.0
C553 C 0.65296 0.06874 0.77219 0.0
C554 C 0.63799 0.1317 0.75888 0.0
C555 C 0.61694 0.11752 0.73947 0.0
C556 C 0.61472 0.07858 0.73576 0.0
C557 C 0.63249 0.05449 0.75194 0.0
C558 C 0.54968 0.15949 0.71308 0.0
C559 C 0.55751 0.19526 0.70262 0.0
C560 C 0.569 0.1339 0.72409 0.0
C561 C 0.59667 0.14333 0.72475 0.0
C562 C 0.60456 0.17858 0.71302 0.0
C563 C 0.58524 0.20424 0.70223 0.0
H564 H 0.12798 0.35072 0.26125 0.0
H565 H 0.10143 0.34544 0.36083 0.0
H566 H 0.09737 0.29948 0.24777 0.0
H567 H 0.07073 0.29423 0.34718 0.0
H568 H 0.99623 0.24104 0.28585 0.0
H569 H 0.02802 0.28521 0.3109 0.0
H570 H 0.09451 0.23049 0.26254 0.0
H571 H 0.0629 0.18686 0.23762 0.0
C572 C 0.11562 0.33866 0.28021 0.0
C573 C 0.1172 0.35197 0.31207 0.0
C574 C 0.09826 0.30918 0.27259 0.0
C575 C 0.08196 0.2927 0.29659 0.0
C576 C 0.08313 0.30642 0.32831 0.0
C577 C 0.10075 0.33563 0.33604 0.0
C578 C 0.01775 0.23748 0.28194 0.0
C579 C 0.02726 0.21071 0.25997 0.0
C580 C 0.0359 0.2629 0.29594 0.0
C581 C 0.06358 0.26166 0.28794 0.0
C582 C 0.0732 0.23247 0.26854 0.0
C583 C 0.05519 0.20726 0.25465 0.0
H584 H 0.38802 0.98166 0.7629 0.0
H585 H 0.32138 0.90445 0.75285 0.0
H586 H 0.41731 0.93871 0.73352 0.0
H587 H 0.35011 0.86235 0.72209 0.0
H588 H 0.41584 0.7745 0.71152 0.0
H589 H 0.38494 0.82059 0.73314 0.0
H590 H 0.43007 0.90818 0.6854 0.0
H591 H 0.46188 0.86183 0.66485 0.0
C592 C 0.37945 0.95593 0.75367 0.0
C593 C 0.35247 0.94626 0.76051 0.0
C594 C 0.39623 0.93126 0.73669 0.0
C595 C 0.38629 0.8966 0.72575 0.0
C596 C 0.35878 0.88818 0.73091 0.0
C597 C 0.34219 0.9125 0.74833 0.0
C598 C 0.41912 0.80354 0.70536 0.0
C599 C 0.44144 0.81439 0.68648 0.0
C600 C 0.40119 0.83011 0.71762 0.0
C601 C 0.4048 0.86834 0.71101 0.0
C602 C 0.4268 0.87913 0.69145 0.0
C603 C 0.44498 0.8525 0.67947 0.0
H604 H 0.89515 0.61009 0.27096 0.0
H605 H 0.84868 0.69221 0.3236 0.0
H606 H 0.93098 0.65608 0.26247 0.0
H607 H 0.88455 0.73813 0.31498 0.0
H608 H 0.9399 0.81259 0.24622 0.0
H609 H 0.90442 0.7709 0.26587 0.0
H610 H 0.96531 0.69241 0.29723 0.0
H611 H 1.0009 0.7347 0.27776 0.0
C612 C 0.89245 0.63804 0.2804 0.0
C613 C 0.86906 0.6476 0.29784 0.0
C614 C 0.91314 0.66415 0.27599 0.0
C615 C 0.91068 0.70039 0.28859 0.0
C616 C 0.88698 0.71029 0.30521 0.0
C617 C 0.86644 0.68407 0.30997 0.0
C618 C 0.94563 0.78717 0.25866 0.0
C619 C 0.97294 0.77693 0.26109 0.0
C620 C 0.92539 0.76324 0.26969 0.0
C621 C 0.93217 0.72831 0.28267 0.0
C622 C 0.95962 0.71912 0.28704 0.0
C623 C 0.97994 0.74345 0.27645 0.0
H624 H 0.67188 0.89 0.2007 0.0
H625 H 0.6224 0.98297 0.23111 0.0
H626 H 0.64152 0.8472 0.22785 0.0
H627 H 0.59221 0.93982 0.25938 0.0
H628 H 0.52642 0.84633 0.26213 0.0
H629 H 0.55871 0.89402 0.24549 0.0
H630 H 0.62466 0.824 0.27748 0.0
H631 H 0.5924 0.77583 0.2931 0.0
C632 C 0.65478 0.90148 0.2137 0.0
C633 C 0.64956 0.94006 0.21341 0.0
C634 C 0.63737 0.87679 0.22956 0.0
C635 C 0.61425 0.88989 0.24583 0.0
C636 C 0.60959 0.92865 0.24672 0.0
C637 C 0.62704 0.95345 0.23071 0.0
C638 C 0.54779 0.84133 0.2661 0.0
C639 C 0.5568 0.80705 0.27868 0.0
C640 C 0.56636 0.86882 0.25666 0.0
C641 C 0.5944 0.86283 0.25978 0.0
C642 C 0.60328 0.82932 0.27402 0.0
C643 C 0.58475 0.80172 0.28317 0.0
H644 H 0.86875 0.32461 0.65029 0.0
H645 H 0.86808 0.37557 0.74516 0.0
H646 H 0.90128 0.27838 0.66926 0.0
H647 H 0.90076 0.32954 0.76394 0.0
H648 H 0.94016 0.22517 0.79732 0.0
H649 H 0.90364 0.2622 0.77469 0.0
H650 H 0.94987 0.27774 0.68695 0.0
H651 H 0.98662 0.2398 0.70968 0.0
C652 C 0.87537 0.32579 0.67527 0.0
C653 C 0.86585 0.35376 0.69629 0.0
C654 C 0.89413 0.29944 0.68599 0.0
C655 C 0.90354 0.30037 0.718 0.0
C656 C 0.89359 0.32786 0.7392 0.0
C657 C 0.87494 0.3543 0.72845 0.0
C658 C 0.9424 0.23604 0.77299 0.0
C659 C 0.96632 0.23013 0.75535 0.0
C660 C 0.92154 0.25738 0.76014 0.0
C661 C 0.92415 0.27346 0.72938 0.0
C662 C 0.94735 0.2656 0.71077 0.0
C663 C 0.96833 0.24394 0.72368 0.0
H664 H 0.47352 0.14126 0.2733 0.0
H665 H 0.40685 0.21829 0.28339 0.0
H666 H 0.44288 0.09505 0.25008 0.0
H667 H 0.37611 0.17177 0.26132 0.0
H668 H 0.33714 0.10129 0.18212 0.0
H669 H 0.36631 0.14488 0.21045 0.0
H670 H 0.40595 0.05305 0.25887 0.0
H671 H 0.37721 0.0091 0.22952 0.0
C672 C 0.45226 0.14813 0.27105 0.0
C673 C 0.44272 0.18364 0.27994 0.0
C674 C 0.43462 0.12153 0.25786 0.0
C675 C 0.40698 0.12969 0.2535 0.0
C676 C 0.39734 0.16473 0.26359 0.0
C677 C 0.41498 0.1914 0.27646 0.0
C678 C 0.35192 0.09027 0.19895 0.0
C679 C 0.35479 0.05158 0.20343 0.0
C680 C 0.36861 0.11539 0.21543 0.0
C681 C 0.38853 0.10262 0.23709 0.0
C682 C 0.39109 0.06392 0.24206 0.0
C683 C 0.37447 0.0387 0.22538 0.0
H684 H 0.12023 0.66915 0.63866 0.0
H685 H 0.13367 0.63238 0.73704 0.0
H686 H 0.08737 0.71489 0.65788 0.0
H687 H 0.1007 0.67789 0.75609 0.0
H688 H 0.0644 0.78629 0.78443 0.0
H689 H 0.09835 0.74702 0.75911 0.0
H690 H 0.04101 0.71636 0.68469 0.0
H691 H 0.00675 0.7565 0.71015 0.0
C692 C 0.11622 0.67086 0.66439 0.0
C693 C 0.12965 0.64731 0.68642 0.0
C694 C 0.09729 0.69689 0.67528 0.0
C695 C 0.09165 0.70007 0.70841 0.0
C696 C 0.10499 0.67641 0.73041 0.0
C697 C 0.12378 0.65025 0.71952 0.0
C698 C 0.05916 0.7717 0.76231 0.0
C699 C 0.03294 0.774 0.74936 0.0
C700 C 0.07854 0.74904 0.74799 0.0
C701 C 0.07209 0.72801 0.72044 0.0
C702 C 0.04643 0.73228 0.70602 0.0
C703 C 0.02691 0.75526 0.72043 0.0
H704 H 0.1362 0.496 0.57616 0.0
H705 H 0.21977 0.53036 0.57024 0.0
H706 H 0.13468 0.48921 0.51744 0.0
H707 H 0.21781 0.52765 0.51191 0.0
H708 H 0.21533 0.48731 0.40908 0.0
H709 H 0.21751 0.49331 0.46707 0.0
H710 H 0.13197 0.51999 0.46943 0.0
H711 H 0.12957 0.50997 0.41111 0.0
C712 C 0.15426 0.50181 0.56216 0.0
C713 C 0.17821 0.51301 0.57753 0.0
C714 C 0.15332 0.49874 0.52846 0.0
C715 C 0.17603 0.50829 0.50948 0.0
C716 C 0.20004 0.5191 0.52531 0.0
C717 C 0.20124 0.52071 0.55892 0.0
C718 C 0.1971 0.49522 0.42193 0.0
C719 C 0.17227 0.49825 0.4057 0.0
C720 C 0.1983 0.49874 0.45542 0.0
C721 C 0.17486 0.50682 0.47346 0.0
C722 C 0.15032 0.51251 0.45671 0.0
C723 C 0.14896 0.50758 0.4232 0.0
H724 H 0.46458 0.74443 0.38965 0.0
H725 H 0.52864 0.6634 0.40192 0.0
H726 H 0.45557 0.74292 0.44706 0.0
H727 H 0.51952 0.66246 0.46044 0.0
H728 H 0.47793 0.65271 0.56202 0.0
H729 H 0.48163 0.64614 0.50285 0.0
H730 H 0.48309 0.76615 0.49341 0.0
H731 H 0.47956 0.77255 0.55184 0.0
C732 C 0.47684 0.7262 0.40453 0.0
C733 C 0.49763 0.7043 0.39103 0.0
C734 C 0.47156 0.72538 0.43756 0.0
C735 C 0.48688 0.70273 0.4582 0.0
C736 C 0.50726 0.67998 0.44492 0.0
C737 C 0.51266 0.68082 0.41155 0.0
C738 C 0.47828 0.67753 0.54706 0.0
C739 C 0.47824 0.71314 0.5613 0.0
C740 C 0.48082 0.67379 0.51339 0.0
C741 C 0.48281 0.70563 0.49364 0.0
C742 C 0.48142 0.74111 0.50797 0.0
C743 C 0.47931 0.7448 0.54139 0.0
H744 H 0.8074 0.47981 0.41889 0.0
H745 H 0.88713 0.52982 0.41705 0.0
H746 H 0.80991 0.47535 0.47754 0.0
H747 H 0.88947 0.52535 0.47606 0.0
H748 H 0.80462 0.52294 0.57712 0.0
H749 H 0.80933 0.52869 0.51873 0.0
H750 H 0.88858 0.47838 0.52374 0.0
H751 H 0.88404 0.47266 0.58244 0.0
C752 C 0.82571 0.48909 0.4309 0.0
C753 C 0.8469 0.50565 0.41342 0.0
C754 C 0.827 0.48692 0.46449 0.0
C755 C 0.84955 0.50104 0.48119 0.0
C756 C 0.87176 0.51465 0.46365 0.0
C757 C 0.87043 0.51702 0.42993 0.0
C758 C 0.82334 0.51393 0.56597 0.0
C759 C 0.84377 0.49679 0.58428 0.0
C760 C 0.8259 0.51687 0.53252 0.0
C761 C 0.84898 0.50295 0.51683 0.0
C762 C 0.87049 0.48896 0.53534 0.0
C763 C 0.86789 0.48583 0.5689 0.0
H764 H 0.46889 0.33717 0.41238 0.0
H765 H 0.48814 0.21974 0.41518 0.0
H766 H 0.47453 0.34052 0.47148 0.0
H767 H 0.49414 0.22309 0.47334 0.0
H768 H 0.47761 0.23168 0.57938 0.0
H769 H 0.4681 0.23239 0.52208 0.0
H770 H 0.51349 0.3348 0.51183 0.0
H771 H 0.52254 0.33482 0.57037 0.0
C772 C 0.47363 0.31198 0.4257 0.0
C773 C 0.47792 0.27815 0.40931 0.0
C774 C 0.47733 0.31402 0.45935 0.0
C775 C 0.48499 0.28214 0.477 0.0
C776 C 0.48804 0.2481 0.46057 0.0
C777 C 0.48456 0.24615 0.42721 0.0
C778 C 0.48573 0.25446 0.56512 0.0
C779 C 0.50096 0.28319 0.57959 0.0
C780 C 0.48026 0.25477 0.53213 0.0
C781 C 0.49 0.28363 0.51241 0.0
C782 C 0.50544 0.3124 0.52657 0.0
C783 C 0.51096 0.31213 0.55994 0.0
H784 H 0.61866 0.02944 0.07245 0.0
H785 H 0.6984 0.97976 0.07209 0.0
H786 H 0.61623 0.02238 0.01369 0.0
H787 H 0.69577 0.9726 0.01364 0.0
H788 H 0.62133 0.96998 0.90789 0.0
H789 H 0.61712 0.97482 0.96672 0.0
H790 H 0.6966 0.02481 0.97167 0.0
H791 H 0.70098 0.01992 0.91322 0.0
C792 C 0.63533 0.01609 0.05999 0.0
C793 C 0.65893 0.00571 0.07678 0.0
C794 C 0.63392 0.01219 0.02639 0.0
C795 C 0.65613 0.99796 0.00925 0.0
C796 C 0.67868 0.98459 0.02635 0.0
C797 C 0.68006 0.98834 0.05984 0.0
C798 C 0.63764 0.98277 0.92149 0.0
C799 C 0.66165 0.99413 0.90603 0.0
C800 C 0.63523 0.98538 0.9551 0.0
C801 C 0.65685 0.9992 0.9736 0.0
C802 C 0.67995 0.0131 0.9579 0.0
C803 C 0.68231 0.01069 0.92441 0.0
H804 H 0.02357 0.28046 0.92337 0.0
H805 H 0.0317 0.1608 0.91683 0.0
H806 H 0.01824 0.27588 0.98158 0.0
H807 H 0.02668 0.15607 0.97592 0.0
H808 H 0.97889 0.16649 0.07477 0.0
H809 H 0.98862 0.16686 0.01642 0.0
H810 H 0.04297 0.26005 0.03002 0.0
H811 H 0.03289 0.26056 0.08715 0.0
C812 C 0.02497 0.2532 0.93461 0.0
C813 C 0.02822 0.22102 0.91567 0.0
C814 C 0.02184 0.25054 0.96798 0.0
C815 C 0.02182 0.21557 0.98334 0.0
C816 C 0.02629 0.18334 0.96463 0.0
C817 C 0.02965 0.18607 0.93099 0.0
C818 C 0.99267 0.18723 0.06515 0.0
C819 C 0.00492 0.21361 0.08569 0.0
C820 C 0.99854 0.18711 0.03188 0.0
C821 C 0.01662 0.21346 0.01868 0.0
C822 C 0.02876 0.23963 0.03932 0.0
C823 C 0.02293 0.23982 0.07222 0.0
H824 H 0.38217 0.02303 0.90812 0.0
H825 H 0.30237 0.97343 0.90419 0.0
H826 H 0.3843 0.01036 0.96604 0.0
H827 H 0.30478 0.96026 0.96191 0.0
H828 H 0.30023 0.99561 0.06673 0.0
H829 H 0.30299 0.00426 0.00842 0.0
H830 H 0.38471 0.96148 0.00889 0.0
H831 H 0.38218 0.95332 0.06746 0.0
C832 C 0.36541 0.00851 0.91942 0.0
C833 C 0.34191 0.99974 0.90176 0.0
C834 C 0.36664 0.00133 0.95258 0.0
C835 C 0.34441 0.98525 0.96849 0.0
C836 C 0.3219 0.97364 0.9503 0.0
C837 C 0.32066 0.98079 0.9172 0.0
C838 C 0.31896 0.98866 0.05453 0.0
C839 C 0.34092 0.97358 0.07161 0.0
C840 C 0.32041 0.99314 0.0211 0.0
C841 C 0.34383 0.98266 0.00414 0.0
C842 C 0.36637 0.96957 0.0214 0.0
C843 C 0.36491 0.96501 0.0549 0.0
H844 H 0.95505 0.82351 0.92257 0.0
H845 H 0.03224 0.76669 0.92314 0.0
H846 H 0.95876 0.83242 0.98138 0.0
H847 H 0.03577 0.77559 0.98098 0.0
H848 H 0.04496 0.81898 0.08271 0.0
H849 H 0.04119 0.82458 0.02365 0.0
H850 H 0.95791 0.78818 0.02854 0.0
H851 H 0.96153 0.78272 0.08687 0.0
C852 C 0.97274 0.81306 0.9351 0.0
C853 C 0.99311 0.79397 0.91815 0.0
C854 C 0.97492 0.81822 0.96868 0.0
C855 C 0.99769 0.80492 0.9857 0.0
C856 C 0.01823 0.7867 0.96855 0.0
C857 C 0.01593 0.78116 0.93533 0.0
C858 C 0.02583 0.81258 0.07113 0.0
C859 C 0.00375 0.79978 0.08941 0.0
C860 C 0.02365 0.81575 0.0374 0.0
C861 C 0.99923 0.80675 0.02152 0.0
C862 C 0.97687 0.79569 0.04004 0.0
C863 C 0.97913 0.7921 0.0735 0.0
loop_
_geom_bond_atom_site_label_1
_geom_bond_atom_site_label_2
_geom_bond_distance
_geom_bond_site_symmetry_2
_ccdc_geom_bond_type
Mg0 O1 2.028 . S
Mg0 O7 1.986 . S
Mg0 O9 2.114 . S
Mg0 O10 2.251 . S
Mg0 O13 2.010 . S
O1 Mg0 2.028 . S
O1 C4 1.250 . S
O2 Mg3 2.028 . S
O2 C4 1.248 . S
Mg3 O2 2.028 . S
Mg3 O8 2.032 . S
Mg3 O10 2.079 . S
C4 O1 1.250 . S
C4 O2 1.248 . S
C5 O6 1.264 . S
C5 O13 1.249 . S
O6 C5 1.264 . S
O7 Mg0 1.986 . S
O7 C11 1.246 . S
O8 Mg3 2.032 . S
O8 C11 1.259 . S
O9 Mg0 2.114 . S
O9 C12 1.252 . S
O10 Mg0 2.251 . S
O10 Mg3 2.079 . S
O10 C12 1.273 . S
C11 O7 1.246 . S
C11 O8 1.259 . S
C12 O9 1.252 . S
C12 O10 1.273 . S
O13 Mg0 2.010 . S
O13 C5 1.249 . S
Mg14 O15 2.028 . S
Mg14 O21 1.986 . S
Mg14 O23 2.114 . S
Mg14 O24 2.251 . S
Mg14 O27 2.010 . S
O15 Mg14 2.028 . S
O15 C18 1.250 . S
O16 Mg17 2.028 . S
O16 C18 1.248 . S
Mg17 O16 2.028 . S
Mg17 O22 2.032 . S
Mg17 O24 2.079 . S
C18 O15 1.250 . S
C18 O16 1.248 . S
C19 O20 1.264 . S
C19 O27 1.249 . S
O20 C19 1.264 . S
O21 Mg14 1.986 . S
O21 C25 1.246 . S
O22 Mg17 2.032 . S
O22 C25 1.259 . S
O23 Mg14 2.114 . S
O23 C26 1.252 . S
O24 Mg14 2.251 . S
O24 Mg17 2.079 . S
O24 C26 1.273 . S
C25 O21 1.246 . S
C25 O22 1.259 . S
C26 O23 1.252 . S
C26 O24 1.273 . S
O27 Mg14 2.010 . S
O27 C19 1.249 . S
Mg28 O29 2.028 . S
Mg28 O35 1.986 . S
Mg28 O37 2.114 . S
Mg28 O38 2.251 . S
Mg28 O41 2.010 . S
O29 Mg28 2.028 . S
O29 C32 1.250 . S
O30 Mg31 2.028 . S
O30 C32 1.248 . S
Mg31 O30 2.028 . S
Mg31 O36 2.032 . S
Mg31 O38 2.079 . S
C32 O29 1.250 . S
C32 O30 1.248 . S
C33 O34 1.264 . S
C33 O41 1.249 . S
O34 C33 1.264 . S
O35 Mg28 1.986 . S
O35 C39 1.246 . S
O36 Mg31 2.032 . S
O36 C39 1.259 . S
O37 Mg28 2.114 . S
O37 C40 1.252 . S
O38 Mg28 2.251 . S
O38 Mg31 2.079 . S
O38 C40 1.273 . S
C39 O35 1.246 . S
C39 O36 1.259 . S
C40 O37 1.252 . S
C40 O38 1.273 . S
O41 Mg28 2.010 . S
O41 C33 1.249 . S
Mg42 O43 2.028 . S
Mg42 O49 1.986 . S
Mg42 O51 2.114 . S
Mg42 O52 2.251 . S
Mg42 O55 2.010 . S
O43 Mg42 2.028 . S
O43 C46 1.250 . S
O44 Mg45 2.028 . S
O44 C46 1.248 . S
Mg45 O44 2.028 . S
Mg45 O50 2.032 . S
Mg45 O52 2.079 . S
C46 O43 1.250 . S
C46 O44 1.248 . S
C47 O48 1.264 . S
C47 O55 1.249 . S
O48 C47 1.264 . S
O49 Mg42 1.986 . S
O49 C53 1.246 . S
O50 Mg45 2.032 . S
O50 C53 1.259 . S
O51 Mg42 2.114 . S
O51 C54 1.252 . S
O52 Mg42 2.251 . S
O52 Mg45 2.079 . S
O52 C54 1.273 . S
C53 O49 1.246 . S
C53 O50 1.259 . S
C54 O51 1.252 . S
C54 O52 1.273 . S
O55 Mg42 2.010 . S
O55 C47 1.249 . S
Mg56 O57 2.028 . S
Mg56 O63 1.986 . S
Mg56 O65 2.114 . S
Mg56 O66 2.251 . S
Mg56 O69 2.010 . S
O57 Mg56 2.028 . S
O57 C60 1.250 . S
O58 Mg59 2.028 . S
O58 C60 1.248 . S
Mg59 O58 2.028 . S
Mg59 O64 2.032 . S
Mg59 O66 2.079 . S
C60 O57 1.250 . S
C60 O58 1.248 . S
C61 O62 1.264 . S
C61 O69 1.249 . S
O62 C61 1.264 . S
O63 Mg56 1.986 . S
O63 C67 1.246 . S
O64 Mg59 2.032 . S
O64 C67 1.259 . S
O65 Mg56 2.114 . S
O65 C68 1.252 . S
O66 Mg56 2.251 . S
O66 Mg59 2.079 . S
O66 C68 1.273 . S
C67 O63 1.246 . S
C67 O64 1.259 . S
C68 O65 1.252 . S
C68 O66 1.273 . S
O69 Mg56 2.010 . S
O69 C61 1.249 . S
Mg70 O71 2.028 . S
Mg70 O77 1.986 . S
Mg70 O79 2.114 . S
Mg70 O80 2.251 . S
Mg70 O83 2.010 . S
O71 Mg70 2.028 . S
O71 C74 1.250 . S
O72 Mg73 2.028 . S
O72 C74 1.248 . S
Mg73 O72 2.028 . S
Mg73 O78 2.032 . S
Mg73 O80 2.079 . S
C74 O71 1.250 . S
C74 O72 1.248 . S
C75 O76 1.264 . S
C75 O83 1.249 . S
O76 C75 1.264 . S
O77 Mg70 1.986 . S
O77 C81 1.246 . S
O78 Mg73 2.032 . S
O78 C81 1.259 . S
O79 Mg70 2.114 . S
O79 C82 1.252 . S
O80 Mg70 2.251 . S
O80 Mg73 2.079 . S
O80 C82 1.273 . S
C81 O77 1.246 . S
C81 O78 1.259 . S
C82 O79 1.252 . S
C82 O80 1.273 . S
O83 Mg70 2.010 . S
O83 C75 1.249 . S
Mg84 O85 2.028 . S
Mg84 O91 1.986 . S
Mg84 O93 2.114 . S
Mg84 O94 2.251 . S
Mg84 O97 2.010 . S
O85 Mg84 2.028 . S
O85 C88 1.250 . S
O86 Mg87 2.028 . S
O86 C88 1.248 . S
Mg87 O86 2.028 . S
Mg87 O92 2.032 . S
Mg87 O94 2.079 . S
C88 O85 1.250 . S
C88 O86 1.248 . S
C89 O90 1.264 . S
C89 O97 1.249 . S
O90 C89 1.264 . S
O91 Mg84 1.986 . S
O91 C95 1.246 . S
O92 Mg87 2.032 . S
O92 C95 1.259 . S
O93 Mg84 2.114 . S
O93 C96 1.252 . S
O94 Mg84 2.251 . S
O94 Mg87 2.079 . S
O94 C96 1.273 . S
C95 O91 1.246 . S
C95 O92 1.259 . S
C96 O93 1.252 . S
C96 O94 1.273 . S
O97 Mg84 2.010 . S
O97 C89 1.249 . S
Mg98 O99 2.028 . S
Mg98 O105 1.986 . S
Mg98 O107 2.114 . S
Mg98 O108 2.251 . S
Mg98 O111 2.010 . S
O99 Mg98 2.028 . S
O99 C102 1.250 . S
O100 Mg101 2.028 . S
O100 C102 1.248 . S
Mg101 O100 2.028 . S
Mg101 O106 2.032 . S
Mg101 O108 2.079 . S
C102 O99 1.250 . S
C102 O100 1.248 . S
C103 O104 1.264 . S
C103 O111 1.249 . S
O104 C103 1.264 . S
O105 Mg98 1.986 . S
O105 C109 1.246 . S
O106 Mg101 2.032 . S
O106 C109 1.259 . S
O107 Mg98 2.114 . S
O107 C110 1.252 . S
O108 Mg98 2.251 . S
O108 Mg101 2.079 . S
O108 C110 1.273 . S
C109 O105 1.246 . S
C109 O106 1.259 . S
C110 O107 1.252 . S
C110 O108 1.273 . S
O111 Mg98 2.010 . S
O111 C103 1.249 . S
Mg112 O113 2.028 . S
Mg112 O119 1.986 . S
Mg112 O121 2.114 . S
Mg112 O122 2.251 . S
Mg112 O125 2.010 . S
O113 Mg112 2.028 . S
O113 C116 1.250 . S
O114 Mg115 2.028 1_545 S
O114 C116 1.248 1_545 S
Mg115 O114 2.028 1_565 S
Mg115 O120 2.032 . S
Mg115 O122 2.079 . S
C116 O113 1.250 . S
C116 O114 1.248 1_565 S
C117 O118 1.264 . S
C117 O125 1.249 . S
O118 C117 1.264 . S
O119 Mg112 1.986 . S
O119 C123 1.246 . S
O120 Mg115 2.032 . S
O120 C123 1.259 . S
O121 Mg112 2.114 . S
O121 C124 1.252 . S
O122 Mg112 2.251 . S
O122 Mg115 2.079 . S
O122 C124 1.273 . S
C123 O119 1.246 . S
C123 O120 1.259 . S
C124 O121 1.252 . S
C124 O122 1.273 . S
O125 Mg112 2.010 . S
O125 C117 1.249 . S
Mg126 O127 2.028 . S
Mg126 O133 1.986 . S
Mg126 O135 2.114 . S
Mg126 O136 2.251 . S
Mg126 O139 2.010 . S
O127 Mg126 2.028 . S
O127 C130 1.250 . S
O128 Mg129 2.028 . S
O128 C130 1.248 . S
Mg129 O128 2.028 . S
Mg129 O134 2.032 . S
Mg129 O136 2.079 . S
C130 O127 1.250 . S
C130 O128 1.248 . S
C131 O132 1.264 . S
C131 O139 1.249 . S
O132 C131 1.264 . S
O133 Mg126 1.986 . S
O133 C137 1.246 . S
O134 Mg129 2.032 . S
O134 C137 1.259 . S
O135 Mg126 2.114 . S
O135 C138 1.252 . S
O136 Mg126 2.251 . S
O136 Mg129 2.079 . S
O136 C138 1.273 . S
C137 O133 1.246 . S
C137 O134 1.259 . S
C138 O135 1.252 . S
C138 O136 1.273 . S
O139 Mg126 2.010 . S
O139 C131 1.249 . S
Mg140 O141 2.028 . S
Mg140 O147 1.986 . S
Mg140 O149 2.114 . S
Mg140 O150 2.251 . S
Mg140 O153 2.010 . S
O141 Mg140 2.028 . S
O141 C144 1.250 . S
O142 Mg143 2.028 1_565 S
O142 C144 1.248 1_565 S
Mg143 O142 2.028 1_545 S
Mg143 O148 2.032 . S
Mg143 O150 2.079 . S
C144 O141 1.250 . S
C144 O142 1.248 1_545 S
C145 O146 1.264 . S
C145 O153 1.249 . S
O146 C145 1.264 . S
O147 Mg140 1.986 . S
O147 C151 1.246 . S
O148 Mg143 2.032 . S
O148 C151 1.259 . S
O149 Mg140 2.114 . S
O149 C152 1.252 . S
O150 Mg140 2.251 . S
O150 Mg143 2.079 . S
O150 C152 1.273 . S
C151 O147 1.246 . S
C151 O148 1.259 . S
C152 O149 1.252 . S
C152 O150 1.273 . S
O153 Mg140 2.010 . S
O153 C145 1.249 . S
Mg154 O155 2.028 . S
Mg154 O161 1.986 . S
Mg154 O163 2.114 . S
Mg154 O164 2.251 . S
Mg154 O167 2.010 . S
O155 Mg154 2.028 . S
O155 C158 1.250 . S
O156 Mg157 2.028 . S
O156 C158 1.248 . S
Mg157 O156 2.028 . S
Mg157 O162 2.032 . S
Mg157 O164 2.079 . S
C158 O155 1.250 . S
C158 O156 1.248 . S
C159 O160 1.264 . S
C159 O167 1.249 . S
O160 C159 1.264 . S
O161 Mg154 1.986 . S
O161 C165 1.246 . S
O162 Mg157 2.032 . S
O162 C165 1.259 . S
O163 Mg154 2.114 . S
O163 C166 1.252 . S
O164 Mg154 2.251 . S
O164 Mg157 2.079 . S
O164 C166 1.273 . S
C165 O161 1.246 . S
C165 O162 1.259 . S
C166 O163 1.252 . S
C166 O164 1.273 . S
O167 Mg154 2.010 . S
O167 C159 1.249 . S
Mg168 O169 2.028 . S
Mg168 O175 1.986 . S
Mg168 O177 2.114 . S
Mg168 O178 2.251 . S
Mg168 O181 2.010 . S
O169 Mg168 2.028 . S
O169 C172 1.250 . S
O170 Mg171 2.028 1_565 S
O170 C172 1.248 1_565 S
Mg171 O170 2.028 1_545 S
Mg171 O176 2.032 . S
Mg171 O178 2.079 . S
C172 O169 1.250 . S
C172 O170 1.248 1_545 S
C173 O174 1.264 . S
C173 O181 1.249 . S
O174 C173 1.264 . S
O175 Mg168 1.986 . S
O175 C179 1.246 . S
O176 Mg171 2.032 . S
O176 C179 1.259 . S
O177 Mg168 2.114 . S
O177 C180 1.252 . S
O178 Mg168 2.251 . S
O178 Mg171 2.079 . S
O178 C180 1.273 . S
C179 O175 1.246 . S
C179 O176 1.259 . S
C180 O177 1.252 . S
C180 O178 1.273 . S
O181 Mg168 2.010 . S
O181 C173 1.249 . S
Mg182 O183 2.028 . S
Mg182 O189 1.986 . S
Mg182 O191 2.114 . S
Mg182 O192 2.251 . S
Mg182 O195 2.010 . S
O183 Mg182 2.028 . S
O183 C186 1.250 . S
O184 Mg185 2.028 . S
O184 C186 1.248 . S
Mg185 O184 2.028 . S
Mg185 O190 2.032 . S
Mg185 O192 2.079 . S
C186 O183 1.250 . S
C186 O184 1.248 . S
C187 O188 1.264 . S
C187 O195 1.249 . S
O188 C187 1.264 . S
O189 Mg182 1.986 . S
O189 C193 1.246 . S
O190 Mg185 2.032 . S
O190 C193 1.259 . S
O191 Mg182 2.114 . S
O191 C194 1.252 . S
O192 Mg182 2.251 . S
O192 Mg185 2.079 . S
O192 C194 1.273 . S
C193 O189 1.246 . S
C193 O190 1.259 . S
C194 O191 1.252 . S
C194 O192 1.273 . S
O195 Mg182 2.010 . S
O195 C187 1.249 . S
Mg196 O197 2.028 . S
Mg196 O203 1.986 . S
Mg196 O205 2.114 . S
Mg196 O206 2.251 . S
Mg196 O209 2.010 . S
O197 Mg196 2.028 . S
O197 C200 1.250 . S
O198 Mg199 2.028 1_545 S
O198 C200 1.248 1_545 S
Mg199 O198 2.028 1_565 S
Mg199 O204 2.032 . S
Mg199 O206 2.079 . S
C200 O197 1.250 . S
C200 O198 1.248 1_565 S
C201 O202 1.264 . S
C201 O209 1.249 . S
O202 C201 1.264 . S
O203 Mg196 1.986 . S
O203 C207 1.246 . S
O204 Mg199 2.032 . S
O204 C207 1.259 . S
O205 Mg196 2.114 . S
O205 C208 1.252 . S
O206 Mg196 2.251 . S
O206 Mg199 2.079 . S
O206 C208 1.273 . S
C207 O203 1.246 . S
C207 O204 1.259 . S
C208 O205 1.252 . S
C208 O206 1.273 . S
O209 Mg196 2.010 . S
O209 C201 1.249 . S
Mg210 O211 2.028 . S
Mg210 O217 1.986 . S
Mg210 O219 2.114 . S
Mg210 O220 2.251 . S
Mg210 O223 2.010 . S
O211 Mg210 2.028 . S
O211 C214 1.250 . S
O212 Mg213 2.028 . S
O212 C214 1.248 . S
Mg213 O212 2.028 . S
Mg213 O218 2.032 . S
Mg213 O220 2.079 . S
C214 O211 1.250 . S
C214 O212 1.248 . S
C215 O216 1.264 . S
C215 O223 1.249 . S
O216 C215 1.264 . S
O217 Mg210 1.986 . S
O217 C221 1.246 . S
O218 Mg213 2.032 . S
O218 C221 1.259 . S
O219 Mg210 2.114 . S
O219 C222 1.252 . S
O220 Mg210 2.251 . S
O220 Mg213 2.079 . S
O220 C222 1.273 . S
C221 O217 1.246 . S
C221 O218 1.259 . S
C222 O219 1.252 . S
C222 O220 1.273 . S
O223 Mg210 2.010 . S
O223 C215 1.249 . S
H224 C232 0.950 . S
H225 C237 0.950 . S
H226 C234 0.950 . S
H227 C236 0.950 . S
H228 C238 0.950 . S
H229 C240 0.950 . S
H230 C242 0.950 . S
H231 C243 0.950 . S
C232 H224 0.950 . S
C232 C233 1.386 . S
C232 C234 1.391 . S
C233 C232 1.386 . S
C233 C237 1.393 . S
C234 H226 0.950 . S
C234 C232 1.391 . S
C234 C235 1.400 . S
C235 C234 1.400 . S
C235 C236 1.398 . S
C235 C241 1.491 . S
C236 H227 0.950 . S
C236 C235 1.398 . S
C236 C237 1.391 . S
C237 H225 0.950 . S
C237 C233 1.393 . S
C237 C236 1.391 . S
C238 H228 0.950 . S
C238 C239 1.386 . S
C238 C240 1.391 . S
C239 C238 1.386 . S
C239 C243 1.393 . S
C240 H229 0.950 . S
C240 C238 1.391 . S
C240 C241 1.400 . S
C241 C235 1.491 . S
C241 C240 1.400 . S
C241 C242 1.398 . S
C242 H230 0.950 . S
C242 C241 1.398 . S
C242 C243 1.391 . S
C243 H231 0.950 . S
C243 C239 1.393 . S
C243 C242 1.391 . S
H244 C252 0.950 . S
H245 C257 0.950 . S
H246 C254 0.950 . S
H247 C256 0.950 . S
H248 C258 0.950 . S
H249 C260 0.950 . S
H250 C262 0.950 . S
H251 C263 0.950 . S
C252 H244 0.950 . S
C252 C253 1.386 . S
C252 C254 1.391 . S
C253 C252 1.386 . S
C253 C257 1.393 . S
C254 H246 0.950 . S
C254 C252 1.391 . S
C254 C255 1.400 . S
C255 C254 1.400 . S
C255 C256 1.398 . S
C255 C261 1.491 . S
C256 H247 0.950 . S
C256 C255 1.398 . S
C256 C257 1.391 . S
C257 H245 0.950 . S
C257 C253 1.393 . S
C257 C256 1.391 . S
C258 H248 0.950 . S
C258 C259 1.386 . S
C258 C260 1.391 . S
C259 C258 1.386 . S
C259 C263 1.393 . S
C260 H249 0.950 . S
C260 C258 1.391 . S
C260 C261 1.400 . S
C261 C255 1.491 . S
C261 C260 1.400 . S
C261 C262 1.398 . S
C262 H250 0.950 . S
C262 C261 1.398 . S
C262 C263 1.391 . S
C263 H251 0.950 . S
C263 C259 1.393 . S
C263 C262 1.391 . S
H264 C272 0.950 . S
H265 C277 0.950 . S
H266 C274 0.950 . S
H267 C276 0.950 . S
H268 C278 0.950 . S
H269 C280 0.950 . S
H270 C282 0.950 . S
H271 C283 0.950 . S
C272 H264 0.950 . S
C272 C273 1.386 . S
C272 C274 1.391 . S
C273 C272 1.386 . S
C273 C277 1.393 . S
C274 H266 0.950 . S
C274 C272 1.391 . S
C274 C275 1.400 . S
C275 C274 1.400 . S
C275 C276 1.398 . S
C275 C281 1.491 . S
C276 H267 0.950 . S
C276 C275 1.398 . S
C276 C277 1.391 . S
C277 H265 0.950 . S
C277 C273 1.393 . S
C277 C276 1.391 . S
C278 H268 0.950 . S
C278 C279 1.386 . S
C278 C280 1.391 . S
C279 C278 1.386 . S
C279 C283 1.393 . S
C280 H269 0.950 . S
C280 C278 1.391 . S
C280 C281 1.400 . S
C281 C275 1.491 . S
C281 C280 1.400 . S
C281 C282 1.398 . S
C282 H270 0.950 . S
C282 C281 1.398 . S
C282 C283 1.391 . S
C283 H271 0.950 . S
C283 C279 1.393 . S
C283 C282 1.391 . S
H284 C292 0.950 . S
H285 C297 0.950 . S
H286 C294 0.950 . S
H287 C296 0.950 . S
H288 C298 0.950 . S
H289 C300 0.950 . S
H290 C302 0.950 . S
H291 C303 0.950 . S
C292 H284 0.950 . S
C292 C293 1.386 . S
C292 C294 1.391 . S
C293 C292 1.386 . S
C293 C297 1.393 . S
C294 H286 0.950 . S
C294 C292 1.391 . S
C294 C295 1.400 . S
C295 C294 1.400 . S
C295 C296 1.398 . S
C295 C301 1.491 . S
C296 H287 0.950 . S
C296 C295 1.398 . S
C296 C297 1.391 . S
C297 H285 0.950 . S
C297 C293 1.393 . S
C297 C296 1.391 . S
C298 H288 0.950 . S
C298 C299 1.386 . S
C298 C300 1.391 . S
C299 C298 1.386 . S
C299 C303 1.393 . S
C300 H289 0.950 . S
C300 C298 1.391 . S
C300 C301 1.400 . S
C301 C295 1.491 . S
C301 C300 1.400 . S
C301 C302 1.398 . S
C302 H290 0.950 . S
C302 C301 1.398 . S
C302 C303 1.391 . S
C303 H291 0.950 . S
C303 C299 1.393 . S
C303 C302 1.391 . S
H304 C312 0.950 . S
H305 C317 0.950 . S
H306 C314 0.950 . S
H307 C316 0.950 . S
H308 C318 0.950 . S
H309 C320 0.950 . S
H310 C322 0.950 . S
H311 C323 0.950 . S
C312 H304 0.950 . S
C312 C313 1.386 . S
C312 C314 1.391 . S
C313 C312 1.386 . S
C313 C317 1.393 . S
C314 H306 0.950 . S
C314 C312 1.391 . S
C314 C315 1.400 . S
C315 C314 1.400 . S
C315 C316 1.398 . S
C315 C321 1.491 . S
C316 H307 0.950 . S
C316 C315 1.398 . S
C316 C317 1.391 . S
C317 H305 0.950 . S
C317 C313 1.393 . S
C317 C316 1.391 . S
C318 H308 0.950 . S
C318 C319 1.386 . S
C318 C320 1.391 . S
C319 C318 1.386 . S
C319 C323 1.393 . S
C320 H309 0.950 . S
C320 C318 1.391 . S
C320 C321 1.400 . S
C321 C315 1.491 . S
C321 C320 1.400 . S
C321 C322 1.398 . S
C322 H310 0.950 . S
C322 C321 1.398 . S
C322 C323 1.391 . S
C323 H311 0.950 . S
C323 C319 1.393 . S
C323 C322 1.391 . S
H324 C332 0.950 . S
H325 C337 0.950 . S
H326 C334 0.950 . S
H327 C336 0.950 . S
H328 C338 0.950 . S
H329 C340 0.950 . S
H330 C342 0.950 . S
H331 C343 0.950 . S
C332 H324 0.950 . S
C332 C333 1.386 . S
C332 C334 1.391 . S
C333 C332 1.386 . S
C333 C337 1.393 . S
C334 H326 0.950 . S
C334 C332 1.391 . S
C334 C335 1.400 . S
C335 C334 1.400 . S
C335 C336 1.398 . S
C335 C341 1.491 . S
C336 H327 0.950 . S
C336 C335 1.398 . S
C336 C337 1.391 . S
C337 H325 0.950 . S
C337 C333 1.393 . S
C337 C336 1.391 . S
C338 H328 0.950 . S
C338 C339 1.386 . S
C338 C340 1.391 . S
C339 C338 1.386 . S
C339 C343 1.393 . S
C340 H329 0.950 . S
C340 C338 1.391 . S
C340 C341 1.400 . S
C341 C335 1.491 . S
C341 C340 1.400 . S
C341 C342 1.398 . S
C342 H330 0.950 . S
C342 C341 1.398 . S
C342 C343 1.391 . S
C343 H331 0.950 . S
C343 C339 1.393 . S
C343 C342 1.391 . S
H344 C352 0.950 . S
H345 C357 0.950 . S
H346 C354 0.950 . S
H347 C356 0.950 . S
H348 C358 0.950 . S
H349 C360 0.950 . S
H350 C362 0.950 . S
H351 C363 0.950 . S
C352 H344 0.950 . S
C352 C353 1.386 . S
C352 C354 1.391 . S
C353 C352 1.386 . S
C353 C357 1.393 . S
C354 H346 0.950 . S
C354 C352 1.391 . S
C354 C355 1.400 . S
C355 C354 1.400 . S
C355 C356 1.398 . S
C355 C361 1.491 . S
C356 H347 0.950 . S
C356 C355 1.398 . S
C356 C357 1.391 . S
C357 H345 0.950 . S
C357 C353 1.393 . S
C357 C356 1.391 . S
C358 H348 0.950 . S
C358 C359 1.386 . S
C358 C360 1.391 . S
C359 C358 1.386 . S
C359 C363 1.393 . S
C360 H349 0.950 . S
C360 C358 1.391 . S
C360 C361 1.400 . S
C361 C355 1.491 . S
C361 C360 1.400 . S
C361 C362 1.398 . S
C362 H350 0.950 . S
C362 C361 1.398 . S
C362 C363 1.391 . S
C363 H351 0.950 . S
C363 C359 1.393 . S
C363 C362 1.391 . S
H364 C372 0.950 . S
H365 C377 0.950 . S
H366 C374 0.950 . S
H367 C376 0.950 . S
H368 C378 0.950 . S
H369 C380 0.950 . S
H370 C382 0.950 . S
H371 C383 0.950 . S
C372 H364 0.950 . S
C372 C373 1.386 . S
C372 C374 1.391 . S
C373 C372 1.386 . S
C373 C377 1.393 . S
C374 H366 0.950 . S
C374 C372 1.391 . S
C374 C375 1.400 . S
C375 C374 1.400 . S
C375 C376 1.398 . S
C375 C381 1.491 . S
C376 H367 0.950 . S
C376 C375 1.398 . S
C376 C377 1.391 . S
C377 H365 0.950 . S
C377 C373 1.393 . S
C377 C376 1.391 . S
C378 H368 0.950 . S
C378 C379 1.386 . S
C378 C380 1.391 . S
C379 C378 1.386 . S
C379 C383 1.393 . S
C380 H369 0.950 . S
C380 C378 1.391 . S
C380 C381 1.400 . S
C381 C375 1.491 . S
C381 C380 1.400 . S
C381 C382 1.398 . S
C382 H370 0.950 . S
C382 C381 1.398 . S
C382 C383 1.391 . S
C383 H371 0.950 . S
C383 C379 1.393 . S
C383 C382 1.391 . S
H384 C392 0.950 . S
H385 C397 0.950 . S
H386 C394 0.950 . S
H387 C396 0.950 . S
H388 C398 0.950 . S
H389 C400 0.950 . S
H390 C402 0.950 . S
H391 C403 0.950 . S
C392 H384 0.950 . S
C392 C393 1.386 . S
C392 C394 1.391 . S
C393 C392 1.386 . S
C393 C397 1.393 . S
C394 H386 0.950 . S
C394 C392 1.391 . S
C394 C395 1.400 . S
C395 C394 1.400 . S
C395 C396 1.398 . S
C395 C401 1.491 . S
C396 H387 0.950 . S
C396 C395 1.398 . S
C396 C397 1.391 . S
C397 H385 0.950 . S
C397 C393 1.393 . S
C397 C396 1.391 . S
C398 H388 0.950 . S
C398 C399 1.386 . S
C398 C400 1.391 . S
C399 C398 1.386 . S
C399 C403 1.393 . S
C400 H389 0.950 . S
C400 C398 1.391 . S
C400 C401 1.400 . S
C401 C395 1.491 . S
C401 C400 1.400 . S
C401 C402 1.398 . S
C402 H390 0.950 . S
C402 C401 1.398 . S
C402 C403 1.391 . S
C403 H391 0.950 . S
C403 C399 1.393 . S
C403 C402 1.391 . S
H404 C412 0.950 . S
H405 C417 0.950 . S
H406 C414 0.950 . S
H407 C416 0.950 . S
H408 C418 0.950 . S
H409 C420 0.950 . S
H410 C422 0.950 . S
H411 C423 0.950 . S
C412 H404 0.950 . S
C412 C413 1.386 . S
C412 C414 1.391 . S
C413 C412 1.386 . S
C413 C417 1.393 . S
C414 H406 0.950 . S
C414 C412 1.391 . S
C414 C415 1.400 . S
C415 C414 1.400 . S
C415 C416 1.398 . S
C415 C421 1.491 . S
C416 H407 0.950 . S
C416 C415 1.398 . S
C416 C417 1.391 . S
C417 H405 0.950 . S
C417 C413 1.393 . S
C417 C416 1.391 . S
C418 H408 0.950 . S
C418 C419 1.386 . S
C418 C420 1.391 . S
C419 C418 1.386 . S
C419 C423 1.393 . S
C420 H409 0.950 . S
C420 C418 1.391 . S
C420 C421 1.400 . S
C421 C415 1.491 . S
C421 C420 1.400 . S
C421 C422 1.398 . S
C422 H410 0.950 . S
C422 C421 1.398 . S
C422 C423 1.391 . S
C423 H411 0.950 . S
C423 C419 1.393 . S
C423 C422 1.391 . S
H424 C432 0.950 . S
H425 C437 0.950 . S
H426 C434 0.950 . S
H427 C436 0.950 . S
H428 C438 0.950 . S
H429 C440 0.950 . S
H430 C442 0.950 . S
H431 C443 0.950 . S
C432 H424 0.950 . S
C432 C433 1.386 . S
C432 C434 1.391 . S
C433 C432 1.386 . S
C433 C437 1.393 . S
C434 H426 0.950 . S
C434 C432 1.391 . S
C434 C435 1.400 . S
C435 C434 1.400 . S
C435 C436 1.398 . S
C435 C441 1.491 . S
C436 H427 0.950 . S
C436 C435 1.398 . S
C436 C437 1.391 . S
C437 H425 0.950 . S
C437 C433 1.393 . S
C437 C436 1.391 . S
C438 H428 0.950 . S
C438 C439 1.386 . S
C438 C440 1.391 . S
C439 C438 1.386 . S
C439 C443 1.393 . S
C440 H429 0.950 . S
C440 C438 1.391 . S
C440 C441 1.400 . S
C441 C435 1.491 . S
C441 C440 1.400 . S
C441 C442 1.398 . S
C442 H430 0.950 . S
C442 C441 1.398 . S
C442 C443 1.391 . S
C443 H431 0.950 . S
C443 C439 1.393 . S
C443 C442 1.391 . S
H444 C452 0.950 . S
H445 C457 0.950 . S
H446 C454 0.950 . S
H447 C456 0.950 . S
H448 C458 0.950 . S
H449 C460 0.950 . S
H450 C462 0.950 . S
H451 C463 0.950 . S
C452 H444 0.950 . S
C452 C453 1.386 . S
C452 C454 1.391 . S
C453 C452 1.386 . S
C453 C457 1.393 . S
C454 H446 0.950 . S
C454 C452 1.391 . S
C454 C455 1.400 . S
C455 C454 1.400 . S
C455 C456 1.398 . S
C455 C461 1.491 . S
C456 H447 0.950 . S
C456 C455 1.398 . S
C456 C457 1.391 . S
C457 H445 0.950 . S
C457 C453 1.393 . S
C457 C456 1.391 . S
C458 H448 0.950 . S
C458 C459 1.386 . S
C458 C460 1.391 . S
C459 C458 1.386 . S
C459 C463 1.393 . S
C460 H449 0.950 . S
C460 C458 1.391 . S
C460 C461 1.400 . S
C461 C455 1.491 . S
C461 C460 1.400 . S
C461 C462 1.398 . S
C462 H450 0.950 . S
C462 C461 1.398 . S
C462 C463 1.391 . S
C463 H451 0.950 . S
C463 C459 1.393 . S
C463 C462 1.391 . S
H464 C472 0.950 . S
H465 C477 0.950 . S
H466 C474 0.950 . S
H467 C476 0.950 . S
H468 C478 0.950 . S
H469 C480 0.950 . S
H470 C482 0.950 . S
H471 C483 0.950 . S
C472 H464 0.950 . S
C472 C473 1.386 . S
C472 C474 1.391 . S
C473 C472 1.386 . S
C473 C477 1.393 . S
C474 H466 0.950 . S
C474 C472 1.391 . S
C474 C475 1.400 . S
C475 C474 1.400 . S
C475 C476 1.398 . S
C475 C481 1.491 . S
C476 H467 0.950 . S
C476 C475 1.398 . S
C476 C477 1.391 . S
C477 H465 0.950 . S
C477 C473 1.393 . S
C477 C476 1.391 . S
C478 H468 0.950 . S
C478 C479 1.386 . S
C478 C480 1.391 . S
C479 C478 1.386 . S
C479 C483 1.393 . S
C480 H469 0.950 . S
C480 C478 1.391 . S
C480 C481 1.400 . S
C481 C475 1.491 . S
C481 C480 1.400 . S
C481 C482 1.398 . S
C482 H470 0.950 . S
C482 C481 1.398 . S
C482 C483 1.391 . S
C483 H471 0.950 . S
C483 C479 1.393 . S
C483 C482 1.391 . S
H484 C492 0.950 . S
H485 C497 0.950 . S
H486 C494 0.950 . S
H487 C496 0.950 . S
H488 C498 0.950 . S
H489 C500 0.950 . S
H490 C502 0.950 . S
H491 C503 0.950 . S
C492 H484 0.950 . S
C492 C493 1.386 . S
C492 C494 1.391 . S
C493 C492 1.386 . S
C493 C497 1.393 . S
C494 H486 0.950 . S
C494 C492 1.391 . S
C494 C495 1.400 . S
C495 C494 1.400 . S
C495 C496 1.398 . S
C495 C501 1.491 . S
C496 H487 0.950 . S
C496 C495 1.398 . S
C496 C497 1.391 . S
C497 H485 0.950 . S
C497 C493 1.393 . S
C497 C496 1.391 . S
C498 H488 0.950 . S
C498 C499 1.386 . S
C498 C500 1.391 . S
C499 C498 1.386 . S
C499 C503 1.393 . S
C500 H489 0.950 . S
C500 C498 1.391 . S
C500 C501 1.400 . S
C501 C495 1.491 . S
C501 C500 1.400 . S
C501 C502 1.398 . S
C502 H490 0.950 . S
C502 C501 1.398 . S
C502 C503 1.391 . S
C503 H491 0.950 . S
C503 C499 1.393 . S
C503 C502 1.391 . S
H504 C512 0.950 . S
H505 C517 0.950 . S
H506 C514 0.950 . S
H507 C516 0.950 . S
H508 C518 0.950 . S
H509 C520 0.950 . S
H510 C522 0.950 . S
H511 C523 0.950 . S
C512 H504 0.950 . S
C512 C513 1.386 . S
C512 C514 1.391 . S
C513 C512 1.386 . S
C513 C517 1.393 . S
C514 H506 0.950 . S
C514 C512 1.391 . S
C514 C515 1.400 . S
C515 C514 1.400 . S
C515 C516 1.398 . S
C515 C521 1.491 . S
C516 H507 0.950 . S
C516 C515 1.398 . S
C516 C517 1.391 . S
C517 H505 0.950 . S
C517 C513 1.393 . S
C517 C516 1.391 . S
C518 H508 0.950 . S
C518 C519 1.386 . S
C518 C520 1.391 . S
C519 C518 1.386 . S
C519 C523 1.393 . S
C520 H509 0.950 . S
C520 C518 1.391 . S
C520 C521 1.400 . S
C521 C515 1.491 . S
C521 C520 1.400 . S
C521 C522 1.398 . S
C522 H510 0.950 . S
C522 C521 1.398 . S
C522 C523 1.391 . S
C523 H511 0.950 . S
C523 C519 1.393 . S
C523 C522 1.391 . S
H524 C532 0.950 . S
H525 C537 0.950 . S
H526 C534 0.950 . S
H527 C536 0.950 . S
H528 C538 0.950 . S
H529 C540 0.950 . S
H530 C542 0.950 . S
H531 C543 0.950 . S
C532 H524 0.950 . S
C532 C533 1.386 . S
C532 C534 1.391 . S
C533 C532 1.386 . S
C533 C537 1.393 . S
C534 H526 0.950 . S
C534 C532 1.391 . S
C534 C535 1.400 . S
C535 C534 1.400 . S
C535 C536 1.398 . S
C535 C541 1.491 . S
C536 H527 0.950 . S
C536 C535 1.398 . S
C536 C537 1.391 . S
C537 H525 0.950 . S
C537 C533 1.393 . S
C537 C536 1.391 . S
C538 H528 0.950 . S
C538 C539 1.386 . S
C538 C540 1.391 . S
C539 C538 1.386 . S
C539 C543 1.393 . S
C540 H529 0.950 . S
C540 C538 1.391 . S
C540 C541 1.400 . S
C541 C535 1.491 . S
C541 C540 1.400 . S
C541 C542 1.398 . S
C542 H530 0.950 . S
C542 C541 1.398 . S
C542 C543 1.391 . S
C543 H531 0.950 . S
C543 C539 1.393 . S
C543 C542 1.391 . S
H544 C552 0.950 . S
H545 C557 0.950 . S
H546 C554 0.950 . S
H547 C556 0.950 . S
H548 C558 0.950 . S
H549 C560 0.950 . S
H550 C562 0.950 . S
H551 C563 0.950 . S
C552 H544 0.950 . S
C552 C553 1.386 . S
C552 C554 1.391 . S
C553 C552 1.386 . S
C553 C557 1.393 . S
C554 H546 0.950 . S
C554 C552 1.391 . S
C554 C555 1.400 . S
C555 C554 1.400 . S
C555 C556 1.398 . S
C555 C561 1.491 . S
C556 H547 0.950 . S
C556 C555 1.398 . S
C556 C557 1.391 . S
C557 H545 0.950 . S
C557 C553 1.393 . S
C557 C556 1.391 . S
C558 H548 0.950 . S
C558 C559 1.386 . S
C558 C560 1.391 . S
C559 C558 1.386 . S
C559 C563 1.393 . S
C560 H549 0.950 . S
C560 C558 1.391 . S
C560 C561 1.400 . S
C561 C555 1.491 . S
C561 C560 1.400 . S
C561 C562 1.398 . S
C562 H550 0.950 . S
C562 C561 1.398 . S
C562 C563 1.391 . S
C563 H551 0.950 . S
C563 C559 1.393 . S
C563 C562 1.391 . S
H564 C572 0.950 . S
H565 C577 0.950 . S
H566 C574 0.950 . S
H567 C576 0.950 . S
H568 C578 0.950 . S
H569 C580 0.950 . S
H570 C582 0.950 . S
H571 C583 0.950 . S
C572 H564 0.950 . S
C572 C573 1.386 . S
C572 C574 1.391 . S
C573 C572 1.386 . S
C573 C577 1.393 . S
C574 H566 0.950 . S
C574 C572 1.391 . S
C574 C575 1.400 . S
C575 C574 1.400 . S
C575 C576 1.398 . S
C575 C581 1.491 . S
C576 H567 0.950 . S
C576 C575 1.398 . S
C576 C577 1.391 . S
C577 H565 0.950 . S
C577 C573 1.393 . S
C577 C576 1.391 . S
C578 H568 0.950 . S
C578 C579 1.386 . S
C578 C580 1.391 1_655 S
C579 C578 1.386 . S
C579 C583 1.393 1_655 S
C580 H569 0.950 . S
C580 C578 1.391 1_455 S
C580 C581 1.400 . S
C581 C575 1.491 . S
C581 C580 1.400 . S
C581 C582 1.398 . S
C582 H570 0.950 . S
C582 C581 1.398 . S
C582 C583 1.391 . S
C583 H571 0.950 . S
C583 C579 1.393 1_455 S
C583 C582 1.391 . S
H584 C592 0.950 . S
H585 C597 0.950 . S
H586 C594 0.950 . S
H587 C596 0.950 . S
H588 C598 0.950 . S
H589 C600 0.950 . S
H590 C602 0.950 . S
H591 C603 0.950 . S
C592 H584 0.950 . S
C592 C593 1.386 . S
C592 C594 1.391 . S
C593 C592 1.386 . S
C593 C597 1.393 . S
C594 H586 0.950 . S
C594 C592 1.391 . S
C594 C595 1.400 . S
C595 C594 1.400 . S
C595 C596 1.398 . S
C595 C601 1.491 . S
C596 H587 0.950 . S
C596 C595 1.398 . S
C596 C597 1.391 . S
C597 H585 0.950 . S
C597 C593 1.393 . S
C597 C596 1.391 . S
C598 H588 0.950 . S
C598 C599 1.386 . S
C598 C600 1.391 . S
C599 C598 1.386 . S
C599 C603 1.393 . S
C600 H589 0.950 . S
C600 C598 1.391 . S
C600 C601 1.400 . S
C601 C595 1.491 . S
C601 C600 1.400 . S
C601 C602 1.398 . S
C602 H590 0.950 . S
C602 C601 1.398 . S
C602 C603 1.391 . S
C603 H591 0.950 . S
C603 C599 1.393 . S
C603 C602 1.391 . S
H604 C612 0.950 . S
H605 C617 0.950 . S
H606 C614 0.950 . S
H607 C616 0.950 . S
H608 C618 0.950 . S
H609 C620 0.950 . S
H610 C622 0.950 . S
H611 C623 0.950 . S
C612 H604 0.950 . S
C612 C613 1.386 . S
C612 C614 1.391 . S
C613 C612 1.386 . S
C613 C617 1.393 . S
C614 H606 0.950 . S
C614 C612 1.391 . S
C614 C615 1.400 . S
C615 C614 1.400 . S
C615 C616 1.398 . S
C615 C621 1.491 . S
C616 H607 0.950 . S
C616 C615 1.398 . S
C616 C617 1.391 . S
C617 H605 0.950 . S
C617 C613 1.393 . S
C617 C616 1.391 . S
C618 H608 0.950 . S
C618 C619 1.386 1_655 S
C618 C620 1.391 . S
C619 C618 1.386 1_455 S
C619 C623 1.393 . S
C620 H609 0.950 . S
C620 C618 1.391 . S
C620 C621 1.400 . S
C621 C615 1.491 . S
C621 C620 1.400 . S
C621 C622 1.398 . S
C622 H610 0.950 . S
C622 C621 1.398 . S
C622 C623 1.391 1_655 S
C623 H611 0.950 . S
C623 C619 1.393 . S
C623 C622 1.391 1_455 S
H624 C632 0.950 . S
H625 C637 0.950 . S
H626 C634 0.950 . S
H627 C636 0.950 . S
H628 C638 0.950 . S
H629 C640 0.950 . S
H630 C642 0.950 . S
H631 C643 0.950 . S
C632 H624 0.950 . S
C632 C633 1.386 . S
C632 C634 1.391 . S
C633 C632 1.386 . S
C633 C637 1.393 . S
C634 H626 0.950 . S
C634 C632 1.391 . S
C634 C635 1.400 . S
C635 C634 1.400 . S
C635 C636 1.398 . S
C635 C641 1.491 . S
C636 H627 0.950 . S
C636 C635 1.398 . S
C636 C637 1.391 . S
C637 H625 0.950 . S
C637 C633 1.393 . S
C637 C636 1.391 . S
C638 H628 0.950 . S
C638 C639 1.386 . S
C638 C640 1.391 . S
C639 C638 1.386 . S
C639 C643 1.393 . S
C640 H629 0.950 . S
C640 C638 1.391 . S
C640 C641 1.400 . S
C641 C635 1.491 . S
C641 C640 1.400 . S
C641 C642 1.398 . S
C642 H630 0.950 . S
C642 C641 1.398 . S
C642 C643 1.391 . S
C643 H631 0.950 . S
C643 C639 1.393 . S
C643 C642 1.391 . S
H644 C652 0.950 . S
H645 C657 0.950 . S
H646 C654 0.950 . S
H647 C656 0.950 . S
H648 C658 0.950 . S
H649 C660 0.950 . S
H650 C662 0.950 . S
H651 C663 0.950 . S
C652 H644 0.950 . S
C652 C653 1.386 . S
C652 C654 1.391 . S
C653 C652 1.386 . S
C653 C657 1.393 . S
C654 H646 0.950 . S
C654 C652 1.391 . S
C654 C655 1.400 . S
C655 C654 1.400 . S
C655 C656 1.398 . S
C655 C661 1.491 . S
C656 H647 0.950 . S
C656 C655 1.398 . S
C656 C657 1.391 . S
C657 H645 0.950 . S
C657 C653 1.393 . S
C657 C656 1.391 . S
C658 H648 0.950 . S
C658 C659 1.386 1_655 S
C658 C660 1.391 . S
C659 C658 1.386 1_455 S
C659 C663 1.393 . S
C660 H649 0.950 . S
C660 C658 1.391 . S
C660 C661 1.400 . S
C661 C655 1.491 . S
C661 C660 1.400 . S
C661 C662 1.398 . S
C662 H650 0.950 . S
C662 C661 1.398 . S
C662 C663 1.391 1_655 S
C663 H651 0.950 . S
C663 C659 1.393 . S
C663 C662 1.391 1_455 S
H664 C672 0.950 . S
H665 C677 0.950 . S
H666 C674 0.950 . S
H667 C676 0.950 . S
H668 C678 0.950 . S
H669 C680 0.950 . S
H670 C682 0.950 . S
H671 C683 0.950 . S
C672 H664 0.950 . S
C672 C673 1.386 . S
C672 C674 1.391 . S
C673 C672 1.386 . S
C673 C677 1.393 . S
C674 H666 0.950 . S
C674 C672 1.391 . S
C674 C675 1.400 . S
C675 C674 1.400 . S
C675 C676 1.398 . S
C675 C681 1.491 . S
C676 H667 0.950 . S
C676 C675 1.398 . S
C676 C677 1.391 . S
C677 H665 0.950 . S
C677 C673 1.393 . S
C677 C676 1.391 . S
C678 H668 0.950 . S
C678 C679 1.386 . S
C678 C680 1.391 . S
C679 C678 1.386 . S
C679 C683 1.393 . S
C680 H669 0.950 . S
C680 C678 1.391 . S
C680 C681 1.400 . S
C681 C675 1.491 . S
C681 C680 1.400 . S
C681 C682 1.398 . S
C682 H670 0.950 . S
C682 C681 1.398 . S
C682 C683 1.391 . S
C683 H671 0.950 . S
C683 C679 1.393 . S
C683 C682 1.391 . S
H684 C692 0.950 . S
H685 C697 0.950 . S
H686 C694 0.950 . S
H687 C696 0.950 . S
H688 C698 0.950 . S
H689 C700 0.950 . S
H690 C702 0.950 . S
H691 C703 0.950 . S
C692 H684 0.950 . S
C692 C693 1.386 . S
C692 C694 1.391 . S
C693 C692 1.386 . S
C693 C697 1.393 . S
C694 H686 0.950 . S
C694 C692 1.391 . S
C694 C695 1.400 . S
C695 C694 1.400 . S
C695 C696 1.398 . S
C695 C701 1.491 . S
C696 H687 0.950 . S
C696 C695 1.398 . S
C696 C697 1.391 . S
C697 H685 0.950 . S
C697 C693 1.393 . S
C697 C696 1.391 . S
C698 H688 0.950 . S
C698 C699 1.386 1_455 S
C698 C700 1.391 . S
C699 C698 1.386 1_655 S
C699 C703 1.393 . S
C700 H689 0.950 . S
C700 C698 1.391 . S
C700 C701 1.400 . S
C701 C695 1.491 . S
C701 C700 1.400 . S
C701 C702 1.398 . S
C702 H690 0.950 . S
C702 C701 1.398 . S
C702 C703 1.391 1_455 S
C703 H691 0.950 . S
C703 C699 1.393 . S
C703 C702 1.391 1_655 S
H704 C712 0.950 . S
H705 C717 0.950 . S
H706 C714 0.950 . S
H707 C716 0.950 . S
H708 C718 0.950 . S
H709 C720 0.950 . S
H710 C722 0.950 . S
H711 C723 0.950 . S
C712 H704 0.950 . S
C712 C713 1.386 . S
C712 C714 1.391 . S
C713 C712 1.386 . S
C713 C717 1.393 . S
C714 H706 0.950 . S
C714 C712 1.391 . S
C714 C715 1.400 . S
C715 C714 1.400 . S
C715 C716 1.398 . S
C715 C721 1.491 . S
C716 H707 0.950 . S
C716 C715 1.398 . S
C716 C717 1.391 . S
C717 H705 0.950 . S
C717 C713 1.393 . S
C717 C716 1.391 . S
C718 H708 0.950 . S
C718 C719 1.386 . S
C718 C720 1.391 . S
C719 C718 1.386 . S
C719 C723 1.393 . S
C720 H709 0.950 . S
C720 C718 1.391 . S
C720 C721 1.400 . S
C721 C715 1.491 . S
C721 C720 1.400 . S
C721 C722 1.398 . S
C722 H710 0.950 . S
C722 C721 1.398 . S
C722 C723 1.391 . S
C723 H711 0.950 . S
C723 C719 1.393 . S
C723 C722 1.391 . S
H724 C732 0.950 . S
H725 C737 0.950 . S
H726 C734 0.950 . S
H727 C736 0.950 . S
H728 C738 0.950 . S
H729 C740 0.950 . S
H730 C742 0.950 . S
H731 C743 0.950 . S
C732 H724 0.950 . S
C732 C733 1.386 . S
C732 C734 1.391 . S
C733 C732 1.386 . S
C733 C737 1.393 . S
C734 H726 0.950 . S
C734 C732 1.391 . S
C734 C735 1.400 . S
C735 C734 1.400 . S
C735 C736 1.398 . S
C735 C741 1.491 . S
C736 H727 0.950 . S
C736 C735 1.398 . S
C736 C737 1.391 . S
C737 H725 0.950 . S
C737 C733 1.393 . S
C737 C736 1.391 . S
C738 H728 0.950 . S
C738 C739 1.386 . S
C738 C740 1.391 . S
C739 C738 1.386 . S
C739 C743 1.393 . S
C740 H729 0.950 . S
C740 C738 1.391 . S
C740 C741 1.400 . S
C741 C735 1.491 . S
C741 C740 1.400 . S
C741 C742 1.398 . S
C742 H730 0.950 . S
C742 C741 1.398 . S
C742 C743 1.391 . S
C743 H731 0.950 . S
C743 C739 1.393 . S
C743 C742 1.391 . S
H744 C752 0.950 . S
H745 C757 0.950 . S
H746 C754 0.950 . S
H747 C756 0.950 . S
H748 C758 0.950 . S
H749 C760 0.950 . S
H750 C762 0.950 . S
H751 C763 0.950 . S
C752 H744 0.950 . S
C752 C753 1.386 . S
C752 C754 1.391 . S
C753 C752 1.386 . S
C753 C757 1.393 . S
C754 H746 0.950 . S
C754 C752 1.391 . S
C754 C755 1.400 . S
C755 C754 1.400 . S
C755 C756 1.398 . S
C755 C761 1.491 . S
C756 H747 0.950 . S
C756 C755 1.398 . S
C756 C757 1.391 . S
C757 H745 0.950 . S
C757 C753 1.393 . S
C757 C756 1.391 . S
C758 H748 0.950 . S
C758 C759 1.386 . S
C758 C760 1.391 . S
C759 C758 1.386 . S
C759 C763 1.393 . S
C760 H749 0.950 . S
C760 C758 1.391 . S
C760 C761 1.400 . S
C761 C755 1.491 . S
C761 C760 1.400 . S
C761 C762 1.398 . S
C762 H750 0.950 . S
C762 C761 1.398 . S
C762 C763 1.391 . S
C763 H751 0.950 . S
C763 C759 1.393 . S
C763 C762 1.391 . S
H764 C772 0.950 . S
H765 C777 0.950 . S
H766 C774 0.950 . S
H767 C776 0.950 . S
H768 C778 0.950 . S
H769 C780 0.950 . S
H770 C782 0.950 . S
H771 C783 0.950 . S
C772 H764 0.950 . S
C772 C773 1.386 . S
C772 C774 1.391 . S
C773 C772 1.386 . S
C773 C777 1.393 . S
C774 H766 0.950 . S
C774 C772 1.391 . S
C774 C775 1.400 . S
C775 C774 1.400 . S
C775 C776 1.398 . S
C775 C781 1.491 . S
C776 H767 0.950 . S
C776 C775 1.398 . S
C776 C777 1.391 . S
C777 H765 0.950 . S
C777 C773 1.393 . S
C777 C776 1.391 . S
C778 H768 0.950 . S
C778 C779 1.386 . S
C778 C780 1.391 . S
C779 C778 1.386 . S
C779 C783 1.393 . S
C780 H769 0.950 . S
C780 C778 1.391 . S
C780 C781 1.400 . S
C781 C775 1.491 . S
C781 C780 1.400 . S
C781 C782 1.398 . S
C782 H770 0.950 . S
C782 C781 1.398 . S
C782 C783 1.391 . S
C783 H771 0.950 . S
C783 C779 1.393 . S
C783 C782 1.391 . S
H784 C792 0.950 . S
H785 C797 0.950 . S
H786 C794 0.950 . S
H787 C796 0.950 . S
H788 C798 0.950 . S
H789 C800 0.950 . S
H790 C802 0.950 . S
H791 C803 0.950 . S
C792 H784 0.950 . S
C792 C793 1.386 . S
C792 C794 1.391 . S
C793 C792 1.386 . S
C793 C797 1.393 1_545 S
C794 H786 0.950 . S
C794 C792 1.391 . S
C794 C795 1.400 . S
C795 C794 1.400 . S
C795 C796 1.398 1_545 S
C795 C801 1.491 1_544 S
C796 H787 0.950 . S
C796 C795 1.398 1_565 S
C796 C797 1.391 . S
C797 H785 0.950 . S
C797 C793 1.393 1_565 S
C797 C796 1.391 . S
C798 H788 0.950 . S
C798 C799 1.386 . S
C798 C800 1.391 . S
C799 C798 1.386 . S
C799 C803 1.393 1_565 S
C800 H789 0.950 . S
C800 C798 1.391 . S
C800 C801 1.400 . S
C801 C795 1.491 1_566 S
C801 C800 1.400 . S
C801 C802 1.398 1_565 S
C802 H790 0.950 . S
C802 C801 1.398 1_545 S
C802 C803 1.391 . S
C803 H791 0.950 . S
C803 C799 1.393 1_545 S
C803 C802 1.391 . S
H804 C812 0.950 . S
H805 C817 0.950 1_655 S
H806 C814 0.950 . S
H807 C816 0.950 . S
H808 C818 0.950 . S
H809 C820 0.950 . S
H810 C822 0.950 . S
H811 C823 0.950 1_455 S
C812 H804 0.950 . S
C812 C813 1.386 . S
C812 C814 1.391 . S
C813 C812 1.386 . S
C813 C817 1.393 . S
C814 H806 0.950 . S
C814 C812 1.391 . S
C814 C815 1.400 . S
C815 C814 1.400 . S
C815 C816 1.398 1_455 S
C815 C821 1.491 1_456 S
C816 H807 0.950 . S
C816 C815 1.398 1_655 S
C816 C817 1.391 1_655 S
C817 H805 0.950 1_455 S
C817 C813 1.393 . S
C817 C816 1.391 1_455 S
C818 H808 0.950 . S
C818 C819 1.386 . S
C818 C820 1.391 . S
C819 C818 1.386 . S
C819 C823 1.393 . S
C820 H809 0.950 . S
C820 C818 1.391 . S
C820 C821 1.400 . S
C821 C815 1.491 1_654 S
C821 C820 1.400 . S
C821 C822 1.398 1_655 S
C822 H810 0.950 . S
C822 C821 1.398 1_455 S
C822 C823 1.391 1_455 S
C823 H811 0.950 1_655 S
C823 C819 1.393 . S
C823 C822 1.391 1_655 S
H824 C832 0.950 . S
H825 C837 0.950 1_565 S
H826 C834 0.950 . S
H827 C836 0.950 . S
H828 C838 0.950 . S
H829 C840 0.950 . S
H830 C842 0.950 . S
H831 C843 0.950 1_545 S
C832 H824 0.950 . S
C832 C833 1.386 . S
C832 C834 1.391 . S
C833 C832 1.386 . S
C833 C837 1.393 . S
C834 H826 0.950 . S
C834 C832 1.391 . S
C834 C835 1.400 . S
C835 C834 1.400 . S
C835 C836 1.398 1_545 S
C835 C841 1.491 1_546 S
C836 H827 0.950 . S
C836 C835 1.398 1_565 S
C836 C837 1.391 1_565 S
C837 H825 0.950 1_545 S
C837 C833 1.393 . S
C837 C836 1.391 1_545 S
C838 H828 0.950 . S
C838 C839 1.386 . S
C838 C840 1.391 . S
C839 C838 1.386 . S
C839 C843 1.393 . S
C840 H829 0.950 . S
C840 C838 1.391 . S
C840 C841 1.400 . S
C841 C835 1.491 1_564 S
C841 C840 1.400 . S
C841 C842 1.398 1_565 S
C842 H830 0.950 . S
C842 C841 1.398 1_545 S
C842 C843 1.391 1_545 S
C843 H831 0.950 1_565 S
C843 C839 1.393 . S
C843 C842 1.391 1_565 S
H844 C852 0.950 . S
H845 C857 0.950 1_455 S
H846 C854 0.950 . S
H847 C856 0.950 . S
H848 C858 0.950 . S
H849 C860 0.950 . S
H850 C862 0.950 . S
H851 C863 0.950 1_655 S
C852 H844 0.950 . S
C852 C853 1.386 . S
C852 C854 1.391 . S
C853 C852 1.386 . S
C853 C857 1.393 . S
C854 H846 0.950 . S
C854 C852 1.391 . S
C854 C855 1.400 . S
C855 C854 1.400 . S
C855 C856 1.398 1_655 S
C855 C861 1.491 1_656 S
C856 H847 0.950 . S
C856 C855 1.398 1_455 S
C856 C857 1.391 1_455 S
C857 H845 0.950 1_655 S
C857 C853 1.393 . S
C857 C856 1.391 1_655 S
C858 H848 0.950 . S
C858 C859 1.386 . S
C858 C860 1.391 . S
C859 C858 1.386 . S
C859 C863 1.393 . S
C860 H849 0.950 . S
C860 C858 1.391 . S
C860 C861 1.400 . S
C861 C855 1.491 1_454 S
C861 C860 1.400 . S
C861 C862 1.398 1_455 S
C862 H850 0.950 . S
C862 C861 1.398 1_655 S
C862 C863 1.391 1_655 S
C863 H851 0.950 1_455 S
C863 C859 1.393 . S
C863 C862 1.391 1_455 S
C233 C11 1.322 . S
C239 C103 1.260 . S
C253 C19 1.255 . S
C259 C67 1.323 . S
C273 C75 1.254 . S
C279 C39 1.326 . S
C293 C47 1.285 . S
C299 C95 1.304 . S
C313 C123 1.321 . S
C319 C215 1.261 . S
C333 C179 1.328 . S
C339 C131 1.249 . S
C353 C187 1.253 . S
C359 C151 1.327 . S
C373 C207 1.318 . S
C379 C159 1.267 . S
C393 C4 1.247 . S
C399 C158 1.223 . S
C413 C26 1.020 . S
C419 C117 0.934 . S
C433 C130 1.221 . S
C439 C32 1.248 . S
C453 C54 1.002 . S
C459 C145 0.896 . S
C473 C60 1.260 . S
C479 C186 1.223 . S
C493 C201 0.936 . S
C499 C82 1.022 . S
C513 C88 1.258 . S
C519 C214 1.248 . S
C533 C173 0.899 . S
C539 C110 0.997 . S
C553 C116 1.265 1_545 S
C559 C46 1.234 . S
C573 C5 0.878 . S
C579 C138 0.987 . S
C593 C144 1.247 1_565 S
C599 C18 1.235 . S
C613 C33 0.907 . S
C619 C166 1.002 . S
C633 C172 1.266 1_565 S
C639 C74 1.241 . S
C653 C89 0.951 . S
C659 C194 1.034 . S
C673 C102 1.233 . S
C679 C200 1.246 1_545 S
C693 C61 0.945 . S
C699 C222 1.028 . S
C713 C68 1.417 . S
C719 C12 1.414 . S
C733 C81 1.696 . S
C739 C25 1.685 . S
C753 C40 1.416 . S
C759 C96 1.413 . S
C773 C109 1.694 . S
C779 C53 1.683 . S
C793 C180 1.412 . S
C799 C124 1.415 . S
C813 C193 1.682 . S
C819 C137 1.692 . S
C833 C152 1.414 . S
C839 C208 1.417 . S
C853 C221 1.687 . S
C859 C165 1.698 . S
