# Generated by pormake.
# Topology npo, (4)-cn, num edge types: 1
# Building blocks:
#     Node 0, Type 0, BuildingBlock: GALJAG_clean_sbu_0, # of connection points: 4
#     Node 1, Type 0, BuildingBlock: GALJAG_clean_sbu_0, # of connection points: 4
#     Node 2, Type 0, BuildingBlock: GALJAG_clean_sbu_0, # of connection points: 4
#     Node 3, Type 0, BuildingBlock: GALJAG_clean_sbu_0, # of connection points: 4
#     Node 4, Type 0, BuildingBlock: GALJAG_clean_sbu_0, # of connection points: 4
#     Node 5, Type 0, BuildingBlock: GALJAG_clean_sbu_0, # of connection points: 4
#     Edge 6, Type (0, 0), BuildingBlock: TEMPAE_clean_linker_10, # of connection points: 2
#     Edge 7, Type (0, 0), BuildingBlock: TEMPAE_clean_linker_10, # of connection points: 2
#     Edge 8, Type (0, 0), BuildingBlock: TEMPAE_clean_linker_10, # of connection points: 2
#     Edge 9, Type (0, 0), BuildingBlock: TEMPAE_clean_linker_10, # of connection points: 2
#     Edge 10, Type (0, 0), BuildingBlock: TEMPAE_clean_linker_10, # of connection points: 2
#     Edge 11, Type (0, 0), BuildingBlock: TEMPAE_clean_linker_10, # of connection points: 2
#     Edge 12, Type (0, 0), BuildingBlock: TEMPAE_clean_linker_10, # of connection points: 2
#     Edge 13, Type (0, 0), BuildingBlock: TEMPAE_clean_linker_10, # of connection points: 2
#     Edge 14, Type (0, 0), BuildingBlock: TEMPAE_clean_linker_10, # of connection points: 2
#     Edge 15, Type (0, 0), BuildingBlock: TEMPAE_clean_linker_10, # of connection points: 2
#     Edge 16, Type (0, 0), BuildingBlock: TEMPAE_clean_linker_10, # of connection points: 2
#     Edge 17, Type (0, 0), BuildingBlock: TEMPAE_clean_linker_10, # of connection points: 2
# Relax obj value: 0.168
# Max RMSD: 0.203
# Mean RMSD: 0.203
data_MOF--net-npo--node1-GALJAG_clean_sbu_0--edge1-TEMPAE_clean_linker_10
_symmetry_space_group_name_H-M    P1
_symmetry_Int_Tables_number       1
_symmetry_cell_setting            triclinic
loop_
_symmetry_equiv_pos_as_xyz
'x, y, z'
_cell_length_a     47.581748
_cell_length_b     47.584787
_cell_length_c     22.10034
_cell_angle_alpha  89.682001
_cell_angle_beta   89.75936
_cell_angle_gamma 119.47869
loop_
_atom_site_label
_atom_site_type_symbol
_atom_site_fract_x
_atom_site_fract_y
_atom_site_fract_z
_atom_type_partial_charge
In0 In 0.56621 0.11371 0.26658 0.0
O1 O 0.54385 0.09044 0.17729 0.0
O2 O 0.55984 0.06548 0.23545 0.0
C3 C 0.5494 0.16005 0.26707 0.0
C4 C 0.53863 0.08132 0.36927 0.0
C5 C 0.62975 0.14808 0.24189 0.0
O6 O 0.53474 0.13482 0.23591 0.0
O7 O 0.57211 0.16157 0.29868 0.0
O8 O 0.61907 0.13493 0.29288 0.0
O9 O 0.60835 0.14326 0.20349 0.0
C10 C 0.54686 0.06585 0.18609 0.0
O11 O 0.56868 0.0947 0.3598 0.0
O12 O 0.5227 0.08487 0.32738 0.0
In13 In 0.42318 0.55344 0.74379 0.0
O14 O 0.42095 0.53009 0.65329 0.0
O15 O 0.4663 0.55432 0.69775 0.0
C16 C 0.36065 0.53686 0.75814 0.0
C17 C 0.43334 0.52299 0.83665 0.0
C18 C 0.44882 0.61744 0.72639 0.0
O19 O 0.37015 0.5254 0.7165 0.0
O20 O 0.38253 0.55586 0.79313 0.0
O21 O 0.45411 0.60563 0.77339 0.0
O22 O 0.43133 0.59696 0.6877 0.0
C23 C 0.45053 0.53824 0.65266 0.0
O24 O 0.44589 0.5533 0.83384 0.0
O25 O 0.41524 0.50801 0.79301 0.0
In26 In 0.86291 0.42351 0.21775 0.0
O27 O 0.8826 0.42529 0.12313 0.0
O28 O 0.90038 0.46939 0.17111 0.0
C29 C 0.82471 0.35936 0.22884 0.0
C30 C 0.90373 0.4341 0.30932 0.0
C31 C 0.82016 0.44482 0.21104 0.0
O32 O 0.84622 0.3717 0.18822 0.0
O33 O 0.82296 0.37933 0.26367 0.0
O34 O 0.84297 0.45592 0.24858 0.0
O35 O 0.81947 0.42357 0.17619 0.0
C36 C 0.9014 0.45542 0.12352 0.0
O37 O 0.90644 0.42332 0.25899 0.0
O38 O 0.88029 0.43936 0.31353 0.0
In39 In 0.41861 0.86351 0.77311 0.0
O40 O 0.41772 0.88506 0.86386 0.0
O41 O 0.46178 0.88783 0.83578 0.0
C42 C 0.35378 0.83103 0.77085 0.0
C43 C 0.43702 0.91009 0.68871 0.0
C44 C 0.43465 0.81703 0.75615 0.0
O45 O 0.36984 0.8309 0.81598 0.0
O46 O 0.37043 0.8483 0.72685 0.0
O47 O 0.45224 0.84551 0.73703 0.0
O48 O 0.40944 0.81234 0.78348 0.0
C49 C 0.44688 0.89439 0.87555 0.0
O50 O 0.43322 0.88247 0.6771 0.0
O51 O 0.43094 0.91394 0.74269 0.0
In52 In 0.5507 0.4235 0.24104 0.0
O53 O 0.54956 0.44341 0.14809 0.0
O54 O 0.50511 0.41744 0.19609 0.0
C55 C 0.61496 0.44853 0.25141 0.0
C56 C 0.53676 0.45151 0.33273 0.0
C57 C 0.53283 0.3605 0.23203 0.0
O58 O 0.6025 0.45626 0.20873 0.0
O59 O 0.59504 0.42907 0.28959 0.0
O60 O 0.52445 0.37158 0.27601 0.0
O61 O 0.54923 0.38102 0.19176 0.0
C62 C 0.51956 0.43316 0.14909 0.0
O63 O 0.52695 0.4216 0.33136 0.0
O64 O 0.55404 0.4674 0.28815 0.0
In65 In 0.11404 0.56934 0.71136 0.0
O66 O 0.09827 0.55547 0.80895 0.0
O67 O 0.06763 0.5641 0.75077 0.0
C68 C 0.1599 0.55189 0.72093 0.0
C69 C 0.07501 0.53573 0.62017 0.0
C70 C 0.1494 0.63417 0.7063 0.0
O71 O 0.13565 0.54067 0.75572 0.0
O72 O 0.16068 0.57143 0.68143 0.0
O73 O 0.14658 0.61642 0.66205 0.0
O74 O 0.13385 0.61929 0.75309 0.0
C75 C 0.07219 0.55609 0.80283 0.0
O76 O 0.08693 0.56582 0.62516 0.0
O77 O 0.08308 0.52252 0.66091 0.0
C78 C 0.51528 0.18324 0.23128 0.0
C79 C 0.54194 0.18664 0.26404 0.0
C80 C 0.50932 0.2092 0.22481 0.0
C81 C 0.53076 0.23922 0.25122 0.0
C82 C 0.5573 0.24254 0.28542 0.0
C83 C 0.56247 0.21613 0.29167 0.0
C84 C 0.48061 0.20476 0.1886 0.0
C85 C 0.58085 0.27427 0.31392 0.0
C86 C 0.54267 0.31823 0.18716 0.0
C87 C 0.52759 0.32727 0.2315 0.0
C88 C 0.54251 0.28876 0.19143 0.0
C89 C 0.52663 0.26781 0.24097 0.0
C90 C 0.50957 0.27587 0.28371 0.0
C91 C 0.51036 0.30565 0.2786 0.0
C92 C 0.56105 0.28104 0.14502 0.0
C93 C 0.49202 0.25391 0.33668 0.0
H94 H 0.4993 0.16041 0.21002 0.0
H95 H 0.58313 0.21887 0.31694 0.0
H96 H 0.46588 0.21253 0.21534 0.0
H97 H 0.48902 0.22016 0.14732 0.0
H98 H 0.46499 0.17929 0.17473 0.0
H99 H 0.5997 0.27253 0.34053 0.0
H100 H 0.59291 0.29298 0.27817 0.0
H101 H 0.56783 0.28261 0.34422 0.0
H102 H 0.55596 0.33485 0.15058 0.0
H103 H 0.49853 0.31251 0.31281 0.0
H104 H 0.54585 0.25634 0.12721 0.0
H105 H 0.58237 0.2817 0.16666 0.0
H106 H 0.56957 0.29841 0.10643 0.0
H107 H 0.47663 0.22874 0.32124 0.0
H108 H 0.47667 0.2617 0.36136 0.0
H109 H 0.50985 0.25381 0.36876 0.0
C110 C 0.30358 0.50993 0.72252 0.0
C111 C 0.32747 0.53166 0.76148 0.0
C112 C 0.27342 0.50843 0.71916 0.0
C113 C 0.26737 0.52947 0.75499 0.0
C114 C 0.29075 0.5501 0.79689 0.0
C115 C 0.32047 0.55078 0.7999 0.0
C116 C 0.24882 0.48572 0.67473 0.0
C117 C 0.28533 0.57312 0.83554 0.0
C118 C 0.21423 0.56088 0.69191 0.0
C119 C 0.18621 0.54419 0.72729 0.0
C120 C 0.2405 0.55569 0.69967 0.0
C121 C 0.23856 0.53299 0.74352 0.0
C122 C 0.20994 0.51527 0.7781 0.0
C123 C 0.18408 0.52123 0.7698 0.0
C124 C 0.27072 0.57527 0.66219 0.0
C125 C 0.20696 0.49064 0.82474 0.0
H126 H 0.30884 0.49493 0.69308 0.0
H127 H 0.33885 0.56757 0.83023 0.0
H128 H 0.22455 0.47264 0.69621 0.0
H129 H 0.2472 0.49978 0.63601 0.0
H130 H 0.25524 0.46779 0.65695 0.0
H131 H 0.30449 0.5852 0.86992 0.0
H132 H 0.28497 0.59197 0.80626 0.0
H133 H 0.26162 0.56021 0.85905 0.0
H134 H 0.21599 0.57866 0.65898 0.0
H135 H 0.16236 0.50819 0.79706 0.0
H136 H 0.27718 0.55901 0.63742 0.0
H137 H 0.2912 0.59045 0.69226 0.0
H138 H 0.26792 0.59127 0.62884 0.0
H139 H 0.21335 0.47325 0.80432 0.0
H140 H 0.1822 0.47703 0.84423 0.0
H141 H 0.22416 0.50288 0.86203 0.0
C142 C 0.68733 0.17606 0.27429 0.0
C143 C 0.66405 0.17151 0.23102 0.0
C144 C 0.71837 0.20304 0.271 0.0
C145 C 0.72573 0.22616 0.22432 0.0
C146 C 0.70334 0.21991 0.17732 0.0
C147 C 0.67281 0.1924 0.18096 0.0
C148 C 0.74219 0.20825 0.32044 0.0
C149 C 0.71018 0.24399 0.1268 0.0
C150 C 0.77266 0.31422 0.26521 0.0
C151 C 0.80138 0.32461 0.23249 0.0
C152 C 0.74833 0.28194 0.26434 0.0
C153 C 0.7532 0.25931 0.23111 0.0
C154 C 0.78295 0.26926 0.20088 0.0
C155 C 0.80662 0.30205 0.20112 0.0
C156 C 0.71676 0.27244 0.29657 0.0
C157 C 0.78938 0.24565 0.16656 0.0
H158 H 0.68078 0.15956 0.31248 0.0
H159 H 0.65497 0.18873 0.14699 0.0
H160 H 0.76702 0.21855 0.30166 0.0
H161 H 0.74224 0.22569 0.3536 0.0
H162 H 0.73586 0.18541 0.34489 0.0
H163 H 0.69216 0.2337 0.08997 0.0
H164 H 0.70958 0.26537 0.14515 0.0
H165 H 0.73456 0.2525 0.10726 0.0
H166 H 0.76856 0.33163 0.28949 0.0
H167 H 0.829 0.31007 0.1762 0.0
H168 H 0.71118 0.25273 0.32962 0.0
H169 H 0.69681 0.26325 0.26335 0.0
H170 H 0.71715 0.29296 0.32105 0.0
H171 H 0.77977 0.22241 0.19161 0.0
H172 H 0.8156 0.25539 0.15801 0.0
H173 H 0.77705 0.24054 0.12225 0.0
C174 C 0.4715 0.79691 0.71989 0.0
C175 C 0.44242 0.79092 0.74734 0.0
C176 C 0.47863 0.77181 0.71169 0.0
C177 C 0.45604 0.74018 0.73118 0.0
C178 C 0.42667 0.73411 0.75886 0.0
C179 C 0.42028 0.75956 0.76669 0.0
C180 C 0.51018 0.77905 0.68218 0.0
C181 C 0.40182 0.70065 0.78006 0.0
C182 C 0.44795 0.66269 0.67099 0.0
C183 C 0.45803 0.65182 0.72106 0.0
C184 C 0.44994 0.69306 0.67119 0.0
C185 C 0.46235 0.71288 0.72266 0.0
C186 C 0.47549 0.70333 0.77068 0.0
C187 C 0.47314 0.67279 0.76933 0.0
C188 C 0.43588 0.70246 0.61888 0.0
C189 C 0.48925 0.72398 0.82605 0.0
H190 H 0.48867 0.82118 0.70496 0.0
H191 H 0.39774 0.7548 0.78783 0.0
H192 H 0.52404 0.772 0.71301 0.0
H193 H 0.50548 0.7646 0.64046 0.0
H194 H 0.52531 0.80502 0.67021 0.0
H195 H 0.38024 0.70011 0.80076 0.0
H196 H 0.39383 0.68375 0.74138 0.0
H197 H 0.41262 0.69154 0.81392 0.0
H198 H 0.43658 0.64667 0.63321 0.0
H199 H 0.4813 0.66461 0.80786 0.0
H200 H 0.45159 0.7282 0.60627 0.0
H201 H 0.41202 0.69935 0.6325 0.0
H202 H 0.43246 0.68737 0.57843 0.0
H203 H 0.50485 0.7497 0.81315 0.0
H204 H 0.50353 0.71605 0.85384 0.0
H205 H 0.4692 0.72236 0.85444 0.0
C206 C 0.6602 0.44258 0.293 0.0
C207 C 0.64941 0.45773 0.25206 0.0
C208 C 0.69103 0.446 0.28716 0.0
C209 C 0.71167 0.46542 0.23974 0.0
C210 C 0.70192 0.48293 0.20144 0.0
C211 C 0.6707 0.47867 0.20776 0.0
C212 C 0.70048 0.4268 0.32882 0.0
C213 C 0.7236 0.50445 0.15132 0.0
C214 C 0.79681 0.47847 0.24865 0.0
C215 C 0.79434 0.45342 0.21195 0.0
C216 C 0.77063 0.48407 0.25545 0.0
C217 C 0.7413 0.46373 0.22571 0.0
C218 C 0.73925 0.43937 0.18646 0.0
C219 C 0.76592 0.4347 0.17969 0.0
C220 C 0.77389 0.51071 0.29657 0.0
C221 C 0.70828 0.41698 0.15429 0.0
H222 H 0.64387 0.42649 0.32753 0.0
H223 H 0.66252 0.49067 0.17636 0.0
H224 H 0.70171 0.40756 0.30273 0.0
H225 H 0.72474 0.44248 0.34799 0.0
H226 H 0.68298 0.41529 0.36671 0.0
H227 H 0.71489 0.5205 0.13268 0.0
H228 H 0.74864 0.51955 0.16773 0.0
H229 H 0.72441 0.48934 0.11406 0.0
H230 H 0.81889 0.49314 0.27331 0.0
H231 H 0.76394 0.41534 0.15122 0.0
H232 H 0.75986 0.50006 0.33881 0.0
H233 H 0.76389 0.52492 0.27474 0.0
H234 H 0.79943 0.52731 0.30883 0.0
H235 H 0.6893 0.40217 0.18808 0.0
H236 H 0.71125 0.40046 0.12288 0.0
H237 H 0.69954 0.43109 0.12816 0.0
C238 C 0.30509 0.78039 0.8015 0.0
C239 C 0.31892 0.80865 0.76636 0.0
C240 C 0.2738 0.75552 0.79014 0.0
C241 C 0.25553 0.75959 0.74394 0.0
C242 C 0.26829 0.78933 0.71223 0.0
C243 C 0.30025 0.81339 0.72293 0.0
C244 C 0.26142 0.72392 0.82422 0.0
C245 C 0.24897 0.79513 0.66476 0.0
C246 C 0.20073 0.68023 0.66992 0.0
C247 C 0.17316 0.66876 0.7066 0.0
C248 C 0.22716 0.71098 0.67877 0.0
C249 C 0.22535 0.73105 0.72392 0.0
C250 C 0.19618 0.72088 0.75639 0.0
C251 C 0.17054 0.68942 0.74831 0.0
C252 C 0.25803 0.7206 0.64394 0.0
C253 C 0.19281 0.74231 0.80253 0.0
H254 H 0.31955 0.77671 0.83507 0.0
H255 H 0.31089 0.83546 0.69621 0.0
H256 H 0.2377 0.71683 0.84553 0.0
H257 H 0.25787 0.70456 0.79223 0.0
H258 H 0.27828 0.72518 0.86009 0.0
H259 H 0.25862 0.82133 0.65615 0.0
H260 H 0.2501 0.78388 0.62166 0.0
H261 H 0.22321 0.7841 0.67848 0.0
H262 H 0.20271 0.6642 0.63762 0.0
H263 H 0.14895 0.68063 0.77607 0.0
H264 H 0.27677 0.72196 0.67544 0.0
H265 H 0.26729 0.74481 0.62305 0.0
H266 H 0.25471 0.70315 0.60772 0.0
H267 H 0.20461 0.74158 0.84522 0.0
H268 H 0.16706 0.7343 0.81274 0.0
H269 H 0.20483 0.76776 0.78639 0.0
C270 C 0.49676 0.93148 0.93131 0.0
C271 C 0.46299 0.91428 0.92852 0.0
C272 C 0.51241 0.95431 0.97668 0.0
C273 C 0.49372 0.95963 0.02028 0.0
C274 C 0.45966 0.94072 0.02002 0.0
C275 C 0.44466 0.91833 0.9738 0.0
C276 C 0.5488 0.97416 0.97553 0.0
C277 C 0.43897 0.94545 0.0664 0.0
C278 C 0.53265 0.00958 0.15952 0.0
C279 C 0.53513 0.03918 0.14278 0.0
C280 C 0.51969 0.98344 0.11969 0.0
C281 C 0.50939 0.9873 0.06185 0.0
C282 C 0.51273 0.01744 0.04417 0.0
C283 C 0.52542 0.043 0.08507 0.0
C284 C 0.51617 0.95151 0.14003 0.0
C285 C 0.50229 0.02251 0.98248 0.0
H286 H 0.51097 0.9283 0.89632 0.0
H287 H 0.41852 0.90479 0.97198 0.0
H288 H 0.55613 -0.00068 0.96181 0.0
H289 H 0.55873 0.97509 0.02125 0.0
H290 H 0.55984 0.96445 0.94336 0.0
H291 H 0.41324 0.92631 0.06413 0.0
H292 H 0.44794 0.94562 0.11272 0.0
H293 H 0.44037 0.96917 0.05866 0.0
H294 H 0.54012 0.00661 0.20428 0.0
H295 H 0.52752 0.06596 0.07198 0.0
H296 H 0.52782 0.943 0.10682 0.0
H297 H 0.49021 0.93304 0.14226 0.0
H298 H 0.52698 0.95302 0.18519 0.0
H299 H 0.51427 0.01587 0.94657 0.0
H300 H 0.50806 0.0479 0.9748 0.0
H301 H 0.47586 0.00661 0.97758 0.0
C302 C 0.53404 0.49847 0.37554 0.0
C303 C 0.5273 0.46639 0.38114 0.0
C304 C 0.52315 0.51218 0.41932 0.0
C305 C 0.5054 0.49336 0.46991 0.0
C306 C 0.49931 0.46125 0.47659 0.0
C307 C 0.51024 0.44809 0.4319 0.0
C308 C 0.52991 0.54646 0.41069 0.0
C309 C 0.4807 0.44058 0.53031 0.0
C310 C 0.49684 0.53391 0.61029 0.0
C311 C 0.46528 0.52856 0.60421 0.0
C312 C 0.5105 0.52307 0.56629 0.0
C313 C 0.49217 0.50678 0.51498 0.0
C314 C 0.46061 0.5021 0.50782 0.0
C315 C 0.44746 0.51295 0.55276 0.0
C316 C 0.54416 0.52829 0.57549 0.0
C317 C 0.44048 0.48504 0.45332 0.0
H318 H 0.54717 0.51265 0.33622 0.0
H319 H 0.50511 0.4233 0.43643 0.0
H320 H 0.50681 0.54669 0.40598 0.0
H321 H 0.54229 0.56106 0.45096 0.0
H322 H 0.5451 0.55821 0.37003 0.0
H323 H 0.47932 0.41658 0.53008 0.0
H324 H 0.49218 0.45297 0.57303 0.0
H325 H 0.45578 0.43685 0.53033 0.0
H326 H 0.51066 0.54596 0.65012 0.0
H327 H 0.42309 0.50891 0.54786 0.0
H328 H 0.55963 0.54097 0.5357 0.0
H329 H 0.54329 0.50462 0.57965 0.0
H330 H 0.55568 0.54258 0.61664 0.0
H331 H 0.45386 0.49694 0.4111 0.0
H332 H 0.41702 0.48482 0.45314 0.0
H333 H 0.43563 0.45973 0.45264 0.0
C334 C 0.05271 0.53425 0.90646 0.0
C335 C 0.04788 0.54606 0.85159 0.0
C336 C 0.02849 0.52162 0.951 0.0
C337 C -0.00113 0.52097 0.94029 0.0
C338 C -0.00566 0.53406 0.88599 0.0
C339 C 0.01895 0.54642 0.8421 0.0
C340 C 0.03415 0.50787 0.0085 0.0
C341 C 0.96313 0.53397 0.8734 0.0
C342 C 0.92668 0.45563 0.02456 0.0
C343 C 0.92438 0.47271 0.07395 0.0
C344 C 0.95034 0.4713 0.97974 0.0
C345 C 0.97205 0.50483 0.98454 0.0
C346 C 0.96911 0.52241 0.03318 0.0
C347 C 0.94528 0.50609 0.07749 0.0
C348 C 0.9528 0.45179 0.92838 0.0
C349 C -0.00825 0.55823 0.03943 0.0
H350 H 0.07509 0.53401 0.91397 0.0
H351 H 0.0152 0.55567 0.79975 0.0
H352 H 0.0295 0.51897 0.04857 0.0
H353 H 0.01706 0.48153 0.01105 0.0
H354 H 0.05915 0.51185 0.01119 0.0
H355 H 0.96444 0.54736 0.83118 0.0
H356 H 0.94322 0.50874 0.86909 0.0
H357 H 0.95684 0.54491 0.91164 0.0
H358 H 0.91051 0.42983 0.02168 0.0
H359 H 0.94347 0.51938 0.11559 0.0
H360 H 0.97627 0.45214 0.93054 0.0
H361 H 0.95202 0.46262 0.88427 0.0
H362 H 0.93308 0.42626 0.92972 0.0
H363 H 0.01664 0.56276 0.04737 0.0
H364 H 0.98472 0.56874 0.07742 0.0
H365 H -0.00769 0.57105 -0.00302 0.0
C366 C 0.54138 0.05491 0.46493 0.0
C367 C 0.52293 0.06053 0.4224 0.0
C368 C 0.52647 0.03208 0.51142 0.0
C369 C 0.49236 0.01459 0.51524 0.0
C370 C 0.47365 0.02133 0.47425 0.0
C371 C 0.48921 0.04428 0.42818 0.0
C372 C 0.54718 0.02559 0.55461 0.0
C373 C 0.43722 0.00323 0.47723 0.0
C374 C 0.45625 0.93098 0.58449 0.0
C375 C 0.44916 0.93635 0.64342 0.0
C376 C 0.46977 0.9562 0.54197 0.0
C377 C 0.47632 0.98747 0.55897 0.0
C378 C 0.46851 -0.0071 0.61798 0.0
C379 C 0.45498 0.9672 0.65963 0.0
C380 C 0.47772 0.94953 0.47926 0.0
C381 C 0.47511 0.02595 0.63747 0.0
H382 H 0.56748 0.06754 0.46069 0.0
H383 H 0.47486 0.04869 0.39548 0.0
H384 H 0.54017 0.02669 0.6021 0.0
H385 H 0.54333 0.0009 0.54723 0.0
H386 H 0.5733 0.04308 0.54861 0.0
H387 H 0.42638 0.01352 0.44583 0.0
H388 H 0.42815 0.97759 0.46526 0.0
H389 H 0.42872 0.00358 0.52389 0.0
H390 H 0.45172 0.90714 0.57181 0.0
H391 H 0.44948 0.97141 0.70522 0.0
H392 H 0.50411 0.96401 0.47091 0.0
H393 H 0.46567 0.95688 0.44474 0.0
H394 H 0.47013 0.92363 0.47274 0.0
H395 H 0.50146 0.04304 0.63589 0.0
H396 H 0.46612 0.02576 0.68404 0.0
H397 H 0.46356 0.03533 0.60585 0.0
C398 C 0.45852 0.52387 0.93559 0.0
C399 C 0.44105 0.50655 0.88507 0.0
C400 C 0.46849 0.50936 0.97946 0.0
C401 C 0.46108 0.4769 0.97209 0.0
C402 C 0.44257 0.45898 0.92215 0.0
C403 C 0.4326 0.47402 0.87926 0.0
C404 C 0.48789 0.52911 0.03261 0.0
C405 C 0.43442 0.42439 0.91273 0.0
C406 C 0.51987 0.45631 0.04773 0.0
C407 C 0.50321 0.44115 0.10112 0.0
C408 C 0.50584 0.46695 0.00418 0.0
C409 C 0.47457 0.46256 0.01472 0.0
C410 C 0.45718 0.44627 0.0676 0.0
C411 C 0.4717 0.4356 0.11018 0.0
C412 C 0.52496 0.48391 0.94791 0.0
C413 C 0.42384 0.44134 0.08038 0.0
H414 H 0.4649 0.54898 0.94033 0.0
H415 H 0.41911 0.46059 0.84013 0.0
H416 H 0.47688 0.51617 0.07566 0.0
H417 H 0.51269 0.53257 0.03008 0.0
H418 H 0.48958 0.55323 0.03394 0.0
H419 H 0.41787 0.41313 0.87403 0.0
H420 H 0.45691 0.42341 0.90402 0.0
H421 H 0.42304 0.4098 0.9541 0.0
H422 H 0.54418 0.46047 0.0405 0.0
H423 H 0.45878 0.42391 0.15153 0.0
H424 H 0.53068 0.5095 0.94802 0.0
H425 H 0.51048 0.4726 0.90692 0.0
H426 H 0.54795 0.48329 0.94454 0.0
H427 H 0.42527 0.46509 0.08727 0.0
H428 H 0.41264 0.42611 0.12126 0.0
H429 H 0.40783 0.42987 0.04119 0.0
C430 C 0.03353 0.48357 0.57638 0.0
C431 C 0.05178 0.51731 0.57263 0.0
C432 C 0.00922 0.46612 0.53427 0.0
C433 C 0.00343 0.48294 0.48738 0.0
C434 C 0.02267 0.51689 0.48214 0.0
C435 C 0.04656 0.5337 0.52508 0.0
C436 C 0.98899 0.42994 0.54126 0.0
C437 C 0.01738 0.5356 0.43225 0.0
C438 C 0.95669 0.44267 0.3463 0.0
C439 C 0.92751 0.44228 0.35779 0.0
C440 C 0.98124 0.45436 0.38952 0.0
C441 C 0.9762 0.46559 0.44542 0.0
C442 C 0.94603 0.46335 0.45862 0.0
C443 C 0.92204 0.45184 0.41439 0.0
C444 C 0.01316 0.45649 0.37395 0.0
C445 C 0.93968 0.47473 0.51817 0.0
H446 H 0.03754 0.47089 0.61329 0.0
H447 H 0.0608 0.55978 0.52195 0.0
H448 H 0.96377 0.42341 0.55275 0.0
H449 H 0.98833 0.41791 0.49802 0.0
H450 H -0.00178 0.42029 0.57726 0.0
H451 H 0.03568 0.56167 0.43256 0.0
H452 H 0.01823 0.5256 0.38749 0.0
H453 H -0.00691 0.53323 0.43734 0.0
H454 H 0.9609 0.43516 0.30256 0.0
H455 H 0.89933 0.45122 0.42354 0.0
H456 H 0.02119 0.44654 0.41137 0.0
H457 H 0.03183 0.48219 0.36777 0.0
H458 H 0.01191 0.44335 0.33176 0.0
H459 H 0.9466 0.4643 0.5565 0.0
H460 H 0.91393 0.4681 0.52381 0.0
H461 H 0.95466 0.50138 0.52081 0.0
loop_
_geom_bond_atom_site_label_1
_geom_bond_atom_site_label_2
_geom_bond_distance
_geom_bond_site_symmetry_2
_ccdc_geom_bond_type
In0 O1 2.294 . S
In0 O2 2.326 . S
In0 O6 2.266 . S
In0 O7 2.326 . S
In0 O8 2.266 . S
In0 O9 2.326 . S
In0 O11 2.294 . S
In0 O12 2.326 . S
O1 In0 2.294 . S
O1 C10 1.240 . S
O2 In0 2.326 . S
O2 C10 1.252 . S
C3 O6 1.252 . S
C3 O7 1.260 . S
C4 O11 1.240 . S
C4 O12 1.252 . S
C5 O8 1.252 . S
C5 O9 1.260 . S
O6 In0 2.266 . S
O6 C3 1.252 . S
O7 In0 2.326 . S
O7 C3 1.260 . S
O8 In0 2.266 . S
O8 C5 1.252 . S
O9 In0 2.326 . S
O9 C5 1.260 . S
C10 O1 1.240 . S
C10 O2 1.252 . S
O11 In0 2.294 . S
O11 C4 1.240 . S
O12 In0 2.326 . S
O12 C4 1.252 . S
In13 O14 2.294 . S
In13 O15 2.326 . S
In13 O19 2.266 . S
In13 O20 2.326 . S
In13 O21 2.266 . S
In13 O22 2.326 . S
In13 O24 2.294 . S
In13 O25 2.326 . S
O14 In13 2.294 . S
O14 C23 1.240 . S
O15 In13 2.326 . S
O15 C23 1.252 . S
C16 O19 1.252 . S
C16 O20 1.260 . S
C17 O24 1.240 . S
C17 O25 1.252 . S
C18 O21 1.252 . S
C18 O22 1.260 . S
O19 In13 2.266 . S
O19 C16 1.252 . S
O20 In13 2.326 . S
O20 C16 1.260 . S
O21 In13 2.266 . S
O21 C18 1.252 . S
O22 In13 2.326 . S
O22 C18 1.260 . S
C23 O14 1.240 . S
C23 O15 1.252 . S
O24 In13 2.294 . S
O24 C17 1.240 . S
O25 In13 2.326 . S
O25 C17 1.252 . S
In26 O27 2.294 . S
In26 O28 2.326 . S
In26 O32 2.266 . S
In26 O33 2.326 . S
In26 O34 2.266 . S
In26 O35 2.326 . S
In26 O37 2.294 . S
In26 O38 2.326 . S
O27 In26 2.294 . S
O27 C36 1.240 . S
O28 In26 2.326 . S
O28 C36 1.252 . S
C29 O32 1.252 . S
C29 O33 1.260 . S
C30 O37 1.240 . S
C30 O38 1.252 . S
C31 O34 1.252 . S
C31 O35 1.260 . S
O32 In26 2.266 . S
O32 C29 1.252 . S
O33 In26 2.326 . S
O33 C29 1.260 . S
O34 In26 2.266 . S
O34 C31 1.252 . S
O35 In26 2.326 . S
O35 C31 1.260 . S
C36 O27 1.240 . S
C36 O28 1.252 . S
O37 In26 2.294 . S
O37 C30 1.240 . S
O38 In26 2.326 . S
O38 C30 1.252 . S
In39 O40 2.294 . S
In39 O41 2.326 . S
In39 O45 2.266 . S
In39 O46 2.326 . S
In39 O47 2.266 . S
In39 O48 2.326 . S
In39 O50 2.294 . S
In39 O51 2.326 . S
O40 In39 2.294 . S
O40 C49 1.240 . S
O41 In39 2.326 . S
O41 C49 1.252 . S
C42 O45 1.252 . S
C42 O46 1.260 . S
C43 O50 1.240 . S
C43 O51 1.252 . S
C44 O47 1.252 . S
C44 O48 1.260 . S
O45 In39 2.266 . S
O45 C42 1.252 . S
O46 In39 2.326 . S
O46 C42 1.260 . S
O47 In39 2.266 . S
O47 C44 1.252 . S
O48 In39 2.326 . S
O48 C44 1.260 . S
C49 O40 1.240 . S
C49 O41 1.252 . S
O50 In39 2.294 . S
O50 C43 1.240 . S
O51 In39 2.326 . S
O51 C43 1.252 . S
In52 O53 2.294 . S
In52 O54 2.326 . S
In52 O58 2.266 . S
In52 O59 2.326 . S
In52 O60 2.266 . S
In52 O61 2.326 . S
In52 O63 2.294 . S
In52 O64 2.326 . S
O53 In52 2.294 . S
O53 C62 1.240 . S
O54 In52 2.326 . S
O54 C62 1.252 . S
C55 O58 1.252 . S
C55 O59 1.260 . S
C56 O63 1.240 . S
C56 O64 1.252 . S
C57 O60 1.252 . S
C57 O61 1.260 . S
O58 In52 2.266 . S
O58 C55 1.252 . S
O59 In52 2.326 . S
O59 C55 1.260 . S
O60 In52 2.266 . S
O60 C57 1.252 . S
O61 In52 2.326 . S
O61 C57 1.260 . S
C62 O53 1.240 . S
C62 O54 1.252 . S
O63 In52 2.294 . S
O63 C56 1.240 . S
O64 In52 2.326 . S
O64 C56 1.252 . S
In65 O66 2.294 . S
In65 O67 2.326 . S
In65 O71 2.266 . S
In65 O72 2.326 . S
In65 O73 2.266 . S
In65 O74 2.326 . S
In65 O76 2.294 . S
In65 O77 2.326 . S
O66 In65 2.294 . S
O66 C75 1.240 . S
O67 In65 2.326 . S
O67 C75 1.252 . S
C68 O71 1.252 . S
C68 O72 1.260 . S
C69 O76 1.240 . S
C69 O77 1.252 . S
C70 O73 1.252 . S
C70 O74 1.260 . S
O71 In65 2.266 . S
O71 C68 1.252 . S
O72 In65 2.326 . S
O72 C68 1.260 . S
O73 In65 2.266 . S
O73 C70 1.252 . S
O74 In65 2.326 . S
O74 C70 1.260 . S
C75 O66 1.240 . S
C75 O67 1.252 . S
O76 In65 2.294 . S
O76 C69 1.240 . S
O77 In65 2.326 . S
O77 C69 1.252 . S
C78 C79 1.391 . S
C78 C80 1.394 . S
C78 H94 0.931 . S
C79 C78 1.391 . S
C79 C83 1.376 . S
C80 C78 1.394 . S
C80 C81 1.369 . S
C80 C84 1.531 . S
C81 C80 1.369 . S
C81 C82 1.410 . S
C81 C89 1.503 . S
C82 C81 1.410 . S
C82 C83 1.392 . S
C82 C85 1.511 . S
C83 C79 1.376 . S
C83 C82 1.392 . S
C83 H95 0.929 . S
C84 C80 1.531 . S
C84 H96 0.960 . S
C84 H97 0.962 . S
C84 H98 0.960 . S
C85 C82 1.511 . S
C85 H99 0.961 . S
C85 H100 0.961 . S
C85 H101 0.961 . S
C86 C87 1.370 . S
C86 C88 1.363 . S
C86 H102 0.931 . S
C87 C86 1.370 . S
C87 C91 1.408 . S
C88 C86 1.363 . S
C88 C89 1.370 . S
C88 C92 1.524 . S
C89 C81 1.503 . S
C89 C88 1.370 . S
C89 C90 1.403 . S
C90 C89 1.403 . S
C90 C91 1.404 . S
C90 C93 1.539 . S
C91 C87 1.408 . S
C91 C90 1.404 . S
C91 H103 0.930 . S
C92 C88 1.524 . S
C92 H104 0.956 . S
C92 H105 0.961 . S
C92 H106 0.961 . S
C93 C90 1.539 . S
C93 H107 0.958 . S
C93 H108 0.961 . S
C93 H109 0.960 . S
H94 C78 0.931 . S
H95 C83 0.929 . S
H96 C84 0.960 . S
H97 C84 0.962 . S
H98 C84 0.960 . S
H99 C85 0.961 . S
H100 C85 0.961 . S
H101 C85 0.961 . S
H102 C86 0.931 . S
H103 C91 0.930 . S
H104 C92 0.956 . S
H105 C92 0.961 . S
H106 C92 0.961 . S
H107 C93 0.958 . S
H108 C93 0.961 . S
H109 C93 0.960 . S
C110 C111 1.391 . S
C110 C112 1.394 . S
C110 H126 0.931 . S
C111 C110 1.391 . S
C111 C115 1.376 . S
C112 C110 1.394 . S
C112 C113 1.369 . S
C112 C116 1.531 . S
C113 C112 1.369 . S
C113 C114 1.410 . S
C113 C121 1.503 . S
C114 C113 1.410 . S
C114 C115 1.392 . S
C114 C117 1.511 . S
C115 C111 1.376 . S
C115 C114 1.392 . S
C115 H127 0.929 . S
C116 C112 1.531 . S
C116 H128 0.960 . S
C116 H129 0.962 . S
C116 H130 0.960 . S
C117 C114 1.511 . S
C117 H131 0.961 . S
C117 H132 0.961 . S
C117 H133 0.961 . S
C118 C119 1.370 . S
C118 C120 1.363 . S
C118 H134 0.931 . S
C119 C118 1.370 . S
C119 C123 1.408 . S
C120 C118 1.363 . S
C120 C121 1.370 . S
C120 C124 1.524 . S
C121 C113 1.503 . S
C121 C120 1.370 . S
C121 C122 1.403 . S
C122 C121 1.403 . S
C122 C123 1.404 . S
C122 C125 1.539 . S
C123 C119 1.408 . S
C123 C122 1.404 . S
C123 H135 0.930 . S
C124 C120 1.524 . S
C124 H136 0.956 . S
C124 H137 0.961 . S
C124 H138 0.961 . S
C125 C122 1.539 . S
C125 H139 0.958 . S
C125 H140 0.961 . S
C125 H141 0.960 . S
H126 C110 0.931 . S
H127 C115 0.929 . S
H128 C116 0.960 . S
H129 C116 0.962 . S
H130 C116 0.960 . S
H131 C117 0.961 . S
H132 C117 0.961 . S
H133 C117 0.961 . S
H134 C118 0.931 . S
H135 C123 0.930 . S
H136 C124 0.956 . S
H137 C124 0.961 . S
H138 C124 0.961 . S
H139 C125 0.958 . S
H140 C125 0.961 . S
H141 C125 0.960 . S
C142 C143 1.391 . S
C142 C144 1.394 . S
C142 H158 0.931 . S
C143 C142 1.391 . S
C143 C147 1.376 . S
C144 C142 1.394 . S
C144 C145 1.369 . S
C144 C148 1.531 . S
C145 C144 1.369 . S
C145 C146 1.410 . S
C145 C153 1.503 . S
C146 C145 1.410 . S
C146 C147 1.392 . S
C146 C149 1.511 . S
C147 C143 1.376 . S
C147 C146 1.392 . S
C147 H159 0.929 . S
C148 C144 1.531 . S
C148 H160 0.960 . S
C148 H161 0.962 . S
C148 H162 0.960 . S
C149 C146 1.511 . S
C149 H163 0.961 . S
C149 H164 0.961 . S
C149 H165 0.961 . S
C150 C151 1.370 . S
C150 C152 1.363 . S
C150 H166 0.931 . S
C151 C150 1.370 . S
C151 C155 1.408 . S
C152 C150 1.363 . S
C152 C153 1.370 . S
C152 C156 1.524 . S
C153 C145 1.503 . S
C153 C152 1.370 . S
C153 C154 1.403 . S
C154 C153 1.403 . S
C154 C155 1.404 . S
C154 C157 1.539 . S
C155 C151 1.408 . S
C155 C154 1.404 . S
C155 H167 0.930 . S
C156 C152 1.524 . S
C156 H168 0.956 . S
C156 H169 0.961 . S
C156 H170 0.961 . S
C157 C154 1.539 . S
C157 H171 0.958 . S
C157 H172 0.961 . S
C157 H173 0.960 . S
H158 C142 0.931 . S
H159 C147 0.929 . S
H160 C148 0.960 . S
H161 C148 0.962 . S
H162 C148 0.960 . S
H163 C149 0.961 . S
H164 C149 0.961 . S
H165 C149 0.961 . S
H166 C150 0.931 . S
H167 C155 0.930 . S
H168 C156 0.956 . S
H169 C156 0.961 . S
H170 C156 0.961 . S
H171 C157 0.958 . S
H172 C157 0.961 . S
H173 C157 0.960 . S
C174 C175 1.391 . S
C174 C176 1.394 . S
C174 H190 0.931 . S
C175 C174 1.391 . S
C175 C179 1.376 . S
C176 C174 1.394 . S
C176 C177 1.369 . S
C176 C180 1.531 . S
C177 C176 1.369 . S
C177 C178 1.410 . S
C177 C185 1.503 . S
C178 C177 1.410 . S
C178 C179 1.392 . S
C178 C181 1.511 . S
C179 C175 1.376 . S
C179 C178 1.392 . S
C179 H191 0.929 . S
C180 C176 1.531 . S
C180 H192 0.960 . S
C180 H193 0.962 . S
C180 H194 0.960 . S
C181 C178 1.511 . S
C181 H195 0.961 . S
C181 H196 0.961 . S
C181 H197 0.961 . S
C182 C183 1.370 . S
C182 C184 1.363 . S
C182 H198 0.931 . S
C183 C182 1.370 . S
C183 C187 1.408 . S
C184 C182 1.363 . S
C184 C185 1.370 . S
C184 C188 1.524 . S
C185 C177 1.503 . S
C185 C184 1.370 . S
C185 C186 1.403 . S
C186 C185 1.403 . S
C186 C187 1.404 . S
C186 C189 1.539 . S
C187 C183 1.408 . S
C187 C186 1.404 . S
C187 H199 0.930 . S
C188 C184 1.524 . S
C188 H200 0.956 . S
C188 H201 0.961 . S
C188 H202 0.961 . S
C189 C186 1.539 . S
C189 H203 0.958 . S
C189 H204 0.961 . S
C189 H205 0.960 . S
H190 C174 0.931 . S
H191 C179 0.929 . S
H192 C180 0.960 . S
H193 C180 0.962 . S
H194 C180 0.960 . S
H195 C181 0.961 . S
H196 C181 0.961 . S
H197 C181 0.961 . S
H198 C182 0.931 . S
H199 C187 0.930 . S
H200 C188 0.956 . S
H201 C188 0.961 . S
H202 C188 0.961 . S
H203 C189 0.958 . S
H204 C189 0.961 . S
H205 C189 0.960 . S
C206 C207 1.391 . S
C206 C208 1.394 . S
C206 H222 0.931 . S
C207 C206 1.391 . S
C207 C211 1.376 . S
C208 C206 1.394 . S
C208 C209 1.369 . S
C208 C212 1.531 . S
C209 C208 1.369 . S
C209 C210 1.410 . S
C209 C217 1.503 . S
C210 C209 1.410 . S
C210 C211 1.392 . S
C210 C213 1.511 . S
C211 C207 1.376 . S
C211 C210 1.392 . S
C211 H223 0.929 . S
C212 C208 1.531 . S
C212 H224 0.960 . S
C212 H225 0.962 . S
C212 H226 0.960 . S
C213 C210 1.511 . S
C213 H227 0.961 . S
C213 H228 0.961 . S
C213 H229 0.961 . S
C214 C215 1.370 . S
C214 C216 1.363 . S
C214 H230 0.931 . S
C215 C214 1.370 . S
C215 C219 1.408 . S
C216 C214 1.363 . S
C216 C217 1.370 . S
C216 C220 1.524 . S
C217 C209 1.503 . S
C217 C216 1.370 . S
C217 C218 1.403 . S
C218 C217 1.403 . S
C218 C219 1.404 . S
C218 C221 1.539 . S
C219 C215 1.408 . S
C219 C218 1.404 . S
C219 H231 0.930 . S
C220 C216 1.524 . S
C220 H232 0.956 . S
C220 H233 0.961 . S
C220 H234 0.961 . S
C221 C218 1.539 . S
C221 H235 0.958 . S
C221 H236 0.961 . S
C221 H237 0.960 . S
H222 C206 0.931 . S
H223 C211 0.929 . S
H224 C212 0.960 . S
H225 C212 0.962 . S
H226 C212 0.960 . S
H227 C213 0.961 . S
H228 C213 0.961 . S
H229 C213 0.961 . S
H230 C214 0.931 . S
H231 C219 0.930 . S
H232 C220 0.956 . S
H233 C220 0.961 . S
H234 C220 0.961 . S
H235 C221 0.958 . S
H236 C221 0.961 . S
H237 C221 0.960 . S
C238 C239 1.391 . S
C238 C240 1.394 . S
C238 H254 0.931 . S
C239 C238 1.391 . S
C239 C243 1.376 . S
C240 C238 1.394 . S
C240 C241 1.369 . S
C240 C244 1.531 . S
C241 C240 1.369 . S
C241 C242 1.410 . S
C241 C249 1.503 . S
C242 C241 1.410 . S
C242 C243 1.392 . S
C242 C245 1.511 . S
C243 C239 1.376 . S
C243 C242 1.392 . S
C243 H255 0.929 . S
C244 C240 1.531 . S
C244 H256 0.960 . S
C244 H257 0.962 . S
C244 H258 0.960 . S
C245 C242 1.511 . S
C245 H259 0.961 . S
C245 H260 0.961 . S
C245 H261 0.961 . S
C246 C247 1.370 . S
C246 C248 1.363 . S
C246 H262 0.931 . S
C247 C246 1.370 . S
C247 C251 1.408 . S
C248 C246 1.363 . S
C248 C249 1.370 . S
C248 C252 1.524 . S
C249 C241 1.503 . S
C249 C248 1.370 . S
C249 C250 1.403 . S
C250 C249 1.403 . S
C250 C251 1.404 . S
C250 C253 1.539 . S
C251 C247 1.408 . S
C251 C250 1.404 . S
C251 H263 0.930 . S
C252 C248 1.524 . S
C252 H264 0.956 . S
C252 H265 0.961 . S
C252 H266 0.961 . S
C253 C250 1.539 . S
C253 H267 0.958 . S
C253 H268 0.961 . S
C253 H269 0.960 . S
H254 C238 0.931 . S
H255 C243 0.929 . S
H256 C244 0.960 . S
H257 C244 0.962 . S
H258 C244 0.960 . S
H259 C245 0.961 . S
H260 C245 0.961 . S
H261 C245 0.961 . S
H262 C246 0.931 . S
H263 C251 0.930 . S
H264 C252 0.956 . S
H265 C252 0.961 . S
H266 C252 0.961 . S
H267 C253 0.958 . S
H268 C253 0.961 . S
H269 C253 0.960 . S
C270 C271 1.391 . S
C270 C272 1.394 . S
C270 H286 0.931 . S
C271 C270 1.391 . S
C271 C275 1.376 . S
C272 C270 1.394 . S
C272 C273 1.369 . S
C272 C276 1.531 1_565 S
C273 C272 1.369 . S
C273 C274 1.410 . S
C273 C281 1.503 1_566 S
C274 C273 1.410 . S
C274 C275 1.392 . S
C274 C277 1.511 . S
C275 C271 1.376 . S
C275 C274 1.392 . S
C275 H287 0.929 . S
C276 C272 1.531 1_545 S
C276 H288 0.960 . S
C276 H289 0.962 1_545 S
C276 H290 0.960 . S
C277 C274 1.511 . S
C277 H291 0.961 . S
C277 H292 0.961 1_556 S
C277 H293 0.961 1_565 S
C278 C279 1.370 . S
C278 C280 1.363 . S
C278 H294 0.931 . S
C279 C278 1.370 . S
C279 C283 1.408 . S
C280 C278 1.363 . S
C280 C281 1.370 . S
C280 C284 1.524 1_545 S
C281 C273 1.503 1_544 S
C281 C280 1.370 . S
C281 C282 1.403 . S
C282 C281 1.403 . S
C282 C283 1.404 . S
C282 C285 1.539 1_554 S
C283 C279 1.408 . S
C283 C282 1.404 . S
C283 H295 0.930 . S
C284 C280 1.524 1_565 S
C284 H296 0.956 . S
C284 H297 0.961 . S
C284 H298 0.961 . S
C285 C282 1.539 1_556 S
C285 H299 0.958 . S
C285 H300 0.961 . S
C285 H301 0.960 . S
H286 C270 0.931 . S
H287 C275 0.929 . S
H288 C276 0.960 . S
H289 C276 0.962 1_565 S
H290 C276 0.960 . S
H291 C277 0.961 . S
H292 C277 0.961 1_554 S
H293 C277 0.961 1_545 S
H294 C278 0.931 . S
H295 C283 0.930 . S
H296 C284 0.956 . S
H297 C284 0.961 . S
H298 C284 0.961 . S
H299 C285 0.958 . S
H300 C285 0.961 . S
H301 C285 0.960 . S
C302 C303 1.391 . S
C302 C304 1.394 . S
C302 H318 0.931 . S
C303 C302 1.391 . S
C303 C307 1.376 . S
C304 C302 1.394 . S
C304 C305 1.369 . S
C304 C308 1.531 . S
C305 C304 1.369 . S
C305 C306 1.410 . S
C305 C313 1.503 . S
C306 C305 1.410 . S
C306 C307 1.392 . S
C306 C309 1.511 . S
C307 C303 1.376 . S
C307 C306 1.392 . S
C307 H319 0.929 . S
C308 C304 1.531 . S
C308 H320 0.960 . S
C308 H321 0.962 . S
C308 H322 0.960 . S
C309 C306 1.511 . S
C309 H323 0.961 . S
C309 H324 0.961 . S
C309 H325 0.961 . S
C310 C311 1.370 . S
C310 C312 1.363 . S
C310 H326 0.931 . S
C311 C310 1.370 . S
C311 C315 1.408 . S
C312 C310 1.363 . S
C312 C313 1.370 . S
C312 C316 1.524 . S
C313 C305 1.503 . S
C313 C312 1.370 . S
C313 C314 1.403 . S
C314 C313 1.403 . S
C314 C315 1.404 . S
C314 C317 1.539 . S
C315 C311 1.408 . S
C315 C314 1.404 . S
C315 H327 0.930 . S
C316 C312 1.524 . S
C316 H328 0.956 . S
C316 H329 0.961 . S
C316 H330 0.961 . S
C317 C314 1.539 . S
C317 H331 0.958 . S
C317 H332 0.961 . S
C317 H333 0.960 . S
H318 C302 0.931 . S
H319 C307 0.929 . S
H320 C308 0.960 . S
H321 C308 0.962 . S
H322 C308 0.960 . S
H323 C309 0.961 . S
H324 C309 0.961 . S
H325 C309 0.961 . S
H326 C310 0.931 . S
H327 C315 0.930 . S
H328 C316 0.956 . S
H329 C316 0.961 . S
H330 C316 0.961 . S
H331 C317 0.958 . S
H332 C317 0.961 . S
H333 C317 0.960 . S
C334 C335 1.391 . S
C334 C336 1.394 . S
C334 H350 0.931 . S
C335 C334 1.391 . S
C335 C339 1.376 . S
C336 C334 1.394 . S
C336 C337 1.369 . S
C336 C340 1.531 1_556 S
C337 C336 1.369 . S
C337 C338 1.410 . S
C337 C345 1.503 1_456 S
C338 C337 1.410 . S
C338 C339 1.392 . S
C338 C341 1.511 1_455 S
C339 C335 1.376 . S
C339 C338 1.392 . S
C339 H351 0.929 . S
C340 C336 1.531 1_554 S
C340 H352 0.960 . S
C340 H353 0.962 . S
C340 H354 0.960 . S
C341 C338 1.511 1_655 S
C341 H355 0.961 . S
C341 H356 0.961 . S
C341 H357 0.961 . S
C342 C343 1.370 . S
C342 C344 1.363 . S
C342 H358 0.931 . S
C343 C342 1.370 . S
C343 C347 1.408 . S
C344 C342 1.363 . S
C344 C345 1.370 . S
C344 C348 1.524 . S
C345 C337 1.503 1_654 S
C345 C344 1.370 . S
C345 C346 1.403 . S
C346 C345 1.403 . S
C346 C347 1.404 . S
C346 C349 1.539 . S
C347 C343 1.408 . S
C347 C346 1.404 . S
C347 H359 0.930 . S
C348 C344 1.524 . S
C348 H360 0.956 1_655 S
C348 H361 0.961 1_554 S
C348 H362 0.961 . S
C349 C346 1.539 . S
C349 H363 0.958 . S
C349 H364 0.961 . S
C349 H365 0.960 1_554 S
H350 C334 0.931 . S
H351 C339 0.929 . S
H352 C340 0.960 . S
H353 C340 0.962 . S
H354 C340 0.960 . S
H355 C341 0.961 . S
H356 C341 0.961 . S
H357 C341 0.961 . S
H358 C342 0.931 . S
H359 C347 0.930 . S
H360 C348 0.956 1_455 S
H361 C348 0.961 1_556 S
H362 C348 0.961 . S
H363 C349 0.958 . S
H364 C349 0.961 . S
H365 C349 0.960 1_556 S
C366 C367 1.391 . S
C366 C368 1.394 . S
C366 H382 0.931 . S
C367 C366 1.391 . S
C367 C371 1.376 . S
C368 C366 1.394 . S
C368 C369 1.369 . S
C368 C372 1.531 . S
C369 C368 1.369 . S
C369 C370 1.410 . S
C369 C377 1.503 1_545 S
C370 C369 1.410 . S
C370 C371 1.392 . S
C370 C373 1.511 . S
C371 C367 1.376 . S
C371 C370 1.392 . S
C371 H383 0.929 . S
C372 C368 1.531 . S
C372 H384 0.960 . S
C372 H385 0.962 1_545 S
C372 H386 0.960 . S
C373 C370 1.511 . S
C373 H387 0.961 . S
C373 H388 0.961 . S
C373 H389 0.961 . S
C374 C375 1.370 . S
C374 C376 1.363 . S
C374 H390 0.931 . S
C375 C374 1.370 . S
C375 C379 1.408 . S
C376 C374 1.363 . S
C376 C377 1.370 . S
C376 C380 1.524 . S
C377 C369 1.503 1_565 S
C377 C376 1.370 . S
C377 C378 1.406 . S
C378 C377 1.406 . S
C378 C379 1.421 . S
C378 C381 1.518 1_565 S
C379 C375 1.408 . S
C379 C378 1.421 . S
C379 H391 0.930 . S
C380 C376 1.524 . S
C380 H392 0.956 . S
C380 H393 0.961 . S
C380 H394 0.961 . S
C381 C378 1.518 1_545 S
C381 H395 0.958 . S
C381 H396 0.961 . S
C381 H397 0.960 . S
H382 C366 0.931 . S
H383 C371 0.929 . S
H384 C372 0.960 . S
H385 C372 0.962 1_565 S
H386 C372 0.960 . S
H387 C373 0.961 . S
H388 C373 0.961 . S
H389 C373 0.961 . S
H390 C374 0.931 . S
H391 C379 0.930 . S
H392 C380 0.956 . S
H393 C380 0.961 . S
H394 C380 0.961 . S
H395 C381 0.958 . S
H396 C381 0.961 . S
H397 C381 0.960 . S
C398 C399 1.391 . S
C398 C400 1.394 . S
C398 H414 0.931 . S
C399 C398 1.391 . S
C399 C403 1.376 . S
C400 C398 1.394 . S
C400 C401 1.369 . S
C400 C404 1.531 1_556 S
C401 C400 1.369 . S
C401 C402 1.410 . S
C401 C409 1.503 1_556 S
C402 C401 1.410 . S
C402 C403 1.392 . S
C402 C405 1.511 . S
C403 C399 1.376 . S
C403 C402 1.392 . S
C403 H415 0.929 . S
C404 C400 1.531 1_554 S
C404 H416 0.960 . S
C404 H417 0.962 . S
C404 H418 0.960 . S
C405 C402 1.511 . S
C405 H419 0.961 . S
C405 H420 0.961 . S
C405 H421 0.961 . S
C406 C407 1.370 . S
C406 C408 1.363 . S
C406 H422 0.931 . S
C407 C406 1.370 . S
C407 C411 1.408 . S
C408 C406 1.363 . S
C408 C409 1.370 . S
C408 C412 1.524 . S
C409 C401 1.503 1_554 S
C409 C408 1.370 . S
C409 C410 1.403 . S
C410 C409 1.403 . S
C410 C411 1.404 . S
C410 C413 1.539 . S
C411 C407 1.408 . S
C411 C410 1.404 . S
C411 H423 0.930 . S
C412 C408 1.524 . S
C412 H424 0.956 . S
C412 H425 0.961 1_554 S
C412 H426 0.961 . S
C413 C410 1.539 . S
C413 H427 0.958 . S
C413 H428 0.961 . S
C413 H429 0.960 1_554 S
H414 C398 0.931 . S
H415 C403 0.929 . S
H416 C404 0.960 . S
H417 C404 0.962 . S
H418 C404 0.960 . S
H419 C405 0.961 . S
H420 C405 0.961 . S
H421 C405 0.961 . S
H422 C406 0.931 . S
H423 C411 0.930 . S
H424 C412 0.956 . S
H425 C412 0.961 1_556 S
H426 C412 0.961 . S
H427 C413 0.958 . S
H428 C413 0.961 . S
H429 C413 0.960 1_556 S
C430 C431 1.391 . S
C430 C432 1.394 . S
C430 H446 0.931 . S
C431 C430 1.391 . S
C431 C435 1.376 . S
C432 C430 1.394 . S
C432 C433 1.369 . S
C432 C436 1.531 . S
C433 C432 1.369 . S
C433 C434 1.410 . S
C433 C441 1.503 1_455 S
C434 C433 1.410 . S
C434 C435 1.392 . S
C434 C437 1.511 1_455 S
C435 C431 1.376 . S
C435 C434 1.392 . S
C435 H447 0.929 . S
C436 C432 1.531 . S
C436 H448 0.960 . S
C436 H449 0.962 . S
C436 H450 0.960 . S
C437 C434 1.511 1_655 S
C437 H451 0.961 . S
C437 H452 0.961 . S
C437 H453 0.961 . S
C438 C439 1.370 . S
C438 C440 1.363 . S
C438 H454 0.931 . S
C439 C438 1.370 . S
C439 C443 1.408 . S
C440 C438 1.363 . S
C440 C441 1.370 . S
C440 C444 1.524 1_655 S
C441 C433 1.503 1_655 S
C441 C440 1.370 . S
C441 C442 1.403 . S
C442 C441 1.403 . S
C442 C443 1.404 . S
C442 C445 1.539 . S
C443 C439 1.408 . S
C443 C442 1.404 . S
C443 H455 0.930 . S
C444 C440 1.524 1_455 S
C444 H456 0.956 . S
C444 H457 0.961 . S
C444 H458 0.961 . S
C445 C442 1.539 . S
C445 H459 0.958 . S
C445 H460 0.961 . S
C445 H461 0.960 . S
H446 C430 0.931 . S
H447 C435 0.929 . S
H448 C436 0.960 . S
H449 C436 0.962 . S
H450 C436 0.960 . S
H451 C437 0.961 . S
H452 C437 0.961 . S
H453 C437 0.961 . S
H454 C438 0.931 . S
H455 C443 0.930 . S
H456 C444 0.956 . S
H457 C444 0.961 . S
H458 C444 0.961 . S
H459 C445 0.958 . S
H460 C445 0.961 . S
H461 C445 0.960 . S
C79 C3 1.159 . S
C87 C57 1.144 . S
C111 C16 1.177 . S
C119 C68 1.147 . S
C143 C5 1.182 . S
C151 C29 1.156 . S
C175 C44 1.179 . S
C183 C18 1.148 . S
C207 C55 1.137 . S
C215 C31 1.149 . S
C239 C42 1.157 . S
C247 C70 1.168 . S
C271 C49 1.428 . S
C279 C10 1.432 . S
C303 C56 1.421 . S
C311 C23 1.430 . S
C335 C75 1.439 . S
C343 C36 1.437 . S
C367 C4 1.428 . S
C375 C43 1.434 . S
C399 C17 1.439 . S
C407 C62 1.437 . S
C431 C69 1.434 . S
C439 C30 1.435 . S
