# Generated by pormake.
# Topology teo, (8)-cn, num edge types: 1
# Building blocks:
#     Node 0, Type 0, BuildingBlock: LIZSOE_clean_sbu_0, # of connection points: 8
#     Node 1, Type 0, BuildingBlock: LIZSOE_clean_sbu_0, # of connection points: 8
#     Node 2, Type 0, BuildingBlock: LIZSOE_clean_sbu_0, # of connection points: 8
#     Node 3, Type 0, BuildingBlock: LIZSOE_clean_sbu_0, # of connection points: 8
#     Node 4, Type 0, BuildingBlock: LIZSOE_clean_sbu_0, # of connection points: 8
#     Node 5, Type 0, BuildingBlock: LIZSOE_clean_sbu_0, # of connection points: 8
#     Node 6, Type 0, BuildingBlock: LIZSOE_clean_sbu_0, # of connection points: 8
#     Node 7, Type 0, BuildingBlock: LIZSOE_clean_sbu_0, # of connection points: 8
#     Node 8, Type 0, BuildingBlock: LIZSOE_clean_sbu_0, # of connection points: 8
#     Node 9, Type 0, BuildingBlock: LIZSOE_clean_sbu_0, # of connection points: 8
#     Node 10, Type 0, BuildingBlock: LIZSOE_clean_sbu_0, # of connection points: 8
#     Node 11, Type 0, BuildingBlock: LIZSOE_clean_sbu_0, # of connection points: 8
#     Node 12, Type 0, BuildingBlock: LIZSOE_clean_sbu_0, # of connection points: 8
#     Node 13, Type 0, BuildingBlock: LIZSOE_clean_sbu_0, # of connection points: 8
#     Node 14, Type 0, BuildingBlock: LIZSOE_clean_sbu_0, # of connection points: 8
#     Node 15, Type 0, BuildingBlock: LIZSOE_clean_sbu_0, # of connection points: 8
#     Node 16, Type 0, BuildingBlock: LIZSOE_clean_sbu_0, # of connection points: 8
#     Node 17, Type 0, BuildingBlock: LIZSOE_clean_sbu_0, # of connection points: 8
#     Node 18, Type 0, BuildingBlock: LIZSOE_clean_sbu_0, # of connection points: 8
#     Node 19, Type 0, BuildingBlock: LIZSOE_clean_sbu_0, # of connection points: 8
#     Node 20, Type 0, BuildingBlock: LIZSOE_clean_sbu_0, # of connection points: 8
#     Node 21, Type 0, BuildingBlock: LIZSOE_clean_sbu_0, # of connection points: 8
#     Node 22, Type 0, BuildingBlock: LIZSOE_clean_sbu_0, # of connection points: 8
#     Node 23, Type 0, BuildingBlock: LIZSOE_clean_sbu_0, # of connection points: 8
#     Edge 24, Type (0, 0), None
#     Edge 25, Type (0, 0), None
#     Edge 26, Type (0, 0), None
#     Edge 27, Type (0, 0), None
#     Edge 28, Type (0, 0), None
#     Edge 29, Type (0, 0), None
#     Edge 30, Type (0, 0), None
#     Edge 31, Type (0, 0), None
#     Edge 32, Type (0, 0), None
#     Edge 33, Type (0, 0), None
#     Edge 34, Type (0, 0), None
#     Edge 35, Type (0, 0), None
#     Edge 36, Type (0, 0), None
#     Edge 37, Type (0, 0), None
#     Edge 38, Type (0, 0), None
#     Edge 39, Type (0, 0), None
#     Edge 40, Type (0, 0), None
#     Edge 41, Type (0, 0), None
#     Edge 42, Type (0, 0), None
#     Edge 43, Type (0, 0), None
#     Edge 44, Type (0, 0), None
#     Edge 45, Type (0, 0), None
#     Edge 46, Type (0, 0), None
#     Edge 47, Type (0, 0), None
#     Edge 48, Type (0, 0), None
#     Edge 49, Type (0, 0), None
#     Edge 50, Type (0, 0), None
#     Edge 51, Type (0, 0), None
#     Edge 52, Type (0, 0), None
#     Edge 53, Type (0, 0), None
#     Edge 54, Type (0, 0), None
#     Edge 55, Type (0, 0), None
#     Edge 56, Type (0, 0), None
#     Edge 57, Type (0, 0), None
#     Edge 58, Type (0, 0), None
#     Edge 59, Type (0, 0), None
#     Edge 60, Type (0, 0), None
#     Edge 61, Type (0, 0), None
#     Edge 62, Type (0, 0), None
#     Edge 63, Type (0, 0), None
#     Edge 64, Type (0, 0), None
#     Edge 65, Type (0, 0), None
#     Edge 66, Type (0, 0), None
#     Edge 67, Type (0, 0), None
#     Edge 68, Type (0, 0), None
#     Edge 69, Type (0, 0), None
#     Edge 70, Type (0, 0), None
#     Edge 71, Type (0, 0), None
#     Edge 72, Type (0, 0), None
#     Edge 73, Type (0, 0), None
#     Edge 74, Type (0, 0), None
#     Edge 75, Type (0, 0), None
#     Edge 76, Type (0, 0), None
#     Edge 77, Type (0, 0), None
#     Edge 78, Type (0, 0), None
#     Edge 79, Type (0, 0), None
#     Edge 80, Type (0, 0), None
#     Edge 81, Type (0, 0), None
#     Edge 82, Type (0, 0), None
#     Edge 83, Type (0, 0), None
#     Edge 84, Type (0, 0), None
#     Edge 85, Type (0, 0), None
#     Edge 86, Type (0, 0), None
#     Edge 87, Type (0, 0), None
#     Edge 88, Type (0, 0), None
#     Edge 89, Type (0, 0), None
#     Edge 90, Type (0, 0), None
#     Edge 91, Type (0, 0), None
#     Edge 92, Type (0, 0), None
#     Edge 93, Type (0, 0), None
#     Edge 94, Type (0, 0), None
#     Edge 95, Type (0, 0), None
#     Edge 96, Type (0, 0), None
#     Edge 97, Type (0, 0), None
#     Edge 98, Type (0, 0), None
#     Edge 99, Type (0, 0), None
#     Edge 100, Type (0, 0), None
#     Edge 101, Type (0, 0), None
#     Edge 102, Type (0, 0), None
#     Edge 103, Type (0, 0), None
#     Edge 104, Type (0, 0), None
#     Edge 105, Type (0, 0), None
#     Edge 106, Type (0, 0), None
#     Edge 107, Type (0, 0), None
#     Edge 108, Type (0, 0), None
#     Edge 109, Type (0, 0), None
#     Edge 110, Type (0, 0), None
#     Edge 111, Type (0, 0), None
#     Edge 112, Type (0, 0), None
#     Edge 113, Type (0, 0), None
#     Edge 114, Type (0, 0), None
#     Edge 115, Type (0, 0), None
#     Edge 116, Type (0, 0), None
#     Edge 117, Type (0, 0), None
#     Edge 118, Type (0, 0), None
#     Edge 119, Type (0, 0), None
# Relax obj value: 0.396
# Max RMSD: 0.249
# Mean RMSD: 0.249
data_MOF--net-teo--node1-LIZSOE_clean_sbu_0--edge1-none
_symmetry_space_group_name_H-M    P1
_symmetry_Int_Tables_number       1
_symmetry_cell_setting            triclinic
loop_
_symmetry_equiv_pos_as_xyz
'x, y, z'
_cell_length_a     24.222545
_cell_length_b     23.975973
_cell_length_c     24.048025
_cell_angle_alpha  89.958699
_cell_angle_beta   89.851917
_cell_angle_gamma 89.878952
loop_
_atom_site_label
_atom_site_type_symbol
_atom_site_fract_x
_atom_site_fract_y
_atom_site_fract_z
_atom_type_partial_charge
Co0 Co 0.96154 0.3956 0.38407 0.0
N1 N 0.88576 0.40587 0.36364 0.0
C2 C 0.84161 0.37756 0.3855 0.0
N3 N 0.80775 0.42205 0.31531 0.0
C4 C 0.86355 0.4287 0.31788 0.0
C5 C 0.79491 0.3872 0.35633 0.0
Co6 Co 0.11225 0.19118 0.36467 0.0
N7 N 0.18499 0.1751 0.33249 0.0
N8 N 0.27041 0.14877 0.30277 0.0
C9 C 0.27232 0.20296 0.31371 0.0
C10 C 0.22147 0.21853 0.33104 0.0
C11 C 0.2175 0.13282 0.31356 0.0
Co12 Co 0.04246 0.29545 0.41303 0.0
C13 C 1.02521 0.17742 0.34814 0.0
H14 H 0.21374 0.26057 0.34369 0.0
O15 O 1.03799 0.38232 0.39873 0.0
O16 O 0.10619 0.28548 0.47439 0.0
O17 O 0.98226 0.3026 0.48285 0.0
O18 O 0.98471 0.28128 0.35783 0.0
O19 O 0.96391 0.35814 0.31867 0.0
O20 O 0.15413 0.24077 0.41307 0.0
O21 O 0.04206 0.20915 0.39215 0.0
O22 O 0.10621 0.23947 0.30464 0.0
O23 O 0.93089 0.33676 0.42434 0.0
O24 O 0.99933 0.44768 0.34425 0.0
O25 O 0.10135 0.31149 0.35706 0.0
O26 O 0.06435 0.14946 0.32212 0.0
C27 C 0.93522 0.32858 0.47514 0.0
C28 C 0.19763 0.07601 0.3038 0.0
H29 H 0.21735 0.0576 0.26806 0.0
H30 H 0.21764 0.04845 0.33192 0.0
H31 H 0.15199 0.07288 0.30496 0.0
C32 C 0.1507 0.25662 0.4629 0.0
C33 C 0.96867 0.30711 0.31619 0.0
H34 H 0.8401 0.35267 0.42267 0.0
H35 H 0.87257 0.47526 0.24518 0.0
H36 H 0.92042 0.41911 0.25249 0.0
H37 H 0.92916 0.48107 0.29202 0.0
C38 C 0.89836 0.45297 0.27434 0.0
C39 C 0.04459 0.42118 0.35745 0.0
C40 C 0.11434 0.28984 0.31145 0.0
H41 H 0.75359 0.37418 0.36786 0.0
H42 H 0.30822 0.22957 0.30971 0.0
Co43 Co 0.94055 0.71856 0.63049 0.0
N44 N 0.92924 0.64173 0.61008 0.0
C45 C 0.95665 0.59562 0.62938 0.0
N46 N 0.90516 0.56472 0.56241 0.0
C47 C 0.90154 0.62096 0.56686 0.0
C48 C 0.94173 0.54911 0.60075 0.0
Co49 Co 0.13604 0.87581 0.62809 0.0
N50 N 0.14716 0.95476 0.60455 0.0
N51 N 0.17953 1.03374 0.5651 0.0
C52 C 0.14325 0.04898 0.60382 0.0
C53 C 0.12203 1.00139 0.62612 0.0
C54 C 0.17559 0.97729 0.56218 0.0
Co55 Co 1.04028 0.79509 0.66722 0.0
C56 C 0.16274 0.78818 0.60566 0.0
H57 H 0.09121 1.00285 0.65847 0.0
O58 O 0.95421 0.79618 0.64471 0.0
O59 O 0.05223 0.8597 0.7321 0.0
O60 O 1.02741 0.73724 0.73764 0.0
O61 O 0.06032 0.72975 0.61932 0.0
O62 O 0.98731 0.71862 0.57105 0.0
O63 O 0.07666 0.90829 0.66711 0.0
O64 O 0.12559 0.79693 0.64801 0.0
O65 O 0.10071 0.86797 0.56307 0.0
O66 O 0.99173 0.68513 0.67869 0.0
O67 O 0.89457 0.75705 0.58469 0.0
O68 O 1.02496 0.84863 0.60382 0.0
O69 O 0.18403 0.83454 0.58884 0.0
C70 C 0.99998 0.69093 0.72917 0.0
C71 C 0.17051 0.95077 0.50869 0.0
H72 H 0.13114 0.96554 0.49145 0.0
H73 H 0.20686 0.96233 0.48584 0.0
H74 H 0.16726 0.90578 0.51126 0.0
C75 C 0.07607 0.90647 0.71895 0.0
C76 C 1.03671 0.7079 0.57892 0.0
H77 H 0.98515 0.59321 0.66364 0.0
H78 H 0.85659 0.63357 0.49396 0.0
H79 H 0.84524 0.68433 0.54961 0.0
H80 H 0.90598 0.6865 0.51195 0.0
C81 C 0.87476 0.65769 0.52773 0.0
C82 C 0.91843 0.80295 0.60021 0.0
C83 C 0.05068 0.86415 0.56091 0.0
H84 H 0.95361 0.50652 0.61009 0.0
H85 H 0.13375 0.09145 0.61597 0.0
Co86 Co 0.4757 0.90214 0.86497 0.0
N87 N 0.40965 0.92216 0.8275 0.0
C88 C 0.41805 0.92838 0.7734 0.0
N89 N 0.33117 0.94448 0.78349 0.0
C90 C 0.35314 0.92431 0.83117 0.0
C91 C 0.37112 0.93771 0.74608 0.0
Co92 Co 0.61681 0.696 0.88208 0.0
N93 N 0.69137 0.68286 0.8582 0.0
N94 N 0.76711 0.66102 0.80786 0.0
C95 C 0.78251 0.69757 0.84644 0.0
C96 C 0.73699 0.71071 0.87688 0.0
C97 C 0.71151 0.65671 0.81293 0.0
Co98 Co 0.53672 0.79753 0.91455 0.0
C99 C 0.53308 0.67164 0.85855 0.0
H100 H 0.74022 0.73745 0.91267 0.0
O101 O 0.54392 0.88464 0.89701 0.0
O102 O 0.59805 0.78951 0.98199 0.0
O103 O 0.473 0.80971 0.97577 0.0
O104 O 0.47376 0.78229 0.86182 0.0
O105 O 0.48406 0.84919 0.80693 0.0
O106 O 0.65041 0.75421 0.9232 0.0
O107 O 0.54039 0.71074 0.89943 0.0
O108 O 0.61379 0.73471 0.81659 0.0
O109 O 0.42696 0.86101 0.91616 0.0
O110 O 0.52468 0.93797 0.82155 0.0
O111 O 0.59343 0.81045 0.85751 0.0
O112 O 0.5779 0.64495 0.84392 0.0
C113 C 0.42941 0.84082 0.96521 0.0
C114 C 0.67566 0.6353 0.76931 0.0
H115 H 0.64431 0.60707 0.78654 0.0
H116 H 0.65436 0.67089 0.74955 0.0
H117 H 0.70147 0.61418 0.73858 0.0
C118 C 0.64524 0.76399 0.97397 0.0
C119 C 0.46553 0.80264 0.81485 0.0
H120 H 0.45737 0.92631 0.75537 0.0
H121 H 0.33292 0.87712 0.90627 0.0
H122 H 0.32821 0.83983 0.84287 0.0
H123 H 0.27576 0.88966 0.86001 0.0
C124 C 0.32073 0.88101 0.86256 0.0
C125 C 0.56221 0.91473 0.8516 0.0
C126 C 0.60846 0.78586 0.81469 0.0
H127 H 0.36735 0.94232 0.702 0.0
H128 H 0.82468 0.70928 0.85579 0.0
Co129 Co 0.6445 0.37442 0.12964 0.0
N130 N 0.65806 0.45064 0.11026 0.0
C131 C 0.62863 0.49631 0.12809 0.0
N132 N 0.6814 0.52766 0.06329 0.0
C133 C 0.68782 0.47194 0.06847 0.0
C134 C 0.6426 0.54257 0.09949 0.0
Co135 Co 0.44306 0.22588 0.11437 0.0
N136 N 0.42894 0.1528 0.08599 0.0
N137 N 0.39135 0.07026 0.06431 0.0
C138 C 0.44337 0.0607 0.07905 0.0
C139 C 0.46698 0.11079 0.08918 0.0
C140 C 0.38455 0.12585 0.0662 0.0
Co141 Co 0.54256 0.29846 0.15739 0.0
C142 C 0.42038 0.30982 0.09525 0.0
H143 H 0.50959 0.11424 0.10126 0.0
O144 O 0.62838 0.29832 0.14387 0.0
O145 O 0.53248 0.23315 0.22304 0.0
O146 O 0.5482 0.35864 0.22774 0.0
O147 O 0.53132 0.35969 0.10233 0.0
O148 O 0.60972 0.37335 0.0624 0.0
O149 O 0.50269 0.19055 0.15576 0.0
O150 O 0.45733 0.2991 0.13722 0.0
O151 O 0.48353 0.23467 0.04916 0.0
O152 O 0.58579 0.40877 0.17016 0.0
O153 O 0.69493 0.33395 0.08925 0.0
O154 O 0.55839 0.24211 0.09659 0.0
O155 O 0.39279 0.26641 0.07773 0.0
C156 C 0.57356 0.40631 0.22041 0.0
C157 C 0.33068 0.15116 0.05828 0.0
H158 H 0.30927 0.13063 1.02357 0.0
H159 H 0.30762 0.13998 0.09497 0.0
H160 H 0.33106 0.19676 0.05441 0.0
C161 C 0.50832 0.18745 0.20737 0.0
C162 C 0.55931 0.37878 0.06265 0.0
H163 H 0.59926 0.49932 0.16158 0.0
H164 H 0.75328 0.4628 1.01032 0.0
H165 H 0.70015 0.40832 1.0128 0.0
H166 H 0.74903 0.41171 0.0657 0.0
C167 C 0.7257 0.43743 1.03644 0.0
C168 C 0.6667 0.2895 0.10272 0.0
C169 C 0.53295 0.22344 0.05475 0.0
H170 H 0.62857 0.58477 0.10755 0.0
H171 H 0.46299 1.02051 0.08257 0.0
Co172 Co 0.11919 0.8939 0.20485 0.0
N173 N 0.1956 0.90311 0.22405 0.0
C174 C 0.24008 0.87544 0.20202 0.0
N175 N 0.27305 0.91889 0.27366 0.0
C176 C 0.21732 0.92459 0.27038 0.0
C177 C 0.28667 0.88524 0.23175 0.0
Co178 Co 0.96957 0.69103 0.22672 0.0
N179 N 0.89799 0.6778 0.26038 0.0
N180 N 0.81369 0.6499 0.29124 0.0
C181 C 0.81021 0.70377 0.27825 0.0
C182 C 0.8604 0.72028 0.25993 0.0
C183 C 0.86771 0.6356 0.28167 0.0
Co184 Co 1.03753 0.79441 0.17594 0.0
C185 C 0.05609 0.67716 0.24311 0.0
H186 H 0.86682 0.76163 0.2442 0.0
O187 O 0.04194 0.88159 0.19132 0.0
O188 O 0.97407 0.78263 0.11436 0.0
O189 O 0.0978 0.80233 0.10604 0.0
O190 O 0.09519 0.77942 0.2319 0.0
O191 O 0.11717 0.85604 0.26993 0.0
O192 O 0.92623 0.73577 0.17483 0.0
O193 O 1.03939 0.70797 0.19815 0.0
O194 O 0.97599 0.7415 0.28489 0.0
O195 O 0.14949 0.83526 0.16442 0.0
O196 O 0.08181 0.94627 0.24544 0.0
O197 O 0.97707 0.81135 0.23024 0.0
O198 O 1.01698 0.65118 0.27076 0.0
C199 C 0.14481 0.82821 0.11351 0.0
C200 C 0.89109 0.57983 0.28923 0.0
H201 H 0.86479 0.55345 0.31543 0.0
H202 H 0.89082 0.55981 0.25054 0.0
H203 H 0.93571 0.58076 0.2985 0.0
C204 C 0.93031 0.75219 0.12509 0.0
C205 C 0.11247 0.80518 0.27306 0.0
H206 H 0.24151 0.85092 0.16458 0.0
H207 H 0.20776 0.96298 0.34492 0.0
H208 H 0.15418 0.97816 0.29666 0.0
H209 H 0.15858 0.91243 0.33347 0.0
C210 C 0.18198 0.94639 0.31363 0.0
C211 C 1.03603 0.9206 0.23277 0.0
C212 C 0.9658 0.79119 0.27684 0.0
H213 H 0.32827 0.8731 0.22017 0.0
H214 H 0.77318 0.72918 0.27991 0.0
Co215 Co 0.64035 0.72674 0.47485 0.0
N216 N 0.65436 0.65234 0.50347 0.0
C217 C 0.61653 0.61002 0.5012 0.0
N218 N 0.69191 0.57004 0.52785 0.0
C219 C 0.69845 0.62576 0.52455 0.0
C220 C 0.64004 0.55981 0.51334 0.0
Co221 Co 0.43031 0.86665 0.47291 0.0
N222 N 0.40297 0.93195 0.50516 0.0
N223 N 0.37482 1.01139 0.54401 0.0
C224 C 0.3698 0.97063 0.58107 0.0
C225 C 0.38787 0.9237 0.55824 0.0
C226 C 0.40189 0.9888 0.50014 0.0
Co227 Co 0.53968 0.80084 0.43567 0.0
C228 C 0.417 0.7799 0.49148 0.0
H229 H 0.38796 0.8845 0.58006 0.0
O230 O 0.62522 0.80143 0.45294 0.0
O231 O 0.52841 0.86383 0.37057 0.0
O232 O 0.54943 0.73554 0.36988 0.0
O233 O 0.52803 0.7463 0.49857 0.0
O234 O 0.60563 0.73555 0.54098 0.0
O235 O 0.47894 0.91482 0.42699 0.0
O236 O 0.45451 0.79539 0.45086 0.0
O237 O 0.47848 0.86561 0.53559 0.0
O238 O 0.57849 0.69136 0.43644 0.0
O239 O 0.69174 0.7684 0.50975 0.0
O240 O 0.55091 0.86564 0.48479 0.0
O241 O 0.38661 0.81992 0.50953 0.0
C242 C 0.5725 0.68886 0.38469 0.0
C243 C 0.44975 1.02027 0.47517 0.0
H244 H 0.44396 0.06603 0.47853 0.0
H245 H 0.48763 1.00953 0.49872 0.0
H246 H 0.45769 1.00948 0.43157 0.0
C247 C 0.49963 0.9103 0.37846 0.0
C248 C 0.55528 0.73089 0.5405 0.0
H249 H 0.57409 0.61327 0.48878 0.0
H250 H 0.74971 0.69716 0.53869 0.0
H251 H 0.7729 0.64388 0.49372 0.0
H252 H 0.77475 0.63007 0.56488 0.0
C253 C 0.75154 0.65191 0.53212 0.0
C254 C 0.66301 0.81203 0.49394 0.0
C255 C 0.52529 0.8843 0.52564 0.0
H256 H 0.62022 0.5194 0.51354 0.0
H257 H 0.35207 0.97417 0.62167 0.0
Co258 Co 0.61695 0.40008 0.7213 0.0
N259 N 0.68993 0.41459 0.74624 0.0
C260 C 0.73309 0.37892 0.73624 0.0
N261 N 0.76802 0.44507 0.78484 0.0
C262 C 0.71298 0.45339 0.77915 0.0
C263 C 0.78046 0.39795 0.75861 0.0
Co264 Co 0.45539 0.2084 0.71731 0.0
N265 N 0.38167 0.20751 0.7419 0.0
N266 N 0.30523 0.17781 0.78355 0.0
C267 C 0.2899 0.21399 0.7439 0.0
C268 C 0.33707 0.23317 0.71897 0.0
C269 C 0.36055 0.17865 0.78417 0.0
Co270 Co 0.54416 0.29605 0.68813 0.0
C271 C 0.53586 0.18794 0.75373 0.0
H272 H 0.33808 0.26077 0.68344 0.0
O273 O 0.54375 0.38265 0.70372 0.0
O274 O 0.47298 0.2921 0.62446 0.0
O275 O 0.59702 0.31221 0.61454 0.0
O276 O 0.61314 0.27953 0.73014 0.0
O277 O 0.61572 0.35201 0.78271 0.0
O278 O 0.42802 0.21935 0.65361 0.0
O279 O 0.53834 0.21007 0.70123 0.0
O280 O 0.44075 0.28385 0.72483 0.0
O281 O 0.65295 0.35012 0.67112 0.0
O282 O 0.57775 0.44535 0.76456 0.0
O283 O 0.5112 0.29989 0.76715 0.0
O284 O 0.48912 0.19496 0.77967 0.0
C285 C 0.64422 0.33928 0.62125 0.0
C286 C 0.39534 0.14288 0.81794 0.0
H287 H 0.41971 0.169 0.84601 0.0
H288 H 0.37314 0.11139 0.84243 0.0
H289 H 0.42425 0.12399 0.78856 0.0
C290 C 0.43263 0.25415 0.61642 0.0
C291 C 0.62425 0.30129 0.7759 0.0
H292 H 0.73258 0.34012 0.71388 0.0
H293 H 0.64352 0.5011 0.80817 0.0
H294 H 0.67848 0.52727 0.75297 0.0
H295 H 0.71116 0.53443 0.81738 0.0
C296 C 0.68528 0.50664 0.79201 0.0
C297 C 0.53424 0.41945 0.74595 0.0
C298 C 0.46064 0.29776 0.76871 0.0
H299 H 0.82099 0.37889 0.75594 0.0
H300 H 0.2479 0.22172 0.73054 0.0
Co301 Co 0.93936 0.37436 0.96574 0.0
N302 N 0.92497 0.44984 0.98971 0.0
C303 C 0.95553 0.49592 0.97638 0.0
N304 N 0.89089 0.52692 1.03074 0.0
C305 C 0.88837 0.47068 1.0262 0.0
C306 C 0.93393 0.54259 0.99989 0.0
Co307 Co 0.14033 0.21906 0.95913 0.0
N308 N 0.15339 0.14272 0.97794 0.0
N309 N 0.17587 0.06556 1.02569 0.0
C310 C 0.14189 0.05006 0.98513 0.0
C311 C 0.128 0.09658 0.95642 0.0
C312 C 0.17942 0.12169 1.02217 0.0
Co313 Co 1.03997 0.29582 0.9255 0.0
C314 C 0.16285 0.30353 0.98964 0.0
H315 H 0.10181 0.09395 0.92044 0.0
O316 O 0.95448 0.29876 0.94638 0.0
O317 O 0.05269 0.23784 0.85388 0.0
O318 O 1.03257 0.36225 0.86234 0.0
O319 O 0.05275 0.34832 0.98966 0.0
O320 O 0.97599 0.36984 1.03098 0.0
O321 O 0.08711 0.1856 0.91257 0.0
O322 O 0.12594 0.29633 0.94633 0.0
O323 O 0.09447 0.21804 1.01976 0.0
O324 O 0.99869 0.40743 0.9269 0.0
O325 O 0.8899 0.33369 1.0045 0.0
O326 O 1.02043 0.23032 0.97296 0.0
O327 O 0.18777 0.25768 1.00418 0.0
C328 C 1.00593 0.40746 0.87547 0.0
C329 C 0.20593 0.15772 0.06231 0.0
H330 H 0.2365 0.18368 1.04115 0.0
H331 H 0.17529 0.18748 0.07759 0.0
H332 H 0.2227 0.13302 0.09662 0.0
C333 C 0.07867 0.19028 0.86202 0.0
C334 C 1.02667 0.3663 1.03161 0.0
H335 H 0.99149 0.498 0.95002 0.0
H336 H 0.83119 0.40589 1.03328 0.0
H337 H 0.88354 0.40823 0.08335 0.0
H338 H 0.82628 0.45811 0.08718 0.0
C339 C 0.85425 0.4342 0.06017 0.0
C340 C 0.91763 0.28939 0.98903 0.0
C341 C 0.04481 0.20755 1.01245 0.0
H342 H 0.94798 0.58506 0.99388 0.0
H343 H 0.13123 1.0075 0.97449 0.0
Co344 Co 0.36288 0.96737 0.39394 0.0
N345 N 0.34589 0.89015 0.40647 0.0
C346 C 0.37399 0.84592 0.38434 0.0
N347 N 0.30602 0.80963 0.42948 0.0
C348 C 0.30044 0.86525 0.42736 0.0
C349 C 0.34948 0.79704 0.39798 0.0
Co350 Co 0.36889 0.11537 0.18619 0.0
N351 N 0.34899 0.19371 0.17728 0.0
N352 N 0.31003 0.27677 0.16025 0.0
C353 C 0.35501 0.28656 0.18998 0.0
C354 C 0.37861 0.23616 0.20039 0.0
C355 C 0.30213 0.22113 0.16254 0.0
Co356 Co 0.39695 1.03838 0.28608 0.0
C357 C 0.33241 1.03716 0.17465 0.0
H358 H 0.41432 0.2323 0.22603 0.0
O359 O 0.3826 1.04525 0.37363 0.0
O360 O 0.45267 0.11548 0.28113 0.0
O361 O 0.47217 0.98884 0.3035 0.0
O362 O 0.35313 0.96769 0.27367 0.0
O363 O 0.30166 0.9708 0.34703 0.0
O364 O 0.43436 0.13447 0.19486 0.0
O365 O 0.38316 1.03711 0.19944 0.0
O366 O 0.35267 0.1422 0.25903 0.0
O367 O 0.41295 0.93837 0.34111 0.0
O368 O 0.3809 1.04561 0.37631 0.0
O369 O 0.31936 0.06896 0.28827 0.0
O370 O 0.3062 0.08504 0.17304 0.0
C371 C 0.46343 0.94383 0.33356 0.0
C372 C 0.24785 0.20098 0.18294 0.0
H373 H 0.23316 0.22858 0.21661 0.0
H374 H 0.21784 0.20589 0.15094 0.0
H375 H 0.24836 0.1579 0.19749 0.0
C376 C 0.466 0.14249 0.23413 0.0
C377 C 0.30945 0.95355 0.29869 0.0
H378 H 0.41147 0.84645 0.36046 0.0
H379 H 0.21309 0.87188 0.44252 0.0
H380 H 0.23539 0.87532 0.37388 0.0
H381 H 0.24952 0.93398 0.41893 0.0
C382 C 0.24591 0.88887 0.41626 0.0
C383 C 0.36632 0.09247 0.39752 0.0
C384 C 0.31422 0.11941 0.28312 0.0
H385 H 0.36486 0.75542 0.3894 0.0
H386 H 0.3714 0.32731 0.20017 0.0
Co387 Co 0.22261 0.11862 0.44049 0.0
N388 N 0.15465 0.08356 0.42192 0.0
C389 C 0.16118 1.02965 0.41187 0.0
N390 N 0.07432 1.04404 0.39737 0.0
C391 C 0.0983 0.09013 0.4195 0.0
C392 C 0.11373 1.00573 0.39731 0.0
Co393 Co 0.37535 0.14139 0.63712 0.0
N394 N 0.4507 0.1195 0.65129 0.0
N395 N 0.52656 0.07556 0.68164 0.0
C396 C 0.54233 0.11042 0.64152 0.0
C397 C 0.49632 0.1357 0.62187 0.0
C398 C 0.47075 0.08029 0.68515 0.0
Co399 Co 0.29261 0.16502 0.53925 0.0
C400 C 0.2905 0.11845 0.66659 0.0
H401 H 0.49833 0.16556 0.58847 0.0
O402 O 0.29261 0.1499 0.45363 0.0
O403 O 0.35437 0.2332 0.54376 0.0
O404 O 0.2307 0.22848 0.52841 0.0
O405 O 0.22929 0.11416 0.55924 0.0
O406 O 0.23272 0.05832 0.49166 0.0
O407 O 0.40632 0.17238 0.56835 0.0
O408 O 0.2988 0.15617 0.62495 0.0
O409 O 0.37082 0.07575 0.60848 0.0
O410 O 0.1782 0.16652 0.48846 0.0
O411 O 0.26917 0.0761 0.40108 0.0
O412 O 0.34597 0.10017 0.5263 0.0
O413 O 0.33561 0.10846 0.69495 0.0
C414 C 0.18434 0.21712 0.50241 0.0
C415 C 0.43398 1.03915 0.71015 0.0
H416 H 0.40463 0.05556 0.74066 0.0
H417 H 0.40965 1.01963 0.67748 0.0
H418 H 0.45941 1.00799 0.72794 0.0
C419 C 0.40349 0.22435 0.56395 0.0
C420 C 0.21573 0.06839 0.53873 0.0
H421 H 0.19982 1.00935 0.41432 0.0
H422 H 0.08244 0.16437 0.46929 0.0
H423 H 1.02246 0.12166 0.45571 0.0
H424 H 0.0741 0.0998 0.5042 0.0
C425 C 0.06754 0.1215 0.46394 0.0
C426 C 0.30823 0.10504 0.42234 0.0
C427 C 0.36581 0.06453 0.55896 0.0
H428 H 0.10781 0.96262 0.38744 0.0
H429 H 0.58434 0.11711 0.62743 0.0
Co430 Co 0.22026 0.98389 0.67334 0.0
N431 N 0.24588 0.91065 0.65395 0.0
C432 C 0.24173 0.87248 0.69653 0.0
N433 N 0.28231 0.82796 0.63145 0.0
C434 C 0.27344 0.88105 0.61449 0.0
C435 C 0.2639 0.82297 0.6831 0.0
Co436 Co 0.2163 0.12447 0.89564 0.0
N437 N 0.23907 0.19858 0.91387 0.0
N438 N 0.28449 0.27662 0.93523 0.0
C439 C 0.2429 0.29152 0.90276 0.0
C440 C 0.21522 0.24469 0.89027 0.0
C441 C 0.28533 0.2204 0.93699 0.0
Co442 Co 0.18784 0.04924 0.79 0.0
C443 C 0.24178 1.04051 0.91533 0.0
H444 H 0.17716 0.2478 0.86778 0.0
O445 O 0.20475 0.05506 0.70115 0.0
O446 O 0.11701 0.10761 0.79809 0.0
O447 O 0.12741 0.97959 0.78613 0.0
O448 O 0.25199 0.99532 0.80383 0.0
O449 O 0.27261 0.97344 0.72037 0.0
O450 O 0.17163 0.16156 0.83927 0.0
O451 O 0.20099 0.04984 0.8769 0.0
O452 O 0.27943 0.12393 0.85415 0.0
O453 O 0.16331 0.94661 0.71117 0.0
O454 O 0.26881 1.02572 0.63816 0.0
O455 O 0.23643 0.11496 0.77688 0.0
O456 O 0.25621 0.0842 0.94422 0.0
C457 C 0.12666 0.94053 0.74732 0.0
C458 C 0.33925 0.19079 0.93718 0.0
H459 H 0.36566 0.20542 0.97132 0.0
H460 H 0.35996 0.20505 0.89932 0.0
H461 H 0.33644 0.14492 0.9364 0.0
C462 C 0.1226 0.15564 0.82413 0.0
C463 C 0.2831 0.97064 0.77002 0.0
H464 H 0.2257 0.88 0.73775 0.0
H465 H 0.27595 0.94141 0.5466 0.0
H466 H 0.24311 0.87587 0.5315 0.0
H467 H 0.30816 0.87319 0.53363 0.0
C468 C 0.27549 0.89608 0.55437 0.0
C469 C 0.24932 0.06734 0.66726 0.0
C470 C 0.27441 0.13636 0.80468 0.0
H471 H 0.26606 0.78589 0.70881 0.0
H472 H 0.23012 0.33393 0.89364 0.0
Co473 Co 0.37099 0.9696 0.94283 0.0
N474 N 0.44881 0.99023 0.93282 0.0
C475 C 0.48683 0.98418 0.97465 0.0
N476 N 0.5339 1.0213 0.90812 0.0
C477 C 0.48058 1.01357 0.89297 0.0
C478 C 0.53737 1.00407 0.96037 0.0
Co479 Co 0.20866 0.96548 0.14248 0.0
N480 N 0.13631 0.99175 0.15707 0.0
N481 N 0.06211 1.04243 0.17999 0.0
C482 C 0.04525 1.00276 0.14529 0.0
C483 C 0.09 0.97209 0.13137 0.0
C484 C 0.11772 1.03871 0.18221 0.0
Co485 Co 0.28687 0.9329 1.04081 0.0
C486 C 0.29045 0.98795 0.167 0.0
H487 H 0.08557 0.93482 0.10692 0.0
O488 O 0.29494 0.95265 0.95475 0.0
O489 O 0.22549 0.86465 0.04665 0.0
O490 O 0.34864 0.86629 1.03393 0.0
O491 O 0.34234 0.99154 0.05927 0.0
O492 O 0.36687 1.03423 0.98393 0.0
O493 O 0.17343 0.92287 0.0847 0.0
O494 O 0.28358 0.94727 0.12729 0.0
O495 O 0.21435 1.03222 0.10259 0.0
O496 O 0.39884 0.92793 1.00157 0.0
O497 O 0.33346 1.0115 0.8922 0.0
O498 O 0.22738 0.98787 1.02631 0.0
O499 O 0.24574 1.00094 0.19378 0.0
C500 C 0.39506 0.8769 1.00881 0.0
C501 C 0.15294 0.08899 0.19017 0.0
H502 H 0.15552 0.11124 0.15173 0.0
H503 H 0.13715 0.11773 0.22251 0.0
H504 H 0.19658 0.08069 0.19212 0.0
C505 C 0.17855 0.87199 0.07339 0.0
C506 C 0.36073 1.03417 1.03526 0.0
H507 H 0.48074 0.96554 1.01471 0.0
H508 H 0.41445 1.03049 0.83747 0.0
H509 H 0.46947 0.08256 0.84915 0.0
H510 H 0.4828 1.02579 0.80768 0.0
C511 C 0.45864 1.03887 0.84334 0.0
C512 C 0.28794 0.99482 0.91706 0.0
C513 C 0.21078 1.03048 0.05147 0.0
H514 H 0.57437 1.00373 0.98559 0.0
H515 H 1.00265 0.99259 0.13609 0.0
Co516 Co 0.19578 0.37517 0.12196 0.0
N517 N 0.18484 0.35438 0.19899 0.0
C518 C 0.21167 0.37335 0.24525 0.0
N519 N 0.14915 0.31681 0.27664 0.0
C520 C 0.15132 0.31605 0.22048 0.0
C521 C 0.18812 0.35273 0.29225 0.0
Co522 Co 0.39544 0.38082 0.96726 0.0
N523 N 0.40718 0.35918 0.89089 0.0
N524 N 0.42823 0.31437 0.81145 0.0
C525 C 0.38414 0.34567 0.80123 0.0
C526 C 0.37288 0.37415 0.84793 0.0
C527 C 0.43796 0.31904 0.86699 0.0
Co528 Co 0.29359 0.41183 0.04518 0.0
C529 C 0.41953 0.35738 0.05081 0.0
H530 H 0.34078 0.40517 0.84683 0.0
O531 O 0.20714 0.39214 0.04513 0.0
O532 O 0.29883 0.47953 0.98233 0.0
O533 O 0.28212 0.48174 0.10497 0.0
O534 O 0.31072 0.35459 0.10556 0.0
O535 O 0.23525 0.30908 0.11696 0.0
O536 O 0.33664 0.41929 0.9364 0.0
O537 O 0.38055 0.39811 1.0425 0.0
O538 O 0.35974 0.31277 0.97174 0.0
O539 O 0.25407 0.41839 0.15396 0.0
O540 O 0.14502 0.33392 0.08307 0.0
O541 O 0.2819 0.35262 0.98882 0.0
O542 O 0.44746 0.34302 1.00616 0.0
C543 C 0.25815 0.47027 0.15207 0.0
C544 C 0.46285 0.27492 0.90085 0.0
H545 H 0.49288 0.29311 0.92993 0.0
H546 H 0.43115 0.25675 0.92765 0.0
H547 H 0.47875 0.24216 0.87345 0.0
C548 C 0.32635 0.47004 0.9366 0.0
C549 C 0.28521 0.31298 0.12506 0.0
H550 H 0.24547 0.40246 0.24689 0.0
H551 H 0.12059 0.23552 0.20875 0.0
H552 H 0.15667 0.26443 0.15191 0.0
H553 H 0.09264 0.29221 0.16348 0.0
C554 C 0.12799 0.27393 0.18522 0.0
C555 C 0.16916 0.34994 1.03712 0.0
C556 C 0.30893 0.31169 0.97067 0.0
H557 H 0.19904 0.36292 0.33472 0.0
H558 H 0.36607 0.35352 0.76074 0.0
Co559 Co 0.69561 0.22422 0.97311 0.0
N560 N 0.68501 0.25217 0.89871 0.0
C561 C 0.72674 0.25207 0.86014 0.0
N562 N 0.65433 0.27383 0.81347 0.0
C563 C 0.64191 0.26831 0.86766 0.0
C564 C 0.70782 0.26325 0.80837 0.0
Co565 Co 0.89927 0.22096 0.12224 0.0
N566 N 0.91258 0.24788 0.19588 0.0
N567 N 0.93784 0.28037 0.27922 0.0
C568 C 0.88334 0.27771 0.28011 0.0
C569 C 0.86834 0.25627 0.23053 0.0
C570 C 0.95451 0.26156 0.22964 0.0
Co571 Co 0.79535 0.18507 0.04837 0.0
C572 C 0.91773 0.24451 1.03676 0.0
H573 H 0.8264 0.24486 0.22267 0.0
O574 O 0.7083 0.20221 0.04751 0.0
O575 O 0.80572 0.11699 0.1096 0.0
O576 O 0.787 0.11917 0.98335 0.0
O577 O 0.80819 0.24823 0.99325 0.0
O578 O 0.73081 0.29136 0.98417 0.0
O579 O 0.84862 0.17298 0.16319 0.0
O580 O 0.88127 0.20194 0.04787 0.0
O581 O 0.85513 0.28495 0.11696 0.0
O582 O 0.75779 0.18573 0.9404 0.0
O583 O 0.64236 0.2592 1.01178 0.0
O584 O 0.78214 0.23553 0.11101 0.0
O585 O 0.94541 0.26204 0.07991 0.0
C586 C 0.76354 0.13425 0.93721 0.0
C587 C 1.01202 0.25079 0.21808 0.0
H588 H 1.0358 0.2859 0.23486 0.0
H589 H 1.02538 0.21315 0.24008 0.0
H590 H 1.01697 0.24639 0.1737 0.0
C591 C 0.83334 0.12351 0.15656 0.0
C592 C 0.78084 0.28994 0.97641 0.0
H593 H 0.76935 0.24204 0.86696 0.0
H594 H 0.5636 0.30479 0.87037 0.0
H595 H 0.58245 0.2631 0.93194 0.0
H596 H 0.56524 0.23302 0.86739 0.0
C597 C 0.58522 0.26794 0.88685 0.0
C598 C 0.66951 0.24341 0.05636 0.0
C599 C 0.80495 0.27993 0.12444 0.0
H600 H 0.73189 0.26523 0.77054 0.0
H601 H 0.85675 0.28885 0.3145 0.0
Co602 Co 0.1174 0.43075 0.22683 0.0
N603 N 0.09441 0.41443 0.15175 0.0
C604 C 0.11408 0.44718 0.10906 0.0
N605 N 0.05313 0.39577 0.07037 0.0
C606 C 0.05168 0.38838 0.12589 0.0
C607 C 0.08978 0.43528 0.05997 0.0
Co608 Co 0.1197 0.64767 0.38141 0.0
N609 N 0.10235 0.65191 0.46075 0.0
N610 N 0.06465 0.6743 0.54346 0.0
C611 C 0.10674 0.64023 0.55406 0.0
C612 C 0.12912 0.62581 0.50353 0.0
C613 C 0.05928 0.67479 0.48811 0.0
Co614 Co 0.14827 0.54648 0.2945 0.0
C615 C 0.11866 0.66426 0.25755 0.0
H616 H 0.16458 0.59905 0.50043 0.0
O617 O 0.13116 0.45667 0.29819 0.0
O618 O 0.2181 0.55152 0.35307 0.0
O619 O 0.21109 0.54234 0.22594 0.0
O620 O 0.08545 0.56189 0.24029 0.0
O621 O 0.07025 0.47983 0.21284 0.0
O622 O 0.15856 0.58395 0.40418 0.0
O623 O 0.13859 0.63514 0.29986 0.0
O624 O 0.05272 0.61444 0.36878 0.0
O625 O 0.17446 0.46697 0.19774 0.0
O626 O 0.06617 0.39661 0.26486 0.0
O627 O 0.09138 0.53466 0.35464 0.0
O628 O 0.13654 0.63844 0.30103 0.0
C629 C 0.21127 0.50166 0.18873 0.0
C630 C 1.00433 0.6767 0.46541 0.0
H631 H 0.98346 0.6429 0.48765 0.0
H632 H 0.98583 0.71587 0.47783 0.0
H633 H 1.00305 0.67217 0.42096 0.0
C634 C 0.20936 0.57615 0.40066 0.0
C635 C 0.05707 0.52889 0.21274 0.0
H636 H 0.14305 0.4808 0.11124 0.0
H637 H 0.99667 0.32249 0.13689 0.0
H638 H 0.96509 0.3868 0.13872 0.0
H639 H 1.00342 0.36555 0.19886 0.0
C640 C 1.00221 0.36431 0.15332 0.0
C641 C 0.08642 0.42261 0.30797 0.0
C642 C 0.05105 0.56316 0.37259 0.0
H643 H 0.09915 0.45305 1.01958 0.0
H644 H 0.12212 0.62942 0.59495 0.0
Co645 Co 0.68358 0.87774 0.6249 0.0
N646 N 0.66815 0.85013 0.69754 0.0
C647 C 0.71165 0.83583 0.73074 0.0
N648 N 0.64033 0.81365 0.77875 0.0
C649 C 0.62508 0.83717 0.73045 0.0
C650 C 0.69499 0.8128 0.77908 0.0
Co651 Co 0.88523 0.87588 0.4681 0.0
N652 N 0.89641 0.85593 0.39046 0.0
N653 N 0.93127 0.81837 0.31208 0.0
C654 C 0.89234 0.85478 0.29706 0.0
C655 C 0.86955 0.87567 0.34445 0.0
C656 C 0.92946 0.81729 0.36834 0.0
Co657 Co 0.78762 0.91081 0.54683 0.0
C658 C 0.91184 0.84953 0.55303 0.0
H659 H 0.83609 0.90535 0.34324 0.0
O660 O 0.70132 0.89829 0.55077 0.0
O661 O 0.79941 0.9819 0.48802 0.0
O662 O 0.78323 0.97455 0.61235 0.0
O663 O 0.79811 0.85156 0.60232 0.0
O664 O 0.7212 0.80922 0.61761 0.0
O665 O 0.82669 0.91982 0.4364 0.0
O666 O 0.87382 0.89173 0.54545 0.0
O667 O 0.84607 0.8102 0.47232 0.0
O668 O 0.74198 0.91672 0.66386 0.0
O669 O 0.63243 0.84316 0.58278 0.0
O670 O 0.77051 0.85551 0.48467 0.0
O671 O 0.93566 0.83376 0.50678 0.0
C672 C 0.75732 0.96641 0.6597 0.0
C673 C 0.95317 0.7749 0.40323 0.0
H674 H 0.98871 0.79307 0.42437 0.0
H675 H 0.92508 0.7657 0.43701 0.0
H676 H 0.96013 0.7363 0.37986 0.0
C677 C 0.82251 0.97161 0.43997 0.0
C678 C 0.77235 0.8092 0.61841 0.0
H679 H 0.75443 0.84231 0.72197 0.0
H680 H 0.5624 0.85098 0.6725 0.0
H681 H 0.54301 0.81471 0.7342 0.0
H682 H 0.5552 0.88814 0.73677 0.0
C683 C 0.56789 0.84883 0.71716 0.0
C684 C 0.66248 0.85817 0.53987 0.0
C685 C 0.79624 0.81454 0.46392 0.0
H686 H 0.72091 0.79758 0.81215 0.0
H687 H 0.88111 0.86537 0.25475 0.0
Co688 Co 0.96326 0.93257 0.36463 0.0
N689 N 0.9857 0.91613 0.43995 0.0
C690 C 0.96678 0.94922 0.48265 0.0
N691 N 1.02545 0.89466 0.52167 0.0
C692 C 1.02734 0.88832 0.46576 0.0
C693 C 0.99014 0.93572 0.5319 0.0
Co694 Co 0.96129 0.14876 0.20979 0.0
N695 N 0.97912 0.15197 0.13037 0.0
N696 N 1.01726 0.17337 0.04761 0.0
C697 C 0.97484 0.13989 1.03707 0.0
C698 C 0.95227 0.12593 0.08767 0.0
C699 C 1.02251 0.17391 0.1029 0.0
Co700 Co 0.93152 0.04811 0.29699 0.0
C701 C 0.96237 0.16597 0.33337 0.0
H702 H 0.91642 0.09985 0.0908 0.0
O703 O 0.94949 0.95816 0.29268 0.0
O704 O 0.86188 0.05406 0.23777 0.0
O705 O 0.86849 1.04381 0.36551 0.0
O706 O 0.99341 0.06313 0.35209 0.0
O707 O 1.01163 0.9811 0.37829 0.0
O708 O 0.92193 0.08564 0.18716 0.0
O709 O 0.94193 0.13683 0.2914 0.0
O710 O 1.02793 0.11551 0.22341 0.0
O711 O 0.90621 0.96909 0.39398 0.0
O712 O 1.0143 0.89784 0.3261 0.0
O713 O 0.98883 1.03606 0.23729 0.0
O714 O 0.94407 0.14016 0.29015 0.0
C715 C 0.86912 1.00358 0.4033 0.0
C716 C 0.07747 0.17413 0.12509 0.0
H717 H 0.09748 0.14027 0.10162 0.0
H718 H 0.0964 0.21293 0.11286 0.0
H719 H 0.07953 0.1691 0.16961 0.0
C720 C 0.87099 0.07878 0.19022 0.0
C721 C 1.02312 1.03066 0.37909 0.0
H722 H 0.93916 0.98413 0.48015 0.0
H723 H 0.08584 0.82377 0.45771 0.0
H724 H 0.06884 0.85825 0.39241 0.0
H725 H 0.11186 0.88898 0.44103 0.0
C726 C 0.07533 0.8628 0.43687 0.0
C727 C 0.99416 0.92359 0.28277 0.0
C728 C 1.02939 0.06423 0.21958 0.0
H729 H 0.981 0.95352 0.57232 0.0
H730 H 0.95919 0.12951 0.99622 0.0
Co731 Co 0.18333 0.71962 0.46911 0.0
N732 N 0.16954 0.74716 0.39473 0.0
C733 C 0.21354 0.7549 0.35967 0.0
N734 N 0.14358 0.77839 0.31041 0.0
C735 C 0.12738 0.76057 0.36071 0.0
C736 C 0.19815 0.77578 0.3097 0.0
Co737 Co 0.38671 0.71291 0.62227 0.0
N738 N 0.39797 0.73796 0.69936 0.0
N739 N 0.43038 0.77854 0.77776 0.0
C740 C 0.39003 0.74382 0.79251 0.0
C741 C 0.36895 0.72128 0.74536 0.0
C742 C 0.43104 0.77729 0.72077 0.0
Co743 Co 0.28781 0.67941 0.5417 0.0
C744 C 0.41496 0.73234 0.53619 0.0
H745 H 0.33507 0.69227 0.74691 0.0
O746 O 0.20145 0.70033 0.54428 0.0
O747 O 0.29641 0.61259 0.60598 0.0
O748 O 0.27535 0.61237 0.48057 0.0
O749 O 0.30228 0.72993 0.47836 0.0
O750 O 0.22982 0.78113 0.47348 0.0
O751 O 0.32458 0.67643 0.65415 0.0
O752 O 0.37505 0.6926 0.54502 0.0
O753 O 0.35422 0.77919 0.61318 0.0
O754 O 0.23244 0.66989 0.42752 0.0
O755 O 0.13872 0.76226 0.51234 0.0
O756 O 0.27668 0.74286 0.59464 0.0
O757 O 0.43897 0.74931 0.58194 0.0
C758 C 0.24745 0.62008 0.43399 0.0
C759 C 0.44909 0.82247 0.68435 0.0
H760 H 0.47884 0.80747 0.65291 0.0
H761 H 0.41254 0.84019 0.66347 0.0
H762 H 0.46619 0.85556 0.70839 0.0
C763 C 0.32032 0.62436 0.65307 0.0
C764 C 0.27967 0.77454 0.46428 0.0
H765 H 0.25552 0.74316 0.36739 0.0
H766 H 0.06509 0.74852 0.41732 0.0
H767 H 0.05787 0.71041 0.35305 0.0
H768 H 0.04524 0.78211 0.35268 0.0
C769 C 0.07009 0.74952 0.37262 0.0
C770 C 0.16531 0.74377 0.55593 0.0
C771 C 0.30499 0.78577 0.60368 0.0
H772 H 0.22465 0.78651 0.27509 0.0
H773 H 0.37706 0.73485 0.83473 0.0
Co774 Co 0.46196 0.66172 0.72984 0.0
N775 N 0.48841 0.67728 0.65673 0.0
C776 C 0.4724 0.64257 0.61419 0.0
N777 N 0.53318 0.69604 0.57756 0.0
C778 C 0.53114 0.70499 0.63257 0.0
C779 C 0.49879 0.6546 0.5662 0.0
Co780 Co 0.46526 0.44336 0.87302 0.0
N781 N 0.49121 0.43253 0.94797 0.0
N782 N 0.53676 0.41516 1.02723 0.0
C783 C 0.49577 0.44928 1.04033 0.0
C784 C 0.46826 0.45976 0.99278 0.0
C785 C 0.53684 0.40988 0.97157 0.0
Co786 Co 0.43105 0.54527 0.79635 0.0
C787 C 0.4878 0.42002 0.79033 0.0
H788 H 0.43029 0.48286 0.99518 0.0
O789 O 0.44615 0.63564 0.80094 0.0
O790 O 0.36084 0.53642 0.85442 0.0
O791 O 0.3694 0.55051 0.72589 0.0
O792 O 0.49469 0.52828 0.74438 0.0
O793 O 0.50656 0.61042 0.71651 0.0
O794 O 0.41858 0.49853 0.90704 0.0
O795 O 0.44556 0.45742 0.79808 0.0
O796 O 0.52988 0.48433 0.86663 0.0
O797 O 0.40424 0.62765 0.69869 0.0
O798 O 0.51235 0.69447 0.76723 0.0
O799 O 0.4825 0.55924 0.86075 0.0
O800 O 0.50587 0.39542 0.83521 0.0
C801 C 0.36772 0.59272 0.68984 0.0
C802 C 0.58478 0.38589 0.94199 0.0
H803 H 0.622 0.40681 0.95678 0.0
H804 H 0.59146 0.3441 0.95839 0.0
H805 H 0.58249 0.38906 0.89645 0.0
C806 C 0.36837 0.50953 0.90142 0.0
C807 C 0.52148 0.56194 0.71609 0.0
H808 H 0.44415 0.60818 0.61618 0.0
H809 H 0.58351 0.77359 0.64189 0.0
H810 H 0.57459 0.73365 0.70646 0.0
H811 H 0.61731 0.7119 0.64985 0.0
C812 C 0.57806 0.73281 0.66115 0.0
C813 C 0.49077 0.66999 0.81037 0.0
C814 C 0.52512 0.53405 0.87715 0.0
H815 H 0.49005 0.63756 0.52548 0.0
H816 H 0.4827 0.46018 0.0821 0.0
Co817 Co 0.86175 0.4825 0.90748 0.0
N818 N 0.83903 0.40616 0.91621 0.0
C819 C 0.86514 0.36331 0.88919 0.0
N820 N 0.80179 0.32475 0.93795 0.0
C821 C 0.79332 0.38009 0.93567 0.0
C822 C 0.84291 0.31367 0.90306 0.0
Co823 Co 0.86781 0.62148 0.69545 0.0
N824 N 0.84324 0.69576 0.67656 0.0
N825 N 0.79836 0.77395 0.65294 0.0
C826 C 0.83991 0.78883 0.68551 0.0
C827 C 0.867 0.742 0.69946 0.0
C828 C 0.79712 0.71792 0.653 0.0
Co829 Co 0.90175 0.54748 0.80104 0.0
C830 C 0.84783 0.5352 0.67388 0.0
H831 H 0.90453 0.74512 0.72262 0.0
O832 O 0.88117 0.55422 0.89075 0.0
O833 O 0.96637 0.61076 0.7952 0.0
O834 O 0.96749 0.48391 0.80405 0.0
O835 O 0.85137 0.48457 0.78758 0.0
O836 O 0.80173 0.48511 0.85889 0.0
O837 O 0.9075 0.65918 0.75434 0.0
O838 O 0.88673 0.54707 0.71377 0.0
O839 O 0.80158 0.61747 0.7339 0.0
O840 O 0.92181 0.45622 0.87213 0.0
O841 O 0.81397 0.51706 0.94698 0.0
O842 O 0.84264 0.60554 0.81231 0.0
O843 O 0.83196 0.57895 0.64531 0.0
C844 C 0.96216 0.44535 0.84194 0.0
C845 C 0.74371 0.68887 0.65435 0.0
H846 H 0.72437 0.69906 0.69456 0.0
H847 H 0.71453 0.70386 0.62245 0.0
H848 H 0.75228 0.64438 0.65136 0.0
C849 C 0.95746 0.65696 0.76818 0.0
C850 C 0.80529 0.47824 0.80883 0.0
H851 H 0.89927 0.36516 0.86102 0.0
H852 H 0.73325 0.44263 0.92231 0.0
H853 H 0.70435 0.37309 0.93106 0.0
H854 H 0.73705 0.3905 0.86924 0.0
C855 C 0.73851 0.3983 0.91432 0.0
C856 C 0.83579 0.56178 0.92457 0.0
C857 C 0.8018 0.62321 0.78489 0.0
H858 H 0.85876 0.27267 0.89261 0.0
H859 H 0.85271 0.83122 0.69442 0.0
Co860 Co 0.70891 0.63039 0.94888 0.0
N861 N 0.63452 0.60516 0.93602 0.0
C862 C 0.58891 0.6269 0.96201 0.0
N863 N 0.55819 0.55645 0.9161 0.0
C864 C 0.61395 0.55794 0.91359 0.0
C865 C 0.54288 0.59734 0.95006 0.0
Co866 Co 0.86033 0.61883 0.14915 0.0
N867 N 0.9282 0.58023 0.16246 0.0
N868 N 1.00762 0.54155 0.18957 0.0
C869 C 0.97084 0.50149 0.18094 0.0
C870 C 0.92412 0.5244 0.16372 0.0
C871 C 0.98356 0.58889 0.17022 0.0
Co872 Co 0.78651 0.66382 0.04984 0.0
C873 C 0.77681 0.60532 0.17496 0.0
H874 H 0.88743 0.50136 0.15888 0.0
O875 O 0.78328 0.6501 0.96334 0.0
O876 O 0.85032 0.72585 0.05868 0.0
O877 O 0.72535 0.73178 1.0425 0.0
O878 O 0.72823 0.60762 0.06361 0.0
O879 O 0.71635 0.56398 0.98747 0.0
O880 O 0.90196 0.66208 0.09456 0.0
O881 O 0.78809 0.64753 0.13718 0.0
O882 O 0.84126 0.55738 0.10234 0.0
O883 O 0.67466 0.67181 1.00672 0.0
O884 O 0.74824 0.59275 0.89806 0.0
O885 O 0.84539 0.60876 1.03202 0.0
O886 O 0.81979 0.58409 0.1977 0.0
C887 C 0.67904 0.72294 1.01583 0.0
C888 C 1.01524 0.62147 0.12743 0.0
H889 H 0.05983 0.62326 0.1378 0.0
H890 H 1.0119 0.59951 0.08694 0.0
H891 H 0.99831 0.66347 0.121 0.0
C892 C 0.89673 0.71361 0.08387 0.0
C893 C 0.7152 0.56395 1.03846 0.0
H894 H 0.58582 0.66486 0.98559 0.0
H895 H 0.68879 0.51471 0.90175 0.0
H896 H 0.64791 0.49207 0.95847 0.0
H897 H 0.6282 0.47283 0.88961 0.0
C898 C 0.64654 0.50612 0.91481 0.0
C899 C 0.79228 0.60906 0.92486 0.0
C900 C 0.85366 0.56228 0.0533 0.0
H901 H 0.50072 0.60925 0.95965 0.0
H902 H 0.97582 0.45891 0.19251 0.0
Co903 Co 0.71271 0.46937 0.19822 0.0
N904 N 0.73643 0.39318 0.18256 0.0
C905 C 0.71124 0.34758 0.20609 0.0
N906 N 0.77939 0.31403 0.16041 0.0
C907 C 0.78342 0.36966 0.16217 0.0
C908 C 0.73758 0.29984 0.19314 0.0
Co909 Co 0.71272 0.61744 0.40347 0.0
N910 N 0.7328 0.69578 0.41161 0.0
N911 N 0.77169 0.77888 0.42813 0.0
C912 C 0.7268 0.78871 0.39815 0.0
C913 C 0.70324 0.73824 0.38802 0.0
C914 C 0.77937 0.72321 0.42653 0.0
Co915 Co 0.68414 0.53966 0.30315 0.0
C916 C 0.7484 0.53859 0.41483 0.0
H917 H 0.6672 0.73435 0.36279 0.0
O918 O 0.69498 0.54408 0.21555 0.0
O919 O 0.62784 0.61707 0.30929 0.0
O920 O 0.60882 0.48868 0.28834 0.0
O921 O 0.72615 0.46837 0.31567 0.0
O922 O 0.7761 0.47185 0.24259 0.0
O923 O 0.64791 0.6375 0.39488 0.0
O924 O 0.69794 0.53937 0.3899 0.0
O925 O 0.7293 0.64259 0.33083 0.0
O926 O 0.66446 0.43275 0.25028 0.0
O927 O 0.75389 0.51116 0.1511 0.0
O928 O 0.76206 0.57033 0.29848 0.0
O929 O 0.77502 0.58612 0.41704 0.0
C930 C 0.61475 0.44077 0.26139 0.0
C931 C 0.8341 0.70226 0.40882 0.0
H932 H 0.84975 0.72815 0.37432 0.0
H933 H 0.86259 0.70952 0.44161 0.0
H934 H 0.83434 0.65845 0.39686 0.0
C935 C 0.6153 0.64471 0.35641 0.0
C936 C 0.77004 0.4555 0.29089 0.0
H937 H 0.67281 0.34521 0.22829 0.0
H938 H 0.83663 0.436 0.17415 0.0
H939 H 0.87292 0.37093 0.16073 0.0
H940 H 0.84027 0.3794 0.22378 0.0
C941 C 0.83698 0.39132 0.17987 0.0
C942 C 0.73455 0.55559 0.17661 0.0
C943 C 0.76889 0.62002 0.30814 0.0
H944 H 0.72337 0.25777 0.20139 0.0
H945 H 0.71024 0.82947 0.38797 0.0
Co946 Co 0.8707 0.46521 0.44712 0.0
N947 N 0.94357 0.49076 0.43332 0.0
C948 C 0.98953 0.47072 0.45954 0.0
N949 N 1.018 0.54144 0.41192 0.0
C950 C 0.96244 0.53788 0.40883 0.0
C951 C 1.03445 0.50138 0.44652 0.0
Co952 Co 0.71716 0.47556 0.64708 0.0
N953 N 0.64913 0.51374 0.65985 0.0
N954 N 0.56954 0.5505 0.68935 0.0
C955 C 0.60428 0.59137 0.67728 0.0
C956 C 0.65126 0.56953 0.65927 0.0
C957 C 0.59427 0.50378 0.66965 0.0
Co958 Co 0.79175 0.43119 0.54798 0.0
C959 C 0.80137 0.48919 0.67267 0.0
H960 H 0.68608 0.59403 0.65107 0.0
O961 O 0.79511 0.4473 0.46148 0.0
O962 O 0.72639 0.36885 0.55638 0.0
O963 O 0.85323 0.36303 0.54101 0.0
O964 O 0.85173 0.48736 0.56253 0.0
O965 O 0.86461 0.53193 0.48654 0.0
O966 O 0.67414 0.43137 0.59309 0.0
O967 O 0.78944 0.44677 0.63542 0.0
O968 O 0.737 0.53635 0.59977 0.0
O969 O 0.90531 0.42224 0.50519 0.0
O970 O 0.83451 0.50158 0.39602 0.0
O971 O 0.73262 0.48583 0.52922 0.0
O972 O 0.7584 0.51187 0.69546 0.0
C973 C 0.90061 0.37117 0.51555 0.0
C974 C 0.56165 0.46941 0.62918 0.0
H975 H 0.51762 0.46669 0.6418 0.0
H976 H 0.56242 0.49046 0.58814 0.0
H977 H 0.57914 0.42769 0.62312 0.0
C978 C 0.67876 0.38003 0.58071 0.0
C979 C 0.86908 0.52995 0.53741 0.0
H980 H 0.9936 0.4333 0.4839 0.0
H981 H 0.88477 0.58084 0.39474 0.0
H982 H 0.92334 0.60539 0.44542 0.0
H983 H 0.94536 0.6214 0.37728 0.0
C984 C 0.92761 0.58882 0.40428 0.0
C985 C 0.78942 0.48872 0.42223 0.0
C986 C 0.72713 0.53272 0.54995 0.0
H987 H 0.07693 0.49095 0.45618 0.0
H988 H 0.5983 0.63384 0.68788 0.0
Co989 Co 0.61539 0.14388 0.86969 0.0
N990 N 0.5926 0.15252 0.9451 0.0
C991 C 0.62336 0.13522 0.98909 0.0
N992 N 0.55499 0.1817 1.02407 0.0
C993 C 0.54625 0.17283 0.9696 0.0
C994 C 0.59955 0.15183 1.03747 0.0
Co995 Co 0.6145 0.95017 0.71385 0.0
N996 N 0.59163 0.94664 0.63619 0.0
N997 N 0.54802 0.92538 0.55672 0.0
C998 C 0.59298 0.95454 0.54314 0.0
C999 C 0.61937 0.96774 0.59152 0.0
C1000 C 0.54448 0.92875 0.61213 0.0
Co1001 Co 0.65269 0.051 0.79141 0.0
C1002 C 0.62307 0.93411 0.83779 0.0
H1003 H 0.65897 0.98806 0.59173 0.0
O1004 O 0.63138 0.13671 0.79038 0.0
O1005 O 0.72608 1.03708 0.73935 0.0
O1006 O 0.71016 0.06031 0.86651 0.0
O1007 O 0.57771 1.04289 0.82691 0.0
O1008 O 0.61312 0.06895 0.8993 0.0
O1009 O 0.66813 1.001 0.68468 0.0
O1010 O 0.64029 0.96161 0.79276 0.0
O1011 O 0.55399 0.99772 0.72671 0.0
O1012 O 0.68323 0.14495 0.89023 0.0
O1013 O 0.5517 0.14398 0.84056 0.0
O1014 O 0.60948 0.06628 0.72244 0.0
O1015 O 0.63814 0.95851 0.79248 0.0
C1016 C 0.71833 0.10721 0.89629 0.0
C1017 C 0.49107 0.93912 0.63779 0.0
H1018 H 0.47583 0.97984 0.62261 0.0
H1019 H 0.46254 0.90704 0.62578 0.0
H1020 H 0.49578 0.93863 0.68195 0.0
C1021 C 0.71834 1.00921 0.69279 0.0
C1022 C 0.57661 1.04179 0.8779 0.0
H1023 H 0.66155 0.11237 0.98705 0.0
H1024 H 0.48492 0.15733 0.90652 0.0
H1025 H 0.45693 0.1778 0.97216 0.0
H1026 H 0.48436 0.11033 0.96323 0.0
C1027 C 0.49011 0.15447 0.95123 0.0
C1028 C 0.57745 0.15445 0.79386 0.0
C1029 C 0.5624 0.04708 0.71377 0.0
H1030 H 0.61649 0.14723 0.07889 0.0
H1031 H 0.60936 0.95959 0.50146 0.0
loop_
_geom_bond_atom_site_label_1
_geom_bond_atom_site_label_2
_geom_bond_distance
_geom_bond_site_symmetry_2
_ccdc_geom_bond_type
Co0 N1 2.034 . S
Co0 O15 2.262 . S
Co0 O19 1.958 . S
Co0 O23 1.950 . S
Co0 O24 2.057 . S
N1 Co0 2.034 . S
N1 C2 1.366 . S
N1 C4 1.332 . S
C2 N1 1.366 . S
C2 C5 1.377 . S
C2 H34 0.931 . S
N3 C4 1.346 . S
N3 C5 1.337 . S
C4 N1 1.332 . S
C4 N3 1.346 . S
C4 C38 1.361 . S
C5 C2 1.377 . S
C5 N3 1.337 . S
C5 H41 0.930 . S
Co6 N7 2.034 . S
Co6 O20 1.950 . S
Co6 O21 2.262 . S
Co6 O22 1.958 . S
Co6 O26 2.057 . S
N7 Co6 2.034 . S
N7 C10 1.366 . S
N7 C11 1.332 . S
N8 C9 1.337 . S
N8 C11 1.346 . S
C9 N8 1.337 . S
C9 C10 1.377 . S
C9 H42 0.930 . S
C10 N7 1.366 . S
C10 C9 1.377 . S
C10 H14 0.931 . S
C11 N7 1.332 . S
C11 N8 1.346 . S
C11 C28 1.361 . S
Co12 O15 2.097 1_455 S
Co12 O16 2.065 . S
Co12 O17 2.065 1_455 S
Co12 O18 2.042 1_455 S
Co12 O21 2.097 . S
Co12 O25 2.042 . S
C13 O21 1.254 . S
C13 O26 1.270 . S
H14 C10 0.931 . S
O15 Co0 2.262 . S
O15 Co12 2.097 1_655 S
O15 C39 1.253 . S
O16 Co12 2.065 . S
O16 C32 1.221 . S
O17 Co12 2.065 1_655 S
O17 C27 1.221 . S
O18 Co12 2.042 1_655 S
O18 C33 1.237 . S
O19 Co0 1.958 . S
O19 C33 1.278 . S
O20 Co6 1.950 . S
O20 C32 1.277 . S
O21 Co6 2.262 . S
O21 Co12 2.097 . S
O21 C13 1.254 . S
O22 Co6 1.958 . S
O22 C40 1.278 . S
O23 Co0 1.950 . S
O23 C27 1.277 . S
O24 Co0 2.057 . S
O24 C39 1.266 . S
O25 Co12 2.042 . S
O25 C40 1.237 . S
O26 Co6 2.057 . S
O26 C13 1.270 . S
C27 O17 1.221 . S
C27 O23 1.277 . S
C28 C11 1.361 . S
C28 H29 0.960 . S
C28 H30 0.961 . S
C28 H31 0.961 . S
H29 C28 0.960 . S
H30 C28 0.961 . S
H31 C28 0.961 . S
C32 O16 1.221 . S
C32 O20 1.277 . S
C33 O18 1.237 . S
C33 O19 1.278 . S
H34 C2 0.931 . S
H35 C38 0.961 . S
H36 C38 0.961 . S
H37 C38 0.960 . S
C38 C4 1.361 . S
C38 H35 0.961 . S
C38 H36 0.961 . S
C38 H37 0.960 . S
C39 O15 1.253 . S
C39 O24 1.266 . S
C40 O22 1.278 . S
C40 O25 1.237 . S
H41 C5 0.930 . S
H42 C9 0.930 . S
Co43 N44 2.034 . S
Co43 O58 2.262 . S
Co43 O62 1.958 . S
Co43 O66 1.950 . S
Co43 O67 2.057 . S
N44 Co43 2.034 . S
N44 C45 1.366 . S
N44 C47 1.332 . S
C45 N44 1.366 . S
C45 C48 1.377 . S
C45 H77 0.931 . S
N46 C47 1.346 . S
N46 C48 1.337 . S
C47 N44 1.332 . S
C47 N46 1.346 . S
C47 C81 1.361 . S
C48 C45 1.377 . S
C48 N46 1.337 . S
C48 H84 0.930 . S
Co49 N50 2.034 . S
Co49 O63 1.950 . S
Co49 O64 2.262 . S
Co49 O65 1.958 . S
Co49 O69 2.057 . S
N50 Co49 2.034 . S
N50 C53 1.366 . S
N50 C54 1.332 . S
N51 C52 1.337 . S
N51 C54 1.346 . S
C52 N51 1.337 . S
C52 C53 1.377 . S
C52 H85 0.930 . S
C53 N50 1.366 . S
C53 C52 1.377 . S
C53 H57 0.931 . S
C54 N50 1.332 . S
C54 N51 1.346 . S
C54 C71 1.361 . S
Co55 O58 2.097 1_455 S
Co55 O59 2.065 1_455 S
Co55 O60 2.065 . S
Co55 O61 2.042 . S
Co55 O64 2.097 . S
Co55 O68 2.042 1_455 S
C56 O64 1.253 . S
C56 O69 1.263 . S
H57 C53 0.931 . S
O58 Co43 2.262 . S
O58 Co55 2.097 1_655 S
O58 C82 1.253 . S
O59 Co55 2.065 1_655 S
O59 C75 1.221 1_655 S
O60 Co55 2.065 . S
O60 C70 1.221 1_455 S
O61 Co55 2.042 . S
O61 C76 1.237 1_455 S
O62 Co43 1.958 . S
O62 C76 1.278 . S
O63 Co49 1.950 . S
O63 C75 1.277 . S
O64 Co49 2.262 . S
O64 Co55 2.097 . S
O64 C56 1.253 . S
O65 Co49 1.958 . S
O65 C83 1.278 . S
O66 Co43 1.950 . S
O66 C70 1.277 . S
O67 Co43 2.057 . S
O67 C82 1.263 . S
O68 Co55 2.042 1_655 S
O68 C83 1.237 1_655 S
O69 Co49 2.057 . S
O69 C56 1.263 . S
C70 O60 1.221 1_655 S
C70 O66 1.277 . S
C71 C54 1.361 . S
C71 H72 0.960 . S
C71 H73 0.961 . S
C71 H74 0.961 . S
H72 C71 0.960 . S
H73 C71 0.961 . S
H74 C71 0.961 . S
C75 O59 1.221 1_455 S
C75 O63 1.277 . S
C76 O61 1.237 1_655 S
C76 O62 1.278 . S
H77 C45 0.931 . S
H78 C81 0.961 . S
H79 C81 0.961 . S
H80 C81 0.960 . S
C81 C47 1.361 . S
C81 H78 0.961 . S
C81 H79 0.961 . S
C81 H80 0.960 . S
C82 O58 1.253 . S
C82 O67 1.263 . S
C83 O65 1.278 . S
C83 O68 1.237 1_455 S
H84 C48 0.930 . S
H85 C52 0.930 . S
Co86 N87 2.034 . S
Co86 O101 2.262 . S
Co86 O105 1.958 . S
Co86 O109 1.950 . S
Co86 O110 2.057 . S
N87 Co86 2.034 . S
N87 C88 1.366 . S
N87 C90 1.332 . S
C88 N87 1.366 . S
C88 C91 1.377 . S
C88 H120 0.931 . S
N89 C90 1.346 . S
N89 C91 1.337 . S
C90 N87 1.332 . S
C90 N89 1.346 . S
C90 C124 1.361 . S
C91 C88 1.377 . S
C91 N89 1.337 . S
C91 H127 0.930 . S
Co92 N93 2.034 . S
Co92 O106 1.950 . S
Co92 O107 2.262 . S
Co92 O108 1.958 . S
Co92 O112 2.057 . S
N93 Co92 2.034 . S
N93 C96 1.366 . S
N93 C97 1.332 . S
N94 C95 1.337 . S
N94 C97 1.346 . S
C95 N94 1.337 . S
C95 C96 1.377 . S
C95 H128 0.930 . S
C96 N93 1.366 . S
C96 C95 1.377 . S
C96 H100 0.931 . S
C97 N93 1.332 . S
C97 N94 1.346 . S
C97 C114 1.361 . S
Co98 O101 2.097 . S
Co98 O102 2.065 . S
Co98 O103 2.065 . S
Co98 O104 2.042 . S
Co98 O107 2.097 . S
Co98 O111 2.042 . S
C99 O107 1.253 . S
C99 O112 1.263 . S
H100 C96 0.931 . S
O101 Co86 2.262 . S
O101 Co98 2.097 . S
O101 C125 1.253 . S
O102 Co98 2.065 . S
O102 C118 1.221 . S
O103 Co98 2.065 . S
O103 C113 1.221 . S
O104 Co98 2.042 . S
O104 C119 1.237 . S
O105 Co86 1.958 . S
O105 C119 1.278 . S
O106 Co92 1.950 . S
O106 C118 1.277 . S
O107 Co92 2.262 . S
O107 Co98 2.097 . S
O107 C99 1.253 . S
O108 Co92 1.958 . S
O108 C126 1.278 . S
O109 Co86 1.950 . S
O109 C113 1.277 . S
O110 Co86 2.057 . S
O110 C125 1.263 . S
O111 Co98 2.042 . S
O111 C126 1.237 . S
O112 Co92 2.057 . S
O112 C99 1.263 . S
C113 O103 1.221 . S
C113 O109 1.277 . S
C114 C97 1.361 . S
C114 H115 0.960 . S
C114 H116 0.961 . S
C114 H117 0.961 . S
H115 C114 0.960 . S
H116 C114 0.961 . S
H117 C114 0.961 . S
C118 O102 1.221 . S
C118 O106 1.277 . S
C119 O104 1.237 . S
C119 O105 1.278 . S
H120 C88 0.931 . S
H121 C124 0.961 . S
H122 C124 0.961 . S
H123 C124 0.960 . S
C124 C90 1.361 . S
C124 H121 0.961 . S
C124 H122 0.961 . S
C124 H123 0.960 . S
C125 O101 1.253 . S
C125 O110 1.263 . S
C126 O108 1.278 . S
C126 O111 1.237 . S
H127 C91 0.930 . S
H128 C95 0.930 . S
Co129 N130 2.034 . S
Co129 O144 2.262 . S
Co129 O148 1.958 . S
Co129 O152 1.950 . S
Co129 O153 2.057 . S
N130 Co129 2.034 . S
N130 C131 1.366 . S
N130 C133 1.332 . S
C131 N130 1.366 . S
C131 C134 1.377 . S
C131 H163 0.931 . S
N132 C133 1.346 . S
N132 C134 1.337 . S
C133 N130 1.332 . S
C133 N132 1.346 . S
C133 C167 1.361 . S
C134 C131 1.377 . S
C134 N132 1.337 . S
C134 H170 0.930 . S
Co135 N136 2.034 . S
Co135 O149 1.950 . S
Co135 O150 2.262 . S
Co135 O151 1.958 . S
Co135 O155 2.057 . S
N136 Co135 2.034 . S
N136 C139 1.366 . S
N136 C140 1.332 . S
N137 C138 1.337 . S
N137 C140 1.346 . S
C138 N137 1.337 . S
C138 C139 1.377 . S
C138 H171 0.930 . S
C139 N136 1.366 . S
C139 C138 1.377 . S
C139 H143 0.931 . S
C140 N136 1.332 . S
C140 N137 1.346 . S
C140 C157 1.361 . S
Co141 O144 2.097 . S
Co141 O145 2.065 . S
Co141 O146 2.065 . S
Co141 O147 2.042 . S
Co141 O150 2.097 . S
Co141 O154 2.042 . S
C142 O150 1.253 . S
C142 O155 1.263 . S
H143 C139 0.931 . S
O144 Co129 2.262 . S
O144 Co141 2.097 . S
O144 C168 1.253 . S
O145 Co141 2.065 . S
O145 C161 1.221 . S
O146 Co141 2.065 . S
O146 C156 1.221 . S
O147 Co141 2.042 . S
O147 C162 1.237 1_554 S
O148 Co129 1.958 . S
O148 C162 1.278 1_554 S
O149 Co135 1.950 . S
O149 C161 1.277 . S
O150 Co135 2.262 . S
O150 Co141 2.097 . S
O150 C142 1.253 . S
O151 Co135 1.958 . S
O151 C169 1.278 1_554 S
O152 Co129 1.950 . S
O152 C156 1.277 . S
O153 Co129 2.057 . S
O153 C168 1.263 . S
O154 Co141 2.042 . S
O154 C169 1.237 1_554 S
O155 Co135 2.057 . S
O155 C142 1.263 . S
C156 O146 1.221 . S
C156 O152 1.277 . S
C157 C140 1.361 . S
C157 H158 0.960 . S
C157 H159 0.961 . S
C157 H160 0.961 . S
H158 C157 0.960 . S
H159 C157 0.961 . S
H160 C157 0.961 . S
C161 O145 1.221 . S
C161 O149 1.277 . S
C162 O147 1.237 1_556 S
C162 O148 1.278 1_556 S
H163 C131 0.931 . S
H164 C167 0.961 . S
H165 C167 0.961 . S
H166 C167 0.960 . S
C167 C133 1.361 . S
C167 H164 0.961 . S
C167 H165 0.961 . S
C167 H166 0.960 . S
C168 O144 1.253 . S
C168 O153 1.263 . S
C169 O151 1.278 1_556 S
C169 O154 1.237 1_556 S
H170 C134 0.930 . S
H171 C138 0.930 . S
Co172 N173 2.034 . S
Co172 O187 2.262 . S
Co172 O191 1.958 . S
Co172 O195 1.950 . S
Co172 O196 2.057 . S
N173 Co172 2.034 . S
N173 C174 1.366 . S
N173 C176 1.332 . S
C174 N173 1.366 . S
C174 C177 1.377 . S
C174 H206 0.931 . S
N175 C176 1.346 . S
N175 C177 1.337 . S
C176 N173 1.332 . S
C176 N175 1.346 . S
C176 C210 1.361 . S
C177 C174 1.377 . S
C177 N175 1.337 . S
C177 H213 0.930 . S
Co178 N179 2.034 . S
Co178 O192 1.950 . S
Co178 O193 2.262 . S
Co178 O194 1.958 . S
Co178 O198 2.057 . S
N179 Co178 2.034 . S
N179 C182 1.366 . S
N179 C183 1.332 . S
N180 C181 1.337 . S
N180 C183 1.346 . S
C181 N180 1.337 . S
C181 C182 1.377 . S
C181 H214 0.930 . S
C182 N179 1.366 . S
C182 C181 1.377 . S
C182 H186 0.931 . S
C183 N179 1.332 . S
C183 N180 1.346 . S
C183 C200 1.361 . S
Co184 O187 2.097 . S
Co184 O188 2.065 1_455 S
Co184 O189 2.065 . S
Co184 O190 2.042 . S
Co184 O193 2.097 1_455 S
Co184 O197 2.042 1_455 S
C185 O193 1.253 . S
C185 O198 1.266 . S
H186 C182 0.931 . S
O187 Co172 2.262 . S
O187 Co184 2.097 . S
O187 C211 1.254 . S
O188 Co184 2.065 1_655 S
O188 C204 1.221 . S
O189 Co184 2.065 . S
O189 C199 1.221 . S
O190 Co184 2.042 . S
O190 C205 1.237 . S
O191 Co172 1.958 . S
O191 C205 1.278 . S
O192 Co178 1.950 . S
O192 C204 1.277 . S
O193 Co178 2.262 . S
O193 Co184 2.097 1_655 S
O193 C185 1.253 . S
O194 Co178 1.958 . S
O194 C212 1.278 . S
O195 Co172 1.950 . S
O195 C199 1.277 . S
O196 Co172 2.057 . S
O196 C211 1.270 . S
O197 Co184 2.042 1_655 S
O197 C212 1.237 . S
O198 Co178 2.057 . S
O198 C185 1.266 . S
C199 O189 1.221 . S
C199 O195 1.277 . S
C200 C183 1.361 . S
C200 H201 0.960 . S
C200 H202 0.961 . S
C200 H203 0.961 . S
H201 C200 0.960 . S
H202 C200 0.961 . S
H203 C200 0.961 . S
C204 O188 1.221 . S
C204 O192 1.277 . S
C205 O190 1.237 . S
C205 O191 1.278 . S
H206 C174 0.931 . S
H207 C210 0.961 . S
H208 C210 0.961 . S
H209 C210 0.960 . S
C210 C176 1.361 . S
C210 H207 0.961 . S
C210 H208 0.961 . S
C210 H209 0.960 . S
C211 O187 1.254 . S
C211 O196 1.270 . S
C212 O194 1.278 . S
C212 O197 1.237 . S
H213 C177 0.930 . S
H214 C181 0.930 . S
Co215 N216 2.034 . S
Co215 O230 2.262 . S
Co215 O234 1.958 . S
Co215 O238 1.950 . S
Co215 O239 2.057 . S
N216 Co215 2.034 . S
N216 C217 1.366 . S
N216 C219 1.332 . S
C217 N216 1.366 . S
C217 C220 1.377 . S
C217 H249 0.931 . S
N218 C219 1.346 . S
N218 C220 1.337 . S
C219 N216 1.332 . S
C219 N218 1.346 . S
C219 C253 1.361 . S
C220 C217 1.377 . S
C220 N218 1.337 . S
C220 H256 0.930 . S
Co221 N222 2.034 . S
Co221 O235 1.950 . S
Co221 O236 2.262 . S
Co221 O237 1.958 . S
Co221 O241 2.057 . S
N222 Co221 2.034 . S
N222 C225 1.366 . S
N222 C226 1.332 . S
N223 C224 1.337 . S
N223 C226 1.346 . S
C224 N223 1.337 . S
C224 C225 1.377 . S
C224 H257 0.930 . S
C225 N222 1.366 . S
C225 C224 1.377 . S
C225 H229 0.931 . S
C226 N222 1.332 . S
C226 N223 1.346 . S
C226 C243 1.361 . S
Co227 O230 2.097 . S
Co227 O231 2.065 . S
Co227 O232 2.065 . S
Co227 O233 2.042 . S
Co227 O236 2.097 . S
Co227 O240 2.042 . S
C228 O236 1.253 . S
C228 O241 1.263 . S
H229 C225 0.931 . S
O230 Co215 2.262 . S
O230 Co227 2.097 . S
O230 C254 1.253 . S
O231 Co227 2.065 . S
O231 C247 1.221 . S
O232 Co227 2.065 . S
O232 C242 1.221 . S
O233 Co227 2.042 . S
O233 C248 1.237 . S
O234 Co215 1.958 . S
O234 C248 1.278 . S
O235 Co221 1.950 . S
O235 C247 1.277 . S
O236 Co221 2.262 . S
O236 Co227 2.097 . S
O236 C228 1.253 . S
O237 Co221 1.958 . S
O237 C255 1.278 . S
O238 Co215 1.950 . S
O238 C242 1.277 . S
O239 Co215 2.057 . S
O239 C254 1.263 . S
O240 Co227 2.042 . S
O240 C255 1.237 . S
O241 Co221 2.057 . S
O241 C228 1.263 . S
C242 O232 1.221 . S
C242 O238 1.277 . S
C243 C226 1.361 . S
C243 H244 0.960 . S
C243 H245 0.961 . S
C243 H246 0.961 . S
H244 C243 0.960 . S
H245 C243 0.961 . S
H246 C243 0.961 . S
C247 O231 1.221 . S
C247 O235 1.277 . S
C248 O233 1.237 . S
C248 O234 1.278 . S
H249 C217 0.931 . S
H250 C253 0.961 . S
H251 C253 0.961 . S
H252 C253 0.960 . S
C253 C219 1.361 . S
C253 H250 0.961 . S
C253 H251 0.961 . S
C253 H252 0.960 . S
C254 O230 1.253 . S
C254 O239 1.263 . S
C255 O237 1.278 . S
C255 O240 1.237 . S
H256 C220 0.930 . S
H257 C224 0.930 . S
Co258 N259 2.034 . S
Co258 O273 2.262 . S
Co258 O277 1.958 . S
Co258 O281 1.950 . S
Co258 O282 2.057 . S
N259 Co258 2.034 . S
N259 C260 1.366 . S
N259 C262 1.332 . S
C260 N259 1.366 . S
C260 C263 1.377 . S
C260 H292 0.931 . S
N261 C262 1.346 . S
N261 C263 1.337 . S
C262 N259 1.332 . S
C262 N261 1.346 . S
C262 C296 1.361 . S
C263 C260 1.377 . S
C263 N261 1.337 . S
C263 H299 0.930 . S
Co264 N265 2.034 . S
Co264 O278 1.950 . S
Co264 O279 2.262 . S
Co264 O280 1.958 . S
Co264 O284 2.057 . S
N265 Co264 2.034 . S
N265 C268 1.366 . S
N265 C269 1.332 . S
N266 C267 1.337 . S
N266 C269 1.346 . S
C267 N266 1.337 . S
C267 C268 1.377 . S
C267 H300 0.930 . S
C268 N265 1.366 . S
C268 C267 1.377 . S
C268 H272 0.931 . S
C269 N265 1.332 . S
C269 N266 1.346 . S
C269 C286 1.361 . S
Co270 O273 2.097 . S
Co270 O274 2.065 . S
Co270 O275 2.065 . S
Co270 O276 2.042 . S
Co270 O279 2.097 . S
Co270 O283 2.042 . S
C271 O279 1.253 . S
C271 O284 1.263 . S
H272 C268 0.931 . S
O273 Co258 2.262 . S
O273 Co270 2.097 . S
O273 C297 1.253 . S
O274 Co270 2.065 . S
O274 C290 1.221 . S
O275 Co270 2.065 . S
O275 C285 1.221 . S
O276 Co270 2.042 . S
O276 C291 1.237 . S
O277 Co258 1.958 . S
O277 C291 1.278 . S
O278 Co264 1.950 . S
O278 C290 1.277 . S
O279 Co264 2.262 . S
O279 Co270 2.097 . S
O279 C271 1.253 . S
O280 Co264 1.958 . S
O280 C298 1.278 . S
O281 Co258 1.950 . S
O281 C285 1.277 . S
O282 Co258 2.057 . S
O282 C297 1.263 . S
O283 Co270 2.042 . S
O283 C298 1.237 . S
O284 Co264 2.057 . S
O284 C271 1.263 . S
C285 O275 1.221 . S
C285 O281 1.277 . S
C286 C269 1.361 . S
C286 H287 0.960 . S
C286 H288 0.961 . S
C286 H289 0.961 . S
H287 C286 0.960 . S
H288 C286 0.961 . S
H289 C286 0.961 . S
C290 O274 1.221 . S
C290 O278 1.277 . S
C291 O276 1.237 . S
C291 O277 1.278 . S
H292 C260 0.931 . S
H293 C296 0.961 . S
H294 C296 0.961 . S
H295 C296 0.960 . S
C296 C262 1.361 . S
C296 H293 0.961 . S
C296 H294 0.961 . S
C296 H295 0.960 . S
C297 O273 1.253 . S
C297 O282 1.263 . S
C298 O280 1.278 . S
C298 O283 1.237 . S
H299 C263 0.930 . S
H300 C267 0.930 . S
Co301 N302 2.034 . S
Co301 O316 2.262 . S
Co301 O320 1.958 . S
Co301 O324 1.950 . S
Co301 O325 2.057 . S
N302 Co301 2.034 . S
N302 C303 1.366 . S
N302 C305 1.332 . S
C303 N302 1.366 . S
C303 C306 1.377 . S
C303 H335 0.931 . S
N304 C305 1.346 . S
N304 C306 1.337 . S
C305 N302 1.332 . S
C305 N304 1.346 . S
C305 C339 1.361 . S
C306 C303 1.377 . S
C306 N304 1.337 . S
C306 H342 0.930 . S
Co307 N308 2.034 . S
Co307 O321 1.950 . S
Co307 O322 2.262 . S
Co307 O323 1.958 . S
Co307 O327 2.057 . S
N308 Co307 2.034 . S
N308 C311 1.366 . S
N308 C312 1.332 . S
N309 C310 1.337 . S
N309 C312 1.346 . S
C310 N309 1.337 . S
C310 C311 1.377 . S
C310 H343 0.930 . S
C311 N308 1.366 . S
C311 C310 1.377 . S
C311 H315 0.931 . S
C312 N308 1.332 . S
C312 N309 1.346 . S
C312 C329 1.361 . S
Co313 O316 2.097 1_455 S
Co313 O317 2.065 1_455 S
Co313 O318 2.065 . S
Co313 O319 2.042 . S
Co313 O322 2.097 . S
Co313 O326 2.042 1_455 S
C314 O322 1.253 . S
C314 O327 1.263 . S
H315 C311 0.931 . S
O316 Co301 2.262 . S
O316 Co313 2.097 1_655 S
O316 C340 1.253 . S
O317 Co313 2.065 1_655 S
O317 C333 1.221 1_655 S
O318 Co313 2.065 . S
O318 C328 1.221 1_455 S
O319 Co313 2.042 . S
O319 C334 1.237 1_456 S
O320 Co301 1.958 . S
O320 C334 1.278 1_556 S
O321 Co307 1.950 . S
O321 C333 1.277 . S
O322 Co307 2.262 . S
O322 Co313 2.097 . S
O322 C314 1.253 . S
O323 Co307 1.958 . S
O323 C341 1.278 1_556 S
O324 Co301 1.950 . S
O324 C328 1.277 . S
O325 Co301 2.057 . S
O325 C340 1.263 . S
O326 Co313 2.042 1_655 S
O326 C341 1.237 1_656 S
O327 Co307 2.057 . S
O327 C314 1.263 . S
C328 O318 1.221 1_655 S
C328 O324 1.277 . S
C329 C312 1.361 . S
C329 H330 0.960 . S
C329 H331 0.961 . S
C329 H332 0.961 . S
H330 C329 0.960 . S
H331 C329 0.961 . S
H332 C329 0.961 . S
C333 O317 1.221 1_455 S
C333 O321 1.277 . S
C334 O319 1.237 1_654 S
C334 O320 1.278 1_554 S
H335 C303 0.931 . S
H336 C339 0.961 . S
H337 C339 0.961 . S
H338 C339 0.960 . S
C339 C305 1.361 . S
C339 H336 0.961 . S
C339 H337 0.961 . S
C339 H338 0.960 . S
C340 O316 1.253 . S
C340 O325 1.263 . S
C341 O323 1.278 1_554 S
C341 O326 1.237 1_454 S
H342 C306 0.930 . S
H343 C310 0.930 . S
Co344 N345 2.034 . S
Co344 O359 2.262 . S
Co344 O363 1.958 . S
Co344 O367 1.950 . S
Co344 O368 2.057 . S
N345 Co344 2.034 . S
N345 C346 1.366 . S
N345 C348 1.332 . S
C346 N345 1.366 . S
C346 C349 1.377 . S
C346 H378 0.931 . S
N347 C348 1.346 . S
N347 C349 1.337 . S
C348 N345 1.332 . S
C348 N347 1.346 . S
C348 C382 1.361 . S
C349 C346 1.377 . S
C349 N347 1.337 . S
C349 H385 0.930 . S
Co350 N351 2.034 . S
Co350 O364 1.950 . S
Co350 O365 2.262 . S
Co350 O366 1.958 . S
Co350 O370 2.057 . S
N351 Co350 2.034 . S
N351 C354 1.366 . S
N351 C355 1.332 . S
N352 C353 1.337 . S
N352 C355 1.346 . S
C353 N352 1.337 . S
C353 C354 1.377 . S
C353 H386 0.930 . S
C354 N351 1.366 . S
C354 C353 1.377 . S
C354 H358 0.931 . S
C355 N351 1.332 . S
C355 N352 1.346 . S
C355 C372 1.361 . S
Co356 O359 2.097 1_545 S
Co356 O360 2.065 . S
Co356 O361 2.065 1_545 S
Co356 O362 2.042 1_545 S
Co356 O365 2.097 . S
Co356 O369 2.042 . S
C357 O365 1.254 . S
C357 O370 1.270 . S
H358 C354 0.931 . S
O359 Co344 2.262 . S
O359 Co356 2.097 1_565 S
O359 C383 1.253 . S
O360 Co356 2.065 . S
O360 C376 1.221 . S
O361 Co356 2.065 1_565 S
O361 C371 1.221 . S
O362 Co356 2.042 1_565 S
O362 C377 1.237 . S
O363 Co344 1.958 . S
O363 C377 1.278 . S
O364 Co350 1.950 . S
O364 C376 1.277 . S
O365 Co350 2.262 . S
O365 Co356 2.097 . S
O365 C357 1.254 . S
O366 Co350 1.958 . S
O366 C384 1.278 . S
O367 Co344 1.950 . S
O367 C371 1.277 . S
O368 Co344 2.057 . S
O368 C383 1.266 . S
O369 Co356 2.042 . S
O369 C384 1.237 . S
O370 Co350 2.057 . S
O370 C357 1.270 . S
C371 O361 1.221 . S
C371 O367 1.277 . S
C372 C355 1.361 . S
C372 H373 0.960 . S
C372 H374 0.961 . S
C372 H375 0.961 . S
H373 C372 0.960 . S
H374 C372 0.961 . S
H375 C372 0.961 . S
C376 O360 1.221 . S
C376 O364 1.277 . S
C377 O362 1.237 . S
C377 O363 1.278 . S
H378 C346 0.931 . S
H379 C382 0.961 . S
H380 C382 0.961 . S
H381 C382 0.960 . S
C382 C348 1.361 . S
C382 H379 0.961 . S
C382 H380 0.961 . S
C382 H381 0.960 . S
C383 O359 1.253 . S
C383 O368 1.266 . S
C384 O366 1.278 . S
C384 O369 1.237 . S
H385 C349 0.930 . S
H386 C353 0.930 . S
Co387 N388 2.034 . S
Co387 O402 2.262 . S
Co387 O406 1.958 . S
Co387 O410 1.950 . S
Co387 O411 2.057 . S
N388 Co387 2.034 . S
N388 C389 1.366 . S
N388 C391 1.332 . S
C389 N388 1.366 . S
C389 C392 1.377 . S
C389 H421 0.931 . S
N390 C391 1.346 . S
N390 C392 1.337 . S
C391 N388 1.332 . S
C391 N390 1.346 . S
C391 C425 1.361 . S
C392 C389 1.377 . S
C392 N390 1.337 . S
C392 H428 0.930 . S
Co393 N394 2.034 . S
Co393 O407 1.950 . S
Co393 O408 2.262 . S
Co393 O409 1.958 . S
Co393 O413 2.057 . S
N394 Co393 2.034 . S
N394 C397 1.366 . S
N394 C398 1.332 . S
N395 C396 1.337 . S
N395 C398 1.346 . S
C396 N395 1.337 . S
C396 C397 1.377 . S
C396 H429 0.930 . S
C397 N394 1.366 . S
C397 C396 1.377 . S
C397 H401 0.931 . S
C398 N394 1.332 . S
C398 N395 1.346 . S
C398 C415 1.361 . S
Co399 O402 2.097 . S
Co399 O403 2.065 . S
Co399 O404 2.065 . S
Co399 O405 2.042 . S
Co399 O408 2.097 . S
Co399 O412 2.042 . S
C400 O408 1.253 . S
C400 O413 1.263 . S
H401 C397 0.931 . S
O402 Co387 2.262 . S
O402 Co399 2.097 . S
O402 C426 1.253 . S
O403 Co399 2.065 . S
O403 C419 1.221 . S
O404 Co399 2.065 . S
O404 C414 1.221 . S
O405 Co399 2.042 . S
O405 C420 1.237 1_545 S
O406 Co387 1.958 . S
O406 C420 1.278 1_545 S
O407 Co393 1.950 . S
O407 C419 1.277 . S
O408 Co393 2.262 . S
O408 Co399 2.097 . S
O408 C400 1.253 . S
O409 Co393 1.958 . S
O409 C427 1.278 1_545 S
O410 Co387 1.950 . S
O410 C414 1.277 . S
O411 Co387 2.057 . S
O411 C426 1.263 . S
O412 Co399 2.042 . S
O412 C427 1.237 1_545 S
O413 Co393 2.057 . S
O413 C400 1.263 . S
C414 O404 1.221 . S
C414 O410 1.277 . S
C415 C398 1.361 . S
C415 H416 0.960 . S
C415 H417 0.961 . S
C415 H418 0.961 . S
H416 C415 0.960 . S
H417 C415 0.961 . S
H418 C415 0.961 . S
C419 O403 1.221 . S
C419 O407 1.277 . S
C420 O405 1.237 1_565 S
C420 O406 1.278 1_565 S
H421 C389 0.931 . S
H422 C425 0.961 . S
H423 C425 0.961 . S
H424 C425 0.960 . S
C425 C391 1.361 . S
C425 H422 0.961 . S
C425 H423 0.961 . S
C425 H424 0.960 . S
C426 O402 1.253 . S
C426 O411 1.263 . S
C427 O409 1.278 1_565 S
C427 O412 1.237 1_565 S
H428 C392 0.930 . S
H429 C396 0.930 . S
Co430 N431 2.034 . S
Co430 O445 2.262 . S
Co430 O449 1.958 . S
Co430 O453 1.950 . S
Co430 O454 2.057 . S
N431 Co430 2.034 . S
N431 C432 1.366 . S
N431 C434 1.332 . S
C432 N431 1.366 . S
C432 C435 1.377 . S
C432 H464 0.931 . S
N433 C434 1.346 . S
N433 C435 1.337 . S
C434 N431 1.332 . S
C434 N433 1.346 . S
C434 C468 1.361 . S
C435 C432 1.377 . S
C435 N433 1.337 . S
C435 H471 0.930 . S
Co436 N437 2.034 . S
Co436 O450 1.950 . S
Co436 O451 2.262 . S
Co436 O452 1.958 . S
Co436 O456 2.057 . S
N437 Co436 2.034 . S
N437 C440 1.366 . S
N437 C441 1.332 . S
N438 C439 1.337 . S
N438 C441 1.346 . S
C439 N438 1.337 . S
C439 C440 1.377 . S
C439 H472 0.930 . S
C440 N437 1.366 . S
C440 C439 1.377 . S
C440 H444 0.931 . S
C441 N437 1.332 . S
C441 N438 1.346 . S
C441 C458 1.361 . S
Co442 O445 2.097 1_545 S
Co442 O446 2.065 . S
Co442 O447 2.065 1_545 S
Co442 O448 2.042 1_545 S
Co442 O451 2.097 . S
Co442 O455 2.042 . S
C443 O451 1.254 . S
C443 O456 1.270 . S
H444 C440 0.931 . S
O445 Co430 2.262 . S
O445 Co442 2.097 1_565 S
O445 C469 1.253 . S
O446 Co442 2.065 . S
O446 C462 1.221 . S
O447 Co442 2.065 1_565 S
O447 C457 1.221 . S
O448 Co442 2.042 1_565 S
O448 C463 1.237 . S
O449 Co430 1.958 . S
O449 C463 1.278 . S
O450 Co436 1.950 . S
O450 C462 1.277 . S
O451 Co436 2.262 . S
O451 Co442 2.097 . S
O451 C443 1.254 . S
O452 Co436 1.958 . S
O452 C470 1.278 . S
O453 Co430 1.950 . S
O453 C457 1.277 . S
O454 Co430 2.057 . S
O454 C469 1.266 . S
O455 Co442 2.042 . S
O455 C470 1.237 . S
O456 Co436 2.057 . S
O456 C443 1.270 . S
C457 O447 1.221 . S
C457 O453 1.277 . S
C458 C441 1.361 . S
C458 H459 0.960 . S
C458 H460 0.961 . S
C458 H461 0.961 . S
H459 C458 0.960 . S
H460 C458 0.961 . S
H461 C458 0.961 . S
C462 O446 1.221 . S
C462 O450 1.277 . S
C463 O448 1.237 . S
C463 O449 1.278 . S
H464 C432 0.931 . S
H465 C468 0.961 . S
H466 C468 0.961 . S
H467 C468 0.960 . S
C468 C434 1.361 . S
C468 H465 0.961 . S
C468 H466 0.961 . S
C468 H467 0.960 . S
C469 O445 1.253 . S
C469 O454 1.266 . S
C470 O452 1.278 . S
C470 O455 1.237 . S
H471 C435 0.930 . S
H472 C439 0.930 . S
Co473 N474 2.034 . S
Co473 O488 2.262 . S
Co473 O492 1.958 . S
Co473 O496 1.950 . S
Co473 O497 2.057 . S
N474 Co473 2.034 . S
N474 C475 1.366 . S
N474 C477 1.332 . S
C475 N474 1.366 . S
C475 C478 1.377 . S
C475 H507 0.931 . S
N476 C477 1.346 . S
N476 C478 1.337 . S
C477 N474 1.332 . S
C477 N476 1.346 . S
C477 C511 1.361 . S
C478 C475 1.377 . S
C478 N476 1.337 . S
C478 H514 0.930 . S
Co479 N480 2.034 . S
Co479 O493 1.950 . S
Co479 O494 2.262 . S
Co479 O495 1.958 . S
Co479 O499 2.057 . S
N480 Co479 2.034 . S
N480 C483 1.366 . S
N480 C484 1.332 . S
N481 C482 1.337 . S
N481 C484 1.346 . S
C482 N481 1.337 . S
C482 C483 1.377 . S
C482 H515 0.930 . S
C483 N480 1.366 . S
C483 C482 1.377 . S
C483 H487 0.931 . S
C484 N480 1.332 . S
C484 N481 1.346 . S
C484 C501 1.361 . S
Co485 O488 2.097 1_554 S
Co485 O489 2.065 1_554 S
Co485 O490 2.065 . S
Co485 O491 2.042 . S
Co485 O494 2.097 . S
Co485 O498 2.042 1_554 S
C486 O494 1.253 . S
C486 O499 1.263 . S
H487 C483 0.931 . S
O488 Co473 2.262 . S
O488 Co485 2.097 1_556 S
O488 C512 1.253 . S
O489 Co485 2.065 1_556 S
O489 C505 1.221 1_556 S
O490 Co485 2.065 . S
O490 C500 1.221 1_554 S
O491 Co485 2.042 . S
O491 C506 1.237 1_564 S
O492 Co473 1.958 . S
O492 C506 1.278 1_565 S
O493 Co479 1.950 . S
O493 C505 1.277 . S
O494 Co479 2.262 . S
O494 Co485 2.097 . S
O494 C486 1.253 . S
O495 Co479 1.958 . S
O495 C513 1.278 1_565 S
O496 Co473 1.950 . S
O496 C500 1.277 . S
O497 Co473 2.057 . S
O497 C512 1.263 . S
O498 Co485 2.042 1_556 S
O498 C513 1.237 1_566 S
O499 Co479 2.057 . S
O499 C486 1.263 . S
C500 O490 1.221 1_556 S
C500 O496 1.277 . S
C501 C484 1.361 . S
C501 H502 0.960 . S
C501 H503 0.961 . S
C501 H504 0.961 . S
H502 C501 0.960 . S
H503 C501 0.961 . S
H504 C501 0.961 . S
C505 O489 1.221 1_554 S
C505 O493 1.277 . S
C506 O491 1.237 1_546 S
C506 O492 1.278 1_545 S
H507 C475 0.931 . S
H508 C511 0.961 . S
H509 C511 0.961 . S
H510 C511 0.960 . S
C511 C477 1.361 . S
C511 H508 0.961 . S
C511 H509 0.961 . S
C511 H510 0.960 . S
C512 O488 1.253 . S
C512 O497 1.263 . S
C513 O495 1.278 1_545 S
C513 O498 1.237 1_544 S
H514 C478 0.930 . S
H515 C482 0.930 . S
Co516 N517 2.034 . S
Co516 O531 2.262 . S
Co516 O535 1.958 . S
Co516 O539 1.950 . S
Co516 O540 2.057 . S
N517 Co516 2.034 . S
N517 C518 1.366 . S
N517 C520 1.332 . S
C518 N517 1.366 . S
C518 C521 1.377 . S
C518 H550 0.931 . S
N519 C520 1.346 . S
N519 C521 1.337 . S
C520 N517 1.332 . S
C520 N519 1.346 . S
C520 C554 1.361 . S
C521 C518 1.377 . S
C521 N519 1.337 . S
C521 H557 0.930 . S
Co522 N523 2.034 . S
Co522 O536 1.950 . S
Co522 O537 2.262 . S
Co522 O538 1.958 . S
Co522 O542 2.057 . S
N523 Co522 2.034 . S
N523 C526 1.366 . S
N523 C527 1.332 . S
N524 C525 1.337 . S
N524 C527 1.346 . S
C525 N524 1.337 . S
C525 C526 1.377 . S
C525 H558 0.930 . S
C526 N523 1.366 . S
C526 C525 1.377 . S
C526 H530 0.931 . S
C527 N523 1.332 . S
C527 N524 1.346 . S
C527 C544 1.361 . S
Co528 O531 2.097 . S
Co528 O532 2.065 1_554 S
Co528 O533 2.065 . S
Co528 O534 2.042 . S
Co528 O537 2.097 1_554 S
Co528 O541 2.042 1_554 S
C529 O537 1.253 . S
C529 O542 1.266 . S
H530 C526 0.931 . S
O531 Co516 2.262 . S
O531 Co528 2.097 . S
O531 C555 1.254 . S
O532 Co528 2.065 1_556 S
O532 C548 1.221 . S
O533 Co528 2.065 . S
O533 C543 1.221 . S
O534 Co528 2.042 . S
O534 C549 1.237 . S
O535 Co516 1.958 . S
O535 C549 1.278 . S
O536 Co522 1.950 . S
O536 C548 1.277 . S
O537 Co522 2.262 . S
O537 Co528 2.097 1_556 S
O537 C529 1.253 . S
O538 Co522 1.958 . S
O538 C556 1.278 . S
O539 Co516 1.950 . S
O539 C543 1.277 . S
O540 Co516 2.057 . S
O540 C555 1.270 . S
O541 Co528 2.042 1_556 S
O541 C556 1.237 . S
O542 Co522 2.057 . S
O542 C529 1.266 . S
C543 O533 1.221 . S
C543 O539 1.277 . S
C544 C527 1.361 . S
C544 H545 0.960 . S
C544 H546 0.961 . S
C544 H547 0.961 . S
H545 C544 0.960 . S
H546 C544 0.961 . S
H547 C544 0.961 . S
C548 O532 1.221 . S
C548 O536 1.277 . S
C549 O534 1.237 . S
C549 O535 1.278 . S
H550 C518 0.931 . S
H551 C554 0.961 . S
H552 C554 0.961 . S
H553 C554 0.960 . S
C554 C520 1.361 . S
C554 H551 0.961 . S
C554 H552 0.961 . S
C554 H553 0.960 . S
C555 O531 1.254 . S
C555 O540 1.270 . S
C556 O538 1.278 . S
C556 O541 1.237 . S
H557 C521 0.930 . S
H558 C525 0.930 . S
Co559 N560 2.034 . S
Co559 O574 2.262 . S
Co559 O578 1.958 . S
Co559 O582 1.950 . S
Co559 O583 2.057 . S
N560 Co559 2.034 . S
N560 C561 1.366 . S
N560 C563 1.332 . S
C561 N560 1.366 . S
C561 C564 1.377 . S
C561 H593 0.931 . S
N562 C563 1.346 . S
N562 C564 1.337 . S
C563 N560 1.332 . S
C563 N562 1.346 . S
C563 C597 1.361 . S
C564 C561 1.377 . S
C564 N562 1.337 . S
C564 H600 0.930 . S
Co565 N566 2.034 . S
Co565 O579 1.950 . S
Co565 O580 2.262 . S
Co565 O581 1.958 . S
Co565 O585 2.057 . S
N566 Co565 2.034 . S
N566 C569 1.366 . S
N566 C570 1.332 . S
N567 C568 1.337 . S
N567 C570 1.346 . S
C568 N567 1.337 . S
C568 C569 1.377 . S
C568 H601 0.930 . S
C569 N566 1.366 . S
C569 C568 1.377 . S
C569 H573 0.931 . S
C570 N566 1.332 . S
C570 N567 1.346 . S
C570 C587 1.361 . S
Co571 O574 2.097 1_554 S
Co571 O575 2.065 . S
Co571 O576 2.065 1_554 S
Co571 O577 2.042 1_554 S
Co571 O580 2.097 . S
Co571 O584 2.042 . S
C572 O580 1.254 . S
C572 O585 1.270 . S
H573 C569 0.931 . S
O574 Co559 2.262 . S
O574 Co571 2.097 1_556 S
O574 C598 1.253 . S
O575 Co571 2.065 . S
O575 C591 1.221 . S
O576 Co571 2.065 1_556 S
O576 C586 1.221 . S
O577 Co571 2.042 1_556 S
O577 C592 1.237 . S
O578 Co559 1.958 . S
O578 C592 1.278 . S
O579 Co565 1.950 . S
O579 C591 1.277 . S
O580 Co565 2.262 . S
O580 Co571 2.097 . S
O580 C572 1.254 . S
O581 Co565 1.958 . S
O581 C599 1.278 . S
O582 Co559 1.950 . S
O582 C586 1.277 . S
O583 Co559 2.057 . S
O583 C598 1.266 . S
O584 Co571 2.042 . S
O584 C599 1.237 . S
O585 Co565 2.057 . S
O585 C572 1.270 . S
C586 O576 1.221 . S
C586 O582 1.277 . S
C587 C570 1.361 . S
C587 H588 0.960 . S
C587 H589 0.961 . S
C587 H590 0.961 . S
H588 C587 0.960 . S
H589 C587 0.961 . S
H590 C587 0.961 . S
C591 O575 1.221 . S
C591 O579 1.277 . S
C592 O577 1.237 . S
C592 O578 1.278 . S
H593 C561 0.931 . S
H594 C597 0.961 . S
H595 C597 0.961 . S
H596 C597 0.960 . S
C597 C563 1.361 . S
C597 H594 0.961 . S
C597 H595 0.961 . S
C597 H596 0.960 . S
C598 O574 1.253 . S
C598 O583 1.266 . S
C599 O581 1.278 . S
C599 O584 1.237 . S
H600 C564 0.930 . S
H601 C568 0.930 . S
Co602 N603 2.034 . S
Co602 O617 2.262 . S
Co602 O621 1.958 . S
Co602 O625 1.950 . S
Co602 O626 2.057 . S
N603 Co602 2.034 . S
N603 C604 1.366 . S
N603 C606 1.332 . S
C604 N603 1.366 . S
C604 C607 1.377 . S
C604 H636 0.931 . S
N605 C606 1.346 . S
N605 C607 1.337 . S
C606 N603 1.332 . S
C606 N605 1.346 . S
C606 C640 1.361 . S
C607 C604 1.377 . S
C607 N605 1.337 . S
C607 H643 0.930 . S
Co608 N609 2.034 . S
Co608 O622 1.950 . S
Co608 O623 2.262 . S
Co608 O624 1.958 . S
Co608 O628 2.057 . S
N609 Co608 2.034 . S
N609 C612 1.366 . S
N609 C613 1.332 . S
N610 C611 1.337 . S
N610 C613 1.346 . S
C611 N610 1.337 . S
C611 C612 1.377 . S
C611 H644 0.930 . S
C612 N609 1.366 . S
C612 C611 1.377 . S
C612 H616 0.931 . S
C613 N609 1.332 . S
C613 N610 1.346 . S
C613 C630 1.361 . S
Co614 O617 2.097 . S
Co614 O618 2.065 . S
Co614 O619 2.065 . S
Co614 O620 2.042 . S
Co614 O623 2.097 . S
Co614 O627 2.042 . S
C615 O623 1.253 . S
C615 O628 1.263 . S
H616 C612 0.931 . S
O617 Co602 2.262 . S
O617 Co614 2.097 . S
O617 C641 1.253 . S
O618 Co614 2.065 . S
O618 C634 1.221 . S
O619 Co614 2.065 . S
O619 C629 1.221 . S
O620 Co614 2.042 . S
O620 C635 1.237 1_455 S
O621 Co602 1.958 . S
O621 C635 1.278 1_455 S
O622 Co608 1.950 . S
O622 C634 1.277 . S
O623 Co608 2.262 . S
O623 Co614 2.097 . S
O623 C615 1.253 . S
O624 Co608 1.958 . S
O624 C642 1.278 1_455 S
O625 Co602 1.950 . S
O625 C629 1.277 . S
O626 Co602 2.057 . S
O626 C641 1.263 . S
O627 Co614 2.042 . S
O627 C642 1.237 1_455 S
O628 Co608 2.057 . S
O628 C615 1.263 . S
C629 O619 1.221 . S
C629 O625 1.277 . S
C630 C613 1.361 . S
C630 H631 0.960 . S
C630 H632 0.961 . S
C630 H633 0.961 . S
H631 C630 0.960 . S
H632 C630 0.961 . S
H633 C630 0.961 . S
C634 O618 1.221 . S
C634 O622 1.277 . S
C635 O620 1.237 1_655 S
C635 O621 1.278 1_655 S
H636 C604 0.931 . S
H637 C640 0.961 . S
H638 C640 0.961 . S
H639 C640 0.960 . S
C640 C606 1.361 . S
C640 H637 0.961 . S
C640 H638 0.961 . S
C640 H639 0.960 . S
C641 O617 1.253 . S
C641 O626 1.263 . S
C642 O624 1.278 1_655 S
C642 O627 1.237 1_655 S
H643 C607 0.930 . S
H644 C611 0.930 . S
Co645 N646 2.034 . S
Co645 O660 2.262 . S
Co645 O664 1.958 . S
Co645 O668 1.950 . S
Co645 O669 2.057 . S
N646 Co645 2.034 . S
N646 C647 1.366 . S
N646 C649 1.332 . S
C647 N646 1.366 . S
C647 C650 1.377 . S
C647 H679 0.931 . S
N648 C649 1.346 . S
N648 C650 1.337 . S
C649 N646 1.332 . S
C649 N648 1.346 . S
C649 C683 1.361 . S
C650 C647 1.377 . S
C650 N648 1.337 . S
C650 H686 0.930 . S
Co651 N652 2.034 . S
Co651 O665 1.950 . S
Co651 O666 2.262 . S
Co651 O667 1.958 . S
Co651 O671 2.057 . S
N652 Co651 2.034 . S
N652 C655 1.366 . S
N652 C656 1.332 . S
N653 C654 1.337 . S
N653 C656 1.346 . S
C654 N653 1.337 . S
C654 C655 1.377 . S
C654 H687 0.930 . S
C655 N652 1.366 . S
C655 C654 1.377 . S
C655 H659 0.931 . S
C656 N652 1.332 . S
C656 N653 1.346 . S
C656 C673 1.361 . S
Co657 O660 2.097 . S
Co657 O661 2.065 . S
Co657 O662 2.065 . S
Co657 O663 2.042 . S
Co657 O666 2.097 . S
Co657 O670 2.042 . S
C658 O666 1.253 . S
C658 O671 1.263 . S
H659 C655 0.931 . S
O660 Co645 2.262 . S
O660 Co657 2.097 . S
O660 C684 1.253 . S
O661 Co657 2.065 . S
O661 C677 1.221 . S
O662 Co657 2.065 . S
O662 C672 1.221 . S
O663 Co657 2.042 . S
O663 C678 1.237 . S
O664 Co645 1.958 . S
O664 C678 1.278 . S
O665 Co651 1.950 . S
O665 C677 1.277 . S
O666 Co651 2.262 . S
O666 Co657 2.097 . S
O666 C658 1.253 . S
O667 Co651 1.958 . S
O667 C685 1.278 . S
O668 Co645 1.950 . S
O668 C672 1.277 . S
O669 Co645 2.057 . S
O669 C684 1.263 . S
O670 Co657 2.042 . S
O670 C685 1.237 . S
O671 Co651 2.057 . S
O671 C658 1.263 . S
C672 O662 1.221 . S
C672 O668 1.277 . S
C673 C656 1.361 . S
C673 H674 0.960 . S
C673 H675 0.961 . S
C673 H676 0.961 . S
H674 C673 0.960 . S
H675 C673 0.961 . S
H676 C673 0.961 . S
C677 O661 1.221 . S
C677 O665 1.277 . S
C678 O663 1.237 . S
C678 O664 1.278 . S
H679 C647 0.931 . S
H680 C683 0.961 . S
H681 C683 0.961 . S
H682 C683 0.960 . S
C683 C649 1.361 . S
C683 H680 0.961 . S
C683 H681 0.961 . S
C683 H682 0.960 . S
C684 O660 1.253 . S
C684 O669 1.263 . S
C685 O667 1.278 . S
C685 O670 1.237 . S
H686 C650 0.930 . S
H687 C654 0.930 . S
Co688 N689 2.034 . S
Co688 O703 2.262 . S
Co688 O707 1.958 . S
Co688 O711 1.950 . S
Co688 O712 2.057 . S
N689 Co688 2.034 . S
N689 C690 1.366 . S
N689 C692 1.332 . S
C690 N689 1.366 . S
C690 C693 1.377 . S
C690 H722 0.931 . S
N691 C692 1.346 . S
N691 C693 1.337 . S
C692 N689 1.332 . S
C692 N691 1.346 . S
C692 C726 1.361 . S
C693 C690 1.377 . S
C693 N691 1.337 . S
C693 H729 0.930 . S
Co694 N695 2.034 . S
Co694 O708 1.950 . S
Co694 O709 2.262 . S
Co694 O710 1.958 . S
Co694 O714 2.057 . S
N695 Co694 2.034 . S
N695 C698 1.366 . S
N695 C699 1.332 . S
N696 C697 1.337 . S
N696 C699 1.346 . S
C697 N696 1.337 . S
C697 C698 1.377 . S
C697 H730 0.930 . S
C698 N695 1.366 . S
C698 C697 1.377 . S
C698 H702 0.931 . S
C699 N695 1.332 . S
C699 N696 1.346 . S
C699 C716 1.361 . S
Co700 O703 2.097 1_545 S
Co700 O704 2.065 1_545 S
Co700 O705 2.065 . S
Co700 O706 2.042 . S
Co700 O709 2.097 . S
Co700 O713 2.042 1_545 S
C701 O709 1.253 . S
C701 O714 1.263 . S
H702 C698 0.931 . S
O703 Co688 2.262 . S
O703 Co700 2.097 1_565 S
O703 C727 1.253 . S
O704 Co700 2.065 1_565 S
O704 C720 1.221 1_565 S
O705 Co700 2.065 . S
O705 C715 1.221 1_545 S
O706 Co700 2.042 . S
O706 C721 1.237 1_645 S
O707 Co688 1.958 . S
O707 C721 1.278 1_655 S
O708 Co694 1.950 . S
O708 C720 1.277 . S
O709 Co694 2.262 . S
O709 Co700 2.097 . S
O709 C701 1.253 . S
O710 Co694 1.958 . S
O710 C728 1.278 1_655 S
O711 Co688 1.950 . S
O711 C715 1.277 . S
O712 Co688 2.057 . S
O712 C727 1.263 . S
O713 Co700 2.042 1_565 S
O713 C728 1.237 1_665 S
O714 Co694 2.057 . S
O714 C701 1.263 . S
C715 O705 1.221 1_565 S
C715 O711 1.277 . S
C716 C699 1.361 . S
C716 H717 0.960 . S
C716 H718 0.961 . S
C716 H719 0.961 . S
H717 C716 0.960 . S
H718 C716 0.961 . S
H719 C716 0.961 . S
C720 O704 1.221 1_545 S
C720 O708 1.277 . S
C721 O706 1.237 1_465 S
C721 O707 1.278 1_455 S
H722 C690 0.931 . S
H723 C726 0.961 . S
H724 C726 0.961 . S
H725 C726 0.960 . S
C726 C692 1.361 . S
C726 H723 0.961 . S
C726 H724 0.961 . S
C726 H725 0.960 . S
C727 O703 1.253 . S
C727 O712 1.263 . S
C728 O710 1.278 1_455 S
C728 O713 1.237 1_445 S
H729 C693 0.930 . S
H730 C697 0.930 . S
Co731 N732 2.034 . S
Co731 O746 2.262 . S
Co731 O750 1.958 . S
Co731 O754 1.950 . S
Co731 O755 2.057 . S
N732 Co731 2.034 . S
N732 C733 1.366 . S
N732 C735 1.332 . S
C733 N732 1.366 . S
C733 C736 1.377 . S
C733 H765 0.931 . S
N734 C735 1.346 . S
N734 C736 1.337 . S
C735 N732 1.332 . S
C735 N734 1.346 . S
C735 C769 1.361 . S
C736 C733 1.377 . S
C736 N734 1.337 . S
C736 H772 0.930 . S
Co737 N738 2.034 . S
Co737 O751 1.950 . S
Co737 O752 2.262 . S
Co737 O753 1.958 . S
Co737 O757 2.057 . S
N738 Co737 2.034 . S
N738 C741 1.366 . S
N738 C742 1.332 . S
N739 C740 1.337 . S
N739 C742 1.346 . S
C740 N739 1.337 . S
C740 C741 1.377 . S
C740 H773 0.930 . S
C741 N738 1.366 . S
C741 C740 1.377 . S
C741 H745 0.931 . S
C742 N738 1.332 . S
C742 N739 1.346 . S
C742 C759 1.361 . S
Co743 O746 2.097 . S
Co743 O747 2.065 . S
Co743 O748 2.065 . S
Co743 O749 2.042 . S
Co743 O752 2.097 . S
Co743 O756 2.042 . S
C744 O752 1.253 . S
C744 O757 1.263 . S
H745 C741 0.931 . S
O746 Co731 2.262 . S
O746 Co743 2.097 . S
O746 C770 1.253 . S
O747 Co743 2.065 . S
O747 C763 1.221 . S
O748 Co743 2.065 . S
O748 C758 1.221 . S
O749 Co743 2.042 . S
O749 C764 1.237 . S
O750 Co731 1.958 . S
O750 C764 1.278 . S
O751 Co737 1.950 . S
O751 C763 1.277 . S
O752 Co737 2.262 . S
O752 Co743 2.097 . S
O752 C744 1.253 . S
O753 Co737 1.958 . S
O753 C771 1.278 . S
O754 Co731 1.950 . S
O754 C758 1.277 . S
O755 Co731 2.057 . S
O755 C770 1.263 . S
O756 Co743 2.042 . S
O756 C771 1.237 . S
O757 Co737 2.057 . S
O757 C744 1.263 . S
C758 O748 1.221 . S
C758 O754 1.277 . S
C759 C742 1.361 . S
C759 H760 0.960 . S
C759 H761 0.961 . S
C759 H762 0.961 . S
H760 C759 0.960 . S
H761 C759 0.961 . S
H762 C759 0.961 . S
C763 O747 1.221 . S
C763 O751 1.277 . S
C764 O749 1.237 . S
C764 O750 1.278 . S
H765 C733 0.931 . S
H766 C769 0.961 . S
H767 C769 0.961 . S
H768 C769 0.960 . S
C769 C735 1.361 . S
C769 H766 0.961 . S
C769 H767 0.961 . S
C769 H768 0.960 . S
C770 O746 1.253 . S
C770 O755 1.263 . S
C771 O753 1.278 . S
C771 O756 1.237 . S
H772 C736 0.930 . S
H773 C740 0.930 . S
Co774 N775 2.034 . S
Co774 O789 2.262 . S
Co774 O793 1.958 . S
Co774 O797 1.950 . S
Co774 O798 2.057 . S
N775 Co774 2.034 . S
N775 C776 1.366 . S
N775 C778 1.332 . S
C776 N775 1.366 . S
C776 C779 1.377 . S
C776 H808 0.931 . S
N777 C778 1.346 . S
N777 C779 1.337 . S
C778 N775 1.332 . S
C778 N777 1.346 . S
C778 C812 1.361 . S
C779 C776 1.377 . S
C779 N777 1.337 . S
C779 H815 0.930 . S
Co780 N781 2.034 . S
Co780 O794 1.950 . S
Co780 O795 2.262 . S
Co780 O796 1.958 . S
Co780 O800 2.057 . S
N781 Co780 2.034 . S
N781 C784 1.366 . S
N781 C785 1.332 . S
N782 C783 1.337 . S
N782 C785 1.346 . S
C783 N782 1.337 . S
C783 C784 1.377 . S
C783 H816 0.930 . S
C784 N781 1.366 . S
C784 C783 1.377 . S
C784 H788 0.931 . S
C785 N781 1.332 . S
C785 N782 1.346 . S
C785 C802 1.361 . S
Co786 O789 2.097 . S
Co786 O790 2.065 . S
Co786 O791 2.065 . S
Co786 O792 2.042 . S
Co786 O795 2.097 . S
Co786 O799 2.042 . S
C787 O795 1.253 . S
C787 O800 1.263 . S
H788 C784 0.931 . S
O789 Co774 2.262 . S
O789 Co786 2.097 . S
O789 C813 1.253 . S
O790 Co786 2.065 . S
O790 C806 1.221 . S
O791 Co786 2.065 . S
O791 C801 1.221 . S
O792 Co786 2.042 . S
O792 C807 1.237 . S
O793 Co774 1.958 . S
O793 C807 1.278 . S
O794 Co780 1.950 . S
O794 C806 1.277 . S
O795 Co780 2.262 . S
O795 Co786 2.097 . S
O795 C787 1.253 . S
O796 Co780 1.958 . S
O796 C814 1.278 . S
O797 Co774 1.950 . S
O797 C801 1.277 . S
O798 Co774 2.057 . S
O798 C813 1.263 . S
O799 Co786 2.042 . S
O799 C814 1.237 . S
O800 Co780 2.057 . S
O800 C787 1.263 . S
C801 O791 1.221 . S
C801 O797 1.277 . S
C802 C785 1.361 . S
C802 H803 0.960 . S
C802 H804 0.961 . S
C802 H805 0.961 . S
H803 C802 0.960 . S
H804 C802 0.961 . S
H805 C802 0.961 . S
C806 O790 1.221 . S
C806 O794 1.277 . S
C807 O792 1.237 . S
C807 O793 1.278 . S
H808 C776 0.931 . S
H809 C812 0.961 . S
H810 C812 0.961 . S
H811 C812 0.960 . S
C812 C778 1.361 . S
C812 H809 0.961 . S
C812 H810 0.961 . S
C812 H811 0.960 . S
C813 O789 1.253 . S
C813 O798 1.263 . S
C814 O796 1.278 . S
C814 O799 1.237 . S
H815 C779 0.930 . S
H816 C783 0.930 . S
Co817 N818 2.034 . S
Co817 O832 2.262 . S
Co817 O836 1.958 . S
Co817 O840 1.950 . S
Co817 O841 2.057 . S
N818 Co817 2.034 . S
N818 C819 1.366 . S
N818 C821 1.332 . S
C819 N818 1.366 . S
C819 C822 1.377 . S
C819 H851 0.931 . S
N820 C821 1.346 . S
N820 C822 1.337 . S
C821 N818 1.332 . S
C821 N820 1.346 . S
C821 C855 1.361 . S
C822 C819 1.377 . S
C822 N820 1.337 . S
C822 H858 0.930 . S
Co823 N824 2.034 . S
Co823 O837 1.950 . S
Co823 O838 2.262 . S
Co823 O839 1.958 . S
Co823 O843 2.057 . S
N824 Co823 2.034 . S
N824 C827 1.366 . S
N824 C828 1.332 . S
N825 C826 1.337 . S
N825 C828 1.346 . S
C826 N825 1.337 . S
C826 C827 1.377 . S
C826 H859 0.930 . S
C827 N824 1.366 . S
C827 C826 1.377 . S
C827 H831 0.931 . S
C828 N824 1.332 . S
C828 N825 1.346 . S
C828 C845 1.361 . S
Co829 O832 2.097 . S
Co829 O833 2.065 . S
Co829 O834 2.065 . S
Co829 O835 2.042 . S
Co829 O838 2.097 . S
Co829 O842 2.042 . S
C830 O838 1.253 . S
C830 O843 1.263 . S
H831 C827 0.931 . S
O832 Co817 2.262 . S
O832 Co829 2.097 . S
O832 C856 1.253 . S
O833 Co829 2.065 . S
O833 C849 1.221 . S
O834 Co829 2.065 . S
O834 C844 1.221 . S
O835 Co829 2.042 . S
O835 C850 1.237 . S
O836 Co817 1.958 . S
O836 C850 1.278 . S
O837 Co823 1.950 . S
O837 C849 1.277 . S
O838 Co823 2.262 . S
O838 Co829 2.097 . S
O838 C830 1.253 . S
O839 Co823 1.958 . S
O839 C857 1.278 . S
O840 Co817 1.950 . S
O840 C844 1.277 . S
O841 Co817 2.057 . S
O841 C856 1.263 . S
O842 Co829 2.042 . S
O842 C857 1.237 . S
O843 Co823 2.057 . S
O843 C830 1.263 . S
C844 O834 1.221 . S
C844 O840 1.277 . S
C845 C828 1.361 . S
C845 H846 0.960 . S
C845 H847 0.961 . S
C845 H848 0.961 . S
H846 C845 0.960 . S
H847 C845 0.961 . S
H848 C845 0.961 . S
C849 O833 1.221 . S
C849 O837 1.277 . S
C850 O835 1.237 . S
C850 O836 1.278 . S
H851 C819 0.931 . S
H852 C855 0.961 . S
H853 C855 0.961 . S
H854 C855 0.960 . S
C855 C821 1.361 . S
C855 H852 0.961 . S
C855 H853 0.961 . S
C855 H854 0.960 . S
C856 O832 1.253 . S
C856 O841 1.263 . S
C857 O839 1.278 . S
C857 O842 1.237 . S
H858 C822 0.930 . S
H859 C826 0.930 . S
Co860 N861 2.034 . S
Co860 O875 2.262 . S
Co860 O879 1.958 . S
Co860 O883 1.950 . S
Co860 O884 2.057 . S
N861 Co860 2.034 . S
N861 C862 1.366 . S
N861 C864 1.332 . S
C862 N861 1.366 . S
C862 C865 1.377 . S
C862 H894 0.931 . S
N863 C864 1.346 . S
N863 C865 1.337 . S
C864 N861 1.332 . S
C864 N863 1.346 . S
C864 C898 1.361 . S
C865 C862 1.377 . S
C865 N863 1.337 . S
C865 H901 0.930 . S
Co866 N867 2.034 . S
Co866 O880 1.950 . S
Co866 O881 2.262 . S
Co866 O882 1.958 . S
Co866 O886 2.057 . S
N867 Co866 2.034 . S
N867 C870 1.366 . S
N867 C871 1.332 . S
N868 C869 1.337 . S
N868 C871 1.346 . S
C869 N868 1.337 . S
C869 C870 1.377 . S
C869 H902 0.930 . S
C870 N867 1.366 . S
C870 C869 1.377 . S
C870 H874 0.931 . S
C871 N867 1.332 . S
C871 N868 1.346 . S
C871 C888 1.361 . S
Co872 O875 2.097 1_554 S
Co872 O876 2.065 1_554 S
Co872 O877 2.065 . S
Co872 O878 2.042 . S
Co872 O881 2.097 . S
Co872 O885 2.042 1_554 S
C873 O881 1.253 . S
C873 O886 1.263 . S
H874 C870 0.931 . S
O875 Co860 2.262 . S
O875 Co872 2.097 1_556 S
O875 C899 1.253 . S
O876 Co872 2.065 1_556 S
O876 C892 1.221 1_556 S
O877 Co872 2.065 . S
O877 C887 1.221 1_554 S
O878 Co872 2.042 . S
O878 C893 1.237 1_554 S
O879 Co860 1.958 . S
O879 C893 1.278 . S
O880 Co866 1.950 . S
O880 C892 1.277 . S
O881 Co866 2.262 . S
O881 Co872 2.097 . S
O881 C873 1.253 . S
O882 Co866 1.958 . S
O882 C900 1.278 . S
O883 Co860 1.950 . S
O883 C887 1.277 . S
O884 Co860 2.057 . S
O884 C899 1.263 . S
O885 Co872 2.042 1_556 S
O885 C900 1.237 1_556 S
O886 Co866 2.057 . S
O886 C873 1.263 . S
C887 O877 1.221 1_556 S
C887 O883 1.277 . S
C888 C871 1.361 . S
C888 H889 0.960 . S
C888 H890 0.961 . S
C888 H891 0.961 . S
H889 C888 0.960 . S
H890 C888 0.961 . S
H891 C888 0.961 . S
C892 O876 1.221 1_554 S
C892 O880 1.277 . S
C893 O878 1.237 1_556 S
C893 O879 1.278 . S
H894 C862 0.931 . S
H895 C898 0.961 . S
H896 C898 0.961 . S
H897 C898 0.960 . S
C898 C864 1.361 . S
C898 H895 0.961 . S
C898 H896 0.961 . S
C898 H897 0.960 . S
C899 O875 1.253 . S
C899 O884 1.263 . S
C900 O882 1.278 . S
C900 O885 1.237 1_554 S
H901 C865 0.930 . S
H902 C869 0.930 . S
Co903 N904 2.034 . S
Co903 O918 2.262 . S
Co903 O922 1.958 . S
Co903 O926 1.950 . S
Co903 O927 2.057 . S
N904 Co903 2.034 . S
N904 C905 1.366 . S
N904 C907 1.332 . S
C905 N904 1.366 . S
C905 C908 1.377 . S
C905 H937 0.931 . S
N906 C907 1.346 . S
N906 C908 1.337 . S
C907 N904 1.332 . S
C907 N906 1.346 . S
C907 C941 1.361 . S
C908 C905 1.377 . S
C908 N906 1.337 . S
C908 H944 0.930 . S
Co909 N910 2.034 . S
Co909 O923 1.950 . S
Co909 O924 2.262 . S
Co909 O925 1.958 . S
Co909 O929 2.057 . S
N910 Co909 2.034 . S
N910 C913 1.366 . S
N910 C914 1.332 . S
N911 C912 1.337 . S
N911 C914 1.346 . S
C912 N911 1.337 . S
C912 C913 1.377 . S
C912 H945 0.930 . S
C913 N910 1.366 . S
C913 C912 1.377 . S
C913 H917 0.931 . S
C914 N910 1.332 . S
C914 N911 1.346 . S
C914 C931 1.361 . S
Co915 O918 2.097 . S
Co915 O919 2.065 . S
Co915 O920 2.065 . S
Co915 O921 2.042 . S
Co915 O924 2.097 . S
Co915 O928 2.042 . S
C916 O924 1.253 . S
C916 O929 1.263 . S
H917 C913 0.931 . S
O918 Co903 2.262 . S
O918 Co915 2.097 . S
O918 C942 1.253 . S
O919 Co915 2.065 . S
O919 C935 1.221 . S
O920 Co915 2.065 . S
O920 C930 1.221 . S
O921 Co915 2.042 . S
O921 C936 1.237 . S
O922 Co903 1.958 . S
O922 C936 1.278 . S
O923 Co909 1.950 . S
O923 C935 1.277 . S
O924 Co909 2.262 . S
O924 Co915 2.097 . S
O924 C916 1.253 . S
O925 Co909 1.958 . S
O925 C943 1.278 . S
O926 Co903 1.950 . S
O926 C930 1.277 . S
O927 Co903 2.057 . S
O927 C942 1.263 . S
O928 Co915 2.042 . S
O928 C943 1.237 . S
O929 Co909 2.057 . S
O929 C916 1.263 . S
C930 O920 1.221 . S
C930 O926 1.277 . S
C931 C914 1.361 . S
C931 H932 0.960 . S
C931 H933 0.961 . S
C931 H934 0.961 . S
H932 C931 0.960 . S
H933 C931 0.961 . S
H934 C931 0.961 . S
C935 O919 1.221 . S
C935 O923 1.277 . S
C936 O921 1.237 . S
C936 O922 1.278 . S
H937 C905 0.931 . S
H938 C941 0.961 . S
H939 C941 0.961 . S
H940 C941 0.960 . S
C941 C907 1.361 . S
C941 H938 0.961 . S
C941 H939 0.961 . S
C941 H940 0.960 . S
C942 O918 1.253 . S
C942 O927 1.263 . S
C943 O925 1.278 . S
C943 O928 1.237 . S
H944 C908 0.930 . S
H945 C912 0.930 . S
Co946 N947 2.034 . S
Co946 O961 2.262 . S
Co946 O965 1.958 . S
Co946 O969 1.950 . S
Co946 O970 2.057 . S
N947 Co946 2.034 . S
N947 C948 1.366 . S
N947 C950 1.332 . S
C948 N947 1.366 . S
C948 C951 1.377 . S
C948 H980 0.931 . S
N949 C950 1.346 . S
N949 C951 1.337 . S
C950 N947 1.332 . S
C950 N949 1.346 . S
C950 C984 1.361 . S
C951 C948 1.377 . S
C951 N949 1.337 . S
C951 H987 0.930 . S
Co952 N953 2.034 . S
Co952 O966 1.950 . S
Co952 O967 2.262 . S
Co952 O968 1.958 . S
Co952 O972 2.057 . S
N953 Co952 2.034 . S
N953 C956 1.366 . S
N953 C957 1.332 . S
N954 C955 1.337 . S
N954 C957 1.346 . S
C955 N954 1.337 . S
C955 C956 1.377 . S
C955 H988 0.930 . S
C956 N953 1.366 . S
C956 C955 1.377 . S
C956 H960 0.931 . S
C957 N953 1.332 . S
C957 N954 1.346 . S
C957 C974 1.361 . S
Co958 O961 2.097 . S
Co958 O962 2.065 . S
Co958 O963 2.065 . S
Co958 O964 2.042 . S
Co958 O967 2.097 . S
Co958 O971 2.042 . S
C959 O967 1.253 . S
C959 O972 1.263 . S
H960 C956 0.931 . S
O961 Co946 2.262 . S
O961 Co958 2.097 . S
O961 C985 1.253 . S
O962 Co958 2.065 . S
O962 C978 1.221 . S
O963 Co958 2.065 . S
O963 C973 1.221 . S
O964 Co958 2.042 . S
O964 C979 1.237 . S
O965 Co946 1.958 . S
O965 C979 1.278 . S
O966 Co952 1.950 . S
O966 C978 1.277 . S
O967 Co952 2.262 . S
O967 Co958 2.097 . S
O967 C959 1.253 . S
O968 Co952 1.958 . S
O968 C986 1.278 . S
O969 Co946 1.950 . S
O969 C973 1.277 . S
O970 Co946 2.057 . S
O970 C985 1.263 . S
O971 Co958 2.042 . S
O971 C986 1.237 . S
O972 Co952 2.057 . S
O972 C959 1.263 . S
C973 O963 1.221 . S
C973 O969 1.277 . S
C974 C957 1.361 . S
C974 H975 0.960 . S
C974 H976 0.961 . S
C974 H977 0.961 . S
H975 C974 0.960 . S
H976 C974 0.961 . S
H977 C974 0.961 . S
C978 O962 1.221 . S
C978 O966 1.277 . S
C979 O964 1.237 . S
C979 O965 1.278 . S
H980 C948 0.931 . S
H981 C984 0.961 . S
H982 C984 0.961 . S
H983 C984 0.960 . S
C984 C950 1.361 . S
C984 H981 0.961 . S
C984 H982 0.961 . S
C984 H983 0.960 . S
C985 O961 1.253 . S
C985 O970 1.263 . S
C986 O968 1.278 . S
C986 O971 1.237 . S
H987 C951 0.930 . S
H988 C955 0.930 . S
Co989 N990 2.034 . S
Co989 O1004 2.262 . S
Co989 O1008 1.958 . S
Co989 O1012 1.950 . S
Co989 O1013 2.057 . S
N990 Co989 2.034 . S
N990 C991 1.366 . S
N990 C993 1.332 . S
C991 N990 1.366 . S
C991 C994 1.377 . S
C991 H1023 0.931 . S
N992 C993 1.346 . S
N992 C994 1.337 . S
C993 N990 1.332 . S
C993 N992 1.346 . S
C993 C1027 1.361 . S
C994 C991 1.377 . S
C994 N992 1.337 . S
C994 H1030 0.930 . S
Co995 N996 2.034 . S
Co995 O1009 1.950 . S
Co995 O1010 2.262 . S
Co995 O1011 1.958 . S
Co995 O1015 2.057 . S
N996 Co995 2.034 . S
N996 C999 1.366 . S
N996 C1000 1.332 . S
N997 C998 1.337 . S
N997 C1000 1.346 . S
C998 N997 1.337 . S
C998 C999 1.377 . S
C998 H1031 0.930 . S
C999 N996 1.366 . S
C999 C998 1.377 . S
C999 H1003 0.931 . S
C1000 N996 1.332 . S
C1000 N997 1.346 . S
C1000 C1017 1.361 . S
Co1001 O1004 2.097 . S
Co1001 O1005 2.065 . S
Co1001 O1006 2.065 1_545 S
Co1001 O1007 2.042 1_545 S
Co1001 O1010 2.097 1_545 S
Co1001 O1014 2.042 . S
C1002 O1010 1.253 . S
C1002 O1015 1.263 . S
H1003 C999 0.931 . S
O1004 Co989 2.262 . S
O1004 Co1001 2.097 . S
O1004 C1028 1.253 . S
O1005 Co1001 2.065 . S
O1005 C1021 1.221 1_545 S
O1006 Co1001 2.065 1_565 S
O1006 C1016 1.221 1_565 S
O1007 Co1001 2.042 1_565 S
O1007 C1022 1.237 1_565 S
O1008 Co989 1.958 . S
O1008 C1022 1.278 . S
O1009 Co995 1.950 . S
O1009 C1021 1.277 . S
O1010 Co995 2.262 . S
O1010 Co1001 2.097 1_565 S
O1010 C1002 1.253 . S
O1011 Co995 1.958 . S
O1011 C1029 1.278 . S
O1012 Co989 1.950 . S
O1012 C1016 1.277 . S
O1013 Co989 2.057 . S
O1013 C1028 1.263 . S
O1014 Co1001 2.042 . S
O1014 C1029 1.237 1_545 S
O1015 Co995 2.057 . S
O1015 C1002 1.263 . S
C1016 O1006 1.221 1_545 S
C1016 O1012 1.277 . S
C1017 C1000 1.361 . S
C1017 H1018 0.960 . S
C1017 H1019 0.961 . S
C1017 H1020 0.961 . S
H1018 C1017 0.960 . S
H1019 C1017 0.961 . S
H1020 C1017 0.961 . S
C1021 O1005 1.221 1_565 S
C1021 O1009 1.277 . S
C1022 O1007 1.237 1_545 S
C1022 O1008 1.278 . S
H1023 C991 0.931 . S
H1024 C1027 0.961 . S
H1025 C1027 0.961 . S
H1026 C1027 0.960 . S
C1027 C993 1.361 . S
C1027 H1024 0.961 . S
C1027 H1025 0.961 . S
C1027 H1026 0.960 . S
C1028 O1004 1.253 . S
C1028 O1013 1.263 . S
C1029 O1011 1.278 . S
C1029 O1014 1.237 1_565 S
H1030 C994 0.930 . S
H1031 C998 0.930 . S
C641 C39 2.911 1_455 S
C82 C658 2.915 . S
C99 C813 2.915 . S
C598 C168 2.911 1_556 S
C185 C615 2.911 1_655 S
C684 C254 2.915 . S
C787 C297 2.915 . S
C572 C340 2.911 1_554 S
C383 C426 2.911 1_565 S
C469 C400 2.911 1_565 S
C443 C512 2.911 1_545 S
C357 C486 2.911 1_545 S
C529 C142 2.911 1_556 S
C211 C727 2.911 1_455 S
C56 C770 2.915 . S
C1002 C125 2.915 . S
C701 C13 2.911 1_655 S
C271 C1028 2.915 . S
C555 C314 2.911 1_554 S
C228 C744 2.915 . S
C856 C899 2.915 . S
C873 C942 2.915 . S
C916 C985 2.915 . S
C959 C830 2.915 . S
C414 C32 3.470 . S
C457 C75 3.472 . S
C113 C500 3.473 . S
C161 C376 3.470 . S
C199 C505 3.469 . S
C247 C371 3.473 . S
C290 C419 3.472 . S
C462 C333 3.469 . S
C629 C543 3.470 . S
C1016 C586 3.472 . S
C677 C715 3.473 . S
C591 C720 3.469 . S
C801 C763 3.472 . S
C758 C634 3.472 . S
C806 C548 3.473 . S
C118 C887 3.473 . S
C930 C156 3.472 . S
C27 C973 3.473 . S
C849 C70 3.473 . S
C978 C285 3.472 . S
C328 C844 3.473 . S
C892 C204 3.472 . S
C935 C242 3.472 . S
C672 C1021 3.473 . S
N519 C40 3.201 . S
N691 C83 3.203 1_655 S
N739 C119 3.201 . S
C169 N992 3.202 . S
C205 N734 3.202 . S
C255 N997 3.200 . S
N524 C298 3.202 . S
C341 N696 3.204 1_455 S
N8 C384 3.201 . S
C420 N51 3.202 . S
N89 C463 3.200 . S
N137 C506 3.199 1_554 S
N175 C377 3.199 . S
C427 N223 3.201 . S
C470 N266 3.202 . S
N309 C513 3.204 1_556 S
C549 N352 3.201 . S
N820 C592 3.200 . S
N868 C635 3.202 . S
N911 C685 3.201 . S
N481 C728 3.204 1_565 S
N433 C771 3.202 . S
C642 N949 3.201 . S
N863 C814 3.200 . S
C126 N648 3.201 . S
N782 C162 3.201 . S
C33 N567 3.199 . S
C76 N610 3.199 1_655 S
N562 C291 3.202 . S
N605 C334 3.199 1_455 S
C212 N653 3.200 . S
C248 N777 3.201 . S
C857 N94 3.201 . S
C893 N132 3.199 1_556 S
N3 C936 3.202 . S
N46 C979 3.200 . S
C850 N261 3.201 . S
C900 N304 3.203 1_554 S
N180 C943 3.202 . S
N218 C986 3.201 . S
C678 N825 3.201 . S
N347 C764 3.202 . S
N395 C1029 3.199 1_545 S
C556 N438 3.199 . S
C807 N954 3.201 . S
C599 N906 3.202 . S
C1022 N476 3.203 1_545 S
C721 N390 3.199 1_565 S
