# Generated by pormake.
# Topology xff, (7)-cn, num edge types: 1
# Building blocks:
#     Node 0, Type 0, BuildingBlock: NUHQUE_clean_sbu_2, # of connection points: 7
#     Node 1, Type 0, BuildingBlock: NUHQUE_clean_sbu_2, # of connection points: 7
#     Node 2, Type 0, BuildingBlock: NUHQUE_clean_sbu_2, # of connection points: 7
#     Node 3, Type 0, BuildingBlock: NUHQUE_clean_sbu_2, # of connection points: 7
#     Node 4, Type 0, BuildingBlock: NUHQUE_clean_sbu_2, # of connection points: 7
#     Node 5, Type 0, BuildingBlock: NUHQUE_clean_sbu_2, # of connection points: 7
#     Node 6, Type 0, BuildingBlock: NUHQUE_clean_sbu_2, # of connection points: 7
#     Node 7, Type 0, BuildingBlock: NUHQUE_clean_sbu_2, # of connection points: 7
#     Node 8, Type 0, BuildingBlock: NUHQUE_clean_sbu_2, # of connection points: 7
#     Node 9, Type 0, BuildingBlock: NUHQUE_clean_sbu_2, # of connection points: 7
#     Node 10, Type 0, BuildingBlock: NUHQUE_clean_sbu_2, # of connection points: 7
#     Node 11, Type 0, BuildingBlock: NUHQUE_clean_sbu_2, # of connection points: 7
#     Node 12, Type 0, BuildingBlock: NUHQUE_clean_sbu_2, # of connection points: 7
#     Node 13, Type 0, BuildingBlock: NUHQUE_clean_sbu_2, # of connection points: 7
#     Node 14, Type 0, BuildingBlock: NUHQUE_clean_sbu_2, # of connection points: 7
#     Node 15, Type 0, BuildingBlock: NUHQUE_clean_sbu_2, # of connection points: 7
#     Edge 16, Type (0, 0), BuildingBlock: XUDNAN_clean_linker_2, # of connection points: 2
#     Edge 17, Type (0, 0), BuildingBlock: XUDNAN_clean_linker_2, # of connection points: 2
#     Edge 18, Type (0, 0), BuildingBlock: XUDNAN_clean_linker_2, # of connection points: 2
#     Edge 19, Type (0, 0), BuildingBlock: XUDNAN_clean_linker_2, # of connection points: 2
#     Edge 20, Type (0, 0), BuildingBlock: XUDNAN_clean_linker_2, # of connection points: 2
#     Edge 21, Type (0, 0), BuildingBlock: XUDNAN_clean_linker_2, # of connection points: 2
#     Edge 22, Type (0, 0), BuildingBlock: XUDNAN_clean_linker_2, # of connection points: 2
#     Edge 23, Type (0, 0), BuildingBlock: XUDNAN_clean_linker_2, # of connection points: 2
#     Edge 24, Type (0, 0), BuildingBlock: XUDNAN_clean_linker_2, # of connection points: 2
#     Edge 25, Type (0, 0), BuildingBlock: XUDNAN_clean_linker_2, # of connection points: 2
#     Edge 26, Type (0, 0), BuildingBlock: XUDNAN_clean_linker_2, # of connection points: 2
#     Edge 27, Type (0, 0), BuildingBlock: XUDNAN_clean_linker_2, # of connection points: 2
#     Edge 28, Type (0, 0), BuildingBlock: XUDNAN_clean_linker_2, # of connection points: 2
#     Edge 29, Type (0, 0), BuildingBlock: XUDNAN_clean_linker_2, # of connection points: 2
#     Edge 30, Type (0, 0), BuildingBlock: XUDNAN_clean_linker_2, # of connection points: 2
#     Edge 31, Type (0, 0), BuildingBlock: XUDNAN_clean_linker_2, # of connection points: 2
#     Edge 32, Type (0, 0), BuildingBlock: XUDNAN_clean_linker_2, # of connection points: 2
#     Edge 33, Type (0, 0), BuildingBlock: XUDNAN_clean_linker_2, # of connection points: 2
#     Edge 34, Type (0, 0), BuildingBlock: XUDNAN_clean_linker_2, # of connection points: 2
#     Edge 35, Type (0, 0), BuildingBlock: XUDNAN_clean_linker_2, # of connection points: 2
#     Edge 36, Type (0, 0), BuildingBlock: XUDNAN_clean_linker_2, # of connection points: 2
#     Edge 37, Type (0, 0), BuildingBlock: XUDNAN_clean_linker_2, # of connection points: 2
#     Edge 38, Type (0, 0), BuildingBlock: XUDNAN_clean_linker_2, # of connection points: 2
#     Edge 39, Type (0, 0), BuildingBlock: XUDNAN_clean_linker_2, # of connection points: 2
#     Edge 40, Type (0, 0), BuildingBlock: XUDNAN_clean_linker_2, # of connection points: 2
#     Edge 41, Type (0, 0), BuildingBlock: XUDNAN_clean_linker_2, # of connection points: 2
#     Edge 42, Type (0, 0), BuildingBlock: XUDNAN_clean_linker_2, # of connection points: 2
#     Edge 43, Type (0, 0), BuildingBlock: XUDNAN_clean_linker_2, # of connection points: 2
#     Edge 44, Type (0, 0), BuildingBlock: XUDNAN_clean_linker_2, # of connection points: 2
#     Edge 45, Type (0, 0), BuildingBlock: XUDNAN_clean_linker_2, # of connection points: 2
#     Edge 46, Type (0, 0), BuildingBlock: XUDNAN_clean_linker_2, # of connection points: 2
#     Edge 47, Type (0, 0), BuildingBlock: XUDNAN_clean_linker_2, # of connection points: 2
#     Edge 48, Type (0, 0), BuildingBlock: XUDNAN_clean_linker_2, # of connection points: 2
#     Edge 49, Type (0, 0), BuildingBlock: XUDNAN_clean_linker_2, # of connection points: 2
#     Edge 50, Type (0, 0), BuildingBlock: XUDNAN_clean_linker_2, # of connection points: 2
#     Edge 51, Type (0, 0), BuildingBlock: XUDNAN_clean_linker_2, # of connection points: 2
#     Edge 52, Type (0, 0), BuildingBlock: XUDNAN_clean_linker_2, # of connection points: 2
#     Edge 53, Type (0, 0), BuildingBlock: XUDNAN_clean_linker_2, # of connection points: 2
#     Edge 54, Type (0, 0), BuildingBlock: XUDNAN_clean_linker_2, # of connection points: 2
#     Edge 55, Type (0, 0), BuildingBlock: XUDNAN_clean_linker_2, # of connection points: 2
#     Edge 56, Type (0, 0), BuildingBlock: XUDNAN_clean_linker_2, # of connection points: 2
#     Edge 57, Type (0, 0), BuildingBlock: XUDNAN_clean_linker_2, # of connection points: 2
#     Edge 58, Type (0, 0), BuildingBlock: XUDNAN_clean_linker_2, # of connection points: 2
#     Edge 59, Type (0, 0), BuildingBlock: XUDNAN_clean_linker_2, # of connection points: 2
#     Edge 60, Type (0, 0), BuildingBlock: XUDNAN_clean_linker_2, # of connection points: 2
#     Edge 61, Type (0, 0), BuildingBlock: XUDNAN_clean_linker_2, # of connection points: 2
#     Edge 62, Type (0, 0), BuildingBlock: XUDNAN_clean_linker_2, # of connection points: 2
#     Edge 63, Type (0, 0), BuildingBlock: XUDNAN_clean_linker_2, # of connection points: 2
#     Edge 64, Type (0, 0), BuildingBlock: XUDNAN_clean_linker_2, # of connection points: 2
#     Edge 65, Type (0, 0), BuildingBlock: XUDNAN_clean_linker_2, # of connection points: 2
#     Edge 66, Type (0, 0), BuildingBlock: XUDNAN_clean_linker_2, # of connection points: 2
#     Edge 67, Type (0, 0), BuildingBlock: XUDNAN_clean_linker_2, # of connection points: 2
#     Edge 68, Type (0, 0), BuildingBlock: XUDNAN_clean_linker_2, # of connection points: 2
#     Edge 69, Type (0, 0), BuildingBlock: XUDNAN_clean_linker_2, # of connection points: 2
#     Edge 70, Type (0, 0), BuildingBlock: XUDNAN_clean_linker_2, # of connection points: 2
#     Edge 71, Type (0, 0), BuildingBlock: XUDNAN_clean_linker_2, # of connection points: 2
# Relax obj value: 0.134
# Max RMSD: 0.234
# Mean RMSD: 0.234
data_MOF--net-xff--node1-NUHQUE_clean_sbu_2--edge1-XUDNAN_clean_linker_2
_symmetry_space_group_name_H-M    P1
_symmetry_Int_Tables_number       1
_symmetry_cell_setting            triclinic
loop_
_symmetry_equiv_pos_as_xyz
'x, y, z'
_cell_length_a     34.762443
_cell_length_b     34.861456
_cell_length_c     69.627247
_cell_angle_alpha  90.02285
_cell_angle_beta   90.088405
_cell_angle_gamma 90.044243
loop_
_atom_site_label
_atom_site_type_symbol
_atom_site_fract_x
_atom_site_fract_y
_atom_site_fract_z
_atom_type_partial_charge
O0 O 0.27951 0.2421 0.06818 0.0
Tb1 Tb 0.29657 0.22698 0.09737 0.0
Eu2 Eu 0.32943 0.12583 0.0882 0.0
C3 C 0.30303 0.26146 0.05692 0.0
O4 O 0.33961 0.2636 0.06147 0.0
C5 C 0.38604 0.20273 0.09454 0.0
O6 O 0.3301 0.09164 0.11623 0.0
C7 C 0.34301 0.08602 0.05747 0.0
C8 C 0.3394 0.11053 0.13195 0.0
O9 O 0.34893 0.1468 0.13013 0.0
C10 C 0.25059 0.15274 0.1029 0.0
C11 C 0.32003 0.06443 0.04314 0.0
C12 C 0.30489 0.08291 0.02668 0.0
C13 C 0.27998 0.06297 0.01422 0.0
C14 C 0.2681 0.02623 0.01978 0.0
C15 C 0.29029 1.00457 0.03263 0.0
C16 C 0.31514 0.02442 0.04507 0.0
O17 O 0.35897 0.22926 0.09438 0.0
O18 O 0.38003 0.16523 0.09444 0.0
O19 O 0.25259 0.2698 0.10364 0.0
O20 O 0.30399 0.26992 0.12011 0.0
C21 C 0.27076 0.2864 0.11764 0.0
O22 O 0.26595 0.13868 0.08734 0.0
O23 O 0.26967 0.17921 0.11222 0.0
O24 O 0.34487 0.07147 0.07491 0.0
O25 O 0.33898 0.12357 0.05742 0.0
H26 H 0.31325 0.11211 0.02347 0.0
H27 H 0.24461 0.01255 1.01219 0.0
H28 H 0.33149 1.009 0.05581 0.0
O29 O 0.52574 0.53288 0.31519 0.0
Tb30 Tb 0.55142 0.53994 0.34347 0.0
Eu31 Eu 0.64958 0.58391 0.34063 0.0
C32 C 0.521 0.56166 0.30327 0.0
O33 O 0.53774 0.59459 0.30702 0.0
C34 C 0.56946 0.63272 0.34461 0.0
O35 O 0.6916 0.59512 0.36484 0.0
C36 C 0.68147 0.5739 0.30744 0.0
C37 C 0.67662 0.60271 0.38175 0.0
O38 O 0.63937 0.60874 0.38261 0.0
C39 C 0.62879 0.49858 0.3518 0.0
C40 C 0.70764 0.55745 0.29282 0.0
C41 C 0.69229 0.54923 0.27452 0.0
C42 C 0.7166 0.5389 0.25937 0.0
C43 C 0.75596 0.53578 0.26252 0.0
C44 C 0.77213 0.54316 0.28059 0.0
C45 C 0.74781 0.55451 0.29579 0.0
O46 O 0.54876 0.60212 0.34922 0.0
O47 O 0.60595 0.6318 0.33946 0.0
O48 O 0.49379 0.51728 0.34788 0.0
O49 O 0.53192 0.51823 0.37166 0.0
C50 C 0.49751 0.50869 0.36589 0.0
O51 O 0.64307 0.53061 0.35837 0.0
O52 O 0.59808 0.49824 0.34082 0.0
O53 O 0.69547 0.59727 0.32063 0.0
O54 O 0.65016 0.55516 0.31268 0.0
H55 H 0.66173 0.5525 0.27185 0.0
H56 H 0.7743 0.52901 0.25038 0.0
H57 H 0.76009 0.56168 0.30965 0.0
O58 O 0.24222 0.77108 0.56719 0.0
Tb59 Tb 0.23403 0.79844 0.59469 0.0
Eu60 Eu 0.19605 0.89674 0.59305 0.0
C61 C 0.21632 0.77179 0.55349 0.0
O62 O 0.18609 0.79408 0.5552 0.0
C63 C 0.14216 0.81859 0.59438 0.0
O64 O 0.17277 0.92805 0.61886 0.0
C65 C 0.19863 0.93288 0.56035 0.0
C66 C 0.19383 0.95327 0.62824 0.0
O67 O 0.22576 0.96605 0.62045 0.0
C68 C 0.28179 0.8736 0.60131 0.0
C69 C 0.22016 0.95674 0.54626 0.0
C70 C 0.23373 0.93978 0.52899 0.0
C71 C 0.2547 0.96163 0.51541 0.0
C72 C 0.26506 0.99879 0.52113 0.0
C73 C 0.24319 0.01862 0.53475 0.0
C74 C 0.22207 0.99711 0.54815 0.0
O75 O 0.17071 0.79373 0.59622 0.0
O76 O 0.14685 0.85582 0.59248 0.0
O77 O 0.25928 0.74247 0.60061 0.0
O78 O 0.25101 0.78072 0.62394 0.0
C79 C 0.26355 0.7468 0.61899 0.0
O80 O 0.25216 0.89141 0.6084 0.0
O81 O 0.27765 0.84338 0.59018 0.0
O82 O 0.18605 0.9488 0.57635 0.0
O83 O 0.20949 0.89688 0.56256 0.0
H84 H 0.22704 0.91003 0.52624 0.0
H85 H 0.28655 0.01491 0.51347 0.0
H86 H 0.20614 1.01159 0.55936 0.0
O87 O 1.00507 0.49526 0.81628 0.0
Tb88 Tb 0.97673 0.49051 0.844 0.0
Eu89 Eu 0.88009 0.44257 0.84294 0.0
C90 C 1.00596 0.46605 0.80438 0.0
O91 O 0.98322 0.43667 0.80754 0.0
C92 C 0.96087 0.39556 0.84506 0.0
O93 O 0.83325 0.43499 0.86496 0.0
C94 C 0.85269 0.45462 0.80883 0.0
C95 C 0.84321 0.42584 0.88261 0.0
O96 O 0.87925 0.41693 0.88615 0.0
C97 C 0.89914 0.5267 0.85406 0.0
C98 C 0.82539 0.47157 0.79486 0.0
C99 C 0.83926 0.48208 0.77653 0.0
C100 C 0.81362 0.49174 0.76157 0.0
C101 C 0.77406 0.49034 0.76538 0.0
C102 C 0.75992 0.48199 0.78362 0.0
C103 C 0.78543 0.47228 0.79845 0.0
O104 O 0.98149 0.42757 0.84669 0.0
O105 O 0.92314 0.39453 0.84308 0.0
O106 O 0.03073 0.51997 0.84984 0.0
O107 O 0.99702 0.50156 0.87349 0.0
C108 C 0.02888 0.51849 0.86843 0.0
O109 O 0.8937 0.49296 0.86164 0.0
O110 O 0.92906 0.53174 0.84291 0.0
O111 O 0.83956 0.428 0.82056 0.0
O112 O 0.88112 0.47533 0.81598 0.0
H113 H 0.86996 0.48181 0.77389 0.0
H114 H 0.75336 0.495 0.75396 0.0
H115 H 0.7742 0.46406 0.81237 0.0
O116 O 0.75054 0.77698 0.96354 0.0
Tb117 Tb 0.73927 0.79978 0.93509 0.0
Eu118 Eu 0.69811 0.89763 0.93558 0.0
C119 C 0.72493 0.75402 0.9713 0.0
O120 O 0.69195 0.74903 0.96247 0.0
C121 C 0.64575 0.81973 0.93449 0.0
O122 O 0.68542 0.94032 0.91204 0.0
C123 C 0.70888 0.92652 0.96969 0.0
C124 C 0.68647 0.92608 0.89453 0.0
O125 O 0.69111 0.88886 0.89257 0.0
C126 C 0.78317 0.87483 0.92583 0.0
C127 C 0.728 0.95174 0.98423 0.0
C128 C 0.74529 0.93517 1.00076 0.0
C129 C 0.75717 0.95843 0.0163 0.0
C130 C 0.75346 0.99819 0.01479 0.0
C131 C 0.7352 0.01503 0.99906 0.0
C132 C 0.72261 0.99196 0.98374 0.0
O133 O 0.67599 0.79669 0.93409 0.0
O134 O 0.64744 0.85745 0.93487 0.0
O135 O 0.75792 0.74107 0.92983 0.0
O136 O 0.75914 0.7801 0.9065 0.0
C137 C 0.76632 0.7449 0.91181 0.0
O138 O 0.75185 0.88889 0.91833 0.0
O139 O 0.78164 0.84599 0.9379 0.0
O140 O 0.68658 0.94227 0.95654 0.0
O141 O 0.72561 0.89453 0.96397 0.0
H142 H 0.74716 0.90425 1.00207 0.0
H143 H 0.76174 0.01615 0.02686 0.0
H144 H 0.70651 1.00511 0.97214 0.0
O145 O 0.49921 0.49262 0.71448 0.0
Tb146 Tb 0.47343 0.48283 0.68644 0.0
Eu147 Eu 0.37658 0.44227 0.68353 0.0
C148 C 0.51504 0.46444 0.72419 0.0
O149 O 0.51007 0.42903 0.71835 0.0
C150 C 0.45474 0.3901 0.68442 0.0
O151 O 0.33442 0.43299 0.65943 0.0
C152 C 0.34534 0.45035 0.71709 0.0
C153 C 0.34932 0.42268 0.6429 0.0
O154 O 0.3861 0.41416 0.64243 0.0
C155 C 0.39976 0.5272 0.67552 0.0
C156 C 0.31917 0.46777 0.73147 0.0
C157 C 0.33494 0.48122 0.74893 0.0
C158 C 0.31085 0.49312 0.76399 0.0
C159 C 0.27101 0.49161 0.76143 0.0
C160 C 0.25465 0.47806 0.74443 0.0
C161 C 0.27874 0.46589 0.72941 0.0
O162 O 0.4783 0.41989 0.68516 0.0
O163 O 0.41699 0.39218 0.68346 0.0
O164 O 0.5276 0.51213 0.68059 0.0
O165 O 0.49332 0.49432 0.65696 0.0
C166 C 0.52527 0.51125 0.662 0.0
O167 O 0.38691 0.49645 0.66699 0.0
O168 O 0.42633 0.52426 0.68883 0.0
O169 O 0.3306 0.42867 0.7034 0.0
O170 O 0.37735 0.46821 0.71218 0.0
H171 H 0.36586 0.48139 0.75099 0.0
H172 H 0.25227 0.49862 0.77338 0.0
H173 H 0.26602 0.45391 0.71652 0.0
O174 O 0.77933 0.24094 0.45911 0.0
Tb175 Tb 0.79291 0.22366 0.42958 0.0
Eu176 Eu 0.83199 0.12488 0.43969 0.0
C177 C 0.80431 0.26068 0.46951 0.0
O178 O 0.84022 0.26251 0.4638 0.0
C179 C 0.88465 0.20444 0.4324 0.0
O180 O 0.83568 0.08885 0.41225 0.0
C181 C 0.84254 0.08838 0.47172 0.0
C182 C 0.84115 0.10744 0.39601 0.0
O183 O 0.84709 0.1446 0.39707 0.0
C184 C 0.74926 0.14554 0.42395 0.0
C185 C 0.82006 0.06551 0.48581 0.0
C186 C 0.80137 0.0838 0.50136 0.0
C187 C 0.78195 0.06211 0.51531 0.0
C188 C 0.78035 0.02229 0.5134 0.0
C189 C 0.80217 1.00351 0.49943 0.0
C190 C 0.82133 0.02505 0.48536 0.0
O191 O 0.85564 0.22829 0.42962 0.0
O192 O 0.88139 0.16707 0.43541 0.0
O193 O 0.75204 0.27043 0.42506 0.0
O194 O 0.79739 0.26284 0.40511 0.0
C195 C 0.76735 0.28332 0.40935 0.0
O196 O 0.76754 0.13119 0.4387 0.0
O197 O 0.76174 0.17677 0.41551 0.0
O198 O 0.84958 0.07289 0.45481 0.0
O199 O 0.83464 0.12526 0.47076 0.0
H200 H 0.80315 0.11464 0.5031 0.0
H201 H 0.7673 1.00538 0.52476 0.0
H202 H 0.83939 1.01045 0.47501 0.0
O203 O 0.02213 0.52846 0.21174 0.0
Tb204 Tb 0.05083 0.53812 0.18461 0.0
Eu205 Eu 0.14679 0.58392 0.18335 0.0
C206 C 0.02363 0.55311 0.22597 0.0
O207 O 0.04787 0.58195 0.22513 0.0
C208 C 0.06559 0.63158 0.18545 0.0
O209 O 0.18115 0.60628 0.15837 0.0
C210 C 0.18233 0.57722 0.21612 0.0
C211 C 0.20664 0.58461 0.14961 0.0
O212 O 0.21755 0.55225 0.1576 0.0
C213 C 0.12775 0.49805 0.17459 0.0
C214 C 0.20762 0.56001 0.23118 0.0
C215 C 0.19094 0.54889 0.24887 0.0
C216 C 0.21419 0.53726 0.26434 0.0
C217 C 0.25406 0.53759 0.26218 0.0
C218 C 0.27163 0.54721 0.24478 0.0
C219 C 0.24822 0.55894 0.22924 0.0
O220 O 0.04357 0.60062 0.18622 0.0
O221 O 0.10334 0.63154 0.18393 0.0
O222 O 0.99932 0.50507 0.1782 0.0
O223 O 0.02961 0.53028 0.15495 0.0
C224 C 0.99977 0.50958 0.15972 0.0
O225 O 0.13999 0.52961 0.16668 0.0
O226 O 0.09939 0.49853 0.18699 0.0
O227 O 0.19754 0.59453 0.2011 0.0
O228 O 0.14775 0.56289 0.21295 0.0
H229 H 0.16 0.54989 0.2507 0.0
H230 H 0.27179 0.53137 0.27462 0.0
H231 H 0.26153 0.5678 0.21591 0.0
O232 O 0.77929 0.73694 0.56256 0.0
Tb233 Tb 0.78682 0.71908 0.59225 0.0
Eu234 Eu 0.83278 0.62302 0.5891 0.0
C235 C 0.80919 0.74456 0.55179 0.0
O236 O 0.84143 0.72648 0.55553 0.0
C237 C 0.88042 0.70405 0.59386 0.0
O238 O 0.84877 0.58369 0.6139 0.0
C239 C 0.82983 0.59155 0.55528 0.0
C240 C 0.83804 0.59489 0.6312 0.0
O241 O 0.82219 0.62889 0.63309 0.0
C242 C 0.74349 0.64017 0.60078 0.0
C243 C 0.81248 0.56423 0.54129 0.0
C244 C 0.79927 0.57812 0.52325 0.0
C245 C 0.789 0.55211 0.50863 0.0
C246 C 0.79529 0.51306 0.51175 0.0
C247 C 0.80108 0.49869 0.53016 0.0
C248 C 0.81098 0.5242 0.54503 0.0
O249 O 0.84884 0.72431 0.5969 0.0
O250 O 0.88062 0.66703 0.59002 0.0
O251 O 0.76256 0.77629 0.59176 0.0
O252 O 0.76888 0.74941 0.61882 0.0
C253 C 0.75743 0.7805 0.61006 0.0
O254 O 0.77478 0.61988 0.60318 0.0
O255 O 0.74265 0.67472 0.59327 0.0
O256 O 0.85052 0.57773 0.56959 0.0
O257 O 0.81126 0.62343 0.55955 0.0
H258 H 0.79664 0.60868 0.52074 0.0
H259 H 0.78958 0.49288 0.50019 0.0
H260 H 0.81725 0.51312 0.55922 0.0
O261 O 0.02872 0.03243 0.81579 0.0
Tb262 Tb 0.05288 0.0416 0.84417 0.0
Eu263 Eu 0.15071 0.07829 0.84279 0.0
C264 C 1.01112 0.06036 0.80672 0.0
O265 O 1.01319 0.09528 0.81365 0.0
C266 C 0.07389 0.13348 0.84548 0.0
O267 O 0.19105 0.09537 0.86671 0.0
C268 C 0.1814 0.07396 0.80889 0.0
C269 C 0.17954 0.08735 0.88426 0.0
O270 O 0.14556 0.07173 0.88682 0.0
C271 C 0.12762 0.99253 0.85223 0.0
C272 C 0.20658 0.05466 0.79464 0.0
C273 C 0.18998 0.0378 0.77813 0.0
C274 C 0.21336 0.0251 0.76297 0.0
C275 C 0.25328 0.02783 0.76461 0.0
C276 C 0.27029 0.04496 0.78063 0.0
C277 C 0.24698 0.05857 0.79561 0.0
O278 O 0.04873 0.10497 0.8463 0.0
O279 O 0.11127 0.1285 0.84428 0.0
O280 O 0.99633 0.01652 0.84951 0.0
O281 O 0.03307 0.02682 0.87331 0.0
C282 C 0.99949 0.01373 0.86803 0.0
O283 O 0.1471 0.02219 0.85812 0.0
O284 O 0.09689 0.99631 0.84131 0.0
O285 O 0.19755 0.09213 0.82343 0.0
O286 O 0.14775 0.0585 0.81306 0.0
H287 H 0.15897 0.03665 0.77656 0.0
H288 H 0.27121 0.0187 0.7527 0.0
H289 H 0.26032 0.07338 0.80759 0.0
O290 O 0.74726 0.27693 0.06269 0.0
Tb291 Tb 0.73851 0.30176 0.09092 0.0
Eu292 Eu 0.69551 0.39745 0.09103 0.0
C293 C 0.71827 0.27294 0.05088 0.0
O294 O 0.68744 0.29384 0.05382 0.0
C295 C 0.64532 0.31837 0.09385 0.0
O296 O 0.68497 0.44071 0.11454 0.0
C297 C 0.70376 0.42734 0.05717 0.0
C298 C 0.6841 0.42736 0.13222 0.0
O299 O 0.68538 0.39002 0.13474 0.0
C300 C 0.78136 0.37711 0.10012 0.0
C301 C 0.7225 0.45354 0.04328 0.0
C302 C 0.72733 0.44074 0.02417 0.0
C303 C 0.7399 0.46621 1.00986 0.0
C304 C 0.74969 0.50364 0.01492 0.0
C305 C 0.74454 0.51711 0.03359 0.0
C306 C 0.73058 0.49224 0.04787 0.0
O307 O 0.67623 0.29645 0.0953 0.0
O308 O 0.64589 0.35587 0.09154 0.0
O309 O 0.76201 0.24471 0.0944 0.0
O310 O 0.75963 0.28036 0.11898 0.0
C311 C 0.76903 0.24637 0.11265 0.0
O312 O 0.75007 0.39039 0.10794 0.0
O313 O 0.7798 0.3487 0.08782 0.0
O314 O 0.68164 0.44229 0.07059 0.0
O315 O 0.72172 0.39571 0.06248 0.0
H316 H 0.71927 0.41172 0.02024 0.0
H317 H 0.75937 0.52339 1.00386 0.0
H318 H 0.72501 0.50319 0.06216 0.0
O319 O 0.49247 0.9927 0.31464 0.0
Tb320 Tb 0.47053 0.98623 0.34368 0.0
Eu321 Eu 0.37338 0.94012 0.34053 0.0
C322 C 0.49682 0.96326 0.30309 0.0
O323 O 0.4808 0.9304 0.30761 0.0
C324 C 0.45423 0.89277 0.34477 0.0
O325 O 0.33261 0.92506 0.36501 0.0
C326 C 0.34234 0.94869 0.30682 0.0
C327 C 0.34508 0.93117 0.38271 0.0
O328 O 0.38096 0.94187 0.38527 0.0
C329 C 0.39143 0.02696 0.35141 0.0
C330 C 0.31714 0.96431 0.29134 0.0
C331 C 0.33418 0.97674 0.27394 0.0
C332 C 0.31114 0.98789 0.25828 0.0
C333 C 0.27126 0.98673 0.26009 0.0
C334 C 0.25371 0.97722 0.27748 0.0
C335 C 0.27653 0.96506 0.29308 0.0
O336 O 0.47455 0.92378 0.34925 0.0
O337 O 0.41761 0.89304 0.33988 0.0
O338 O 0.52921 1.00721 0.34589 0.0
O339 O 0.49491 1.0078 0.37104 0.0
C340 C 0.52874 0.01579 0.36399 0.0
O341 O 0.37912 0.99401 0.35776 0.0
O342 O 0.42468 0.02973 0.34251 0.0
O343 O 0.32744 0.92676 0.32034 0.0
O344 O 0.37393 0.96699 0.31206 0.0
H345 H 0.36523 0.97819 0.27267 0.0
H346 H 0.25358 0.99655 0.24818 0.0
H347 H 0.26287 0.95699 0.30646 0.0
O348 O 0.24777 0.26845 0.46014 0.0
Tb349 Tb 0.24092 0.30175 0.4342 0.0
Eu350 Eu 0.19373 0.39809 0.43387 0.0
C351 C 0.23097 0.27386 0.4768 0.0
O352 O 0.21033 0.30474 0.47996 0.0
C353 C 0.14612 0.31754 0.43539 0.0
O354 O 0.17863 0.43866 0.40963 0.0
C355 C 0.21013 0.43508 0.46493 0.0
C356 C 0.18068 0.42509 0.39202 0.0
O357 O 0.18656 0.38818 0.3896 0.0
C358 C 0.27721 0.37847 0.42299 0.0
C359 C 0.21881 0.45823 0.48227 0.0
C360 C 0.23497 0.44162 0.49904 0.0
C361 C 0.23893 0.46403 0.51577 0.0
C362 C 0.22483 0.50144 0.51578 0.0
C363 C 0.21615 0.52013 0.49863 0.0
C364 C 0.21132 0.49811 0.48195 0.0
O365 O 0.17734 0.29592 0.43316 0.0
O366 O 0.14608 0.35521 0.43709 0.0
O367 O 0.28061 0.25605 0.42586 0.0
O368 O 0.24189 0.27752 0.40498 0.0
C369 C 0.26953 0.25305 0.40815 0.0
O370 O 0.24375 0.38396 0.41517 0.0
O371 O 0.28104 0.35034 0.43528 0.0
O372 O 0.18538 0.44762 0.45204 0.0
O373 O 0.22626 0.4017 0.46104 0.0
H374 H 0.24488 0.41217 0.49896 0.0
H375 H 0.22616 0.51788 0.52903 0.0
H376 H 0.203 0.51207 0.46868 0.0
O377 O 0.99025 0.98859 0.20733 0.0
Tb378 Tb 0.97853 0.97559 0.17713 0.0
Eu379 Eu 0.88085 0.95119 0.19162 0.0
C380 C 1.01087 0.9634 0.21711 0.0
O381 O 0.0153 0.92902 0.20971 0.0
C382 C 0.95326 0.89182 0.18425 0.0
O383 O 0.85916 0.93242 0.16186 0.0
C384 C 0.83721 0.9423 0.22166 0.0
C385 C 0.83127 0.94991 0.15226 0.0
O386 O 0.81232 0.97787 0.16064 0.0
C387 C 0.9054 0.03071 0.17319 0.0
C388 C 0.81263 0.96054 0.23665 0.0
C389 C 0.82887 0.97674 0.2536 0.0
C390 C 0.80486 0.98935 0.26862 0.0
C391 C 0.76514 0.98507 0.26674 0.0
C392 C 0.74837 0.97152 0.24978 0.0
C393 C 0.77225 0.95855 0.23488 0.0
O394 O 0.97087 0.91452 0.17202 0.0
O395 O 0.92566 0.90441 0.1956 0.0
O396 O 0.04044 0.98582 0.17788 0.0
O397 O 1.01049 0.99868 0.15234 0.0
C398 C 0.04387 0.9995 0.1607 0.0
O399 O 0.88686 0.01507 0.18758 0.0
O400 O 0.9356 0.01429 0.16535 0.0
O401 O 0.82415 0.93879 0.20392 0.0
O402 O 0.87441 0.94881 0.22252 0.0
H403 H 0.85974 0.97979 0.25508 0.0
H404 H 0.74699 0.99384 0.27862 0.0
H405 H 0.7594 0.94676 0.22197 0.0
O406 O 0.28595 0.75092 0.96073 0.0
Tb407 Tb 0.29546 0.72314 0.93351 0.0
Eu408 Eu 0.33276 0.62418 0.93476 0.0
C409 C 0.30859 0.7496 0.9758 0.0
O410 O 0.33762 0.72556 0.9764 0.0
C411 C 0.3868 0.7017 0.936 0.0
O412 O 0.34846 0.58519 0.91012 0.0
C413 C 0.31466 0.58661 0.9654 0.0
C414 C 0.34408 0.5992 0.89273 0.0
O415 O 0.33609 0.63582 0.89077 0.0
C416 C 0.24987 0.64988 0.9255 0.0
C417 C 0.30427 0.56502 0.98298 0.0
C418 C 0.29748 0.58492 1.0003 0.0
C419 C 0.28823 0.56466 0.01709 0.0
C420 C 0.28464 0.52485 0.01637 0.0
C421 C 0.28873 0.50473 0.99914 0.0
C422 C 0.29985 0.52465 0.98247 0.0
O423 O 0.35863 0.7255 0.9313 0.0
O424 O 0.3823 0.66478 0.9396 0.0
O425 O 0.26974 0.77901 0.92773 0.0
O426 O 0.27908 0.74146 0.90425 0.0
C427 C 0.26598 0.7751 0.9093 0.0
O428 O 0.28067 0.63726 0.91705 0.0
O429 O 0.25269 0.67801 0.93785 0.0
O430 O 0.33726 0.57212 0.95208 0.0
O431 O 0.30224 0.62176 0.96215 0.0
H432 H 0.29969 0.61592 1.00079 0.0
H433 H 0.27636 0.50939 0.02926 0.0
H434 H 0.30332 0.50917 0.96909 0.0
O435 O 0.52094 0.03056 0.71115 0.0
Tb436 Tb 0.55112 0.0372 0.68409 0.0
Eu437 Eu 0.64868 0.08213 0.68586 0.0
C438 C 0.52339 0.05656 0.72471 0.0
O439 O 0.54999 0.08318 0.72358 0.0
C440 C 0.56804 0.13067 0.68424 0.0
O441 O 0.68858 0.09519 0.66122 0.0
C442 C 0.67988 0.08133 0.71974 0.0
C443 C 0.67416 0.08817 0.64408 0.0
O444 O 0.63792 0.07759 0.64292 0.0
C445 C 0.62925 0.99367 0.67647 0.0
C446 C 0.70561 0.06194 0.73371 0.0
C447 C 0.69033 0.05107 0.7517 0.0
C448 C 0.7141 0.03492 0.76586 0.0
C449 C 0.75314 0.02983 0.76202 0.0
C450 C 0.76906 0.04131 0.74458 0.0
C451 C 0.74546 0.05755 0.73035 0.0
O452 O 0.54557 0.1001 0.68567 0.0
O453 O 0.60576 0.12988 0.68261 0.0
O454 O 0.49932 1.00444 0.67776 0.0
O455 O 0.52839 0.03113 0.65456 0.0
C456 C 0.49883 1.01003 0.65935 0.0
O457 O 0.64794 0.02471 0.67175 0.0
O458 O 0.59727 0.99446 0.68655 0.0
O459 O 0.69534 0.09913 0.70492 0.0
O460 O 0.64646 0.06498 0.71591 0.0
H461 H 0.66009 0.05555 0.75474 0.0
H462 H 0.77194 0.01864 0.77317 0.0
H463 H 0.75822 0.06742 0.71705 0.0
H464 H 0.11137 0.43598 0.1521 0.0
H465 H 0.19849 0.48567 0.18903 0.0
H466 H 0.24408 0.4345 0.17968 0.0
H467 H 0.139 0.33368 0.15919 0.0
H468 H 0.12973 0.32169 0.13443 0.0
H469 H 0.1025 0.35918 0.14594 0.0
H470 H 0.12277 0.40648 0.11906 0.0
H471 H 0.15037 0.3693 0.10762 0.0
H472 H 0.17319 0.41384 0.11423 0.0
H473 H 0.28139 0.38102 0.16473 0.0
H474 H 0.30813 0.32831 0.14502 0.0
H475 H 0.19766 0.31483 0.11675 0.0
C476 C 0.13959 0.43504 0.1587 0.0
C477 C 0.15132 0.46369 0.17175 0.0
C478 C 0.18893 0.46306 0.17946 0.0
C479 C 0.21497 0.43432 0.17415 0.0
C480 C 0.20292 0.40669 0.161 0.0
C481 C 0.1661 0.40666 0.1534 0.0
C482 C 0.16149 0.37536 0.13846 0.0
C483 C 0.13139 0.34572 0.14489 0.0
C484 C 0.15137 0.39228 0.11868 0.0
C485 C 0.2016 0.35841 0.13859 0.0
C486 C 0.22492 0.37661 0.15184 0.0
C487 C 0.26336 0.36636 0.15438 0.0
C488 C 0.27833 0.33654 0.14312 0.0
C489 C 0.25498 0.31775 0.1294 0.0
C490 C 0.21617 0.32886 0.12713 0.0
H491 H 0.3565 0.36607 0.42234 0.0
H492 H 0.2683 0.45156 0.41145 0.0
H493 H 0.31704 0.49572 0.39897 0.0
H494 H 0.43411 0.43611 0.43561 0.0
H495 H 0.47117 0.40891 0.42372 0.0
H496 H 0.43023 0.38464 0.43398 0.0
H497 H 0.41559 0.35309 0.4011 0.0
H498 H 0.45642 0.37717 0.39075 0.0
H499 H 0.40938 0.38306 0.38022 0.0
H500 H 0.37175 0.52805 0.38456 0.0
H501 H 0.43191 0.54791 0.3688 0.0
H502 H 0.488 0.44436 0.38888 0.0
C503 C 0.34781 0.39449 0.41782 0.0
C504 C 0.30858 0.40544 0.41801 0.0
C505 C 0.29811 0.44248 0.41148 0.0
C506 C 0.32562 0.46794 0.40441 0.0
C507 C 0.36378 0.4562 0.40399 0.0
C508 C 0.3752 0.42055 0.41054 0.0
C509 C 0.41805 0.41479 0.40709 0.0
C510 C 0.43968 0.41088 0.42624 0.0
C511 C 0.42526 0.37996 0.39401 0.0
C512 C 0.42834 0.45223 0.39706 0.0
C513 C 0.3964 0.47566 0.39568 0.0
C514 C 0.39723 0.51043 0.38588 0.0
C515 C 0.43147 0.52148 0.37699 0.0
C516 C 0.46456 0.49812 0.37805 0.0
C517 C 0.4633 0.46325 0.38844 0.0
H518 H 0.28833 0.67568 0.60877 0.0
H519 H 0.28024 0.75253 0.65757 0.0
H520 H 0.31455 0.70473 0.67772 0.0
H521 H 0.27419 0.58685 0.63505 0.0
H522 H 0.30784 0.56062 0.6204 0.0
H523 H 0.28165 0.6004 0.61034 0.0
H524 H 0.34604 0.63229 0.60046 0.0
H525 H 0.37232 0.59273 0.61066 0.0
H526 H 0.38233 0.64104 0.61846 0.0
H527 H 0.35385 0.64924 0.69186 0.0
H528 H 0.38907 0.58914 0.69936 0.0
H529 H 0.36881 0.54899 0.6413 0.0
C530 C 0.2935 0.68239 0.62375 0.0
C531 C 0.2818 0.71787 0.63164 0.0
C532 C 0.28907 0.72554 0.65127 0.0
C533 C 0.30857 0.69859 0.66278 0.0
C534 C 0.32038 0.66412 0.65443 0.0
C535 C 0.31267 0.65585 0.63539 0.0
C536 C 0.32854 0.61703 0.62971 0.0
C537 C 0.29611 0.58961 0.62352 0.0
C538 C 0.35912 0.62103 0.61389 0.0
C539 C 0.34644 0.60463 0.64852 0.0
C540 C 0.34185 0.6322 0.6626 0.0
C541 C 0.35732 0.62739 0.68096 0.0
C542 C 0.37749 0.59334 0.68507 0.0
C543 C 0.38146 0.56441 0.67094 0.0
C544 C 0.36584 0.57041 0.65245 0.0
H545 H 0.22646 0.62306 0.89105 0.0
H546 H 0.19092 0.63347 0.95044 0.0
H547 H 0.13135 0.59675 0.94304 0.0
H548 H 0.13331 0.63741 0.87087 0.0
H549 H 0.14112 0.60445 0.85131 0.0
H550 H 0.18125 0.62945 0.86185 0.0
H551 H 0.21539 0.56436 0.86915 0.0
H552 H 0.17562 0.53996 0.85786 0.0
H553 H 0.18959 0.52778 0.88205 0.0
H554 H 0.07573 0.55755 0.92851 0.0
H555 H 0.02646 0.5265 0.90778 0.0
H556 H 0.09871 0.54594 0.85803 0.0
C557 C 0.20606 0.61765 0.9025 0.0
C558 C 0.21297 0.63098 0.92128 0.0
C559 C 0.1857 0.62374 0.93589 0.0
C560 C 0.15209 0.60265 0.93184 0.0
C561 C 0.14619 0.58968 0.91308 0.0
C562 C 0.17229 0.59747 0.89863 0.0
C563 C 0.15871 0.58241 0.87946 0.0
C564 C 0.15327 0.6154 0.86503 0.0
C565 C 0.18646 0.5518 0.87167 0.0
C566 C 0.12066 0.56502 0.88524 0.0
C567 C 0.11404 0.56884 0.90472 0.0
C568 C 0.08054 0.55471 0.91322 0.0
C569 C 0.05277 0.53711 0.90139 0.0
C570 C 0.05867 0.53431 0.88133 0.0
C571 C 0.09328 0.54798 0.87331 0.0
H572 H 0.90972 0.60654 0.8541 0.0
H573 H 0.82631 0.5169 0.86597 0.0
H574 H 0.78138 0.56463 0.87859 0.0
H575 H 0.89343 0.66109 0.89542 0.0
H576 H 0.89692 0.70768 0.88432 0.0
H577 H 0.92174 0.6674 0.87397 0.0
H578 H 0.88729 0.67936 0.84153 0.0
H579 H 0.86225 0.71973 0.85182 0.0
H580 H 0.83549 0.68129 0.84078 0.0
H581 H 0.74877 0.61857 0.89364 0.0
H582 H 0.72851 0.67818 0.90966 0.0
H583 H 0.82916 0.73669 0.8875 0.0
C584 C 0.88161 0.59726 0.85891 0.0
C585 C 0.87166 0.55778 0.8591 0.0
C586 C 0.83482 0.54676 0.86582 0.0
C587 C 0.80888 0.57376 0.87294 0.0
C588 C 0.81971 0.61212 0.87308 0.0
C589 C 0.8549 0.62422 0.8661 0.0
C590 C 0.85945 0.66733 0.86906 0.0
C591 C 0.895 0.67638 0.88143 0.0
C592 C 0.86123 0.68816 0.84964 0.0
C593 C 0.82226 0.67684 0.87962 0.0
C594 C 0.79973 0.64437 0.88147 0.0
C595 C 0.76561 0.64445 0.8919 0.0
C596 C 0.75433 0.67842 0.90096 0.0
C597 C 0.77674 0.7121 0.89942 0.0
C598 C 0.81089 0.71158 0.88834 0.0
H599 H 0.5849 0.55783 0.67189 0.0
H600 H 0.53185 0.50172 0.62297 0.0
H601 H 0.58155 0.52986 0.60162 0.0
H602 H 0.60855 0.64573 0.64758 0.0
H603 H 0.65339 0.65215 0.66023 0.0
H604 H 0.61422 0.62702 0.67156 0.0
H605 H 0.65816 0.56801 0.67719 0.0
H606 H 0.69728 0.59355 0.66606 0.0
H607 H 0.68307 0.54707 0.65704 0.0
H608 H 0.63761 0.56426 0.5858 0.0
H609 H 0.69583 0.60143 0.57687 0.0
H610 H 0.71104 0.6354 0.63622 0.0
C611 C 0.58371 0.55145 0.65667 0.0
C612 C 0.55454 0.52771 0.64901 0.0
C613 C 0.55388 0.52005 0.62906 0.0
C614 C 0.58197 0.53587 0.61687 0.0
C615 C 0.61015 0.55954 0.62489 0.0
C616 C 0.61113 0.56733 0.64433 0.0
C617 C 0.64408 0.5939 0.64939 0.0
C618 C 0.62915 0.63196 0.65768 0.0
C619 C 0.67231 0.57443 0.66325 0.0
C620 C 0.66191 0.5996 0.6298 0.0
C621 C 0.64186 0.57966 0.61581 0.0
C622 C 0.65329 0.58018 0.59662 0.0
C623 C 0.68615 0.60141 0.59166 0.0
C624 C 0.70707 0.62156 0.60584 0.0
C625 C 0.6949 0.62065 0.62512 0.0
H626 H 0.70003 0.32206 0.41493 0.0
H627 H 0.79931 0.31533 0.37742 0.0
H628 H 0.77253 0.36762 0.35745 0.0
H629 H 0.63027 0.34007 0.37741 0.0
H630 H 0.60201 0.37246 0.39181 0.0
H631 H 0.62899 0.33455 0.40314 0.0
H632 H 0.66392 0.38423 0.42469 0.0
H633 H 0.63687 0.42228 0.41359 0.0
H634 H 0.6887 0.424 0.41369 0.0
H635 H 0.73627 0.42215 0.34244 0.0
H636 H 0.69282 0.47543 0.33329 0.0
H637 H 0.61595 0.44524 0.37979 0.0
C638 C 0.71612 0.33168 0.40252 0.0
C639 C 0.75176 0.3149 0.39768 0.0
C640 C 0.77197 0.32798 0.38133 0.0
C641 C 0.75695 0.35755 0.36991 0.0
C642 C 0.72158 0.37341 0.37499 0.0
C643 C 0.70139 0.36093 0.39088 0.0
C644 C 0.66407 0.38285 0.39322 0.0
C645 C 0.62927 0.35587 0.39128 0.0
C646 C 0.66337 0.40464 0.41244 0.0
C647 C 0.66666 0.41009 0.37631 0.0
C648 C 0.70005 0.40404 0.36596 0.0
C649 C 0.70974 0.42674 0.35022 0.0
C650 C 0.68489 0.45669 0.34506 0.0
C651 C 0.6507 0.46336 0.35548 0.0
C652 C 0.64136 0.43972 0.37124 0.0
H653 H 0.81412 0.38485 0.13525 0.0
H654 H 0.82938 0.41399 0.07531 0.0
H655 H 0.887 0.4528 0.08373 0.0
H656 H 0.84189 0.47333 0.15568 0.0
H657 H 0.86754 0.45247 0.17563 0.0
H658 H 0.82813 0.42688 0.16476 0.0
H659 H 0.87237 0.36833 0.15858 0.0
H660 H 0.91187 0.39352 0.16965 0.0
H661 H 0.91673 0.37492 0.14562 0.0
H662 H 0.94218 0.49039 0.09943 0.0
H663 H 0.99208 0.51936 0.12056 0.0
H664 H 0.94073 0.46286 0.16972 0.0
C665 C 0.83 0.39904 0.12391 0.0
C666 C 0.81792 0.39632 0.10464 0.0
C667 C 0.83892 0.41534 0.09011 0.0
C668 C 0.87138 0.4376 0.0948 0.0
C669 C 0.88262 0.4399 0.11403 0.0
C670 C 0.86282 0.42059 0.12829 0.0
C671 C 0.88116 0.42671 0.14775 0.0
C672 C 0.853 0.44601 0.16177 0.0
C673 C 0.89644 0.38861 0.15588 0.0
C674 C 0.91381 0.45328 0.14236 0.0
C675 C 0.91436 0.46064 0.12287 0.0
C676 C 0.94216 0.48454 0.1147 0.0
C677 C 0.97037 0.50085 0.12676 0.0
C678 C 0.97037 0.49315 0.14671 0.0
C679 C 0.94155 0.46923 0.1545 0.0
H680 H 0.67397 0.93185 0.68798 0.0
H681 H 0.61162 0.9807 0.63988 0.0
H682 H 0.63977 0.93236 0.6183 0.0
H683 H 0.75989 0.90907 0.66201 0.0
H684 H 0.76907 0.86412 0.67394 0.0
H685 H 0.7434 0.90166 0.68626 0.0
H686 H 0.68653 0.85538 0.69252 0.0
H687 H 0.7123 0.8176 0.68044 0.0
H688 H 0.66459 0.83053 0.6726 0.0
H689 H 0.67751 0.88485 0.60156 0.0
H690 H 0.71605 0.83105 0.58999 0.0
H691 H 0.75253 0.806 0.64839 0.0
C692 C 0.66535 0.93125 0.67304 0.0
C693 C 0.63973 0.95914 0.66557 0.0
C694 C 0.63026 0.95881 0.64585 0.0
C695 C 0.64646 0.93179 0.63348 0.0
C696 C 0.67198 0.90508 0.64108 0.0
C697 C 0.68099 0.90381 0.66039 0.0
C698 C 0.70948 0.87149 0.6644 0.0
C699 C 0.74773 0.88755 0.67211 0.0
C700 C 0.69218 0.84199 0.67831 0.0
C701 C 0.7144 0.85471 0.64432 0.0
C702 C 0.69306 0.87553 0.6312 0.0
C703 C 0.69377 0.86775 0.61167 0.0
C704 C 0.71593 0.83708 0.60525 0.0
C705 C 0.73672 0.81379 0.61827 0.0
C706 C 0.73633 0.8229 0.63815 0.0
H707 H 0.93416 0.97664 0.85686 0.0
H708 H 0.99832 1.01105 0.90747 0.0
H709 H 0.95 0.97872 0.92809 0.0
H710 H 0.83855 0.98726 0.87645 0.0
H711 H 0.82017 0.94545 0.86425 0.0
H712 H 0.85907 0.97247 0.85386 0.0
H713 H 0.90041 0.91059 0.85245 0.0
H714 H 0.86171 0.88356 0.86306 0.0
H715 H 0.9086 0.88355 0.87414 0.0
H716 H 0.89605 0.93892 0.94298 0.0
H717 H 0.83829 0.89999 0.95086 0.0
H718 H 0.80926 0.89395 0.89042 0.0
C719 C 0.93791 0.97766 0.8723 0.0
C720 C 0.97002 0.99622 0.88062 0.0
C721 C 0.97401 0.99678 0.90085 0.0
C722 C 0.94673 0.9785 0.91264 0.0
C723 C 0.91577 0.95974 0.90394 0.0
C724 C 0.91112 0.95949 0.88421 0.0
C725 C 0.8759 0.9367 0.87833 0.0
C726 C 0.8467 0.962 0.8676 0.0
C727 C 0.88735 0.90152 0.86628 0.0
C728 C 0.861 0.9247 0.89783 0.0
C729 C 0.88465 0.93768 0.91244 0.0
C730 C 0.87732 0.92874 0.93164 0.0
C731 C 0.84477 0.90639 0.93599 0.0
C732 C 0.81978 0.89392 0.92122 0.0
C733 C 0.82808 0.90319 0.90195 0.0
H734 H 0.84158 0.07636 0.18284 0.0
H735 H 0.93454 0.06439 0.1414 0.0
H736 H 0.91023 0.11929 0.12365 0.0
H737 H 0.76849 0.10415 0.1492 0.0
H738 H 0.74634 0.13987 0.16429 0.0
H739 H 0.77103 0.09978 0.17498 0.0
H740 H 0.81414 0.14641 0.1943 0.0
H741 H 0.78951 0.18667 0.18366 0.0
H742 H 0.84108 0.18285 0.18179 0.0
H743 H 0.8769 0.17103 0.10899 0.0
H744 H 0.83425 0.22199 0.09762 0.0
H745 H 0.76149 0.20701 0.14771 0.0
C746 C 0.85695 0.08564 0.17015 0.0
C747 C 0.89025 0.06577 0.16366 0.0
C748 C 0.90924 0.07878 0.14688 0.0
C749 C 0.89566 0.11014 0.13659 0.0
C750 C 0.86312 0.12888 0.14321 0.0
C751 C 0.84386 0.11767 0.15959 0.0
C752 C 0.80916 0.14369 0.16297 0.0
C753 C 0.77153 0.12047 0.16284 0.0
C754 C 0.81375 0.16624 0.1818 0.0
C755 C 0.81184 0.17028 0.14559 0.0
C756 C 0.84354 0.16082 0.13463 0.0
C757 C 0.85227 0.17926 0.11753 0.0
C758 C 0.82789 0.20819 0.1112 0.0
C759 C 0.79517 0.21882 0.12192 0.0
C760 C 0.78698 0.19997 0.13952 0.0
H761 H 0.67013 0.15318 0.42432 0.0
H762 H 0.76274 0.08293 0.40216 0.0
H763 H 0.71563 0.04033 0.38647 0.0
H764 H 0.60539 0.0724 0.43417 0.0
H765 H 0.56236 0.09804 0.42755 0.0
H766 H 0.60314 0.12372 0.43713 0.0
H767 H 0.60449 0.16749 0.40704 0.0
H768 H 0.5633 0.14233 0.39764 0.0
H769 H 0.60659 0.14592 0.38352 0.0
H770 H 0.66013 1.00675 0.37249 0.0
H771 H 0.59818 0.98453 0.35947 0.0
H772 H 0.5386 0.07302 0.39153 0.0
C773 C 0.68025 0.12884 0.4161 0.0
C774 C 0.72011 0.12136 0.41428 0.0
C775 C 0.73247 0.0892 0.4036 0.0
C776 C 0.70587 0.06475 0.39473 0.0
C777 C 0.66683 0.07247 0.39694 0.0
C778 C 0.65383 0.10363 0.40733 0.0
C779 C 0.61002 0.1049 0.40732 0.0
C780 C 0.5943 0.09944 0.42776 0.0
C781 C 0.59524 0.14239 0.39834 0.0
C782 C 0.60066 0.07041 0.39474 0.0
C783 C 0.6341 0.05206 0.38916 0.0
C784 C 0.63373 0.02064 0.37686 0.0
C785 C 0.59841 1.00822 0.36955 0.0
C786 C 0.56378 0.02683 0.37463 0.0
C787 C 0.56468 0.05785 0.38775 0.0
H788 H 0.41349 0.10247 0.35934 0.0
H789 H 0.31435 0.02724 0.35458 0.0
H790 H 0.27225 0.07901 0.36586 0.0
H791 H 0.38648 0.14699 0.40227 0.0
H792 H 0.40245 0.19461 0.39605 0.0
H793 H 0.42497 0.15348 0.38523 0.0
H794 H 0.40949 0.18031 0.3514 0.0
H795 H 0.38686 0.22161 0.36214 0.0
H796 H 0.36052 0.19228 0.34534 0.0
H797 H 0.24059 0.1369 0.37896 0.0
H798 H 0.22222 0.1971 0.39539 0.0
H799 H 0.34098 0.23479 0.39413 0.0
C800 C 0.38282 0.09737 0.3602 0.0
C801 C 0.3672 0.06084 0.35588 0.0
C802 C 0.327 0.05497 0.35771 0.0
C803 C 0.30272 0.08426 0.36406 0.0
C804 C 0.31884 0.11962 0.36855 0.0
C805 C 0.3579 0.12649 0.36676 0.0
C806 C 0.36766 0.1666 0.37386 0.0
C807 C 0.39713 0.16531 0.39034 0.0
C808 C 0.382 0.19168 0.35719 0.0
C809 C 0.32846 0.18011 0.38077 0.0
C810 C 0.30056 0.15293 0.37696 0.0
C811 C 0.26209 0.15862 0.38185 0.0
C812 C 0.25185 0.19291 0.39106 0.0
C813 C 0.28009 0.22057 0.39568 0.0
C814 C 0.31886 0.21414 0.39047 0.0
H815 H 0.05389 0.04145 0.12728 0.0
H816 H 0.11311 0.99973 0.1781 0.0
H817 H 0.17152 0.03444 0.16843 0.0
H818 H 0.13577 0.03635 0.09478 0.0
H819 H 0.12408 0.08021 0.08236 0.0
H820 H 0.08638 0.05175 0.09295 0.0
H821 H 0.06357 0.11072 0.11244 0.0
H822 H 0.10131 0.13934 0.10199 0.0
H823 H 0.09728 0.13556 0.12772 0.0
H824 H 0.22068 0.07758 0.15567 0.0
H825 H 0.26261 0.1215 0.13766 0.0
H826 H 0.1767 0.13124 0.09286 0.0
C827 C 0.07942 0.03923 0.13615 0.0
C828 C 0.07918 0.01773 0.15339 0.0
C829 C 0.11278 0.01589 0.16482 0.0
C830 C 0.14605 0.03561 0.15949 0.0
C831 C 0.14535 0.05699 0.14265 0.0
C832 C 0.11324 0.05873 0.13096 0.0
C833 C 0.12075 0.08432 0.11368 0.0
C834 C 0.11651 0.06179 0.09482 0.0
C835 C 0.09414 0.11957 0.11398 0.0
C836 C 0.16231 0.09581 0.11738 0.0
C837 C 0.1753 0.08037 0.13447 0.0
C838 C 0.2113 0.08909 0.14202 0.0
C839 C 0.23505 0.11385 0.13167 0.0
C840 C 0.2235 0.12844 0.11366 0.0
C841 C 0.18654 0.11951 0.1064 0.0
H842 H 0.22943 0.84043 0.92048 0.0
H843 H 0.26099 0.77539 0.86983 0.0
H844 H 0.22755 0.82328 0.84935 0.0
H845 H 0.13535 0.86645 0.90477 0.0
H846 H 0.13685 0.91359 0.91539 0.0
H847 H 0.16432 0.87507 0.92583 0.0
H848 H 0.22614 0.91576 0.92303 0.0
H849 H 0.19943 0.95438 0.91222 0.0
H850 H 0.24032 0.93443 0.89994 0.0
H851 H 0.18747 0.87783 0.83462 0.0
H852 H 0.14945 0.93629 0.82699 0.0
H853 H 0.14595 0.96512 0.88745 0.0
C854 C 0.22949 0.8363 0.90506 0.0
C855 C 0.2476 0.80407 0.8967 0.0
C856 C 0.24703 0.79974 0.87649 0.0
C857 C 0.2281 0.82678 0.86479 0.0
C858 C 0.20976 0.85785 0.87354 0.0
C859 C 0.21065 0.86281 0.89324 0.0
C860 C 0.18863 0.8983 0.89923 0.0
C861 C 0.15425 0.88771 0.91206 0.0
C862 C 0.21525 0.92741 0.9092 0.0
C863 C 0.17526 0.91279 0.87986 0.0
C864 C 0.18734 0.88898 0.86517 0.0
C865 C 0.17779 0.89652 0.84604 0.0
C866 C 0.15586 0.92947 0.84183 0.0
C867 C 0.14422 0.95458 0.85668 0.0
C868 C 0.15404 0.94598 0.87588 0.0
H869 H 0.32278 0.87256 0.63434 0.0
H870 H 0.32274 0.91824 0.57658 0.0
H871 H 0.37902 0.95919 0.5847 0.0
H872 H 0.34492 0.95809 0.65819 0.0
H873 H 0.37559 0.93649 0.67607 0.0
H874 H 0.33757 0.90886 0.66522 0.0
H875 H 0.38653 0.85708 0.65445 0.0
H876 H 0.42469 0.88413 0.6656 0.0
H877 H 0.42797 0.87114 0.6406 0.0
H878 H 0.43438 0.9975 0.60026 0.0
H879 H 0.48443 0.02689 0.6212 0.0
H880 H 0.44617 0.95576 0.66852 0.0
C881 C 0.33552 0.89029 0.62326 0.0
C882 C 0.31957 0.89143 0.60466 0.0
C883 C 0.33572 0.91604 0.59069 0.0
C884 C 0.36733 0.93965 0.59526 0.0
C885 C 0.38233 0.93815 0.61387 0.0
C886 C 0.3671 0.91371 0.62756 0.0
C887 C 0.38759 0.91793 0.64661 0.0
C888 C 0.35975 0.93114 0.66245 0.0
C889 C 0.4079 0.88033 0.65214 0.0
C890 C 0.4164 0.94891 0.64168 0.0
C891 C 0.41321 0.96026 0.62274 0.0
C892 C 0.43725 0.98854 0.61507 0.0
C893 C 0.4656 1.00506 0.62702 0.0
C894 C 0.46929 0.99343 0.64641 0.0
C895 C 0.44409 0.96525 0.65374 0.0
H896 H 0.27655 0.96487 0.99951 0.0
H897 H 0.31072 0.94655 0.05887 0.0
H898 H 0.31808 0.87715 0.05173 0.0
H899 H 0.2177 0.88067 0.99521 0.0
H900 H 0.23081 0.8747 0.97034 0.0
H901 H 0.22901 0.92198 0.98069 0.0
H902 H 0.29981 0.93421 0.97044 0.0
H903 H 0.30139 0.88727 0.95984 0.0
H904 H 0.33659 0.9008 0.97765 0.0
H905 H 0.32679 0.8091 0.03577 0.0
H906 H 0.33031 0.75208 0.01419 0.0
H907 H 0.28137 0.81984 0.96803 0.0
C908 C 0.2839 0.94693 1.01156 0.0
C909 C 0.29191 0.96197 0.02999 0.0
C910 C 0.30414 0.93624 0.04459 0.0
C911 C 0.30823 0.89666 0.04069 0.0
C912 C 0.29941 0.88334 0.02225 0.0
C913 C 0.28691 0.90806 1.00812 0.0
C914 C 0.27929 0.88818 0.98935 0.0
C915 C 0.23666 0.89156 0.98357 0.0
C916 C 0.30586 0.90352 0.9734 0.0
C917 C 0.28969 0.84792 0.9949 0.0
C918 C 0.3019 0.84524 1.01377 0.0
C919 C 0.31646 0.81086 0.02113 0.0
C920 C 0.31849 0.77874 1.00883 0.0
C921 C 0.3054 0.78141 0.98962 0.0
C922 C 0.29056 0.8164 0.98281 0.0
H923 H 0.96714 0.49915 0.23033 0.0
H924 H 1.01052 0.60547 0.25459 0.0
H925 H 0.9544 0.60828 0.27623 0.0
H926 H 0.87247 0.52674 0.22826 0.0
H927 H 0.85265 0.48038 0.23402 0.0
H928 H 0.899 0.48369 0.22279 0.0
H929 H 0.92889 0.44425 0.25058 0.0
H930 H 0.88252 0.44108 0.26204 0.0
H931 H 0.9231 0.46032 0.27503 0.0
H932 H 0.88874 0.60523 0.29114 0.0
H933 H 0.81927 0.59679 0.29744 0.0
H934 H 0.82107 0.48997 0.26553 0.0
C935 C 0.96556 0.52242 0.24061 0.0
C936 C 0.99353 0.55186 0.24094 0.0
C937 C 0.98977 0.58229 0.25427 0.0
C938 C 0.95798 0.58412 0.26664 0.0
C939 C 0.93048 0.55507 0.26566 0.0
C940 C 0.93415 0.52461 0.25307 0.0
C941 C 0.89892 0.49914 0.2534 0.0
C942 C 0.87964 0.49743 0.23345 0.0
C943 C 0.90897 0.4588 0.26071 0.0
C944 C 0.87435 0.52066 0.26773 0.0
C945 C 0.89304 0.55273 0.27475 0.0
C946 C 0.87413 0.57964 0.2862 0.0
C947 C 0.83471 0.57447 0.28988 0.0
C948 C 0.81478 0.54265 0.28209 0.0
C949 C 0.83559 0.51447 0.27181 0.0
H950 H 0.24229 0.19979 0.46777 0.0
H951 H 0.21989 0.27419 0.51639 0.0
H952 H 0.22042 0.21711 0.538 0.0
H953 H 0.18096 0.12506 0.48152 0.0
H954 H 0.21216 0.08822 0.47219 0.0
H955 H 0.21247 0.13524 0.46162 0.0
H956 H 0.28592 0.13975 0.46739 0.0
H957 H 0.28617 0.09309 0.47844 0.0
H958 H 0.30478 0.13384 0.49134 0.0
H959 H 0.2257 0.14796 0.55406 0.0
H960 H 0.23146 0.07815 0.5615 0.0
H961 H 0.24078 0.05493 0.50041 0.0
C962 C 0.23785 0.20449 0.48299 0.0
C963 C 0.23147 0.24145 0.49047 0.0
C964 C 0.22496 0.24597 0.51042 0.0
C965 C 0.22532 0.21376 0.52275 0.0
C966 C 0.23157 0.17748 0.51474 0.0
C967 C 0.23733 0.1731 0.49521 0.0
C968 C 0.24171 0.13179 0.48951 0.0
C969 C 0.20991 0.11936 0.47539 0.0
C970 C 0.28203 0.1242 0.48118 0.0
C971 C 0.23701 0.11314 0.5088 0.0
C972 C 0.23211 0.13935 0.52344 0.0
C973 C 0.22937 0.12733 0.54259 0.0
C974 C 0.23249 0.08765 0.54671 0.0
C975 C 0.23788 0.06076 0.53167 0.0
C976 C 0.2385 0.07425 0.51253 0.0
H977 H 0.71226 0.42351 0.77533 0.0
H978 H 0.71453 0.54229 0.79307 0.0
H979 H 0.64646 0.54954 0.7832 0.0
H980 H 0.66571 0.44047 0.73395 0.0
H981 H 0.63772 0.39696 0.73324 0.0
H982 H 0.68263 0.39795 0.74602 0.0
H983 H 0.64877 0.37577 0.77733 0.0
H984 H 0.60377 0.37362 0.76447 0.0
H985 H 0.60761 0.40198 0.78604 0.0
H986 H 0.58351 0.54703 0.76483 0.0
H987 H 0.52916 0.53282 0.74284 0.0
H988 H 0.56882 0.4153 0.73784 0.0
C989 C 0.69746 0.45016 0.77839 0.0
C990 C 0.7178 0.48186 0.78575 0.0
C991 C 0.69866 0.51729 0.78827 0.0
C992 C 0.66022 0.52174 0.78245 0.0
C993 C 0.64148 0.49038 0.77422 0.0
C994 C 0.65933 0.45504 0.77253 0.0
C995 C 0.63532 0.42743 0.76083 0.0
C996 C 0.65662 0.415 0.74244 0.0
C997 C 0.62314 0.39264 0.7729 0.0
C998 C 0.60134 0.45261 0.75612 0.0
C999 C 0.60532 0.48895 0.76379 0.0
C1000 C 0.57946 0.51828 0.75931 0.0
C1001 C 0.54875 0.51 0.7468 0.0
C1002 C 0.54421 0.47268 0.73905 0.0
C1003 C 0.57067 0.44375 0.74403 0.0
H1004 H 0.76238 0.23733 0.02271 0.0
H1005 H 0.66502 0.22179 0.06086 0.0
H1006 H 0.65585 0.15626 0.04863 0.0
H1007 H 0.7197 0.18195 0.98256 0.0
H1008 H 0.76458 0.16078 0.97518 0.0
H1009 H 0.76414 0.20762 0.9862 0.0
H1010 H 0.81177 0.18469 1.01238 0.0
H1011 H 0.81319 0.13825 1.00112 0.0
H1012 H 0.80063 0.1423 0.02616 0.0
H1013 H 0.65526 0.09451 0.03268 0.0
H1014 H 0.67052 0.03283 0.01733 0.0
H1015 H 0.76963 0.0842 0.98973 0.0
C1016 C 0.73881 0.22015 0.02814 0.0
C1017 C 0.71331 0.23487 0.04216 0.0
C1018 C 0.68365 0.21143 0.04952 0.0
C1019 C 0.67833 0.17419 0.04273 0.0
C1020 C 0.70269 0.16087 0.0284 0.0
C1021 C 0.73268 0.18265 0.02126 0.0
C1022 C 0.75506 0.16008 1.00626 0.0
C1023 C 0.75062 0.17872 0.98637 0.0
C1024 C 0.79768 0.15609 1.01184 0.0
C1025 C 0.73408 0.12177 1.007 0.0
C1026 C 0.70317 0.1237 0.01941 0.0
C1027 C 0.67914 0.09255 0.02278 0.0
C1028 C 0.68771 0.05781 1.01383 0.0
C1029 C 0.72056 0.0542 1.00205 0.0
C1030 C 0.74371 0.08671 0.99823 0.0
H1031 H 0.05395 0.52307 0.79082 0.0
H1032 H 0.03104 0.40085 0.78702 0.0
H1033 H 0.08819 0.39266 0.76667 0.0
H1034 H 0.09171 0.53231 0.74058 0.0
H1035 H 0.12747 0.56714 0.74751 0.0
H1036 H 0.08229 0.56479 0.76017 0.0
H1037 H 0.11851 0.55605 0.79245 0.0
H1038 H 0.16357 0.55904 0.77993 0.0
H1039 H 0.1533 0.51796 0.79477 0.0
H1040 H 0.15094 0.39593 0.74983 0.0
H1041 H 0.21704 0.4106 0.73908 0.0
H1042 H 0.19888 0.53062 0.75238 0.0
C1043 C 0.06043 0.49478 0.78528 0.0
C1044 C 0.03755 0.46269 0.79024 0.0
C1045 C 0.04752 0.426 0.78307 0.0
C1046 C 0.08002 0.42101 0.7715 0.0
C1047 C 0.10198 0.45306 0.76688 0.0
C1048 C 0.0926 0.48932 0.77344 0.0
C1049 C 0.12246 0.51851 0.76722 0.0
C1050 C 0.10493 0.54741 0.75303 0.0
C1051 C 0.14053 0.53905 0.78463 0.0
C1052 C 0.15107 0.49254 0.75719 0.0
C1053 C 0.13827 0.45504 0.75677 0.0
C1054 C 0.16094 0.42532 0.74959 0.0
C1055 C 0.19827 0.43392 0.74329 0.0
C1056 C 0.21257 0.47179 0.74445 0.0
C1057 C 0.18811 0.50161 0.75083 0.0
H1058 H 0.77553 0.9326 0.48651 0.0
H1059 H 0.85551 0.98829 0.52545 0.0
H1060 H 0.8641 0.92788 0.54303 0.0
H1061 H 0.72962 0.87205 0.51775 0.0
H1062 H 0.72886 0.82926 0.50319 0.0
H1063 H 0.73073 0.8757 0.49192 0.0
H1064 H 0.79258 0.85702 0.47362 0.0
H1065 H 0.79036 0.80995 0.48431 0.0
H1066 H 0.83325 0.83861 0.48678 0.0
H1067 H 0.85658 0.86724 0.55933 0.0
H1068 H 0.84705 0.80049 0.56972 0.0
H1069 H 0.77687 0.77847 0.5193 0.0
C1070 C 0.79607 0.93134 0.4982 0.0
C1071 C 0.81522 0.96477 0.50464 0.0
C1072 C 0.84125 0.96266 0.52021 0.0
C1073 C 0.84592 0.92867 0.53041 0.0
C1074 C 0.82547 0.89663 0.5244 0.0
C1075 C 0.80241 0.89684 0.50821 0.0
C1076 C 0.78515 0.85724 0.50485 0.0
C1077 C 0.74096 0.85868 0.50442 0.0
C1078 C 0.80128 0.83966 0.48628 0.0
C1079 C 0.80014 0.8359 0.52242 0.0
C1080 C 0.82325 0.85963 0.53339 0.0
C1081 C 0.83971 0.84782 0.55059 0.0
C1082 C 0.83418 0.80996 0.55635 0.0
C1083 C 0.81244 0.78432 0.54498 0.0
C1084 C 0.7943 0.79752 0.528 0.0
H1085 H 0.32062 0.49501 0.26114 0.0
H1086 H 0.31968 0.60135 0.22878 0.0
H1087 H 0.38877 0.61018 0.236 0.0
H1088 H 0.36976 0.53283 0.29897 0.0
H1089 H 0.39622 0.49007 0.30503 0.0
H1090 H 0.35055 0.48624 0.29308 0.0
H1091 H 0.38185 0.44678 0.26575 0.0
H1092 H 0.42771 0.45014 0.27776 0.0
H1093 H 0.42297 0.46583 0.2532 0.0
H1094 H 0.45373 0.61373 0.25151 0.0
H1095 H 0.50877 0.61222 0.27392 0.0
H1096 H 0.46542 0.50629 0.29847 0.0
C1097 C 0.33516 0.51967 0.25506 0.0
C1098 C 0.31457 0.54754 0.24433 0.0
C1099 C 0.33479 0.57928 0.23671 0.0
C1100 C 0.37403 0.58465 0.24089 0.0
C1101 C 0.39259 0.55806 0.25271 0.0
C1102 C 0.37377 0.52605 0.25963 0.0
C1103 C 0.39792 0.50499 0.27441 0.0
C1104 C 0.3774 0.50348 0.29402 0.0
C1105 C 0.40824 0.46453 0.26735 0.0
C1106 C 0.43305 0.53072 0.27509 0.0
C1107 C 0.42968 0.56077 0.26223 0.0
C1108 C 0.45701 0.58997 0.26137 0.0
C1109 C 0.48817 0.58891 0.27419 0.0
C1110 C 0.49168 0.55902 0.28783 0.0
C1111 C 0.4641 0.52911 0.28793 0.0
H1112 H 0.84722 0.43554 0.53627 0.0
H1113 H 0.72936 0.47102 0.52732 0.0
H1114 H 0.71327 0.40707 0.51476 0.0
H1115 H 0.86529 0.38568 0.49962 0.0
H1116 H 0.8885 0.34384 0.50954 0.0
H1117 H 0.8885 0.38789 0.52281 0.0
H1118 H 0.85674 0.35446 0.55191 0.0
H1119 H 0.85736 0.3096 0.53894 0.0
H1120 H 0.81289 0.32772 0.54858 0.0
H1121 H 0.71536 0.34745 0.49468 0.0
H1122 H 0.73274 0.29272 0.47387 0.0
H1123 H 0.84735 0.29219 0.49843 0.0
C1124 C 0.8175 0.4288 0.53306 0.0
C1125 C 0.78953 0.45808 0.53288 0.0
C1126 C 0.75104 0.44871 0.5279 0.0
C1127 C 0.74167 0.41248 0.52056 0.0
C1128 C 0.77054 0.38495 0.51944 0.0
C1129 C 0.80715 0.3919 0.52656 0.0
C1130 C 0.83309 0.35776 0.52279 0.0
C1131 C 0.87104 0.36955 0.51309 0.0
C1132 C 0.84049 0.3361 0.54167 0.0
C1133 C 0.8076 0.334 0.50965 0.0
C1134 C 0.771 0.34924 0.5086 0.0
C1135 C 0.74342 0.33428 0.49603 0.0
C1136 C 0.75354 0.30309 0.48424 0.0
C1137 C 0.79121 0.28763 0.48475 0.0
C1138 C 0.81815 0.30292 0.49797 0.0
H1139 H 0.32923 0.99428 0.77587 0.0
H1140 H 0.30324 0.11536 0.78084 0.0
H1141 H 0.36911 0.13126 0.77017 0.0
H1142 H 0.43513 1.00433 0.79045 0.0
H1143 H 0.4489 0.96685 0.77401 0.0
H1144 H 0.40256 0.96524 0.78562 0.0
H1145 H 0.36984 0.96021 0.75229 0.0
H1146 H 0.41577 0.96272 0.74056 0.0
H1147 H 0.37868 0.99684 0.73454 0.0
H1148 H 0.43343 0.13407 0.75495 0.0
H1149 H 0.49346 0.12402 0.73694 0.0
H1150 H 0.47764 1.00083 0.74072 0.0
C1151 C 0.33818 0.02404 0.77553 0.0
C1152 C 0.31175 0.05369 0.77961 0.0
C1153 C 0.32361 0.09238 0.77838 0.0
C1154 C 0.36081 0.10161 0.7722 0.0
C1155 C 0.38584 0.07175 0.76764 0.0
C1156 C 0.37533 0.0337 0.76956 0.0
C1157 C 0.40673 1.00723 0.76233 0.0
C1158 C 0.42437 0.98456 0.7791 0.0
C1159 C 0.39184 0.9802 0.74648 0.0
C1160 C 0.43512 0.03637 0.75463 0.0
C1161 C 0.423 0.07337 0.75842 0.0
C1162 C 0.44373 0.10526 0.75231 0.0
C1163 C 0.47789 0.09925 0.74215 0.0
C1164 C 0.49054 0.06168 0.7378 0.0
C1165 C 0.46887 0.02984 0.74415 0.0
H1166 H 0.67651 0.70801 0.99122 0.0
H1167 H 0.79675 0.73972 0.98636 0.0
H1168 H 0.81402 0.68754 1.00887 0.0
H1169 H 0.67734 0.67517 0.04192 0.0
H1170 H 0.64522 0.63599 0.03647 0.0
H1171 H 0.64215 0.6801 0.02303 0.0
H1172 H 0.65099 0.64244 0.99116 0.0
H1173 H 0.6536 0.5984 1.00443 0.0
H1174 H 0.69216 0.61151 0.98844 0.0
H1175 H 0.81866 0.62521 0.02704 0.0
H1176 H 0.81056 0.55801 0.03769 0.0
H1177 H 0.68737 0.56835 0.03122 0.0
C1178 C 0.70638 0.70488 0.99538 0.0
C1179 C 0.73522 0.72821 0.98728 0.0
C1180 C 0.77408 0.72261 0.99271 0.0
C1181 C 0.78413 0.69301 1.00547 0.0
C1182 C 0.75492 0.66974 1.0128 0.0
C1183 C 0.71682 0.67556 1.00794 0.0
C1184 C 0.6913 0.64395 0.01552 0.0
C1185 C 0.66228 0.65976 0.03011 0.0
C1186 C 0.67085 0.62284 0.99891 0.0
C1187 C 0.72096 0.61875 0.02515 0.0
C1188 C 0.75753 0.63423 0.02361 0.0
C1189 C 0.7901 0.61349 0.029 0.0
C1190 C 0.78528 0.57553 0.0353 0.0
C1191 C 0.74821 0.55885 0.03616 0.0
C1192 C 0.71569 0.58131 0.03181 0.0
H1193 H 0.05067 0.91703 0.24164 0.0
H1194 H 0.03418 0.03659 0.22668 0.0
H1195 H 0.08917 0.05423 0.24748 0.0
H1196 H 0.08789 0.93538 0.29264 0.0
H1197 H 0.12114 0.89595 0.29069 0.0
H1198 H 0.07531 0.89388 0.27852 0.0
H1199 H 0.11024 0.88161 0.24614 0.0
H1200 H 0.15576 0.88345 0.25827 0.0
H1201 H 0.14662 0.91498 0.23825 0.0
H1202 H 0.15173 0.05752 0.26545 0.0
H1203 H 0.21825 0.04584 0.27632 0.0
H1204 H 0.19583 0.92386 0.27854 0.0
C1205 C 0.05763 0.94712 0.24332 0.0
C1206 C 0.03754 0.97547 0.23276 0.0
C1207 C 0.04833 0.01442 0.23497 0.0
C1208 C 0.07967 0.02469 0.24676 0.0
C1209 C 0.09958 0.99579 0.25649 0.0
C1210 C 0.08875 0.95778 0.255 0.0
C1211 C 0.11753 0.93169 0.26492 0.0
C1212 C 0.09939 0.91311 0.28275 0.0
C1213 C 0.13348 0.90118 0.25106 0.0
C1214 C 0.14804 0.96048 0.27074 0.0
C1215 C 0.13633 0.99751 0.26651 0.0
C1216 C 0.1607 0.02878 0.26923 0.0
C1217 C 0.19837 0.02191 0.27557 0.0
C1218 C 0.21175 0.98403 0.27869 0.0
C1219 C 0.18583 0.9531 0.27695 0.0
H1220 H 0.26514 0.71082 0.55176 0.0
H1221 H 0.16974 0.76446 0.52182 0.0
H1222 H 0.16586 0.70857 0.5 0.0
H1223 H 0.30949 0.66056 0.51038 0.0
H1224 H 0.31992 0.61883 0.52477 0.0
H1225 H 0.31957 0.6657 0.53567 0.0
H1226 H 0.26976 0.64215 0.56068 0.0
H1227 H 0.26991 0.59537 0.54986 0.0
H1228 H 0.2253 0.62109 0.55246 0.0
H1229 H 0.16454 0.64171 0.48571 0.0
H1230 H 0.16762 0.57142 0.48009 0.0
H1231 H 0.26736 0.5652 0.51751 0.0
C1232 C 0.24429 0.71161 0.54019 0.0
C1233 C 0.21791 0.74217 0.53836 0.0
C1234 C 0.19037 0.74141 0.52338 0.0
C1235 C 0.18801 0.70984 0.51091 0.0
C1236 C 0.21355 0.67948 0.51357 0.0
C1237 C 0.24145 0.68038 0.52777 0.0
C1238 C 0.26242 0.6426 0.52929 0.0
C1239 C 0.3054 0.64723 0.52474 0.0
C1240 C 0.25647 0.62426 0.54924 0.0
C1241 C 0.24175 0.62021 0.51383 0.0
C1242 C 0.21348 0.6416 0.50495 0.0
C1243 C 0.18721 0.62487 0.49222 0.0
C1244 C 0.18916 0.58501 0.48905 0.0
C1245 C 0.21722 0.56272 0.4986 0.0
C1246 C 0.24502 0.58123 0.51022 0.0
H1247 H 0.69812 0.02601 0.2625 0.0
H1248 H 0.70238 0.91436 0.23505 0.0
H1249 H 0.63251 0.90694 0.2402 0.0
H1250 H 0.64565 0.99589 0.29993 0.0
H1251 H 0.61808 0.03914 0.30332 0.0
H1252 H 0.66469 0.04152 0.29233 0.0
H1253 H 0.6358 0.07486 0.26244 0.0
H1254 H 0.58892 0.07334 0.27346 0.0
H1255 H 0.59599 0.05297 0.24992 0.0
H1256 H 0.56673 0.90552 0.25403 0.0
H1257 H 0.51067 0.90926 0.27557 0.0
H1258 H 0.5507 0.01956 0.29656 0.0
C1259 C 0.68418 1.00036 0.25711 0.0
C1260 C 0.70574 0.9706 0.24847 0.0
C1261 C 0.68643 0.93771 0.24148 0.0
C1262 C 0.64674 0.93324 0.24443 0.0
C1263 C 0.62692 0.96193 0.2543 0.0
C1264 C 0.64502 0.99502 0.26045 0.0
C1265 C 0.61937 0.01845 0.27353 0.0
C1266 C 0.63805 0.02403 0.29345 0.0
C1267 C 0.60942 0.0572 0.26428 0.0
C1268 C 0.58447 0.99248 0.27452 0.0
C1269 C 0.58906 0.96056 0.26293 0.0
C1270 C 0.56237 0.93076 0.26282 0.0
C1271 C 0.53064 0.9331 0.27515 0.0
C1272 C 0.52599 0.96483 0.28761 0.0
C1273 C 0.55284 0.99534 0.28688 0.0
H1274 H 0.34124 0.29493 0.02696 0.0
H1275 H 0.23095 0.29262 0.05592 0.0
H1276 H 0.21032 0.34921 0.0374 0.0
H1277 H 0.35869 0.38719 0.0278 0.0
H1278 H 0.37798 0.39332 1.00396 0.0
H1279 H 0.38032 0.34727 0.01535 0.0
H1280 H 0.34441 0.31661 0.98652 0.0
H1281 H 0.3421 0.3629 0.97496 0.0
H1282 H 0.2987 0.33586 0.97905 0.0
H1283 H 0.20585 0.41133 0.02061 0.0
H1284 H 0.21949 0.47653 1.00901 0.0
H1285 H 0.33364 0.44123 0.9916 0.0
C1286 C 0.31215 0.3054 0.02876 0.0
C1287 C 0.28749 0.28895 0.04265 0.0
C1288 C 0.24998 0.304 0.04501 0.0
C1289 C 0.238 0.33623 0.03453 0.0
C1290 C 0.26345 0.35253 0.02138 0.0
C1291 C 0.29958 0.33732 0.01822 0.0
C1292 C 0.32285 0.36281 1.00488 0.0
C1293 C 0.36225 0.37329 1.01355 0.0
C1294 C 0.32731 0.34339 0.98519 0.0
C1295 C 0.29638 0.39724 1.00333 0.0
C1296 C 0.26133 0.38956 1.01196 0.0
C1297 C 0.2328 0.41734 1.01347 0.0
C1298 C 0.2408 0.4543 1.00679 0.0
C1299 C 0.2775 0.46371 0.99932 0.0
C1300 C 0.30511 0.43446 0.99682 0.0
H1301 H 0.95858 0.10912 0.79157 0.0
H1302 H 0.99827 0.99133 0.78846 0.0
H1303 H 0.94473 0.97602 0.76621 0.0
H1304 H 0.86242 0.08429 0.79513 0.0
H1305 H 0.84542 0.12594 0.78237 0.0
H1306 H 0.89017 0.12798 0.79525 0.0
H1307 H 0.92502 0.14927 0.76408 0.0
H1308 H 0.88034 0.14681 0.75096 0.0
H1309 H 0.92153 0.11994 0.74282 0.0
H1310 H 0.88181 0.97226 0.74791 0.0
H1311 H 0.8141 0.97929 0.73735 0.0
H1312 H 0.81697 0.09946 0.75259 0.0
C1313 C 0.95694 0.08036 0.78574 0.0
C1314 C 0.98306 0.05164 0.79141 0.0
C1315 C 0.97892 0.01399 0.78401 0.0
C1316 C 0.94864 1.00506 0.77136 0.0
C1317 C 0.92293 0.03412 0.76632 0.0
C1318 C 0.92681 0.07093 0.77342 0.0
C1319 C 0.89297 0.09585 0.76813 0.0
C1320 C 0.87149 0.10928 0.78629 0.0
C1321 C 0.90574 0.12999 0.75575 0.0
C1322 C 0.8693 0.06758 0.75668 0.0
C1323 C 0.887 0.03206 0.75573 0.0
C1324 C 0.86826 1.0002 0.74801 0.0
C1325 C 0.83004 1.00448 0.7418 0.0
C1326 C 0.81126 0.04034 0.7433 0.0
C1327 C 0.83158 0.07241 0.75024 0.0
H1328 H 0.26429 0.0187 0.98246 0.0
H1329 H 0.27488 0.13807 0.99984 0.0
H1330 H 0.25897 0.15747 0.96653 0.0
H1331 H 0.29686 0.02435 0.93468 0.0
H1332 H 0.26083 0.99183 0.92565 0.0
H1333 H 0.27781 0.98723 0.94997 0.0
H1334 H 0.20879 0.99253 0.96298 0.0
H1335 H 0.1903 0.99677 0.93897 0.0
H1336 H 0.17949 0.03317 0.95647 0.0
H1337 H 0.23917 0.16281 0.93074 0.0
H1338 H 0.20904 0.15418 0.8986 0.0
H1339 H 0.20384 0.03159 0.90805 0.0
C1340 C 0.2626 0.0491 0.97986 0.0
C1341 C 0.27019 0.07666 0.99436 0.0
C1342 C 0.26931 0.11606 0.98925 0.0
C1343 C 0.26026 0.12739 0.9703 0.0
C1344 C 0.2519 0.09904 0.95671 0.0
C1345 C 0.25246 0.06072 0.9615 0.0
C1346 C 0.23853 0.03544 0.94532 0.0
C1347 C 0.27042 1.00811 0.93851 0.0
C1348 C 0.20214 0.01319 0.95128 0.0
C1349 C 0.22978 0.06554 0.93042 0.0
C1350 C 0.23852 0.10205 0.93696 0.0
C1351 C 0.2323 0.13437 0.92554 0.0
C1352 C 0.21552 0.12927 0.9073 0.0
C1353 C 0.20462 0.09229 0.90101 0.0
C1354 C 0.21243 0.06011 0.91256 0.0
H1355 H 0.67342 0.40748 0.16967 0.0
H1356 H 0.69998 0.50483 0.13319 0.0
H1357 H 0.7062 0.54598 0.16209 0.0
H1358 H 0.61737 0.45863 0.20484 0.0
H1359 H 0.63558 0.43092 0.22472 0.0
H1360 H 0.6323 0.40965 0.20117 0.0
H1361 H 0.70506 0.39285 0.20219 0.0
H1362 H 0.70833 0.41347 0.22583 0.0
H1363 H 0.73956 0.4303 0.20699 0.0
H1364 H 0.71219 0.57546 0.19541 0.0
H1365 H 0.71959 0.58994 0.23009 0.0
H1366 H 0.68776 0.4733 0.24415 0.0
C1367 C 0.68012 0.43756 0.16767 0.0
C1368 C 0.68565 0.45308 0.14914 0.0
C1369 C 0.69491 0.49248 0.14723 0.0
C1370 C 0.69863 0.51601 0.16356 0.0
C1371 C 0.69269 0.4997 0.18162 0.0
C1372 C 0.68372 0.46133 0.18371 0.0
C1373 C 0.67987 0.4503 0.20463 0.0
C1374 C 0.63884 0.43656 0.2091 0.0
C1375 C 0.71 0.41995 0.21023 0.0
C1376 C 0.68811 0.48841 0.2141 0.0
C1377 C 0.6954 0.51665 0.20062 0.0
C1378 C 0.70577 0.55375 0.20604 0.0
C1379 C 0.70948 0.56186 0.22571 0.0
C1380 C 0.70266 0.53307 0.23962 0.0
C1381 C 0.69144 0.49611 0.23375 0.0
H1382 H 0.3364 0.98759 0.40894 0.0
H1383 H 0.2978 0.8728 0.3951 0.0
H1384 H 0.26659 0.86804 0.42716 0.0
H1385 H 0.36088 0.97357 0.45577 0.0
H1386 H 0.34324 0.01874 0.46476 0.0
H1387 H 0.35789 0.01466 0.44011 0.0
H1388 H 0.29108 0.0387 0.42889 0.0
H1389 H 0.27615 0.04319 0.45354 0.0
H1390 H 0.24825 0.01458 0.4371 0.0
H1391 H 0.24892 0.87337 0.46339 0.0
H1392 H 0.23935 0.89061 0.49724 0.0
H1393 H 0.28517 1.00445 0.48455 0.0
C1394 C 0.32044 0.96184 0.41247 0.0
C1395 C 0.31943 0.93048 0.39965 0.0
C1396 C 0.29852 0.8972 0.40471 0.0
C1397 C 0.28095 0.89424 0.42292 0.0
C1398 C 0.28385 0.92521 0.43562 0.0
C1399 C 0.3021 0.95884 0.43028 0.0
C1400 C 0.30223 0.98776 0.44647 0.0
C1401 C 0.34351 0.99932 0.4521 0.0
C1402 C 0.27798 0.02313 0.44118 0.0
C1403 C 0.28323 0.96444 0.46212 0.0
C1404 C 0.27261 0.92857 0.45577 0.0
C1405 C 0.25676 0.90173 0.46838 0.0
C1406 C 0.25165 0.91195 0.48786 0.0
C1407 C 0.26221 0.94896 0.4948 0.0
C1408 C 0.27759 0.97532 0.48115 0.0
H1409 H 0.7864 0.59104 0.66004 0.0
H1410 H 0.89456 0.54254 0.64111 0.0
H1411 H 0.90091 0.5085 0.6724 0.0
H1412 H 0.80792 0.6121 0.70589 0.0
H1413 H 0.76311 0.59693 0.71647 0.0
H1414 H 0.76426 0.61198 0.69182 0.0
H1415 H 0.73641 0.54559 0.68024 0.0
H1416 H 0.73177 0.53376 0.70532 0.0
H1417 H 0.75738 0.50228 0.68926 0.0
H1418 H 0.89563 0.48271 0.70769 0.0
H1419 H 0.87862 0.4674 0.74139 0.0
H1420 H 0.77809 0.54071 0.73632 0.0
C1421 C 0.81126 0.57288 0.66236 0.0
C1422 C 0.84027 0.56971 0.64831 0.0
C1423 C 0.872 0.54522 0.65173 0.0
C1424 C 0.87582 0.52591 0.66946 0.0
C1425 C 0.84725 0.53089 0.68336 0.0
C1426 C 0.8152 0.55324 0.67972 0.0
C1427 C 0.78875 0.55491 0.69686 0.0
C1428 C 0.78059 0.59645 0.70312 0.0
C1429 C 0.75132 0.53285 0.69271 0.0
C1430 C 0.81259 0.53351 0.71138 0.0
C1431 C 0.84532 0.51808 0.70331 0.0
C1432 C 0.87004 0.49488 0.71407 0.0
C1433 C 0.86037 0.48671 0.73334 0.0
C1434 C 0.82669 0.50243 0.74177 0.0
C1435 C 0.80346 0.52703 0.73053 0.0
H1436 H 0.72348 0.9711 0.05099 0.0
H1437 H 0.82011 0.91351 0.02451 0.0
H1438 H 0.84731 0.90015 0.05686 0.0
H1439 H 0.77339 0.01889 0.0862 0.0
H1440 H 0.73778 0.01367 0.10482 0.0
H1441 H 0.72332 0.01323 0.08001 0.0
H1442 H 0.69058 0.94728 0.08462 0.0
H1443 H 0.70446 0.9475 0.10959 0.0
H1444 H 0.71783 0.90786 0.09437 0.0
H1445 H 0.86677 0.89905 0.09234 0.0
H1446 H 0.87684 0.90952 0.12713 0.0
H1447 H 0.76801 0.96999 0.1302 0.0
C1448 C 0.74981 0.95463 0.05206 0.0
C1449 C 0.76953 0.94281 0.03527 0.0
C1450 C 0.80421 0.92203 0.03718 0.0
C1451 C 0.81992 0.91462 0.05551 0.0
C1452 C 0.80038 0.92785 0.07178 0.0
C1453 C 0.76577 0.94704 0.07017 0.0
C1454 C 0.75143 0.96029 0.08967 0.0
C1455 C 0.74621 1.00412 0.09019 0.0
C1456 C 0.71384 0.9395 0.09487 0.0
C1457 C 0.78433 0.94737 0.10251 0.0
C1458 C 0.81187 0.92796 0.09199 0.0
C1459 C 0.84518 0.91388 0.1007 0.0
C1460 C 0.85064 0.91994 0.12054 0.0
C1461 C 0.82332 0.94054 0.13158 0.0
C1462 C 0.78955 0.95409 0.1223 0.0
H1463 H 0.28632 0.5529 0.7857 0.0
H1464 H 0.36701 0.45812 0.78593 0.0
H1465 H 0.3824 0.47185 0.82011 0.0
H1466 H 0.33604 0.61712 0.81573 0.0
H1467 H 0.29311 0.63343 0.82771 0.0
H1468 H 0.29032 0.61594 0.80345 0.0
H1469 H 0.23879 0.56563 0.81388 0.0
H1470 H 0.24161 0.58421 0.83796 0.0
H1471 H 0.24934 0.53381 0.83359 0.0
H1472 H 0.38684 0.49621 0.85512 0.0
H1473 H 0.3852 0.53298 0.88575 0.0
H1474 H 0.29944 0.60896 0.86139 0.0
C1475 C 0.30748 0.53511 0.79286 0.0
C1476 C 0.32561 0.50456 0.78316 0.0
C1477 C 0.35325 0.4821 0.79302 0.0
C1478 C 0.36167 0.48931 0.81249 0.0
C1479 C 0.34188 0.51878 0.82181 0.0
C1480 C 0.31546 0.54131 0.81219 0.0
C1481 C 0.29755 0.57096 0.82514 0.0
C1482 C 0.30472 0.61177 0.81755 0.0
C1483 C 0.25428 0.56314 0.8278 0.0
C1484 C 0.31959 0.56326 0.8434 0.0
C1485 C 0.34435 0.53247 0.84149 0.0
C1486 C 0.3677 0.52047 0.85669 0.0
C1487 C 0.3666 0.5414 0.874 0.0
C1488 C 0.34294 0.57423 0.87565 0.0
C1489 C 0.3185 0.58447 0.86033 0.0
H1490 H 0.65248 0.06503 0.60841 0.0
H1491 H 0.74919 0.11307 0.63973 0.0
H1492 H 0.78657 0.11592 0.60939 0.0
H1493 H 0.70849 1.00579 0.57675 0.0
H1494 H 0.67602 0.0128 0.55686 0.0
H1495 H 0.6582 0.0148 0.58109 0.0
H1496 H 0.6304 0.08255 0.5743 0.0
H1497 H 0.64893 0.08116 0.55017 0.0
H1498 H 0.66199 0.12004 0.56597 0.0
H1499 H 0.81235 0.11441 0.57488 0.0
H1500 H 0.82657 0.10216 0.54055 0.0
H1501 H 0.71229 0.05498 0.53285 0.0
C1502 C 0.68145 0.07641 0.60898 0.0
C1503 C 0.69769 0.08955 0.62639 0.0
C1504 C 0.73601 0.10337 0.62649 0.0
C1505 C 0.75739 0.1051 0.60934 0.0
C1506 C 0.73999 0.09271 0.59233 0.0
C1507 C 0.70305 0.07812 0.59216 0.0
C1508 C 0.69094 0.06562 0.57228 0.0
C1509 C 0.68296 0.02218 0.57172 0.0
C1510 C 0.65599 0.08873 0.56527 0.0
C1511 C 0.72664 0.07584 0.56107 0.0
C1512 C 0.75467 0.09158 0.57281 0.0
C1513 C 0.79046 0.10242 0.56558 0.0
C1514 C 0.79809 0.09592 0.54602 0.0
C1515 C 0.77015 0.07854 0.53401 0.0
C1516 C 0.73378 0.06915 0.54163 0.0
H1517 H 0.22203 0.41436 0.35969 0.0
H1518 H 0.14202 0.49341 0.38623 0.0
H1519 H 0.13993 0.53142 0.35597 0.0
H1520 H 0.27401 0.48899 0.3322 0.0
H1521 H 0.28272 0.45643 0.31259 0.0
H1522 H 0.27931 0.43839 0.33678 0.0
H1523 H 0.2257 0.39147 0.32572 0.0
H1524 H 0.22818 0.41002 0.30166 0.0
H1525 H 0.18301 0.41023 0.31436 0.0
H1526 H 0.14413 0.5578 0.32104 0.0
H1527 H 0.15979 0.57336 0.28705 0.0
H1528 H 0.23556 0.4748 0.28484 0.0
C1529 C 0.20408 0.43974 0.35918 0.0
C1530 C 0.18145 0.45056 0.37506 0.0
C1531 C 0.15925 0.48452 0.37408 0.0
C1532 C 0.15789 0.50616 0.35697 0.0
C1533 C 0.17958 0.49376 0.34125 0.0
C1534 C 0.20297 0.46178 0.34249 0.0
C1535 C 0.22392 0.45422 0.32392 0.0
C1536 C 0.26756 0.45985 0.32653 0.0
C1537 C 0.21461 0.41411 0.31595 0.0
C1538 C 0.20697 0.48544 0.31155 0.0
C1539 C 0.18197 0.50857 0.32171 0.0
C1540 C 0.16372 0.53981 0.31301 0.0
C1541 C 0.1723 0.54816 0.29365 0.0
C1542 C 0.19868 0.52517 0.2833 0.0
C1543 C 0.21522 0.49291 0.29236 0.0
H1544 H 0.7339 0.63734 0.40382 0.0
H1545 H 0.66073 0.53679 0.39948 0.0
H1546 H 0.68036 0.51682 0.43193 0.0
H1547 H 0.81267 0.5888 0.43146 0.0
H1548 H 0.82225 0.63054 0.44601 0.0
H1549 H 0.80433 0.63612 0.42187 0.0
H1550 H 0.74785 0.67676 0.43511 0.0
H1551 H 0.76507 0.67024 0.45933 0.0
H1552 H 0.71665 0.65648 0.45309 0.0
H1553 H 0.69485 0.51564 0.46593 0.0
H1554 H 0.72389 0.51679 0.49779 0.0
H1555 H 0.79925 0.61013 0.48049 0.0
C1556 C 0.72299 0.61066 0.40961 0.0
C1557 C 0.69561 0.58859 0.39931 0.0
C1558 C 0.6815 0.55406 0.40726 0.0
C1559 C 0.69227 0.54265 0.42569 0.0
C1560 C 0.71754 0.56591 0.43592 0.0
C1561 C 0.73411 0.59829 0.42809 0.0
C1562 C 0.76111 0.61717 0.44261 0.0
C1563 C 0.80257 0.61819 0.43503 0.0
C1564 C 0.74683 0.65757 0.44784 0.0
C1565 C 0.75707 0.59003 0.45966 0.0
C1566 C 0.73033 0.56188 0.45546 0.0
C1567 C 0.71727 0.53624 0.46914 0.0
C1568 C 0.73397 0.53732 0.48726 0.0
C1569 C 0.76555 0.56192 0.49135 0.0
C1570 C 0.77612 0.59011 0.47764 0.0
H1571 H 0.216 0.01581 0.64944 0.0
H1572 H 0.1555 0.90727 0.65352 0.0
H1573 H 0.14876 0.91627 0.68854 0.0
H1574 H 0.2693 1.00892 0.69176 0.0
H1575 H 0.26479 0.05875 0.6983 0.0
H1576 H 0.26228 0.04485 0.67346 0.0
H1577 H 0.19589 0.07827 0.67041 0.0
H1578 H 0.19814 0.09205 0.69535 0.0
H1579 H 0.15759 0.06503 0.68652 0.0
H1580 H 0.15326 0.93479 0.72363 0.0
H1581 H 0.1691 0.96175 0.75572 0.0
H1582 H 0.22432 0.05876 0.72837 0.0
C1583 C 0.20068 0.99434 0.65766 0.0
C1584 C 0.18582 0.96112 0.64873 0.0
C1585 C 0.16639 0.93336 0.66 0.0
C1586 C 0.16256 0.93813 0.67992 0.0
C1587 C 0.17764 0.97115 0.68831 0.0
C1588 C 0.19597 0.99898 0.6775 0.0
C1589 C 0.21042 0.03138 0.69005 0.0
C1590 C 0.25429 0.03622 0.68828 0.0
C1591 C 0.18925 0.06891 0.6853 0.0
C1592 C 0.199 0.01659 0.70966 0.0
C1593 C 0.17962 0.98207 0.7084 0.0
C1594 C 0.1678 0.96215 0.72478 0.0
C1595 C 0.17663 0.97767 0.74291 0.0
C1596 C 0.19732 0.01242 0.74437 0.0
C1597 C 0.20792 0.03237 0.72754 0.0
H1598 H 0.78118 0.40944 0.99199 0.0
H1599 H 0.7021 0.50302 0.98127 0.0
H1600 H 0.71489 0.49845 0.94651 0.0
H1601 H 0.85051 0.43591 0.96085 0.0
H1602 H 0.86296 0.38893 0.95198 0.0
H1603 H 0.84227 0.39402 0.97548 0.0
H1604 H 0.78715 0.34721 0.96644 0.0
H1605 H 0.80805 0.34126 0.94292 0.0
H1606 H 0.7587 0.35632 0.94526 0.0
H1607 H 0.74279 0.48959 0.91359 0.0
H1608 H 0.78234 0.47551 0.88495 0.0
H1609 H 0.84445 0.38887 0.91712 0.0
C1610 C 0.76538 0.42771 0.98219 0.0
C1611 C 0.74044 0.45628 0.98919 0.0
C1612 C 0.72107 0.48067 0.97607 0.0
C1613 C 0.72818 0.47833 0.95632 0.0
C1614 C 0.75428 0.451 0.94986 0.0
C1615 C 0.77209 0.42566 0.96234 0.0
C1616 C 0.80111 0.40105 0.95184 0.0
C1617 C 0.8416 0.40528 0.96056 0.0
C1618 C 0.78798 0.35895 0.95161 0.0
C1619 C 0.79881 0.4183 0.93191 0.0
C1620 C 0.77085 0.44635 0.93091 0.0
C1621 C 0.76424 0.46713 0.91411 0.0
C1622 C 0.7868 0.45892 0.8979 0.0
C1623 C 0.81619 0.43085 0.89879 0.0
C1624 C 0.82196 0.41023 0.916 0.0
H1625 H 0.33428 0.96196 0.22212 0.0
H1626 H 0.31665 0.06372 0.25683 0.0
H1627 H 0.31928 0.10385 0.22787 0.0
H1628 H 0.40374 1.01228 0.18806 0.0
H1629 H 0.38736 0.98507 0.1676 0.0
H1630 H 0.38654 0.96392 0.19123 0.0
H1631 H 0.31418 0.94936 0.18699 0.0
H1632 H 0.3144 0.97131 0.16358 0.0
H1633 H 0.28135 0.98796 0.18169 0.0
H1634 H 0.31487 0.13194 0.19635 0.0
H1635 H 0.31916 0.15165 0.16278 0.0
H1636 H 0.34542 0.03444 0.14602 0.0
C1637 C 0.33279 0.99285 0.22358 0.0
C1638 C 0.32614 1.01003 0.24178 0.0
C1639 C 0.32291 0.05031 0.24314 0.0
C1640 C 0.32375 0.07323 0.22673 0.0
C1641 C 0.32892 0.05562 0.20899 0.0
C1642 C 0.33493 0.01666 0.20719 0.0
C1643 C 0.34108 1.00618 0.18609 0.0
C1644 C 0.38212 0.99095 0.18306 0.0
C1645 C 0.31093 0.97698 0.17919 0.0
C1646 C 0.33575 0.04522 0.17642 0.0
C1647 C 0.3285 0.07287 0.19017 0.0
C1648 C 0.32164 0.11089 0.18545 0.0
C1649 C 0.32423 0.12179 0.16625 0.0
C1650 C 0.33361 0.09499 0.15171 0.0
C1651 C 0.3385 0.05573 0.1568 0.0
H1652 H 0.23228 0.40622 0.54355 0.0
H1653 H 0.3027 0.50236 0.52527 0.0
H1654 H 0.33205 0.50598 0.55724 0.0
H1655 H 0.21631 0.4304 0.59141 0.0
H1656 H 0.22533 0.38396 0.60187 0.0
H1657 H 0.20875 0.3875 0.57741 0.0
H1658 H 0.26767 0.34877 0.56546 0.0
H1659 H 0.28377 0.34402 0.58997 0.0
H1660 H 0.31537 0.36418 0.57213 0.0
H1661 H 0.34711 0.50582 0.59152 0.0
H1662 H 0.36571 0.48775 0.62448 0.0
H1663 H 0.29448 0.3859 0.62072 0.0
C1664 C 0.25493 0.42692 0.54612 0.0
C1665 C 0.26468 0.45453 0.53207 0.0
C1666 C 0.2946 0.4812 0.53593 0.0
C1667 C 0.31109 0.48387 0.55411 0.0
C1668 C 0.29911 0.45815 0.56805 0.0
C1669 C 0.27355 0.42876 0.56411 0.0
C1670 C 0.26931 0.40278 0.58152 0.0
C1671 C 0.22741 0.40109 0.58845 0.0
C1672 C 0.28495 0.36254 0.577 0.0
C1673 C 0.29495 0.42341 0.59593 0.0
C1674 C 0.3111 0.45575 0.5878 0.0
C1675 C 0.33537 0.48014 0.59799 0.0
C1676 C 0.34546 0.4699 0.61671 0.0
C1677 C 0.33141 0.43566 0.62497 0.0
C1678 C 0.30517 0.41245 0.61468 0.0
H1679 H 0.86162 0.03592 0.37924 0.0
H1680 H 0.79806 0.14136 0.36933 0.0
H1681 H 0.7874 0.12284 0.33586 0.0
H1682 H 0.90789 0.03158 0.3331 0.0
H1683 H 0.90292 0.98066 0.32938 0.0
H1684 H 0.90558 0.99966 0.35344 0.0
H1685 H 0.84094 0.96713 0.362 0.0
H1686 H 0.83869 0.94734 0.33811 0.0
H1687 H 0.79931 0.9757 0.34712 0.0
H1688 H 0.79057 0.1001 0.30328 0.0
H1689 H 0.79058 0.06369 0.27315 0.0
H1690 H 0.84498 0.96763 0.30201 0.0
C1691 C 0.84503 0.05468 0.37003 0.0
C1692 C 0.83145 0.09078 0.37686 0.0
C1693 C 0.80967 0.11428 0.36437 0.0
C1694 C 0.80342 0.10402 0.34528 0.0
C1695 C 0.81887 0.0698 0.33863 0.0
C1696 C 0.83811 0.04459 0.35055 0.0
C1697 C 0.85027 1.00906 0.33907 0.0
C1698 C 0.89429 1.00501 0.33874 0.0
C1699 C 0.83114 0.97265 0.34706 0.0
C1700 C 0.83489 0.0189 0.31908 0.0
C1701 C 0.81794 0.05469 0.31934 0.0
C1702 C 0.80323 0.07178 0.30287 0.0
C1703 C 0.80391 0.05109 0.28574 0.0
C1704 C 0.81803 0.01306 0.28514 0.0
C1705 C 0.83462 0.9969 0.30197 0.0
H1706 H 0.32042 0.55199 0.05205 0.0
H1707 H 0.23088 0.61642 0.02326 0.0
H1708 H 0.20258 0.63326 0.05481 0.0
H1709 H 0.26301 0.50966 0.08557 0.0
H1710 H 0.29677 0.51145 0.10524 0.0
H1711 H 0.31402 0.51038 0.08092 0.0
H1712 H 0.35242 0.57317 0.08651 0.0
H1713 H 0.33599 0.57409 0.11106 0.0
H1714 H 0.328 0.61491 0.09569 0.0
H1715 H 0.18019 0.63639 0.08923 0.0
H1716 H 0.1664 0.62766 0.12373 0.0
H1717 H 0.26951 0.55863 0.12973 0.0
C1718 C 0.29583 0.57105 0.05249 0.0
C1719 C 0.27825 0.58378 0.03535 0.0
C1720 C 0.24535 0.6075 0.03631 0.0
C1721 C 0.22893 0.6168 0.05413 0.0
C1722 C 0.24608 0.60241 0.07078 0.0
C1723 C 0.27912 0.58044 0.0701 0.0
C1724 C 0.29023 0.56588 0.08982 0.0
C1725 C 0.29102 0.52173 0.09041 0.0
C1726 C 0.32897 0.58303 0.09614 0.0
C1727 C 0.25754 0.58189 0.10167 0.0
C1728 C 0.23271 0.60339 0.09049 0.0
C1729 C 0.19984 0.62025 0.09818 0.0
C1730 C 0.19235 0.61524 0.11781 0.0
C1731 C 0.21725 0.59299 0.12948 0.0
C1732 C 0.25023 0.57616 0.12123 0.0
H1733 H 0.71374 0.90695 0.85941 0.0
H1734 H 0.66018 1.00057 0.89045 0.0
H1735 H 0.65839 0.03888 0.86033 0.0
H1736 H 0.77361 0.96717 0.82939 0.0
H1737 H 0.76978 0.93507 0.80919 0.0
H1738 H 0.76699 0.91649 0.83327 0.0
H1739 H 0.70114 0.88525 0.82505 0.0
H1740 H 0.7034 0.90433 0.80106 0.0
H1741 H 0.66257 0.91485 0.81609 0.0
H1742 H 0.66101 0.06555 0.82565 0.0
H1743 H 0.67363 0.07989 0.79125 0.0
H1744 H 0.72516 0.96761 0.78442 0.0
C1745 C 0.7014 0.93545 0.85995 0.0
C1746 C 0.68638 0.95057 0.87717 0.0
C1747 C 0.6715 0.98836 0.87733 0.0
C1748 C 0.67032 1.01021 0.8603 0.0
C1749 C 0.68463 0.99392 0.84342 0.0
C1750 C 0.70046 0.95757 0.8433 0.0
C1751 C 0.71499 0.94653 0.82365 0.0
C1752 C 0.75894 0.94101 0.8239 0.0
C1753 C 0.69427 0.91062 0.81602 0.0
C1754 C 0.70379 0.98179 0.81245 0.0
C1755 C 0.68648 1.00905 0.82397 0.0
C1756 C 0.67444 0.04428 0.81654 0.0
C1757 C 0.68125 0.05203 0.79698 0.0
C1758 C 0.69993 0.02464 0.78523 0.0
C1759 C 0.71053 0.98892 0.79307 0.0
H1760 H 0.58093 0.31869 0.07011 0.0
H1761 H 0.62545 0.27401 0.12383 0.0
H1762 H 0.5644 0.23959 0.12932 0.0
H1763 H 0.4824 0.33207 0.08375 0.0
H1764 H 0.46216 0.31423 0.06162 0.0
H1765 H 0.50922 0.33586 0.06167 0.0
H1766 H 0.53756 0.27463 0.04619 0.0
H1767 H 0.49054 0.25277 0.04617 0.0
H1768 H 0.5303 0.22889 0.05769 0.0
H1769 H 0.50021 0.20918 0.12914 0.0
H1770 H 0.43397 0.18569 0.12375 0.0
H1771 H 0.42835 0.24947 0.07038 0.0
C1772 C 0.57747 0.30191 0.08308 0.0
C1773 C 0.6077 0.29924 0.09673 0.0
C1774 C 0.60262 0.27639 0.11329 0.0
C1775 C 0.56809 0.25674 0.1165 0.0
C1776 C 0.53896 0.25955 0.10283 0.0
C1777 C 0.54315 0.2813 0.08636 0.0
C1778 C 0.50739 0.27794 0.07377 0.0
C1779 C 0.48921 0.31739 0.07 0.0
C1780 C 0.51703 0.25735 0.05483 0.0
C1781 C 0.48181 0.25293 0.08636 0.0
C1782 C 0.5012 0.24192 0.1028 0.0
C1783 C 0.48463 0.21766 0.11637 0.0
C1784 C 0.44709 0.20439 0.11319 0.0
C1785 C 0.42619 0.21598 0.0968 0.0
C1786 C 0.44374 0.24057 0.08316 0.0
H1787 H 0.55717 0.69117 0.31809 0.0
H1788 H 0.54057 0.66018 0.37779 0.0
H1789 H 0.5113 0.72352 0.38404 0.0
H1790 H 0.57821 0.79174 0.3246 0.0
H1791 H 0.55047 0.8079 0.30425 0.0
H1792 H 0.5712 0.76054 0.30422 0.0
H1793 H 0.50417 0.73091 0.29801 0.0
H1794 H 0.48323 0.77819 0.2979 0.0
H1795 H 0.46501 0.74204 0.314 0.0
H1796 H 0.48585 0.79012 0.38445 0.0
H1797 H 0.46001 0.85509 0.37842 0.0
H1798 H 0.48783 0.84388 0.31802 0.0
C1799 C 0.54748 0.698 0.33247 0.0
C1800 C 0.55151 0.67096 0.3476 0.0
C1801 C 0.53785 0.68048 0.36609 0.0
C1802 C 0.52127 0.71643 0.36976 0.0
C1803 C 0.51772 0.74253 0.35469 0.0
C1804 C 0.5298 0.73371 0.33631 0.0
C1805 C 0.52051 0.76664 0.32261 0.0
C1806 C 0.5573 0.78265 0.31338 0.0
C1807 C 0.49151 0.75367 0.30722 0.0
C1808 C 0.50244 0.79563 0.33635 0.0
C1809 C 0.50132 0.7809 0.35477 0.0
C1810 C 0.48642 0.80193 0.37009 0.0
C1811 C 0.47194 0.83886 0.36657 0.0
C1812 C 0.47213 0.85455 0.34788 0.0
C1813 C 0.48756 0.8326 0.33251 0.0
H1814 H 0.1104 0.74578 0.58656 0.0
H1815 H 0.08058 0.86211 0.60357 0.0
H1816 H 1.01265 0.84483 0.60396 0.0
H1817 H 0.02466 0.73278 0.55558 0.0
H1818 H 0.01809 0.68304 0.56182 0.0
H1819 H 0.06559 0.70387 0.56212 0.0
H1820 H 0.07429 0.68265 0.59743 0.0
H1821 H 0.02684 0.6618 0.59727 0.0
H1822 H 0.03938 0.69713 0.61514 0.0
H1823 H 0.94898 0.81729 0.60358 0.0
H1824 H 0.89 0.77946 0.60274 0.0
H1825 H 0.9557 0.67862 0.58598 0.0
C1826 C 0.08951 0.76742 0.59047 0.0
C1827 C 0.10129 0.80543 0.59506 0.0
C1828 C 0.0728 0.83293 0.59987 0.0
C1829 C 0.03385 0.82344 0.60016 0.0
C1830 C 0.02317 0.7862 0.59556 0.0
C1831 C 0.04978 0.75844 0.59074 0.0
C1832 C 0.02927 0.72063 0.58641 0.0
C1833 C 0.03473 0.70941 0.56522 0.0
C1834 C 0.04329 0.68866 0.59988 0.0
C1835 C 0.98744 0.73144 0.59047 0.0
C1836 C 0.98506 0.7697 0.5954 0.0
C1837 C 0.95031 0.78722 0.59978 0.0
C1838 C 0.91678 0.7652 0.59931 0.0
C1839 C 0.91769 0.72565 0.59453 0.0
C1840 C 0.95379 0.7086 0.58992 0.0
H1841 H 1.0009 0.16593 0.83771 0.0
H1842 H 0.11794 0.19491 0.85459 0.0
H1843 H 0.10135 0.26279 0.85469 0.0
H1844 H 0.98857 0.25143 0.80649 0.0
H1845 H 0.93881 0.25852 0.81277 0.0
H1846 H 0.95914 0.21095 0.81309 0.0
H1847 H 0.93798 0.20278 0.84844 0.0
H1848 H 0.91762 0.25029 0.84821 0.0
H1849 H 0.95298 0.23762 0.86609 0.0
H1850 H 0.07449 0.32682 0.85394 0.0
H1851 H 0.03687 0.38598 0.85321 0.0
H1852 H 0.935 0.32075 0.83716 0.0
C1853 C 0.02287 0.18659 0.84155 0.0
C1854 C 0.06089 0.17447 0.8462 0.0
C1855 C 0.08874 0.2028 0.85089 0.0
C1856 C 0.07966 0.24177 0.85099 0.0
C1857 C 0.04245 0.25276 0.84633 0.0
C1858 C 0.01429 0.22637 0.84166 0.0
C1859 C 0.97655 0.24717 0.83733 0.0
C1860 C 0.96509 0.24168 0.81616 0.0
C1861 C 0.94438 0.23365 0.85083 0.0
C1862 C 0.98785 0.28885 0.84131 0.0
C1863 C 0.02632 0.29099 0.84607 0.0
C1864 C 0.04426 0.32566 0.85028 0.0
C1865 C 0.02242 0.35928 0.84984 0.0
C1866 C 0.98264 0.3585 0.84535 0.0
C1867 C 0.9652 0.32254 0.84088 0.0
H1868 H 0.58161 0.81766 0.91046 0.0
H1869 H 0.62413 0.78066 0.96598 0.0
H1870 H 0.56275 0.74749 0.97227 0.0
H1871 H 0.48257 0.83424 0.92459 0.0
H1872 H 0.46212 0.8153 0.90274 0.0
H1873 H 0.50937 0.83658 0.90247 0.0
H1874 H 0.53733 0.77418 0.8879 0.0
H1875 H 0.49015 0.75268 0.88817 0.0
H1876 H 0.5297 0.72922 0.9001 0.0
H1877 H 0.49845 0.71617 0.9723 0.0
H1878 H 0.43319 0.6905 0.96661 0.0
H1879 H 0.42895 0.74887 0.91167 0.0
C1880 C 0.57773 0.80269 0.92394 0.0
C1881 C 0.60779 0.80129 0.93769 0.0
C1882 C 0.60181 0.78138 0.95513 0.0
C1883 C 0.56693 0.76266 0.95888 0.0
C1884 C 0.53804 0.76396 0.94502 0.0
C1885 C 0.54286 0.78345 0.92789 0.0
C1886 C 0.50711 0.77938 0.91538 0.0
C1887 C 0.48923 0.81873 0.91105 0.0
C1888 C 0.51664 0.75758 0.89678 0.0
C1889 C 0.48125 0.75547 0.92836 0.0
C1890 C 0.50011 0.74649 0.94525 0.0
C1891 C 0.48329 0.72322 0.95919 0.0
C1892 C 0.44627 0.70866 0.95581 0.0
C1893 C 0.42596 0.71785 0.9388 0.0
C1894 C 0.44364 0.74182 0.92493 0.0
H1895 H 0.55603 0.18925 0.65812 0.0
H1896 H 0.54078 0.15793 0.7178 0.0
H1897 H 0.51137 0.22107 0.72439 0.0
H1898 H 0.57891 0.28938 0.66591 0.0
H1899 H 0.55234 0.30616 0.64531 0.0
H1900 H 0.57271 0.25864 0.64529 0.0
H1901 H 0.50544 0.22979 0.6381 0.0
H1902 H 0.48487 0.27723 0.63809 0.0
H1903 H 0.46579 0.24084 0.65381 0.0
H1904 H 0.4831 0.28728 0.7245 0.0
H1905 H 0.45689 0.352 0.71801 0.0
H1906 H 0.48975 0.34177 0.65824 0.0
C1907 C 0.54639 0.19585 0.67253 0.0
C1908 C 0.55008 0.16861 0.68746 0.0
C1909 C 0.53738 0.17813 0.70614 0.0
C1910 C 0.52093 0.21404 0.71003 0.0
C1911 C 0.51725 0.24024 0.69502 0.0
C1912 C 0.52946 0.23164 0.67662 0.0
C1913 C 0.52115 0.26477 0.66305 0.0
C1914 C 0.55851 0.28068 0.65438 0.0
C1915 C 0.49262 0.25241 0.64732 0.0
C1916 C 0.50288 0.29345 0.67671 0.0
C1917 C 0.50087 0.27857 0.69509 0.0
C1918 C 0.48459 0.2992 0.71018 0.0
C1919 C 0.46977 0.33587 0.70638 0.0
C1920 C 0.47147 0.35169 0.6877 0.0
C1921 C 0.48837 0.33029 0.67267 0.0
H1922 H 0.09154 0.29378 0.4622 0.0
H1923 H 0.11456 0.30135 0.40117 0.0
H1924 H 0.05024 0.27454 0.39415 0.0
H1925 H 0.03965 0.2031 0.46014 0.0
H1926 H 1.00503 0.21601 0.47827 0.0
H1927 H 0.05253 0.23674 0.47874 0.0
H1928 H 0.02281 0.30475 0.47846 0.0
H1929 H 0.97522 0.28423 0.47792 0.0
H1930 H 0.9897 0.31777 0.45961 0.0
H1931 H 0.98375 0.24845 0.39334 0.0
H1932 H 0.91926 0.22058 0.3988 0.0
H1933 H 0.93781 0.22598 0.4603 0.0
C1934 C 0.08294 0.28944 0.44741 0.0
C1935 C 0.1081 0.29923 0.43214 0.0
C1936 C 0.09587 0.29358 0.41299 0.0
C1937 C 0.05933 0.27856 0.40888 0.0
C1938 C 0.03517 0.269 0.42411 0.0
C1939 C 0.04638 0.27389 0.44302 0.0
C1940 C 0.01465 0.26034 0.45654 0.0
C1941 C 0.02882 0.22707 0.46917 0.0
C1942 C 0.99971 0.29377 0.46886 0.0
C1943 C 0.98418 0.24687 0.44224 0.0
C1944 C 0.99669 0.25266 0.42363 0.0
C1945 C 0.97376 0.24343 0.40784 0.0
C1946 C 0.93722 0.22756 0.41104 0.0
C1947 C 0.92389 0.22056 0.42986 0.0
C1948 C 0.94763 0.2305 0.44572 0.0
H1949 H 0.06591 0.69459 0.16144 0.0
H1950 H 0.02232 0.6528 0.21585 0.0
H1951 H 0.99103 0.71527 0.22171 0.0
H1952 H 0.08343 0.79287 0.17491 0.0
H1953 H 0.06576 0.81293 0.15273 0.0
H1954 H 0.08616 0.76544 0.15299 0.0
H1955 H 0.02369 0.73812 0.13795 0.0
H1956 H 1.0031 0.78555 0.1376 0.0
H1957 H 0.97824 0.74699 0.14955 0.0
H1958 H 0.96412 0.7813 0.2217 0.0
H1959 H 0.94082 0.84668 0.21557 0.0
H1960 H 0.99927 0.847 0.16046 0.0
C1961 C 0.04985 0.69885 0.17459 0.0
C1962 C 0.04654 0.66904 0.18828 0.0
C1963 C 0.02498 0.67524 0.20519 0.0
C1964 C 1.00724 0.71067 0.20866 0.0
C1965 C 1.01071 0.73945 0.19488 0.0
C1966 C 0.03107 0.73392 0.17807 0.0
C1967 C 0.02831 0.76913 0.16524 0.0
C1968 C 0.06831 0.7861 0.16124 0.0
C1969 C 1.00709 0.75936 0.14647 0.0
C1970 C 1.00431 0.79567 0.17774 0.0
C1971 C 0.99436 0.77769 0.19471 0.0
C1972 C 0.97162 0.79566 0.20845 0.0
C1973 C 0.95838 0.83287 0.20476 0.0
C1974 C 0.96794 0.85216 0.18747 0.0
C1975 C 0.99151 0.83321 0.17384 0.0
loop_
_geom_bond_atom_site_label_1
_geom_bond_atom_site_label_2
_geom_bond_distance
_geom_bond_site_symmetry_2
_ccdc_geom_bond_type
O0 Tb1 2.292 . S
O0 C3 1.255 . S
Tb1 O0 2.292 . S
Tb1 O17 2.326 . S
Tb1 O19 2.500 . S
Tb1 O20 2.473 . S
Tb1 O23 2.324 . S
Eu2 O6 2.292 . S
Eu2 C7 2.852 . S
Eu2 O18 2.324 . S
Eu2 O22 2.326 . S
Eu2 O24 2.500 . S
Eu2 O25 2.473 . S
C3 O0 1.255 . S
C3 O4 1.247 . S
O4 C3 1.247 . S
C5 O17 1.242 . S
C5 O18 1.258 . S
O6 Eu2 2.292 . S
O6 C8 1.255 . S
C7 Eu2 2.852 . S
C7 C11 1.503 . S
C7 O24 1.273 . S
C7 O25 1.257 . S
C8 O6 1.255 . S
C8 O9 1.247 . S
O9 C8 1.247 . S
C10 O22 1.242 . S
C10 O23 1.258 . S
C11 C7 1.503 . S
C11 C12 1.379 . S
C11 C16 1.392 . S
C12 C11 1.379 . S
C12 C13 1.404 . S
C12 H26 0.929 . S
C13 C12 1.404 . S
C13 C14 1.389 . S
C14 C13 1.389 . S
C14 C15 1.399 1_545 S
C14 H27 0.931 1_544 S
C15 C14 1.399 1_565 S
C15 C16 1.390 1_565 S
C16 C11 1.392 . S
C16 C15 1.390 1_545 S
C16 H28 0.929 1_545 S
O17 Tb1 2.326 . S
O17 C5 1.242 . S
O18 Eu2 2.324 . S
O18 C5 1.258 . S
O19 Tb1 2.500 . S
O19 C21 1.273 . S
O20 Tb1 2.473 . S
O20 C21 1.257 . S
C21 O19 1.273 . S
C21 O20 1.257 . S
O22 Eu2 2.326 . S
O22 C10 1.242 . S
O23 Tb1 2.324 . S
O23 C10 1.258 . S
O24 Eu2 2.500 . S
O24 C7 1.273 . S
O25 Eu2 2.473 . S
O25 C7 1.257 . S
H26 C12 0.929 . S
H27 C14 0.931 1_566 S
H28 C16 0.929 1_565 S
O29 Tb30 2.292 . S
O29 C32 1.255 . S
Tb30 O29 2.292 . S
Tb30 O46 2.326 . S
Tb30 O48 2.500 . S
Tb30 O49 2.473 . S
Tb30 O52 2.324 . S
Eu31 O35 2.292 . S
Eu31 C36 2.852 . S
Eu31 O47 2.324 . S
Eu31 O51 2.326 . S
Eu31 O53 2.500 . S
Eu31 O54 2.473 . S
C32 O29 1.255 . S
C32 O33 1.247 . S
O33 C32 1.247 . S
C34 O46 1.242 . S
C34 O47 1.258 . S
O35 Eu31 2.292 . S
O35 C37 1.255 . S
C36 Eu31 2.852 . S
C36 C40 1.503 . S
C36 O53 1.273 . S
C36 O54 1.257 . S
C37 O35 1.255 . S
C37 O38 1.247 . S
O38 C37 1.247 . S
C39 O51 1.242 . S
C39 O52 1.258 . S
C40 C36 1.503 . S
C40 C41 1.379 . S
C40 C45 1.392 . S
C41 C40 1.379 . S
C41 C42 1.404 . S
C41 H55 0.929 . S
C42 C41 1.404 . S
C42 C43 1.389 . S
C43 C42 1.389 . S
C43 C44 1.399 . S
C43 H56 0.931 . S
C44 C43 1.399 . S
C44 C45 1.390 . S
C45 C40 1.392 . S
C45 C44 1.390 . S
C45 H57 0.929 . S
O46 Tb30 2.326 . S
O46 C34 1.242 . S
O47 Eu31 2.324 . S
O47 C34 1.258 . S
O48 Tb30 2.500 . S
O48 C50 1.273 . S
O49 Tb30 2.473 . S
O49 C50 1.257 . S
C50 O48 1.273 . S
C50 O49 1.257 . S
O51 Eu31 2.326 . S
O51 C39 1.242 . S
O52 Tb30 2.324 . S
O52 C39 1.258 . S
O53 Eu31 2.500 . S
O53 C36 1.273 . S
O54 Eu31 2.473 . S
O54 C36 1.257 . S
H55 C41 0.929 . S
H56 C43 0.931 . S
H57 C45 0.929 . S
O58 Tb59 2.292 . S
O58 C61 1.255 . S
Tb59 O58 2.292 . S
Tb59 O75 2.326 . S
Tb59 O77 2.500 . S
Tb59 O78 2.473 . S
Tb59 O81 2.324 . S
Eu60 O64 2.292 . S
Eu60 C65 2.852 . S
Eu60 O76 2.324 . S
Eu60 O80 2.326 . S
Eu60 O82 2.500 . S
Eu60 O83 2.473 . S
C61 O58 1.255 . S
C61 O62 1.247 . S
O62 C61 1.247 . S
C63 O75 1.242 . S
C63 O76 1.258 . S
O64 Eu60 2.292 . S
O64 C66 1.255 . S
C65 Eu60 2.852 . S
C65 C69 1.503 . S
C65 O82 1.273 . S
C65 O83 1.257 . S
C66 O64 1.255 . S
C66 O67 1.247 . S
O67 C66 1.247 . S
C68 O80 1.242 . S
C68 O81 1.258 . S
C69 C65 1.503 . S
C69 C70 1.379 . S
C69 C74 1.392 . S
C70 C69 1.379 . S
C70 C71 1.404 . S
C70 H84 0.929 . S
C71 C70 1.404 . S
C71 C72 1.389 . S
C72 C71 1.389 . S
C72 C73 1.399 1_565 S
C72 H85 0.931 1_565 S
C73 C72 1.399 1_545 S
C73 C74 1.390 1_545 S
C74 C69 1.392 . S
C74 C73 1.390 1_565 S
C74 H86 0.929 1_565 S
O75 Tb59 2.326 . S
O75 C63 1.242 . S
O76 Eu60 2.324 . S
O76 C63 1.258 . S
O77 Tb59 2.500 . S
O77 C79 1.273 . S
O78 Tb59 2.473 . S
O78 C79 1.257 . S
C79 O77 1.273 . S
C79 O78 1.257 . S
O80 Eu60 2.326 . S
O80 C68 1.242 . S
O81 Tb59 2.324 . S
O81 C68 1.258 . S
O82 Eu60 2.500 . S
O82 C65 1.273 . S
O83 Eu60 2.473 . S
O83 C65 1.257 . S
H84 C70 0.929 . S
H85 C72 0.931 1_545 S
H86 C74 0.929 1_545 S
O87 Tb88 2.292 . S
O87 C90 1.256 . S
Tb88 O87 2.292 . S
Tb88 O104 2.326 . S
Tb88 O106 2.500 1_655 S
Tb88 O107 2.473 . S
Tb88 O110 2.324 . S
Eu89 O93 2.292 . S
Eu89 C94 2.852 . S
Eu89 O105 2.324 . S
Eu89 O109 2.326 . S
Eu89 O111 2.500 . S
Eu89 O112 2.473 . S
C90 O87 1.256 . S
C90 O91 1.263 . S
O91 C90 1.263 . S
C92 O104 1.242 . S
C92 O105 1.258 . S
O93 Eu89 2.292 . S
O93 C95 1.255 . S
C94 Eu89 2.852 . S
C94 C98 1.503 . S
C94 O111 1.273 . S
C94 O112 1.257 . S
C95 O93 1.255 . S
C95 O96 1.247 . S
O96 C95 1.247 . S
C97 O109 1.242 . S
C97 O110 1.258 . S
C98 C94 1.503 . S
C98 C99 1.379 . S
C98 C103 1.392 . S
C99 C98 1.379 . S
C99 C100 1.404 . S
C99 H113 0.929 . S
C100 C99 1.404 . S
C100 C101 1.389 . S
C101 C100 1.389 . S
C101 C102 1.399 . S
C101 H114 0.931 . S
C102 C101 1.399 . S
C102 C103 1.390 . S
C103 C98 1.392 . S
C103 C102 1.390 . S
C103 H115 0.929 . S
O104 Tb88 2.326 . S
O104 C92 1.242 . S
O105 Eu89 2.324 . S
O105 C92 1.258 . S
O106 Tb88 2.500 1_455 S
O106 C108 1.273 1_455 S
O107 Tb88 2.473 . S
O107 C108 1.257 . S
C108 O106 1.273 1_655 S
C108 O107 1.257 . S
O109 Eu89 2.326 . S
O109 C97 1.242 . S
O110 Tb88 2.324 . S
O110 C97 1.258 . S
O111 Eu89 2.500 . S
O111 C94 1.273 . S
O112 Eu89 2.473 . S
O112 C94 1.257 . S
H113 C99 0.929 . S
H114 C101 0.931 . S
H115 C103 0.929 . S
O116 Tb117 2.292 . S
O116 C119 1.255 . S
Tb117 O116 2.292 . S
Tb117 O133 2.326 . S
Tb117 O135 2.500 . S
Tb117 O136 2.473 . S
Tb117 O139 2.324 . S
Eu118 O122 2.292 . S
Eu118 C123 2.852 . S
Eu118 O134 2.324 . S
Eu118 O138 2.326 . S
Eu118 O140 2.500 . S
Eu118 O141 2.473 . S
C119 O116 1.255 . S
C119 O120 1.247 . S
O120 C119 1.247 . S
C121 O133 1.242 . S
C121 O134 1.258 . S
O122 Eu118 2.292 . S
O122 C124 1.255 . S
C123 Eu118 2.852 . S
C123 C127 1.503 . S
C123 O140 1.273 . S
C123 O141 1.257 . S
C124 O122 1.255 . S
C124 O125 1.247 . S
O125 C124 1.247 . S
C126 O138 1.242 . S
C126 O139 1.258 . S
C127 C123 1.503 . S
C127 C128 1.379 . S
C127 C132 1.392 . S
C128 C127 1.379 . S
C128 C129 1.404 . S
C128 H142 0.929 . S
C129 C128 1.404 . S
C129 C130 1.389 . S
C130 C129 1.389 . S
C130 C131 1.399 1_565 S
C130 H143 0.931 1_566 S
C131 C130 1.399 1_545 S
C131 C132 1.390 1_545 S
C132 C127 1.392 . S
C132 C131 1.390 1_565 S
C132 H144 0.929 1_565 S
O133 Tb117 2.326 . S
O133 C121 1.242 . S
O134 Eu118 2.324 . S
O134 C121 1.258 . S
O135 Tb117 2.500 . S
O135 C137 1.273 . S
O136 Tb117 2.473 . S
O136 C137 1.257 . S
C137 O135 1.273 . S
C137 O136 1.257 . S
O138 Eu118 2.326 . S
O138 C126 1.242 . S
O139 Tb117 2.324 . S
O139 C126 1.258 . S
O140 Eu118 2.500 . S
O140 C123 1.273 . S
O141 Eu118 2.473 . S
O141 C123 1.257 . S
H142 C128 0.929 . S
H143 C130 0.931 1_544 S
H144 C132 0.929 1_545 S
O145 Tb146 2.292 . S
O145 C148 1.255 . S
Tb146 O145 2.292 . S
Tb146 O162 2.326 . S
Tb146 O164 2.500 . S
Tb146 O165 2.473 . S
Tb146 O168 2.324 . S
Eu147 O151 2.292 . S
Eu147 C152 2.852 . S
Eu147 O163 2.324 . S
Eu147 O167 2.326 . S
Eu147 O169 2.500 . S
Eu147 O170 2.473 . S
C148 O145 1.255 . S
C148 O149 1.247 . S
O149 C148 1.247 . S
C150 O162 1.242 . S
C150 O163 1.258 . S
O151 Eu147 2.292 . S
O151 C153 1.255 . S
C152 Eu147 2.852 . S
C152 C156 1.503 . S
C152 O169 1.273 . S
C152 O170 1.257 . S
C153 O151 1.255 . S
C153 O154 1.247 . S
O154 C153 1.247 . S
C155 O167 1.242 . S
C155 O168 1.258 . S
C156 C152 1.503 . S
C156 C157 1.379 . S
C156 C161 1.392 . S
C157 C156 1.379 . S
C157 C158 1.404 . S
C157 H171 0.929 . S
C158 C157 1.404 . S
C158 C159 1.389 . S
C159 C158 1.389 . S
C159 C160 1.399 . S
C159 H172 0.931 . S
C160 C159 1.399 . S
C160 C161 1.390 . S
C161 C156 1.392 . S
C161 C160 1.390 . S
C161 H173 0.929 . S
O162 Tb146 2.326 . S
O162 C150 1.242 . S
O163 Eu147 2.324 . S
O163 C150 1.258 . S
O164 Tb146 2.500 . S
O164 C166 1.273 . S
O165 Tb146 2.473 . S
O165 C166 1.257 . S
C166 O164 1.273 . S
C166 O165 1.257 . S
O167 Eu147 2.326 . S
O167 C155 1.242 . S
O168 Tb146 2.324 . S
O168 C155 1.258 . S
O169 Eu147 2.500 . S
O169 C152 1.273 . S
O170 Eu147 2.473 . S
O170 C152 1.257 . S
H171 C157 0.929 . S
H172 C159 0.931 . S
H173 C161 0.929 . S
O174 Tb175 2.292 . S
O174 C177 1.255 . S
Tb175 O174 2.292 . S
Tb175 O191 2.326 . S
Tb175 O193 2.500 . S
Tb175 O194 2.473 . S
Tb175 O197 2.324 . S
Eu176 O180 2.292 . S
Eu176 C181 2.852 . S
Eu176 O192 2.324 . S
Eu176 O196 2.326 . S
Eu176 O198 2.500 . S
Eu176 O199 2.473 . S
C177 O174 1.255 . S
C177 O178 1.247 . S
O178 C177 1.247 . S
C179 O191 1.242 . S
C179 O192 1.258 . S
O180 Eu176 2.292 . S
O180 C182 1.255 . S
C181 Eu176 2.852 . S
C181 C185 1.503 . S
C181 O198 1.273 . S
C181 O199 1.257 . S
C182 O180 1.255 . S
C182 O183 1.247 . S
O183 C182 1.247 . S
C184 O196 1.242 . S
C184 O197 1.258 . S
C185 C181 1.503 . S
C185 C186 1.379 . S
C185 C190 1.392 . S
C186 C185 1.379 . S
C186 C187 1.404 . S
C186 H200 0.929 . S
C187 C186 1.404 . S
C187 C188 1.389 . S
C188 C187 1.389 . S
C188 C189 1.399 1_545 S
C188 H201 0.931 1_545 S
C189 C188 1.399 1_565 S
C189 C190 1.390 1_565 S
C190 C185 1.392 . S
C190 C189 1.390 1_545 S
C190 H202 0.929 1_545 S
O191 Tb175 2.326 . S
O191 C179 1.242 . S
O192 Eu176 2.324 . S
O192 C179 1.258 . S
O193 Tb175 2.500 . S
O193 C195 1.273 . S
O194 Tb175 2.473 . S
O194 C195 1.257 . S
C195 O193 1.273 . S
C195 O194 1.257 . S
O196 Eu176 2.326 . S
O196 C184 1.242 . S
O197 Tb175 2.324 . S
O197 C184 1.258 . S
O198 Eu176 2.500 . S
O198 C181 1.273 . S
O199 Eu176 2.473 . S
O199 C181 1.257 . S
H200 C186 0.929 . S
H201 C188 0.931 1_565 S
H202 C190 0.929 1_565 S
O203 Tb204 2.292 . S
O203 C206 1.256 . S
Tb204 O203 2.292 . S
Tb204 O220 2.326 . S
Tb204 O222 2.500 1_455 S
Tb204 O223 2.473 . S
Tb204 O226 2.324 . S
Eu205 O209 2.292 . S
Eu205 C210 2.852 . S
Eu205 O221 2.324 . S
Eu205 O225 2.326 . S
Eu205 O227 2.500 . S
Eu205 O228 2.473 . S
C206 O203 1.256 . S
C206 O207 1.263 . S
O207 C206 1.263 . S
C208 O220 1.242 . S
C208 O221 1.258 . S
O209 Eu205 2.292 . S
O209 C211 1.255 . S
C210 Eu205 2.852 . S
C210 C214 1.503 . S
C210 O227 1.273 . S
C210 O228 1.257 . S
C211 O209 1.255 . S
C211 O212 1.247 . S
O212 C211 1.247 . S
C213 O225 1.242 . S
C213 O226 1.258 . S
C214 C210 1.503 . S
C214 C215 1.379 . S
C214 C219 1.392 . S
C215 C214 1.379 . S
C215 C216 1.404 . S
C215 H229 0.929 . S
C216 C215 1.404 . S
C216 C217 1.389 . S
C217 C216 1.389 . S
C217 C218 1.399 . S
C217 H230 0.931 . S
C218 C217 1.399 . S
C218 C219 1.390 . S
C219 C214 1.392 . S
C219 C218 1.390 . S
C219 H231 0.929 . S
O220 Tb204 2.326 . S
O220 C208 1.242 . S
O221 Eu205 2.324 . S
O221 C208 1.258 . S
O222 Tb204 2.500 1_655 S
O222 C224 1.273 1_655 S
O223 Tb204 2.473 . S
O223 C224 1.257 . S
C224 O222 1.273 1_455 S
C224 O223 1.257 . S
O225 Eu205 2.326 . S
O225 C213 1.242 . S
O226 Tb204 2.324 . S
O226 C213 1.258 . S
O227 Eu205 2.500 . S
O227 C210 1.273 . S
O228 Eu205 2.473 . S
O228 C210 1.257 . S
H229 C215 0.929 . S
H230 C217 0.931 . S
H231 C219 0.929 . S
O232 Tb233 2.292 . S
O232 C235 1.255 . S
Tb233 O232 2.292 . S
Tb233 O249 2.326 . S
Tb233 O251 2.500 . S
Tb233 O252 2.473 . S
Tb233 O255 2.324 . S
Eu234 O238 2.292 . S
Eu234 C239 2.852 . S
Eu234 O250 2.324 . S
Eu234 O254 2.326 . S
Eu234 O256 2.500 . S
Eu234 O257 2.473 . S
C235 O232 1.255 . S
C235 O236 1.247 . S
O236 C235 1.247 . S
C237 O249 1.242 . S
C237 O250 1.258 . S
O238 Eu234 2.292 . S
O238 C240 1.255 . S
C239 Eu234 2.852 . S
C239 C243 1.503 . S
C239 O256 1.273 . S
C239 O257 1.257 . S
C240 O238 1.255 . S
C240 O241 1.247 . S
O241 C240 1.247 . S
C242 O254 1.242 . S
C242 O255 1.258 . S
C243 C239 1.503 . S
C243 C244 1.379 . S
C243 C248 1.392 . S
C244 C243 1.379 . S
C244 C245 1.404 . S
C244 H258 0.929 . S
C245 C244 1.404 . S
C245 C246 1.389 . S
C246 C245 1.389 . S
C246 C247 1.399 . S
C246 H259 0.931 . S
C247 C246 1.399 . S
C247 C248 1.390 . S
C248 C243 1.392 . S
C248 C247 1.390 . S
C248 H260 0.929 . S
O249 Tb233 2.326 . S
O249 C237 1.242 . S
O250 Eu234 2.324 . S
O250 C237 1.258 . S
O251 Tb233 2.500 . S
O251 C253 1.273 . S
O252 Tb233 2.473 . S
O252 C253 1.257 . S
C253 O251 1.273 . S
C253 O252 1.257 . S
O254 Eu234 2.326 . S
O254 C242 1.242 . S
O255 Tb233 2.324 . S
O255 C242 1.258 . S
O256 Eu234 2.500 . S
O256 C239 1.273 . S
O257 Eu234 2.473 . S
O257 C239 1.257 . S
H258 C244 0.929 . S
H259 C246 0.931 . S
H260 C248 0.929 . S
O261 Tb262 2.292 . S
O261 C264 1.256 . S
Tb262 O261 2.292 . S
Tb262 O278 2.326 . S
Tb262 O280 2.500 1_455 S
Tb262 O281 2.473 . S
Tb262 O284 2.324 1_545 S
Eu263 O267 2.292 . S
Eu263 C268 2.852 . S
Eu263 O279 2.324 . S
Eu263 O283 2.326 . S
Eu263 O285 2.500 . S
Eu263 O286 2.473 . S
C264 O261 1.256 . S
C264 O265 1.263 . S
O265 C264 1.263 . S
C266 O278 1.242 . S
C266 O279 1.258 . S
O267 Eu263 2.292 . S
O267 C269 1.255 . S
C268 Eu263 2.852 . S
C268 C272 1.503 . S
C268 O285 1.273 . S
C268 O286 1.257 . S
C269 O267 1.255 . S
C269 O270 1.247 . S
O270 C269 1.247 . S
C271 O283 1.242 1_565 S
C271 O284 1.258 . S
C272 C268 1.503 . S
C272 C273 1.379 . S
C272 C277 1.392 . S
C273 C272 1.379 . S
C273 C274 1.404 . S
C273 H287 0.929 . S
C274 C273 1.404 . S
C274 C275 1.389 . S
C275 C274 1.389 . S
C275 C276 1.399 . S
C275 H288 0.931 . S
C276 C275 1.399 . S
C276 C277 1.390 . S
C277 C272 1.392 . S
C277 C276 1.390 . S
C277 H289 0.929 . S
O278 Tb262 2.326 . S
O278 C266 1.242 . S
O279 Eu263 2.324 . S
O279 C266 1.258 . S
O280 Tb262 2.500 1_655 S
O280 C282 1.273 1_655 S
O281 Tb262 2.473 . S
O281 C282 1.257 . S
C282 O280 1.273 1_455 S
C282 O281 1.257 . S
O283 Eu263 2.326 . S
O283 C271 1.242 1_545 S
O284 Tb262 2.324 1_565 S
O284 C271 1.258 . S
O285 Eu263 2.500 . S
O285 C268 1.273 . S
O286 Eu263 2.473 . S
O286 C268 1.257 . S
H287 C273 0.929 . S
H288 C275 0.931 . S
H289 C277 0.929 . S
O290 Tb291 2.292 . S
O290 C293 1.255 . S
Tb291 O290 2.292 . S
Tb291 O307 2.326 . S
Tb291 O309 2.500 . S
Tb291 O310 2.473 . S
Tb291 O313 2.324 . S
Eu292 O296 2.292 . S
Eu292 C297 2.852 . S
Eu292 O308 2.324 . S
Eu292 O312 2.326 . S
Eu292 O314 2.500 . S
Eu292 O315 2.473 . S
C293 O290 1.255 . S
C293 O294 1.247 . S
O294 C293 1.247 . S
C295 O307 1.242 . S
C295 O308 1.258 . S
O296 Eu292 2.292 . S
O296 C298 1.255 . S
C297 Eu292 2.852 . S
C297 C301 1.503 . S
C297 O314 1.273 . S
C297 O315 1.257 . S
C298 O296 1.255 . S
C298 O299 1.247 . S
O299 C298 1.247 . S
C300 O312 1.242 . S
C300 O313 1.258 . S
C301 C297 1.503 . S
C301 C302 1.379 . S
C301 C306 1.392 . S
C302 C301 1.379 . S
C302 C303 1.404 . S
C302 H316 0.929 . S
C303 C302 1.404 . S
C303 C304 1.389 . S
C304 C303 1.389 . S
C304 C305 1.399 . S
C304 H317 0.931 1_554 S
C305 C304 1.399 . S
C305 C306 1.390 . S
C306 C301 1.392 . S
C306 C305 1.390 . S
C306 H318 0.929 . S
O307 Tb291 2.326 . S
O307 C295 1.242 . S
O308 Eu292 2.324 . S
O308 C295 1.258 . S
O309 Tb291 2.500 . S
O309 C311 1.273 . S
O310 Tb291 2.473 . S
O310 C311 1.257 . S
C311 O309 1.273 . S
C311 O310 1.257 . S
O312 Eu292 2.326 . S
O312 C300 1.242 . S
O313 Tb291 2.324 . S
O313 C300 1.258 . S
O314 Eu292 2.500 . S
O314 C297 1.273 . S
O315 Eu292 2.473 . S
O315 C297 1.257 . S
H316 C302 0.929 . S
H317 C304 0.931 1_556 S
H318 C306 0.929 . S
O319 Tb320 2.292 . S
O319 C322 1.255 . S
Tb320 O319 2.292 . S
Tb320 O336 2.326 . S
Tb320 O338 2.500 . S
Tb320 O339 2.473 . S
Tb320 O342 2.324 1_565 S
Eu321 O325 2.292 . S
Eu321 C326 2.852 . S
Eu321 O337 2.324 . S
Eu321 O341 2.326 . S
Eu321 O343 2.500 . S
Eu321 O344 2.473 . S
C322 O319 1.255 . S
C322 O323 1.247 . S
O323 C322 1.247 . S
C324 O336 1.242 . S
C324 O337 1.258 . S
O325 Eu321 2.292 . S
O325 C327 1.255 . S
C326 Eu321 2.852 . S
C326 C330 1.503 . S
C326 O343 1.273 . S
C326 O344 1.257 . S
C327 O325 1.255 . S
C327 O328 1.247 . S
O328 C327 1.247 . S
C329 O341 1.242 1_545 S
C329 O342 1.258 . S
C330 C326 1.503 . S
C330 C331 1.379 . S
C330 C335 1.392 . S
C331 C330 1.379 . S
C331 C332 1.404 . S
C331 H345 0.929 . S
C332 C331 1.404 . S
C332 C333 1.389 . S
C333 C332 1.389 . S
C333 C334 1.399 . S
C333 H346 0.931 . S
C334 C333 1.399 . S
C334 C335 1.390 . S
C335 C330 1.392 . S
C335 C334 1.390 . S
C335 H347 0.929 . S
O336 Tb320 2.326 . S
O336 C324 1.242 . S
O337 Eu321 2.324 . S
O337 C324 1.258 . S
O338 Tb320 2.500 . S
O338 C340 1.273 . S
O339 Tb320 2.473 . S
O339 C340 1.257 . S
C340 O338 1.273 . S
C340 O339 1.257 . S
O341 Eu321 2.326 . S
O341 C329 1.242 1_565 S
O342 Tb320 2.324 1_545 S
O342 C329 1.258 . S
O343 Eu321 2.500 . S
O343 C326 1.273 . S
O344 Eu321 2.473 . S
O344 C326 1.257 . S
H345 C331 0.929 . S
H346 C333 0.931 . S
H347 C335 0.929 . S
O348 Tb349 2.292 . S
O348 C351 1.255 . S
Tb349 O348 2.292 . S
Tb349 O365 2.326 . S
Tb349 O367 2.500 . S
Tb349 O368 2.473 . S
Tb349 O371 2.324 . S
Eu350 O354 2.292 . S
Eu350 C355 2.852 . S
Eu350 O366 2.324 . S
Eu350 O370 2.326 . S
Eu350 O372 2.500 . S
Eu350 O373 2.473 . S
C351 O348 1.255 . S
C351 O352 1.247 . S
O352 C351 1.247 . S
C353 O365 1.242 . S
C353 O366 1.258 . S
O354 Eu350 2.292 . S
O354 C356 1.255 . S
C355 Eu350 2.852 . S
C355 C359 1.503 . S
C355 O372 1.273 . S
C355 O373 1.257 . S
C356 O354 1.255 . S
C356 O357 1.247 . S
O357 C356 1.247 . S
C358 O370 1.242 . S
C358 O371 1.258 . S
C359 C355 1.503 . S
C359 C360 1.379 . S
C359 C364 1.392 . S
C360 C359 1.379 . S
C360 C361 1.404 . S
C360 H374 0.929 . S
C361 C360 1.404 . S
C361 C362 1.389 . S
C362 C361 1.389 . S
C362 C363 1.399 . S
C362 H375 0.931 . S
C363 C362 1.399 . S
C363 C364 1.390 . S
C364 C359 1.392 . S
C364 C363 1.390 . S
C364 H376 0.929 . S
O365 Tb349 2.326 . S
O365 C353 1.242 . S
O366 Eu350 2.324 . S
O366 C353 1.258 . S
O367 Tb349 2.500 . S
O367 C369 1.273 . S
O368 Tb349 2.473 . S
O368 C369 1.257 . S
C369 O367 1.273 . S
C369 O368 1.257 . S
O370 Eu350 2.326 . S
O370 C358 1.242 . S
O371 Tb349 2.324 . S
O371 C358 1.258 . S
O372 Eu350 2.500 . S
O372 C355 1.273 . S
O373 Eu350 2.473 . S
O373 C355 1.257 . S
H374 C360 0.929 . S
H375 C362 0.931 . S
H376 C364 0.929 . S
O377 Tb378 2.292 . S
O377 C380 1.256 . S
Tb378 O377 2.292 . S
Tb378 O394 2.326 . S
Tb378 O396 2.500 1_655 S
Tb378 O397 2.473 . S
Tb378 O400 2.324 1_565 S
Eu379 O383 2.292 . S
Eu379 C384 2.852 . S
Eu379 O395 2.324 . S
Eu379 O399 2.326 . S
Eu379 O401 2.500 . S
Eu379 O402 2.473 . S
C380 O377 1.256 . S
C380 O381 1.263 . S
O381 C380 1.263 . S
C382 O394 1.242 . S
C382 O395 1.258 . S
O383 Eu379 2.292 . S
O383 C385 1.255 . S
C384 Eu379 2.852 . S
C384 C388 1.503 . S
C384 O401 1.273 . S
C384 O402 1.257 . S
C385 O383 1.255 . S
C385 O386 1.247 . S
O386 C385 1.247 . S
C387 O399 1.242 1_545 S
C387 O400 1.258 . S
C388 C384 1.503 . S
C388 C389 1.379 . S
C388 C393 1.392 . S
C389 C388 1.379 . S
C389 C390 1.404 . S
C389 H403 0.929 . S
C390 C389 1.404 . S
C390 C391 1.389 . S
C391 C390 1.389 . S
C391 C392 1.399 . S
C391 H404 0.931 . S
C392 C391 1.399 . S
C392 C393 1.390 . S
C393 C388 1.392 . S
C393 C392 1.390 . S
C393 H405 0.929 . S
O394 Tb378 2.326 . S
O394 C382 1.242 . S
O395 Eu379 2.324 . S
O395 C382 1.258 . S
O396 Tb378 2.500 1_455 S
O396 C398 1.273 1_455 S
O397 Tb378 2.473 . S
O397 C398 1.257 . S
C398 O396 1.273 1_655 S
C398 O397 1.257 . S
O399 Eu379 2.326 . S
O399 C387 1.242 1_565 S
O400 Tb378 2.324 1_545 S
O400 C387 1.258 . S
O401 Eu379 2.500 . S
O401 C384 1.273 . S
O402 Eu379 2.473 . S
O402 C384 1.257 . S
H403 C389 0.929 . S
H404 C391 0.931 . S
H405 C393 0.929 . S
O406 Tb407 2.292 . S
O406 C409 1.255 . S
Tb407 O406 2.292 . S
Tb407 O423 2.326 . S
Tb407 O425 2.500 . S
Tb407 O426 2.473 . S
Tb407 O429 2.324 . S
Eu408 O412 2.292 . S
Eu408 C413 2.852 . S
Eu408 O424 2.324 . S
Eu408 O428 2.326 . S
Eu408 O430 2.500 . S
Eu408 O431 2.473 . S
C409 O406 1.255 . S
C409 O410 1.247 . S
O410 C409 1.247 . S
C411 O423 1.242 . S
C411 O424 1.258 . S
O412 Eu408 2.292 . S
O412 C414 1.255 . S
C413 Eu408 2.852 . S
C413 C417 1.503 . S
C413 O430 1.273 . S
C413 O431 1.257 . S
C414 O412 1.255 . S
C414 O415 1.247 . S
O415 C414 1.247 . S
C416 O428 1.242 . S
C416 O429 1.258 . S
C417 C413 1.503 . S
C417 C418 1.379 . S
C417 C422 1.392 . S
C418 C417 1.379 . S
C418 C419 1.404 . S
C418 H432 0.929 . S
C419 C418 1.404 . S
C419 C420 1.389 . S
C420 C419 1.389 . S
C420 C421 1.399 . S
C420 H433 0.931 1_556 S
C421 C420 1.399 . S
C421 C422 1.390 . S
C422 C417 1.392 . S
C422 C421 1.390 . S
C422 H434 0.929 . S
O423 Tb407 2.326 . S
O423 C411 1.242 . S
O424 Eu408 2.324 . S
O424 C411 1.258 . S
O425 Tb407 2.500 . S
O425 C427 1.273 . S
O426 Tb407 2.473 . S
O426 C427 1.257 . S
C427 O425 1.273 . S
C427 O426 1.257 . S
O428 Eu408 2.326 . S
O428 C416 1.242 . S
O429 Tb407 2.324 . S
O429 C416 1.258 . S
O430 Eu408 2.500 . S
O430 C413 1.273 . S
O431 Eu408 2.473 . S
O431 C413 1.257 . S
H432 C418 0.929 . S
H433 C420 0.931 1_554 S
H434 C422 0.929 . S
O435 Tb436 2.292 . S
O435 C438 1.255 . S
Tb436 O435 2.292 . S
Tb436 O452 2.326 . S
Tb436 O454 2.500 . S
Tb436 O455 2.473 . S
Tb436 O458 2.324 1_545 S
Eu437 O441 2.292 . S
Eu437 C442 2.852 . S
Eu437 O453 2.324 . S
Eu437 O457 2.326 . S
Eu437 O459 2.500 . S
Eu437 O460 2.473 . S
C438 O435 1.255 . S
C438 O439 1.247 . S
O439 C438 1.247 . S
C440 O452 1.242 . S
C440 O453 1.258 . S
O441 Eu437 2.292 . S
O441 C443 1.255 . S
C442 Eu437 2.852 . S
C442 C446 1.503 . S
C442 O459 1.273 . S
C442 O460 1.257 . S
C443 O441 1.255 . S
C443 O444 1.247 . S
O444 C443 1.247 . S
C445 O457 1.242 1_565 S
C445 O458 1.258 . S
C446 C442 1.503 . S
C446 C447 1.379 . S
C446 C451 1.392 . S
C447 C446 1.379 . S
C447 C448 1.404 . S
C447 H461 0.929 . S
C448 C447 1.404 . S
C448 C449 1.389 . S
C449 C448 1.389 . S
C449 C450 1.399 . S
C449 H462 0.931 . S
C450 C449 1.399 . S
C450 C451 1.390 . S
C451 C446 1.392 . S
C451 C450 1.390 . S
C451 H463 0.929 . S
O452 Tb436 2.326 . S
O452 C440 1.242 . S
O453 Eu437 2.324 . S
O453 C440 1.258 . S
O454 Tb436 2.500 . S
O454 C456 1.273 . S
O455 Tb436 2.473 . S
O455 C456 1.257 . S
C456 O454 1.273 . S
C456 O455 1.257 . S
O457 Eu437 2.326 . S
O457 C445 1.242 1_545 S
O458 Tb436 2.324 1_565 S
O458 C445 1.258 . S
O459 Eu437 2.500 . S
O459 C442 1.273 . S
O460 Eu437 2.473 . S
O460 C442 1.257 . S
H461 C447 0.929 . S
H462 C449 0.931 . S
H463 C451 0.929 . S
H464 C476 0.930 . S
H465 C478 0.930 . S
H466 C479 0.930 . S
H467 C483 0.959 . S
H468 C483 0.959 . S
H469 C483 0.961 . S
H470 C484 0.960 . S
H471 C484 0.961 . S
H472 C484 0.959 . S
H473 C487 0.929 . S
H474 C488 0.931 . S
H475 C490 0.930 . S
C476 H464 0.930 . S
C476 C477 1.399 . S
C476 C481 1.399 . S
C477 C476 1.399 . S
C477 C478 1.376 . S
C478 H465 0.930 . S
C478 C477 1.376 . S
C478 C479 1.388 . S
C479 H466 0.930 . S
C479 C478 1.388 . S
C479 C480 1.390 . S
C480 C479 1.390 . S
C480 C481 1.394 . S
C480 C486 1.465 . S
C481 C476 1.399 . S
C481 C480 1.394 . S
C481 C482 1.516 . S
C482 C481 1.516 . S
C482 C483 1.502 . S
C482 C484 1.561 . S
C482 C485 1.526 . S
C483 H467 0.959 . S
C483 H468 0.959 . S
C483 H469 0.961 . S
C483 C482 1.502 . S
C484 H470 0.960 . S
C484 H471 0.961 . S
C484 H472 0.959 . S
C484 C482 1.561 . S
C485 C482 1.526 . S
C485 C486 1.396 . S
C485 C490 1.390 . S
C486 C480 1.465 . S
C486 C485 1.396 . S
C486 C487 1.399 . S
C487 H473 0.929 . S
C487 C486 1.399 . S
C487 C488 1.385 . S
C488 H474 0.931 . S
C488 C487 1.385 . S
C488 C489 1.389 . S
C489 C488 1.389 . S
C489 C490 1.387 . S
C490 H475 0.930 . S
C490 C485 1.390 . S
C490 C489 1.387 . S
H491 C503 0.930 . S
H492 C505 0.930 . S
H493 C506 0.930 . S
H494 C510 0.959 . S
H495 C510 0.959 . S
H496 C510 0.961 . S
H497 C511 0.960 . S
H498 C511 0.961 . S
H499 C511 0.959 . S
H500 C514 0.929 . S
H501 C515 0.931 . S
H502 C517 0.930 . S
C503 H491 0.930 . S
C503 C504 1.399 . S
C503 C508 1.399 . S
C504 C503 1.399 . S
C504 C505 1.376 . S
C505 H492 0.930 . S
C505 C504 1.376 . S
C505 C506 1.388 . S
C506 H493 0.930 . S
C506 C505 1.388 . S
C506 C507 1.390 . S
C507 C506 1.390 . S
C507 C508 1.394 . S
C507 C513 1.465 . S
C508 C503 1.399 . S
C508 C507 1.394 . S
C508 C509 1.516 . S
C509 C508 1.516 . S
C509 C510 1.502 . S
C509 C511 1.561 . S
C509 C512 1.526 . S
C510 H494 0.959 . S
C510 H495 0.959 . S
C510 H496 0.961 . S
C510 C509 1.502 . S
C511 H497 0.960 . S
C511 H498 0.961 . S
C511 H499 0.959 . S
C511 C509 1.561 . S
C512 C509 1.526 . S
C512 C513 1.396 . S
C512 C517 1.390 . S
C513 C507 1.465 . S
C513 C512 1.396 . S
C513 C514 1.399 . S
C514 H500 0.929 . S
C514 C513 1.399 . S
C514 C515 1.385 . S
C515 H501 0.931 . S
C515 C514 1.385 . S
C515 C516 1.389 . S
C516 C515 1.389 . S
C516 C517 1.387 . S
C517 H502 0.930 . S
C517 C512 1.390 . S
C517 C516 1.387 . S
H518 C530 0.930 . S
H519 C532 0.930 . S
H520 C533 0.930 . S
H521 C537 0.959 . S
H522 C537 0.959 . S
H523 C537 0.961 . S
H524 C538 0.960 . S
H525 C538 0.961 . S
H526 C538 0.959 . S
H527 C541 0.929 . S
H528 C542 0.931 . S
H529 C544 0.930 . S
C530 H518 0.930 . S
C530 C531 1.399 . S
C530 C535 1.399 . S
C531 C530 1.399 . S
C531 C532 1.376 . S
C532 H519 0.930 . S
C532 C531 1.376 . S
C532 C533 1.388 . S
C533 H520 0.930 . S
C533 C532 1.388 . S
C533 C534 1.390 . S
C534 C533 1.390 . S
C534 C535 1.394 . S
C534 C540 1.465 . S
C535 C530 1.399 . S
C535 C534 1.394 . S
C535 C536 1.516 . S
C536 C535 1.516 . S
C536 C537 1.502 . S
C536 C538 1.561 . S
C536 C539 1.526 . S
C537 H521 0.959 . S
C537 H522 0.959 . S
C537 H523 0.961 . S
C537 C536 1.502 . S
C538 H524 0.960 . S
C538 H525 0.961 . S
C538 H526 0.959 . S
C538 C536 1.561 . S
C539 C536 1.526 . S
C539 C540 1.396 . S
C539 C544 1.390 . S
C540 C534 1.465 . S
C540 C539 1.396 . S
C540 C541 1.399 . S
C541 H527 0.929 . S
C541 C540 1.399 . S
C541 C542 1.385 . S
C542 H528 0.931 . S
C542 C541 1.385 . S
C542 C543 1.389 . S
C543 C542 1.389 . S
C543 C544 1.387 . S
C544 H529 0.930 . S
C544 C539 1.390 . S
C544 C543 1.387 . S
H545 C557 0.930 . S
H546 C559 0.930 . S
H547 C560 0.930 . S
H548 C564 0.959 . S
H549 C564 0.959 . S
H550 C564 0.961 . S
H551 C565 0.960 . S
H552 C565 0.961 . S
H553 C565 0.959 . S
H554 C568 0.929 . S
H555 C569 0.931 . S
H556 C571 0.930 . S
C557 H545 0.930 . S
C557 C558 1.399 . S
C557 C562 1.399 . S
C558 C557 1.399 . S
C558 C559 1.376 . S
C559 H546 0.930 . S
C559 C558 1.376 . S
C559 C560 1.388 . S
C560 H547 0.930 . S
C560 C559 1.388 . S
C560 C561 1.390 . S
C561 C560 1.390 . S
C561 C562 1.394 . S
C561 C567 1.465 . S
C562 C557 1.399 . S
C562 C561 1.394 . S
C562 C563 1.516 . S
C563 C562 1.516 . S
C563 C564 1.502 . S
C563 C565 1.561 . S
C563 C566 1.526 . S
C564 H548 0.959 . S
C564 H549 0.959 . S
C564 H550 0.961 . S
C564 C563 1.502 . S
C565 H551 0.960 . S
C565 H552 0.961 . S
C565 H553 0.959 . S
C565 C563 1.561 . S
C566 C563 1.526 . S
C566 C567 1.396 . S
C566 C571 1.390 . S
C567 C561 1.465 . S
C567 C566 1.396 . S
C567 C568 1.399 . S
C568 H554 0.929 . S
C568 C567 1.399 . S
C568 C569 1.385 . S
C569 H555 0.931 . S
C569 C568 1.385 . S
C569 C570 1.389 . S
C570 C569 1.389 . S
C570 C571 1.387 . S
C571 H556 0.930 . S
C571 C566 1.390 . S
C571 C570 1.387 . S
H572 C584 0.930 . S
H573 C586 0.930 . S
H574 C587 0.930 . S
H575 C591 0.959 . S
H576 C591 0.959 . S
H577 C591 0.961 . S
H578 C592 0.960 . S
H579 C592 0.961 . S
H580 C592 0.959 . S
H581 C595 0.929 . S
H582 C596 0.931 . S
H583 C598 0.930 . S
C584 H572 0.930 . S
C584 C585 1.399 . S
C584 C589 1.399 . S
C585 C584 1.399 . S
C585 C586 1.376 . S
C586 H573 0.930 . S
C586 C585 1.376 . S
C586 C587 1.388 . S
C587 H574 0.930 . S
C587 C586 1.388 . S
C587 C588 1.390 . S
C588 C587 1.390 . S
C588 C589 1.394 . S
C588 C594 1.465 . S
C589 C584 1.399 . S
C589 C588 1.394 . S
C589 C590 1.516 . S
C590 C589 1.516 . S
C590 C591 1.502 . S
C590 C592 1.561 . S
C590 C593 1.526 . S
C591 H575 0.959 . S
C591 H576 0.959 . S
C591 H577 0.961 . S
C591 C590 1.502 . S
C592 H578 0.960 . S
C592 H579 0.961 . S
C592 H580 0.959 . S
C592 C590 1.561 . S
C593 C590 1.526 . S
C593 C594 1.396 . S
C593 C598 1.390 . S
C594 C588 1.465 . S
C594 C593 1.396 . S
C594 C595 1.399 . S
C595 H581 0.929 . S
C595 C594 1.399 . S
C595 C596 1.385 . S
C596 H582 0.931 . S
C596 C595 1.385 . S
C596 C597 1.389 . S
C597 C596 1.389 . S
C597 C598 1.387 . S
C598 H583 0.930 . S
C598 C593 1.390 . S
C598 C597 1.387 . S
H599 C611 0.930 . S
H600 C613 0.930 . S
H601 C614 0.930 . S
H602 C618 0.959 . S
H603 C618 0.959 . S
H604 C618 0.961 . S
H605 C619 0.960 . S
H606 C619 0.961 . S
H607 C619 0.959 . S
H608 C622 0.929 . S
H609 C623 0.931 . S
H610 C625 0.930 . S
C611 H599 0.930 . S
C611 C612 1.399 . S
C611 C616 1.399 . S
C612 C611 1.399 . S
C612 C613 1.376 . S
C613 H600 0.930 . S
C613 C612 1.376 . S
C613 C614 1.388 . S
C614 H601 0.930 . S
C614 C613 1.388 . S
C614 C615 1.390 . S
C615 C614 1.390 . S
C615 C616 1.394 . S
C615 C621 1.465 . S
C616 C611 1.399 . S
C616 C615 1.394 . S
C616 C617 1.516 . S
C617 C616 1.516 . S
C617 C618 1.502 . S
C617 C619 1.561 . S
C617 C620 1.526 . S
C618 H602 0.959 . S
C618 H603 0.959 . S
C618 H604 0.961 . S
C618 C617 1.502 . S
C619 H605 0.960 . S
C619 H606 0.961 . S
C619 H607 0.959 . S
C619 C617 1.561 . S
C620 C617 1.526 . S
C620 C621 1.396 . S
C620 C625 1.390 . S
C621 C615 1.465 . S
C621 C620 1.396 . S
C621 C622 1.399 . S
C622 H608 0.929 . S
C622 C621 1.399 . S
C622 C623 1.385 . S
C623 H609 0.931 . S
C623 C622 1.385 . S
C623 C624 1.389 . S
C624 C623 1.389 . S
C624 C625 1.387 . S
C625 H610 0.930 . S
C625 C620 1.390 . S
C625 C624 1.387 . S
H626 C638 0.930 . S
H627 C640 0.930 . S
H628 C641 0.930 . S
H629 C645 0.959 . S
H630 C645 0.959 . S
H631 C645 0.961 . S
H632 C646 0.960 . S
H633 C646 0.961 . S
H634 C646 0.959 . S
H635 C649 0.929 . S
H636 C650 0.931 . S
H637 C652 0.930 . S
C638 H626 0.930 . S
C638 C639 1.399 . S
C638 C643 1.399 . S
C639 C638 1.399 . S
C639 C640 1.376 . S
C640 H627 0.930 . S
C640 C639 1.376 . S
C640 C641 1.388 . S
C641 H628 0.930 . S
C641 C640 1.388 . S
C641 C642 1.390 . S
C642 C641 1.390 . S
C642 C643 1.394 . S
C642 C648 1.465 . S
C643 C638 1.399 . S
C643 C642 1.394 . S
C643 C644 1.516 . S
C644 C643 1.516 . S
C644 C645 1.502 . S
C644 C646 1.561 . S
C644 C647 1.526 . S
C645 H629 0.959 . S
C645 H630 0.959 . S
C645 H631 0.961 . S
C645 C644 1.502 . S
C646 H632 0.960 . S
C646 H633 0.961 . S
C646 H634 0.959 . S
C646 C644 1.561 . S
C647 C644 1.526 . S
C647 C648 1.396 . S
C647 C652 1.390 . S
C648 C642 1.465 . S
C648 C647 1.396 . S
C648 C649 1.399 . S
C649 H635 0.929 . S
C649 C648 1.399 . S
C649 C650 1.385 . S
C650 H636 0.931 . S
C650 C649 1.385 . S
C650 C651 1.389 . S
C651 C650 1.389 . S
C651 C652 1.387 . S
C652 H637 0.930 . S
C652 C647 1.390 . S
C652 C651 1.387 . S
H653 C665 0.930 . S
H654 C667 0.930 . S
H655 C668 0.930 . S
H656 C672 0.959 . S
H657 C672 0.959 . S
H658 C672 0.961 . S
H659 C673 0.960 . S
H660 C673 0.961 . S
H661 C673 0.959 . S
H662 C676 0.929 . S
H663 C677 0.931 . S
H664 C679 0.930 . S
C665 H653 0.930 . S
C665 C666 1.399 . S
C665 C670 1.399 . S
C666 C665 1.399 . S
C666 C667 1.376 . S
C667 H654 0.930 . S
C667 C666 1.376 . S
C667 C668 1.388 . S
C668 H655 0.930 . S
C668 C667 1.388 . S
C668 C669 1.390 . S
C669 C668 1.390 . S
C669 C670 1.394 . S
C669 C675 1.465 . S
C670 C665 1.399 . S
C670 C669 1.394 . S
C670 C671 1.516 . S
C671 C670 1.516 . S
C671 C672 1.502 . S
C671 C673 1.561 . S
C671 C674 1.526 . S
C672 H656 0.959 . S
C672 H657 0.959 . S
C672 H658 0.961 . S
C672 C671 1.502 . S
C673 H659 0.960 . S
C673 H660 0.961 . S
C673 H661 0.959 . S
C673 C671 1.561 . S
C674 C671 1.526 . S
C674 C675 1.396 . S
C674 C679 1.390 . S
C675 C669 1.465 . S
C675 C674 1.396 . S
C675 C676 1.399 . S
C676 H662 0.929 . S
C676 C675 1.399 . S
C676 C677 1.385 . S
C677 H663 0.931 . S
C677 C676 1.385 . S
C677 C678 1.389 . S
C678 C677 1.389 . S
C678 C679 1.387 . S
C679 H664 0.930 . S
C679 C674 1.390 . S
C679 C678 1.387 . S
H680 C692 0.930 . S
H681 C694 0.930 . S
H682 C695 0.930 . S
H683 C699 0.959 . S
H684 C699 0.959 . S
H685 C699 0.961 . S
H686 C700 0.960 . S
H687 C700 0.961 . S
H688 C700 0.959 . S
H689 C703 0.929 . S
H690 C704 0.931 . S
H691 C706 0.930 . S
C692 H680 0.930 . S
C692 C693 1.399 . S
C692 C697 1.399 . S
C693 C692 1.399 . S
C693 C694 1.376 . S
C694 H681 0.930 . S
C694 C693 1.376 . S
C694 C695 1.388 . S
C695 H682 0.930 . S
C695 C694 1.388 . S
C695 C696 1.390 . S
C696 C695 1.390 . S
C696 C697 1.394 . S
C696 C702 1.465 . S
C697 C692 1.399 . S
C697 C696 1.394 . S
C697 C698 1.516 . S
C698 C697 1.516 . S
C698 C699 1.502 . S
C698 C700 1.561 . S
C698 C701 1.526 . S
C699 H683 0.959 . S
C699 H684 0.959 . S
C699 H685 0.961 . S
C699 C698 1.502 . S
C700 H686 0.960 . S
C700 H687 0.961 . S
C700 H688 0.959 . S
C700 C698 1.561 . S
C701 C698 1.526 . S
C701 C702 1.396 . S
C701 C706 1.390 . S
C702 C696 1.465 . S
C702 C701 1.396 . S
C702 C703 1.399 . S
C703 H689 0.929 . S
C703 C702 1.399 . S
C703 C704 1.385 . S
C704 H690 0.931 . S
C704 C703 1.385 . S
C704 C705 1.389 . S
C705 C704 1.389 . S
C705 C706 1.387 . S
C706 H691 0.930 . S
C706 C701 1.390 . S
C706 C705 1.387 . S
H707 C719 0.930 . S
H708 C721 0.930 . S
H709 C722 0.930 . S
H710 C726 0.959 . S
H711 C726 0.959 . S
H712 C726 0.961 . S
H713 C727 0.960 . S
H714 C727 0.961 . S
H715 C727 0.959 . S
H716 C730 0.929 . S
H717 C731 0.931 . S
H718 C733 0.930 . S
C719 H707 0.930 . S
C719 C720 1.399 1_565 S
C719 C724 1.399 . S
C720 C719 1.399 1_545 S
C720 C721 1.376 . S
C721 H708 0.930 . S
C721 C720 1.376 . S
C721 C722 1.388 1_545 S
C722 H709 0.930 . S
C722 C721 1.388 1_565 S
C722 C723 1.390 . S
C723 C722 1.390 . S
C723 C724 1.394 . S
C723 C729 1.465 . S
C724 C719 1.399 . S
C724 C723 1.394 . S
C724 C725 1.516 . S
C725 C724 1.516 . S
C725 C726 1.502 . S
C725 C727 1.561 . S
C725 C728 1.526 . S
C726 H710 0.959 . S
C726 H711 0.959 . S
C726 H712 0.961 . S
C726 C725 1.502 . S
C727 H713 0.960 . S
C727 H714 0.961 . S
C727 H715 0.959 . S
C727 C725 1.561 . S
C728 C725 1.526 . S
C728 C729 1.396 . S
C728 C733 1.390 . S
C729 C723 1.465 . S
C729 C728 1.396 . S
C729 C730 1.399 . S
C730 H716 0.929 . S
C730 C729 1.399 . S
C730 C731 1.385 . S
C731 H717 0.931 . S
C731 C730 1.385 . S
C731 C732 1.389 . S
C732 C731 1.389 . S
C732 C733 1.387 . S
C733 H718 0.930 . S
C733 C728 1.390 . S
C733 C732 1.387 . S
H734 C746 0.930 . S
H735 C748 0.930 . S
H736 C749 0.930 . S
H737 C753 0.959 . S
H738 C753 0.959 . S
H739 C753 0.961 . S
H740 C754 0.960 . S
H741 C754 0.961 . S
H742 C754 0.959 . S
H743 C757 0.929 . S
H744 C758 0.931 . S
H745 C760 0.930 . S
C746 H734 0.930 . S
C746 C747 1.399 . S
C746 C751 1.399 . S
C747 C746 1.399 . S
C747 C748 1.376 . S
C748 H735 0.930 . S
C748 C747 1.376 . S
C748 C749 1.388 . S
C749 H736 0.930 . S
C749 C748 1.388 . S
C749 C750 1.390 . S
C750 C749 1.390 . S
C750 C751 1.394 . S
C750 C756 1.465 . S
C751 C746 1.399 . S
C751 C750 1.394 . S
C751 C752 1.516 . S
C752 C751 1.516 . S
C752 C753 1.502 . S
C752 C754 1.561 . S
C752 C755 1.526 . S
C753 H737 0.959 . S
C753 H738 0.959 . S
C753 H739 0.961 . S
C753 C752 1.502 . S
C754 H740 0.960 . S
C754 H741 0.961 . S
C754 H742 0.959 . S
C754 C752 1.561 . S
C755 C752 1.526 . S
C755 C756 1.396 . S
C755 C760 1.390 . S
C756 C750 1.465 . S
C756 C755 1.396 . S
C756 C757 1.399 . S
C757 H743 0.929 . S
C757 C756 1.399 . S
C757 C758 1.385 . S
C758 H744 0.931 . S
C758 C757 1.385 . S
C758 C759 1.389 . S
C759 C758 1.389 . S
C759 C760 1.387 . S
C760 H745 0.930 . S
C760 C755 1.390 . S
C760 C759 1.387 . S
H761 C773 0.930 . S
H762 C775 0.930 . S
H763 C776 0.930 . S
H764 C780 0.959 . S
H765 C780 0.959 . S
H766 C780 0.961 . S
H767 C781 0.960 . S
H768 C781 0.961 . S
H769 C781 0.959 . S
H770 C784 0.929 . S
H771 C785 0.931 . S
H772 C787 0.930 . S
C773 H761 0.930 . S
C773 C774 1.399 . S
C773 C778 1.399 . S
C774 C773 1.399 . S
C774 C775 1.376 . S
C775 H762 0.930 . S
C775 C774 1.376 . S
C775 C776 1.388 . S
C776 H763 0.930 . S
C776 C775 1.388 . S
C776 C777 1.390 . S
C777 C776 1.390 . S
C777 C778 1.394 . S
C777 C783 1.465 . S
C778 C773 1.399 . S
C778 C777 1.394 . S
C778 C779 1.516 . S
C779 C778 1.516 . S
C779 C780 1.502 . S
C779 C781 1.561 . S
C779 C782 1.526 . S
C780 H764 0.959 . S
C780 H765 0.959 . S
C780 H766 0.961 . S
C780 C779 1.502 . S
C781 H767 0.960 . S
C781 H768 0.961 . S
C781 H769 0.959 . S
C781 C779 1.561 . S
C782 C779 1.526 . S
C782 C783 1.396 . S
C782 C787 1.390 . S
C783 C777 1.465 . S
C783 C782 1.396 . S
C783 C784 1.399 1_545 S
C784 H770 0.929 . S
C784 C783 1.399 1_565 S
C784 C785 1.385 . S
C785 H771 0.931 . S
C785 C784 1.385 . S
C785 C786 1.389 . S
C786 C785 1.389 . S
C786 C787 1.387 1_565 S
C787 H772 0.930 . S
C787 C782 1.390 . S
C787 C786 1.387 1_545 S
H788 C800 0.930 . S
H789 C802 0.930 . S
H790 C803 0.930 . S
H791 C807 0.959 . S
H792 C807 0.959 . S
H793 C807 0.961 . S
H794 C808 0.960 . S
H795 C808 0.961 . S
H796 C808 0.959 . S
H797 C811 0.929 . S
H798 C812 0.931 . S
H799 C814 0.930 . S
C800 H788 0.930 . S
C800 C801 1.399 . S
C800 C805 1.399 . S
C801 C800 1.399 . S
C801 C802 1.376 . S
C802 H789 0.930 . S
C802 C801 1.376 . S
C802 C803 1.388 . S
C803 H790 0.930 . S
C803 C802 1.388 . S
C803 C804 1.390 . S
C804 C803 1.390 . S
C804 C805 1.394 . S
C804 C810 1.465 . S
C805 C800 1.399 . S
C805 C804 1.394 . S
C805 C806 1.516 . S
C806 C805 1.516 . S
C806 C807 1.502 . S
C806 C808 1.561 . S
C806 C809 1.526 . S
C807 H791 0.959 . S
C807 H792 0.959 . S
C807 H793 0.961 . S
C807 C806 1.502 . S
C808 H794 0.960 . S
C808 H795 0.961 . S
C808 H796 0.959 . S
C808 C806 1.561 . S
C809 C806 1.526 . S
C809 C810 1.396 . S
C809 C814 1.390 . S
C810 C804 1.465 . S
C810 C809 1.396 . S
C810 C811 1.399 . S
C811 H797 0.929 . S
C811 C810 1.399 . S
C811 C812 1.385 . S
C812 H798 0.931 . S
C812 C811 1.385 . S
C812 C813 1.389 . S
C813 C812 1.389 . S
C813 C814 1.387 . S
C814 H799 0.930 . S
C814 C809 1.390 . S
C814 C813 1.387 . S
H815 C827 0.930 . S
H816 C829 0.930 . S
H817 C830 0.930 . S
H818 C834 0.959 . S
H819 C834 0.959 . S
H820 C834 0.961 . S
H821 C835 0.960 . S
H822 C835 0.961 . S
H823 C835 0.959 . S
H824 C838 0.929 . S
H825 C839 0.931 . S
H826 C841 0.930 . S
C827 H815 0.930 . S
C827 C828 1.399 1_545 S
C827 C832 1.399 . S
C828 C827 1.399 1_565 S
C828 C829 1.376 . S
C829 H816 0.930 . S
C829 C828 1.376 . S
C829 C830 1.388 1_565 S
C830 H817 0.930 . S
C830 C829 1.388 1_545 S
C830 C831 1.390 . S
C831 C830 1.390 . S
C831 C832 1.394 . S
C831 C837 1.465 . S
C832 C827 1.399 . S
C832 C831 1.394 . S
C832 C833 1.516 . S
C833 C832 1.516 . S
C833 C834 1.502 . S
C833 C835 1.561 . S
C833 C836 1.526 . S
C834 H818 0.959 . S
C834 H819 0.959 . S
C834 H820 0.961 . S
C834 C833 1.502 . S
C835 H821 0.960 . S
C835 H822 0.961 . S
C835 H823 0.959 . S
C835 C833 1.561 . S
C836 C833 1.526 . S
C836 C837 1.396 . S
C836 C841 1.390 . S
C837 C831 1.465 . S
C837 C836 1.396 . S
C837 C838 1.399 . S
C838 H824 0.929 . S
C838 C837 1.399 . S
C838 C839 1.385 . S
C839 H825 0.931 . S
C839 C838 1.385 . S
C839 C840 1.389 . S
C840 C839 1.389 . S
C840 C841 1.387 . S
C841 H826 0.930 . S
C841 C836 1.390 . S
C841 C840 1.387 . S
H842 C854 0.930 . S
H843 C856 0.930 . S
H844 C857 0.930 . S
H845 C861 0.959 . S
H846 C861 0.959 . S
H847 C861 0.961 . S
H848 C862 0.960 . S
H849 C862 0.961 . S
H850 C862 0.959 . S
H851 C865 0.929 . S
H852 C866 0.931 . S
H853 C868 0.930 . S
C854 H842 0.930 . S
C854 C855 1.399 . S
C854 C859 1.399 . S
C855 C854 1.399 . S
C855 C856 1.376 . S
C856 H843 0.930 . S
C856 C855 1.376 . S
C856 C857 1.388 . S
C857 H844 0.930 . S
C857 C856 1.388 . S
C857 C858 1.390 . S
C858 C857 1.390 . S
C858 C859 1.394 . S
C858 C864 1.465 . S
C859 C854 1.399 . S
C859 C858 1.394 . S
C859 C860 1.516 . S
C860 C859 1.516 . S
C860 C861 1.502 . S
C860 C862 1.561 . S
C860 C863 1.526 . S
C861 H845 0.959 . S
C861 H846 0.959 . S
C861 H847 0.961 . S
C861 C860 1.502 . S
C862 H848 0.960 . S
C862 H849 0.961 . S
C862 H850 0.959 . S
C862 C860 1.561 . S
C863 C860 1.526 . S
C863 C864 1.396 . S
C863 C868 1.390 . S
C864 C858 1.465 . S
C864 C863 1.396 . S
C864 C865 1.399 . S
C865 H851 0.929 . S
C865 C864 1.399 . S
C865 C866 1.385 . S
C866 H852 0.931 . S
C866 C865 1.385 . S
C866 C867 1.389 . S
C867 C866 1.389 . S
C867 C868 1.387 . S
C868 H853 0.930 . S
C868 C863 1.390 . S
C868 C867 1.387 . S
H869 C881 0.930 . S
H870 C883 0.930 . S
H871 C884 0.930 . S
H872 C888 0.959 . S
H873 C888 0.959 . S
H874 C888 0.961 . S
H875 C889 0.960 . S
H876 C889 0.961 . S
H877 C889 0.959 . S
H878 C892 0.929 . S
H879 C893 0.931 . S
H880 C895 0.930 . S
C881 H869 0.930 . S
C881 C882 1.399 . S
C881 C886 1.399 . S
C882 C881 1.399 . S
C882 C883 1.376 . S
C883 H870 0.930 . S
C883 C882 1.376 . S
C883 C884 1.388 . S
C884 H871 0.930 . S
C884 C883 1.388 . S
C884 C885 1.390 . S
C885 C884 1.390 . S
C885 C886 1.394 . S
C885 C891 1.465 . S
C886 C881 1.399 . S
C886 C885 1.394 . S
C886 C887 1.516 . S
C887 C886 1.516 . S
C887 C888 1.502 . S
C887 C889 1.561 . S
C887 C890 1.526 . S
C888 H872 0.959 . S
C888 H873 0.959 . S
C888 H874 0.961 . S
C888 C887 1.502 . S
C889 H875 0.960 . S
C889 H876 0.961 . S
C889 H877 0.959 . S
C889 C887 1.561 . S
C890 C887 1.526 . S
C890 C891 1.396 . S
C890 C895 1.390 . S
C891 C885 1.465 . S
C891 C890 1.396 . S
C891 C892 1.399 1_565 S
C892 H878 0.929 . S
C892 C891 1.399 1_545 S
C892 C893 1.385 . S
C893 H879 0.931 . S
C893 C892 1.385 . S
C893 C894 1.389 . S
C894 C893 1.389 . S
C894 C895 1.387 1_545 S
C895 H880 0.930 . S
C895 C890 1.390 . S
C895 C894 1.387 1_565 S
H896 C908 0.898 1_556 S
H897 C910 0.930 . S
H898 C911 0.930 . S
H899 C915 0.959 . S
H900 C915 0.959 . S
H901 C915 0.961 . S
H902 C916 0.960 . S
H903 C916 0.961 . S
H904 C916 0.959 . S
H905 C919 0.929 . S
H906 C920 0.931 1_554 S
H907 C922 0.930 . S
C908 H896 0.898 1_554 S
C908 C909 1.444 . S
C908 C913 1.388 1_554 S
C909 C908 1.444 . S
C909 C910 1.376 . S
C910 H897 0.930 . S
C910 C909 1.376 . S
C910 C911 1.388 . S
C911 H898 0.930 . S
C911 C910 1.388 . S
C911 C912 1.390 . S
C912 C911 1.390 . S
C912 C913 1.394 1_554 S
C912 C918 1.465 . S
C913 C908 1.388 1_556 S
C913 C912 1.394 1_556 S
C913 C914 1.516 . S
C914 C913 1.516 . S
C914 C915 1.502 . S
C914 C916 1.561 . S
C914 C917 1.526 . S
C915 H899 0.959 . S
C915 H900 0.959 . S
C915 H901 0.961 . S
C915 C914 1.502 . S
C916 H902 0.960 . S
C916 H903 0.961 . S
C916 H904 0.959 . S
C916 C914 1.561 . S
C917 C914 1.526 . S
C917 C918 1.396 1_556 S
C917 C922 1.390 . S
C918 C912 1.465 . S
C918 C917 1.396 1_554 S
C918 C919 1.399 . S
C919 H905 0.929 . S
C919 C918 1.399 . S
C919 C920 1.385 1_554 S
C920 H906 0.931 1_556 S
C920 C919 1.385 1_556 S
C920 C921 1.389 . S
C921 C920 1.389 . S
C921 C922 1.387 . S
C922 H907 0.930 . S
C922 C917 1.390 . S
C922 C921 1.387 . S
H923 C935 0.930 . S
H924 C937 0.930 . S
H925 C938 0.930 . S
H926 C942 0.959 . S
H927 C942 0.959 . S
H928 C942 0.961 . S
H929 C943 0.960 . S
H930 C943 0.961 . S
H931 C943 0.959 . S
H932 C946 0.929 . S
H933 C947 0.931 . S
H934 C949 0.930 . S
C935 H923 0.930 . S
C935 C936 1.399 . S
C935 C940 1.399 . S
C936 C935 1.399 . S
C936 C937 1.376 . S
C937 H924 0.930 . S
C937 C936 1.376 . S
C937 C938 1.388 . S
C938 H925 0.930 . S
C938 C937 1.388 . S
C938 C939 1.390 . S
C939 C938 1.390 . S
C939 C940 1.394 . S
C939 C945 1.465 . S
C940 C935 1.399 . S
C940 C939 1.394 . S
C940 C941 1.516 . S
C941 C940 1.516 . S
C941 C942 1.502 . S
C941 C943 1.561 . S
C941 C944 1.526 . S
C942 H926 0.959 . S
C942 H927 0.959 . S
C942 H928 0.961 . S
C942 C941 1.502 . S
C943 H929 0.960 . S
C943 H930 0.961 . S
C943 H931 0.959 . S
C943 C941 1.561 . S
C944 C941 1.526 . S
C944 C945 1.396 . S
C944 C949 1.390 . S
C945 C939 1.465 . S
C945 C944 1.396 . S
C945 C946 1.399 . S
C946 H932 0.929 . S
C946 C945 1.399 . S
C946 C947 1.385 . S
C947 H933 0.931 . S
C947 C946 1.385 . S
C947 C948 1.389 . S
C948 C947 1.389 . S
C948 C949 1.387 . S
C949 H934 0.930 . S
C949 C944 1.390 . S
C949 C948 1.387 . S
H950 C962 0.930 . S
H951 C964 0.930 . S
H952 C965 0.930 . S
H953 C969 0.959 . S
H954 C969 0.959 . S
H955 C969 0.961 . S
H956 C970 0.960 . S
H957 C970 0.961 . S
H958 C970 0.959 . S
H959 C973 0.929 . S
H960 C974 0.931 . S
H961 C976 0.930 . S
C962 H950 0.930 . S
C962 C963 1.399 . S
C962 C967 1.399 . S
C963 C962 1.399 . S
C963 C964 1.376 . S
C964 H951 0.930 . S
C964 C963 1.376 . S
C964 C965 1.388 . S
C965 H952 0.930 . S
C965 C964 1.388 . S
C965 C966 1.390 . S
C966 C965 1.390 . S
C966 C967 1.394 . S
C966 C972 1.465 . S
C967 C962 1.399 . S
C967 C966 1.394 . S
C967 C968 1.516 . S
C968 C967 1.516 . S
C968 C969 1.502 . S
C968 C970 1.561 . S
C968 C971 1.526 . S
C969 H953 0.959 . S
C969 H954 0.959 . S
C969 H955 0.961 . S
C969 C968 1.502 . S
C970 H956 0.960 . S
C970 H957 0.961 . S
C970 H958 0.959 . S
C970 C968 1.561 . S
C971 C968 1.526 . S
C971 C972 1.396 . S
C971 C976 1.390 . S
C972 C966 1.465 . S
C972 C971 1.396 . S
C972 C973 1.399 . S
C973 H959 0.929 . S
C973 C972 1.399 . S
C973 C974 1.385 . S
C974 H960 0.931 . S
C974 C973 1.385 . S
C974 C975 1.389 . S
C975 C974 1.389 . S
C975 C976 1.387 . S
C976 H961 0.930 . S
C976 C971 1.390 . S
C976 C975 1.387 . S
H977 C989 0.930 . S
H978 C991 0.930 . S
H979 C992 0.930 . S
H980 C996 0.959 . S
H981 C996 0.959 . S
H982 C996 0.961 . S
H983 C997 0.960 . S
H984 C997 0.961 . S
H985 C997 0.959 . S
H986 C1000 0.929 . S
H987 C1001 0.931 . S
H988 C1003 0.930 . S
C989 H977 0.930 . S
C989 C990 1.399 . S
C989 C994 1.399 . S
C990 C989 1.399 . S
C990 C991 1.376 . S
C991 H978 0.930 . S
C991 C990 1.376 . S
C991 C992 1.388 . S
C992 H979 0.930 . S
C992 C991 1.388 . S
C992 C993 1.390 . S
C993 C992 1.390 . S
C993 C994 1.394 . S
C993 C999 1.465 . S
C994 C989 1.399 . S
C994 C993 1.394 . S
C994 C995 1.516 . S
C995 C994 1.516 . S
C995 C996 1.502 . S
C995 C997 1.561 . S
C995 C998 1.526 . S
C996 H980 0.959 . S
C996 H981 0.959 . S
C996 H982 0.961 . S
C996 C995 1.502 . S
C997 H983 0.960 . S
C997 H984 0.961 . S
C997 H985 0.959 . S
C997 C995 1.561 . S
C998 C995 1.526 . S
C998 C999 1.396 . S
C998 C1003 1.390 . S
C999 C993 1.465 . S
C999 C998 1.396 . S
C999 C1000 1.399 . S
C1000 H986 0.929 . S
C1000 C999 1.399 . S
C1000 C1001 1.385 . S
C1001 H987 0.931 . S
C1001 C1000 1.385 . S
C1001 C1002 1.389 . S
C1002 C1001 1.389 . S
C1002 C1003 1.387 . S
C1003 H988 0.930 . S
C1003 C998 1.390 . S
C1003 C1002 1.387 . S
H1004 C1016 0.930 1_556 S
H1005 C1018 0.930 . S
H1006 C1019 0.930 . S
H1007 C1023 0.959 . S
H1008 C1023 0.959 . S
H1009 C1023 0.961 . S
H1010 C1024 0.960 . S
H1011 C1024 0.961 . S
H1012 C1024 0.984 . S
H1013 C1027 0.929 . S
H1014 C1028 0.931 . S
H1015 C1030 0.930 . S
C1016 H1004 0.930 1_554 S
C1016 C1017 1.399 . S
C1016 C1021 1.399 . S
C1017 C1016 1.399 . S
C1017 C1018 1.376 . S
C1018 H1005 0.930 . S
C1018 C1017 1.376 . S
C1018 C1019 1.388 . S
C1019 H1006 0.930 . S
C1019 C1018 1.388 . S
C1019 C1020 1.390 . S
C1020 C1019 1.390 . S
C1020 C1021 1.394 . S
C1020 C1026 1.465 . S
C1021 C1016 1.399 . S
C1021 C1020 1.394 . S
C1021 C1022 1.516 1_554 S
C1022 C1021 1.516 1_556 S
C1022 C1023 1.502 . S
C1022 C1024 1.561 . S
C1022 C1025 1.526 . S
C1023 H1007 0.959 . S
C1023 H1008 0.959 . S
C1023 H1009 0.961 . S
C1023 C1022 1.502 . S
C1024 H1010 0.960 . S
C1024 H1011 0.961 . S
C1024 H1012 0.984 . S
C1024 C1022 1.561 . S
C1025 C1022 1.526 . S
C1025 C1026 1.396 1_556 S
C1025 C1030 1.390 . S
C1026 C1020 1.465 . S
C1026 C1025 1.396 1_554 S
C1026 C1027 1.399 . S
C1027 H1013 0.929 . S
C1027 C1026 1.399 . S
C1027 C1028 1.385 . S
C1028 H1014 0.931 . S
C1028 C1027 1.385 . S
C1028 C1029 1.389 1_554 S
C1029 C1028 1.389 1_556 S
C1029 C1030 1.387 . S
C1030 H1015 0.930 . S
C1030 C1025 1.390 . S
C1030 C1029 1.387 . S
H1031 C1043 0.930 . S
H1032 C1045 0.930 . S
H1033 C1046 0.930 . S
H1034 C1050 0.959 . S
H1035 C1050 0.959 . S
H1036 C1050 0.961 . S
H1037 C1051 0.960 . S
H1038 C1051 0.961 . S
H1039 C1051 0.959 . S
H1040 C1054 0.929 . S
H1041 C1055 0.931 . S
H1042 C1057 0.930 . S
C1043 H1031 0.930 . S
C1043 C1044 1.399 . S
C1043 C1048 1.399 . S
C1044 C1043 1.399 . S
C1044 C1045 1.376 . S
C1045 H1032 0.930 . S
C1045 C1044 1.376 . S
C1045 C1046 1.388 . S
C1046 H1033 0.930 . S
C1046 C1045 1.388 . S
C1046 C1047 1.390 . S
C1047 C1046 1.390 . S
C1047 C1048 1.394 . S
C1047 C1053 1.465 . S
C1048 C1043 1.399 . S
C1048 C1047 1.394 . S
C1048 C1049 1.516 . S
C1049 C1048 1.516 . S
C1049 C1050 1.502 . S
C1049 C1051 1.561 . S
C1049 C1052 1.526 . S
C1050 H1034 0.959 . S
C1050 H1035 0.959 . S
C1050 H1036 0.961 . S
C1050 C1049 1.502 . S
C1051 H1037 0.960 . S
C1051 H1038 0.961 . S
C1051 H1039 0.959 . S
C1051 C1049 1.561 . S
C1052 C1049 1.526 . S
C1052 C1053 1.396 . S
C1052 C1057 1.390 . S
C1053 C1047 1.465 . S
C1053 C1052 1.396 . S
C1053 C1054 1.399 . S
C1054 H1040 0.929 . S
C1054 C1053 1.399 . S
C1054 C1055 1.385 . S
C1055 H1041 0.931 . S
C1055 C1054 1.385 . S
C1055 C1056 1.389 . S
C1056 C1055 1.389 . S
C1056 C1057 1.387 . S
C1057 H1042 0.930 . S
C1057 C1052 1.390 . S
C1057 C1056 1.387 . S
H1058 C1070 0.930 . S
H1059 C1072 0.930 . S
H1060 C1073 0.930 . S
H1061 C1077 0.959 . S
H1062 C1077 0.959 . S
H1063 C1077 0.961 . S
H1064 C1078 0.960 . S
H1065 C1078 0.961 . S
H1066 C1078 0.959 . S
H1067 C1081 0.929 . S
H1068 C1082 0.931 . S
H1069 C1084 0.930 . S
C1070 H1058 0.930 . S
C1070 C1071 1.399 . S
C1070 C1075 1.399 . S
C1071 C1070 1.399 . S
C1071 C1072 1.376 . S
C1072 H1059 0.930 . S
C1072 C1071 1.376 . S
C1072 C1073 1.388 . S
C1073 H1060 0.930 . S
C1073 C1072 1.388 . S
C1073 C1074 1.390 . S
C1074 C1073 1.390 . S
C1074 C1075 1.394 . S
C1074 C1080 1.465 . S
C1075 C1070 1.399 . S
C1075 C1074 1.394 . S
C1075 C1076 1.516 . S
C1076 C1075 1.516 . S
C1076 C1077 1.502 . S
C1076 C1078 1.561 . S
C1076 C1079 1.526 . S
C1077 H1061 0.959 . S
C1077 H1062 0.959 . S
C1077 H1063 0.961 . S
C1077 C1076 1.502 . S
C1078 H1064 0.960 . S
C1078 H1065 0.961 . S
C1078 H1066 0.959 . S
C1078 C1076 1.561 . S
C1079 C1076 1.526 . S
C1079 C1080 1.396 . S
C1079 C1084 1.390 . S
C1080 C1074 1.465 . S
C1080 C1079 1.396 . S
C1080 C1081 1.399 . S
C1081 H1067 0.929 . S
C1081 C1080 1.399 . S
C1081 C1082 1.385 . S
C1082 H1068 0.931 . S
C1082 C1081 1.385 . S
C1082 C1083 1.389 . S
C1083 C1082 1.389 . S
C1083 C1084 1.387 . S
C1084 H1069 0.930 . S
C1084 C1079 1.390 . S
C1084 C1083 1.387 . S
H1085 C1097 0.930 . S
H1086 C1099 0.930 . S
H1087 C1100 0.930 . S
H1088 C1104 0.959 . S
H1089 C1104 0.959 . S
H1090 C1104 0.961 . S
H1091 C1105 0.960 . S
H1092 C1105 0.961 . S
H1093 C1105 0.959 . S
H1094 C1108 0.929 . S
H1095 C1109 0.931 . S
H1096 C1111 0.930 . S
C1097 H1085 0.930 . S
C1097 C1098 1.399 . S
C1097 C1102 1.399 . S
C1098 C1097 1.399 . S
C1098 C1099 1.376 . S
C1099 H1086 0.930 . S
C1099 C1098 1.376 . S
C1099 C1100 1.388 . S
C1100 H1087 0.930 . S
C1100 C1099 1.388 . S
C1100 C1101 1.390 . S
C1101 C1100 1.390 . S
C1101 C1102 1.394 . S
C1101 C1107 1.465 . S
C1102 C1097 1.399 . S
C1102 C1101 1.394 . S
C1102 C1103 1.516 . S
C1103 C1102 1.516 . S
C1103 C1104 1.502 . S
C1103 C1105 1.561 . S
C1103 C1106 1.526 . S
C1104 H1088 0.959 . S
C1104 H1089 0.959 . S
C1104 H1090 0.961 . S
C1104 C1103 1.502 . S
C1105 H1091 0.960 . S
C1105 H1092 0.961 . S
C1105 H1093 0.959 . S
C1105 C1103 1.561 . S
C1106 C1103 1.526 . S
C1106 C1107 1.396 . S
C1106 C1111 1.390 . S
C1107 C1101 1.465 . S
C1107 C1106 1.396 . S
C1107 C1108 1.399 . S
C1108 H1094 0.929 . S
C1108 C1107 1.399 . S
C1108 C1109 1.385 . S
C1109 H1095 0.931 . S
C1109 C1108 1.385 . S
C1109 C1110 1.389 . S
C1110 C1109 1.389 . S
C1110 C1111 1.387 . S
C1111 H1096 0.930 . S
C1111 C1106 1.390 . S
C1111 C1110 1.387 . S
H1112 C1124 0.930 . S
H1113 C1126 0.930 . S
H1114 C1127 0.930 . S
H1115 C1131 0.959 . S
H1116 C1131 0.959 . S
H1117 C1131 0.961 . S
H1118 C1132 0.960 . S
H1119 C1132 0.961 . S
H1120 C1132 0.959 . S
H1121 C1135 0.929 . S
H1122 C1136 0.931 . S
H1123 C1138 0.930 . S
C1124 H1112 0.930 . S
C1124 C1125 1.399 . S
C1124 C1129 1.399 . S
C1125 C1124 1.399 . S
C1125 C1126 1.376 . S
C1126 H1113 0.930 . S
C1126 C1125 1.376 . S
C1126 C1127 1.388 . S
C1127 H1114 0.930 . S
C1127 C1126 1.388 . S
C1127 C1128 1.390 . S
C1128 C1127 1.390 . S
C1128 C1129 1.394 . S
C1128 C1134 1.465 . S
C1129 C1124 1.399 . S
C1129 C1128 1.394 . S
C1129 C1130 1.516 . S
C1130 C1129 1.516 . S
C1130 C1131 1.502 . S
C1130 C1132 1.561 . S
C1130 C1133 1.526 . S
C1131 H1115 0.959 . S
C1131 H1116 0.959 . S
C1131 H1117 0.961 . S
C1131 C1130 1.502 . S
C1132 H1118 0.960 . S
C1132 H1119 0.961 . S
C1132 H1120 0.959 . S
C1132 C1130 1.561 . S
C1133 C1130 1.526 . S
C1133 C1134 1.396 . S
C1133 C1138 1.390 . S
C1134 C1128 1.465 . S
C1134 C1133 1.396 . S
C1134 C1135 1.399 . S
C1135 H1121 0.929 . S
C1135 C1134 1.399 . S
C1135 C1136 1.385 . S
C1136 H1122 0.931 . S
C1136 C1135 1.385 . S
C1136 C1137 1.389 . S
C1137 C1136 1.389 . S
C1137 C1138 1.387 . S
C1138 H1123 0.930 . S
C1138 C1133 1.390 . S
C1138 C1137 1.387 . S
H1139 C1151 0.930 . S
H1140 C1153 0.930 . S
H1141 C1154 0.930 . S
H1142 C1158 0.959 . S
H1143 C1158 0.959 . S
H1144 C1158 0.961 . S
H1145 C1159 0.960 . S
H1146 C1159 0.961 . S
H1147 C1159 0.959 . S
H1148 C1162 0.929 . S
H1149 C1163 0.931 . S
H1150 C1165 0.930 1_565 S
C1151 H1139 0.930 . S
C1151 C1152 1.399 1_565 S
C1151 C1156 1.399 1_565 S
C1152 C1151 1.399 1_545 S
C1152 C1153 1.376 . S
C1153 H1140 0.930 . S
C1153 C1152 1.376 . S
C1153 C1154 1.388 . S
C1154 H1141 0.930 . S
C1154 C1153 1.388 . S
C1154 C1155 1.390 . S
C1155 C1154 1.390 . S
C1155 C1156 1.394 . S
C1155 C1161 1.465 . S
C1156 C1151 1.399 1_545 S
C1156 C1155 1.394 . S
C1156 C1157 1.516 1_545 S
C1157 C1156 1.516 1_565 S
C1157 C1158 1.502 . S
C1157 C1159 1.561 . S
C1157 C1160 1.526 1_565 S
C1158 H1142 0.959 . S
C1158 H1143 0.959 . S
C1158 H1144 0.961 . S
C1158 C1157 1.502 . S
C1159 H1145 0.960 . S
C1159 H1146 0.961 . S
C1159 H1147 0.959 . S
C1159 C1157 1.561 . S
C1160 C1157 1.526 1_545 S
C1160 C1161 1.396 . S
C1160 C1165 1.390 . S
C1161 C1155 1.465 . S
C1161 C1160 1.396 . S
C1161 C1162 1.399 . S
C1162 H1148 0.929 . S
C1162 C1161 1.399 . S
C1162 C1163 1.385 . S
C1163 H1149 0.931 . S
C1163 C1162 1.385 . S
C1163 C1164 1.389 . S
C1164 C1163 1.389 . S
C1164 C1165 1.387 . S
C1165 H1150 0.930 1_545 S
C1165 C1160 1.390 . S
C1165 C1164 1.387 . S
H1166 C1178 0.930 . S
H1167 C1180 0.930 . S
H1168 C1181 0.930 . S
H1169 C1185 0.959 . S
H1170 C1185 0.959 . S
H1171 C1185 0.961 . S
H1172 C1186 0.960 . S
H1173 C1186 0.961 . S
H1174 C1186 0.959 . S
H1175 C1189 0.935 . S
H1176 C1190 0.931 . S
H1177 C1192 0.930 . S
C1178 H1166 0.930 . S
C1178 C1179 1.399 . S
C1178 C1183 1.399 . S
C1179 C1178 1.399 . S
C1179 C1180 1.376 . S
C1180 H1167 0.930 . S
C1180 C1179 1.376 . S
C1180 C1181 1.388 . S
C1181 H1168 0.930 . S
C1181 C1180 1.388 . S
C1181 C1182 1.390 . S
C1182 C1181 1.390 . S
C1182 C1183 1.394 . S
C1182 C1188 1.476 . S
C1183 C1178 1.399 . S
C1183 C1182 1.394 . S
C1183 C1184 1.516 . S
C1184 C1183 1.516 . S
C1184 C1185 1.502 1_556 S
C1184 C1186 1.561 . S
C1184 C1187 1.526 1_556 S
C1185 H1169 0.959 . S
C1185 H1170 0.959 . S
C1185 H1171 0.961 . S
C1185 C1184 1.502 1_554 S
C1186 H1172 0.960 . S
C1186 H1173 0.961 . S
C1186 H1174 0.959 . S
C1186 C1184 1.561 . S
C1187 C1184 1.526 1_554 S
C1187 C1188 1.391 1_554 S
C1187 C1192 1.390 . S
C1188 C1182 1.476 . S
C1188 C1187 1.391 1_556 S
C1188 C1189 1.394 1_556 S
C1189 H1175 0.935 . S
C1189 C1188 1.394 1_554 S
C1189 C1190 1.385 . S
C1190 H1176 0.931 . S
C1190 C1189 1.385 . S
C1190 C1191 1.389 . S
C1191 C1190 1.389 . S
C1191 C1192 1.387 . S
C1192 H1177 0.930 . S
C1192 C1187 1.390 . S
C1192 C1191 1.387 . S
H1193 C1205 0.930 . S
H1194 C1207 0.930 . S
H1195 C1208 0.930 . S
H1196 C1212 0.959 . S
H1197 C1212 0.959 . S
H1198 C1212 0.961 . S
H1199 C1213 0.960 . S
H1200 C1213 0.961 . S
H1201 C1213 0.959 . S
H1202 C1216 0.929 . S
H1203 C1217 0.931 . S
H1204 C1219 0.930 . S
C1205 H1193 0.930 . S
C1205 C1206 1.399 . S
C1205 C1210 1.399 . S
C1206 C1205 1.399 . S
C1206 C1207 1.376 1_565 S
C1207 H1194 0.930 . S
C1207 C1206 1.376 1_545 S
C1207 C1208 1.388 . S
C1208 H1195 0.930 . S
C1208 C1207 1.388 . S
C1208 C1209 1.390 1_545 S
C1209 C1208 1.390 1_565 S
C1209 C1210 1.394 . S
C1209 C1215 1.465 . S
C1210 C1205 1.399 . S
C1210 C1209 1.394 . S
C1210 C1211 1.516 . S
C1211 C1210 1.516 . S
C1211 C1212 1.502 . S
C1211 C1213 1.561 . S
C1211 C1214 1.526 . S
C1212 H1196 0.959 . S
C1212 H1197 0.959 . S
C1212 H1198 0.961 . S
C1212 C1211 1.502 . S
C1213 H1199 0.960 . S
C1213 H1200 0.961 . S
C1213 H1201 0.959 . S
C1213 C1211 1.561 . S
C1214 C1211 1.526 . S
C1214 C1215 1.396 . S
C1214 C1219 1.390 . S
C1215 C1209 1.465 . S
C1215 C1214 1.396 . S
C1215 C1216 1.399 1_565 S
C1216 H1202 0.929 . S
C1216 C1215 1.399 1_545 S
C1216 C1217 1.385 . S
C1217 H1203 0.931 . S
C1217 C1216 1.385 . S
C1217 C1218 1.389 1_545 S
C1218 C1217 1.389 1_565 S
C1218 C1219 1.387 . S
C1219 H1204 0.930 . S
C1219 C1214 1.390 . S
C1219 C1218 1.387 . S
H1220 C1232 0.930 . S
H1221 C1234 0.930 . S
H1222 C1235 0.930 . S
H1223 C1239 0.959 . S
H1224 C1239 0.959 . S
H1225 C1239 0.961 . S
H1226 C1240 0.960 . S
H1227 C1240 0.961 . S
H1228 C1240 0.959 . S
H1229 C1243 0.929 . S
H1230 C1244 0.931 . S
H1231 C1246 0.930 . S
C1232 H1220 0.930 . S
C1232 C1233 1.399 . S
C1232 C1237 1.399 . S
C1233 C1232 1.399 . S
C1233 C1234 1.376 . S
C1234 H1221 0.930 . S
C1234 C1233 1.376 . S
C1234 C1235 1.388 . S
C1235 H1222 0.930 . S
C1235 C1234 1.388 . S
C1235 C1236 1.390 . S
C1236 C1235 1.390 . S
C1236 C1237 1.394 . S
C1236 C1242 1.465 . S
C1237 C1232 1.399 . S
C1237 C1236 1.394 . S
C1237 C1238 1.516 . S
C1238 C1237 1.516 . S
C1238 C1239 1.502 . S
C1238 C1240 1.561 . S
C1238 C1241 1.526 . S
C1239 H1223 0.959 . S
C1239 H1224 0.959 . S
C1239 H1225 0.961 . S
C1239 C1238 1.502 . S
C1240 H1226 0.960 . S
C1240 H1227 0.961 . S
C1240 H1228 0.959 . S
C1240 C1238 1.561 . S
C1241 C1238 1.526 . S
C1241 C1242 1.396 . S
C1241 C1246 1.390 . S
C1242 C1236 1.465 . S
C1242 C1241 1.396 . S
C1242 C1243 1.399 . S
C1243 H1229 0.929 . S
C1243 C1242 1.399 . S
C1243 C1244 1.385 . S
C1244 H1230 0.931 . S
C1244 C1243 1.385 . S
C1244 C1245 1.389 . S
C1245 C1244 1.389 . S
C1245 C1246 1.387 . S
C1246 H1231 0.930 . S
C1246 C1241 1.390 . S
C1246 C1245 1.387 . S
H1247 C1259 0.930 . S
H1248 C1261 0.930 . S
H1249 C1262 0.930 . S
H1250 C1266 0.959 . S
H1251 C1266 0.959 . S
H1252 C1266 0.961 . S
H1253 C1267 0.960 . S
H1254 C1267 0.961 . S
H1255 C1267 0.959 . S
H1256 C1270 0.929 . S
H1257 C1271 0.931 . S
H1258 C1273 0.930 1_545 S
C1259 H1247 0.930 . S
C1259 C1260 1.399 1_545 S
C1259 C1264 1.399 1_545 S
C1260 C1259 1.399 1_565 S
C1260 C1261 1.376 . S
C1261 H1248 0.930 . S
C1261 C1260 1.376 . S
C1261 C1262 1.388 . S
C1262 H1249 0.930 . S
C1262 C1261 1.388 . S
C1262 C1263 1.390 . S
C1263 C1262 1.390 . S
C1263 C1264 1.394 . S
C1263 C1269 1.465 . S
C1264 C1259 1.399 1_565 S
C1264 C1263 1.394 . S
C1264 C1265 1.516 1_565 S
C1265 C1264 1.516 1_545 S
C1265 C1266 1.502 . S
C1265 C1267 1.561 . S
C1265 C1268 1.526 1_545 S
C1266 H1250 0.959 . S
C1266 H1251 0.959 . S
C1266 H1252 0.961 . S
C1266 C1265 1.502 . S
C1267 H1253 0.960 . S
C1267 H1254 0.961 . S
C1267 H1255 0.959 . S
C1267 C1265 1.561 . S
C1268 C1265 1.526 1_565 S
C1268 C1269 1.396 . S
C1268 C1273 1.390 . S
C1269 C1263 1.465 . S
C1269 C1268 1.396 . S
C1269 C1270 1.399 . S
C1270 H1256 0.929 . S
C1270 C1269 1.399 . S
C1270 C1271 1.385 . S
C1271 H1257 0.931 . S
C1271 C1270 1.385 . S
C1271 C1272 1.389 . S
C1272 C1271 1.389 . S
C1272 C1273 1.387 . S
C1273 H1258 0.930 1_565 S
C1273 C1268 1.390 . S
C1273 C1272 1.387 . S
H1274 C1286 0.944 . S
H1275 C1288 0.930 . S
H1276 C1289 0.930 . S
H1277 C1293 0.959 . S
H1278 C1293 0.959 . S
H1279 C1293 0.961 . S
H1280 C1294 0.960 . S
H1281 C1294 0.961 . S
H1282 C1294 0.959 . S
H1283 C1297 0.929 . S
H1284 C1298 0.916 1_554 S
H1285 C1300 0.930 . S
C1286 H1274 0.944 . S
C1286 C1287 1.399 . S
C1286 C1291 1.399 . S
C1287 C1286 1.399 . S
C1287 C1288 1.376 . S
C1288 H1275 0.930 . S
C1288 C1287 1.376 . S
C1288 C1289 1.388 . S
C1289 H1276 0.930 . S
C1289 C1288 1.388 . S
C1289 C1290 1.390 . S
C1290 C1289 1.390 . S
C1290 C1291 1.394 . S
C1290 C1296 1.465 . S
C1291 C1286 1.399 . S
C1291 C1290 1.394 . S
C1291 C1292 1.516 1_554 S
C1292 C1291 1.516 1_556 S
C1292 C1293 1.502 . S
C1292 C1294 1.561 . S
C1292 C1295 1.526 . S
C1293 H1277 0.959 . S
C1293 H1278 0.959 . S
C1293 H1279 0.961 . S
C1293 C1292 1.502 . S
C1294 H1280 0.960 . S
C1294 H1281 0.961 . S
C1294 H1282 0.959 . S
C1294 C1292 1.561 . S
C1295 C1292 1.526 . S
C1295 C1296 1.396 1_556 S
C1295 C1300 1.390 . S
C1296 C1290 1.465 . S
C1296 C1295 1.396 1_554 S
C1296 C1297 1.399 . S
C1297 H1283 0.929 . S
C1297 C1296 1.399 . S
C1297 C1298 1.355 1_554 S
C1298 H1284 0.916 1_556 S
C1298 C1297 1.355 1_556 S
C1298 C1299 1.437 . S
C1299 C1298 1.437 . S
C1299 C1300 1.387 . S
C1300 H1285 0.930 . S
C1300 C1295 1.390 . S
C1300 C1299 1.387 . S
H1301 C1313 0.930 . S
H1302 C1315 0.930 . S
H1303 C1316 0.930 . S
H1304 C1320 0.959 . S
H1305 C1320 0.959 . S
H1306 C1320 0.961 . S
H1307 C1321 0.960 . S
H1308 C1321 0.961 . S
H1309 C1321 0.959 . S
H1310 C1324 0.929 . S
H1311 C1325 0.931 . S
H1312 C1327 0.930 . S
C1313 H1301 0.930 . S
C1313 C1314 1.399 . S
C1313 C1318 1.399 . S
C1314 C1313 1.399 . S
C1314 C1315 1.376 1_545 S
C1315 H1302 0.930 . S
C1315 C1314 1.376 1_565 S
C1315 C1316 1.388 . S
C1316 H1303 0.930 . S
C1316 C1315 1.388 . S
C1316 C1317 1.390 1_565 S
C1317 C1316 1.390 1_545 S
C1317 C1318 1.394 . S
C1317 C1323 1.465 . S
C1318 C1313 1.399 . S
C1318 C1317 1.394 . S
C1318 C1319 1.516 . S
C1319 C1318 1.516 . S
C1319 C1320 1.502 . S
C1319 C1321 1.561 . S
C1319 C1322 1.526 . S
C1320 H1304 0.959 . S
C1320 H1305 0.959 . S
C1320 H1306 0.961 . S
C1320 C1319 1.502 . S
C1321 H1307 0.960 . S
C1321 H1308 0.961 . S
C1321 H1309 0.959 . S
C1321 C1319 1.561 . S
C1322 C1319 1.526 . S
C1322 C1323 1.396 . S
C1322 C1327 1.390 . S
C1323 C1317 1.465 . S
C1323 C1322 1.396 . S
C1323 C1324 1.399 1_545 S
C1324 H1310 0.929 . S
C1324 C1323 1.399 1_565 S
C1324 C1325 1.385 . S
C1325 H1311 0.931 . S
C1325 C1324 1.385 . S
C1325 C1326 1.389 1_565 S
C1326 C1325 1.389 1_545 S
C1326 C1327 1.387 . S
C1327 H1312 0.930 . S
C1327 C1322 1.390 . S
C1327 C1326 1.387 . S
H1328 C1340 0.930 . S
H1329 C1342 0.930 . S
H1330 C1343 0.930 . S
H1331 C1347 0.959 . S
H1332 C1347 0.959 . S
H1333 C1347 0.961 . S
H1334 C1348 0.960 . S
H1335 C1348 0.961 . S
H1336 C1348 0.959 1_545 S
H1337 C1351 0.929 . S
H1338 C1352 0.931 . S
H1339 C1354 0.930 . S
C1340 H1328 0.930 . S
C1340 C1341 1.399 . S
C1340 C1345 1.399 . S
C1341 C1340 1.399 . S
C1341 C1342 1.376 . S
C1342 H1329 0.930 . S
C1342 C1341 1.376 . S
C1342 C1343 1.388 . S
C1343 H1330 0.930 . S
C1343 C1342 1.388 . S
C1343 C1344 1.390 . S
C1344 C1343 1.390 . S
C1344 C1345 1.394 . S
C1344 C1350 1.465 . S
C1345 C1340 1.399 . S
C1345 C1344 1.394 . S
C1345 C1346 1.516 . S
C1346 C1345 1.516 . S
C1346 C1347 1.502 1_545 S
C1346 C1348 1.561 1_545 S
C1346 C1349 1.526 . S
C1347 H1331 0.959 . S
C1347 H1332 0.959 . S
C1347 H1333 0.961 . S
C1347 C1346 1.502 1_565 S
C1348 H1334 0.960 . S
C1348 H1335 0.961 . S
C1348 H1336 0.959 1_565 S
C1348 C1346 1.561 1_565 S
C1349 C1346 1.526 . S
C1349 C1350 1.396 . S
C1349 C1354 1.390 . S
C1350 C1344 1.465 . S
C1350 C1349 1.396 . S
C1350 C1351 1.399 . S
C1351 H1337 0.929 . S
C1351 C1350 1.399 . S
C1351 C1352 1.385 . S
C1352 H1338 0.931 . S
C1352 C1351 1.385 . S
C1352 C1353 1.389 . S
C1353 C1352 1.389 . S
C1353 C1354 1.387 . S
C1354 H1339 0.930 . S
C1354 C1349 1.390 . S
C1354 C1353 1.387 . S
H1355 C1367 0.930 . S
H1356 C1369 0.930 . S
H1357 C1370 0.930 . S
H1358 C1374 0.959 . S
H1359 C1374 0.959 . S
H1360 C1374 0.961 . S
H1361 C1375 0.960 . S
H1362 C1375 0.961 . S
H1363 C1375 0.959 . S
H1364 C1378 0.929 . S
H1365 C1379 0.931 . S
H1366 C1381 0.930 . S
C1367 H1355 0.930 . S
C1367 C1368 1.399 . S
C1367 C1372 1.399 . S
C1368 C1367 1.399 . S
C1368 C1369 1.376 . S
C1369 H1356 0.930 . S
C1369 C1368 1.376 . S
C1369 C1370 1.388 . S
C1370 H1357 0.930 . S
C1370 C1369 1.388 . S
C1370 C1371 1.390 . S
C1371 C1370 1.390 . S
C1371 C1372 1.394 . S
C1371 C1377 1.465 . S
C1372 C1367 1.399 . S
C1372 C1371 1.394 . S
C1372 C1373 1.516 . S
C1373 C1372 1.516 . S
C1373 C1374 1.502 . S
C1373 C1375 1.561 . S
C1373 C1376 1.526 . S
C1374 H1358 0.959 . S
C1374 H1359 0.959 . S
C1374 H1360 0.961 . S
C1374 C1373 1.502 . S
C1375 H1361 0.960 . S
C1375 H1362 0.961 . S
C1375 H1363 0.959 . S
C1375 C1373 1.561 . S
C1376 C1373 1.526 . S
C1376 C1377 1.396 . S
C1376 C1381 1.390 . S
C1377 C1371 1.465 . S
C1377 C1376 1.396 . S
C1377 C1378 1.399 . S
C1378 H1364 0.929 . S
C1378 C1377 1.399 . S
C1378 C1379 1.385 . S
C1379 H1365 0.931 . S
C1379 C1378 1.385 . S
C1379 C1380 1.389 . S
C1380 C1379 1.389 . S
C1380 C1381 1.387 . S
C1381 H1366 0.930 . S
C1381 C1376 1.390 . S
C1381 C1380 1.387 . S
H1382 C1394 0.930 . S
H1383 C1396 0.930 . S
H1384 C1397 0.930 . S
H1385 C1401 0.959 . S
H1386 C1401 0.959 1_545 S
H1387 C1401 0.961 1_545 S
H1388 C1402 0.960 . S
H1389 C1402 0.961 . S
H1390 C1402 0.959 . S
H1391 C1405 0.929 . S
H1392 C1406 0.931 . S
H1393 C1408 0.930 . S
C1394 H1382 0.930 . S
C1394 C1395 1.399 . S
C1394 C1399 1.399 . S
C1395 C1394 1.399 . S
C1395 C1396 1.376 . S
C1396 H1383 0.930 . S
C1396 C1395 1.376 . S
C1396 C1397 1.388 . S
C1397 H1384 0.930 . S
C1397 C1396 1.388 . S
C1397 C1398 1.390 . S
C1398 C1397 1.390 . S
C1398 C1399 1.394 . S
C1398 C1404 1.465 . S
C1399 C1394 1.399 . S
C1399 C1398 1.394 . S
C1399 C1400 1.516 . S
C1400 C1399 1.516 . S
C1400 C1401 1.502 . S
C1400 C1402 1.561 1_565 S
C1400 C1403 1.526 . S
C1401 H1385 0.959 . S
C1401 H1386 0.959 1_565 S
C1401 H1387 0.961 1_565 S
C1401 C1400 1.502 . S
C1402 H1388 0.960 . S
C1402 H1389 0.961 . S
C1402 H1390 0.959 . S
C1402 C1400 1.561 1_545 S
C1403 C1400 1.526 . S
C1403 C1404 1.396 . S
C1403 C1408 1.390 . S
C1404 C1398 1.465 . S
C1404 C1403 1.396 . S
C1404 C1405 1.399 . S
C1405 H1391 0.929 . S
C1405 C1404 1.399 . S
C1405 C1406 1.385 . S
C1406 H1392 0.931 . S
C1406 C1405 1.385 . S
C1406 C1407 1.389 . S
C1407 C1406 1.389 . S
C1407 C1408 1.387 . S
C1408 H1393 0.930 . S
C1408 C1403 1.390 . S
C1408 C1407 1.387 . S
H1409 C1421 0.930 . S
H1410 C1423 0.930 . S
H1411 C1424 0.930 . S
H1412 C1428 0.959 . S
H1413 C1428 0.959 . S
H1414 C1428 0.961 . S
H1415 C1429 0.960 . S
H1416 C1429 0.961 . S
H1417 C1429 0.959 . S
H1418 C1432 0.929 . S
H1419 C1433 0.931 . S
H1420 C1435 0.930 . S
C1421 H1409 0.930 . S
C1421 C1422 1.399 . S
C1421 C1426 1.399 . S
C1422 C1421 1.399 . S
C1422 C1423 1.376 . S
C1423 H1410 0.930 . S
C1423 C1422 1.376 . S
C1423 C1424 1.388 . S
C1424 H1411 0.930 . S
C1424 C1423 1.388 . S
C1424 C1425 1.390 . S
C1425 C1424 1.390 . S
C1425 C1426 1.394 . S
C1425 C1431 1.465 . S
C1426 C1421 1.399 . S
C1426 C1425 1.394 . S
C1426 C1427 1.516 . S
C1427 C1426 1.516 . S
C1427 C1428 1.502 . S
C1427 C1429 1.561 . S
C1427 C1430 1.526 . S
C1428 H1412 0.959 . S
C1428 H1413 0.959 . S
C1428 H1414 0.961 . S
C1428 C1427 1.502 . S
C1429 H1415 0.960 . S
C1429 H1416 0.961 . S
C1429 H1417 0.959 . S
C1429 C1427 1.561 . S
C1430 C1427 1.526 . S
C1430 C1431 1.396 . S
C1430 C1435 1.390 . S
C1431 C1425 1.465 . S
C1431 C1430 1.396 . S
C1431 C1432 1.399 . S
C1432 H1418 0.929 . S
C1432 C1431 1.399 . S
C1432 C1433 1.385 . S
C1433 H1419 0.931 . S
C1433 C1432 1.385 . S
C1433 C1434 1.389 . S
C1434 C1433 1.389 . S
C1434 C1435 1.387 . S
C1435 H1420 0.930 . S
C1435 C1430 1.390 . S
C1435 C1434 1.387 . S
H1436 C1448 0.930 . S
H1437 C1450 0.930 . S
H1438 C1451 0.930 . S
H1439 C1455 0.959 1_545 S
H1440 C1455 0.959 . S
H1441 C1455 0.961 . S
H1442 C1456 0.960 . S
H1443 C1456 0.961 . S
H1444 C1456 0.959 . S
H1445 C1459 0.929 . S
H1446 C1460 0.931 . S
H1447 C1462 0.930 . S
C1448 H1436 0.930 . S
C1448 C1449 1.399 . S
C1448 C1453 1.399 . S
C1449 C1448 1.399 . S
C1449 C1450 1.376 . S
C1450 H1437 0.930 . S
C1450 C1449 1.376 . S
C1450 C1451 1.388 . S
C1451 H1438 0.930 . S
C1451 C1450 1.388 . S
C1451 C1452 1.390 . S
C1452 C1451 1.390 . S
C1452 C1453 1.394 . S
C1452 C1458 1.465 . S
C1453 C1448 1.399 . S
C1453 C1452 1.394 . S
C1453 C1454 1.516 . S
C1454 C1453 1.516 . S
C1454 C1455 1.502 . S
C1454 C1456 1.561 . S
C1454 C1457 1.526 . S
C1455 H1439 0.959 1_565 S
C1455 H1440 0.959 . S
C1455 H1441 0.961 . S
C1455 C1454 1.502 . S
C1456 H1442 0.960 . S
C1456 H1443 0.961 . S
C1456 H1444 0.959 . S
C1456 C1454 1.561 . S
C1457 C1454 1.526 . S
C1457 C1458 1.396 . S
C1457 C1462 1.390 . S
C1458 C1452 1.465 . S
C1458 C1457 1.396 . S
C1458 C1459 1.399 . S
C1459 H1445 0.929 . S
C1459 C1458 1.399 . S
C1459 C1460 1.385 . S
C1460 H1446 0.931 . S
C1460 C1459 1.385 . S
C1460 C1461 1.389 . S
C1461 C1460 1.389 . S
C1461 C1462 1.387 . S
C1462 H1447 0.930 . S
C1462 C1457 1.390 . S
C1462 C1461 1.387 . S
H1463 C1475 0.930 . S
H1464 C1477 0.930 . S
H1465 C1478 0.930 . S
H1466 C1482 0.959 . S
H1467 C1482 0.959 . S
H1468 C1482 0.961 . S
H1469 C1483 0.960 . S
H1470 C1483 0.961 . S
H1471 C1483 0.959 . S
H1472 C1486 0.929 . S
H1473 C1487 0.931 . S
H1474 C1489 0.930 . S
C1475 H1463 0.930 . S
C1475 C1476 1.399 . S
C1475 C1480 1.399 . S
C1476 C1475 1.399 . S
C1476 C1477 1.376 . S
C1477 H1464 0.930 . S
C1477 C1476 1.376 . S
C1477 C1478 1.388 . S
C1478 H1465 0.930 . S
C1478 C1477 1.388 . S
C1478 C1479 1.390 . S
C1479 C1478 1.390 . S
C1479 C1480 1.394 . S
C1479 C1485 1.465 . S
C1480 C1475 1.399 . S
C1480 C1479 1.394 . S
C1480 C1481 1.516 . S
C1481 C1480 1.516 . S
C1481 C1482 1.502 . S
C1481 C1483 1.561 . S
C1481 C1484 1.526 . S
C1482 H1466 0.959 . S
C1482 H1467 0.959 . S
C1482 H1468 0.961 . S
C1482 C1481 1.502 . S
C1483 H1469 0.960 . S
C1483 H1470 0.961 . S
C1483 H1471 0.959 . S
C1483 C1481 1.561 . S
C1484 C1481 1.526 . S
C1484 C1485 1.396 . S
C1484 C1489 1.390 . S
C1485 C1479 1.465 . S
C1485 C1484 1.396 . S
C1485 C1486 1.399 . S
C1486 H1472 0.929 . S
C1486 C1485 1.399 . S
C1486 C1487 1.385 . S
C1487 H1473 0.931 . S
C1487 C1486 1.385 . S
C1487 C1488 1.389 . S
C1488 C1487 1.389 . S
C1488 C1489 1.387 . S
C1489 H1474 0.930 . S
C1489 C1484 1.390 . S
C1489 C1488 1.387 . S
H1490 C1502 0.930 . S
H1491 C1504 0.930 . S
H1492 C1505 0.930 . S
H1493 C1509 0.959 1_565 S
H1494 C1509 0.959 . S
H1495 C1509 0.961 . S
H1496 C1510 0.960 . S
H1497 C1510 0.961 . S
H1498 C1510 0.959 . S
H1499 C1513 0.929 . S
H1500 C1514 0.931 . S
H1501 C1516 0.930 . S
C1502 H1490 0.930 . S
C1502 C1503 1.399 . S
C1502 C1507 1.399 . S
C1503 C1502 1.399 . S
C1503 C1504 1.376 . S
C1504 H1491 0.930 . S
C1504 C1503 1.376 . S
C1504 C1505 1.388 . S
C1505 H1492 0.930 . S
C1505 C1504 1.388 . S
C1505 C1506 1.390 . S
C1506 C1505 1.390 . S
C1506 C1507 1.394 . S
C1506 C1512 1.465 . S
C1507 C1502 1.399 . S
C1507 C1506 1.394 . S
C1507 C1508 1.516 . S
C1508 C1507 1.516 . S
C1508 C1509 1.502 . S
C1508 C1510 1.561 . S
C1508 C1511 1.526 . S
C1509 H1493 0.959 1_545 S
C1509 H1494 0.959 . S
C1509 H1495 0.961 . S
C1509 C1508 1.502 . S
C1510 H1496 0.960 . S
C1510 H1497 0.961 . S
C1510 H1498 0.959 . S
C1510 C1508 1.561 . S
C1511 C1508 1.526 . S
C1511 C1512 1.396 . S
C1511 C1516 1.390 . S
C1512 C1506 1.465 . S
C1512 C1511 1.396 . S
C1512 C1513 1.399 . S
C1513 H1499 0.929 . S
C1513 C1512 1.399 . S
C1513 C1514 1.385 . S
C1514 H1500 0.931 . S
C1514 C1513 1.385 . S
C1514 C1515 1.389 . S
C1515 C1514 1.389 . S
C1515 C1516 1.387 . S
C1516 H1501 0.930 . S
C1516 C1511 1.390 . S
C1516 C1515 1.387 . S
H1517 C1529 0.930 . S
H1518 C1531 0.930 . S
H1519 C1532 0.930 . S
H1520 C1536 0.959 . S
H1521 C1536 0.959 . S
H1522 C1536 0.961 . S
H1523 C1537 0.960 . S
H1524 C1537 0.961 . S
H1525 C1537 0.959 . S
H1526 C1540 0.929 . S
H1527 C1541 0.931 . S
H1528 C1543 0.930 . S
C1529 H1517 0.930 . S
C1529 C1530 1.399 . S
C1529 C1534 1.399 . S
C1530 C1529 1.399 . S
C1530 C1531 1.376 . S
C1531 H1518 0.930 . S
C1531 C1530 1.376 . S
C1531 C1532 1.388 . S
C1532 H1519 0.930 . S
C1532 C1531 1.388 . S
C1532 C1533 1.390 . S
C1533 C1532 1.390 . S
C1533 C1534 1.394 . S
C1533 C1539 1.465 . S
C1534 C1529 1.399 . S
C1534 C1533 1.394 . S
C1534 C1535 1.516 . S
C1535 C1534 1.516 . S
C1535 C1536 1.502 . S
C1535 C1537 1.561 . S
C1535 C1538 1.526 . S
C1536 H1520 0.959 . S
C1536 H1521 0.959 . S
C1536 H1522 0.961 . S
C1536 C1535 1.502 . S
C1537 H1523 0.960 . S
C1537 H1524 0.961 . S
C1537 H1525 0.959 . S
C1537 C1535 1.561 . S
C1538 C1535 1.526 . S
C1538 C1539 1.396 . S
C1538 C1543 1.390 . S
C1539 C1533 1.465 . S
C1539 C1538 1.396 . S
C1539 C1540 1.399 . S
C1540 H1526 0.929 . S
C1540 C1539 1.399 . S
C1540 C1541 1.385 . S
C1541 H1527 0.931 . S
C1541 C1540 1.385 . S
C1541 C1542 1.389 . S
C1542 C1541 1.389 . S
C1542 C1543 1.387 . S
C1543 H1528 0.930 . S
C1543 C1538 1.390 . S
C1543 C1542 1.387 . S
H1544 C1556 0.930 . S
H1545 C1558 0.930 . S
H1546 C1559 0.930 . S
H1547 C1563 0.959 . S
H1548 C1563 0.959 . S
H1549 C1563 0.961 . S
H1550 C1564 0.960 . S
H1551 C1564 0.961 . S
H1552 C1564 0.959 . S
H1553 C1567 0.929 . S
H1554 C1568 0.931 . S
H1555 C1570 0.930 . S
C1556 H1544 0.930 . S
C1556 C1557 1.399 . S
C1556 C1561 1.399 . S
C1557 C1556 1.399 . S
C1557 C1558 1.376 . S
C1558 H1545 0.930 . S
C1558 C1557 1.376 . S
C1558 C1559 1.388 . S
C1559 H1546 0.930 . S
C1559 C1558 1.388 . S
C1559 C1560 1.390 . S
C1560 C1559 1.390 . S
C1560 C1561 1.394 . S
C1560 C1566 1.465 . S
C1561 C1556 1.399 . S
C1561 C1560 1.394 . S
C1561 C1562 1.516 . S
C1562 C1561 1.516 . S
C1562 C1563 1.502 . S
C1562 C1564 1.561 . S
C1562 C1565 1.526 . S
C1563 H1547 0.959 . S
C1563 H1548 0.959 . S
C1563 H1549 0.961 . S
C1563 C1562 1.502 . S
C1564 H1550 0.960 . S
C1564 H1551 0.961 . S
C1564 H1552 0.959 . S
C1564 C1562 1.561 . S
C1565 C1562 1.526 . S
C1565 C1566 1.396 . S
C1565 C1570 1.390 . S
C1566 C1560 1.465 . S
C1566 C1565 1.396 . S
C1566 C1567 1.399 . S
C1567 H1553 0.929 . S
C1567 C1566 1.399 . S
C1567 C1568 1.385 . S
C1568 H1554 0.931 . S
C1568 C1567 1.385 . S
C1568 C1569 1.389 . S
C1569 C1568 1.389 . S
C1569 C1570 1.387 . S
C1570 H1555 0.930 . S
C1570 C1565 1.390 . S
C1570 C1569 1.387 . S
H1571 C1583 0.930 1_545 S
H1572 C1585 0.930 . S
H1573 C1586 0.930 . S
H1574 C1590 0.959 . S
H1575 C1590 0.959 . S
H1576 C1590 0.961 . S
H1577 C1591 0.960 . S
H1578 C1591 0.961 . S
H1579 C1591 0.959 . S
H1580 C1594 0.929 . S
H1581 C1595 0.931 . S
H1582 C1597 0.930 . S
C1583 H1571 0.930 1_565 S
C1583 C1584 1.399 . S
C1583 C1588 1.399 . S
C1584 C1583 1.399 . S
C1584 C1585 1.376 . S
C1585 H1572 0.930 . S
C1585 C1584 1.376 . S
C1585 C1586 1.388 . S
C1586 H1573 0.930 . S
C1586 C1585 1.388 . S
C1586 C1587 1.390 . S
C1587 C1586 1.390 . S
C1587 C1588 1.394 . S
C1587 C1593 1.465 . S
C1588 C1583 1.399 . S
C1588 C1587 1.394 . S
C1588 C1589 1.516 1_565 S
C1589 C1588 1.516 1_545 S
C1589 C1590 1.502 . S
C1589 C1591 1.561 . S
C1589 C1592 1.526 . S
C1590 H1574 0.959 . S
C1590 H1575 0.959 . S
C1590 H1576 0.961 . S
C1590 C1589 1.502 . S
C1591 H1577 0.960 . S
C1591 H1578 0.961 . S
C1591 H1579 0.959 . S
C1591 C1589 1.561 . S
C1592 C1589 1.526 . S
C1592 C1593 1.396 1_545 S
C1592 C1597 1.390 . S
C1593 C1587 1.465 . S
C1593 C1592 1.396 1_565 S
C1593 C1594 1.399 . S
C1594 H1580 0.929 . S
C1594 C1593 1.399 . S
C1594 C1595 1.385 . S
C1595 H1581 0.931 . S
C1595 C1594 1.385 . S
C1595 C1596 1.389 1_565 S
C1596 C1595 1.389 1_545 S
C1596 C1597 1.387 . S
C1597 H1582 0.930 . S
C1597 C1592 1.390 . S
C1597 C1596 1.387 . S
H1598 C1610 0.930 . S
H1599 C1612 0.930 . S
H1600 C1613 0.930 . S
H1601 C1617 0.959 . S
H1602 C1617 0.959 . S
H1603 C1617 0.961 . S
H1604 C1618 0.960 . S
H1605 C1618 0.961 . S
H1606 C1618 0.959 . S
H1607 C1621 0.929 . S
H1608 C1622 0.931 . S
H1609 C1624 0.930 . S
C1610 H1598 0.930 . S
C1610 C1611 1.399 . S
C1610 C1615 1.399 . S
C1611 C1610 1.399 . S
C1611 C1612 1.376 . S
C1612 H1599 0.930 . S
C1612 C1611 1.376 . S
C1612 C1613 1.388 . S
C1613 H1600 0.930 . S
C1613 C1612 1.388 . S
C1613 C1614 1.390 . S
C1614 C1613 1.390 . S
C1614 C1615 1.394 . S
C1614 C1620 1.465 . S
C1615 C1610 1.399 . S
C1615 C1614 1.394 . S
C1615 C1616 1.516 . S
C1616 C1615 1.516 . S
C1616 C1617 1.502 . S
C1616 C1618 1.561 . S
C1616 C1619 1.526 . S
C1617 H1601 0.959 . S
C1617 H1602 0.959 . S
C1617 H1603 0.961 . S
C1617 C1616 1.502 . S
C1618 H1604 0.960 . S
C1618 H1605 0.961 . S
C1618 H1606 0.959 . S
C1618 C1616 1.561 . S
C1619 C1616 1.526 . S
C1619 C1620 1.396 . S
C1619 C1624 1.390 . S
C1620 C1614 1.465 . S
C1620 C1619 1.396 . S
C1620 C1621 1.399 . S
C1621 H1607 0.929 . S
C1621 C1620 1.399 . S
C1621 C1622 1.385 . S
C1622 H1608 0.931 . S
C1622 C1621 1.385 . S
C1622 C1623 1.389 . S
C1623 C1622 1.389 . S
C1623 C1624 1.387 . S
C1624 H1609 0.930 . S
C1624 C1619 1.390 . S
C1624 C1623 1.387 . S
H1625 C1637 0.930 . S
H1626 C1639 0.930 . S
H1627 C1640 0.930 . S
H1628 C1644 0.959 . S
H1629 C1644 0.959 . S
H1630 C1644 0.961 . S
H1631 C1645 0.960 . S
H1632 C1645 0.961 . S
H1633 C1645 0.959 . S
H1634 C1648 0.929 . S
H1635 C1649 0.931 . S
H1636 C1651 0.930 1_565 S
C1637 H1625 0.930 . S
C1637 C1638 1.399 . S
C1637 C1642 1.399 . S
C1638 C1637 1.399 . S
C1638 C1639 1.376 1_565 S
C1639 H1626 0.930 . S
C1639 C1638 1.376 1_545 S
C1639 C1640 1.388 . S
C1640 H1627 0.930 . S
C1640 C1639 1.388 . S
C1640 C1641 1.390 . S
C1641 C1640 1.390 . S
C1641 C1642 1.394 1_545 S
C1641 C1647 1.465 . S
C1642 C1637 1.399 . S
C1642 C1641 1.394 1_565 S
C1642 C1643 1.516 . S
C1643 C1642 1.516 . S
C1643 C1644 1.502 . S
C1643 C1645 1.561 . S
C1643 C1646 1.526 1_565 S
C1644 H1628 0.959 . S
C1644 H1629 0.959 . S
C1644 H1630 0.961 . S
C1644 C1643 1.502 . S
C1645 H1631 0.960 . S
C1645 H1632 0.961 . S
C1645 H1633 0.959 . S
C1645 C1643 1.561 . S
C1646 C1643 1.526 1_545 S
C1646 C1647 1.396 . S
C1646 C1651 1.390 . S
C1647 C1641 1.465 . S
C1647 C1646 1.396 . S
C1647 C1648 1.399 . S
C1648 H1634 0.929 . S
C1648 C1647 1.399 . S
C1648 C1649 1.385 . S
C1649 H1635 0.931 . S
C1649 C1648 1.385 . S
C1649 C1650 1.389 . S
C1650 C1649 1.389 . S
C1650 C1651 1.387 . S
C1651 H1636 0.930 1_545 S
C1651 C1646 1.390 . S
C1651 C1650 1.387 . S
H1652 C1664 0.930 . S
H1653 C1666 0.930 . S
H1654 C1667 0.930 . S
H1655 C1671 0.959 . S
H1656 C1671 0.959 . S
H1657 C1671 0.961 . S
H1658 C1672 0.960 . S
H1659 C1672 0.961 . S
H1660 C1672 0.959 . S
H1661 C1675 0.929 . S
H1662 C1676 0.931 . S
H1663 C1678 0.930 . S
C1664 H1652 0.930 . S
C1664 C1665 1.399 . S
C1664 C1669 1.399 . S
C1665 C1664 1.399 . S
C1665 C1666 1.376 . S
C1666 H1653 0.930 . S
C1666 C1665 1.376 . S
C1666 C1667 1.388 . S
C1667 H1654 0.930 . S
C1667 C1666 1.388 . S
C1667 C1668 1.390 . S
C1668 C1667 1.390 . S
C1668 C1669 1.394 . S
C1668 C1674 1.465 . S
C1669 C1664 1.399 . S
C1669 C1668 1.394 . S
C1669 C1670 1.516 . S
C1670 C1669 1.516 . S
C1670 C1671 1.502 . S
C1670 C1672 1.561 . S
C1670 C1673 1.526 . S
C1671 H1655 0.959 . S
C1671 H1656 0.959 . S
C1671 H1657 0.961 . S
C1671 C1670 1.502 . S
C1672 H1658 0.960 . S
C1672 H1659 0.961 . S
C1672 H1660 0.959 . S
C1672 C1670 1.561 . S
C1673 C1670 1.526 . S
C1673 C1674 1.396 . S
C1673 C1678 1.390 . S
C1674 C1668 1.465 . S
C1674 C1673 1.396 . S
C1674 C1675 1.399 . S
C1675 H1661 0.929 . S
C1675 C1674 1.399 . S
C1675 C1676 1.385 . S
C1676 H1662 0.931 . S
C1676 C1675 1.385 . S
C1676 C1677 1.389 . S
C1677 C1676 1.389 . S
C1677 C1678 1.387 . S
C1678 H1663 0.930 . S
C1678 C1673 1.390 . S
C1678 C1677 1.387 . S
H1679 C1691 0.930 1_565 S
H1680 C1693 0.930 . S
H1681 C1694 0.930 . S
H1682 C1698 0.952 1_545 S
H1683 C1698 0.959 . S
H1684 C1698 0.961 . S
H1685 C1699 0.960 . S
H1686 C1699 0.961 . S
H1687 C1699 0.959 . S
H1688 C1702 0.929 . S
H1689 C1703 0.931 . S
H1690 C1705 0.930 . S
C1691 H1679 0.930 1_545 S
C1691 C1692 1.399 . S
C1691 C1696 1.399 . S
C1692 C1691 1.399 . S
C1692 C1693 1.376 . S
C1693 H1680 0.930 . S
C1693 C1692 1.376 . S
C1693 C1694 1.388 . S
C1694 H1681 0.930 . S
C1694 C1693 1.388 . S
C1694 C1695 1.390 . S
C1695 C1694 1.390 . S
C1695 C1696 1.394 . S
C1695 C1701 1.465 . S
C1696 C1691 1.399 . S
C1696 C1695 1.394 . S
C1696 C1697 1.516 1_545 S
C1697 C1696 1.516 1_565 S
C1697 C1698 1.502 . S
C1697 C1699 1.561 . S
C1697 C1700 1.526 . S
C1698 H1682 0.952 1_565 S
C1698 H1683 0.959 . S
C1698 H1684 0.961 . S
C1698 C1697 1.502 . S
C1699 H1685 0.960 . S
C1699 H1686 0.961 . S
C1699 H1687 0.959 . S
C1699 C1697 1.561 . S
C1700 C1697 1.526 . S
C1700 C1701 1.396 1_565 S
C1700 C1705 1.390 . S
C1701 C1695 1.465 . S
C1701 C1700 1.396 1_545 S
C1701 C1702 1.399 . S
C1702 H1688 0.929 . S
C1702 C1701 1.399 . S
C1702 C1703 1.385 . S
C1703 H1689 0.931 . S
C1703 C1702 1.385 . S
C1703 C1704 1.389 1_545 S
C1704 C1703 1.389 1_565 S
C1704 C1705 1.387 . S
C1705 H1690 0.930 . S
C1705 C1700 1.390 . S
C1705 C1704 1.387 . S
H1706 C1718 0.930 . S
H1707 C1720 0.930 . S
H1708 C1721 0.930 . S
H1709 C1725 0.959 . S
H1710 C1725 0.959 . S
H1711 C1725 0.961 . S
H1712 C1726 0.960 . S
H1713 C1726 0.961 . S
H1714 C1726 0.959 . S
H1715 C1729 0.929 . S
H1716 C1730 0.931 . S
H1717 C1732 0.930 . S
C1718 H1706 0.930 . S
C1718 C1719 1.399 . S
C1718 C1723 1.399 . S
C1719 C1718 1.399 . S
C1719 C1720 1.376 . S
C1720 H1707 0.930 . S
C1720 C1719 1.376 . S
C1720 C1721 1.388 . S
C1721 H1708 0.930 . S
C1721 C1720 1.388 . S
C1721 C1722 1.390 . S
C1722 C1721 1.390 . S
C1722 C1723 1.394 . S
C1722 C1728 1.465 . S
C1723 C1718 1.399 . S
C1723 C1722 1.394 . S
C1723 C1724 1.516 . S
C1724 C1723 1.516 . S
C1724 C1725 1.502 . S
C1724 C1726 1.561 . S
C1724 C1727 1.526 . S
C1725 H1709 0.959 . S
C1725 H1710 0.959 . S
C1725 H1711 0.961 . S
C1725 C1724 1.502 . S
C1726 H1712 0.960 . S
C1726 H1713 0.961 . S
C1726 H1714 0.959 . S
C1726 C1724 1.561 . S
C1727 C1724 1.526 . S
C1727 C1728 1.396 . S
C1727 C1732 1.390 . S
C1728 C1722 1.465 . S
C1728 C1727 1.396 . S
C1728 C1729 1.399 . S
C1729 H1715 0.929 . S
C1729 C1728 1.399 . S
C1729 C1730 1.385 . S
C1730 H1716 0.931 . S
C1730 C1729 1.385 . S
C1730 C1731 1.389 . S
C1731 C1730 1.389 . S
C1731 C1732 1.387 . S
C1732 H1717 0.930 . S
C1732 C1727 1.390 . S
C1732 C1731 1.387 . S
H1733 C1745 0.930 . S
H1734 C1747 0.930 1_545 S
H1735 C1748 0.930 . S
H1736 C1752 0.959 . S
H1737 C1752 0.959 . S
H1738 C1752 0.961 . S
H1739 C1753 0.960 . S
H1740 C1753 0.961 . S
H1741 C1753 0.959 . S
H1742 C1756 0.929 . S
H1743 C1757 0.931 . S
H1744 C1759 0.930 . S
C1745 H1733 0.930 . S
C1745 C1746 1.399 . S
C1745 C1750 1.399 . S
C1746 C1745 1.399 . S
C1746 C1747 1.376 . S
C1747 H1734 0.930 1_565 S
C1747 C1746 1.376 . S
C1747 C1748 1.388 1_565 S
C1748 H1735 0.930 . S
C1748 C1747 1.388 1_545 S
C1748 C1749 1.390 1_545 S
C1749 C1748 1.390 1_565 S
C1749 C1750 1.394 . S
C1749 C1755 1.465 1_565 S
C1750 C1745 1.399 . S
C1750 C1749 1.394 . S
C1750 C1751 1.516 . S
C1751 C1750 1.516 . S
C1751 C1752 1.502 . S
C1751 C1753 1.561 . S
C1751 C1754 1.526 . S
C1752 H1736 0.959 . S
C1752 H1737 0.959 . S
C1752 H1738 0.961 . S
C1752 C1751 1.502 . S
C1753 H1739 0.960 . S
C1753 H1740 0.961 . S
C1753 H1741 0.959 . S
C1753 C1751 1.561 . S
C1754 C1751 1.526 . S
C1754 C1755 1.396 1_565 S
C1754 C1759 1.390 . S
C1755 C1749 1.465 1_545 S
C1755 C1754 1.396 1_545 S
C1755 C1756 1.399 . S
C1756 H1742 0.929 . S
C1756 C1755 1.399 . S
C1756 C1757 1.385 . S
C1757 H1743 0.931 . S
C1757 C1756 1.385 . S
C1757 C1758 1.389 . S
C1758 C1757 1.389 . S
C1758 C1759 1.387 1_545 S
C1759 H1744 0.930 . S
C1759 C1754 1.390 . S
C1759 C1758 1.387 1_565 S
H1760 C1772 0.930 . S
H1761 C1774 0.930 . S
H1762 C1775 0.930 . S
H1763 C1779 0.959 . S
H1764 C1779 0.959 . S
H1765 C1779 0.961 . S
H1766 C1780 0.960 . S
H1767 C1780 0.961 . S
H1768 C1780 0.959 . S
H1769 C1783 0.929 . S
H1770 C1784 0.931 . S
H1771 C1786 0.930 . S
C1772 H1760 0.930 . S
C1772 C1773 1.399 . S
C1772 C1777 1.399 . S
C1773 C1772 1.399 . S
C1773 C1774 1.376 . S
C1774 H1761 0.930 . S
C1774 C1773 1.376 . S
C1774 C1775 1.388 . S
C1775 H1762 0.930 . S
C1775 C1774 1.388 . S
C1775 C1776 1.390 . S
C1776 C1775 1.390 . S
C1776 C1777 1.394 . S
C1776 C1782 1.465 . S
C1777 C1772 1.399 . S
C1777 C1776 1.394 . S
C1777 C1778 1.516 . S
C1778 C1777 1.516 . S
C1778 C1779 1.502 . S
C1778 C1780 1.561 . S
C1778 C1781 1.526 . S
C1779 H1763 0.959 . S
C1779 H1764 0.959 . S
C1779 H1765 0.961 . S
C1779 C1778 1.502 . S
C1780 H1766 0.960 . S
C1780 H1767 0.961 . S
C1780 H1768 0.959 . S
C1780 C1778 1.561 . S
C1781 C1778 1.526 . S
C1781 C1782 1.396 . S
C1781 C1786 1.390 . S
C1782 C1776 1.465 . S
C1782 C1781 1.396 . S
C1782 C1783 1.399 . S
C1783 H1769 0.929 . S
C1783 C1782 1.399 . S
C1783 C1784 1.385 . S
C1784 H1770 0.931 . S
C1784 C1783 1.385 . S
C1784 C1785 1.389 . S
C1785 C1784 1.389 . S
C1785 C1786 1.387 . S
C1786 H1771 0.930 . S
C1786 C1781 1.390 . S
C1786 C1785 1.387 . S
H1787 C1799 0.930 . S
H1788 C1801 0.930 . S
H1789 C1802 0.930 . S
H1790 C1806 0.959 . S
H1791 C1806 0.959 . S
H1792 C1806 0.961 . S
H1793 C1807 0.960 . S
H1794 C1807 0.961 . S
H1795 C1807 0.959 . S
H1796 C1810 0.929 . S
H1797 C1811 0.931 . S
H1798 C1813 0.930 . S
C1799 H1787 0.930 . S
C1799 C1800 1.399 . S
C1799 C1804 1.399 . S
C1800 C1799 1.399 . S
C1800 C1801 1.376 . S
C1801 H1788 0.930 . S
C1801 C1800 1.376 . S
C1801 C1802 1.388 . S
C1802 H1789 0.930 . S
C1802 C1801 1.388 . S
C1802 C1803 1.390 . S
C1803 C1802 1.390 . S
C1803 C1804 1.394 . S
C1803 C1809 1.465 . S
C1804 C1799 1.399 . S
C1804 C1803 1.394 . S
C1804 C1805 1.516 . S
C1805 C1804 1.516 . S
C1805 C1806 1.502 . S
C1805 C1807 1.561 . S
C1805 C1808 1.526 . S
C1806 H1790 0.959 . S
C1806 H1791 0.959 . S
C1806 H1792 0.961 . S
C1806 C1805 1.502 . S
C1807 H1793 0.960 . S
C1807 H1794 0.961 . S
C1807 H1795 0.959 . S
C1807 C1805 1.561 . S
C1808 C1805 1.526 . S
C1808 C1809 1.396 . S
C1808 C1813 1.390 . S
C1809 C1803 1.465 . S
C1809 C1808 1.396 . S
C1809 C1810 1.399 . S
C1810 H1796 0.929 . S
C1810 C1809 1.399 . S
C1810 C1811 1.385 . S
C1811 H1797 0.931 . S
C1811 C1810 1.385 . S
C1811 C1812 1.389 . S
C1812 C1811 1.389 . S
C1812 C1813 1.387 . S
C1813 H1798 0.930 . S
C1813 C1808 1.390 . S
C1813 C1812 1.387 . S
H1814 C1826 0.930 . S
H1815 C1828 0.930 . S
H1816 C1829 0.930 . S
H1817 C1833 0.959 . S
H1818 C1833 0.959 . S
H1819 C1833 0.961 . S
H1820 C1834 0.960 . S
H1821 C1834 0.961 . S
H1822 C1834 0.959 . S
H1823 C1837 0.929 . S
H1824 C1838 0.931 . S
H1825 C1840 0.930 . S
C1826 H1814 0.930 . S
C1826 C1827 1.399 . S
C1826 C1831 1.399 . S
C1827 C1826 1.399 . S
C1827 C1828 1.376 . S
C1828 H1815 0.930 . S
C1828 C1827 1.376 . S
C1828 C1829 1.388 . S
C1829 H1816 0.930 . S
C1829 C1828 1.388 . S
C1829 C1830 1.390 . S
C1830 C1829 1.390 . S
C1830 C1831 1.394 . S
C1830 C1836 1.465 1_455 S
C1831 C1826 1.399 . S
C1831 C1830 1.394 . S
C1831 C1832 1.516 . S
C1832 C1831 1.516 . S
C1832 C1833 1.502 . S
C1832 C1834 1.561 . S
C1832 C1835 1.526 1_455 S
C1833 H1817 0.959 . S
C1833 H1818 0.959 . S
C1833 H1819 0.961 . S
C1833 C1832 1.502 . S
C1834 H1820 0.960 . S
C1834 H1821 0.961 . S
C1834 H1822 0.959 . S
C1834 C1832 1.561 . S
C1835 C1832 1.526 1_655 S
C1835 C1836 1.396 . S
C1835 C1840 1.390 . S
C1836 C1830 1.465 1_655 S
C1836 C1835 1.396 . S
C1836 C1837 1.399 . S
C1837 H1823 0.929 . S
C1837 C1836 1.399 . S
C1837 C1838 1.385 . S
C1838 H1824 0.931 . S
C1838 C1837 1.385 . S
C1838 C1839 1.389 . S
C1839 C1838 1.389 . S
C1839 C1840 1.387 . S
C1840 H1825 0.930 . S
C1840 C1835 1.390 . S
C1840 C1839 1.387 . S
H1841 C1853 0.930 . S
H1842 C1855 0.930 . S
H1843 C1856 0.930 . S
H1844 C1860 0.959 . S
H1845 C1860 0.959 . S
H1846 C1860 0.961 . S
H1847 C1861 0.960 . S
H1848 C1861 0.961 . S
H1849 C1861 0.959 . S
H1850 C1864 0.929 . S
H1851 C1865 0.931 . S
H1852 C1867 0.930 . S
C1853 H1841 0.930 . S
C1853 C1854 1.399 1_655 S
C1853 C1858 1.399 . S
C1854 C1853 1.399 1_455 S
C1854 C1855 1.376 . S
C1855 H1842 0.930 . S
C1855 C1854 1.376 . S
C1855 C1856 1.388 . S
C1856 H1843 0.930 . S
C1856 C1855 1.388 . S
C1856 C1857 1.390 . S
C1857 C1856 1.390 . S
C1857 C1858 1.394 1_455 S
C1857 C1863 1.465 . S
C1858 C1853 1.399 . S
C1858 C1857 1.394 1_655 S
C1858 C1859 1.516 . S
C1859 C1858 1.516 . S
C1859 C1860 1.502 . S
C1859 C1861 1.561 . S
C1859 C1862 1.526 . S
C1860 H1844 0.959 . S
C1860 H1845 0.959 . S
C1860 H1846 0.961 . S
C1860 C1859 1.502 . S
C1861 H1847 0.960 . S
C1861 H1848 0.961 . S
C1861 H1849 0.959 . S
C1861 C1859 1.561 . S
C1862 C1859 1.526 . S
C1862 C1863 1.396 1_655 S
C1862 C1867 1.390 . S
C1863 C1857 1.465 . S
C1863 C1862 1.396 1_455 S
C1863 C1864 1.399 . S
C1864 H1850 0.929 . S
C1864 C1863 1.399 . S
C1864 C1865 1.385 . S
C1865 H1851 0.931 . S
C1865 C1864 1.385 . S
C1865 C1866 1.389 1_455 S
C1866 C1865 1.389 1_655 S
C1866 C1867 1.387 . S
C1867 H1852 0.930 . S
C1867 C1862 1.390 . S
C1867 C1866 1.387 . S
H1868 C1880 0.930 . S
H1869 C1882 0.930 . S
H1870 C1883 0.930 . S
H1871 C1887 0.959 . S
H1872 C1887 0.959 . S
H1873 C1887 0.961 . S
H1874 C1888 0.960 . S
H1875 C1888 0.961 . S
H1876 C1888 0.959 . S
H1877 C1891 0.929 . S
H1878 C1892 0.931 . S
H1879 C1894 0.930 . S
C1880 H1868 0.930 . S
C1880 C1881 1.399 . S
C1880 C1885 1.399 . S
C1881 C1880 1.399 . S
C1881 C1882 1.376 . S
C1882 H1869 0.930 . S
C1882 C1881 1.376 . S
C1882 C1883 1.388 . S
C1883 H1870 0.930 . S
C1883 C1882 1.388 . S
C1883 C1884 1.390 . S
C1884 C1883 1.390 . S
C1884 C1885 1.394 . S
C1884 C1890 1.465 . S
C1885 C1880 1.399 . S
C1885 C1884 1.394 . S
C1885 C1886 1.516 . S
C1886 C1885 1.516 . S
C1886 C1887 1.502 . S
C1886 C1888 1.561 . S
C1886 C1889 1.526 . S
C1887 H1871 0.959 . S
C1887 H1872 0.959 . S
C1887 H1873 0.961 . S
C1887 C1886 1.502 . S
C1888 H1874 0.960 . S
C1888 H1875 0.961 . S
C1888 H1876 0.959 . S
C1888 C1886 1.561 . S
C1889 C1886 1.526 . S
C1889 C1890 1.396 . S
C1889 C1894 1.390 . S
C1890 C1884 1.465 . S
C1890 C1889 1.396 . S
C1890 C1891 1.399 . S
C1891 H1877 0.929 . S
C1891 C1890 1.399 . S
C1891 C1892 1.385 . S
C1892 H1878 0.931 . S
C1892 C1891 1.385 . S
C1892 C1893 1.389 . S
C1893 C1892 1.389 . S
C1893 C1894 1.387 . S
C1894 H1879 0.930 . S
C1894 C1889 1.390 . S
C1894 C1893 1.387 . S
H1895 C1907 0.930 . S
H1896 C1909 0.930 . S
H1897 C1910 0.930 . S
H1898 C1914 0.959 . S
H1899 C1914 0.959 . S
H1900 C1914 0.961 . S
H1901 C1915 0.960 . S
H1902 C1915 0.961 . S
H1903 C1915 0.959 . S
H1904 C1918 0.929 . S
H1905 C1919 0.931 . S
H1906 C1921 0.930 . S
C1907 H1895 0.930 . S
C1907 C1908 1.399 . S
C1907 C1912 1.399 . S
C1908 C1907 1.399 . S
C1908 C1909 1.376 . S
C1909 H1896 0.930 . S
C1909 C1908 1.376 . S
C1909 C1910 1.388 . S
C1910 H1897 0.930 . S
C1910 C1909 1.388 . S
C1910 C1911 1.390 . S
C1911 C1910 1.390 . S
C1911 C1912 1.394 . S
C1911 C1917 1.465 . S
C1912 C1907 1.399 . S
C1912 C1911 1.394 . S
C1912 C1913 1.516 . S
C1913 C1912 1.516 . S
C1913 C1914 1.502 . S
C1913 C1915 1.561 . S
C1913 C1916 1.526 . S
C1914 H1898 0.959 . S
C1914 H1899 0.959 . S
C1914 H1900 0.961 . S
C1914 C1913 1.502 . S
C1915 H1901 0.960 . S
C1915 H1902 0.961 . S
C1915 H1903 0.959 . S
C1915 C1913 1.561 . S
C1916 C1913 1.526 . S
C1916 C1917 1.396 . S
C1916 C1921 1.390 . S
C1917 C1911 1.465 . S
C1917 C1916 1.396 . S
C1917 C1918 1.399 . S
C1918 H1904 0.929 . S
C1918 C1917 1.399 . S
C1918 C1919 1.385 . S
C1919 H1905 0.931 . S
C1919 C1918 1.385 . S
C1919 C1920 1.389 . S
C1920 C1919 1.389 . S
C1920 C1921 1.387 . S
C1921 H1906 0.930 . S
C1921 C1916 1.390 . S
C1921 C1920 1.387 . S
H1922 C1934 0.930 . S
H1923 C1936 0.930 . S
H1924 C1937 0.930 . S
H1925 C1941 0.959 . S
H1926 C1941 0.959 1_655 S
H1927 C1941 0.961 . S
H1928 C1942 0.960 1_455 S
H1929 C1942 0.961 . S
H1930 C1942 0.959 . S
H1931 C1945 0.929 . S
H1932 C1946 0.931 . S
H1933 C1948 0.930 . S
C1934 H1922 0.930 . S
C1934 C1935 1.399 . S
C1934 C1939 1.399 . S
C1935 C1934 1.399 . S
C1935 C1936 1.376 . S
C1936 H1923 0.930 . S
C1936 C1935 1.376 . S
C1936 C1937 1.388 . S
C1937 H1924 0.930 . S
C1937 C1936 1.388 . S
C1937 C1938 1.390 . S
C1938 C1937 1.390 . S
C1938 C1939 1.394 . S
C1938 C1944 1.465 1_455 S
C1939 C1934 1.399 . S
C1939 C1938 1.394 . S
C1939 C1940 1.498 1_455 S
C1940 C1939 1.498 1_655 S
C1940 C1941 1.497 1_655 S
C1940 C1942 1.568 . S
C1940 C1943 1.544 . S
C1941 H1925 0.959 . S
C1941 H1926 0.959 1_455 S
C1941 H1927 0.961 . S
C1941 C1940 1.497 1_455 S
C1942 H1928 0.960 1_655 S
C1942 H1929 0.961 . S
C1942 H1930 0.959 . S
C1942 C1940 1.568 . S
C1943 C1940 1.544 . S
C1943 C1944 1.396 . S
C1943 C1948 1.390 . S
C1944 C1938 1.465 1_655 S
C1944 C1943 1.396 . S
C1944 C1945 1.399 . S
C1945 H1931 0.929 . S
C1945 C1944 1.399 . S
C1945 C1946 1.385 . S
C1946 H1932 0.931 . S
C1946 C1945 1.385 . S
C1946 C1947 1.389 . S
C1947 C1946 1.389 . S
C1947 C1948 1.387 . S
C1948 H1933 0.930 . S
C1948 C1943 1.390 . S
C1948 C1947 1.387 . S
H1949 C1961 0.930 . S
H1950 C1963 0.930 . S
H1951 C1964 0.930 . S
H1952 C1968 0.959 . S
H1953 C1968 0.959 . S
H1954 C1968 0.961 . S
H1955 C1969 0.960 . S
H1956 C1969 0.961 . S
H1957 C1969 0.959 . S
H1958 C1972 0.929 . S
H1959 C1973 0.931 . S
H1960 C1975 0.930 . S
C1961 H1949 0.930 . S
C1961 C1962 1.399 . S
C1961 C1966 1.399 . S
C1962 C1961 1.399 . S
C1962 C1963 1.376 . S
C1963 H1950 0.930 . S
C1963 C1962 1.376 . S
C1963 C1964 1.388 1_455 S
C1964 H1951 0.930 . S
C1964 C1963 1.388 1_655 S
C1964 C1965 1.390 . S
C1965 C1964 1.390 . S
C1965 C1966 1.394 1_655 S
C1965 C1971 1.465 . S
C1966 C1961 1.399 . S
C1966 C1965 1.394 1_455 S
C1966 C1967 1.516 . S
C1967 C1966 1.516 . S
C1967 C1968 1.502 . S
C1967 C1969 1.561 1_455 S
C1967 C1970 1.526 1_455 S
C1968 H1952 0.959 . S
C1968 H1953 0.959 . S
C1968 H1954 0.961 . S
C1968 C1967 1.502 . S
C1969 H1955 0.960 . S
C1969 H1956 0.961 . S
C1969 H1957 0.959 . S
C1969 C1967 1.561 1_655 S
C1970 C1967 1.526 1_655 S
C1970 C1971 1.396 . S
C1970 C1975 1.390 . S
C1971 C1965 1.465 . S
C1971 C1970 1.396 . S
C1971 C1972 1.399 . S
C1972 H1958 0.929 . S
C1972 C1971 1.399 . S
C1972 C1973 1.385 . S
C1973 H1959 0.931 . S
C1973 C1972 1.385 . S
C1973 C1974 1.389 . S
C1974 C1973 1.389 . S
C1974 C1975 1.387 . S
C1975 H1960 0.930 . S
C1975 C1970 1.390 . S
C1975 C1974 1.387 . S
C477 C213 2.284 . S
C489 C21 2.059 . S
C504 C358 2.278 . S
C516 C50 2.029 . S
C531 C79 2.030 . S
C543 C155 2.270 . S
C558 C416 2.280 . S
C570 C108 2.060 1_455 S
C585 C97 2.284 . S
C597 C137 2.043 . S
C612 C166 2.066 . S
C624 C242 2.280 . S
C639 C195 2.057 . S
C651 C39 2.284 . S
C666 C300 2.272 . S
C678 C224 2.058 1_655 S
C693 C445 2.261 . S
C705 C253 1.976 . S
C720 C282 2.042 1_655 S
C732 C126 2.274 . S
C747 C387 2.258 . S
C759 C311 1.972 . S
C774 C184 2.276 . S
C786 C340 2.021 . S
C801 C329 2.284 . S
C813 C369 2.052 . S
C828 C398 1.986 1_455 S
C840 C10 2.274 . S
C855 C427 2.066 . S
C867 C271 2.278 . S
C882 C68 2.274 . S
C894 C456 2.062 . S
C909 C15 1.197 . S
C921 C409 1.248 . S
C936 C206 1.232 1_655 S
C948 C44 1.196 . S
C963 C351 1.234 . S
C975 C73 1.235 . S
C990 C102 1.243 . S
C1002 C148 1.225 . S
C1017 C293 1.237 . S
C1029 C131 1.146 . S
C1044 C90 1.231 1_455 S
C1056 C160 1.152 . S
C1071 C189 1.143 . S
C1083 C235 1.243 . S
C1098 C218 1.212 . S
C1110 C32 1.251 . S
C1125 C247 1.211 . S
C1137 C177 1.224 . S
C1152 C276 1.143 . S
C1164 C438 1.250 . S
C1179 C119 1.223 . S
C1191 C305 1.217 . S
C1206 C380 1.207 1_455 S
C1218 C334 1.202 . S
C1233 C61 1.253 . S
C1245 C363 1.193 . S
C1260 C392 1.204 . S
C1272 C322 1.252 . S
C1287 C3 1.222 . S
C1299 C421 1.193 . S
C1314 C264 1.212 1_655 S
C1326 C450 1.238 . S
C1341 C13 1.584 1_556 S
C1353 C269 1.455 . S
C1368 C298 1.508 . S
C1380 C42 1.525 . S
C1395 C327 1.506 . S
C1407 C71 1.578 . S
C1422 C240 1.504 . S
C1434 C100 1.579 . S
C1449 C129 1.574 1_554 S
C1461 C385 1.412 . S
C1476 C158 1.557 . S
C1488 C414 1.507 . S
C1503 C443 1.500 . S
C1515 C187 1.564 . S
C1530 C356 1.477 . S
C1542 C216 1.577 . S
C1557 C37 1.431 . S
C1569 C245 1.514 . S
C1584 C66 1.417 . S
C1596 C274 1.563 . S
C1611 C303 1.524 1_556 S
C1623 C95 1.506 . S
C1638 C332 1.516 . S
C1650 C8 1.426 . S
C1665 C361 1.519 . S
C1677 C153 1.451 . S
C1692 C182 1.454 . S
C1704 C390 1.518 . S
C1719 C419 1.576 1_554 S
C1731 C211 1.413 . S
C1746 C124 1.495 . S
C1758 C448 1.568 . S
C1773 C295 2.421 . S
C1785 C5 2.391 . S
C1800 C34 2.415 . S
C1812 C324 2.393 . S
C1827 C63 2.387 . S
C1839 C237 2.427 . S
C1854 C266 2.387 . S
C1866 C92 2.427 . S
C1881 C121 2.440 . S
C1893 C411 2.416 . S
C1908 C440 2.438 . S
C1920 C150 2.421 . S
C1935 C353 2.390 . S
C1947 C179 2.404 . S
C1962 C208 2.439 . S
C1974 C382 2.417 . S
