# Generated by pormake.
# Topology uoa, (4)-cn, num edge types: 1
# Building blocks:
#     Node 0, Type 0, BuildingBlock: KOZSID_clean_sbu_0, # of connection points: 4
#     Node 1, Type 0, BuildingBlock: KOZSID_clean_sbu_0, # of connection points: 4
#     Node 2, Type 0, BuildingBlock: KOZSID_clean_sbu_0, # of connection points: 4
#     Node 3, Type 0, BuildingBlock: KOZSID_clean_sbu_0, # of connection points: 4
#     Node 4, Type 0, BuildingBlock: KOZSID_clean_sbu_0, # of connection points: 4
#     Node 5, Type 0, BuildingBlock: KOZSID_clean_sbu_0, # of connection points: 4
#     Node 6, Type 0, BuildingBlock: KOZSID_clean_sbu_0, # of connection points: 4
#     Node 7, Type 0, BuildingBlock: KOZSID_clean_sbu_0, # of connection points: 4
#     Node 8, Type 0, BuildingBlock: KOZSID_clean_sbu_0, # of connection points: 4
#     Node 9, Type 0, BuildingBlock: KOZSID_clean_sbu_0, # of connection points: 4
#     Node 10, Type 0, BuildingBlock: KOZSID_clean_sbu_0, # of connection points: 4
#     Node 11, Type 0, BuildingBlock: KOZSID_clean_sbu_0, # of connection points: 4
#     Node 12, Type 0, BuildingBlock: KOZSID_clean_sbu_0, # of connection points: 4
#     Node 13, Type 0, BuildingBlock: KOZSID_clean_sbu_0, # of connection points: 4
#     Node 14, Type 0, BuildingBlock: KOZSID_clean_sbu_0, # of connection points: 4
#     Node 15, Type 0, BuildingBlock: KOZSID_clean_sbu_0, # of connection points: 4
#     Node 16, Type 0, BuildingBlock: KOZSID_clean_sbu_0, # of connection points: 4
#     Node 17, Type 0, BuildingBlock: KOZSID_clean_sbu_0, # of connection points: 4
#     Node 18, Type 0, BuildingBlock: KOZSID_clean_sbu_0, # of connection points: 4
#     Node 19, Type 0, BuildingBlock: KOZSID_clean_sbu_0, # of connection points: 4
#     Node 20, Type 0, BuildingBlock: KOZSID_clean_sbu_0, # of connection points: 4
#     Node 21, Type 0, BuildingBlock: KOZSID_clean_sbu_0, # of connection points: 4
#     Node 22, Type 0, BuildingBlock: KOZSID_clean_sbu_0, # of connection points: 4
#     Node 23, Type 0, BuildingBlock: KOZSID_clean_sbu_0, # of connection points: 4
#     Node 24, Type 0, BuildingBlock: KOZSID_clean_sbu_0, # of connection points: 4
#     Node 25, Type 0, BuildingBlock: KOZSID_clean_sbu_0, # of connection points: 4
#     Node 26, Type 0, BuildingBlock: KOZSID_clean_sbu_0, # of connection points: 4
#     Node 27, Type 0, BuildingBlock: KOZSID_clean_sbu_0, # of connection points: 4
#     Node 28, Type 0, BuildingBlock: KOZSID_clean_sbu_0, # of connection points: 4
#     Node 29, Type 0, BuildingBlock: KOZSID_clean_sbu_0, # of connection points: 4
#     Node 30, Type 0, BuildingBlock: KOZSID_clean_sbu_0, # of connection points: 4
#     Node 31, Type 0, BuildingBlock: KOZSID_clean_sbu_0, # of connection points: 4
#     Edge 32, Type (0, 0), BuildingBlock: XIVTED_clean_linker_0, # of connection points: 2
#     Edge 33, Type (0, 0), BuildingBlock: XIVTED_clean_linker_0, # of connection points: 2
#     Edge 34, Type (0, 0), BuildingBlock: XIVTED_clean_linker_0, # of connection points: 2
#     Edge 35, Type (0, 0), BuildingBlock: XIVTED_clean_linker_0, # of connection points: 2
#     Edge 36, Type (0, 0), BuildingBlock: XIVTED_clean_linker_0, # of connection points: 2
#     Edge 37, Type (0, 0), BuildingBlock: XIVTED_clean_linker_0, # of connection points: 2
#     Edge 38, Type (0, 0), BuildingBlock: XIVTED_clean_linker_0, # of connection points: 2
#     Edge 39, Type (0, 0), BuildingBlock: XIVTED_clean_linker_0, # of connection points: 2
#     Edge 40, Type (0, 0), BuildingBlock: XIVTED_clean_linker_0, # of connection points: 2
#     Edge 41, Type (0, 0), BuildingBlock: XIVTED_clean_linker_0, # of connection points: 2
#     Edge 42, Type (0, 0), BuildingBlock: XIVTED_clean_linker_0, # of connection points: 2
#     Edge 43, Type (0, 0), BuildingBlock: XIVTED_clean_linker_0, # of connection points: 2
#     Edge 44, Type (0, 0), BuildingBlock: XIVTED_clean_linker_0, # of connection points: 2
#     Edge 45, Type (0, 0), BuildingBlock: XIVTED_clean_linker_0, # of connection points: 2
#     Edge 46, Type (0, 0), BuildingBlock: XIVTED_clean_linker_0, # of connection points: 2
#     Edge 47, Type (0, 0), BuildingBlock: XIVTED_clean_linker_0, # of connection points: 2
#     Edge 48, Type (0, 0), BuildingBlock: XIVTED_clean_linker_0, # of connection points: 2
#     Edge 49, Type (0, 0), BuildingBlock: XIVTED_clean_linker_0, # of connection points: 2
#     Edge 50, Type (0, 0), BuildingBlock: XIVTED_clean_linker_0, # of connection points: 2
#     Edge 51, Type (0, 0), BuildingBlock: XIVTED_clean_linker_0, # of connection points: 2
#     Edge 52, Type (0, 0), BuildingBlock: XIVTED_clean_linker_0, # of connection points: 2
#     Edge 53, Type (0, 0), BuildingBlock: XIVTED_clean_linker_0, # of connection points: 2
#     Edge 54, Type (0, 0), BuildingBlock: XIVTED_clean_linker_0, # of connection points: 2
#     Edge 55, Type (0, 0), BuildingBlock: XIVTED_clean_linker_0, # of connection points: 2
#     Edge 56, Type (0, 0), BuildingBlock: XIVTED_clean_linker_0, # of connection points: 2
#     Edge 57, Type (0, 0), BuildingBlock: XIVTED_clean_linker_0, # of connection points: 2
#     Edge 58, Type (0, 0), BuildingBlock: XIVTED_clean_linker_0, # of connection points: 2
#     Edge 59, Type (0, 0), BuildingBlock: XIVTED_clean_linker_0, # of connection points: 2
#     Edge 60, Type (0, 0), BuildingBlock: XIVTED_clean_linker_0, # of connection points: 2
#     Edge 61, Type (0, 0), BuildingBlock: XIVTED_clean_linker_0, # of connection points: 2
#     Edge 62, Type (0, 0), BuildingBlock: XIVTED_clean_linker_0, # of connection points: 2
#     Edge 63, Type (0, 0), BuildingBlock: XIVTED_clean_linker_0, # of connection points: 2
#     Edge 64, Type (0, 0), BuildingBlock: XIVTED_clean_linker_0, # of connection points: 2
#     Edge 65, Type (0, 0), BuildingBlock: XIVTED_clean_linker_0, # of connection points: 2
#     Edge 66, Type (0, 0), BuildingBlock: XIVTED_clean_linker_0, # of connection points: 2
#     Edge 67, Type (0, 0), BuildingBlock: XIVTED_clean_linker_0, # of connection points: 2
#     Edge 68, Type (0, 0), BuildingBlock: XIVTED_clean_linker_0, # of connection points: 2
#     Edge 69, Type (0, 0), BuildingBlock: XIVTED_clean_linker_0, # of connection points: 2
#     Edge 70, Type (0, 0), BuildingBlock: XIVTED_clean_linker_0, # of connection points: 2
#     Edge 71, Type (0, 0), BuildingBlock: XIVTED_clean_linker_0, # of connection points: 2
#     Edge 72, Type (0, 0), BuildingBlock: XIVTED_clean_linker_0, # of connection points: 2
#     Edge 73, Type (0, 0), BuildingBlock: XIVTED_clean_linker_0, # of connection points: 2
#     Edge 74, Type (0, 0), BuildingBlock: XIVTED_clean_linker_0, # of connection points: 2
#     Edge 75, Type (0, 0), BuildingBlock: XIVTED_clean_linker_0, # of connection points: 2
#     Edge 76, Type (0, 0), BuildingBlock: XIVTED_clean_linker_0, # of connection points: 2
#     Edge 77, Type (0, 0), BuildingBlock: XIVTED_clean_linker_0, # of connection points: 2
#     Edge 78, Type (0, 0), BuildingBlock: XIVTED_clean_linker_0, # of connection points: 2
#     Edge 79, Type (0, 0), BuildingBlock: XIVTED_clean_linker_0, # of connection points: 2
#     Edge 80, Type (0, 0), BuildingBlock: XIVTED_clean_linker_0, # of connection points: 2
#     Edge 81, Type (0, 0), BuildingBlock: XIVTED_clean_linker_0, # of connection points: 2
#     Edge 82, Type (0, 0), BuildingBlock: XIVTED_clean_linker_0, # of connection points: 2
#     Edge 83, Type (0, 0), BuildingBlock: XIVTED_clean_linker_0, # of connection points: 2
#     Edge 84, Type (0, 0), BuildingBlock: XIVTED_clean_linker_0, # of connection points: 2
#     Edge 85, Type (0, 0), BuildingBlock: XIVTED_clean_linker_0, # of connection points: 2
#     Edge 86, Type (0, 0), BuildingBlock: XIVTED_clean_linker_0, # of connection points: 2
#     Edge 87, Type (0, 0), BuildingBlock: XIVTED_clean_linker_0, # of connection points: 2
#     Edge 88, Type (0, 0), BuildingBlock: XIVTED_clean_linker_0, # of connection points: 2
#     Edge 89, Type (0, 0), BuildingBlock: XIVTED_clean_linker_0, # of connection points: 2
#     Edge 90, Type (0, 0), BuildingBlock: XIVTED_clean_linker_0, # of connection points: 2
#     Edge 91, Type (0, 0), BuildingBlock: XIVTED_clean_linker_0, # of connection points: 2
#     Edge 92, Type (0, 0), BuildingBlock: XIVTED_clean_linker_0, # of connection points: 2
#     Edge 93, Type (0, 0), BuildingBlock: XIVTED_clean_linker_0, # of connection points: 2
#     Edge 94, Type (0, 0), BuildingBlock: XIVTED_clean_linker_0, # of connection points: 2
#     Edge 95, Type (0, 0), BuildingBlock: XIVTED_clean_linker_0, # of connection points: 2
# Relax obj value: 0.028
# Max RMSD: 0.236
# Mean RMSD: 0.236
data_MOF--net-uoa--node1-KOZSID_clean_sbu_0--edge1-XIVTED_clean_linker_0
_symmetry_space_group_name_H-M    P1
_symmetry_Int_Tables_number       1
_symmetry_cell_setting            triclinic
loop_
_symmetry_equiv_pos_as_xyz
'x, y, z'
_cell_length_a     98.670569
_cell_length_b     98.979593
_cell_length_c     32.988409
_cell_angle_alpha  89.943682
_cell_angle_beta   89.974822
_cell_angle_gamma 90.002909
loop_
_atom_site_label
_atom_site_type_symbol
_atom_site_fract_x
_atom_site_fract_y
_atom_site_fract_z
_atom_type_partial_charge
C0 C 0.01571 0.11213 0.99921 0.0
C1 C 1.00526 0.11855 0.97849 0.0
C2 C 0.9975 0.1249 1.00705 0.0
C3 C 1.00355 0.12198 0.04343 0.0
N4 N 0.01468 0.11423 0.03959 0.0
Co5 Co 0.0262 0.10743 0.08448 0.0
N6 N 1.01147 0.11032 0.12472 0.0
C7 C 1.00027 0.11788 0.1189 0.0
C8 C 0.99164 0.11788 0.15142 0.0
C9 C 0.99786 0.11002 0.17992 0.0
C10 C 1.0101 0.10577 0.1633 0.0
N11 N 0.03775 0.10095 0.12993 0.0
C12 C 0.0345 0.09802 0.16914 0.0
C13 C 0.04607 0.09496 0.1912 0.0
C14 C 0.05687 0.09622 0.16508 0.0
C15 C 0.05136 0.09999 0.12852 0.0
N16 N 0.04057 0.10443 0.04335 0.0
C17 C 0.05384 0.1029 0.05109 0.0
C18 C 0.06122 0.10046 0.01641 0.0
C19 C 0.05194 0.10047 0.98515 0.0
C20 C 0.03938 0.10289 1.00249 0.0
N21 N 0.03334 0.12594 0.0943 0.0
C22 C 0.05045 0.14839 0.11087 0.0
C23 C 0.04757 0.14437 0.07085 0.0
C24 C 0.03897 0.13326 0.06325 0.0
C25 C 0.04352 0.14155 0.142 0.0
C26 C 0.03501 0.13054 0.13315 0.0
N27 N 0.02001 0.0887 0.07447 0.0
C28 C 0.02676 0.06561 0.06182 0.0
C29 C 0.0137 0.06212 0.0494 0.0
C30 C 1.00358 0.07215 0.05167 0.0
C31 C 1.00697 0.08543 0.06408 0.0
C32 C 0.02965 0.07874 0.07433 0.0
H33 H 0.99919 0.0931 0.06422 0.0
H34 H 0.03996 0.08086 0.08239 0.0
H35 H 0.03755 0.1301 0.03223 0.0
H36 H 0.03043 0.12529 0.15824 0.0
C37 C 0.99742 0.12354 0.08115 0.0
C38 C 0.0266 0.10446 0.97967 0.0
C39 C 0.02086 0.09934 0.18732 0.0
C40 C 0.05833 0.10131 0.09136 0.0
H41 H 1.00327 0.11848 0.94626 0.0
H42 H 0.98807 0.13024 1.00205 0.0
H43 H 0.98189 0.12282 0.15392 0.0
H44 H 0.99401 0.10806 0.21009 0.0
H45 H 0.04665 0.09239 0.22305 0.0
H46 H 0.06745 0.09444 0.1719 0.0
H47 H 0.07194 0.0983 0.01424 0.0
H48 H 0.05412 0.09885 0.95337 0.0
H49 H 0.05247 0.14928 0.04544 0.0
H50 H 0.04488 0.14445 0.17337 0.0
H51 H 0.03486 0.05822 0.06148 0.0
H52 H 0.99328 0.06989 0.04262 0.0
C53 C 0.15921 0.76524 0.25143 0.0
C54 C 0.15216 0.75519 0.23098 0.0
C55 C 0.14494 0.7482 0.2596 0.0
C56 C 0.14802 0.75429 0.29576 0.0
N57 N 0.15672 0.76466 0.29172 0.0
Co58 Co 0.16395 0.77595 0.33632 0.0
N59 N 0.15986 0.76175 0.37709 0.0
C60 C 0.1508 0.75169 0.37206 0.0
C61 C 0.14898 0.74398 0.40609 0.0
C62 C 0.15729 0.74958 0.43461 0.0
C63 C 0.16387 0.76043 0.41623 0.0
N64 N 0.17095 0.78721 0.38151 0.0
C65 C 0.17437 0.78373 0.42018 0.0
C66 C 0.17891 0.795 0.44121 0.0
C67 C 0.17786 0.80584 0.41524 0.0
C68 C 0.17288 0.80067 0.3796 0.0
N69 N 0.16797 0.78985 0.29473 0.0
C70 C 0.17015 0.80302 0.30201 0.0
C71 C 0.17314 0.81006 0.26711 0.0
C72 C 0.17278 0.80067 0.23623 0.0
C73 C 0.16963 0.78838 0.25399 0.0
N74 N 0.14576 0.78414 0.34506 0.0
C75 C 0.12304 0.8012 0.35943 0.0
C76 C 0.12735 0.79808 0.3198 0.0
C77 C 0.13861 0.78954 0.31331 0.0
C78 C 0.12991 0.79474 0.39137 0.0
C79 C 0.14108 0.7863 0.38363 0.0
N80 N 0.18242 0.76868 0.3274 0.0
C81 C 0.20599 0.77409 0.31553 0.0
C82 C 0.20877 0.76089 0.30358 0.0
C83 C 0.19817 0.75138 0.30529 0.0
C84 C 0.185 0.7555 0.31731 0.0
C85 C 0.19294 0.77771 0.32741 0.0
H86 H 0.17687 0.74819 0.31726 0.0
H87 H 0.19136 0.78814 0.33488 0.0
H88 H 0.14192 0.78784 0.28253 0.0
H89 H 0.1463 0.78205 0.40931 0.0
C90 C 0.14528 0.74894 0.334 0.0
C91 C 0.16756 0.77559 0.23166 0.0
C92 C 0.17242 0.77013 0.4384 0.0
C93 C 0.17198 0.80754 0.34215 0.0
H94 H 0.15224 0.75303 0.19884 0.0
H95 H 0.13878 0.73929 0.25481 0.0
H96 H 0.14245 0.73528 0.40972 0.0
H97 H 0.15794 0.74629 0.46581 0.0
H98 H 0.18253 0.79541 0.47211 0.0
H99 H 0.18085 0.81616 0.42127 0.0
H100 H 0.17592 0.8206 0.26458 0.0
H101 H 0.17469 0.80261 0.20444 0.0
H102 H 0.12249 0.80266 0.29381 0.0
H103 H 0.12685 0.79634 0.42251 0.0
H104 H 0.21385 0.78173 0.3148 0.0
H105 H 0.19992 0.74101 0.29626 0.0
C106 C 0.50763 0.91002 0.49842 0.0
C107 C 0.51805 0.90375 0.4772 0.0
C108 C 0.52579 0.8971 0.50523 0.0
C109 C 0.51973 0.89969 0.54183 0.0
N110 N 0.50864 0.90753 0.53862 0.0
Co111 Co 0.49706 0.9138 0.58407 0.0
N112 N 0.51172 0.91041 0.62413 0.0
C113 C 0.52287 0.90284 0.61774 0.0
C114 C 0.53146 0.90245 0.65032 0.0
C115 C 0.52528 0.91008 0.67941 0.0
C116 C 0.5131 0.9146 0.66304 0.0
N117 N 0.48548 0.91968 0.63015 0.0
C118 C 0.48874 0.92238 0.66946 0.0
C119 C 0.47717 0.92519 0.69181 0.0
C120 C 0.46636 0.92405 0.6657 0.0
C121 C 0.47186 0.92058 0.62886 0.0
N122 N 0.48275 0.91732 0.54322 0.0
C123 C 0.46947 0.91873 0.55109 0.0
C124 C 0.46209 0.92147 0.51663 0.0
C125 C 0.47137 0.92176 0.48536 0.0
C126 C 0.48393 0.91921 0.50247 0.0
N127 N 0.4899 0.89517 0.59183 0.0
C128 C 0.4727 0.8725 0.60503 0.0
C129 C 0.47588 0.87705 0.56565 0.0
C130 C 0.4845 0.88823 0.55974 0.0
C131 C 0.47939 0.87897 0.6373 0.0
C132 C 0.48795 0.89011 0.6301 0.0
N133 N 0.50324 0.93267 0.5761 0.0
C134 C 0.49658 0.95608 0.57 0.0
C135 C 0.50949 0.95986 0.5568 0.0
C136 C 0.51938 0.94962 0.55375 0.0
C137 C 0.51608 0.93609 0.564 0.0
C138 C 0.49369 0.94266 0.57914 0.0
H139 H 0.5238 0.9284 0.56135 0.0
H140 H 0.48342 0.9404 0.58733 0.0
H141 H 0.48617 0.89173 0.52914 0.0
H142 H 0.49229 0.89512 0.65599 0.0
C143 C 0.52577 0.89763 0.57946 0.0
C144 C 0.49672 0.91782 0.47943 0.0
C145 C 0.50244 0.92112 0.68728 0.0
C146 C 0.46494 0.91976 0.59151 0.0
H147 H 0.52002 0.90408 0.44495 0.0
H148 H 0.53517 0.89174 0.49979 0.0
H149 H 0.54119 0.89744 0.65244 0.0
H150 H 0.52915 0.91178 0.70967 0.0
H151 H 0.4766 0.92757 0.72378 0.0
H152 H 0.45578 0.92579 0.67266 0.0
H153 H 0.45135 0.92357 0.51463 0.0
H154 H 0.46918 0.92363 0.4537 0.0
H155 H 0.47148 0.87221 0.53934 0.0
H156 H 0.4775 0.87598 0.66835 0.0
H157 H 0.48848 0.96344 0.57209 0.0
H158 H 0.52955 0.95202 0.54374 0.0
C159 C 0.36307 0.2562 0.74975 0.0
C160 C 0.36936 0.26661 0.7286 0.0
C161 C 0.37587 0.2744 0.75675 0.0
C162 C 0.37317 0.26838 0.79333 0.0
N163 N 0.3654 0.25726 0.79001 0.0
Co164 Co 0.35904 0.24569 0.83535 0.0
N165 N 0.36216 0.26038 0.87539 0.0
C166 C 0.36964 0.27158 0.86907 0.0
C167 C 0.36986 0.28016 0.90161 0.0
C168 C 0.36222 0.27391 0.93062 0.0
C169 C 0.35788 0.26171 0.91425 0.0
N170 N 0.35306 0.23412 0.88134 0.0
C171 C 0.35031 0.23734 0.92065 0.0
C172 C 0.34752 0.22579 0.94297 0.0
C173 C 0.34874 0.21502 0.91686 0.0
C174 C 0.35224 0.22054 0.88006 0.0
N175 N 0.35578 0.23137 0.79449 0.0
C176 C 0.35441 0.21813 0.80238 0.0
C177 C 0.35181 0.21075 0.76789 0.0
C178 C 0.35156 0.21999 0.73657 0.0
C179 C 0.35399 0.23253 0.7537 0.0
N180 N 0.37777 0.23872 0.84375 0.0
C181 C 0.40088 0.22212 0.85797 0.0
C182 C 0.39632 0.225 0.81842 0.0
C183 C 0.38492 0.23333 0.81199 0.0
C184 C 0.39411 0.22872 0.88988 0.0
C185 C 0.38277 0.23697 0.88217 0.0
N186 N 0.34008 0.2517 0.82672 0.0
C187 C 0.31666 0.24487 0.81936 0.0
C188 C 0.31283 0.25772 0.80594 0.0
C189 C 0.32306 0.26766 0.80356 0.0
C190 C 0.3366 0.26448 0.81448 0.0
C191 C 0.33011 0.24211 0.8293 0.0
H192 H 0.34426 0.27223 0.8122 0.0
H193 H 0.33241 0.23189 0.83769 0.0
H194 H 0.38147 0.23484 0.78126 0.0
H195 H 0.37759 0.24128 0.90783 0.0
C196 C 0.375 0.27447 0.83094 0.0
C197 C 0.35535 0.24528 0.73068 0.0
C198 C 0.35152 0.25098 0.93857 0.0
C199 C 0.35324 0.21363 0.84278 0.0
H200 H 0.36914 0.26853 0.69632 0.0
H201 H 0.38119 0.2838 0.75138 0.0
H202 H 0.37479 0.2899 0.90378 0.0
H203 H 0.36045 0.27774 0.96088 0.0
H204 H 0.34511 0.2252 0.97494 0.0
H205 H 0.34707 0.20447 0.92382 0.0
H206 H 0.34975 0.20003 0.76589 0.0
H207 H 0.34977 0.21779 0.7049 0.0
H208 H 0.40134 0.22065 0.79235 0.0
H209 H 0.39707 0.22703 0.92106 0.0
H210 H 0.30937 0.23671 0.82094 0.0
H211 H 0.32065 0.27778 0.79348 0.0
C212 C 0.01608 0.90958 0.52719 0.0
C213 C 1.00561 0.90327 0.5481 0.0
C214 C 0.99779 0.89689 0.51973 0.0
C215 C 1.00386 0.89968 0.48326 0.0
N216 N 0.01504 0.90738 0.48687 0.0
Co217 Co 0.02666 0.91389 0.44181 0.0
N218 N 1.01196 0.91092 0.40159 0.0
C219 C 1.00073 0.90342 0.40759 0.0
C220 C 0.99215 0.90329 0.37496 0.0
C221 C 0.99844 0.91099 0.34621 0.0
C222 C 1.01066 0.9153 0.36283 0.0
N223 N 0.03829 0.92012 0.3962 0.0
C224 C 0.03508 0.92298 0.35693 0.0
C225 C 0.04668 0.92591 0.33481 0.0
C226 C 0.05745 0.92465 0.36097 0.0
C227 C 0.05191 0.921 0.3976 0.0
N228 N 0.04104 0.91693 0.48286 0.0
C229 C 0.05433 0.9183 0.47509 0.0
C230 C 0.06173 0.9207 0.50971 0.0
C231 C 0.05245 0.92083 0.54099 0.0
C232 C 0.03987 0.91852 0.5237 0.0
N233 N 0.03367 0.89528 0.43283 0.0
C234 C 0.0505 0.87242 0.41857 0.0
C235 C 0.04731 0.87672 0.45815 0.0
C236 C 0.03887 0.88801 0.46458 0.0
C237 C 0.04403 0.87927 0.38656 0.0
C238 C 0.03564 0.89049 0.39429 0.0
N239 N 0.0206 0.93272 0.45116 0.0
C240 C 0.02752 0.95576 0.46377 0.0
C241 C 0.01449 0.95936 0.47626 0.0
C242 C 1.0043 0.94941 0.47395 0.0
C243 C 1.00758 0.9361 0.46152 0.0
C244 C 0.03031 0.94261 0.45121 0.0
H245 H 0.99974 0.92849 0.46146 0.0
H246 H 0.04061 0.9404 0.44316 0.0
H247 H 0.03717 0.89128 0.49536 0.0
H248 H 0.03143 0.89576 0.36864 0.0
C249 C 0.99779 0.89796 0.44555 0.0
C250 C 0.02707 0.91714 0.54655 0.0
C251 C 0.02144 0.92169 0.33878 0.0
C252 C 0.05885 0.91974 0.4348 0.0
H253 H 1.00368 0.90338 0.58038 0.0
H254 H 0.98836 0.89158 0.5249 0.0
H255 H 0.98239 0.89836 0.37255 0.0
H256 H 0.99464 0.91283 0.31593 0.0
H257 H 0.04728 0.9284 0.3029 0.0
H258 H 0.06805 0.92635 0.35413 0.0
H259 H 0.07248 0.92273 0.51183 0.0
H260 H 0.05466 0.92246 0.57274 0.0
H261 H 0.05155 0.87161 0.48424 0.0
H262 H 0.04594 0.87647 0.35538 0.0
H263 H 0.03568 0.96309 0.46421 0.0
H264 H 0.99402 0.95175 0.48307 0.0
C265 C 0.36243 0.76724 0.77213 0.0
C266 C 0.36942 0.75717 0.79276 0.0
C267 C 0.37655 0.75006 0.76423 0.0
C268 C 0.37347 0.75609 0.72792 0.0
N269 N 0.36486 0.76654 0.73183 0.0
Co270 Co 0.35759 0.77773 0.68704 0.0
N271 N 0.36147 0.7634 0.64662 0.0
C272 C 0.37049 0.75331 0.6517 0.0
C273 C 0.37213 0.74549 0.61785 0.0
C274 C 0.36374 0.75104 0.58943 0.0
C275 C 0.35729 0.76198 0.60768 0.0
N276 N 0.35053 0.7889 0.64165 0.0
C277 C 0.34689 0.78529 0.60329 0.0
C278 C 0.34231 0.79652 0.58204 0.0
C279 C 0.34358 0.80745 0.60754 0.0
C280 C 0.34871 0.80237 0.64314 0.0
N281 N 0.35379 0.79179 0.72823 0.0
C282 C 0.35169 0.80495 0.72058 0.0
C283 C 0.34877 0.81209 0.7553 0.0
C284 C 0.34908 0.80278 0.78644 0.0
C285 C 0.35214 0.79043 0.769 0.0
N286 N 0.37583 0.78577 0.67769 0.0
C287 C 0.39882 0.80246 0.66291 0.0
C288 C 0.39452 0.79938 0.7026 0.0
C289 C 0.38313 0.79104 0.70928 0.0
C290 C 0.39174 0.79617 0.63107 0.0
C291 C 0.38043 0.78791 0.63901 0.0
N292 N 0.33912 0.7706 0.69678 0.0
C293 C 0.31576 0.77632 0.71052 0.0
C294 C 0.31295 0.76323 0.7237 0.0
C295 C 0.32341 0.75357 0.72109 0.0
C296 C 0.33649 0.75749 0.70768 0.0
C297 C 0.32868 0.77973 0.69705 0.0
H298 H 0.34455 0.7501 0.70744 0.0
H299 H 0.33028 0.79008 0.68874 0.0
H300 H 0.37986 0.78938 0.74013 0.0
H301 H 0.37507 0.78375 0.61346 0.0
C302 C 0.37609 0.75062 0.68975 0.0
C303 C 0.35413 0.77768 0.79163 0.0
C304 C 0.34862 0.77161 0.58557 0.0
C305 C 0.34978 0.80936 0.68032 0.0
H306 H 0.36934 0.75507 0.82494 0.0
H307 H 0.38263 0.7411 0.76918 0.0
H308 H 0.37858 0.73672 0.61431 0.0
H309 H 0.36289 0.74765 0.55838 0.0
H310 H 0.33849 0.79684 0.55135 0.0
H311 H 0.34061 0.81776 0.60127 0.0
H312 H 0.34604 0.82266 0.75754 0.0
H313 H 0.3472 0.80481 0.81818 0.0
H314 H 0.39953 0.80384 0.72851 0.0
H315 H 0.39475 0.79777 0.59987 0.0
H316 H 0.308 0.78407 0.71134 0.0
H317 H 0.32165 0.74326 0.73076 0.0
C318 C 0.50741 0.11325 0.02591 0.0
C319 C 0.5178 0.11968 0.04682 0.0
C320 C 0.52557 0.12613 0.01842 0.0
C321 C 0.51957 0.12327 0.98194 0.0
N322 N 0.50846 0.11547 0.98557 0.0
Co323 Co 0.49698 0.10877 0.94051 0.0
N324 N 0.51173 0.11178 0.90039 0.0
C325 C 0.52292 0.11932 0.90643 0.0
C326 C 0.53163 0.11931 0.87408 0.0
C327 C 0.52546 0.11148 0.84547 0.0
C328 C 0.51316 0.10727 0.86182 0.0
N329 N 0.48549 0.10238 0.89486 0.0
C330 C 0.48879 0.09945 0.8557 0.0
C331 C 0.47725 0.0964 0.83353 0.0
C332 C 0.46641 0.09764 0.85954 0.0
C333 C 0.47187 0.10141 0.89615 0.0
N334 N 0.48259 0.10567 0.9815 0.0
C335 C 0.46933 0.10416 0.97364 0.0
C336 C 0.46193 0.10162 1.00824 0.0
C337 C 0.47119 0.10154 0.03956 0.0
C338 C 0.48376 0.10401 0.02234 0.0
N339 N 0.48982 0.12733 0.93095 0.0
C340 C 0.47296 0.15007 0.91493 0.0
C341 C 0.4758 0.14586 0.95485 0.0
C342 C 0.48426 0.13461 0.96216 0.0
C343 C 0.47977 0.1432 0.88363 0.0
C344 C 0.48814 0.13204 0.8922 0.0
N345 N 0.50317 0.09001 0.9503 0.0
C346 C 0.4964 0.0669 0.96273 0.0
C347 C 0.50943 0.06338 0.97535 0.0
C348 C 0.51955 0.07342 0.97327 0.0
C349 C 0.51619 0.08672 0.96087 0.0
C350 C 0.49354 0.08004 0.95023 0.0
H351 H 0.52397 0.09439 0.96091 0.0
H352 H 0.48323 0.08217 0.94204 0.0
H353 H 0.48566 0.13135 0.99311 0.0
H354 H 0.49265 0.1268 0.86698 0.0
C355 C 0.52573 0.12491 0.94428 0.0
C356 C 0.49655 0.10548 0.04523 0.0
C357 C 0.50245 0.10079 0.83768 0.0
C358 C 0.46488 0.10265 0.9333 0.0
H359 H 0.51974 0.11955 0.07908 0.0
H360 H 0.53498 0.13149 0.02358 0.0
H361 H 0.54141 0.12421 0.87181 0.0
H362 H 0.52942 0.10946 0.81548 0.0
H363 H 0.47671 0.09384 0.80168 0.0
H364 H 0.45585 0.09584 0.85263 0.0
H365 H 0.45121 0.09944 1.01031 0.0
H366 H 0.46899 0.09982 0.07129 0.0
H367 H 0.47099 0.15075 0.98041 0.0
H368 H 0.47844 0.14621 0.85233 0.0
H369 H 0.48829 0.05951 0.96291 0.0
H370 H 0.52984 0.07115 0.98248 0.0
C371 C 0.16018 0.2537 0.2766 0.0
C372 C 0.15214 0.2626 0.29852 0.0
C373 C 0.14452 0.2696 0.27081 0.0
C374 C 0.14824 0.2645 0.23377 0.0
N375 N 0.15768 0.25475 0.23648 0.0
Co376 Co 0.16493 0.24408 0.19072 0.0
N377 N 0.16017 0.25849 0.15137 0.0
C378 C 0.15083 0.26821 0.15775 0.0
C379 C 0.14862 0.2762 0.1245 0.0
C380 C 0.15695 0.27113 0.09508 0.0
C381 C 0.1639 0.26028 0.11212 0.0
N382 N 0.1717 0.23333 0.1441 0.0
C383 C 0.1747 0.23719 0.10543 0.0
C384 C 0.17929 0.22618 0.08326 0.0
C385 C 0.17871 0.21512 0.10853 0.0
C386 C 0.17392 0.2199 0.14492 0.0
N387 N 0.16974 0.23003 0.23113 0.0
C388 C 0.17252 0.21705 0.22275 0.0
C389 C 0.17682 0.21011 0.25654 0.0
C390 C 0.17669 0.21934 0.28785 0.0
C391 C 0.17222 0.23146 0.27159 0.0
N392 N 0.14686 0.23552 0.1828 0.0
C393 C 0.12392 0.21868 0.16906 0.0
C394 C 0.12879 0.22124 0.20848 0.0
C395 C 0.14014 0.22967 0.21466 0.0
C396 C 0.1305 0.22542 0.13707 0.0
C397 C 0.14178 0.23375 0.1445 0.0
N398 N 0.18333 0.25172 0.19885 0.0
C399 C 0.20726 0.24674 0.20407 0.0
C400 C 0.21008 0.25952 0.21978 0.0
C401 C 0.19909 0.26852 0.22447 0.0
C402 C 0.18579 0.26447 0.21332 0.0
C403 C 0.19407 0.24308 0.19424 0.0
H404 H 0.17751 0.27148 0.21738 0.0
H405 H 0.19266 0.23286 0.18456 0.0
H406 H 0.14378 0.23104 0.24524 0.0
H407 H 0.14675 0.23824 0.11873 0.0
C408 C 0.14519 0.27022 0.19618 0.0
C409 C 0.16975 0.24411 0.2947 0.0
C410 C 0.17241 0.25091 0.08847 0.0
C411 C 0.17387 0.21284 0.18213 0.0
H412 H 0.15185 0.26395 0.33107 0.0
H413 H 0.13759 0.27782 0.27688 0.0
H414 H 0.14177 0.2847 0.1219 0.0
H415 H 0.15733 0.27471 0.06413 0.0
H416 H 0.18273 0.22609 0.05213 0.0
H417 H 0.18196 0.20494 0.10163 0.0
H418 H 0.18044 0.19979 0.25786 0.0
H419 H 0.17978 0.21736 0.31871 0.0
H420 H 0.12399 0.21666 0.23458 0.0
H421 H 0.12737 0.22387 0.10598 0.0
H422 H 0.2152 0.23926 0.20073 0.0
H423 H 0.20074 0.27855 0.23655 0.0
C424 C 0.98005 0.92193 0.02645 0.0
C425 C 0.96968 0.92916 0.04477 0.0
C426 C 0.96365 0.93666 0.01496 0.0
C427 C 0.9706 0.93359 0.98013 0.0
N428 N 0.98047 0.92435 0.98569 0.0
Co429 Co 0.99388 0.91859 0.94342 0.0
N430 N 0.98379 0.92779 0.89842 0.0
C431 C 0.97349 0.93656 0.90322 0.0
C432 C 0.9685 0.94141 0.8672 0.0
C433 C 0.97624 0.93547 0.83768 0.0
C434 C 0.98561 0.92735 0.85739 0.0
N435 N 1.0076 0.91312 0.9018 0.0
C436 C 1.00765 0.91441 0.86079 0.0
C437 C 0.01991 0.91014 0.84435 0.0
C438 C 0.02772 0.90582 0.87577 0.0
C439 C 0.01992 0.90782 0.90951 0.0
N440 N 1.00403 0.90912 0.98792 0.0
C441 C 0.01637 0.90339 0.9845 0.0
C442 C 0.02095 0.89743 0.01927 0.0
C443 C 1.01105 0.89973 0.0471 0.0
C444 C 1.00092 0.90708 0.02766 0.0
N445 N 0.9831 0.90188 0.933 0.0
C446 C 0.96666 0.87892 0.91545 0.0
C447 C 0.98078 0.87772 0.92098 0.0
C448 C 0.9888 0.88929 0.92938 0.0
C449 C 0.96109 0.89186 0.91978 0.0
C450 C 0.96933 0.903 0.92861 0.0
N451 N 1.00393 0.93569 0.95373 0.0
C452 C 1.00811 0.95372 1.00163 0.0
C453 C 1.00886 0.9633 0.97041 0.0
C454 C 1.00874 0.95843 0.93041 0.0
C455 C 1.00642 0.94462 0.92278 0.0
C456 C 1.00591 0.94006 0.99266 0.0
H457 H 1.00581 0.94141 0.89167 0.0
H458 H 1.00501 0.93327 0.0177 0.0
H459 H 0.9996 0.88803 0.93261 0.0
H460 H 0.96439 0.91258 0.93157 0.0
C461 C 0.96807 0.93902 0.94169 0.0
C462 C 0.99005 0.91406 0.04979 0.0
C463 C 0.99673 0.9203 0.83635 0.0
C464 C 0.02335 0.90356 0.94811 0.0
H465 H 0.96711 0.92934 0.07666 0.0
H466 H 0.95534 0.94371 0.01842 0.0
H467 H 0.96011 0.94831 0.86286 0.0
H468 H 0.97525 0.93712 0.80539 0.0
H469 H 0.02307 0.91026 0.81296 0.0
H470 H 0.0378 0.90154 0.87414 0.0
H471 H 0.03049 0.89226 0.02404 0.0
H472 H 1.01173 0.89687 0.07861 0.0
H473 H 0.98567 0.86798 0.91794 0.0
H474 H 0.95027 0.89343 0.9167 0.0
H475 H 1.00882 0.95679 0.03307 0.0
H476 H 1.00964 0.96531 0.90501 0.0
C477 C 0.85024 0.22873 0.77396 0.0
C478 C 0.84271 0.21863 0.79243 0.0
C479 C 0.8351 0.21271 0.76265 0.0
C480 C 0.8384 0.21948 0.72769 0.0
N481 N 0.8479 0.22911 0.73314 0.0
Co482 Co 0.85392 0.24234 0.69073 0.0
N483 N 0.84452 0.23244 0.64575 0.0
C484 C 0.83558 0.22229 0.65064 0.0
C485 C 0.83058 0.21744 0.61465 0.0
C486 C 0.83661 0.2251 0.58507 0.0
C487 C 0.84494 0.23428 0.60471 0.0
N488 N 0.85959 0.25595 0.64906 0.0
C489 C 0.85819 0.25608 0.60809 0.0
C490 C 0.86267 0.26824 0.59162 0.0
C491 C 0.86724 0.27589 0.62299 0.0
C492 C 0.86517 0.26812 0.65672 0.0
N493 N 0.86367 0.25227 0.73509 0.0
C494 C 0.86972 0.26443 0.73157 0.0
C495 C 0.87587 0.26883 0.76623 0.0
C496 C 0.87336 0.25902 0.79411 0.0
C497 C 0.86571 0.24911 0.7748 0.0
N498 N 0.87049 0.23128 0.68016 0.0
C499 C 0.89319 0.21434 0.66267 0.0
C500 C 0.89464 0.22845 0.66716 0.0
C501 C 0.8832 0.23671 0.67561 0.0
C502 C 0.88012 0.20907 0.66806 0.0
C503 C 0.86912 0.21755 0.6767 0.0
N504 N 0.8369 0.25262 0.70129 0.0
C505 C 0.81918 0.25724 0.75015 0.0
C506 C 0.80926 0.25768 0.71968 0.0
C507 C 0.81386 0.25708 0.67935 0.0
C508 C 0.82768 0.25481 0.67087 0.0
C509 C 0.83281 0.25495 0.74033 0.0
H510 H 0.83067 0.25404 0.63957 0.0
H511 H 0.83978 0.2542 0.765 0.0
H512 H 0.88467 0.24748 0.67813 0.0
H513 H 0.85944 0.21281 0.68028 0.0
C514 C 0.83297 0.217 0.6892 0.0
C515 C 0.85846 0.23849 0.7971 0.0
C516 C 0.85213 0.2453 0.58363 0.0
C517 C 0.86962 0.27141 0.69522 0.0
H518 H 0.84241 0.21614 0.82438 0.0
H519 H 0.82782 0.20461 0.76622 0.0
H520 H 0.82348 0.20922 0.61037 0.0
H521 H 0.83486 0.22422 0.5528 0.0
H522 H 0.86257 0.2714 0.56024 0.0
H523 H 0.87174 0.28585 0.62133 0.0
H524 H 0.88129 0.27821 0.77091 0.0
H525 H 0.87627 0.25959 0.82561 0.0
H526 H 0.90446 0.23314 0.66329 0.0
H527 H 0.87831 0.1983 0.66595 0.0
H528 H 0.81644 0.25784 0.78186 0.0
H529 H 0.80682 0.25801 0.65436 0.0
C530 C 0.54379 0.09818 0.52504 0.0
C531 C 0.55366 0.09035 0.5436 0.0
C532 C 0.55942 0.08261 0.51385 0.0
C533 C 0.5528 0.08614 0.47883 0.0
N534 N 0.54342 0.0959 0.48421 0.0
Co535 Co 0.53041 0.10233 0.44166 0.0
N536 N 0.54013 0.09267 0.39676 0.0
C537 C 0.55006 0.08349 0.40174 0.0
C538 C 0.55487 0.0784 0.36581 0.0
C539 C 0.5474 0.08462 0.33616 0.0
C540 C 0.53836 0.09314 0.3557 0.0
N541 N 0.51701 0.1084 0.39984 0.0
C542 C 0.51685 0.10694 0.35889 0.0
C543 C 0.50478 0.11171 0.3424 0.0
C544 C 0.49724 0.11656 0.37369 0.0
C545 C 0.50497 0.11434 0.40743 0.0
N546 N 0.52071 0.11235 0.48594 0.0
C547 C 0.50874 0.1188 0.48228 0.0
C548 C 0.50446 0.12505 0.51691 0.0
C549 C 0.51415 0.1222 0.54491 0.0
C550 C 0.52386 0.11425 0.5257 0.0
N551 N 0.54203 0.11849 0.43118 0.0
C552 C 0.55974 0.14053 0.41344 0.0
C553 C 0.54563 0.14241 0.41754 0.0
C554 C 0.53698 0.1313 0.42615 0.0
C555 C 0.56462 0.12738 0.4194 0.0
C556 C 0.55577 0.11671 0.42813 0.0
N557 N 0.51956 0.0857 0.45211 0.0
C558 C 0.51433 0.06819 0.50098 0.0
C559 C 0.51383 0.05831 0.47055 0.0
C560 C 0.51466 0.06284 0.43021 0.0
C561 C 0.51724 0.07655 0.42169 0.0
C562 C 0.51697 0.08172 0.49112 0.0
H563 H 0.51816 0.0795 0.3904 0.0
H564 H 0.51779 0.08867 0.51576 0.0
H565 H 0.52622 0.13309 0.42836 0.0
H566 H 0.56022 0.10693 0.43207 0.0
C567 C 0.55521 0.0807 0.44035 0.0
C568 C 0.53422 0.10664 0.54811 0.0
C569 C 0.52749 0.10055 0.33449 0.0
C570 C 0.50178 0.1189 0.44588 0.0
H571 H 0.55609 0.08996 0.57557 0.0
H572 H 0.56732 0.07513 0.51748 0.0
H573 H 0.56293 0.07111 0.36161 0.0
H574 H 0.54831 0.08288 0.3039 0.0
H575 H 0.50157 0.11161 0.31106 0.0
H576 H 0.48737 0.12131 0.37199 0.0
H577 H 0.49522 0.13075 0.5215 0.0
H578 H 0.5136 0.12509 0.57642 0.0
H579 H 0.54123 0.15233 0.41323 0.0
H580 H 0.57537 0.12525 0.41763 0.0
H581 H 0.51352 0.06547 0.53267 0.0
H582 H 0.51369 0.05581 0.40527 0.0
C583 C 0.67578 0.79199 0.27264 0.0
C584 C 0.68437 0.80137 0.29039 0.0
C585 C 0.69142 0.8074 0.25962 0.0
C586 C 0.68686 0.80136 0.22483 0.0
N587 N 0.67708 0.79208 0.23127 0.0
Co588 Co 0.66979 0.77938 0.18889 0.0
N589 N 0.67961 0.78866 0.14318 0.0
C590 C 0.68884 0.79858 0.14758 0.0
C591 C 0.69454 0.80267 0.11169 0.0
C592 C 0.68874 0.79471 0.0826 0.0
C593 C 0.67972 0.7862 0.10235 0.0
N594 N 0.66276 0.76629 0.14745 0.0
C595 C 0.66416 0.76593 0.10642 0.0
C596 C 0.65664 0.75548 0.08955 0.0
C597 C 0.65077 0.7487 0.12085 0.0
C598 C 0.6548 0.75547 0.15493 0.0
N599 N 0.65957 0.77025 0.23394 0.0
C600 C 0.65143 0.75937 0.23043 0.0
C601 C 0.64461 0.75612 0.26527 0.0
C602 C 0.64889 0.76532 0.29318 0.0
C603 C 0.65827 0.77354 0.27379 0.0
N604 N 0.65389 0.79162 0.1793 0.0
C605 C 0.63196 0.80977 0.16327 0.0
C606 C 0.62987 0.79576 0.16728 0.0
C607 C 0.64086 0.78694 0.17505 0.0
C608 C 0.64532 0.81437 0.16816 0.0
C609 C 0.65595 0.80528 0.17611 0.0
N610 N 0.68615 0.76786 0.19839 0.0
C611 C 0.70379 0.76267 0.24697 0.0
C612 C 0.71367 0.76249 0.2165 0.0
C613 C 0.7091 0.76306 0.17621 0.0
C614 C 0.6953 0.7655 0.16787 0.0
C615 C 0.69017 0.765 0.23717 0.0
H616 H 0.69234 0.76628 0.13665 0.0
H617 H 0.68316 0.76529 0.26163 0.0
H618 H 0.63867 0.77635 0.17721 0.0
H619 H 0.66588 0.8095 0.17944 0.0
C620 C 0.6919 0.80372 0.18589 0.0
C621 C 0.66762 0.78226 0.29629 0.0
C622 C 0.67295 0.77474 0.0821 0.0
C623 C 0.65 0.75279 0.19364 0.0
H624 H 0.68585 0.80333 0.32229 0.0
H625 H 0.69931 0.81494 0.26243 0.0
H626 H 0.70225 0.81032 0.10729 0.0
H627 H 0.69131 0.7948 0.05073 0.0
H628 H 0.65547 0.75299 0.05782 0.0
H629 H 0.64402 0.7401 0.11892 0.0
H630 H 0.6375 0.74794 0.26993 0.0
H631 H 0.64606 0.76548 0.3249 0.0
H632 H 0.61982 0.79153 0.1636 0.0
H633 H 0.64764 0.82504 0.16628 0.0
H634 H 0.70659 0.76144 0.27851 0.0
H635 H 0.71619 0.76242 0.15124 0.0
C636 C 0.97947 0.09877 0.49978 0.0
C637 C 0.96934 0.09122 0.48151 0.0
C638 C 0.96342 0.08368 0.51146 0.0
C639 C 0.97022 0.08704 0.5463 0.0
N640 N 0.97986 0.09652 0.54062 0.0
Co641 Co 0.99307 0.10269 0.5829 0.0
N642 N 0.98315 0.09335 0.62805 0.0
C643 C 0.97301 0.08439 0.62336 0.0
C644 C 0.96815 0.07944 0.65943 0.0
C645 C 0.9758 0.08553 0.68888 0.0
C646 C 0.98498 0.09384 0.66907 0.0
N647 N 1.00666 0.10852 0.62448 0.0
C648 C 1.00676 0.10719 0.66548 0.0
C649 C 0.0189 0.11181 0.6819 0.0
C650 C 0.02656 0.11637 0.65045 0.0
C651 C 0.01882 0.11417 0.61674 0.0
N652 N 1.003 0.11237 0.53832 0.0
C653 C 0.01514 0.11852 0.54177 0.0
C654 C 0.01955 0.12459 0.50697 0.0
C655 C 1.00977 0.12192 0.47908 0.0
C656 C 0.99987 0.11426 0.49852 0.0
N657 N 0.98188 0.11919 0.59296 0.0
C658 C 0.96465 0.14197 0.60605 0.0
C659 C 0.97888 0.14334 0.60414 0.0
C660 C 0.98727 0.13188 0.59745 0.0
C661 C 0.95947 0.12884 0.60208 0.0
C662 C 0.96809 0.1178 0.59568 0.0
N663 N 1.00351 0.08577 0.57274 0.0
C664 C 1.0081 0.06797 0.52436 0.0
C665 C 1.00858 0.05823 0.55516 0.0
C666 C 1.00819 0.06291 0.59536 0.0
C667 C 1.00583 0.0767 0.60344 0.0
C668 C 1.00583 0.08159 0.53378 0.0
H669 H 1.00503 0.07977 0.63465 0.0
H670 H 1.00513 0.08849 0.50894 0.0
H671 H 0.99808 0.13335 0.59574 0.0
H672 H 0.9634 0.10808 0.59299 0.0
C673 C 0.96773 0.08169 0.58488 0.0
C674 C 0.98929 0.10686 0.47638 0.0
C675 C 0.99599 0.10108 0.69001 0.0
C676 C 0.02211 0.11856 0.57815 0.0
H677 H 0.96683 0.09087 0.44959 0.0
H678 H 0.9553 0.07641 0.50808 0.0
H679 H 0.95994 0.07234 0.66386 0.0
H680 H 0.97491 0.08384 0.72119 0.0
H681 H 0.02204 0.11179 0.71329 0.0
H682 H 0.03651 0.12095 0.65205 0.0
H683 H 0.02892 0.13006 0.50221 0.0
H684 H 1.01039 0.12477 0.44755 0.0
H685 H 0.98351 0.1532 0.60698 0.0
H686 H 0.94868 0.12697 0.6043 0.0
H687 H 1.00905 0.06506 0.49284 0.0
H688 H 1.00891 0.05591 0.6205 0.0
C689 C 0.67665 0.22966 0.25175 0.0
C690 C 0.68517 0.22029 0.2337 0.0
C691 C 0.69218 0.21411 0.26429 0.0
C692 C 0.68766 0.22007 0.29927 0.0
N693 N 0.67795 0.22944 0.29311 0.0
Co694 Co 0.67075 0.24206 0.33581 0.0
N695 N 0.68038 0.2325 0.38127 0.0
C696 C 0.68949 0.22249 0.37667 0.0
C697 C 0.69504 0.21817 0.41253 0.0
C698 C 0.68923 0.22606 0.44183 0.0
C699 C 0.68039 0.23477 0.4222 0.0
N700 N 0.66384 0.25511 0.37754 0.0
C701 C 0.66514 0.25528 0.41859 0.0
C702 C 0.65775 0.26579 0.4357 0.0
C703 C 0.65207 0.27279 0.40454 0.0
C704 C 0.65607 0.26609 0.37031 0.0
N705 N 0.66063 0.25143 0.29104 0.0
C706 C 0.65261 0.26238 0.29481 0.0
C707 C 0.64576 0.26574 0.26013 0.0
C708 C 0.64988 0.25653 0.23206 0.0
C709 C 0.65923 0.2482 0.2512 0.0
N710 N 0.6547 0.22997 0.3449 0.0
C711 C 0.63247 0.21194 0.35847 0.0
C712 C 0.63064 0.22605 0.35689 0.0
C713 C 0.64176 0.23479 0.35007 0.0
C714 C 0.64578 0.20723 0.35334 0.0
C715 C 0.65656 0.21626 0.3467 0.0
N716 N 0.68726 0.25342 0.32672 0.0
C717 C 0.70471 0.2593 0.27808 0.0
C718 C 0.71477 0.25922 0.30815 0.0
C719 C 0.71033 0.25793 0.34848 0.0
C720 C 0.69656 0.25537 0.35708 0.0
C721 C 0.69115 0.25668 0.28809 0.0
H722 H 0.69373 0.25427 0.38833 0.0
H723 H 0.68408 0.25647 0.26377 0.0
H724 H 0.63973 0.24543 0.34901 0.0
H725 H 0.66645 0.21194 0.34329 0.0
C726 C 0.6926 0.21749 0.3382 0.0
C727 C 0.66849 0.23947 0.22843 0.0
C728 C 0.6737 0.24622 0.44272 0.0
C729 C 0.65129 0.26892 0.3317 0.0
H730 H 0.6866 0.21841 0.20172 0.0
H731 H 0.69999 0.2065 0.26124 0.0
H732 H 0.70263 0.2104 0.41681 0.0
H733 H 0.69169 0.2258 0.47377 0.0
H734 H 0.65653 0.26817 0.46749 0.0
H735 H 0.64544 0.28147 0.40667 0.0
H736 H 0.63871 0.27399 0.25569 0.0
H737 H 0.64701 0.25643 0.20039 0.0
H738 H 0.62063 0.23037 0.36029 0.0
H739 H 0.64803 0.19654 0.35505 0.0
H740 H 0.7073 0.26059 0.24643 0.0
H741 H 0.71746 0.25855 0.37333 0.0
C742 C 0.54411 0.9244 0.99962 0.0
C743 C 0.55408 0.93213 0.98117 0.0
C744 C 0.55984 0.93984 1.01095 0.0
C745 C 0.55312 0.93639 0.04589 0.0
N746 N 0.54368 0.92671 0.04043 0.0
Co747 Co 0.53061 0.92032 0.08293 0.0
N748 N 0.54037 0.92989 0.12789 0.0
C749 C 0.55032 0.93905 0.12296 0.0
C750 C 0.55512 0.94413 0.15891 0.0
C751 C 0.54762 0.93792 0.18852 0.0
C752 C 0.53857 0.92942 0.16895 0.0
N753 N 0.51719 0.91424 0.12475 0.0
C754 C 0.51705 0.91563 0.16573 0.0
C755 C 0.50498 0.91084 0.18222 0.0
C756 C 0.49741 0.90609 0.1509 0.0
C757 C 0.50513 0.90836 0.11715 0.0
N758 N 0.52083 0.91045 0.03854 0.0
C759 C 0.5088 0.9041 0.04216 0.0
C760 C 0.50445 0.89796 1.00747 0.0
C761 C 0.51415 0.90077 0.97945 0.0
C762 C 0.52396 0.90858 0.99873 0.0
N763 N 0.54215 0.90407 0.09303 0.0
C764 C 0.5599 0.8817 0.10633 0.0
C765 C 0.54571 0.88 0.10425 0.0
C766 C 0.53705 0.89125 0.09748 0.0
C767 C 0.56477 0.89495 0.10238 0.0
C768 C 0.5559 0.90578 0.09584 0.0
N769 N 0.51986 0.93703 0.07274 0.0
C770 C 0.51526 0.95492 0.02459 0.0
C771 C 0.5145 0.96455 0.05563 0.0
C772 C 0.51475 0.95973 0.09572 0.0
C773 C 0.51726 0.94595 0.10356 0.0
C774 C 0.51765 0.94129 0.03379 0.0
H775 H 0.51798 0.9428 0.13472 0.0
H776 H 0.51857 0.93448 1.00884 0.0
H777 H 0.52628 0.88954 0.0957 0.0
H778 H 0.56036 0.9156 0.09312 0.0
C779 C 0.55552 0.94183 0.08438 0.0
C780 C 0.53445 0.91606 0.97642 0.0
C781 C 0.52768 0.92203 0.19013 0.0
C782 C 0.50188 0.90393 0.07863 0.0
H783 H 0.55657 0.93248 0.94923 0.0
H784 H 0.56781 0.94726 1.00739 0.0
H785 H 0.5632 0.95139 0.16314 0.0
H786 H 0.54852 0.93965 0.22079 0.0
H787 H 0.50178 0.9109 0.21357 0.0
H788 H 0.48753 0.90137 0.15258 0.0
H789 H 0.49517 0.89233 1.00286 0.0
H790 H 0.51355 0.8979 0.94795 0.0
H791 H 0.5413 0.87003 0.10706 0.0
H792 H 0.5755 0.89709 0.10475 0.0
H793 H 0.51444 0.95793 0.99312 0.0
H794 H 0.51382 0.96663 0.12101 0.0
C795 C 0.85128 0.79301 0.75936 0.0
C796 C 0.84892 0.80559 0.74235 0.0
C797 C 0.84939 0.8148 0.77366 0.0
C798 C 0.85203 0.80737 0.80805 0.0
N799 N 0.85322 0.79411 0.80013 0.0
Co800 Co 0.85658 0.77978 0.84103 0.0
N801 N 0.85105 0.79144 0.88729 0.0
C802 C 0.85039 0.80502 0.88591 0.0
C803 C 0.84716 0.8106 0.92282 0.0
C804 C 0.84593 0.79986 0.9491 0.0
C805 C 0.84845 0.78826 0.92678 0.0
N806 N 0.85979 0.7651 0.88115 0.0
C807 C 0.85572 0.76383 0.92027 0.0
C808 C 0.85993 0.75154 0.93645 0.0
C809 C 0.86729 0.74518 0.90707 0.0
C810 C 0.86703 0.75377 0.8745 0.0
N811 N 0.8625 0.7681 0.79536 0.0
C812 C 0.87003 0.75682 0.79845 0.0
C813 C 0.87239 0.75069 0.76186 0.0
C814 C 0.86591 0.75858 0.73391 0.0
C815 C 0.85999 0.76918 0.75515 0.0
N816 N 0.87545 0.78656 0.84813 0.0
C817 C 0.89852 0.80333 0.86047 0.0
C818 C 0.89215 0.79663 0.89294 0.0
C819 C 0.88077 0.78832 0.88618 0.0
C820 C 0.89368 0.8004 0.82131 0.0
C821 C 0.88234 0.79193 0.81581 0.0
N822 N 0.8375 0.77402 0.83358 0.0
C823 C 0.82024 0.75836 0.81051 0.0
C824 C 0.81028 0.7686 0.81137 0.0
C825 C 0.81425 0.78129 0.82562 0.0
C826 C 0.82769 0.78377 0.83626 0.0
C827 C 0.83379 0.76128 0.82174 0.0
H828 H 0.83013 0.7939 0.84512 0.0
H829 H 0.84132 0.75338 0.81966 0.0
H830 H 0.87579 0.78402 0.91224 0.0
H831 H 0.87867 0.79038 0.78534 0.0
C832 C 0.8512 0.81189 0.84847 0.0
C833 C 0.85252 0.7803 0.73608 0.0
C834 C 0.84956 0.77461 0.9448 0.0
C835 C 0.87202 0.75075 0.83605 0.0
H836 H 0.84708 0.80785 0.71072 0.0
H837 H 0.84749 0.82555 0.77171 0.0
H838 H 0.84564 0.82117 0.92973 0.0
H839 H 0.8437 0.8005 0.98116 0.0
H840 H 0.85821 0.7477 0.96673 0.0
H841 H 0.87203 0.73533 0.90897 0.0
H842 H 0.87747 0.74117 0.7564 0.0
H843 H 0.86546 0.7566 0.7017 0.0
H844 H 0.89542 0.79836 0.92382 0.0
H845 H 0.89841 0.80487 0.79491 0.0
H846 H 0.81771 0.74832 0.79999 0.0
H847 H 0.80702 0.78948 0.82816 0.0
C848 C 0.51987 0.60961 0.50546 0.0
C849 C 0.51096 0.61784 0.48412 0.0
C850 C 0.50403 0.62529 0.51234 0.0
C851 C 0.50917 0.6213 0.54911 0.0
N852 N 0.51889 0.61185 0.54577 0.0
Co853 Co 0.52952 0.60418 0.59111 0.0
N854 N 0.51519 0.6089 0.63099 0.0
C855 C 0.50555 0.61835 0.62511 0.0
C856 C 0.49763 0.62052 0.65857 0.0
C857 C 0.50267 0.61205 0.68762 0.0
C858 C 0.51343 0.60504 0.67018 0.0
N859 N 0.54021 0.59685 0.63724 0.0
C860 C 0.53636 0.59373 0.67586 0.0
C861 C 0.54733 0.58873 0.69754 0.0
C862 C 0.55838 0.58921 0.67211 0.0
C863 C 0.55362 0.59433 0.63611 0.0
N864 N 0.54353 0.59947 0.55028 0.0
C865 C 0.55651 0.59643 0.55847 0.0
C866 C 0.56343 0.59234 0.52442 0.0
C867 C 0.5542 0.59287 0.49311 0.0
C868 C 0.54209 0.59739 0.50963 0.0
N869 N 0.5384 0.62198 0.5999 0.0
C870 C 0.55557 0.64462 0.61374 0.0
C871 C 0.55262 0.64007 0.57426 0.0
C872 C 0.54405 0.62886 0.56804 0.0
C873 C 0.54903 0.63789 0.64586 0.0
C874 C 0.54053 0.62675 0.63837 0.0
N875 N 0.52152 0.58609 0.58181 0.0
C876 C 0.52633 0.5625 0.56955 0.0
C877 C 0.51342 0.56037 0.55375 0.0
C878 C 0.50423 0.57127 0.55439 0.0
C879 C 0.50851 0.58411 0.5685 0.0
C880 C 0.5301 0.57522 0.58348 0.0
H881 H 0.50153 0.59251 0.56716 0.0
H882 H 0.54038 0.57627 0.59342 0.0
H883 H 0.5424 0.62547 0.53735 0.0
H884 H 0.53616 0.62166 0.66411 0.0
C885 C 0.50353 0.62418 0.58694 0.0
C886 C 0.52948 0.60022 0.48656 0.0
C887 C 0.52273 0.59631 0.69344 0.0
C888 C 0.56069 0.59462 0.59894 0.0
H889 H 0.50958 0.61837 0.45161 0.0
H890 H 0.49584 0.63232 0.50677 0.0
H891 H 0.4892 0.62745 0.66155 0.0
H892 H 0.49913 0.61159 0.71862 0.0
H893 H 0.54742 0.58512 0.72848 0.0
H894 H 0.56854 0.58573 0.67868 0.0
H895 H 0.57371 0.58856 0.52289 0.0
H896 H 0.55616 0.59 0.46206 0.0
H897 H 0.55701 0.64501 0.54809 0.0
H898 H 0.55088 0.64079 0.67699 0.0
H899 H 0.5337 0.55438 0.57014 0.0
H900 H 0.49406 0.57003 0.54259 0.0
C901 C 0.66076 0.26751 0.74964 0.0
C902 C 0.65276 0.25854 0.7278 0.0
C903 C 0.64514 0.25157 0.75558 0.0
C904 C 0.64882 0.25674 0.79257 0.0
N905 N 0.65824 0.26651 0.78975 0.0
Co906 Co 0.66546 0.27725 0.83535 0.0
N907 N 0.66073 0.26288 0.87486 0.0
C908 C 0.6514 0.25314 0.86863 0.0
C909 C 0.64921 0.24519 0.90197 0.0
C910 C 0.65753 0.25031 0.9313 0.0
C911 C 0.66447 0.26114 0.91411 0.0
N912 N 0.67221 0.28808 0.88183 0.0
C913 C 0.67523 0.28427 0.92051 0.0
C914 C 0.6798 0.29531 0.94255 0.0
C915 C 0.67918 0.30634 0.91716 0.0
C916 C 0.6744 0.3015 0.88085 0.0
N917 N 0.67026 0.29125 0.79478 0.0
C918 C 0.673 0.30425 0.80298 0.0
C919 C 0.67729 0.31116 0.76907 0.0
C920 C 0.67719 0.30187 0.73789 0.0
C921 C 0.67276 0.28976 0.75436 0.0
N922 N 0.64738 0.28578 0.84323 0.0
C923 C 0.62437 0.30256 0.85685 0.0
C924 C 0.62925 0.29996 0.81745 0.0
C925 C 0.64064 0.29157 0.81133 0.0
C926 C 0.63098 0.29589 0.8889 0.0
C927 C 0.64229 0.28759 0.88152 0.0
N928 N 0.68389 0.26964 0.82728 0.0
C929 C 0.70783 0.27462 0.82233 0.0
C930 C 0.71068 0.26183 0.80679 0.0
C931 C 0.69971 0.25283 0.80195 0.0
C932 C 0.68639 0.25688 0.8129 0.0
C933 C 0.69461 0.27829 0.83189 0.0
H934 H 0.67812 0.24985 0.80881 0.0
H935 H 0.69318 0.28852 0.84145 0.0
H936 H 0.64428 0.29017 0.78075 0.0
H937 H 0.64727 0.28314 0.90733 0.0
C938 C 0.64576 0.25106 0.83023 0.0
C939 C 0.67034 0.27707 0.73147 0.0
C940 C 0.67298 0.27055 0.93759 0.0
C941 C 0.67434 0.30852 0.84355 0.0
H942 H 0.65253 0.25713 0.69528 0.0
H943 H 0.63824 0.24331 0.7496 0.0
H944 H 0.64237 0.23668 0.9047 0.0
H945 H 0.65793 0.24677 0.9623 0.0
H946 H 0.68324 0.29544 0.97366 0.0
H947 H 0.68241 0.31654 0.92395 0.0
H948 H 0.68088 0.32148 0.76759 0.0
H949 H 0.68026 0.3038 0.70697 0.0
H950 H 0.62443 0.30449 0.7913 0.0
H951 H 0.62785 0.29746 0.91998 0.0
H952 H 0.71578 0.28209 0.82582 0.0
H953 H 0.7014 0.24279 0.78998 0.0
C954 C 1.00751 0.40912 1.00012 0.0
C955 C 0.01797 0.4028 0.97923 0.0
C956 C 0.02575 0.39637 1.00761 0.0
C957 C 0.01968 0.39913 0.04407 0.0
N958 N 1.00852 0.40686 0.04044 0.0
Co959 Co 0.99692 0.41338 0.0855 0.0
N960 N 1.01163 0.4104 0.12572 0.0
C961 C 0.02288 0.40293 0.11969 0.0
C962 C 0.03153 0.40292 0.15214 0.0
C963 C 0.02528 0.41067 0.18081 0.0
C964 C 0.01299 0.41485 0.16438 0.0
N965 N 0.98533 0.41962 0.13115 0.0
C966 C 0.98857 0.42254 0.17036 0.0
C967 C 0.97699 0.42548 0.19248 0.0
C968 C 0.96619 0.42418 0.16638 0.0
C969 C 0.97171 0.42049 0.12977 0.0
N970 N 0.98257 0.41645 0.04443 0.0
C971 C 0.96928 0.41783 0.05221 0.0
C972 C 0.9619 0.42034 0.01759 0.0
C973 C 0.9712 0.42053 0.98633 0.0
C974 C 0.98376 0.41815 1.00361 0.0
N975 N 0.98989 0.39475 0.09464 0.0
C976 C 0.97323 0.37173 0.10933 0.0
C977 C 0.97627 0.37611 0.06968 0.0
C978 C 0.98462 0.38747 0.06304 0.0
C979 C 0.97971 0.37866 0.14116 0.0
C980 C 0.98799 0.38996 0.13324 0.0
N981 N 1.00298 0.43222 0.076 0.0
C982 C 0.99596 0.45525 0.06336 0.0
C983 C 1.00892 0.45886 0.05032 0.0
C984 C 0.01915 0.44894 0.0524 0.0
C985 C 0.01595 0.43563 0.06513 0.0
C986 C 0.99326 0.4421 0.07618 0.0
H987 H 0.02381 0.42803 0.065 0.0
H988 H 0.98299 0.43989 0.08455 0.0
H989 H 0.98622 0.39077 0.03221 0.0
H990 H 0.99222 0.39525 0.15879 0.0
C991 C 0.02578 0.39744 0.08176 0.0
C992 C 0.99659 0.4168 0.98078 0.0
C993 C 1.00223 0.42129 0.18846 0.0
C994 C 0.96477 0.41925 0.09254 0.0
H995 H 0.01995 0.40298 0.94697 0.0
H996 H 0.0352 0.39107 1.00246 0.0
H997 H 0.04133 0.39807 0.15443 0.0
H998 H 0.02919 0.41265 0.21087 0.0
H999 H 0.97639 0.42802 0.22433 0.0
H1000 H 0.9556 0.4259 0.17322 0.0
H1001 H 0.95116 0.42243 0.01546 0.0
H1002 H 0.96901 0.42226 0.9546 0.0
H1003 H 0.97202 0.37097 0.04369 0.0
H1004 H 0.9779 0.37585 0.17241 0.0
H1005 H 0.98778 0.46255 0.0631 0.0
H1006 H 0.02938 0.4513 0.04286 0.0
C1007 C 0.86178 0.75626 0.25579 0.0
C1008 C 0.86821 0.76665 0.23489 0.0
C1009 C 0.87469 0.77436 0.26328 0.0
C1010 C 0.87183 0.76835 0.29976 0.0
N1011 N 0.86399 0.75729 0.29615 0.0
Co1012 Co 0.85721 0.74588 0.34135 0.0
N1013 N 0.86033 0.76054 0.3815 0.0
C1014 C 0.86798 0.77164 0.37539 0.0
C1015 C 0.8681 0.78028 0.40779 0.0
C1016 C 0.86022 0.77418 0.4365 0.0
C1017 C 0.85586 0.76198 0.42016 0.0
N1018 N 0.8507 0.73448 0.38711 0.0
C1019 C 0.84773 0.73779 0.42626 0.0
C1020 C 0.84456 0.7263 0.44845 0.0
C1021 C 0.84577 0.7155 0.42249 0.0
C1022 C 0.84963 0.72091 0.38588 0.0
N1023 N 0.854 0.73156 0.30041 0.0
C1024 C 0.8524 0.71835 0.30838 0.0
C1025 C 0.84983 0.71098 0.27385 0.0
C1026 C 0.84984 0.72019 0.24244 0.0
C1027 C 0.85238 0.73271 0.25954 0.0
N1028 N 0.87577 0.73862 0.35074 0.0
C1029 C 0.89865 0.72177 0.36557 0.0
C1030 C 0.89437 0.72489 0.3259 0.0
C1031 C 0.88307 0.73333 0.31919 0.0
C1032 C 0.89171 0.72826 0.39738 0.0
C1033 C 0.88049 0.73665 0.38938 0.0
N1034 N 0.83844 0.75218 0.33153 0.0
C1035 C 0.81531 0.74549 0.31823 0.0
C1036 C 0.81197 0.75842 0.30458 0.0
C1037 C 0.82206 0.76848 0.3068 0.0
C1038 C 0.83528 0.76512 0.32018 0.0
C1039 C 0.82838 0.74264 0.33169 0.0
H1040 H 0.84302 0.77284 0.32011 0.0
H1041 H 0.83041 0.7324 0.34044 0.0
H1042 H 0.87983 0.73499 0.28833 0.0
H1043 H 0.87517 0.7409 0.41489 0.0
C1044 C 0.87354 0.77444 0.33744 0.0
C1045 C 0.85401 0.74542 0.23643 0.0
C1046 C 0.84916 0.7514 0.4443 0.0
C1047 C 0.85084 0.71394 0.34875 0.0
H1048 H 0.86806 0.76863 0.20265 0.0
H1049 H 0.88008 0.78374 0.25811 0.0
H1050 H 0.87309 0.78999 0.41001 0.0
H1051 H 0.85825 0.77813 0.46652 0.0
H1052 H 0.84194 0.72578 0.48027 0.0
H1053 H 0.84388 0.70498 0.42942 0.0
H1054 H 0.84759 0.70029 0.27187 0.0
H1055 H 0.84814 0.71798 0.21072 0.0
H1056 H 0.89954 0.72064 0.29992 0.0
H1057 H 0.89445 0.72639 0.42865 0.0
H1058 H 0.80785 0.73745 0.31795 0.0
H1059 H 0.8199 0.77868 0.29684 0.0
C1060 C 0.51576 0.40954 0.02385 0.0
C1061 C 0.50524 0.40331 0.04476 0.0
C1062 C 0.49743 0.39692 0.01643 0.0
C1063 C 0.50353 0.39964 0.97997 0.0
N1064 N 0.51473 0.40731 0.98353 0.0
Co1065 Co 0.52638 0.41373 0.93837 0.0
N1066 N 0.51167 0.41072 0.89816 0.0
C1067 C 0.5004 0.40328 0.90426 0.0
C1068 C 0.49181 0.40318 0.87168 0.0
C1069 C 0.49812 0.41083 0.84286 0.0
C1070 C 0.51037 0.41509 0.85939 0.0
N1071 N 0.53804 0.41979 0.89263 0.0
C1072 C 0.53485 0.42256 0.8533 0.0
C1073 C 0.54646 0.42537 0.83113 0.0
C1074 C 0.55723 0.42413 0.85735 0.0
C1075 C 0.55166 0.42061 0.89406 0.0
N1076 N 0.54072 0.41687 0.97945 0.0
C1077 C 0.55402 0.41823 0.97169 0.0
C1078 C 0.5614 0.42071 1.00629 0.0
C1079 C 0.55212 0.4209 0.03754 0.0
C1080 C 0.53954 0.41854 0.02028 0.0
N1081 N 0.53338 0.39509 0.92963 0.0
C1082 C 0.55054 0.37261 0.91392 0.0
C1083 C 0.54769 0.37683 0.9538 0.0
C1084 C 0.53905 0.38795 0.96096 0.0
C1085 C 0.54351 0.37923 0.88258 0.0
C1086 C 0.53499 0.39026 0.89101 0.0
N1087 N 0.52035 0.43259 0.94705 0.0
C1088 C 0.52712 0.45592 0.95462 0.0
C1089 C 0.51402 0.45983 0.9657 0.0
C1090 C 0.50401 0.44964 0.96701 0.0
C1091 C 0.50736 0.4361 0.95731 0.0
C1092 C 0.53002 0.44249 0.94554 0.0
H1093 H 0.49956 0.42846 0.95872 0.0
H1094 H 0.54037 0.44015 0.93845 0.0
H1095 H 0.53766 0.39128 0.99185 0.0
H1096 H 0.53037 0.39536 0.8657 0.0
C1097 C 0.49745 0.39789 0.94228 0.0
C1098 C 0.52675 0.41711 0.04322 0.0
C1099 C 0.52119 0.42137 0.83521 0.0
C1100 C 0.55856 0.41949 0.93137 0.0
H1101 H 0.50324 0.4035 0.07699 0.0
H1102 H 0.48796 0.39167 0.0216 0.0
H1103 H 0.48202 0.3983 0.86935 0.0
H1104 H 0.49431 0.41267 0.81259 0.0
H1105 H 0.54709 0.42779 0.79918 0.0
H1106 H 0.56783 0.42577 0.85051 0.0
H1107 H 0.57216 0.42273 1.00842 0.0
H1108 H 0.55431 0.42257 0.06928 0.0
H1109 H 0.55264 0.37208 0.97937 0.0
H1110 H 0.54485 0.37617 0.85134 0.0
H1111 H 0.53537 0.46314 0.9541 0.0
H1112 H 0.49368 0.45208 0.9753 0.0
C1113 C 0.8637 0.26535 0.27554 0.0
C1114 C 0.86998 0.25497 0.29684 0.0
C1115 C 0.87651 0.24714 0.26882 0.0
C1116 C 0.87381 0.2531 0.23215 0.0
N1117 N 0.86604 0.26422 0.23529 0.0
Co1118 Co 0.85961 0.27565 0.18972 0.0
N1119 N 0.86276 0.26088 0.14997 0.0
C1120 C 0.87021 0.24967 0.15655 0.0
C1121 C 0.87034 0.24096 0.12432 0.0
C1122 C 0.86269 0.24713 0.09521 0.0
C1123 C 0.85845 0.25943 0.11118 0.0
N1124 N 0.85359 0.28709 0.14349 0.0
C1125 C 0.85087 0.28378 0.10422 0.0
C1126 C 0.84805 0.29528 0.08168 0.0
C1127 C 0.84922 0.3061 0.10759 0.0
C1128 C 0.85272 0.30068 0.14451 0.0
N1129 N 0.85627 0.29004 0.23032 0.0
C1130 C 0.85481 0.30325 0.22218 0.0
C1131 C 0.85212 0.31068 0.25652 0.0
C1132 C 0.85189 0.3015 0.28801 0.0
C1133 C 0.85444 0.28894 0.27113 0.0
N1134 N 0.87831 0.2827 0.18108 0.0
C1135 C 0.90114 0.29957 0.16571 0.0
C1136 C 0.89668 0.29686 0.20549 0.0
C1137 C 0.8854 0.28839 0.21248 0.0
C1138 C 0.89449 0.29261 0.1343 0.0
C1139 C 0.88329 0.28423 0.14255 0.0
N1140 N 0.84066 0.2696 0.19855 0.0
C1141 C 0.81721 0.27637 0.20523 0.0
C1142 C 0.81339 0.26357 0.2191 0.0
C1143 C 0.82365 0.25369 0.22219 0.0
C1144 C 0.8372 0.25687 0.21134 0.0
C1145 C 0.83066 0.27914 0.19546 0.0
H1146 H 0.84489 0.24915 0.21407 0.0
H1147 H 0.83294 0.28933 0.18673 0.0
H1148 H 0.88194 0.28709 0.24329 0.0
H1149 H 0.87821 0.27963 0.11719 0.0
C1150 C 0.8756 0.2469 0.19469 0.0
C1151 C 0.8559 0.27625 0.29441 0.0
C1152 C 0.85214 0.27011 0.08655 0.0
C1153 C 0.85366 0.30766 0.18168 0.0
H1154 H 0.86972 0.25306 0.32912 0.0
H1155 H 0.8818 0.23774 0.27433 0.0
H1156 H 0.87521 0.23118 0.12244 0.0
H1157 H 0.86082 0.24317 0.06516 0.0
H1158 H 0.84566 0.29579 0.04971 0.0
H1159 H 0.84751 0.31664 0.10044 0.0
H1160 H 0.84998 0.32139 0.25831 0.0
H1161 H 0.85005 0.30375 0.31963 0.0
H1162 H 0.90141 0.30178 0.23113 0.0
H1163 H 0.8977 0.29383 0.10313 0.0
H1164 H 0.80988 0.28448 0.20309 0.0
H1165 H 0.82123 0.24361 0.23269 0.0
C1166 C 1.0047 0.61261 0.53052 0.0
C1167 C 0.01378 0.6202 0.55318 0.0
C1168 C 0.02136 0.62749 0.52606 0.0
C1169 C 0.01639 0.62404 0.48861 0.0
N1170 N 1.00613 0.61513 0.49053 0.0
Co1171 Co 0.9955 0.60829 0.44403 0.0
N1172 N 1.01036 0.61267 0.40552 0.0
C1173 C 0.02095 0.62087 0.41327 0.0
C1174 C 0.02995 0.62173 0.38172 0.0
C1175 C 0.02459 0.61378 0.35189 0.0
C1176 C 0.01243 0.60865 0.36668 0.0
N1177 N 0.98476 0.60199 0.39672 0.0
C1178 C 0.98857 0.59964 0.35764 0.0
C1179 C 0.9774 0.59628 0.33421 0.0
C1180 C 0.96629 0.59669 0.35941 0.0
C1181 C 0.97121 0.60032 0.39683 0.0
N1182 N 0.98108 0.60368 0.48362 0.0
C1183 C 0.96804 0.60125 0.4746 0.0
C1184 C 0.96081 0.597 0.50797 0.0
C1185 C 0.96993 0.59678 0.53968 0.0
C1186 C 0.98227 0.60099 0.52403 0.0
N1187 N 0.98738 0.62654 0.43615 0.0
C1188 C 0.97021 0.64914 0.42148 0.0
C1189 C 0.97254 0.64427 0.46101 0.0
C1190 C 0.98114 0.63308 0.46766 0.0
C1191 C 0.97754 0.64293 0.39003 0.0
C1192 C 0.98604 0.63182 0.39793 0.0
N1193 N 1.00266 0.58974 0.45205 0.0
C1194 C 0.99717 0.56597 0.45596 0.0
C1195 C 1.00987 0.56282 0.47202 0.0
C1196 C 0.01908 0.57356 0.47763 0.0
C1197 C 0.01533 0.58695 0.46697 0.0
C1198 C 0.9938 0.57925 0.44659 0.0
H1199 H 0.02251 0.59503 0.47168 0.0
H1200 H 0.98363 0.58094 0.43643 0.0
H1201 H 0.98219 0.62932 0.49823 0.0
H1202 H 0.99101 0.62712 0.37252 0.0
C1203 C 0.02287 0.62645 0.45174 0.0
C1204 C 0.99488 0.60311 0.54772 0.0
C1205 C 1.00236 0.60173 0.34108 0.0
C1206 C 0.96395 0.60031 0.43373 0.0
H1207 H 0.01499 0.62026 0.58579 0.0
H1208 H 0.02997 0.63388 0.53276 0.0
H1209 H 0.03938 0.6273 0.38071 0.0
H1210 H 0.02898 0.61231 0.32216 0.0
H1211 H 0.97728 0.59398 0.30214 0.0
H1212 H 0.95591 0.59432 0.35152 0.0
H1213 H 0.95037 0.59368 0.50877 0.0
H1214 H 0.96774 0.5937 0.57043 0.0
H1215 H 0.96727 0.64864 0.48664 0.0
H1216 H 0.97656 0.64644 0.35909 0.0
H1217 H 0.98955 0.55821 0.45186 0.0
H1218 H 0.02906 0.57166 0.48999 0.0
C1219 C 0.66239 0.75315 0.77498 0.0
C1220 C 0.65431 0.76204 0.79684 0.0
C1221 C 0.64675 0.76905 0.76907 0.0
C1222 C 0.65054 0.76398 0.73206 0.0
N1223 N 0.65997 0.75423 0.73483 0.0
Co1224 Co 0.66727 0.74356 0.68908 0.0
N1225 N 0.66249 0.75797 0.64964 0.0
C1226 C 0.65319 0.76772 0.65612 0.0
C1227 C 0.6509 0.77569 0.62289 0.0
C1228 C 0.65912 0.77057 0.59332 0.0
C1229 C 0.6661 0.75971 0.61025 0.0
N1230 N 0.67405 0.7328 0.64244 0.0
C1231 C 0.67686 0.73658 0.60358 0.0
C1232 C 0.6814 0.72555 0.58144 0.0
C1233 C 0.68097 0.71454 0.60692 0.0
C1234 C 0.67632 0.71938 0.64339 0.0
N1235 N 0.67213 0.72954 0.72958 0.0
C1236 C 0.67499 0.71658 0.72127 0.0
C1237 C 0.67923 0.70964 0.75515 0.0
C1238 C 0.67899 0.71887 0.78647 0.0
C1239 C 0.67452 0.73098 0.7701 0.0
N1240 N 0.64925 0.73493 0.68119 0.0
C1241 C 0.62696 0.71734 0.66713 0.0
C1242 C 0.6316 0.72009 0.70664 0.0
C1243 C 0.64265 0.72889 0.71299 0.0
C1244 C 0.63323 0.72443 0.63529 0.0
C1245 C 0.64419 0.73313 0.64289 0.0
N1246 N 0.68568 0.7512 0.69732 0.0
C1247 C 0.70946 0.74589 0.70533 0.0
C1248 C 0.71211 0.75837 0.72324 0.0
C1249 C 0.70129 0.76767 0.72558 0.0
C1250 C 0.68812 0.76387 0.71244 0.0
C1251 C 0.69642 0.74254 0.69295 0.0
H1252 H 0.67986 0.77095 0.71598 0.0
H1253 H 0.69509 0.73247 0.6819 0.0
H1254 H 0.64626 0.73029 0.74359 0.0
H1255 H 0.64898 0.73787 0.61721 0.0
C1256 C 0.64754 0.76972 0.69451 0.0
C1257 C 0.67194 0.74359 0.79321 0.0
C1258 C 0.67441 0.75024 0.5863 0.0
C1259 C 0.67634 0.71235 0.68066 0.0
H1260 H 0.65398 0.76338 0.82938 0.0
H1261 H 0.6398 0.77727 0.77507 0.0
H1262 H 0.64403 0.78417 0.62035 0.0
H1263 H 0.65937 0.77411 0.56231 0.0
H1264 H 0.68468 0.72541 0.55015 0.0
H1265 H 0.68419 0.70435 0.60004 0.0
H1266 H 0.68285 0.69933 0.75656 0.0
H1267 H 0.68195 0.7169 0.81746 0.0
H1268 H 0.62716 0.71501 0.73251 0.0
H1269 H 0.62988 0.7231 0.60431 0.0
H1270 H 0.71743 0.73845 0.70169 0.0
H1271 H 0.70284 0.77754 0.73888 0.0
C1272 C 0.47948 0.42156 0.52332 0.0
C1273 C 0.46928 0.42902 0.54161 0.0
C1274 C 0.46334 0.43656 0.51172 0.0
C1275 C 0.47018 0.43328 0.47687 0.0
N1276 N 0.47988 0.42387 0.48249 0.0
Co1277 Co 0.4932 0.41786 0.44026 0.0
N1278 N 0.48328 0.42722 0.39516 0.0
C1279 C 0.47307 0.43611 0.39989 0.0
C1280 C 0.46822 0.44108 0.36385 0.0
C1281 C 0.47594 0.43509 0.33438 0.0
C1282 C 0.48516 0.42682 0.35414 0.0
N1283 N 0.50688 0.41221 0.39871 0.0
C1284 C 0.50703 0.41361 0.35774 0.0
C1285 C 0.51923 0.40912 0.34137 0.0
C1286 C 0.52688 0.40455 0.37281 0.0
C1287 C 0.51906 0.40662 0.40648 0.0
N1288 N 0.50312 0.40816 0.48477 0.0
C1289 C 0.51531 0.4021 0.48134 0.0
C1290 C 0.5197 0.39598 0.51606 0.0
C1291 C 0.50986 0.39853 0.54389 0.0
C1292 C 0.49994 0.40617 0.5245 0.0
N1293 N 0.48213 0.40133 0.42973 0.0
C1294 C 0.46522 0.37865 0.41261 0.0
C1295 C 0.47937 0.37724 0.41726 0.0
C1296 C 0.48762 0.38867 0.42553 0.0
C1297 C 0.45989 0.39166 0.41759 0.0
C1298 C 0.46837 0.40266 0.42606 0.0
N1299 N 0.5035 0.43482 0.45082 0.0
C1300 C 0.50788 0.45252 0.49965 0.0
C1301 C 0.50811 0.46237 0.46913 0.0
C1302 C 0.50779 0.45781 0.4288 0.0
C1303 C 0.50569 0.44401 0.42035 0.0
C1304 C 0.50581 0.4389 0.48986 0.0
H1305 H 0.50494 0.44102 0.38907 0.0
H1306 H 0.50526 0.43191 0.5145 0.0
H1307 H 0.49841 0.38723 0.4282 0.0
H1308 H 0.46359 0.41232 0.42938 0.0
C1309 C 0.46771 0.43869 0.43836 0.0
C1310 C 0.48933 0.41352 0.54668 0.0
C1311 C 0.49625 0.41968 0.33319 0.0
C1312 C 0.52233 0.40218 0.44503 0.0
H1313 H 0.46675 0.42932 0.57353 0.0
H1314 H 0.45517 0.44377 0.51515 0.0
H1315 H 0.45996 0.44813 0.35946 0.0
H1316 H 0.47507 0.43682 0.30209 0.0
H1317 H 0.52241 0.40922 0.31 0.0
H1318 H 0.53686 0.40005 0.37123 0.0
H1319 H 0.5291 0.39056 0.52082 0.0
H1320 H 0.51046 0.39562 0.57538 0.0
H1321 H 0.4841 0.36744 0.41369 0.0
H1322 H 0.44909 0.39343 0.4153 0.0
H1323 H 0.50883 0.45533 0.53124 0.0
H1324 H 0.50834 0.46489 0.40384 0.0
C1325 C 0.34456 0.73014 0.27092 0.0
C1326 C 0.33762 0.71918 0.28684 0.0
C1327 C 0.33438 0.71098 0.25472 0.0
C1328 C 0.33938 0.71741 0.22094 0.0
N1329 N 0.34563 0.72911 0.22964 0.0
Co1330 Co 0.35244 0.74255 0.18901 0.0
N1331 N 0.34471 0.73249 0.14171 0.0
C1332 C 0.33932 0.72002 0.14328 0.0
C1333 C 0.33562 0.71516 0.10588 0.0
C1334 C 0.33894 0.72518 0.07886 0.0
C1335 C 0.34447 0.73564 0.10134 0.0
N1336 N 0.35868 0.75662 0.14963 0.0
C1337 C 0.35552 0.75858 0.10994 0.0
C1338 C 0.36132 0.77043 0.09531 0.0
C1339 C 0.36889 0.77569 0.12605 0.0
C1340 C 0.36709 0.76699 0.15787 0.0
N1341 N 0.36133 0.75206 0.23541 0.0
C1342 C 0.37085 0.76174 0.23244 0.0
C1343 C 0.37659 0.76518 0.26885 0.0
C1344 C 0.37027 0.75721 0.29686 0.0
C1345 C 0.36092 0.74945 0.27578 0.0
N1346 N 0.36947 0.73193 0.1812 0.0
C1347 C 0.3911 0.71332 0.1666 0.0
C1348 C 0.38626 0.72207 0.13616 0.0
C1349 C 0.37553 0.73109 0.14389 0.0
C1350 C 0.38515 0.71476 0.20524 0.0
C1351 C 0.37461 0.72413 0.21194 0.0
N1352 N 0.33481 0.7525 0.19679 0.0
C1353 C 0.31789 0.76018 0.24517 0.0
C1354 C 0.30729 0.75719 0.21833 0.0
C1355 C 0.31093 0.75352 0.17882 0.0
C1356 C 0.32459 0.75148 0.16862 0.0
C1357 C 0.33146 0.75819 0.23337 0.0
H1358 H 0.32651 0.74862 0.13796 0.0
H1359 H 0.33908 0.76102 0.25463 0.0
H1360 H 0.37199 0.73711 0.11893 0.0
H1361 H 0.37038 0.72469 0.24199 0.0
C1362 C 0.33708 0.71367 0.18062 0.0
C1363 C 0.35067 0.74104 0.29561 0.0
C1364 C 0.34876 0.74867 0.08364 0.0
C1365 C 0.3729 0.76845 0.196 0.0
H1366 H 0.3351 0.71728 0.3182 0.0
H1367 H 0.32863 0.70168 0.25578 0.0
H1368 H 0.33085 0.70558 0.0991 0.0
H1369 H 0.33729 0.72492 0.04644 0.0
H1370 H 0.36059 0.77463 0.06511 0.0
H1371 H 0.37501 0.78476 0.12524 0.0
H1372 H 0.38409 0.77294 0.27456 0.0
H1373 H 0.37193 0.75743 0.32929 0.0
H1374 H 0.39059 0.72197 0.10605 0.0
H1375 H 0.38824 0.70843 0.23031 0.0
H1376 H 0.31575 0.76391 0.27536 0.0
H1377 H 0.30326 0.75156 0.15611 0.0
C1378 C 0.04274 0.59759 0.02649 0.0
C1379 C 0.05263 0.58982 0.04512 0.0
C1380 C 0.05847 0.58213 0.0154 0.0
C1381 C 0.05187 0.58565 0.98033 0.0
N1382 N 0.04241 0.59532 0.98563 0.0
Co1383 Co 0.02955 0.60188 0.94276 0.0
N1384 N 0.03921 0.592 0.89798 0.0
C1385 C 0.04909 0.58277 0.90334 0.0
C1386 C 0.0534 0.57694 0.86789 0.0
C1387 C 0.04562 0.58265 0.8381 0.0
C1388 C 0.03699 0.59174 0.85702 0.0
N1389 N 0.01644 0.60834 0.90042 0.0
C1390 C 0.01661 0.60719 0.85934 0.0
C1391 C 1.00609 0.61446 0.84169 0.0
C1392 C 0.99869 0.61981 0.87251 0.0
C1393 C 1.00521 0.61579 0.90705 0.0
N1394 N 0.01983 0.61197 0.987 0.0
C1395 C 1.00811 0.61886 0.98293 0.0
C1396 C 1.0037 0.62492 0.01773 0.0
C1397 C 0.01305 0.62153 0.04625 0.0
C1398 C 0.02273 0.61355 0.02709 0.0
N1399 N 0.04142 0.61794 0.93265 0.0
C1400 C 0.05927 0.63999 0.91586 0.0
C1401 C 0.04522 0.64195 0.92089 0.0
C1402 C 0.03652 0.63086 0.92904 0.0
C1403 C 0.06405 0.62672 0.92032 0.0
C1404 C 0.05512 0.61604 0.92865 0.0
N1405 N 0.01844 0.58537 0.95303 0.0
C1406 C 0.014 0.56754 1.00158 0.0
C1407 C 0.01341 0.55781 0.9708 0.0
C1408 C 0.01349 0.56255 0.93061 0.0
C1409 C 0.01579 0.57636 0.92246 0.0
C1410 C 0.01622 0.58117 0.99206 0.0
H1411 H 0.01633 0.57946 0.89127 0.0
H1412 H 0.01704 0.58802 0.01691 0.0
H1413 H 0.02585 0.63284 0.93213 0.0
H1414 H 0.05948 0.60618 0.93165 0.0
C1415 C 0.05425 0.58013 0.94199 0.0
C1416 C 0.03312 0.60601 0.04951 0.0
C1417 C 0.02576 0.59857 0.83575 0.0
C1418 C 1.00182 0.62005 0.94565 0.0
H1419 H 0.05503 0.58943 0.07711 0.0
H1420 H 0.06639 0.57467 0.01908 0.0
H1421 H 0.06114 0.5693 0.86419 0.0
H1422 H 0.04594 0.58006 0.80627 0.0
H1423 H 1.0039 0.61569 0.80977 0.0
H1424 H 0.98981 0.62618 0.87 0.0
H1425 H 0.99469 0.63099 0.02194 0.0
H1426 H 0.01239 0.62427 0.07787 0.0
H1427 H 0.04087 0.65194 0.91773 0.0
H1428 H 0.07477 0.62451 0.91781 0.0
H1429 H 0.01322 0.56461 0.03314 0.0
H1430 H 0.01261 0.55558 0.90548 0.0
C1431 C 0.17605 0.29193 0.77438 0.0
C1432 C 0.1846 0.30127 0.79248 0.0
C1433 C 0.19164 0.30744 0.76192 0.0
C1434 C 0.18711 0.30152 0.7269 0.0
N1435 N 0.17736 0.29218 0.73302 0.0
Co1436 Co 0.17015 0.27959 0.69027 0.0
N1437 N 0.17988 0.2891 0.64487 0.0
C1438 C 0.18904 0.29907 0.64953 0.0
C1439 C 0.19462 0.30338 0.6137 0.0
C1440 C 0.18879 0.29553 0.58437 0.0
C1441 C 0.17989 0.28685 0.60394 0.0
N1442 N 0.16324 0.26655 0.6485 0.0
C1443 C 0.16458 0.26637 0.60745 0.0
C1444 C 0.15716 0.25589 0.59033 0.0
C1445 C 0.15143 0.24892 0.62146 0.0
C1446 C 0.15542 0.25561 0.6557 0.0
N1447 N 0.15994 0.27026 0.73499 0.0
C1448 C 0.15189 0.25934 0.73118 0.0
C1449 C 0.145 0.256 0.76583 0.0
C1450 C 0.14914 0.2652 0.79393 0.0
C1451 C 0.15853 0.27349 0.77483 0.0
N1452 N 0.15417 0.29173 0.68095 0.0
C1453 C 0.13215 0.30978 0.66496 0.0
C1454 C 0.13015 0.29574 0.66845 0.0
C1455 C 0.14119 0.28697 0.67619 0.0
C1456 C 0.14545 0.31446 0.67042 0.0
C1457 C 0.15612 0.30543 0.67835 0.0
N1458 N 0.18661 0.26815 0.69954 0.0
C1459 C 0.20384 0.26195 0.7485 0.0
C1460 C 0.21401 0.26208 0.71875 0.0
C1461 C 0.20975 0.26361 0.67835 0.0
C1462 C 0.19603 0.26628 0.66941 0.0
C1463 C 0.19034 0.26473 0.73817 0.0
H1464 H 0.19333 0.26751 0.63811 0.0
H1465 H 0.18319 0.26488 0.76228 0.0
H1466 H 0.13908 0.27635 0.6779 0.0
H1467 H 0.16601 0.30971 0.6821 0.0
C1468 C 0.19211 0.30406 0.68801 0.0
C1469 C 0.16785 0.28214 0.79766 0.0
C1470 C 0.17315 0.27545 0.58333 0.0
C1471 C 0.15059 0.2528 0.69429 0.0
H1472 H 0.18605 0.30311 0.82446 0.0
H1473 H 0.19949 0.31501 0.765 0.0
H1474 H 0.20225 0.31112 0.60948 0.0
H1475 H 0.19127 0.2958 0.55244 0.0
H1476 H 0.15592 0.25353 0.55853 0.0
H1477 H 0.14475 0.24027 0.61931 0.0
H1478 H 0.13793 0.24776 0.77024 0.0
H1479 H 0.14625 0.26529 0.82559 0.0
H1480 H 0.12015 0.29145 0.66434 0.0
H1481 H 0.14769 0.32516 0.66897 0.0
H1482 H 0.20631 0.26049 0.78017 0.0
H1483 H 0.21698 0.26305 0.65373 0.0
C1484 C 0.48061 0.59349 1.00891 0.0
C1485 C 0.46988 0.58623 0.99275 0.0
C1486 C 0.46151 0.58299 0.02456 0.0
C1487 C 0.46761 0.58828 0.05843 0.0
N1488 N 0.47926 0.59472 0.05005 0.0
Co1489 Co 0.49233 0.6019 0.09106 0.0
N1490 N 0.48241 0.59378 0.13812 0.0
C1491 C 0.47007 0.58803 0.13615 0.0
C1492 C 0.4656 0.58332 0.17293 0.0
C1493 C 0.47572 0.58633 0.19994 0.0
C1494 C 0.48582 0.59291 0.17826 0.0
N1495 N 0.50595 0.60873 0.13094 0.0
C1496 C 0.50786 0.60577 0.17085 0.0
C1497 C 0.51803 0.61379 0.18737 0.0
C1498 C 0.52259 0.62202 0.1571 0.0
C1499 C 0.51498 0.61869 0.12392 0.0
N1500 N 0.50165 0.61115 0.04499 0.0
C1501 C 0.51043 0.62149 0.04838 0.0
C1502 C 0.51397 0.62715 1.0119 0.0
C1503 C 0.50696 0.61994 0.98346 0.0
C1504 C 0.49961 0.61023 1.0044 0.0
N1505 N 0.48106 0.61848 0.09875 0.0
C1506 C 0.46243 0.64013 0.11246 0.0
C1507 C 0.47074 0.635 0.14356 0.0
C1508 C 0.47974 0.62425 0.1363 0.0
C1509 C 0.46419 0.63434 0.07375 0.0
C1510 C 0.47355 0.62374 0.06753 0.0
N1511 N 0.50299 0.58469 0.08313 0.0
C1512 C 0.51211 0.56877 0.03401 0.0
C1513 C 0.50834 0.55766 0.05812 0.0
C1514 C 0.50374 0.56059 0.09728 0.0
C1515 C 0.50133 0.57396 0.10918 0.0
C1516 C 0.50976 0.58207 0.0476 0.0
H1517 H 0.49775 0.57517 0.13942 0.0
H1518 H 0.51315 0.59007 0.02829 0.0
H1519 H 0.4854 0.62049 0.16174 0.0
H1520 H 0.47443 0.61962 0.03741 0.0
C1521 C 0.46384 0.5858 0.09864 0.0
C1522 C 0.49164 0.59963 0.98461 0.0
C1523 C 0.49902 0.5971 0.19572 0.0
C1524 C 0.51622 0.62453 0.08568 0.0
H1525 H 0.46827 0.58342 0.96149 0.0
H1526 H 0.45237 0.57695 0.0233 0.0
H1527 H 0.45635 0.5778 0.17911 0.0
H1528 H 0.47578 0.58352 0.23161 0.0
H1529 H 0.52135 0.61423 0.21858 0.0
H1530 H 0.53035 0.62972 0.15927 0.0
H1531 H 0.5211 0.63526 1.00652 0.0
H1532 H 0.5074 0.62146 0.95099 0.0
H1533 H 0.47037 0.63916 0.17384 0.0
H1534 H 0.45816 0.63763 0.04825 0.0
H1535 H 0.51638 0.56732 1.00411 0.0
H1536 H 0.5017 0.55257 0.11878 0.0
C1537 C 0.176 0.7282 0.75114 0.0
C1538 C 0.18458 0.71878 0.73353 0.0
C1539 C 0.19164 0.71281 0.76441 0.0
C1540 C 0.18709 0.71893 0.79912 0.0
N1541 N 0.1773 0.72818 0.79249 0.0
Co1542 Co 0.17018 0.74111 0.83445 0.0
N1543 N 0.17964 0.73172 0.88037 0.0
C1544 C 0.18875 0.72168 0.87648 0.0
C1545 C 0.19363 0.71707 0.91291 0.0
C1546 C 0.18735 0.72479 0.94178 0.0
C1547 C 0.17902 0.73378 0.92129 0.0
N1548 N 0.16352 0.75455 0.87526 0.0
C1549 C 0.16512 0.75519 0.91615 0.0
C1550 C 0.15989 0.76718 0.93166 0.0
C1551 C 0.15454 0.77412 0.89987 0.0
C1552 C 0.15695 0.76618 0.86675 0.0
N1553 N 0.16015 0.75028 0.78927 0.0
C1554 C 0.15242 0.76145 0.79236 0.0
C1555 C 0.14545 0.76458 0.75769 0.0
C1556 C 0.14923 0.75497 0.73035 0.0
C1557 C 0.15853 0.74668 0.74983 0.0
N1558 N 0.15406 0.72926 0.84417 0.0
C1559 C 0.1318 0.71134 0.85792 0.0
C1560 C 0.13002 0.72547 0.8568 0.0
C1561 C 0.14119 0.73419 0.84985 0.0
C1562 C 0.14508 0.70658 0.85261 0.0
C1563 C 0.15586 0.71554 0.8459 0.0
N1564 N 0.18676 0.75223 0.8249 0.0
C1565 C 0.20441 0.75745 0.77635 0.0
C1566 C 0.21433 0.75744 0.80675 0.0
C1567 C 0.20978 0.75668 0.84706 0.0
C1568 C 0.19597 0.75433 0.85544 0.0
C1569 C 0.19078 0.75514 0.78615 0.0
H1570 H 0.19302 0.75332 0.88669 0.0
H1571 H 0.18375 0.75488 0.76173 0.0
H1572 H 0.13933 0.7449 0.84906 0.0
H1573 H 0.16572 0.71117 0.84235 0.0
C1574 C 0.19199 0.71652 0.83825 0.0
C1575 C 0.16783 0.73789 0.72741 0.0
C1576 C 0.17173 0.74493 0.94147 0.0
C1577 C 0.15189 0.76869 0.82825 0.0
H1578 H 0.18604 0.71676 0.70165 0.0
H1579 H 0.1995 0.70524 0.76172 0.0
H1580 H 0.2009 0.70905 0.91792 0.0
H1581 H 0.18897 0.72411 0.97415 0.0
H1582 H 0.15993 0.77066 0.9627 0.0
H1583 H 0.14929 0.78372 0.90089 0.0
H1584 H 0.13869 0.77303 0.75262 0.0
H1585 H 0.1463 0.75468 0.69874 0.0
H1586 H 0.12003 0.72981 0.86059 0.0
H1587 H 0.14729 0.69587 0.85416 0.0
H1588 H 0.20719 0.75879 0.74483 0.0
H1589 H 0.21689 0.7571 0.87201 0.0
C1590 C 0.04379 0.42425 0.50087 0.0
C1591 C 0.05366 0.43206 0.48227 0.0
C1592 C 0.05949 0.43974 0.51203 0.0
C1593 C 0.0529 0.43619 0.54711 0.0
N1594 N 0.04348 0.42649 0.54174 0.0
Co1595 Co 0.03051 0.42004 0.58443 0.0
N1596 N 0.04035 0.42956 0.62931 0.0
C1597 C 0.0503 0.43872 0.6243 0.0
C1598 C 0.05516 0.44376 0.66022 0.0
C1599 C 0.04771 0.43753 0.68991 0.0
C1600 C 0.03862 0.42906 0.6704 0.0
N1601 N 0.01715 0.41393 0.62639 0.0
C1602 C 0.01706 0.41532 0.66737 0.0
C1603 C 1.00501 0.41054 0.68399 0.0
C1604 C 0.9974 0.40578 0.65275 0.0
C1605 C 1.00508 0.40805 0.61892 0.0
N1606 N 0.02067 0.41016 0.54014 0.0
C1607 C 1.00867 0.40377 0.5439 0.0
C1608 C 1.00429 0.39762 0.50924 0.0
C1609 C 0.01395 0.40047 0.48111 0.0
C1610 C 0.02375 0.40831 0.50029 0.0
N1611 N 0.04208 0.40379 0.59428 0.0
C1612 C 0.05988 0.38146 0.60755 0.0
C1613 C 0.04568 0.37974 0.6058 0.0
C1614 C 0.037 0.39098 0.59903 0.0
C1615 C 0.06473 0.39469 0.60325 0.0
C1616 C 0.05583 0.40551 0.59671 0.0
N1617 N 0.01973 0.43675 0.57451 0.0
C1618 C 0.0147 0.45446 0.52613 0.0
C1619 C 0.01422 0.46426 0.55683 0.0
C1620 C 0.01495 0.45958 0.59705 0.0
C1621 C 0.01744 0.44582 0.60518 0.0
C1622 C 0.01721 0.44088 0.53561 0.0
H1623 H 0.01833 0.44277 0.63639 0.0
H1624 H 0.01802 0.434 0.51077 0.0
H1625 H 0.02622 0.38925 0.59753 0.0
H1626 H 0.06029 0.41532 0.59375 0.0
C1627 C 0.05539 0.44157 0.58564 0.0
C1628 C 0.03416 0.41585 0.47785 0.0
C1629 C 0.02774 0.42167 0.69168 0.0
C1630 C 1.00179 0.4036 0.58044 0.0
H1631 H 0.05606 0.43248 0.45027 0.0
H1632 H 0.06742 0.44719 0.50839 0.0
H1633 H 0.06324 0.45103 0.66439 0.0
H1634 H 0.04865 0.43925 0.72217 0.0
H1635 H 1.00185 0.41059 0.71538 0.0
H1636 H 0.98752 0.40106 0.65454 0.0
H1637 H 0.99502 0.39197 0.50473 0.0
H1638 H 0.01334 0.39763 0.44957 0.0
H1639 H 0.04128 0.36977 0.60888 0.0
H1640 H 0.07546 0.39685 0.60537 0.0
H1641 H 0.01398 0.45727 0.49449 0.0
H1642 H 0.01399 0.46652 0.62221 0.0
C1643 C 0.34965 0.29244 0.25084 0.0
C1644 C 0.34213 0.30253 0.23227 0.0
C1645 C 0.33453 0.30849 0.26199 0.0
C1646 C 0.33783 0.30177 0.29702 0.0
N1647 N 0.34731 0.29213 0.29166 0.0
Co1648 Co 0.35338 0.27899 0.33426 0.0
N1649 N 0.344 0.28898 0.37912 0.0
C1650 C 0.33508 0.29915 0.37413 0.0
C1651 C 0.33012 0.30409 0.41004 0.0
C1652 C 0.33613 0.29647 0.43971 0.0
C1653 C 0.34441 0.28721 0.42019 0.0
N1654 N 0.35907 0.26546 0.37614 0.0
C1655 C 0.35759 0.26535 0.41709 0.0
C1656 C 0.36202 0.25319 0.43365 0.0
C1657 C 0.36665 0.24553 0.40239 0.0
C1658 C 0.36466 0.25329 0.36861 0.0
N1659 N 0.36314 0.26901 0.29001 0.0
C1660 C 0.36926 0.25689 0.29375 0.0
C1661 C 0.37544 0.25245 0.25917 0.0
C1662 C 0.37289 0.2622 0.23112 0.0
C1663 C 0.36518 0.27211 0.25025 0.0
N1664 N 0.36995 0.29008 0.34443 0.0
C1665 C 0.39284 0.30721 0.35728 0.0
C1666 C 0.39416 0.29301 0.35582 0.0
C1667 C 0.38265 0.28467 0.34924 0.0
C1668 C 0.3797 0.31241 0.35305 0.0
C1669 C 0.3686 0.30384 0.34677 0.0
N1670 N 0.33637 0.26866 0.32395 0.0
C1671 C 0.31881 0.26368 0.27496 0.0
C1672 C 0.30881 0.26339 0.30521 0.0
C1673 C 0.31327 0.2643 0.3456 0.0
C1674 C 0.32706 0.26666 0.35428 0.0
C1675 C 0.3324 0.26608 0.28496 0.0
H1676 H 0.32996 0.26761 0.3856 0.0
H1677 H 0.33943 0.26671 0.26039 0.0
H1678 H 0.38409 0.27388 0.34785 0.0
H1679 H 0.35888 0.30854 0.34382 0.0
C1680 C 0.33244 0.30435 0.33549 0.0
C1681 C 0.35784 0.28264 0.22778 0.0
C1682 C 0.3515 0.27616 0.44142 0.0
C1683 C 0.36915 0.24996 0.33018 0.0
H1684 H 0.34184 0.30498 0.2003 0.0
H1685 H 0.32728 0.31661 0.25835 0.0
H1686 H 0.32304 0.31234 0.41422 0.0
H1687 H 0.3344 0.29743 0.47197 0.0
H1688 H 0.36182 0.25001 0.46501 0.0
H1689 H 0.37112 0.23556 0.40414 0.0
H1690 H 0.38091 0.24309 0.25465 0.0
H1691 H 0.37584 0.26156 0.19967 0.0
H1692 H 0.40404 0.28837 0.3589 0.0
H1693 H 0.37786 0.32318 0.35492 0.0
H1694 H 0.31616 0.26283 0.24323 0.0
H1695 H 0.30614 0.26352 0.37044 0.0
H1696 H 0.99616 0.12195 0.74397 0.0
H1697 H 0.01658 0.08173 0.94315 0.0
H1698 H 1.00181 0.07887 0.73777 0.0
H1699 H 0.03202 0.1214 0.91626 0.0
H1700 H 1.00828 0.07995 0.87277 0.0
H1701 H 1.00517 0.12177 0.81335 0.0
C1702 C 0.99891 0.11239 0.75773 0.0
C1703 C 0.99809 0.10039 0.73516 0.0
C1704 C 0.01373 0.08892 0.88207 0.0
C1705 C 1.00863 0.10012 0.81455 0.0
C1706 C 0.01863 0.08986 0.922 0.0
C1707 C 0.02526 0.10162 0.93526 0.0
C1708 C 0.01507 0.1 0.85566 0.0
C1709 C 0.02723 0.11206 0.907 0.0
C1710 C 1.00426 0.11232 0.79705 0.0
C1711 C 1.00207 0.08831 0.75428 0.0
N1712 N 0.02195 0.11111 0.8689 0.0
N1713 N 1.00715 0.08846 0.79286 0.0
H1714 H 0.19426 0.75059 0.98831 0.0
H1715 H 0.15085 0.78199 0.16855 0.0
H1716 H 0.15095 0.746 0.9963 0.0
H1717 H 0.18975 0.76436 0.19452 0.0
H1718 H 0.1525 0.7736 0.09857 0.0
H1719 H 0.19449 0.7591 0.05867 0.0
C1720 C 0.18485 0.75106 1.00518 0.0
C1721 C 0.17257 0.74742 0.9865 0.0
C1722 C 0.1608 0.77178 0.11935 0.0
C1723 C 0.17269 0.75784 0.06609 0.0
C1724 C 0.15996 0.77678 0.15903 0.0
C1725 C 0.17027 0.77405 0.18717 0.0
C1726 C 0.17214 0.76417 0.10729 0.0
C1727 C 0.18169 0.76687 0.17355 0.0
C1728 C 0.18498 0.75606 0.04511 0.0
C1729 C 0.16064 0.74857 1.00958 0.0
N1730 N 0.18235 0.76219 0.1346 0.0
N1731 N 0.16097 0.75387 0.0477 0.0
H1732 H 0.52193 0.94455 0.23646 0.0
H1733 H 0.49018 0.90127 0.41625 0.0
H1734 H 0.52709 0.90146 0.24547 0.0
H1735 H 0.50761 0.94013 0.44252 0.0
H1736 H 0.49879 0.90296 0.34644 0.0
H1737 H 0.51319 0.94482 0.3066 0.0
C1738 C 0.52159 0.93522 0.25357 0.0
C1739 C 0.52545 0.92298 0.23524 0.0
C1740 C 0.50048 0.91125 0.36723 0.0
C1741 C 0.5147 0.92312 0.31447 0.0
C1742 C 0.49534 0.9104 0.40679 0.0
C1743 C 0.49796 0.92069 0.43497 0.0
C1744 C 0.50813 0.92258 0.35538 0.0
C1745 C 0.50515 0.93211 0.42148 0.0
C1746 C 0.51642 0.93535 0.29335 0.0
C1747 C 0.52439 0.91112 0.25855 0.0
N1748 N 0.50998 0.93277 0.38267 0.0
N1749 N 0.51891 0.91145 0.29649 0.0
H1750 H 0.32885 0.27102 0.48819 0.0
H1751 H 0.37194 0.23862 0.66755 0.0
H1752 H 0.3722 0.27515 0.49634 0.0
H1753 H 0.33309 0.25633 0.69376 0.0
H1754 H 0.37036 0.24724 0.59776 0.0
H1755 H 0.32849 0.26231 0.55833 0.0
C1756 C 0.33823 0.27047 0.50513 0.0
C1757 C 0.35056 0.27402 0.48655 0.0
C1758 C 0.36205 0.249 0.61853 0.0
C1759 C 0.35031 0.2633 0.56578 0.0
C1760 C 0.36283 0.24385 0.65807 0.0
C1761 C 0.35251 0.24653 0.68622 0.0
C1762 C 0.35077 0.25674 0.60667 0.0
C1763 C 0.34113 0.25381 0.67273 0.0
C1764 C 0.33804 0.26531 0.5449 0.0
C1765 C 0.36247 0.2727 0.50962 0.0
N1766 N 0.34054 0.25866 0.63394 0.0
N1767 N 0.36208 0.26724 0.54757 0.0
H1768 H 1.00163 0.94292 0.78961 0.0
H1769 H 0.03374 0.90028 0.6089 0.0
H1770 H 0.99796 0.89965 0.78155 0.0
H1771 H 0.01616 0.93922 0.58436 0.0
H1772 H 0.02531 0.90164 0.67894 0.0
H1773 H 1.01022 0.94338 0.71934 0.0
C1774 C 1.00227 0.93357 0.77267 0.0
C1775 C 0.99887 0.92124 0.79127 0.0
C1776 C 0.02353 0.91001 0.65847 0.0
C1777 C 1.00943 0.92163 0.7119 0.0
C1778 C 0.02857 0.90935 0.6188 0.0
C1779 C 0.02587 0.91977 0.59108 0.0
C1780 C 0.01587 0.92127 0.67085 0.0
C1781 C 0.01868 0.93111 0.60507 0.0
C1782 C 1.00734 0.93382 0.73283 0.0
C1783 C 1.00029 0.90938 0.76822 0.0
N1784 N 0.01393 0.93158 0.64397 0.0
N1785 N 1.00566 0.90984 0.73016 0.0
H1786 H 0.33128 0.76745 0.82777 0.0
H1787 H 0.37031 0.74968 0.03176 0.0
H1788 H 0.37083 0.78323 0.85555 0.0
H1789 H 0.3269 0.75401 0.03369 0.0
H1790 H 0.37062 0.75816 0.96182 0.0
H1791 H 0.32904 0.75982 0.89877 0.0
C1792 C 0.33931 0.76966 0.84915 0.0
C1793 C 0.35116 0.77621 0.836 0.0
C1794 C 0.361 0.75716 0.97736 0.0
C1795 C 0.349 0.76686 0.91648 0.0
C1796 C 0.36081 0.75217 0.01709 0.0
C1797 C 0.34857 0.75119 0.03864 0.0
C1798 C 0.34884 0.76094 0.95834 0.0
C1799 C 0.33654 0.75459 0.01813 0.0
C1800 C 0.33809 0.76517 0.88948 0.0
C1801 C 0.36144 0.77846 0.86465 0.0
N1802 N 0.33696 0.75931 0.97912 0.0
N1803 N 0.36022 0.77361 0.90319 0.0
H1804 H 0.49029 0.12204 0.10868 0.0
H1805 H 0.52176 0.07815 0.28759 0.0
H1806 H 0.50733 0.08305 0.08179 0.0
H1807 H 0.52702 0.12125 0.27963 0.0
H1808 H 0.51307 0.07808 0.21741 0.0
H1809 H 0.49893 0.12017 0.17839 0.0
C1810 C 0.49539 0.11285 0.11798 0.0
C1811 C 0.49788 0.10258 0.08965 0.0
C1812 C 0.51633 0.08751 0.23089 0.0
C1813 C 0.50808 0.10047 0.16915 0.0
C1814 C 0.52146 0.08753 0.27069 0.0
C1815 C 0.52533 0.09971 0.28934 0.0
C1816 C 0.51464 0.0998 0.21005 0.0
C1817 C 0.52432 0.11163 0.26631 0.0
C1818 C 0.50054 0.11189 0.15748 0.0
C1819 C 0.50497 0.09107 0.10294 0.0
N1820 N 0.51887 0.11141 0.22833 0.0
N1821 N 0.50982 0.0903 0.14171 0.0
H1822 H 0.16887 0.29012 0.51296 0.0
H1823 H 0.16604 0.22904 0.36519 0.0
H1824 H 0.18412 0.25178 0.55476 0.0
H1825 H 0.18283 0.26655 0.32179 0.0
H1826 H 0.16966 0.23677 0.43519 0.0
H1827 H 0.17085 0.28199 0.44251 0.0
C1828 C 0.17285 0.2801 0.50734 0.0
C1829 C 0.17629 0.27163 0.53994 0.0
C1830 C 0.17283 0.24317 0.41026 0.0
C1831 C 0.17803 0.26206 0.45952 0.0
C1832 C 0.17099 0.23865 0.3702 0.0
C1833 C 0.17452 0.24696 0.33726 0.0
C1834 C 0.1777 0.25631 0.41756 0.0
C1835 C 0.18015 0.25971 0.34617 0.0
C1836 C 0.1739 0.27543 0.46718 0.0
C1837 C 0.18125 0.25863 0.53063 0.0
N1838 N 0.1813 0.26409 0.38523 0.0
N1839 N 0.18167 0.25415 0.49153 0.0
H1840 H 0.02399 0.90079 0.28585 0.0
H1841 H 0.99733 0.93785 0.08712 0.0
H1842 H 0.01299 0.94284 0.29055 0.0
H1843 H 0.98838 0.89617 0.11347 0.0
H1844 H 1.00582 0.94065 0.15678 0.0
H1845 H 0.01502 0.89955 0.21652 0.0
C1846 C 0.02007 0.90987 0.27169 0.0
C1847 C 0.01942 0.92199 0.29371 0.0
C1848 C 1.00186 0.93094 0.14742 0.0
C1849 C 1.00885 0.92059 0.21458 0.0
C1850 C 0.99691 0.92935 0.10778 0.0
C1851 C 0.99223 0.91671 0.0943 0.0
C1852 C 1.0024 0.91974 0.17358 0.0
C1853 C 0.99194 0.90607 0.12251 0.0
C1854 C 0.01474 0.90911 0.23244 0.0
C1855 C 0.01389 0.93338 0.27434 0.0
N1856 N 0.99721 0.90774 0.16041 0.0
N1857 N 1.00884 0.93242 0.23585 0.0
H1858 H 0.83014 0.26359 0.03886 0.0
H1859 H 0.87662 0.23538 0.85945 0.0
H1860 H 0.8732 0.27025 0.03302 0.0
H1861 H 0.83535 0.24717 0.83614 0.0
H1862 H 0.87447 0.24411 0.92889 0.0
H1863 H 0.83075 0.25482 0.96876 0.0
C1864 C 0.83964 0.26353 0.02242 0.0
C1865 C 0.8516 0.26784 0.04153 0.0
C1866 C 0.86582 0.24466 0.90874 0.0
C1867 C 0.85252 0.25717 0.96235 0.0
C1868 C 0.86699 0.2395 0.86931 0.0
C1869 C 0.85619 0.24062 0.84183 0.0
C1870 C 0.85364 0.25074 0.92135 0.0
C1871 C 0.84395 0.24613 0.85624 0.0
C1872 C 0.84002 0.25839 0.98266 0.0
C1873 C 0.86372 0.26722 0.01919 0.0
N1874 N 0.84301 0.25101 0.8949 0.0
N1875 N 0.86391 0.26181 0.98121 0.0
H1876 H 0.50892 0.07874 0.79038 0.0
H1877 H 0.53761 0.1246 0.61067 0.0
H1878 H 0.50217 0.12164 0.78365 0.0
H1879 H 0.52495 0.08375 0.58686 0.0
H1880 H 0.52878 0.12254 0.68007 0.0
H1881 H 0.51764 0.0792 0.72013 0.0
C1882 C 0.50894 0.08817 0.77373 0.0
C1883 C 0.50464 0.10013 0.79263 0.0
C1884 C 0.52806 0.11397 0.65981 0.0
C1885 C 0.51525 0.10088 0.7133 0.0
C1886 C 0.53327 0.11509 0.6204 0.0
C1887 C 0.53193 0.10439 0.59279 0.0
C1888 C 0.52172 0.10192 0.67229 0.0
C1889 C 0.52615 0.09227 0.60706 0.0
C1890 C 0.51406 0.08846 0.73388 0.0
C1891 C 0.50521 0.11216 0.77 0.0
N1892 N 0.52123 0.09137 0.64573 0.0
N1893 N 0.51061 0.11226 0.73196 0.0
H1894 H 0.66484 0.73679 0.5187 0.0
H1895 H 0.66784 0.79755 0.36727 0.0
H1896 H 0.6878 0.77196 0.55325 0.0
H1897 H 0.67514 0.75712 0.32386 0.0
H1898 H 0.67188 0.78948 0.43705 0.0
H1899 H 0.66523 0.74462 0.44804 0.0
C1900 C 0.67034 0.74593 0.51132 0.0
C1901 C 0.67664 0.75351 0.54203 0.0
C1902 C 0.67276 0.78246 0.41202 0.0
C1903 C 0.67626 0.76304 0.46132 0.0
C1904 C 0.67058 0.78709 0.37213 0.0
C1905 C 0.67135 0.77812 0.33916 0.0
C1906 C 0.67527 0.76867 0.41925 0.0
C1907 C 0.67447 0.7645 0.34793 0.0
C1908 C 0.67038 0.75051 0.47102 0.0
C1909 C 0.68302 0.76568 0.53053 0.0
N1910 N 0.67608 0.76019 0.38688 0.0
N1911 N 0.68245 0.77019 0.49139 0.0
H1912 H 0.99723 0.08318 0.43963 0.0
H1913 H 0.02313 0.1203 0.24012 0.0
H1914 H 0.98727 0.12454 0.41225 0.0
H1915 H 0.01271 0.0781 0.23579 0.0
H1916 H 0.01418 0.12148 0.30951 0.0
H1917 H 1.00579 0.08038 0.36999 0.0
C1918 C 0.99661 0.0916 0.41877 0.0
C1919 C 0.99162 0.10417 0.43195 0.0
C1920 C 0.01403 0.1119 0.29366 0.0
C1921 C 1.00186 0.10116 0.35269 0.0
C1922 C 0.01935 0.11118 0.25436 0.0
C1923 C 0.01884 0.09904 0.23242 0.0
C1924 C 1.00831 0.10035 0.31166 0.0
C1925 C 0.01349 0.08759 0.25192 0.0
C1926 C 1.0016 0.09002 0.37913 0.0
C1927 C 0.99108 0.11472 0.40346 0.0
N1928 N 1.00845 0.0885 0.29046 0.0
N1929 N 0.99639 0.11307 0.36559 0.0
H1930 H 0.67632 0.26457 0.20159 0.0
H1931 H 0.68681 0.24873 0.96786 0.0
H1932 H 0.66836 0.22441 0.15692 0.0
H1933 H 0.6643 0.28366 1.00701 0.0
H1934 H 0.6872 0.24053 0.03847 0.0
H1935 H 0.67908 0.27246 0.13191 0.0
C1936 C 0.67543 0.25729 0.17728 0.0
C1937 C 0.67217 0.2437 0.18563 0.0
C1938 C 0.68243 0.25012 0.03159 0.0
C1939 C 0.67559 0.25281 0.10511 0.0
C1940 C 0.68233 0.25489 0.99146 0.0
C1941 C 0.67576 0.26707 0.98139 0.0
C1942 C 0.67625 0.25775 0.06228 0.0
C1943 C 0.66986 0.27446 0.01324 0.0
C1944 C 0.67695 0.26188 0.13742 0.0
C1945 C 0.6711 0.23489 0.15231 0.0
N1946 N 0.67032 0.26974 0.05213 0.0
N1947 N 0.67285 0.23957 0.11357 0.0
H1948 H 0.50075 0.90046 0.74157 0.0
H1949 H 0.52596 0.93935 0.93837 0.0
H1950 H 0.51041 0.94279 0.73408 0.0
H1951 H 0.53704 0.89812 0.91326 0.0
H1952 H 0.51737 0.94154 0.86856 0.0
H1953 H 0.50987 0.89994 0.81084 0.0
C1954 C 0.50441 0.90974 0.75508 0.0
C1955 C 0.50466 0.92173 0.73227 0.0
C1956 C 0.52183 0.93207 0.87823 0.0
C1957 C 0.51536 0.92117 0.8114 0.0
C1958 C 0.52684 0.93084 0.91795 0.0
C1959 C 0.53216 0.91849 0.93181 0.0
C1960 C 0.52186 0.92078 0.85241 0.0
C1961 C 0.53299 0.9078 0.90391 0.0
C1962 C 0.50982 0.9094 0.79431 0.0
C1963 C 0.50984 0.93341 0.75087 0.0
N1964 N 0.52765 0.90909 0.86597 0.0
N1965 N 0.51496 0.93286 0.78938 0.0
H1966 H 0.82958 0.77101 0.69829 0.0
H1967 H 0.86993 0.75114 0.49868 0.0
H1968 H 0.86978 0.78565 0.67325 0.0
H1969 H 0.82687 0.75764 0.49166 0.0
H1970 H 0.86977 0.75977 0.56845 0.0
H1971 H 0.82775 0.76331 0.6273 0.0
C1972 C 0.83783 0.77301 0.67746 0.0
C1973 C 0.84974 0.77926 0.69144 0.0
C1974 C 0.86031 0.75917 0.55188 0.0
C1975 C 0.84805 0.76975 0.611 0.0
C1976 C 0.86038 0.75405 0.5123 0.0
C1977 C 0.84838 0.75357 0.48941 0.0
C1978 C 0.84812 0.76364 0.56937 0.0
C1979 C 0.83631 0.75771 0.50837 0.0
C1980 C 0.83686 0.76846 0.63715 0.0
C1981 C 0.86032 0.78117 0.6635 0.0
N1982 N 0.83646 0.76254 0.54726 0.0
N1983 N 0.85933 0.77623 0.625 0.0
H1984 H 0.48481 0.60325 0.26587 0.0
H1985 H 0.54492 0.60446 0.41691 0.0
H1986 H 0.52257 0.58606 0.22536 0.0
H1987 H 0.50695 0.58768 0.45735 0.0
H1988 H 0.53761 0.60122 0.34627 0.0
H1989 H 0.49272 0.6013 0.33633 0.0
C1990 C 0.49461 0.59874 0.27174 0.0
C1991 C 0.50288 0.59449 0.23943 0.0
C1992 C 0.53102 0.59799 0.37069 0.0
C1993 C 0.51235 0.59308 0.32015 0.0
C1994 C 0.53529 0.59961 0.41112 0.0
C1995 C 0.52674 0.59594 0.44343 0.0
C1996 C 0.51789 0.59321 0.36241 0.0
C1997 C 0.51397 0.59047 0.43351 0.0
C1998 C 0.49918 0.59778 0.31199 0.0
C1999 C 0.51579 0.58931 0.24923 0.0
N2000 N 0.50984 0.58953 0.39414 0.0
N2001 N 0.52021 0.58898 0.28847 0.0
H2002 H 0.68505 0.26989 0.46954 0.0
H2003 H 0.68373 0.25462 0.70608 0.0
H2004 H 0.66958 0.23199 0.51414 0.0
H2005 H 0.66688 0.29175 0.66007 0.0
H2006 H 0.68656 0.24658 0.6361 0.0
H2007 H 0.68637 0.27825 0.53964 0.0
C2008 C 0.68219 0.26322 0.49415 0.0
C2009 C 0.67706 0.25024 0.48578 0.0
C2010 C 0.68258 0.25662 0.6414 0.0
C2011 C 0.67892 0.25968 0.56627 0.0
C2012 C 0.68109 0.2613 0.68125 0.0
C2013 C 0.67531 0.27404 0.68924 0.0
C2014 C 0.6786 0.26484 0.60887 0.0
C2015 C 0.67181 0.28211 0.6557 0.0
C2016 C 0.68288 0.26805 0.53406 0.0
C2017 C 0.67361 0.24203 0.51903 0.0
N2018 N 0.67354 0.27739 0.61706 0.0
N2019 N 0.67462 0.24687 0.55775 0.0
H2020 H 0.02198 0.44408 0.73847 0.0
H2021 H 0.99043 0.4002 0.91737 0.0
H2022 H 0.02733 0.40099 0.74665 0.0
H2023 H 1.00731 0.43926 0.94418 0.0
H2024 H 0.99914 0.40206 0.84771 0.0
H2025 H 0.01322 0.44416 0.80861 0.0
C2026 C 0.02168 0.43471 0.75541 0.0
C2027 C 0.02559 0.42253 0.73683 0.0
C2028 C 1.0007 0.41035 0.86859 0.0
C2029 C 0.01483 0.42245 0.81607 0.0
C2030 C 0.9955 0.4094 0.90806 0.0
C2031 C 0.99793 0.4197 0.93635 0.0
C2032 C 1.00822 0.42178 0.85692 0.0
C2033 C 1.005 0.43122 0.92305 0.0
C2034 C 0.01651 0.43474 0.79518 0.0
C2035 C 0.0246 0.41062 0.75993 0.0
N2036 N 1.00989 0.43198 0.88432 0.0
N2037 N 0.01911 0.41084 0.79787 0.0
H2038 H 0.83102 0.75494 0.19946 0.0
H2039 H 0.87068 0.77455 0.99801 0.0
H2040 H 0.87108 0.7402 0.17303 0.0
H2041 H 0.82749 0.76867 0.99333 0.0
H2042 H 0.8708 0.76591 0.06782 0.0
H2043 H 0.82896 0.76273 0.12857 0.0
C2044 C 0.8392 0.75296 0.17836 0.0
C2045 C 0.85114 0.74666 0.19191 0.0
C2046 C 0.86126 0.76666 0.05176 0.0
C2047 C 0.84918 0.75625 0.11157 0.0
C2048 C 0.86116 0.77179 1.01216 0.0
C2049 C 0.84904 0.77245 0.98994 0.0
C2050 C 0.84911 0.76236 0.06992 0.0
C2051 C 0.83702 0.76848 1.00954 0.0
C2052 C 0.83809 0.75755 0.1381 0.0
C2053 C 0.86161 0.74475 0.16362 0.0
N2054 N 0.83733 0.76363 0.04843 0.0
N2055 N 0.86049 0.74972 0.12517 0.0
H2056 H 0.51667 0.4397 0.08038 0.0
H2057 H 0.4967 0.39889 0.27895 0.0
H2058 H 0.53239 0.40007 0.10622 0.0
H2059 H 0.50188 0.44202 0.28572 0.0
H2060 H 0.50573 0.39927 0.20958 0.0
H2061 H 0.50843 0.44126 0.15087 0.0
C2062 C 0.5188 0.43153 0.10133 0.0
C2063 C 0.52551 0.41986 0.08773 0.0
C2064 C 0.50472 0.40869 0.226 0.0
C2065 C 0.51536 0.42121 0.16748 0.0
C2066 C 0.49936 0.4085 0.26533 0.0
C2067 C 0.49839 0.42045 0.28806 0.0
C2068 C 0.50895 0.42096 0.20865 0.0
C2069 C 0.50225 0.43261 0.2691 0.0
C2070 C 0.51394 0.43235 0.14133 0.0
C2071 C 0.52757 0.40936 0.11574 0.0
N2072 N 0.50734 0.43256 0.23051 0.0
N2073 N 0.52231 0.41018 0.15393 0.0
H2074 H 0.83309 0.26593 0.33018 0.0
H2075 H 0.87309 0.24565 0.5297 0.0
H2076 H 0.87246 0.28205 0.35844 0.0
H2077 H 0.82983 0.25098 0.53576 0.0
H2078 H 0.87293 0.2548 0.46049 0.0
H2079 H 0.83118 0.25753 0.40043 0.0
C2080 C 0.84111 0.26813 0.35162 0.0
C2081 C 0.85282 0.27498 0.33875 0.0
C2082 C 0.86344 0.25379 0.47671 0.0
C2083 C 0.85109 0.26465 0.41822 0.0
C2084 C 0.8635 0.24835 0.51593 0.0
C2085 C 0.85145 0.2474 0.53845 0.0
C2086 C 0.85119 0.25811 0.45922 0.0
C2087 C 0.83932 0.25133 0.51931 0.0
C2088 C 0.8401 0.26316 0.39147 0.0
C2089 C 0.86314 0.27711 0.36738 0.0
N2090 N 0.83949 0.25649 0.48081 0.0
N2091 N 0.86215 0.27175 0.40539 0.0
H2092 H 1.0021 0.58707 0.80894 0.0
H2093 H 0.01708 0.58909 0.57229 0.0
H2094 H 0.04009 0.60257 0.76441 0.0
H2095 H 0.98013 0.60622 0.61918 0.0
H2096 H 0.02516 0.5858 0.64208 0.0
H2097 H 0.99366 0.5859 0.73887 0.0
C2098 C 1.00878 0.58995 0.78434 0.0
C2099 C 0.0218 0.59509 0.79273 0.0
C2100 C 0.01514 0.58995 0.63702 0.0
C2101 C 0.01226 0.5934 0.71227 0.0
C2102 C 1.01043 0.59169 0.59726 0.0
C2103 C 0.99776 0.59771 0.58958 0.0
C2104 C 1.00701 0.59391 0.66974 0.0
C2105 C 0.98973 0.60114 0.62331 0.0
C2106 C 1.0039 0.58935 0.74445 0.0
C2107 C 0.03002 0.59856 0.75949 0.0
N2108 N 0.99448 0.59917 0.66185 0.0
N2109 N 0.02512 0.59765 0.72078 0.0
H2110 H 0.68384 0.75067 0.05653 0.0
H2111 H 0.68525 0.76592 0.81979 0.0
H2112 H 0.66964 0.7888 1.00997 0.0
H2113 H 0.66794 0.72877 0.86411 0.0
H2114 H 0.68741 0.77392 0.89001 0.0
H2115 H 0.68573 0.74217 0.9867 0.0
C2116 C 0.68135 0.75735 0.03158 0.0
C2117 C 0.67644 0.77047 0.03931 0.0
C2118 C 0.68347 0.76388 0.88434 0.0
C2119 C 0.67898 0.76085 0.95911 0.0
C2120 C 0.68238 0.75922 0.84435 0.0
C2121 C 0.67665 0.74651 0.83579 0.0
C2122 C 0.67913 0.75567 0.91648 0.0
C2123 C 0.67282 0.73842 0.86898 0.0
C2124 C 0.68238 0.75245 0.99181 0.0
C2125 C 0.67349 0.77867 1.00562 0.0
N2126 N 0.67415 0.74312 0.90779 0.0
N2127 N 0.67484 0.77375 0.96707 0.0
H2128 H 0.5235 0.40037 0.78255 0.0
H2129 H 0.49712 0.43728 0.5833 0.0
H2130 H 0.51292 0.44253 0.78673 0.0
H2131 H 0.48746 0.39585 0.6109 0.0
H2132 H 0.50575 0.44014 0.65279 0.0
H2133 H 0.51446 0.3991 0.7133 0.0
C2134 C 0.51967 0.40947 0.76829 0.0
C2135 C 0.51915 0.42162 0.79014 0.0
C2136 C 0.50161 0.43047 0.64373 0.0
C2137 C 0.5085 0.4202 0.7111 0.0
C2138 C 0.49659 0.42885 0.60418 0.0
C2139 C 0.49167 0.41624 0.59108 0.0
C2140 C 0.50199 0.41934 0.67018 0.0
C2141 C 0.49123 0.4057 0.61961 0.0
C2142 C 0.51429 0.40869 0.72909 0.0
C2143 C 0.51372 0.43303 0.77065 0.0
N2144 N 0.49657 0.40739 0.6574 0.0
N2145 N 0.50862 0.43207 0.7322 0.0
H2146 H 0.34212 0.76575 0.32229 0.0
H2147 H 0.33393 0.75008 0.55724 0.0
H2148 H 0.35045 0.72562 0.36667 0.0
H2149 H 0.3564 0.78465 0.51499 0.0
H2150 H 0.33239 0.74189 0.48681 0.0
H2151 H 0.33961 0.77359 0.39202 0.0
C2152 C 0.34299 0.75844 0.34651 0.0
C2153 C 0.34628 0.74487 0.33801 0.0
C2154 C 0.33739 0.75141 0.493 0.0
C2155 C 0.34332 0.75395 0.41869 0.0
C2156 C 0.33814 0.75618 0.53305 0.0
C2157 C 0.34506 0.76825 0.5422 0.0
C2158 C 0.34325 0.75894 0.46149 0.0
C2159 C 0.3506 0.77556 0.50956 0.0
C2160 C 0.34167 0.763 0.38643 0.0
C2161 C 0.34752 0.73603 0.37129 0.0
N2162 N 0.34951 0.77084 0.4708 0.0
N2163 N 0.34603 0.74071 0.41011 0.0
H2164 H 0.03702 0.62433 0.11082 0.0
H2165 H 1.0083 0.5795 0.29372 0.0
H2166 H 0.02383 0.58346 0.09 0.0
H2167 H 1.00339 0.62265 0.28712 0.0
H2168 H 0.01683 0.57959 0.22322 0.0
H2169 H 0.02876 0.62272 0.18096 0.0
C2170 C 0.03268 0.6149 0.12136 0.0
C2171 C 0.03107 0.60405 0.09443 0.0
C2172 C 0.01375 0.58901 0.23712 0.0
C2173 C 0.02148 0.60212 0.1748 0.0
C2174 C 1.00878 0.58894 0.27716 0.0
C2175 C 1.00508 0.60108 0.29621 0.0
C2176 C 0.01534 0.60136 0.21637 0.0
C2177 C 1.00607 0.61307 0.27351 0.0
C2178 C 0.0278 0.61404 0.16121 0.0
C2179 C 0.02528 0.59208 0.10971 0.0
N2180 N 1.01127 0.61293 0.23522 0.0
N2181 N 0.02067 0.59143 0.14877 0.0
H2182 H 0.17546 0.25697 0.82446 0.0
H2183 H 0.18618 0.27278 0.05816 0.0
H2184 H 0.16784 0.29718 0.86923 0.0
H2185 H 0.16369 0.23784 0.01906 0.0
H2186 H 0.18653 0.28099 0.98757 0.0
H2187 H 0.17823 0.24905 0.89409 0.0
C2188 C 0.17465 0.26425 0.84877 0.0
C2189 C 0.17149 0.27787 0.84045 0.0
C2190 C 0.18177 0.2714 0.99446 0.0
C2191 C 0.17491 0.26872 0.92095 0.0
C2192 C 0.18169 0.26662 0.03458 0.0
C2193 C 0.17514 0.25443 0.04466 0.0
C2194 C 0.17558 0.26377 0.96378 0.0
C2195 C 0.16923 0.24704 1.01283 0.0
C2196 C 0.17617 0.25965 0.88862 0.0
C2197 C 0.17051 0.28669 0.87381 0.0
N2198 N 0.16966 0.25177 0.97395 0.0
N2199 N 0.17225 0.28198 0.91252 0.0
H2200 H 0.53648 0.60447 0.76236 0.0
H2201 H 0.47579 0.59939 0.91447 0.0
H2202 H 0.50056 0.58313 0.72493 0.0
H2203 H 0.51653 0.59208 0.95614 0.0
H2204 H 0.48363 0.59609 0.84425 0.0
H2205 H 0.52886 0.60285 0.83307 0.0
C2206 C 0.5272 0.59907 0.76903 0.0
C2207 C 0.51937 0.59357 0.73747 0.0
C2208 C 0.49077 0.59495 0.86894 0.0
C2209 C 0.5101 0.59251 0.81855 0.0
C2210 C 0.48626 0.59663 0.90917 0.0
C2211 C 0.4954 0.59563 0.94178 0.0
C2212 C 0.50461 0.59276 0.86098 0.0
C2213 C 0.50904 0.59279 0.93229 0.0
C2214 C 0.52276 0.59832 0.80943 0.0
C2215 C 0.50704 0.58731 0.74824 0.0
N2216 N 0.51325 0.59169 0.89303 0.0
N2217 N 0.50268 0.58716 0.78759 0.0
H2218 H 0.16358 0.78359 0.50682 0.0
H2219 H 0.16798 0.7227 0.6563 0.0
H2220 H 0.18676 0.74882 0.46989 0.0
H2221 H 0.17557 0.76301 0.70031 0.0
H2222 H 0.17176 0.73095 0.58654 0.0
H2223 H 0.16477 0.7757 0.57732 0.0
C2224 C 0.16932 0.77455 0.51363 0.0
C2225 C 0.17541 0.76707 0.48232 0.0
C2226 C 0.17278 0.73789 0.61171 0.0
C2227 C 0.17593 0.75745 0.56283 0.0
C2228 C 0.17074 0.73316 0.65156 0.0
C2229 C 0.17163 0.74206 0.68466 0.0
C2230 C 0.17528 0.7517 0.60473 0.0
C2231 C 0.17481 0.75568 0.67612 0.0
C2232 C 0.16981 0.76993 0.55384 0.0
C2233 C 0.18213 0.75502 0.49311 0.0
N2234 N 0.17626 0.76009 0.63724 0.0
N2235 N 0.18198 0.75045 0.53219 0.0
H2236 H 1.0087 0.44341 0.23542 0.0
H2237 H 0.03756 0.39783 0.41545 0.0
H2238 H 1.00195 0.40053 0.2428 0.0
H2239 H 0.02486 0.43869 0.43893 0.0
H2240 H 0.02868 0.3998 0.34609 0.0
H2241 H 0.01748 0.44306 0.30559 0.0
C2242 C 1.00873 0.43401 0.25221 0.0
C2243 C 1.0044 0.42202 0.23351 0.0
C2244 C 0.02796 0.40839 0.36627 0.0
C2245 C 0.01509 0.42139 0.31275 0.0
C2246 C 0.03321 0.40733 0.40564 0.0
C2247 C 0.03188 0.41806 0.43314 0.0
C2248 C 0.0216 0.42041 0.35371 0.0
C2249 C 0.02607 0.43015 0.4188 0.0
C2250 C 0.01388 0.43377 0.292 0.0
C2251 C 1.00499 0.41002 0.25631 0.0
N2252 N 0.02112 0.431 0.38016 0.0
N2253 N 1.01043 0.40998 0.2943 0.0
H2254 H 0.33429 0.27454 0.1902 0.0
H2255 H 0.37249 0.24914 0.99185 0.0
H2256 H 0.37582 0.28477 0.16432 0.0
H2257 H 0.33002 0.2589 0.98649 0.0
H2258 H 0.37337 0.25811 0.0612 0.0
H2259 H 0.33182 0.266 0.12048 0.0
C2260 C 0.34281 0.27523 0.16963 0.0
C2261 C 0.35533 0.2803 0.18325 0.0
C2262 C 0.36381 0.25812 0.04513 0.0
C2263 C 0.3527 0.27008 0.10391 0.0
C2264 C 0.36325 0.25279 1.00585 0.0
C2265 C 0.35112 0.2531 0.98362 0.0
C2266 C 0.3521 0.26365 0.06284 0.0
C2267 C 0.33952 0.25828 1.00283 0.0
C2268 C 0.34142 0.27025 0.12995 0.0
C2269 C 0.36602 0.28091 0.15517 0.0
N2270 N 0.34027 0.26333 0.04136 0.0
N2271 N 0.36456 0.27561 0.11725 0.0
H2272 H 0.9936 0.04392 0.07072 0.0
H2273 H 0.02355 0.98363 0.93289 0.0
H2274 H 0.02838 0.04824 0.99276 0.0
H2275 H 0.99466 0.97712 0.02909 0.0
H2276 H 0.02363 1.00782 0.94906 0.0
H2277 H 0.99182 0.02005 0.05005 0.0
C2278 C 1.00072 0.03992 0.04882 0.0
C2279 C 1.01119 0.04812 0.03367 0.0
C2280 C 0.01727 1.0011 0.96665 0.0
C2281 C 1.0093 0.02076 1.00995 0.0
C2282 C 0.01719 0.98725 0.95731 0.0
C2283 C 1.00918 0.97819 0.97979 0.0
C2284 C 1.00916 1.00607 0.99846 0.0
C2285 C 1.0012 0.98361 1.01129 0.0
C2286 C 0.99979 0.02626 0.03727 0.0
C2287 C 0.02022 0.0423 1.00558 0.0
N2288 N 1.00137 0.99712 0.01958 0.0
N2289 N 0.01908 0.02906 0.99476 0.0
H2290 H 0.2196 0.76867 0.23145 0.0
H2291 H 0.29613 0.74916 0.29124 0.0
H2292 H 0.22967 0.74722 0.34089 0.0
H2293 H 0.2848 0.76577 0.17517 0.0
H2294 H 0.27213 0.74868 0.31065 0.0
H2295 H 0.2434 0.76746 0.21026 0.0
C2296 C 0.22681 0.76342 0.25058 0.0
C2297 C 0.2226 0.75781 0.28761 0.0
C2298 C 0.27489 0.75242 0.28092 0.0
C2299 C 0.2501 0.75677 0.26424 0.0
C2300 C 0.28865 0.75283 0.2699 0.0
C2301 C 0.29265 0.75753 0.2314 0.0
C2302 C 0.26492 0.75684 0.25347 0.0
C2303 C 0.28233 0.76192 0.20497 0.0
C2304 C 0.24044 0.76283 0.23866 0.0
C2305 C 0.23244 0.75143 0.31175 0.0
N2306 N 0.26905 0.7615 0.21651 0.0
N2307 N 0.24572 0.75117 0.29981 0.0
H2308 H 0.52582 0.03654 0.43171 0.0
H2309 H 0.50155 0.98242 0.59852 0.0
H2310 H 0.50038 0.04597 0.53432 0.0
H2311 H 0.5229 0.97067 0.49008 0.0
H2312 H 0.50261 1.00594 0.57683 0.0
H2313 H 0.52579 0.01274 0.45263 0.0
C2314 C 0.5201 0.03366 0.45837 0.0
C2315 C 0.51311 0.04349 0.4812 0.0
C2316 C 0.50713 0.99828 0.5577 0.0
C2317 C 0.51332 0.01607 0.5059 0.0
C2318 C 0.50655 0.98478 0.57014 0.0
C2319 C 0.51204 0.97442 0.546 0.0
C2320 C 0.51327 1.00168 0.52063 0.0
C2321 C 0.51858 0.97826 0.50984 0.0
C2322 C 0.52021 0.02003 0.4705 0.0
C2323 C 0.50612 0.03898 0.51591 0.0
N2324 N 0.51894 0.99154 0.49814 0.0
N2325 N 0.50645 0.02572 0.5271 0.0
H2326 H 0.30248 0.2721 0.7404 0.0
H2327 H 0.22586 0.24739 0.7808 0.0
H2328 H 0.28976 0.24869 0.84395 0.0
H2329 H 0.23622 0.27468 0.68348 0.0
H2330 H 0.24947 0.24745 0.80241 0.0
H2331 H 0.27866 0.27334 0.71816 0.0
C2332 C 0.29471 0.26737 0.75877 0.0
C2333 C 0.29828 0.26017 0.79402 0.0
C2334 C 0.24663 0.25344 0.77628 0.0
C2335 C 0.27091 0.26135 0.76827 0.0
C2336 C 0.23304 0.25345 0.76389 0.0
C2337 C 0.22881 0.26112 0.73023 0.0
C2338 C 0.25631 0.26111 0.75501 0.0
C2339 C 0.23888 0.26848 0.70931 0.0
C2340 C 0.2811 0.26798 0.74584 0.0
C2341 C 0.28766 0.25415 0.81621 0.0
N2342 N 0.25208 0.26832 0.72203 0.0
N2343 N 0.27461 0.25481 0.80292 0.0
H2344 H 0.02905 0.97272 0.53417 0.0
H2345 H 0.9947 0.04491 0.49487 0.0
H2346 H 0.99487 0.97806 0.45455 0.0
H2347 H 0.02279 0.03745 0.59247 0.0
H2348 H 0.99508 0.02082 0.47824 0.0
H2349 H 0.02713 0.99637 0.55499 0.0
C2350 C 0.02105 0.97886 0.52126 0.0
C2351 C 0.01212 0.97334 0.49242 0.0
C2352 C 1.00114 0.02443 0.50335 0.0
C2353 C 1.00997 1.00071 0.5159 0.0
C2354 C 1.00104 0.03825 0.51271 0.0
C2355 C 1.00882 0.04338 0.54503 0.0
C2356 C 1.00919 0.0155 0.5261 0.0
C2357 C 0.01658 0.03406 0.56743 0.0
C2358 C 0.01996 0.9924 0.53321 0.0
C2359 C 1.00192 0.98182 0.477 0.0
N2360 N 0.01664 0.02067 0.55739 0.0
N2361 N 1.00121 0.99508 0.48856 0.0
H2362 H 0.22717 0.74429 0.7441 0.0
H2363 H 0.30051 0.77609 0.78653 0.0
H2364 H 0.23559 0.77059 0.84517 0.0
H2365 H 0.29388 0.74437 0.69951 0.0
H2366 H 0.2769 0.77408 0.80858 0.0
H2367 H 0.25129 0.74438 0.72676 0.0
C2368 C 0.23405 0.75019 0.76256 0.0
C2369 C 0.22917 0.75756 0.79606 0.0
C2370 C 0.28059 0.76743 0.78497 0.0
C2371 C 0.25709 0.75756 0.77637 0.0
C2372 C 0.2941 0.76855 0.77244 0.0
C2373 C 0.29923 0.76035 0.74118 0.0
C2374 C 0.27191 0.75817 0.76579 0.0
C2375 C 0.29042 0.7508 0.72394 0.0
C2376 C 0.24789 0.75012 0.75278 0.0
C2377 C 0.23876 0.76472 0.8192 0.0
N2378 N 0.27718 0.75007 0.73614 0.0
N2379 N 0.25217 0.76461 0.80879 0.0
H2380 H 0.49976 0.98488 0.09292 0.0
H2381 H 0.52961 0.04519 0.95453 0.0
H2382 H 0.52856 0.97836 0.99652 0.0
H2383 H 0.49461 0.04942 0.03164 0.0
H2384 H 0.53139 0.02133 0.97539 0.0
H2385 H 0.49957 1.00905 0.0763 0.0
C2386 C 0.50608 0.9885 0.06836 0.0
C2387 C 0.51409 0.97942 0.04596 0.0
C2388 C 0.52337 0.02751 0.98793 0.0
C2389 C 0.514 1.0073 0.0268 0.0
C2390 C 0.52243 0.04118 0.97627 0.0
C2391 C 0.51191 0.04935 0.99113 0.0
C2392 C 0.51382 0.02199 0.01511 0.0
C2393 C 0.50281 0.0435 0.01903 0.0
C2394 C 0.50593 1.00233 0.05876 0.0
C2395 C 0.52202 0.98484 0.01427 0.0
N2396 N 0.50397 0.03027 0.02999 0.0
N2397 N 0.52179 0.99834 1.00576 0.0
H2398 H 0.21989 0.27166 0.2899 0.0
H2399 H 0.29668 0.24996 0.24131 0.0
H2400 H 0.23325 0.2542 0.17708 0.0
H2401 H 0.28673 0.27529 0.3435 0.0
H2402 H 0.27306 0.25059 0.2203 0.0
H2403 H 0.24376 0.27294 0.31204 0.0
C2404 C 0.22781 0.26833 0.26949 0.0
C2405 C 0.22446 0.26271 0.23161 0.0
C2406 C 0.276 0.25604 0.24734 0.0
C2407 C 0.25181 0.26385 0.25717 0.0
C2408 C 0.2896 0.25572 0.25941 0.0
C2409 C 0.29396 0.26269 0.2942 0.0
C2410 C 0.26641 0.2633 0.27017 0.0
C2411 C 0.28397 0.26964 0.3167 0.0
C2412 C 0.24144 0.26894 0.28231 0.0
C2413 C 0.23524 0.25842 0.20675 0.0
N2414 N 0.27073 0.26978 0.30432 0.0
N2415 N 0.24828 0.25896 0.22003 0.0
H2416 H 0.7874 0.24617 0.67933 0.0
H2417 H 0.73351 0.26651 0.85141 0.0
H2418 H 0.79674 0.2702 0.78483 0.0
H2419 H 0.72093 0.25035 0.73615 0.0
H2420 H 0.75707 0.26532 0.82942 0.0
H2421 H 0.76352 0.24585 0.70015 0.0
C2422 C 0.78451 0.2515 0.70662 0.0
C2423 C 0.79435 0.25818 0.73029 0.0
C2424 C 0.74922 0.26194 0.80885 0.0
C2425 C 0.76682 0.25752 0.7549 0.0
C2426 C 0.73571 0.26256 0.82151 0.0
C2427 C 0.72511 0.25862 0.79557 0.0
C2428 C 0.7524 0.25731 0.76975 0.0
C2429 C 0.72871 0.25343 0.75731 0.0
C2430 C 0.77082 0.25119 0.71866 0.0
C2431 C 0.78978 0.26466 0.76576 0.0
N2432 N 0.74202 0.25302 0.74545 0.0
N2433 N 0.77648 0.26411 0.77689 0.0
H2434 H 0.73464 0.7485 0.17953 0.0
H2435 H 0.79337 0.77835 0.32393 0.0
H2436 H 0.72675 0.77628 0.27737 0.0
H2437 H 0.79877 0.74367 0.24676 0.0
H2438 H 0.76965 0.77994 0.30097 0.0
H2439 H 0.75875 0.74861 0.19789 0.0
C2440 C 0.73794 0.75466 0.20477 0.0
C2441 C 0.72851 0.76228 0.22708 0.0
C2442 C 0.77606 0.77204 0.28885 0.0
C2443 C 0.75629 0.76255 0.24821 0.0
C2444 C 0.78964 0.77121 0.30172 0.0
C2445 C 0.79809 0.76083 0.28744 0.0
C2446 C 0.7709 0.76252 0.26106 0.0
C2447 C 0.79262 0.75177 0.25889 0.0
C2448 C 0.75174 0.75469 0.21536 0.0
C2449 C 0.73352 0.77003 0.25965 0.0
N2450 N 0.77945 0.75282 0.24675 0.0
N2451 N 0.74699 0.76999 0.26911 0.0
H2452 H 0.73669 0.2468 0.34544 0.0
H2453 H 0.79059 0.2718 0.17855 0.0
H2454 H 0.72709 0.27312 0.24509 0.0
H2455 H 0.80269 0.25008 0.28594 0.0
H2456 H 0.76708 0.27076 0.20098 0.0
H2457 H 0.7605 0.24689 0.32398 0.0
C2458 C 0.73952 0.25272 0.31917 0.0
C2459 C 0.72963 0.25994 0.29714 0.0
C2460 C 0.77481 0.26617 0.21973 0.0
C2461 C 0.7571 0.25981 0.27178 0.0
C2462 C 0.78832 0.26674 0.20688 0.0
C2463 C 0.7988 0.26114 0.23049 0.0
C2464 C 0.77151 0.2599 0.25667 0.0
C2465 C 0.79503 0.2545 0.26656 0.0
C2466 C 0.75317 0.25265 0.30672 0.0
C2467 C 0.73411 0.26718 0.26287 0.0
N2468 N 0.78174 0.25414 0.27865 0.0
N2469 N 0.74739 0.26689 0.25135 0.0
H2470 H 0.72828 0.78124 0.71622 0.0
H2471 H 0.79341 0.7464 0.82173 0.0
H2472 H 0.728 0.74123 0.76797 0.0
H2473 H 0.79409 0.7862 0.76842 0.0
H2474 H 0.76946 0.74434 0.80235 0.0
H2475 H 0.75211 0.78367 0.73722 0.0
C2476 C 0.73315 0.77304 0.73238 0.0
C2477 C 0.72608 0.76096 0.73986 0.0
C2478 C 0.77486 0.75354 0.79492 0.0
C2479 C 0.7535 0.76358 0.76366 0.0
C2480 C 0.78861 0.75467 0.80574 0.0
C2481 C 0.79589 0.76655 0.79724 0.0
C2482 C 0.76824 0.76433 0.77521 0.0
C2483 C 0.78893 0.77694 0.77656 0.0
C2484 C 0.74681 0.77437 0.74409 0.0
C2485 C 0.73304 0.75065 0.7608 0.0
N2486 N 0.7756 0.77561 0.76645 0.0
N2487 N 0.74628 0.75216 0.77169 0.0
H2488 H 0.5262 0.54838 0.49017 0.0
H2489 H 0.4943 0.47512 0.53071 0.0
H2490 H 0.49437 0.54139 0.577 0.0
H2491 H 0.52146 0.48365 0.43145 0.0
H2492 H 0.49416 0.49913 0.54804 0.0
H2493 H 0.52421 0.52492 0.46737 0.0
C2494 C 0.5186 0.54194 0.50393 0.0
C2495 C 0.51035 0.54691 0.53533 0.0
C2496 C 0.50014 0.49578 0.52241 0.0
C2497 C 0.50826 0.51976 0.51005 0.0
C2498 C 0.50034 0.482 0.51264 0.0
C2499 C 0.50803 0.47718 0.47968 0.0
C2500 C 0.50775 0.505 0.49933 0.0
C2501 C 0.51534 0.48678 0.45699 0.0
C2502 C 0.51752 0.5285 0.49104 0.0
C2503 C 0.5008 0.53805 0.55238 0.0
N2504 N 0.51509 0.50014 0.46738 0.0
N2505 N 0.50011 0.52489 0.53985 0.0
H2506 H 0.99418 0.47199 0.99229 0.0
H2507 H 0.02773 0.54462 0.03047 0.0
H2508 H 0.02839 0.4778 0.07147 0.0
H2509 H 0.99927 0.53687 0.93407 0.0
H2510 H 0.02773 0.52052 0.04711 0.0
H2511 H 0.99577 0.49566 0.97123 0.0
C2512 C 1.00213 0.47823 1.00502 0.0
C2513 C 1.01115 0.47284 0.03382 0.0
C2514 C 0.0215 0.52406 0.02227 0.0
C2515 C 0.01291 0.50023 1.0101 0.0
C2516 C 0.02138 0.5379 1.0129 0.0
C2517 C 0.01338 0.54295 0.98093 0.0
C2518 C 0.01346 0.51505 0.99985 0.0
C2519 C 1.00564 0.53355 0.95885 0.0
C2520 C 1.00302 0.49178 0.99296 0.0
C2521 C 0.02127 0.48146 0.04905 0.0
N2522 N 1.0058 0.52014 0.96888 0.0
N2523 N 0.02178 0.49472 0.03738 0.0
H2524 H 0.49746 0.47034 0.02609 0.0
H2525 H 0.52594 0.54602 1.00204 0.0
H2526 H 0.52464 0.48279 0.93059 0.0
H2527 H 0.49192 0.53605 0.0789 0.0
H2528 H 0.5262 0.5227 0.97776 0.0
H2529 H 0.49559 0.49406 0.04752 0.0
C2530 C 0.50291 0.47801 1.00927 0.0
C2531 C 0.51135 0.47438 0.97666 0.0
C2532 C 0.51867 0.52562 0.99998 0.0
C2533 C 0.50947 0.50166 1.0017 0.0
C2534 C 0.51847 0.53904 0.01384 0.0
C2535 C 0.50894 0.54325 0.043 0.0
C2536 C 0.50934 0.51615 0.01535 0.0
C2537 C 0.4997 0.53341 0.05722 0.0
C2538 C 0.50192 0.49158 0.02176 0.0
C2539 C 0.51825 0.48491 0.95647 0.0
N2540 N 0.50017 0.52042 0.04346 0.0
N2541 N 0.51724 0.49794 0.96945 0.0
H2542 H 0.02579 0.48597 0.59733 0.0
H2543 H 1.00444 0.54016 0.4275 0.0
H2544 H 1.00136 0.47684 0.49236 0.0
H2545 H 0.02164 0.55229 0.54191 0.0
H2546 H 1.00557 0.51663 0.44898 0.0
H2547 H 0.02592 0.50984 0.57708 0.0
C2548 C 0.02033 0.48891 0.57029 0.0
C2549 C 0.01359 0.47914 0.54659 0.0
C2550 C 1.00917 0.52437 0.46948 0.0
C2551 C 0.01402 0.50665 0.52264 0.0
C2552 C 1.00857 0.53788 0.45714 0.0
C2553 C 0.01282 0.54835 0.483 0.0
C2554 C 0.01413 0.52107 0.50815 0.0
C2555 C 0.01829 0.54461 0.52082 0.0
C2556 C 0.02053 0.50259 0.55856 0.0
C2557 C 1.00694 0.48376 0.51143 0.0
N2558 N 0.0187 0.53131 0.53235 0.0
N2559 N 1.00738 0.49705 0.5006 0.0
H2560 H 0.06838 0.14951 0.17524 0.0
H2561 H 0.10423 0.21922 0.10869 0.0
H2562 H 0.05697 0.17182 0.06816 0.0
H2563 H 0.11721 0.1952 0.21078 0.0
H2564 H 0.08655 0.20253 0.09462 0.0
H2565 H 0.08557 0.16659 0.18994 0.0
C2566 C 0.06933 0.15805 0.1549 0.0
C2567 C 0.06097 0.1591 0.12037 0.0
C2568 C 0.09325 0.20092 0.12016 0.0
C2569 C 0.08109 0.17889 0.13709 0.0
C2570 C 0.10347 0.21046 0.12821 0.0
C2571 C 0.11246 0.20878 0.1611 0.0
C2572 C 0.09181 0.18946 0.14508 0.0
C2573 C 0.11055 0.1972 0.18545 0.0
C2574 C 0.0793 0.1678 0.16326 0.0
C2575 C 0.06313 0.17038 0.09494 0.0
N2576 N 0.10054 0.18807 0.17693 0.0
N2577 N 0.07288 0.17976 0.10382 0.0
H2578 H 0.09972 0.80675 0.31476 0.0
H2579 H 0.07361 0.86618 0.46247 0.0
H2580 H 0.12075 0.81935 0.42296 0.0
H2581 H 0.05157 0.85341 0.35625 0.0
H2582 H 0.09066 0.84892 0.44855 0.0
H2583 H 0.08212 0.82363 0.32883 0.0
C2584 C 0.10073 0.81303 0.34142 0.0
C2585 C 0.11189 0.8114 0.36768 0.0
C2586 C 0.08208 0.84984 0.42828 0.0
C2587 C 0.09147 0.83092 0.38423 0.0
C2588 C 0.07219 0.8597 0.43643 0.0
C2589 C 0.06089 0.86141 0.41076 0.0
C2590 C 0.08087 0.84147 0.39402 0.0
C2591 C 0.06005 0.85273 0.37689 0.0
C2592 C 0.09057 0.82267 0.34956 0.0
C2593 C 0.11233 0.8199 0.40201 0.0
N2594 N 0.06983 0.84322 0.3696 0.0
N2595 N 0.10238 0.8292 0.40913 0.0
H2596 H 0.42232 0.80739 0.70731 0.0
H2597 H 0.4494 0.86692 0.56116 0.0
H2598 H 0.40145 0.82067 0.59949 0.0
H2599 H 0.47139 0.85311 0.66639 0.0
H2600 H 0.43204 0.8499 0.5746 0.0
H2601 H 0.44023 0.82395 0.69339 0.0
C2602 C 0.42141 0.81376 0.68076 0.0
C2603 C 0.41019 0.81242 0.65459 0.0
C2604 C 0.44067 0.85055 0.59475 0.0
C2605 C 0.43099 0.83158 0.63821 0.0
C2606 C 0.45074 0.86026 0.58688 0.0
C2607 C 0.46212 0.86162 0.61243 0.0
C2608 C 0.44178 0.84196 0.62862 0.0
C2609 C 0.46285 0.85272 0.64587 0.0
C2610 C 0.43175 0.82321 0.6727 0.0
C2611 C 0.40989 0.821 0.62038 0.0
N2612 N 0.4529 0.84336 0.65291 0.0
N2613 N 0.42003 0.83013 0.61335 0.0
H2614 H 0.4552 0.15197 0.85018 0.0
H2615 H 0.42011 0.22175 0.9199 0.0
H2616 H 0.4667 0.17336 0.95874 0.0
H2617 H 0.4076 0.19894 0.81496 0.0
H2618 H 0.43745 0.20465 0.93374 0.0
H2619 H 0.43839 0.16946 0.83596 0.0
C2620 C 0.45436 0.16038 0.87096 0.0
C2621 C 0.46264 0.16105 0.90575 0.0
C2622 C 0.43093 0.2034 0.90761 0.0
C2623 C 0.44292 0.18133 0.88959 0.0
C2624 C 0.4209 0.21318 0.89968 0.0
C2625 C 0.41216 0.21199 0.86602 0.0
C2626 C 0.4324 0.19217 0.88183 0.0
C2627 C 0.41409 0.2006 0.84089 0.0
C2628 C 0.4446 0.17038 0.86287 0.0
C2629 C 0.4606 0.1722 0.93173 0.0
N2630 N 0.42389 0.19123 0.84931 0.0
N2631 N 0.45104 0.18182 0.92311 0.0
H2632 H 0.91924 0.8035 0.9179 0.0
H2633 H 0.9456 0.87812 0.86076 0.0
H2634 H 0.90309 0.82733 0.81963 0.0
H2635 H 0.96671 0.8526 0.94578 0.0
H2636 H 0.92983 0.85967 0.84686 0.0
H2637 H 0.93627 0.82116 0.93009 0.0
C2638 C 0.91921 0.8124 0.89879 0.0
C2639 C 0.90957 0.81375 0.86748 0.0
C2640 C 0.93792 0.85802 0.86849 0.0
C2641 C 0.92926 0.83423 0.88157 0.0
C2642 C 0.94696 0.86863 0.87664 0.0
C2643 C 0.95758 0.86708 0.90482 0.0
C2644 C 0.93925 0.84559 0.88878 0.0
C2645 C 0.95879 0.85435 0.92371 0.0
C2646 C 0.92904 0.82249 0.90572 0.0
C2647 C 0.91032 0.82559 0.84372 0.0
N2648 N 0.94972 0.84419 0.91565 0.0
N2649 N 0.91984 0.83529 0.85138 0.0
H2650 H 0.93963 0.146 0.5709 0.0
H2651 H 0.9201 0.21466 0.6892 0.0
H2652 H 0.96741 0.16528 0.65352 0.0
H2653 H 0.89307 0.19236 0.61146 0.0
H2654 H 0.93809 0.19805 0.6743 0.0
H2655 H 0.92326 0.1639 0.58331 0.0
C2656 C 0.94234 0.15395 0.59189 0.0
C2657 C 0.95502 0.15382 0.61156 0.0
C2658 C 0.92822 0.19683 0.66046 0.0
C2659 C 0.93596 0.17489 0.62578 0.0
C2660 C 0.91793 0.20639 0.66878 0.0
C2661 C 0.90485 0.20497 0.65203 0.0
C2662 C 0.92555 0.18575 0.63483 0.0
C2663 C 0.90279 0.19388 0.62592 0.0
C2664 C 0.93291 0.1643 0.59884 0.0
C2665 C 0.95785 0.16482 0.63749 0.0
N2666 N 0.9129 0.18482 0.61834 0.0
N2667 N 0.94842 0.1748 0.644 0.0
H2668 H 0.60906 0.21501 0.40524 0.0
H2669 H 0.58191 0.1395 0.36276 0.0
H2670 H 0.6289 0.18623 0.32704 0.0
H2671 H 0.56015 0.16748 0.43882 0.0
H2672 H 0.59875 0.15692 0.34898 0.0
H2673 H 0.59085 0.19849 0.41696 0.0
C2674 C 0.60962 0.20531 0.39024 0.0
C2675 C 0.6208 0.20215 0.36523 0.0
C2676 C 0.59031 0.15934 0.36867 0.0
C2677 C 0.59977 0.18295 0.37902 0.0
C2678 C 0.58064 0.1493 0.37679 0.0
C2679 C 0.56951 0.15181 0.40254 0.0
C2680 C 0.58909 0.17221 0.38629 0.0
C2681 C 0.56845 0.16497 0.41874 0.0
C2682 C 0.59919 0.19581 0.39721 0.0
C2683 C 0.6208 0.18922 0.34723 0.0
N2684 N 0.57811 0.17458 0.41062 0.0
N2685 N 0.61058 0.18022 0.35451 0.0
H2686 H 0.58525 0.87838 0.07244 0.0
H2687 H 0.605 0.80945 0.18892 0.0
H2688 H 0.55744 0.85824 0.15328 0.0
H2689 H 0.63259 0.8327 0.11524 0.0
H2690 H 0.58706 0.82601 0.17405 0.0
H2691 H 0.602 0.86085 0.08559 0.0
C2692 C 0.58261 0.87032 0.0932 0.0
C2693 C 0.5698 0.87009 0.11216 0.0
C2694 C 0.59704 0.82748 0.16113 0.0
C2695 C 0.58928 0.84948 0.12713 0.0
C2696 C 0.60733 0.81794 0.16944 0.0
C2697 C 0.62054 0.81957 0.15369 0.0
C2698 C 0.59982 0.83878 0.1365 0.0
C2699 C 0.62277 0.83098 0.1289 0.0
C2700 C 0.59225 0.86019 0.10056 0.0
C2701 C 0.56707 0.85897 0.13777 0.0
N2702 N 0.61262 0.84002 0.12121 0.0
N2703 N 0.5767 0.84921 0.14463 0.0
H2704 H 0.5558 0.66389 0.67518 0.0
H2705 H 0.62503 0.69964 0.6026 0.0
H2706 H 0.57875 0.6513 0.57039 0.0
H2707 H 0.6041 0.71065 0.71256 0.0
H2708 H 0.60769 0.68261 0.58933 0.0
H2709 H 0.5728 0.68136 0.68836 0.0
C2710 C 0.56439 0.66469 0.65489 0.0
C2711 C 0.56567 0.65589 0.62147 0.0
C2712 C 0.60684 0.68875 0.61636 0.0
C2713 C 0.58532 0.67629 0.63646 0.0
C2714 C 0.61675 0.69862 0.6239 0.0
C2715 C 0.61614 0.70683 0.65877 0.0
C2716 C 0.59606 0.68689 0.6437 0.0
C2717 C 0.60518 0.7046 0.68544 0.0
C2718 C 0.5741 0.67479 0.66243 0.0
C2719 C 0.57704 0.65783 0.59615 0.0
N2720 N 0.59563 0.69494 0.67733 0.0
N2721 N 0.58633 0.66772 0.60418 0.0
H2722 H 0.56839 0.37135 0.84938 0.0
H2723 H 0.60472 0.30206 0.91744 0.0
H2724 H 0.55731 0.34942 0.9575 0.0
H2725 H 0.61751 0.32592 0.81474 0.0
H2726 H 0.58698 0.3187 0.93134 0.0
H2727 H 0.58566 0.35433 0.83502 0.0
C2728 C 0.56943 0.3629 0.87003 0.0
C2729 C 0.56113 0.36193 0.90472 0.0
C2730 C 0.59364 0.32029 0.9057 0.0
C2731 C 0.58135 0.34222 0.88839 0.0
C2732 C 0.60391 0.31077 0.89775 0.0
C2733 C 0.61287 0.31242 0.86474 0.0
C2734 C 0.59213 0.33168 0.88055 0.0
C2735 C 0.61088 0.32394 0.84018 0.0
C2736 C 0.57945 0.35319 0.86186 0.0
C2737 C 0.56341 0.35079 0.93055 0.0
N2738 N 0.60083 0.33304 0.84859 0.0
N2739 N 0.57321 0.34143 0.92184 0.0
H2740 H 0.90331 0.31702 0.10033 0.0
H2741 H 0.97263 0.35287 0.1722 0.0
H2742 H 0.92418 0.30621 0.21058 0.0
H2743 H 0.95022 0.3647 0.06559 0.0
H2744 H 0.95552 0.33553 0.18598 0.0
H2745 H 0.9208 0.33387 0.08638 0.0
C2746 C 0.91161 0.31802 0.12155 0.0
C2747 C 0.91212 0.30992 0.15673 0.0
C2748 C 0.95436 0.3419 0.1595 0.0
C2749 C 0.93241 0.32969 0.14085 0.0
C2750 C 0.96415 0.35193 0.1516 0.0
C2751 C 0.96308 0.36048 0.11748 0.0
C2752 C 0.94324 0.34023 0.13322 0.0
C2753 C 0.9518 0.35836 0.0919 0.0
C2754 C 0.92161 0.3278 0.11361 0.0
C2755 C 0.92313 0.31217 0.18324 0.0
N2756 N 0.94243 0.34856 0.10029 0.0
N2757 N 0.93276 0.32174 0.17476 0.0
H2758 H 0.95319 0.65185 0.35527 0.0
H2759 H 0.91738 0.72082 0.42883 0.0
H2760 H 0.96327 0.67171 0.46763 0.0
H2761 H 0.90558 0.69888 0.32148 0.0
H2762 H 0.93455 0.70354 0.44259 0.0
H2763 H 0.93647 0.66947 0.34149 0.0
C2764 C 0.95205 0.65996 0.37701 0.0
C2765 C 0.9599 0.66016 0.41272 0.0
C2766 C 0.92823 0.70252 0.41596 0.0
C2767 C 0.94031 0.68059 0.39701 0.0
C2768 C 0.91829 0.71241 0.40807 0.0
C2769 C 0.9098 0.71152 0.37374 0.0
C2770 C 0.92987 0.69151 0.38945 0.0
C2771 C 0.91188 0.70033 0.34794 0.0
C2772 C 0.94234 0.67003 0.36916 0.0
C2773 C 0.9575 0.67092 0.43986 0.0
N2774 N 0.9216 0.69087 0.35632 0.0
N2775 N 0.94802 0.68064 0.43143 0.0
H2776 H 0.39702 0.33191 0.3209 0.0
H2777 H 0.46554 0.35193 0.44013 0.0
H2778 H 0.41608 0.30463 0.40541 0.0
H2779 H 0.4433 0.37856 0.36093 0.0
H2780 H 0.44895 0.33391 0.42551 0.0
H2781 H 0.41496 0.34829 0.33299 0.0
C2782 C 0.40494 0.32931 0.34222 0.0
C2783 C 0.40474 0.31678 0.36254 0.0
C2784 C 0.44774 0.3437 0.41128 0.0
C2785 C 0.42583 0.33583 0.3764 0.0
C2786 C 0.45729 0.354 0.41944 0.0
C2787 C 0.45587 0.36698 0.40218 0.0
C2788 C 0.43668 0.34625 0.3853 0.0
C2789 C 0.44481 0.36892 0.37576 0.0
C2790 C 0.41531 0.33874 0.34899 0.0
C2791 C 0.41569 0.31407 0.3889 0.0
N2792 N 0.43576 0.35879 0.36834 0.0
N2793 N 0.42568 0.3235 0.39524 0.0
H2794 H 0.39792 0.70096 0.09322 0.0
H2795 H 0.44938 0.64678 0.18491 0.0
H2796 H 0.40943 0.70087 0.21964 0.0
H2797 H 0.45095 0.65902 0.05917 0.0
H2798 H 0.43294 0.66461 0.19771 0.0
H2799 H 0.41528 0.68399 0.08003 0.0
C2800 C 0.40408 0.6976 0.11839 0.0
C2801 C 0.40195 0.70273 0.15787 0.0
C2802 C 0.43692 0.6634 0.16733 0.0
C2803 C 0.42186 0.68253 0.14254 0.0
C2804 C 0.44651 0.6532 0.15982 0.0
C2805 C 0.45198 0.65116 0.12068 0.0
C2806 C 0.43234 0.67166 0.13552 0.0
C2807 C 0.44712 0.65981 0.08976 0.0
C2808 C 0.414 0.68772 0.11064 0.0
C2809 C 0.41026 0.6973 0.1888 0.0
N2810 N 0.43761 0.66953 0.09779 0.0
N2811 N 0.41968 0.68754 0.18053 0.0
H2812 H 0.05931 0.66676 0.94252 0.0
H2813 H 0.12821 0.68608 0.824 0.0
H2814 H 0.08169 0.63949 0.86568 0.0
H2815 H 0.10856 0.71378 0.90601 0.0
H2816 H 0.11046 0.66956 0.83718 0.0
H2817 H 0.07609 0.68453 0.92756 0.0
C2818 C 0.06765 0.66447 0.92231 0.0
C2819 C 0.069 0.6514 0.90577 0.0
C2820 C 0.10996 0.67924 0.8524 0.0
C2821 C 0.08844 0.67188 0.88851 0.0
C2822 C 0.12023 0.68875 0.84504 0.0
C2823 C 0.12019 0.70147 0.86424 0.0
C2824 C 0.09931 0.68225 0.87924 0.0
C2825 C 0.10915 0.70422 0.89025 0.0
C2826 C 0.0773 0.67465 0.91396 0.0
C2827 C 0.0802 0.64921 0.87999 0.0
N2828 N 0.09926 0.69472 0.8971 0.0
N2829 N 0.08937 0.65923 0.87234 0.0
H2830 H 0.0852 0.37811 0.57347 0.0
H2831 H 0.10512 0.30925 0.69005 0.0
H2832 H 0.0575 0.35805 0.65483 0.0
H2833 H 0.13276 0.33279 0.61734 0.0
H2834 H 0.08713 0.32575 0.67508 0.0
H2835 H 0.10199 0.36064 0.58674 0.0
C2836 C 0.08259 0.37008 0.59437 0.0
C2837 C 0.0698 0.36986 0.61345 0.0
C2838 C 0.09713 0.32729 0.6624 0.0
C2839 C 0.08933 0.3493 0.62854 0.0
C2840 C 0.10746 0.31779 0.67076 0.0
C2841 C 0.12069 0.31952 0.65531 0.0
C2842 C 0.09991 0.33865 0.63799 0.0
C2843 C 0.12291 0.33099 0.63076 0.0
C2844 C 0.09226 0.35998 0.6018 0.0
C2845 C 0.06712 0.35877 0.63923 0.0
N2846 N 0.11274 0.33999 0.62299 0.0
N2847 N 0.07677 0.34904 0.64614 0.0
loop_
_geom_bond_atom_site_label_1
_geom_bond_atom_site_label_2
_geom_bond_distance
_geom_bond_site_symmetry_2
_ccdc_geom_bond_type
C0 C1 1.443 . S
C0 N4 1.376 1_556 S
C0 C38 1.389 1_655 S
C1 C0 1.443 . S
C1 C2 1.340 . S
C1 H41 0.951 . S
C2 C1 1.340 . S
C2 C3 1.439 1_556 S
C2 H42 0.950 . S
C3 C2 1.439 1_554 S
C3 N4 1.374 . S
C3 C37 1.395 . S
N4 C0 1.376 1_554 S
N4 C3 1.374 . S
N4 Co5 2.008 1_655 S
Co5 N4 2.008 1_455 S
Co5 N6 1.995 1_455 S
Co5 N11 2.008 . S
Co5 N16 1.995 . S
Co5 N21 2.282 . S
Co5 N27 2.318 . S
N6 Co5 1.995 1_655 S
N6 C7 1.376 . S
N6 C10 1.383 . S
C7 N6 1.376 . S
C7 C8 1.446 . S
C7 C37 1.391 . S
C8 C7 1.446 . S
C8 C9 1.339 . S
C8 H43 0.949 . S
C9 C8 1.339 . S
C9 C10 1.439 . S
C9 H44 0.950 . S
C10 N6 1.383 . S
C10 C9 1.439 . S
C10 C39 1.392 1_655 S
N11 Co5 2.008 . S
N11 C12 1.376 . S
N11 C15 1.374 . S
C12 N11 1.376 . S
C12 C13 1.443 . S
C12 C39 1.389 . S
C13 C12 1.443 . S
C13 C14 1.340 . S
C13 H45 0.951 . S
C14 C13 1.340 . S
C14 C15 1.439 . S
C14 H46 0.950 . S
C15 N11 1.374 . S
C15 C14 1.439 . S
C15 C40 1.395 . S
N16 Co5 1.995 . S
N16 C17 1.376 . S
N16 C20 1.383 1_554 S
C17 N16 1.376 . S
C17 C18 1.446 1_554 S
C17 C40 1.391 . S
C18 C17 1.446 1_556 S
C18 C19 1.339 . S
C18 H47 0.949 . S
C19 C18 1.339 . S
C19 C20 1.439 . S
C19 H48 0.950 . S
C20 N16 1.383 1_556 S
C20 C19 1.439 . S
C20 C38 1.392 . S
N21 Co5 2.282 . S
N21 C24 1.332 . S
N21 C26 1.332 . S
C22 C23 1.386 . S
C22 C25 1.388 . S
C23 C22 1.386 . S
C23 C24 1.382 . S
C23 H49 0.950 . S
C24 N21 1.332 . S
C24 C23 1.382 . S
C24 H35 0.952 . S
C25 C22 1.388 . S
C25 C26 1.382 . S
C25 H50 0.950 . S
C26 N21 1.332 . S
C26 C25 1.382 . S
C26 H36 0.948 . S
N27 Co5 2.318 . S
N27 C31 1.243 1_455 S
N27 C32 1.383 . S
C28 C29 1.388 1_455 S
C28 C32 1.382 . S
C28 H51 0.950 . S
C29 C28 1.388 1_655 S
C29 C30 1.386 . S
C30 C29 1.386 . S
C30 C31 1.382 . S
C30 H52 0.950 . S
C31 N27 1.243 1_655 S
C31 C30 1.382 . S
C31 H33 0.952 . S
C32 N27 1.383 . S
C32 C28 1.382 . S
C32 H34 0.948 . S
H33 C31 0.952 . S
H34 C32 0.948 . S
H35 C24 0.952 . S
H36 C26 0.948 . S
C37 C3 1.395 . S
C37 C7 1.391 . S
C38 C0 1.389 1_455 S
C38 C20 1.392 . S
C39 C10 1.392 1_455 S
C39 C12 1.389 . S
C40 C15 1.395 . S
C40 C17 1.391 . S
H41 C1 0.951 . S
H42 C2 0.950 . S
H43 C8 0.949 . S
H44 C9 0.950 . S
H45 C13 0.951 . S
H46 C14 0.950 . S
H47 C18 0.949 . S
H48 C19 0.950 . S
H49 C23 0.950 . S
H50 C25 0.950 . S
H51 C28 0.950 . S
H52 C30 0.950 . S
C53 C54 1.443 . S
C53 N57 1.376 . S
C53 C91 1.389 . S
C54 C53 1.443 . S
C54 C55 1.340 . S
C54 H94 0.951 . S
C55 C54 1.340 . S
C55 C56 1.439 . S
C55 H95 0.950 . S
C56 C55 1.439 . S
C56 N57 1.374 . S
C56 C90 1.395 . S
N57 C53 1.376 . S
N57 C56 1.374 . S
N57 Co58 2.008 . S
Co58 N57 2.008 . S
Co58 N59 1.995 . S
Co58 N64 2.008 . S
Co58 N69 1.995 . S
Co58 N74 2.282 . S
Co58 N80 2.282 . S
N59 Co58 1.995 . S
N59 C60 1.376 . S
N59 C63 1.383 . S
C60 N59 1.376 . S
C60 C61 1.446 . S
C60 C90 1.391 . S
C61 C60 1.446 . S
C61 C62 1.339 . S
C61 H96 0.949 . S
C62 C61 1.339 . S
C62 C63 1.439 . S
C62 H97 0.950 . S
C63 N59 1.383 . S
C63 C62 1.439 . S
C63 C92 1.392 . S
N64 Co58 2.008 . S
N64 C65 1.376 . S
N64 C68 1.374 . S
C65 N64 1.376 . S
C65 C66 1.443 . S
C65 C92 1.389 . S
C66 C65 1.443 . S
C66 C67 1.340 . S
C66 H98 0.951 . S
C67 C66 1.340 . S
C67 C68 1.439 . S
C67 H99 0.950 . S
C68 N64 1.374 . S
C68 C67 1.439 . S
C68 C93 1.395 . S
N69 Co58 1.995 . S
N69 C70 1.376 . S
N69 C73 1.383 . S
C70 N69 1.376 . S
C70 C71 1.446 . S
C70 C93 1.391 . S
C71 C70 1.446 . S
C71 C72 1.339 . S
C71 H100 0.949 . S
C72 C71 1.339 . S
C72 C73 1.439 . S
C72 H101 0.950 . S
C73 N69 1.383 . S
C73 C72 1.439 . S
C73 C91 1.392 . S
N74 Co58 2.282 . S
N74 C77 1.332 . S
N74 C79 1.332 . S
C75 C76 1.386 . S
C75 C78 1.388 . S
C76 C75 1.386 . S
C76 C77 1.382 . S
C76 H102 0.950 . S
C77 N74 1.332 . S
C77 C76 1.382 . S
C77 H88 0.952 . S
C78 C75 1.388 . S
C78 C79 1.382 . S
C78 H103 0.950 . S
C79 N74 1.332 . S
C79 C78 1.382 . S
C79 H89 0.948 . S
N80 Co58 2.282 . S
N80 C84 1.332 . S
N80 C85 1.332 . S
C81 C82 1.388 . S
C81 C85 1.382 . S
C81 H104 0.950 . S
C82 C81 1.388 . S
C82 C83 1.386 . S
C83 C82 1.386 . S
C83 C84 1.382 . S
C83 H105 0.950 . S
C84 N80 1.332 . S
C84 C83 1.382 . S
C84 H86 0.952 . S
C85 N80 1.332 . S
C85 C81 1.382 . S
C85 H87 0.948 . S
H86 C84 0.952 . S
H87 C85 0.948 . S
H88 C77 0.952 . S
H89 C79 0.948 . S
C90 C56 1.395 . S
C90 C60 1.391 . S
C91 C53 1.389 . S
C91 C73 1.392 . S
C92 C63 1.392 . S
C92 C65 1.389 . S
C93 C68 1.395 . S
C93 C70 1.391 . S
H94 C54 0.951 . S
H95 C55 0.950 . S
H96 C61 0.949 . S
H97 C62 0.950 . S
H98 C66 0.951 . S
H99 C67 0.950 . S
H100 C71 0.949 . S
H101 C72 0.950 . S
H102 C76 0.950 . S
H103 C78 0.950 . S
H104 C81 0.950 . S
H105 C83 0.950 . S
C106 C107 1.443 . S
C106 N110 1.376 . S
C106 C144 1.389 . S
C107 C106 1.443 . S
C107 C108 1.340 . S
C107 H147 0.951 . S
C108 C107 1.340 . S
C108 C109 1.439 . S
C108 H148 0.950 . S
C109 C108 1.439 . S
C109 N110 1.374 . S
C109 C143 1.395 . S
N110 C106 1.376 . S
N110 C109 1.374 . S
N110 Co111 2.008 . S
Co111 N110 2.008 . S
Co111 N112 1.995 . S
Co111 N117 2.008 . S
Co111 N122 1.995 . S
Co111 N127 2.282 . S
Co111 N133 2.282 . S
N112 Co111 1.995 . S
N112 C113 1.376 . S
N112 C116 1.383 . S
C113 N112 1.376 . S
C113 C114 1.446 . S
C113 C143 1.391 . S
C114 C113 1.446 . S
C114 C115 1.339 . S
C114 H149 0.949 . S
C115 C114 1.339 . S
C115 C116 1.439 . S
C115 H150 0.950 . S
C116 N112 1.383 . S
C116 C115 1.439 . S
C116 C145 1.392 . S
N117 Co111 2.008 . S
N117 C118 1.376 . S
N117 C121 1.374 . S
C118 N117 1.376 . S
C118 C119 1.443 . S
C118 C145 1.389 . S
C119 C118 1.443 . S
C119 C120 1.340 . S
C119 H151 0.951 . S
C120 C119 1.340 . S
C120 C121 1.439 . S
C120 H152 0.950 . S
C121 N117 1.374 . S
C121 C120 1.439 . S
C121 C146 1.395 . S
N122 Co111 1.995 . S
N122 C123 1.376 . S
N122 C126 1.383 . S
C123 N122 1.376 . S
C123 C124 1.446 . S
C123 C146 1.391 . S
C124 C123 1.446 . S
C124 C125 1.339 . S
C124 H153 0.949 . S
C125 C124 1.339 . S
C125 C126 1.439 . S
C125 H154 0.950 . S
C126 N122 1.383 . S
C126 C125 1.439 . S
C126 C144 1.392 . S
N127 Co111 2.282 . S
N127 C130 1.332 . S
N127 C132 1.332 . S
C128 C129 1.386 . S
C128 C131 1.388 . S
C129 C128 1.386 . S
C129 C130 1.382 . S
C129 H155 0.950 . S
C130 N127 1.332 . S
C130 C129 1.382 . S
C130 H141 0.952 . S
C131 C128 1.388 . S
C131 C132 1.382 . S
C131 H156 0.950 . S
C132 N127 1.332 . S
C132 C131 1.382 . S
C132 H142 0.948 . S
N133 Co111 2.282 . S
N133 C137 1.332 . S
N133 C138 1.332 . S
C134 C135 1.388 . S
C134 C138 1.382 . S
C134 H157 0.950 . S
C135 C134 1.388 . S
C135 C136 1.386 . S
C136 C135 1.386 . S
C136 C137 1.382 . S
C136 H158 0.950 . S
C137 N133 1.332 . S
C137 C136 1.382 . S
C137 H139 0.952 . S
C138 N133 1.332 . S
C138 C134 1.382 . S
C138 H140 0.948 . S
H139 C137 0.952 . S
H140 C138 0.948 . S
H141 C130 0.952 . S
H142 C132 0.948 . S
C143 C109 1.395 . S
C143 C113 1.391 . S
C144 C106 1.389 . S
C144 C126 1.392 . S
C145 C116 1.392 . S
C145 C118 1.389 . S
C146 C121 1.395 . S
C146 C123 1.391 . S
H147 C107 0.951 . S
H148 C108 0.950 . S
H149 C114 0.949 . S
H150 C115 0.950 . S
H151 C119 0.951 . S
H152 C120 0.950 . S
H153 C124 0.949 . S
H154 C125 0.950 . S
H155 C129 0.950 . S
H156 C131 0.950 . S
H157 C134 0.950 . S
H158 C136 0.950 . S
C159 C160 1.443 . S
C159 N163 1.376 . S
C159 C197 1.389 . S
C160 C159 1.443 . S
C160 C161 1.340 . S
C160 H200 0.951 . S
C161 C160 1.340 . S
C161 C162 1.439 . S
C161 H201 0.950 . S
C162 C161 1.439 . S
C162 N163 1.374 . S
C162 C196 1.395 . S
N163 C159 1.376 . S
N163 C162 1.374 . S
N163 Co164 2.008 . S
Co164 N163 2.008 . S
Co164 N165 1.995 . S
Co164 N170 2.008 . S
Co164 N175 1.995 . S
Co164 N180 2.282 . S
Co164 N186 2.282 . S
N165 Co164 1.995 . S
N165 C166 1.376 . S
N165 C169 1.383 . S
C166 N165 1.376 . S
C166 C167 1.446 . S
C166 C196 1.391 . S
C167 C166 1.446 . S
C167 C168 1.339 . S
C167 H202 0.949 . S
C168 C167 1.339 . S
C168 C169 1.439 . S
C168 H203 0.950 . S
C169 N165 1.383 . S
C169 C168 1.439 . S
C169 C198 1.392 . S
N170 Co164 2.008 . S
N170 C171 1.376 . S
N170 C174 1.374 . S
C171 N170 1.376 . S
C171 C172 1.443 . S
C171 C198 1.389 . S
C172 C171 1.443 . S
C172 C173 1.340 . S
C172 H204 0.951 . S
C173 C172 1.340 . S
C173 C174 1.439 . S
C173 H205 0.950 . S
C174 N170 1.374 . S
C174 C173 1.439 . S
C174 C199 1.395 . S
N175 Co164 1.995 . S
N175 C176 1.376 . S
N175 C179 1.383 . S
C176 N175 1.376 . S
C176 C177 1.446 . S
C176 C199 1.391 . S
C177 C176 1.446 . S
C177 C178 1.339 . S
C177 H206 0.949 . S
C178 C177 1.339 . S
C178 C179 1.439 . S
C178 H207 0.950 . S
C179 N175 1.383 . S
C179 C178 1.439 . S
C179 C197 1.392 . S
N180 Co164 2.282 . S
N180 C183 1.332 . S
N180 C185 1.332 . S
C181 C182 1.386 . S
C181 C184 1.388 . S
C182 C181 1.386 . S
C182 C183 1.382 . S
C182 H208 0.950 . S
C183 N180 1.332 . S
C183 C182 1.382 . S
C183 H194 0.952 . S
C184 C181 1.388 . S
C184 C185 1.382 . S
C184 H209 0.950 . S
C185 N180 1.332 . S
C185 C184 1.382 . S
C185 H195 0.948 . S
N186 Co164 2.282 . S
N186 C190 1.332 . S
N186 C191 1.332 . S
C187 C188 1.388 . S
C187 C191 1.382 . S
C187 H210 0.950 . S
C188 C187 1.388 . S
C188 C189 1.386 . S
C189 C188 1.386 . S
C189 C190 1.382 . S
C189 H211 0.950 . S
C190 N186 1.332 . S
C190 C189 1.382 . S
C190 H192 0.952 . S
C191 N186 1.332 . S
C191 C187 1.382 . S
C191 H193 0.948 . S
H192 C190 0.952 . S
H193 C191 0.948 . S
H194 C183 0.952 . S
H195 C185 0.948 . S
C196 C162 1.395 . S
C196 C166 1.391 . S
C197 C159 1.389 . S
C197 C179 1.392 . S
C198 C169 1.392 . S
C198 C171 1.389 . S
C199 C174 1.395 . S
C199 C176 1.391 . S
H200 C160 0.951 . S
H201 C161 0.950 . S
H202 C167 0.949 . S
H203 C168 0.950 . S
H204 C172 0.951 . S
H205 C173 0.950 . S
H206 C177 0.949 . S
H207 C178 0.950 . S
H208 C182 0.950 . S
H209 C184 0.950 . S
H210 C187 0.950 . S
H211 C189 0.950 . S
C212 C213 1.443 . S
C212 N216 1.376 . S
C212 C250 1.389 1_655 S
C213 C212 1.443 . S
C213 C214 1.340 . S
C213 H253 0.951 . S
C214 C213 1.340 . S
C214 C215 1.439 . S
C214 H254 0.950 . S
C215 C214 1.439 . S
C215 N216 1.374 . S
C215 C249 1.395 . S
N216 C212 1.376 . S
N216 C215 1.374 . S
N216 Co217 2.008 1_655 S
Co217 N216 2.008 1_455 S
Co217 N218 1.995 1_455 S
Co217 N223 2.008 . S
Co217 N228 1.995 . S
Co217 N233 2.282 . S
Co217 N239 2.318 . S
N218 Co217 1.995 1_655 S
N218 C219 1.376 . S
N218 C222 1.383 . S
C219 N218 1.376 . S
C219 C220 1.446 . S
C219 C249 1.391 . S
C220 C219 1.446 . S
C220 C221 1.339 . S
C220 H255 0.949 . S
C221 C220 1.339 . S
C221 C222 1.439 . S
C221 H256 0.950 . S
C222 N218 1.383 . S
C222 C221 1.439 . S
C222 C251 1.392 1_655 S
N223 Co217 2.008 . S
N223 C224 1.376 . S
N223 C227 1.374 . S
C224 N223 1.376 . S
C224 C225 1.443 . S
C224 C251 1.389 . S
C225 C224 1.443 . S
C225 C226 1.340 . S
C225 H257 0.951 . S
C226 C225 1.340 . S
C226 C227 1.439 . S
C226 H258 0.950 . S
C227 N223 1.374 . S
C227 C226 1.439 . S
C227 C252 1.395 . S
N228 Co217 1.995 . S
N228 C229 1.376 . S
N228 C232 1.383 . S
C229 N228 1.376 . S
C229 C230 1.446 . S
C229 C252 1.391 . S
C230 C229 1.446 . S
C230 C231 1.339 . S
C230 H259 0.949 . S
C231 C230 1.339 . S
C231 C232 1.439 . S
C231 H260 0.950 . S
C232 N228 1.383 . S
C232 C231 1.439 . S
C232 C250 1.392 . S
N233 Co217 2.282 . S
N233 C236 1.332 . S
N233 C238 1.332 . S
C234 C235 1.386 . S
C234 C237 1.388 . S
C235 C234 1.386 . S
C235 C236 1.382 . S
C235 H261 0.950 . S
C236 N233 1.332 . S
C236 C235 1.382 . S
C236 H247 0.952 . S
C237 C234 1.388 . S
C237 C238 1.382 . S
C237 H262 0.950 . S
C238 N233 1.332 . S
C238 C237 1.382 . S
C238 H248 0.948 . S
N239 Co217 2.318 . S
N239 C243 1.243 1_455 S
N239 C244 1.383 . S
C240 C241 1.388 1_455 S
C240 C244 1.382 . S
C240 H263 0.950 . S
C241 C240 1.388 1_655 S
C241 C242 1.386 . S
C242 C241 1.386 . S
C242 C243 1.382 . S
C242 H264 0.950 . S
C243 N239 1.243 1_655 S
C243 C242 1.382 . S
C243 H245 0.952 . S
C244 N239 1.383 . S
C244 C240 1.382 . S
C244 H246 0.948 . S
H245 C243 0.952 . S
H246 C244 0.948 . S
H247 C236 0.952 . S
H248 C238 0.948 . S
C249 C215 1.395 . S
C249 C219 1.391 . S
C250 C212 1.389 1_455 S
C250 C232 1.392 . S
C251 C222 1.392 1_455 S
C251 C224 1.389 . S
C252 C227 1.395 . S
C252 C229 1.391 . S
H253 C213 0.951 . S
H254 C214 0.950 . S
H255 C220 0.949 . S
H256 C221 0.950 . S
H257 C225 0.951 . S
H258 C226 0.950 . S
H259 C230 0.949 . S
H260 C231 0.950 . S
H261 C235 0.950 . S
H262 C237 0.950 . S
H263 C240 0.950 . S
H264 C242 0.950 . S
C265 C266 1.443 . S
C265 N269 1.376 . S
C265 C303 1.389 . S
C266 C265 1.443 . S
C266 C267 1.340 . S
C266 H306 0.951 . S
C267 C266 1.340 . S
C267 C268 1.439 . S
C267 H307 0.950 . S
C268 C267 1.439 . S
C268 N269 1.374 . S
C268 C302 1.395 . S
N269 C265 1.376 . S
N269 C268 1.374 . S
N269 Co270 2.008 . S
Co270 N269 2.008 . S
Co270 N271 1.995 . S
Co270 N276 2.008 . S
Co270 N281 1.995 . S
Co270 N286 2.282 . S
Co270 N292 2.282 . S
N271 Co270 1.995 . S
N271 C272 1.376 . S
N271 C275 1.383 . S
C272 N271 1.376 . S
C272 C273 1.446 . S
C272 C302 1.391 . S
C273 C272 1.446 . S
C273 C274 1.339 . S
C273 H308 0.949 . S
C274 C273 1.339 . S
C274 C275 1.439 . S
C274 H309 0.950 . S
C275 N271 1.383 . S
C275 C274 1.439 . S
C275 C304 1.392 . S
N276 Co270 2.008 . S
N276 C277 1.376 . S
N276 C280 1.374 . S
C277 N276 1.376 . S
C277 C278 1.443 . S
C277 C304 1.389 . S
C278 C277 1.443 . S
C278 C279 1.340 . S
C278 H310 0.951 . S
C279 C278 1.340 . S
C279 C280 1.439 . S
C279 H311 0.950 . S
C280 N276 1.374 . S
C280 C279 1.439 . S
C280 C305 1.395 . S
N281 Co270 1.995 . S
N281 C282 1.376 . S
N281 C285 1.383 . S
C282 N281 1.376 . S
C282 C283 1.446 . S
C282 C305 1.391 . S
C283 C282 1.446 . S
C283 C284 1.339 . S
C283 H312 0.949 . S
C284 C283 1.339 . S
C284 C285 1.439 . S
C284 H313 0.950 . S
C285 N281 1.383 . S
C285 C284 1.439 . S
C285 C303 1.392 . S
N286 Co270 2.282 . S
N286 C289 1.332 . S
N286 C291 1.332 . S
C287 C288 1.386 . S
C287 C290 1.388 . S
C288 C287 1.386 . S
C288 C289 1.382 . S
C288 H314 0.950 . S
C289 N286 1.332 . S
C289 C288 1.382 . S
C289 H300 0.952 . S
C290 C287 1.388 . S
C290 C291 1.382 . S
C290 H315 0.950 . S
C291 N286 1.332 . S
C291 C290 1.382 . S
C291 H301 0.948 . S
N292 Co270 2.282 . S
N292 C296 1.332 . S
N292 C297 1.332 . S
C293 C294 1.388 . S
C293 C297 1.382 . S
C293 H316 0.950 . S
C294 C293 1.388 . S
C294 C295 1.386 . S
C295 C294 1.386 . S
C295 C296 1.382 . S
C295 H317 0.950 . S
C296 N292 1.332 . S
C296 C295 1.382 . S
C296 H298 0.952 . S
C297 N292 1.332 . S
C297 C293 1.382 . S
C297 H299 0.948 . S
H298 C296 0.952 . S
H299 C297 0.948 . S
H300 C289 0.952 . S
H301 C291 0.948 . S
C302 C268 1.395 . S
C302 C272 1.391 . S
C303 C265 1.389 . S
C303 C285 1.392 . S
C304 C275 1.392 . S
C304 C277 1.389 . S
C305 C280 1.395 . S
C305 C282 1.391 . S
H306 C266 0.951 . S
H307 C267 0.950 . S
H308 C273 0.949 . S
H309 C274 0.950 . S
H310 C278 0.951 . S
H311 C279 0.950 . S
H312 C283 0.949 . S
H313 C284 0.950 . S
H314 C288 0.950 . S
H315 C290 0.950 . S
H316 C293 0.950 . S
H317 C295 0.950 . S
C318 C319 1.443 . S
C318 N322 1.376 1_554 S
C318 C356 1.389 . S
C319 C318 1.443 . S
C319 C320 1.340 . S
C319 H359 0.951 . S
C320 C319 1.340 . S
C320 C321 1.439 1_554 S
C320 H360 0.950 . S
C321 C320 1.439 1_556 S
C321 N322 1.374 . S
C321 C355 1.395 . S
N322 C318 1.376 1_556 S
N322 C321 1.374 . S
N322 Co323 2.008 . S
Co323 N322 2.008 . S
Co323 N324 1.995 . S
Co323 N329 2.008 . S
Co323 N334 1.995 . S
Co323 N339 2.282 . S
Co323 N345 2.282 . S
N324 Co323 1.995 . S
N324 C325 1.376 . S
N324 C328 1.383 . S
C325 N324 1.376 . S
C325 C326 1.446 . S
C325 C355 1.391 . S
C326 C325 1.446 . S
C326 C327 1.339 . S
C326 H361 0.949 . S
C327 C326 1.339 . S
C327 C328 1.439 . S
C327 H362 0.950 . S
C328 N324 1.383 . S
C328 C327 1.439 . S
C328 C357 1.392 . S
N329 Co323 2.008 . S
N329 C330 1.376 . S
N329 C333 1.374 . S
C330 N329 1.376 . S
C330 C331 1.443 . S
C330 C357 1.389 . S
C331 C330 1.443 . S
C331 C332 1.340 . S
C331 H363 0.951 . S
C332 C331 1.340 . S
C332 C333 1.439 . S
C332 H364 0.950 . S
C333 N329 1.374 . S
C333 C332 1.439 . S
C333 C358 1.395 . S
N334 Co323 1.995 . S
N334 C335 1.376 . S
N334 C338 1.383 1_556 S
C335 N334 1.376 . S
C335 C336 1.446 1_556 S
C335 C358 1.391 . S
C336 C335 1.446 1_554 S
C336 C337 1.339 . S
C336 H365 0.949 . S
C337 C336 1.339 . S
C337 C338 1.439 . S
C337 H366 0.950 . S
C338 N334 1.383 1_554 S
C338 C337 1.439 . S
C338 C356 1.392 . S
N339 Co323 2.282 . S
N339 C342 1.332 . S
N339 C344 1.332 . S
C340 C341 1.386 . S
C340 C343 1.388 . S
C341 C340 1.386 . S
C341 C342 1.382 . S
C341 H367 0.950 . S
C342 N339 1.332 . S
C342 C341 1.382 . S
C342 H353 0.952 . S
C343 C340 1.388 . S
C343 C344 1.382 . S
C343 H368 0.950 . S
C344 N339 1.332 . S
C344 C343 1.382 . S
C344 H354 0.948 . S
N345 Co323 2.282 . S
N345 C349 1.332 . S
N345 C350 1.332 . S
C346 C347 1.388 . S
C346 C350 1.382 . S
C346 H369 0.950 . S
C347 C346 1.388 . S
C347 C348 1.386 . S
C348 C347 1.386 . S
C348 C349 1.382 . S
C348 H370 0.950 . S
C349 N345 1.332 . S
C349 C348 1.382 . S
C349 H351 0.952 . S
C350 N345 1.332 . S
C350 C346 1.382 . S
C350 H352 0.948 . S
H351 C349 0.952 . S
H352 C350 0.948 . S
H353 C342 0.952 . S
H354 C344 0.948 . S
C355 C321 1.395 . S
C355 C325 1.391 . S
C356 C318 1.389 . S
C356 C338 1.392 . S
C357 C328 1.392 . S
C357 C330 1.389 . S
C358 C333 1.395 . S
C358 C335 1.391 . S
H359 C319 0.951 . S
H360 C320 0.950 . S
H361 C326 0.949 . S
H362 C327 0.950 . S
H363 C331 0.951 . S
H364 C332 0.950 . S
H365 C336 0.949 . S
H366 C337 0.950 . S
H367 C341 0.950 . S
H368 C343 0.950 . S
H369 C346 0.950 . S
H370 C348 0.950 . S
C371 C372 1.443 . S
C371 N375 1.376 . S
C371 C409 1.389 . S
C372 C371 1.443 . S
C372 C373 1.340 . S
C372 H412 0.951 . S
C373 C372 1.340 . S
C373 C374 1.439 . S
C373 H413 0.950 . S
C374 C373 1.439 . S
C374 N375 1.374 . S
C374 C408 1.395 . S
N375 C371 1.376 . S
N375 C374 1.374 . S
N375 Co376 2.008 . S
Co376 N375 2.008 . S
Co376 N377 1.995 . S
Co376 N382 2.008 . S
Co376 N387 1.995 . S
Co376 N392 2.282 . S
Co376 N398 2.282 . S
N377 Co376 1.995 . S
N377 C378 1.376 . S
N377 C381 1.383 . S
C378 N377 1.376 . S
C378 C379 1.446 . S
C378 C408 1.391 . S
C379 C378 1.446 . S
C379 C380 1.339 . S
C379 H414 0.949 . S
C380 C379 1.339 . S
C380 C381 1.439 . S
C380 H415 0.950 . S
C381 N377 1.383 . S
C381 C380 1.439 . S
C381 C410 1.392 . S
N382 Co376 2.008 . S
N382 C383 1.376 . S
N382 C386 1.374 . S
C383 N382 1.376 . S
C383 C384 1.443 . S
C383 C410 1.389 . S
C384 C383 1.443 . S
C384 C385 1.340 . S
C384 H416 0.951 . S
C385 C384 1.340 . S
C385 C386 1.439 . S
C385 H417 0.950 . S
C386 N382 1.374 . S
C386 C385 1.439 . S
C386 C411 1.395 . S
N387 Co376 1.995 . S
N387 C388 1.376 . S
N387 C391 1.383 . S
C388 N387 1.376 . S
C388 C389 1.446 . S
C388 C411 1.391 . S
C389 C388 1.446 . S
C389 C390 1.339 . S
C389 H418 0.949 . S
C390 C389 1.339 . S
C390 C391 1.439 . S
C390 H419 0.950 . S
C391 N387 1.383 . S
C391 C390 1.439 . S
C391 C409 1.392 . S
N392 Co376 2.282 . S
N392 C395 1.332 . S
N392 C397 1.332 . S
C393 C394 1.386 . S
C393 C396 1.388 . S
C394 C393 1.386 . S
C394 C395 1.382 . S
C394 H420 0.950 . S
C395 N392 1.332 . S
C395 C394 1.382 . S
C395 H406 0.952 . S
C396 C393 1.388 . S
C396 C397 1.382 . S
C396 H421 0.950 . S
C397 N392 1.332 . S
C397 C396 1.382 . S
C397 H407 0.948 . S
N398 Co376 2.282 . S
N398 C402 1.332 . S
N398 C403 1.332 . S
C399 C400 1.388 . S
C399 C403 1.382 . S
C399 H422 0.950 . S
C400 C399 1.388 . S
C400 C401 1.386 . S
C401 C400 1.386 . S
C401 C402 1.382 . S
C401 H423 0.950 . S
C402 N398 1.332 . S
C402 C401 1.382 . S
C402 H404 0.952 . S
C403 N398 1.332 . S
C403 C399 1.382 . S
C403 H405 0.948 . S
H404 C402 0.952 . S
H405 C403 0.948 . S
H406 C395 0.952 . S
H407 C397 0.948 . S
C408 C374 1.395 . S
C408 C378 1.391 . S
C409 C371 1.389 . S
C409 C391 1.392 . S
C410 C381 1.392 . S
C410 C383 1.389 . S
C411 C386 1.395 . S
C411 C388 1.391 . S
H412 C372 0.951 . S
H413 C373 0.950 . S
H414 C379 0.949 . S
H415 C380 0.950 . S
H416 C384 0.951 . S
H417 C385 0.950 . S
H418 C389 0.949 . S
H419 C390 0.950 . S
H420 C394 0.950 . S
H421 C396 0.950 . S
H422 C399 0.950 . S
H423 C401 0.950 . S
C424 C425 1.443 . S
C424 N428 1.376 1_554 S
C424 C462 1.389 . S
C425 C424 1.443 . S
C425 C426 1.340 . S
C425 H465 0.951 . S
C426 C425 1.340 . S
C426 C427 1.439 1_554 S
C426 H466 0.950 . S
C427 C426 1.439 1_556 S
C427 N428 1.374 . S
C427 C461 1.395 . S
N428 C424 1.376 1_556 S
N428 C427 1.374 . S
N428 Co429 2.008 . S
Co429 N428 2.008 . S
Co429 N430 1.995 . S
Co429 N435 2.008 1_655 S
Co429 N440 1.995 1_655 S
Co429 N445 2.282 . S
Co429 N451 2.250 1_655 S
N430 Co429 1.995 . S
N430 C431 1.376 . S
N430 C434 1.383 . S
C431 N430 1.376 . S
C431 C432 1.446 . S
C431 C461 1.391 . S
C432 C431 1.446 . S
C432 C433 1.339 . S
C432 H467 0.949 . S
C433 C432 1.339 . S
C433 C434 1.439 . S
C433 H468 0.950 . S
C434 N430 1.383 . S
C434 C433 1.439 . S
C434 C463 1.392 . S
N435 Co429 2.008 1_455 S
N435 C436 1.394 . S
N435 C439 1.374 . S
C436 N435 1.394 . S
C436 C437 1.509 . S
C436 C463 1.320 1_455 S
C437 C436 1.509 . S
C437 C438 1.340 . S
C437 H469 0.951 . S
C438 C437 1.340 . S
C438 C439 1.439 . S
C438 H470 0.950 . S
C439 N435 1.374 . S
C439 C438 1.439 . S
C439 C464 1.395 . S
N440 Co429 1.995 1_455 S
N440 C441 1.376 . S
N440 C444 1.383 1_556 S
C441 N440 1.376 . S
C441 C442 1.446 1_556 S
C441 C464 1.391 . S
C442 C441 1.446 1_554 S
C442 C443 1.339 . S
C442 H471 0.949 . S
C443 C442 1.339 . S
C443 C444 1.439 . S
C443 H472 0.950 . S
C444 N440 1.383 1_554 S
C444 C443 1.439 . S
C444 C462 1.392 1_455 S
N445 Co429 2.282 . S
N445 C448 1.332 . S
N445 C450 1.332 . S
C446 C447 1.386 . S
C446 C449 1.388 . S
C447 C446 1.386 . S
C447 C448 1.382 . S
C447 H473 0.950 . S
C448 N445 1.332 . S
C448 C447 1.382 . S
C448 H459 0.952 . S
C449 C446 1.388 . S
C449 C450 1.382 . S
C449 H474 0.950 . S
C450 N445 1.332 . S
C450 C449 1.382 . S
C450 H460 0.948 . S
N451 Co429 2.250 1_455 S
N451 C455 1.295 1_455 S
N451 C456 1.399 . S
C452 C453 1.388 . S
C452 C456 1.382 . S
C452 H475 0.950 . S
C453 C452 1.388 . S
C453 C454 1.386 1_455 S
C454 C453 1.386 1_655 S
C454 C455 1.382 . S
C454 H476 0.950 . S
C455 N451 1.295 1_655 S
C455 C454 1.382 . S
C455 H457 0.952 . S
C456 N451 1.399 . S
C456 C452 1.382 . S
C456 H458 0.948 . S
H457 C455 0.952 . S
H458 C456 0.948 . S
H459 C448 0.952 . S
H460 C450 0.948 . S
C461 C427 1.395 . S
C461 C431 1.391 . S
C462 C424 1.389 . S
C462 C444 1.392 1_655 S
C463 C434 1.392 . S
C463 C436 1.320 1_655 S
C464 C439 1.395 . S
C464 C441 1.391 . S
H465 C425 0.951 . S
H466 C426 0.950 . S
H467 C432 0.949 . S
H468 C433 0.950 . S
H469 C437 0.951 . S
H470 C438 0.950 . S
H471 C442 0.949 . S
H472 C443 0.950 . S
H473 C447 0.950 . S
H474 C449 0.950 . S
H475 C452 0.950 . S
H476 C454 0.950 . S
C477 C478 1.443 . S
C477 N481 1.376 . S
C477 C515 1.389 . S
C478 C477 1.443 . S
C478 C479 1.340 . S
C478 H518 0.951 . S
C479 C478 1.340 . S
C479 C480 1.439 . S
C479 H519 0.950 . S
C480 C479 1.439 . S
C480 N481 1.374 . S
C480 C514 1.395 . S
N481 C477 1.376 . S
N481 C480 1.374 . S
N481 Co482 2.008 . S
Co482 N481 2.008 . S
Co482 N483 1.995 . S
Co482 N488 2.008 . S
Co482 N493 1.995 . S
Co482 N498 2.282 . S
Co482 N504 2.282 . S
N483 Co482 1.995 . S
N483 C484 1.376 . S
N483 C487 1.383 . S
C484 N483 1.376 . S
C484 C485 1.446 . S
C484 C514 1.391 . S
C485 C484 1.446 . S
C485 C486 1.339 . S
C485 H520 0.949 . S
C486 C485 1.339 . S
C486 C487 1.439 . S
C486 H521 0.950 . S
C487 N483 1.383 . S
C487 C486 1.439 . S
C487 C516 1.392 . S
N488 Co482 2.008 . S
N488 C489 1.376 . S
N488 C492 1.374 . S
C489 N488 1.376 . S
C489 C490 1.443 . S
C489 C516 1.389 . S
C490 C489 1.443 . S
C490 C491 1.340 . S
C490 H522 0.951 . S
C491 C490 1.340 . S
C491 C492 1.439 . S
C491 H523 0.950 . S
C492 N488 1.374 . S
C492 C491 1.439 . S
C492 C517 1.395 . S
N493 Co482 1.995 . S
N493 C494 1.376 . S
N493 C497 1.383 . S
C494 N493 1.376 . S
C494 C495 1.446 . S
C494 C517 1.391 . S
C495 C494 1.446 . S
C495 C496 1.339 . S
C495 H524 0.949 . S
C496 C495 1.339 . S
C496 C497 1.439 . S
C496 H525 0.950 . S
C497 N493 1.383 . S
C497 C496 1.439 . S
C497 C515 1.392 . S
N498 Co482 2.282 . S
N498 C501 1.332 . S
N498 C503 1.332 . S
C499 C500 1.386 . S
C499 C502 1.388 . S
C500 C499 1.386 . S
C500 C501 1.382 . S
C500 H526 0.950 . S
C501 N498 1.332 . S
C501 C500 1.382 . S
C501 H512 0.952 . S
C502 C499 1.388 . S
C502 C503 1.382 . S
C502 H527 0.950 . S
C503 N498 1.332 . S
C503 C502 1.382 . S
C503 H513 0.948 . S
N504 Co482 2.282 . S
N504 C508 1.332 . S
N504 C509 1.332 . S
C505 C506 1.388 . S
C505 C509 1.382 . S
C505 H528 0.950 . S
C506 C505 1.388 . S
C506 C507 1.386 . S
C507 C506 1.386 . S
C507 C508 1.382 . S
C507 H529 0.950 . S
C508 N504 1.332 . S
C508 C507 1.382 . S
C508 H510 0.952 . S
C509 N504 1.332 . S
C509 C505 1.382 . S
C509 H511 0.948 . S
H510 C508 0.952 . S
H511 C509 0.948 . S
H512 C501 0.952 . S
H513 C503 0.948 . S
C514 C480 1.395 . S
C514 C484 1.391 . S
C515 C477 1.389 . S
C515 C497 1.392 . S
C516 C487 1.392 . S
C516 C489 1.389 . S
C517 C492 1.395 . S
C517 C494 1.391 . S
H518 C478 0.951 . S
H519 C479 0.950 . S
H520 C485 0.949 . S
H521 C486 0.950 . S
H522 C490 0.951 . S
H523 C491 0.950 . S
H524 C495 0.949 . S
H525 C496 0.950 . S
H526 C500 0.950 . S
H527 C502 0.950 . S
H528 C505 0.950 . S
H529 C507 0.950 . S
C530 C531 1.443 . S
C530 N534 1.376 . S
C530 C568 1.389 . S
C531 C530 1.443 . S
C531 C532 1.340 . S
C531 H571 0.951 . S
C532 C531 1.340 . S
C532 C533 1.439 . S
C532 H572 0.950 . S
C533 C532 1.439 . S
C533 N534 1.374 . S
C533 C567 1.395 . S
N534 C530 1.376 . S
N534 C533 1.374 . S
N534 Co535 2.008 . S
Co535 N534 2.008 . S
Co535 N536 1.995 . S
Co535 N541 2.008 . S
Co535 N546 1.995 . S
Co535 N551 2.282 . S
Co535 N557 2.282 . S
N536 Co535 1.995 . S
N536 C537 1.376 . S
N536 C540 1.383 . S
C537 N536 1.376 . S
C537 C538 1.446 . S
C537 C567 1.391 . S
C538 C537 1.446 . S
C538 C539 1.339 . S
C538 H573 0.949 . S
C539 C538 1.339 . S
C539 C540 1.439 . S
C539 H574 0.950 . S
C540 N536 1.383 . S
C540 C539 1.439 . S
C540 C569 1.392 . S
N541 Co535 2.008 . S
N541 C542 1.376 . S
N541 C545 1.374 . S
C542 N541 1.376 . S
C542 C543 1.443 . S
C542 C569 1.389 . S
C543 C542 1.443 . S
C543 C544 1.340 . S
C543 H575 0.951 . S
C544 C543 1.340 . S
C544 C545 1.439 . S
C544 H576 0.950 . S
C545 N541 1.374 . S
C545 C544 1.439 . S
C545 C570 1.395 . S
N546 Co535 1.995 . S
N546 C547 1.376 . S
N546 C550 1.383 . S
C547 N546 1.376 . S
C547 C548 1.446 . S
C547 C570 1.391 . S
C548 C547 1.446 . S
C548 C549 1.339 . S
C548 H577 0.949 . S
C549 C548 1.339 . S
C549 C550 1.439 . S
C549 H578 0.950 . S
C550 N546 1.383 . S
C550 C549 1.439 . S
C550 C568 1.392 . S
N551 Co535 2.282 . S
N551 C554 1.332 . S
N551 C556 1.332 . S
C552 C553 1.386 . S
C552 C555 1.388 . S
C553 C552 1.386 . S
C553 C554 1.382 . S
C553 H579 0.950 . S
C554 N551 1.332 . S
C554 C553 1.382 . S
C554 H565 0.952 . S
C555 C552 1.388 . S
C555 C556 1.382 . S
C555 H580 0.950 . S
C556 N551 1.332 . S
C556 C555 1.382 . S
C556 H566 0.948 . S
N557 Co535 2.282 . S
N557 C561 1.332 . S
N557 C562 1.332 . S
C558 C559 1.388 . S
C558 C562 1.382 . S
C558 H581 0.950 . S
C559 C558 1.388 . S
C559 C560 1.386 . S
C560 C559 1.386 . S
C560 C561 1.382 . S
C560 H582 0.950 . S
C561 N557 1.332 . S
C561 C560 1.382 . S
C561 H563 0.952 . S
C562 N557 1.332 . S
C562 C558 1.382 . S
C562 H564 0.948 . S
H563 C561 0.952 . S
H564 C562 0.948 . S
H565 C554 0.952 . S
H566 C556 0.948 . S
C567 C533 1.395 . S
C567 C537 1.391 . S
C568 C530 1.389 . S
C568 C550 1.392 . S
C569 C540 1.392 . S
C569 C542 1.389 . S
C570 C545 1.395 . S
C570 C547 1.391 . S
H571 C531 0.951 . S
H572 C532 0.950 . S
H573 C538 0.949 . S
H574 C539 0.950 . S
H575 C543 0.951 . S
H576 C544 0.950 . S
H577 C548 0.949 . S
H578 C549 0.950 . S
H579 C553 0.950 . S
H580 C555 0.950 . S
H581 C558 0.950 . S
H582 C560 0.950 . S
C583 C584 1.443 . S
C583 N587 1.376 . S
C583 C621 1.389 . S
C584 C583 1.443 . S
C584 C585 1.340 . S
C584 H624 0.951 . S
C585 C584 1.340 . S
C585 C586 1.439 . S
C585 H625 0.950 . S
C586 C585 1.439 . S
C586 N587 1.374 . S
C586 C620 1.395 . S
N587 C583 1.376 . S
N587 C586 1.374 . S
N587 Co588 2.008 . S
Co588 N587 2.008 . S
Co588 N589 1.995 . S
Co588 N594 2.008 . S
Co588 N599 1.995 . S
Co588 N604 2.282 . S
Co588 N610 2.282 . S
N589 Co588 1.995 . S
N589 C590 1.376 . S
N589 C593 1.383 . S
C590 N589 1.376 . S
C590 C591 1.446 . S
C590 C620 1.391 . S
C591 C590 1.446 . S
C591 C592 1.339 . S
C591 H626 0.949 . S
C592 C591 1.339 . S
C592 C593 1.439 . S
C592 H627 0.950 . S
C593 N589 1.383 . S
C593 C592 1.439 . S
C593 C622 1.392 . S
N594 Co588 2.008 . S
N594 C595 1.376 . S
N594 C598 1.374 . S
C595 N594 1.376 . S
C595 C596 1.443 . S
C595 C622 1.389 . S
C596 C595 1.443 . S
C596 C597 1.340 . S
C596 H628 0.951 . S
C597 C596 1.340 . S
C597 C598 1.439 . S
C597 H629 0.950 . S
C598 N594 1.374 . S
C598 C597 1.439 . S
C598 C623 1.395 . S
N599 Co588 1.995 . S
N599 C600 1.376 . S
N599 C603 1.383 . S
C600 N599 1.376 . S
C600 C601 1.446 . S
C600 C623 1.391 . S
C601 C600 1.446 . S
C601 C602 1.339 . S
C601 H630 0.949 . S
C602 C601 1.339 . S
C602 C603 1.439 . S
C602 H631 0.950 . S
C603 N599 1.383 . S
C603 C602 1.439 . S
C603 C621 1.392 . S
N604 Co588 2.282 . S
N604 C607 1.332 . S
N604 C609 1.332 . S
C605 C606 1.386 . S
C605 C608 1.388 . S
C606 C605 1.386 . S
C606 C607 1.382 . S
C606 H632 0.950 . S
C607 N604 1.332 . S
C607 C606 1.382 . S
C607 H618 0.952 . S
C608 C605 1.388 . S
C608 C609 1.382 . S
C608 H633 0.950 . S
C609 N604 1.332 . S
C609 C608 1.382 . S
C609 H619 0.948 . S
N610 Co588 2.282 . S
N610 C614 1.332 . S
N610 C615 1.332 . S
C611 C612 1.388 . S
C611 C615 1.382 . S
C611 H634 0.950 . S
C612 C611 1.388 . S
C612 C613 1.386 . S
C613 C612 1.386 . S
C613 C614 1.382 . S
C613 H635 0.950 . S
C614 N610 1.332 . S
C614 C613 1.382 . S
C614 H616 0.952 . S
C615 N610 1.332 . S
C615 C611 1.382 . S
C615 H617 0.948 . S
H616 C614 0.952 . S
H617 C615 0.948 . S
H618 C607 0.952 . S
H619 C609 0.948 . S
C620 C586 1.395 . S
C620 C590 1.391 . S
C621 C583 1.389 . S
C621 C603 1.392 . S
C622 C593 1.392 . S
C622 C595 1.389 . S
C623 C598 1.395 . S
C623 C600 1.391 . S
H624 C584 0.951 . S
H625 C585 0.950 . S
H626 C591 0.949 . S
H627 C592 0.950 . S
H628 C596 0.951 . S
H629 C597 0.950 . S
H630 C601 0.949 . S
H631 C602 0.950 . S
H632 C606 0.950 . S
H633 C608 0.950 . S
H634 C611 0.950 . S
H635 C613 0.950 . S
C636 C637 1.443 . S
C636 N640 1.376 . S
C636 C674 1.389 . S
C637 C636 1.443 . S
C637 C638 1.340 . S
C637 H677 0.951 . S
C638 C637 1.340 . S
C638 C639 1.439 . S
C638 H678 0.950 . S
C639 C638 1.439 . S
C639 N640 1.374 . S
C639 C673 1.395 . S
N640 C636 1.376 . S
N640 C639 1.374 . S
N640 Co641 2.008 . S
Co641 N640 2.008 . S
Co641 N642 1.995 . S
Co641 N647 2.008 1_655 S
Co641 N652 1.995 1_655 S
Co641 N657 2.282 . S
Co641 N663 2.250 1_655 S
N642 Co641 1.995 . S
N642 C643 1.376 . S
N642 C646 1.383 . S
C643 N642 1.376 . S
C643 C644 1.446 . S
C643 C673 1.391 . S
C644 C643 1.446 . S
C644 C645 1.339 . S
C644 H679 0.949 . S
C645 C644 1.339 . S
C645 C646 1.439 . S
C645 H680 0.950 . S
C646 N642 1.383 . S
C646 C645 1.439 . S
C646 C675 1.392 . S
N647 Co641 2.008 1_455 S
N647 C648 1.394 . S
N647 C651 1.374 . S
C648 N647 1.394 . S
C648 C649 1.509 . S
C648 C675 1.320 1_455 S
C649 C648 1.509 . S
C649 C650 1.340 . S
C649 H681 0.951 . S
C650 C649 1.340 . S
C650 C651 1.439 . S
C650 H682 0.950 . S
C651 N647 1.374 . S
C651 C650 1.439 . S
C651 C676 1.395 . S
N652 Co641 1.995 1_455 S
N652 C653 1.376 . S
N652 C656 1.383 . S
C653 N652 1.376 . S
C653 C654 1.446 . S
C653 C676 1.391 . S
C654 C653 1.446 . S
C654 C655 1.339 . S
C654 H683 0.949 . S
C655 C654 1.339 . S
C655 C656 1.439 . S
C655 H684 0.950 . S
C656 N652 1.383 . S
C656 C655 1.439 . S
C656 C674 1.392 1_455 S
N657 Co641 2.282 . S
N657 C660 1.332 . S
N657 C662 1.332 . S
C658 C659 1.386 . S
C658 C661 1.388 . S
C659 C658 1.386 . S
C659 C660 1.382 . S
C659 H685 0.950 . S
C660 N657 1.332 . S
C660 C659 1.382 . S
C660 H671 0.952 . S
C661 C658 1.388 . S
C661 C662 1.382 . S
C661 H686 0.950 . S
C662 N657 1.332 . S
C662 C661 1.382 . S
C662 H672 0.948 . S
N663 Co641 2.250 1_455 S
N663 C667 1.295 1_455 S
N663 C668 1.399 . S
C664 C665 1.388 . S
C664 C668 1.382 . S
C664 H687 0.950 . S
C665 C664 1.388 . S
C665 C666 1.386 1_455 S
C666 C665 1.386 1_655 S
C666 C667 1.382 . S
C666 H688 0.950 . S
C667 N663 1.295 1_655 S
C667 C666 1.382 . S
C667 H669 0.952 . S
C668 N663 1.399 . S
C668 C664 1.382 . S
C668 H670 0.948 . S
H669 C667 0.952 . S
H670 C668 0.948 . S
H671 C660 0.952 . S
H672 C662 0.948 . S
C673 C639 1.395 . S
C673 C643 1.391 . S
C674 C636 1.389 . S
C674 C656 1.392 1_655 S
C675 C646 1.392 . S
C675 C648 1.320 1_655 S
C676 C651 1.395 . S
C676 C653 1.391 . S
H677 C637 0.951 . S
H678 C638 0.950 . S
H679 C644 0.949 . S
H680 C645 0.950 . S
H681 C649 0.951 . S
H682 C650 0.950 . S
H683 C654 0.949 . S
H684 C655 0.950 . S
H685 C659 0.950 . S
H686 C661 0.950 . S
H687 C664 0.950 . S
H688 C666 0.950 . S
C689 C690 1.443 . S
C689 N693 1.376 . S
C689 C727 1.389 . S
C690 C689 1.443 . S
C690 C691 1.340 . S
C690 H730 0.951 . S
C691 C690 1.340 . S
C691 C692 1.439 . S
C691 H731 0.950 . S
C692 C691 1.439 . S
C692 N693 1.374 . S
C692 C726 1.395 . S
N693 C689 1.376 . S
N693 C692 1.374 . S
N693 Co694 2.008 . S
Co694 N693 2.008 . S
Co694 N695 1.995 . S
Co694 N700 2.008 . S
Co694 N705 1.995 . S
Co694 N710 2.282 . S
Co694 N716 2.282 . S
N695 Co694 1.995 . S
N695 C696 1.376 . S
N695 C699 1.383 . S
C696 N695 1.376 . S
C696 C697 1.446 . S
C696 C726 1.391 . S
C697 C696 1.446 . S
C697 C698 1.339 . S
C697 H732 0.949 . S
C698 C697 1.339 . S
C698 C699 1.439 . S
C698 H733 0.950 . S
C699 N695 1.383 . S
C699 C698 1.439 . S
C699 C728 1.392 . S
N700 Co694 2.008 . S
N700 C701 1.376 . S
N700 C704 1.374 . S
C701 N700 1.376 . S
C701 C702 1.443 . S
C701 C728 1.389 . S
C702 C701 1.443 . S
C702 C703 1.340 . S
C702 H734 0.951 . S
C703 C702 1.340 . S
C703 C704 1.439 . S
C703 H735 0.950 . S
C704 N700 1.374 . S
C704 C703 1.439 . S
C704 C729 1.395 . S
N705 Co694 1.995 . S
N705 C706 1.376 . S
N705 C709 1.383 . S
C706 N705 1.376 . S
C706 C707 1.446 . S
C706 C729 1.391 . S
C707 C706 1.446 . S
C707 C708 1.339 . S
C707 H736 0.949 . S
C708 C707 1.339 . S
C708 C709 1.439 . S
C708 H737 0.950 . S
C709 N705 1.383 . S
C709 C708 1.439 . S
C709 C727 1.392 . S
N710 Co694 2.282 . S
N710 C713 1.332 . S
N710 C715 1.332 . S
C711 C712 1.386 . S
C711 C714 1.388 . S
C712 C711 1.386 . S
C712 C713 1.382 . S
C712 H738 0.950 . S
C713 N710 1.332 . S
C713 C712 1.382 . S
C713 H724 0.952 . S
C714 C711 1.388 . S
C714 C715 1.382 . S
C714 H739 0.950 . S
C715 N710 1.332 . S
C715 C714 1.382 . S
C715 H725 0.948 . S
N716 Co694 2.282 . S
N716 C720 1.332 . S
N716 C721 1.332 . S
C717 C718 1.388 . S
C717 C721 1.382 . S
C717 H740 0.950 . S
C718 C717 1.388 . S
C718 C719 1.386 . S
C719 C718 1.386 . S
C719 C720 1.382 . S
C719 H741 0.950 . S
C720 N716 1.332 . S
C720 C719 1.382 . S
C720 H722 0.952 . S
C721 N716 1.332 . S
C721 C717 1.382 . S
C721 H723 0.948 . S
H722 C720 0.952 . S
H723 C721 0.948 . S
H724 C713 0.952 . S
H725 C715 0.948 . S
C726 C692 1.395 . S
C726 C696 1.391 . S
C727 C689 1.389 . S
C727 C709 1.392 . S
C728 C699 1.392 . S
C728 C701 1.389 . S
C729 C704 1.395 . S
C729 C706 1.391 . S
H730 C690 0.951 . S
H731 C691 0.950 . S
H732 C697 0.949 . S
H733 C698 0.950 . S
H734 C702 0.951 . S
H735 C703 0.950 . S
H736 C707 0.949 . S
H737 C708 0.950 . S
H738 C712 0.950 . S
H739 C714 0.950 . S
H740 C717 0.950 . S
H741 C719 0.950 . S
C742 C743 1.443 . S
C742 N746 1.376 1_556 S
C742 C780 1.389 . S
C743 C742 1.443 . S
C743 C744 1.340 . S
C743 H783 0.951 . S
C744 C743 1.340 . S
C744 C745 1.439 1_556 S
C744 H784 0.950 . S
C745 C744 1.439 1_554 S
C745 N746 1.374 . S
C745 C779 1.395 . S
N746 C742 1.376 1_554 S
N746 C745 1.374 . S
N746 Co747 2.008 . S
Co747 N746 2.008 . S
Co747 N748 1.995 . S
Co747 N753 2.008 . S
Co747 N758 1.995 . S
Co747 N763 2.282 . S
Co747 N769 2.282 . S
N748 Co747 1.995 . S
N748 C749 1.376 . S
N748 C752 1.383 . S
C749 N748 1.376 . S
C749 C750 1.446 . S
C749 C779 1.391 . S
C750 C749 1.446 . S
C750 C751 1.339 . S
C750 H785 0.949 . S
C751 C750 1.339 . S
C751 C752 1.439 . S
C751 H786 0.950 . S
C752 N748 1.383 . S
C752 C751 1.439 . S
C752 C781 1.392 . S
N753 Co747 2.008 . S
N753 C754 1.376 . S
N753 C757 1.374 . S
C754 N753 1.376 . S
C754 C755 1.443 . S
C754 C781 1.389 . S
C755 C754 1.443 . S
C755 C756 1.340 . S
C755 H787 0.951 . S
C756 C755 1.340 . S
C756 C757 1.439 . S
C756 H788 0.950 . S
C757 N753 1.374 . S
C757 C756 1.439 . S
C757 C782 1.395 . S
N758 Co747 1.995 . S
N758 C759 1.376 . S
N758 C762 1.383 1_554 S
C759 N758 1.376 . S
C759 C760 1.446 1_554 S
C759 C782 1.391 . S
C760 C759 1.446 1_556 S
C760 C761 1.339 . S
C760 H789 0.949 . S
C761 C760 1.339 . S
C761 C762 1.439 . S
C761 H790 0.950 . S
C762 N758 1.383 1_556 S
C762 C761 1.439 . S
C762 C780 1.392 . S
N763 Co747 2.282 . S
N763 C766 1.332 . S
N763 C768 1.332 . S
C764 C765 1.386 . S
C764 C767 1.388 . S
C765 C764 1.386 . S
C765 C766 1.382 . S
C765 H791 0.950 . S
C766 N763 1.332 . S
C766 C765 1.382 . S
C766 H777 0.952 . S
C767 C764 1.388 . S
C767 C768 1.382 . S
C767 H792 0.950 . S
C768 N763 1.332 . S
C768 C767 1.382 . S
C768 H778 0.948 . S
N769 Co747 2.282 . S
N769 C773 1.332 . S
N769 C774 1.332 . S
C770 C771 1.388 . S
C770 C774 1.382 . S
C770 H793 0.950 . S
C771 C770 1.388 . S
C771 C772 1.386 . S
C772 C771 1.386 . S
C772 C773 1.382 . S
C772 H794 0.950 . S
C773 N769 1.332 . S
C773 C772 1.382 . S
C773 H775 0.952 . S
C774 N769 1.332 . S
C774 C770 1.382 . S
C774 H776 0.948 . S
H775 C773 0.952 . S
H776 C774 0.948 . S
H777 C766 0.952 . S
H778 C768 0.948 . S
C779 C745 1.395 . S
C779 C749 1.391 . S
C780 C742 1.389 . S
C780 C762 1.392 . S
C781 C752 1.392 . S
C781 C754 1.389 . S
C782 C757 1.395 . S
C782 C759 1.391 . S
H783 C743 0.951 . S
H784 C744 0.950 . S
H785 C750 0.949 . S
H786 C751 0.950 . S
H787 C755 0.951 . S
H788 C756 0.950 . S
H789 C760 0.949 . S
H790 C761 0.950 . S
H791 C765 0.950 . S
H792 C767 0.950 . S
H793 C770 0.950 . S
H794 C772 0.950 . S
C795 C796 1.443 . S
C795 N799 1.376 . S
C795 C833 1.389 . S
C796 C795 1.443 . S
C796 C797 1.340 . S
C796 H836 0.951 . S
C797 C796 1.340 . S
C797 C798 1.439 . S
C797 H837 0.950 . S
C798 C797 1.439 . S
C798 N799 1.374 . S
C798 C832 1.395 . S
N799 C795 1.376 . S
N799 C798 1.374 . S
N799 Co800 2.008 . S
Co800 N799 2.008 . S
Co800 N801 1.995 . S
Co800 N806 2.008 . S
Co800 N811 1.995 . S
Co800 N816 2.282 . S
Co800 N822 2.282 . S
N801 Co800 1.995 . S
N801 C802 1.376 . S
N801 C805 1.383 . S
C802 N801 1.376 . S
C802 C803 1.446 . S
C802 C832 1.391 . S
C803 C802 1.446 . S
C803 C804 1.339 . S
C803 H838 0.949 . S
C804 C803 1.339 . S
C804 C805 1.439 . S
C804 H839 0.950 . S
C805 N801 1.383 . S
C805 C804 1.439 . S
C805 C834 1.392 . S
N806 Co800 2.008 . S
N806 C807 1.376 . S
N806 C810 1.374 . S
C807 N806 1.376 . S
C807 C808 1.443 . S
C807 C834 1.389 . S
C808 C807 1.443 . S
C808 C809 1.340 . S
C808 H840 0.951 . S
C809 C808 1.340 . S
C809 C810 1.439 . S
C809 H841 0.950 . S
C810 N806 1.374 . S
C810 C809 1.439 . S
C810 C835 1.395 . S
N811 Co800 1.995 . S
N811 C812 1.376 . S
N811 C815 1.383 . S
C812 N811 1.376 . S
C812 C813 1.446 . S
C812 C835 1.391 . S
C813 C812 1.446 . S
C813 C814 1.339 . S
C813 H842 0.949 . S
C814 C813 1.339 . S
C814 C815 1.439 . S
C814 H843 0.950 . S
C815 N811 1.383 . S
C815 C814 1.439 . S
C815 C833 1.392 . S
N816 Co800 2.282 . S
N816 C819 1.332 . S
N816 C821 1.332 . S
C817 C818 1.386 . S
C817 C820 1.388 . S
C818 C817 1.386 . S
C818 C819 1.382 . S
C818 H844 0.950 . S
C819 N816 1.332 . S
C819 C818 1.382 . S
C819 H830 0.952 . S
C820 C817 1.388 . S
C820 C821 1.382 . S
C820 H845 0.950 . S
C821 N816 1.332 . S
C821 C820 1.382 . S
C821 H831 0.948 . S
N822 Co800 2.282 . S
N822 C826 1.332 . S
N822 C827 1.332 . S
C823 C824 1.388 . S
C823 C827 1.382 . S
C823 H846 0.950 . S
C824 C823 1.388 . S
C824 C825 1.386 . S
C825 C824 1.386 . S
C825 C826 1.382 . S
C825 H847 0.950 . S
C826 N822 1.332 . S
C826 C825 1.382 . S
C826 H828 0.952 . S
C827 N822 1.332 . S
C827 C823 1.382 . S
C827 H829 0.948 . S
H828 C826 0.952 . S
H829 C827 0.948 . S
H830 C819 0.952 . S
H831 C821 0.948 . S
C832 C798 1.395 . S
C832 C802 1.391 . S
C833 C795 1.389 . S
C833 C815 1.392 . S
C834 C805 1.392 . S
C834 C807 1.389 . S
C835 C810 1.395 . S
C835 C812 1.391 . S
H836 C796 0.951 . S
H837 C797 0.950 . S
H838 C803 0.949 . S
H839 C804 0.950 . S
H840 C808 0.951 . S
H841 C809 0.950 . S
H842 C813 0.949 . S
H843 C814 0.950 . S
H844 C818 0.950 . S
H845 C820 0.950 . S
H846 C823 0.950 . S
H847 C825 0.950 . S
C848 C849 1.443 . S
C848 N852 1.376 . S
C848 C886 1.389 . S
C849 C848 1.443 . S
C849 C850 1.340 . S
C849 H889 0.951 . S
C850 C849 1.340 . S
C850 C851 1.439 . S
C850 H890 0.950 . S
C851 C850 1.439 . S
C851 N852 1.374 . S
C851 C885 1.395 . S
N852 C848 1.376 . S
N852 C851 1.374 . S
N852 Co853 2.008 . S
Co853 N852 2.008 . S
Co853 N854 1.995 . S
Co853 N859 2.008 . S
Co853 N864 1.995 . S
Co853 N869 2.282 . S
Co853 N875 2.282 . S
N854 Co853 1.995 . S
N854 C855 1.376 . S
N854 C858 1.383 . S
C855 N854 1.376 . S
C855 C856 1.446 . S
C855 C885 1.391 . S
C856 C855 1.446 . S
C856 C857 1.339 . S
C856 H891 0.949 . S
C857 C856 1.339 . S
C857 C858 1.439 . S
C857 H892 0.950 . S
C858 N854 1.383 . S
C858 C857 1.439 . S
C858 C887 1.392 . S
N859 Co853 2.008 . S
N859 C860 1.376 . S
N859 C863 1.374 . S
C860 N859 1.376 . S
C860 C861 1.443 . S
C860 C887 1.389 . S
C861 C860 1.443 . S
C861 C862 1.340 . S
C861 H893 0.951 . S
C862 C861 1.340 . S
C862 C863 1.439 . S
C862 H894 0.950 . S
C863 N859 1.374 . S
C863 C862 1.439 . S
C863 C888 1.395 . S
N864 Co853 1.995 . S
N864 C865 1.376 . S
N864 C868 1.383 . S
C865 N864 1.376 . S
C865 C866 1.446 . S
C865 C888 1.391 . S
C866 C865 1.446 . S
C866 C867 1.339 . S
C866 H895 0.949 . S
C867 C866 1.339 . S
C867 C868 1.439 . S
C867 H896 0.950 . S
C868 N864 1.383 . S
C868 C867 1.439 . S
C868 C886 1.392 . S
N869 Co853 2.282 . S
N869 C872 1.332 . S
N869 C874 1.332 . S
C870 C871 1.386 . S
C870 C873 1.388 . S
C871 C870 1.386 . S
C871 C872 1.382 . S
C871 H897 0.950 . S
C872 N869 1.332 . S
C872 C871 1.382 . S
C872 H883 0.952 . S
C873 C870 1.388 . S
C873 C874 1.382 . S
C873 H898 0.950 . S
C874 N869 1.332 . S
C874 C873 1.382 . S
C874 H884 0.948 . S
N875 Co853 2.282 . S
N875 C879 1.332 . S
N875 C880 1.332 . S
C876 C877 1.388 . S
C876 C880 1.382 . S
C876 H899 0.950 . S
C877 C876 1.388 . S
C877 C878 1.386 . S
C878 C877 1.386 . S
C878 C879 1.382 . S
C878 H900 0.950 . S
C879 N875 1.332 . S
C879 C878 1.382 . S
C879 H881 0.952 . S
C880 N875 1.332 . S
C880 C876 1.382 . S
C880 H882 0.948 . S
H881 C879 0.952 . S
H882 C880 0.948 . S
H883 C872 0.952 . S
H884 C874 0.948 . S
C885 C851 1.395 . S
C885 C855 1.391 . S
C886 C848 1.389 . S
C886 C868 1.392 . S
C887 C858 1.392 . S
C887 C860 1.389 . S
C888 C863 1.395 . S
C888 C865 1.391 . S
H889 C849 0.951 . S
H890 C850 0.950 . S
H891 C856 0.949 . S
H892 C857 0.950 . S
H893 C861 0.951 . S
H894 C862 0.950 . S
H895 C866 0.949 . S
H896 C867 0.950 . S
H897 C871 0.950 . S
H898 C873 0.950 . S
H899 C876 0.950 . S
H900 C878 0.950 . S
C901 C902 1.443 . S
C901 N905 1.376 . S
C901 C939 1.389 . S
C902 C901 1.443 . S
C902 C903 1.340 . S
C902 H942 0.951 . S
C903 C902 1.340 . S
C903 C904 1.439 . S
C903 H943 0.950 . S
C904 C903 1.439 . S
C904 N905 1.374 . S
C904 C938 1.395 . S
N905 C901 1.376 . S
N905 C904 1.374 . S
N905 Co906 2.008 . S
Co906 N905 2.008 . S
Co906 N907 1.995 . S
Co906 N912 2.008 . S
Co906 N917 1.995 . S
Co906 N922 2.282 . S
Co906 N928 2.282 . S
N907 Co906 1.995 . S
N907 C908 1.376 . S
N907 C911 1.383 . S
C908 N907 1.376 . S
C908 C909 1.446 . S
C908 C938 1.391 . S
C909 C908 1.446 . S
C909 C910 1.339 . S
C909 H944 0.949 . S
C910 C909 1.339 . S
C910 C911 1.439 . S
C910 H945 0.950 . S
C911 N907 1.383 . S
C911 C910 1.439 . S
C911 C940 1.392 . S
N912 Co906 2.008 . S
N912 C913 1.376 . S
N912 C916 1.374 . S
C913 N912 1.376 . S
C913 C914 1.443 . S
C913 C940 1.389 . S
C914 C913 1.443 . S
C914 C915 1.340 . S
C914 H946 0.951 . S
C915 C914 1.340 . S
C915 C916 1.439 . S
C915 H947 0.950 . S
C916 N912 1.374 . S
C916 C915 1.439 . S
C916 C941 1.395 . S
N917 Co906 1.995 . S
N917 C918 1.376 . S
N917 C921 1.383 . S
C918 N917 1.376 . S
C918 C919 1.446 . S
C918 C941 1.391 . S
C919 C918 1.446 . S
C919 C920 1.339 . S
C919 H948 0.949 . S
C920 C919 1.339 . S
C920 C921 1.439 . S
C920 H949 0.950 . S
C921 N917 1.383 . S
C921 C920 1.439 . S
C921 C939 1.392 . S
N922 Co906 2.282 . S
N922 C925 1.332 . S
N922 C927 1.332 . S
C923 C924 1.386 . S
C923 C926 1.388 . S
C924 C923 1.386 . S
C924 C925 1.382 . S
C924 H950 0.950 . S
C925 N922 1.332 . S
C925 C924 1.382 . S
C925 H936 0.952 . S
C926 C923 1.388 . S
C926 C927 1.382 . S
C926 H951 0.950 . S
C927 N922 1.332 . S
C927 C926 1.382 . S
C927 H937 0.948 . S
N928 Co906 2.282 . S
N928 C932 1.332 . S
N928 C933 1.332 . S
C929 C930 1.388 . S
C929 C933 1.382 . S
C929 H952 0.950 . S
C930 C929 1.388 . S
C930 C931 1.386 . S
C931 C930 1.386 . S
C931 C932 1.382 . S
C931 H953 0.950 . S
C932 N928 1.332 . S
C932 C931 1.382 . S
C932 H934 0.952 . S
C933 N928 1.332 . S
C933 C929 1.382 . S
C933 H935 0.948 . S
H934 C932 0.952 . S
H935 C933 0.948 . S
H936 C925 0.952 . S
H937 C927 0.948 . S
C938 C904 1.395 . S
C938 C908 1.391 . S
C939 C901 1.389 . S
C939 C921 1.392 . S
C940 C911 1.392 . S
C940 C913 1.389 . S
C941 C916 1.395 . S
C941 C918 1.391 . S
H942 C902 0.951 . S
H943 C903 0.950 . S
H944 C909 0.949 . S
H945 C910 0.950 . S
H946 C914 0.951 . S
H947 C915 0.950 . S
H948 C919 0.949 . S
H949 C920 0.950 . S
H950 C924 0.950 . S
H951 C926 0.950 . S
H952 C929 0.950 . S
H953 C931 0.950 . S
C954 C955 1.443 . S
C954 N958 1.376 1_556 S
C954 C992 1.389 1_455 S
C955 C954 1.443 . S
C955 C956 1.340 . S
C955 H995 0.951 . S
C956 C955 1.340 . S
C956 C957 1.439 1_556 S
C956 H996 0.950 . S
C957 C956 1.439 1_554 S
C957 N958 1.374 . S
C957 C991 1.395 . S
N958 C954 1.376 1_554 S
N958 C957 1.374 . S
N958 Co959 2.008 1_455 S
Co959 N958 2.008 1_655 S
Co959 N960 1.995 1_655 S
Co959 N965 2.008 . S
Co959 N970 1.995 . S
Co959 N975 2.282 . S
Co959 N981 2.318 . S
N960 Co959 1.995 1_455 S
N960 C961 1.376 . S
N960 C964 1.383 . S
C961 N960 1.376 . S
C961 C962 1.446 . S
C961 C991 1.391 . S
C962 C961 1.446 . S
C962 C963 1.339 . S
C962 H997 0.949 . S
C963 C962 1.339 . S
C963 C964 1.439 . S
C963 H998 0.950 . S
C964 N960 1.383 . S
C964 C963 1.439 . S
C964 C993 1.392 1_455 S
N965 Co959 2.008 . S
N965 C966 1.376 . S
N965 C969 1.374 . S
C966 N965 1.376 . S
C966 C967 1.443 . S
C966 C993 1.389 . S
C967 C966 1.443 . S
C967 C968 1.340 . S
C967 H999 0.951 . S
C968 C967 1.340 . S
C968 C969 1.439 . S
C968 H1000 0.950 . S
C969 N965 1.374 . S
C969 C968 1.439 . S
C969 C994 1.395 . S
N970 Co959 1.995 . S
N970 C971 1.376 . S
N970 C974 1.383 1_554 S
C971 N970 1.376 . S
C971 C972 1.446 1_554 S
C971 C994 1.391 . S
C972 C971 1.446 1_556 S
C972 C973 1.339 . S
C972 H1001 0.949 . S
C973 C972 1.339 . S
C973 C974 1.439 . S
C973 H1002 0.950 . S
C974 N970 1.383 1_556 S
C974 C973 1.439 . S
C974 C992 1.392 . S
N975 Co959 2.282 . S
N975 C978 1.332 . S
N975 C980 1.332 . S
C976 C977 1.386 . S
C976 C979 1.388 . S
C977 C976 1.386 . S
C977 C978 1.382 . S
C977 H1003 0.950 . S
C978 N975 1.332 . S
C978 C977 1.382 . S
C978 H989 0.952 . S
C979 C976 1.388 . S
C979 C980 1.382 . S
C979 H1004 0.950 . S
C980 N975 1.332 . S
C980 C979 1.382 . S
C980 H990 0.948 . S
N981 Co959 2.318 . S
N981 C985 1.243 1_655 S
N981 C986 1.383 . S
C982 C983 1.388 1_655 S
C982 C986 1.382 . S
C982 H1005 0.950 . S
C983 C982 1.388 1_455 S
C983 C984 1.386 . S
C984 C983 1.386 . S
C984 C985 1.382 . S
C984 H1006 0.950 . S
C985 N981 1.243 1_455 S
C985 C984 1.382 . S
C985 H987 0.952 . S
C986 N981 1.383 . S
C986 C982 1.382 . S
C986 H988 0.948 . S
H987 C985 0.952 . S
H988 C986 0.948 . S
H989 C978 0.952 . S
H990 C980 0.948 . S
C991 C957 1.395 . S
C991 C961 1.391 . S
C992 C954 1.389 1_655 S
C992 C974 1.392 . S
C993 C964 1.392 1_655 S
C993 C966 1.389 . S
C994 C969 1.395 . S
C994 C971 1.391 . S
H995 C955 0.951 . S
H996 C956 0.950 . S
H997 C962 0.949 . S
H998 C963 0.950 . S
H999 C967 0.951 . S
H1000 C968 0.950 . S
H1001 C972 0.949 . S
H1002 C973 0.950 . S
H1003 C977 0.950 . S
H1004 C979 0.950 . S
H1005 C982 0.950 . S
H1006 C984 0.950 . S
C1007 C1008 1.443 . S
C1007 N1011 1.376 . S
C1007 C1045 1.389 . S
C1008 C1007 1.443 . S
C1008 C1009 1.340 . S
C1008 H1048 0.951 . S
C1009 C1008 1.340 . S
C1009 C1010 1.439 . S
C1009 H1049 0.950 . S
C1010 C1009 1.439 . S
C1010 N1011 1.374 . S
C1010 C1044 1.395 . S
N1011 C1007 1.376 . S
N1011 C1010 1.374 . S
N1011 Co1012 2.008 . S
Co1012 N1011 2.008 . S
Co1012 N1013 1.995 . S
Co1012 N1018 2.008 . S
Co1012 N1023 1.995 . S
Co1012 N1028 2.282 . S
Co1012 N1034 2.282 . S
N1013 Co1012 1.995 . S
N1013 C1014 1.376 . S
N1013 C1017 1.383 . S
C1014 N1013 1.376 . S
C1014 C1015 1.446 . S
C1014 C1044 1.391 . S
C1015 C1014 1.446 . S
C1015 C1016 1.339 . S
C1015 H1050 0.949 . S
C1016 C1015 1.339 . S
C1016 C1017 1.439 . S
C1016 H1051 0.950 . S
C1017 N1013 1.383 . S
C1017 C1016 1.439 . S
C1017 C1046 1.392 . S
N1018 Co1012 2.008 . S
N1018 C1019 1.376 . S
N1018 C1022 1.374 . S
C1019 N1018 1.376 . S
C1019 C1020 1.443 . S
C1019 C1046 1.389 . S
C1020 C1019 1.443 . S
C1020 C1021 1.340 . S
C1020 H1052 0.951 . S
C1021 C1020 1.340 . S
C1021 C1022 1.439 . S
C1021 H1053 0.950 . S
C1022 N1018 1.374 . S
C1022 C1021 1.439 . S
C1022 C1047 1.395 . S
N1023 Co1012 1.995 . S
N1023 C1024 1.376 . S
N1023 C1027 1.383 . S
C1024 N1023 1.376 . S
C1024 C1025 1.446 . S
C1024 C1047 1.391 . S
C1025 C1024 1.446 . S
C1025 C1026 1.339 . S
C1025 H1054 0.949 . S
C1026 C1025 1.339 . S
C1026 C1027 1.439 . S
C1026 H1055 0.950 . S
C1027 N1023 1.383 . S
C1027 C1026 1.439 . S
C1027 C1045 1.392 . S
N1028 Co1012 2.282 . S
N1028 C1031 1.332 . S
N1028 C1033 1.332 . S
C1029 C1030 1.386 . S
C1029 C1032 1.388 . S
C1030 C1029 1.386 . S
C1030 C1031 1.382 . S
C1030 H1056 0.950 . S
C1031 N1028 1.332 . S
C1031 C1030 1.382 . S
C1031 H1042 0.952 . S
C1032 C1029 1.388 . S
C1032 C1033 1.382 . S
C1032 H1057 0.950 . S
C1033 N1028 1.332 . S
C1033 C1032 1.382 . S
C1033 H1043 0.948 . S
N1034 Co1012 2.282 . S
N1034 C1038 1.332 . S
N1034 C1039 1.332 . S
C1035 C1036 1.388 . S
C1035 C1039 1.382 . S
C1035 H1058 0.950 . S
C1036 C1035 1.388 . S
C1036 C1037 1.386 . S
C1037 C1036 1.386 . S
C1037 C1038 1.382 . S
C1037 H1059 0.950 . S
C1038 N1034 1.332 . S
C1038 C1037 1.382 . S
C1038 H1040 0.952 . S
C1039 N1034 1.332 . S
C1039 C1035 1.382 . S
C1039 H1041 0.948 . S
H1040 C1038 0.952 . S
H1041 C1039 0.948 . S
H1042 C1031 0.952 . S
H1043 C1033 0.948 . S
C1044 C1010 1.395 . S
C1044 C1014 1.391 . S
C1045 C1007 1.389 . S
C1045 C1027 1.392 . S
C1046 C1017 1.392 . S
C1046 C1019 1.389 . S
C1047 C1022 1.395 . S
C1047 C1024 1.391 . S
H1048 C1008 0.951 . S
H1049 C1009 0.950 . S
H1050 C1015 0.949 . S
H1051 C1016 0.950 . S
H1052 C1020 0.951 . S
H1053 C1021 0.950 . S
H1054 C1025 0.949 . S
H1055 C1026 0.950 . S
H1056 C1030 0.950 . S
H1057 C1032 0.950 . S
H1058 C1035 0.950 . S
H1059 C1037 0.950 . S
C1060 C1061 1.443 . S
C1060 N1064 1.376 1_554 S
C1060 C1098 1.389 . S
C1061 C1060 1.443 . S
C1061 C1062 1.340 . S
C1061 H1101 0.951 . S
C1062 C1061 1.340 . S
C1062 C1063 1.439 1_554 S
C1062 H1102 0.950 . S
C1063 C1062 1.439 1_556 S
C1063 N1064 1.374 . S
C1063 C1097 1.395 . S
N1064 C1060 1.376 1_556 S
N1064 C1063 1.374 . S
N1064 Co1065 2.008 . S
Co1065 N1064 2.008 . S
Co1065 N1066 1.995 . S
Co1065 N1071 2.008 . S
Co1065 N1076 1.995 . S
Co1065 N1081 2.282 . S
Co1065 N1087 2.282 . S
N1066 Co1065 1.995 . S
N1066 C1067 1.376 . S
N1066 C1070 1.383 . S
C1067 N1066 1.376 . S
C1067 C1068 1.446 . S
C1067 C1097 1.391 . S
C1068 C1067 1.446 . S
C1068 C1069 1.339 . S
C1068 H1103 0.949 . S
C1069 C1068 1.339 . S
C1069 C1070 1.439 . S
C1069 H1104 0.950 . S
C1070 N1066 1.383 . S
C1070 C1069 1.439 . S
C1070 C1099 1.392 . S
N1071 Co1065 2.008 . S
N1071 C1072 1.376 . S
N1071 C1075 1.374 . S
C1072 N1071 1.376 . S
C1072 C1073 1.443 . S
C1072 C1099 1.389 . S
C1073 C1072 1.443 . S
C1073 C1074 1.340 . S
C1073 H1105 0.951 . S
C1074 C1073 1.340 . S
C1074 C1075 1.439 . S
C1074 H1106 0.950 . S
C1075 N1071 1.374 . S
C1075 C1074 1.439 . S
C1075 C1100 1.395 . S
N1076 Co1065 1.995 . S
N1076 C1077 1.376 . S
N1076 C1080 1.383 1_556 S
C1077 N1076 1.376 . S
C1077 C1078 1.446 1_556 S
C1077 C1100 1.391 . S
C1078 C1077 1.446 1_554 S
C1078 C1079 1.339 . S
C1078 H1107 0.949 . S
C1079 C1078 1.339 . S
C1079 C1080 1.439 . S
C1079 H1108 0.950 . S
C1080 N1076 1.383 1_554 S
C1080 C1079 1.439 . S
C1080 C1098 1.392 . S
N1081 Co1065 2.282 . S
N1081 C1084 1.332 . S
N1081 C1086 1.332 . S
C1082 C1083 1.386 . S
C1082 C1085 1.388 . S
C1083 C1082 1.386 . S
C1083 C1084 1.382 . S
C1083 H1109 0.950 . S
C1084 N1081 1.332 . S
C1084 C1083 1.382 . S
C1084 H1095 0.952 . S
C1085 C1082 1.388 . S
C1085 C1086 1.382 . S
C1085 H1110 0.950 . S
C1086 N1081 1.332 . S
C1086 C1085 1.382 . S
C1086 H1096 0.948 . S
N1087 Co1065 2.282 . S
N1087 C1091 1.332 . S
N1087 C1092 1.332 . S
C1088 C1089 1.388 . S
C1088 C1092 1.382 . S
C1088 H1111 0.950 . S
C1089 C1088 1.388 . S
C1089 C1090 1.386 . S
C1090 C1089 1.386 . S
C1090 C1091 1.382 . S
C1090 H1112 0.950 . S
C1091 N1087 1.332 . S
C1091 C1090 1.382 . S
C1091 H1093 0.952 . S
C1092 N1087 1.332 . S
C1092 C1088 1.382 . S
C1092 H1094 0.948 . S
H1093 C1091 0.952 . S
H1094 C1092 0.948 . S
H1095 C1084 0.952 . S
H1096 C1086 0.948 . S
C1097 C1063 1.395 . S
C1097 C1067 1.391 . S
C1098 C1060 1.389 . S
C1098 C1080 1.392 . S
C1099 C1070 1.392 . S
C1099 C1072 1.389 . S
C1100 C1075 1.395 . S
C1100 C1077 1.391 . S
H1101 C1061 0.951 . S
H1102 C1062 0.950 . S
H1103 C1068 0.949 . S
H1104 C1069 0.950 . S
H1105 C1073 0.951 . S
H1106 C1074 0.950 . S
H1107 C1078 0.949 . S
H1108 C1079 0.950 . S
H1109 C1083 0.950 . S
H1110 C1085 0.950 . S
H1111 C1088 0.950 . S
H1112 C1090 0.950 . S
C1113 C1114 1.443 . S
C1113 N1117 1.376 . S
C1113 C1151 1.389 . S
C1114 C1113 1.443 . S
C1114 C1115 1.340 . S
C1114 H1154 0.951 . S
C1115 C1114 1.340 . S
C1115 C1116 1.439 . S
C1115 H1155 0.950 . S
C1116 C1115 1.439 . S
C1116 N1117 1.374 . S
C1116 C1150 1.395 . S
N1117 C1113 1.376 . S
N1117 C1116 1.374 . S
N1117 Co1118 2.008 . S
Co1118 N1117 2.008 . S
Co1118 N1119 1.995 . S
Co1118 N1124 2.008 . S
Co1118 N1129 1.995 . S
Co1118 N1134 2.282 . S
Co1118 N1140 2.282 . S
N1119 Co1118 1.995 . S
N1119 C1120 1.376 . S
N1119 C1123 1.383 . S
C1120 N1119 1.376 . S
C1120 C1121 1.446 . S
C1120 C1150 1.391 . S
C1121 C1120 1.446 . S
C1121 C1122 1.339 . S
C1121 H1156 0.949 . S
C1122 C1121 1.339 . S
C1122 C1123 1.439 . S
C1122 H1157 0.950 . S
C1123 N1119 1.383 . S
C1123 C1122 1.439 . S
C1123 C1152 1.392 . S
N1124 Co1118 2.008 . S
N1124 C1125 1.376 . S
N1124 C1128 1.374 . S
C1125 N1124 1.376 . S
C1125 C1126 1.443 . S
C1125 C1152 1.389 . S
C1126 C1125 1.443 . S
C1126 C1127 1.340 . S
C1126 H1158 0.951 . S
C1127 C1126 1.340 . S
C1127 C1128 1.439 . S
C1127 H1159 0.950 . S
C1128 N1124 1.374 . S
C1128 C1127 1.439 . S
C1128 C1153 1.395 . S
N1129 Co1118 1.995 . S
N1129 C1130 1.376 . S
N1129 C1133 1.383 . S
C1130 N1129 1.376 . S
C1130 C1131 1.446 . S
C1130 C1153 1.391 . S
C1131 C1130 1.446 . S
C1131 C1132 1.339 . S
C1131 H1160 0.949 . S
C1132 C1131 1.339 . S
C1132 C1133 1.439 . S
C1132 H1161 0.950 . S
C1133 N1129 1.383 . S
C1133 C1132 1.439 . S
C1133 C1151 1.392 . S
N1134 Co1118 2.282 . S
N1134 C1137 1.332 . S
N1134 C1139 1.332 . S
C1135 C1136 1.386 . S
C1135 C1138 1.388 . S
C1136 C1135 1.386 . S
C1136 C1137 1.382 . S
C1136 H1162 0.950 . S
C1137 N1134 1.332 . S
C1137 C1136 1.382 . S
C1137 H1148 0.952 . S
C1138 C1135 1.388 . S
C1138 C1139 1.382 . S
C1138 H1163 0.950 . S
C1139 N1134 1.332 . S
C1139 C1138 1.382 . S
C1139 H1149 0.948 . S
N1140 Co1118 2.282 . S
N1140 C1144 1.332 . S
N1140 C1145 1.332 . S
C1141 C1142 1.388 . S
C1141 C1145 1.382 . S
C1141 H1164 0.950 . S
C1142 C1141 1.388 . S
C1142 C1143 1.386 . S
C1143 C1142 1.386 . S
C1143 C1144 1.382 . S
C1143 H1165 0.950 . S
C1144 N1140 1.332 . S
C1144 C1143 1.382 . S
C1144 H1146 0.952 . S
C1145 N1140 1.332 . S
C1145 C1141 1.382 . S
C1145 H1147 0.948 . S
H1146 C1144 0.952 . S
H1147 C1145 0.948 . S
H1148 C1137 0.952 . S
H1149 C1139 0.948 . S
C1150 C1116 1.395 . S
C1150 C1120 1.391 . S
C1151 C1113 1.389 . S
C1151 C1133 1.392 . S
C1152 C1123 1.392 . S
C1152 C1125 1.389 . S
C1153 C1128 1.395 . S
C1153 C1130 1.391 . S
H1154 C1114 0.951 . S
H1155 C1115 0.950 . S
H1156 C1121 0.949 . S
H1157 C1122 0.950 . S
H1158 C1126 0.951 . S
H1159 C1127 0.950 . S
H1160 C1131 0.949 . S
H1161 C1132 0.950 . S
H1162 C1136 0.950 . S
H1163 C1138 0.950 . S
H1164 C1141 0.950 . S
H1165 C1143 0.950 . S
C1166 C1167 1.443 . S
C1166 N1170 1.376 . S
C1166 C1204 1.389 1_455 S
C1167 C1166 1.443 . S
C1167 C1168 1.340 . S
C1167 H1207 0.951 . S
C1168 C1167 1.340 . S
C1168 C1169 1.439 . S
C1168 H1208 0.950 . S
C1169 C1168 1.439 . S
C1169 N1170 1.374 . S
C1169 C1203 1.395 . S
N1170 C1166 1.376 . S
N1170 C1169 1.374 . S
N1170 Co1171 2.008 1_455 S
Co1171 N1170 2.008 1_655 S
Co1171 N1172 1.995 1_655 S
Co1171 N1177 2.008 . S
Co1171 N1182 1.995 . S
Co1171 N1187 2.282 . S
Co1171 N1193 2.318 . S
N1172 Co1171 1.995 1_455 S
N1172 C1173 1.376 . S
N1172 C1176 1.383 . S
C1173 N1172 1.376 . S
C1173 C1174 1.446 . S
C1173 C1203 1.391 . S
C1174 C1173 1.446 . S
C1174 C1175 1.339 . S
C1174 H1209 0.949 . S
C1175 C1174 1.339 . S
C1175 C1176 1.439 . S
C1175 H1210 0.950 . S
C1176 N1172 1.383 . S
C1176 C1175 1.439 . S
C1176 C1205 1.392 1_455 S
N1177 Co1171 2.008 . S
N1177 C1178 1.376 . S
N1177 C1181 1.374 . S
C1178 N1177 1.376 . S
C1178 C1179 1.443 . S
C1178 C1205 1.389 . S
C1179 C1178 1.443 . S
C1179 C1180 1.340 . S
C1179 H1211 0.951 . S
C1180 C1179 1.340 . S
C1180 C1181 1.439 . S
C1180 H1212 0.950 . S
C1181 N1177 1.374 . S
C1181 C1180 1.439 . S
C1181 C1206 1.395 . S
N1182 Co1171 1.995 . S
N1182 C1183 1.376 . S
N1182 C1186 1.383 . S
C1183 N1182 1.376 . S
C1183 C1184 1.446 . S
C1183 C1206 1.391 . S
C1184 C1183 1.446 . S
C1184 C1185 1.339 . S
C1184 H1213 0.949 . S
C1185 C1184 1.339 . S
C1185 C1186 1.439 . S
C1185 H1214 0.950 . S
C1186 N1182 1.383 . S
C1186 C1185 1.439 . S
C1186 C1204 1.392 . S
N1187 Co1171 2.282 . S
N1187 C1190 1.332 . S
N1187 C1192 1.332 . S
C1188 C1189 1.386 . S
C1188 C1191 1.388 . S
C1189 C1188 1.386 . S
C1189 C1190 1.382 . S
C1189 H1215 0.950 . S
C1190 N1187 1.332 . S
C1190 C1189 1.382 . S
C1190 H1201 0.952 . S
C1191 C1188 1.388 . S
C1191 C1192 1.382 . S
C1191 H1216 0.950 . S
C1192 N1187 1.332 . S
C1192 C1191 1.382 . S
C1192 H1202 0.948 . S
N1193 Co1171 2.318 . S
N1193 C1197 1.243 1_655 S
N1193 C1198 1.383 . S
C1194 C1195 1.388 1_655 S
C1194 C1198 1.382 . S
C1194 H1217 0.950 . S
C1195 C1194 1.388 1_455 S
C1195 C1196 1.386 . S
C1196 C1195 1.386 . S
C1196 C1197 1.382 . S
C1196 H1218 0.950 . S
C1197 N1193 1.243 1_455 S
C1197 C1196 1.382 . S
C1197 H1199 0.952 . S
C1198 N1193 1.383 . S
C1198 C1194 1.382 . S
C1198 H1200 0.948 . S
H1199 C1197 0.952 . S
H1200 C1198 0.948 . S
H1201 C1190 0.952 . S
H1202 C1192 0.948 . S
C1203 C1169 1.395 . S
C1203 C1173 1.391 . S
C1204 C1166 1.389 1_655 S
C1204 C1186 1.392 . S
C1205 C1176 1.392 1_655 S
C1205 C1178 1.389 . S
C1206 C1181 1.395 . S
C1206 C1183 1.391 . S
H1207 C1167 0.951 . S
H1208 C1168 0.950 . S
H1209 C1174 0.949 . S
H1210 C1175 0.950 . S
H1211 C1179 0.951 . S
H1212 C1180 0.950 . S
H1213 C1184 0.949 . S
H1214 C1185 0.950 . S
H1215 C1189 0.950 . S
H1216 C1191 0.950 . S
H1217 C1194 0.950 . S
H1218 C1196 0.950 . S
C1219 C1220 1.443 . S
C1219 N1223 1.376 . S
C1219 C1257 1.389 . S
C1220 C1219 1.443 . S
C1220 C1221 1.340 . S
C1220 H1260 0.951 . S
C1221 C1220 1.340 . S
C1221 C1222 1.439 . S
C1221 H1261 0.950 . S
C1222 C1221 1.439 . S
C1222 N1223 1.374 . S
C1222 C1256 1.395 . S
N1223 C1219 1.376 . S
N1223 C1222 1.374 . S
N1223 Co1224 2.008 . S
Co1224 N1223 2.008 . S
Co1224 N1225 1.995 . S
Co1224 N1230 2.008 . S
Co1224 N1235 1.995 . S
Co1224 N1240 2.282 . S
Co1224 N1246 2.282 . S
N1225 Co1224 1.995 . S
N1225 C1226 1.376 . S
N1225 C1229 1.383 . S
C1226 N1225 1.376 . S
C1226 C1227 1.446 . S
C1226 C1256 1.391 . S
C1227 C1226 1.446 . S
C1227 C1228 1.339 . S
C1227 H1262 0.949 . S
C1228 C1227 1.339 . S
C1228 C1229 1.439 . S
C1228 H1263 0.950 . S
C1229 N1225 1.383 . S
C1229 C1228 1.439 . S
C1229 C1258 1.392 . S
N1230 Co1224 2.008 . S
N1230 C1231 1.376 . S
N1230 C1234 1.374 . S
C1231 N1230 1.376 . S
C1231 C1232 1.443 . S
C1231 C1258 1.389 . S
C1232 C1231 1.443 . S
C1232 C1233 1.340 . S
C1232 H1264 0.951 . S
C1233 C1232 1.340 . S
C1233 C1234 1.439 . S
C1233 H1265 0.950 . S
C1234 N1230 1.374 . S
C1234 C1233 1.439 . S
C1234 C1259 1.395 . S
N1235 Co1224 1.995 . S
N1235 C1236 1.376 . S
N1235 C1239 1.383 . S
C1236 N1235 1.376 . S
C1236 C1237 1.446 . S
C1236 C1259 1.391 . S
C1237 C1236 1.446 . S
C1237 C1238 1.339 . S
C1237 H1266 0.949 . S
C1238 C1237 1.339 . S
C1238 C1239 1.439 . S
C1238 H1267 0.950 . S
C1239 N1235 1.383 . S
C1239 C1238 1.439 . S
C1239 C1257 1.392 . S
N1240 Co1224 2.282 . S
N1240 C1243 1.332 . S
N1240 C1245 1.332 . S
C1241 C1242 1.386 . S
C1241 C1244 1.388 . S
C1242 C1241 1.386 . S
C1242 C1243 1.382 . S
C1242 H1268 0.950 . S
C1243 N1240 1.332 . S
C1243 C1242 1.382 . S
C1243 H1254 0.952 . S
C1244 C1241 1.388 . S
C1244 C1245 1.382 . S
C1244 H1269 0.950 . S
C1245 N1240 1.332 . S
C1245 C1244 1.382 . S
C1245 H1255 0.948 . S
N1246 Co1224 2.282 . S
N1246 C1250 1.332 . S
N1246 C1251 1.332 . S
C1247 C1248 1.388 . S
C1247 C1251 1.382 . S
C1247 H1270 0.950 . S
C1248 C1247 1.388 . S
C1248 C1249 1.386 . S
C1249 C1248 1.386 . S
C1249 C1250 1.382 . S
C1249 H1271 0.950 . S
C1250 N1246 1.332 . S
C1250 C1249 1.382 . S
C1250 H1252 0.952 . S
C1251 N1246 1.332 . S
C1251 C1247 1.382 . S
C1251 H1253 0.948 . S
H1252 C1250 0.952 . S
H1253 C1251 0.948 . S
H1254 C1243 0.952 . S
H1255 C1245 0.948 . S
C1256 C1222 1.395 . S
C1256 C1226 1.391 . S
C1257 C1219 1.389 . S
C1257 C1239 1.392 . S
C1258 C1229 1.392 . S
C1258 C1231 1.389 . S
C1259 C1234 1.395 . S
C1259 C1236 1.391 . S
H1260 C1220 0.951 . S
H1261 C1221 0.950 . S
H1262 C1227 0.949 . S
H1263 C1228 0.950 . S
H1264 C1232 0.951 . S
H1265 C1233 0.950 . S
H1266 C1237 0.949 . S
H1267 C1238 0.950 . S
H1268 C1242 0.950 . S
H1269 C1244 0.950 . S
H1270 C1247 0.950 . S
H1271 C1249 0.950 . S
C1272 C1273 1.443 . S
C1272 N1276 1.376 . S
C1272 C1310 1.389 . S
C1273 C1272 1.443 . S
C1273 C1274 1.340 . S
C1273 H1313 0.951 . S
C1274 C1273 1.340 . S
C1274 C1275 1.439 . S
C1274 H1314 0.950 . S
C1275 C1274 1.439 . S
C1275 N1276 1.374 . S
C1275 C1309 1.395 . S
N1276 C1272 1.376 . S
N1276 C1275 1.374 . S
N1276 Co1277 2.008 . S
Co1277 N1276 2.008 . S
Co1277 N1278 1.995 . S
Co1277 N1283 2.008 . S
Co1277 N1288 1.995 . S
Co1277 N1293 2.282 . S
Co1277 N1299 2.282 . S
N1278 Co1277 1.995 . S
N1278 C1279 1.376 . S
N1278 C1282 1.383 . S
C1279 N1278 1.376 . S
C1279 C1280 1.446 . S
C1279 C1309 1.391 . S
C1280 C1279 1.446 . S
C1280 C1281 1.339 . S
C1280 H1315 0.949 . S
C1281 C1280 1.339 . S
C1281 C1282 1.439 . S
C1281 H1316 0.950 . S
C1282 N1278 1.383 . S
C1282 C1281 1.439 . S
C1282 C1311 1.392 . S
N1283 Co1277 2.008 . S
N1283 C1284 1.376 . S
N1283 C1287 1.374 . S
C1284 N1283 1.376 . S
C1284 C1285 1.443 . S
C1284 C1311 1.389 . S
C1285 C1284 1.443 . S
C1285 C1286 1.340 . S
C1285 H1317 0.951 . S
C1286 C1285 1.340 . S
C1286 C1287 1.439 . S
C1286 H1318 0.950 . S
C1287 N1283 1.374 . S
C1287 C1286 1.439 . S
C1287 C1312 1.395 . S
N1288 Co1277 1.995 . S
N1288 C1289 1.376 . S
N1288 C1292 1.383 . S
C1289 N1288 1.376 . S
C1289 C1290 1.446 . S
C1289 C1312 1.391 . S
C1290 C1289 1.446 . S
C1290 C1291 1.339 . S
C1290 H1319 0.949 . S
C1291 C1290 1.339 . S
C1291 C1292 1.439 . S
C1291 H1320 0.950 . S
C1292 N1288 1.383 . S
C1292 C1291 1.439 . S
C1292 C1310 1.392 . S
N1293 Co1277 2.282 . S
N1293 C1296 1.332 . S
N1293 C1298 1.332 . S
C1294 C1295 1.386 . S
C1294 C1297 1.388 . S
C1295 C1294 1.386 . S
C1295 C1296 1.382 . S
C1295 H1321 0.950 . S
C1296 N1293 1.332 . S
C1296 C1295 1.382 . S
C1296 H1307 0.952 . S
C1297 C1294 1.388 . S
C1297 C1298 1.382 . S
C1297 H1322 0.950 . S
C1298 N1293 1.332 . S
C1298 C1297 1.382 . S
C1298 H1308 0.948 . S
N1299 Co1277 2.282 . S
N1299 C1303 1.332 . S
N1299 C1304 1.332 . S
C1300 C1301 1.388 . S
C1300 C1304 1.382 . S
C1300 H1323 0.950 . S
C1301 C1300 1.388 . S
C1301 C1302 1.386 . S
C1302 C1301 1.386 . S
C1302 C1303 1.382 . S
C1302 H1324 0.950 . S
C1303 N1299 1.332 . S
C1303 C1302 1.382 . S
C1303 H1305 0.952 . S
C1304 N1299 1.332 . S
C1304 C1300 1.382 . S
C1304 H1306 0.948 . S
H1305 C1303 0.952 . S
H1306 C1304 0.948 . S
H1307 C1296 0.952 . S
H1308 C1298 0.948 . S
C1309 C1275 1.395 . S
C1309 C1279 1.391 . S
C1310 C1272 1.389 . S
C1310 C1292 1.392 . S
C1311 C1282 1.392 . S
C1311 C1284 1.389 . S
C1312 C1287 1.395 . S
C1312 C1289 1.391 . S
H1313 C1273 0.951 . S
H1314 C1274 0.950 . S
H1315 C1280 0.949 . S
H1316 C1281 0.950 . S
H1317 C1285 0.951 . S
H1318 C1286 0.950 . S
H1319 C1290 0.949 . S
H1320 C1291 0.950 . S
H1321 C1295 0.950 . S
H1322 C1297 0.950 . S
H1323 C1300 0.950 . S
H1324 C1302 0.950 . S
C1325 C1326 1.443 . S
C1325 N1329 1.376 . S
C1325 C1363 1.389 . S
C1326 C1325 1.443 . S
C1326 C1327 1.340 . S
C1326 H1366 0.951 . S
C1327 C1326 1.340 . S
C1327 C1328 1.439 . S
C1327 H1367 0.950 . S
C1328 C1327 1.439 . S
C1328 N1329 1.374 . S
C1328 C1362 1.395 . S
N1329 C1325 1.376 . S
N1329 C1328 1.374 . S
N1329 Co1330 2.008 . S
Co1330 N1329 2.008 . S
Co1330 N1331 1.995 . S
Co1330 N1336 2.008 . S
Co1330 N1341 1.995 . S
Co1330 N1346 2.282 . S
Co1330 N1352 2.282 . S
N1331 Co1330 1.995 . S
N1331 C1332 1.376 . S
N1331 C1335 1.383 . S
C1332 N1331 1.376 . S
C1332 C1333 1.446 . S
C1332 C1362 1.391 . S
C1333 C1332 1.446 . S
C1333 C1334 1.339 . S
C1333 H1368 0.949 . S
C1334 C1333 1.339 . S
C1334 C1335 1.439 . S
C1334 H1369 0.950 . S
C1335 N1331 1.383 . S
C1335 C1334 1.439 . S
C1335 C1364 1.392 . S
N1336 Co1330 2.008 . S
N1336 C1337 1.376 . S
N1336 C1340 1.374 . S
C1337 N1336 1.376 . S
C1337 C1338 1.443 . S
C1337 C1364 1.389 . S
C1338 C1337 1.443 . S
C1338 C1339 1.340 . S
C1338 H1370 0.951 . S
C1339 C1338 1.340 . S
C1339 C1340 1.439 . S
C1339 H1371 0.950 . S
C1340 N1336 1.374 . S
C1340 C1339 1.439 . S
C1340 C1365 1.395 . S
N1341 Co1330 1.995 . S
N1341 C1342 1.376 . S
N1341 C1345 1.383 . S
C1342 N1341 1.376 . S
C1342 C1343 1.446 . S
C1342 C1365 1.391 . S
C1343 C1342 1.446 . S
C1343 C1344 1.339 . S
C1343 H1372 0.949 . S
C1344 C1343 1.339 . S
C1344 C1345 1.439 . S
C1344 H1373 0.950 . S
C1345 N1341 1.383 . S
C1345 C1344 1.439 . S
C1345 C1363 1.392 . S
N1346 Co1330 2.282 . S
N1346 C1349 1.332 . S
N1346 C1351 1.332 . S
C1347 C1348 1.386 . S
C1347 C1350 1.388 . S
C1348 C1347 1.386 . S
C1348 C1349 1.382 . S
C1348 H1374 0.950 . S
C1349 N1346 1.332 . S
C1349 C1348 1.382 . S
C1349 H1360 0.952 . S
C1350 C1347 1.388 . S
C1350 C1351 1.382 . S
C1350 H1375 0.950 . S
C1351 N1346 1.332 . S
C1351 C1350 1.382 . S
C1351 H1361 0.948 . S
N1352 Co1330 2.282 . S
N1352 C1356 1.332 . S
N1352 C1357 1.332 . S
C1353 C1354 1.388 . S
C1353 C1357 1.382 . S
C1353 H1376 0.950 . S
C1354 C1353 1.388 . S
C1354 C1355 1.386 . S
C1355 C1354 1.386 . S
C1355 C1356 1.382 . S
C1355 H1377 0.950 . S
C1356 N1352 1.332 . S
C1356 C1355 1.382 . S
C1356 H1358 0.952 . S
C1357 N1352 1.332 . S
C1357 C1353 1.382 . S
C1357 H1359 0.948 . S
H1358 C1356 0.952 . S
H1359 C1357 0.948 . S
H1360 C1349 0.952 . S
H1361 C1351 0.948 . S
C1362 C1328 1.395 . S
C1362 C1332 1.391 . S
C1363 C1325 1.389 . S
C1363 C1345 1.392 . S
C1364 C1335 1.392 . S
C1364 C1337 1.389 . S
C1365 C1340 1.395 . S
C1365 C1342 1.391 . S
H1366 C1326 0.951 . S
H1367 C1327 0.950 . S
H1368 C1333 0.949 . S
H1369 C1334 0.950 . S
H1370 C1338 0.951 . S
H1371 C1339 0.950 . S
H1372 C1343 0.949 . S
H1373 C1344 0.950 . S
H1374 C1348 0.950 . S
H1375 C1350 0.950 . S
H1376 C1353 0.950 . S
H1377 C1355 0.950 . S
C1378 C1379 1.443 . S
C1378 N1382 1.376 1_554 S
C1378 C1416 1.389 . S
C1379 C1378 1.443 . S
C1379 C1380 1.340 . S
C1379 H1419 0.951 . S
C1380 C1379 1.340 . S
C1380 C1381 1.439 1_554 S
C1380 H1420 0.950 . S
C1381 C1380 1.439 1_556 S
C1381 N1382 1.374 . S
C1381 C1415 1.395 . S
N1382 C1378 1.376 1_556 S
N1382 C1381 1.374 . S
N1382 Co1383 2.008 . S
Co1383 N1382 2.008 . S
Co1383 N1384 1.995 . S
Co1383 N1389 2.008 1_455 S
Co1383 N1394 1.995 1_455 S
Co1383 N1399 2.282 . S
Co1383 N1405 2.250 1_455 S
N1384 Co1383 1.995 . S
N1384 C1385 1.376 . S
N1384 C1388 1.383 . S
C1385 N1384 1.376 . S
C1385 C1386 1.446 . S
C1385 C1415 1.391 . S
C1386 C1385 1.446 . S
C1386 C1387 1.339 . S
C1386 H1421 0.949 . S
C1387 C1386 1.339 . S
C1387 C1388 1.439 . S
C1387 H1422 0.950 . S
C1388 N1384 1.383 . S
C1388 C1387 1.439 . S
C1388 C1417 1.392 . S
N1389 Co1383 2.008 1_655 S
N1389 C1390 1.394 . S
N1389 C1393 1.374 . S
C1390 N1389 1.394 . S
C1390 C1391 1.509 . S
C1390 C1417 1.320 1_655 S
C1391 C1390 1.509 . S
C1391 C1392 1.340 . S
C1391 H1423 0.951 . S
C1392 C1391 1.340 . S
C1392 C1393 1.439 . S
C1392 H1424 0.950 . S
C1393 N1389 1.374 . S
C1393 C1392 1.439 . S
C1393 C1418 1.395 . S
N1394 Co1383 1.995 1_655 S
N1394 C1395 1.376 . S
N1394 C1398 1.383 1_556 S
C1395 N1394 1.376 . S
C1395 C1396 1.446 1_556 S
C1395 C1418 1.391 . S
C1396 C1395 1.446 1_554 S
C1396 C1397 1.339 . S
C1396 H1425 0.949 . S
C1397 C1396 1.339 . S
C1397 C1398 1.439 . S
C1397 H1426 0.950 . S
C1398 N1394 1.383 1_554 S
C1398 C1397 1.439 . S
C1398 C1416 1.392 1_655 S
N1399 Co1383 2.282 . S
N1399 C1402 1.332 . S
N1399 C1404 1.332 . S
C1400 C1401 1.386 . S
C1400 C1403 1.388 . S
C1401 C1400 1.386 . S
C1401 C1402 1.382 . S
C1401 H1427 0.950 . S
C1402 N1399 1.332 . S
C1402 C1401 1.382 . S
C1402 H1413 0.952 . S
C1403 C1400 1.388 . S
C1403 C1404 1.382 . S
C1403 H1428 0.950 . S
C1404 N1399 1.332 . S
C1404 C1403 1.382 . S
C1404 H1414 0.948 . S
N1405 Co1383 2.250 1_655 S
N1405 C1409 1.295 1_655 S
N1405 C1410 1.399 . S
C1406 C1407 1.388 . S
C1406 C1410 1.382 . S
C1406 H1429 0.950 . S
C1407 C1406 1.388 . S
C1407 C1408 1.386 1_655 S
C1408 C1407 1.386 1_455 S
C1408 C1409 1.382 . S
C1408 H1430 0.950 . S
C1409 N1405 1.295 1_455 S
C1409 C1408 1.382 . S
C1409 H1411 0.952 . S
C1410 N1405 1.399 . S
C1410 C1406 1.382 . S
C1410 H1412 0.948 . S
H1411 C1409 0.952 . S
H1412 C1410 0.948 . S
H1413 C1402 0.952 . S
H1414 C1404 0.948 . S
C1415 C1381 1.395 . S
C1415 C1385 1.391 . S
C1416 C1378 1.389 . S
C1416 C1398 1.392 1_455 S
C1417 C1388 1.392 . S
C1417 C1390 1.320 1_455 S
C1418 C1393 1.395 . S
C1418 C1395 1.391 . S
H1419 C1379 0.951 . S
H1420 C1380 0.950 . S
H1421 C1386 0.949 . S
H1422 C1387 0.950 . S
H1423 C1391 0.951 . S
H1424 C1392 0.950 . S
H1425 C1396 0.949 . S
H1426 C1397 0.950 . S
H1427 C1401 0.950 . S
H1428 C1403 0.950 . S
H1429 C1406 0.950 . S
H1430 C1408 0.950 . S
C1431 C1432 1.443 . S
C1431 N1435 1.376 . S
C1431 C1469 1.389 . S
C1432 C1431 1.443 . S
C1432 C1433 1.340 . S
C1432 H1472 0.951 . S
C1433 C1432 1.340 . S
C1433 C1434 1.439 . S
C1433 H1473 0.950 . S
C1434 C1433 1.439 . S
C1434 N1435 1.374 . S
C1434 C1468 1.395 . S
N1435 C1431 1.376 . S
N1435 C1434 1.374 . S
N1435 Co1436 2.008 . S
Co1436 N1435 2.008 . S
Co1436 N1437 1.995 . S
Co1436 N1442 2.008 . S
Co1436 N1447 1.995 . S
Co1436 N1452 2.282 . S
Co1436 N1458 2.282 . S
N1437 Co1436 1.995 . S
N1437 C1438 1.376 . S
N1437 C1441 1.383 . S
C1438 N1437 1.376 . S
C1438 C1439 1.446 . S
C1438 C1468 1.391 . S
C1439 C1438 1.446 . S
C1439 C1440 1.339 . S
C1439 H1474 0.949 . S
C1440 C1439 1.339 . S
C1440 C1441 1.439 . S
C1440 H1475 0.950 . S
C1441 N1437 1.383 . S
C1441 C1440 1.439 . S
C1441 C1470 1.392 . S
N1442 Co1436 2.008 . S
N1442 C1443 1.376 . S
N1442 C1446 1.374 . S
C1443 N1442 1.376 . S
C1443 C1444 1.443 . S
C1443 C1470 1.389 . S
C1444 C1443 1.443 . S
C1444 C1445 1.340 . S
C1444 H1476 0.951 . S
C1445 C1444 1.340 . S
C1445 C1446 1.439 . S
C1445 H1477 0.950 . S
C1446 N1442 1.374 . S
C1446 C1445 1.439 . S
C1446 C1471 1.395 . S
N1447 Co1436 1.995 . S
N1447 C1448 1.376 . S
N1447 C1451 1.383 . S
C1448 N1447 1.376 . S
C1448 C1449 1.446 . S
C1448 C1471 1.391 . S
C1449 C1448 1.446 . S
C1449 C1450 1.339 . S
C1449 H1478 0.949 . S
C1450 C1449 1.339 . S
C1450 C1451 1.439 . S
C1450 H1479 0.950 . S
C1451 N1447 1.383 . S
C1451 C1450 1.439 . S
C1451 C1469 1.392 . S
N1452 Co1436 2.282 . S
N1452 C1455 1.332 . S
N1452 C1457 1.332 . S
C1453 C1454 1.386 . S
C1453 C1456 1.388 . S
C1454 C1453 1.386 . S
C1454 C1455 1.382 . S
C1454 H1480 0.950 . S
C1455 N1452 1.332 . S
C1455 C1454 1.382 . S
C1455 H1466 0.952 . S
C1456 C1453 1.388 . S
C1456 C1457 1.382 . S
C1456 H1481 0.950 . S
C1457 N1452 1.332 . S
C1457 C1456 1.382 . S
C1457 H1467 0.948 . S
N1458 Co1436 2.282 . S
N1458 C1462 1.332 . S
N1458 C1463 1.332 . S
C1459 C1460 1.388 . S
C1459 C1463 1.382 . S
C1459 H1482 0.950 . S
C1460 C1459 1.388 . S
C1460 C1461 1.386 . S
C1461 C1460 1.386 . S
C1461 C1462 1.382 . S
C1461 H1483 0.950 . S
C1462 N1458 1.332 . S
C1462 C1461 1.382 . S
C1462 H1464 0.952 . S
C1463 N1458 1.332 . S
C1463 C1459 1.382 . S
C1463 H1465 0.948 . S
H1464 C1462 0.952 . S
H1465 C1463 0.948 . S
H1466 C1455 0.952 . S
H1467 C1457 0.948 . S
C1468 C1434 1.395 . S
C1468 C1438 1.391 . S
C1469 C1431 1.389 . S
C1469 C1451 1.392 . S
C1470 C1441 1.392 . S
C1470 C1443 1.389 . S
C1471 C1446 1.395 . S
C1471 C1448 1.391 . S
H1472 C1432 0.951 . S
H1473 C1433 0.950 . S
H1474 C1439 0.949 . S
H1475 C1440 0.950 . S
H1476 C1444 0.951 . S
H1477 C1445 0.950 . S
H1478 C1449 0.949 . S
H1479 C1450 0.950 . S
H1480 C1454 0.950 . S
H1481 C1456 0.950 . S
H1482 C1459 0.950 . S
H1483 C1461 0.950 . S
C1484 C1485 1.443 . S
C1484 N1488 1.376 1_556 S
C1484 C1522 1.389 . S
C1485 C1484 1.443 . S
C1485 C1486 1.340 . S
C1485 H1525 0.951 . S
C1486 C1485 1.340 . S
C1486 C1487 1.439 1_556 S
C1486 H1526 0.950 . S
C1487 C1486 1.439 1_554 S
C1487 N1488 1.374 . S
C1487 C1521 1.395 . S
N1488 C1484 1.376 1_554 S
N1488 C1487 1.374 . S
N1488 Co1489 2.008 . S
Co1489 N1488 2.008 . S
Co1489 N1490 1.995 . S
Co1489 N1495 2.008 . S
Co1489 N1500 1.995 . S
Co1489 N1505 2.282 . S
Co1489 N1511 2.282 . S
N1490 Co1489 1.995 . S
N1490 C1491 1.376 . S
N1490 C1494 1.383 . S
C1491 N1490 1.376 . S
C1491 C1492 1.446 . S
C1491 C1521 1.391 . S
C1492 C1491 1.446 . S
C1492 C1493 1.339 . S
C1492 H1527 0.949 . S
C1493 C1492 1.339 . S
C1493 C1494 1.439 . S
C1493 H1528 0.950 . S
C1494 N1490 1.383 . S
C1494 C1493 1.439 . S
C1494 C1523 1.392 . S
N1495 Co1489 2.008 . S
N1495 C1496 1.376 . S
N1495 C1499 1.374 . S
C1496 N1495 1.376 . S
C1496 C1497 1.443 . S
C1496 C1523 1.389 . S
C1497 C1496 1.443 . S
C1497 C1498 1.340 . S
C1497 H1529 0.951 . S
C1498 C1497 1.340 . S
C1498 C1499 1.439 . S
C1498 H1530 0.950 . S
C1499 N1495 1.374 . S
C1499 C1498 1.439 . S
C1499 C1524 1.395 . S
N1500 Co1489 1.995 . S
N1500 C1501 1.376 . S
N1500 C1504 1.383 1_554 S
C1501 N1500 1.376 . S
C1501 C1502 1.446 1_554 S
C1501 C1524 1.391 . S
C1502 C1501 1.446 1_556 S
C1502 C1503 1.339 . S
C1502 H1531 0.949 . S
C1503 C1502 1.339 . S
C1503 C1504 1.439 . S
C1503 H1532 0.950 . S
C1504 N1500 1.383 1_556 S
C1504 C1503 1.439 . S
C1504 C1522 1.392 . S
N1505 Co1489 2.282 . S
N1505 C1508 1.332 . S
N1505 C1510 1.332 . S
C1506 C1507 1.386 . S
C1506 C1509 1.388 . S
C1507 C1506 1.386 . S
C1507 C1508 1.382 . S
C1507 H1533 0.950 . S
C1508 N1505 1.332 . S
C1508 C1507 1.382 . S
C1508 H1519 0.952 . S
C1509 C1506 1.388 . S
C1509 C1510 1.382 . S
C1509 H1534 0.950 . S
C1510 N1505 1.332 . S
C1510 C1509 1.382 . S
C1510 H1520 0.948 . S
N1511 Co1489 2.282 . S
N1511 C1515 1.332 . S
N1511 C1516 1.332 . S
C1512 C1513 1.388 . S
C1512 C1516 1.382 . S
C1512 H1535 0.950 . S
C1513 C1512 1.388 . S
C1513 C1514 1.386 . S
C1514 C1513 1.386 . S
C1514 C1515 1.382 . S
C1514 H1536 0.950 . S
C1515 N1511 1.332 . S
C1515 C1514 1.382 . S
C1515 H1517 0.952 . S
C1516 N1511 1.332 . S
C1516 C1512 1.382 . S
C1516 H1518 0.948 . S
H1517 C1515 0.952 . S
H1518 C1516 0.948 . S
H1519 C1508 0.952 . S
H1520 C1510 0.948 . S
C1521 C1487 1.395 . S
C1521 C1491 1.391 . S
C1522 C1484 1.389 . S
C1522 C1504 1.392 . S
C1523 C1494 1.392 . S
C1523 C1496 1.389 . S
C1524 C1499 1.395 . S
C1524 C1501 1.391 . S
H1525 C1485 0.951 . S
H1526 C1486 0.950 . S
H1527 C1492 0.949 . S
H1528 C1493 0.950 . S
H1529 C1497 0.951 . S
H1530 C1498 0.950 . S
H1531 C1502 0.949 . S
H1532 C1503 0.950 . S
H1533 C1507 0.950 . S
H1534 C1509 0.950 . S
H1535 C1512 0.950 . S
H1536 C1514 0.950 . S
C1537 C1538 1.443 . S
C1537 N1541 1.376 . S
C1537 C1575 1.389 . S
C1538 C1537 1.443 . S
C1538 C1539 1.340 . S
C1538 H1578 0.951 . S
C1539 C1538 1.340 . S
C1539 C1540 1.439 . S
C1539 H1579 0.950 . S
C1540 C1539 1.439 . S
C1540 N1541 1.374 . S
C1540 C1574 1.395 . S
N1541 C1537 1.376 . S
N1541 C1540 1.374 . S
N1541 Co1542 2.008 . S
Co1542 N1541 2.008 . S
Co1542 N1543 1.995 . S
Co1542 N1548 2.008 . S
Co1542 N1553 1.995 . S
Co1542 N1558 2.282 . S
Co1542 N1564 2.282 . S
N1543 Co1542 1.995 . S
N1543 C1544 1.376 . S
N1543 C1547 1.383 . S
C1544 N1543 1.376 . S
C1544 C1545 1.446 . S
C1544 C1574 1.391 . S
C1545 C1544 1.446 . S
C1545 C1546 1.339 . S
C1545 H1580 0.949 . S
C1546 C1545 1.339 . S
C1546 C1547 1.439 . S
C1546 H1581 0.950 . S
C1547 N1543 1.383 . S
C1547 C1546 1.439 . S
C1547 C1576 1.392 . S
N1548 Co1542 2.008 . S
N1548 C1549 1.376 . S
N1548 C1552 1.374 . S
C1549 N1548 1.376 . S
C1549 C1550 1.443 . S
C1549 C1576 1.389 . S
C1550 C1549 1.443 . S
C1550 C1551 1.340 . S
C1550 H1582 0.951 . S
C1551 C1550 1.340 . S
C1551 C1552 1.439 . S
C1551 H1583 0.950 . S
C1552 N1548 1.374 . S
C1552 C1551 1.439 . S
C1552 C1577 1.395 . S
N1553 Co1542 1.995 . S
N1553 C1554 1.376 . S
N1553 C1557 1.383 . S
C1554 N1553 1.376 . S
C1554 C1555 1.446 . S
C1554 C1577 1.391 . S
C1555 C1554 1.446 . S
C1555 C1556 1.339 . S
C1555 H1584 0.949 . S
C1556 C1555 1.339 . S
C1556 C1557 1.439 . S
C1556 H1585 0.950 . S
C1557 N1553 1.383 . S
C1557 C1556 1.439 . S
C1557 C1575 1.392 . S
N1558 Co1542 2.282 . S
N1558 C1561 1.332 . S
N1558 C1563 1.332 . S
C1559 C1560 1.386 . S
C1559 C1562 1.388 . S
C1560 C1559 1.386 . S
C1560 C1561 1.382 . S
C1560 H1586 0.950 . S
C1561 N1558 1.332 . S
C1561 C1560 1.382 . S
C1561 H1572 0.952 . S
C1562 C1559 1.388 . S
C1562 C1563 1.382 . S
C1562 H1587 0.950 . S
C1563 N1558 1.332 . S
C1563 C1562 1.382 . S
C1563 H1573 0.948 . S
N1564 Co1542 2.282 . S
N1564 C1568 1.332 . S
N1564 C1569 1.332 . S
C1565 C1566 1.388 . S
C1565 C1569 1.382 . S
C1565 H1588 0.950 . S
C1566 C1565 1.388 . S
C1566 C1567 1.386 . S
C1567 C1566 1.386 . S
C1567 C1568 1.382 . S
C1567 H1589 0.950 . S
C1568 N1564 1.332 . S
C1568 C1567 1.382 . S
C1568 H1570 0.952 . S
C1569 N1564 1.332 . S
C1569 C1565 1.382 . S
C1569 H1571 0.948 . S
H1570 C1568 0.952 . S
H1571 C1569 0.948 . S
H1572 C1561 0.952 . S
H1573 C1563 0.948 . S
C1574 C1540 1.395 . S
C1574 C1544 1.391 . S
C1575 C1537 1.389 . S
C1575 C1557 1.392 . S
C1576 C1547 1.392 . S
C1576 C1549 1.389 . S
C1577 C1552 1.395 . S
C1577 C1554 1.391 . S
H1578 C1538 0.951 . S
H1579 C1539 0.950 . S
H1580 C1545 0.949 . S
H1581 C1546 0.950 . S
H1582 C1550 0.951 . S
H1583 C1551 0.950 . S
H1584 C1555 0.949 . S
H1585 C1556 0.950 . S
H1586 C1560 0.950 . S
H1587 C1562 0.950 . S
H1588 C1565 0.950 . S
H1589 C1567 0.950 . S
C1590 C1591 1.443 . S
C1590 N1594 1.376 . S
C1590 C1628 1.389 . S
C1591 C1590 1.443 . S
C1591 C1592 1.340 . S
C1591 H1631 0.951 . S
C1592 C1591 1.340 . S
C1592 C1593 1.439 . S
C1592 H1632 0.950 . S
C1593 C1592 1.439 . S
C1593 N1594 1.374 . S
C1593 C1627 1.395 . S
N1594 C1590 1.376 . S
N1594 C1593 1.374 . S
N1594 Co1595 2.008 . S
Co1595 N1594 2.008 . S
Co1595 N1596 1.995 . S
Co1595 N1601 2.008 1_455 S
Co1595 N1606 1.995 1_455 S
Co1595 N1611 2.282 . S
Co1595 N1617 2.250 1_455 S
N1596 Co1595 1.995 . S
N1596 C1597 1.376 . S
N1596 C1600 1.383 . S
C1597 N1596 1.376 . S
C1597 C1598 1.446 . S
C1597 C1627 1.391 . S
C1598 C1597 1.446 . S
C1598 C1599 1.339 . S
C1598 H1633 0.949 . S
C1599 C1598 1.339 . S
C1599 C1600 1.439 . S
C1599 H1634 0.950 . S
C1600 N1596 1.383 . S
C1600 C1599 1.439 . S
C1600 C1629 1.392 . S
N1601 Co1595 2.008 1_655 S
N1601 C1602 1.394 . S
N1601 C1605 1.374 . S
C1602 N1601 1.394 . S
C1602 C1603 1.509 . S
C1602 C1629 1.320 1_655 S
C1603 C1602 1.509 . S
C1603 C1604 1.340 . S
C1603 H1635 0.951 . S
C1604 C1603 1.340 . S
C1604 C1605 1.439 . S
C1604 H1636 0.950 . S
C1605 N1601 1.374 . S
C1605 C1604 1.439 . S
C1605 C1630 1.395 . S
N1606 Co1595 1.995 1_655 S
N1606 C1607 1.376 . S
N1606 C1610 1.383 . S
C1607 N1606 1.376 . S
C1607 C1608 1.446 . S
C1607 C1630 1.391 . S
C1608 C1607 1.446 . S
C1608 C1609 1.339 . S
C1608 H1637 0.949 . S
C1609 C1608 1.339 . S
C1609 C1610 1.439 . S
C1609 H1638 0.950 . S
C1610 N1606 1.383 . S
C1610 C1609 1.439 . S
C1610 C1628 1.392 1_655 S
N1611 Co1595 2.282 . S
N1611 C1614 1.332 . S
N1611 C1616 1.332 . S
C1612 C1613 1.386 . S
C1612 C1615 1.388 . S
C1613 C1612 1.386 . S
C1613 C1614 1.382 . S
C1613 H1639 0.950 . S
C1614 N1611 1.332 . S
C1614 C1613 1.382 . S
C1614 H1625 0.952 . S
C1615 C1612 1.388 . S
C1615 C1616 1.382 . S
C1615 H1640 0.950 . S
C1616 N1611 1.332 . S
C1616 C1615 1.382 . S
C1616 H1626 0.948 . S
N1617 Co1595 2.250 1_655 S
N1617 C1621 1.295 1_655 S
N1617 C1622 1.399 . S
C1618 C1619 1.388 . S
C1618 C1622 1.382 . S
C1618 H1641 0.950 . S
C1619 C1618 1.388 . S
C1619 C1620 1.386 1_655 S
C1620 C1619 1.386 1_455 S
C1620 C1621 1.382 . S
C1620 H1642 0.950 . S
C1621 N1617 1.295 1_455 S
C1621 C1620 1.382 . S
C1621 H1623 0.952 . S
C1622 N1617 1.399 . S
C1622 C1618 1.382 . S
C1622 H1624 0.948 . S
H1623 C1621 0.952 . S
H1624 C1622 0.948 . S
H1625 C1614 0.952 . S
H1626 C1616 0.948 . S
C1627 C1593 1.395 . S
C1627 C1597 1.391 . S
C1628 C1590 1.389 . S
C1628 C1610 1.392 1_455 S
C1629 C1600 1.392 . S
C1629 C1602 1.320 1_455 S
C1630 C1605 1.395 . S
C1630 C1607 1.391 . S
H1631 C1591 0.951 . S
H1632 C1592 0.950 . S
H1633 C1598 0.949 . S
H1634 C1599 0.950 . S
H1635 C1603 0.951 . S
H1636 C1604 0.950 . S
H1637 C1608 0.949 . S
H1638 C1609 0.950 . S
H1639 C1613 0.950 . S
H1640 C1615 0.950 . S
H1641 C1618 0.950 . S
H1642 C1620 0.950 . S
C1643 C1644 1.443 . S
C1643 N1647 1.376 . S
C1643 C1681 1.389 . S
C1644 C1643 1.443 . S
C1644 C1645 1.340 . S
C1644 H1684 0.951 . S
C1645 C1644 1.340 . S
C1645 C1646 1.439 . S
C1645 H1685 0.950 . S
C1646 C1645 1.439 . S
C1646 N1647 1.374 . S
C1646 C1680 1.395 . S
N1647 C1643 1.376 . S
N1647 C1646 1.374 . S
N1647 Co1648 2.008 . S
Co1648 N1647 2.008 . S
Co1648 N1649 1.995 . S
Co1648 N1654 2.008 . S
Co1648 N1659 1.995 . S
Co1648 N1664 2.282 . S
Co1648 N1670 2.282 . S
N1649 Co1648 1.995 . S
N1649 C1650 1.376 . S
N1649 C1653 1.383 . S
C1650 N1649 1.376 . S
C1650 C1651 1.446 . S
C1650 C1680 1.391 . S
C1651 C1650 1.446 . S
C1651 C1652 1.339 . S
C1651 H1686 0.949 . S
C1652 C1651 1.339 . S
C1652 C1653 1.439 . S
C1652 H1687 0.950 . S
C1653 N1649 1.383 . S
C1653 C1652 1.439 . S
C1653 C1682 1.392 . S
N1654 Co1648 2.008 . S
N1654 C1655 1.376 . S
N1654 C1658 1.374 . S
C1655 N1654 1.376 . S
C1655 C1656 1.443 . S
C1655 C1682 1.389 . S
C1656 C1655 1.443 . S
C1656 C1657 1.340 . S
C1656 H1688 0.951 . S
C1657 C1656 1.340 . S
C1657 C1658 1.439 . S
C1657 H1689 0.950 . S
C1658 N1654 1.374 . S
C1658 C1657 1.439 . S
C1658 C1683 1.395 . S
N1659 Co1648 1.995 . S
N1659 C1660 1.376 . S
N1659 C1663 1.383 . S
C1660 N1659 1.376 . S
C1660 C1661 1.446 . S
C1660 C1683 1.391 . S
C1661 C1660 1.446 . S
C1661 C1662 1.339 . S
C1661 H1690 0.949 . S
C1662 C1661 1.339 . S
C1662 C1663 1.439 . S
C1662 H1691 0.950 . S
C1663 N1659 1.383 . S
C1663 C1662 1.439 . S
C1663 C1681 1.392 . S
N1664 Co1648 2.282 . S
N1664 C1667 1.332 . S
N1664 C1669 1.332 . S
C1665 C1666 1.386 . S
C1665 C1668 1.388 . S
C1666 C1665 1.386 . S
C1666 C1667 1.382 . S
C1666 H1692 0.950 . S
C1667 N1664 1.332 . S
C1667 C1666 1.382 . S
C1667 H1678 0.952 . S
C1668 C1665 1.388 . S
C1668 C1669 1.382 . S
C1668 H1693 0.950 . S
C1669 N1664 1.332 . S
C1669 C1668 1.382 . S
C1669 H1679 0.948 . S
N1670 Co1648 2.282 . S
N1670 C1674 1.332 . S
N1670 C1675 1.332 . S
C1671 C1672 1.388 . S
C1671 C1675 1.382 . S
C1671 H1694 0.950 . S
C1672 C1671 1.388 . S
C1672 C1673 1.386 . S
C1673 C1672 1.386 . S
C1673 C1674 1.382 . S
C1673 H1695 0.950 . S
C1674 N1670 1.332 . S
C1674 C1673 1.382 . S
C1674 H1676 0.952 . S
C1675 N1670 1.332 . S
C1675 C1671 1.382 . S
C1675 H1677 0.948 . S
H1676 C1674 0.952 . S
H1677 C1675 0.948 . S
H1678 C1667 0.952 . S
H1679 C1669 0.948 . S
C1680 C1646 1.395 . S
C1680 C1650 1.391 . S
C1681 C1643 1.389 . S
C1681 C1663 1.392 . S
C1682 C1653 1.392 . S
C1682 C1655 1.389 . S
C1683 C1658 1.395 . S
C1683 C1660 1.391 . S
H1684 C1644 0.951 . S
H1685 C1645 0.950 . S
H1686 C1651 0.949 . S
H1687 C1652 0.950 . S
H1688 C1656 0.951 . S
H1689 C1657 0.950 . S
H1690 C1661 0.949 . S
H1691 C1662 0.950 . S
H1692 C1666 0.950 . S
H1693 C1668 0.950 . S
H1694 C1671 0.950 . S
H1695 C1673 0.950 . S
H1696 C1702 0.930 . S
H1697 C1706 0.930 . S
H1698 C1711 0.914 1_455 S
H1699 C1709 0.953 . S
H1700 C1704 0.929 . S
H1701 C1710 0.929 . S
C1702 H1696 0.930 . S
C1702 C1703 1.367 . S
C1702 C1710 1.378 . S
C1703 C1702 1.367 . S
C1703 C1711 1.462 . S
C1704 H1700 0.929 . S
C1704 C1706 1.378 . S
C1704 C1708 1.350 . S
C1705 C1708 1.463 1_655 S
C1705 C1710 1.350 . S
C1705 N1713 1.427 1_655 S
C1706 H1697 0.930 . S
C1706 C1704 1.378 . S
C1706 C1707 1.367 . S
C1707 C1706 1.367 . S
C1707 C1709 1.397 1_455 S
C1708 C1704 1.350 . S
C1708 C1705 1.463 1_455 S
C1708 N1712 1.427 1_455 S
C1709 H1699 0.953 . S
C1709 C1707 1.397 1_655 S
C1709 N1712 1.400 . S
C1710 H1701 0.929 . S
C1710 C1702 1.378 . S
C1710 C1705 1.350 . S
C1711 H1698 0.914 1_655 S
C1711 C1703 1.462 . S
C1711 N1713 1.374 1_655 S
N1712 C1708 1.427 1_655 S
N1712 C1709 1.400 . S
N1713 C1705 1.427 1_455 S
N1713 C1711 1.374 1_455 S
H1714 C1720 0.930 . S
H1715 C1724 0.930 . S
H1716 C1729 0.929 . S
H1717 C1727 0.929 . S
H1718 C1722 0.929 . S
H1719 C1728 0.929 . S
C1720 H1714 0.930 . S
C1720 C1721 1.367 . S
C1720 C1728 1.378 1_556 S
C1721 C1720 1.367 . S
C1721 C1729 1.433 . S
C1722 H1718 0.929 . S
C1722 C1724 1.378 . S
C1722 C1726 1.350 . S
C1723 C1726 1.463 . S
C1723 C1728 1.350 . S
C1723 N1731 1.427 . S
C1724 H1715 0.930 . S
C1724 C1722 1.378 . S
C1724 C1725 1.367 . S
C1725 C1724 1.367 . S
C1725 C1727 1.433 . S
C1726 C1722 1.350 . S
C1726 C1723 1.463 . S
C1726 N1730 1.427 . S
C1727 H1717 0.929 . S
C1727 C1725 1.433 . S
C1727 N1730 1.384 . S
C1728 H1719 0.929 . S
C1728 C1720 1.378 1_554 S
C1728 C1723 1.350 . S
C1729 H1716 0.929 . S
C1729 C1721 1.433 . S
C1729 N1731 1.384 1_556 S
N1730 C1726 1.427 . S
N1730 C1727 1.384 . S
N1731 C1723 1.427 . S
N1731 C1729 1.384 1_554 S
H1732 C1738 0.930 . S
H1733 C1742 0.930 . S
H1734 C1747 0.929 . S
H1735 C1745 0.929 . S
H1736 C1740 0.929 . S
H1737 C1746 0.929 . S
C1738 H1732 0.930 . S
C1738 C1739 1.367 . S
C1738 C1746 1.378 . S
C1739 C1738 1.367 . S
C1739 C1747 1.433 . S
C1740 H1736 0.929 . S
C1740 C1742 1.378 . S
C1740 C1744 1.350 . S
C1741 C1744 1.463 . S
C1741 C1746 1.350 . S
C1741 N1749 1.427 . S
C1742 H1733 0.930 . S
C1742 C1740 1.378 . S
C1742 C1743 1.367 . S
C1743 C1742 1.367 . S
C1743 C1745 1.433 . S
C1744 C1740 1.350 . S
C1744 C1741 1.463 . S
C1744 N1748 1.427 . S
C1745 H1735 0.929 . S
C1745 C1743 1.433 . S
C1745 N1748 1.384 . S
C1746 H1737 0.929 . S
C1746 C1738 1.378 . S
C1746 C1741 1.350 . S
C1747 H1734 0.929 . S
C1747 C1739 1.433 . S
C1747 N1749 1.384 . S
N1748 C1744 1.427 . S
N1748 C1745 1.384 . S
N1749 C1741 1.427 . S
N1749 C1747 1.384 . S
H1750 C1756 0.930 . S
H1751 C1760 0.930 . S
H1752 C1765 0.929 . S
H1753 C1763 0.929 . S
H1754 C1758 0.929 . S
H1755 C1764 0.929 . S
C1756 H1750 0.930 . S
C1756 C1757 1.367 . S
C1756 C1764 1.378 . S
C1757 C1756 1.367 . S
C1757 C1765 1.433 . S
C1758 H1754 0.929 . S
C1758 C1760 1.378 . S
C1758 C1762 1.350 . S
C1759 C1762 1.463 . S
C1759 C1764 1.350 . S
C1759 N1767 1.427 . S
C1760 H1751 0.930 . S
C1760 C1758 1.378 . S
C1760 C1761 1.367 . S
C1761 C1760 1.367 . S
C1761 C1763 1.433 . S
C1762 C1758 1.350 . S
C1762 C1759 1.463 . S
C1762 N1766 1.427 . S
C1763 H1753 0.929 . S
C1763 C1761 1.433 . S
C1763 N1766 1.384 . S
C1764 H1755 0.929 . S
C1764 C1756 1.378 . S
C1764 C1759 1.350 . S
C1765 H1752 0.929 . S
C1765 C1757 1.433 . S
C1765 N1767 1.384 . S
N1766 C1762 1.427 . S
N1766 C1763 1.384 . S
N1767 C1759 1.427 . S
N1767 C1765 1.384 . S
H1768 C1774 0.927 1_455 S
H1769 C1778 0.922 1_655 S
H1770 C1783 0.929 . S
H1771 C1781 0.929 . S
H1772 C1776 0.929 . S
H1773 C1782 0.929 . S
C1774 H1768 0.927 1_655 S
C1774 C1775 1.367 . S
C1774 C1782 1.378 1_655 S
C1775 C1774 1.367 . S
C1775 C1783 1.433 . S
C1776 H1772 0.929 . S
C1776 C1778 1.370 1_655 S
C1776 C1780 1.337 1_655 S
C1777 C1780 1.452 1_655 S
C1777 C1782 1.350 1_655 S
C1777 N1785 1.427 . S
C1778 H1769 0.922 1_455 S
C1778 C1776 1.370 1_455 S
C1778 C1779 1.384 . S
C1779 C1778 1.384 . S
C1779 C1781 1.433 . S
C1780 C1776 1.337 1_455 S
C1780 C1777 1.452 1_455 S
C1780 N1784 1.456 . S
C1781 H1771 0.929 . S
C1781 C1779 1.433 . S
C1781 N1784 1.384 . S
C1782 H1773 0.929 . S
C1782 C1774 1.378 1_455 S
C1782 C1777 1.350 1_455 S
C1783 H1770 0.929 . S
C1783 C1775 1.433 . S
C1783 N1785 1.384 . S
N1784 C1780 1.456 . S
N1784 C1781 1.384 . S
N1785 C1777 1.427 . S
N1785 C1783 1.384 . S
H1786 C1792 0.930 . S
H1787 C1796 0.930 . S
H1788 C1801 0.929 . S
H1789 C1799 0.929 . S
H1790 C1794 0.929 . S
H1791 C1800 0.929 . S
C1792 H1786 0.930 . S
C1792 C1793 1.367 . S
C1792 C1800 1.378 . S
C1793 C1792 1.367 . S
C1793 C1801 1.433 . S
C1794 H1790 0.929 . S
C1794 C1796 1.378 1_556 S
C1794 C1798 1.350 . S
C1795 C1798 1.463 . S
C1795 C1800 1.350 . S
C1795 N1803 1.427 . S
C1796 H1787 0.930 . S
C1796 C1794 1.378 1_554 S
C1796 C1797 1.367 . S
C1797 C1796 1.367 . S
C1797 C1799 1.433 . S
C1798 C1794 1.350 . S
C1798 C1795 1.463 . S
C1798 N1802 1.427 . S
C1799 H1789 0.929 . S
C1799 C1797 1.433 . S
C1799 N1802 1.384 1_554 S
C1800 H1791 0.929 . S
C1800 C1792 1.378 . S
C1800 C1795 1.350 . S
C1801 H1788 0.929 . S
C1801 C1793 1.433 . S
C1801 N1803 1.384 . S
N1802 C1798 1.427 . S
N1802 C1799 1.384 1_556 S
N1803 C1795 1.427 . S
N1803 C1801 1.384 . S
H1804 C1810 0.930 . S
H1805 C1814 0.930 . S
H1806 C1819 0.929 . S
H1807 C1817 0.929 . S
H1808 C1812 0.929 . S
H1809 C1818 0.929 . S
C1810 H1804 0.930 . S
C1810 C1811 1.367 . S
C1810 C1818 1.378 . S
C1811 C1810 1.367 . S
C1811 C1819 1.433 . S
C1812 H1808 0.929 . S
C1812 C1814 1.378 . S
C1812 C1816 1.350 . S
C1813 C1816 1.463 . S
C1813 C1818 1.350 . S
C1813 N1821 1.427 . S
C1814 H1805 0.930 . S
C1814 C1812 1.378 . S
C1814 C1815 1.367 . S
C1815 C1814 1.367 . S
C1815 C1817 1.433 . S
C1816 C1812 1.350 . S
C1816 C1813 1.463 . S
C1816 N1820 1.427 . S
C1817 H1807 0.929 . S
C1817 C1815 1.433 . S
C1817 N1820 1.384 . S
C1818 H1809 0.929 . S
C1818 C1810 1.378 . S
C1818 C1813 1.350 . S
C1819 H1806 0.929 . S
C1819 C1811 1.433 . S
C1819 N1821 1.384 . S
N1820 C1816 1.427 . S
N1820 C1817 1.384 . S
N1821 C1813 1.427 . S
N1821 C1819 1.384 . S
H1822 C1828 0.930 . S
H1823 C1832 0.930 . S
H1824 C1837 0.929 . S
H1825 C1835 0.929 . S
H1826 C1830 0.929 . S
H1827 C1836 0.929 . S
C1828 H1822 0.930 . S
C1828 C1829 1.367 . S
C1828 C1836 1.378 . S
C1829 C1828 1.367 . S
C1829 C1837 1.433 . S
C1830 H1826 0.929 . S
C1830 C1832 1.378 . S
C1830 C1834 1.350 . S
C1831 C1834 1.463 . S
C1831 C1836 1.350 . S
C1831 N1839 1.427 . S
C1832 H1823 0.930 . S
C1832 C1830 1.378 . S
C1832 C1833 1.367 . S
C1833 C1832 1.367 . S
C1833 C1835 1.433 . S
C1834 C1830 1.350 . S
C1834 C1831 1.463 . S
C1834 N1838 1.427 . S
C1835 H1825 0.929 . S
C1835 C1833 1.433 . S
C1835 N1838 1.384 . S
C1836 H1827 0.929 . S
C1836 C1828 1.378 . S
C1836 C1831 1.350 . S
C1837 H1824 0.929 . S
C1837 C1829 1.433 . S
C1837 N1839 1.384 . S
N1838 C1834 1.427 . S
N1838 C1835 1.384 . S
N1839 C1831 1.427 . S
N1839 C1837 1.384 . S
H1840 C1846 0.930 . S
H1841 C1850 0.930 . S
H1842 C1855 0.929 . S
H1843 C1853 0.929 . S
H1844 C1848 0.929 . S
H1845 C1854 0.929 . S
C1846 H1840 0.930 . S
C1846 C1847 1.367 1_655 S
C1846 C1854 1.378 . S
C1847 C1846 1.367 1_455 S
C1847 C1855 1.433 . S
C1848 H1844 0.929 . S
C1848 C1850 1.378 . S
C1848 C1852 1.323 1_455 S
C1849 C1852 1.456 1_455 S
C1849 C1854 1.350 1_455 S
C1849 N1857 1.427 . S
C1850 H1841 0.930 . S
C1850 C1848 1.378 . S
C1850 C1851 1.367 1_455 S
C1851 C1850 1.367 1_655 S
C1851 C1853 1.433 . S
C1852 C1848 1.323 1_655 S
C1852 C1849 1.456 1_655 S
C1852 N1856 1.464 . S
C1853 H1843 0.929 . S
C1853 C1851 1.433 . S
C1853 N1856 1.384 . S
C1854 H1845 0.929 . S
C1854 C1846 1.378 . S
C1854 C1849 1.350 1_655 S
C1855 H1842 0.929 . S
C1855 C1847 1.433 . S
C1855 N1857 1.384 . S
N1856 C1852 1.464 . S
N1856 C1853 1.384 . S
N1857 C1849 1.427 . S
N1857 C1855 1.384 . S
H1858 C1864 0.930 . S
H1859 C1868 0.930 . S
H1860 C1873 0.929 . S
H1861 C1871 0.929 . S
H1862 C1866 0.929 . S
H1863 C1872 0.929 . S
C1864 H1858 0.930 . S
C1864 C1865 1.367 . S
C1864 C1872 1.378 1_554 S
C1865 C1864 1.367 . S
C1865 C1873 1.433 . S
C1866 H1862 0.929 . S
C1866 C1868 1.378 . S
C1866 C1870 1.350 . S
C1867 C1870 1.463 . S
C1867 C1872 1.350 . S
C1867 N1875 1.427 . S
C1868 H1859 0.930 . S
C1868 C1866 1.378 . S
C1868 C1869 1.367 . S
C1869 C1868 1.367 . S
C1869 C1871 1.433 . S
C1870 C1866 1.350 . S
C1870 C1867 1.463 . S
C1870 N1874 1.427 . S
C1871 H1861 0.929 . S
C1871 C1869 1.433 . S
C1871 N1874 1.384 . S
C1872 H1863 0.929 . S
C1872 C1864 1.378 1_556 S
C1872 C1867 1.350 . S
C1873 H1860 0.929 . S
C1873 C1865 1.433 . S
C1873 N1875 1.384 1_554 S
N1874 C1870 1.427 . S
N1874 C1871 1.384 . S
N1875 C1867 1.427 . S
N1875 C1873 1.384 1_556 S
H1876 C1882 0.930 . S
H1877 C1886 0.930 . S
H1878 C1891 0.929 . S
H1879 C1889 0.929 . S
H1880 C1884 0.929 . S
H1881 C1890 0.929 . S
C1882 H1876 0.930 . S
C1882 C1883 1.367 . S
C1882 C1890 1.378 . S
C1883 C1882 1.367 . S
C1883 C1891 1.433 . S
C1884 H1880 0.929 . S
C1884 C1886 1.378 . S
C1884 C1888 1.350 . S
C1885 C1888 1.463 . S
C1885 C1890 1.350 . S
C1885 N1893 1.427 . S
C1886 H1877 0.930 . S
C1886 C1884 1.378 . S
C1886 C1887 1.367 . S
C1887 C1886 1.367 . S
C1887 C1889 1.433 . S
C1888 C1884 1.350 . S
C1888 C1885 1.463 . S
C1888 N1892 1.427 . S
C1889 H1879 0.929 . S
C1889 C1887 1.433 . S
C1889 N1892 1.384 . S
C1890 H1881 0.929 . S
C1890 C1882 1.378 . S
C1890 C1885 1.350 . S
C1891 H1878 0.929 . S
C1891 C1883 1.433 . S
C1891 N1893 1.384 . S
N1892 C1888 1.427 . S
N1892 C1889 1.384 . S
N1893 C1885 1.427 . S
N1893 C1891 1.384 . S
H1894 C1900 0.930 . S
H1895 C1904 0.930 . S
H1896 C1909 0.929 . S
H1897 C1907 0.929 . S
H1898 C1902 0.929 . S
H1899 C1908 0.929 . S
C1900 H1894 0.930 . S
C1900 C1901 1.367 . S
C1900 C1908 1.378 . S
C1901 C1900 1.367 . S
C1901 C1909 1.433 . S
C1902 H1898 0.929 . S
C1902 C1904 1.378 . S
C1902 C1906 1.350 . S
C1903 C1906 1.463 . S
C1903 C1908 1.350 . S
C1903 N1911 1.427 . S
C1904 H1895 0.930 . S
C1904 C1902 1.378 . S
C1904 C1905 1.367 . S
C1905 C1904 1.367 . S
C1905 C1907 1.433 . S
C1906 C1902 1.350 . S
C1906 C1903 1.463 . S
C1906 N1910 1.427 . S
C1907 H1897 0.929 . S
C1907 C1905 1.433 . S
C1907 N1910 1.384 . S
C1908 H1899 0.929 . S
C1908 C1900 1.378 . S
C1908 C1903 1.350 . S
C1909 H1896 0.929 . S
C1909 C1901 1.433 . S
C1909 N1911 1.384 . S
N1910 C1906 1.427 . S
N1910 C1907 1.384 . S
N1911 C1903 1.427 . S
N1911 C1909 1.384 . S
H1912 C1918 0.930 . S
H1913 C1922 0.930 . S
H1914 C1927 0.929 . S
H1915 C1925 0.929 . S
H1916 C1920 0.929 . S
H1917 C1926 0.929 . S
C1918 H1912 0.930 . S
C1918 C1919 1.367 . S
C1918 C1926 1.378 . S
C1919 C1918 1.367 . S
C1919 C1927 1.433 1_655 S
C1920 H1916 0.929 . S
C1920 C1922 1.378 . S
C1920 C1924 1.350 . S
C1921 C1924 1.463 1_655 S
C1921 C1926 1.350 . S
C1921 N1929 1.427 1_655 S
C1922 H1913 0.930 . S
C1922 C1920 1.378 . S
C1922 C1923 1.367 . S
C1923 C1922 1.367 . S
C1923 C1925 1.433 1_455 S
C1924 C1920 1.350 . S
C1924 C1921 1.463 1_455 S
C1924 N1928 1.427 1_455 S
C1925 H1915 0.929 . S
C1925 C1923 1.433 1_655 S
C1925 N1928 1.384 . S
C1926 H1917 0.929 . S
C1926 C1918 1.378 . S
C1926 C1921 1.350 . S
C1927 H1914 0.929 . S
C1927 C1919 1.433 1_455 S
C1927 N1929 1.384 . S
N1928 C1924 1.427 1_655 S
N1928 C1925 1.384 . S
N1929 C1921 1.427 1_455 S
N1929 C1927 1.384 . S
H1930 C1936 0.930 . S
H1931 C1940 0.930 . S
H1932 C1945 0.929 . S
H1933 C1943 0.929 . S
H1934 C1938 0.929 . S
H1935 C1944 0.929 . S
C1936 H1930 0.930 . S
C1936 C1937 1.367 . S
C1936 C1944 1.378 . S
C1937 C1936 1.367 . S
C1937 C1945 1.433 . S
C1938 H1934 0.929 . S
C1938 C1940 1.378 1_554 S
C1938 C1942 1.350 . S
C1939 C1942 1.463 . S
C1939 C1944 1.350 . S
C1939 N1947 1.427 . S
C1940 H1931 0.930 . S
C1940 C1938 1.378 1_556 S
C1940 C1941 1.367 . S
C1941 C1940 1.367 . S
C1941 C1943 1.433 . S
C1942 C1938 1.350 . S
C1942 C1939 1.463 . S
C1942 N1946 1.427 . S
C1943 H1933 0.929 . S
C1943 C1941 1.433 . S
C1943 N1946 1.384 1_556 S
C1944 H1935 0.929 . S
C1944 C1936 1.378 . S
C1944 C1939 1.350 . S
C1945 H1932 0.929 . S
C1945 C1937 1.433 . S
C1945 N1947 1.384 . S
N1946 C1942 1.427 . S
N1946 C1943 1.384 1_554 S
N1947 C1939 1.427 . S
N1947 C1945 1.384 . S
H1948 C1954 0.930 . S
H1949 C1958 0.930 . S
H1950 C1963 0.929 . S
H1951 C1961 0.929 . S
H1952 C1956 0.929 . S
H1953 C1962 0.929 . S
C1954 H1948 0.930 . S
C1954 C1955 1.367 . S
C1954 C1962 1.378 . S
C1955 C1954 1.367 . S
C1955 C1963 1.433 . S
C1956 H1952 0.929 . S
C1956 C1958 1.378 . S
C1956 C1960 1.350 . S
C1957 C1960 1.463 . S
C1957 C1962 1.350 . S
C1957 N1965 1.427 . S
C1958 H1949 0.930 . S
C1958 C1956 1.378 . S
C1958 C1959 1.367 . S
C1959 C1958 1.367 . S
C1959 C1961 1.433 . S
C1960 C1956 1.350 . S
C1960 C1957 1.463 . S
C1960 N1964 1.427 . S
C1961 H1951 0.929 . S
C1961 C1959 1.433 . S
C1961 N1964 1.384 . S
C1962 H1953 0.929 . S
C1962 C1954 1.378 . S
C1962 C1957 1.350 . S
C1963 H1950 0.929 . S
C1963 C1955 1.433 . S
C1963 N1965 1.384 . S
N1964 C1960 1.427 . S
N1964 C1961 1.384 . S
N1965 C1957 1.427 . S
N1965 C1963 1.384 . S
H1966 C1972 0.930 . S
H1967 C1976 0.930 . S
H1968 C1981 0.929 . S
H1969 C1979 0.929 . S
H1970 C1974 0.929 . S
H1971 C1980 0.929 . S
C1972 H1966 0.930 . S
C1972 C1973 1.367 . S
C1972 C1980 1.378 . S
C1973 C1972 1.367 . S
C1973 C1981 1.433 . S
C1974 H1970 0.929 . S
C1974 C1976 1.378 . S
C1974 C1978 1.350 . S
C1975 C1978 1.463 . S
C1975 C1980 1.350 . S
C1975 N1983 1.427 . S
C1976 H1967 0.930 . S
C1976 C1974 1.378 . S
C1976 C1977 1.367 . S
C1977 C1976 1.367 . S
C1977 C1979 1.433 . S
C1978 C1974 1.350 . S
C1978 C1975 1.463 . S
C1978 N1982 1.427 . S
C1979 H1969 0.929 . S
C1979 C1977 1.433 . S
C1979 N1982 1.384 . S
C1980 H1971 0.929 . S
C1980 C1972 1.378 . S
C1980 C1975 1.350 . S
C1981 H1968 0.929 . S
C1981 C1973 1.433 . S
C1981 N1983 1.384 . S
N1982 C1978 1.427 . S
N1982 C1979 1.384 . S
N1983 C1975 1.427 . S
N1983 C1981 1.384 . S
H1984 C1990 0.930 . S
H1985 C1994 0.930 . S
H1986 C1999 0.929 . S
H1987 C1997 0.929 . S
H1988 C1992 0.929 . S
H1989 C1998 0.929 . S
C1990 H1984 0.930 . S
C1990 C1991 1.367 . S
C1990 C1998 1.378 . S
C1991 C1990 1.367 . S
C1991 C1999 1.433 . S
C1992 H1988 0.929 . S
C1992 C1994 1.378 . S
C1992 C1996 1.350 . S
C1993 C1996 1.463 . S
C1993 C1998 1.350 . S
C1993 N2001 1.427 . S
C1994 H1985 0.930 . S
C1994 C1992 1.378 . S
C1994 C1995 1.367 . S
C1995 C1994 1.367 . S
C1995 C1997 1.433 . S
C1996 C1992 1.350 . S
C1996 C1993 1.463 . S
C1996 N2000 1.427 . S
C1997 H1987 0.929 . S
C1997 C1995 1.433 . S
C1997 N2000 1.384 . S
C1998 H1989 0.929 . S
C1998 C1990 1.378 . S
C1998 C1993 1.350 . S
C1999 H1986 0.929 . S
C1999 C1991 1.433 . S
C1999 N2001 1.384 . S
N2000 C1996 1.427 . S
N2000 C1997 1.384 . S
N2001 C1993 1.427 . S
N2001 C1999 1.384 . S
H2002 C2008 0.930 . S
H2003 C2012 0.930 . S
H2004 C2017 0.929 . S
H2005 C2015 0.929 . S
H2006 C2010 0.929 . S
H2007 C2016 0.929 . S
C2008 H2002 0.930 . S
C2008 C2009 1.367 . S
C2008 C2016 1.378 . S
C2009 C2008 1.367 . S
C2009 C2017 1.433 . S
C2010 H2006 0.929 . S
C2010 C2012 1.378 . S
C2010 C2014 1.350 . S
C2011 C2014 1.463 . S
C2011 C2016 1.350 . S
C2011 N2019 1.427 . S
C2012 H2003 0.930 . S
C2012 C2010 1.378 . S
C2012 C2013 1.367 . S
C2013 C2012 1.367 . S
C2013 C2015 1.433 . S
C2014 C2010 1.350 . S
C2014 C2011 1.463 . S
C2014 N2018 1.427 . S
C2015 H2005 0.929 . S
C2015 C2013 1.433 . S
C2015 N2018 1.384 . S
C2016 H2007 0.929 . S
C2016 C2008 1.378 . S
C2016 C2011 1.350 . S
C2017 H2004 0.929 . S
C2017 C2009 1.433 . S
C2017 N2019 1.384 . S
N2018 C2014 1.427 . S
N2018 C2015 1.384 . S
N2019 C2011 1.427 . S
N2019 C2017 1.384 . S
H2020 C2026 0.930 1_655 S
H2021 C2030 0.935 . S
H2022 C2035 0.929 . S
H2023 C2033 0.929 . S
H2024 C2028 0.929 . S
H2025 C2034 0.929 . S
C2026 H2020 0.930 1_455 S
C2026 C2027 1.367 . S
C2026 C2034 1.378 1_455 S
C2027 C2026 1.367 . S
C2027 C2035 1.433 . S
C2028 H2024 0.929 . S
C2028 C2030 1.381 . S
C2028 C2032 1.334 1_455 S
C2029 C2032 1.452 1_455 S
C2029 C2034 1.350 1_455 S
C2029 N2037 1.427 . S
C2030 H2021 0.935 . S
C2030 C2028 1.381 . S
C2030 C2031 1.360 1_455 S
C2031 C2030 1.360 1_655 S
C2031 C2033 1.433 . S
C2032 C2028 1.334 1_655 S
C2032 C2029 1.452 1_655 S
C2032 N2036 1.458 . S
C2033 H2023 0.929 . S
C2033 C2031 1.433 . S
C2033 N2036 1.384 . S
C2034 H2025 0.929 . S
C2034 C2026 1.378 1_655 S
C2034 C2029 1.350 1_655 S
C2035 H2022 0.929 . S
C2035 C2027 1.433 . S
C2035 N2037 1.384 . S
N2036 C2032 1.458 . S
N2036 C2033 1.384 . S
N2037 C2029 1.427 . S
N2037 C2035 1.384 . S
H2038 C2044 0.930 . S
H2039 C2048 0.930 . S
H2040 C2053 0.929 . S
H2041 C2051 0.929 . S
H2042 C2046 0.929 . S
H2043 C2052 0.929 . S
C2044 H2038 0.930 . S
C2044 C2045 1.367 . S
C2044 C2052 1.378 . S
C2045 C2044 1.367 . S
C2045 C2053 1.433 . S
C2046 H2042 0.929 . S
C2046 C2048 1.378 1_554 S
C2046 C2050 1.350 . S
C2047 C2050 1.463 . S
C2047 C2052 1.350 . S
C2047 N2055 1.427 . S
C2048 H2039 0.930 . S
C2048 C2046 1.378 1_556 S
C2048 C2049 1.367 . S
C2049 C2048 1.367 . S
C2049 C2051 1.433 . S
C2050 C2046 1.350 . S
C2050 C2047 1.463 . S
C2050 N2054 1.427 . S
C2051 H2041 0.929 . S
C2051 C2049 1.433 . S
C2051 N2054 1.384 1_556 S
C2052 H2043 0.929 . S
C2052 C2044 1.378 . S
C2052 C2047 1.350 . S
C2053 H2040 0.929 . S
C2053 C2045 1.433 . S
C2053 N2055 1.384 . S
N2054 C2050 1.427 . S
N2054 C2051 1.384 1_554 S
N2055 C2047 1.427 . S
N2055 C2053 1.384 . S
H2056 C2062 0.930 . S
H2057 C2066 0.930 . S
H2058 C2071 0.929 . S
H2059 C2069 0.929 . S
H2060 C2064 0.929 . S
H2061 C2070 0.929 . S
C2062 H2056 0.930 . S
C2062 C2063 1.367 . S
C2062 C2070 1.378 . S
C2063 C2062 1.367 . S
C2063 C2071 1.433 . S
C2064 H2060 0.929 . S
C2064 C2066 1.378 . S
C2064 C2068 1.350 . S
C2065 C2068 1.463 . S
C2065 C2070 1.350 . S
C2065 N2073 1.427 . S
C2066 H2057 0.930 . S
C2066 C2064 1.378 . S
C2066 C2067 1.367 . S
C2067 C2066 1.367 . S
C2067 C2069 1.433 . S
C2068 C2064 1.350 . S
C2068 C2065 1.463 . S
C2068 N2072 1.427 . S
C2069 H2059 0.929 . S
C2069 C2067 1.433 . S
C2069 N2072 1.384 . S
C2070 H2061 0.929 . S
C2070 C2062 1.378 . S
C2070 C2065 1.350 . S
C2071 H2058 0.929 . S
C2071 C2063 1.433 . S
C2071 N2073 1.384 . S
N2072 C2068 1.427 . S
N2072 C2069 1.384 . S
N2073 C2065 1.427 . S
N2073 C2071 1.384 . S
H2074 C2080 0.930 . S
H2075 C2084 0.930 . S
H2076 C2089 0.929 . S
H2077 C2087 0.929 . S
H2078 C2082 0.929 . S
H2079 C2088 0.929 . S
C2080 H2074 0.930 . S
C2080 C2081 1.367 . S
C2080 C2088 1.378 . S
C2081 C2080 1.367 . S
C2081 C2089 1.433 . S
C2082 H2078 0.929 . S
C2082 C2084 1.378 . S
C2082 C2086 1.350 . S
C2083 C2086 1.463 . S
C2083 C2088 1.350 . S
C2083 N2091 1.427 . S
C2084 H2075 0.930 . S
C2084 C2082 1.378 . S
C2084 C2085 1.367 . S
C2085 C2084 1.367 . S
C2085 C2087 1.433 . S
C2086 C2082 1.350 . S
C2086 C2083 1.463 . S
C2086 N2090 1.427 . S
C2087 H2077 0.929 . S
C2087 C2085 1.433 . S
C2087 N2090 1.384 . S
C2088 H2079 0.929 . S
C2088 C2080 1.378 . S
C2088 C2083 1.350 . S
C2089 H2076 0.929 . S
C2089 C2081 1.433 . S
C2089 N2091 1.384 . S
N2090 C2086 1.427 . S
N2090 C2087 1.384 . S
N2091 C2083 1.427 . S
N2091 C2089 1.384 . S
H2092 C2098 0.930 . S
H2093 C2102 0.930 . S
H2094 C2107 0.929 . S
H2095 C2105 0.929 . S
H2096 C2100 0.929 . S
H2097 C2106 0.929 . S
C2098 H2092 0.930 . S
C2098 C2099 1.367 1_655 S
C2098 C2106 1.378 . S
C2099 C2098 1.367 1_455 S
C2099 C2107 1.433 . S
C2100 H2096 0.929 . S
C2100 C2102 1.378 . S
C2100 C2104 1.323 1_455 S
C2101 C2104 1.457 1_455 S
C2101 C2106 1.350 1_455 S
C2101 N2109 1.427 . S
C2102 H2093 0.930 . S
C2102 C2100 1.378 . S
C2102 C2103 1.367 1_455 S
C2103 C2102 1.367 1_655 S
C2103 C2105 1.433 . S
C2104 C2100 1.323 1_655 S
C2104 C2101 1.457 1_655 S
C2104 N2108 1.463 . S
C2105 H2095 0.929 . S
C2105 C2103 1.433 . S
C2105 N2108 1.384 . S
C2106 H2097 0.929 . S
C2106 C2098 1.378 . S
C2106 C2101 1.350 1_655 S
C2107 H2094 0.929 . S
C2107 C2099 1.433 . S
C2107 N2109 1.384 . S
N2108 C2104 1.463 . S
N2108 C2105 1.384 . S
N2109 C2101 1.427 . S
N2109 C2107 1.384 . S
H2110 C2116 0.930 . S
H2111 C2120 0.930 . S
H2112 C2125 0.929 . S
H2113 C2123 0.929 . S
H2114 C2118 0.929 . S
H2115 C2124 0.929 . S
C2116 H2110 0.930 . S
C2116 C2117 1.367 . S
C2116 C2124 1.378 1_554 S
C2117 C2116 1.367 . S
C2117 C2125 1.433 . S
C2118 H2114 0.929 . S
C2118 C2120 1.378 . S
C2118 C2122 1.350 . S
C2119 C2122 1.463 . S
C2119 C2124 1.350 . S
C2119 N2127 1.427 . S
C2120 H2111 0.930 . S
C2120 C2118 1.378 . S
C2120 C2121 1.367 . S
C2121 C2120 1.367 . S
C2121 C2123 1.433 . S
C2122 C2118 1.350 . S
C2122 C2119 1.463 . S
C2122 N2126 1.427 . S
C2123 H2113 0.929 . S
C2123 C2121 1.433 . S
C2123 N2126 1.384 . S
C2124 H2115 0.929 . S
C2124 C2116 1.378 1_556 S
C2124 C2119 1.350 . S
C2125 H2112 0.929 . S
C2125 C2117 1.433 . S
C2125 N2127 1.384 1_554 S
N2126 C2122 1.427 . S
N2126 C2123 1.384 . S
N2127 C2119 1.427 . S
N2127 C2125 1.384 1_556 S
H2128 C2134 0.930 . S
H2129 C2138 0.930 . S
H2130 C2143 0.929 . S
H2131 C2141 0.929 . S
H2132 C2136 0.929 . S
H2133 C2142 0.929 . S
C2134 H2128 0.930 . S
C2134 C2135 1.367 . S
C2134 C2142 1.378 . S
C2135 C2134 1.367 . S
C2135 C2143 1.433 . S
C2136 H2132 0.929 . S
C2136 C2138 1.378 . S
C2136 C2140 1.350 . S
C2137 C2140 1.463 . S
C2137 C2142 1.350 . S
C2137 N2145 1.427 . S
C2138 H2129 0.930 . S
C2138 C2136 1.378 . S
C2138 C2139 1.367 . S
C2139 C2138 1.367 . S
C2139 C2141 1.433 . S
C2140 C2136 1.350 . S
C2140 C2137 1.463 . S
C2140 N2144 1.427 . S
C2141 H2131 0.929 . S
C2141 C2139 1.433 . S
C2141 N2144 1.384 . S
C2142 H2133 0.929 . S
C2142 C2134 1.378 . S
C2142 C2137 1.350 . S
C2143 H2130 0.929 . S
C2143 C2135 1.433 . S
C2143 N2145 1.384 . S
N2144 C2140 1.427 . S
N2144 C2141 1.384 . S
N2145 C2137 1.427 . S
N2145 C2143 1.384 . S
H2146 C2152 0.930 . S
H2147 C2156 0.930 . S
H2148 C2161 0.929 . S
H2149 C2159 0.929 . S
H2150 C2154 0.929 . S
H2151 C2160 0.929 . S
C2152 H2146 0.930 . S
C2152 C2153 1.367 . S
C2152 C2160 1.378 . S
C2153 C2152 1.367 . S
C2153 C2161 1.433 . S
C2154 H2150 0.929 . S
C2154 C2156 1.378 . S
C2154 C2158 1.350 . S
C2155 C2158 1.463 . S
C2155 C2160 1.350 . S
C2155 N2163 1.427 . S
C2156 H2147 0.930 . S
C2156 C2154 1.378 . S
C2156 C2157 1.367 . S
C2157 C2156 1.367 . S
C2157 C2159 1.433 . S
C2158 C2154 1.350 . S
C2158 C2155 1.463 . S
C2158 N2162 1.427 . S
C2159 H2149 0.929 . S
C2159 C2157 1.433 . S
C2159 N2162 1.384 . S
C2160 H2151 0.929 . S
C2160 C2152 1.378 . S
C2160 C2155 1.350 . S
C2161 H2148 0.929 . S
C2161 C2153 1.433 . S
C2161 N2163 1.384 . S
N2162 C2158 1.427 . S
N2162 C2159 1.384 . S
N2163 C2155 1.427 . S
N2163 C2161 1.384 . S
H2164 C2170 0.930 . S
H2165 C2174 0.927 1_455 S
H2166 C2179 0.929 . S
H2167 C2177 0.929 . S
H2168 C2172 0.929 . S
H2169 C2178 0.929 . S
C2170 H2164 0.930 . S
C2170 C2171 1.367 1_655 S
C2170 C2178 1.378 . S
C2171 C2170 1.367 1_455 S
C2171 C2179 1.433 . S
C2172 H2168 0.929 . S
C2172 C2174 1.375 1_455 S
C2172 C2176 1.350 1_455 S
C2173 C2176 1.453 1_455 S
C2173 C2178 1.331 1_455 S
C2173 N2181 1.460 . S
C2174 H2165 0.927 1_655 S
C2174 C2172 1.375 1_655 S
C2174 C2175 1.373 . S
C2175 C2174 1.373 . S
C2175 C2177 1.433 . S
C2176 C2172 1.350 1_655 S
C2176 C2173 1.453 1_655 S
C2176 N2180 1.427 . S
C2177 H2167 0.929 . S
C2177 C2175 1.433 . S
C2177 N2180 1.384 . S
C2178 H2169 0.929 . S
C2178 C2170 1.378 . S
C2178 C2173 1.331 1_655 S
C2179 H2166 0.929 . S
C2179 C2171 1.433 . S
C2179 N2181 1.384 . S
N2180 C2176 1.427 . S
N2180 C2177 1.384 . S
N2181 C2173 1.460 . S
N2181 C2179 1.384 . S
H2182 C2188 0.930 . S
H2183 C2192 0.930 . S
H2184 C2197 0.929 . S
H2185 C2195 0.929 . S
H2186 C2190 0.929 . S
H2187 C2196 0.929 . S
C2188 H2182 0.930 . S
C2188 C2189 1.367 . S
C2188 C2196 1.378 . S
C2189 C2188 1.367 . S
C2189 C2197 1.433 . S
C2190 H2186 0.929 . S
C2190 C2192 1.378 1_556 S
C2190 C2194 1.350 . S
C2191 C2194 1.463 . S
C2191 C2196 1.350 . S
C2191 N2199 1.427 . S
C2192 H2183 0.930 . S
C2192 C2190 1.378 1_554 S
C2192 C2193 1.367 . S
C2193 C2192 1.367 . S
C2193 C2195 1.433 . S
C2194 C2190 1.350 . S
C2194 C2191 1.463 . S
C2194 N2198 1.427 . S
C2195 H2185 0.929 . S
C2195 C2193 1.433 . S
C2195 N2198 1.384 1_554 S
C2196 H2187 0.929 . S
C2196 C2188 1.378 . S
C2196 C2191 1.350 . S
C2197 H2184 0.929 . S
C2197 C2189 1.433 . S
C2197 N2199 1.384 . S
N2198 C2194 1.427 . S
N2198 C2195 1.384 1_556 S
N2199 C2191 1.427 . S
N2199 C2197 1.384 . S
H2200 C2206 0.930 . S
H2201 C2210 0.930 . S
H2202 C2215 0.929 . S
H2203 C2213 0.929 . S
H2204 C2208 0.929 . S
H2205 C2214 0.929 . S
C2206 H2200 0.930 . S
C2206 C2207 1.367 . S
C2206 C2214 1.378 . S
C2207 C2206 1.367 . S
C2207 C2215 1.433 . S
C2208 H2204 0.929 . S
C2208 C2210 1.378 . S
C2208 C2212 1.350 . S
C2209 C2212 1.463 . S
C2209 C2214 1.350 . S
C2209 N2217 1.427 . S
C2210 H2201 0.930 . S
C2210 C2208 1.378 . S
C2210 C2211 1.367 . S
C2211 C2210 1.367 . S
C2211 C2213 1.433 . S
C2212 C2208 1.350 . S
C2212 C2209 1.463 . S
C2212 N2216 1.427 . S
C2213 H2203 0.929 . S
C2213 C2211 1.433 . S
C2213 N2216 1.384 . S
C2214 H2205 0.929 . S
C2214 C2206 1.378 . S
C2214 C2209 1.350 . S
C2215 H2202 0.929 . S
C2215 C2207 1.433 . S
C2215 N2217 1.384 . S
N2216 C2212 1.427 . S
N2216 C2213 1.384 . S
N2217 C2209 1.427 . S
N2217 C2215 1.384 . S
H2218 C2224 0.930 . S
H2219 C2228 0.930 . S
H2220 C2233 0.929 . S
H2221 C2231 0.929 . S
H2222 C2226 0.929 . S
H2223 C2232 0.929 . S
C2224 H2218 0.930 . S
C2224 C2225 1.367 . S
C2224 C2232 1.378 . S
C2225 C2224 1.367 . S
C2225 C2233 1.433 . S
C2226 H2222 0.929 . S
C2226 C2228 1.378 . S
C2226 C2230 1.350 . S
C2227 C2230 1.463 . S
C2227 C2232 1.350 . S
C2227 N2235 1.427 . S
C2228 H2219 0.930 . S
C2228 C2226 1.378 . S
C2228 C2229 1.367 . S
C2229 C2228 1.367 . S
C2229 C2231 1.433 . S
C2230 C2226 1.350 . S
C2230 C2227 1.463 . S
C2230 N2234 1.427 . S
C2231 H2221 0.929 . S
C2231 C2229 1.433 . S
C2231 N2234 1.384 . S
C2232 H2223 0.929 . S
C2232 C2224 1.378 . S
C2232 C2227 1.350 . S
C2233 H2220 0.929 . S
C2233 C2225 1.433 . S
C2233 N2235 1.384 . S
N2234 C2230 1.427 . S
N2234 C2231 1.384 . S
N2235 C2227 1.427 . S
N2235 C2233 1.384 . S
H2236 C2242 0.930 . S
H2237 C2246 0.930 . S
H2238 C2251 0.929 . S
H2239 C2249 0.929 . S
H2240 C2244 0.929 . S
H2241 C2250 0.929 . S
C2242 H2236 0.930 . S
C2242 C2243 1.367 . S
C2242 C2250 1.378 . S
C2243 C2242 1.367 . S
C2243 C2251 1.433 1_655 S
C2244 H2240 0.929 . S
C2244 C2246 1.378 . S
C2244 C2248 1.350 . S
C2245 C2248 1.463 1_655 S
C2245 C2250 1.350 . S
C2245 N2253 1.427 1_655 S
C2246 H2237 0.930 . S
C2246 C2244 1.378 . S
C2246 C2247 1.367 . S
C2247 C2246 1.367 . S
C2247 C2249 1.433 1_455 S
C2248 C2244 1.350 . S
C2248 C2245 1.463 1_455 S
C2248 N2252 1.427 1_455 S
C2249 H2239 0.929 . S
C2249 C2247 1.433 1_655 S
C2249 N2252 1.384 . S
C2250 H2241 0.929 . S
C2250 C2242 1.378 . S
C2250 C2245 1.350 . S
C2251 H2238 0.929 . S
C2251 C2243 1.433 1_455 S
C2251 N2253 1.384 . S
N2252 C2248 1.427 1_655 S
N2252 C2249 1.384 . S
N2253 C2245 1.427 1_455 S
N2253 C2251 1.384 . S
H2254 C2260 0.930 . S
H2255 C2264 0.930 . S
H2256 C2269 0.929 . S
H2257 C2267 0.929 . S
H2258 C2262 0.929 . S
H2259 C2268 0.929 . S
C2260 H2254 0.930 . S
C2260 C2261 1.367 . S
C2260 C2268 1.378 . S
C2261 C2260 1.367 . S
C2261 C2269 1.433 . S
C2262 H2258 0.929 . S
C2262 C2264 1.378 1_554 S
C2262 C2266 1.350 . S
C2263 C2266 1.463 . S
C2263 C2268 1.350 . S
C2263 N2271 1.427 . S
C2264 H2255 0.930 . S
C2264 C2262 1.378 1_556 S
C2264 C2265 1.367 . S
C2265 C2264 1.367 . S
C2265 C2267 1.433 . S
C2266 C2262 1.350 . S
C2266 C2263 1.463 . S
C2266 N2270 1.427 . S
C2267 H2257 0.929 . S
C2267 C2265 1.433 . S
C2267 N2270 1.384 1_556 S
C2268 H2259 0.929 . S
C2268 C2260 1.378 . S
C2268 C2263 1.350 . S
C2269 H2256 0.929 . S
C2269 C2261 1.433 . S
C2269 N2271 1.384 . S
N2270 C2266 1.427 . S
N2270 C2267 1.384 1_554 S
N2271 C2263 1.427 . S
N2271 C2269 1.384 . S
H2272 C2278 0.930 . S
H2273 C2282 0.930 . S
H2274 C2287 0.932 . S
H2275 C2285 0.932 . S
H2276 C2280 0.929 . S
H2277 C2286 0.929 . S
C2278 H2272 0.930 . S
C2278 C2279 1.367 . S
C2278 C2286 1.378 . S
C2279 C2278 1.367 . S
C2279 C2287 1.433 1_554 S
C2280 H2276 0.929 . S
C2280 C2282 1.378 . S
C2280 C2284 1.350 . S
C2281 C2284 1.463 1_644 S
C2281 C2286 1.350 . S
C2281 N2289 1.427 1_654 S
C2282 H2273 0.930 . S
C2282 C2280 1.378 . S
C2282 C2283 1.367 . S
C2283 C2282 1.367 . S
C2283 C2285 1.433 1_556 S
C2284 C2280 1.350 . S
C2284 C2281 1.463 1_466 S
C2284 N2288 1.427 1_456 S
C2285 H2275 0.932 . S
C2285 C2283 1.433 1_554 S
C2285 N2288 1.384 1_455 S
C2286 H2277 0.929 . S
C2286 C2278 1.378 . S
C2286 C2281 1.350 . S
C2287 H2274 0.932 . S
C2287 C2279 1.433 1_556 S
C2287 N2289 1.384 1_655 S
N2288 C2284 1.427 1_654 S
N2288 C2285 1.384 1_655 S
N2289 C2281 1.427 1_456 S
N2289 C2287 1.384 1_455 S
H2290 C2296 0.930 . S
H2291 C2300 0.930 . S
H2292 C2305 0.929 . S
H2293 C2303 0.929 . S
H2294 C2298 0.929 . S
H2295 C2304 0.929 . S
C2296 H2290 0.930 . S
C2296 C2297 1.367 . S
C2296 C2304 1.378 . S
C2297 C2296 1.367 . S
C2297 C2305 1.433 . S
C2298 H2294 0.929 . S
C2298 C2300 1.378 . S
C2298 C2302 1.350 . S
C2299 C2302 1.463 . S
C2299 C2304 1.350 . S
C2299 N2307 1.427 . S
C2300 H2291 0.930 . S
C2300 C2298 1.378 . S
C2300 C2301 1.367 . S
C2301 C2300 1.367 . S
C2301 C2303 1.433 . S
C2302 C2298 1.350 . S
C2302 C2299 1.463 . S
C2302 N2306 1.427 . S
C2303 H2293 0.929 . S
C2303 C2301 1.433 . S
C2303 N2306 1.384 . S
C2304 H2295 0.929 . S
C2304 C2296 1.378 . S
C2304 C2299 1.350 . S
C2305 H2292 0.929 . S
C2305 C2297 1.433 . S
C2305 N2307 1.384 . S
N2306 C2302 1.427 . S
N2306 C2303 1.384 . S
N2307 C2299 1.427 . S
N2307 C2305 1.384 . S
H2308 C2314 0.930 . S
H2309 C2318 0.930 . S
H2310 C2323 0.929 . S
H2311 C2321 0.929 . S
H2312 C2316 0.929 . S
H2313 C2322 0.929 . S
C2314 H2308 0.930 . S
C2314 C2315 1.367 . S
C2314 C2322 1.378 . S
C2315 C2314 1.367 . S
C2315 C2323 1.433 . S
C2316 H2312 0.929 . S
C2316 C2318 1.378 . S
C2316 C2320 1.350 . S
C2317 C2320 1.463 1_545 S
C2317 C2322 1.350 . S
C2317 N2325 1.427 . S
C2318 H2309 0.930 . S
C2318 C2316 1.378 . S
C2318 C2319 1.367 . S
C2319 C2318 1.367 . S
C2319 C2321 1.433 . S
C2320 C2316 1.350 . S
C2320 C2317 1.463 1_565 S
C2320 N2324 1.427 . S
C2321 H2311 0.929 . S
C2321 C2319 1.433 . S
C2321 N2324 1.384 . S
C2322 H2313 0.929 . S
C2322 C2314 1.378 . S
C2322 C2317 1.350 . S
C2323 H2310 0.929 . S
C2323 C2315 1.433 . S
C2323 N2325 1.384 . S
N2324 C2320 1.427 . S
N2324 C2321 1.384 . S
N2325 C2317 1.427 . S
N2325 C2323 1.384 . S
H2326 C2332 0.930 . S
H2327 C2336 0.930 . S
H2328 C2341 0.929 . S
H2329 C2339 0.929 . S
H2330 C2334 0.929 . S
H2331 C2340 0.929 . S
C2332 H2326 0.930 . S
C2332 C2333 1.367 . S
C2332 C2340 1.378 . S
C2333 C2332 1.367 . S
C2333 C2341 1.433 . S
C2334 H2330 0.929 . S
C2334 C2336 1.378 . S
C2334 C2338 1.350 . S
C2335 C2338 1.463 . S
C2335 C2340 1.350 . S
C2335 N2343 1.427 . S
C2336 H2327 0.930 . S
C2336 C2334 1.378 . S
C2336 C2337 1.367 . S
C2337 C2336 1.367 . S
C2337 C2339 1.433 . S
C2338 C2334 1.350 . S
C2338 C2335 1.463 . S
C2338 N2342 1.427 . S
C2339 H2329 0.929 . S
C2339 C2337 1.433 . S
C2339 N2342 1.384 . S
C2340 H2331 0.929 . S
C2340 C2332 1.378 . S
C2340 C2335 1.350 . S
C2341 H2328 0.929 . S
C2341 C2333 1.433 . S
C2341 N2343 1.384 . S
N2342 C2338 1.427 . S
N2342 C2339 1.384 . S
N2343 C2335 1.427 . S
N2343 C2341 1.384 . S
H2344 C2350 0.930 . S
H2345 C2354 0.930 . S
H2346 C2359 0.929 . S
H2347 C2357 0.929 . S
H2348 C2352 0.950 . S
H2349 C2358 0.950 . S
C2350 H2344 0.930 . S
C2350 C2351 1.367 . S
C2350 C2358 1.366 1_655 S
C2351 C2350 1.367 . S
C2351 C2359 1.433 . S
C2352 H2348 0.950 . S
C2352 C2354 1.366 1_655 S
C2352 C2356 1.342 1_655 S
C2353 C2356 1.463 1_665 S
C2353 C2358 1.342 1_655 S
C2353 N2361 1.427 . S
C2354 H2345 0.930 . S
C2354 C2352 1.366 1_455 S
C2354 C2355 1.367 . S
C2355 C2354 1.367 . S
C2355 C2357 1.433 . S
C2356 C2352 1.342 1_455 S
C2356 C2353 1.463 1_445 S
C2356 N2360 1.427 . S
C2357 H2347 0.929 . S
C2357 C2355 1.433 . S
C2357 N2360 1.384 . S
C2358 H2349 0.950 . S
C2358 C2350 1.366 1_455 S
C2358 C2353 1.342 1_455 S
C2359 H2346 0.929 . S
C2359 C2351 1.433 . S
C2359 N2361 1.384 . S
N2360 C2356 1.427 . S
N2360 C2357 1.384 . S
N2361 C2353 1.427 . S
N2361 C2359 1.384 . S
H2362 C2368 0.930 . S
H2363 C2372 0.930 . S
H2364 C2377 0.929 . S
H2365 C2375 0.929 . S
H2366 C2370 0.929 . S
H2367 C2376 0.929 . S
C2368 H2362 0.930 . S
C2368 C2369 1.367 . S
C2368 C2376 1.378 . S
C2369 C2368 1.367 . S
C2369 C2377 1.433 . S
C2370 H2366 0.929 . S
C2370 C2372 1.378 . S
C2370 C2374 1.350 . S
C2371 C2374 1.463 . S
C2371 C2376 1.350 . S
C2371 N2379 1.427 . S
C2372 H2363 0.930 . S
C2372 C2370 1.378 . S
C2372 C2373 1.367 . S
C2373 C2372 1.367 . S
C2373 C2375 1.433 . S
C2374 C2370 1.350 . S
C2374 C2371 1.463 . S
C2374 N2378 1.427 . S
C2375 H2365 0.929 . S
C2375 C2373 1.433 . S
C2375 N2378 1.384 . S
C2376 H2367 0.929 . S
C2376 C2368 1.378 . S
C2376 C2371 1.350 . S
C2377 H2364 0.929 . S
C2377 C2369 1.433 . S
C2377 N2379 1.384 . S
N2378 C2374 1.427 . S
N2378 C2375 1.384 . S
N2379 C2371 1.427 . S
N2379 C2377 1.384 . S
H2380 C2386 0.930 . S
H2381 C2390 0.930 . S
H2382 C2395 0.929 . S
H2383 C2393 0.929 . S
H2384 C2388 0.929 . S
H2385 C2394 0.929 . S
C2386 H2380 0.930 . S
C2386 C2387 1.367 . S
C2386 C2394 1.378 . S
C2387 C2386 1.367 . S
C2387 C2395 1.433 1_554 S
C2388 H2384 0.929 . S
C2388 C2390 1.378 . S
C2388 C2392 1.350 . S
C2389 C2392 1.463 1_564 S
C2389 C2394 1.350 . S
C2389 N2397 1.427 1_554 S
C2390 H2381 0.930 . S
C2390 C2388 1.378 . S
C2390 C2391 1.367 . S
C2391 C2390 1.367 . S
C2391 C2393 1.433 1_556 S
C2392 C2388 1.350 . S
C2392 C2389 1.463 1_546 S
C2392 N2396 1.427 1_556 S
C2393 H2383 0.929 . S
C2393 C2391 1.433 1_554 S
C2393 N2396 1.384 . S
C2394 H2385 0.929 . S
C2394 C2386 1.378 . S
C2394 C2389 1.350 . S
C2395 H2382 0.929 . S
C2395 C2387 1.433 1_556 S
C2395 N2397 1.384 . S
N2396 C2392 1.427 1_554 S
N2396 C2393 1.384 . S
N2397 C2389 1.427 1_556 S
N2397 C2395 1.384 . S
H2398 C2404 0.930 . S
H2399 C2408 0.930 . S
H2400 C2413 0.929 . S
H2401 C2411 0.929 . S
H2402 C2406 0.929 . S
H2403 C2412 0.929 . S
C2404 H2398 0.930 . S
C2404 C2405 1.367 . S
C2404 C2412 1.378 . S
C2405 C2404 1.367 . S
C2405 C2413 1.433 . S
C2406 H2402 0.929 . S
C2406 C2408 1.378 . S
C2406 C2410 1.350 . S
C2407 C2410 1.463 . S
C2407 C2412 1.350 . S
C2407 N2415 1.427 . S
C2408 H2399 0.930 . S
C2408 C2406 1.378 . S
C2408 C2409 1.367 . S
C2409 C2408 1.367 . S
C2409 C2411 1.433 . S
C2410 C2406 1.350 . S
C2410 C2407 1.463 . S
C2410 N2414 1.427 . S
C2411 H2401 0.929 . S
C2411 C2409 1.433 . S
C2411 N2414 1.384 . S
C2412 H2403 0.929 . S
C2412 C2404 1.378 . S
C2412 C2407 1.350 . S
C2413 H2400 0.929 . S
C2413 C2405 1.433 . S
C2413 N2415 1.384 . S
N2414 C2410 1.427 . S
N2414 C2411 1.384 . S
N2415 C2407 1.427 . S
N2415 C2413 1.384 . S
H2416 C2422 0.930 . S
H2417 C2426 0.930 . S
H2418 C2431 0.929 . S
H2419 C2429 0.929 . S
H2420 C2424 0.929 . S
H2421 C2430 0.929 . S
C2422 H2416 0.930 . S
C2422 C2423 1.367 . S
C2422 C2430 1.378 . S
C2423 C2422 1.367 . S
C2423 C2431 1.433 . S
C2424 H2420 0.929 . S
C2424 C2426 1.378 . S
C2424 C2428 1.350 . S
C2425 C2428 1.463 . S
C2425 C2430 1.350 . S
C2425 N2433 1.427 . S
C2426 H2417 0.930 . S
C2426 C2424 1.378 . S
C2426 C2427 1.367 . S
C2427 C2426 1.367 . S
C2427 C2429 1.433 . S
C2428 C2424 1.350 . S
C2428 C2425 1.463 . S
C2428 N2432 1.427 . S
C2429 H2419 0.929 . S
C2429 C2427 1.433 . S
C2429 N2432 1.384 . S
C2430 H2421 0.929 . S
C2430 C2422 1.378 . S
C2430 C2425 1.350 . S
C2431 H2418 0.929 . S
C2431 C2423 1.433 . S
C2431 N2433 1.384 . S
N2432 C2428 1.427 . S
N2432 C2429 1.384 . S
N2433 C2425 1.427 . S
N2433 C2431 1.384 . S
H2434 C2440 0.930 . S
H2435 C2444 0.930 . S
H2436 C2449 0.929 . S
H2437 C2447 0.929 . S
H2438 C2442 0.929 . S
H2439 C2448 0.929 . S
C2440 H2434 0.930 . S
C2440 C2441 1.367 . S
C2440 C2448 1.378 . S
C2441 C2440 1.367 . S
C2441 C2449 1.433 . S
C2442 H2438 0.929 . S
C2442 C2444 1.378 . S
C2442 C2446 1.350 . S
C2443 C2446 1.463 . S
C2443 C2448 1.350 . S
C2443 N2451 1.427 . S
C2444 H2435 0.930 . S
C2444 C2442 1.378 . S
C2444 C2445 1.367 . S
C2445 C2444 1.367 . S
C2445 C2447 1.433 . S
C2446 C2442 1.350 . S
C2446 C2443 1.463 . S
C2446 N2450 1.427 . S
C2447 H2437 0.929 . S
C2447 C2445 1.433 . S
C2447 N2450 1.384 . S
C2448 H2439 0.929 . S
C2448 C2440 1.378 . S
C2448 C2443 1.350 . S
C2449 H2436 0.929 . S
C2449 C2441 1.433 . S
C2449 N2451 1.384 . S
N2450 C2446 1.427 . S
N2450 C2447 1.384 . S
N2451 C2443 1.427 . S
N2451 C2449 1.384 . S
H2452 C2458 0.930 . S
H2453 C2462 0.930 . S
H2454 C2467 0.929 . S
H2455 C2465 0.929 . S
H2456 C2460 0.929 . S
H2457 C2466 0.929 . S
C2458 H2452 0.930 . S
C2458 C2459 1.367 . S
C2458 C2466 1.378 . S
C2459 C2458 1.367 . S
C2459 C2467 1.433 . S
C2460 H2456 0.929 . S
C2460 C2462 1.378 . S
C2460 C2464 1.350 . S
C2461 C2464 1.463 . S
C2461 C2466 1.350 . S
C2461 N2469 1.427 . S
C2462 H2453 0.930 . S
C2462 C2460 1.378 . S
C2462 C2463 1.367 . S
C2463 C2462 1.367 . S
C2463 C2465 1.433 . S
C2464 C2460 1.350 . S
C2464 C2461 1.463 . S
C2464 N2468 1.427 . S
C2465 H2455 0.929 . S
C2465 C2463 1.433 . S
C2465 N2468 1.384 . S
C2466 H2457 0.929 . S
C2466 C2458 1.378 . S
C2466 C2461 1.350 . S
C2467 H2454 0.929 . S
C2467 C2459 1.433 . S
C2467 N2469 1.384 . S
N2468 C2464 1.427 . S
N2468 C2465 1.384 . S
N2469 C2461 1.427 . S
N2469 C2467 1.384 . S
H2470 C2476 0.930 . S
H2471 C2480 0.930 . S
H2472 C2485 0.929 . S
H2473 C2483 0.929 . S
H2474 C2478 0.929 . S
H2475 C2484 0.929 . S
C2476 H2470 0.930 . S
C2476 C2477 1.367 . S
C2476 C2484 1.378 . S
C2477 C2476 1.367 . S
C2477 C2485 1.433 . S
C2478 H2474 0.929 . S
C2478 C2480 1.378 . S
C2478 C2482 1.350 . S
C2479 C2482 1.463 . S
C2479 C2484 1.350 . S
C2479 N2487 1.427 . S
C2480 H2471 0.930 . S
C2480 C2478 1.378 . S
C2480 C2481 1.367 . S
C2481 C2480 1.367 . S
C2481 C2483 1.433 . S
C2482 C2478 1.350 . S
C2482 C2479 1.463 . S
C2482 N2486 1.427 . S
C2483 H2473 0.929 . S
C2483 C2481 1.433 . S
C2483 N2486 1.384 . S
C2484 H2475 0.929 . S
C2484 C2476 1.378 . S
C2484 C2479 1.350 . S
C2485 H2472 0.929 . S
C2485 C2477 1.433 . S
C2485 N2487 1.384 . S
N2486 C2482 1.427 . S
N2486 C2483 1.384 . S
N2487 C2479 1.427 . S
N2487 C2485 1.384 . S
H2488 C2494 0.930 . S
H2489 C2498 0.930 . S
H2490 C2503 0.929 . S
H2491 C2501 0.929 . S
H2492 C2496 0.929 . S
H2493 C2502 0.929 . S
C2494 H2488 0.930 . S
C2494 C2495 1.367 . S
C2494 C2502 1.378 . S
C2495 C2494 1.367 . S
C2495 C2503 1.433 . S
C2496 H2492 0.929 . S
C2496 C2498 1.378 . S
C2496 C2500 1.350 . S
C2497 C2500 1.463 . S
C2497 C2502 1.350 . S
C2497 N2505 1.427 . S
C2498 H2489 0.930 . S
C2498 C2496 1.378 . S
C2498 C2499 1.367 . S
C2499 C2498 1.367 . S
C2499 C2501 1.433 . S
C2500 C2496 1.350 . S
C2500 C2497 1.463 . S
C2500 N2504 1.427 . S
C2501 H2491 0.929 . S
C2501 C2499 1.433 . S
C2501 N2504 1.384 . S
C2502 H2493 0.929 . S
C2502 C2494 1.378 . S
C2502 C2497 1.350 . S
C2503 H2490 0.929 . S
C2503 C2495 1.433 . S
C2503 N2505 1.384 . S
N2504 C2500 1.427 . S
N2504 C2501 1.384 . S
N2505 C2497 1.427 . S
N2505 C2503 1.384 . S
H2506 C2512 0.930 . S
H2507 C2516 0.930 . S
H2508 C2521 0.929 . S
H2509 C2519 0.929 . S
H2510 C2514 0.929 . S
H2511 C2520 0.929 . S
C2512 H2506 0.930 . S
C2512 C2513 1.367 1_656 S
C2512 C2520 1.378 . S
C2513 C2512 1.367 1_454 S
C2513 C2521 1.433 . S
C2514 H2510 0.929 . S
C2514 C2516 1.378 . S
C2514 C2518 1.350 1_454 S
C2515 C2518 1.463 1_454 S
C2515 C2520 1.350 1_454 S
C2515 N2523 1.427 . S
C2516 H2507 0.930 . S
C2516 C2514 1.378 . S
C2516 C2517 1.367 1_454 S
C2517 C2516 1.367 1_656 S
C2517 C2519 1.433 . S
C2518 C2514 1.350 1_656 S
C2518 C2515 1.463 1_656 S
C2518 N2522 1.427 . S
C2519 H2509 0.929 . S
C2519 C2517 1.433 . S
C2519 N2522 1.384 . S
C2520 H2511 0.929 . S
C2520 C2512 1.378 . S
C2520 C2515 1.350 1_656 S
C2521 H2508 0.929 . S
C2521 C2513 1.433 . S
C2521 N2523 1.384 . S
N2522 C2518 1.427 . S
N2522 C2519 1.384 . S
N2523 C2515 1.427 . S
N2523 C2521 1.384 . S
H2524 C2530 0.930 . S
H2525 C2534 0.930 . S
H2526 C2539 0.929 . S
H2527 C2537 0.929 . S
H2528 C2532 0.929 . S
H2529 C2538 0.929 . S
C2530 H2524 0.930 . S
C2530 C2531 1.367 1_554 S
C2530 C2538 1.378 . S
C2531 C2530 1.367 1_556 S
C2531 C2539 1.433 . S
C2532 H2528 0.929 . S
C2532 C2534 1.378 . S
C2532 C2536 1.350 1_556 S
C2533 C2536 1.463 1_556 S
C2533 C2538 1.350 1_556 S
C2533 N2541 1.427 . S
C2534 H2525 0.930 . S
C2534 C2532 1.378 . S
C2534 C2535 1.367 1_556 S
C2535 C2534 1.367 1_554 S
C2535 C2537 1.433 . S
C2536 C2532 1.350 1_554 S
C2536 C2533 1.463 1_554 S
C2536 N2540 1.427 . S
C2537 H2527 0.929 . S
C2537 C2535 1.433 . S
C2537 N2540 1.384 . S
C2538 H2529 0.929 . S
C2538 C2530 1.378 . S
C2538 C2533 1.350 1_554 S
C2539 H2526 0.929 . S
C2539 C2531 1.433 . S
C2539 N2541 1.384 . S
N2540 C2536 1.427 . S
N2540 C2537 1.384 . S
N2541 C2533 1.427 . S
N2541 C2539 1.384 . S
H2542 C2548 0.966 . S
H2543 C2552 0.966 . S
H2544 C2557 0.929 . S
H2545 C2555 0.929 . S
H2546 C2550 0.929 . S
H2547 C2556 0.929 . S
C2548 H2542 0.966 . S
C2548 C2549 1.315 1_455 S
C2548 C2556 1.399 . S
C2549 C2548 1.315 1_655 S
C2549 C2557 1.433 . S
C2550 H2546 0.929 . S
C2550 C2552 1.399 . S
C2550 C2554 1.350 1_655 S
C2551 C2554 1.463 1_655 S
C2551 C2556 1.350 1_655 S
C2551 N2559 1.427 . S
C2552 H2543 0.966 . S
C2552 C2550 1.399 . S
C2552 C2553 1.315 1_655 S
C2553 C2552 1.315 1_455 S
C2553 C2555 1.433 . S
C2554 C2550 1.350 1_455 S
C2554 C2551 1.463 1_455 S
C2554 N2558 1.427 . S
C2555 H2545 0.929 . S
C2555 C2553 1.433 . S
C2555 N2558 1.384 . S
C2556 H2547 0.929 . S
C2556 C2548 1.399 . S
C2556 C2551 1.350 1_455 S
C2557 H2544 0.929 . S
C2557 C2549 1.433 . S
C2557 N2559 1.384 . S
N2558 C2554 1.427 . S
N2558 C2555 1.384 . S
N2559 C2551 1.427 . S
N2559 C2557 1.384 . S
H2560 C2566 0.930 . S
H2561 C2570 0.930 . S
H2562 C2575 0.929 . S
H2563 C2573 0.929 . S
H2564 C2568 0.929 . S
H2565 C2574 0.929 . S
C2566 H2560 0.930 . S
C2566 C2567 1.367 . S
C2566 C2574 1.378 . S
C2567 C2566 1.367 . S
C2567 C2575 1.433 . S
C2568 H2564 0.929 . S
C2568 C2570 1.378 . S
C2568 C2572 1.350 . S
C2569 C2572 1.463 . S
C2569 C2574 1.350 . S
C2569 N2577 1.427 . S
C2570 H2561 0.930 . S
C2570 C2568 1.378 . S
C2570 C2571 1.367 . S
C2571 C2570 1.367 . S
C2571 C2573 1.433 . S
C2572 C2568 1.350 . S
C2572 C2569 1.463 . S
C2572 N2576 1.427 . S
C2573 H2563 0.929 . S
C2573 C2571 1.433 . S
C2573 N2576 1.384 . S
C2574 H2565 0.929 . S
C2574 C2566 1.378 . S
C2574 C2569 1.350 . S
C2575 H2562 0.929 . S
C2575 C2567 1.433 . S
C2575 N2577 1.384 . S
N2576 C2572 1.427 . S
N2576 C2573 1.384 . S
N2577 C2569 1.427 . S
N2577 C2575 1.384 . S
H2578 C2584 0.930 . S
H2579 C2588 0.930 . S
H2580 C2593 0.929 . S
H2581 C2591 0.929 . S
H2582 C2586 0.929 . S
H2583 C2592 0.929 . S
C2584 H2578 0.930 . S
C2584 C2585 1.367 . S
C2584 C2592 1.378 . S
C2585 C2584 1.367 . S
C2585 C2593 1.433 . S
C2586 H2582 0.929 . S
C2586 C2588 1.378 . S
C2586 C2590 1.350 . S
C2587 C2590 1.463 . S
C2587 C2592 1.350 . S
C2587 N2595 1.427 . S
C2588 H2579 0.930 . S
C2588 C2586 1.378 . S
C2588 C2589 1.367 . S
C2589 C2588 1.367 . S
C2589 C2591 1.433 . S
C2590 C2586 1.350 . S
C2590 C2587 1.463 . S
C2590 N2594 1.427 . S
C2591 H2581 0.929 . S
C2591 C2589 1.433 . S
C2591 N2594 1.384 . S
C2592 H2583 0.929 . S
C2592 C2584 1.378 . S
C2592 C2587 1.350 . S
C2593 H2580 0.929 . S
C2593 C2585 1.433 . S
C2593 N2595 1.384 . S
N2594 C2590 1.427 . S
N2594 C2591 1.384 . S
N2595 C2587 1.427 . S
N2595 C2593 1.384 . S
H2596 C2602 0.930 . S
H2597 C2606 0.930 . S
H2598 C2611 0.929 . S
H2599 C2609 0.929 . S
H2600 C2604 0.929 . S
H2601 C2610 0.929 . S
C2602 H2596 0.930 . S
C2602 C2603 1.367 . S
C2602 C2610 1.378 . S
C2603 C2602 1.367 . S
C2603 C2611 1.433 . S
C2604 H2600 0.929 . S
C2604 C2606 1.378 . S
C2604 C2608 1.350 . S
C2605 C2608 1.463 . S
C2605 C2610 1.350 . S
C2605 N2613 1.427 . S
C2606 H2597 0.930 . S
C2606 C2604 1.378 . S
C2606 C2607 1.367 . S
C2607 C2606 1.367 . S
C2607 C2609 1.433 . S
C2608 C2604 1.350 . S
C2608 C2605 1.463 . S
C2608 N2612 1.427 . S
C2609 H2599 0.929 . S
C2609 C2607 1.433 . S
C2609 N2612 1.384 . S
C2610 H2601 0.929 . S
C2610 C2602 1.378 . S
C2610 C2605 1.350 . S
C2611 H2598 0.929 . S
C2611 C2603 1.433 . S
C2611 N2613 1.384 . S
N2612 C2608 1.427 . S
N2612 C2609 1.384 . S
N2613 C2605 1.427 . S
N2613 C2611 1.384 . S
H2614 C2620 0.930 . S
H2615 C2624 0.930 . S
H2616 C2629 0.929 . S
H2617 C2627 0.929 . S
H2618 C2622 0.929 . S
H2619 C2628 0.929 . S
C2620 H2614 0.930 . S
C2620 C2621 1.367 . S
C2620 C2628 1.378 . S
C2621 C2620 1.367 . S
C2621 C2629 1.433 . S
C2622 H2618 0.929 . S
C2622 C2624 1.378 . S
C2622 C2626 1.350 . S
C2623 C2626 1.463 . S
C2623 C2628 1.350 . S
C2623 N2631 1.427 . S
C2624 H2615 0.930 . S
C2624 C2622 1.378 . S
C2624 C2625 1.367 . S
C2625 C2624 1.367 . S
C2625 C2627 1.433 . S
C2626 C2622 1.350 . S
C2626 C2623 1.463 . S
C2626 N2630 1.427 . S
C2627 H2617 0.929 . S
C2627 C2625 1.433 . S
C2627 N2630 1.384 . S
C2628 H2619 0.929 . S
C2628 C2620 1.378 . S
C2628 C2623 1.350 . S
C2629 H2616 0.929 . S
C2629 C2621 1.433 . S
C2629 N2631 1.384 . S
N2630 C2626 1.427 . S
N2630 C2627 1.384 . S
N2631 C2623 1.427 . S
N2631 C2629 1.384 . S
H2632 C2638 0.930 . S
H2633 C2642 0.930 . S
H2634 C2647 0.929 . S
H2635 C2645 0.929 . S
H2636 C2640 0.929 . S
H2637 C2646 0.929 . S
C2638 H2632 0.930 . S
C2638 C2639 1.367 . S
C2638 C2646 1.378 . S
C2639 C2638 1.367 . S
C2639 C2647 1.433 . S
C2640 H2636 0.929 . S
C2640 C2642 1.378 . S
C2640 C2644 1.350 . S
C2641 C2644 1.463 . S
C2641 C2646 1.350 . S
C2641 N2649 1.427 . S
C2642 H2633 0.930 . S
C2642 C2640 1.378 . S
C2642 C2643 1.367 . S
C2643 C2642 1.367 . S
C2643 C2645 1.433 . S
C2644 C2640 1.350 . S
C2644 C2641 1.463 . S
C2644 N2648 1.427 . S
C2645 H2635 0.929 . S
C2645 C2643 1.433 . S
C2645 N2648 1.384 . S
C2646 H2637 0.929 . S
C2646 C2638 1.378 . S
C2646 C2641 1.350 . S
C2647 H2634 0.929 . S
C2647 C2639 1.433 . S
C2647 N2649 1.384 . S
N2648 C2644 1.427 . S
N2648 C2645 1.384 . S
N2649 C2641 1.427 . S
N2649 C2647 1.384 . S
H2650 C2656 0.930 . S
H2651 C2660 0.930 . S
H2652 C2665 0.929 . S
H2653 C2663 0.929 . S
H2654 C2658 0.929 . S
H2655 C2664 0.929 . S
C2656 H2650 0.930 . S
C2656 C2657 1.367 . S
C2656 C2664 1.378 . S
C2657 C2656 1.367 . S
C2657 C2665 1.433 . S
C2658 H2654 0.929 . S
C2658 C2660 1.378 . S
C2658 C2662 1.350 . S
C2659 C2662 1.463 . S
C2659 C2664 1.350 . S
C2659 N2667 1.427 . S
C2660 H2651 0.930 . S
C2660 C2658 1.378 . S
C2660 C2661 1.367 . S
C2661 C2660 1.367 . S
C2661 C2663 1.433 . S
C2662 C2658 1.350 . S
C2662 C2659 1.463 . S
C2662 N2666 1.427 . S
C2663 H2653 0.929 . S
C2663 C2661 1.433 . S
C2663 N2666 1.384 . S
C2664 H2655 0.929 . S
C2664 C2656 1.378 . S
C2664 C2659 1.350 . S
C2665 H2652 0.929 . S
C2665 C2657 1.433 . S
C2665 N2667 1.384 . S
N2666 C2662 1.427 . S
N2666 C2663 1.384 . S
N2667 C2659 1.427 . S
N2667 C2665 1.384 . S
H2668 C2674 0.930 . S
H2669 C2678 0.930 . S
H2670 C2683 0.929 . S
H2671 C2681 0.929 . S
H2672 C2676 0.929 . S
H2673 C2682 0.929 . S
C2674 H2668 0.930 . S
C2674 C2675 1.367 . S
C2674 C2682 1.378 . S
C2675 C2674 1.367 . S
C2675 C2683 1.433 . S
C2676 H2672 0.929 . S
C2676 C2678 1.378 . S
C2676 C2680 1.350 . S
C2677 C2680 1.463 . S
C2677 C2682 1.350 . S
C2677 N2685 1.427 . S
C2678 H2669 0.930 . S
C2678 C2676 1.378 . S
C2678 C2679 1.367 . S
C2679 C2678 1.367 . S
C2679 C2681 1.433 . S
C2680 C2676 1.350 . S
C2680 C2677 1.463 . S
C2680 N2684 1.427 . S
C2681 H2671 0.929 . S
C2681 C2679 1.433 . S
C2681 N2684 1.384 . S
C2682 H2673 0.929 . S
C2682 C2674 1.378 . S
C2682 C2677 1.350 . S
C2683 H2670 0.929 . S
C2683 C2675 1.433 . S
C2683 N2685 1.384 . S
N2684 C2680 1.427 . S
N2684 C2681 1.384 . S
N2685 C2677 1.427 . S
N2685 C2683 1.384 . S
H2686 C2692 0.930 . S
H2687 C2696 0.930 . S
H2688 C2701 0.929 . S
H2689 C2699 0.929 . S
H2690 C2694 0.929 . S
H2691 C2700 0.929 . S
C2692 H2686 0.930 . S
C2692 C2693 1.367 . S
C2692 C2700 1.378 . S
C2693 C2692 1.367 . S
C2693 C2701 1.433 . S
C2694 H2690 0.929 . S
C2694 C2696 1.378 . S
C2694 C2698 1.350 . S
C2695 C2698 1.463 . S
C2695 C2700 1.350 . S
C2695 N2703 1.427 . S
C2696 H2687 0.930 . S
C2696 C2694 1.378 . S
C2696 C2697 1.367 . S
C2697 C2696 1.367 . S
C2697 C2699 1.433 . S
C2698 C2694 1.350 . S
C2698 C2695 1.463 . S
C2698 N2702 1.427 . S
C2699 H2689 0.929 . S
C2699 C2697 1.433 . S
C2699 N2702 1.384 . S
C2700 H2691 0.929 . S
C2700 C2692 1.378 . S
C2700 C2695 1.350 . S
C2701 H2688 0.929 . S
C2701 C2693 1.433 . S
C2701 N2703 1.384 . S
N2702 C2698 1.427 . S
N2702 C2699 1.384 . S
N2703 C2695 1.427 . S
N2703 C2701 1.384 . S
H2704 C2710 0.930 . S
H2705 C2714 0.930 . S
H2706 C2719 0.929 . S
H2707 C2717 0.929 . S
H2708 C2712 0.929 . S
H2709 C2718 0.929 . S
C2710 H2704 0.930 . S
C2710 C2711 1.367 . S
C2710 C2718 1.378 . S
C2711 C2710 1.367 . S
C2711 C2719 1.433 . S
C2712 H2708 0.929 . S
C2712 C2714 1.378 . S
C2712 C2716 1.350 . S
C2713 C2716 1.463 . S
C2713 C2718 1.350 . S
C2713 N2721 1.427 . S
C2714 H2705 0.930 . S
C2714 C2712 1.378 . S
C2714 C2715 1.367 . S
C2715 C2714 1.367 . S
C2715 C2717 1.433 . S
C2716 C2712 1.350 . S
C2716 C2713 1.463 . S
C2716 N2720 1.427 . S
C2717 H2707 0.929 . S
C2717 C2715 1.433 . S
C2717 N2720 1.384 . S
C2718 H2709 0.929 . S
C2718 C2710 1.378 . S
C2718 C2713 1.350 . S
C2719 H2706 0.929 . S
C2719 C2711 1.433 . S
C2719 N2721 1.384 . S
N2720 C2716 1.427 . S
N2720 C2717 1.384 . S
N2721 C2713 1.427 . S
N2721 C2719 1.384 . S
H2722 C2728 0.930 . S
H2723 C2732 0.930 . S
H2724 C2737 0.929 . S
H2725 C2735 0.929 . S
H2726 C2730 0.929 . S
H2727 C2736 0.929 . S
C2728 H2722 0.930 . S
C2728 C2729 1.367 . S
C2728 C2736 1.378 . S
C2729 C2728 1.367 . S
C2729 C2737 1.433 . S
C2730 H2726 0.929 . S
C2730 C2732 1.378 . S
C2730 C2734 1.350 . S
C2731 C2734 1.463 . S
C2731 C2736 1.350 . S
C2731 N2739 1.427 . S
C2732 H2723 0.930 . S
C2732 C2730 1.378 . S
C2732 C2733 1.367 . S
C2733 C2732 1.367 . S
C2733 C2735 1.433 . S
C2734 C2730 1.350 . S
C2734 C2731 1.463 . S
C2734 N2738 1.427 . S
C2735 H2725 0.929 . S
C2735 C2733 1.433 . S
C2735 N2738 1.384 . S
C2736 H2727 0.929 . S
C2736 C2728 1.378 . S
C2736 C2731 1.350 . S
C2737 H2724 0.929 . S
C2737 C2729 1.433 . S
C2737 N2739 1.384 . S
N2738 C2734 1.427 . S
N2738 C2735 1.384 . S
N2739 C2731 1.427 . S
N2739 C2737 1.384 . S
H2740 C2746 0.930 . S
H2741 C2750 0.930 . S
H2742 C2755 0.929 . S
H2743 C2753 0.929 . S
H2744 C2748 0.929 . S
H2745 C2754 0.929 . S
C2746 H2740 0.930 . S
C2746 C2747 1.367 . S
C2746 C2754 1.378 . S
C2747 C2746 1.367 . S
C2747 C2755 1.433 . S
C2748 H2744 0.929 . S
C2748 C2750 1.378 . S
C2748 C2752 1.350 . S
C2749 C2752 1.463 . S
C2749 C2754 1.350 . S
C2749 N2757 1.427 . S
C2750 H2741 0.930 . S
C2750 C2748 1.378 . S
C2750 C2751 1.367 . S
C2751 C2750 1.367 . S
C2751 C2753 1.433 . S
C2752 C2748 1.350 . S
C2752 C2749 1.463 . S
C2752 N2756 1.427 . S
C2753 H2743 0.929 . S
C2753 C2751 1.433 . S
C2753 N2756 1.384 . S
C2754 H2745 0.929 . S
C2754 C2746 1.378 . S
C2754 C2749 1.350 . S
C2755 H2742 0.929 . S
C2755 C2747 1.433 . S
C2755 N2757 1.384 . S
N2756 C2752 1.427 . S
N2756 C2753 1.384 . S
N2757 C2749 1.427 . S
N2757 C2755 1.384 . S
H2758 C2764 0.930 . S
H2759 C2768 0.930 . S
H2760 C2773 0.929 . S
H2761 C2771 0.929 . S
H2762 C2766 0.929 . S
H2763 C2772 0.929 . S
C2764 H2758 0.930 . S
C2764 C2765 1.367 . S
C2764 C2772 1.378 . S
C2765 C2764 1.367 . S
C2765 C2773 1.433 . S
C2766 H2762 0.929 . S
C2766 C2768 1.378 . S
C2766 C2770 1.350 . S
C2767 C2770 1.463 . S
C2767 C2772 1.350 . S
C2767 N2775 1.427 . S
C2768 H2759 0.930 . S
C2768 C2766 1.378 . S
C2768 C2769 1.367 . S
C2769 C2768 1.367 . S
C2769 C2771 1.433 . S
C2770 C2766 1.350 . S
C2770 C2767 1.463 . S
C2770 N2774 1.427 . S
C2771 H2761 0.929 . S
C2771 C2769 1.433 . S
C2771 N2774 1.384 . S
C2772 H2763 0.929 . S
C2772 C2764 1.378 . S
C2772 C2767 1.350 . S
C2773 H2760 0.929 . S
C2773 C2765 1.433 . S
C2773 N2775 1.384 . S
N2774 C2770 1.427 . S
N2774 C2771 1.384 . S
N2775 C2767 1.427 . S
N2775 C2773 1.384 . S
H2776 C2782 0.930 . S
H2777 C2786 0.930 . S
H2778 C2791 0.929 . S
H2779 C2789 0.929 . S
H2780 C2784 0.929 . S
H2781 C2790 0.929 . S
C2782 H2776 0.930 . S
C2782 C2783 1.367 . S
C2782 C2790 1.378 . S
C2783 C2782 1.367 . S
C2783 C2791 1.433 . S
C2784 H2780 0.929 . S
C2784 C2786 1.378 . S
C2784 C2788 1.350 . S
C2785 C2788 1.463 . S
C2785 C2790 1.350 . S
C2785 N2793 1.427 . S
C2786 H2777 0.930 . S
C2786 C2784 1.378 . S
C2786 C2787 1.367 . S
C2787 C2786 1.367 . S
C2787 C2789 1.433 . S
C2788 C2784 1.350 . S
C2788 C2785 1.463 . S
C2788 N2792 1.427 . S
C2789 H2779 0.929 . S
C2789 C2787 1.433 . S
C2789 N2792 1.384 . S
C2790 H2781 0.929 . S
C2790 C2782 1.378 . S
C2790 C2785 1.350 . S
C2791 H2778 0.929 . S
C2791 C2783 1.433 . S
C2791 N2793 1.384 . S
N2792 C2788 1.427 . S
N2792 C2789 1.384 . S
N2793 C2785 1.427 . S
N2793 C2791 1.384 . S
H2794 C2800 0.930 . S
H2795 C2804 0.930 . S
H2796 C2809 0.929 . S
H2797 C2807 0.929 . S
H2798 C2802 0.929 . S
H2799 C2808 0.929 . S
C2800 H2794 0.930 . S
C2800 C2801 1.367 . S
C2800 C2808 1.378 . S
C2801 C2800 1.367 . S
C2801 C2809 1.433 . S
C2802 H2798 0.929 . S
C2802 C2804 1.378 . S
C2802 C2806 1.350 . S
C2803 C2806 1.463 . S
C2803 C2808 1.350 . S
C2803 N2811 1.427 . S
C2804 H2795 0.930 . S
C2804 C2802 1.378 . S
C2804 C2805 1.367 . S
C2805 C2804 1.367 . S
C2805 C2807 1.433 . S
C2806 C2802 1.350 . S
C2806 C2803 1.463 . S
C2806 N2810 1.427 . S
C2807 H2797 0.929 . S
C2807 C2805 1.433 . S
C2807 N2810 1.384 . S
C2808 H2799 0.929 . S
C2808 C2800 1.378 . S
C2808 C2803 1.350 . S
C2809 H2796 0.929 . S
C2809 C2801 1.433 . S
C2809 N2811 1.384 . S
N2810 C2806 1.427 . S
N2810 C2807 1.384 . S
N2811 C2803 1.427 . S
N2811 C2809 1.384 . S
H2812 C2818 0.930 . S
H2813 C2822 0.930 . S
H2814 C2827 0.929 . S
H2815 C2825 0.929 . S
H2816 C2820 0.929 . S
H2817 C2826 0.929 . S
C2818 H2812 0.930 . S
C2818 C2819 1.367 . S
C2818 C2826 1.378 . S
C2819 C2818 1.367 . S
C2819 C2827 1.433 . S
C2820 H2816 0.929 . S
C2820 C2822 1.378 . S
C2820 C2824 1.350 . S
C2821 C2824 1.463 . S
C2821 C2826 1.350 . S
C2821 N2829 1.427 . S
C2822 H2813 0.930 . S
C2822 C2820 1.378 . S
C2822 C2823 1.367 . S
C2823 C2822 1.367 . S
C2823 C2825 1.433 . S
C2824 C2820 1.350 . S
C2824 C2821 1.463 . S
C2824 N2828 1.427 . S
C2825 H2815 0.929 . S
C2825 C2823 1.433 . S
C2825 N2828 1.384 . S
C2826 H2817 0.929 . S
C2826 C2818 1.378 . S
C2826 C2821 1.350 . S
C2827 H2814 0.929 . S
C2827 C2819 1.433 . S
C2827 N2829 1.384 . S
N2828 C2824 1.427 . S
N2828 C2825 1.384 . S
N2829 C2821 1.427 . S
N2829 C2827 1.384 . S
H2830 C2836 0.930 . S
H2831 C2840 0.930 . S
H2832 C2845 0.929 . S
H2833 C2843 0.929 . S
H2834 C2838 0.929 . S
H2835 C2844 0.929 . S
C2836 H2830 0.930 . S
C2836 C2837 1.367 . S
C2836 C2844 1.378 . S
C2837 C2836 1.367 . S
C2837 C2845 1.433 . S
C2838 H2834 0.929 . S
C2838 C2840 1.378 . S
C2838 C2842 1.350 . S
C2839 C2842 1.463 . S
C2839 C2844 1.350 . S
C2839 N2847 1.427 . S
C2840 H2831 0.930 . S
C2840 C2838 1.378 . S
C2840 C2841 1.367 . S
C2841 C2840 1.367 . S
C2841 C2843 1.433 . S
C2842 C2838 1.350 . S
C2842 C2839 1.463 . S
C2842 N2846 1.427 . S
C2843 H2833 0.929 . S
C2843 C2841 1.433 . S
C2843 N2846 1.384 . S
C2844 H2835 0.929 . S
C2844 C2836 1.378 . S
C2844 C2839 1.350 . S
C2845 H2832 0.929 . S
C2845 C2837 1.433 . S
C2845 N2847 1.384 . S
N2846 C2842 1.427 . S
N2846 C2843 1.384 . S
N2847 C2839 1.427 . S
N2847 C2845 1.384 . S
C1703 C675 1.717 . S
C1707 C38 1.724 . S
C1721 C1576 1.711 . S
C1725 C91 1.719 . S
C1739 C781 1.713 . S
C1743 C144 1.720 . S
C1757 C1682 1.714 . S
C1761 C197 1.721 . S
C1775 C463 1.711 . S
C1779 C250 1.719 . S
C1793 C303 1.724 . S
C1797 C1364 1.718 . S
C1811 C356 1.721 . S
C1815 C569 1.714 . S
C1829 C1470 1.716 . S
C1833 C409 1.723 . S
C1847 C251 1.715 . S
C1851 C462 1.724 . S
C1865 C1152 1.719 . S
C1869 C515 1.727 . S
C1883 C357 1.718 . S
C1887 C568 1.725 . S
C1901 C1258 1.721 . S
C1905 C621 1.728 . S
C1919 C674 1.728 . S
C1923 C39 1.721 . S
C1937 C727 1.724 . S
C1941 C940 1.715 . S
C1955 C145 1.719 . S
C1959 C780 1.727 . S
C1973 C833 1.724 . S
C1977 C1046 1.716 . S
C1991 C1523 1.717 . S
C1995 C886 1.723 . S
C2009 C728 1.712 . S
C2013 C939 1.721 . S
C2027 C1629 1.711 . S
C2031 C992 1.719 . S
C2045 C1045 1.724 . S
C2049 C834 1.718 . S
C2063 C1098 1.721 . S
C2067 C1311 1.712 . S
C2081 C1151 1.724 . S
C2085 C516 1.718 . S
C2099 C1417 1.711 . S
C2103 C1204 1.719 . S
C2117 C622 1.711 . S
C2121 C1257 1.719 . S
C2135 C1099 1.718 . S
C2139 C1310 1.726 . S
C2153 C1363 1.724 . S
C2157 C304 1.715 . S
C2171 C1416 1.723 . S
C2175 C1205 1.714 . S
C2189 C1469 1.724 . S
C2193 C410 1.715 . S
C2207 C887 1.721 . S
C2211 C1522 1.728 . S
C2225 C92 1.721 . S
C2229 C1575 1.728 . S
C2243 C993 1.719 . S
C2247 C1628 1.726 . S
C2261 C1681 1.725 . S
C2265 C198 1.716 . S
C2279 C29 2.350 . S
C2283 C453 2.363 . S
C2297 C82 2.346 . S
C2301 C1354 2.359 . S
C2315 C559 2.359 . S
C2319 C135 2.346 . S
C2333 C188 2.351 . S
C2337 C1460 2.364 . S
C2351 C241 2.348 . S
C2355 C665 2.361 . S
C2369 C1566 2.361 . S
C2373 C294 2.349 . S
C2387 C771 2.362 . S
C2391 C347 2.349 . S
C2405 C400 2.351 . S
C2409 C1672 2.364 . S
C2423 C506 2.359 . S
C2427 C930 2.346 . S
C2441 C612 2.366 . S
C2445 C1036 2.354 . S
C2459 C718 2.357 . S
C2463 C1142 2.344 . S
C2477 C1248 2.355 . S
C2481 C824 2.367 . S
C2495 C877 2.346 . S
C2499 C1301 2.359 . S
C2513 C983 2.346 . S
C2517 C1407 2.359 . S
C2531 C1089 2.351 . S
C2535 C1513 2.364 . S
C2549 C1619 2.357 . S
C2553 C1195 2.344 . S
C2567 C22 2.126 . S
C2571 C393 2.127 . S
C2585 C75 2.123 . S
C2589 C234 2.123 . S
C2603 C287 2.128 . S
C2607 C128 2.122 . S
C2621 C340 2.123 . S
C2625 C181 2.128 . S
C2639 C817 2.121 . S
C2643 C446 2.119 . S
C2657 C658 2.116 . S
C2661 C499 2.118 . S
C2675 C711 2.122 . S
C2679 C552 2.118 . S
C2693 C764 2.115 . S
C2697 C605 2.121 . S
C2711 C870 2.127 . S
C2715 C1241 2.126 . S
C2729 C1082 2.122 . S
C2733 C923 2.128 . S
C2747 C1135 2.122 . S
C2751 C976 2.128 . S
C2765 C1188 2.125 . S
C2769 C1029 2.128 . S
C2783 C1665 2.115 . S
C2787 C1294 2.120 . S
C2801 C1347 2.121 . S
C2805 C1506 2.120 . S
C2819 C1400 2.121 . S
C2823 C1559 2.115 . S
C2837 C1612 2.116 . S
C2841 C1453 2.118 . S
