# Generated by pormake.
# Topology can, (4)-cn, num edge types: 1
# Building blocks:
#     Node 0, Type 0, BuildingBlock: UXUYUI_clean_sbu_0, # of connection points: 4
#     Node 1, Type 0, BuildingBlock: UXUYUI_clean_sbu_0, # of connection points: 4
#     Node 2, Type 0, BuildingBlock: UXUYUI_clean_sbu_0, # of connection points: 4
#     Node 3, Type 0, BuildingBlock: UXUYUI_clean_sbu_0, # of connection points: 4
#     Node 4, Type 0, BuildingBlock: UXUYUI_clean_sbu_0, # of connection points: 4
#     Node 5, Type 0, BuildingBlock: UXUYUI_clean_sbu_0, # of connection points: 4
#     Node 6, Type 0, BuildingBlock: UXUYUI_clean_sbu_0, # of connection points: 4
#     Node 7, Type 0, BuildingBlock: UXUYUI_clean_sbu_0, # of connection points: 4
#     Node 8, Type 0, BuildingBlock: UXUYUI_clean_sbu_0, # of connection points: 4
#     Node 9, Type 0, BuildingBlock: UXUYUI_clean_sbu_0, # of connection points: 4
#     Node 10, Type 0, BuildingBlock: UXUYUI_clean_sbu_0, # of connection points: 4
#     Node 11, Type 0, BuildingBlock: UXUYUI_clean_sbu_0, # of connection points: 4
#     Edge 12, Type (0, 0), BuildingBlock: ZUJKAS_clean_linker_0, # of connection points: 2
#     Edge 13, Type (0, 0), BuildingBlock: ZUJKAS_clean_linker_0, # of connection points: 2
#     Edge 14, Type (0, 0), BuildingBlock: ZUJKAS_clean_linker_0, # of connection points: 2
#     Edge 15, Type (0, 0), BuildingBlock: ZUJKAS_clean_linker_0, # of connection points: 2
#     Edge 16, Type (0, 0), BuildingBlock: ZUJKAS_clean_linker_0, # of connection points: 2
#     Edge 17, Type (0, 0), BuildingBlock: ZUJKAS_clean_linker_0, # of connection points: 2
#     Edge 18, Type (0, 0), BuildingBlock: ZUJKAS_clean_linker_0, # of connection points: 2
#     Edge 19, Type (0, 0), BuildingBlock: ZUJKAS_clean_linker_0, # of connection points: 2
#     Edge 20, Type (0, 0), BuildingBlock: ZUJKAS_clean_linker_0, # of connection points: 2
#     Edge 21, Type (0, 0), BuildingBlock: ZUJKAS_clean_linker_0, # of connection points: 2
#     Edge 22, Type (0, 0), BuildingBlock: ZUJKAS_clean_linker_0, # of connection points: 2
#     Edge 23, Type (0, 0), BuildingBlock: ZUJKAS_clean_linker_0, # of connection points: 2
#     Edge 24, Type (0, 0), BuildingBlock: ZUJKAS_clean_linker_0, # of connection points: 2
#     Edge 25, Type (0, 0), BuildingBlock: ZUJKAS_clean_linker_0, # of connection points: 2
#     Edge 26, Type (0, 0), BuildingBlock: ZUJKAS_clean_linker_0, # of connection points: 2
#     Edge 27, Type (0, 0), BuildingBlock: ZUJKAS_clean_linker_0, # of connection points: 2
#     Edge 28, Type (0, 0), BuildingBlock: ZUJKAS_clean_linker_0, # of connection points: 2
#     Edge 29, Type (0, 0), BuildingBlock: ZUJKAS_clean_linker_0, # of connection points: 2
#     Edge 30, Type (0, 0), BuildingBlock: ZUJKAS_clean_linker_0, # of connection points: 2
#     Edge 31, Type (0, 0), BuildingBlock: ZUJKAS_clean_linker_0, # of connection points: 2
#     Edge 32, Type (0, 0), BuildingBlock: ZUJKAS_clean_linker_0, # of connection points: 2
#     Edge 33, Type (0, 0), BuildingBlock: ZUJKAS_clean_linker_0, # of connection points: 2
#     Edge 34, Type (0, 0), BuildingBlock: ZUJKAS_clean_linker_0, # of connection points: 2
#     Edge 35, Type (0, 0), BuildingBlock: ZUJKAS_clean_linker_0, # of connection points: 2
# Relax obj value: 0.136
# Max RMSD: 0.111
# Mean RMSD: 0.111
data_MOF--net-can--node1-UXUYUI_clean_sbu_0--edge1-ZUJKAS_clean_linker_0
_symmetry_space_group_name_H-M    P1
_symmetry_Int_Tables_number       1
_symmetry_cell_setting            triclinic
loop_
_symmetry_equiv_pos_as_xyz
'x, y, z'
_cell_length_a     103.50789
_cell_length_b     103.51986
_cell_length_c     45.310558
_cell_angle_alpha  90.005044
_cell_angle_beta   89.985873
_cell_angle_gamma 120.00186
loop_
_atom_site_label
_atom_site_type_symbol
_atom_site_fract_x
_atom_site_fract_y
_atom_site_fract_z
_atom_type_partial_charge
Li0 Li 0.07935 0.42556 0.25154 0.0
Li1 Li 0.0669 0.40165 0.27691 0.0
Li2 Li 0.09027 0.40902 0.24933 0.0
Li3 Li 0.06649 0.40099 0.22393 0.0
C4 C 0.09993 0.42977 0.29725 0.0
N5 N 0.12582 0.4519 0.32283 0.0
C6 C 0.10069 0.43196 0.32778 0.0
C7 C 0.11237 0.43875 0.27978 0.0
C8 C 0.11387 0.44324 0.34029 0.0
C9 C 0.12535 0.44989 0.2931 0.0
C10 C 0.04532 0.4071 0.2652 0.0
C11 C 0.02011 0.38984 0.28037 0.0
N12 N 0.02025 0.4006 0.29784 0.0
C13 C 0.04519 0.41803 0.2831 0.0
C14 C 0.03267 0.39293 0.26361 0.0
C15 C 0.03241 0.41451 0.29949 0.0
C16 C 0.08071 0.45086 0.22615 0.0
N17 N 0.08304 0.44544 0.25166 0.0
C18 C 0.08923 0.46805 0.27696 0.0
C19 C 0.08715 0.45365 0.27687 0.0
C20 C 0.08689 0.47399 0.25094 0.0
C21 C 0.08263 0.4652 0.22524 0.0
H22 H 0.07718 0.44396 0.20657 0.0
H23 H 0.08857 0.44896 0.29706 0.0
C24 C 0.04779 0.37781 0.31564 0.0
N25 N 0.05611 0.39284 0.31208 0.0
C26 C 0.03947 0.37186 0.34142 0.0
C27 C 0.04866 0.39696 0.35936 0.0
C28 C 0.05682 0.4024 0.33337 0.0
C29 C 0.03975 0.3815 0.36357 0.0
H30 H 0.04748 0.37046 0.29839 0.0
H31 H 0.06357 0.41431 0.3299 0.0
C32 C 0.0958 0.42654 0.19401 0.0
N33 N 0.11525 0.44165 0.14824 0.0
C34 C 0.09528 0.41906 0.16795 0.0
C35 C 0.10616 0.44176 0.19664 0.0
C36 C 0.10522 0.42688 0.14511 0.0
C37 C 0.11591 0.44919 0.1733 0.0
C38 C 0.06689 0.37575 0.23793 0.0
C39 C 0.07715 0.3721 0.22619 0.0
C40 C 0.05162 0.36556 0.23585 0.0
C41 C 0.07192 0.35832 0.21227 0.0
C42 C 0.04684 0.35191 0.22172 0.0
N43 N 0.057 0.34861 0.21032 0.0
C44 C 0.1118 0.40385 0.27489 0.0
C45 C 0.1176 0.41277 0.22574 0.0
C46 C 0.12502 0.40338 0.27701 0.0
N47 N 0.1084 0.40855 0.24957 0.0
C48 C 0.13095 0.41256 0.22694 0.0
C49 C 0.13481 0.40785 0.25285 0.0
H50 H 0.10426 0.40056 0.29349 0.0
H51 H 0.11465 0.4163 0.20576 0.0
C52 C 0.04392 0.39432 0.18239 0.0
N53 N 0.05521 0.39173 0.18922 0.0
C54 C 0.03582 0.38866 0.15634 0.0
C55 C 0.05093 0.37754 0.14504 0.0
C56 C 0.05881 0.38351 0.17118 0.0
C57 C 0.03936 0.38022 0.1371 0.0
H58 H 0.04142 0.40109 0.19689 0.0
H59 H 0.06799 0.38182 0.17672 0.0
O60 O 0.08709 0.41877 0.28472 0.0
O61 O 0.05787 0.41021 0.24964 0.0
O62 O 0.08606 0.41907 0.21654 0.0
O63 O 0.07181 0.38917 0.25167 0.0
H64 H 0.09119 0.42504 0.34166 0.0
H65 H 0.11206 0.43703 0.25625 0.0
H66 H 0.11459 0.44509 0.36387 0.0
H67 H 0.13506 0.45692 0.27982 0.0
H68 H 0.01027 0.37888 0.27953 0.0
H69 H 0.05491 0.42905 0.28458 0.0
H70 H 0.03259 0.38438 0.24977 0.0
H71 H 0.03217 0.42281 0.31361 0.0
H72 H 0.09261 0.47445 0.29723 0.0
H73 H 0.08042 0.46919 0.20483 0.0
H74 H 0.03268 0.35987 0.34373 0.0
H75 H 0.04937 0.40479 0.37604 0.0
H76 H 0.08743 0.40731 0.16549 0.0
H77 H 0.10668 0.44784 0.21641 0.0
H78 H 0.10497 0.42119 0.12491 0.0
H79 H 0.12399 0.46095 0.1751 0.0
H80 H 0.08901 0.37983 0.22769 0.0
H81 H 0.04354 0.36823 0.24474 0.0
H82 H 0.07972 0.35536 0.20299 0.0
H83 H 0.03505 0.34396 0.21977 0.0
H84 H 0.12765 0.39978 0.29746 0.0
H85 H 0.1381 0.41589 0.20767 0.0
H86 H 0.02718 0.39126 0.15094 0.0
H87 H 0.05397 0.37097 0.13112 0.0
Li88 Li 0.65122 0.07858 0.74738 0.0
Li89 Li 0.6619 0.06547 0.77376 0.0
Li90 Li 0.6786 0.08928 0.74678 0.0
Li91 Li 0.66311 0.06583 0.72083 0.0
C92 C 0.66472 0.09644 0.79842 0.0
N93 N 0.66368 0.11785 0.83322 0.0
C94 C 0.65867 0.09286 0.82684 0.0
C95 C 0.6705 0.11101 0.78797 0.0
C96 C 0.65816 0.10381 0.84402 0.0
C97 C 0.66981 0.12165 0.80582 0.0
C98 C 0.63441 0.04426 0.75918 0.0
C99 C 0.62568 0.019 0.77524 0.0
N100 N 0.61361 0.01869 0.7879 0.0
C101 C 0.62184 0.04363 0.7721 0.0
C102 C 0.63628 0.0318 0.7605 0.0
C103 C 0.61148 0.03062 0.7866 0.0
C104 C 0.62983 0.0835 0.71953 0.0
N105 N 0.63525 0.08268 0.74635 0.0
C106 C 0.61686 0.08633 0.7708 0.0
C107 C 0.62901 0.08397 0.77176 0.0
C108 C 0.61102 0.08726 0.7434 0.0
C109 C 0.61772 0.08589 0.71752 0.0
H110 H 0.63485 0.08218 0.69966 0.0
H111 H 0.63315 0.08274 0.79279 0.0
C112 C 0.66931 0.0493 0.81446 0.0
N113 N 0.65968 0.05427 0.80849 0.0
C114 C 0.66757 0.04103 0.84003 0.0
C115 C 0.64604 0.04321 0.85268 0.0
C116 C 0.64825 0.05148 0.82703 0.0
C117 C 0.65576 0.03785 0.85946 0.0
H118 H 0.67837 0.05178 0.79943 0.0
H119 H 0.64085 0.05571 0.82188 0.0
C120 C 0.66852 0.09762 0.69525 0.0
N121 N 0.6755 0.12188 0.65942 0.0
C122 C 0.67441 0.09852 0.66705 0.0
C123 C 0.66591 0.10893 0.70493 0.0
C124 C 0.67795 0.11091 0.64935 0.0
C125 C 0.66957 0.12113 0.68658 0.0
C126 C 0.68753 0.06503 0.73512 0.0
C127 C 0.70106 0.07465 0.72121 0.0
C128 C 0.68204 0.04965 0.7345 0.0
C129 C 0.70874 0.06868 0.70646 0.0
C130 C 0.69004 0.04412 0.71948 0.0
N131 N 0.70311 0.05367 0.70587 0.0
C132 C 0.70348 0.11321 0.77397 0.0
C133 C 0.7045 0.1136 0.72172 0.0
C134 C 0.71718 0.12644 0.77546 0.0
N135 N 0.69735 0.10721 0.74737 0.0
C136 C 0.71823 0.12681 0.72215 0.0
C137 C 0.7247 0.13345 0.74929 0.0
H138 H 0.69767 0.10775 0.79406 0.0
H139 H 0.69969 0.10832 0.70091 0.0
C140 C 0.64928 0.0417 0.68119 0.0
N141 N 0.66191 0.05492 0.68622 0.0
C142 C 0.6477 0.0338 0.65522 0.0
C143 C 0.67221 0.05324 0.64016 0.0
C144 C 0.67332 0.06074 0.66646 0.0
C145 C 0.6592 0.03964 0.63415 0.0
H146 H 0.64028 0.03744 0.69703 0.0
H147 H 0.68321 0.07132 0.67093 0.0
O148 O 0.6653 0.08582 0.78135 0.0
O149 O 0.6448 0.057 0.74527 0.0
O150 O 0.66496 0.08552 0.71282 0.0
O151 O 0.67976 0.07066 0.74937 0.0
H152 H 0.65435 0.08174 0.83555 0.0
H153 H 0.6757 0.11416 0.76653 0.0
H154 H 0.65341 0.10114 0.86595 0.0
H155 H 0.67422 0.13295 0.79794 0.0
H156 H 0.62705 0.00933 0.77662 0.0
H157 H 0.62014 0.05311 0.77111 0.0
H158 H 0.64586 0.03205 0.75042 0.0
H159 H 0.60175 0.03001 0.79686 0.0
H160 H 0.61184 0.08697 0.79131 0.0
H161 H 0.61365 0.08663 0.69593 0.0
H162 H 0.67527 0.03705 0.84441 0.0
H163 H 0.63694 0.04123 0.86729 0.0
H164 H 0.67631 0.0898 0.65894 0.0
H165 H 0.66087 0.10821 0.72617 0.0
H166 H 0.68263 0.11179 0.62759 0.0
H167 H 0.66763 0.12997 0.69387 0.0
H168 H 0.70554 0.08658 0.72165 0.0
H169 H 0.67167 0.04207 0.74536 0.0
H170 H 0.71918 0.07599 0.69546 0.0
H171 H 0.68586 0.03223 0.71865 0.0
H172 H 0.72172 0.13121 0.79686 0.0
H173 H 0.7238 0.13164 0.70147 0.0
H174 H 0.63738 0.02348 0.65126 0.0
H175 H 0.68139 0.05807 0.62462 0.0
Li176 Li 0.59659 0.66355 0.27762 0.0
Li177 Li 0.57317 0.65205 0.25026 0.0
Li178 Li 0.59825 0.66424 0.22442 0.0
Li179 Li 0.58936 0.67949 0.24894 0.0
C180 C 0.59225 0.63681 0.26453 0.0
N181 N 0.59942 0.61817 0.29512 0.0
C182 C 0.58151 0.6253 0.28194 0.0
C183 C 0.60656 0.63871 0.26233 0.0
C184 C 0.58537 0.61602 0.29732 0.0
C185 C 0.60999 0.62921 0.27806 0.0
C186 C 0.56698 0.66601 0.29654 0.0
C187 C 0.54578 0.66972 0.29383 0.0
N188 N 0.54239 0.6652 0.32237 0.0
C189 C 0.56336 0.66154 0.32593 0.0
C190 C 0.55818 0.67023 0.28043 0.0
C191 C 0.55086 0.66115 0.33856 0.0
C192 C 0.62009 0.66993 0.31813 0.0
N193 N 0.60515 0.66173 0.31331 0.0
C194 C 0.60138 0.64982 0.36018 0.0
C195 C 0.59578 0.65188 0.3337 0.0
C196 C 0.61678 0.65803 0.36573 0.0
C197 C 0.62619 0.6682 0.34431 0.0
H198 H 0.62727 0.67783 0.30173 0.0
H199 H 0.58395 0.64549 0.32921 0.0
C200 C 0.5469 0.63034 0.22243 0.0
N201 N 0.55332 0.63579 0.24911 0.0
C202 C 0.53252 0.61802 0.22077 0.0
C203 C 0.53174 0.61701 0.27409 0.0
C204 C 0.5461 0.6294 0.27471 0.0
C205 C 0.5248 0.61113 0.24685 0.0
H206 H 0.55305 0.63543 0.20242 0.0
H207 H 0.5516 0.63372 0.29561 0.0
C208 C 0.62325 0.6898 0.24129 0.0
N209 N 0.65147 0.70731 0.21797 0.0
C210 C 0.62759 0.70404 0.23041 0.0
C211 C 0.63333 0.68454 0.24059 0.0
C212 C 0.64189 0.7127 0.21865 0.0
C213 C 0.64752 0.69353 0.22862 0.0
C214 C 0.57376 0.66941 0.19332 0.0
C215 C 0.58181 0.67612 0.16761 0.0
C216 C 0.55904 0.66638 0.19585 0.0
C217 C 0.57514 0.68002 0.14519 0.0
C218 C 0.55275 0.67044 0.17294 0.0
N219 N 0.56087 0.67714 0.14832 0.0
C220 C 0.60496 0.64851 0.18297 0.0
C221 C 0.61754 0.67453 0.17393 0.0
C222 C 0.61108 0.64615 0.15751 0.0
N223 N 0.60823 0.66251 0.19062 0.0
C224 C 0.62407 0.67271 0.14849 0.0
C225 C 0.62075 0.65834 0.13975 0.0
H226 H 0.5973 0.63911 0.19631 0.0
H227 H 0.61968 0.68551 0.17996 0.0
C228 C 0.58848 0.70389 0.27418 0.0
N229 N 0.58963 0.698 0.24815 0.0
C230 C 0.58846 0.71735 0.27465 0.0
C231 C 0.59126 0.71869 0.22159 0.0
C232 C 0.59123 0.70521 0.22217 0.0
C233 C 0.58978 0.7249 0.24806 0.0
H234 H 0.58753 0.69808 0.29461 0.0
H235 H 0.59274 0.70066 0.20194 0.0
O236 O 0.58878 0.64622 0.24983 0.0
O237 O 0.57911 0.6663 0.28377 0.0
O238 O 0.60928 0.68117 0.25285 0.0
O239 O 0.58011 0.66539 0.21537 0.0
H240 H 0.57037 0.62364 0.28381 0.0
H241 H 0.61493 0.64744 0.24864 0.0
H242 H 0.57721 0.60714 0.31107 0.0
H243 H 0.62105 0.63061 0.2767 0.0
H244 H 0.53889 0.67295 0.28157 0.0
H245 H 0.57011 0.65836 0.33886 0.0
H246 H 0.56101 0.67404 0.25795 0.0
H247 H 0.54789 0.65765 0.36123 0.0
H248 H 0.59375 0.64171 0.3759 0.0
H249 H 0.63811 0.67487 0.34788 0.0
H250 H 0.52768 0.61368 0.19932 0.0
H251 H 0.52616 0.61206 0.29471 0.0
H252 H 0.62 0.70836 0.23103 0.0
H253 H 0.63019 0.67359 0.24898 0.0
H254 H 0.64537 0.72372 0.21006 0.0
H255 H 0.65539 0.68956 0.22777 0.0
H256 H 0.59315 0.67845 0.1651 0.0
H257 H 0.55243 0.66078 0.2151 0.0
H258 H 0.5813 0.68534 0.12531 0.0
H259 H 0.54139 0.66819 0.17468 0.0
H260 H 0.6079 0.63483 0.15142 0.0
H261 H 0.63155 0.68247 0.13574 0.0
H262 H 0.58725 0.72171 0.29554 0.0
H263 H 0.59267 0.72432 0.20068 0.0
Li264 Li 0.91986 0.57341 0.75086 0.0
Li265 Li 0.93284 0.59763 0.77549 0.0
Li266 Li 0.90944 0.58957 0.74949 0.0
Li267 Li 0.93248 0.59666 0.72272 0.0
C268 C 0.90742 0.56858 0.80304 0.0
N269 N 0.89703 0.5438 0.83902 0.0
C270 C 0.91591 0.56868 0.82713 0.0
C271 C 0.89363 0.5559 0.79733 0.0
C272 C 0.91045 0.55604 0.84506 0.0
C273 C 0.88858 0.54348 0.81573 0.0
C274 C 0.95316 0.58986 0.7341 0.0
C275 C 0.97747 0.60533 0.71252 0.0
N276 N 0.9764 0.59313 0.69884 0.0
C277 C 0.95232 0.57748 0.71987 0.0
C278 C 0.96586 0.6039 0.7305 0.0
C279 C 0.96419 0.57937 0.70215 0.0
C280 C 0.90638 0.54325 0.73241 0.0
N281 N 0.91583 0.55339 0.75234 0.0
C282 C 0.92086 0.53529 0.77384 0.0
C283 C 0.92309 0.54974 0.77275 0.0
C284 C 0.91126 0.5246 0.75338 0.0
C285 C 0.90392 0.5287 0.73253 0.0
H286 H 0.90095 0.54652 0.71612 0.0
H287 H 0.9308 0.55814 0.78788 0.0
C288 C 0.93689 0.61016 0.83234 0.0
N289 N 0.94396 0.60766 0.80966 0.0
C290 C 0.94459 0.61686 0.85831 0.0
C291 C 0.96674 0.61845 0.83687 0.0
C292 C 0.95859 0.61167 0.8114 0.0
C293 C 0.9597 0.62097 0.86094 0.0
H294 H 0.92518 0.60668 0.83041 0.0
H295 H 0.96389 0.60942 0.79317 0.0
C296 C 0.90076 0.5759 0.69817 0.0
N297 N 0.8766 0.57037 0.66338 0.0
C298 C 0.90276 0.58458 0.67312 0.0
C299 C 0.88648 0.56433 0.70542 0.0
C300 C 0.89041 0.58162 0.65582 0.0
C301 C 0.87441 0.56175 0.6876 0.0
C302 C 0.93278 0.62212 0.7635 0.0
C303 C 0.92269 0.62455 0.77971 0.0
C304 C 0.94802 0.63256 0.76476 0.0
C305 C 0.92805 0.63737 0.79706 0.0
C306 C 0.95293 0.64522 0.78243 0.0
N307 N 0.94293 0.64735 0.79808 0.0
C308 C 0.88106 0.58316 0.7701 0.0
C309 C 0.88964 0.59845 0.72745 0.0
C310 C 0.86775 0.58347 0.76964 0.0
N311 N 0.89157 0.59044 0.749 0.0
C312 C 0.87641 0.59891 0.72591 0.0
C313 C 0.86526 0.59131 0.74717 0.0
H314 H 0.88301 0.57709 0.78726 0.0
H315 H 0.89835 0.60441 0.71135 0.0
C316 C 0.94333 0.59569 0.66678 0.0
N317 N 0.94322 0.60518 0.68736 0.0
C318 C 0.95154 0.60124 0.64088 0.0
C319 C 0.95901 0.62623 0.65737 0.0
C320 C 0.95069 0.62019 0.68309 0.0
C321 C 0.95961 0.61671 0.63601 0.0
H322 H 0.93711 0.58379 0.67069 0.0
H323 H 0.9503 0.62745 0.69974 0.0
O324 O 0.91267 0.58075 0.78492 0.0
O325 O 0.94152 0.5883 0.75106 0.0
O326 O 0.91267 0.57879 0.71568 0.0
O327 O 0.92779 0.60947 0.74692 0.0
H328 H 0.92666 0.57833 0.83177 0.0
H329 H 0.88697 0.5556 0.77866 0.0
H330 H 0.91693 0.55593 0.8637 0.0
H331 H 0.87797 0.53356 0.81146 0.0
H332 H 0.9873 0.61614 0.70932 0.0
H333 H 0.94256 0.56655 0.72221 0.0
H334 H 0.96662 0.61365 0.74096 0.0
H335 H 0.96366 0.56989 0.69091 0.0
H336 H 0.92693 0.53265 0.78993 0.0
H337 H 0.89639 0.52077 0.71645 0.0
H338 H 0.93866 0.61839 0.87642 0.0
H339 H 0.97841 0.62161 0.83773 0.0
H340 H 0.91371 0.59363 0.66726 0.0
H341 H 0.88472 0.55756 0.72483 0.0
H342 H 0.89178 0.58829 0.63646 0.0
H343 H 0.86329 0.55291 0.69308 0.0
H344 H 0.91087 0.61655 0.77913 0.0
H345 H 0.95599 0.63077 0.75263 0.0
H346 H 0.92038 0.63937 0.80981 0.0
H347 H 0.96471 0.65333 0.78379 0.0
H348 H 0.85938 0.57744 0.78637 0.0
H349 H 0.87498 0.60525 0.7085 0.0
H350 H 0.95151 0.5935 0.62475 0.0
H351 H 0.96512 0.63823 0.6545 0.0
Li352 Li 0.33498 0.9331 0.27814 0.0
Li353 Li 0.34589 0.91966 0.25347 0.0
Li354 Li 0.33425 0.93167 0.2236 0.0
Li355 Li 0.31924 0.90888 0.25164 0.0
C356 C 0.36237 0.95583 0.25205 0.0
N357 N 0.38357 0.98577 0.25567 0.0
C358 C 0.37663 0.96025 0.26287 0.0
C359 C 0.359 0.96666 0.24254 0.0
C360 C 0.38716 0.97543 0.26471 0.0
C361 C 0.36984 0.98173 0.24467 0.0
C362 C 0.33759 0.90686 0.30636 0.0
C363 C 0.34328 0.88759 0.31874 0.0
N364 N 0.34987 0.89494 0.34413 0.0
C365 C 0.34429 0.91416 0.33271 0.0
C366 C 0.33695 0.8934 0.29943 0.0
C367 C 0.35048 0.90798 0.35147 0.0
C368 C 0.32427 0.94375 0.32429 0.0
N369 N 0.33671 0.94481 0.3118 0.0
C370 C 0.3521 0.96185 0.34913 0.0
C371 C 0.35044 0.95355 0.32376 0.0
C372 C 0.33948 0.96103 0.36256 0.0
C373 C 0.3254 0.95184 0.34983 0.0
H374 H 0.31346 0.93651 0.31458 0.0
H375 H 0.36006 0.95374 0.31414 0.0
C376 C 0.3645 0.90895 0.23221 0.0
N377 N 0.36226 0.9162 0.25488 0.0
C378 C 0.37698 0.9071 0.23208 0.0
C379 C 0.38445 0.92003 0.27885 0.0
C380 C 0.3719 0.92169 0.27797 0.0
C381 C 0.38724 0.91281 0.25551 0.0
H382 H 0.35678 0.90489 0.2139 0.0
H383 H 0.36995 0.92758 0.29553 0.0
C384 C 0.31058 0.93524 0.24586 0.0
N385 N 0.29635 0.95134 0.23503 0.0
C386 C 0.29632 0.92827 0.23339 0.0
C387 C 0.31747 0.95035 0.25336 0.0
C388 C 0.28935 0.93661 0.22792 0.0
C389 C 0.31013 0.95831 0.24758 0.0
C390 C 0.32478 0.89981 0.20074 0.0
C391 C 0.31776 0.90099 0.17537 0.0
C392 C 0.32326 0.88603 0.20836 0.0
C393 C 0.30912 0.88829 0.15829 0.0
C394 C 0.3145 0.87358 0.19074 0.0
N395 N 0.30766 0.87496 0.1663 0.0
C396 C 0.3503 0.9495 0.17627 0.0
C397 C 0.32459 0.94183 0.17374 0.0
C398 C 0.35297 0.95717 0.14966 0.0
N399 N 0.33633 0.94214 0.18784 0.0
C400 C 0.32673 0.94932 0.14694 0.0
C401 C 0.34108 0.95709 0.13451 0.0
H402 H 0.35939 0.94936 0.18772 0.0
H403 H 0.31351 0.9355 0.18286 0.0
C404 C 0.29759 0.88084 0.27429 0.0
N405 N 0.30069 0.89072 0.25193 0.0
C406 C 0.28418 0.86728 0.27451 0.0
C407 C 0.27733 0.87441 0.22887 0.0
C408 C 0.29085 0.88784 0.2296 0.0
C409 C 0.27387 0.86391 0.25151 0.0
H410 H 0.30554 0.88346 0.29191 0.0
H411 H 0.29355 0.89594 0.21222 0.0
O412 O 0.35194 0.94098 0.25005 0.0
O413 O 0.33161 0.91283 0.28756 0.0
O414 O 0.31754 0.92719 0.2514 0.0
O415 O 0.3331 0.91207 0.21799 0.0
H416 H 0.37953 0.95205 0.26997 0.0
H417 H 0.34824 0.9635 0.23314 0.0
H418 H 0.3982 0.97899 0.27326 0.0
H419 H 0.36736 0.99021 0.23741 0.0
H420 H 0.34296 0.87723 0.31353 0.0
H421 H 0.34476 0.9245 0.3386 0.0
H422 H 0.33172 0.88755 0.27926 0.0
H423 H 0.35577 0.91355 0.37186 0.0
H424 H 0.36311 0.96849 0.35863 0.0
H425 H 0.3154 0.9509 0.3595 0.0
H426 H 0.37879 0.90167 0.21341 0.0
H427 H 0.39193 0.92444 0.29754 0.0
H428 H 0.29071 0.91655 0.22782 0.0
H429 H 0.32827 0.95584 0.26389 0.0
H430 H 0.27836 0.93137 0.21806 0.0
H431 H 0.31537 0.97002 0.25321 0.0
H432 H 0.31886 0.91157 0.16908 0.0
H433 H 0.32873 0.88494 0.22774 0.0
H434 H 0.30354 0.88902 0.13872 0.0
H435 H 0.31314 0.86283 0.1965 0.0
H436 H 0.36424 0.96316 0.14113 0.0
H437 H 0.3172 0.94873 0.13577 0.0
H438 H 0.282 0.85945 0.29226 0.0
H439 H 0.26962 0.87235 0.21095 0.0
Li440 Li 0.4245 0.34652 0.75151 0.0
Li441 Li 0.40066 0.33536 0.77789 0.0
Li442 Li 0.40906 0.31991 0.74997 0.0
Li443 Li 0.40043 0.33462 0.72332 0.0
C444 C 0.43021 0.33903 0.80352 0.0
N445 N 0.45519 0.35294 0.83908 0.0
C446 C 0.43008 0.34667 0.82884 0.0
C447 C 0.44298 0.3383 0.79648 0.0
C448 C 0.44284 0.35366 0.8465 0.0
C449 C 0.45552 0.34546 0.81467 0.0
C450 C 0.40368 0.3621 0.75189 0.0
C451 C 0.38379 0.36768 0.74633 0.0
N452 N 0.3931 0.38185 0.75576 0.0
C453 C 0.4131 0.37679 0.76112 0.0
C454 C 0.38895 0.35757 0.74412 0.0
C455 C 0.40753 0.38657 0.7631 0.0
C456 C 0.4542 0.36431 0.73102 0.0
N457 N 0.4443 0.36296 0.75219 0.0
C458 C 0.46239 0.38585 0.7745 0.0
C459 C 0.44811 0.37337 0.77376 0.0
C460 C 0.47283 0.38764 0.75275 0.0
C461 C 0.46864 0.37661 0.73094 0.0
H462 H 0.45083 0.35596 0.71392 0.0
H463 H 0.44 0.37201 0.79032 0.0
C464 C 0.3808 0.32362 0.82591 0.0
N465 N 0.39085 0.33651 0.8124 0.0
C466 C 0.37368 0.32404 0.85178 0.0
C467 C 0.38747 0.35098 0.8494 0.0
C468 C 0.39436 0.35004 0.8237 0.0
C469 C 0.37699 0.33787 0.86381 0.0
H470 H 0.37838 0.31302 0.81661 0.0
H471 H 0.40276 0.36011 0.81319 0.0
C472 C 0.4227 0.32553 0.69803 0.0
N473 N 0.43006 0.30854 0.66225 0.0
C474 C 0.4146 0.3191 0.67224 0.0
C475 C 0.43467 0.32347 0.70542 0.0
C476 C 0.41847 0.31052 0.65448 0.0
C477 C 0.43817 0.31479 0.68712 0.0
C478 C 0.37381 0.31018 0.74756 0.0
C479 C 0.36691 0.29593 0.735 0.0
C480 C 0.36507 0.3162 0.75699 0.0
C481 C 0.35143 0.28814 0.73134 0.0
C482 C 0.34963 0.30806 0.75299 0.0
N483 N 0.34319 0.29432 0.7403 0.0
C484 C 0.41579 0.29839 0.77177 0.0
C485 C 0.402 0.29173 0.72714 0.0
C486 C 0.41599 0.28501 0.77173 0.0
N487 N 0.40892 0.30149 0.74961 0.0
C488 C 0.40195 0.27824 0.72618 0.0
C489 C 0.40902 0.27474 0.74868 0.0
H490 H 0.42112 0.3063 0.78947 0.0
H491 H 0.39657 0.29446 0.70987 0.0
C492 C 0.39669 0.35008 0.67682 0.0
N493 N 0.39105 0.33621 0.68856 0.0
C494 C 0.39061 0.35221 0.65109 0.0
C495 C 0.37326 0.32566 0.64946 0.0
C496 C 0.37964 0.32406 0.67536 0.0
C497 C 0.37873 0.3399 0.63707 0.0
H498 H 0.40601 0.35949 0.68739 0.0
H499 H 0.37564 0.31311 0.6846 0.0
O500 O 0.4179 0.33231 0.7857 0.0
O501 O 0.40901 0.35239 0.74983 0.0
O502 O 0.41895 0.33379 0.7159 0.0
O503 O 0.38897 0.3179 0.75147 0.0
H504 H 0.42028 0.34728 0.83472 0.0
H505 H 0.44325 0.33239 0.77705 0.0
H506 H 0.44292 0.35969 0.86608 0.0
H507 H 0.46552 0.34509 0.80936 0.0
H508 H 0.37241 0.36429 0.7404 0.0
H509 H 0.42459 0.3806 0.76682 0.0
H510 H 0.38164 0.34645 0.73593 0.0
H511 H 0.41468 0.39793 0.77041 0.0
H512 H 0.46522 0.394 0.7919 0.0
H513 H 0.47629 0.37766 0.71356 0.0
H514 H 0.36564 0.31368 0.86219 0.0
H515 H 0.39061 0.36187 0.85831 0.0
H516 H 0.40537 0.32063 0.66609 0.0
H517 H 0.44109 0.32841 0.72521 0.0
H518 H 0.41224 0.30541 0.63455 0.0
H519 H 0.44732 0.31301 0.6927 0.0
H520 H 0.37342 0.29096 0.72799 0.0
H521 H 0.37008 0.32695 0.76768 0.0
H522 H 0.34598 0.27716 0.72143 0.0
H523 H 0.34276 0.31263 0.76012 0.0
H524 H 0.42169 0.28281 0.78937 0.0
H525 H 0.39626 0.27057 0.70821 0.0
H526 H 0.39536 0.36333 0.64195 0.0
H527 H 0.36413 0.31589 0.6393 0.0
Li528 Li 0.59806 0.93156 0.27441 0.0
Li529 Li 0.59023 0.90921 0.24818 0.0
Li530 Li 0.59878 0.93326 0.22079 0.0
Li531 Li 0.57454 0.91995 0.24848 0.0
C532 C 0.62458 0.93539 0.25771 0.0
N533 N 0.65322 0.95173 0.27987 0.0
C534 C 0.62834 0.93125 0.28432 0.0
C535 C 0.63542 0.94781 0.24233 0.0
C536 C 0.64287 0.93967 0.29518 0.0
C537 C 0.64983 0.95593 0.2539 0.0
C538 C 0.57659 0.89908 0.29675 0.0
C539 C 0.56054 0.87251 0.30258 0.0
N540 N 0.56999 0.87242 0.3233 0.0
C541 C 0.58614 0.89871 0.31814 0.0
C542 C 0.56366 0.88587 0.28895 0.0
C543 C 0.5826 0.88513 0.33131 0.0
C544 C 0.59985 0.93791 0.33509 0.0
N545 N 0.60737 0.94301 0.30923 0.0
C546 C 0.62666 0.96459 0.33341 0.0
C547 C 0.62043 0.95621 0.30788 0.0
C548 C 0.61926 0.95945 0.36054 0.0
C549 C 0.60564 0.94593 0.36114 0.0
H550 H 0.58918 0.92772 0.33543 0.0
H551 H 0.62594 0.96036 0.28693 0.0
C552 C 0.58022 0.87951 0.22957 0.0
N553 N 0.59051 0.89093 0.24629 0.0
C554 C 0.57992 0.86588 0.22883 0.0
C555 C 0.60101 0.87613 0.26206 0.0
C556 C 0.60089 0.88954 0.26211 0.0
C557 C 0.59038 0.86405 0.24534 0.0
H558 H 0.5722 0.88094 0.21691 0.0
H559 H 0.60895 0.89876 0.27518 0.0
C560 C 0.59121 0.95274 0.26535 0.0
N561 N 0.59431 0.9755 0.30181 0.0
C562 C 0.58067 0.94989 0.28741 0.0
C563 C 0.6033 0.96716 0.26176 0.0
C564 C 0.58245 0.96155 0.30564 0.0
C565 C 0.60467 0.97852 0.28044 0.0
C566 C 0.56915 0.90861 0.19462 0.0
C567 C 0.57039 0.91712 0.1697 0.0
C568 C 0.55559 0.8957 0.20069 0.0
C569 C 0.558 0.91265 0.15142 0.0
C570 C 0.54344 0.89162 0.18191 0.0
N571 N 0.54489 0.90011 0.15788 0.0
C572 C 0.61526 0.93968 0.1681 0.0
C573 C 0.60752 0.95699 0.18088 0.0
C574 C 0.6218 0.94749 0.14212 0.0
N575 N 0.60832 0.94455 0.18675 0.0
C576 C 0.61397 0.96519 0.15528 0.0
C577 C 0.62116 0.96042 0.13544 0.0
H578 H 0.61559 0.92965 0.17334 0.0
H579 H 0.6016 0.96037 0.19579 0.0
C580 C 0.54488 0.90832 0.26943 0.0
N581 N 0.55485 0.91696 0.24843 0.0
C582 C 0.53053 0.90641 0.26971 0.0
C583 C 0.53707 0.92246 0.22697 0.0
C584 C 0.55131 0.92415 0.22765 0.0
C585 C 0.52648 0.91352 0.24824 0.0
H586 H 0.54811 0.90307 0.28619 0.0
H587 H 0.5596 0.93126 0.2117 0.0
O588 O 0.61045 0.92725 0.24653 0.0
O589 O 0.58006 0.91221 0.28302 0.0
O590 O 0.58989 0.94136 0.24788 0.0
O591 O 0.58112 0.91293 0.21302 0.0
H592 H 0.62008 0.92187 0.29684 0.0
H593 H 0.63275 0.95121 0.22174 0.0
H594 H 0.64589 0.93666 0.31586 0.0
H595 H 0.65831 0.96558 0.24226 0.0
H596 H 0.55063 0.86221 0.29658 0.0
H597 H 0.59629 0.90875 0.32423 0.0
H598 H 0.55623 0.88588 0.2722 0.0
H599 H 0.58994 0.88469 0.34777 0.0
H600 H 0.63717 0.97496 0.3319 0.0
H601 H 0.59934 0.94176 0.38139 0.0
H602 H 0.57168 0.85693 0.21529 0.0
H603 H 0.60917 0.87517 0.27539 0.0
H604 H 0.57135 0.93876 0.29072 0.0
H605 H 0.61168 0.96951 0.2451 0.0
H606 H 0.57443 0.9595 0.32292 0.0
H607 H 0.61402 0.98972 0.27805 0.0
H608 H 0.58076 0.92711 0.16454 0.0
H609 H 0.55435 0.88904 0.21998 0.0
H610 H 0.55879 0.91916 0.13214 0.0
H611 H 0.53286 0.88173 0.18651 0.0
H612 H 0.62729 0.94349 0.12744 0.0
H613 H 0.61298 0.97492 0.15067 0.0
H614 H 0.5227 0.89941 0.28649 0.0
H615 H 0.53449 0.92837 0.21039 0.0
Li616 Li 0.66494 0.59725 0.77655 0.0
Li617 Li 0.68052 0.58948 0.75056 0.0
Li618 Li 0.66484 0.59675 0.72356 0.0
Li619 Li 0.65402 0.57328 0.75093 0.0
C620 C 0.68939 0.62239 0.76431 0.0
N621 N 0.70405 0.64847 0.79663 0.0
C622 C 0.70265 0.62604 0.77906 0.0
C623 C 0.68362 0.63204 0.76594 0.0
C624 C 0.70989 0.63928 0.79527 0.0
C625 C 0.69118 0.64515 0.78244 0.0
C626 C 0.66075 0.56809 0.80358 0.0
C627 C 0.65272 0.54242 0.81523 0.0
N628 N 0.64532 0.54332 0.83924 0.0
C629 C 0.65309 0.56877 0.82842 0.0
C630 C 0.66062 0.55483 0.79698 0.0
C631 C 0.64536 0.55613 0.84616 0.0
C632 C 0.65007 0.60684 0.81487 0.0
N633 N 0.66299 0.60666 0.81091 0.0
C634 C 0.67199 0.61803 0.85801 0.0
C635 C 0.67386 0.61202 0.83184 0.0
C636 C 0.65866 0.61813 0.86287 0.0
C637 C 0.64764 0.61253 0.84086 0.0
H638 H 0.64147 0.60221 0.79818 0.0
H639 H 0.68382 0.6113 0.82849 0.0
C640 C 0.71042 0.60101 0.73331 0.0
N641 N 0.69926 0.59031 0.74991 0.0
C642 C 0.72414 0.60156 0.73126 0.0
C643 C 0.71456 0.58003 0.76332 0.0
C644 C 0.70109 0.58001 0.76503 0.0
C645 C 0.72626 0.59089 0.74621 0.0
H646 H 0.70859 0.60902 0.72145 0.0
H647 H 0.69207 0.57169 0.77817 0.0
C648 C 0.63741 0.58998 0.73426 0.0
N649 N 0.61803 0.59397 0.69861 0.0
C650 C 0.62691 0.57819 0.71703 0.0
C651 C 0.63801 0.60376 0.73349 0.0
C652 C 0.61721 0.58044 0.69914 0.0
C653 C 0.62814 0.60557 0.71527 0.0
C654 C 0.67659 0.57676 0.69934 0.0
C655 C 0.6849 0.58694 0.67717 0.0
C656 C 0.67857 0.56457 0.70479 0.0
C657 C 0.69511 0.58476 0.66082 0.0
C658 C 0.68892 0.56281 0.68802 0.0
N659 N 0.6969 0.57286 0.66657 0.0
C660 C 0.66868 0.62027 0.68487 0.0
C661 C 0.65448 0.59561 0.66646 0.0
C662 C 0.66633 0.62603 0.65883 0.0
N663 N 0.66264 0.6053 0.68822 0.0
C664 C 0.65184 0.60086 0.64013 0.0
C665 C 0.65771 0.61625 0.63611 0.0
H666 H 0.67522 0.62772 0.70245 0.0
H667 H 0.64993 0.58376 0.66972 0.0
C668 C 0.62669 0.5504 0.77167 0.0
N669 N 0.63768 0.55345 0.7518 0.0
C670 C 0.61404 0.53626 0.77271 0.0
C671 C 0.6242 0.52866 0.73265 0.0
C672 C 0.63671 0.54297 0.73245 0.0
C673 C 0.6126 0.52519 0.75284 0.0
H674 H 0.62771 0.55904 0.78652 0.0
H675 H 0.64548 0.5458 0.7165 0.0
O676 O 0.68206 0.60942 0.74852 0.0
O677 O 0.6682 0.58028 0.78566 0.0
O678 O 0.6473 0.58814 0.75126 0.0
O679 O 0.66687 0.57893 0.71616 0.0
H680 H 0.70722 0.61866 0.77828 0.0
H681 H 0.67328 0.62931 0.75498 0.0
H682 H 0.72013 0.64221 0.80687 0.0
H683 H 0.68678 0.65265 0.78405 0.0
H684 H 0.65242 0.53206 0.81023 0.0
H685 H 0.65302 0.57889 0.83387 0.0
H686 H 0.66627 0.55401 0.7776 0.0
H687 H 0.63935 0.55648 0.86539 0.0
H688 H 0.68064 0.62204 0.8747 0.0
H689 H 0.63721 0.61245 0.84384 0.0
H690 H 0.73289 0.61004 0.71769 0.0
H691 H 0.71585 0.57172 0.77543 0.0
H692 H 0.62636 0.56749 0.71713 0.0
H693 H 0.64613 0.61303 0.74654 0.0
H694 H 0.60908 0.57144 0.68557 0.0
H695 H 0.62854 0.61621 0.7143 0.0
H696 H 0.68364 0.59653 0.67286 0.0
H697 H 0.67239 0.5567 0.72215 0.0
H698 H 0.70166 0.59259 0.64368 0.0
H699 H 0.69065 0.5535 0.69216 0.0
H700 H 0.67097 0.63796 0.65672 0.0
H701 H 0.64537 0.59294 0.62303 0.0
H702 H 0.60546 0.53404 0.78886 0.0
H703 H 0.62345 0.52055 0.71662 0.0
Li704 Li 0.08947 0.68004 0.24774 0.0
Li705 Li 0.06616 0.66467 0.27447 0.0
Li706 Li 0.07882 0.6533 0.24575 0.0
Li707 Li 0.06558 0.66405 0.22004 0.0
C708 C 0.09758 0.67403 0.30004 0.0
N709 N 0.12139 0.69024 0.33753 0.0
C710 C 0.09572 0.68061 0.32542 0.0
C711 C 0.1115 0.67551 0.29398 0.0
C712 C 0.1079 0.6888 0.34405 0.0
C713 C 0.12342 0.68381 0.31312 0.0
C714 C 0.0635 0.68883 0.25318 0.0
C715 C 0.04088 0.69016 0.2539 0.0
N716 N 0.04847 0.7039 0.26649 0.0
C717 C 0.07111 0.70306 0.26576 0.0
C718 C 0.0483 0.6824 0.24687 0.0
C719 C 0.06331 0.71046 0.27247 0.0
C720 C 0.11706 0.7021 0.22461 0.0
N721 N 0.10762 0.69863 0.24791 0.0
C722 C 0.12437 0.72165 0.27163 0.0
C723 C 0.11093 0.70814 0.27104 0.0
C724 C 0.13445 0.72546 0.24804 0.0
C725 C 0.13061 0.7155 0.22424 0.0
H726 H 0.11405 0.69449 0.20623 0.0
H727 H 0.10317 0.7052 0.28915 0.0
C728 C 0.04706 0.64832 0.32024 0.0
N729 N 0.05505 0.66241 0.30945 0.0
C730 C 0.03907 0.64558 0.34648 0.0
C731 C 0.04779 0.67197 0.35033 0.0
C732 C 0.05559 0.67418 0.32391 0.0
C733 C 0.03946 0.65751 0.36203 0.0
H734 H 0.04702 0.63919 0.30854 0.0
H735 H 0.06241 0.68535 0.31549 0.0
C736 C 0.09311 0.66236 0.19425 0.0
N737 N 0.10722 0.65141 0.15888 0.0
C738 C 0.08686 0.65567 0.16719 0.0
C739 C 0.10666 0.66368 0.20309 0.0
C740 C 0.09413 0.65015 0.14968 0.0
C741 C 0.11358 0.65801 0.18498 0.0
C742 C 0.04269 0.63674 0.24291 0.0
C743 C 0.0388 0.62302 0.22995 0.0
C744 C 0.03147 0.63976 0.25134 0.0
C745 C 0.02377 0.6127 0.22491 0.0
C746 C 0.01657 0.62915 0.24598 0.0
N747 N 0.01305 0.61596 0.23293 0.0
C748 C 0.0894 0.63499 0.26882 0.0
C749 C 0.07816 0.62778 0.2216 0.0
C750 C 0.09171 0.62281 0.26956 0.0
N751 N 0.0827 0.63719 0.24511 0.0
C752 C 0.08032 0.61551 0.22133 0.0
C753 C 0.08705 0.61283 0.24567 0.0
H754 H 0.09274 0.64254 0.28737 0.0
H755 H 0.07263 0.62965 0.20326 0.0
C756 C 0.05354 0.67423 0.17535 0.0
N757 N 0.05426 0.66228 0.18572 0.0
C758 C 0.04568 0.67303 0.14945 0.0
C759 C 0.03966 0.64733 0.14526 0.0
C760 C 0.04757 0.64902 0.17122 0.0
C761 C 0.03871 0.65946 0.13395 0.0
H762 H 0.05928 0.68477 0.1869 0.0
H763 H 0.04871 0.63984 0.17939 0.0
O764 O 0.08581 0.66608 0.28141 0.0
O765 O 0.07099 0.68142 0.24654 0.0
O766 O 0.08605 0.66766 0.21189 0.0
O767 O 0.05738 0.64698 0.24799 0.0
H768 H 0.08503 0.67951 0.33059 0.0
H769 H 0.1131 0.67033 0.27472 0.0
H770 H 0.10664 0.69403 0.36365 0.0
H771 H 0.13427 0.68512 0.30858 0.0
H772 H 0.02911 0.68528 0.2492 0.0
H773 H 0.08291 0.70831 0.27044 0.0
H774 H 0.04232 0.67164 0.2363 0.0
H775 H 0.06905 0.72143 0.28241 0.0
H776 H 0.12693 0.72894 0.29054 0.0
H777 H 0.13792 0.71811 0.20535 0.0
H778 H 0.03268 0.63423 0.35451 0.0
H779 H 0.04863 0.68152 0.36186 0.0
H780 H 0.0765 0.65472 0.15978 0.0
H781 H 0.11174 0.66898 0.22375 0.0
H782 H 0.08937 0.64488 0.12876 0.0
H783 H 0.12401 0.65888 0.19167 0.0
H784 H 0.04729 0.62038 0.22364 0.0
H785 H 0.0342 0.65008 0.26229 0.0
H786 H 0.02062 0.60209 0.21465 0.0
H787 H 0.00779 0.63137 0.25234 0.0
H788 H 0.09702 0.62119 0.28867 0.0
H789 H 0.07635 0.60797 0.20267 0.0
H790 H 0.04541 0.68271 0.14123 0.0
H791 H 0.0344 0.63665 0.13409 0.0
Li792 Li 0.40853 0.09025 0.74985 0.0
Li793 Li 0.40105 0.06799 0.77765 0.0
Li794 Li 0.42402 0.07989 0.74732 0.0
Li795 Li 0.40001 0.06719 0.72219 0.0
C796 C 0.42245 0.09901 0.8019 0.0
N797 N 0.42863 0.12243 0.83949 0.0
C798 C 0.41412 0.09652 0.82771 0.0
C799 C 0.434 0.1134 0.79535 0.0
C800 C 0.41741 0.10851 0.84641 0.0
C801 C 0.43691 0.1251 0.81458 0.0
C802 C 0.37924 0.07787 0.7526 0.0
C803 C 0.36831 0.09121 0.72978 0.0
N804 N 0.36183 0.09114 0.75594 0.0
C805 C 0.37249 0.07796 0.77927 0.0
C806 C 0.37714 0.08454 0.72763 0.0
C807 C 0.36371 0.08471 0.78049 0.0
C808 C 0.41357 0.11747 0.72526 0.0
N809 N 0.40833 0.1087 0.74965 0.0
C810 C 0.40263 0.12606 0.77257 0.0
C811 C 0.40279 0.11268 0.77298 0.0
C812 C 0.40815 0.13544 0.74783 0.0
C813 C 0.41364 0.13098 0.7239 0.0
H814 H 0.41759 0.11394 0.7067 0.0
H815 H 0.39843 0.10544 0.79193 0.0
C816 C 0.40251 0.05657 0.8321 0.0
N817 N 0.3927 0.05642 0.81203 0.0
C818 C 0.39736 0.04806 0.85776 0.0
C819 C 0.37205 0.03926 0.84148 0.0
C820 C 0.37771 0.04792 0.81601 0.0
C821 C 0.38194 0.03926 0.86272 0.0
H822 H 0.41437 0.06334 0.8281 0.0
H823 H 0.37018 0.04774 0.79928 0.0
C824 C 0.42984 0.09318 0.69711 0.0
N825 N 0.45613 0.1049 0.6654 0.0
C826 C 0.43106 0.08532 0.67321 0.0
C827 C 0.44193 0.10708 0.70465 0.0
C828 C 0.44446 0.09141 0.6575 0.0
C829 C 0.45514 0.11279 0.68842 0.0
C830 C 0.40063 0.0434 0.75167 0.0
C831 C 0.40781 0.03517 0.75623 0.0
C832 C 0.38507 0.03605 0.74994 0.0
C833 C 0.39927 0.01968 0.75894 0.0
C834 C 0.37693 0.02054 0.75277 0.0
N835 N 0.38414 0.01274 0.75717 0.0
C836 C 0.45499 0.09396 0.76051 0.0
C837 C 0.44576 0.07324 0.7281 0.0
C838 C 0.46929 0.09581 0.75915 0.0
N839 N 0.44362 0.08283 0.74508 0.0
C840 C 0.45986 0.07464 0.72619 0.0
C841 C 0.47184 0.086 0.74197 0.0
H842 H 0.45293 0.10131 0.77409 0.0
H843 H 0.43647 0.06447 0.71612 0.0
C844 C 0.37751 0.05441 0.67764 0.0
N845 N 0.38996 0.05505 0.68906 0.0
C846 C 0.37066 0.04573 0.65268 0.0
C847 C 0.38929 0.03815 0.6524 0.0
C848 C 0.39583 0.04706 0.67716 0.0
C849 C 0.37661 0.03751 0.63969 0.0
H850 H 0.3729 0.06065 0.6878 0.0
H851 H 0.40573 0.04777 0.68675 0.0
O852 O 0.41943 0.08738 0.78339 0.0
O853 O 0.38801 0.07145 0.75106 0.0
O854 O 0.41696 0.08722 0.71329 0.0
O855 O 0.40886 0.05858 0.74922 0.0
H856 H 0.40509 0.08551 0.83311 0.0
H857 H 0.44053 0.11557 0.77545 0.0
H858 H 0.41099 0.10676 0.86636 0.0
H859 H 0.44574 0.1363 0.80965 0.0
H860 H 0.36669 0.09652 0.7107 0.0
H861 H 0.37419 0.07309 0.79894 0.0
H862 H 0.38257 0.0849 0.707 0.0
H863 H 0.35847 0.08491 0.80101 0.0
H864 H 0.3984 0.1291 0.7916 0.0
H865 H 0.41774 0.13774 0.70417 0.0
H866 H 0.40536 0.04849 0.8737 0.0
H867 H 0.36009 0.03246 0.84428 0.0
H868 H 0.42181 0.0746 0.66694 0.0
H869 H 0.44118 0.11333 0.72303 0.0
H870 H 0.44558 0.08541 0.63907 0.0
H871 H 0.46463 0.12349 0.69417 0.0
H872 H 0.41985 0.04072 0.75768 0.0
H873 H 0.37932 0.04223 0.74651 0.0
H874 H 0.40467 0.01316 0.76248 0.0
H875 H 0.36488 0.0147 0.75149 0.0
H876 H 0.47817 0.10459 0.77197 0.0
H877 H 0.46138 0.06693 0.71246 0.0
H878 H 0.36079 0.04539 0.64372 0.0
H879 H 0.39432 0.03212 0.64287 0.0
Li880 Li 0.33457 0.40122 0.27558 0.0
Li881 Li 0.31899 0.40844 0.24793 0.0
Li882 Li 0.33416 0.39988 0.22284 0.0
Li883 Li 0.34558 0.42425 0.24681 0.0
C884 C 0.30932 0.37565 0.23515 0.0
N885 N 0.29396 0.35012 0.20151 0.0
C886 C 0.29684 0.37322 0.21884 0.0
C887 C 0.31395 0.36507 0.23446 0.0
C888 C 0.28922 0.36024 0.20197 0.0
C889 C 0.30606 0.35226 0.21726 0.0
C890 C 0.32377 0.42232 0.2987 0.0
C891 C 0.31135 0.4364 0.30778 0.0
N892 N 0.30486 0.42801 0.33224 0.0
C893 C 0.317 0.41386 0.32396 0.0
C894 C 0.32097 0.43372 0.29058 0.0
C895 C 0.30748 0.41691 0.34062 0.0
C896 C 0.34581 0.40213 0.33217 0.0
N897 N 0.33635 0.39272 0.31134 0.0
C898 C 0.33011 0.37163 0.34198 0.0
C899 C 0.32844 0.37774 0.31577 0.0
C900 C 0.33996 0.38106 0.3638 0.0
C901 C 0.34785 0.39652 0.35863 0.0
H902 H 0.35186 0.41402 0.32806 0.0
H903 H 0.32084 0.37055 0.29898 0.0
C904 C 0.29729 0.41529 0.22718 0.0
N905 N 0.30032 0.40771 0.24792 0.0
C906 C 0.28366 0.41499 0.22753 0.0
C907 C 0.27648 0.3989 0.27033 0.0
C908 C 0.2902 0.39943 0.269 0.0
C909 C 0.27307 0.4068 0.24946 0.0
H910 H 0.30543 0.42153 0.21031 0.0
H911 H 0.29287 0.39335 0.28496 0.0
C912 C 0.36185 0.40732 0.26493 0.0
N913 N 0.3812 0.40355 0.3011 0.0
C914 C 0.37334 0.41956 0.27959 0.0
C915 C 0.36023 0.39317 0.26859 0.0
C916 C 0.38302 0.41742 0.29776 0.0
C917 C 0.37011 0.39149 0.28702 0.0
C918 C 0.33864 0.42891 0.19422 0.0
C919 C 0.34748 0.42853 0.1713 0.0
C920 C 0.33768 0.44176 0.19873 0.0
C921 C 0.35527 0.44106 0.15331 0.0
C922 C 0.34567 0.45407 0.1803 0.0
N923 N 0.35423 0.45347 0.15816 0.0
C924 C 0.32538 0.38692 0.16664 0.0
C925 C 0.34553 0.38525 0.18735 0.0
C926 C 0.32604 0.37987 0.14092 0.0
N927 N 0.33507 0.38949 0.18911 0.0
C928 C 0.34656 0.37811 0.16207 0.0
C929 C 0.33681 0.37546 0.13833 0.0
H930 H 0.31726 0.39055 0.16862 0.0
H931 H 0.35325 0.38766 0.20532 0.0
C932 C 0.36194 0.45505 0.2616 0.0
N933 N 0.36178 0.44415 0.24464 0.0
C934 C 0.374 0.4696 0.26022 0.0
C935 C 0.38551 0.46137 0.22405 0.0
C936 C 0.37324 0.44701 0.22613 0.0
C937 C 0.38603 0.4729 0.24132 0.0
H938 H 0.35276 0.45244 0.27636 0.0
H939 H 0.37289 0.43805 0.21322 0.0
O940 O 0.31713 0.38844 0.25129 0.0
O941 O 0.33293 0.41934 0.28182 0.0
O942 O 0.35207 0.40913 0.24751 0.0
O943 O 0.33119 0.41688 0.21252 0.0
H944 H 0.29315 0.38132 0.21896 0.0
H945 H 0.32369 0.36686 0.24667 0.0
H946 H 0.27958 0.35823 0.18915 0.0
H947 H 0.30958 0.34403 0.21634 0.0
H948 H 0.30899 0.44511 0.30162 0.0
H949 H 0.31894 0.40492 0.33049 0.0
H950 H 0.32596 0.44027 0.27091 0.0
H951 H 0.30212 0.41041 0.36015 0.0
H952 H 0.32364 0.35968 0.34524 0.0
H953 H 0.3557 0.40419 0.37465 0.0
H954 H 0.28139 0.42098 0.21062 0.0
H955 H 0.26875 0.39257 0.2878 0.0
H956 H 0.3747 0.43056 0.27726 0.0
H957 H 0.35127 0.38354 0.25778 0.0
H958 H 0.39193 0.42677 0.30933 0.0
H959 H 0.36891 0.38059 0.29024 0.0
H960 H 0.34848 0.41874 0.16765 0.0
H961 H 0.33102 0.44232 0.21656 0.0
H962 H 0.36221 0.44094 0.13557 0.0
H963 H 0.34511 0.46413 0.18367 0.0
H964 H 0.31825 0.37794 0.1232 0.0
H965 H 0.35518 0.37512 0.16078 0.0
H966 H 0.37388 0.47816 0.27375 0.0
H967 H 0.39465 0.46334 0.20958 0.0
Li968 Li 0.90843 0.3177 0.75176 0.0
Li969 Li 0.93246 0.33427 0.77541 0.0
Li970 Li 0.91863 0.34502 0.74812 0.0
Li971 Li 0.93115 0.33365 0.72248 0.0
C972 C 0.90295 0.32971 0.80644 0.0
N973 N 0.88352 0.32494 0.8525 0.0
C974 C 0.90397 0.32318 0.83269 0.0
C975 C 0.89218 0.33404 0.80385 0.0
C976 C 0.894 0.32078 0.85565 0.0
C977 C 0.88243 0.33147 0.82731 0.0
C978 C 0.93281 0.30903 0.7627 0.0
C979 C 0.95379 0.3067 0.77858 0.0
N980 N 0.94425 0.29329 0.79102 0.0
C981 C 0.9232 0.29518 0.77549 0.0
C982 C 0.94823 0.31481 0.76408 0.0
C983 C 0.9292 0.28741 0.78975 0.0
C984 C 0.88507 0.2918 0.72701 0.0
N985 N 0.89062 0.29883 0.75317 0.0
C986 C 0.87059 0.27882 0.7794 0.0
C987 C 0.88378 0.29257 0.77915 0.0
C988 C 0.86442 0.27144 0.75265 0.0
C989 C 0.87188 0.27807 0.72621 0.0
H990 H 0.89089 0.29692 0.70671 0.0
H991 H 0.88856 0.29818 0.79968 0.0
C992 C 0.95577 0.35142 0.81454 0.0
N993 N 0.9445 0.3373 0.8094 0.0
C994 C 0.96455 0.35466 0.83983 0.0
C995 C 0.95013 0.32871 0.8539 0.0
C996 C 0.94155 0.326 0.82846 0.0
C997 C 0.96171 0.34323 0.85996 0.0
H998 H 0.95779 0.36024 0.79921 0.0
H999 H 0.93235 0.31492 0.82427 0.0
C1000 C 0.89763 0.32806 0.70389 0.0
N1001 N 0.8714 0.32413 0.67964 0.0
C1002 C 0.89657 0.32961 0.67348 0.0
C1003 C 0.88531 0.32438 0.7219 0.0
C1004 C 0.88323 0.32763 0.66165 0.0
C1005 C 0.87216 0.32246 0.70925 0.0
C1006 C 0.95232 0.36111 0.73181 0.0
C1007 C 0.9516 0.37158 0.71345 0.0
C1008 C 0.96532 0.36019 0.73266 0.0
C1009 C 0.96389 0.38085 0.69588 0.0
C1010 C 0.97737 0.36964 0.71472 0.0
N1011 N 0.9764 0.37968 0.69684 0.0
C1012 C 0.91732 0.36897 0.77331 0.0
C1013 C 0.90972 0.36465 0.72324 0.0
C1014 C 0.91529 0.38131 0.77437 0.0
N1015 N 0.9145 0.36093 0.74804 0.0
C1016 C 0.90745 0.37685 0.72334 0.0
C1017 C 0.91036 0.38546 0.74908 0.0
H1018 H 0.92137 0.36588 0.79255 0.0
H1019 H 0.90791 0.35833 0.7032 0.0
C1020 C 0.94987 0.32858 0.68352 0.0
N1021 N 0.94143 0.33517 0.6868 0.0
C1022 C 0.95768 0.33034 0.65727 0.0
C1023 C 0.94775 0.34545 0.63827 0.0
C1024 C 0.94016 0.34339 0.66482 0.0
C1025 C 0.9567 0.33891 0.63424 0.0
H1026 H 0.95058 0.322 0.70126 0.0
H1027 H 0.93342 0.34856 0.66817 0.0
O1028 O 0.9128 0.33236 0.7839 0.0
O1029 O 0.92713 0.31679 0.74865 0.0
O1030 O 0.91065 0.33002 0.71576 0.0
O1031 O 0.94026 0.35167 0.74857 0.0
H1032 H 0.91222 0.3198 0.83521 0.0
H1033 H 0.8914 0.33943 0.78407 0.0
H1034 H 0.8946 0.31562 0.87597 0.0
H1035 H 0.87403 0.33473 0.82554 0.0
H1036 H 0.9657 0.31109 0.78 0.0
H1037 H 0.91124 0.2905 0.77448 0.0
H1038 H 0.95582 0.32552 0.75438 0.0
H1039 H 0.9219 0.27671 0.79984 0.0
H1040 H 0.86516 0.27414 0.80028 0.0
H1041 H 0.86765 0.27264 0.70514 0.0
H1042 H 0.97345 0.36599 0.84361 0.0
H1043 H 0.94744 0.31962 0.86909 0.0
H1044 H 0.90597 0.33235 0.65916 0.0
H1045 H 0.88582 0.32281 0.7453 0.0
H1046 H 0.88228 0.32885 0.63817 0.0
H1047 H 0.86254 0.31959 0.72296 0.0
H1048 H 0.9416 0.37242 0.71252 0.0
H1049 H 0.96606 0.35218 0.74684 0.0
H1050 H 0.96346 0.38894 0.6814 0.0
H1051 H 0.98747 0.36898 0.71498 0.0
H1052 H 0.91795 0.38775 0.79453 0.0
H1053 H 0.90353 0.37955 0.70339 0.0
H1054 H 0.96431 0.32498 0.65496 0.0
H1055 H 0.94686 0.35234 0.62132 0.0
H1056 H 0.00966 0.36929 0.12532 0.0
H1057 H 0.99715 0.36191 0.07753 0.0
H1058 H 0.03842 0.37094 0.03637 0.0
H1059 H 0.05121 0.37911 0.08372 0.0
H1060 H 0.02511 0.38306 0.00587 0.0
H1061 H 0.98374 0.3242 0.03076 0.0
H1062 H 0.98277 0.33692 0.05632 0.0
H1063 H -0.00066 0.33541 0.05468 0.0
C1064 C 0.0161 0.36976 0.10611 0.0
C1065 C 0.03146 0.37479 0.10844 0.0
C1066 C 0.00887 0.36531 0.07886 0.0
C1067 C 0.01679 0.36561 0.05347 0.0
C1068 C 0.03206 0.3705 0.05574 0.0
H1069 H 0.97352 0.32732 0.88484 0.0
H1070 H 0.98767 0.33273 0.93097 0.0
C1071 C 0.03933 0.37504 0.08292 0.0
C1072 C 0.00935 0.36168 0.02424 0.0
H1073 H 0.97947 0.33445 0.98693 0.0
C1074 C 0.01521 0.37238 0.00165 0.0
C1075 C 0.99657 0.34766 0.0186 0.0
C1076 C 0.99033 0.33533 0.04128 0.0
C1077 C 0.0084 0.36961 0.97383 0.0
C1078 C 0.99514 0.35591 0.96873 0.0
C1079 C 0.98953 0.34503 0.99101 0.0
C1080 C 0.98678 0.35275 0.94061 0.0
C1081 C 0.01556 0.38134 0.95013 0.0
C1082 C 0.98145 0.36211 0.93094 0.0
C1083 C 0.97347 0.3591 0.90459 0.0
C1084 C 0.97046 0.34653 0.88761 0.0
C1085 C 0.97562 0.33704 0.89754 0.0
C1086 C 0.98372 0.34014 0.92382 0.0
H1087 H 0.02767 0.3888 0.95435 0.0
H1088 H 0.01417 0.37621 0.92799 0.0
H1089 H 0.01024 0.38836 0.94988 0.0
H1090 H 0.98331 0.37167 0.94396 0.0
H1091 H 0.96938 0.36644 0.8978 0.0
H1092 H 0.63269 0.98975 0.36725 0.0
H1093 H 0.64208 0.00415 0.41281 0.0
H1094 H 0.62849 0.96356 0.46155 0.0
H1095 H 0.61963 0.94914 0.41598 0.0
H1096 H 0.62562 0.00179 0.46183 0.0
H1097 H 0.67077 0.9901 0.49117 0.0
H1098 H 0.66235 0.98628 0.45499 0.0
H1099 H 0.65313 0.97355 0.48499 0.0
C1100 C 0.63199 0.98391 0.38755 0.0
C1101 C 0.62545 0.96829 0.38796 0.0
C1102 C 0.63727 0.99215 0.41359 0.0
C1103 C 0.63618 0.98495 0.44047 0.0
C1104 C 0.62973 0.96938 0.44095 0.0
H1105 H 0.64738 0.00972 0.62438 0.0
H1106 H 0.64255 0.99694 0.57672 0.0
C1107 C 0.62449 0.96113 0.41494 0.0
C1108 C 0.64088 0.9936 0.46829 0.0
H1109 H 0.66324 0.00116 0.52875 0.0
C1110 C 0.63396 0.00179 0.47632 0.0
C1111 C 0.65173 0.99352 0.48717 0.0
C1112 C 0.66004 0.98551 0.47905 0.0
C1113 C 0.63732 0.00959 0.5031 0.0
C1114 C 0.648 0.00934 0.52213 0.0
C1115 C 0.65504 0.00128 0.51405 0.0
C1116 C 0.65178 0.01718 0.55082 0.0
C1117 C 0.62911 0.01772 0.51121 0.0
C1118 C 0.65883 0.03278 0.55191 0.0
C1119 C 0.66156 0.0401 0.57903 0.0
C1120 C 0.65729 0.03193 0.60553 0.0
C1121 C 0.65061 0.0163 0.60433 0.0
C1122 C 0.64793 0.009 0.57718 0.0
H1123 H 0.61912 0.01428 0.49715 0.0
H1124 H 0.62555 0.0157 0.53468 0.0
H1125 H 0.63668 0.02989 0.50828 0.0
H1126 H 0.66202 0.03928 0.53175 0.0
H1127 H 0.6666 0.05213 0.57919 0.0
H1128 H 0.62551 0.67341 0.08735 0.0
H1129 H 0.63408 0.6686 0.04072 0.0
H1130 H 0.63721 0.63251 0.08098 0.0
H1131 H 0.62963 0.63788 0.12829 0.0
H1132 H 0.66026 0.6483 0.04469 0.0
H1133 H 0.60751 0.63451 0.98757 0.0
H1134 H 0.61693 0.653 0.00267 0.0
H1135 H 0.60973 0.63713 0.02696 0.0
C1136 C 0.6283 0.66464 0.08655 0.0
C1137 C 0.62672 0.65594 0.11165 0.0
C1138 C 0.63299 0.66176 0.05968 0.0
C1139 C 0.6359 0.64995 0.05717 0.0
C1140 C 0.63486 0.64158 0.08234 0.0
H1141 H 0.63404 0.60391 0.89761 0.0
H1142 H 0.62941 0.61219 0.94493 0.0
C1143 C 0.63036 0.64457 0.10932 0.0
C1144 C 0.63973 0.64605 0.02822 0.0
H1145 H 0.62689 0.63569 0.9579 0.0
C1146 C 0.65298 0.64553 0.02569 0.0
C1147 C 0.63008 0.64223 0.00359 0.0
C1148 C 0.6152 0.64159 0.00533 0.0
C1149 C 0.65684 0.64125 0.99921 0.0
C1150 C 0.64739 0.63783 0.97436 0.0
C1151 C 0.63419 0.63844 0.97689 0.0
C1152 C 0.65054 0.63289 0.94587 0.0
C1153 C 0.67073 0.63996 0.99849 0.0
C1154 C 0.66392 0.64181 0.93054 0.0
C1155 C 0.66665 0.63699 0.90362 0.0
C1156 C 0.6559 0.62334 0.89132 0.0
C1157 C 0.64244 0.61455 0.90648 0.0
C1158 C 0.63982 0.61925 0.93352 0.0
H1159 H 0.6743 0.63885 0.02103 0.0
H1160 H 0.66897 0.63021 0.98516 0.0
H1161 H 0.67997 0.65019 0.98839 0.0
H1162 H 0.67219 0.65255 0.93923 0.0
H1163 H 0.67704 0.64404 0.89218 0.0
H1164 H 0.03764 0.63886 0.40653 0.0
H1165 H 0.02427 0.6341 0.45326 0.0
H1166 H 0.01064 0.66592 0.42998 0.0
H1167 H 0.02357 0.67037 0.38258 0.0
H1168 H 0.02843 0.65417 0.49847 0.0
H1169 H 0.97118 0.62855 0.45161 0.0
H1170 H 0.98702 0.63124 0.43011 0.0
H1171 H 0.98426 0.64673 0.43762 0.0
C1172 C 0.03163 0.6447 0.41112 0.0
C1173 C 0.03155 0.65488 0.39068 0.0
C1174 C 0.0241 0.64206 0.43795 0.0
C1175 C 0.01631 0.64951 0.44488 0.0
C1176 C 0.01638 0.65987 0.42481 0.0
H1177 H 0.9616 0.63899 0.60033 0.0
H1178 H 0.97613 0.64853 0.55476 0.0
C1179 C 0.02391 0.66251 0.39789 0.0
C1180 C 0.00824 0.64643 0.4733 0.0
H1181 H 0.97342 0.63149 0.50332 0.0
C1182 C 0.01641 0.64927 0.49956 0.0
C1183 C 0.99257 0.64008 0.47459 0.0
C1184 C 0.98318 0.63634 0.44702 0.0
C1185 C 0.0093 0.64578 0.52713 0.0
C1186 C 0.99361 0.6391 0.52838 0.0
C1187 C 0.98546 0.63663 0.5022 0.0
C1188 C 0.98534 0.63383 0.55651 0.0
C1189 C 0.01864 0.64925 0.55471 0.0
C1190 C 0.98567 0.62237 0.57238 0.0
C1191 C 0.97742 0.61692 0.59833 0.0
C1192 C 0.96864 0.62281 0.60883 0.0
C1193 C 0.96839 0.63435 0.59294 0.0
C1194 C 0.97661 0.63976 0.56688 0.0
H1195 H 0.03044 0.6579 0.55061 0.0
H1196 H 0.01413 0.65315 0.5727 0.0
H1197 H 0.01847 0.63898 0.56233 0.0
H1198 H 0.99215 0.61749 0.56447 0.0
H1199 H 0.97794 0.60812 0.61022 0.0
H1200 H 0.35911 0.0358 0.89856 0.0
H1201 H 0.35079 0.02173 0.94488 0.0
H1202 H 0.38361 0.00802 0.93434 0.0
H1203 H 0.39198 0.02204 0.88819 0.0
H1204 H 0.33981 0.99145 0.95711 0.0
H1205 H 0.39293 0.02716 0.01619 0.0
H1206 H 0.38838 0.0326 0.98162 0.0
H1207 H 0.39538 0.01981 0.9821 0.0
C1208 C 0.36446 0.02968 0.90602 0.0
C1209 C 0.37631 0.03015 0.88993 0.0
C1210 C 0.35974 0.02171 0.9325 0.0
C1211 C 0.3668 0.01411 0.94329 0.0
C1212 C 0.37828 0.01414 0.92676 0.0
H1213 H 0.35925 0.95829 0.0895 0.0
H1214 H 0.36452 0.97213 0.04323 0.0
C1215 C 0.38304 0.02214 0.90041 0.0
C1216 C 0.36228 0.00617 0.9719 0.0
H1217 H 0.37581 0.00422 0.03943 0.0
C1218 C 0.34761 0.99431 0.97524 0.0
C1219 C 0.37249 0.01002 0.99554 0.0
C1220 C 0.38813 0.02319 0.99387 0.0
C1221 C 0.34304 0.98582 0.0013 0.0
C1222 C 0.3534 0.98942 0.02453 0.0
C1223 C 0.36795 0.00146 0.02142 0.0
C1224 C 0.34955 0.98058 0.05201 0.0
C1225 C 0.32736 0.9728 0.00352 0.0
C1226 C 0.3394 0.98079 0.07223 0.0
C1227 C 0.33647 0.97301 0.0989 0.0
C1228 C 0.34369 0.96493 0.10577 0.0
C1229 C 0.3537 0.96461 0.08517 0.0
C1230 C 0.35665 0.97242 0.05863 0.0
H1231 H 0.32155 0.96996 0.98187 0.0
H1232 H 0.32744 0.96282 0.01224 0.0
H1233 H 0.32087 0.97562 0.01914 0.0
H1234 H 0.33399 0.98722 0.06765 0.0
H1235 H 0.32885 0.97364 0.11443 0.0
H1236 H 0.3427 0.39222 0.41961 0.0
H1237 H 0.3475 0.38276 0.46525 0.0
H1238 H 0.34622 0.34616 0.41727 0.0
H1239 H 0.34197 0.35586 0.37127 0.0
H1240 H 0.33071 0.35519 0.49324 0.0
H1241 H 0.3865 0.36478 0.45953 0.0
H1242 H 0.37701 0.37276 0.43982 0.0
H1243 H 0.37154 0.35348 0.43466 0.0
C1244 C 0.34358 0.38224 0.41869 0.0
C1245 C 0.3421 0.37488 0.39175 0.0
C1246 C 0.3462 0.37678 0.44483 0.0
C1247 C 0.34743 0.36389 0.44453 0.0
C1248 C 0.34556 0.35627 0.41786 0.0
H1249 H 0.37129 0.32286 0.58704 0.0
H1250 H 0.36207 0.32712 0.54033 0.0
C1251 C 0.34297 0.36174 0.39166 0.0
C1252 C 0.35084 0.3586 0.4722 0.0
H1253 H 0.37736 0.3533 0.50572 0.0
C1254 C 0.34088 0.35472 0.49597 0.0
C1255 C 0.36411 0.358 0.47562 0.0
C1256 C 0.37549 0.36259 0.45118 0.0
C1257 C 0.34388 0.35032 0.5232 0.0
C1258 C 0.35728 0.34999 0.52676 0.0
C1259 C 0.36707 0.35354 0.50282 0.0
C1260 C 0.36176 0.34677 0.55557 0.0
C1261 C 0.3327 0.34604 0.54791 0.0
C1262 C 0.36464 0.35643 0.57951 0.0
C1263 C 0.36988 0.35403 0.60616 0.0
C1264 C 0.37238 0.34194 0.6093 0.0
C1265 C 0.36929 0.33216 0.58539 0.0
C1266 C 0.3641 0.33461 0.55868 0.0
H1267 H 0.32144 0.34295 0.53946 0.0
H1268 H 0.33189 0.33654 0.56083 0.0
H1269 H 0.33635 0.35568 0.56305 0.0
H1270 H 0.36315 0.36602 0.57738 0.0
H1271 H 0.37205 0.36168 0.62426 0.0
H1272 H 0.9797 0.6148 0.88754 0.0
H1273 H 0.99304 0.6248 0.93385 0.0
H1274 H 0.97146 0.65091 0.94487 0.0
H1275 H 0.95825 0.64122 0.898 0.0
H1276 H 0.01234 0.65672 0.94942 0.0
H1277 H 0.96298 0.62552 0.02282 0.0
H1278 H 0.96323 0.61976 0.98529 0.0
H1279 H 0.96138 0.6358 0.99236 0.0
C1280 C 0.97792 0.62283 0.89952 0.0
C1281 C 0.96793 0.62725 0.88898 0.0
C1282 C 0.98549 0.62845 0.92608 0.0
C1283 C 0.98313 0.63849 0.94277 0.0
C1284 C 0.97327 0.64303 0.93238 0.0
H1285 H 0.01963 0.66976 0.12043 0.0
H1286 H 0.00651 0.66688 0.07363 0.0
C1287 C 0.96571 0.63745 0.90568 0.0
C1288 C 0.99109 0.64408 0.97107 0.0
H1289 H 0.98628 0.63997 0.04568 0.0
C1290 C 0.00665 0.65321 0.9705 0.0
C1291 C 0.98358 0.63954 0.99844 0.0
C1292 C 0.96687 0.62955 4e-05 0.0
C1293 C 0.01498 0.6576 0.99668 0.0
C1294 C 0.00756 0.65245 0.02402 0.0
C1295 C 0.99193 0.64385 0.02465 0.0
C1296 C 0.01587 0.65481 0.05192 0.0
C1297 C 0.03168 0.66759 0.99482 0.0
C1298 C 0.02534 0.64885 0.0552 0.0
C1299 C 0.03282 0.65048 0.08175 0.0
C1300 C 0.03091 0.65803 0.10564 0.0
C1301 C 0.02143 0.66402 0.1023 0.0
C1302 C 0.0139 0.66234 0.07568 0.0
H1303 H 0.03501 0.67419 0.97407 0.0
H1304 H 0.03601 0.67537 0.01385 0.0
H1305 H 0.03705 0.66061 0.99502 0.0
H1306 H 0.0268 0.64275 0.03731 0.0
H1307 H 0.04016 0.64588 0.08351 0.0
H1308 H 0.36056 0.98969 0.37606 0.0
H1309 H 0.36469 0.00233 0.42364 0.0
H1310 H 0.32624 0.96363 0.4596 0.0
H1311 H 0.32203 0.95088 0.41204 0.0
H1312 H 0.32871 0.99124 0.47659 0.0
H1313 H 0.3813 0.9903 0.49451 0.0
H1314 H 0.38071 0.99883 0.4604 0.0
H1315 H 0.36799 0.97929 0.46634 0.0
C1316 C 0.35297 0.98388 0.39408 0.0
C1317 C 0.34107 0.96923 0.39041 0.0
C1318 C 0.35534 0.99112 0.42121 0.0
C1319 C 0.34593 0.9838 0.44522 0.0
C1320 C 0.33365 0.96944 0.44132 0.0
H1321 H 0.37103 0.00933 0.62763 0.0
H1322 H 0.36199 0.99554 0.58129 0.0
C1323 C 0.33123 0.96219 0.41413 0.0
C1324 C 0.34932 0.99089 0.4747 0.0
H1325 H 0.37591 0.00436 0.52852 0.0
C1326 C 0.339 0.99408 0.48806 0.0
C1327 C 0.36263 0.99432 0.48974 0.0
C1328 C 0.37374 0.9904 0.4772 0.0
C1329 C 0.34181 0.00094 0.5159 0.0
C1330 C 0.35538 0.00488 0.53043 0.0
C1331 C 0.36555 0.00141 0.51726 0.0
C1332 C 0.35944 0.01268 0.55925 0.0
C1333 C 0.33014 0.00373 0.52964 0.0
C1334 C 0.3609 0.02685 0.5623 0.0
C1335 C 0.36603 0.03473 0.58878 0.0
C1336 C 0.36996 0.02865 0.61253 0.0
C1337 C 0.36822 0.01435 0.60959 0.0
C1338 C 0.36301 0.00645 0.5832 0.0
H1339 H 0.31893 0.99637 0.51998 0.0
H1340 H 0.32952 0.00193 0.55387 0.0
H1341 H 0.33312 0.01546 0.52548 0.0
H1342 H 0.35856 0.03203 0.54388 0.0
H1343 H 0.36746 0.04581 0.59027 0.0
H1344 H 0.37255 0.32166 0.91426 0.0
H1345 H 0.36261 0.32442 0.96144 0.0
H1346 H 0.35623 0.35911 0.9239 0.0
H1347 H 0.36585 0.35621 0.87656 0.0
H1348 H 0.37537 0.35114 0.9942 0.0
H1349 H 0.31639 0.33213 0.96613 0.0
H1350 H 0.32808 0.32766 0.94375 0.0
H1351 H 0.32963 0.34571 0.94098 0.0
C1352 C 0.36873 0.32965 0.91589 0.0
C1353 C 0.36998 0.33873 0.89172 0.0
C1354 C 0.36313 0.33126 0.94287 0.0
C1355 C 0.35853 0.34183 0.94601 0.0
C1356 C 0.35947 0.35069 0.92177 0.0
H1357 H 0.33584 0.38419 0.08192 0.0
H1358 H 0.34014 0.37439 0.03619 0.0
C1359 C 0.36512 0.34914 0.89485 0.0
C1360 C 0.3539 0.34452 0.97519 0.0
H1361 H 0.32559 0.34585 0.01105 0.0
C1362 C 0.36442 0.34979 0.99809 0.0
C1363 C 0.33963 0.34279 0.98002 0.0
C1364 C 0.32772 0.33663 0.95651 0.0
C1365 C 0.36128 0.35398 0.0254 0.0
C1366 C 0.3471 0.35255 0.03006 0.0
C1367 C 0.33644 0.34693 0.00739 0.0
C1368 C 0.34346 0.35762 0.05776 0.0
C1369 C 0.37339 0.36052 0.04854 0.0
C1370 C 0.34356 0.3512 0.08497 0.0
C1371 C 0.34112 0.3568 0.11116 0.0
C1372 C 0.33839 0.36881 0.11053 0.0
C1373 C 0.33777 0.37485 0.08312 0.0
C1374 C 0.34027 0.36929 0.05699 0.0
H1375 H 0.38456 0.36398 0.03909 0.0
H1376 H 0.37377 0.37034 0.05929 0.0
H1377 H 0.37102 0.35201 0.06579 0.0
H1378 H 0.34568 0.34197 0.08596 0.0
H1379 H 0.34142 0.35177 0.13192 0.0
H1380 H 0.98535 0.34452 0.62744 0.0
H1381 H -0.00041 0.34978 0.58153 0.0
H1382 H 0.96157 0.34441 0.53228 0.0
H1383 H 0.9471 0.33867 0.5779 0.0
H1384 H 0.97641 0.33076 0.50571 0.0
H1385 H 0.0155 0.38964 0.5374 0.0
H1386 H 0.01413 0.37588 0.56336 0.0
H1387 H 0.99823 0.3781 0.55675 0.0
C1388 C 0.97995 0.34424 0.60679 0.0
C1389 C 0.96513 0.3413 0.60634 0.0
C1390 C 0.98814 0.34739 0.58063 0.0
C1391 C 0.98169 0.34772 0.55362 0.0
C1392 C 0.96677 0.34431 0.55295 0.0
H1393 H 0.02319 0.39172 0.39127 0.0
H1394 H 0.00908 0.38265 0.43719 0.0
C1395 C 0.95857 0.34115 0.57906 0.0
C1396 C 0.99058 0.35207 0.52609 0.0
H1397 H 0.02022 0.38136 0.49231 0.0
C1398 C 0.98603 0.3418 0.50276 0.0
C1399 C 0.003 0.36654 0.52227 0.0
C1400 C 0.00797 0.37825 0.54613 0.0
C1401 C 0.99358 0.34563 0.4756 0.0
C1402 C 0.0061 0.36004 0.47192 0.0
C1403 C 0.01067 0.37028 0.4953 0.0
C1404 C 0.01427 0.36503 0.44359 0.0
C1405 C 0.98786 0.33438 0.45082 0.0
C1406 C 0.02187 0.35812 0.43201 0.0
C1407 C 0.02998 0.3633 0.40575 0.0
C1408 C 0.03073 0.37557 0.39083 0.0
C1409 C 0.02301 0.38238 0.40246 0.0
C1410 C 0.01489 0.37718 0.42861 0.0
H1411 H 0.9763 0.32519 0.45501 0.0
H1412 H 0.98807 0.3398 0.42954 0.0
H1413 H 0.99516 0.32943 0.44859 0.0
H1414 H 0.02176 0.3489 0.44354 0.0
H1415 H 0.03597 0.35795 0.39753 0.0
H1416 H 0.62965 0.01561 0.88229 0.0
H1417 H 0.62592 0.0027 0.92941 0.0
H1418 H 0.67327 0.02763 0.94591 0.0
H1419 H 0.67712 0.04064 0.89873 0.0
H1420 H 0.65985 0.99699 0.96017 0.0
H1421 H 0.62926 0.02306 0.00914 0.0
H1422 H 0.62156 0.01371 0.97479 0.0
H1423 H 0.63997 0.02981 0.97555 0.0
C1424 C 0.63927 0.01838 0.89598 0.0
C1425 C 0.65366 0.02926 0.88698 0.0
C1426 C 0.63712 0.01099 0.92286 0.0
C1427 C 0.64929 0.01443 0.94133 0.0
C1428 C 0.66374 0.02488 0.93198 0.0
H1429 H 0.63776 0.99058 0.12742 0.0
H1430 H 0.64638 0.0041 0.08069 0.0
C1431 C 0.66591 0.03226 0.90501 0.0
C1432 C 0.64684 0.00735 0.97072 0.0
H1433 H 0.62864 0.00302 0.03592 0.0
C1434 C 0.65311 0.99836 0.97685 0.0
C1435 C 0.63827 0.0094 0.99257 0.0
C1436 C 0.63199 0.01963 0.98787 0.0
C1437 C 0.65063 0.99096 0.00403 0.0
C1438 C 0.64146 0.99245 0.02534 0.0
C1439 C 0.63557 0.00179 0.01947 0.0
C1440 C 0.63751 0.98422 0.05369 0.0
C1441 C 0.65794 0.98172 0.00976 0.0
C1442 C 0.62973 0.96856 0.05401 0.0
C1443 C 0.62481 0.96082 0.08067 0.0
C1444 C 0.62743 0.96861 0.10745 0.0
C1445 C 0.63545 0.98428 0.1071 0.0
C1446 C 0.64044 0.99201 0.08046 0.0
H1447 H 0.66789 0.98526 0.99551 0.0
H1448 H 0.66137 0.98251 0.0332 0.0
H1449 H 0.64988 0.96986 0.00474 0.0
H1450 H 0.62702 0.96232 0.03357 0.0
H1451 H 0.61847 0.94875 0.0802 0.0
H1452 H 0.60561 0.65522 0.42151 0.0
H1453 H 0.61501 0.65022 0.46705 0.0
H1454 H 0.65133 0.65105 0.41875 0.0
H1455 H 0.64179 0.65571 0.37289 0.0
H1456 H 0.63583 0.62604 0.45505 0.0
H1457 H 0.65184 0.67827 0.51645 0.0
H1458 H 0.63317 0.66935 0.50211 0.0
H1459 H 0.64872 0.67662 0.47706 0.0
C1460 C 0.61561 0.65435 0.42058 0.0
C1461 C 0.62295 0.65584 0.39361 0.0
C1462 C 0.62106 0.65167 0.44667 0.0
C1463 C 0.63398 0.65049 0.4463 0.0
C1464 C 0.64141 0.65207 0.41949 0.0
H1465 H 0.67717 0.64097 0.6043 0.0
H1466 H 0.67233 0.64985 0.55774 0.0
C1467 C 0.63599 0.6548 0.39337 0.0
C1468 C 0.63913 0.64663 0.47361 0.0
H1469 H 0.6501 0.6579 0.54455 0.0
C1470 C 0.63909 0.63307 0.47454 0.0
C1471 C 0.64353 0.6559 0.49885 0.0
C1472 C 0.64447 0.67092 0.49859 0.0
C1473 C 0.64283 0.62826 0.50043 0.0
C1474 C 0.64652 0.63719 0.52609 0.0
C1475 C 0.64711 0.65102 0.52488 0.0
C1476 C 0.64936 0.63211 0.55459 0.0
C1477 C 0.64275 0.61365 0.50015 0.0
C1478 C 0.63795 0.61941 0.56843 0.0
C1479 C 0.64063 0.61437 0.59503 0.0
C1480 C 0.65479 0.62198 0.60835 0.0
C1481 C 0.66612 0.63492 0.59472 0.0
C1482 C 0.66341 0.63997 0.56808 0.0
H1483 H 0.64351 0.61013 0.47735 0.0
H1484 H 0.65216 0.61443 0.51335 0.0
H1485 H 0.63218 0.60485 0.51005 0.0
H1486 H 0.62694 0.61339 0.55864 0.0
H1487 H 0.63157 0.60456 0.60527 0.0
H1488 H 0.09614 0.60119 0.20135 0.0
H1489 H 0.09718 0.57804 0.20235 0.0
H1490 H 0.08262 0.57095 0.29304 0.0
H1491 H 0.0813 0.59389 0.29213 0.0
H1492 H 0.11365 0.56931 0.24331 0.0
H1493 H 0.05206 0.53237 0.24782 0.0
H1494 H 0.06079 0.55161 0.23615 0.0
H1495 H 0.05986 0.54713 0.27466 0.0
C1496 C 0.09313 0.59467 0.22147 0.0
C1497 C 0.08858 0.59932 0.24663 0.0
C1498 C 0.09381 0.58152 0.22205 0.0
C1499 C 0.08982 0.57276 0.24766 0.0
C1500 C 0.0856 0.57752 0.27298 0.0
H1501 H 0.07805 0.48659 0.29372 0.0
H1502 H 0.07991 0.51105 0.29305 0.0
C1503 C 0.08498 0.59069 0.27249 0.0
C1504 C 0.08978 0.55846 0.24781 0.0
H1505 H 0.06668 0.52085 0.25344 0.0
C1506 C 0.1034 0.55869 0.24541 0.0
C1507 C 0.07638 0.54468 0.25056 0.0
C1508 C 0.06141 0.54383 0.25221 0.0
C1509 C 0.104 0.54544 0.24637 0.0
C1510 C 0.09058 0.53164 0.24918 0.0
C1511 C 0.07696 0.53145 0.25137 0.0
C1512 C 0.09033 0.51721 0.25003 0.0
C1513 C 0.11901 0.54636 0.24514 0.0
C1514 C 0.09556 0.51255 0.22603 0.0
C1515 C 0.09466 0.49862 0.22646 0.0
C1516 C 0.08839 0.48904 0.25083 0.0
C1517 C 0.08318 0.49378 0.27484 0.0
C1518 C 0.08413 0.50771 0.27441 0.0
H1519 H 0.12821 0.55768 0.251 0.0
H1520 H 0.11939 0.53813 0.26031 0.0
H1521 H 0.12103 0.54384 0.22237 0.0
H1522 H 0.10012 0.51958 0.20674 0.0
H1523 H 0.09887 0.49537 0.20771 0.0
H1524 H 0.4784 0.06356 0.74517 0.0
H1525 H 0.50304 0.06575 0.74506 0.0
H1526 H 0.52373 0.11356 0.73771 0.0
H1527 H 0.49906 0.11145 0.73722 0.0
H1528 H 0.53528 0.09991 0.69833 0.0
H1529 H 0.53301 0.08226 0.81484 0.0
H1530 H 0.51712 0.06979 0.79297 0.0
H1531 H 0.52068 0.08835 0.80034 0.0
C1532 C 0.48818 0.07453 0.74325 0.0
C1533 C 0.48679 0.08734 0.74126 0.0
C1534 C 0.50224 0.07577 0.74349 0.0
C1535 C 0.51517 0.08983 0.7418 0.0
C1536 C 0.51386 0.10262 0.73926 0.0
H1537 H 0.60455 0.10509 0.77776 0.0
H1538 H 0.58194 0.10705 0.77674 0.0
C1539 C 0.49978 0.1014 0.73914 0.0
C1540 C 0.53004 0.0911 0.74249 0.0
H1541 H 0.55265 0.08363 0.78528 0.0
C1542 C 0.53915 0.09646 0.71738 0.0
C1543 C 0.53511 0.08678 0.76755 0.0
C1544 C 0.52605 0.08159 0.79559 0.0
C1545 C 0.55304 0.09715 0.71633 0.0
C1546 C 0.55781 0.09221 0.74092 0.0
C1547 C 0.54891 0.08731 0.76637 0.0
C1548 C 0.57179 0.09161 0.74047 0.0
C1549 C 0.56251 0.10319 0.68895 0.0
C1550 C 0.57351 0.08221 0.72053 0.0
C1551 C 0.58634 0.08099 0.72118 0.0
C1552 C 0.59769 0.08909 0.7419 0.0
C1553 C 0.59596 0.09858 0.76173 0.0
C1554 C 0.5831 0.09978 0.76108 0.0
H1555 H 0.55925 0.11013 0.67568 0.0
H1556 H 0.57451 0.10999 0.6947 0.0
H1557 H 0.56101 0.09373 0.67498 0.0
H1558 H 0.56475 0.07555 0.7049 0.0
H1559 H 0.58718 0.07336 0.70598 0.0
H1560 H 0.51452 0.58572 0.27958 0.0
H1561 H 0.4901 0.56304 0.27656 0.0
H1562 H 0.47692 0.583 0.20807 0.0
H1563 H 0.50129 0.60588 0.21123 0.0
H1564 H 0.45516 0.56781 0.25561 0.0
H1565 H 0.47674 0.53337 0.20518 0.0
H1566 H 0.48637 0.54344 0.23785 0.0
H1567 H 0.48715 0.55351 0.205 0.0
C1568 C 0.50638 0.58535 0.26409 0.0
C1569 C 0.50983 0.59757 0.2456 0.0
C1570 C 0.49249 0.57235 0.26222 0.0
C1571 C 0.48182 0.57133 0.24187 0.0
C1572 C 0.48508 0.58358 0.22379 0.0
H1573 H 0.40218 0.48834 0.19279 0.0
H1574 H 0.42485 0.51284 0.19163 0.0
C1575 C 0.49901 0.59658 0.22552 0.0
C1576 C 0.4673 0.5574 0.23942 0.0
H1577 H 0.45158 0.52057 0.22149 0.0
C1578 C 0.45432 0.55748 0.248 0.0
C1579 C 0.46629 0.54404 0.22911 0.0
C1580 C 0.47984 0.54352 0.2185 0.0
C1581 C 0.44034 0.54438 0.24736 0.0
C1582 C 0.43942 0.53089 0.23813 0.0
C1583 C 0.45235 0.53092 0.22873 0.0
C1584 C 0.42522 0.51651 0.2387 0.0
C1585 C 0.42668 0.54507 0.25647 0.0
C1586 C 0.41797 0.51046 0.26557 0.0
C1587 C 0.4051 0.49643 0.26635 0.0
C1588 C 0.39927 0.48815 0.24026 0.0
C1589 C 0.40648 0.49434 0.21332 0.0
C1590 C 0.41937 0.50837 0.21258 0.0
H1591 H 0.42865 0.55664 0.25548 0.0
H1592 H 0.41701 0.53782 0.24219 0.0
H1593 H 0.42374 0.54107 0.27955 0.0
H1594 H 0.4225 0.51643 0.28605 0.0
H1595 H 0.39998 0.49188 0.28752 0.0
H1596 H 0.90709 0.50636 0.80047 0.0
H1597 H 0.90557 0.48193 0.79981 0.0
H1598 H 0.90986 0.4843 0.70506 0.0
H1599 H 0.91149 0.50873 0.70548 0.0
H1600 H 0.88408 0.45437 0.76118 0.0
H1601 H 0.94506 0.47856 0.74232 0.0
H1602 H 0.93737 0.48913 0.75893 0.0
H1603 H 0.93543 0.48549 0.72002 0.0
C1604 C 0.9077 0.50166 0.77951 0.0
C1605 C 0.90945 0.50946 0.75302 0.0
C1606 C 0.90675 0.4877 0.77917 0.0
C1607 C 0.90769 0.48143 0.75241 0.0
C1608 C 0.90915 0.48903 0.72591 0.0
H1609 H 0.91765 0.4061 0.70507 0.0
H1610 H 0.91575 0.42866 0.7058 0.0
C1611 C 0.91 0.50292 0.72619 0.0
C1612 C 0.90761 0.46714 0.75217 0.0
H1613 H 0.93026 0.45237 0.74215 0.0
C1614 C 0.89415 0.45387 0.75712 0.0
C1615 C 0.92078 0.46663 0.74674 0.0
C1616 C 0.93555 0.48068 0.74185 0.0
C1617 C 0.89346 0.43997 0.75622 0.0
C1618 C 0.90668 0.43945 0.75095 0.0
C1619 C 0.92015 0.45279 0.74615 0.0
C1620 C 0.90686 0.42523 0.75014 0.0
C1621 C 0.87854 0.42599 0.76015 0.0
C1622 C 0.90249 0.4158 0.77485 0.0
C1623 C 0.90336 0.40275 0.77436 0.0
C1624 C 0.90879 0.39898 0.74926 0.0
C1625 C 0.91315 0.40848 0.72456 0.0
C1626 C 0.91219 0.42146 0.72502 0.0
H1627 H 0.86915 0.42802 0.75557 0.0
H1628 H 0.87747 0.41694 0.74541 0.0
H1629 H 0.87745 0.4221 0.78331 0.0
H1630 H 0.89864 0.41865 0.79471 0.0
H1631 H 0.8998 0.39564 0.79368 0.0
H1632 H 0.39059 0.88937 0.23701 0.0
H1633 H 0.41364 0.88827 0.23481 0.0
H1634 H 0.43808 0.93258 0.27148 0.0
H1635 H 0.41529 0.93406 0.27255 0.0
H1636 H 0.45195 0.929 0.22356 0.0
H1637 H 0.43592 0.8826 0.30306 0.0
H1638 H 0.42312 0.87824 0.27294 0.0
H1639 H 0.42555 0.89227 0.2993 0.0
C1640 C 0.40088 0.89891 0.24448 0.0
C1641 C 0.40106 0.91178 0.2551 0.0
C1642 C 0.41401 0.89818 0.24354 0.0
C1643 C 0.42752 0.91025 0.25343 0.0
C1644 C 0.42775 0.9231 0.26396 0.0
H1645 H 0.51089 0.91465 0.29591 0.0
H1646 H 0.48659 0.91324 0.29609 0.0
C1647 C 0.41467 0.92386 0.26479 0.0
C1648 C 0.44158 0.90977 0.25198 0.0
H1649 H 0.45877 0.89114 0.27753 0.0
C1650 C 0.45345 0.92072 0.23533 0.0
C1651 C 0.44353 0.89904 0.26762 0.0
C1652 C 0.43142 0.88745 0.28697 0.0
C1653 C 0.46725 0.92127 0.23392 0.0
C1654 C 0.46911 0.91036 0.24906 0.0
C1655 C 0.45725 0.8994 0.26572 0.0
C1656 C 0.48349 0.9105 0.24881 0.0
C1657 C 0.47983 0.93377 0.21691 0.0
C1658 C 0.48966 0.90913 0.22222 0.0
C1659 C 0.50356 0.90996 0.22204 0.0
C1660 C 0.51145 0.91201 0.24851 0.0
C1661 C 0.50503 0.91294 0.2752 0.0
C1662 C 0.49118 0.91219 0.27533 0.0
H1663 H 0.47776 0.94318 0.213 0.0
H1664 H 0.49059 0.93808 0.22879 0.0
H1665 H 0.4809 0.92952 0.1951 0.0
H1666 H 0.48375 0.90747 0.20159 0.0
H1667 H 0.50811 0.90895 0.20121 0.0
H1668 H 0.58381 0.51903 0.75892 0.0
H1669 H 0.56111 0.49467 0.75839 0.0
H1670 H 0.58729 0.47338 0.74398 0.0
H1671 H 0.61018 0.49774 0.74555 0.0
H1672 H 0.55053 0.474 0.71263 0.0
H1673 H 0.5607 0.45004 0.81391 0.0
H1674 H 0.57116 0.46971 0.80549 0.0
H1675 H 0.57535 0.45693 0.78686 0.0
C1676 C 0.58479 0.50917 0.75614 0.0
C1677 C 0.59883 0.51033 0.75253 0.0
C1678 C 0.57179 0.49526 0.75561 0.0
C1679 C 0.57253 0.48223 0.75153 0.0
C1680 C 0.58649 0.4833 0.74768 0.0
H1681 H 0.4998 0.38949 0.74237 0.0
H1682 H 0.52444 0.41211 0.74051 0.0
C1683 C 0.59954 0.49723 0.74825 0.0
C1684 C 0.55859 0.4676 0.75053 0.0
H1685 H 0.53902 0.43428 0.78646 0.0
C1686 C 0.54802 0.4653 0.72872 0.0
C1687 C 0.55541 0.45626 0.77148 0.0
C1688 C 0.56617 0.45833 0.79594 0.0
C1689 C 0.53427 0.452 0.72746 0.0
C1690 C 0.53095 0.44081 0.7488 0.0
C1691 C 0.54165 0.44292 0.77016 0.0
C1692 C 0.51615 0.42713 0.75008 0.0
C1693 C 0.5234 0.45001 0.70328 0.0
C1694 C 0.50343 0.42814 0.75648 0.0
C1695 C 0.4894 0.4153 0.75752 0.0
C1696 C 0.48783 0.4012 0.75226 0.0
C1697 C 0.50064 0.40022 0.74618 0.0
C1698 C 0.51471 0.41309 0.74526 0.0
H1699 H 0.52903 0.45775 0.68456 0.0
H1700 H 0.51765 0.43838 0.69483 0.0
H1701 H 0.51482 0.45237 0.71226 0.0
H1702 H 0.50436 0.43888 0.76065 0.0
H1703 H 0.47974 0.41645 0.76199 0.0
H1704 H 0.13929 0.38585 0.27513 0.0
H1705 H 0.16274 0.38538 0.27669 0.0
H1706 H 0.18565 0.42872 0.23555 0.0
H1707 H 0.16233 0.42936 0.23415 0.0
H1708 H 0.18161 0.38905 0.22417 0.0
H1709 H 0.21053 0.43176 0.31153 0.0
H1710 H 0.19048 0.42176 0.30729 0.0
H1711 H 0.20193 0.43666 0.28246 0.0
C1712 C 0.14937 0.39534 0.26673 0.0
C1713 C 0.149 0.40765 0.25453 0.0
C1714 C 0.1627 0.39502 0.26751 0.0
C1715 C 0.17588 0.40707 0.25647 0.0
C1716 C 0.17559 0.4194 0.24445 0.0
H1717 H 0.26783 0.42983 0.23884 0.0
H1718 H 0.24396 0.42925 0.24003 0.0
C1719 C 0.16226 0.41969 0.24346 0.0
C1720 C 0.1899 0.40659 0.25656 0.0
H1721 H 0.22489 0.42334 0.28602 0.0
C1722 C 0.19107 0.39645 0.2378 0.0
C1723 C 0.20216 0.41635 0.27426 0.0
C1724 C 0.20127 0.4272 0.29523 0.0
C1725 C 0.20439 0.39606 0.23572 0.0
C1726 C 0.2167 0.40583 0.25348 0.0
C1727 C 0.21544 0.41587 0.27244 0.0
C1728 C 0.23108 0.40598 0.25242 0.0
C1729 C 0.2053 0.38555 0.21385 0.0
C1730 C 0.23177 0.39312 0.25924 0.0
C1731 C 0.24536 0.39335 0.25812 0.0
C1732 C 0.25858 0.40651 0.25055 0.0
C1733 C 0.25785 0.41943 0.2442 0.0
C1734 C 0.24424 0.41916 0.24512 0.0
H1735 H 0.19659 0.38199 0.19652 0.0
H1736 H 0.2164 0.39079 0.20299 0.0
H1737 H 0.20357 0.3754 0.22561 0.0
H1738 H 0.22179 0.38291 0.26554 0.0
H1739 H 0.24548 0.38316 0.26292 0.0
H1740 H 0.85578 0.24774 0.79004 0.0
H1741 H 0.83227 0.22394 0.78952 0.0
H1742 H 0.81755 0.23864 0.71421 0.0
H1743 H 0.84096 0.26246 0.71464 0.0
H1744 H 0.8032 0.21902 0.79486 0.0
H1745 H 0.81128 0.19808 0.68764 0.0
H1746 H 0.82636 0.21345 0.70706 0.0
H1747 H 0.81337 0.21636 0.68578 0.0
C1748 C 0.84751 0.24592 0.77344 0.0
C1749 C 0.85025 0.25695 0.75229 0.0
C1750 C 0.83413 0.23231 0.77309 0.0
C1751 C 0.8233 0.22947 0.75154 0.0
C1752 C 0.82593 0.24049 0.73059 0.0
H1753 H 0.73422 0.15787 0.71364 0.0
H1754 H 0.75824 0.18107 0.71499 0.0
C1755 C 0.8393 0.25409 0.73088 0.0
C1756 C 0.80906 0.21513 0.75148 0.0
H1757 H 0.78716 0.18456 0.70921 0.0
C1758 C 0.79972 0.21142 0.77625 0.0
C1759 C 0.80459 0.20528 0.72713 0.0
C1760 C 0.81447 0.20839 0.70049 0.0
C1761 C 0.78582 0.19824 0.77702 0.0
C1762 C 0.7813 0.18847 0.75256 0.0
C1763 C 0.79068 0.19213 0.72788 0.0
C1764 C 0.7668 0.17442 0.752 0.0
C1765 C 0.77593 0.19507 0.80367 0.0
C1766 C 0.76376 0.16297 0.77216 0.0
C1767 C 0.75008 0.14967 0.77136 0.0
C1768 C 0.73923 0.14758 0.75025 0.0
C1769 C 0.74239 0.15906 0.72995 0.0
C1770 C 0.75607 0.17235 0.73077 0.0
H1771 H 0.77946 0.20522 0.81731 0.0
H1772 H 0.76413 0.19058 0.79695 0.0
H1773 H 0.77652 0.18658 0.81764 0.0
H1774 H 0.77203 0.16425 0.78832 0.0
H1775 H 0.74809 0.14094 0.78696 0.0
H1776 H 0.57553 0.73382 0.20931 0.0
H1777 H 0.57573 0.75754 0.20868 0.0
H1778 H 0.60391 0.77194 0.2858 0.0
H1779 H 0.60385 0.74827 0.28652 0.0
H1780 H 0.57971 0.77697 0.2891 0.0
H1781 H 0.61096 0.79817 0.18401 0.0
H1782 H 0.59471 0.77995 0.18144 0.0
H1783 H 0.61017 0.7827 0.20397 0.0
C1784 C 0.5819 0.74209 0.22596 0.0
C1785 C 0.58974 0.7392 0.24788 0.0
C1786 C 0.582 0.75563 0.22556 0.0
C1787 C 0.59002 0.76655 0.24694 0.0
C1788 C 0.59769 0.76364 0.26907 0.0
H1789 H 0.61427 0.8596 0.24284 0.0
H1790 H 0.61399 0.83584 0.24411 0.0
C1791 C 0.59759 0.7501 0.26952 0.0
C1792 C 0.59023 0.78094 0.24648 0.0
H1793 H 0.60056 0.81202 0.20468 0.0
C1794 C 0.58429 0.78467 0.2707 0.0
C1795 C 0.59638 0.79099 0.22256 0.0
C1796 C 0.60355 0.78786 0.19662 0.0
C1797 C 0.58416 0.79814 0.27147 0.0
C1798 C 0.58991 0.808 0.24717 0.0
C1799 C 0.59603 0.80436 0.22313 0.0
C1800 C 0.58995 0.8223 0.24649 0.0
C1801 C 0.5781 0.80184 0.29849 0.0
C1802 C 0.5765 0.82251 0.24706 0.0
C1803 C 0.57663 0.83606 0.24655 0.0
C1804 C 0.59021 0.84964 0.2453 0.0
C1805 C 0.60364 0.84935 0.24428 0.0
C1806 C 0.6035 0.8358 0.2448 0.0
H1807 H 0.57762 0.79501 0.31784 0.0
H1808 H 0.58503 0.81382 0.30432 0.0
H1809 H 0.5666 0.79951 0.29389 0.0
H1810 H 0.56592 0.81218 0.24785 0.0
H1811 H 0.5661 0.83591 0.24758 0.0
H1812 H 0.85103 0.59655 0.79226 0.0
H1813 H 0.82735 0.59646 0.79023 0.0
H1814 H 0.82372 0.58617 0.69726 0.0
H1815 H 0.84758 0.58658 0.69907 0.0
H1816 H 0.81663 0.60733 0.70871 0.0
H1817 H 0.78638 0.56012 0.78608 0.0
H1818 H 0.80302 0.57507 0.802 0.0
H1819 H 0.80436 0.56497 0.7709 0.0
C1820 C 0.84512 0.59419 0.77145 0.0
C1821 C 0.85106 0.59148 0.74586 0.0
C1822 C 0.83159 0.59408 0.77033 0.0
C1823 C 0.82362 0.59099 0.74373 0.0
C1824 C 0.82966 0.58851 0.71804 0.0
H1825 H 0.73043 0.56734 0.73524 0.0
H1826 H 0.75411 0.56746 0.73246 0.0
C1827 C 0.84328 0.58878 0.71908 0.0
C1828 C 0.80909 0.59052 0.74262 0.0
H1829 H 0.77452 0.57411 0.77406 0.0
C1830 C 0.80738 0.6 0.72286 0.0
C1831 C 0.79695 0.58076 0.76072 0.0
C1832 C 0.79769 0.56954 0.78089 0.0
C1833 C 0.79396 0.60023 0.72115 0.0
C1834 C 0.78207 0.591 0.7403 0.0
C1835 C 0.78369 0.5813 0.75962 0.0
C1836 C 0.76783 0.59115 0.74072 0.0
C1837 C 0.79257 0.61015 0.69848 0.0
C1838 C 0.76768 0.60441 0.74641 0.0
C1839 C 0.75418 0.60438 0.74773 0.0
C1840 C 0.74059 0.59103 0.74396 0.0
C1841 C 0.74075 0.57776 0.73845 0.0
C1842 C 0.75425 0.57783 0.73679 0.0
H1843 H 0.80057 0.61277 0.68 0.0
H1844 H 0.78111 0.60488 0.68927 0.0
H1845 H 0.79514 0.62084 0.70904 0.0
H1846 H 0.77799 0.61474 0.75035 0.0
H1847 H 0.75435 0.61472 0.75241 0.0
H1848 H 0.25514 0.84961 0.29786 0.0
H1849 H 0.23163 0.82587 0.29703 0.0
H1850 H 0.23672 0.822 0.20352 0.0
H1851 H 0.26029 0.8457 0.20416 0.0
H1852 H 0.20831 0.81632 0.21956 0.0
H1853 H 0.22652 0.78409 0.2888 0.0
H1854 H 0.22954 0.80115 0.30532 0.0
H1855 H 0.23952 0.8018 0.27237 0.0
C1856 C 0.25135 0.84362 0.27718 0.0
C1857 C 0.2596 0.84951 0.25109 0.0
C1858 C 0.23792 0.83006 0.27675 0.0
C1859 C 0.23257 0.8221 0.25029 0.0
C1860 C 0.2407 0.82798 0.22418 0.0
H1861 H 0.16182 0.73023 0.23076 0.0
H1862 H 0.18549 0.75381 0.23038 0.0
C1863 C 0.25412 0.84154 0.22456 0.0
C1864 C 0.21831 0.80777 0.2497 0.0
H1865 H 0.20065 0.77245 0.27778 0.0
C1866 C 0.20663 0.8067 0.23221 0.0
C1867 C 0.21624 0.79522 0.26596 0.0
C1868 C 0.22865 0.79551 0.28397 0.0
C1869 C 0.19281 0.79345 0.2309 0.0
C1870 C 0.1906 0.78105 0.2479 0.0
C1871 C 0.20236 0.78204 0.26501 0.0
C1872 C 0.1762 0.76686 0.24795 0.0
C1873 C 0.1808 0.79277 0.21099 0.0
C1874 C 0.16319 0.76638 0.25824 0.0
C1875 C 0.14963 0.75295 0.25828 0.0
C1876 C 0.14886 0.73973 0.24819 0.0
C1877 C 0.16198 0.74025 0.23822 0.0
C1878 C 0.17553 0.75368 0.23818 0.0
H1879 H 0.18546 0.80172 0.19402 0.0
H1880 H 0.17469 0.7818 0.19968 0.0
H1881 H 0.17267 0.79425 0.22445 0.0
H1882 H 0.16353 0.77639 0.26635 0.0
H1883 H 0.13971 0.75296 0.2659 0.0
H1884 H 0.41332 0.26098 0.7012 0.0
H1885 H 0.41299 0.23718 0.70044 0.0
H1886 H 0.40459 0.2324 0.79414 0.0
H1887 H 0.40477 0.25612 0.7951 0.0
H1888 H 0.42731 0.2268 0.77575 0.0
H1889 H 0.37587 0.19541 0.70864 0.0
H1890 H 0.38985 0.21264 0.69251 0.0
H1891 H 0.38087 0.21296 0.72622 0.0
C1892 C 0.41124 0.25478 0.72159 0.0
C1893 C 0.40901 0.2604 0.7482 0.0
C1894 C 0.41106 0.2412 0.72111 0.0
C1895 C 0.40856 0.23297 0.74716 0.0
C1896 C 0.4065 0.2386 0.7738 0.0
H1897 H 0.3862 0.1409 0.76647 0.0
H1898 H 0.38663 0.16475 0.76653 0.0
C1899 C 0.40669 0.25218 0.77432 0.0
C1900 C 0.40834 0.21857 0.74679 0.0
H1901 H 0.38971 0.18329 0.71856 0.0
C1902 C 0.41909 0.21727 0.76329 0.0
C1903 C 0.39748 0.20615 0.73076 0.0
C1904 C 0.38527 0.20675 0.71372 0.0
C1905 C 0.4194 0.20388 0.76394 0.0
C1906 C 0.40878 0.19157 0.7473 0.0
C1907 C 0.39791 0.19282 0.73107 0.0
C1908 C 0.40857 0.17719 0.74694 0.0
C1909 C 0.4309 0.20293 0.78283 0.0
C1910 C 0.4207 0.17628 0.73554 0.0
C1911 C 0.42053 0.16271 0.73565 0.0
C1912 C 0.4082 0.14978 0.74706 0.0
C1913 C 0.39596 0.1507 0.75799 0.0
C1914 C 0.39614 0.16428 0.75785 0.0
H1915 H 0.43577 0.21199 0.79955 0.0
H1916 H 0.42597 0.19202 0.79438 0.0
H1917 H 0.4401 0.20399 0.76857 0.0
H1918 H 0.43029 0.18609 0.72657 0.0
H1919 H 0.43016 0.16239 0.72725 0.0
loop_
_geom_bond_atom_site_label_1
_geom_bond_atom_site_label_2
_geom_bond_distance
_geom_bond_site_symmetry_2
_ccdc_geom_bond_type
Li0 N17 1.990 . S
Li0 O60 1.956 . S
Li0 O61 1.970 . S
Li0 O62 1.961 . S
Li1 N25 1.990 . S
Li1 O60 1.970 . S
Li1 O61 1.956 . S
Li1 O63 1.961 . S
Li2 N47 1.990 . S
Li2 O60 1.961 . S
Li2 O62 1.956 . S
Li2 O63 1.970 . S
Li3 N53 1.990 . S
Li3 O61 1.961 . S
Li3 O62 1.970 . S
Li3 O63 1.956 . S
C4 C6 1.348 . S
C4 C7 1.356 . S
C4 O60 1.325 . S
N5 C8 1.314 . S
N5 C9 1.279 . S
C6 C4 1.348 . S
C6 C8 1.353 . S
C6 H64 0.929 . S
C7 C4 1.356 . S
C7 C9 1.358 . S
C7 H65 0.930 . S
C8 N5 1.314 . S
C8 C6 1.353 . S
C8 H66 0.930 . S
C9 N5 1.279 . S
C9 C7 1.358 . S
C9 H67 0.930 . S
C10 C13 1.348 . S
C10 C14 1.356 . S
C10 O61 1.325 . S
C11 N12 1.279 . S
C11 C14 1.358 . S
C11 H68 0.930 . S
N12 C11 1.279 . S
N12 C15 1.314 . S
C13 C10 1.348 . S
C13 C15 1.353 . S
C13 H69 0.929 . S
C14 C10 1.356 . S
C14 C11 1.358 . S
C14 H70 0.930 . S
C15 N12 1.314 . S
C15 C13 1.353 . S
C15 H71 0.930 . S
C16 N17 1.314 . S
C16 C21 1.353 . S
C16 H22 0.930 . S
N17 Li0 1.990 . S
N17 C16 1.314 . S
N17 C19 1.279 . S
C18 C19 1.358 . S
C18 C20 1.356 . S
C18 H72 0.930 . S
C19 N17 1.279 . S
C19 C18 1.358 . S
C19 H23 0.930 . S
C20 C18 1.356 . S
C20 C21 1.348 . S
C21 C16 1.353 . S
C21 C20 1.348 . S
C21 H73 0.929 . S
H22 C16 0.930 . S
H23 C19 0.930 . S
C24 N25 1.314 . S
C24 C26 1.353 . S
C24 H30 0.930 . S
N25 Li1 1.990 . S
N25 C24 1.314 . S
N25 C28 1.279 . S
C26 C24 1.353 . S
C26 C29 1.348 . S
C26 H74 0.929 . S
C27 C28 1.358 . S
C27 C29 1.356 . S
C27 H75 0.930 . S
C28 N25 1.279 . S
C28 C27 1.358 . S
C28 H31 0.930 . S
C29 C26 1.348 . S
C29 C27 1.356 . S
H30 C24 0.930 . S
H31 C28 0.930 . S
C32 C34 1.348 . S
C32 C35 1.356 . S
C32 O62 1.325 . S
N33 C36 1.314 . S
N33 C37 1.279 . S
C34 C32 1.348 . S
C34 C36 1.353 . S
C34 H76 0.929 . S
C35 C32 1.356 . S
C35 C37 1.358 . S
C35 H77 0.930 . S
C36 N33 1.314 . S
C36 C34 1.353 . S
C36 H78 0.930 . S
C37 N33 1.279 . S
C37 C35 1.358 . S
C37 H79 0.930 . S
C38 C39 1.348 . S
C38 C40 1.356 . S
C38 O63 1.325 . S
C39 C38 1.348 . S
C39 C41 1.353 . S
C39 H80 0.929 . S
C40 C38 1.356 . S
C40 C42 1.358 . S
C40 H81 0.930 . S
C41 C39 1.353 . S
C41 N43 1.314 . S
C41 H82 0.930 . S
C42 C40 1.358 . S
C42 N43 1.279 . S
C42 H83 0.930 . S
N43 C41 1.314 . S
N43 C42 1.279 . S
C44 C46 1.353 . S
C44 N47 1.314 . S
C44 H50 0.930 . S
C45 N47 1.279 . S
C45 C48 1.358 . S
C45 H51 0.930 . S
C46 C44 1.353 . S
C46 C49 1.348 . S
C46 H84 0.929 . S
N47 Li2 1.990 . S
N47 C44 1.314 . S
N47 C45 1.279 . S
C48 C45 1.358 . S
C48 C49 1.356 . S
C48 H85 0.930 . S
C49 C46 1.348 . S
C49 C48 1.356 . S
H50 C44 0.930 . S
H51 C45 0.930 . S
C52 N53 1.314 . S
C52 C54 1.353 . S
C52 H58 0.930 . S
N53 Li3 1.990 . S
N53 C52 1.314 . S
N53 C56 1.279 . S
C54 C52 1.353 . S
C54 C57 1.348 . S
C54 H86 0.929 . S
C55 C56 1.358 . S
C55 C57 1.356 . S
C55 H87 0.930 . S
C56 N53 1.279 . S
C56 C55 1.358 . S
C56 H59 0.930 . S
C57 C54 1.348 . S
C57 C55 1.356 . S
H58 C52 0.930 . S
H59 C56 0.930 . S
O60 Li0 1.956 . S
O60 Li1 1.970 . S
O60 Li2 1.961 . S
O60 C4 1.325 . S
O61 Li0 1.970 . S
O61 Li1 1.956 . S
O61 Li3 1.961 . S
O61 C10 1.325 . S
O62 Li0 1.961 . S
O62 Li2 1.956 . S
O62 Li3 1.970 . S
O62 C32 1.325 . S
O63 Li1 1.961 . S
O63 Li2 1.970 . S
O63 Li3 1.956 . S
O63 C38 1.325 . S
H64 C6 0.929 . S
H65 C7 0.930 . S
H66 C8 0.930 . S
H67 C9 0.930 . S
H68 C11 0.930 . S
H69 C13 0.929 . S
H70 C14 0.930 . S
H71 C15 0.930 . S
H72 C18 0.930 . S
H73 C21 0.929 . S
H74 C26 0.929 . S
H75 C27 0.930 . S
H76 C34 0.929 . S
H77 C35 0.930 . S
H78 C36 0.930 . S
H79 C37 0.930 . S
H80 C39 0.929 . S
H81 C40 0.930 . S
H82 C41 0.930 . S
H83 C42 0.930 . S
H84 C46 0.929 . S
H85 C48 0.930 . S
H86 C54 0.929 . S
H87 C55 0.930 . S
Li88 N105 1.990 . S
Li88 O148 1.956 . S
Li88 O149 1.970 . S
Li88 O150 1.961 . S
Li89 N113 1.990 . S
Li89 O148 1.970 . S
Li89 O149 1.956 . S
Li89 O151 1.961 . S
Li90 N135 1.990 . S
Li90 O148 1.961 . S
Li90 O150 1.956 . S
Li90 O151 1.970 . S
Li91 N141 1.990 . S
Li91 O149 1.961 . S
Li91 O150 1.970 . S
Li91 O151 1.956 . S
C92 C94 1.348 . S
C92 C95 1.356 . S
C92 O148 1.325 . S
N93 C96 1.314 . S
N93 C97 1.279 . S
C94 C92 1.348 . S
C94 C96 1.353 . S
C94 H152 0.929 . S
C95 C92 1.356 . S
C95 C97 1.358 . S
C95 H153 0.930 . S
C96 N93 1.314 . S
C96 C94 1.353 . S
C96 H154 0.930 . S
C97 N93 1.279 . S
C97 C95 1.358 . S
C97 H155 0.930 . S
C98 C101 1.348 . S
C98 C102 1.356 . S
C98 O149 1.325 . S
C99 N100 1.279 . S
C99 C102 1.358 . S
C99 H156 0.930 . S
N100 C99 1.279 . S
N100 C103 1.314 . S
C101 C98 1.348 . S
C101 C103 1.353 . S
C101 H157 0.929 . S
C102 C98 1.356 . S
C102 C99 1.358 . S
C102 H158 0.930 . S
C103 N100 1.314 . S
C103 C101 1.353 . S
C103 H159 0.930 . S
C104 N105 1.314 . S
C104 C109 1.353 . S
C104 H110 0.930 . S
N105 Li88 1.990 . S
N105 C104 1.314 . S
N105 C107 1.279 . S
C106 C107 1.358 . S
C106 C108 1.356 . S
C106 H160 0.930 . S
C107 N105 1.279 . S
C107 C106 1.358 . S
C107 H111 0.930 . S
C108 C106 1.356 . S
C108 C109 1.348 . S
C109 C104 1.353 . S
C109 C108 1.348 . S
C109 H161 0.929 . S
H110 C104 0.930 . S
H111 C107 0.930 . S
C112 N113 1.314 . S
C112 C114 1.353 . S
C112 H118 0.930 . S
N113 Li89 1.990 . S
N113 C112 1.314 . S
N113 C116 1.279 . S
C114 C112 1.353 . S
C114 C117 1.348 . S
C114 H162 0.929 . S
C115 C116 1.358 . S
C115 C117 1.356 . S
C115 H163 0.930 . S
C116 N113 1.279 . S
C116 C115 1.358 . S
C116 H119 0.930 . S
C117 C114 1.348 . S
C117 C115 1.356 . S
H118 C112 0.930 . S
H119 C116 0.930 . S
C120 C122 1.348 . S
C120 C123 1.356 . S
C120 O150 1.325 . S
N121 C124 1.314 . S
N121 C125 1.279 . S
C122 C120 1.348 . S
C122 C124 1.353 . S
C122 H164 0.929 . S
C123 C120 1.356 . S
C123 C125 1.358 . S
C123 H165 0.930 . S
C124 N121 1.314 . S
C124 C122 1.353 . S
C124 H166 0.930 . S
C125 N121 1.279 . S
C125 C123 1.358 . S
C125 H167 0.930 . S
C126 C127 1.348 . S
C126 C128 1.356 . S
C126 O151 1.325 . S
C127 C126 1.348 . S
C127 C129 1.353 . S
C127 H168 0.929 . S
C128 C126 1.356 . S
C128 C130 1.358 . S
C128 H169 0.930 . S
C129 C127 1.353 . S
C129 N131 1.314 . S
C129 H170 0.930 . S
C130 C128 1.358 . S
C130 N131 1.279 . S
C130 H171 0.930 . S
N131 C129 1.314 . S
N131 C130 1.279 . S
C132 C134 1.353 . S
C132 N135 1.314 . S
C132 H138 0.930 . S
C133 N135 1.279 . S
C133 C136 1.358 . S
C133 H139 0.930 . S
C134 C132 1.353 . S
C134 C137 1.348 . S
C134 H172 0.929 . S
N135 Li90 1.990 . S
N135 C132 1.314 . S
N135 C133 1.279 . S
C136 C133 1.358 . S
C136 C137 1.356 . S
C136 H173 0.930 . S
C137 C134 1.348 . S
C137 C136 1.356 . S
H138 C132 0.930 . S
H139 C133 0.930 . S
C140 N141 1.314 . S
C140 C142 1.353 . S
C140 H146 0.930 . S
N141 Li91 1.990 . S
N141 C140 1.314 . S
N141 C144 1.279 . S
C142 C140 1.353 . S
C142 C145 1.348 . S
C142 H174 0.929 . S
C143 C144 1.358 . S
C143 C145 1.356 . S
C143 H175 0.930 . S
C144 N141 1.279 . S
C144 C143 1.358 . S
C144 H147 0.930 . S
C145 C142 1.348 . S
C145 C143 1.356 . S
H146 C140 0.930 . S
H147 C144 0.930 . S
O148 Li88 1.956 . S
O148 Li89 1.970 . S
O148 Li90 1.961 . S
O148 C92 1.325 . S
O149 Li88 1.970 . S
O149 Li89 1.956 . S
O149 Li91 1.961 . S
O149 C98 1.325 . S
O150 Li88 1.961 . S
O150 Li90 1.956 . S
O150 Li91 1.970 . S
O150 C120 1.325 . S
O151 Li89 1.961 . S
O151 Li90 1.970 . S
O151 Li91 1.956 . S
O151 C126 1.325 . S
H152 C94 0.929 . S
H153 C95 0.930 . S
H154 C96 0.930 . S
H155 C97 0.930 . S
H156 C99 0.930 . S
H157 C101 0.929 . S
H158 C102 0.930 . S
H159 C103 0.930 . S
H160 C106 0.930 . S
H161 C109 0.929 . S
H162 C114 0.929 . S
H163 C115 0.930 . S
H164 C122 0.929 . S
H165 C123 0.930 . S
H166 C124 0.930 . S
H167 C125 0.930 . S
H168 C127 0.929 . S
H169 C128 0.930 . S
H170 C129 0.930 . S
H171 C130 0.930 . S
H172 C134 0.929 . S
H173 C136 0.930 . S
H174 C142 0.929 . S
H175 C143 0.930 . S
Li176 N193 1.990 . S
Li176 O236 1.956 . S
Li176 O237 1.970 . S
Li176 O238 1.961 . S
Li177 N201 1.990 . S
Li177 O236 1.970 . S
Li177 O237 1.956 . S
Li177 O239 1.961 . S
Li178 N223 1.990 . S
Li178 O236 1.961 . S
Li178 O238 1.956 . S
Li178 O239 1.970 . S
Li179 N229 1.990 . S
Li179 O237 1.961 . S
Li179 O238 1.970 . S
Li179 O239 1.956 . S
C180 C182 1.348 . S
C180 C183 1.356 . S
C180 O236 1.325 . S
N181 C184 1.314 . S
N181 C185 1.279 . S
C182 C180 1.348 . S
C182 C184 1.353 . S
C182 H240 0.929 . S
C183 C180 1.356 . S
C183 C185 1.358 . S
C183 H241 0.930 . S
C184 N181 1.314 . S
C184 C182 1.353 . S
C184 H242 0.930 . S
C185 N181 1.279 . S
C185 C183 1.358 . S
C185 H243 0.930 . S
C186 C189 1.348 . S
C186 C190 1.356 . S
C186 O237 1.325 . S
C187 N188 1.279 . S
C187 C190 1.358 . S
C187 H244 0.930 . S
N188 C187 1.279 . S
N188 C191 1.314 . S
C189 C186 1.348 . S
C189 C191 1.353 . S
C189 H245 0.929 . S
C190 C186 1.356 . S
C190 C187 1.358 . S
C190 H246 0.930 . S
C191 N188 1.314 . S
C191 C189 1.353 . S
C191 H247 0.930 . S
C192 N193 1.314 . S
C192 C197 1.353 . S
C192 H198 0.930 . S
N193 Li176 1.990 . S
N193 C192 1.314 . S
N193 C195 1.279 . S
C194 C195 1.358 . S
C194 C196 1.356 . S
C194 H248 0.930 . S
C195 N193 1.279 . S
C195 C194 1.358 . S
C195 H199 0.930 . S
C196 C194 1.356 . S
C196 C197 1.348 . S
C197 C192 1.353 . S
C197 C196 1.348 . S
C197 H249 0.929 . S
H198 C192 0.930 . S
H199 C195 0.930 . S
C200 N201 1.314 . S
C200 C202 1.353 . S
C200 H206 0.930 . S
N201 Li177 1.990 . S
N201 C200 1.314 . S
N201 C204 1.279 . S
C202 C200 1.353 . S
C202 C205 1.348 . S
C202 H250 0.929 . S
C203 C204 1.358 . S
C203 C205 1.356 . S
C203 H251 0.930 . S
C204 N201 1.279 . S
C204 C203 1.358 . S
C204 H207 0.930 . S
C205 C202 1.348 . S
C205 C203 1.356 . S
H206 C200 0.930 . S
H207 C204 0.930 . S
C208 C210 1.348 . S
C208 C211 1.356 . S
C208 O238 1.325 . S
N209 C212 1.314 . S
N209 C213 1.279 . S
C210 C208 1.348 . S
C210 C212 1.353 . S
C210 H252 0.929 . S
C211 C208 1.356 . S
C211 C213 1.358 . S
C211 H253 0.930 . S
C212 N209 1.314 . S
C212 C210 1.353 . S
C212 H254 0.930 . S
C213 N209 1.279 . S
C213 C211 1.358 . S
C213 H255 0.930 . S
C214 C215 1.348 . S
C214 C216 1.356 . S
C214 O239 1.325 . S
C215 C214 1.348 . S
C215 C217 1.353 . S
C215 H256 0.929 . S
C216 C214 1.356 . S
C216 C218 1.358 . S
C216 H257 0.930 . S
C217 C215 1.353 . S
C217 N219 1.314 . S
C217 H258 0.930 . S
C218 C216 1.358 . S
C218 N219 1.279 . S
C218 H259 0.930 . S
N219 C217 1.314 . S
N219 C218 1.279 . S
C220 C222 1.353 . S
C220 N223 1.314 . S
C220 H226 0.930 . S
C221 N223 1.279 . S
C221 C224 1.358 . S
C221 H227 0.930 . S
C222 C220 1.353 . S
C222 C225 1.348 . S
C222 H260 0.929 . S
N223 Li178 1.990 . S
N223 C220 1.314 . S
N223 C221 1.279 . S
C224 C221 1.358 . S
C224 C225 1.356 . S
C224 H261 0.930 . S
C225 C222 1.348 . S
C225 C224 1.356 . S
H226 C220 0.930 . S
H227 C221 0.930 . S
C228 N229 1.314 . S
C228 C230 1.353 . S
C228 H234 0.930 . S
N229 Li179 1.990 . S
N229 C228 1.314 . S
N229 C232 1.279 . S
C230 C228 1.353 . S
C230 C233 1.348 . S
C230 H262 0.929 . S
C231 C232 1.358 . S
C231 C233 1.356 . S
C231 H263 0.930 . S
C232 N229 1.279 . S
C232 C231 1.358 . S
C232 H235 0.930 . S
C233 C230 1.348 . S
C233 C231 1.356 . S
H234 C228 0.930 . S
H235 C232 0.930 . S
O236 Li176 1.956 . S
O236 Li177 1.970 . S
O236 Li178 1.961 . S
O236 C180 1.325 . S
O237 Li176 1.970 . S
O237 Li177 1.956 . S
O237 Li179 1.961 . S
O237 C186 1.325 . S
O238 Li176 1.961 . S
O238 Li178 1.956 . S
O238 Li179 1.970 . S
O238 C208 1.325 . S
O239 Li177 1.961 . S
O239 Li178 1.970 . S
O239 Li179 1.956 . S
O239 C214 1.325 . S
H240 C182 0.929 . S
H241 C183 0.930 . S
H242 C184 0.930 . S
H243 C185 0.930 . S
H244 C187 0.930 . S
H245 C189 0.929 . S
H246 C190 0.930 . S
H247 C191 0.930 . S
H248 C194 0.930 . S
H249 C197 0.929 . S
H250 C202 0.929 . S
H251 C203 0.930 . S
H252 C210 0.929 . S
H253 C211 0.930 . S
H254 C212 0.930 . S
H255 C213 0.930 . S
H256 C215 0.929 . S
H257 C216 0.930 . S
H258 C217 0.930 . S
H259 C218 0.930 . S
H260 C222 0.929 . S
H261 C224 0.930 . S
H262 C230 0.929 . S
H263 C231 0.930 . S
Li264 N281 1.990 . S
Li264 O324 1.956 . S
Li264 O325 1.970 . S
Li264 O326 1.961 . S
Li265 N289 1.990 . S
Li265 O324 1.970 . S
Li265 O325 1.956 . S
Li265 O327 1.961 . S
Li266 N311 1.990 . S
Li266 O324 1.961 . S
Li266 O326 1.956 . S
Li266 O327 1.970 . S
Li267 N317 1.990 . S
Li267 O325 1.961 . S
Li267 O326 1.970 . S
Li267 O327 1.956 . S
C268 C270 1.348 . S
C268 C271 1.356 . S
C268 O324 1.325 . S
N269 C272 1.314 . S
N269 C273 1.279 . S
C270 C268 1.348 . S
C270 C272 1.353 . S
C270 H328 0.929 . S
C271 C268 1.356 . S
C271 C273 1.358 . S
C271 H329 0.930 . S
C272 N269 1.314 . S
C272 C270 1.353 . S
C272 H330 0.930 . S
C273 N269 1.279 . S
C273 C271 1.358 . S
C273 H331 0.930 . S
C274 C277 1.348 . S
C274 C278 1.356 . S
C274 O325 1.325 . S
C275 N276 1.279 . S
C275 C278 1.358 . S
C275 H332 0.930 . S
N276 C275 1.279 . S
N276 C279 1.314 . S
C277 C274 1.348 . S
C277 C279 1.353 . S
C277 H333 0.929 . S
C278 C274 1.356 . S
C278 C275 1.358 . S
C278 H334 0.930 . S
C279 N276 1.314 . S
C279 C277 1.353 . S
C279 H335 0.930 . S
C280 N281 1.314 . S
C280 C285 1.353 . S
C280 H286 0.930 . S
N281 Li264 1.990 . S
N281 C280 1.314 . S
N281 C283 1.279 . S
C282 C283 1.358 . S
C282 C284 1.356 . S
C282 H336 0.930 . S
C283 N281 1.279 . S
C283 C282 1.358 . S
C283 H287 0.930 . S
C284 C282 1.356 . S
C284 C285 1.348 . S
C285 C280 1.353 . S
C285 C284 1.348 . S
C285 H337 0.929 . S
H286 C280 0.930 . S
H287 C283 0.930 . S
C288 N289 1.314 . S
C288 C290 1.353 . S
C288 H294 0.930 . S
N289 Li265 1.990 . S
N289 C288 1.314 . S
N289 C292 1.279 . S
C290 C288 1.353 . S
C290 C293 1.348 . S
C290 H338 0.929 . S
C291 C292 1.358 . S
C291 C293 1.356 . S
C291 H339 0.930 . S
C292 N289 1.279 . S
C292 C291 1.358 . S
C292 H295 0.930 . S
C293 C290 1.348 . S
C293 C291 1.356 . S
H294 C288 0.930 . S
H295 C292 0.930 . S
C296 C298 1.348 . S
C296 C299 1.356 . S
C296 O326 1.325 . S
N297 C300 1.314 . S
N297 C301 1.279 . S
C298 C296 1.348 . S
C298 C300 1.353 . S
C298 H340 0.929 . S
C299 C296 1.356 . S
C299 C301 1.358 . S
C299 H341 0.930 . S
C300 N297 1.314 . S
C300 C298 1.353 . S
C300 H342 0.930 . S
C301 N297 1.279 . S
C301 C299 1.358 . S
C301 H343 0.930 . S
C302 C303 1.348 . S
C302 C304 1.356 . S
C302 O327 1.325 . S
C303 C302 1.348 . S
C303 C305 1.353 . S
C303 H344 0.929 . S
C304 C302 1.356 . S
C304 C306 1.358 . S
C304 H345 0.930 . S
C305 C303 1.353 . S
C305 N307 1.314 . S
C305 H346 0.930 . S
C306 C304 1.358 . S
C306 N307 1.279 . S
C306 H347 0.930 . S
N307 C305 1.314 . S
N307 C306 1.279 . S
C308 C310 1.353 . S
C308 N311 1.314 . S
C308 H314 0.930 . S
C309 N311 1.279 . S
C309 C312 1.358 . S
C309 H315 0.930 . S
C310 C308 1.353 . S
C310 C313 1.348 . S
C310 H348 0.929 . S
N311 Li266 1.990 . S
N311 C308 1.314 . S
N311 C309 1.279 . S
C312 C309 1.358 . S
C312 C313 1.356 . S
C312 H349 0.930 . S
C313 C310 1.348 . S
C313 C312 1.356 . S
H314 C308 0.930 . S
H315 C309 0.930 . S
C316 N317 1.314 . S
C316 C318 1.353 . S
C316 H322 0.930 . S
N317 Li267 1.990 . S
N317 C316 1.314 . S
N317 C320 1.279 . S
C318 C316 1.353 . S
C318 C321 1.348 . S
C318 H350 0.929 . S
C319 C320 1.358 . S
C319 C321 1.356 . S
C319 H351 0.930 . S
C320 N317 1.279 . S
C320 C319 1.358 . S
C320 H323 0.930 . S
C321 C318 1.348 . S
C321 C319 1.356 . S
H322 C316 0.930 . S
H323 C320 0.930 . S
O324 Li264 1.956 . S
O324 Li265 1.970 . S
O324 Li266 1.961 . S
O324 C268 1.325 . S
O325 Li264 1.970 . S
O325 Li265 1.956 . S
O325 Li267 1.961 . S
O325 C274 1.325 . S
O326 Li264 1.961 . S
O326 Li266 1.956 . S
O326 Li267 1.970 . S
O326 C296 1.325 . S
O327 Li265 1.961 . S
O327 Li266 1.970 . S
O327 Li267 1.956 . S
O327 C302 1.325 . S
H328 C270 0.929 . S
H329 C271 0.930 . S
H330 C272 0.930 . S
H331 C273 0.930 . S
H332 C275 0.930 . S
H333 C277 0.929 . S
H334 C278 0.930 . S
H335 C279 0.930 . S
H336 C282 0.930 . S
H337 C285 0.929 . S
H338 C290 0.929 . S
H339 C291 0.930 . S
H340 C298 0.929 . S
H341 C299 0.930 . S
H342 C300 0.930 . S
H343 C301 0.930 . S
H344 C303 0.929 . S
H345 C304 0.930 . S
H346 C305 0.930 . S
H347 C306 0.930 . S
H348 C310 0.929 . S
H349 C312 0.930 . S
H350 C318 0.929 . S
H351 C319 0.930 . S
Li352 N369 1.990 . S
Li352 O412 1.956 . S
Li352 O413 1.970 . S
Li352 O414 1.961 . S
Li353 N377 1.990 . S
Li353 O412 1.970 . S
Li353 O413 1.956 . S
Li353 O415 1.961 . S
Li354 N399 1.990 . S
Li354 O412 1.961 . S
Li354 O414 1.956 . S
Li354 O415 1.970 . S
Li355 N405 1.990 . S
Li355 O413 1.961 . S
Li355 O414 1.970 . S
Li355 O415 1.956 . S
C356 C358 1.348 . S
C356 C359 1.356 . S
C356 O412 1.325 . S
N357 C360 1.314 . S
N357 C361 1.279 . S
C358 C356 1.348 . S
C358 C360 1.353 . S
C358 H416 0.929 . S
C359 C356 1.356 . S
C359 C361 1.358 . S
C359 H417 0.930 . S
C360 N357 1.314 . S
C360 C358 1.353 . S
C360 H418 0.930 . S
C361 N357 1.279 . S
C361 C359 1.358 . S
C361 H419 0.930 . S
C362 C365 1.348 . S
C362 C366 1.356 . S
C362 O413 1.325 . S
C363 N364 1.279 . S
C363 C366 1.358 . S
C363 H420 0.930 . S
N364 C363 1.279 . S
N364 C367 1.314 . S
C365 C362 1.348 . S
C365 C367 1.353 . S
C365 H421 0.929 . S
C366 C362 1.356 . S
C366 C363 1.358 . S
C366 H422 0.930 . S
C367 N364 1.314 . S
C367 C365 1.353 . S
C367 H423 0.930 . S
C368 N369 1.314 . S
C368 C373 1.353 . S
C368 H374 0.930 . S
N369 Li352 1.990 . S
N369 C368 1.314 . S
N369 C371 1.279 . S
C370 C371 1.358 . S
C370 C372 1.356 . S
C370 H424 0.930 . S
C371 N369 1.279 . S
C371 C370 1.358 . S
C371 H375 0.930 . S
C372 C370 1.356 . S
C372 C373 1.348 . S
C373 C368 1.353 . S
C373 C372 1.348 . S
C373 H425 0.929 . S
H374 C368 0.930 . S
H375 C371 0.930 . S
C376 N377 1.314 . S
C376 C378 1.353 . S
C376 H382 0.930 . S
N377 Li353 1.990 . S
N377 C376 1.314 . S
N377 C380 1.279 . S
C378 C376 1.353 . S
C378 C381 1.348 . S
C378 H426 0.929 . S
C379 C380 1.358 . S
C379 C381 1.356 . S
C379 H427 0.930 . S
C380 N377 1.279 . S
C380 C379 1.358 . S
C380 H383 0.930 . S
C381 C378 1.348 . S
C381 C379 1.356 . S
H382 C376 0.930 . S
H383 C380 0.930 . S
C384 C386 1.348 . S
C384 C387 1.356 . S
C384 O414 1.325 . S
N385 C388 1.314 . S
N385 C389 1.279 . S
C386 C384 1.348 . S
C386 C388 1.353 . S
C386 H428 0.929 . S
C387 C384 1.356 . S
C387 C389 1.358 . S
C387 H429 0.930 . S
C388 N385 1.314 . S
C388 C386 1.353 . S
C388 H430 0.930 . S
C389 N385 1.279 . S
C389 C387 1.358 . S
C389 H431 0.930 . S
C390 C391 1.348 . S
C390 C392 1.356 . S
C390 O415 1.325 . S
C391 C390 1.348 . S
C391 C393 1.353 . S
C391 H432 0.929 . S
C392 C390 1.356 . S
C392 C394 1.358 . S
C392 H433 0.930 . S
C393 C391 1.353 . S
C393 N395 1.314 . S
C393 H434 0.930 . S
C394 C392 1.358 . S
C394 N395 1.279 . S
C394 H435 0.930 . S
N395 C393 1.314 . S
N395 C394 1.279 . S
C396 C398 1.353 . S
C396 N399 1.314 . S
C396 H402 0.930 . S
C397 N399 1.279 . S
C397 C400 1.358 . S
C397 H403 0.930 . S
C398 C396 1.353 . S
C398 C401 1.348 . S
C398 H436 0.929 . S
N399 Li354 1.990 . S
N399 C396 1.314 . S
N399 C397 1.279 . S
C400 C397 1.358 . S
C400 C401 1.356 . S
C400 H437 0.930 . S
C401 C398 1.348 . S
C401 C400 1.356 . S
H402 C396 0.930 . S
H403 C397 0.930 . S
C404 N405 1.314 . S
C404 C406 1.353 . S
C404 H410 0.930 . S
N405 Li355 1.990 . S
N405 C404 1.314 . S
N405 C408 1.279 . S
C406 C404 1.353 . S
C406 C409 1.348 . S
C406 H438 0.929 . S
C407 C408 1.358 . S
C407 C409 1.356 . S
C407 H439 0.930 . S
C408 N405 1.279 . S
C408 C407 1.358 . S
C408 H411 0.930 . S
C409 C406 1.348 . S
C409 C407 1.356 . S
H410 C404 0.930 . S
H411 C408 0.930 . S
O412 Li352 1.956 . S
O412 Li353 1.970 . S
O412 Li354 1.961 . S
O412 C356 1.325 . S
O413 Li352 1.970 . S
O413 Li353 1.956 . S
O413 Li355 1.961 . S
O413 C362 1.325 . S
O414 Li352 1.961 . S
O414 Li354 1.956 . S
O414 Li355 1.970 . S
O414 C384 1.325 . S
O415 Li353 1.961 . S
O415 Li354 1.970 . S
O415 Li355 1.956 . S
O415 C390 1.325 . S
H416 C358 0.929 . S
H417 C359 0.930 . S
H418 C360 0.930 . S
H419 C361 0.930 . S
H420 C363 0.930 . S
H421 C365 0.929 . S
H422 C366 0.930 . S
H423 C367 0.930 . S
H424 C370 0.930 . S
H425 C373 0.929 . S
H426 C378 0.929 . S
H427 C379 0.930 . S
H428 C386 0.929 . S
H429 C387 0.930 . S
H430 C388 0.930 . S
H431 C389 0.930 . S
H432 C391 0.929 . S
H433 C392 0.930 . S
H434 C393 0.930 . S
H435 C394 0.930 . S
H436 C398 0.929 . S
H437 C400 0.930 . S
H438 C406 0.929 . S
H439 C407 0.930 . S
Li440 N457 1.990 . S
Li440 O500 1.956 . S
Li440 O501 1.970 . S
Li440 O502 1.961 . S
Li441 N465 1.990 . S
Li441 O500 1.970 . S
Li441 O501 1.956 . S
Li441 O503 1.961 . S
Li442 N487 1.990 . S
Li442 O500 1.961 . S
Li442 O502 1.956 . S
Li442 O503 1.970 . S
Li443 N493 1.990 . S
Li443 O501 1.961 . S
Li443 O502 1.970 . S
Li443 O503 1.956 . S
C444 C446 1.348 . S
C444 C447 1.356 . S
C444 O500 1.325 . S
N445 C448 1.314 . S
N445 C449 1.279 . S
C446 C444 1.348 . S
C446 C448 1.353 . S
C446 H504 0.929 . S
C447 C444 1.356 . S
C447 C449 1.358 . S
C447 H505 0.930 . S
C448 N445 1.314 . S
C448 C446 1.353 . S
C448 H506 0.930 . S
C449 N445 1.279 . S
C449 C447 1.358 . S
C449 H507 0.930 . S
C450 C453 1.348 . S
C450 C454 1.356 . S
C450 O501 1.325 . S
C451 N452 1.279 . S
C451 C454 1.358 . S
C451 H508 0.930 . S
N452 C451 1.279 . S
N452 C455 1.314 . S
C453 C450 1.348 . S
C453 C455 1.353 . S
C453 H509 0.929 . S
C454 C450 1.356 . S
C454 C451 1.358 . S
C454 H510 0.930 . S
C455 N452 1.314 . S
C455 C453 1.353 . S
C455 H511 0.930 . S
C456 N457 1.314 . S
C456 C461 1.353 . S
C456 H462 0.930 . S
N457 Li440 1.990 . S
N457 C456 1.314 . S
N457 C459 1.279 . S
C458 C459 1.358 . S
C458 C460 1.356 . S
C458 H512 0.930 . S
C459 N457 1.279 . S
C459 C458 1.358 . S
C459 H463 0.930 . S
C460 C458 1.356 . S
C460 C461 1.348 . S
C461 C456 1.353 . S
C461 C460 1.348 . S
C461 H513 0.929 . S
H462 C456 0.930 . S
H463 C459 0.930 . S
C464 N465 1.314 . S
C464 C466 1.353 . S
C464 H470 0.930 . S
N465 Li441 1.990 . S
N465 C464 1.314 . S
N465 C468 1.279 . S
C466 C464 1.353 . S
C466 C469 1.348 . S
C466 H514 0.929 . S
C467 C468 1.358 . S
C467 C469 1.356 . S
C467 H515 0.930 . S
C468 N465 1.279 . S
C468 C467 1.358 . S
C468 H471 0.930 . S
C469 C466 1.348 . S
C469 C467 1.356 . S
H470 C464 0.930 . S
H471 C468 0.930 . S
C472 C474 1.348 . S
C472 C475 1.356 . S
C472 O502 1.325 . S
N473 C476 1.314 . S
N473 C477 1.279 . S
C474 C472 1.348 . S
C474 C476 1.353 . S
C474 H516 0.929 . S
C475 C472 1.356 . S
C475 C477 1.358 . S
C475 H517 0.930 . S
C476 N473 1.314 . S
C476 C474 1.353 . S
C476 H518 0.930 . S
C477 N473 1.279 . S
C477 C475 1.358 . S
C477 H519 0.930 . S
C478 C479 1.348 . S
C478 C480 1.356 . S
C478 O503 1.325 . S
C479 C478 1.348 . S
C479 C481 1.353 . S
C479 H520 0.929 . S
C480 C478 1.356 . S
C480 C482 1.358 . S
C480 H521 0.930 . S
C481 C479 1.353 . S
C481 N483 1.314 . S
C481 H522 0.930 . S
C482 C480 1.358 . S
C482 N483 1.279 . S
C482 H523 0.930 . S
N483 C481 1.314 . S
N483 C482 1.279 . S
C484 C486 1.353 . S
C484 N487 1.314 . S
C484 H490 0.930 . S
C485 N487 1.279 . S
C485 C488 1.358 . S
C485 H491 0.930 . S
C486 C484 1.353 . S
C486 C489 1.348 . S
C486 H524 0.929 . S
N487 Li442 1.990 . S
N487 C484 1.314 . S
N487 C485 1.279 . S
C488 C485 1.358 . S
C488 C489 1.356 . S
C488 H525 0.930 . S
C489 C486 1.348 . S
C489 C488 1.356 . S
H490 C484 0.930 . S
H491 C485 0.930 . S
C492 N493 1.314 . S
C492 C494 1.353 . S
C492 H498 0.930 . S
N493 Li443 1.990 . S
N493 C492 1.314 . S
N493 C496 1.279 . S
C494 C492 1.353 . S
C494 C497 1.348 . S
C494 H526 0.929 . S
C495 C496 1.358 . S
C495 C497 1.356 . S
C495 H527 0.930 . S
C496 N493 1.279 . S
C496 C495 1.358 . S
C496 H499 0.930 . S
C497 C494 1.348 . S
C497 C495 1.356 . S
H498 C492 0.930 . S
H499 C496 0.930 . S
O500 Li440 1.956 . S
O500 Li441 1.970 . S
O500 Li442 1.961 . S
O500 C444 1.325 . S
O501 Li440 1.970 . S
O501 Li441 1.956 . S
O501 Li443 1.961 . S
O501 C450 1.325 . S
O502 Li440 1.961 . S
O502 Li442 1.956 . S
O502 Li443 1.970 . S
O502 C472 1.325 . S
O503 Li441 1.961 . S
O503 Li442 1.970 . S
O503 Li443 1.956 . S
O503 C478 1.325 . S
H504 C446 0.929 . S
H505 C447 0.930 . S
H506 C448 0.930 . S
H507 C449 0.930 . S
H508 C451 0.930 . S
H509 C453 0.929 . S
H510 C454 0.930 . S
H511 C455 0.930 . S
H512 C458 0.930 . S
H513 C461 0.929 . S
H514 C466 0.929 . S
H515 C467 0.930 . S
H516 C474 0.929 . S
H517 C475 0.930 . S
H518 C476 0.930 . S
H519 C477 0.930 . S
H520 C479 0.929 . S
H521 C480 0.930 . S
H522 C481 0.930 . S
H523 C482 0.930 . S
H524 C486 0.929 . S
H525 C488 0.930 . S
H526 C494 0.929 . S
H527 C495 0.930 . S
Li528 N545 1.990 . S
Li528 O588 1.956 . S
Li528 O589 1.970 . S
Li528 O590 1.961 . S
Li529 N553 1.990 . S
Li529 O588 1.970 . S
Li529 O589 1.956 . S
Li529 O591 1.961 . S
Li530 N575 1.990 . S
Li530 O588 1.961 . S
Li530 O590 1.956 . S
Li530 O591 1.970 . S
Li531 N581 1.990 . S
Li531 O589 1.961 . S
Li531 O590 1.970 . S
Li531 O591 1.956 . S
C532 C534 1.348 . S
C532 C535 1.356 . S
C532 O588 1.325 . S
N533 C536 1.314 . S
N533 C537 1.279 . S
C534 C532 1.348 . S
C534 C536 1.353 . S
C534 H592 0.929 . S
C535 C532 1.356 . S
C535 C537 1.358 . S
C535 H593 0.930 . S
C536 N533 1.314 . S
C536 C534 1.353 . S
C536 H594 0.930 . S
C537 N533 1.279 . S
C537 C535 1.358 . S
C537 H595 0.930 . S
C538 C541 1.348 . S
C538 C542 1.356 . S
C538 O589 1.325 . S
C539 N540 1.279 . S
C539 C542 1.358 . S
C539 H596 0.930 . S
N540 C539 1.279 . S
N540 C543 1.314 . S
C541 C538 1.348 . S
C541 C543 1.353 . S
C541 H597 0.929 . S
C542 C538 1.356 . S
C542 C539 1.358 . S
C542 H598 0.930 . S
C543 N540 1.314 . S
C543 C541 1.353 . S
C543 H599 0.930 . S
C544 N545 1.314 . S
C544 C549 1.353 . S
C544 H550 0.930 . S
N545 Li528 1.990 . S
N545 C544 1.314 . S
N545 C547 1.279 . S
C546 C547 1.358 . S
C546 C548 1.356 . S
C546 H600 0.930 . S
C547 N545 1.279 . S
C547 C546 1.358 . S
C547 H551 0.930 . S
C548 C546 1.356 . S
C548 C549 1.348 . S
C549 C544 1.353 . S
C549 C548 1.348 . S
C549 H601 0.929 . S
H550 C544 0.930 . S
H551 C547 0.930 . S
C552 N553 1.314 . S
C552 C554 1.353 . S
C552 H558 0.930 . S
N553 Li529 1.990 . S
N553 C552 1.314 . S
N553 C556 1.279 . S
C554 C552 1.353 . S
C554 C557 1.348 . S
C554 H602 0.929 . S
C555 C556 1.358 . S
C555 C557 1.356 . S
C555 H603 0.930 . S
C556 N553 1.279 . S
C556 C555 1.358 . S
C556 H559 0.930 . S
C557 C554 1.348 . S
C557 C555 1.356 . S
H558 C552 0.930 . S
H559 C556 0.930 . S
C560 C562 1.348 . S
C560 C563 1.356 . S
C560 O590 1.325 . S
N561 C564 1.314 . S
N561 C565 1.279 . S
C562 C560 1.348 . S
C562 C564 1.353 . S
C562 H604 0.929 . S
C563 C560 1.356 . S
C563 C565 1.358 . S
C563 H605 0.930 . S
C564 N561 1.314 . S
C564 C562 1.353 . S
C564 H606 0.930 . S
C565 N561 1.279 . S
C565 C563 1.358 . S
C565 H607 0.930 . S
C566 C567 1.348 . S
C566 C568 1.356 . S
C566 O591 1.325 . S
C567 C566 1.348 . S
C567 C569 1.353 . S
C567 H608 0.929 . S
C568 C566 1.356 . S
C568 C570 1.358 . S
C568 H609 0.930 . S
C569 C567 1.353 . S
C569 N571 1.314 . S
C569 H610 0.930 . S
C570 C568 1.358 . S
C570 N571 1.279 . S
C570 H611 0.930 . S
N571 C569 1.314 . S
N571 C570 1.279 . S
C572 C574 1.353 . S
C572 N575 1.314 . S
C572 H578 0.930 . S
C573 N575 1.279 . S
C573 C576 1.358 . S
C573 H579 0.930 . S
C574 C572 1.353 . S
C574 C577 1.348 . S
C574 H612 0.929 . S
N575 Li530 1.990 . S
N575 C572 1.314 . S
N575 C573 1.279 . S
C576 C573 1.358 . S
C576 C577 1.356 . S
C576 H613 0.930 . S
C577 C574 1.348 . S
C577 C576 1.356 . S
H578 C572 0.930 . S
H579 C573 0.930 . S
C580 N581 1.314 . S
C580 C582 1.353 . S
C580 H586 0.930 . S
N581 Li531 1.990 . S
N581 C580 1.314 . S
N581 C584 1.279 . S
C582 C580 1.353 . S
C582 C585 1.348 . S
C582 H614 0.929 . S
C583 C584 1.358 . S
C583 C585 1.356 . S
C583 H615 0.930 . S
C584 N581 1.279 . S
C584 C583 1.358 . S
C584 H587 0.930 . S
C585 C582 1.348 . S
C585 C583 1.356 . S
H586 C580 0.930 . S
H587 C584 0.930 . S
O588 Li528 1.956 . S
O588 Li529 1.970 . S
O588 Li530 1.961 . S
O588 C532 1.325 . S
O589 Li528 1.970 . S
O589 Li529 1.956 . S
O589 Li531 1.961 . S
O589 C538 1.325 . S
O590 Li528 1.961 . S
O590 Li530 1.956 . S
O590 Li531 1.970 . S
O590 C560 1.325 . S
O591 Li529 1.961 . S
O591 Li530 1.970 . S
O591 Li531 1.956 . S
O591 C566 1.325 . S
H592 C534 0.929 . S
H593 C535 0.930 . S
H594 C536 0.930 . S
H595 C537 0.930 . S
H596 C539 0.930 . S
H597 C541 0.929 . S
H598 C542 0.930 . S
H599 C543 0.930 . S
H600 C546 0.930 . S
H601 C549 0.929 . S
H602 C554 0.929 . S
H603 C555 0.930 . S
H604 C562 0.929 . S
H605 C563 0.930 . S
H606 C564 0.930 . S
H607 C565 0.930 . S
H608 C567 0.929 . S
H609 C568 0.930 . S
H610 C569 0.930 . S
H611 C570 0.930 . S
H612 C574 0.929 . S
H613 C576 0.930 . S
H614 C582 0.929 . S
H615 C583 0.930 . S
Li616 N633 1.990 . S
Li616 O676 1.956 . S
Li616 O677 1.970 . S
Li616 O678 1.961 . S
Li617 N641 1.990 . S
Li617 O676 1.970 . S
Li617 O677 1.956 . S
Li617 O679 1.961 . S
Li618 N663 1.990 . S
Li618 O676 1.961 . S
Li618 O678 1.956 . S
Li618 O679 1.970 . S
Li619 N669 1.990 . S
Li619 O677 1.961 . S
Li619 O678 1.970 . S
Li619 O679 1.956 . S
C620 C622 1.348 . S
C620 C623 1.356 . S
C620 O676 1.325 . S
N621 C624 1.314 . S
N621 C625 1.279 . S
C622 C620 1.348 . S
C622 C624 1.353 . S
C622 H680 0.929 . S
C623 C620 1.356 . S
C623 C625 1.358 . S
C623 H681 0.930 . S
C624 N621 1.314 . S
C624 C622 1.353 . S
C624 H682 0.930 . S
C625 N621 1.279 . S
C625 C623 1.358 . S
C625 H683 0.930 . S
C626 C629 1.348 . S
C626 C630 1.356 . S
C626 O677 1.325 . S
C627 N628 1.279 . S
C627 C630 1.358 . S
C627 H684 0.930 . S
N628 C627 1.279 . S
N628 C631 1.314 . S
C629 C626 1.348 . S
C629 C631 1.353 . S
C629 H685 0.929 . S
C630 C626 1.356 . S
C630 C627 1.358 . S
C630 H686 0.930 . S
C631 N628 1.314 . S
C631 C629 1.353 . S
C631 H687 0.930 . S
C632 N633 1.314 . S
C632 C637 1.353 . S
C632 H638 0.930 . S
N633 Li616 1.990 . S
N633 C632 1.314 . S
N633 C635 1.279 . S
C634 C635 1.358 . S
C634 C636 1.356 . S
C634 H688 0.930 . S
C635 N633 1.279 . S
C635 C634 1.358 . S
C635 H639 0.930 . S
C636 C634 1.356 . S
C636 C637 1.348 . S
C637 C632 1.353 . S
C637 C636 1.348 . S
C637 H689 0.929 . S
H638 C632 0.930 . S
H639 C635 0.930 . S
C640 N641 1.314 . S
C640 C642 1.353 . S
C640 H646 0.930 . S
N641 Li617 1.990 . S
N641 C640 1.314 . S
N641 C644 1.279 . S
C642 C640 1.353 . S
C642 C645 1.348 . S
C642 H690 0.929 . S
C643 C644 1.358 . S
C643 C645 1.356 . S
C643 H691 0.930 . S
C644 N641 1.279 . S
C644 C643 1.358 . S
C644 H647 0.930 . S
C645 C642 1.348 . S
C645 C643 1.356 . S
H646 C640 0.930 . S
H647 C644 0.930 . S
C648 C650 1.348 . S
C648 C651 1.356 . S
C648 O678 1.325 . S
N649 C652 1.314 . S
N649 C653 1.279 . S
C650 C648 1.348 . S
C650 C652 1.353 . S
C650 H692 0.929 . S
C651 C648 1.356 . S
C651 C653 1.358 . S
C651 H693 0.930 . S
C652 N649 1.314 . S
C652 C650 1.353 . S
C652 H694 0.930 . S
C653 N649 1.279 . S
C653 C651 1.358 . S
C653 H695 0.930 . S
C654 C655 1.348 . S
C654 C656 1.356 . S
C654 O679 1.325 . S
C655 C654 1.348 . S
C655 C657 1.353 . S
C655 H696 0.929 . S
C656 C654 1.356 . S
C656 C658 1.358 . S
C656 H697 0.930 . S
C657 C655 1.353 . S
C657 N659 1.314 . S
C657 H698 0.930 . S
C658 C656 1.358 . S
C658 N659 1.279 . S
C658 H699 0.930 . S
N659 C657 1.314 . S
N659 C658 1.279 . S
C660 C662 1.353 . S
C660 N663 1.314 . S
C660 H666 0.930 . S
C661 N663 1.279 . S
C661 C664 1.358 . S
C661 H667 0.930 . S
C662 C660 1.353 . S
C662 C665 1.348 . S
C662 H700 0.929 . S
N663 Li618 1.990 . S
N663 C660 1.314 . S
N663 C661 1.279 . S
C664 C661 1.358 . S
C664 C665 1.356 . S
C664 H701 0.930 . S
C665 C662 1.348 . S
C665 C664 1.356 . S
H666 C660 0.930 . S
H667 C661 0.930 . S
C668 N669 1.314 . S
C668 C670 1.353 . S
C668 H674 0.930 . S
N669 Li619 1.990 . S
N669 C668 1.314 . S
N669 C672 1.279 . S
C670 C668 1.353 . S
C670 C673 1.348 . S
C670 H702 0.929 . S
C671 C672 1.358 . S
C671 C673 1.356 . S
C671 H703 0.930 . S
C672 N669 1.279 . S
C672 C671 1.358 . S
C672 H675 0.930 . S
C673 C670 1.348 . S
C673 C671 1.356 . S
H674 C668 0.930 . S
H675 C672 0.930 . S
O676 Li616 1.956 . S
O676 Li617 1.970 . S
O676 Li618 1.961 . S
O676 C620 1.325 . S
O677 Li616 1.970 . S
O677 Li617 1.956 . S
O677 Li619 1.961 . S
O677 C626 1.325 . S
O678 Li616 1.961 . S
O678 Li618 1.956 . S
O678 Li619 1.970 . S
O678 C648 1.325 . S
O679 Li617 1.961 . S
O679 Li618 1.970 . S
O679 Li619 1.956 . S
O679 C654 1.325 . S
H680 C622 0.929 . S
H681 C623 0.930 . S
H682 C624 0.930 . S
H683 C625 0.930 . S
H684 C627 0.930 . S
H685 C629 0.929 . S
H686 C630 0.930 . S
H687 C631 0.930 . S
H688 C634 0.930 . S
H689 C637 0.929 . S
H690 C642 0.929 . S
H691 C643 0.930 . S
H692 C650 0.929 . S
H693 C651 0.930 . S
H694 C652 0.930 . S
H695 C653 0.930 . S
H696 C655 0.929 . S
H697 C656 0.930 . S
H698 C657 0.930 . S
H699 C658 0.930 . S
H700 C662 0.929 . S
H701 C664 0.930 . S
H702 C670 0.929 . S
H703 C671 0.930 . S
Li704 N721 1.990 . S
Li704 O764 1.956 . S
Li704 O765 1.970 . S
Li704 O766 1.961 . S
Li705 N729 1.990 . S
Li705 O764 1.970 . S
Li705 O765 1.956 . S
Li705 O767 1.961 . S
Li706 N751 1.990 . S
Li706 O764 1.961 . S
Li706 O766 1.956 . S
Li706 O767 1.970 . S
Li707 N757 1.990 . S
Li707 O765 1.961 . S
Li707 O766 1.970 . S
Li707 O767 1.956 . S
C708 C710 1.348 . S
C708 C711 1.356 . S
C708 O764 1.325 . S
N709 C712 1.314 . S
N709 C713 1.279 . S
C710 C708 1.348 . S
C710 C712 1.353 . S
C710 H768 0.929 . S
C711 C708 1.356 . S
C711 C713 1.358 . S
C711 H769 0.930 . S
C712 N709 1.314 . S
C712 C710 1.353 . S
C712 H770 0.930 . S
C713 N709 1.279 . S
C713 C711 1.358 . S
C713 H771 0.930 . S
C714 C717 1.348 . S
C714 C718 1.356 . S
C714 O765 1.325 . S
C715 N716 1.279 . S
C715 C718 1.358 . S
C715 H772 0.930 . S
N716 C715 1.279 . S
N716 C719 1.314 . S
C717 C714 1.348 . S
C717 C719 1.353 . S
C717 H773 0.929 . S
C718 C714 1.356 . S
C718 C715 1.358 . S
C718 H774 0.930 . S
C719 N716 1.314 . S
C719 C717 1.353 . S
C719 H775 0.930 . S
C720 N721 1.314 . S
C720 C725 1.353 . S
C720 H726 0.930 . S
N721 Li704 1.990 . S
N721 C720 1.314 . S
N721 C723 1.279 . S
C722 C723 1.358 . S
C722 C724 1.356 . S
C722 H776 0.930 . S
C723 N721 1.279 . S
C723 C722 1.358 . S
C723 H727 0.930 . S
C724 C722 1.356 . S
C724 C725 1.348 . S
C725 C720 1.353 . S
C725 C724 1.348 . S
C725 H777 0.929 . S
H726 C720 0.930 . S
H727 C723 0.930 . S
C728 N729 1.314 . S
C728 C730 1.353 . S
C728 H734 0.930 . S
N729 Li705 1.990 . S
N729 C728 1.314 . S
N729 C732 1.279 . S
C730 C728 1.353 . S
C730 C733 1.348 . S
C730 H778 0.929 . S
C731 C732 1.358 . S
C731 C733 1.356 . S
C731 H779 0.930 . S
C732 N729 1.279 . S
C732 C731 1.358 . S
C732 H735 0.930 . S
C733 C730 1.348 . S
C733 C731 1.356 . S
H734 C728 0.930 . S
H735 C732 0.930 . S
C736 C738 1.348 . S
C736 C739 1.356 . S
C736 O766 1.325 . S
N737 C740 1.314 . S
N737 C741 1.279 . S
C738 C736 1.348 . S
C738 C740 1.353 . S
C738 H780 0.929 . S
C739 C736 1.356 . S
C739 C741 1.358 . S
C739 H781 0.930 . S
C740 N737 1.314 . S
C740 C738 1.353 . S
C740 H782 0.930 . S
C741 N737 1.279 . S
C741 C739 1.358 . S
C741 H783 0.930 . S
C742 C743 1.348 . S
C742 C744 1.356 . S
C742 O767 1.325 . S
C743 C742 1.348 . S
C743 C745 1.353 . S
C743 H784 0.929 . S
C744 C742 1.356 . S
C744 C746 1.358 . S
C744 H785 0.930 . S
C745 C743 1.353 . S
C745 N747 1.314 . S
C745 H786 0.930 . S
C746 C744 1.358 . S
C746 N747 1.279 . S
C746 H787 0.930 . S
N747 C745 1.314 . S
N747 C746 1.279 . S
C748 C750 1.353 . S
C748 N751 1.314 . S
C748 H754 0.930 . S
C749 N751 1.279 . S
C749 C752 1.358 . S
C749 H755 0.930 . S
C750 C748 1.353 . S
C750 C753 1.348 . S
C750 H788 0.929 . S
N751 Li706 1.990 . S
N751 C748 1.314 . S
N751 C749 1.279 . S
C752 C749 1.358 . S
C752 C753 1.356 . S
C752 H789 0.930 . S
C753 C750 1.348 . S
C753 C752 1.356 . S
H754 C748 0.930 . S
H755 C749 0.930 . S
C756 N757 1.314 . S
C756 C758 1.353 . S
C756 H762 0.930 . S
N757 Li707 1.990 . S
N757 C756 1.314 . S
N757 C760 1.279 . S
C758 C756 1.353 . S
C758 C761 1.348 . S
C758 H790 0.929 . S
C759 C760 1.358 . S
C759 C761 1.356 . S
C759 H791 0.930 . S
C760 N757 1.279 . S
C760 C759 1.358 . S
C760 H763 0.930 . S
C761 C758 1.348 . S
C761 C759 1.356 . S
H762 C756 0.930 . S
H763 C760 0.930 . S
O764 Li704 1.956 . S
O764 Li705 1.970 . S
O764 Li706 1.961 . S
O764 C708 1.325 . S
O765 Li704 1.970 . S
O765 Li705 1.956 . S
O765 Li707 1.961 . S
O765 C714 1.325 . S
O766 Li704 1.961 . S
O766 Li706 1.956 . S
O766 Li707 1.970 . S
O766 C736 1.325 . S
O767 Li705 1.961 . S
O767 Li706 1.970 . S
O767 Li707 1.956 . S
O767 C742 1.325 . S
H768 C710 0.929 . S
H769 C711 0.930 . S
H770 C712 0.930 . S
H771 C713 0.930 . S
H772 C715 0.930 . S
H773 C717 0.929 . S
H774 C718 0.930 . S
H775 C719 0.930 . S
H776 C722 0.930 . S
H777 C725 0.929 . S
H778 C730 0.929 . S
H779 C731 0.930 . S
H780 C738 0.929 . S
H781 C739 0.930 . S
H782 C740 0.930 . S
H783 C741 0.930 . S
H784 C743 0.929 . S
H785 C744 0.930 . S
H786 C745 0.930 . S
H787 C746 0.930 . S
H788 C750 0.929 . S
H789 C752 0.930 . S
H790 C758 0.929 . S
H791 C759 0.930 . S
Li792 N809 1.990 . S
Li792 O852 1.956 . S
Li792 O853 1.970 . S
Li792 O854 1.961 . S
Li793 N817 1.990 . S
Li793 O852 1.970 . S
Li793 O853 1.956 . S
Li793 O855 1.961 . S
Li794 N839 1.990 . S
Li794 O852 1.961 . S
Li794 O854 1.956 . S
Li794 O855 1.970 . S
Li795 N845 1.990 . S
Li795 O853 1.961 . S
Li795 O854 1.970 . S
Li795 O855 1.956 . S
C796 C798 1.348 . S
C796 C799 1.356 . S
C796 O852 1.325 . S
N797 C800 1.314 . S
N797 C801 1.279 . S
C798 C796 1.348 . S
C798 C800 1.353 . S
C798 H856 0.929 . S
C799 C796 1.356 . S
C799 C801 1.358 . S
C799 H857 0.930 . S
C800 N797 1.314 . S
C800 C798 1.353 . S
C800 H858 0.930 . S
C801 N797 1.279 . S
C801 C799 1.358 . S
C801 H859 0.930 . S
C802 C805 1.348 . S
C802 C806 1.356 . S
C802 O853 1.325 . S
C803 N804 1.279 . S
C803 C806 1.358 . S
C803 H860 0.930 . S
N804 C803 1.279 . S
N804 C807 1.314 . S
C805 C802 1.348 . S
C805 C807 1.353 . S
C805 H861 0.929 . S
C806 C802 1.356 . S
C806 C803 1.358 . S
C806 H862 0.930 . S
C807 N804 1.314 . S
C807 C805 1.353 . S
C807 H863 0.930 . S
C808 N809 1.314 . S
C808 C813 1.353 . S
C808 H814 0.930 . S
N809 Li792 1.990 . S
N809 C808 1.314 . S
N809 C811 1.279 . S
C810 C811 1.358 . S
C810 C812 1.356 . S
C810 H864 0.930 . S
C811 N809 1.279 . S
C811 C810 1.358 . S
C811 H815 0.930 . S
C812 C810 1.356 . S
C812 C813 1.348 . S
C813 C808 1.353 . S
C813 C812 1.348 . S
C813 H865 0.929 . S
H814 C808 0.930 . S
H815 C811 0.930 . S
C816 N817 1.314 . S
C816 C818 1.353 . S
C816 H822 0.930 . S
N817 Li793 1.990 . S
N817 C816 1.314 . S
N817 C820 1.279 . S
C818 C816 1.353 . S
C818 C821 1.348 . S
C818 H866 0.929 . S
C819 C820 1.358 . S
C819 C821 1.356 . S
C819 H867 0.930 . S
C820 N817 1.279 . S
C820 C819 1.358 . S
C820 H823 0.930 . S
C821 C818 1.348 . S
C821 C819 1.356 . S
H822 C816 0.930 . S
H823 C820 0.930 . S
C824 C826 1.348 . S
C824 C827 1.356 . S
C824 O854 1.325 . S
N825 C828 1.314 . S
N825 C829 1.279 . S
C826 C824 1.348 . S
C826 C828 1.353 . S
C826 H868 0.929 . S
C827 C824 1.356 . S
C827 C829 1.358 . S
C827 H869 0.930 . S
C828 N825 1.314 . S
C828 C826 1.353 . S
C828 H870 0.930 . S
C829 N825 1.279 . S
C829 C827 1.358 . S
C829 H871 0.930 . S
C830 C831 1.348 . S
C830 C832 1.356 . S
C830 O855 1.325 . S
C831 C830 1.348 . S
C831 C833 1.353 . S
C831 H872 0.929 . S
C832 C830 1.356 . S
C832 C834 1.358 . S
C832 H873 0.930 . S
C833 C831 1.353 . S
C833 N835 1.314 . S
C833 H874 0.930 . S
C834 C832 1.358 . S
C834 N835 1.279 . S
C834 H875 0.930 . S
N835 C833 1.314 . S
N835 C834 1.279 . S
C836 C838 1.353 . S
C836 N839 1.314 . S
C836 H842 0.930 . S
C837 N839 1.279 . S
C837 C840 1.358 . S
C837 H843 0.930 . S
C838 C836 1.353 . S
C838 C841 1.348 . S
C838 H876 0.929 . S
N839 Li794 1.990 . S
N839 C836 1.314 . S
N839 C837 1.279 . S
C840 C837 1.358 . S
C840 C841 1.356 . S
C840 H877 0.930 . S
C841 C838 1.348 . S
C841 C840 1.356 . S
H842 C836 0.930 . S
H843 C837 0.930 . S
C844 N845 1.314 . S
C844 C846 1.353 . S
C844 H850 0.930 . S
N845 Li795 1.990 . S
N845 C844 1.314 . S
N845 C848 1.279 . S
C846 C844 1.353 . S
C846 C849 1.348 . S
C846 H878 0.929 . S
C847 C848 1.358 . S
C847 C849 1.356 . S
C847 H879 0.930 . S
C848 N845 1.279 . S
C848 C847 1.358 . S
C848 H851 0.930 . S
C849 C846 1.348 . S
C849 C847 1.356 . S
H850 C844 0.930 . S
H851 C848 0.930 . S
O852 Li792 1.956 . S
O852 Li793 1.970 . S
O852 Li794 1.961 . S
O852 C796 1.325 . S
O853 Li792 1.970 . S
O853 Li793 1.956 . S
O853 Li795 1.961 . S
O853 C802 1.325 . S
O854 Li792 1.961 . S
O854 Li794 1.956 . S
O854 Li795 1.970 . S
O854 C824 1.325 . S
O855 Li793 1.961 . S
O855 Li794 1.970 . S
O855 Li795 1.956 . S
O855 C830 1.325 . S
H856 C798 0.929 . S
H857 C799 0.930 . S
H858 C800 0.930 . S
H859 C801 0.930 . S
H860 C803 0.930 . S
H861 C805 0.929 . S
H862 C806 0.930 . S
H863 C807 0.930 . S
H864 C810 0.930 . S
H865 C813 0.929 . S
H866 C818 0.929 . S
H867 C819 0.930 . S
H868 C826 0.929 . S
H869 C827 0.930 . S
H870 C828 0.930 . S
H871 C829 0.930 . S
H872 C831 0.929 . S
H873 C832 0.930 . S
H874 C833 0.930 . S
H875 C834 0.930 . S
H876 C838 0.929 . S
H877 C840 0.930 . S
H878 C846 0.929 . S
H879 C847 0.930 . S
Li880 N897 1.990 . S
Li880 O940 1.956 . S
Li880 O941 1.970 . S
Li880 O942 1.961 . S
Li881 N905 1.990 . S
Li881 O940 1.970 . S
Li881 O941 1.956 . S
Li881 O943 1.961 . S
Li882 N927 1.990 . S
Li882 O940 1.961 . S
Li882 O942 1.956 . S
Li882 O943 1.970 . S
Li883 N933 1.990 . S
Li883 O941 1.961 . S
Li883 O942 1.970 . S
Li883 O943 1.956 . S
C884 C886 1.348 . S
C884 C887 1.356 . S
C884 O940 1.325 . S
N885 C888 1.314 . S
N885 C889 1.279 . S
C886 C884 1.348 . S
C886 C888 1.353 . S
C886 H944 0.929 . S
C887 C884 1.356 . S
C887 C889 1.358 . S
C887 H945 0.930 . S
C888 N885 1.314 . S
C888 C886 1.353 . S
C888 H946 0.930 . S
C889 N885 1.279 . S
C889 C887 1.358 . S
C889 H947 0.930 . S
C890 C893 1.348 . S
C890 C894 1.356 . S
C890 O941 1.325 . S
C891 N892 1.279 . S
C891 C894 1.358 . S
C891 H948 0.930 . S
N892 C891 1.279 . S
N892 C895 1.314 . S
C893 C890 1.348 . S
C893 C895 1.353 . S
C893 H949 0.929 . S
C894 C890 1.356 . S
C894 C891 1.358 . S
C894 H950 0.930 . S
C895 N892 1.314 . S
C895 C893 1.353 . S
C895 H951 0.930 . S
C896 N897 1.314 . S
C896 C901 1.353 . S
C896 H902 0.930 . S
N897 Li880 1.990 . S
N897 C896 1.314 . S
N897 C899 1.279 . S
C898 C899 1.358 . S
C898 C900 1.356 . S
C898 H952 0.930 . S
C899 N897 1.279 . S
C899 C898 1.358 . S
C899 H903 0.930 . S
C900 C898 1.356 . S
C900 C901 1.348 . S
C901 C896 1.353 . S
C901 C900 1.348 . S
C901 H953 0.929 . S
H902 C896 0.930 . S
H903 C899 0.930 . S
C904 N905 1.314 . S
C904 C906 1.353 . S
C904 H910 0.930 . S
N905 Li881 1.990 . S
N905 C904 1.314 . S
N905 C908 1.279 . S
C906 C904 1.353 . S
C906 C909 1.348 . S
C906 H954 0.929 . S
C907 C908 1.358 . S
C907 C909 1.356 . S
C907 H955 0.930 . S
C908 N905 1.279 . S
C908 C907 1.358 . S
C908 H911 0.930 . S
C909 C906 1.348 . S
C909 C907 1.356 . S
H910 C904 0.930 . S
H911 C908 0.930 . S
C912 C914 1.348 . S
C912 C915 1.356 . S
C912 O942 1.325 . S
N913 C916 1.314 . S
N913 C917 1.279 . S
C914 C912 1.348 . S
C914 C916 1.353 . S
C914 H956 0.929 . S
C915 C912 1.356 . S
C915 C917 1.358 . S
C915 H957 0.930 . S
C916 N913 1.314 . S
C916 C914 1.353 . S
C916 H958 0.930 . S
C917 N913 1.279 . S
C917 C915 1.358 . S
C917 H959 0.930 . S
C918 C919 1.348 . S
C918 C920 1.356 . S
C918 O943 1.325 . S
C919 C918 1.348 . S
C919 C921 1.353 . S
C919 H960 0.929 . S
C920 C918 1.356 . S
C920 C922 1.358 . S
C920 H961 0.930 . S
C921 C919 1.353 . S
C921 N923 1.314 . S
C921 H962 0.930 . S
C922 C920 1.358 . S
C922 N923 1.279 . S
C922 H963 0.930 . S
N923 C921 1.314 . S
N923 C922 1.279 . S
C924 C926 1.353 . S
C924 N927 1.314 . S
C924 H930 0.930 . S
C925 N927 1.279 . S
C925 C928 1.358 . S
C925 H931 0.930 . S
C926 C924 1.353 . S
C926 C929 1.348 . S
C926 H964 0.929 . S
N927 Li882 1.990 . S
N927 C924 1.314 . S
N927 C925 1.279 . S
C928 C925 1.358 . S
C928 C929 1.356 . S
C928 H965 0.930 . S
C929 C926 1.348 . S
C929 C928 1.356 . S
H930 C924 0.930 . S
H931 C925 0.930 . S
C932 N933 1.314 . S
C932 C934 1.353 . S
C932 H938 0.930 . S
N933 Li883 1.990 . S
N933 C932 1.314 . S
N933 C936 1.279 . S
C934 C932 1.353 . S
C934 C937 1.348 . S
C934 H966 0.929 . S
C935 C936 1.358 . S
C935 C937 1.356 . S
C935 H967 0.930 . S
C936 N933 1.279 . S
C936 C935 1.358 . S
C936 H939 0.930 . S
C937 C934 1.348 . S
C937 C935 1.356 . S
H938 C932 0.930 . S
H939 C936 0.930 . S
O940 Li880 1.956 . S
O940 Li881 1.970 . S
O940 Li882 1.961 . S
O940 C884 1.325 . S
O941 Li880 1.970 . S
O941 Li881 1.956 . S
O941 Li883 1.961 . S
O941 C890 1.325 . S
O942 Li880 1.961 . S
O942 Li882 1.956 . S
O942 Li883 1.970 . S
O942 C912 1.325 . S
O943 Li881 1.961 . S
O943 Li882 1.970 . S
O943 Li883 1.956 . S
O943 C918 1.325 . S
H944 C886 0.929 . S
H945 C887 0.930 . S
H946 C888 0.930 . S
H947 C889 0.930 . S
H948 C891 0.930 . S
H949 C893 0.929 . S
H950 C894 0.930 . S
H951 C895 0.930 . S
H952 C898 0.930 . S
H953 C901 0.929 . S
H954 C906 0.929 . S
H955 C907 0.930 . S
H956 C914 0.929 . S
H957 C915 0.930 . S
H958 C916 0.930 . S
H959 C917 0.930 . S
H960 C919 0.929 . S
H961 C920 0.930 . S
H962 C921 0.930 . S
H963 C922 0.930 . S
H964 C926 0.929 . S
H965 C928 0.930 . S
H966 C934 0.929 . S
H967 C935 0.930 . S
Li968 N985 1.990 . S
Li968 O1028 1.956 . S
Li968 O1029 1.970 . S
Li968 O1030 1.961 . S
Li969 N993 1.990 . S
Li969 O1028 1.970 . S
Li969 O1029 1.956 . S
Li969 O1031 1.961 . S
Li970 N1015 1.990 . S
Li970 O1028 1.961 . S
Li970 O1030 1.956 . S
Li970 O1031 1.970 . S
Li971 N1021 1.990 . S
Li971 O1029 1.961 . S
Li971 O1030 1.970 . S
Li971 O1031 1.956 . S
C972 C974 1.348 . S
C972 C975 1.356 . S
C972 O1028 1.325 . S
N973 C976 1.314 . S
N973 C977 1.279 . S
C974 C972 1.348 . S
C974 C976 1.353 . S
C974 H1032 0.929 . S
C975 C972 1.356 . S
C975 C977 1.358 . S
C975 H1033 0.930 . S
C976 N973 1.314 . S
C976 C974 1.353 . S
C976 H1034 0.930 . S
C977 N973 1.279 . S
C977 C975 1.358 . S
C977 H1035 0.930 . S
C978 C981 1.348 . S
C978 C982 1.356 . S
C978 O1029 1.325 . S
C979 N980 1.279 . S
C979 C982 1.358 . S
C979 H1036 0.930 . S
N980 C979 1.279 . S
N980 C983 1.314 . S
C981 C978 1.348 . S
C981 C983 1.353 . S
C981 H1037 0.929 . S
C982 C978 1.356 . S
C982 C979 1.358 . S
C982 H1038 0.930 . S
C983 N980 1.314 . S
C983 C981 1.353 . S
C983 H1039 0.930 . S
C984 N985 1.314 . S
C984 C989 1.353 . S
C984 H990 0.930 . S
N985 Li968 1.990 . S
N985 C984 1.314 . S
N985 C987 1.279 . S
C986 C987 1.358 . S
C986 C988 1.356 . S
C986 H1040 0.930 . S
C987 N985 1.279 . S
C987 C986 1.358 . S
C987 H991 0.930 . S
C988 C986 1.356 . S
C988 C989 1.348 . S
C989 C984 1.353 . S
C989 C988 1.348 . S
C989 H1041 0.929 . S
H990 C984 0.930 . S
H991 C987 0.930 . S
C992 N993 1.314 . S
C992 C994 1.353 . S
C992 H998 0.930 . S
N993 Li969 1.990 . S
N993 C992 1.314 . S
N993 C996 1.279 . S
C994 C992 1.353 . S
C994 C997 1.348 . S
C994 H1042 0.929 . S
C995 C996 1.358 . S
C995 C997 1.356 . S
C995 H1043 0.930 . S
C996 N993 1.279 . S
C996 C995 1.358 . S
C996 H999 0.930 . S
C997 C994 1.348 . S
C997 C995 1.356 . S
H998 C992 0.930 . S
H999 C996 0.930 . S
C1000 C1002 1.348 . S
C1000 C1003 1.356 . S
C1000 O1030 1.325 . S
N1001 C1004 1.314 . S
N1001 C1005 1.279 . S
C1002 C1000 1.348 . S
C1002 C1004 1.353 . S
C1002 H1044 0.929 . S
C1003 C1000 1.356 . S
C1003 C1005 1.358 . S
C1003 H1045 0.930 . S
C1004 N1001 1.314 . S
C1004 C1002 1.353 . S
C1004 H1046 0.930 . S
C1005 N1001 1.279 . S
C1005 C1003 1.358 . S
C1005 H1047 0.930 . S
C1006 C1007 1.348 . S
C1006 C1008 1.356 . S
C1006 O1031 1.325 . S
C1007 C1006 1.348 . S
C1007 C1009 1.353 . S
C1007 H1048 0.929 . S
C1008 C1006 1.356 . S
C1008 C1010 1.358 . S
C1008 H1049 0.930 . S
C1009 C1007 1.353 . S
C1009 N1011 1.314 . S
C1009 H1050 0.930 . S
C1010 C1008 1.358 . S
C1010 N1011 1.279 . S
C1010 H1051 0.930 . S
N1011 C1009 1.314 . S
N1011 C1010 1.279 . S
C1012 C1014 1.353 . S
C1012 N1015 1.314 . S
C1012 H1018 0.930 . S
C1013 N1015 1.279 . S
C1013 C1016 1.358 . S
C1013 H1019 0.930 . S
C1014 C1012 1.353 . S
C1014 C1017 1.348 . S
C1014 H1052 0.929 . S
N1015 Li970 1.990 . S
N1015 C1012 1.314 . S
N1015 C1013 1.279 . S
C1016 C1013 1.358 . S
C1016 C1017 1.356 . S
C1016 H1053 0.930 . S
C1017 C1014 1.348 . S
C1017 C1016 1.356 . S
H1018 C1012 0.930 . S
H1019 C1013 0.930 . S
C1020 N1021 1.314 . S
C1020 C1022 1.353 . S
C1020 H1026 0.930 . S
N1021 Li971 1.990 . S
N1021 C1020 1.314 . S
N1021 C1024 1.279 . S
C1022 C1020 1.353 . S
C1022 C1025 1.348 . S
C1022 H1054 0.929 . S
C1023 C1024 1.358 . S
C1023 C1025 1.356 . S
C1023 H1055 0.930 . S
C1024 N1021 1.279 . S
C1024 C1023 1.358 . S
C1024 H1027 0.930 . S
C1025 C1022 1.348 . S
C1025 C1023 1.356 . S
H1026 C1020 0.930 . S
H1027 C1024 0.930 . S
O1028 Li968 1.956 . S
O1028 Li969 1.970 . S
O1028 Li970 1.961 . S
O1028 C972 1.325 . S
O1029 Li968 1.970 . S
O1029 Li969 1.956 . S
O1029 Li971 1.961 . S
O1029 C978 1.325 . S
O1030 Li968 1.961 . S
O1030 Li970 1.956 . S
O1030 Li971 1.970 . S
O1030 C1000 1.325 . S
O1031 Li969 1.961 . S
O1031 Li970 1.970 . S
O1031 Li971 1.956 . S
O1031 C1006 1.325 . S
H1032 C974 0.929 . S
H1033 C975 0.930 . S
H1034 C976 0.930 . S
H1035 C977 0.930 . S
H1036 C979 0.930 . S
H1037 C981 0.929 . S
H1038 C982 0.930 . S
H1039 C983 0.930 . S
H1040 C986 0.930 . S
H1041 C989 0.929 . S
H1042 C994 0.929 . S
H1043 C995 0.930 . S
H1044 C1002 0.929 . S
H1045 C1003 0.930 . S
H1046 C1004 0.930 . S
H1047 C1005 0.930 . S
H1048 C1007 0.929 . S
H1049 C1008 0.930 . S
H1050 C1009 0.930 . S
H1051 C1010 0.930 . S
H1052 C1014 0.929 . S
H1053 C1016 0.930 . S
H1054 C1022 0.929 . S
H1055 C1023 0.930 . S
H1056 C1064 0.929 . S
H1057 C1066 0.930 . S
H1058 C1068 0.930 . S
H1059 C1071 0.929 . S
H1060 C1074 0.930 . S
H1061 C1076 0.960 . S
H1062 C1076 0.960 . S
H1063 C1076 0.960 1_455 S
C1064 H1056 0.929 . S
C1064 C1065 1.377 . S
C1064 C1066 1.384 . S
C1065 C1064 1.377 . S
C1065 C1071 1.390 . S
C1066 H1057 0.930 . S
C1066 C1064 1.384 . S
C1066 C1067 1.372 . S
C1067 C1066 1.372 . S
C1067 C1068 1.400 . S
C1067 C1072 1.490 . S
C1068 H1058 0.930 . S
C1068 C1067 1.400 . S
C1068 C1071 1.386 . S
H1069 C1085 0.930 . S
H1070 C1086 0.931 . S
C1071 H1059 0.929 . S
C1071 C1065 1.390 . S
C1071 C1068 1.386 . S
C1072 C1067 1.490 . S
C1072 C1074 1.395 . S
C1072 C1075 1.401 1_455 S
H1073 C1079 0.930 . S
C1074 H1060 0.930 . S
C1074 C1072 1.395 . S
C1074 C1077 1.401 1_554 S
C1075 C1072 1.401 1_655 S
C1075 C1076 1.510 . S
C1075 C1079 1.418 1_554 S
C1076 H1061 0.960 . S
C1076 H1062 0.960 . S
C1076 H1063 0.960 1_655 S
C1076 C1075 1.510 . S
C1077 C1074 1.401 1_556 S
C1077 C1078 1.392 1_455 S
C1077 C1081 1.526 . S
C1078 C1077 1.392 1_655 S
C1078 C1079 1.385 . S
C1078 C1080 1.478 . S
C1079 H1073 0.930 . S
C1079 C1075 1.418 1_556 S
C1079 C1078 1.385 . S
C1080 C1078 1.478 . S
C1080 C1082 1.381 . S
C1080 C1086 1.383 . S
C1081 C1077 1.526 . S
C1081 H1087 0.971 . S
C1081 H1088 0.994 . S
C1081 H1089 0.892 1_455 S
C1082 C1080 1.381 . S
C1082 C1083 1.394 . S
C1082 H1090 0.930 . S
C1083 C1082 1.394 . S
C1083 C1084 1.383 . S
C1083 H1091 0.929 . S
C1084 C1083 1.383 . S
C1084 C1085 1.377 . S
C1085 H1069 0.930 . S
C1085 C1084 1.377 . S
C1085 C1086 1.379 . S
C1086 H1070 0.931 . S
C1086 C1080 1.383 . S
C1086 C1085 1.379 . S
H1087 C1081 0.971 . S
H1088 C1081 0.994 . S
H1089 C1081 0.892 1_655 S
H1090 C1082 0.930 . S
H1091 C1083 0.929 . S
H1092 C1100 0.929 . S
H1093 C1102 0.864 1_545 S
H1094 C1104 0.930 . S
H1095 C1107 0.929 . S
H1096 C1110 0.930 . S
H1097 C1112 0.960 . S
H1098 C1112 0.960 . S
H1099 C1112 0.960 . S
C1100 H1092 0.929 . S
C1100 C1101 1.377 . S
C1100 C1102 1.384 . S
C1101 C1100 1.377 . S
C1101 C1107 1.390 . S
C1102 H1093 0.864 1_565 S
C1102 C1100 1.384 . S
C1102 C1103 1.372 . S
C1103 C1102 1.372 . S
C1103 C1104 1.400 . S
C1103 C1108 1.490 . S
C1104 H1094 0.930 . S
C1104 C1103 1.400 . S
C1104 C1107 1.386 . S
H1105 C1121 0.930 . S
H1106 C1122 0.931 . S
C1107 H1095 0.929 . S
C1107 C1101 1.390 . S
C1107 C1104 1.386 . S
C1108 C1103 1.490 . S
C1108 C1110 1.395 1_565 S
C1108 C1111 1.403 . S
H1109 C1115 0.930 . S
C1110 H1096 0.930 . S
C1110 C1108 1.395 1_545 S
C1110 C1113 1.403 . S
C1111 C1108 1.403 . S
C1111 C1112 1.524 . S
C1111 C1115 1.400 . S
C1112 H1097 0.960 . S
C1112 H1098 0.960 . S
C1112 H1099 0.960 . S
C1112 C1111 1.524 . S
C1113 C1110 1.403 . S
C1113 C1114 1.392 . S
C1113 C1117 1.495 . S
C1114 C1113 1.392 . S
C1114 C1115 1.385 1_545 S
C1114 C1116 1.478 . S
C1115 H1109 0.930 . S
C1115 C1111 1.400 . S
C1115 C1114 1.385 1_565 S
C1116 C1114 1.478 . S
C1116 C1118 1.381 . S
C1116 C1122 1.383 . S
C1117 C1113 1.495 . S
C1117 H1123 0.959 . S
C1117 H1124 0.961 . S
C1117 H1125 0.960 . S
C1118 C1116 1.381 . S
C1118 C1119 1.394 . S
C1118 H1126 0.930 . S
C1119 C1118 1.394 . S
C1119 C1120 1.383 . S
C1119 H1127 0.929 . S
C1120 C1119 1.383 . S
C1120 C1121 1.377 . S
C1121 H1105 0.930 . S
C1121 C1120 1.377 . S
C1121 C1122 1.379 . S
C1122 H1106 0.931 . S
C1122 C1116 1.383 . S
C1122 C1121 1.379 . S
H1123 C1117 0.959 . S
H1124 C1117 0.961 . S
H1125 C1117 0.960 . S
H1126 C1118 0.930 . S
H1127 C1119 0.929 . S
H1128 C1136 0.929 . S
H1129 C1138 0.930 . S
H1130 C1140 0.930 . S
H1131 C1143 0.929 . S
H1132 C1146 0.930 . S
H1133 C1148 0.960 1_556 S
H1134 C1148 0.960 . S
H1135 C1148 0.960 . S
C1136 H1128 0.929 . S
C1136 C1137 1.377 . S
C1136 C1138 1.384 . S
C1137 C1136 1.377 . S
C1137 C1143 1.390 . S
C1138 H1129 0.930 . S
C1138 C1136 1.384 . S
C1138 C1139 1.372 . S
C1139 C1138 1.372 . S
C1139 C1140 1.400 . S
C1139 C1144 1.490 . S
C1140 H1130 0.930 . S
C1140 C1139 1.400 . S
C1140 C1143 1.386 . S
H1141 C1157 0.930 . S
H1142 C1158 0.931 . S
C1143 H1131 0.929 . S
C1143 C1137 1.390 . S
C1143 C1140 1.386 . S
C1144 C1139 1.490 . S
C1144 C1146 1.395 . S
C1144 C1147 1.403 . S
H1145 C1151 0.930 . S
C1146 H1132 0.930 . S
C1146 C1144 1.395 . S
C1146 C1149 1.403 1_554 S
C1147 C1144 1.403 . S
C1147 C1148 1.524 . S
C1147 C1151 1.400 1_554 S
C1148 H1133 0.960 1_554 S
C1148 H1134 0.960 . S
C1148 H1135 0.960 . S
C1148 C1147 1.524 . S
C1149 C1146 1.403 1_556 S
C1149 C1150 1.392 . S
C1149 C1153 1.495 . S
C1150 C1149 1.392 . S
C1150 C1151 1.385 . S
C1150 C1152 1.478 . S
C1151 H1145 0.930 . S
C1151 C1147 1.400 1_556 S
C1151 C1150 1.385 . S
C1152 C1150 1.478 . S
C1152 C1154 1.381 . S
C1152 C1158 1.383 . S
C1153 C1149 1.495 . S
C1153 H1159 0.959 1_556 S
C1153 H1160 0.961 . S
C1153 H1161 0.960 . S
C1154 C1152 1.381 . S
C1154 C1155 1.394 . S
C1154 H1162 0.930 . S
C1155 C1154 1.394 . S
C1155 C1156 1.383 . S
C1155 H1163 0.929 . S
C1156 C1155 1.383 . S
C1156 C1157 1.377 . S
C1157 H1141 0.930 . S
C1157 C1156 1.377 . S
C1157 C1158 1.379 . S
C1158 H1142 0.931 . S
C1158 C1152 1.383 . S
C1158 C1157 1.379 . S
H1159 C1153 0.959 1_554 S
H1160 C1153 0.961 . S
H1161 C1153 0.960 . S
H1162 C1154 0.930 . S
H1163 C1155 0.929 . S
H1164 C1172 0.929 . S
H1165 C1174 0.930 . S
H1166 C1176 1.010 . S
H1167 C1179 0.929 . S
H1168 C1182 0.930 . S
H1169 C1184 0.960 . S
H1170 C1184 0.960 . S
H1171 C1184 0.960 . S
C1172 H1164 0.929 . S
C1172 C1173 1.377 . S
C1172 C1174 1.384 . S
C1173 C1172 1.377 . S
C1173 C1179 1.390 . S
C1174 H1165 0.930 . S
C1174 C1172 1.384 . S
C1174 C1175 1.372 . S
C1175 C1174 1.372 . S
C1175 C1176 1.400 . S
C1175 C1180 1.490 . S
C1176 H1166 1.010 . S
C1176 C1175 1.400 . S
C1176 C1179 1.386 . S
H1177 C1193 0.930 . S
H1178 C1194 0.931 . S
C1179 H1167 0.929 . S
C1179 C1173 1.390 . S
C1179 C1176 1.386 . S
C1180 C1175 1.490 . S
C1180 C1182 1.395 . S
C1180 C1183 1.403 1_455 S
H1181 C1187 0.930 . S
C1182 H1168 0.930 . S
C1182 C1180 1.395 . S
C1182 C1185 1.403 . S
C1183 C1180 1.403 1_655 S
C1183 C1184 1.524 . S
C1183 C1187 1.400 . S
C1184 H1169 0.960 . S
C1184 H1170 0.960 . S
C1184 H1171 0.960 . S
C1184 C1183 1.524 . S
C1185 C1182 1.403 . S
C1185 C1186 1.392 1_455 S
C1185 C1189 1.495 . S
C1186 C1185 1.392 1_655 S
C1186 C1187 1.385 . S
C1186 C1188 1.478 . S
C1187 H1181 0.930 . S
C1187 C1183 1.400 . S
C1187 C1186 1.385 . S
C1188 C1186 1.478 . S
C1188 C1190 1.381 . S
C1188 C1194 1.383 . S
C1189 C1185 1.495 . S
C1189 H1195 0.959 . S
C1189 H1196 0.961 . S
C1189 H1197 0.960 . S
C1190 C1188 1.381 . S
C1190 C1191 1.394 . S
C1190 H1198 0.930 . S
C1191 C1190 1.394 . S
C1191 C1192 1.383 . S
C1191 H1199 0.929 . S
C1192 C1191 1.383 . S
C1192 C1193 1.377 . S
C1193 H1177 0.930 . S
C1193 C1192 1.377 . S
C1193 C1194 1.379 . S
C1194 H1178 0.931 . S
C1194 C1188 1.383 . S
C1194 C1193 1.379 . S
H1195 C1189 0.959 . S
H1196 C1189 0.961 . S
H1197 C1189 0.960 . S
H1198 C1190 0.930 . S
H1199 C1191 0.929 . S
H1200 C1208 0.929 . S
H1201 C1210 0.930 . S
H1202 C1212 0.930 . S
H1203 C1215 0.929 . S
H1204 C1218 0.930 . S
H1205 C1220 0.930 1_554 S
H1206 C1220 0.965 . S
H1207 C1220 0.985 . S
C1208 H1200 0.929 . S
C1208 C1209 1.377 . S
C1208 C1210 1.384 . S
C1209 C1208 1.377 . S
C1209 C1215 1.390 . S
C1210 H1201 0.930 . S
C1210 C1208 1.384 . S
C1210 C1211 1.372 . S
C1211 C1210 1.372 . S
C1211 C1212 1.400 . S
C1211 C1216 1.490 . S
C1212 H1202 0.930 . S
C1212 C1211 1.400 . S
C1212 C1215 1.386 . S
H1213 C1229 0.930 . S
H1214 C1230 0.931 . S
C1215 H1203 0.929 . S
C1215 C1209 1.390 . S
C1215 C1212 1.386 . S
C1216 C1211 1.490 . S
C1216 C1218 1.395 1_545 S
C1216 C1219 1.403 . S
H1217 C1223 0.930 . S
C1218 H1204 0.930 . S
C1218 C1216 1.395 1_565 S
C1218 C1221 1.386 1_556 S
C1219 C1216 1.403 . S
C1219 C1220 1.525 . S
C1219 C1223 1.400 1_556 S
C1220 H1205 0.930 1_556 S
C1220 H1206 0.965 . S
C1220 H1207 0.985 . S
C1220 C1219 1.525 . S
C1221 C1218 1.386 1_554 S
C1221 C1222 1.410 . S
C1221 C1225 1.495 . S
C1222 C1221 1.410 . S
C1222 C1223 1.385 1_565 S
C1222 C1224 1.478 . S
C1223 H1217 0.930 . S
C1223 C1219 1.400 1_554 S
C1223 C1222 1.385 1_545 S
C1224 C1222 1.478 . S
C1224 C1226 1.381 . S
C1224 C1230 1.383 . S
C1225 C1221 1.495 . S
C1225 H1231 0.938 1_554 S
C1225 H1232 0.965 . S
C1225 H1233 0.978 . S
C1226 C1224 1.381 . S
C1226 C1227 1.394 . S
C1226 H1234 0.930 . S
C1227 C1226 1.394 . S
C1227 C1228 1.383 . S
C1227 H1235 0.929 . S
C1228 C1227 1.383 . S
C1228 C1229 1.377 . S
C1229 H1213 0.930 . S
C1229 C1228 1.377 . S
C1229 C1230 1.379 . S
C1230 H1214 0.931 . S
C1230 C1224 1.383 . S
C1230 C1229 1.379 . S
H1231 C1225 0.938 1_556 S
H1232 C1225 0.965 . S
H1233 C1225 0.978 . S
H1234 C1226 0.930 . S
H1235 C1227 0.929 . S
H1236 C1244 0.929 . S
H1237 C1246 0.930 . S
H1238 C1248 0.930 . S
H1239 C1251 0.929 . S
H1240 C1254 0.930 . S
H1241 C1256 0.960 . S
H1242 C1256 0.960 . S
H1243 C1256 0.960 . S
C1244 H1236 0.929 . S
C1244 C1245 1.377 . S
C1244 C1246 1.384 . S
C1245 C1244 1.377 . S
C1245 C1251 1.390 . S
C1246 H1237 0.930 . S
C1246 C1244 1.384 . S
C1246 C1247 1.372 . S
C1247 C1246 1.372 . S
C1247 C1248 1.400 . S
C1247 C1252 1.490 . S
C1248 H1238 0.930 . S
C1248 C1247 1.400 . S
C1248 C1251 1.386 . S
H1249 C1265 0.930 . S
H1250 C1266 0.931 . S
C1251 H1239 0.929 . S
C1251 C1245 1.390 . S
C1251 C1248 1.386 . S
C1252 C1247 1.490 . S
C1252 C1254 1.395 . S
C1252 C1255 1.403 . S
H1253 C1259 0.930 . S
C1254 H1240 0.930 . S
C1254 C1252 1.395 . S
C1254 C1257 1.403 . S
C1255 C1252 1.403 . S
C1255 C1256 1.524 . S
C1255 C1259 1.400 . S
C1256 H1241 0.960 . S
C1256 H1242 0.960 . S
C1256 H1243 0.960 . S
C1256 C1255 1.524 . S
C1257 C1254 1.403 . S
C1257 C1258 1.392 . S
C1257 C1261 1.495 . S
C1258 C1257 1.392 . S
C1258 C1259 1.385 . S
C1258 C1260 1.478 . S
C1259 H1253 0.930 . S
C1259 C1255 1.400 . S
C1259 C1258 1.385 . S
C1260 C1258 1.478 . S
C1260 C1262 1.381 . S
C1260 C1266 1.383 . S
C1261 C1257 1.495 . S
C1261 H1267 0.959 . S
C1261 H1268 0.961 . S
C1261 H1269 0.960 . S
C1262 C1260 1.381 . S
C1262 C1263 1.394 . S
C1262 H1270 0.930 . S
C1263 C1262 1.394 . S
C1263 C1264 1.383 . S
C1263 H1271 0.929 . S
C1264 C1263 1.383 . S
C1264 C1265 1.377 . S
C1265 H1249 0.930 . S
C1265 C1264 1.377 . S
C1265 C1266 1.379 . S
C1266 H1250 0.931 . S
C1266 C1260 1.383 . S
C1266 C1265 1.379 . S
H1267 C1261 0.959 . S
H1268 C1261 0.961 . S
H1269 C1261 0.960 . S
H1270 C1262 0.930 . S
H1271 C1263 0.929 . S
H1272 C1280 0.929 . S
H1273 C1282 0.930 . S
H1274 C1284 0.930 . S
H1275 C1287 0.929 . S
H1276 C1290 0.930 . S
H1277 C1292 0.960 . S
H1278 C1292 0.960 1_556 S
H1279 C1292 0.960 1_556 S
C1280 H1272 0.929 . S
C1280 C1281 1.377 . S
C1280 C1282 1.384 . S
C1281 C1280 1.377 . S
C1281 C1287 1.390 . S
C1282 H1273 0.930 . S
C1282 C1280 1.384 . S
C1282 C1283 1.372 . S
C1283 C1282 1.372 . S
C1283 C1284 1.400 . S
C1283 C1288 1.490 . S
C1284 H1274 0.930 . S
C1284 C1283 1.400 . S
C1284 C1287 1.386 . S
H1285 C1301 0.930 . S
H1286 C1302 0.931 . S
C1287 H1275 0.929 . S
C1287 C1281 1.390 . S
C1287 C1284 1.386 . S
C1288 C1283 1.490 . S
C1288 C1290 1.395 1_655 S
C1288 C1291 1.368 1_556 S
H1289 C1295 0.930 . S
C1290 H1276 0.930 . S
C1290 C1288 1.395 1_455 S
C1290 C1293 1.403 . S
C1291 C1288 1.368 1_554 S
C1291 C1292 1.529 . S
C1291 C1295 1.431 . S
C1292 H1277 0.960 . S
C1292 H1278 0.960 1_554 S
C1292 H1279 0.960 1_554 S
C1292 C1291 1.529 . S
C1293 C1290 1.403 . S
C1293 C1294 1.392 1_556 S
C1293 C1297 1.495 . S
C1294 C1293 1.392 1_554 S
C1294 C1295 1.385 1_455 S
C1294 C1296 1.478 . S
C1295 H1289 0.930 . S
C1295 C1291 1.431 . S
C1295 C1294 1.385 1_655 S
C1296 C1294 1.478 . S
C1296 C1298 1.381 . S
C1296 C1302 1.383 . S
C1297 C1293 1.495 . S
C1297 H1303 0.959 . S
C1297 H1304 0.946 1_556 S
C1297 H1305 0.960 1_556 S
C1298 C1296 1.381 . S
C1298 C1299 1.394 . S
C1298 H1306 0.930 . S
C1299 C1298 1.394 . S
C1299 C1300 1.383 . S
C1299 H1307 0.929 . S
C1300 C1299 1.383 . S
C1300 C1301 1.377 . S
C1301 H1285 0.930 . S
C1301 C1300 1.377 . S
C1301 C1302 1.379 . S
C1302 H1286 0.931 . S
C1302 C1296 1.383 . S
C1302 C1301 1.379 . S
H1303 C1297 0.959 . S
H1304 C1297 0.946 1_554 S
H1305 C1297 0.960 1_554 S
H1306 C1298 0.930 . S
H1307 C1299 0.929 . S
H1308 C1316 0.929 . S
H1309 C1318 1.011 . S
H1310 C1320 0.930 . S
H1311 C1323 0.929 . S
H1312 C1326 0.930 . S
H1313 C1328 0.960 . S
H1314 C1328 0.960 . S
H1315 C1328 0.960 . S
C1316 H1308 0.929 . S
C1316 C1317 1.377 . S
C1316 C1318 1.384 . S
C1317 C1316 1.377 . S
C1317 C1323 1.390 . S
C1318 H1309 1.011 . S
C1318 C1316 1.384 . S
C1318 C1319 1.372 . S
C1319 C1318 1.372 . S
C1319 C1320 1.400 . S
C1319 C1324 1.490 . S
C1320 H1310 0.930 . S
C1320 C1319 1.400 . S
C1320 C1323 1.386 . S
H1321 C1337 0.930 . S
H1322 C1338 0.935 . S
C1323 H1311 0.929 . S
C1323 C1317 1.390 . S
C1323 C1320 1.386 . S
C1324 C1319 1.490 . S
C1324 C1326 1.395 . S
C1324 C1327 1.403 . S
H1325 C1331 0.930 . S
C1326 H1312 0.930 . S
C1326 C1324 1.395 . S
C1326 C1329 1.403 1_565 S
C1327 C1324 1.403 . S
C1327 C1328 1.524 . S
C1327 C1331 1.400 1_565 S
C1328 H1313 0.960 . S
C1328 H1314 0.960 . S
C1328 H1315 0.960 . S
C1328 C1327 1.524 . S
C1329 C1326 1.403 1_545 S
C1329 C1330 1.392 . S
C1329 C1333 1.495 . S
C1330 C1329 1.392 . S
C1330 C1331 1.385 . S
C1330 C1332 1.478 . S
C1331 H1325 0.930 . S
C1331 C1327 1.400 1_545 S
C1331 C1330 1.385 . S
C1332 C1330 1.478 . S
C1332 C1334 1.381 . S
C1332 C1338 1.383 . S
C1333 C1329 1.495 . S
C1333 H1339 0.959 . S
C1333 H1340 0.961 . S
C1333 H1341 0.960 . S
C1334 C1332 1.381 . S
C1334 C1335 1.394 . S
C1334 H1342 0.930 . S
C1335 C1334 1.394 . S
C1335 C1336 1.383 . S
C1335 H1343 0.929 . S
C1336 C1335 1.383 . S
C1336 C1337 1.377 . S
C1337 H1321 0.930 . S
C1337 C1336 1.377 . S
C1337 C1338 1.379 . S
C1338 H1322 0.935 . S
C1338 C1332 1.383 . S
C1338 C1337 1.379 . S
H1339 C1333 0.959 . S
H1340 C1333 0.961 . S
H1341 C1333 0.960 . S
H1342 C1334 0.930 . S
H1343 C1335 0.929 . S
H1344 C1352 0.929 . S
H1345 C1354 0.930 . S
H1346 C1356 0.930 . S
H1347 C1359 0.929 . S
H1348 C1362 0.930 . S
H1349 C1364 0.960 . S
H1350 C1364 0.960 . S
H1351 C1364 0.960 . S
C1352 H1344 0.929 . S
C1352 C1353 1.377 . S
C1352 C1354 1.384 . S
C1353 C1352 1.377 . S
C1353 C1359 1.390 . S
C1354 H1345 0.930 . S
C1354 C1352 1.384 . S
C1354 C1355 1.372 . S
C1355 C1354 1.372 . S
C1355 C1356 1.400 . S
C1355 C1360 1.490 . S
C1356 H1346 0.930 . S
C1356 C1355 1.400 . S
C1356 C1359 1.386 . S
H1357 C1373 0.930 . S
H1358 C1374 0.931 . S
C1359 H1347 0.929 . S
C1359 C1353 1.390 . S
C1359 C1356 1.386 . S
C1360 C1355 1.490 . S
C1360 C1362 1.395 . S
C1360 C1363 1.403 . S
H1361 C1367 0.930 . S
C1362 H1348 0.930 . S
C1362 C1360 1.395 . S
C1362 C1365 1.403 1_556 S
C1363 C1360 1.403 . S
C1363 C1364 1.524 . S
C1363 C1367 1.400 1_556 S
C1364 H1349 0.960 . S
C1364 H1350 0.960 . S
C1364 H1351 0.960 . S
C1364 C1363 1.524 . S
C1365 C1362 1.403 1_554 S
C1365 C1366 1.392 . S
C1365 C1369 1.495 . S
C1366 C1365 1.392 . S
C1366 C1367 1.385 . S
C1366 C1368 1.478 . S
C1367 H1361 0.930 . S
C1367 C1363 1.400 1_554 S
C1367 C1366 1.385 . S
C1368 C1366 1.478 . S
C1368 C1370 1.381 . S
C1368 C1374 1.383 . S
C1369 C1365 1.495 . S
C1369 H1375 0.959 . S
C1369 H1376 0.961 . S
C1369 H1377 0.960 . S
C1370 C1368 1.381 . S
C1370 C1371 1.394 . S
C1370 H1378 0.930 . S
C1371 C1370 1.394 . S
C1371 C1372 1.383 . S
C1371 H1379 0.929 . S
C1372 C1371 1.383 . S
C1372 C1373 1.377 . S
C1373 H1357 0.930 . S
C1373 C1372 1.377 . S
C1373 C1374 1.379 . S
C1374 H1358 0.931 . S
C1374 C1368 1.383 . S
C1374 C1373 1.379 . S
H1375 C1369 0.959 . S
H1376 C1369 0.961 . S
H1377 C1369 0.960 . S
H1378 C1370 0.930 . S
H1379 C1371 0.929 . S
H1380 C1388 0.929 . S
H1381 C1390 0.930 . S
H1382 C1392 0.930 . S
H1383 C1395 0.929 . S
H1384 C1398 0.930 . S
H1385 C1400 0.957 1_455 S
H1386 C1400 0.925 1_455 S
H1387 C1400 1.045 . S
C1388 H1380 0.929 . S
C1388 C1389 1.377 . S
C1388 C1390 1.384 . S
C1389 C1388 1.377 . S
C1389 C1395 1.390 . S
C1390 H1381 0.930 . S
C1390 C1388 1.384 . S
C1390 C1391 1.372 . S
C1391 C1390 1.372 . S
C1391 C1392 1.400 . S
C1391 C1396 1.490 . S
C1392 H1382 0.930 . S
C1392 C1391 1.400 . S
C1392 C1395 1.386 . S
H1393 C1409 0.930 . S
H1394 C1410 0.931 . S
C1395 H1383 0.929 . S
C1395 C1389 1.390 . S
C1395 C1392 1.386 . S
C1396 C1391 1.490 . S
C1396 C1398 1.395 . S
C1396 C1399 1.402 . S
H1397 C1403 0.930 . S
C1398 H1384 0.930 . S
C1398 C1396 1.395 . S
C1398 C1401 1.403 1_655 S
C1399 C1396 1.402 . S
C1399 C1400 1.514 . S
C1399 C1403 1.371 1_655 S
C1400 H1385 0.957 1_655 S
C1400 H1386 0.925 1_655 S
C1400 H1387 1.045 . S
C1400 C1399 1.514 . S
C1401 C1398 1.403 1_455 S
C1401 C1402 1.392 . S
C1401 C1405 1.495 . S
C1402 C1401 1.392 . S
C1402 C1403 1.385 . S
C1402 C1404 1.478 . S
C1403 H1397 0.930 . S
C1403 C1399 1.371 1_455 S
C1403 C1402 1.385 . S
C1404 C1402 1.478 . S
C1404 C1406 1.381 . S
C1404 C1410 1.383 . S
C1405 C1401 1.495 . S
C1405 H1411 0.959 1_455 S
C1405 H1412 0.961 1_455 S
C1405 H1413 0.960 . S
C1406 C1404 1.381 . S
C1406 C1407 1.394 . S
C1406 H1414 0.930 . S
C1407 C1406 1.394 . S
C1407 C1408 1.383 . S
C1407 H1415 0.929 . S
C1408 C1407 1.383 . S
C1408 C1409 1.377 . S
C1409 H1393 0.930 . S
C1409 C1408 1.377 . S
C1409 C1410 1.379 . S
C1410 H1394 0.931 . S
C1410 C1404 1.383 . S
C1410 C1409 1.379 . S
H1411 C1405 0.959 1_655 S
H1412 C1405 0.961 1_655 S
H1413 C1405 0.960 . S
H1414 C1406 0.930 . S
H1415 C1407 0.929 . S
H1416 C1424 0.929 . S
H1417 C1426 0.931 1_565 S
H1418 C1428 0.930 . S
H1419 C1431 0.929 . S
H1420 C1434 0.930 . S
H1421 C1436 0.960 1_554 S
H1422 C1436 0.960 . S
H1423 C1436 0.960 . S
C1424 H1416 0.929 . S
C1424 C1425 1.377 . S
C1424 C1426 1.384 . S
C1425 C1424 1.377 . S
C1425 C1431 1.390 . S
C1426 H1417 0.931 1_545 S
C1426 C1424 1.384 . S
C1426 C1427 1.372 . S
C1427 C1426 1.372 . S
C1427 C1428 1.400 . S
C1427 C1432 1.490 . S
C1428 H1418 0.930 . S
C1428 C1427 1.400 . S
C1428 C1431 1.386 . S
H1429 C1445 0.930 . S
H1430 C1446 0.931 . S
C1431 H1419 0.929 . S
C1431 C1425 1.390 . S
C1431 C1428 1.386 . S
C1432 C1427 1.490 . S
C1432 C1434 1.395 1_545 S
C1432 C1435 1.403 . S
H1433 C1439 0.930 . S
C1434 H1420 0.930 . S
C1434 C1432 1.395 1_565 S
C1434 C1437 1.426 . S
C1435 C1432 1.403 . S
C1435 C1436 1.524 . S
C1435 C1439 1.400 1_556 S
C1436 H1421 0.960 1_556 S
C1436 H1422 0.960 . S
C1436 H1423 0.960 . S
C1436 C1435 1.524 . S
C1437 C1434 1.426 . S
C1437 C1438 1.371 1_556 S
C1437 C1441 1.495 . S
C1438 C1437 1.371 1_554 S
C1438 C1439 1.385 1_565 S
C1438 C1440 1.478 . S
C1439 H1433 0.930 . S
C1439 C1435 1.400 1_554 S
C1439 C1438 1.385 1_545 S
C1440 C1438 1.478 . S
C1440 C1442 1.381 . S
C1440 C1446 1.383 . S
C1441 C1437 1.495 . S
C1441 H1447 0.985 . S
C1441 H1448 0.941 1_556 S
C1441 H1449 0.954 1_556 S
C1442 C1440 1.381 . S
C1442 C1443 1.394 . S
C1442 H1450 0.930 . S
C1443 C1442 1.394 . S
C1443 C1444 1.383 . S
C1443 H1451 0.929 . S
C1444 C1443 1.383 . S
C1444 C1445 1.377 . S
C1445 H1429 0.930 . S
C1445 C1444 1.377 . S
C1445 C1446 1.379 . S
C1446 H1430 0.931 . S
C1446 C1440 1.383 . S
C1446 C1445 1.379 . S
H1447 C1441 0.985 . S
H1448 C1441 0.941 1_554 S
H1449 C1441 0.954 1_554 S
H1450 C1442 0.930 . S
H1451 C1443 0.929 . S
H1452 C1460 0.929 . S
H1453 C1462 0.930 . S
H1454 C1464 0.930 . S
H1455 C1467 0.929 . S
H1456 C1470 0.930 . S
H1457 C1472 0.960 . S
H1458 C1472 0.960 . S
H1459 C1472 0.960 . S
C1460 H1452 0.929 . S
C1460 C1461 1.377 . S
C1460 C1462 1.384 . S
C1461 C1460 1.377 . S
C1461 C1467 1.390 . S
C1462 H1453 0.930 . S
C1462 C1460 1.384 . S
C1462 C1463 1.372 . S
C1463 C1462 1.372 . S
C1463 C1464 1.400 . S
C1463 C1468 1.490 . S
C1464 H1454 0.930 . S
C1464 C1463 1.400 . S
C1464 C1467 1.386 . S
H1465 C1481 0.930 . S
H1466 C1482 0.931 . S
C1467 H1455 0.929 . S
C1467 C1461 1.390 . S
C1467 C1464 1.386 . S
C1468 C1463 1.490 . S
C1468 C1470 1.395 . S
C1468 C1471 1.403 . S
H1469 C1475 0.930 . S
C1470 H1456 0.930 . S
C1470 C1468 1.395 . S
C1470 C1473 1.403 . S
C1471 C1468 1.403 . S
C1471 C1472 1.524 . S
C1471 C1475 1.400 . S
C1472 H1457 0.960 . S
C1472 H1458 0.960 . S
C1472 H1459 0.960 . S
C1472 C1471 1.524 . S
C1473 C1470 1.403 . S
C1473 C1474 1.392 . S
C1473 C1477 1.495 . S
C1474 C1473 1.392 . S
C1474 C1475 1.385 . S
C1474 C1476 1.478 . S
C1475 H1469 0.930 . S
C1475 C1471 1.400 . S
C1475 C1474 1.385 . S
C1476 C1474 1.478 . S
C1476 C1478 1.381 . S
C1476 C1482 1.383 . S
C1477 C1473 1.495 . S
C1477 H1483 0.959 . S
C1477 H1484 0.961 . S
C1477 H1485 0.960 . S
C1478 C1476 1.381 . S
C1478 C1479 1.394 . S
C1478 H1486 0.930 . S
C1479 C1478 1.394 . S
C1479 C1480 1.383 . S
C1479 H1487 0.929 . S
C1480 C1479 1.383 . S
C1480 C1481 1.377 . S
C1481 H1465 0.930 . S
C1481 C1480 1.377 . S
C1481 C1482 1.379 . S
C1482 H1466 0.931 . S
C1482 C1476 1.383 . S
C1482 C1481 1.379 . S
H1483 C1477 0.959 . S
H1484 C1477 0.961 . S
H1485 C1477 0.960 . S
H1486 C1478 0.930 . S
H1487 C1479 0.929 . S
H1488 C1496 0.929 . S
H1489 C1498 0.930 . S
H1490 C1500 0.930 . S
H1491 C1503 0.929 . S
H1492 C1506 0.930 . S
H1493 C1508 0.960 . S
H1494 C1508 0.960 . S
H1495 C1508 0.960 . S
C1496 H1488 0.929 . S
C1496 C1497 1.377 . S
C1496 C1498 1.384 . S
C1497 C1496 1.377 . S
C1497 C1503 1.390 . S
C1498 H1489 0.930 . S
C1498 C1496 1.384 . S
C1498 C1499 1.372 . S
C1499 C1498 1.372 . S
C1499 C1500 1.400 . S
C1499 C1504 1.490 . S
C1500 H1490 0.930 . S
C1500 C1499 1.400 . S
C1500 C1503 1.386 . S
H1501 C1517 0.930 . S
H1502 C1518 0.931 . S
C1503 H1491 0.929 . S
C1503 C1497 1.390 . S
C1503 C1500 1.386 . S
C1504 C1499 1.490 . S
C1504 C1506 1.395 . S
C1504 C1507 1.403 . S
H1505 C1511 0.930 . S
C1506 H1492 0.930 . S
C1506 C1504 1.395 . S
C1506 C1509 1.403 . S
C1507 C1504 1.403 . S
C1507 C1508 1.524 . S
C1507 C1511 1.400 . S
C1508 H1493 0.960 . S
C1508 H1494 0.960 . S
C1508 H1495 0.960 . S
C1508 C1507 1.524 . S
C1509 C1506 1.403 . S
C1509 C1510 1.392 . S
C1509 C1513 1.495 . S
C1510 C1509 1.392 . S
C1510 C1511 1.385 . S
C1510 C1512 1.478 . S
C1511 H1505 0.930 . S
C1511 C1507 1.400 . S
C1511 C1510 1.385 . S
C1512 C1510 1.478 . S
C1512 C1514 1.381 . S
C1512 C1518 1.383 . S
C1513 C1509 1.495 . S
C1513 H1519 0.959 . S
C1513 H1520 0.961 . S
C1513 H1521 0.960 . S
C1514 C1512 1.381 . S
C1514 C1515 1.394 . S
C1514 H1522 0.930 . S
C1515 C1514 1.394 . S
C1515 C1516 1.383 . S
C1515 H1523 0.929 . S
C1516 C1515 1.383 . S
C1516 C1517 1.377 . S
C1517 H1501 0.930 . S
C1517 C1516 1.377 . S
C1517 C1518 1.379 . S
C1518 H1502 0.931 . S
C1518 C1512 1.383 . S
C1518 C1517 1.379 . S
H1519 C1513 0.959 . S
H1520 C1513 0.961 . S
H1521 C1513 0.960 . S
H1522 C1514 0.930 . S
H1523 C1515 0.929 . S
H1524 C1532 0.929 . S
H1525 C1534 0.930 . S
H1526 C1536 0.930 . S
H1527 C1539 0.929 . S
H1528 C1542 0.930 . S
H1529 C1544 0.960 . S
H1530 C1544 0.960 . S
H1531 C1544 0.960 . S
C1532 H1524 0.929 . S
C1532 C1533 1.377 . S
C1532 C1534 1.384 . S
C1533 C1532 1.377 . S
C1533 C1539 1.390 . S
C1534 H1525 0.930 . S
C1534 C1532 1.384 . S
C1534 C1535 1.372 . S
C1535 C1534 1.372 . S
C1535 C1536 1.400 . S
C1535 C1540 1.490 . S
C1536 H1526 0.930 . S
C1536 C1535 1.400 . S
C1536 C1539 1.386 . S
H1537 C1553 0.930 . S
H1538 C1554 0.931 . S
C1539 H1527 0.929 . S
C1539 C1533 1.390 . S
C1539 C1536 1.386 . S
C1540 C1535 1.490 . S
C1540 C1542 1.395 . S
C1540 C1543 1.403 . S
H1541 C1547 0.930 . S
C1542 H1528 0.930 . S
C1542 C1540 1.395 . S
C1542 C1545 1.403 . S
C1543 C1540 1.403 . S
C1543 C1544 1.524 . S
C1543 C1547 1.400 . S
C1544 H1529 0.960 . S
C1544 H1530 0.960 . S
C1544 H1531 0.960 . S
C1544 C1543 1.524 . S
C1545 C1542 1.403 . S
C1545 C1546 1.392 . S
C1545 C1549 1.495 . S
C1546 C1545 1.392 . S
C1546 C1547 1.385 . S
C1546 C1548 1.478 . S
C1547 H1541 0.930 . S
C1547 C1543 1.400 . S
C1547 C1546 1.385 . S
C1548 C1546 1.478 . S
C1548 C1550 1.381 . S
C1548 C1554 1.383 . S
C1549 C1545 1.495 . S
C1549 H1555 0.959 . S
C1549 H1556 0.961 . S
C1549 H1557 0.960 . S
C1550 C1548 1.381 . S
C1550 C1551 1.394 . S
C1550 H1558 0.930 . S
C1551 C1550 1.394 . S
C1551 C1552 1.383 . S
C1551 H1559 0.929 . S
C1552 C1551 1.383 . S
C1552 C1553 1.377 . S
C1553 H1537 0.930 . S
C1553 C1552 1.377 . S
C1553 C1554 1.379 . S
C1554 H1538 0.931 . S
C1554 C1548 1.383 . S
C1554 C1553 1.379 . S
H1555 C1549 0.959 . S
H1556 C1549 0.961 . S
H1557 C1549 0.960 . S
H1558 C1550 0.930 . S
H1559 C1551 0.929 . S
H1560 C1568 0.929 . S
H1561 C1570 0.930 . S
H1562 C1572 0.930 . S
H1563 C1575 0.929 . S
H1564 C1578 0.930 . S
H1565 C1580 0.960 . S
H1566 C1580 0.960 . S
H1567 C1580 0.960 . S
C1568 H1560 0.929 . S
C1568 C1569 1.377 . S
C1568 C1570 1.384 . S
C1569 C1568 1.377 . S
C1569 C1575 1.390 . S
C1570 H1561 0.930 . S
C1570 C1568 1.384 . S
C1570 C1571 1.372 . S
C1571 C1570 1.372 . S
C1571 C1572 1.400 . S
C1571 C1576 1.490 . S
C1572 H1562 0.930 . S
C1572 C1571 1.400 . S
C1572 C1575 1.386 . S
H1573 C1589 0.930 . S
H1574 C1590 0.931 . S
C1575 H1563 0.929 . S
C1575 C1569 1.390 . S
C1575 C1572 1.386 . S
C1576 C1571 1.490 . S
C1576 C1578 1.395 . S
C1576 C1579 1.403 . S
H1577 C1583 0.930 . S
C1578 H1564 0.930 . S
C1578 C1576 1.395 . S
C1578 C1581 1.403 . S
C1579 C1576 1.403 . S
C1579 C1580 1.524 . S
C1579 C1583 1.400 . S
C1580 H1565 0.960 . S
C1580 H1566 0.960 . S
C1580 H1567 0.960 . S
C1580 C1579 1.524 . S
C1581 C1578 1.403 . S
C1581 C1582 1.392 . S
C1581 C1585 1.495 . S
C1582 C1581 1.392 . S
C1582 C1583 1.385 . S
C1582 C1584 1.478 . S
C1583 H1577 0.930 . S
C1583 C1579 1.400 . S
C1583 C1582 1.385 . S
C1584 C1582 1.478 . S
C1584 C1586 1.381 . S
C1584 C1590 1.383 . S
C1585 C1581 1.495 . S
C1585 H1591 0.959 . S
C1585 H1592 0.961 . S
C1585 H1593 0.960 . S
C1586 C1584 1.381 . S
C1586 C1587 1.394 . S
C1586 H1594 0.930 . S
C1587 C1586 1.394 . S
C1587 C1588 1.383 . S
C1587 H1595 0.929 . S
C1588 C1587 1.383 . S
C1588 C1589 1.377 . S
C1589 H1573 0.930 . S
C1589 C1588 1.377 . S
C1589 C1590 1.379 . S
C1590 H1574 0.931 . S
C1590 C1584 1.383 . S
C1590 C1589 1.379 . S
H1591 C1585 0.959 . S
H1592 C1585 0.961 . S
H1593 C1585 0.960 . S
H1594 C1586 0.930 . S
H1595 C1587 0.929 . S
H1596 C1604 0.929 . S
H1597 C1606 0.930 . S
H1598 C1608 0.930 . S
H1599 C1611 0.929 . S
H1600 C1614 0.930 . S
H1601 C1616 0.960 . S
H1602 C1616 0.960 . S
H1603 C1616 0.960 . S
C1604 H1596 0.929 . S
C1604 C1605 1.377 . S
C1604 C1606 1.384 . S
C1605 C1604 1.377 . S
C1605 C1611 1.390 . S
C1606 H1597 0.930 . S
C1606 C1604 1.384 . S
C1606 C1607 1.372 . S
C1607 C1606 1.372 . S
C1607 C1608 1.400 . S
C1607 C1612 1.490 . S
C1608 H1598 0.930 . S
C1608 C1607 1.400 . S
C1608 C1611 1.386 . S
H1609 C1625 0.930 . S
H1610 C1626 0.931 . S
C1611 H1599 0.929 . S
C1611 C1605 1.390 . S
C1611 C1608 1.386 . S
C1612 C1607 1.490 . S
C1612 C1614 1.395 . S
C1612 C1615 1.403 . S
H1613 C1619 0.930 . S
C1614 H1600 0.930 . S
C1614 C1612 1.395 . S
C1614 C1617 1.403 . S
C1615 C1612 1.403 . S
C1615 C1616 1.524 . S
C1615 C1619 1.400 . S
C1616 H1601 0.960 . S
C1616 H1602 0.960 . S
C1616 H1603 0.960 . S
C1616 C1615 1.524 . S
C1617 C1614 1.403 . S
C1617 C1618 1.392 . S
C1617 C1621 1.495 . S
C1618 C1617 1.392 . S
C1618 C1619 1.385 . S
C1618 C1620 1.478 . S
C1619 H1613 0.930 . S
C1619 C1615 1.400 . S
C1619 C1618 1.385 . S
C1620 C1618 1.478 . S
C1620 C1622 1.381 . S
C1620 C1626 1.383 . S
C1621 C1617 1.495 . S
C1621 H1627 0.959 . S
C1621 H1628 0.961 . S
C1621 H1629 0.960 . S
C1622 C1620 1.381 . S
C1622 C1623 1.394 . S
C1622 H1630 0.930 . S
C1623 C1622 1.394 . S
C1623 C1624 1.383 . S
C1623 H1631 0.929 . S
C1624 C1623 1.383 . S
C1624 C1625 1.377 . S
C1625 H1609 0.930 . S
C1625 C1624 1.377 . S
C1625 C1626 1.379 . S
C1626 H1610 0.931 . S
C1626 C1620 1.383 . S
C1626 C1625 1.379 . S
H1627 C1621 0.959 . S
H1628 C1621 0.961 . S
H1629 C1621 0.960 . S
H1630 C1622 0.930 . S
H1631 C1623 0.929 . S
H1632 C1640 0.929 . S
H1633 C1642 0.930 . S
H1634 C1644 0.930 . S
H1635 C1647 0.929 . S
H1636 C1650 0.930 . S
H1637 C1652 0.960 . S
H1638 C1652 0.960 . S
H1639 C1652 0.960 . S
C1640 H1632 0.929 . S
C1640 C1641 1.377 . S
C1640 C1642 1.384 . S
C1641 C1640 1.377 . S
C1641 C1647 1.390 . S
C1642 H1633 0.930 . S
C1642 C1640 1.384 . S
C1642 C1643 1.372 . S
C1643 C1642 1.372 . S
C1643 C1644 1.400 . S
C1643 C1648 1.490 . S
C1644 H1634 0.930 . S
C1644 C1643 1.400 . S
C1644 C1647 1.386 . S
H1645 C1661 0.930 . S
H1646 C1662 0.931 . S
C1647 H1635 0.929 . S
C1647 C1641 1.390 . S
C1647 C1644 1.386 . S
C1648 C1643 1.490 . S
C1648 C1650 1.395 . S
C1648 C1651 1.403 . S
H1649 C1655 0.930 . S
C1650 H1636 0.930 . S
C1650 C1648 1.395 . S
C1650 C1653 1.403 . S
C1651 C1648 1.403 . S
C1651 C1652 1.524 . S
C1651 C1655 1.400 . S
C1652 H1637 0.960 . S
C1652 H1638 0.960 . S
C1652 H1639 0.960 . S
C1652 C1651 1.524 . S
C1653 C1650 1.403 . S
C1653 C1654 1.392 . S
C1653 C1657 1.495 . S
C1654 C1653 1.392 . S
C1654 C1655 1.385 . S
C1654 C1656 1.478 . S
C1655 H1649 0.930 . S
C1655 C1651 1.400 . S
C1655 C1654 1.385 . S
C1656 C1654 1.478 . S
C1656 C1658 1.381 . S
C1656 C1662 1.383 . S
C1657 C1653 1.495 . S
C1657 H1663 0.959 . S
C1657 H1664 0.961 . S
C1657 H1665 0.960 . S
C1658 C1656 1.381 . S
C1658 C1659 1.394 . S
C1658 H1666 0.930 . S
C1659 C1658 1.394 . S
C1659 C1660 1.383 . S
C1659 H1667 0.929 . S
C1660 C1659 1.383 . S
C1660 C1661 1.377 . S
C1661 H1645 0.930 . S
C1661 C1660 1.377 . S
C1661 C1662 1.379 . S
C1662 H1646 0.931 . S
C1662 C1656 1.383 . S
C1662 C1661 1.379 . S
H1663 C1657 0.959 . S
H1664 C1657 0.961 . S
H1665 C1657 0.960 . S
H1666 C1658 0.930 . S
H1667 C1659 0.929 . S
H1668 C1676 0.929 . S
H1669 C1678 0.930 . S
H1670 C1680 0.930 . S
H1671 C1683 0.929 . S
H1672 C1686 0.930 . S
H1673 C1688 0.960 . S
H1674 C1688 0.960 . S
H1675 C1688 0.960 . S
C1676 H1668 0.929 . S
C1676 C1677 1.377 . S
C1676 C1678 1.384 . S
C1677 C1676 1.377 . S
C1677 C1683 1.390 . S
C1678 H1669 0.930 . S
C1678 C1676 1.384 . S
C1678 C1679 1.372 . S
C1679 C1678 1.372 . S
C1679 C1680 1.400 . S
C1679 C1684 1.490 . S
C1680 H1670 0.930 . S
C1680 C1679 1.400 . S
C1680 C1683 1.386 . S
H1681 C1697 0.930 . S
H1682 C1698 0.931 . S
C1683 H1671 0.929 . S
C1683 C1677 1.390 . S
C1683 C1680 1.386 . S
C1684 C1679 1.490 . S
C1684 C1686 1.395 . S
C1684 C1687 1.403 . S
H1685 C1691 0.930 . S
C1686 H1672 0.930 . S
C1686 C1684 1.395 . S
C1686 C1689 1.403 . S
C1687 C1684 1.403 . S
C1687 C1688 1.524 . S
C1687 C1691 1.400 . S
C1688 H1673 0.960 . S
C1688 H1674 0.960 . S
C1688 H1675 0.960 . S
C1688 C1687 1.524 . S
C1689 C1686 1.403 . S
C1689 C1690 1.392 . S
C1689 C1693 1.495 . S
C1690 C1689 1.392 . S
C1690 C1691 1.385 . S
C1690 C1692 1.478 . S
C1691 H1685 0.930 . S
C1691 C1687 1.400 . S
C1691 C1690 1.385 . S
C1692 C1690 1.478 . S
C1692 C1694 1.381 . S
C1692 C1698 1.383 . S
C1693 C1689 1.495 . S
C1693 H1699 0.959 . S
C1693 H1700 0.961 . S
C1693 H1701 0.960 . S
C1694 C1692 1.381 . S
C1694 C1695 1.394 . S
C1694 H1702 0.930 . S
C1695 C1694 1.394 . S
C1695 C1696 1.383 . S
C1695 H1703 0.929 . S
C1696 C1695 1.383 . S
C1696 C1697 1.377 . S
C1697 H1681 0.930 . S
C1697 C1696 1.377 . S
C1697 C1698 1.379 . S
C1698 H1682 0.931 . S
C1698 C1692 1.383 . S
C1698 C1697 1.379 . S
H1699 C1693 0.959 . S
H1700 C1693 0.961 . S
H1701 C1693 0.960 . S
H1702 C1694 0.930 . S
H1703 C1695 0.929 . S
H1704 C1712 0.929 . S
H1705 C1714 0.930 . S
H1706 C1716 0.930 . S
H1707 C1719 0.929 . S
H1708 C1722 0.930 . S
H1709 C1724 0.960 . S
H1710 C1724 0.960 . S
H1711 C1724 0.960 . S
C1712 H1704 0.929 . S
C1712 C1713 1.377 . S
C1712 C1714 1.384 . S
C1713 C1712 1.377 . S
C1713 C1719 1.390 . S
C1714 H1705 0.930 . S
C1714 C1712 1.384 . S
C1714 C1715 1.372 . S
C1715 C1714 1.372 . S
C1715 C1716 1.400 . S
C1715 C1720 1.490 . S
C1716 H1706 0.930 . S
C1716 C1715 1.400 . S
C1716 C1719 1.386 . S
H1717 C1733 0.930 . S
H1718 C1734 0.931 . S
C1719 H1707 0.929 . S
C1719 C1713 1.390 . S
C1719 C1716 1.386 . S
C1720 C1715 1.490 . S
C1720 C1722 1.395 . S
C1720 C1723 1.403 . S
H1721 C1727 0.930 . S
C1722 H1708 0.930 . S
C1722 C1720 1.395 . S
C1722 C1725 1.403 . S
C1723 C1720 1.403 . S
C1723 C1724 1.524 . S
C1723 C1727 1.400 . S
C1724 H1709 0.960 . S
C1724 H1710 0.960 . S
C1724 H1711 0.960 . S
C1724 C1723 1.524 . S
C1725 C1722 1.403 . S
C1725 C1726 1.392 . S
C1725 C1729 1.495 . S
C1726 C1725 1.392 . S
C1726 C1727 1.385 . S
C1726 C1728 1.478 . S
C1727 H1721 0.930 . S
C1727 C1723 1.400 . S
C1727 C1726 1.385 . S
C1728 C1726 1.478 . S
C1728 C1730 1.381 . S
C1728 C1734 1.383 . S
C1729 C1725 1.495 . S
C1729 H1735 0.959 . S
C1729 H1736 0.961 . S
C1729 H1737 0.960 . S
C1730 C1728 1.381 . S
C1730 C1731 1.394 . S
C1730 H1738 0.930 . S
C1731 C1730 1.394 . S
C1731 C1732 1.383 . S
C1731 H1739 0.929 . S
C1732 C1731 1.383 . S
C1732 C1733 1.377 . S
C1733 H1717 0.930 . S
C1733 C1732 1.377 . S
C1733 C1734 1.379 . S
C1734 H1718 0.931 . S
C1734 C1728 1.383 . S
C1734 C1733 1.379 . S
H1735 C1729 0.959 . S
H1736 C1729 0.961 . S
H1737 C1729 0.960 . S
H1738 C1730 0.930 . S
H1739 C1731 0.929 . S
H1740 C1748 0.929 . S
H1741 C1750 0.930 . S
H1742 C1752 0.930 . S
H1743 C1755 0.929 . S
H1744 C1758 0.930 . S
H1745 C1760 0.960 . S
H1746 C1760 0.960 . S
H1747 C1760 0.960 . S
C1748 H1740 0.929 . S
C1748 C1749 1.377 . S
C1748 C1750 1.384 . S
C1749 C1748 1.377 . S
C1749 C1755 1.390 . S
C1750 H1741 0.930 . S
C1750 C1748 1.384 . S
C1750 C1751 1.372 . S
C1751 C1750 1.372 . S
C1751 C1752 1.400 . S
C1751 C1756 1.490 . S
C1752 H1742 0.930 . S
C1752 C1751 1.400 . S
C1752 C1755 1.386 . S
H1753 C1769 0.930 . S
H1754 C1770 0.931 . S
C1755 H1743 0.929 . S
C1755 C1749 1.390 . S
C1755 C1752 1.386 . S
C1756 C1751 1.490 . S
C1756 C1758 1.395 . S
C1756 C1759 1.403 . S
H1757 C1763 0.930 . S
C1758 H1744 0.930 . S
C1758 C1756 1.395 . S
C1758 C1761 1.403 . S
C1759 C1756 1.403 . S
C1759 C1760 1.524 . S
C1759 C1763 1.400 . S
C1760 H1745 0.960 . S
C1760 H1746 0.960 . S
C1760 H1747 0.960 . S
C1760 C1759 1.524 . S
C1761 C1758 1.403 . S
C1761 C1762 1.392 . S
C1761 C1765 1.495 . S
C1762 C1761 1.392 . S
C1762 C1763 1.385 . S
C1762 C1764 1.478 . S
C1763 H1757 0.930 . S
C1763 C1759 1.400 . S
C1763 C1762 1.385 . S
C1764 C1762 1.478 . S
C1764 C1766 1.381 . S
C1764 C1770 1.383 . S
C1765 C1761 1.495 . S
C1765 H1771 0.959 . S
C1765 H1772 0.961 . S
C1765 H1773 0.960 . S
C1766 C1764 1.381 . S
C1766 C1767 1.394 . S
C1766 H1774 0.930 . S
C1767 C1766 1.394 . S
C1767 C1768 1.383 . S
C1767 H1775 0.929 . S
C1768 C1767 1.383 . S
C1768 C1769 1.377 . S
C1769 H1753 0.930 . S
C1769 C1768 1.377 . S
C1769 C1770 1.379 . S
C1770 H1754 0.931 . S
C1770 C1764 1.383 . S
C1770 C1769 1.379 . S
H1771 C1765 0.959 . S
H1772 C1765 0.961 . S
H1773 C1765 0.960 . S
H1774 C1766 0.930 . S
H1775 C1767 0.929 . S
H1776 C1784 0.929 . S
H1777 C1786 0.930 . S
H1778 C1788 0.930 . S
H1779 C1791 0.929 . S
H1780 C1794 0.930 . S
H1781 C1796 0.960 . S
H1782 C1796 0.960 . S
H1783 C1796 0.960 . S
C1784 H1776 0.929 . S
C1784 C1785 1.377 . S
C1784 C1786 1.384 . S
C1785 C1784 1.377 . S
C1785 C1791 1.390 . S
C1786 H1777 0.930 . S
C1786 C1784 1.384 . S
C1786 C1787 1.372 . S
C1787 C1786 1.372 . S
C1787 C1788 1.400 . S
C1787 C1792 1.490 . S
C1788 H1778 0.930 . S
C1788 C1787 1.400 . S
C1788 C1791 1.386 . S
H1789 C1805 0.930 . S
H1790 C1806 0.931 . S
C1791 H1779 0.929 . S
C1791 C1785 1.390 . S
C1791 C1788 1.386 . S
C1792 C1787 1.490 . S
C1792 C1794 1.395 . S
C1792 C1795 1.403 . S
H1793 C1799 0.930 . S
C1794 H1780 0.930 . S
C1794 C1792 1.395 . S
C1794 C1797 1.403 . S
C1795 C1792 1.403 . S
C1795 C1796 1.524 . S
C1795 C1799 1.400 . S
C1796 H1781 0.960 . S
C1796 H1782 0.960 . S
C1796 H1783 0.960 . S
C1796 C1795 1.524 . S
C1797 C1794 1.403 . S
C1797 C1798 1.392 . S
C1797 C1801 1.495 . S
C1798 C1797 1.392 . S
C1798 C1799 1.385 . S
C1798 C1800 1.478 . S
C1799 H1793 0.930 . S
C1799 C1795 1.400 . S
C1799 C1798 1.385 . S
C1800 C1798 1.478 . S
C1800 C1802 1.381 . S
C1800 C1806 1.383 . S
C1801 C1797 1.495 . S
C1801 H1807 0.959 . S
C1801 H1808 0.961 . S
C1801 H1809 0.960 . S
C1802 C1800 1.381 . S
C1802 C1803 1.394 . S
C1802 H1810 0.930 . S
C1803 C1802 1.394 . S
C1803 C1804 1.383 . S
C1803 H1811 0.929 . S
C1804 C1803 1.383 . S
C1804 C1805 1.377 . S
C1805 H1789 0.930 . S
C1805 C1804 1.377 . S
C1805 C1806 1.379 . S
C1806 H1790 0.931 . S
C1806 C1800 1.383 . S
C1806 C1805 1.379 . S
H1807 C1801 0.959 . S
H1808 C1801 0.961 . S
H1809 C1801 0.960 . S
H1810 C1802 0.930 . S
H1811 C1803 0.929 . S
H1812 C1820 0.929 . S
H1813 C1822 0.930 . S
H1814 C1824 0.930 . S
H1815 C1827 0.929 . S
H1816 C1830 0.930 . S
H1817 C1832 0.960 . S
H1818 C1832 0.960 . S
H1819 C1832 0.960 . S
C1820 H1812 0.929 . S
C1820 C1821 1.377 . S
C1820 C1822 1.384 . S
C1821 C1820 1.377 . S
C1821 C1827 1.390 . S
C1822 H1813 0.930 . S
C1822 C1820 1.384 . S
C1822 C1823 1.372 . S
C1823 C1822 1.372 . S
C1823 C1824 1.400 . S
C1823 C1828 1.490 . S
C1824 H1814 0.930 . S
C1824 C1823 1.400 . S
C1824 C1827 1.386 . S
H1825 C1841 0.930 . S
H1826 C1842 0.931 . S
C1827 H1815 0.929 . S
C1827 C1821 1.390 . S
C1827 C1824 1.386 . S
C1828 C1823 1.490 . S
C1828 C1830 1.395 . S
C1828 C1831 1.403 . S
H1829 C1835 0.930 . S
C1830 H1816 0.930 . S
C1830 C1828 1.395 . S
C1830 C1833 1.403 . S
C1831 C1828 1.403 . S
C1831 C1832 1.524 . S
C1831 C1835 1.400 . S
C1832 H1817 0.960 . S
C1832 H1818 0.960 . S
C1832 H1819 0.960 . S
C1832 C1831 1.524 . S
C1833 C1830 1.403 . S
C1833 C1834 1.392 . S
C1833 C1837 1.495 . S
C1834 C1833 1.392 . S
C1834 C1835 1.385 . S
C1834 C1836 1.478 . S
C1835 H1829 0.930 . S
C1835 C1831 1.400 . S
C1835 C1834 1.385 . S
C1836 C1834 1.478 . S
C1836 C1838 1.381 . S
C1836 C1842 1.383 . S
C1837 C1833 1.495 . S
C1837 H1843 0.959 . S
C1837 H1844 0.961 . S
C1837 H1845 0.960 . S
C1838 C1836 1.381 . S
C1838 C1839 1.394 . S
C1838 H1846 0.930 . S
C1839 C1838 1.394 . S
C1839 C1840 1.383 . S
C1839 H1847 0.929 . S
C1840 C1839 1.383 . S
C1840 C1841 1.377 . S
C1841 H1825 0.930 . S
C1841 C1840 1.377 . S
C1841 C1842 1.379 . S
C1842 H1826 0.931 . S
C1842 C1836 1.383 . S
C1842 C1841 1.379 . S
H1843 C1837 0.959 . S
H1844 C1837 0.961 . S
H1845 C1837 0.960 . S
H1846 C1838 0.930 . S
H1847 C1839 0.929 . S
H1848 C1856 0.929 . S
H1849 C1858 0.930 . S
H1850 C1860 0.930 . S
H1851 C1863 0.929 . S
H1852 C1866 0.930 . S
H1853 C1868 0.960 . S
H1854 C1868 0.960 . S
H1855 C1868 0.960 . S
C1856 H1848 0.929 . S
C1856 C1857 1.377 . S
C1856 C1858 1.384 . S
C1857 C1856 1.377 . S
C1857 C1863 1.390 . S
C1858 H1849 0.930 . S
C1858 C1856 1.384 . S
C1858 C1859 1.372 . S
C1859 C1858 1.372 . S
C1859 C1860 1.400 . S
C1859 C1864 1.490 . S
C1860 H1850 0.930 . S
C1860 C1859 1.400 . S
C1860 C1863 1.386 . S
H1861 C1877 0.930 . S
H1862 C1878 0.931 . S
C1863 H1851 0.929 . S
C1863 C1857 1.390 . S
C1863 C1860 1.386 . S
C1864 C1859 1.490 . S
C1864 C1866 1.395 . S
C1864 C1867 1.403 . S
H1865 C1871 0.930 . S
C1866 H1852 0.930 . S
C1866 C1864 1.395 . S
C1866 C1869 1.403 . S
C1867 C1864 1.403 . S
C1867 C1868 1.524 . S
C1867 C1871 1.400 . S
C1868 H1853 0.960 . S
C1868 H1854 0.960 . S
C1868 H1855 0.960 . S
C1868 C1867 1.524 . S
C1869 C1866 1.403 . S
C1869 C1870 1.392 . S
C1869 C1873 1.495 . S
C1870 C1869 1.392 . S
C1870 C1871 1.385 . S
C1870 C1872 1.478 . S
C1871 H1865 0.930 . S
C1871 C1867 1.400 . S
C1871 C1870 1.385 . S
C1872 C1870 1.478 . S
C1872 C1874 1.381 . S
C1872 C1878 1.383 . S
C1873 C1869 1.495 . S
C1873 H1879 0.959 . S
C1873 H1880 0.961 . S
C1873 H1881 0.960 . S
C1874 C1872 1.381 . S
C1874 C1875 1.394 . S
C1874 H1882 0.930 . S
C1875 C1874 1.394 . S
C1875 C1876 1.383 . S
C1875 H1883 0.929 . S
C1876 C1875 1.383 . S
C1876 C1877 1.377 . S
C1877 H1861 0.930 . S
C1877 C1876 1.377 . S
C1877 C1878 1.379 . S
C1878 H1862 0.931 . S
C1878 C1872 1.383 . S
C1878 C1877 1.379 . S
H1879 C1873 0.959 . S
H1880 C1873 0.961 . S
H1881 C1873 0.960 . S
H1882 C1874 0.930 . S
H1883 C1875 0.929 . S
H1884 C1892 0.929 . S
H1885 C1894 0.930 . S
H1886 C1896 0.930 . S
H1887 C1899 0.929 . S
H1888 C1902 0.930 . S
H1889 C1904 0.960 . S
H1890 C1904 0.960 . S
H1891 C1904 0.960 . S
C1892 H1884 0.929 . S
C1892 C1893 1.377 . S
C1892 C1894 1.384 . S
C1893 C1892 1.377 . S
C1893 C1899 1.390 . S
C1894 H1885 0.930 . S
C1894 C1892 1.384 . S
C1894 C1895 1.372 . S
C1895 C1894 1.372 . S
C1895 C1896 1.400 . S
C1895 C1900 1.490 . S
C1896 H1886 0.930 . S
C1896 C1895 1.400 . S
C1896 C1899 1.386 . S
H1897 C1913 0.930 . S
H1898 C1914 0.931 . S
C1899 H1887 0.929 . S
C1899 C1893 1.390 . S
C1899 C1896 1.386 . S
C1900 C1895 1.490 . S
C1900 C1902 1.395 . S
C1900 C1903 1.403 . S
H1901 C1907 0.930 . S
C1902 H1888 0.930 . S
C1902 C1900 1.395 . S
C1902 C1905 1.403 . S
C1903 C1900 1.403 . S
C1903 C1904 1.524 . S
C1903 C1907 1.400 . S
C1904 H1889 0.960 . S
C1904 H1890 0.960 . S
C1904 H1891 0.960 . S
C1904 C1903 1.524 . S
C1905 C1902 1.403 . S
C1905 C1906 1.392 . S
C1905 C1909 1.495 . S
C1906 C1905 1.392 . S
C1906 C1907 1.385 . S
C1906 C1908 1.478 . S
C1907 H1901 0.930 . S
C1907 C1903 1.400 . S
C1907 C1906 1.385 . S
C1908 C1906 1.478 . S
C1908 C1910 1.381 . S
C1908 C1914 1.383 . S
C1909 C1905 1.495 . S
C1909 H1915 0.959 . S
C1909 H1916 0.961 . S
C1909 H1917 0.960 . S
C1910 C1908 1.381 . S
C1910 C1911 1.394 . S
C1910 H1918 0.930 . S
C1911 C1910 1.394 . S
C1911 C1912 1.383 . S
C1911 H1919 0.929 . S
C1912 C1911 1.383 . S
C1912 C1913 1.377 . S
C1913 H1897 0.930 . S
C1913 C1912 1.377 . S
C1913 C1914 1.379 . S
C1914 H1898 0.931 . S
C1914 C1908 1.383 . S
C1914 C1913 1.379 . S
H1915 C1909 0.959 . S
H1916 C1909 0.961 . S
H1917 C1909 0.960 . S
H1918 C1910 0.930 . S
H1919 C1911 0.929 . S
C1065 C57 1.406 . S
C1084 C997 1.393 . S
C1101 C548 1.408 . S
C1120 C145 1.394 . S
C1137 C225 1.406 . S
C1156 C636 1.412 . S
C1173 C733 1.404 . S
C1192 C321 1.410 . S
C1209 C821 1.407 . S
C1228 C401 1.409 . S
C1245 C900 1.404 . S
C1264 C497 1.409 . S
C1281 C293 1.405 . S
C1300 C761 1.406 . S
C1317 C372 1.406 . S
C1336 C849 1.416 . S
C1353 C469 1.409 . S
C1372 C929 1.392 . S
C1389 C1025 1.406 . S
C1408 C29 1.416 . S
C1425 C117 1.404 . S
C1444 C577 1.413 . S
C1461 C196 1.407 . S
C1480 C665 1.394 . S
C1497 C753 1.419 . S
C1516 C20 1.425 . S
C1533 C841 1.418 . S
C1552 C108 1.417 . S
C1569 C205 1.418 . S
C1588 C937 1.421 . S
C1605 C284 1.418 . S
C1624 C1017 1.425 . S
C1641 C381 1.422 . S
C1660 C585 1.409 . S
C1677 C673 1.419 . S
C1696 C460 1.412 . S
C1713 C49 0.942 . S
C1732 C909 0.944 . S
C1749 C988 0.942 . S
C1768 C137 0.937 . S
C1785 C233 0.941 . S
C1804 C557 0.935 . S
C1821 C313 0.942 . S
C1840 C645 0.943 . S
C1857 C409 0.941 . S
C1876 C724 0.944 . S
C1893 C489 0.942 . S
C1912 C812 0.935 . S
