# Generated by pormake.
# Topology vcf, (6)-cn, num edge types: 1
# Building blocks:
#     Node 0, Type 0, BuildingBlock: IZENUY_clean_sbu_0, # of connection points: 6
#     Node 1, Type 0, BuildingBlock: IZENUY_clean_sbu_0, # of connection points: 6
#     Node 2, Type 0, BuildingBlock: IZENUY_clean_sbu_0, # of connection points: 6
#     Node 3, Type 0, BuildingBlock: IZENUY_clean_sbu_0, # of connection points: 6
#     Node 4, Type 0, BuildingBlock: IZENUY_clean_sbu_0, # of connection points: 6
#     Node 5, Type 0, BuildingBlock: IZENUY_clean_sbu_0, # of connection points: 6
#     Node 6, Type 0, BuildingBlock: IZENUY_clean_sbu_0, # of connection points: 6
#     Node 7, Type 0, BuildingBlock: IZENUY_clean_sbu_0, # of connection points: 6
#     Node 8, Type 0, BuildingBlock: IZENUY_clean_sbu_0, # of connection points: 6
#     Node 9, Type 0, BuildingBlock: IZENUY_clean_sbu_0, # of connection points: 6
#     Node 10, Type 0, BuildingBlock: IZENUY_clean_sbu_0, # of connection points: 6
#     Node 11, Type 0, BuildingBlock: IZENUY_clean_sbu_0, # of connection points: 6
#     Node 12, Type 0, BuildingBlock: IZENUY_clean_sbu_0, # of connection points: 6
#     Node 13, Type 0, BuildingBlock: IZENUY_clean_sbu_0, # of connection points: 6
#     Node 14, Type 0, BuildingBlock: IZENUY_clean_sbu_0, # of connection points: 6
#     Node 15, Type 0, BuildingBlock: IZENUY_clean_sbu_0, # of connection points: 6
#     Node 16, Type 0, BuildingBlock: IZENUY_clean_sbu_0, # of connection points: 6
#     Node 17, Type 0, BuildingBlock: IZENUY_clean_sbu_0, # of connection points: 6
#     Node 18, Type 0, BuildingBlock: IZENUY_clean_sbu_0, # of connection points: 6
#     Node 19, Type 0, BuildingBlock: IZENUY_clean_sbu_0, # of connection points: 6
#     Node 20, Type 0, BuildingBlock: IZENUY_clean_sbu_0, # of connection points: 6
#     Node 21, Type 0, BuildingBlock: IZENUY_clean_sbu_0, # of connection points: 6
#     Node 22, Type 0, BuildingBlock: IZENUY_clean_sbu_0, # of connection points: 6
#     Node 23, Type 0, BuildingBlock: IZENUY_clean_sbu_0, # of connection points: 6
#     Node 24, Type 0, BuildingBlock: IZENUY_clean_sbu_0, # of connection points: 6
#     Node 25, Type 0, BuildingBlock: IZENUY_clean_sbu_0, # of connection points: 6
#     Node 26, Type 0, BuildingBlock: IZENUY_clean_sbu_0, # of connection points: 6
#     Node 27, Type 0, BuildingBlock: IZENUY_clean_sbu_0, # of connection points: 6
#     Node 28, Type 0, BuildingBlock: IZENUY_clean_sbu_0, # of connection points: 6
#     Node 29, Type 0, BuildingBlock: IZENUY_clean_sbu_0, # of connection points: 6
#     Node 30, Type 0, BuildingBlock: IZENUY_clean_sbu_0, # of connection points: 6
#     Node 31, Type 0, BuildingBlock: IZENUY_clean_sbu_0, # of connection points: 6
#     Edge 32, Type (0, 0), BuildingBlock: XIVTED_clean_linker_0, # of connection points: 2
#     Edge 33, Type (0, 0), BuildingBlock: XIVTED_clean_linker_0, # of connection points: 2
#     Edge 34, Type (0, 0), BuildingBlock: XIVTED_clean_linker_0, # of connection points: 2
#     Edge 35, Type (0, 0), BuildingBlock: XIVTED_clean_linker_0, # of connection points: 2
#     Edge 36, Type (0, 0), BuildingBlock: XIVTED_clean_linker_0, # of connection points: 2
#     Edge 37, Type (0, 0), BuildingBlock: XIVTED_clean_linker_0, # of connection points: 2
#     Edge 38, Type (0, 0), BuildingBlock: XIVTED_clean_linker_0, # of connection points: 2
#     Edge 39, Type (0, 0), BuildingBlock: XIVTED_clean_linker_0, # of connection points: 2
#     Edge 40, Type (0, 0), BuildingBlock: XIVTED_clean_linker_0, # of connection points: 2
#     Edge 41, Type (0, 0), BuildingBlock: XIVTED_clean_linker_0, # of connection points: 2
#     Edge 42, Type (0, 0), BuildingBlock: XIVTED_clean_linker_0, # of connection points: 2
#     Edge 43, Type (0, 0), BuildingBlock: XIVTED_clean_linker_0, # of connection points: 2
#     Edge 44, Type (0, 0), BuildingBlock: XIVTED_clean_linker_0, # of connection points: 2
#     Edge 45, Type (0, 0), BuildingBlock: XIVTED_clean_linker_0, # of connection points: 2
#     Edge 46, Type (0, 0), BuildingBlock: XIVTED_clean_linker_0, # of connection points: 2
#     Edge 47, Type (0, 0), BuildingBlock: XIVTED_clean_linker_0, # of connection points: 2
#     Edge 48, Type (0, 0), BuildingBlock: XIVTED_clean_linker_0, # of connection points: 2
#     Edge 49, Type (0, 0), BuildingBlock: XIVTED_clean_linker_0, # of connection points: 2
#     Edge 50, Type (0, 0), BuildingBlock: XIVTED_clean_linker_0, # of connection points: 2
#     Edge 51, Type (0, 0), BuildingBlock: XIVTED_clean_linker_0, # of connection points: 2
#     Edge 52, Type (0, 0), BuildingBlock: XIVTED_clean_linker_0, # of connection points: 2
#     Edge 53, Type (0, 0), BuildingBlock: XIVTED_clean_linker_0, # of connection points: 2
#     Edge 54, Type (0, 0), BuildingBlock: XIVTED_clean_linker_0, # of connection points: 2
#     Edge 55, Type (0, 0), BuildingBlock: XIVTED_clean_linker_0, # of connection points: 2
#     Edge 56, Type (0, 0), BuildingBlock: XIVTED_clean_linker_0, # of connection points: 2
#     Edge 57, Type (0, 0), BuildingBlock: XIVTED_clean_linker_0, # of connection points: 2
#     Edge 58, Type (0, 0), BuildingBlock: XIVTED_clean_linker_0, # of connection points: 2
#     Edge 59, Type (0, 0), BuildingBlock: XIVTED_clean_linker_0, # of connection points: 2
#     Edge 60, Type (0, 0), BuildingBlock: XIVTED_clean_linker_0, # of connection points: 2
#     Edge 61, Type (0, 0), BuildingBlock: XIVTED_clean_linker_0, # of connection points: 2
#     Edge 62, Type (0, 0), BuildingBlock: XIVTED_clean_linker_0, # of connection points: 2
#     Edge 63, Type (0, 0), BuildingBlock: XIVTED_clean_linker_0, # of connection points: 2
#     Edge 64, Type (0, 0), BuildingBlock: XIVTED_clean_linker_0, # of connection points: 2
#     Edge 65, Type (0, 0), BuildingBlock: XIVTED_clean_linker_0, # of connection points: 2
#     Edge 66, Type (0, 0), BuildingBlock: XIVTED_clean_linker_0, # of connection points: 2
#     Edge 67, Type (0, 0), BuildingBlock: XIVTED_clean_linker_0, # of connection points: 2
#     Edge 68, Type (0, 0), BuildingBlock: XIVTED_clean_linker_0, # of connection points: 2
#     Edge 69, Type (0, 0), BuildingBlock: XIVTED_clean_linker_0, # of connection points: 2
#     Edge 70, Type (0, 0), BuildingBlock: XIVTED_clean_linker_0, # of connection points: 2
#     Edge 71, Type (0, 0), BuildingBlock: XIVTED_clean_linker_0, # of connection points: 2
#     Edge 72, Type (0, 0), BuildingBlock: XIVTED_clean_linker_0, # of connection points: 2
#     Edge 73, Type (0, 0), BuildingBlock: XIVTED_clean_linker_0, # of connection points: 2
#     Edge 74, Type (0, 0), BuildingBlock: XIVTED_clean_linker_0, # of connection points: 2
#     Edge 75, Type (0, 0), BuildingBlock: XIVTED_clean_linker_0, # of connection points: 2
#     Edge 76, Type (0, 0), BuildingBlock: XIVTED_clean_linker_0, # of connection points: 2
#     Edge 77, Type (0, 0), BuildingBlock: XIVTED_clean_linker_0, # of connection points: 2
#     Edge 78, Type (0, 0), BuildingBlock: XIVTED_clean_linker_0, # of connection points: 2
#     Edge 79, Type (0, 0), BuildingBlock: XIVTED_clean_linker_0, # of connection points: 2
#     Edge 80, Type (0, 0), BuildingBlock: XIVTED_clean_linker_0, # of connection points: 2
#     Edge 81, Type (0, 0), BuildingBlock: XIVTED_clean_linker_0, # of connection points: 2
#     Edge 82, Type (0, 0), BuildingBlock: XIVTED_clean_linker_0, # of connection points: 2
#     Edge 83, Type (0, 0), BuildingBlock: XIVTED_clean_linker_0, # of connection points: 2
#     Edge 84, Type (0, 0), BuildingBlock: XIVTED_clean_linker_0, # of connection points: 2
#     Edge 85, Type (0, 0), BuildingBlock: XIVTED_clean_linker_0, # of connection points: 2
#     Edge 86, Type (0, 0), BuildingBlock: XIVTED_clean_linker_0, # of connection points: 2
#     Edge 87, Type (0, 0), BuildingBlock: XIVTED_clean_linker_0, # of connection points: 2
#     Edge 88, Type (0, 0), BuildingBlock: XIVTED_clean_linker_0, # of connection points: 2
#     Edge 89, Type (0, 0), BuildingBlock: XIVTED_clean_linker_0, # of connection points: 2
#     Edge 90, Type (0, 0), BuildingBlock: XIVTED_clean_linker_0, # of connection points: 2
#     Edge 91, Type (0, 0), BuildingBlock: XIVTED_clean_linker_0, # of connection points: 2
#     Edge 92, Type (0, 0), BuildingBlock: XIVTED_clean_linker_0, # of connection points: 2
#     Edge 93, Type (0, 0), BuildingBlock: XIVTED_clean_linker_0, # of connection points: 2
#     Edge 94, Type (0, 0), BuildingBlock: XIVTED_clean_linker_0, # of connection points: 2
#     Edge 95, Type (0, 0), BuildingBlock: XIVTED_clean_linker_0, # of connection points: 2
#     Edge 96, Type (0, 0), BuildingBlock: XIVTED_clean_linker_0, # of connection points: 2
#     Edge 97, Type (0, 0), BuildingBlock: XIVTED_clean_linker_0, # of connection points: 2
#     Edge 98, Type (0, 0), BuildingBlock: XIVTED_clean_linker_0, # of connection points: 2
#     Edge 99, Type (0, 0), BuildingBlock: XIVTED_clean_linker_0, # of connection points: 2
#     Edge 100, Type (0, 0), BuildingBlock: XIVTED_clean_linker_0, # of connection points: 2
#     Edge 101, Type (0, 0), BuildingBlock: XIVTED_clean_linker_0, # of connection points: 2
#     Edge 102, Type (0, 0), BuildingBlock: XIVTED_clean_linker_0, # of connection points: 2
#     Edge 103, Type (0, 0), BuildingBlock: XIVTED_clean_linker_0, # of connection points: 2
#     Edge 104, Type (0, 0), BuildingBlock: XIVTED_clean_linker_0, # of connection points: 2
#     Edge 105, Type (0, 0), BuildingBlock: XIVTED_clean_linker_0, # of connection points: 2
#     Edge 106, Type (0, 0), BuildingBlock: XIVTED_clean_linker_0, # of connection points: 2
#     Edge 107, Type (0, 0), BuildingBlock: XIVTED_clean_linker_0, # of connection points: 2
#     Edge 108, Type (0, 0), BuildingBlock: XIVTED_clean_linker_0, # of connection points: 2
#     Edge 109, Type (0, 0), BuildingBlock: XIVTED_clean_linker_0, # of connection points: 2
#     Edge 110, Type (0, 0), BuildingBlock: XIVTED_clean_linker_0, # of connection points: 2
#     Edge 111, Type (0, 0), BuildingBlock: XIVTED_clean_linker_0, # of connection points: 2
#     Edge 112, Type (0, 0), BuildingBlock: XIVTED_clean_linker_0, # of connection points: 2
#     Edge 113, Type (0, 0), BuildingBlock: XIVTED_clean_linker_0, # of connection points: 2
#     Edge 114, Type (0, 0), BuildingBlock: XIVTED_clean_linker_0, # of connection points: 2
#     Edge 115, Type (0, 0), BuildingBlock: XIVTED_clean_linker_0, # of connection points: 2
#     Edge 116, Type (0, 0), BuildingBlock: XIVTED_clean_linker_0, # of connection points: 2
#     Edge 117, Type (0, 0), BuildingBlock: XIVTED_clean_linker_0, # of connection points: 2
#     Edge 118, Type (0, 0), BuildingBlock: XIVTED_clean_linker_0, # of connection points: 2
#     Edge 119, Type (0, 0), BuildingBlock: XIVTED_clean_linker_0, # of connection points: 2
#     Edge 120, Type (0, 0), BuildingBlock: XIVTED_clean_linker_0, # of connection points: 2
#     Edge 121, Type (0, 0), BuildingBlock: XIVTED_clean_linker_0, # of connection points: 2
#     Edge 122, Type (0, 0), BuildingBlock: XIVTED_clean_linker_0, # of connection points: 2
#     Edge 123, Type (0, 0), BuildingBlock: XIVTED_clean_linker_0, # of connection points: 2
#     Edge 124, Type (0, 0), BuildingBlock: XIVTED_clean_linker_0, # of connection points: 2
#     Edge 125, Type (0, 0), BuildingBlock: XIVTED_clean_linker_0, # of connection points: 2
#     Edge 126, Type (0, 0), BuildingBlock: XIVTED_clean_linker_0, # of connection points: 2
#     Edge 127, Type (0, 0), BuildingBlock: XIVTED_clean_linker_0, # of connection points: 2
# Relax obj value: 0.263
# Max RMSD: 0.251
# Mean RMSD: 0.250
data_MOF--net-vcf--node1-IZENUY_clean_sbu_0--edge1-XIVTED_clean_linker_0
_symmetry_space_group_name_H-M    P1
_symmetry_Int_Tables_number       1
_symmetry_cell_setting            triclinic
loop_
_symmetry_equiv_pos_as_xyz
'x, y, z'
_cell_length_a     42.720518
_cell_length_b     35.867551
_cell_length_c     87.79769
_cell_angle_alpha  89.983462
_cell_angle_beta   89.969303
_cell_angle_gamma 89.967063
loop_
_atom_site_label
_atom_site_type_symbol
_atom_site_fract_x
_atom_site_fract_y
_atom_site_fract_z
_atom_type_partial_charge
Fe0 Fe 0.02445 0.26777 0.0692 0.0
Fe1 Fe 0.0436 0.34973 0.06655 0.0
O2 O 0.03848 0.3054 0.05808 0.0
Fe3 Fe 0.04703 0.29862 0.03855 0.0
O4 O 0.00731 0.28421 0.03454 0.0
O5 O 1.00381 0.24418 0.05333 0.0
O6 O 0.98836 0.29197 0.07308 0.0
C7 C 0.98648 0.32399 0.07889 0.0
C8 C 0.0692 0.23269 0.05275 0.0
O9 O 0.0105 0.34466 0.07993 0.0
C10 C 0.09488 0.34531 0.04541 0.0
O11 O 0.04266 0.28379 0.08717 0.0
O12 O 0.07158 0.33136 0.08014 0.0
O13 O 0.06035 0.25026 0.04098 0.0
O14 O 0.05968 0.2418 0.0658 0.0
C15 C 0.01904 0.37038 0.0393 0.0
O16 O 0.07703 0.36332 0.05435 0.0
O17 O 0.08735 0.3131 0.04097 0.0
C18 C 0.06576 0.30538 0.08941 0.0
O19 O 0.01607 0.37085 0.05357 0.0
O20 O 0.03532 0.34559 0.03278 0.0
C21 C 0.9943 0.25641 0.04057 0.0
Fe22 Fe 0.20596 0.92721 0.03376 0.0
Fe23 Fe 0.22611 0.96303 0.06384 0.0
O24 O 0.21548 0.92303 0.05333 0.0
Fe25 Fe 0.21441 0.87912 0.06242 0.0
O26 O 0.24316 0.86071 0.04945 0.0
O27 O 0.2208 0.88083 0.02855 0.0
O28 O 0.24431 0.94597 0.0292 0.0
C29 C 0.25474 0.97579 0.03486 0.0
C30 C 0.16183 0.87646 0.04201 0.0
O31 O 0.24402 0.98771 0.04746 0.0
C32 C 0.18927 0.9221 0.08497 0.0
O33 O 0.1888 0.97407 0.03564 0.0
O34 O 0.18842 0.98339 0.0604 0.0
O35 O 0.18154 0.86077 0.05079 0.0
O36 O 0.16707 0.9087 0.03687 0.0
C37 C 0.26939 0.91309 0.0739 0.0
O38 O 0.21016 0.94632 0.08221 0.0
O39 O 0.1855 0.89487 0.07609 0.0
C40 C 0.17741 -0.01034 0.04735 0.0
O41 O 0.26431 0.9442 0.06772 0.0
O42 O 0.24755 0.88928 0.07533 0.0
C43 C 0.23852 0.85793 0.03536 0.0
Fe44 Fe 0.02534 0.95803 0.20339 0.0
Fe45 Fe 0.04872 0.87695 0.20772 0.0
O46 O 0.04059 0.922 0.21527 0.0
Fe47 Fe 0.04732 0.93073 0.23499 0.0
O48 O 0.01679 0.96563 0.23728 0.0
O49 O 0.99119 0.96585 0.21568 0.0
O50 O 1.00048 0.92732 0.19195 0.0
C51 C 0.992 0.89394 0.19404 0.0
C52 C 0.07085 -0.0064 0.2218 0.0
O53 O 0.00871 0.87138 0.20144 0.0
C54 C 0.09751 0.88154 0.22772 0.0
O55 O 0.05784 0.95438 0.18992 0.0
O56 O 0.0613 0.89329 0.189 0.0
O57 O 0.07599 0.96634 0.23057 0.0
O58 O 0.04756 -0.00555 0.2129 0.0
C59 C 0.01933 0.86247 0.23571 0.0
O60 O 0.08974 0.87786 0.21388 0.0
O61 O 0.07927 0.89749 0.23695 0.0
C62 C 0.06786 0.92502 0.18365 0.0
O63 O 0.03698 0.85272 0.22489 0.0
O64 O 0.01883 0.89561 0.24055 0.0
C65 C 0.99242 0.9727 0.22978 0.0
Fe66 Fe 0.21035 0.29565 0.2386 0.0
Fe67 Fe 0.23194 0.2681 0.20696 0.0
O68 O 0.21718 0.30435 0.21886 0.0
Fe69 Fe 0.20955 0.34954 0.21136 0.0
O70 O 0.22171 0.37337 0.22854 0.0
O71 O 0.23945 0.3301 0.24414 0.0
O72 O 0.24028 0.25998 0.24083 0.0
C73 C 0.26462 0.25263 0.23334 0.0
C74 C 0.16084 0.3458 0.23144 0.0
O75 O 0.26595 0.25956 0.21925 0.0
C76 C 0.18984 0.30208 0.18723 0.0
O77 O 0.18106 0.2608 0.23415 0.0
O78 O 0.20909 0.23215 0.21644 0.0
O79 O 0.16857 0.3492 0.21759 0.0
O80 O 0.17896 0.32963 0.24066 0.0
C81 C 0.26588 0.33178 0.19747 0.0
O82 O 0.19952 0.27246 0.19344 0.0
O83 O 0.19669 0.3336 0.19267 0.0
C84 C 0.18566 0.23364 0.22526 0.0
O85 O 0.25728 0.29838 0.19556 0.0
O86 O 0.24951 0.35454 0.20495 0.0
C87 C 0.23941 0.36324 0.23928 0.0
Fe88 Fe 0.95902 0.6774 0.98275 0.0
Fe89 Fe 0.96516 0.62572 0.95503 0.0
O90 O 0.96826 0.67055 0.96328 0.0
Fe91 Fe 0.98076 0.70872 0.95207 0.0
O92 O 1.00038 0.73359 0.96794 0.0
O93 O 0.99819 0.69385 0.9869 0.0
O94 O 0.97198 0.63114 0.9888 0.0
C95 C 0.98952 0.60719 0.98256 0.0
C96 C 0.93457 0.74157 0.96829 0.0
O97 O 0.99307 0.60661 0.96833 0.0
C98 C 0.94167 0.66806 0.93182 0.0
O99 O 0.91926 0.66106 0.98007 0.0
O100 O 0.93174 0.61094 0.96701 0.0
O101 O 0.94441 0.73256 0.9553 0.0
O102 O 0.94426 0.72503 0.98012 0.0
C103 C 0.02121 0.65485 0.94258 0.0
O104 O 0.93693 0.64187 0.94112 0.0
O105 O 0.96349 0.69137 0.93412 0.0
C106 C 0.91269 0.62868 0.97545 0.0
O107 O 0.99847 0.63214 0.94186 0.0
O108 O 0.01776 0.68676 0.94829 0.0
C109 C 0.01041 0.722 0.98072 0.0
Fe110 Fe 0.78155 0.01701 0.95502 0.0
Fe111 Fe 0.80429 0.05008 0.98516 0.0
O112 O 0.79335 0.05597 0.96588 0.0
Fe113 Fe 0.79416 0.10068 0.95745 0.0
O114 O 0.76048 0.09195 0.94472 0.0
O115 O 0.74339 0.03688 0.95189 0.0
O116 O 0.76418 -0.00864 0.97132 0.0
C117 C 0.75478 0.0026 0.98428 0.0
C118 C 0.81793 0.05922 0.93411 0.0
O119 O 0.76626 0.03157 0.99012 0.0
C120 C 0.84786 0.10132 0.9771 0.0
O121 O 0.81908 -0.00455 0.95761 0.0
O122 O 0.82083 0.00331 0.98241 0.0
O123 O 0.82228 0.08583 0.94326 0.0
O124 O 0.79687 0.03508 0.93674 0.0
C125 C 0.77085 0.11841 0.98519 0.0
O126 O 0.84304 0.06845 0.98161 0.0
O127 O 0.82753 0.11792 0.96898 0.0
C128 C 0.83081 0.98792 0.97037 0.0
O129 O 0.78987 0.09579 0.99126 0.0
O130 O 0.76614 0.11806 0.97105 0.0
C131 C 0.73845 0.06841 0.94606 0.0
Fe132 Fe 0.95912 0.10165 0.81097 0.0
Fe133 Fe 0.98268 0.0213 0.81659 0.0
O134 O 0.9672 0.05594 0.80422 0.0
Fe135 Fe 0.9603 0.04496 0.78471 0.0
O136 O 0.98931 0.07889 0.77854 0.0
O137 O 0.97123 0.12377 0.79335 0.0
O138 O 0.99903 0.10802 0.81725 0.0
C139 C 0.0158 0.08629 0.825 0.0
C140 C 0.9106 0.09562 0.79097 0.0
O141 O 0.00748 0.05307 0.82756 0.0
C142 C 0.93669 0.98389 0.79897 0.0
O143 O 0.94627 0.08711 0.82994 0.0
O144 O 0.95028 0.02596 0.82998 0.0
O145 O 0.92884 0.07871 0.78202 0.0
O146 O 0.91819 0.10009 0.80478 0.0
C147 C 0.01482 0.00296 0.79062 0.0
O148 O 0.96038 0.98384 0.80767 0.0
O149 O 0.93119 0.01055 0.78993 0.0
C150 C 0.9399 0.05575 0.83574 0.0
O151 O 0.01677 0.01304 0.80434 0.0
O152 O 0.99015 0.00872 0.78316 0.0
C153 C 0.98907 0.11255 0.78282 0.0
Fe154 Fe 0.7963 0.62754 0.8098 0.0
Fe155 Fe 0.77581 0.70931 0.81487 0.0
O156 O 0.78979 0.67332 0.80272 0.0
Fe157 Fe 0.7968 0.68309 0.7831 0.0
O158 O 0.76642 0.65047 0.77727 0.0
O159 O 0.78298 0.60538 0.79242 0.0
O160 O 0.7563 0.62357 0.81639 0.0
C161 C 0.74051 0.64657 0.82404 0.0
C162 C 0.84472 0.63044 0.7895 0.0
O163 O 0.74999 0.6795 0.82617 0.0
C164 C 0.82336 0.7428 0.79709 0.0
O165 O 0.81015 0.64223 0.82857 0.0
O166 O 0.80812 0.70353 0.82822 0.0
O167 O 0.8268 0.6476 0.78051 0.0
O168 O 0.83716 0.6266 0.80336 0.0
C169 C 0.74412 0.72833 0.78886 0.0
O170 O 0.79951 0.74502 0.80563 0.0
O171 O 0.82738 0.71594 0.78797 0.0
C172 C 0.81762 0.6735 0.83413 0.0
O173 O 0.7419 0.71875 0.80264 0.0
O174 O 0.76847 0.72094 0.78139 0.0
C175 C 0.76553 0.61698 0.7818 0.0
Fe176 Fe 0.04236 0.84927 0.56384 0.0
Fe177 Fe 0.04864 0.79974 0.53549 0.0
O178 O 0.03995 0.80495 0.55509 0.0
Fe179 Fe 0.02852 0.76567 0.5659 0.0
O180 O 0.99118 0.78629 0.57017 0.0
O181 O 0.0096 0.84091 0.57717 0.0
O182 O 0.01357 0.86831 0.55098 0.0
C183 C 0.0169 0.8691 0.53675 0.0
C184 C 0.06732 0.80613 0.58639 0.0
O185 O 0.03471 0.8461 0.53011 0.0
C186 C 0.07493 0.73546 0.54899 0.0
O187 O 0.07507 0.8659 0.55172 0.0
O188 O 0.08811 0.81689 0.53809 0.0
O189 O 0.046 0.78225 0.58391 0.0
O190 O 0.07132 0.83313 0.57739 0.0
C191 C 0.99811 0.75399 0.53739 0.0
O192 O 0.06428 0.75218 0.5374 0.0
O193 O 0.06526 0.74323 0.56214 0.0
C194 C 0.09398 0.84939 0.54278 0.0
O195 O 0.00966 0.78286 0.5315 0.0
O196 O 0.00889 0.7414 0.54986 0.0
C197 C 0.98721 0.81774 0.57623 0.0
Fe198 Fe 0.20461 0.42742 0.53518 0.0
Fe199 Fe 0.23032 0.45805 0.56551 0.0
O200 O 0.21437 0.42065 0.55471 0.0
Fe201 Fe 0.20854 0.37626 0.56325 0.0
O202 O 0.21743 0.35062 0.54606 0.0
O203 O 0.23258 0.39218 0.52913 0.0
O204 O 0.23444 0.46247 0.53136 0.0
C205 C 0.25967 0.47052 0.53801 0.0
C206 C 0.15604 0.37974 0.5454 0.0
O207 O 0.26278 0.46478 0.55214 0.0
C208 C 0.19097 0.42615 0.58686 0.0
O209 O 0.17609 0.46287 0.54002 0.0
O210 O 0.20676 0.49319 0.55603 0.0
O211 O 0.16659 0.37597 0.5588 0.0
O212 O 0.17272 0.39386 0.53504 0.0
C213 C 0.26658 0.39624 0.57454 0.0
O214 O 0.19925 0.45518 0.57978 0.0
O215 O 0.19891 0.39424 0.58214 0.0
C216 C 0.18192 0.4908 0.54827 0.0
O217 O 0.25668 0.42896 0.57684 0.0
O218 O 0.24982 0.37236 0.56788 0.0
C219 C 0.23315 0.3595 0.53446 0.0
Fe220 Fe 0.02648 0.4545 0.70559 0.0
Fe221 Fe 0.04831 0.37286 0.70804 0.0
O222 O 0.04234 0.41726 0.71653 0.0
Fe223 Fe 0.05178 0.42422 0.73607 0.0
O224 O 0.02122 0.45866 0.73972 0.0
O225 O 0.99353 0.46083 0.71868 0.0
O226 O 1.00092 0.42513 0.69398 0.0
C227 C 0.99052 0.39277 0.69655 0.0
C228 C 0.07378 0.48828 0.72316 0.0
O229 O 0.00697 0.36899 0.70346 0.0
C230 C 0.10073 0.37656 0.72592 0.0
O231 O 0.05818 0.45185 0.69164 0.0
O232 O 0.05797 0.39096 0.68914 0.0
O233 O 0.07992 0.46029 0.73134 0.0
O234 O 0.04914 0.49006 0.71526 0.0
C235 C 0.02412 0.35568 0.73691 0.0
O236 O 0.0902 0.37264 0.71252 0.0
O237 O 0.08416 0.39121 0.73623 0.0
C238 C 0.06646 0.42282 0.68457 0.0
O239 O 0.03953 0.34702 0.7252 0.0
O240 O 0.02429 0.38843 0.74216 0.0
C241 C 0.99616 0.46659 0.73284 0.0
Fe242 Fe 0.20706 0.79726 0.73531 0.0
Fe243 Fe 0.22832 0.76395 0.70484 0.0
O244 O 0.21636 0.80276 0.7158 0.0
Fe245 Fe 0.21417 0.84727 0.70724 0.0
O246 O 0.2434 0.86528 0.72007 0.0
O247 O 0.22154 0.84333 0.74085 0.0
O248 O 0.24571 0.77976 0.73955 0.0
C249 C 0.25775 0.75127 0.73359 0.0
C250 C 0.16261 0.84813 0.72817 0.0
O251 O 0.24787 0.73928 0.72084 0.0
C252 C 0.18903 0.80504 0.68462 0.0
O253 O 0.19111 0.74997 0.73312 0.0
O254 O 0.19176 0.74083 0.70834 0.0
O255 O 0.18215 0.86442 0.71955 0.0
O256 O 0.16764 0.81513 0.73253 0.0
C257 C 0.26919 0.81675 0.69474 0.0
O258 O 0.2106 0.78119 0.68688 0.0
O259 O 0.18488 0.83158 0.69384 0.0
C260 C 0.18137 0.7331 0.72137 0.0
O261 O 0.26577 0.7852 0.7008 0.0
O262 O 0.24621 0.83892 0.69362 0.0
C263 C 0.24001 0.86582 0.73431 0.0
Fe264 Fe 0.95564 0.18047 0.48503 0.0
Fe265 Fe 0.96793 0.13054 0.45737 0.0
O266 O 0.96775 0.17522 0.46588 0.0
Fe267 Fe 0.97985 0.21452 0.45529 0.0
O268 O 0.99679 0.23961 0.47188 0.0
O269 O 0.9932 0.19905 0.49055 0.0
O270 O 0.97015 0.13479 0.49111 0.0
C271 C 0.99002 0.11279 0.4853 0.0
C272 C 0.93021 0.24381 0.47039 0.0
O273 O 0.99569 0.11361 0.47123 0.0
C274 C 0.94437 0.17197 0.43398 0.0
O275 O 0.91722 0.16175 0.4808 0.0
O276 O 0.93458 0.11251 0.46865 0.0
O277 O 0.9423 0.23632 0.45769 0.0
O278 O 0.93906 0.22727 0.48237 0.0
C279 C 0.02357 0.16344 0.44646 0.0
O280 O 0.94018 0.14499 0.44297 0.0
O281 O 0.96481 0.19677 0.43685 0.0
C282 C 0.91346 0.12857 0.47644 0.0
O283 O 1.00168 0.13991 0.44484 0.0
O284 O 0.01824 0.19482 0.45233 0.0
C285 C 0.00528 0.22795 0.48494 0.0
Fe286 Fe 0.77653 0.52009 0.45515 0.0
Fe287 Fe 0.79942 0.55474 0.48498 0.0
O288 O 0.78922 0.55939 0.46554 0.0
Fe289 Fe 0.79174 0.60322 0.4565 0.0
O290 O 0.75808 0.59509 0.44368 0.0
O291 O 0.73917 0.5413 0.45138 0.0
O292 O 0.75786 0.49686 0.47175 0.0
C293 C 0.74855 0.50956 0.48451 0.0
C294 C 0.81487 0.5589 0.43393 0.0
O295 O 0.76052 0.5388 0.48992 0.0
C296 C 0.84519 0.60249 0.4763 0.0
O297 O 0.81321 0.49711 0.45839 0.0
O298 O 0.81417 0.50664 0.48309 0.0
O299 O 0.81966 0.5859 0.4428 0.0
O300 O 0.79309 0.53574 0.43668 0.0
C301 C 0.76938 0.62566 0.48367 0.0
O302 O 0.83895 0.57044 0.48135 0.0
O303 O 0.82554 0.61962 0.46796 0.0
C304 C 0.82385 0.48952 0.47137 0.0
O305 O 0.78692 0.60215 0.49027 0.0
O306 O 0.76401 0.62302 0.46965 0.0
C307 C 0.73538 0.57249 0.44507 0.0
Fe308 Fe 0.95859 0.60505 0.31301 0.0
Fe309 Fe 0.97972 0.52311 0.31558 0.0
O310 O 0.96448 0.56054 0.30458 0.0
Fe311 Fe 0.95538 0.55371 0.28498 0.0
O312 O 0.98364 0.58879 0.2791 0.0
O313 O 0.96801 0.63057 0.29583 0.0
O314 O 0.9997 0.60863 0.31786 0.0
C315 C 0.01604 0.58471 0.32474 0.0
C316 C 0.90665 0.60176 0.29485 0.0
O317 O 0.00582 0.55214 0.3271 0.0
C318 C 0.93186 0.49061 0.29799 0.0
O319 O 0.94846 0.58736 0.3319 0.0
O320 O 0.94802 0.52648 0.32949 0.0
O321 O 0.92358 0.58748 0.2846 0.0
O322 O 0.91681 0.60546 0.30832 0.0
C323 C 0.01009 0.50983 0.28844 0.0
O324 O 0.95637 0.48805 0.30596 0.0
O325 O 0.92655 0.51847 0.28961 0.0
C326 C 0.93991 0.5556 0.33652 0.0
O327 O 0.01265 0.51588 0.30257 0.0
O328 O 0.98531 0.51841 0.28147 0.0
C329 C 0.98395 0.62159 0.28432 0.0
Fe330 Fe 0.7802 0.21317 0.31645 0.0
Fe331 Fe 0.80001 0.18127 0.28553 0.0
O332 O 0.79219 0.17489 0.30517 0.0
Fe333 Fe 0.79584 0.13026 0.31354 0.0
O334 O 0.7638 0.13725 0.32738 0.0
O335 O 0.74332 0.19103 0.32077 0.0
O336 O 0.75963 0.23799 0.30085 0.0
C337 C 0.74901 0.22629 0.28822 0.0
C338 C 0.82098 0.17288 0.33613 0.0
O339 O 0.76074 0.19794 0.28201 0.0
C340 C 0.8462 0.1317 0.29179 0.0
O341 O 0.81626 0.23704 0.31262 0.0
O342 O 0.8153 0.22887 0.28779 0.0
O343 O 0.82527 0.1466 0.32681 0.0
O344 O 0.79878 0.19596 0.33416 0.0
C345 C 0.76898 0.11148 0.28663 0.0
O346 O 0.83983 0.16439 0.28747 0.0
O347 O 0.82799 0.11469 0.3009 0.0
C348 C 0.82556 0.2456 0.29947 0.0
O349 O 0.78615 0.13507 0.27992 0.0
O350 O 0.76668 0.11124 0.30092 0.0
C351 C 0.74049 0.15912 0.32659 0.0
Fe352 Fe 0.52945 0.27309 0.56655 0.0
Fe353 Fe 0.55102 0.35496 0.56387 0.0
O354 O 0.54543 0.31023 0.55554 0.0
Fe355 Fe 0.55536 0.30291 0.53605 0.0
O356 O 0.52522 0.26815 0.53232 0.0
O357 O 0.49709 0.26568 0.55321 0.0
O358 O 0.50295 0.30249 0.57768 0.0
C359 C 0.49293 0.33505 0.57514 0.0
C360 C 0.57746 0.23922 0.54926 0.0
O361 O 0.50967 0.35876 0.56836 0.0
C362 C 0.6037 0.35156 0.54613 0.0
O363 O 0.56043 0.27655 0.58083 0.0
O364 O 0.56049 0.33755 0.58287 0.0
O365 O 0.58352 0.2671 0.541 0.0
O366 O 0.55302 0.23754 0.55733 0.0
C367 C 0.52735 0.37125 0.53479 0.0
O368 O 0.59298 0.35554 0.5595 0.0
O369 O 0.58752 0.33617 0.53588 0.0
C370 C 0.56849 0.30582 0.58777 0.0
O371 O 0.54232 0.38026 0.54659 0.0
O372 O 0.52779 0.33834 0.52971 0.0
C373 C 0.50018 0.25971 0.53909 0.0
Fe374 Fe 0.71045 0.93613 0.53308 0.0
Fe375 Fe 0.73212 0.9582 0.5652 0.0
O376 O 0.71781 0.9238 0.55243 0.0
Fe377 Fe 0.71133 0.87728 0.5586 0.0
O378 O 0.72489 0.85723 0.54074 0.0
O379 O 0.74066 0.90442 0.52644 0.0
O380 O 0.73888 0.97392 0.53212 0.0
C381 C 0.7637 0.97931 0.53948 0.0
C382 C 0.66292 0.88233 0.53843 0.0
O383 O 0.76605 0.96831 0.55307 0.0
C384 C 0.69007 0.92079 0.58378 0.0
O385 O 0.68003 0.9684 0.5388 0.0
O386 O 0.70876 -0.00474 0.55665 0.0
O387 O 0.67054 0.87713 0.55219 0.0
O388 O 0.68046 0.90103 0.52979 0.0
C389 C 0.76696 0.89423 0.5733 0.0
O390 O 0.69979 0.95133 0.57841 0.0
O391 O 0.69733 0.89 0.57766 0.0
C392 C 0.68467 -0.00559 0.54824 0.0
O393 O 0.75764 0.92696 0.57599 0.0
O394 O 0.75126 0.87235 0.56512 0.0
C395 C 0.74186 0.87044 0.53021 0.0
Fe396 Fe 0.54351 0.87726 0.70502 0.0
Fe397 Fe 0.5495 0.92922 0.73259 0.0
O398 O 0.54011 0.92218 0.71318 0.0
Fe399 Fe 0.52693 0.95989 0.7019 0.0
O400 O 0.49007 0.93692 0.69829 0.0
O401 O 0.51086 0.88346 0.69156 0.0
O402 O 0.5152 0.85849 0.71821 0.0
C403 C 0.51866 0.85915 0.73245 0.0
C404 C 0.56695 0.91949 0.68187 0.0
O405 O 0.53635 0.88297 0.73869 0.0
C406 C 0.5729 -0.00601 0.71795 0.0
O407 O 0.57622 0.86222 0.71731 0.0
O408 O 0.58935 0.91274 0.72983 0.0
O409 O 0.54462 0.94232 0.68404 0.0
O410 O 0.57208 0.89355 0.69127 0.0
C411 C 0.49774 0.97347 0.73063 0.0
O412 O 0.56413 0.97691 0.72983 0.0
O413 O 0.56286 0.98486 0.70499 0.0
C414 C 0.5953 0.87977 0.72574 0.0
O415 O 0.51042 0.94569 0.73687 0.0
O416 O 0.50708 0.98472 0.71769 0.0
C417 C 0.48734 0.90485 0.69262 0.0
Fe418 Fe 0.70212 0.30218 0.73833 0.0
Fe419 Fe 0.72864 0.27326 0.70786 0.0
O420 O 0.71201 0.30997 0.71886 0.0
Fe421 Fe 0.70557 0.35456 0.71057 0.0
O422 O 0.71431 0.3798 0.72788 0.0
O423 O 0.72939 0.33792 0.74475 0.0
O424 O 0.73258 0.26754 0.74196 0.0
C425 C 0.75794 0.26009 0.73525 0.0
C426 C 0.65325 0.35041 0.7285 0.0
O427 O 0.7611 0.26679 0.7212 0.0
C428 C 0.6888 0.30495 0.68668 0.0
O429 O 0.67417 0.26629 0.73312 0.0
O430 O 0.70567 0.23722 0.71712 0.0
O431 O 0.66369 0.35431 0.71509 0.0
O432 O 0.66973 0.33517 0.73867 0.0
C433 C 0.76383 0.3361 0.69904 0.0
O434 O 0.69764 0.27592 0.69359 0.0
O435 O 0.69598 0.33695 0.69161 0.0
C436 C 0.68054 0.23882 0.72468 0.0
O437 O 0.75458 0.30317 0.69668 0.0
O438 O 0.74672 0.35934 0.70588 0.0
C439 C 0.72953 0.37085 0.73962 0.0
Fe440 Fe 0.45826 0.67858 0.48506 0.0
Fe441 Fe 0.45666 0.62581 0.4575 0.0
O442 O 0.46474 0.67061 0.46526 0.0
Fe443 Fe 0.47979 0.70719 0.45361 0.0
O444 O 0.51387 0.71462 0.46594 0.0
O445 O 0.48813 0.71405 0.48745 0.0
O446 O 0.48734 0.64373 0.49023 0.0
C447 C 0.48704 0.61072 0.48519 0.0
C448 C 0.43374 0.74128 0.47222 0.0
O449 O 0.46918 0.60113 0.47444 0.0
C450 C 0.43693 0.67479 0.43382 0.0
O451 O 0.4269 0.64479 0.48707 0.0
O452 O 0.4158 0.62613 0.46397 0.0
O453 O 0.45711 0.74295 0.46335 0.0
O454 O 0.42905 0.71377 0.48093 0.0
C455 C 0.51323 0.64364 0.44365 0.0
O456 O 0.4433 0.64288 0.43906 0.0
O457 O 0.44749 0.70393 0.44004 0.0
C458 C 0.40836 0.6294 0.47787 0.0
O459 O 0.49649 0.62067 0.45083 0.0
O460 O 0.5049 0.67721 0.44199 0.0
C461 C 0.51255 0.7213 0.48005 0.0
Fe462 Fe 0.27746 0.02205 0.45685 0.0
Fe463 Fe 0.30039 0.04682 0.48858 0.0
O464 O 0.29367 0.05688 0.46896 0.0
Fe465 Fe 0.30272 0.10199 0.46178 0.0
O466 O 0.26281 0.10927 0.45562 0.0
O467 O 0.25338 0.05419 0.44563 0.0
O468 O 0.24321 0.01516 0.46911 0.0
C469 C 0.2444 0.00746 0.48314 0.0
C470 C 0.32068 0.05439 0.43735 0.0
O471 O 0.26914 0.01274 0.4906 0.0
C472 C 0.35146 0.09496 0.48165 0.0
O473 O 0.29874 0.98434 0.46607 0.0
O474 O 0.32831 0.01062 0.48375 0.0
O475 O 0.3148 0.08612 0.4429 0.0
O476 O 0.31002 0.02511 0.44343 0.0
C477 C 0.27361 0.11572 0.48984 0.0
O478 O 0.33302 0.07902 0.49079 0.0
O479 O 0.3437 0.09941 0.46785 0.0
C480 C 0.32234 0.98396 0.47479 0.0
O481 O 0.27262 0.08242 0.49449 0.0
O482 O 0.29161 0.1256 0.47919 0.0
C483 C 0.24562 0.08771 0.44801 0.0
Fe484 Fe 0.4825 0.01641 0.31883 0.0
Fe485 Fe 0.4609 0.04732 0.28801 0.0
O486 O 0.46947 0.05422 0.30753 0.0
Fe487 Fe 0.46551 0.09891 0.31579 0.0
O488 O 0.49828 0.09287 0.32928 0.0
O489 O 0.51922 0.03937 0.32263 0.0
O490 O 0.50265 -0.00832 0.30309 0.0
C491 C 0.51257 0.00331 0.29031 0.0
C492 C 0.44203 0.05616 0.33879 0.0
O493 O 0.50024 0.03135 0.28413 0.0
C494 C 0.41426 0.09608 0.29458 0.0
O495 O 0.44664 -0.00835 0.31549 0.0
O496 O 0.44637 -0.0005 0.29062 0.0
O497 O 0.43691 0.08206 0.32938 0.0
O498 O 0.46457 0.03363 0.33669 0.0
C499 C 0.49094 0.11779 0.28854 0.0
O500 O 0.42094 0.06346 0.29029 0.0
O501 O 0.43258 0.1136 0.30345 0.0
C502 C 0.43695 0.98264 0.30245 0.0
O503 O 0.47388 0.0937 0.28209 0.0
O504 O 0.49381 0.11839 0.3028 0.0
C505 C 0.52186 0.07146 0.3283 0.0
Fe506 Fe 0.27755 0.70768 0.31351 0.0
Fe507 Fe 0.30332 0.67701 0.2832 0.0
O508 O 0.29348 0.67019 0.30273 0.0
Fe509 Fe 0.29925 0.6258 0.31128 0.0
O510 O 0.25806 0.62209 0.31607 0.0
O511 O 0.25124 0.67879 0.32493 0.0
O512 O 0.2451 0.71436 0.30018 0.0
C513 C 0.24827 0.72047 0.28607 0.0
C514 C 0.31683 0.67584 0.33489 0.0
O515 O 0.27351 0.71231 0.2794 0.0
C516 C 0.35157 0.62837 0.29328 0.0
O517 O 0.30107 0.74276 0.30398 0.0
O518 O 0.33197 0.71228 0.28813 0.0
O519 O 0.30919 0.64385 0.33014 0.0
O520 O 0.30859 0.70483 0.32777 0.0
C521 C 0.2747 0.60911 0.2824 0.0
O522 O 0.3351 0.64321 0.283 0.0
O523 O 0.34113 0.62505 0.30672 0.0
C524 C 0.32616 0.74017 0.29643 0.0
O525 O 0.27534 0.64184 0.27708 0.0
O526 O 0.29001 0.6002 0.29412 0.0
C527 C 0.24146 0.64596 0.32284 0.0
Fe528 Fe 0.52643 0.77681 0.06639 0.0
Fe529 Fe 0.55055 0.85725 0.06246 0.0
O530 O 0.54326 0.81221 0.05483 0.0
Fe531 Fe 0.55238 0.80279 0.03542 0.0
O532 O 0.52142 0.76858 0.03246 0.0
O533 O 0.49343 0.77018 0.05338 0.0
O534 O 0.50125 0.80826 0.07737 0.0
C535 C 0.49242 0.8412 0.07458 0.0
C536 C 0.57315 0.73963 0.04938 0.0
O537 O 0.50961 0.86338 0.06724 0.0
C538 C 0.60234 0.85032 0.04437 0.0
O539 O 0.558 0.77992 0.08035 0.0
O540 O 0.56006 0.84104 0.08161 0.0
O541 O 0.57995 0.7667 0.0408 0.0
O542 O 0.54857 0.73954 0.05741 0.0
C543 C 0.52548 0.87153 0.0336 0.0
O544 O 0.59231 0.85537 0.05779 0.0
O545 O 0.58521 0.83512 0.03444 0.0
C546 C 0.5671 0.80935 0.08688 0.0
O547 O 0.54191 0.88123 0.04483 0.0
O548 O 0.52522 0.83834 0.02885 0.0
C549 C 0.49605 0.76258 0.03937 0.0
Fe550 Fe 0.70883 0.4317 0.03417 0.0
Fe551 Fe 0.72777 0.4643 0.06511 0.0
O552 O 0.7167 0.42566 0.05382 0.0
Fe553 Fe 0.71403 0.38099 0.06222 0.0
O554 O 0.74372 0.36292 0.04964 0.0
O555 O 0.72373 0.38585 0.02861 0.0
O556 O 0.74773 0.44958 0.03068 0.0
C557 C 0.75886 0.47825 0.0369 0.0
C558 C 0.66358 0.3809 0.04059 0.0
O559 O 0.74787 0.48972 0.0495 0.0
C560 C 0.68795 0.42262 0.08481 0.0
O561 O 0.69242 0.47883 0.03641 0.0
O562 O 0.69118 0.48698 0.06125 0.0
O563 O 0.68225 0.36441 0.04961 0.0
O564 O 0.66939 0.41358 0.03605 0.0
C565 C 0.76855 0.41158 0.07538 0.0
O566 O 0.7095 0.44655 0.08282 0.0
O567 O 0.68421 0.3964 0.07542 0.0
C568 C 0.68154 0.49498 0.0481 0.0
O569 O 0.76515 0.44332 0.06947 0.0
O570 O 0.74573 0.38902 0.07609 0.0
C571 C 0.74136 0.3628 0.03536 0.0
Fe572 Fe 0.52862 0.45914 0.20398 0.0
Fe573 Fe 0.54355 0.37589 0.20627 0.0
O574 O 0.54143 0.42051 0.2148 0.0
Fe575 Fe 0.55199 0.42662 0.23413 0.0
O576 O 0.51339 0.44369 0.23906 0.0
O577 O 0.51031 0.48383 0.22027 0.0
O578 O 0.49113 0.43778 0.20069 0.0
C579 C 0.4871 0.40612 0.19481 0.0
C580 C 0.57628 0.49068 0.2196 0.0
O581 O 0.50971 0.38336 0.19354 0.0
C582 C 0.59712 0.37722 0.22599 0.0
O583 O 0.54471 0.44205 0.18573 0.0
O584 O 0.57122 0.39189 0.19208 0.0
O585 O 0.56716 0.47402 0.23152 0.0
O586 O 0.56538 0.48233 0.20675 0.0
C587 C 0.52048 0.3571 0.234 0.0
O588 O 0.57736 0.36 0.21778 0.0
O589 O 0.59129 0.40973 0.23067 0.0
C590 C 0.56626 0.41857 0.18304 0.0
O591 O 0.51606 0.3571 0.21983 0.0
O592 O 0.5388 0.38039 0.24012 0.0
C593 C 0.50126 0.47235 0.23324 0.0
Fe594 Fe 0.70508 0.8001 0.23526 0.0
Fe595 Fe 0.72837 0.76696 0.20521 0.0
O596 O 0.71611 0.80589 0.21599 0.0
Fe597 Fe 0.71482 0.85047 0.20745 0.0
O598 O 0.74256 0.86856 0.22103 0.0
O599 O 0.719 0.84602 0.24126 0.0
O600 O 0.74326 0.78223 0.24029 0.0
C601 C 0.75508 0.75336 0.23452 0.0
C602 C 0.66102 0.85057 0.22701 0.0
O603 O 0.74594 0.74183 0.22158 0.0
C604 C 0.69144 0.80817 0.1843 0.0
O605 O 0.68908 0.75308 0.23261 0.0
O606 O 0.6911 0.74487 0.20784 0.0
O607 O 0.68126 0.86734 0.21891 0.0
O608 O 0.66615 0.81787 0.23164 0.0
C609 C 0.77083 0.81877 0.19602 0.0
O610 O 0.71289 0.78451 0.1869 0.0
O611 O 0.68689 0.83492 0.19334 0.0
C612 C 0.67941 0.7373 0.22061 0.0
O613 O 0.7663 0.78733 0.20201 0.0
O614 O 0.74859 0.84207 0.19473 0.0
C615 C 0.73784 0.86882 0.23518 0.0
Fe616 Fe 0.45792 0.18133 0.98486 0.0
Fe617 Fe 0.45856 0.12712 0.95772 0.0
O618 O 0.46619 0.17217 0.96532 0.0
Fe619 Fe 0.48247 0.20772 0.95359 0.0
O620 O 0.51593 0.21495 0.96629 0.0
O621 O 0.48907 0.21547 0.98759 0.0
O622 O 0.48535 0.14571 0.99108 0.0
C623 C 0.48491 0.11257 0.98629 0.0
C624 C 0.43657 0.24476 0.97126 0.0
O625 O 0.46802 0.10298 0.9752 0.0
C626 C 0.44116 0.17497 0.93341 0.0
O627 O 0.42502 0.14891 0.98613 0.0
O628 O 0.41703 0.12881 0.96283 0.0
O629 O 0.46042 0.24481 0.96272 0.0
O630 O 0.43023 0.21761 0.97989 0.0
C631 C 0.51626 0.1433 0.94511 0.0
O632 O 0.4482 0.1433 0.93867 0.0
O633 O 0.45049 0.20438 0.93986 0.0
C634 C 0.40763 0.13328 0.97639 0.0
O635 O 0.49922 0.12108 0.95251 0.0
O636 O 0.50751 0.17637 0.94248 0.0
C637 C 0.51391 0.22227 0.98034 0.0
Fe638 Fe 0.27705 0.51801 0.95765 0.0
Fe639 Fe 0.29721 0.5455 0.98944 0.0
O640 O 0.29005 0.55471 0.96978 0.0
Fe641 Fe 0.29561 0.60059 0.96261 0.0
O642 O 0.25571 0.6032 0.95588 0.0
O643 O 0.25072 0.54691 0.94623 0.0
O644 O 0.24323 0.50745 0.96982 0.0
C645 C 0.24486 0.50007 0.98386 0.0
C646 C 0.31816 0.55503 0.93834 0.0
O647 O 0.26923 0.50759 0.99128 0.0
C648 C 0.34401 0.59946 0.98293 0.0
O649 O 0.30129 0.48319 0.96705 0.0
O650 O 0.32831 0.51322 0.98471 0.0
O651 O 0.30999 0.58605 0.94392 0.0
O652 O 0.30941 0.52471 0.94431 0.0
C653 C 0.26473 0.61071 0.99073 0.0
O654 O 0.32663 0.58161 0.99194 0.0
O655 O 0.33635 0.60292 0.96909 0.0
C656 C 0.3249 0.48613 0.97568 0.0
O657 O 0.26641 0.57734 0.99524 0.0
O658 O 0.28151 0.62274 0.97992 0.0
C659 C 0.24073 0.57974 0.9481 0.0
Fe660 Fe 0.47772 0.51967 0.81861 0.0
Fe661 Fe 0.45427 0.5522 0.7885 0.0
O662 O 0.46471 0.55831 0.80784 0.0
Fe663 Fe 0.46214 0.60285 0.81642 0.0
O664 O 0.49633 0.59577 0.82904 0.0
O665 O 0.51501 0.54129 0.82194 0.0
O666 O 0.49621 0.49532 0.80228 0.0
C667 C 0.50529 0.50702 0.78935 0.0
C668 C 0.43997 0.55967 0.83972 0.0
O669 O 0.49308 0.53573 0.78359 0.0
C670 C 0.40854 0.60074 0.79666 0.0
O671 O 0.44109 0.49613 0.81579 0.0
O672 O 0.43964 0.50456 0.79103 0.0
O673 O 0.43471 0.58626 0.83067 0.0
O674 O 0.46165 0.53644 0.83693 0.0
C675 C 0.48488 0.62231 0.78867 0.0
O676 O 0.4148 0.56835 0.79199 0.0
O677 O 0.42802 0.61827 0.80495 0.0
C678 C 0.4306 0.48755 0.80287 0.0
O679 O 0.46691 0.59868 0.78254 0.0
O680 O 0.48929 0.62234 0.80284 0.0
C681 C 0.51898 0.57297 0.82778 0.0
Fe682 Fe 0.28069 0.2111 0.81481 0.0
Fe683 Fe 0.30364 0.17769 0.78473 0.0
O684 O 0.29275 0.17207 0.80404 0.0
Fe685 Fe 0.29389 0.12757 0.81263 0.0
O686 O 0.26029 0.13633 0.82541 0.0
O687 O 0.24264 0.19096 0.818 0.0
O688 O 0.26323 0.23641 0.79845 0.0
C689 C 0.25392 0.22495 0.78553 0.0
C690 C 0.3176 0.16982 0.83571 0.0
O691 O 0.26554 0.19596 0.77975 0.0
C692 C 0.34752 0.12681 0.79293 0.0
O693 O 0.31808 0.23284 0.81216 0.0
O694 O 0.32004 0.22455 0.78737 0.0
O695 O 0.32205 0.14304 0.82666 0.0
O696 O 0.29612 0.19347 0.83313 0.0
C697 C 0.27038 0.10932 0.78499 0.0
O698 O 0.3425 0.1595 0.78826 0.0
O699 O 0.32727 0.11028 0.80112 0.0
C700 C 0.32995 0.24006 0.79939 0.0
O701 O 0.28932 0.13186 0.77881 0.0
O702 O 0.26592 0.10966 0.79915 0.0
C703 C 0.238 0.15952 0.82397 0.0
H704 H 0.08688 0.18562 0.07542 0.0
H705 H 0.16824 0.03535 0.02268 0.0
H706 H 0.08844 0.19812 0.02644 0.0
H707 H 0.13738 0.0149 0.06878 0.0
H708 H 0.13969 0.09478 0.02294 0.0
H709 H 0.10872 0.12375 0.07272 0.0
C710 C 0.09198 0.17543 0.06407 0.0
C711 C 0.08564 0.19697 0.05112 0.0
C712 C 0.13882 0.07688 0.03287 0.0
C713 C 0.11048 0.12579 0.04796 0.0
C714 C 0.15488 0.043 0.0327 0.0
C715 C 0.15555 0.02082 0.04585 0.0
C716 C 0.12367 0.08819 0.04629 0.0
C717 C 0.13795 0.03172 0.05853 0.0
C718 C 0.10421 0.1399 0.06253 0.0
C719 C 0.09293 0.18232 0.03671 0.0
N720 N 0.12304 0.06491 0.0585 0.0
N721 N 0.10505 0.14743 0.0355 0.0
H722 H 0.15772 0.20038 0.24998 0.0
H723 H 0.08465 0.03947 0.19859 0.0
H724 H 0.16832 0.19265 0.2012 0.0
H725 H 0.0994 0.02452 0.24684 0.0
H726 H 0.11032 0.09969 0.19999 0.0
H727 H 0.12995 0.1401 0.24976 0.0
C728 C 0.15369 0.18626 0.23925 0.0
C729 C 0.16522 0.20106 0.22559 0.0
C730 C 0.10822 0.08325 0.21029 0.0
C731 C 0.13425 0.13302 0.22526 0.0
C732 C 0.09363 0.04888 0.20948 0.0
C733 C 0.09004 0.02725 0.22262 0.0
C734 C 0.11909 0.09631 0.22437 0.0
C735 C 0.10208 0.04047 0.23645 0.0
C736 C 0.13829 0.15187 0.23915 0.0
C737 C 0.1599 0.18186 0.21198 0.0
N738 N 0.11597 0.07457 0.23702 0.0
N739 N 0.14482 0.1488 0.21217 0.0
H740 H 0.91869 0.77896 0.99444 0.0
H741 H 0.86493 0.95767 0.94751 0.0
H742 H 0.91178 0.78458 0.94536 0.0
H743 H 0.84339 0.94446 0.99529 0.0
H744 H 0.89122 0.89763 0.94778 0.0
H745 H 0.89678 0.84198 0.99598 0.0
C746 C 0.91225 0.79323 0.98402 0.0
C747 C 0.91731 0.77673 0.96974 0.0
C748 C 0.88087 0.9079 0.95824 0.0
C749 C 0.89308 0.84846 0.97145 0.0
C750 C 0.86604 0.94223 0.95811 0.0
C751 C 0.8515 0.95552 0.97132 0.0
C752 C 0.88105 0.88674 0.97166 0.0
C753 C 0.85414 0.93488 0.98483 0.0
C754 C 0.9 0.82916 0.98493 0.0
C755 C 0.90858 0.79634 0.95661 0.0
N756 N 0.86835 0.90104 0.98463 0.0
N757 N 0.89711 0.83131 0.95779 0.0
H758 H 0.90477 0.95499 0.77452 0.0
H759 H 0.84453 0.7798 0.8215 0.0
H760 H 0.92771 0.93446 0.82167 0.0
H761 H 0.84843 0.77883 0.77242 0.0
H762 H 0.87221 0.83904 0.82167 0.0
H763 H 0.87947 0.89344 0.77338 0.0
C764 C 0.9041 0.93773 0.78464 0.0
C765 C 0.91824 0.94956 0.79821 0.0
C766 C 0.86741 0.82578 0.81083 0.0
C767 C 0.89003 0.8798 0.79694 0.0
C768 C 0.85174 0.792 0.81076 0.0
C769 C 0.84446 0.77474 0.79694 0.0
C770 C 0.87534 0.84273 0.79696 0.0
C771 C 0.85406 0.7914 0.78329 0.0
C772 C 0.89009 0.90259 0.78393 0.0
C773 C 0.91717 0.9262 0.81097 0.0
N774 N 0.86878 0.82499 0.78361 0.0
N775 N 0.90329 0.89245 0.81003 0.0
H776 H 0.07987 0.69039 0.52385 0.0
H777 H 0.1689 0.53467 0.5721 0.0
H778 H 0.11122 0.70269 0.57034 0.0
H779 H 0.14969 0.52108 0.52418 0.0
H780 H 0.14327 0.5949 0.57157 0.0
H781 H 0.10371 0.62814 0.52317 0.0
C782 C 0.09224 0.68026 0.5338 0.0
C783 C 0.09343 0.70139 0.54723 0.0
C784 C 0.14444 0.57889 0.56113 0.0
C785 C 0.11991 0.63064 0.54661 0.0
C786 C 0.15889 0.54442 0.56147 0.0
C787 C 0.16155 0.5234 0.54813 0.0
C788 C 0.13279 0.59265 0.54729 0.0
C789 C 0.14796 0.53676 0.53468 0.0
C790 C 0.10551 0.6447 0.53344 0.0
C791 C 0.10949 0.68708 0.55982 0.0
N792 N 0.13434 0.57103 0.53454 0.0
N793 N 0.1219 0.65249 0.55922 0.0
H794 H 0.14453 0.70217 0.69982 0.0
H795 H 0.10842 0.51642 0.747 0.0
H796 H 0.1758 0.68705 0.74617 0.0
H797 H 0.08303 0.53593 0.70009 0.0
H798 H 0.13386 0.57804 0.74757 0.0
H799 H 0.11986 0.64141 0.70067 0.0
C800 C 0.14589 0.68608 0.71025 0.0
C801 C 0.16235 0.69936 0.72289 0.0
C802 C 0.12285 0.56856 0.73716 0.0
C803 C 0.13464 0.62937 0.72392 0.0
C804 C 0.10869 0.53343 0.7368 0.0
C805 C 0.09347 0.52157 0.72353 0.0
C806 C 0.12166 0.59135 0.72414 0.0
C807 C 0.09417 0.54441 0.71061 0.0
C808 C 0.13196 0.65127 0.71073 0.0
C809 C 0.1632 0.67765 0.73619 0.0
N810 N 0.10785 0.57824 0.71128 0.0
N811 N 0.14973 0.64334 0.73633 0.0
H812 H 0.83506 0.44763 0.49705 0.0
H813 H 0.90222 0.28077 0.44711 0.0
H814 H 0.85491 0.45367 0.44885 0.0
H815 H 0.9136 0.283 0.49601 0.0
H816 H 0.87699 0.3413 0.44828 0.0
H817 H 0.85926 0.3855 0.4977 0.0
C818 C 0.84492 0.43617 0.48669 0.0
C819 C 0.84266 0.45548 0.47283 0.0
C820 C 0.88494 0.32857 0.45878 0.0
C821 C 0.86946 0.38486 0.47345 0.0
C822 C 0.89916 0.29389 0.45813 0.0
C823 C 0.91046 0.27718 0.47146 0.0
C824 C 0.88193 0.34671 0.47285 0.0
C825 C 0.90538 0.29515 0.48545 0.0
C826 C 0.85846 0.40073 0.48705 0.0
C827 C 0.85571 0.43948 0.45973 0.0
N828 N 0.89165 0.3293 0.48579 0.0
N829 N 0.86827 0.40496 0.46035 0.0
H830 H 0.91623 0.44908 0.32212 0.0
H831 H 0.83173 0.28961 0.27406 0.0
H832 H 0.90133 0.45893 0.2737 0.0
H833 H 0.85907 0.28083 0.32129 0.0
H834 H 0.85478 0.35221 0.27319 0.0
H835 H 0.89003 0.38918 0.3219 0.0
C836 C 0.90702 0.43859 0.31145 0.0
C837 C 0.91107 0.45842 0.29788 0.0
C838 C 0.85583 0.33636 0.28368 0.0
C839 C 0.88175 0.38953 0.29741 0.0
C840 C 0.84299 0.30061 0.28415 0.0
C841 C 0.84334 0.28028 0.29781 0.0
C842 C 0.86895 0.35148 0.29696 0.0
C843 C 0.858 0.29574 0.31057 0.0
C844 C 0.89225 0.40431 0.31128 0.0
C845 C 0.89851 0.44416 0.28436 0.0
N846 N 0.87004 0.33049 0.30984 0.0
N847 N 0.88461 0.41005 0.28441 0.0
H848 H 0.60733 0.20865 0.52454 0.0
H849 H 0.66704 0.0342 0.57263 0.0
H850 H 0.59035 0.19344 0.57259 0.0
H851 H 0.65943 0.0306 0.52366 0.0
H852 H 0.64257 0.09542 0.57262 0.0
H853 H 0.63218 0.14668 0.52373 0.0
C854 C 0.60941 0.19252 0.53492 0.0
C855 C 0.59689 0.20576 0.54864 0.0
C856 C 0.64587 0.08119 0.56186 0.0
C857 C 0.62444 0.13565 0.54779 0.0
C858 C 0.65966 0.04625 0.56189 0.0
C859 C 0.66497 0.02762 0.54814 0.0
C860 C 0.63775 0.09784 0.54795 0.0
C861 C 0.65526 0.04418 0.53449 0.0
C862 C 0.62311 0.15716 0.53443 0.0
C863 C 0.59963 0.18393 0.56178 0.0
N864 N 0.64231 0.07881 0.5347 0.0
N865 N 0.61308 0.14991 0.56102 0.0
H866 H 0.60093 0.03319 0.69525 0.0
H867 H 0.64471 0.2081 0.74754 0.0
H868 H 0.58308 0.03553 0.74369 0.0
H869 H 0.67072 0.19531 0.70033 0.0
H870 H 0.6175 0.14764 0.74631 0.0
H871 H 0.62386 0.09488 0.69699 0.0
C872 C 0.60208 0.04661 0.70629 0.0
C873 C 0.59008 0.02927 0.71934 0.0
C874 C 0.62902 0.15834 0.73623 0.0
C875 C 0.61607 0.1002 0.72142 0.0
C876 C 0.64421 0.19282 0.73691 0.0
C877 C 0.66012 0.20617 0.72407 0.0
C878 C 0.62974 0.13777 0.7226 0.0
C879 C 0.65906 0.18557 0.71054 0.0
C880 C 0.61507 0.08194 0.70728 0.0
C881 C 0.59224 0.04791 0.73336 0.0
N882 N 0.64428 0.15233 0.71019 0.0
N883 N 0.6049 0.0826 0.73403 0.0
H884 H 0.41502 0.78316 0.44864 0.0
H885 H 0.35308 0.952 0.49906 0.0
H886 H 0.40849 0.77459 0.49754 0.0
H887 H 0.33295 0.93794 0.45123 0.0
H888 H 0.37867 0.89038 0.49911 0.0
H889 H 0.38863 0.84311 0.4497 0.0
C890 C 0.40759 0.79389 0.4596 0.0
C891 C 0.41374 0.77422 0.47302 0.0
C892 C 0.36861 0.901 0.48866 0.0
C893 C 0.38412 0.84299 0.47441 0.0
C894 C 0.35443 0.93614 0.48858 0.0
C895 C 0.34095 0.94973 0.47513 0.0
C896 C 0.36951 0.88008 0.47514 0.0
C897 C 0.34291 0.92823 0.46186 0.0
C898 C 0.39262 0.82808 0.46023 0.0
C899 C 0.40377 0.78905 0.48697 0.0
N900 N 0.35692 0.8945 0.46221 0.0
N901 N 0.38964 0.82303 0.48734 0.0
H902 H 0.36174 0.76983 0.27326 0.0
H903 H 0.40706 0.94508 0.32496 0.0
H904 H 0.33769 0.78317 0.32069 0.0
H905 H 0.42768 0.94035 0.27682 0.0
H906 H 0.38351 0.88382 0.32337 0.0
H907 H 0.38988 0.82972 0.27424 0.0
C908 C 0.3629 0.7851 0.28389 0.0
C909 C 0.34724 0.77215 0.29687 0.0
C910 C 0.39305 0.8961 0.3131 0.0
C911 C 0.3786 0.83987 0.29805 0.0
C912 C 0.4064 0.9312 0.31401 0.0
C913 C 0.41939 0.94771 0.30102 0.0
C914 C 0.39263 0.87724 0.29909 0.0
C915 C 0.41776 0.92855 0.28709 0.0
C916 C 0.37861 0.81925 0.28442 0.0
C917 C 0.34913 0.79266 0.31038 0.0
N918 N 0.4047 0.89408 0.2865 0.0
N919 N 0.36435 0.82559 0.31059 0.0
H920 H 0.57753 0.68876 0.07179 0.0
H921 H 0.67687 0.54193 0.02354 0.0
H922 H 0.60982 0.7121 0.02616 0.0
H923 H 0.64277 0.52424 0.06928 0.0
H924 H 0.65091 0.60298 0.02327 0.0
H925 H 0.60175 0.62788 0.07051 0.0
C926 C 0.58996 0.68102 0.06149 0.0
C927 C 0.59152 0.70521 0.04901 0.0
C928 C 0.64895 0.58551 0.03328 0.0
C929 C 0.61918 0.63523 0.04737 0.0
C930 C 0.66345 0.55063 0.03339 0.0
C931 C 0.66209 0.52836 0.04651 0.0
C932 C 0.63306 0.59773 0.04636 0.0
C933 C 0.64466 0.54082 0.05901 0.0
C934 C 0.60372 0.64617 0.06074 0.0
C935 C 0.60822 0.6941 0.03603 0.0
N936 N 0.631 0.57477 0.05864 0.0
N937 N 0.62133 0.65957 0.03549 0.0
H938 H 0.64652 0.70543 0.19772 0.0
H939 H 0.59219 0.52865 0.24558 0.0
H940 H 0.66688 0.69447 0.24572 0.0
H941 H 0.60048 0.53196 0.19651 0.0
H942 H 0.61456 0.59143 0.24679 0.0
H943 H 0.62114 0.64489 0.19822 0.0
C944 C 0.64534 0.69036 0.20841 0.0
C945 C 0.65926 0.70447 0.22163 0.0
C946 C 0.6116 0.57815 0.23581 0.0
C947 C 0.63075 0.63514 0.22223 0.0
C948 C 0.59909 0.54234 0.2351 0.0
C949 C 0.59417 0.52535 0.22091 0.0
C950 C 0.61893 0.59679 0.22224 0.0
C951 C 0.60349 0.5442 0.20769 0.0
C952 C 0.63105 0.65575 0.20867 0.0
C953 C 0.65658 0.68427 0.23525 0.0
N954 N 0.61518 0.57908 0.20868 0.0
N955 N 0.64286 0.65018 0.23518 0.0
H956 H 0.34989 0.45075 1.00052 0.0
H957 H 0.42754 0.29371 0.94851 0.0
H958 H 0.34742 0.44983 0.95141 0.0
H959 H 0.40595 0.27472 0.99591 0.0
H960 H 0.40406 0.35515 0.95024 0.0
H961 H 0.37789 0.39064 1.00002 0.0
C962 C 0.35594 0.43823 0.98968 0.0
C963 C 0.34653 0.45476 0.97598 0.0
C964 C 0.40421 0.33757 0.96027 0.0
C965 C 0.37763 0.38689 0.9753 0.0
C966 C 0.41752 0.30249 0.95927 0.0
C967 C 0.41855 0.27933 0.97209 0.0
C968 C 0.39196 0.34974 0.97422 0.0
C969 C 0.40524 0.29183 0.98576 0.0
C970 C 0.37144 0.40393 0.98939 0.0
C971 C 0.35429 0.43762 0.96219 0.0
N972 N 0.39257 0.32656 0.98652 0.0
N973 N 0.36933 0.40451 0.96221 0.0
H974 H 0.3658 0.2684 0.82195 0.0
H975 H 0.41278 0.45217 0.77661 0.0
H976 H 0.3407 0.28517 0.77478 0.0
H977 H 0.41085 0.44196 0.82568 0.0
H978 H 0.39209 0.38876 0.77459 0.0
H979 H 0.3916 0.32874 0.82203 0.0
C980 C 0.36609 0.28469 0.81155 0.0
C981 C 0.35066 0.27235 0.79843 0.0
C982 C 0.39612 0.40064 0.78576 0.0
C983 C 0.37954 0.34144 0.79851 0.0
C984 C 0.40768 0.43681 0.78694 0.0
C985 C 0.41378 0.45216 0.80134 0.0
C986 C 0.39093 0.37994 0.79906 0.0
C987 C 0.40676 0.43113 0.81434 0.0
C988 C 0.38062 0.31917 0.81162 0.0
C989 C 0.35219 0.29402 0.78516 0.0
N990 N 0.39592 0.39596 0.81288 0.0
N991 N 0.36606 0.32801 0.78558 0.0
H992 H 0.96859 0.3963 0.08422 0.0
H993 H 0.78701 0.34265 0.08548 0.0
H994 H 0.93341 0.2835 0.08413 0.0
H995 H 0.82164 0.45411 0.07765 0.0
H996 H 0.84045 0.32214 0.09076 0.0
H997 H 0.915 0.41913 0.08761 0.0
C998 C 0.94971 0.37631 0.08524 0.0
C999 C 0.95544 0.33795 0.08371 0.0
C1000 C 0.83629 0.35119 0.08808 0.0
C1001 C 0.89414 0.36387 0.08745 0.0
C1002 C 0.80574 0.36297 0.08512 0.0
C1003 C 0.79983 0.40008 0.08093 0.0
C1004 C 0.86114 0.37667 0.08685 0.0
C1005 C 0.8251 0.42514 0.08067 0.0
C1006 C 0.9191 0.38936 0.08708 0.0
C1007 C 0.93004 0.31333 0.08506 0.0
N1008 N 0.85467 0.4129 0.08342 0.0
N1009 N 0.9005 0.32672 0.0867 0.0
H1010 H 0.44476 0.79803 0.0859 0.0
H1011 H 0.31875 0.96093 0.07662 0.0
H1012 H 0.46709 0.91135 0.07333 0.0
H1013 H 0.2939 0.84506 0.08219 0.0
H1014 H 0.37348 0.94483 0.08062 0.0
H1015 H 0.3902 0.81657 0.08964 0.0
C1016 C 0.43835 0.82695 0.08418 0.0
C1017 C 0.46055 0.85311 0.07915 0.0
C1018 C 0.35607 0.92294 0.08115 0.0
C1019 C 0.39807 0.87438 0.08333 0.0
C1020 C 0.32473 0.93211 0.07889 0.0
C1021 C 0.30166 0.90422 0.07888 0.0
C1022 C 0.3646 0.88554 0.08333 0.0
C1023 C 0.31088 0.86744 0.08204 0.0
C1024 C 0.40714 0.83744 0.08626 0.0
C1025 C 0.45079 0.89014 0.07708 0.0
N1026 N 0.34172 0.85908 0.08395 0.0
N1027 N 0.42027 0.89957 0.07906 0.0
H1028 H 0.82061 0.77185 0.19241 0.0
H1029 H 0.94377 0.93744 0.18346 0.0
H1030 H 0.79399 0.88747 0.18787 0.0
H1031 H 0.96818 0.82316 0.19344 0.0
H1032 H 0.88938 0.91822 0.17974 0.0
H1033 H 0.8748 0.78895 0.18749 0.0
C1034 C 0.82609 0.80084 0.1902 0.0
C1035 C 0.80274 0.82836 0.19077 0.0
C1036 C 0.90675 0.8973 0.18251 0.0
C1037 C 0.86503 0.8482 0.18526 0.0
C1038 C 0.93787 0.9082 0.18456 0.0
C1039 C 0.96055 0.88194 0.18896 0.0
C1040 C 0.89831 0.8599 0.18484 0.0
C1041 C 0.95147 0.84447 0.19023 0.0
C1042 C 0.85711 0.81059 0.18739 0.0
C1043 C 0.81126 0.86538 0.18763 0.0
N1044 N 0.92103 0.83467 0.18835 0.0
N1045 N 0.84182 0.87431 0.18521 0.0
H1046 H 0.28817 0.40291 0.19487 0.0
H1047 H 0.4651 0.33645 0.18733 0.0
H1048 H 0.31464 0.28807 0.18766 0.0
H1049 H 0.43617 0.45136 0.19153 0.0
H1050 H 0.41029 0.31865 0.1836 0.0
H1051 H 0.34195 0.42168 0.18981 0.0
C1052 C 0.30521 0.38166 0.192 0.0
C1053 C 0.29694 0.34381 0.19187 0.0
C1054 C 0.41603 0.34782 0.18509 0.0
C1055 C 0.35886 0.36509 0.18628 0.0
C1056 C 0.44733 0.35801 0.18717 0.0
C1057 C 0.4552 0.39539 0.18996 0.0
C1058 C 0.39252 0.37521 0.18585 0.0
C1059 C 0.43119 0.42213 0.18965 0.0
C1060 C 0.33598 0.39239 0.18911 0.0
C1061 C 0.32 0.31755 0.18795 0.0
N1062 N 0.40098 0.41146 0.18782 0.0
N1063 N 0.35004 0.32863 0.18555 0.0
H1064 H 0.0705 0.70026 0.93603 0.0
H1065 H 0.19414 0.53374 0.93767 0.0
H1066 H 0.04405 0.58419 0.93773 0.0
H1067 H 0.21663 0.64982 0.9447 0.0
H1068 H 0.14033 0.55166 0.93141 0.0
H1069 H 0.12487 0.6818 0.93258 0.0
C1070 C 0.07608 0.67083 0.93544 0.0
C1071 C 0.05277 0.6437 0.93743 0.0
C1072 C 0.15722 0.57319 0.93409 0.0
C1073 C 0.11518 0.62237 0.93369 0.0
C1074 C 0.18796 0.56304 0.93761 0.0
C1075 C 0.20982 0.59032 0.94191 0.0
C1076 C 0.14841 0.61087 0.9348 0.0
C1077 C 0.20048 0.62781 0.94165 0.0
C1078 C 0.10717 0.66031 0.93349 0.0
C1079 C 0.06133 0.606 0.93634 0.0
N1080 N 0.17044 0.63692 0.9383 0.0
N1081 N 0.09199 0.5964 0.93479 0.0
H1082 H 0.56442 0.18643 0.93425 0.0
H1083 H 0.68855 0.02142 0.94319 0.0
H1084 H 0.54071 0.07275 0.94561 0.0
H1085 H 0.71471 0.13701 0.93808 0.0
H1086 H 0.63408 0.03841 0.93898 0.0
H1087 H 0.61888 0.16729 0.93059 0.0
C1088 C 0.57051 0.15733 0.9357 0.0
C1089 C 0.54797 0.13122 0.94041 0.0
C1090 C 0.65172 0.06006 0.93861 0.0
C1091 C 0.61029 0.10927 0.93633 0.0
C1092 C 0.68291 0.05038 0.941 0.0
C1093 C 0.70625 0.07791 0.94118 0.0
C1094 C 0.64363 0.09762 0.93648 0.0
C1095 C 0.69748 0.1149 0.93811 0.0
C1096 C 0.60165 0.14648 0.93368 0.0
C1097 C 0.55729 0.09393 0.94213 0.0
N1098 N 0.66678 0.12376 0.93607 0.0
N1099 N 0.58775 0.08417 0.94023 0.0
H1100 H 0.21559 0.09121 0.83314 0.0
H1101 H 0.0385 0.15757 0.82536 0.0
H1102 H 0.18708 0.20535 0.82587 0.0
H1103 H 0.06484 0.04402 0.83551 0.0
H1104 H 0.09263 0.17669 0.82914 0.0
H1105 H 0.16077 0.07442 0.83757 0.0
C1106 C 0.19792 0.11285 0.83273 0.0
C1107 C 0.20594 0.14966 0.82895 0.0
C1108 C 0.08656 0.14765 0.83077 0.0
C1109 C 0.1432 0.1306 0.83386 0.0
C1110 C 0.05557 0.13672 0.82863 0.0
C1111 C 0.04713 0.09906 0.82996 0.0
C1112 C 0.10946 0.12071 0.83407 0.0
C1113 C 0.0703 0.07334 0.83431 0.0
C1114 C 0.16661 0.10323 0.83522 0.0
C1115 C 0.18202 0.17652 0.82857 0.0
N1116 N 0.10051 0.08455 0.83598 0.0
N1117 N 0.15178 0.16638 0.83082 0.0
H1118 H 0.56843 0.52668 0.83295 0.0
H1119 H 0.69351 0.69185 0.83466 0.0
H1120 H 0.54266 0.64307 0.83326 0.0
H1121 H 0.71558 0.57641 0.82571 0.0
H1122 H 0.63925 0.67397 0.83985 0.0
H1123 H 0.623 0.54426 0.83626 0.0
C1124 C 0.57419 0.55599 0.83393 0.0
C1125 C 0.55095 0.58349 0.83261 0.0
C1126 C 0.65611 0.65254 0.83697 0.0
C1127 C 0.61369 0.60383 0.83622 0.0
C1128 C 0.68713 0.66266 0.83407 0.0
C1129 C 0.70911 0.63561 0.8296 0.0
C1130 C 0.64706 0.61511 0.83546 0.0
C1131 C 0.69943 0.59827 0.82898 0.0
C1132 C 0.60543 0.566 0.83579 0.0
C1133 C 0.55983 0.62098 0.83416 0.0
N1134 N 0.66911 0.5892 0.83175 0.0
N1135 N 0.59062 0.63011 0.83567 0.0
H1136 H 0.81386 0.93756 0.5852 0.0
H1137 H 0.93765 0.77126 0.58093 0.0
H1138 H 0.79117 0.82361 0.57382 0.0
H1139 H 0.96403 0.88732 0.58307 0.0
H1140 H 0.88318 0.78901 0.58466 0.0
H1141 H 0.86775 0.91832 0.59048 0.0
C1142 C 0.82002 0.90838 0.58409 0.0
C1143 C 0.79803 0.88221 0.57889 0.0
C1144 C 0.90089 0.8106 0.58452 0.0
C1145 C 0.85961 0.86016 0.58488 0.0
C1146 C 0.93206 0.80049 0.58242 0.0
C1147 C 0.95541 0.82791 0.58144 0.0
C1148 C 0.89286 0.84844 0.58555 0.0
C1149 C 0.94676 0.86529 0.58366 0.0
C1150 C 0.85083 0.89749 0.58705 0.0
C1151 C 0.80738 0.84483 0.57765 0.0
N1152 N 0.91606 0.87454 0.58538 0.0
N1153 N 0.83751 0.83501 0.58049 0.0
H1154 H 0.31314 0.444 0.58329 0.0
H1155 H 0.44624 0.28737 0.58385 0.0
H1156 H 0.29477 0.32733 0.57508 0.0
H1157 H 0.46469 0.4039 0.57534 0.0
H1158 H 0.39071 0.30193 0.58691 0.0
H1159 H 0.36857 0.42944 0.58665 0.0
C1160 C 0.32062 0.41521 0.58246 0.0
C1161 C 0.29921 0.38685 0.5788 0.0
C1162 C 0.407 0.32434 0.58456 0.0
C1163 C 0.36274 0.37015 0.58262 0.0
C1164 C 0.43876 0.31614 0.5829 0.0
C1165 C 0.46021 0.34445 0.57924 0.0
C1166 C 0.3966 0.36116 0.58271 0.0
C1167 C 0.44901 0.38116 0.57808 0.0
C1168 C 0.35232 0.40701 0.5843 0.0
C1169 C 0.31041 0.35011 0.5778 0.0
N1170 N 0.41795 0.38843 0.57974 0.0
N1171 N 0.34144 0.34284 0.57963 0.0
H1172 H 0.94686 0.4394 0.68393 0.0
H1173 H 0.79017 0.40584 0.69866 0.0
H1174 H 0.95897 0.32652 0.70004 0.0
H1175 H 0.81139 0.2901 0.68989 0.0
H1176 H 0.84523 0.42108 0.69477 0.0
H1177 H 0.89096 0.42774 0.68103 0.0
C1178 C 0.93786 0.41202 0.68673 0.0
C1179 C 0.95768 0.38405 0.69246 0.0
C1180 C 0.83775 0.39251 0.69326 0.0
C1181 C 0.8934 0.3709 0.68955 0.0
C1182 C 0.80627 0.38374 0.69559 0.0
C1183 C 0.79607 0.34665 0.69458 0.0
C1184 C 0.85927 0.36391 0.69002 0.0
C1185 C 0.81812 0.31912 0.69071 0.0
C1186 C 0.90581 0.40556 0.68524 0.0
C1187 C 0.94459 0.34904 0.69575 0.0
N1188 N 0.84876 0.32823 0.68882 0.0
N1189 N 0.91323 0.34354 0.69433 0.0
H1190 H 0.4693 0.8333 0.68613 0.0
H1191 H 0.28752 0.88616 0.68527 0.0
H1192 H 0.43387 0.94588 0.6888 0.0
H1193 H 0.32264 0.7747 0.69269 0.0
H1194 H 0.34099 0.90735 0.68058 0.0
H1195 H 0.41577 0.81078 0.68255 0.0
C1196 C 0.45036 0.85337 0.68567 0.0
C1197 C 0.45604 0.89151 0.68793 0.0
C1198 C 0.33693 0.87816 0.68304 0.0
C1199 C 0.39479 0.86588 0.68395 0.0
C1200 C 0.30638 0.86599 0.68565 0.0
C1201 C 0.30059 0.82866 0.68955 0.0
C1202 C 0.36188 0.85284 0.68429 0.0
C1203 C 0.32601 0.80381 0.68987 0.0
C1204 C 0.4198 0.84046 0.68371 0.0
C1205 C 0.43056 0.9162 0.68726 0.0
N1206 N 0.35558 0.81642 0.68743 0.0
N1207 N 0.40103 0.90292 0.68547 0.0
H1208 H 0.2235 0.15936 0.448 0.0
H1209 H 0.04635 0.09581 0.43673 0.0
H1210 H 0.19659 0.04665 0.43677 0.0
H1211 H 0.07497 0.20884 0.44632 0.0
H1212 H 0.10132 0.07874 0.43313 0.0
H1213 H 0.16971 0.17944 0.44377 0.0
C1214 C 0.20639 0.13888 0.44442 0.0
C1215 C 0.21456 0.10116 0.44291 0.0
C1216 C 0.09552 0.10739 0.43581 0.0
C1217 C 0.15263 0.12394 0.43823 0.0
C1218 C 0.06411 0.11718 0.43783 0.0
C1219 C 0.05601 0.15374 0.442 0.0
C1220 C 0.11898 0.13431 0.43803 0.0
C1221 C 0.08007 0.18023 0.44327 0.0
C1222 C 0.1756 0.15038 0.44202 0.0
C1223 C 0.19136 0.07599 0.43814 0.0
N1224 N 0.11041 0.1699 0.44145 0.0
N1225 N 0.16135 0.08774 0.43618 0.0
H1226 H 0.71314 0.64161 0.43678 0.0
H1227 H 0.53633 0.57268 0.44139 0.0
H1228 H 0.6851 0.52653 0.44136 0.0
H1229 H 0.56216 0.6878 0.43443 0.0
H1230 H 0.59068 0.55462 0.43738 0.0
H1231 H 0.65842 0.65849 0.432 0.0
C1232 C 0.69561 0.61982 0.4365 0.0
C1233 C 0.70367 0.58268 0.43968 0.0
C1234 C 0.58446 0.58381 0.4365 0.0
C1235 C 0.64108 0.60178 0.43435 0.0
C1236 C 0.55334 0.59414 0.43877 0.0
C1237 C 0.54468 0.63186 0.43842 0.0
C1238 C 0.60727 0.6114 0.43407 0.0
C1239 C 0.56777 0.65839 0.43487 0.0
C1240 C 0.66436 0.62948 0.43381 0.0
C1241 C 0.67996 0.55561 0.43918 0.0
N1242 N 0.59811 0.64771 0.43308 0.0
N1243 N 0.64978 0.56575 0.43676 0.0
H1244 H 0.06264 0.53653 0.33314 0.0
H1245 H 0.19538 0.69333 0.33255 0.0
H1246 H 0.04401 0.65351 0.32577 0.0
H1247 H 0.21358 0.57696 0.32349 0.0
H1248 H 0.14024 0.6785 0.33666 0.0
H1249 H 0.11819 0.55095 0.33622 0.0
C1250 C 0.07009 0.56535 0.33247 0.0
C1251 C 0.04862 0.59386 0.32908 0.0
C1252 C 0.1564 0.65618 0.33396 0.0
C1253 C 0.11218 0.61038 0.33255 0.0
C1254 C 0.18794 0.66454 0.33168 0.0
C1255 C 0.20916 0.63636 0.32754 0.0
C1256 C 0.146 0.61936 0.33222 0.0
C1257 C 0.19804 0.5996 0.32656 0.0
C1258 C 0.10184 0.57347 0.33413 0.0
C1259 C 0.05973 0.63063 0.32827 0.0
N1260 N 0.16717 0.59219 0.32879 0.0
N1261 N 0.09078 0.63781 0.3299 0.0
H1262 H 0.72203 0.08859 0.33473 0.0
H1263 H 0.54037 0.14291 0.33491 0.0
H1264 H 0.68737 0.2011 0.32998 0.0
H1265 H 0.57508 0.03004 0.33218 0.0
H1266 H 0.59406 0.16488 0.33857 0.0
H1267 H 0.66847 0.06724 0.33927 0.0
C1268 C 0.70327 0.10892 0.33492 0.0
C1269 C 0.70921 0.14665 0.33181 0.0
C1270 C 0.58985 0.13526 0.33738 0.0
C1271 C 0.6478 0.12232 0.33686 0.0
C1272 C 0.55917 0.12267 0.33538 0.0
C1273 C 0.55322 0.0846 0.33308 0.0
C1274 C 0.61474 0.1096 0.33712 0.0
C1275 C 0.57857 0.05968 0.33374 0.0
C1276 C 0.67266 0.09667 0.33743 0.0
C1277 C 0.6839 0.17169 0.33217 0.0
N1278 N 0.60821 0.07264 0.33556 0.0
N1279 N 0.6543 0.15903 0.33449 0.0
H1280 H 0.06574 0.24912 0.11089 0.0
H1281 H 0.17825 0.35973 0.16781 0.0
H1282 H 0.10835 0.35531 0.10068 0.0
H1283 H 0.15985 0.2422 0.17347 0.0
H1284 H 0.14869 0.35908 0.1442 0.0
H1285 H 0.09621 0.24641 0.13462 0.0
C1286 C 0.08144 0.27185 0.11361 0.0
C1287 C 0.08432 0.30258 0.10374 0.0
C1288 C 0.1511 0.33333 0.15054 0.0
C1289 C 0.1191 0.29967 0.13093 0.0
C1290 C 0.16795 0.33367 0.16413 0.0
C1291 C 0.17166 0.30093 0.17274 0.0
C1292 C 0.13734 0.30011 0.14542 0.0
C1293 C 0.15773 0.26807 0.16721 0.0
C1294 C 0.09889 0.27019 0.12714 0.0
C1295 C 0.10523 0.33106 0.10786 0.0
N1296 N 0.14103 0.26853 0.15393 0.0
N1297 N 0.12156 0.32899 0.12112 0.0
H1298 H 0.09477 0.98639 0.16958 0.0
H1299 H 0.1509 0.86845 0.09694 0.0
H1300 H 0.08249 0.86756 0.16454 0.0
H1301 H 0.18555 0.97927 0.10597 0.0
H1302 H 0.12153 0.87053 0.1207 0.0
H1303 H 0.12431 0.98709 0.14548 0.0
C1304 C 0.09821 0.96051 0.16344 0.0
C1305 C 0.08606 0.92687 0.16917 0.0
C1306 C 0.13557 0.89444 0.11754 0.0
C1307 C 0.1196 0.92756 0.14157 0.0
C1308 C 0.15234 0.89332 0.1039 0.0
C1309 C 0.17095 0.92366 0.09941 0.0
C1310 C 0.137 0.92628 0.12684 0.0
C1311 C 0.1717 0.95512 0.10899 0.0
C1312 C 0.11513 0.96093 0.14971 0.0
C1313 C 0.09139 0.8942 0.1607 0.0
N1314 N 0.15494 0.95566 0.12223 0.0
N1315 N 0.10755 0.89543 0.14738 0.0
H1316 H 0.90191 0.61507 0.92043 0.0
H1317 H 0.84667 0.7335 0.84788 0.0
H1318 H 0.93903 0.72429 0.91044 0.0
H1319 H 0.83151 0.61517 0.85303 0.0
H1320 H 0.87703 0.73316 0.87165 0.0
H1321 H 0.8721 0.61725 0.89677 0.0
C1322 C 0.9038 0.63959 0.91328 0.0
C1323 C 0.92319 0.66949 0.91746 0.0
C1324 C 0.86707 0.70731 0.86753 0.0
C1325 C 0.88878 0.67221 0.89022 0.0
C1326 C 0.84967 0.70749 0.85398 0.0
C1327 C 0.83645 0.67432 0.84839 0.0
C1328 C 0.87096 0.67383 0.87565 0.0
C1329 C 0.84126 0.64144 0.8568 0.0
C1330 C 0.88679 0.64076 0.89972 0.0
C1331 C 0.92456 0.70049 0.90766 0.0
N1332 N 0.85792 0.6421 0.86998 0.0
N1333 N 0.90753 0.70111 0.89453 0.0
H1334 H 0.9134 -0.00507 0.85014 0.0
H1335 H 0.8552 0.1138 0.92199 0.0
H1336 H 0.92411 0.1142 0.85421 0.0
H1337 H 0.82195 0.00228 0.91311 0.0
H1338 H 0.88448 0.11209 0.89816 0.0
H1339 H 0.88345 -0.00517 0.87405 0.0
C1340 C 0.90951 0.02105 0.85603 0.0
C1341 C 0.92136 0.05462 0.8501 0.0
C1342 C 0.87074 0.08798 0.90138 0.0
C1343 C 0.88731 0.05462 0.8775 0.0
C1344 C 0.85403 0.08888 0.91504 0.0
C1345 C 0.83589 0.05818 0.91959 0.0
C1346 C 0.86972 0.056 0.89216 0.0
C1347 C 0.83543 0.02669 0.91004 0.0
C1348 C 0.89234 0.02097 0.86965 0.0
C1349 C 0.91544 0.08762 0.85825 0.0
N1350 N 0.85216 0.02635 0.89681 0.0
N1351 N 0.89903 0.08672 0.87151 0.0
H1352 H 0.1586 0.86324 0.671 0.0
H1353 H 0.07842 0.74554 0.6048 0.0
H1354 H 0.17803 0.746 0.6653 0.0
H1355 H 0.0981 0.86311 0.60074 0.0
H1356 H 0.10842 0.74419 0.62869 0.0
H1357 H 0.12947 0.86277 0.64706 0.0
C1358 C 0.15665 0.83731 0.66475 0.0
C1359 C 0.1709 0.8046 0.67017 0.0
C1360 C 0.10619 0.7702 0.62251 0.0
C1361 C 0.1372 0.80388 0.64274 0.0
C1362 C 0.08898 0.77105 0.60893 0.0
C1363 C 0.0857 0.8045 0.60074 0.0
C1364 C 0.11964 0.80318 0.62812 0.0
C1365 C 0.10006 0.83666 0.60661 0.0
C1366 C 0.14013 0.83714 0.65104 0.0
C1367 C 0.1676 0.77189 0.6615 0.0
N1368 N 0.11612 0.83527 0.61998 0.0
N1369 N 0.15091 0.77228 0.64826 0.0
H1370 H 0.16938 0.48889 0.60222 0.0
H1371 H 0.08842 0.36522 0.66742 0.0
H1372 H 0.17085 0.36864 0.6046 0.0
H1373 H 0.08708 0.48555 0.66888 0.0
H1374 H 0.11834 0.36779 0.64404 0.0
H1375 H 0.13915 0.4901 0.62615 0.0
C1376 C 0.16345 0.46281 0.60773 0.0
C1377 C 0.17282 0.42861 0.60133 0.0
C1378 C 0.1116 0.39378 0.64939 0.0
C1379 C 0.13824 0.42984 0.62862 0.0
C1380 C 0.09436 0.39235 0.66283 0.0
C1381 C 0.08499 0.42524 0.67021 0.0
C1382 C 0.11981 0.42838 0.64306 0.0
C1383 C 0.09371 0.45946 0.66359 0.0
C1384 C 0.1462 0.46355 0.62138 0.0
C1385 C 0.16434 0.39575 0.609 0.0
N1386 N 0.11061 0.46017 0.65037 0.0
N1387 N 0.14765 0.39725 0.62213 0.0
H1388 H 0.8307 0.23238 0.35532 0.0
H1389 H 0.91742 0.11318 0.41915 0.0
H1390 H 0.85465 0.11643 0.34933 0.0
H1391 H 0.93141 0.23194 0.41539 0.0
H1392 H 0.88829 0.11416 0.3952 0.0
H1393 H 0.8617 0.23323 0.37892 0.0
C1394 C 0.84241 0.20712 0.35896 0.0
C1395 C 0.84 0.17426 0.35032 0.0
C1396 C 0.8978 0.14001 0.39958 0.0
C1397 C 0.87514 0.17498 0.37736 0.0
C1398 C 0.91434 0.13952 0.4133 0.0
C1399 C 0.927 0.17254 0.4193 0.0
C1400 C 0.89321 0.17386 0.39187 0.0
C1401 C 0.92226 0.2058 0.41113 0.0
C1402 C 0.8602 0.20769 0.37238 0.0
C1403 C 0.85587 0.14242 0.35556 0.0
N1404 N 0.90552 0.20569 0.3979 0.0
N1405 N 0.87247 0.14349 0.36878 0.0
H1406 H 0.85662 0.60988 0.42303 0.0
H1407 H 0.90858 0.49509 0.34893 0.0
H1408 H 0.81589 0.50304 0.41212 0.0
H1409 H 0.92934 0.61119 0.35704 0.0
H1410 H 0.87787 0.49404 0.3727 0.0
H1411 H 0.88696 0.60723 0.3997 0.0
C1412 C 0.85399 0.58575 0.41574 0.0
C1413 C 0.83342 0.55671 0.41959 0.0
C1414 C 0.88921 0.51965 0.36921 0.0
C1415 C 0.86858 0.55347 0.39258 0.0
C1416 C 0.90682 0.52025 0.35569 0.0
C1417 C 0.92165 0.55328 0.35093 0.0
C1418 C 0.88672 0.55219 0.37808 0.0
C1419 C 0.91838 0.58507 0.36014 0.0
C1420 C 0.87139 0.5843 0.40233 0.0
C1421 C 0.83129 0.52617 0.40958 0.0
N1422 N 0.90144 0.58366 0.3732 0.0
N1423 N 0.84869 0.5253 0.39653 0.0
H1424 H 0.58869 0.36398 0.60512 0.0
H1425 H 0.66941 0.24199 0.67089 0.0
H1426 H 0.58918 0.24363 0.60379 0.0
H1427 H 0.66729 0.36228 0.66917 0.0
H1428 H 0.64012 0.24029 0.64674 0.0
H1429 H 0.61744 0.36214 0.62885 0.0
C1430 C 0.5948 0.33701 0.60981 0.0
C1431 C 0.58629 0.30389 0.60235 0.0
C1432 C 0.64615 0.26697 0.6517 0.0
C1433 C 0.61973 0.3016 0.62991 0.0
C1434 C 0.66287 0.26798 0.66548 0.0
C1435 C 0.67099 0.30234 0.67213 0.0
C1436 C 0.63748 0.30053 0.64455 0.0
C1437 C 0.66175 0.33508 0.66458 0.0
C1438 C 0.61135 0.33599 0.62345 0.0
C1439 C 0.59515 0.26989 0.60912 0.0
N1440 N 0.64562 0.3333 0.65129 0.0
N1441 N 0.61138 0.2696 0.62254 0.0
H1442 H 0.67581 0.86117 0.60204 0.0
H1443 H 0.56923 0.97583 0.66063 0.0
H1444 H 0.66146 0.97995 0.59823 0.0
H1445 H 0.60619 0.86621 0.67004 0.0
H1446 H 0.59883 0.97676 0.63669 0.0
H1447 H 0.64604 0.86131 0.62578 0.0
C1448 C 0.66633 0.88732 0.60614 0.0
C1449 C 0.67129 0.92064 0.59808 0.0
C1450 C 0.60048 0.95256 0.64402 0.0
C1451 C 0.63693 0.9209 0.62538 0.0
C1452 C 0.58352 0.95195 0.65768 0.0
C1453 C 0.58513 0.92087 0.66741 0.0
C1454 C 0.61892 0.92169 0.63993 0.0
C1455 C 0.6042 0.89081 0.66297 0.0
C1456 C 0.6494 0.88737 0.61977 0.0
C1457 C 0.65839 0.95362 0.60407 0.0
N1458 N 0.62016 0.89191 0.64956 0.0
N1459 N 0.64174 0.9529 0.61731 0.0
H1460 H 0.40878 0.61749 0.41877 0.0
H1461 H 0.33939 0.73869 0.34975 0.0
H1462 H 0.4215 0.73678 0.41634 0.0
H1463 H 0.3341 0.61884 0.35363 0.0
H1464 H 0.36791 0.74051 0.37413 0.0
H1465 H 0.37954 0.6195 0.39518 0.0
C1466 C 0.40544 0.64427 0.41329 0.0
C1467 C 0.41792 0.67701 0.41962 0.0
C1468 C 0.36042 0.71391 0.3696 0.0
C1469 C 0.38401 0.67948 0.3922 0.0
C1470 C 0.34414 0.71282 0.35569 0.0
C1471 C 0.33421 0.67855 0.34956 0.0
C1472 C 0.36673 0.6805 0.37742 0.0
C1473 C 0.34115 0.64597 0.35779 0.0
C1474 C 0.38863 0.64538 0.39972 0.0
C1475 C 0.41242 0.7108 0.4119 0.0
N1476 N 0.35684 0.64782 0.37119 0.0
N1477 N 0.39594 0.71117 0.39856 0.0
H1478 H 0.34788 -0.00699 0.42352 0.0
H1479 H 0.40139 0.10857 0.34989 0.0
H1480 H 0.33466 0.11159 0.41801 0.0
H1481 H 0.44014 0.00043 0.36044 0.0
H1482 H 0.3719 0.10677 0.37365 0.0
H1483 H 0.37732 -0.008 0.3994 0.0
C1484 C 0.35109 0.01877 0.41726 0.0
C1485 C 0.33874 0.05244 0.42286 0.0
C1486 C 0.38686 0.0834 0.3708 0.0
C1487 C 0.37211 0.05138 0.39525 0.0
C1488 C 0.40368 0.08434 0.35718 0.0
C1489 C 0.42349 0.05469 0.35314 0.0
C1490 C 0.38944 0.0524 0.38051 0.0
C1491 C 0.42534 0.02405 0.36312 0.0
C1492 C 0.36796 0.01818 0.40353 0.0
C1493 C 0.34376 0.08496 0.41425 0.0
N1494 N 0.40849 0.02364 0.37633 0.0
N1495 N 0.35985 0.08355 0.40092 0.0
H1496 H 0.5784 0.86634 0.10662 0.0
H1497 H 0.68929 0.75159 0.16305 0.0
H1498 H 0.59639 0.74886 0.10037 0.0
H1499 H 0.65138 0.8606 0.17282 0.0
H1500 H 0.65851 0.75011 0.13942 0.0
H1501 H 0.60818 0.86482 0.13014 0.0
C1502 C 0.58861 0.8401 0.11018 0.0
C1503 C 0.58479 0.80764 0.10143 0.0
C1504 C 0.65695 0.77426 0.14678 0.0
C1505 C 0.61933 0.80579 0.1286 0.0
C1506 C 0.67459 0.77522 0.16024 0.0
C1507 C 0.67308 0.80636 0.16994 0.0
C1508 C 0.63789 0.80479 0.14294 0.0
C1509 C 0.65342 0.83601 0.16574 0.0
C1510 C 0.60561 0.83926 0.1237 0.0
C1511 C 0.5986 0.77452 0.10677 0.0
N1512 N 0.6368 0.83453 0.15257 0.0
N1513 N 0.61541 0.77447 0.11998 0.0
H1514 H 0.65716 0.36397 0.0979 0.0
H1515 H 0.57629 0.47944 0.16467 0.0
H1516 H 0.67635 0.48101 0.10436 0.0
H1517 H 0.59672 0.36195 0.16827 0.0
H1518 H 0.60595 0.48147 0.14067 0.0
H1519 H 0.62757 0.36364 0.12174 0.0
C1520 C 0.65504 0.38969 0.10429 0.0
C1521 C 0.66938 0.42258 0.09912 0.0
C1522 C 0.60391 0.45532 0.14676 0.0
C1523 C 0.63518 0.42237 0.12641 0.0
C1524 C 0.58689 0.45407 0.1604 0.0
C1525 C 0.58399 0.42046 0.1685 0.0
C1526 C 0.61754 0.42255 0.14102 0.0
C1527 C 0.59841 0.3885 0.16246 0.0
C1528 C 0.63826 0.38939 0.11794 0.0
C1529 C 0.66586 0.45499 0.10796 0.0
N1530 N 0.6143 0.39027 0.14905 0.0
N1531 N 0.64894 0.45415 0.12113 0.0
H1532 H 0.35756 0.11726 0.84717 0.0
H1533 H 0.4124 0.23569 0.91981 0.0
H1534 H 0.3202 0.22656 0.8569 0.0
H1535 H 0.42884 0.11779 0.91388 0.0
H1536 H 0.38228 0.23588 0.8959 0.0
H1537 H 0.3878 0.12006 0.87062 0.0
C1538 C 0.35567 0.14192 0.85423 0.0
C1539 C 0.33607 0.17163 0.85004 0.0
C1540 C 0.39253 0.21005 0.89989 0.0
C1541 C 0.37103 0.17509 0.87707 0.0
C1542 C 0.4098 0.20994 0.9135 0.0
C1543 C 0.4232 0.17668 0.91892 0.0
C1544 C 0.38898 0.17677 0.8916 0.0
C1545 C 0.41893 0.14412 0.91026 0.0
C1546 C 0.37297 0.14347 0.86768 0.0
C1547 C 0.3348 0.20287 0.85972 0.0
N1548 N 0.40236 0.14506 0.89708 0.0
N1549 N 0.35208 0.20384 0.87277 0.0
H1550 H 0.33124 0.61427 0.91981 0.0
H1551 H 0.43859 0.50235 0.86064 0.0
H1552 H 0.3476 0.49591 0.92391 0.0
H1553 H 0.40078 0.61203 0.8522 0.0
H1554 H 0.40929 0.50006 0.8847 0.0
H1555 H 0.36072 0.61459 0.8961 0.0
C1556 C 0.34109 0.58826 0.91577 0.0
C1557 C 0.33676 0.55496 0.92396 0.0
C1558 C 0.40742 0.52456 0.87755 0.0
C1559 C 0.37092 0.55525 0.89655 0.0
C1560 C 0.42421 0.52597 0.86383 0.0
C1561 C 0.42227 0.55749 0.85433 0.0
C1562 C 0.38879 0.55505 0.88193 0.0
C1563 C 0.40307 0.58712 0.85907 0.0
C1564 C 0.35789 0.58848 0.90214 0.0
C1565 C 0.35018 0.52222 0.918 0.0
N1566 N 0.38729 0.58523 0.87251 0.0
N1567 N 0.36672 0.5232 0.90469 0.0
H1568 H 0.99035 0.43359 0.04984 0.0
H1569 H 0.02014 0.54488 0.97243 0.0
H1570 H 0.02895 0.38387 1.0091 0.0
H1571 H 0.97973 0.59428 0.01282 0.0
H1572 H 0.02584 0.48623 0.98614 0.0
H1573 H 0.98563 0.4927 0.03635 0.0
C1574 C 0.99742 0.43494 0.038 0.0
C1575 C 0.0104 0.40387 0.03063 0.0
C1576 C 0.01591 0.50999 0.99203 0.0
C1577 C 0.00556 0.47146 0.01525 0.0
C1578 C 0.0129 0.54358 0.98425 0.0
C1579 C 0.99902 0.57435 0.99143 0.0
C1580 C 0.00497 0.50726 1.00706 0.0
C1581 C 0.99026 0.57114 1.00678 0.0
C1582 C 0.99497 0.46878 0.03035 0.0
C1583 C 0.01903 0.40719 0.01526 0.0
N1584 N 0.99311 0.53801 0.01405 0.0
N1585 N 0.0167 0.44053 1.00812 0.0
H1586 H 0.2219 0.66034 0.98126 0.0
H1587 H 0.27329 0.80038 0.04684 0.0
H1588 H 0.27589 0.62692 0.02038 0.0
H1589 H 0.21614 0.83157 1.00828 0.0
H1590 H 0.27253 0.73594 0.03805 0.0
H1591 H 0.21361 0.72135 0.99283 0.0
C1592 C 0.23085 0.66552 0.99261 0.0
C1593 C 0.24942 0.63894 0.99998 0.0
C1594 C 0.26026 0.75693 0.0315 0.0
C1595 C 0.24171 0.70889 0.01288 0.0
C1596 C 0.26104 0.79382 0.03638 0.0
C1597 C 0.24466 0.82144 0.02831 0.0
C1598 C 0.24309 0.74764 0.01843 0.0
C1599 C 0.22919 0.8113 0.01485 0.0
C1600 C 0.22663 0.70047 0.9991 0.0
C1601 C 0.26111 0.6468 0.0145 0.0
N1602 N 0.22862 0.77514 1.01039 0.0
N1603 N 0.25761 0.68154 0.02039 0.0
H1604 H 0.98216 0.8087 0.22467 0.0
H1605 H 0.02116 0.67585 0.29489 0.0
H1606 H 0.02801 0.84611 0.2656 0.0
H1607 H 0.97261 0.63873 0.25466 0.0
H1608 H 0.02614 0.73785 0.28375 0.0
H1609 H 0.97608 0.74686 0.23589 0.0
C1610 C 0.98982 0.80407 0.23629 0.0
C1611 C 0.00531 0.83222 0.24436 0.0
C1612 C 0.01486 0.71608 0.27721 0.0
C1613 C 1.00001 0.76154 0.25691 0.0
C1614 C 0.01258 0.68061 0.28344 0.0
C1615 C 0.99673 0.65245 0.27555 0.0
C1616 C 1.00087 0.72334 0.26308 0.0
C1617 C 0.98544 0.65976 0.26092 0.0
C1618 C 0.98692 0.7687 0.24256 0.0
C1619 C 0.01548 0.82508 0.25919 0.0
N1620 N 0.98735 0.69485 0.25519 0.0
N1621 N 0.01307 0.79008 0.26495 0.0
H1622 H 0.22955 0.38162 0.26885 0.0
H1623 H 0.28932 0.58953 0.25336 0.0
H1624 H 0.27882 0.41467 0.2282 0.0
H1625 H 0.23513 0.5568 0.29255 0.0
H1626 H 0.2853 0.52577 0.24353 0.0
H1627 H 0.23557 0.44495 0.27883 0.0
C1628 C 0.24291 0.40185 0.26238 0.0
C1629 C 0.25397 0.39329 0.24782 0.0
C1630 C 0.27373 0.53272 0.25413 0.0
C1631 C 0.25943 0.46569 0.25859 0.0
C1632 C 0.2754 0.56925 0.25951 0.0
C1633 C 0.26223 0.57809 0.27364 0.0
C1634 C 0.25897 0.50528 0.26306 0.0
C1635 C 0.2453 0.55079 0.28151 0.0
C1636 C 0.24568 0.43816 0.26786 0.0
C1637 C 0.27026 0.42051 0.23958 0.0
N1638 N 0.24447 0.51539 0.27621 0.0
N1639 N 0.27213 0.45578 0.24498 0.0
H1640 H 0.77671 0.30503 0.04621 0.0
H1641 H 0.73334 0.17544 0.97556 0.0
H1642 H 0.72821 0.34368 1.00598 0.0
H1643 H 0.78826 0.13814 0.01401 0.0
H1644 H 0.72875 0.23655 0.98738 0.0
H1645 H 0.78202 0.24378 0.0345 0.0
C1646 C 0.76767 0.30084 0.03481 0.0
C1647 C 0.75153 0.32928 0.02715 0.0
C1648 C 0.74165 0.21491 0.99327 0.0
C1649 C 0.75696 0.25927 0.01388 0.0
C1650 C 0.744 0.1799 0.98661 0.0
C1651 C 0.76162 0.15186 0.99371 0.0
C1652 C 0.75697 0.2218 1.00711 0.0
C1653 C 0.77467 0.15907 1.00807 0.0
C1654 C 0.77046 0.26578 0.0282 0.0
C1655 C 0.74056 0.32244 0.01236 0.0
N1656 N 0.77236 0.19356 0.01424 0.0
N1657 N 0.74313 0.28791 1.00628 0.0
H1658 H 0.03159 0.16184 0.7927 0.0
H1659 H 0.9834 0.30429 0.72708 0.0
H1660 H 0.97638 0.13135 0.75361 0.0
H1661 H 0.04041 0.33481 0.76556 0.0
H1662 H 0.97907 0.2411 0.73715 0.0
H1663 H 0.03813 0.22438 0.78218 0.0
C1664 C 0.02206 0.16802 0.78153 0.0
C1665 C 1.00381 0.14167 0.77383 0.0
C1666 C 0.99207 0.26169 0.74357 0.0
C1667 C 0.00952 0.21327 0.7622 0.0
C1668 C 0.99395 0.29786 0.738 0.0
C1669 C 0.01187 0.32454 0.74569 0.0
C1670 C 0.00857 0.25221 0.75682 0.0
C1671 C 0.02585 0.31499 0.75954 0.0
C1672 C 0.02519 0.20384 0.7757 0.0
C1673 C 0.99113 0.15091 0.75967 0.0
N1674 N 0.02424 0.27927 0.76461 0.0
N1675 N 0.99379 0.18632 0.75438 0.0
H1676 H 0.71162 0.39236 0.76796 0.0
H1677 H 0.77728 0.59778 0.75252 0.0
H1678 H 0.77125 0.42158 0.73022 0.0
H1679 H 0.72269 0.56834 0.79199 0.0
H1680 H 0.77064 0.53434 0.74279 0.0
H1681 H 0.71523 0.45668 0.77725 0.0
C1682 C 0.72664 0.41198 0.76206 0.0
C1683 C 0.74158 0.40193 0.7485 0.0
C1684 C 0.75946 0.54197 0.75341 0.0
C1685 C 0.74437 0.47543 0.75839 0.0
C1686 C 0.76258 0.5784 0.75873 0.0
C1687 C 0.75022 0.588 0.77294 0.0
C1688 C 0.74407 0.51532 0.76249 0.0
C1689 C 0.73224 0.56176 0.78088 0.0
C1690 C 0.72808 0.44883 0.76711 0.0
C1691 C 0.75981 0.42846 0.74087 0.0
N1692 N 0.73008 0.52631 0.77566 0.0
N1693 N 0.76041 0.4642 0.74582 0.0
H1694 H 0.98383 0.92871 0.54774 0.0
H1695 H 0.02615 0.0544 0.47566 0.0
H1696 H 0.02959 0.88721 0.50721 0.0
H1697 H 0.9734 0.09445 0.51438 0.0
H1698 H 0.03041 -0.00627 0.48791 0.0
H1699 H 0.97934 -0.01027 0.53571 0.0
C1700 C 0.99246 0.93224 0.53622 0.0
C1701 C 0.00754 0.90301 0.52855 0.0
C1702 C 0.01807 0.01588 0.49376 0.0
C1703 C 1.00304 0.97275 0.5149 0.0
C1704 C 0.01591 0.05064 0.48685 0.0
C1705 C 0.999 0.07935 0.49391 0.0
C1706 C 1.00326 0.00991 0.50782 0.0
C1707 C 0.98641 0.07299 0.50845 0.0
C1708 C 0.99014 0.96716 0.52942 0.0
C1709 C 0.01806 0.90906 0.51361 0.0
N1710 N 0.98852 0.03875 0.51487 0.0
N1711 N 0.01594 0.94344 0.50734 0.0
H1712 H 0.28188 0.13301 0.51966 0.0
H1713 H 0.22182 0.34121 0.50492 0.0
H1714 H 0.23554 0.16809 0.4785 0.0
H1715 H 0.27111 0.30636 0.54532 0.0
H1716 H 0.22765 0.27814 0.49455 0.0
H1717 H 0.27461 0.1957 0.53014 0.0
C1718 C 0.26896 0.15356 0.51315 0.0
C1719 C 0.25903 0.1458 0.49833 0.0
C1720 C 0.23771 0.28449 0.50557 0.0
C1721 C 0.25212 0.2174 0.50971 0.0
C1722 C 0.235 0.32061 0.51128 0.0
C1723 C 0.24625 0.32859 0.52586 0.0
C1724 C 0.25159 0.25663 0.51462 0.0
C1725 C 0.26235 0.30095 0.53395 0.0
C1726 C 0.26545 0.18949 0.51893 0.0
C1727 C 0.24326 0.17336 0.49005 0.0
N1728 N 0.26423 0.26595 0.5283 0.0
N1729 N 0.24062 0.20823 0.49578 0.0
H1730 H 0.23324 0.05219 0.79483 0.0
H1731 H 0.27545 0.92369 0.72363 0.0
H1732 H 0.28643 0.09025 0.75592 0.0
H1733 H 0.22604 0.88491 0.7636 0.0
H1734 H 0.28062 0.9848 0.73545 0.0
H1735 H 0.228 -0.00861 0.78281 0.0
C1736 C 0.24338 0.04796 0.78365 0.0
C1737 C 0.26075 0.07609 0.77647 0.0
C1738 C 0.26886 0.96281 0.74166 0.0
C1739 C 0.25535 0.00654 0.76283 0.0
C1740 C 0.26616 0.92783 0.735 0.0
C1741 C 0.24985 0.89938 0.74256 0.0
C1742 C 0.25514 0.96922 0.75595 0.0
C1743 C 0.23854 0.90616 0.7573 0.0
C1744 C 0.24064 0.01314 0.77687 0.0
C1745 C 0.2731 0.06922 0.76193 0.0
N1746 N 0.24108 0.9406 0.76345 0.0
N1747 N 0.27046 0.0349 0.75565 0.0
H1748 H 0.78622 0.82179 0.53878 0.0
H1749 H 0.73394 0.68332 0.47287 0.0
H1750 H 0.72967 0.8554 0.50057 0.0
H1751 H 0.79417 0.652 0.51028 0.0
H1752 H 0.73453 0.7475 0.48196 0.0
H1753 H 0.79547 0.76171 0.52656 0.0
C1754 C 0.7769 0.81691 0.52747 0.0
C1755 C 0.75739 0.84324 0.52054 0.0
C1756 C 0.74755 0.72656 0.48819 0.0
C1757 C 0.76621 0.77427 0.50693 0.0
C1758 C 0.74689 0.68981 0.48313 0.0
C1759 C 0.76403 0.66221 0.49083 0.0
C1760 C 0.76538 0.73575 0.50106 0.0
C1761 C 0.78045 0.67226 0.50403 0.0
C1762 C 0.78169 0.78247 0.52062 0.0
C1763 C 0.7452 0.83573 0.50609 0.0
N1764 N 0.78082 0.70829 0.50869 0.0
N1765 N 0.74928 0.80145 0.49985 0.0
H1766 H 0.72547 0.88429 0.26503 0.0
H1767 H 0.77773 0.09651 0.25645 0.0
H1768 H 0.77018 0.92958 0.2249 0.0
H1769 H 0.73835 0.05027 0.29771 0.0
H1770 H 0.77204 0.03611 0.2442 0.0
H1771 H 0.7303 0.94479 0.27734 0.0
C1772 C 0.73678 0.90677 0.25889 0.0
C1773 C 0.74702 0.90207 0.24383 0.0
C1774 C 0.76446 0.03925 0.25591 0.0
C1775 C 0.75204 0.97137 0.25774 0.0
C1776 C 0.7674 0.07383 0.26287 0.0
C1777 C 0.759 0.07822 0.27821 0.0
C1778 C 0.753 0.00899 0.26435 0.0
C1779 C 0.7455 0.04797 0.28591 0.0
C1780 C 0.73926 0.94138 0.26588 0.0
C1781 C 0.76167 0.93206 0.23647 0.0
N1782 N 0.74323 0.01442 0.27893 0.0
N1783 N 0.76344 0.96563 0.24346 0.0
H1784 H 0.53656 0.38501 0.50456 0.0
H1785 H 0.48607 0.59816 0.51579 0.0
H1786 H 0.49343 0.42869 0.54522 0.0
H1787 H 0.51886 0.55332 0.4731 0.0
H1788 H 0.49434 0.5371 0.52762 0.0
H1789 H 0.53137 0.44657 0.49263 0.0
C1790 C 0.52494 0.40724 0.51072 0.0
C1791 C 0.51522 0.40213 0.52578 0.0
C1792 C 0.50023 0.54079 0.51572 0.0
C1793 C 0.51057 0.47235 0.51268 0.0
C1794 C 0.49613 0.57577 0.5091 0.0
C1795 C 0.5018 0.58034 0.49354 0.0
C1796 C 0.50996 0.51061 0.50661 0.0
C1797 C 0.51421 0.5505 0.48518 0.0
C1798 C 0.52257 0.44248 0.50408 0.0
C1799 C 0.50108 0.43183 0.53352 0.0
N1800 N 0.51751 0.51663 0.49178 0.0
N1801 N 0.49949 0.46587 0.52695 0.0
H1802 H 0.48508 0.79884 0.72261 0.0
H1803 H 0.51816 0.68284 0.79853 0.0
H1804 H 0.53123 0.84417 0.76231 0.0
H1805 H 0.47189 0.6375 0.75887 0.0
H1806 H 0.52444 0.74185 0.78513 0.0
H1807 H 0.47859 0.7399 0.73605 0.0
C1808 C 0.49345 0.79658 0.73423 0.0
C1809 C 0.50905 0.8263 0.74129 0.0
C1810 C 0.51307 0.7189 0.77934 0.0
C1811 C 0.50217 0.75888 0.75659 0.0
C1812 C 0.5097 0.68511 0.78693 0.0
C1813 C 0.49414 0.65536 0.77987 0.0
C1814 C 0.50078 0.72288 0.76461 0.0
C1815 C 0.48383 0.6598 0.76481 0.0
C1816 C 0.48996 0.76284 0.74184 0.0
C1817 C 0.51924 0.8219 0.75638 0.0
N1818 N 0.48709 0.69311 0.75772 0.0
N1819 N 0.51587 0.78863 0.76348 0.0
H1820 H 0.487 0.29689 0.22404 0.0
H1821 H 0.52368 0.17827 0.2988 0.0
H1822 H 0.53382 0.34137 0.26371 0.0
H1823 H 0.4787 0.13335 0.25871 0.0
H1824 H 0.52886 0.23801 0.28585 0.0
H1825 H 0.48192 0.23722 0.23703 0.0
C1826 C 0.49579 0.29429 0.23556 0.0
C1827 C 0.51128 0.32395 0.24273 0.0
C1828 C 0.51805 0.21499 0.27986 0.0
C1829 C 0.50603 0.25571 0.2575 0.0
C1830 C 0.51533 0.18079 0.2872 0.0
C1831 C 0.50033 0.15098 0.27989 0.0
C1832 C 0.50567 0.21927 0.26517 0.0
C1833 C 0.49018 0.1557 0.26482 0.0
C1834 C 0.49314 0.26012 0.24291 0.0
C1835 C 0.52198 0.31912 0.2577 0.0
N1836 N 0.49275 0.18941 0.258 0.0
N1837 N 0.51943 0.28543 0.26454 0.0
H1838 H 0.53527 0.88734 1.00368 0.0
H1839 H 0.4764 0.09685 0.01629 0.0
H1840 H 0.48811 0.9255 0.04419 0.0
H1841 H 0.52165 0.0584 0.97531 0.0
H1842 H 0.48324 0.03475 0.02743 0.0
H1843 H 0.52873 0.94946 0.99249 0.0
C1844 C 0.52241 0.90845 1.00991 0.0
C1845 C 0.512 0.90173 0.02474 0.0
C1846 C 0.49221 0.04008 0.0161 0.0
C1847 C 0.50583 0.97262 0.01256 0.0
C1848 C 0.48892 0.07567 1.00993 0.0
C1849 C 0.49869 0.08231 0.99499 0.0
C1850 C 0.50518 0.01142 1.00714 0.0
C1851 C 0.51401 0.05398 0.98694 0.0
C1852 C 0.51928 0.94404 1.00372 0.0
C1853 C 0.49625 0.92997 0.03265 0.0
N1854 N 0.51647 0.0195 0.99305 0.0
N1855 N 0.49396 0.96446 0.02652 0.0
H1856 H 0.12437 0.3253 0.01878 0.0
H1857 H 0.22657 0.51093 0.01296 0.0
H1858 H 0.12115 0.41304 0.05238 0.0
H1859 H 0.20712 0.44232 0.97379 0.0
H1860 H 0.19107 0.47277 0.02813 0.0
H1861 H 0.15892 0.36399 1.00311 0.0
C1862 C 0.13132 0.35241 0.02302 0.0
C1863 C 0.11983 0.3658 0.03702 0.0
C1864 C 0.19426 0.46614 0.0162 0.0
C1865 C 0.15916 0.41044 0.01894 0.0
C1866 C 0.21447 0.48798 1.0075 0.0
C1867 C 0.21973 0.47984 0.99207 0.0
C1868 C 0.17944 0.43529 1.00956 0.0
C1869 C 0.20348 0.44975 0.98561 0.0
C1870 C 0.15076 0.37465 0.01394 0.0
C1871 C 0.12943 0.40142 0.04174 0.0
N1872 N 0.18431 0.42824 0.99444 0.0
N1873 N 0.14849 0.42241 0.03274 0.0
H1874 H 0.14664 0.80261 0.0468 0.0
H1875 H 0.03137 0.79308 0.9749 0.0
H1876 H 0.11959 0.89879 0.0203 0.0
H1877 H 0.04134 0.70268 1.00699 0.0
H1878 H 0.06634 0.83094 0.99063 0.0
H1879 H 0.10978 0.76471 0.03205 0.0
C1880 C 0.13268 0.81594 0.03806 0.0
C1881 C 0.13637 0.85408 0.03484 0.0
C1882 C 0.06089 0.80281 0.99423 0.0
C1883 C 0.09451 0.81054 0.01767 0.0
C1884 C 0.04106 0.78105 0.98518 0.0
C1885 C 0.03328 0.74457 0.9896 0.0
C1886 C 0.07337 0.78799 1.00776 0.0
C1887 C 0.04653 0.73067 1.00313 0.0
C1888 C 0.11174 0.79419 0.02958 0.0
C1889 C 0.11769 0.86957 0.02325 0.0
N1890 N 0.06592 0.75232 0.0117 0.0
N1891 N 0.09786 0.84776 0.01504 0.0
H1892 H 0.2018 0.76663 0.297 0.0
H1893 H 0.1326 0.8235 0.21542 0.0
H1894 H 0.24082 0.72374 0.25519 0.0
H1895 H 0.12219 0.8903 0.25601 0.0
H1896 H 0.16904 0.78269 0.22944 0.0
H1897 H 0.16697 0.80671 0.28199 0.0
C1898 C 0.20279 0.76529 0.28469 0.0
C1899 C 0.2244 0.74191 0.27737 0.0
C1900 C 0.1589 0.80654 0.23517 0.0
C1901 C 0.1847 0.78786 0.26008 0.0
C1902 C 0.13835 0.83003 0.22713 0.0
C1903 C 0.12409 0.86036 0.23452 0.0
C1904 C 0.16486 0.81323 0.25072 0.0
C1905 C 0.13228 0.86713 0.24981 0.0
C1906 C 0.18311 0.78842 0.27611 0.0
C1907 C 0.22469 0.74155 0.26132 0.0
N1908 N 0.1517 0.84362 0.25739 0.0
N1909 N 0.20519 0.7641 0.25323 0.0
H1910 H 0.12563 0.40315 0.21875 0.0
H1911 H 0.056 0.46364 0.2999 0.0
H1912 H 0.13694 0.339 0.26 0.0
H1913 H 0.01849 0.50577 0.25763 0.0
H1914 H 0.09102 0.42288 0.2853 0.0
H1915 H 0.08936 0.4447 0.23247 0.0
C1916 C 0.12014 0.39737 0.23056 0.0
C1917 C 0.13456 0.36754 0.2382 0.0
C1918 C 0.07517 0.44116 0.27923 0.0
C1919 C 0.09394 0.41552 0.25406 0.0
C1920 C 0.05537 0.46467 0.28757 0.0
C1921 C 0.03413 0.48803 0.28001 0.0
C1922 C 0.07403 0.44129 0.26319 0.0
C1923 C 0.03432 0.48799 0.26396 0.0
C1924 C 0.09967 0.42128 0.23843 0.0
C1925 C 0.12669 0.36174 0.2536 0.0
N1926 N 0.05389 0.46504 0.2561 0.0
N1927 N 0.10731 0.38563 0.26101 0.0
H1928 H 0.89218 0.55747 0.96972 0.0
H1929 H 0.77956 0.54963 0.04284 0.0
H1930 H 0.87393 0.6526 0.99851 0.0
H1931 H 0.79013 0.45919 0.01082 0.0
H1932 H 0.8148 0.58754 0.02713 0.0
H1933 H 0.85452 0.52133 0.98457 0.0
C1934 C 0.87998 0.57097 0.97903 0.0
C1935 C 0.88641 0.60822 0.98284 0.0
C1936 C 0.80939 0.55938 0.02356 0.0
C1937 C 0.84346 0.56659 1.00014 0.0
C1938 C 0.78941 0.53763 0.03258 0.0
C1939 C 0.78178 0.50109 0.02818 0.0
C1940 C 0.822 0.54449 1.01006 0.0
C1941 C 0.7952 0.48719 0.01469 0.0
C1942 C 0.85854 0.5502 0.98757 0.0
C1943 C 0.86981 0.62403 0.9951 0.0
N1944 N 0.81458 0.50883 1.00615 0.0
N1945 N 0.84935 0.60309 1.00336 0.0
H1946 H 0.89117 0.0768 0.9979 0.0
H1947 H 0.96272 0.27874 0.01497 0.0
H1948 H 0.86154 0.17607 0.97408 0.0
H1949 H 0.9746 0.18414 0.0448 0.0
H1950 H 0.92905 0.24094 0.99858 0.0
H1951 H 0.92644 0.11467 0.0133 0.0
C1952 C 0.89235 0.10649 0.99572 0.0
C1953 C 0.87312 0.12318 0.98464 0.0
C1954 C 0.93891 0.22849 1.00874 0.0
C1955 C 0.91349 0.16691 1.00249 0.0
C1956 C 0.95811 0.25007 0.01814 0.0
C1957 C 0.97155 0.23465 0.03134 0.0
C1958 C 0.93329 0.19098 0.01241 0.0
C1959 C 0.96466 0.19732 0.03482 0.0
C1960 C 0.91238 0.12816 1.00465 0.0
C1961 C 0.87585 0.16188 0.98244 0.0
N1962 N 0.94621 0.17674 0.02538 0.0
N1963 N 0.89551 0.18241 0.99132 0.0
H1964 H 0.8879 0.08849 0.76216 0.0
H1965 H 0.76568 0.25623 0.7661 0.0
H1966 H 0.8743 0.15257 0.80326 0.0
H1967 H 0.80446 0.21426 0.72408 0.0
H1968 H 0.80122 0.21564 0.78036 0.0
H1969 H 0.85207 0.12976 0.74882 0.0
C1970 C 0.8771 0.11101 0.76849 0.0
C1971 C 0.88444 0.11705 0.78392 0.0
C1972 C 0.8021 0.21549 0.76803 0.0
C1973 C 0.84313 0.16491 0.76846 0.0
C1974 C 0.78185 0.23867 0.75985 0.0
C1975 C 0.782 0.23865 0.74382 0.0
C1976 C 0.82241 0.19154 0.76017 0.0
C1977 C 0.80356 0.21537 0.73639 0.0
C1978 C 0.85676 0.13479 0.76076 0.0
C1979 C 0.86937 0.14669 0.79141 0.0
N1980 N 0.82264 0.19252 0.74462 0.0
N1981 N 0.84948 0.1696 0.78359 0.0
H1982 H 0.98663 0.46707 0.76358 0.0
H1983 H 0.86907 0.63939 0.76115 0.0
H1984 H 0.95095 0.51455 0.72191 0.0
H1985 H 0.87878 0.57092 0.80132 0.0
H1986 H 0.9043 0.59798 0.74752 0.0
H1987 H 0.95122 0.50718 0.77814 0.0
C1988 C 0.97114 0.48573 0.75747 0.0
C1989 C 0.97186 0.48749 0.74146 0.0
C1990 C 0.89888 0.59198 0.75933 0.0
C1991 C 0.93162 0.53402 0.75816 0.0
C1992 C 0.87889 0.61583 0.76721 0.0
C1993 C 0.87063 0.60862 0.78246 0.0
C1994 C 0.91125 0.5606 0.76667 0.0
C1995 C 0.88448 0.5777 0.78963 0.0
C1996 C 0.95096 0.50862 0.76582 0.0
C1997 C 0.95115 0.51209 0.7342 0.0
N1998 N 0.90406 0.55473 0.78165 0.0
N1999 N 0.93215 0.53466 0.74261 0.0
H2000 H 0.12564 0.83122 0.51659 0.0
H2001 H 0.22526 0.01831 0.51218 0.0
H2002 H 0.11676 0.91897 0.54996 0.0
H2003 H 0.20587 0.9515 0.4725 0.0
H2004 H 0.18883 0.98012 0.52694 0.0
H2005 H 0.15963 0.87155 0.50141 0.0
C2006 C 0.13119 0.85874 0.52088 0.0
C2007 C 0.1183 0.87158 0.53468 0.0
C2008 C 0.19221 0.97401 0.51497 0.0
C2009 C 0.15711 0.91809 0.51715 0.0
C2010 C 0.21291 -0.00414 0.50652 0.0
C2011 C 0.21845 0.98816 0.49107 0.0
C2012 C 0.17736 0.94355 0.50805 0.0
C2013 C 0.20198 0.95863 0.48433 0.0
C2014 C 0.15032 0.8819 0.51208 0.0
C2015 C 0.12617 0.90776 0.53947 0.0
N2016 N 0.18247 0.93704 0.49292 0.0
N2017 N 0.14509 0.92966 0.53075 0.0
H2018 H 0.11499 0.40576 0.52458 0.0
H2019 H 0.03198 0.20813 0.51216 0.0
H2020 H 0.13229 0.31105 0.5536 0.0
H2021 H 0.02604 0.29984 0.48044 0.0
H2022 H 0.06403 0.24668 0.52898 0.0
H2023 H 0.07614 0.36962 0.51061 0.0
C2024 C 0.10994 0.37755 0.52827 0.0
C2025 C 0.12685 0.3614 0.5403 0.0
C2026 C 0.0557 0.25839 0.51835 0.0
C2027 C 0.08294 0.31927 0.52398 0.0
C2028 C 0.03744 0.23637 0.50868 0.0
C2029 C 0.02627 0.25067 0.49477 0.0
C2030 C 0.06282 0.29519 0.51419 0.0
C2031 C 0.03421 0.28747 0.49096 0.0
C2032 C 0.08799 0.35678 0.52017 0.0
C2033 C 0.11953 0.3247 0.54452 0.0
N2034 N 0.05191 0.30841 0.50062 0.0
N2035 N 0.09838 0.30466 0.53623 0.0
H2036 H 0.23207 0.29554 0.79143 0.0
H2037 H 0.12625 0.30982 0.71623 0.0
H2038 H 0.22768 0.20792 0.75781 0.0
H2039 H 0.13995 0.39962 0.74817 0.0
H2040 H 0.16587 0.27312 0.73001 0.0
H2041 H 0.19927 0.33439 0.77509 0.0
C2042 C 0.22412 0.28436 0.78065 0.0
C2043 C 0.23267 0.2483 0.77606 0.0
C2044 C 0.16057 0.30112 0.73383 0.0
C2045 C 0.1951 0.29292 0.75711 0.0
C2046 C 0.13826 0.32223 0.72583 0.0
C2047 C 0.12977 0.35779 0.73108 0.0
C2048 C 0.17429 0.31574 0.74714 0.0
C2049 C 0.14568 0.37223 0.74378 0.0
C2050 C 0.20551 0.30668 0.77124 0.0
C2051 C 0.22171 0.23552 0.76186 0.0
N2052 N 0.16682 0.35109 0.75143 0.0
N2053 N 0.20346 0.25772 0.75293 0.0
H2054 H 0.16214 0.92387 0.73201 0.0
H2055 H 0.00557 0.93239 0.78094 0.0
H2056 H 0.11078 0.82465 0.74419 0.0
H2057 H 0.07645 0.01743 0.78384 0.0
H2058 H 0.04129 0.89385 0.76578 0.0
H2059 H 0.12784 0.96047 0.74855 0.0
C2060 C 0.1433 0.9098 0.73794 0.0
C2061 C 0.13921 0.87103 0.73656 0.0
C2062 C 0.04925 0.92069 0.76989 0.0
C2063 C 0.09999 0.913 0.75571 0.0
C2064 C 0.02896 0.94259 0.77858 0.0
C2065 C 0.03834 0.97784 0.78378 0.0
C2066 C 0.0789 0.93454 0.76598 0.0
C2067 C 0.06861 -0.00987 0.78023 0.0
C2068 C 0.12399 0.93073 0.74755 0.0
C2069 C 0.11472 0.85443 0.74482 0.0
N2070 N 0.08773 0.96868 0.77138 0.0
N2071 N 0.09596 0.87551 0.75397 0.0
H2072 H 0.75368 0.04737 0.52737 0.0
H2073 H 0.91543 0.05368 0.48245 0.0
H2074 H 0.82642 0.96618 0.53489 0.0
H2075 H 0.85837 0.15152 0.48945 0.0
H2076 H 0.88039 0.01838 0.49916 0.0
H2077 H 0.78975 0.08399 0.51174 0.0
C2078 C 0.77754 0.03766 0.52592 0.0
C2079 C 0.78731 0.00401 0.53253 0.0
C2080 C 0.87545 0.0475 0.49695 0.0
C2081 C 0.82837 0.04505 0.51422 0.0
C2082 C 0.89515 0.06758 0.48723 0.0
C2083 C 0.88966 0.10562 0.48441 0.0
C2084 C 0.84977 0.06538 0.50375 0.0
C2085 C 0.8634 0.12225 0.49122 0.0
C2086 C 0.79803 0.05845 0.51695 0.0
C2087 C 0.81823 -0.00769 0.53016 0.0
N2088 N 0.8444 0.10202 0.50052 0.0
N2089 N 0.83764 0.01261 0.52101 0.0
H2090 H 0.88878 0.57647 0.49665 0.0
H2091 H 0.9649 0.77672 0.51241 0.0
H2092 H 0.8611 0.67637 0.47271 0.0
H2093 H 0.97932 0.68122 0.54151 0.0
H2094 H 0.92997 0.73947 0.49652 0.0
H2095 H 0.92615 0.6131 0.51138 0.0
C2096 C 0.89082 0.60602 0.49431 0.0
C2097 C 0.87153 0.6233 0.48341 0.0
C2098 C 0.9407 0.72666 0.50639 0.0
C2099 C 0.91428 0.66559 0.50047 0.0
C2100 C 0.96065 0.74792 0.51551 0.0
C2101 C 0.97514 0.73212 0.52836 0.0
C2102 C 0.93527 0.6891 0.51002 0.0
C2103 C 0.9686 0.69467 0.53178 0.0
C2104 C 0.91206 0.62698 0.50284 0.0
C2105 C 0.8754 0.66175 0.48096 0.0
N2106 N 0.94928 0.67441 0.52263 0.0
N2107 N 0.89618 0.68159 0.48947 0.0
H2108 H 0.88107 0.6685 0.30443 0.0
H2109 H 0.77695 0.68275 0.22872 0.0
H2110 H 0.86784 0.57861 0.27249 0.0
H2111 H 0.78089 0.77053 0.2623 0.0
H2112 H 0.80926 0.64385 0.24526 0.0
H2113 H 0.84178 0.70524 0.29045 0.0
C2114 C 0.86921 0.65609 0.29478 0.0
C2115 C 0.87774 0.62052 0.28958 0.0
C2116 C 0.80303 0.6716 0.24905 0.0
C2117 C 0.83364 0.66256 0.27331 0.0
C2118 C 0.78472 0.69396 0.23953 0.0
C2119 C 0.77618 0.73007 0.24406 0.0
C2120 C 0.81315 0.68539 0.26322 0.0
C2121 C 0.78688 0.74288 0.2583 0.0
C2122 C 0.8471 0.67721 0.28668 0.0
C2123 C 0.86206 0.60602 0.27684 0.0
N2124 N 0.80484 0.72065 0.26733 0.0
N2125 N 0.84111 0.62717 0.26907 0.0
H2126 H 0.87609 0.1505 0.2651 0.0
H2127 H 0.97256 0.96054 0.2586 0.0
H2128 H 0.86967 0.06217 0.29835 0.0
H2129 H 0.95579 0.03144 0.21981 0.0
H2130 H 0.93746 -0.00071 0.27382 0.0
H2131 H 0.90912 0.11037 0.24925 0.0
C2132 C 0.882 0.12291 0.26922 0.0
C2133 C 0.87009 0.10986 0.28319 0.0
C2134 C 0.9411 0.00625 0.26194 0.0
C2135 C 0.90771 0.06353 0.26489 0.0
C2136 C 0.96104 0.98404 0.25322 0.0
C2137 C 0.96696 -0.00734 0.23788 0.0
C2138 C 0.9273 0.03798 0.25543 0.0
C2139 C 0.95157 0.02356 0.23153 0.0
C2140 C 0.90058 0.09986 0.26004 0.0
C2141 C 0.87832 0.07359 0.28774 0.0
N2142 N 0.93272 0.04542 0.24039 0.0
N2143 N 0.8966 0.05181 0.27865 0.0
H2144 H 0.72138 0.52926 0.51176 0.0
H2145 H 0.64553 0.32766 0.52519 0.0
H2146 H 0.72892 0.43736 0.48025 0.0
H2147 H 0.62472 0.42174 0.554 0.0
H2148 H 0.68249 0.36587 0.51091 0.0
H2149 H 0.69052 0.48968 0.52885 0.0
C2150 C 0.71646 0.50083 0.50838 0.0
C2151 C 0.72777 0.48674 0.49446 0.0
C2152 C 0.67028 0.37817 0.52049 0.0
C2153 C 0.69277 0.44105 0.51417 0.0
C2154 C 0.64943 0.35619 0.52878 0.0
C2155 C 0.63208 0.37148 0.54084 0.0
C2156 C 0.67379 0.41602 0.52415 0.0
C2157 C 0.63788 0.40871 0.5449 0.0
C2158 C 0.69892 0.47822 0.5182 0.0
C2159 C 0.72062 0.44962 0.49077 0.0
N2160 N 0.65797 0.42989 0.53644 0.0
N2161 N 0.70372 0.42815 0.50056 0.0
H2162 H 0.62808 0.82366 0.55012 0.0
H2163 H 0.55678 0.7697 0.46832 0.0
H2164 H 0.64106 0.88959 0.50945 0.0
H2165 H 0.52481 0.72056 0.5104 0.0
H2166 H 0.59262 0.80942 0.48301 0.0
H2167 H 0.59291 0.78244 0.53573 0.0
C2168 C 0.62323 0.82983 0.53828 0.0
C2169 C 0.63769 0.86017 0.53103 0.0
C2170 C 0.57784 0.78977 0.489 0.0
C2171 C 0.59818 0.81261 0.5144 0.0
C2172 C 0.55763 0.76687 0.48059 0.0
C2173 C 0.53764 0.74196 0.48813 0.0
C2174 C 0.57826 0.78743 0.50503 0.0
C2175 C 0.53961 0.73964 0.50411 0.0
C2176 C 0.60337 0.80612 0.53003 0.0
C2177 C 0.63067 0.86649 0.51556 0.0
N2178 N 0.55942 0.76208 0.51201 0.0
N2179 N 0.61172 0.84284 0.50778 0.0
H2180 H 0.65015 0.9048 0.73856 0.0
H2181 H 0.68 0.72076 0.7878 0.0
H2182 H 0.59341 0.80612 0.73349 0.0
H2183 H 0.75565 0.79157 0.77304 0.0
H2184 H 0.64353 0.75846 0.77233 0.0
H2185 H 0.68572 0.86944 0.75522 0.0
C2186 C 0.64538 0.87566 0.74081 0.0
C2187 C 0.61909 0.85826 0.7344 0.0
C2188 C 0.6681 0.76585 0.77263 0.0
C2189 C 0.65884 0.81819 0.75389 0.0
C2190 C 0.68876 0.74463 0.78155 0.0
C2191 C 0.72077 0.75315 0.78165 0.0
C2192 C 0.67955 0.79617 0.76409 0.0
C2193 C 0.73109 0.78408 0.7732 0.0
C2194 C 0.66554 0.85559 0.75036 0.0
C2195 C 0.61375 0.8205 0.73791 0.0
N2196 N 0.71058 0.80453 0.76482 0.0
N2197 N 0.63324 0.80186 0.74752 0.0
H2198 H 0.52749 0.43675 0.79536 0.0
H2199 H 0.62941 0.41825 0.71904 0.0
H2200 H 0.53067 0.52342 0.76128 0.0
H2201 H 0.61403 0.32896 0.75106 0.0
H2202 H 0.59151 0.45667 0.73321 0.0
H2203 H 0.5591 0.39715 0.77882 0.0
C2204 C 0.53498 0.44761 0.78444 0.0
C2205 C 0.52636 0.48361 0.77978 0.0
C2206 C 0.59605 0.42841 0.73696 0.0
C2207 C 0.56259 0.438 0.76057 0.0
C2208 C 0.61735 0.40632 0.72874 0.0
C2209 C 0.62488 0.37034 0.73388 0.0
C2210 C 0.58238 0.41438 0.7504 0.0
C2211 C 0.60901 0.35659 0.74672 0.0
C2212 C 0.5529 0.42482 0.77491 0.0
C2213 C 0.53672 0.4959 0.76539 0.0
N2214 N 0.58888 0.37867 0.75459 0.0
N2215 N 0.55432 0.47321 0.75633 0.0
H2216 H 0.3747 0.56948 0.46625 0.0
H2217 H 0.3053 0.51846 0.54844 0.0
H2218 H 0.38254 0.64064 0.5057 0.0
H2219 H 0.26797 0.47052 0.50721 0.0
H2220 H 0.33966 0.55798 0.53291 0.0
H2221 H 0.33893 0.52891 0.48078 0.0
C2222 C 0.36846 0.57701 0.4778 0.0
C2223 C 0.38183 0.60846 0.48475 0.0
C2224 C 0.324 0.53867 0.52727 0.0
C2225 C 0.34196 0.56167 0.50155 0.0
C2226 C 0.30462 0.51588 0.53616 0.0
C2227 C 0.28359 0.49132 0.52914 0.0
C2228 C 0.32265 0.53657 0.51126 0.0
C2229 C 0.28365 0.48932 0.51311 0.0
C2230 C 0.34834 0.55367 0.48615 0.0
C2231 C 0.37312 0.61654 0.49987 0.0
N2232 N 0.30282 0.5116 0.50472 0.0
N2233 N 0.35416 0.59316 0.50777 0.0
H2234 H 0.49049 0.26033 0.50841 0.0
H2235 H 0.37758 0.08346 0.50947 0.0
H2236 H 0.45665 0.20921 0.54973 0.0
H2237 H 0.38493 0.15505 0.47011 0.0
H2238 H 0.41258 0.12475 0.52335 0.0
H2239 H 0.45643 0.21929 0.49357 0.0
C2240 C 0.47566 0.24067 0.51438 0.0
C2241 C 0.47647 0.23821 0.53038 0.0
C2242 C 0.40675 0.13138 0.51166 0.0
C2243 C 0.43786 0.19055 0.51335 0.0
C2244 C 0.38695 0.1076 0.50362 0.0
C2245 C 0.37802 0.11581 0.48856 0.0
C2246 C 0.41819 0.16369 0.50463 0.0
C2247 C 0.3912 0.14746 0.48165 0.0
C2248 C 0.45627 0.21722 0.50587 0.0
C2249 C 0.45669 0.21227 0.53746 0.0
N2250 N 0.41052 0.17038 0.48977 0.0
N2251 N 0.43846 0.1892 0.52889 0.0
H2252 H 0.3842 0.07674 0.26803 0.0
H2253 H 0.28349 0.2637 0.26239 0.0
H2254 H 0.3894 0.16476 0.30144 0.0
H2255 H 0.30232 0.19493 0.22319 0.0
H2256 H 0.31918 0.2254 0.27746 0.0
H2257 H 0.35 0.11608 0.25244 0.0
C2258 C 0.37778 0.10407 0.27224 0.0
C2259 C 0.3897 0.1173 0.28618 0.0
C2260 C 0.31583 0.2188 0.26554 0.0
C2261 C 0.35071 0.1627 0.26818 0.0
C2262 C 0.29552 0.24073 0.2569 0.0
C2263 C 0.29003 0.23261 0.24148 0.0
C2264 C 0.33046 0.18783 0.25886 0.0
C2265 C 0.30615 0.20242 0.23499 0.0
C2266 C 0.35852 0.12668 0.26321 0.0
C2267 C 0.38077 0.15324 0.29085 0.0
N2268 N 0.32537 0.18081 0.24376 0.0
N2269 N 0.36183 0.17457 0.28191 0.0
H2270 H 0.47906 0.54258 0.22711 0.0
H2271 H 0.37543 0.56065 0.3029 0.0
H2272 H 0.47553 0.45599 0.26122 0.0
H2273 H 0.39111 0.64992 0.27091 0.0
H2274 H 0.41384 0.52244 0.28895 0.0
H2275 H 0.44699 0.58207 0.24349 0.0
C2276 C 0.47142 0.53172 0.238 0.0
C2277 C 0.48005 0.49578 0.24272 0.0
C2278 C 0.40925 0.55064 0.28517 0.0
C2279 C 0.44329 0.54123 0.26174 0.0
C2280 C 0.38765 0.57261 0.29326 0.0
C2281 C 0.38007 0.60851 0.28805 0.0
C2282 C 0.42317 0.56474 0.2718 0.0
C2283 C 0.39616 0.62233 0.27529 0.0
C2284 C 0.45323 0.55445 0.24744 0.0
C2285 C 0.46948 0.48348 0.25707 0.0
N2286 N 0.41658 0.60038 0.26754 0.0
N2287 N 0.45162 0.50609 0.26604 0.0
H2288 H 0.6299 0.91563 0.05433 0.0
H2289 H 0.73205 0.93264 0.9779 0.0
H2290 H 0.63898 0.82844 0.02081 0.0
H2291 H 0.7295 0.01849 0.01233 0.0
H2292 H 0.69928 0.89344 0.99413 0.0
H2293 H 0.66918 0.95228 0.04035 0.0
C2294 C 0.64077 0.90376 0.0443 0.0
C2295 C 0.63108 0.86897 0.03871 0.0
C2296 C 0.70591 0.92084 0.99817 0.0
C2297 C 0.67531 0.91103 0.02244 0.0
C2298 C 0.72452 0.94336 0.98883 0.0
C2299 C 0.73358 0.97903 0.99368 0.0
C2300 C 0.69605 0.934 0.0125 0.0
C2301 C 0.72313 -0.00879 1.00807 0.0
C2302 C 0.66291 0.92486 0.0362 0.0
C2303 C 0.64561 0.85524 0.02548 0.0
N2304 N 0.70492 0.96882 0.01693 0.0
N2305 N 0.66666 0.87637 0.01775 0.0
H2306 H 0.637 0.31465 0.04943 0.0
H2307 H 0.5559 0.27377 0.96891 0.0
H2308 H 0.63606 0.39522 0.01292 0.0
H2309 H 0.52814 0.21883 1.01047 0.0
H2310 H 0.5919 0.31318 0.98378 0.0
H2311 H 0.60227 0.27459 0.03442 0.0
C2312 C 0.62922 0.32414 0.03834 0.0
C2313 C 0.6393 0.35859 0.03253 0.0
C2314 C 0.57802 0.2923 0.98959 0.0
C2315 C 0.60022 0.31226 0.01506 0.0
C2316 C 0.55776 0.26957 0.9811 0.0
C2317 C 0.53896 0.24301 0.98846 0.0
C2318 C 0.57987 0.28794 1.00551 0.0
C2319 C 0.54208 0.23907 1.00433 0.0
C2320 C 0.6095 0.30117 0.02975 0.0
C2321 C 0.62863 0.36917 0.01798 0.0
N2322 N 0.56209 0.26117 0.01228 0.0
N2323 N 0.60995 0.34599 1.00971 0.0
H2324 H 0.72877 0.29801 0.29365 0.0
H2325 H 0.61491 0.30447 0.22111 0.0
H2326 H 0.71732 0.20615 0.2624 0.0
H2327 H 0.63795 0.40131 0.24807 0.0
H2328 H 0.65198 0.26785 0.23617 0.0
H2329 H 0.69397 0.33567 0.27765 0.0
C2330 C 0.71877 0.28563 0.28351 0.0
C2331 C 0.72606 0.2488 0.27939 0.0
C2332 C 0.64913 0.2972 0.2387 0.0
C2333 C 0.68634 0.29191 0.26093 0.0
C2334 C 0.62806 0.31823 0.23003 0.0
C2335 C 0.62312 0.35613 0.23329 0.0
C2336 C 0.66529 0.31401 0.25084 0.0
C2337 C 0.64086 0.37223 0.24509 0.0
C2338 C 0.69907 0.30725 0.27431 0.0
C2339 C 0.7125 0.23441 0.26603 0.0
N2340 N 0.66088 0.35106 0.25349 0.0
N2341 N 0.69334 0.25593 0.25732 0.0
H2342 H 0.53274 0.9316 0.29557 0.0
H2343 H 0.64516 0.92416 0.22258 0.0
H2344 H 0.5435 0.02349 0.26424 0.0
H2345 H 0.61929 0.82699 0.24876 0.0
H2346 H 0.60896 0.96148 0.2379 0.0
H2347 H 0.5667 0.89374 0.27926 0.0
C2348 C 0.54244 0.94395 0.28535 0.0
C2349 C 0.53519 0.98083 0.2813 0.0
C2350 C 0.61101 0.93191 0.24019 0.0
C2351 C 0.57393 0.93749 0.26247 0.0
C2352 C 0.63156 0.9105 0.23137 0.0
C2353 C 0.63546 0.87229 0.23436 0.0
C2354 C 0.59437 0.91514 0.25219 0.0
C2355 C 0.6172 0.8563 0.246 0.0
C2356 C 0.56164 0.92221 0.27596 0.0
C2357 C 0.54833 -0.00482 0.26782 0.0
N2358 N 0.59774 0.87783 0.25455 0.0
N2359 N 0.56704 0.97354 0.25893 0.0
H2360 H 0.27797 0.04487 0.04207 0.0
H2361 H 0.37903 0.06935 0.9655 0.0
H2362 H 0.28029 0.96173 1.00655 0.0
H2363 H 0.37327 0.15114 1.00139 0.0
H2364 H 0.34013 0.03119 0.97909 0.0
H2365 H 0.31127 0.0849 0.02653 0.0
C2366 C 0.28554 0.0349 0.03102 0.0
C2367 C 0.27624 -0.0003 0.02569 0.0
C2368 C 0.34711 0.05774 0.98387 0.0
C2369 C 0.31454 0.04586 1.00763 0.0
C2370 C 0.36905 0.07973 0.97602 0.0
C2371 C 0.37953 0.11351 0.98231 0.0
C2372 C 0.33557 0.06966 0.9981 0.0
C2373 C 0.36607 0.12523 0.99612 0.0
C2374 C 0.30452 0.05792 0.02208 0.0
C2375 C 0.28686 0.98857 0.01119 0.0
N2376 N 0.34511 0.10331 1.00356 0.0
N2377 N 0.30543 0.0115 1.0027 0.0
H2378 H 0.44797 0.7201 0.05112 0.0
H2379 H 0.3801 0.65579 0.97005 0.0
H2380 H 0.48806 0.75727 1.00862 0.0
H2381 H 0.36511 0.59593 0.01211 0.0
H2382 H 0.41607 0.69784 0.98367 0.0
H2383 H 0.41173 0.68041 0.03676 0.0
C2384 C 0.4489 0.72029 0.03879 0.0
C2385 C 0.47125 0.74184 0.03109 0.0
C2386 C 0.40494 0.67529 0.98983 0.0
C2387 C 0.43 0.69635 0.01456 0.0
C2388 C 0.38461 0.65114 0.98203 0.0
C2389 C 0.36938 0.62226 0.9899 0.0
C2390 C 0.40971 0.67074 1.0056 0.0
C2391 C 0.37604 0.61785 1.00551 0.0
C2392 C 0.42841 0.6974 0.03058 0.0
C2393 C 0.4714 0.74083 0.01505 0.0
N2394 N 0.39536 0.64192 0.01282 0.0
N2395 N 0.45118 0.71847 1.00733 0.0
H2396 H 0.36629 0.57428 0.77572 0.0
H2397 H 0.29004 0.77406 0.75879 0.0
H2398 H 0.39178 0.67449 0.79996 0.0
H2399 H 0.27705 0.67843 0.72965 0.0
H2400 H 0.32434 0.73702 0.77506 0.0
H2401 H 0.32957 0.61055 0.76041 0.0
C2402 C 0.36389 0.60381 0.77801 0.0
C2403 C 0.3824 0.62128 0.78918 0.0
C2404 C 0.31409 0.7241 0.7651 0.0
C2405 C 0.34039 0.66317 0.77144 0.0
C2406 C 0.29448 0.74527 0.75575 0.0
C2407 C 0.28055 0.7294 0.74278 0.0
C2408 C 0.31977 0.68653 0.76159 0.0
C2409 C 0.28735 0.69194 0.73946 0.0
C2410 C 0.34303 0.62457 0.76914 0.0
C2411 C 0.37811 0.65971 0.79152 0.0
N2412 N 0.30634 0.67176 0.74884 0.0
N2413 N 0.35771 0.67933 0.78269 0.0
H2414 H 0.47645 0.04448 0.7249 0.0
H2415 H 0.36366 0.05337 0.79772 0.0
H2416 H 0.46766 0.95411 0.75709 0.0
H2417 H 0.38915 0.14985 0.77105 0.0
H2418 H 0.40036 0.01587 0.78273 0.0
H2419 H 0.44201 0.08237 0.74094 0.0
C2420 C 0.46711 0.03246 0.73527 0.0
C2421 C 0.47505 -0.00401 0.73962 0.0
C2422 C 0.39811 0.04533 0.78026 0.0
C2423 C 0.43564 0.03941 0.75813 0.0
C2424 C 0.37726 0.06684 0.78888 0.0
C2425 C 0.37314 0.10493 0.78568 0.0
C2426 C 0.41481 0.06185 0.76822 0.0
C2427 C 0.39141 0.12066 0.77398 0.0
C2428 C 0.44761 0.05424 0.74449 0.0
C2429 C 0.4623 0.98209 0.75327 0.0
N2430 N 0.41115 0.09904 0.76562 0.0
N2431 N 0.44324 0.00375 0.762 0.0
loop_
_geom_bond_atom_site_label_1
_geom_bond_atom_site_label_2
_geom_bond_distance
_geom_bond_site_symmetry_2
_ccdc_geom_bond_type
Fe0 O2 1.918 . S
Fe0 O5 1.997 . S
Fe0 O6 2.002 1_455 S
Fe0 O11 1.976 . S
Fe0 O14 1.996 . S
Fe1 O2 1.918 . S
Fe1 O9 1.997 . S
Fe1 O12 1.996 . S
Fe1 O16 1.976 . S
Fe1 O19 2.002 . S
O2 Fe0 1.918 . S
O2 Fe1 1.918 . S
O2 Fe3 1.918 . S
Fe3 O2 1.918 . S
Fe3 O4 2.002 . S
Fe3 O13 1.976 . S
Fe3 O17 1.996 . S
Fe3 O20 1.997 . S
O4 Fe3 2.002 . S
O4 C21 1.295 . S
O5 Fe0 1.997 . S
O5 C21 1.235 . S
O6 Fe0 2.002 1_655 S
O6 C7 1.295 . S
C7 O6 1.295 . S
C7 O9 1.235 1_655 S
C8 O13 1.287 . S
C8 O14 1.255 . S
O9 Fe1 1.997 . S
O9 C7 1.235 1_455 S
C10 O16 1.287 . S
C10 O17 1.255 . S
O11 Fe0 1.976 . S
O11 C18 1.287 . S
O12 Fe1 1.996 . S
O12 C18 1.255 . S
O13 Fe3 1.976 . S
O13 C8 1.287 . S
O14 Fe0 1.996 . S
O14 C8 1.255 . S
C15 O19 1.295 . S
C15 O20 1.235 . S
O16 Fe1 1.976 . S
O16 C10 1.287 . S
O17 Fe3 1.996 . S
O17 C10 1.255 . S
C18 O11 1.287 . S
C18 O12 1.255 . S
O19 Fe1 2.002 . S
O19 C15 1.295 . S
O20 Fe3 1.997 . S
O20 C15 1.235 . S
C21 O4 1.295 . S
C21 O5 1.235 . S
Fe22 O24 1.918 . S
Fe22 O27 1.997 . S
Fe22 O28 2.002 . S
Fe22 O33 1.976 . S
Fe22 O36 1.996 . S
Fe23 O24 1.918 . S
Fe23 O31 1.997 . S
Fe23 O34 1.996 1_565 S
Fe23 O38 1.976 . S
Fe23 O41 2.002 . S
O24 Fe22 1.918 . S
O24 Fe23 1.918 . S
O24 Fe25 1.918 . S
Fe25 O24 1.918 . S
Fe25 O26 2.002 . S
Fe25 O35 1.976 . S
Fe25 O39 1.996 . S
Fe25 O42 1.997 . S
O26 Fe25 2.002 . S
O26 C43 1.295 . S
O27 Fe22 1.997 . S
O27 C43 1.235 . S
O28 Fe22 2.002 . S
O28 C29 1.295 . S
C29 O28 1.295 . S
C29 O31 1.235 . S
C30 O35 1.287 . S
C30 O36 1.255 . S
O31 Fe23 1.997 . S
O31 C29 1.235 . S
C32 O38 1.287 . S
C32 O39 1.255 . S
O33 Fe22 1.976 . S
O33 C40 1.287 1_565 S
O34 Fe23 1.996 1_545 S
O34 C40 1.255 . S
O35 Fe25 1.976 . S
O35 C30 1.287 . S
O36 Fe22 1.996 . S
O36 C30 1.255 . S
C37 O41 1.295 . S
C37 O42 1.235 . S
O38 Fe23 1.976 . S
O38 C32 1.287 . S
O39 Fe25 1.996 . S
O39 C32 1.255 . S
C40 O33 1.287 1_545 S
C40 O34 1.255 . S
O41 Fe23 2.002 . S
O41 C37 1.295 . S
O42 Fe25 1.997 . S
O42 C37 1.235 . S
C43 O26 1.295 . S
C43 O27 1.235 . S
Fe44 O46 1.918 . S
Fe44 O49 1.997 . S
Fe44 O50 2.002 1_455 S
Fe44 O55 1.976 . S
Fe44 O58 1.996 1_565 S
Fe45 O46 1.918 . S
Fe45 O53 1.997 . S
Fe45 O56 1.996 . S
Fe45 O60 1.976 . S
Fe45 O63 2.002 . S
O46 Fe44 1.918 . S
O46 Fe45 1.918 . S
O46 Fe47 1.918 . S
Fe47 O46 1.918 . S
Fe47 O48 2.002 . S
Fe47 O57 1.976 . S
Fe47 O61 1.996 . S
Fe47 O64 1.997 . S
O48 Fe47 2.002 . S
O48 C65 1.295 . S
O49 Fe44 1.997 . S
O49 C65 1.235 . S
O50 Fe44 2.002 1_655 S
O50 C51 1.295 . S
C51 O50 1.295 . S
C51 O53 1.235 1_655 S
C52 O57 1.287 1_545 S
C52 O58 1.255 . S
O53 Fe45 1.997 . S
O53 C51 1.235 1_455 S
C54 O60 1.287 . S
C54 O61 1.255 . S
O55 Fe44 1.976 . S
O55 C62 1.287 . S
O56 Fe45 1.996 . S
O56 C62 1.255 . S
O57 Fe47 1.976 . S
O57 C52 1.287 1_565 S
O58 Fe44 1.996 1_545 S
O58 C52 1.255 . S
C59 O63 1.295 . S
C59 O64 1.235 . S
O60 Fe45 1.976 . S
O60 C54 1.287 . S
O61 Fe47 1.996 . S
O61 C54 1.255 . S
C62 O55 1.287 . S
C62 O56 1.255 . S
O63 Fe45 2.002 . S
O63 C59 1.295 . S
O64 Fe47 1.997 . S
O64 C59 1.235 . S
C65 O48 1.295 . S
C65 O49 1.235 . S
Fe66 O68 1.918 . S
Fe66 O71 1.997 . S
Fe66 O72 2.002 . S
Fe66 O77 1.976 . S
Fe66 O80 1.996 . S
Fe67 O68 1.918 . S
Fe67 O75 1.997 . S
Fe67 O78 1.996 . S
Fe67 O82 1.976 . S
Fe67 O85 2.002 . S
O68 Fe66 1.918 . S
O68 Fe67 1.918 . S
O68 Fe69 1.918 . S
Fe69 O68 1.918 . S
Fe69 O70 2.002 . S
Fe69 O79 1.976 . S
Fe69 O83 1.996 . S
Fe69 O86 1.997 . S
O70 Fe69 2.002 . S
O70 C87 1.295 . S
O71 Fe66 1.997 . S
O71 C87 1.235 . S
O72 Fe66 2.002 . S
O72 C73 1.295 . S
C73 O72 1.295 . S
C73 O75 1.235 . S
C74 O79 1.287 . S
C74 O80 1.255 . S
O75 Fe67 1.997 . S
O75 C73 1.235 . S
C76 O82 1.287 . S
C76 O83 1.255 . S
O77 Fe66 1.976 . S
O77 C84 1.287 . S
O78 Fe67 1.996 . S
O78 C84 1.255 . S
O79 Fe69 1.976 . S
O79 C74 1.287 . S
O80 Fe66 1.996 . S
O80 C74 1.255 . S
C81 O85 1.295 . S
C81 O86 1.235 . S
O82 Fe67 1.976 . S
O82 C76 1.287 . S
O83 Fe69 1.996 . S
O83 C76 1.255 . S
C84 O77 1.287 . S
C84 O78 1.255 . S
O85 Fe67 2.002 . S
O85 C81 1.295 . S
O86 Fe69 1.997 . S
O86 C81 1.235 . S
C87 O70 1.295 . S
C87 O71 1.235 . S
Fe88 O90 1.918 . S
Fe88 O93 1.997 . S
Fe88 O94 2.002 . S
Fe88 O99 1.976 . S
Fe88 O102 1.996 . S
Fe89 O90 1.918 . S
Fe89 O97 1.997 . S
Fe89 O100 1.996 . S
Fe89 O104 1.976 . S
Fe89 O107 2.002 . S
O90 Fe88 1.918 . S
O90 Fe89 1.918 . S
O90 Fe91 1.918 . S
Fe91 O90 1.918 . S
Fe91 O92 2.002 . S
Fe91 O101 1.976 . S
Fe91 O105 1.996 . S
Fe91 O108 1.997 1_655 S
O92 Fe91 2.002 . S
O92 C109 1.295 . S
O93 Fe88 1.997 . S
O93 C109 1.235 . S
O94 Fe88 2.002 . S
O94 C95 1.295 . S
C95 O94 1.295 . S
C95 O97 1.235 . S
C96 O101 1.287 . S
C96 O102 1.255 . S
O97 Fe89 1.997 . S
O97 C95 1.235 . S
C98 O104 1.287 . S
C98 O105 1.255 . S
O99 Fe88 1.976 . S
O99 C106 1.287 . S
O100 Fe89 1.996 . S
O100 C106 1.255 . S
O101 Fe91 1.976 . S
O101 C96 1.287 . S
O102 Fe88 1.996 . S
O102 C96 1.255 . S
C103 O107 1.295 1_455 S
C103 O108 1.235 . S
O104 Fe89 1.976 . S
O104 C98 1.287 . S
O105 Fe91 1.996 . S
O105 C98 1.255 . S
C106 O99 1.287 . S
C106 O100 1.255 . S
O107 Fe89 2.002 . S
O107 C103 1.295 1_655 S
O108 Fe91 1.997 1_455 S
O108 C103 1.235 . S
C109 O92 1.295 . S
C109 O93 1.235 . S
Fe110 O112 1.918 . S
Fe110 O115 1.997 . S
Fe110 O116 2.002 . S
Fe110 O121 1.976 . S
Fe110 O124 1.996 . S
Fe111 O112 1.918 . S
Fe111 O119 1.997 . S
Fe111 O122 1.996 . S
Fe111 O126 1.976 . S
Fe111 O129 2.002 . S
O112 Fe110 1.918 . S
O112 Fe111 1.918 . S
O112 Fe113 1.918 . S
Fe113 O112 1.918 . S
Fe113 O114 2.002 . S
Fe113 O123 1.976 . S
Fe113 O127 1.996 . S
Fe113 O130 1.997 . S
O114 Fe113 2.002 . S
O114 C131 1.295 . S
O115 Fe110 1.997 . S
O115 C131 1.235 . S
O116 Fe110 2.002 . S
O116 C117 1.295 . S
C117 O116 1.295 . S
C117 O119 1.235 . S
C118 O123 1.287 . S
C118 O124 1.255 . S
O119 Fe111 1.997 . S
O119 C117 1.235 . S
C120 O126 1.287 . S
C120 O127 1.255 . S
O121 Fe110 1.976 . S
O121 C128 1.287 1_545 S
O122 Fe111 1.996 . S
O122 C128 1.255 1_545 S
O123 Fe113 1.976 . S
O123 C118 1.287 . S
O124 Fe110 1.996 . S
O124 C118 1.255 . S
C125 O129 1.295 . S
C125 O130 1.235 . S
O126 Fe111 1.976 . S
O126 C120 1.287 . S
O127 Fe113 1.996 . S
O127 C120 1.255 . S
C128 O121 1.287 1_565 S
C128 O122 1.255 1_565 S
O129 Fe111 2.002 . S
O129 C125 1.295 . S
O130 Fe113 1.997 . S
O130 C125 1.235 . S
C131 O114 1.295 . S
C131 O115 1.235 . S
Fe132 O134 1.918 . S
Fe132 O137 1.997 . S
Fe132 O138 2.002 . S
Fe132 O143 1.976 . S
Fe132 O146 1.996 . S
Fe133 O134 1.918 . S
Fe133 O141 1.997 1_655 S
Fe133 O144 1.996 . S
Fe133 O148 1.976 . S
Fe133 O151 2.002 . S
O134 Fe132 1.918 . S
O134 Fe133 1.918 . S
O134 Fe135 1.918 . S
Fe135 O134 1.918 . S
Fe135 O136 2.002 . S
Fe135 O145 1.976 . S
Fe135 O149 1.996 . S
Fe135 O152 1.997 . S
O136 Fe135 2.002 . S
O136 C153 1.295 . S
O137 Fe132 1.997 . S
O137 C153 1.235 . S
O138 Fe132 2.002 . S
O138 C139 1.295 1_655 S
C139 O138 1.295 1_455 S
C139 O141 1.235 . S
C140 O145 1.287 . S
C140 O146 1.255 . S
O141 Fe133 1.997 1_455 S
O141 C139 1.235 . S
C142 O148 1.287 1_565 S
C142 O149 1.255 1_565 S
O143 Fe132 1.976 . S
O143 C150 1.287 . S
O144 Fe133 1.996 . S
O144 C150 1.255 . S
O145 Fe135 1.976 . S
O145 C140 1.287 . S
O146 Fe132 1.996 . S
O146 C140 1.255 . S
C147 O151 1.295 . S
C147 O152 1.235 . S
O148 Fe133 1.976 . S
O148 C142 1.287 1_545 S
O149 Fe135 1.996 . S
O149 C142 1.255 1_545 S
C150 O143 1.287 . S
C150 O144 1.255 . S
O151 Fe133 2.002 . S
O151 C147 1.295 . S
O152 Fe135 1.997 . S
O152 C147 1.235 . S
C153 O136 1.295 . S
C153 O137 1.235 . S
Fe154 O156 1.918 . S
Fe154 O159 1.997 . S
Fe154 O160 2.002 . S
Fe154 O165 1.976 . S
Fe154 O168 1.996 . S
Fe155 O156 1.918 . S
Fe155 O163 1.997 . S
Fe155 O166 1.996 . S
Fe155 O170 1.976 . S
Fe155 O173 2.002 . S
O156 Fe154 1.918 . S
O156 Fe155 1.918 . S
O156 Fe157 1.918 . S
Fe157 O156 1.918 . S
Fe157 O158 2.002 . S
Fe157 O167 1.976 . S
Fe157 O171 1.996 . S
Fe157 O174 1.997 . S
O158 Fe157 2.002 . S
O158 C175 1.295 . S
O159 Fe154 1.997 . S
O159 C175 1.235 . S
O160 Fe154 2.002 . S
O160 C161 1.295 . S
C161 O160 1.295 . S
C161 O163 1.235 . S
C162 O167 1.287 . S
C162 O168 1.255 . S
O163 Fe155 1.997 . S
O163 C161 1.235 . S
C164 O170 1.287 . S
C164 O171 1.255 . S
O165 Fe154 1.976 . S
O165 C172 1.287 . S
O166 Fe155 1.996 . S
O166 C172 1.255 . S
O167 Fe157 1.976 . S
O167 C162 1.287 . S
O168 Fe154 1.996 . S
O168 C162 1.255 . S
C169 O173 1.295 . S
C169 O174 1.235 . S
O170 Fe155 1.976 . S
O170 C164 1.287 . S
O171 Fe157 1.996 . S
O171 C164 1.255 . S
C172 O165 1.287 . S
C172 O166 1.255 . S
O173 Fe155 2.002 . S
O173 C169 1.295 . S
O174 Fe157 1.997 . S
O174 C169 1.235 . S
C175 O158 1.295 . S
C175 O159 1.235 . S
Fe176 O178 1.918 . S
Fe176 O181 1.997 . S
Fe176 O182 2.002 . S
Fe176 O187 1.976 . S
Fe176 O190 1.996 . S
Fe177 O178 1.918 . S
Fe177 O185 1.997 . S
Fe177 O188 1.996 . S
Fe177 O192 1.976 . S
Fe177 O195 2.002 . S
O178 Fe176 1.918 . S
O178 Fe177 1.918 . S
O178 Fe179 1.918 . S
Fe179 O178 1.918 . S
Fe179 O180 2.002 1_455 S
Fe179 O189 1.976 . S
Fe179 O193 1.996 . S
Fe179 O196 1.997 . S
O180 Fe179 2.002 1_655 S
O180 C197 1.295 . S
O181 Fe176 1.997 . S
O181 C197 1.235 1_455 S
O182 Fe176 2.002 . S
O182 C183 1.295 . S
C183 O182 1.295 . S
C183 O185 1.235 . S
C184 O189 1.287 . S
C184 O190 1.255 . S
O185 Fe177 1.997 . S
O185 C183 1.235 . S
C186 O192 1.287 . S
C186 O193 1.255 . S
O187 Fe176 1.976 . S
O187 C194 1.287 . S
O188 Fe177 1.996 . S
O188 C194 1.255 . S
O189 Fe179 1.976 . S
O189 C184 1.287 . S
O190 Fe176 1.996 . S
O190 C184 1.255 . S
C191 O195 1.295 . S
C191 O196 1.235 . S
O192 Fe177 1.976 . S
O192 C186 1.287 . S
O193 Fe179 1.996 . S
O193 C186 1.255 . S
C194 O187 1.287 . S
C194 O188 1.255 . S
O195 Fe177 2.002 . S
O195 C191 1.295 . S
O196 Fe179 1.997 . S
O196 C191 1.235 . S
C197 O180 1.295 . S
C197 O181 1.235 1_655 S
Fe198 O200 1.918 . S
Fe198 O203 1.997 . S
Fe198 O204 2.002 . S
Fe198 O209 1.976 . S
Fe198 O212 1.996 . S
Fe199 O200 1.918 . S
Fe199 O207 1.997 . S
Fe199 O210 1.996 . S
Fe199 O214 1.976 . S
Fe199 O217 2.002 . S
O200 Fe198 1.918 . S
O200 Fe199 1.918 . S
O200 Fe201 1.918 . S
Fe201 O200 1.918 . S
Fe201 O202 2.002 . S
Fe201 O211 1.976 . S
Fe201 O215 1.996 . S
Fe201 O218 1.997 . S
O202 Fe201 2.002 . S
O202 C219 1.295 . S
O203 Fe198 1.997 . S
O203 C219 1.235 . S
O204 Fe198 2.002 . S
O204 C205 1.295 . S
C205 O204 1.295 . S
C205 O207 1.235 . S
C206 O211 1.287 . S
C206 O212 1.255 . S
O207 Fe199 1.997 . S
O207 C205 1.235 . S
C208 O214 1.287 . S
C208 O215 1.255 . S
O209 Fe198 1.976 . S
O209 C216 1.287 . S
O210 Fe199 1.996 . S
O210 C216 1.255 . S
O211 Fe201 1.976 . S
O211 C206 1.287 . S
O212 Fe198 1.996 . S
O212 C206 1.255 . S
C213 O217 1.295 . S
C213 O218 1.235 . S
O214 Fe199 1.976 . S
O214 C208 1.287 . S
O215 Fe201 1.996 . S
O215 C208 1.255 . S
C216 O209 1.287 . S
C216 O210 1.255 . S
O217 Fe199 2.002 . S
O217 C213 1.295 . S
O218 Fe201 1.997 . S
O218 C213 1.235 . S
C219 O202 1.295 . S
C219 O203 1.235 . S
Fe220 O222 1.918 . S
Fe220 O225 1.997 . S
Fe220 O226 2.002 1_455 S
Fe220 O231 1.976 . S
Fe220 O234 1.996 . S
Fe221 O222 1.918 . S
Fe221 O229 1.997 . S
Fe221 O232 1.996 . S
Fe221 O236 1.976 . S
Fe221 O239 2.002 . S
O222 Fe220 1.918 . S
O222 Fe221 1.918 . S
O222 Fe223 1.918 . S
Fe223 O222 1.918 . S
Fe223 O224 2.002 . S
Fe223 O233 1.976 . S
Fe223 O237 1.996 . S
Fe223 O240 1.997 . S
O224 Fe223 2.002 . S
O224 C241 1.295 . S
O225 Fe220 1.997 . S
O225 C241 1.235 . S
O226 Fe220 2.002 1_655 S
O226 C227 1.295 . S
C227 O226 1.295 . S
C227 O229 1.235 1_655 S
C228 O233 1.287 . S
C228 O234 1.255 . S
O229 Fe221 1.997 . S
O229 C227 1.235 1_455 S
C230 O236 1.287 . S
C230 O237 1.255 . S
O231 Fe220 1.976 . S
O231 C238 1.287 . S
O232 Fe221 1.996 . S
O232 C238 1.255 . S
O233 Fe223 1.976 . S
O233 C228 1.287 . S
O234 Fe220 1.996 . S
O234 C228 1.255 . S
C235 O239 1.295 . S
C235 O240 1.235 . S
O236 Fe221 1.976 . S
O236 C230 1.287 . S
O237 Fe223 1.996 . S
O237 C230 1.255 . S
C238 O231 1.287 . S
C238 O232 1.255 . S
O239 Fe221 2.002 . S
O239 C235 1.295 . S
O240 Fe223 1.997 . S
O240 C235 1.235 . S
C241 O224 1.295 . S
C241 O225 1.235 . S
Fe242 O244 1.918 . S
Fe242 O247 1.997 . S
Fe242 O248 2.002 . S
Fe242 O253 1.976 . S
Fe242 O256 1.996 . S
Fe243 O244 1.918 . S
Fe243 O251 1.997 . S
Fe243 O254 1.996 . S
Fe243 O258 1.976 . S
Fe243 O261 2.002 . S
O244 Fe242 1.918 . S
O244 Fe243 1.918 . S
O244 Fe245 1.918 . S
Fe245 O244 1.918 . S
Fe245 O246 2.002 . S
Fe245 O255 1.976 . S
Fe245 O259 1.996 . S
Fe245 O262 1.997 . S
O246 Fe245 2.002 . S
O246 C263 1.295 . S
O247 Fe242 1.997 . S
O247 C263 1.235 . S
O248 Fe242 2.002 . S
O248 C249 1.295 . S
C249 O248 1.295 . S
C249 O251 1.235 . S
C250 O255 1.287 . S
C250 O256 1.255 . S
O251 Fe243 1.997 . S
O251 C249 1.235 . S
C252 O258 1.287 . S
C252 O259 1.255 . S
O253 Fe242 1.976 . S
O253 C260 1.287 . S
O254 Fe243 1.996 . S
O254 C260 1.255 . S
O255 Fe245 1.976 . S
O255 C250 1.287 . S
O256 Fe242 1.996 . S
O256 C250 1.255 . S
C257 O261 1.295 . S
C257 O262 1.235 . S
O258 Fe243 1.976 . S
O258 C252 1.287 . S
O259 Fe245 1.996 . S
O259 C252 1.255 . S
C260 O253 1.287 . S
C260 O254 1.255 . S
O261 Fe243 2.002 . S
O261 C257 1.295 . S
O262 Fe245 1.997 . S
O262 C257 1.235 . S
C263 O246 1.295 . S
C263 O247 1.235 . S
Fe264 O266 1.918 . S
Fe264 O269 1.997 . S
Fe264 O270 2.002 . S
Fe264 O275 1.976 . S
Fe264 O278 1.996 . S
Fe265 O266 1.918 . S
Fe265 O273 1.997 . S
Fe265 O276 1.996 . S
Fe265 O280 1.976 . S
Fe265 O283 2.002 . S
O266 Fe264 1.918 . S
O266 Fe265 1.918 . S
O266 Fe267 1.918 . S
Fe267 O266 1.918 . S
Fe267 O268 2.002 . S
Fe267 O277 1.976 . S
Fe267 O281 1.996 . S
Fe267 O284 1.997 1_655 S
O268 Fe267 2.002 . S
O268 C285 1.295 . S
O269 Fe264 1.997 . S
O269 C285 1.235 . S
O270 Fe264 2.002 . S
O270 C271 1.295 . S
C271 O270 1.295 . S
C271 O273 1.235 . S
C272 O277 1.287 . S
C272 O278 1.255 . S
O273 Fe265 1.997 . S
O273 C271 1.235 . S
C274 O280 1.287 . S
C274 O281 1.255 . S
O275 Fe264 1.976 . S
O275 C282 1.287 . S
O276 Fe265 1.996 . S
O276 C282 1.255 . S
O277 Fe267 1.976 . S
O277 C272 1.287 . S
O278 Fe264 1.996 . S
O278 C272 1.255 . S
C279 O283 1.295 1_455 S
C279 O284 1.235 . S
O280 Fe265 1.976 . S
O280 C274 1.287 . S
O281 Fe267 1.996 . S
O281 C274 1.255 . S
C282 O275 1.287 . S
C282 O276 1.255 . S
O283 Fe265 2.002 . S
O283 C279 1.295 1_655 S
O284 Fe267 1.997 1_455 S
O284 C279 1.235 . S
C285 O268 1.295 . S
C285 O269 1.235 . S
Fe286 O288 1.918 . S
Fe286 O291 1.997 . S
Fe286 O292 2.002 . S
Fe286 O297 1.976 . S
Fe286 O300 1.996 . S
Fe287 O288 1.918 . S
Fe287 O295 1.997 . S
Fe287 O298 1.996 . S
Fe287 O302 1.976 . S
Fe287 O305 2.002 . S
O288 Fe286 1.918 . S
O288 Fe287 1.918 . S
O288 Fe289 1.918 . S
Fe289 O288 1.918 . S
Fe289 O290 2.002 . S
Fe289 O299 1.976 . S
Fe289 O303 1.996 . S
Fe289 O306 1.997 . S
O290 Fe289 2.002 . S
O290 C307 1.295 . S
O291 Fe286 1.997 . S
O291 C307 1.235 . S
O292 Fe286 2.002 . S
O292 C293 1.295 . S
C293 O292 1.295 . S
C293 O295 1.235 . S
C294 O299 1.287 . S
C294 O300 1.255 . S
O295 Fe287 1.997 . S
O295 C293 1.235 . S
C296 O302 1.287 . S
C296 O303 1.255 . S
O297 Fe286 1.976 . S
O297 C304 1.287 . S
O298 Fe287 1.996 . S
O298 C304 1.255 . S
O299 Fe289 1.976 . S
O299 C294 1.287 . S
O300 Fe286 1.996 . S
O300 C294 1.255 . S
C301 O305 1.295 . S
C301 O306 1.235 . S
O302 Fe287 1.976 . S
O302 C296 1.287 . S
O303 Fe289 1.996 . S
O303 C296 1.255 . S
C304 O297 1.287 . S
C304 O298 1.255 . S
O305 Fe287 2.002 . S
O305 C301 1.295 . S
O306 Fe289 1.997 . S
O306 C301 1.235 . S
C307 O290 1.295 . S
C307 O291 1.235 . S
Fe308 O310 1.918 . S
Fe308 O313 1.997 . S
Fe308 O314 2.002 . S
Fe308 O319 1.976 . S
Fe308 O322 1.996 . S
Fe309 O310 1.918 . S
Fe309 O317 1.997 1_655 S
Fe309 O320 1.996 . S
Fe309 O324 1.976 . S
Fe309 O327 2.002 . S
O310 Fe308 1.918 . S
O310 Fe309 1.918 . S
O310 Fe311 1.918 . S
Fe311 O310 1.918 . S
Fe311 O312 2.002 . S
Fe311 O321 1.976 . S
Fe311 O325 1.996 . S
Fe311 O328 1.997 . S
O312 Fe311 2.002 . S
O312 C329 1.295 . S
O313 Fe308 1.997 . S
O313 C329 1.235 . S
O314 Fe308 2.002 . S
O314 C315 1.295 1_655 S
C315 O314 1.295 1_455 S
C315 O317 1.235 . S
C316 O321 1.287 . S
C316 O322 1.255 . S
O317 Fe309 1.997 1_455 S
O317 C315 1.235 . S
C318 O324 1.287 . S
C318 O325 1.255 . S
O319 Fe308 1.976 . S
O319 C326 1.287 . S
O320 Fe309 1.996 . S
O320 C326 1.255 . S
O321 Fe311 1.976 . S
O321 C316 1.287 . S
O322 Fe308 1.996 . S
O322 C316 1.255 . S
C323 O327 1.295 . S
C323 O328 1.235 . S
O324 Fe309 1.976 . S
O324 C318 1.287 . S
O325 Fe311 1.996 . S
O325 C318 1.255 . S
C326 O319 1.287 . S
C326 O320 1.255 . S
O327 Fe309 2.002 . S
O327 C323 1.295 . S
O328 Fe311 1.997 . S
O328 C323 1.235 . S
C329 O312 1.295 . S
C329 O313 1.235 . S
Fe330 O332 1.918 . S
Fe330 O335 1.997 . S
Fe330 O336 2.002 . S
Fe330 O341 1.976 . S
Fe330 O344 1.996 . S
Fe331 O332 1.918 . S
Fe331 O339 1.997 . S
Fe331 O342 1.996 . S
Fe331 O346 1.976 . S
Fe331 O349 2.002 . S
O332 Fe330 1.918 . S
O332 Fe331 1.918 . S
O332 Fe333 1.918 . S
Fe333 O332 1.918 . S
Fe333 O334 2.002 . S
Fe333 O343 1.976 . S
Fe333 O347 1.996 . S
Fe333 O350 1.997 . S
O334 Fe333 2.002 . S
O334 C351 1.295 . S
O335 Fe330 1.997 . S
O335 C351 1.235 . S
O336 Fe330 2.002 . S
O336 C337 1.295 . S
C337 O336 1.295 . S
C337 O339 1.235 . S
C338 O343 1.287 . S
C338 O344 1.255 . S
O339 Fe331 1.997 . S
O339 C337 1.235 . S
C340 O346 1.287 . S
C340 O347 1.255 . S
O341 Fe330 1.976 . S
O341 C348 1.287 . S
O342 Fe331 1.996 . S
O342 C348 1.255 . S
O343 Fe333 1.976 . S
O343 C338 1.287 . S
O344 Fe330 1.996 . S
O344 C338 1.255 . S
C345 O349 1.295 . S
C345 O350 1.235 . S
O346 Fe331 1.976 . S
O346 C340 1.287 . S
O347 Fe333 1.996 . S
O347 C340 1.255 . S
C348 O341 1.287 . S
C348 O342 1.255 . S
O349 Fe331 2.002 . S
O349 C345 1.295 . S
O350 Fe333 1.997 . S
O350 C345 1.235 . S
C351 O334 1.295 . S
C351 O335 1.235 . S
Fe352 O354 1.918 . S
Fe352 O357 1.997 . S
Fe352 O358 2.002 . S
Fe352 O363 1.976 . S
Fe352 O366 1.996 . S
Fe353 O354 1.918 . S
Fe353 O361 1.997 . S
Fe353 O364 1.996 . S
Fe353 O368 1.976 . S
Fe353 O371 2.002 . S
O354 Fe352 1.918 . S
O354 Fe353 1.918 . S
O354 Fe355 1.918 . S
Fe355 O354 1.918 . S
Fe355 O356 2.002 . S
Fe355 O365 1.976 . S
Fe355 O369 1.996 . S
Fe355 O372 1.997 . S
O356 Fe355 2.002 . S
O356 C373 1.295 . S
O357 Fe352 1.997 . S
O357 C373 1.235 . S
O358 Fe352 2.002 . S
O358 C359 1.295 . S
C359 O358 1.295 . S
C359 O361 1.235 . S
C360 O365 1.287 . S
C360 O366 1.255 . S
O361 Fe353 1.997 . S
O361 C359 1.235 . S
C362 O368 1.287 . S
C362 O369 1.255 . S
O363 Fe352 1.976 . S
O363 C370 1.287 . S
O364 Fe353 1.996 . S
O364 C370 1.255 . S
O365 Fe355 1.976 . S
O365 C360 1.287 . S
O366 Fe352 1.996 . S
O366 C360 1.255 . S
C367 O371 1.295 . S
C367 O372 1.235 . S
O368 Fe353 1.976 . S
O368 C362 1.287 . S
O369 Fe355 1.996 . S
O369 C362 1.255 . S
C370 O363 1.287 . S
C370 O364 1.255 . S
O371 Fe353 2.002 . S
O371 C367 1.295 . S
O372 Fe355 1.997 . S
O372 C367 1.235 . S
C373 O356 1.295 . S
C373 O357 1.235 . S
Fe374 O376 1.918 . S
Fe374 O379 1.997 . S
Fe374 O380 2.002 . S
Fe374 O385 1.976 . S
Fe374 O388 1.996 . S
Fe375 O376 1.918 . S
Fe375 O383 1.997 . S
Fe375 O386 1.996 1_565 S
Fe375 O390 1.976 . S
Fe375 O393 2.002 . S
O376 Fe374 1.918 . S
O376 Fe375 1.918 . S
O376 Fe377 1.918 . S
Fe377 O376 1.918 . S
Fe377 O378 2.002 . S
Fe377 O387 1.976 . S
Fe377 O391 1.996 . S
Fe377 O394 1.997 . S
O378 Fe377 2.002 . S
O378 C395 1.295 . S
O379 Fe374 1.997 . S
O379 C395 1.235 . S
O380 Fe374 2.002 . S
O380 C381 1.295 . S
C381 O380 1.295 . S
C381 O383 1.235 . S
C382 O387 1.287 . S
C382 O388 1.255 . S
O383 Fe375 1.997 . S
O383 C381 1.235 . S
C384 O390 1.287 . S
C384 O391 1.255 . S
O385 Fe374 1.976 . S
O385 C392 1.287 1_565 S
O386 Fe375 1.996 1_545 S
O386 C392 1.255 . S
O387 Fe377 1.976 . S
O387 C382 1.287 . S
O388 Fe374 1.996 . S
O388 C382 1.255 . S
C389 O393 1.295 . S
C389 O394 1.235 . S
O390 Fe375 1.976 . S
O390 C384 1.287 . S
O391 Fe377 1.996 . S
O391 C384 1.255 . S
C392 O385 1.287 1_545 S
C392 O386 1.255 . S
O393 Fe375 2.002 . S
O393 C389 1.295 . S
O394 Fe377 1.997 . S
O394 C389 1.235 . S
C395 O378 1.295 . S
C395 O379 1.235 . S
Fe396 O398 1.918 . S
Fe396 O401 1.997 . S
Fe396 O402 2.002 . S
Fe396 O407 1.976 . S
Fe396 O410 1.996 . S
Fe397 O398 1.918 . S
Fe397 O405 1.997 . S
Fe397 O408 1.996 . S
Fe397 O412 1.976 . S
Fe397 O415 2.002 . S
O398 Fe396 1.918 . S
O398 Fe397 1.918 . S
O398 Fe399 1.918 . S
Fe399 O398 1.918 . S
Fe399 O400 2.002 . S
Fe399 O409 1.976 . S
Fe399 O413 1.996 1_565 S
Fe399 O416 1.997 . S
O400 Fe399 2.002 . S
O400 C417 1.295 . S
O401 Fe396 1.997 . S
O401 C417 1.235 . S
O402 Fe396 2.002 . S
O402 C403 1.295 . S
C403 O402 1.295 . S
C403 O405 1.235 . S
C404 O409 1.287 . S
C404 O410 1.255 . S
O405 Fe397 1.997 . S
O405 C403 1.235 . S
C406 O412 1.287 1_545 S
C406 O413 1.255 . S
O407 Fe396 1.976 . S
O407 C414 1.287 . S
O408 Fe397 1.996 . S
O408 C414 1.255 . S
O409 Fe399 1.976 . S
O409 C404 1.287 . S
O410 Fe396 1.996 . S
O410 C404 1.255 . S
C411 O415 1.295 . S
C411 O416 1.235 . S
O412 Fe397 1.976 . S
O412 C406 1.287 1_565 S
O413 Fe399 1.996 1_545 S
O413 C406 1.255 . S
C414 O407 1.287 . S
C414 O408 1.255 . S
O415 Fe397 2.002 . S
O415 C411 1.295 . S
O416 Fe399 1.997 . S
O416 C411 1.235 . S
C417 O400 1.295 . S
C417 O401 1.235 . S
Fe418 O420 1.918 . S
Fe418 O423 1.997 . S
Fe418 O424 2.002 . S
Fe418 O429 1.976 . S
Fe418 O432 1.996 . S
Fe419 O420 1.918 . S
Fe419 O427 1.997 . S
Fe419 O430 1.996 . S
Fe419 O434 1.976 . S
Fe419 O437 2.002 . S
O420 Fe418 1.918 . S
O420 Fe419 1.918 . S
O420 Fe421 1.918 . S
Fe421 O420 1.918 . S
Fe421 O422 2.002 . S
Fe421 O431 1.976 . S
Fe421 O435 1.996 . S
Fe421 O438 1.997 . S
O422 Fe421 2.002 . S
O422 C439 1.295 . S
O423 Fe418 1.997 . S
O423 C439 1.235 . S
O424 Fe418 2.002 . S
O424 C425 1.295 . S
C425 O424 1.295 . S
C425 O427 1.235 . S
C426 O431 1.287 . S
C426 O432 1.255 . S
O427 Fe419 1.997 . S
O427 C425 1.235 . S
C428 O434 1.287 . S
C428 O435 1.255 . S
O429 Fe418 1.976 . S
O429 C436 1.287 . S
O430 Fe419 1.996 . S
O430 C436 1.255 . S
O431 Fe421 1.976 . S
O431 C426 1.287 . S
O432 Fe418 1.996 . S
O432 C426 1.255 . S
C433 O437 1.295 . S
C433 O438 1.235 . S
O434 Fe419 1.976 . S
O434 C428 1.287 . S
O435 Fe421 1.996 . S
O435 C428 1.255 . S
C436 O429 1.287 . S
C436 O430 1.255 . S
O437 Fe419 2.002 . S
O437 C433 1.295 . S
O438 Fe421 1.997 . S
O438 C433 1.235 . S
C439 O422 1.295 . S
C439 O423 1.235 . S
Fe440 O442 1.918 . S
Fe440 O445 1.997 . S
Fe440 O446 2.002 . S
Fe440 O451 1.976 . S
Fe440 O454 1.996 . S
Fe441 O442 1.918 . S
Fe441 O449 1.997 . S
Fe441 O452 1.996 . S
Fe441 O456 1.976 . S
Fe441 O459 2.002 . S
O442 Fe440 1.918 . S
O442 Fe441 1.918 . S
O442 Fe443 1.918 . S
Fe443 O442 1.918 . S
Fe443 O444 2.002 . S
Fe443 O453 1.976 . S
Fe443 O457 1.996 . S
Fe443 O460 1.997 . S
O444 Fe443 2.002 . S
O444 C461 1.295 . S
O445 Fe440 1.997 . S
O445 C461 1.235 . S
O446 Fe440 2.002 . S
O446 C447 1.295 . S
C447 O446 1.295 . S
C447 O449 1.235 . S
C448 O453 1.287 . S
C448 O454 1.255 . S
O449 Fe441 1.997 . S
O449 C447 1.235 . S
C450 O456 1.287 . S
C450 O457 1.255 . S
O451 Fe440 1.976 . S
O451 C458 1.287 . S
O452 Fe441 1.996 . S
O452 C458 1.255 . S
O453 Fe443 1.976 . S
O453 C448 1.287 . S
O454 Fe440 1.996 . S
O454 C448 1.255 . S
C455 O459 1.295 . S
C455 O460 1.235 . S
O456 Fe441 1.976 . S
O456 C450 1.287 . S
O457 Fe443 1.996 . S
O457 C450 1.255 . S
C458 O451 1.287 . S
C458 O452 1.255 . S
O459 Fe441 2.002 . S
O459 C455 1.295 . S
O460 Fe443 1.997 . S
O460 C455 1.235 . S
C461 O444 1.295 . S
C461 O445 1.235 . S
Fe462 O464 1.918 . S
Fe462 O467 1.997 . S
Fe462 O468 2.002 . S
Fe462 O473 1.976 . S
Fe462 O476 1.996 . S
Fe463 O464 1.918 . S
Fe463 O471 1.997 . S
Fe463 O474 1.996 . S
Fe463 O478 1.976 . S
Fe463 O481 2.002 . S
O464 Fe462 1.918 . S
O464 Fe463 1.918 . S
O464 Fe465 1.918 . S
Fe465 O464 1.918 . S
Fe465 O466 2.002 . S
Fe465 O475 1.976 . S
Fe465 O479 1.996 . S
Fe465 O482 1.997 . S
O466 Fe465 2.002 . S
O466 C483 1.295 . S
O467 Fe462 1.997 . S
O467 C483 1.235 . S
O468 Fe462 2.002 . S
O468 C469 1.295 . S
C469 O468 1.295 . S
C469 O471 1.235 . S
C470 O475 1.287 . S
C470 O476 1.255 . S
O471 Fe463 1.997 . S
O471 C469 1.235 . S
C472 O478 1.287 . S
C472 O479 1.255 . S
O473 Fe462 1.976 . S
O473 C480 1.287 1_545 S
O474 Fe463 1.996 . S
O474 C480 1.255 1_545 S
O475 Fe465 1.976 . S
O475 C470 1.287 . S
O476 Fe462 1.996 . S
O476 C470 1.255 . S
C477 O481 1.295 . S
C477 O482 1.235 . S
O478 Fe463 1.976 . S
O478 C472 1.287 . S
O479 Fe465 1.996 . S
O479 C472 1.255 . S
C480 O473 1.287 1_565 S
C480 O474 1.255 1_565 S
O481 Fe463 2.002 . S
O481 C477 1.295 . S
O482 Fe465 1.997 . S
O482 C477 1.235 . S
C483 O466 1.295 . S
C483 O467 1.235 . S
Fe484 O486 1.918 . S
Fe484 O489 1.997 . S
Fe484 O490 2.002 . S
Fe484 O495 1.976 . S
Fe484 O498 1.996 . S
Fe485 O486 1.918 . S
Fe485 O493 1.997 . S
Fe485 O496 1.996 . S
Fe485 O500 1.976 . S
Fe485 O503 2.002 . S
O486 Fe484 1.918 . S
O486 Fe485 1.918 . S
O486 Fe487 1.918 . S
Fe487 O486 1.918 . S
Fe487 O488 2.002 . S
Fe487 O497 1.976 . S
Fe487 O501 1.996 . S
Fe487 O504 1.997 . S
O488 Fe487 2.002 . S
O488 C505 1.295 . S
O489 Fe484 1.997 . S
O489 C505 1.235 . S
O490 Fe484 2.002 . S
O490 C491 1.295 . S
C491 O490 1.295 . S
C491 O493 1.235 . S
C492 O497 1.287 . S
C492 O498 1.255 . S
O493 Fe485 1.997 . S
O493 C491 1.235 . S
C494 O500 1.287 . S
C494 O501 1.255 . S
O495 Fe484 1.976 . S
O495 C502 1.287 1_545 S
O496 Fe485 1.996 . S
O496 C502 1.255 1_545 S
O497 Fe487 1.976 . S
O497 C492 1.287 . S
O498 Fe484 1.996 . S
O498 C492 1.255 . S
C499 O503 1.295 . S
C499 O504 1.235 . S
O500 Fe485 1.976 . S
O500 C494 1.287 . S
O501 Fe487 1.996 . S
O501 C494 1.255 . S
C502 O495 1.287 1_565 S
C502 O496 1.255 1_565 S
O503 Fe485 2.002 . S
O503 C499 1.295 . S
O504 Fe487 1.997 . S
O504 C499 1.235 . S
C505 O488 1.295 . S
C505 O489 1.235 . S
Fe506 O508 1.918 . S
Fe506 O511 1.997 . S
Fe506 O512 2.002 . S
Fe506 O517 1.976 . S
Fe506 O520 1.996 . S
Fe507 O508 1.918 . S
Fe507 O515 1.997 . S
Fe507 O518 1.996 . S
Fe507 O522 1.976 . S
Fe507 O525 2.002 . S
O508 Fe506 1.918 . S
O508 Fe507 1.918 . S
O508 Fe509 1.918 . S
Fe509 O508 1.918 . S
Fe509 O510 2.002 . S
Fe509 O519 1.976 . S
Fe509 O523 1.996 . S
Fe509 O526 1.997 . S
O510 Fe509 2.002 . S
O510 C527 1.295 . S
O511 Fe506 1.997 . S
O511 C527 1.235 . S
O512 Fe506 2.002 . S
O512 C513 1.295 . S
C513 O512 1.295 . S
C513 O515 1.235 . S
C514 O519 1.287 . S
C514 O520 1.255 . S
O515 Fe507 1.997 . S
O515 C513 1.235 . S
C516 O522 1.287 . S
C516 O523 1.255 . S
O517 Fe506 1.976 . S
O517 C524 1.287 . S
O518 Fe507 1.996 . S
O518 C524 1.255 . S
O519 Fe509 1.976 . S
O519 C514 1.287 . S
O520 Fe506 1.996 . S
O520 C514 1.255 . S
C521 O525 1.295 . S
C521 O526 1.235 . S
O522 Fe507 1.976 . S
O522 C516 1.287 . S
O523 Fe509 1.996 . S
O523 C516 1.255 . S
C524 O517 1.287 . S
C524 O518 1.255 . S
O525 Fe507 2.002 . S
O525 C521 1.295 . S
O526 Fe509 1.997 . S
O526 C521 1.235 . S
C527 O510 1.295 . S
C527 O511 1.235 . S
Fe528 O530 1.918 . S
Fe528 O533 1.997 . S
Fe528 O534 2.002 . S
Fe528 O539 1.976 . S
Fe528 O542 1.996 . S
Fe529 O530 1.918 . S
Fe529 O537 1.997 . S
Fe529 O540 1.996 . S
Fe529 O544 1.976 . S
Fe529 O547 2.002 . S
O530 Fe528 1.918 . S
O530 Fe529 1.918 . S
O530 Fe531 1.918 . S
Fe531 O530 1.918 . S
Fe531 O532 2.002 . S
Fe531 O541 1.976 . S
Fe531 O545 1.996 . S
Fe531 O548 1.997 . S
O532 Fe531 2.002 . S
O532 C549 1.295 . S
O533 Fe528 1.997 . S
O533 C549 1.235 . S
O534 Fe528 2.002 . S
O534 C535 1.295 . S
C535 O534 1.295 . S
C535 O537 1.235 . S
C536 O541 1.287 . S
C536 O542 1.255 . S
O537 Fe529 1.997 . S
O537 C535 1.235 . S
C538 O544 1.287 . S
C538 O545 1.255 . S
O539 Fe528 1.976 . S
O539 C546 1.287 . S
O540 Fe529 1.996 . S
O540 C546 1.255 . S
O541 Fe531 1.976 . S
O541 C536 1.287 . S
O542 Fe528 1.996 . S
O542 C536 1.255 . S
C543 O547 1.295 . S
C543 O548 1.235 . S
O544 Fe529 1.976 . S
O544 C538 1.287 . S
O545 Fe531 1.996 . S
O545 C538 1.255 . S
C546 O539 1.287 . S
C546 O540 1.255 . S
O547 Fe529 2.002 . S
O547 C543 1.295 . S
O548 Fe531 1.997 . S
O548 C543 1.235 . S
C549 O532 1.295 . S
C549 O533 1.235 . S
Fe550 O552 1.918 . S
Fe550 O555 1.997 . S
Fe550 O556 2.002 . S
Fe550 O561 1.976 . S
Fe550 O564 1.996 . S
Fe551 O552 1.918 . S
Fe551 O559 1.997 . S
Fe551 O562 1.996 . S
Fe551 O566 1.976 . S
Fe551 O569 2.002 . S
O552 Fe550 1.918 . S
O552 Fe551 1.918 . S
O552 Fe553 1.918 . S
Fe553 O552 1.918 . S
Fe553 O554 2.002 . S
Fe553 O563 1.976 . S
Fe553 O567 1.996 . S
Fe553 O570 1.997 . S
O554 Fe553 2.002 . S
O554 C571 1.295 . S
O555 Fe550 1.997 . S
O555 C571 1.235 . S
O556 Fe550 2.002 . S
O556 C557 1.295 . S
C557 O556 1.295 . S
C557 O559 1.235 . S
C558 O563 1.287 . S
C558 O564 1.255 . S
O559 Fe551 1.997 . S
O559 C557 1.235 . S
C560 O566 1.287 . S
C560 O567 1.255 . S
O561 Fe550 1.976 . S
O561 C568 1.287 . S
O562 Fe551 1.996 . S
O562 C568 1.255 . S
O563 Fe553 1.976 . S
O563 C558 1.287 . S
O564 Fe550 1.996 . S
O564 C558 1.255 . S
C565 O569 1.295 . S
C565 O570 1.235 . S
O566 Fe551 1.976 . S
O566 C560 1.287 . S
O567 Fe553 1.996 . S
O567 C560 1.255 . S
C568 O561 1.287 . S
C568 O562 1.255 . S
O569 Fe551 2.002 . S
O569 C565 1.295 . S
O570 Fe553 1.997 . S
O570 C565 1.235 . S
C571 O554 1.295 . S
C571 O555 1.235 . S
Fe572 O574 1.918 . S
Fe572 O577 1.997 . S
Fe572 O578 2.002 . S
Fe572 O583 1.976 . S
Fe572 O586 1.996 . S
Fe573 O574 1.918 . S
Fe573 O581 1.997 . S
Fe573 O584 1.996 . S
Fe573 O588 1.976 . S
Fe573 O591 2.002 . S
O574 Fe572 1.918 . S
O574 Fe573 1.918 . S
O574 Fe575 1.918 . S
Fe575 O574 1.918 . S
Fe575 O576 2.002 . S
Fe575 O585 1.976 . S
Fe575 O589 1.996 . S
Fe575 O592 1.997 . S
O576 Fe575 2.002 . S
O576 C593 1.295 . S
O577 Fe572 1.997 . S
O577 C593 1.235 . S
O578 Fe572 2.002 . S
O578 C579 1.295 . S
C579 O578 1.295 . S
C579 O581 1.235 . S
C580 O585 1.287 . S
C580 O586 1.255 . S
O581 Fe573 1.997 . S
O581 C579 1.235 . S
C582 O588 1.287 . S
C582 O589 1.255 . S
O583 Fe572 1.976 . S
O583 C590 1.287 . S
O584 Fe573 1.996 . S
O584 C590 1.255 . S
O585 Fe575 1.976 . S
O585 C580 1.287 . S
O586 Fe572 1.996 . S
O586 C580 1.255 . S
C587 O591 1.295 . S
C587 O592 1.235 . S
O588 Fe573 1.976 . S
O588 C582 1.287 . S
O589 Fe575 1.996 . S
O589 C582 1.255 . S
C590 O583 1.287 . S
C590 O584 1.255 . S
O591 Fe573 2.002 . S
O591 C587 1.295 . S
O592 Fe575 1.997 . S
O592 C587 1.235 . S
C593 O576 1.295 . S
C593 O577 1.235 . S
Fe594 O596 1.918 . S
Fe594 O599 1.997 . S
Fe594 O600 2.002 . S
Fe594 O605 1.976 . S
Fe594 O608 1.996 . S
Fe595 O596 1.918 . S
Fe595 O603 1.997 . S
Fe595 O606 1.996 . S
Fe595 O610 1.976 . S
Fe595 O613 2.002 . S
O596 Fe594 1.918 . S
O596 Fe595 1.918 . S
O596 Fe597 1.918 . S
Fe597 O596 1.918 . S
Fe597 O598 2.002 . S
Fe597 O607 1.976 . S
Fe597 O611 1.996 . S
Fe597 O614 1.997 . S
O598 Fe597 2.002 . S
O598 C615 1.295 . S
O599 Fe594 1.997 . S
O599 C615 1.235 . S
O600 Fe594 2.002 . S
O600 C601 1.295 . S
C601 O600 1.295 . S
C601 O603 1.235 . S
C602 O607 1.287 . S
C602 O608 1.255 . S
O603 Fe595 1.997 . S
O603 C601 1.235 . S
C604 O610 1.287 . S
C604 O611 1.255 . S
O605 Fe594 1.976 . S
O605 C612 1.287 . S
O606 Fe595 1.996 . S
O606 C612 1.255 . S
O607 Fe597 1.976 . S
O607 C602 1.287 . S
O608 Fe594 1.996 . S
O608 C602 1.255 . S
C609 O613 1.295 . S
C609 O614 1.235 . S
O610 Fe595 1.976 . S
O610 C604 1.287 . S
O611 Fe597 1.996 . S
O611 C604 1.255 . S
C612 O605 1.287 . S
C612 O606 1.255 . S
O613 Fe595 2.002 . S
O613 C609 1.295 . S
O614 Fe597 1.997 . S
O614 C609 1.235 . S
C615 O598 1.295 . S
C615 O599 1.235 . S
Fe616 O618 1.918 . S
Fe616 O621 1.997 . S
Fe616 O622 2.002 . S
Fe616 O627 1.976 . S
Fe616 O630 1.996 . S
Fe617 O618 1.918 . S
Fe617 O625 1.997 . S
Fe617 O628 1.996 . S
Fe617 O632 1.976 . S
Fe617 O635 2.002 . S
O618 Fe616 1.918 . S
O618 Fe617 1.918 . S
O618 Fe619 1.918 . S
Fe619 O618 1.918 . S
Fe619 O620 2.002 . S
Fe619 O629 1.976 . S
Fe619 O633 1.996 . S
Fe619 O636 1.997 . S
O620 Fe619 2.002 . S
O620 C637 1.295 . S
O621 Fe616 1.997 . S
O621 C637 1.235 . S
O622 Fe616 2.002 . S
O622 C623 1.295 . S
C623 O622 1.295 . S
C623 O625 1.235 . S
C624 O629 1.287 . S
C624 O630 1.255 . S
O625 Fe617 1.997 . S
O625 C623 1.235 . S
C626 O632 1.287 . S
C626 O633 1.255 . S
O627 Fe616 1.976 . S
O627 C634 1.287 . S
O628 Fe617 1.996 . S
O628 C634 1.255 . S
O629 Fe619 1.976 . S
O629 C624 1.287 . S
O630 Fe616 1.996 . S
O630 C624 1.255 . S
C631 O635 1.295 . S
C631 O636 1.235 . S
O632 Fe617 1.976 . S
O632 C626 1.287 . S
O633 Fe619 1.996 . S
O633 C626 1.255 . S
C634 O627 1.287 . S
C634 O628 1.255 . S
O635 Fe617 2.002 . S
O635 C631 1.295 . S
O636 Fe619 1.997 . S
O636 C631 1.235 . S
C637 O620 1.295 . S
C637 O621 1.235 . S
Fe638 O640 1.918 . S
Fe638 O643 1.997 . S
Fe638 O644 2.002 . S
Fe638 O649 1.976 . S
Fe638 O652 1.996 . S
Fe639 O640 1.918 . S
Fe639 O647 1.997 . S
Fe639 O650 1.996 . S
Fe639 O654 1.976 . S
Fe639 O657 2.002 . S
O640 Fe638 1.918 . S
O640 Fe639 1.918 . S
O640 Fe641 1.918 . S
Fe641 O640 1.918 . S
Fe641 O642 2.002 . S
Fe641 O651 1.976 . S
Fe641 O655 1.996 . S
Fe641 O658 1.997 . S
O642 Fe641 2.002 . S
O642 C659 1.295 . S
O643 Fe638 1.997 . S
O643 C659 1.235 . S
O644 Fe638 2.002 . S
O644 C645 1.295 . S
C645 O644 1.295 . S
C645 O647 1.235 . S
C646 O651 1.287 . S
C646 O652 1.255 . S
O647 Fe639 1.997 . S
O647 C645 1.235 . S
C648 O654 1.287 . S
C648 O655 1.255 . S
O649 Fe638 1.976 . S
O649 C656 1.287 . S
O650 Fe639 1.996 . S
O650 C656 1.255 . S
O651 Fe641 1.976 . S
O651 C646 1.287 . S
O652 Fe638 1.996 . S
O652 C646 1.255 . S
C653 O657 1.295 . S
C653 O658 1.235 . S
O654 Fe639 1.976 . S
O654 C648 1.287 . S
O655 Fe641 1.996 . S
O655 C648 1.255 . S
C656 O649 1.287 . S
C656 O650 1.255 . S
O657 Fe639 2.002 . S
O657 C653 1.295 . S
O658 Fe641 1.997 . S
O658 C653 1.235 . S
C659 O642 1.295 . S
C659 O643 1.235 . S
Fe660 O662 1.918 . S
Fe660 O665 1.997 . S
Fe660 O666 2.002 . S
Fe660 O671 1.976 . S
Fe660 O674 1.996 . S
Fe661 O662 1.918 . S
Fe661 O669 1.997 . S
Fe661 O672 1.996 . S
Fe661 O676 1.976 . S
Fe661 O679 2.002 . S
O662 Fe660 1.918 . S
O662 Fe661 1.918 . S
O662 Fe663 1.918 . S
Fe663 O662 1.918 . S
Fe663 O664 2.002 . S
Fe663 O673 1.976 . S
Fe663 O677 1.996 . S
Fe663 O680 1.997 . S
O664 Fe663 2.002 . S
O664 C681 1.295 . S
O665 Fe660 1.997 . S
O665 C681 1.235 . S
O666 Fe660 2.002 . S
O666 C667 1.295 . S
C667 O666 1.295 . S
C667 O669 1.235 . S
C668 O673 1.287 . S
C668 O674 1.255 . S
O669 Fe661 1.997 . S
O669 C667 1.235 . S
C670 O676 1.287 . S
C670 O677 1.255 . S
O671 Fe660 1.976 . S
O671 C678 1.287 . S
O672 Fe661 1.996 . S
O672 C678 1.255 . S
O673 Fe663 1.976 . S
O673 C668 1.287 . S
O674 Fe660 1.996 . S
O674 C668 1.255 . S
C675 O679 1.295 . S
C675 O680 1.235 . S
O676 Fe661 1.976 . S
O676 C670 1.287 . S
O677 Fe663 1.996 . S
O677 C670 1.255 . S
C678 O671 1.287 . S
C678 O672 1.255 . S
O679 Fe661 2.002 . S
O679 C675 1.295 . S
O680 Fe663 1.997 . S
O680 C675 1.235 . S
C681 O664 1.295 . S
C681 O665 1.235 . S
Fe682 O684 1.918 . S
Fe682 O687 1.997 . S
Fe682 O688 2.002 . S
Fe682 O693 1.976 . S
Fe682 O696 1.996 . S
Fe683 O684 1.918 . S
Fe683 O691 1.997 . S
Fe683 O694 1.996 . S
Fe683 O698 1.976 . S
Fe683 O701 2.002 . S
O684 Fe682 1.918 . S
O684 Fe683 1.918 . S
O684 Fe685 1.918 . S
Fe685 O684 1.918 . S
Fe685 O686 2.002 . S
Fe685 O695 1.976 . S
Fe685 O699 1.996 . S
Fe685 O702 1.997 . S
O686 Fe685 2.002 . S
O686 C703 1.295 . S
O687 Fe682 1.997 . S
O687 C703 1.235 . S
O688 Fe682 2.002 . S
O688 C689 1.295 . S
C689 O688 1.295 . S
C689 O691 1.235 . S
C690 O695 1.287 . S
C690 O696 1.255 . S
O691 Fe683 1.997 . S
O691 C689 1.235 . S
C692 O698 1.287 . S
C692 O699 1.255 . S
O693 Fe682 1.976 . S
O693 C700 1.287 . S
O694 Fe683 1.996 . S
O694 C700 1.255 . S
O695 Fe685 1.976 . S
O695 C690 1.287 . S
O696 Fe682 1.996 . S
O696 C690 1.255 . S
C697 O701 1.295 . S
C697 O702 1.235 . S
O698 Fe683 1.976 . S
O698 C692 1.287 . S
O699 Fe685 1.996 . S
O699 C692 1.255 . S
C700 O693 1.287 . S
C700 O694 1.255 . S
O701 Fe683 2.002 . S
O701 C697 1.295 . S
O702 Fe685 1.997 . S
O702 C697 1.235 . S
C703 O686 1.295 . S
C703 O687 1.235 . S
H704 C710 0.930 . S
H705 C714 0.930 . S
H706 C719 0.929 . S
H707 C717 0.929 . S
H708 C712 0.929 . S
H709 C718 0.929 . S
C710 H704 0.930 . S
C710 C711 1.367 . S
C710 C718 1.378 . S
C711 C710 1.367 . S
C711 C719 1.433 . S
C712 H708 0.929 . S
C712 C714 1.378 . S
C712 C716 1.350 . S
C713 C716 1.463 . S
C713 C718 1.350 . S
C713 N721 1.427 . S
C714 H705 0.930 . S
C714 C712 1.378 . S
C714 C715 1.367 . S
C715 C714 1.367 . S
C715 C717 1.433 . S
C716 C712 1.350 . S
C716 C713 1.463 . S
C716 N720 1.427 . S
C717 H707 0.929 . S
C717 C715 1.433 . S
C717 N720 1.384 . S
C718 H709 0.929 . S
C718 C710 1.378 . S
C718 C713 1.350 . S
C719 H706 0.929 . S
C719 C711 1.433 . S
C719 N721 1.384 . S
N720 C716 1.427 . S
N720 C717 1.384 . S
N721 C713 1.427 . S
N721 C719 1.384 . S
H722 C728 0.930 . S
H723 C732 0.930 . S
H724 C737 0.929 . S
H725 C735 0.929 . S
H726 C730 0.929 . S
H727 C736 0.929 . S
C728 H722 0.930 . S
C728 C729 1.367 . S
C728 C736 1.378 . S
C729 C728 1.367 . S
C729 C737 1.433 . S
C730 H726 0.929 . S
C730 C732 1.378 . S
C730 C734 1.350 . S
C731 C734 1.463 . S
C731 C736 1.350 . S
C731 N739 1.427 . S
C732 H723 0.930 . S
C732 C730 1.378 . S
C732 C733 1.367 . S
C733 C732 1.367 . S
C733 C735 1.433 . S
C734 C730 1.350 . S
C734 C731 1.463 . S
C734 N738 1.427 . S
C735 H725 0.929 . S
C735 C733 1.433 . S
C735 N738 1.384 . S
C736 H727 0.929 . S
C736 C728 1.378 . S
C736 C731 1.350 . S
C737 H724 0.929 . S
C737 C729 1.433 . S
C737 N739 1.384 . S
N738 C734 1.427 . S
N738 C735 1.384 . S
N739 C731 1.427 . S
N739 C737 1.384 . S
H740 C746 0.930 . S
H741 C750 0.930 . S
H742 C755 0.929 . S
H743 C753 0.929 . S
H744 C748 0.929 . S
H745 C754 0.929 . S
C746 H740 0.930 . S
C746 C747 1.367 . S
C746 C754 1.378 . S
C747 C746 1.367 . S
C747 C755 1.433 . S
C748 H744 0.929 . S
C748 C750 1.378 . S
C748 C752 1.350 . S
C749 C752 1.463 . S
C749 C754 1.350 . S
C749 N757 1.427 . S
C750 H741 0.930 . S
C750 C748 1.378 . S
C750 C751 1.367 . S
C751 C750 1.367 . S
C751 C753 1.433 . S
C752 C748 1.350 . S
C752 C749 1.463 . S
C752 N756 1.427 . S
C753 H743 0.929 . S
C753 C751 1.433 . S
C753 N756 1.384 . S
C754 H745 0.929 . S
C754 C746 1.378 . S
C754 C749 1.350 . S
C755 H742 0.929 . S
C755 C747 1.433 . S
C755 N757 1.384 . S
N756 C752 1.427 . S
N756 C753 1.384 . S
N757 C749 1.427 . S
N757 C755 1.384 . S
H758 C764 0.930 . S
H759 C768 0.930 . S
H760 C773 0.929 . S
H761 C771 0.929 . S
H762 C766 0.929 . S
H763 C772 0.929 . S
C764 H758 0.930 . S
C764 C765 1.367 . S
C764 C772 1.378 . S
C765 C764 1.367 . S
C765 C773 1.433 . S
C766 H762 0.929 . S
C766 C768 1.378 . S
C766 C770 1.350 . S
C767 C770 1.463 . S
C767 C772 1.350 . S
C767 N775 1.427 . S
C768 H759 0.930 . S
C768 C766 1.378 . S
C768 C769 1.367 . S
C769 C768 1.367 . S
C769 C771 1.433 . S
C770 C766 1.350 . S
C770 C767 1.463 . S
C770 N774 1.427 . S
C771 H761 0.929 . S
C771 C769 1.433 . S
C771 N774 1.384 . S
C772 H763 0.929 . S
C772 C764 1.378 . S
C772 C767 1.350 . S
C773 H760 0.929 . S
C773 C765 1.433 . S
C773 N775 1.384 . S
N774 C770 1.427 . S
N774 C771 1.384 . S
N775 C767 1.427 . S
N775 C773 1.384 . S
H776 C782 0.930 . S
H777 C786 0.930 . S
H778 C791 0.929 . S
H779 C789 0.929 . S
H780 C784 0.929 . S
H781 C790 0.929 . S
C782 H776 0.930 . S
C782 C783 1.367 . S
C782 C790 1.378 . S
C783 C782 1.367 . S
C783 C791 1.433 . S
C784 H780 0.929 . S
C784 C786 1.378 . S
C784 C788 1.350 . S
C785 C788 1.463 . S
C785 C790 1.350 . S
C785 N793 1.427 . S
C786 H777 0.930 . S
C786 C784 1.378 . S
C786 C787 1.367 . S
C787 C786 1.367 . S
C787 C789 1.433 . S
C788 C784 1.350 . S
C788 C785 1.463 . S
C788 N792 1.427 . S
C789 H779 0.929 . S
C789 C787 1.433 . S
C789 N792 1.384 . S
C790 H781 0.929 . S
C790 C782 1.378 . S
C790 C785 1.350 . S
C791 H778 0.929 . S
C791 C783 1.433 . S
C791 N793 1.384 . S
N792 C788 1.427 . S
N792 C789 1.384 . S
N793 C785 1.427 . S
N793 C791 1.384 . S
H794 C800 0.930 . S
H795 C804 0.930 . S
H796 C809 0.929 . S
H797 C807 0.929 . S
H798 C802 0.929 . S
H799 C808 0.929 . S
C800 H794 0.930 . S
C800 C801 1.367 . S
C800 C808 1.378 . S
C801 C800 1.367 . S
C801 C809 1.433 . S
C802 H798 0.929 . S
C802 C804 1.378 . S
C802 C806 1.350 . S
C803 C806 1.463 . S
C803 C808 1.350 . S
C803 N811 1.427 . S
C804 H795 0.930 . S
C804 C802 1.378 . S
C804 C805 1.367 . S
C805 C804 1.367 . S
C805 C807 1.433 . S
C806 C802 1.350 . S
C806 C803 1.463 . S
C806 N810 1.427 . S
C807 H797 0.929 . S
C807 C805 1.433 . S
C807 N810 1.384 . S
C808 H799 0.929 . S
C808 C800 1.378 . S
C808 C803 1.350 . S
C809 H796 0.929 . S
C809 C801 1.433 . S
C809 N811 1.384 . S
N810 C806 1.427 . S
N810 C807 1.384 . S
N811 C803 1.427 . S
N811 C809 1.384 . S
H812 C818 0.930 . S
H813 C822 0.930 . S
H814 C827 0.929 . S
H815 C825 0.929 . S
H816 C820 0.929 . S
H817 C826 0.929 . S
C818 H812 0.930 . S
C818 C819 1.367 . S
C818 C826 1.378 . S
C819 C818 1.367 . S
C819 C827 1.433 . S
C820 H816 0.929 . S
C820 C822 1.378 . S
C820 C824 1.350 . S
C821 C824 1.463 . S
C821 C826 1.350 . S
C821 N829 1.427 . S
C822 H813 0.930 . S
C822 C820 1.378 . S
C822 C823 1.367 . S
C823 C822 1.367 . S
C823 C825 1.433 . S
C824 C820 1.350 . S
C824 C821 1.463 . S
C824 N828 1.427 . S
C825 H815 0.929 . S
C825 C823 1.433 . S
C825 N828 1.384 . S
C826 H817 0.929 . S
C826 C818 1.378 . S
C826 C821 1.350 . S
C827 H814 0.929 . S
C827 C819 1.433 . S
C827 N829 1.384 . S
N828 C824 1.427 . S
N828 C825 1.384 . S
N829 C821 1.427 . S
N829 C827 1.384 . S
H830 C836 0.930 . S
H831 C840 0.930 . S
H832 C845 0.929 . S
H833 C843 0.929 . S
H834 C838 0.929 . S
H835 C844 0.929 . S
C836 H830 0.930 . S
C836 C837 1.367 . S
C836 C844 1.378 . S
C837 C836 1.367 . S
C837 C845 1.433 . S
C838 H834 0.929 . S
C838 C840 1.378 . S
C838 C842 1.350 . S
C839 C842 1.463 . S
C839 C844 1.350 . S
C839 N847 1.427 . S
C840 H831 0.930 . S
C840 C838 1.378 . S
C840 C841 1.367 . S
C841 C840 1.367 . S
C841 C843 1.433 . S
C842 C838 1.350 . S
C842 C839 1.463 . S
C842 N846 1.427 . S
C843 H833 0.929 . S
C843 C841 1.433 . S
C843 N846 1.384 . S
C844 H835 0.929 . S
C844 C836 1.378 . S
C844 C839 1.350 . S
C845 H832 0.929 . S
C845 C837 1.433 . S
C845 N847 1.384 . S
N846 C842 1.427 . S
N846 C843 1.384 . S
N847 C839 1.427 . S
N847 C845 1.384 . S
H848 C854 0.930 . S
H849 C858 0.930 . S
H850 C863 0.929 . S
H851 C861 0.929 . S
H852 C856 0.929 . S
H853 C862 0.929 . S
C854 H848 0.930 . S
C854 C855 1.367 . S
C854 C862 1.378 . S
C855 C854 1.367 . S
C855 C863 1.433 . S
C856 H852 0.929 . S
C856 C858 1.378 . S
C856 C860 1.350 . S
C857 C860 1.463 . S
C857 C862 1.350 . S
C857 N865 1.427 . S
C858 H849 0.930 . S
C858 C856 1.378 . S
C858 C859 1.367 . S
C859 C858 1.367 . S
C859 C861 1.433 . S
C860 C856 1.350 . S
C860 C857 1.463 . S
C860 N864 1.427 . S
C861 H851 0.929 . S
C861 C859 1.433 . S
C861 N864 1.384 . S
C862 H853 0.929 . S
C862 C854 1.378 . S
C862 C857 1.350 . S
C863 H850 0.929 . S
C863 C855 1.433 . S
C863 N865 1.384 . S
N864 C860 1.427 . S
N864 C861 1.384 . S
N865 C857 1.427 . S
N865 C863 1.384 . S
H866 C872 0.930 . S
H867 C876 0.930 . S
H868 C881 0.929 . S
H869 C879 0.929 . S
H870 C874 0.929 . S
H871 C880 0.929 . S
C872 H866 0.930 . S
C872 C873 1.367 . S
C872 C880 1.378 . S
C873 C872 1.367 . S
C873 C881 1.433 . S
C874 H870 0.929 . S
C874 C876 1.378 . S
C874 C878 1.350 . S
C875 C878 1.463 . S
C875 C880 1.350 . S
C875 N883 1.427 . S
C876 H867 0.930 . S
C876 C874 1.378 . S
C876 C877 1.367 . S
C877 C876 1.367 . S
C877 C879 1.433 . S
C878 C874 1.350 . S
C878 C875 1.463 . S
C878 N882 1.427 . S
C879 H869 0.929 . S
C879 C877 1.433 . S
C879 N882 1.384 . S
C880 H871 0.929 . S
C880 C872 1.378 . S
C880 C875 1.350 . S
C881 H868 0.929 . S
C881 C873 1.433 . S
C881 N883 1.384 . S
N882 C878 1.427 . S
N882 C879 1.384 . S
N883 C875 1.427 . S
N883 C881 1.384 . S
H884 C890 0.930 . S
H885 C894 0.930 . S
H886 C899 0.929 . S
H887 C897 0.929 . S
H888 C892 0.929 . S
H889 C898 0.929 . S
C890 H884 0.930 . S
C890 C891 1.367 . S
C890 C898 1.378 . S
C891 C890 1.367 . S
C891 C899 1.433 . S
C892 H888 0.929 . S
C892 C894 1.378 . S
C892 C896 1.350 . S
C893 C896 1.463 . S
C893 C898 1.350 . S
C893 N901 1.427 . S
C894 H885 0.930 . S
C894 C892 1.378 . S
C894 C895 1.367 . S
C895 C894 1.367 . S
C895 C897 1.433 . S
C896 C892 1.350 . S
C896 C893 1.463 . S
C896 N900 1.427 . S
C897 H887 0.929 . S
C897 C895 1.433 . S
C897 N900 1.384 . S
C898 H889 0.929 . S
C898 C890 1.378 . S
C898 C893 1.350 . S
C899 H886 0.929 . S
C899 C891 1.433 . S
C899 N901 1.384 . S
N900 C896 1.427 . S
N900 C897 1.384 . S
N901 C893 1.427 . S
N901 C899 1.384 . S
H902 C908 0.930 . S
H903 C912 0.930 . S
H904 C917 0.929 . S
H905 C915 0.929 . S
H906 C910 0.929 . S
H907 C916 0.929 . S
C908 H902 0.930 . S
C908 C909 1.367 . S
C908 C916 1.378 . S
C909 C908 1.367 . S
C909 C917 1.433 . S
C910 H906 0.929 . S
C910 C912 1.378 . S
C910 C914 1.350 . S
C911 C914 1.463 . S
C911 C916 1.350 . S
C911 N919 1.427 . S
C912 H903 0.930 . S
C912 C910 1.378 . S
C912 C913 1.367 . S
C913 C912 1.367 . S
C913 C915 1.433 . S
C914 C910 1.350 . S
C914 C911 1.463 . S
C914 N918 1.427 . S
C915 H905 0.929 . S
C915 C913 1.433 . S
C915 N918 1.384 . S
C916 H907 0.929 . S
C916 C908 1.378 . S
C916 C911 1.350 . S
C917 H904 0.929 . S
C917 C909 1.433 . S
C917 N919 1.384 . S
N918 C914 1.427 . S
N918 C915 1.384 . S
N919 C911 1.427 . S
N919 C917 1.384 . S
H920 C926 0.930 . S
H921 C930 0.930 . S
H922 C935 0.929 . S
H923 C933 0.929 . S
H924 C928 0.929 . S
H925 C934 0.929 . S
C926 H920 0.930 . S
C926 C927 1.367 . S
C926 C934 1.378 . S
C927 C926 1.367 . S
C927 C935 1.433 . S
C928 H924 0.929 . S
C928 C930 1.378 . S
C928 C932 1.350 . S
C929 C932 1.463 . S
C929 C934 1.350 . S
C929 N937 1.427 . S
C930 H921 0.930 . S
C930 C928 1.378 . S
C930 C931 1.367 . S
C931 C930 1.367 . S
C931 C933 1.433 . S
C932 C928 1.350 . S
C932 C929 1.463 . S
C932 N936 1.427 . S
C933 H923 0.929 . S
C933 C931 1.433 . S
C933 N936 1.384 . S
C934 H925 0.929 . S
C934 C926 1.378 . S
C934 C929 1.350 . S
C935 H922 0.929 . S
C935 C927 1.433 . S
C935 N937 1.384 . S
N936 C932 1.427 . S
N936 C933 1.384 . S
N937 C929 1.427 . S
N937 C935 1.384 . S
H938 C944 0.930 . S
H939 C948 0.930 . S
H940 C953 0.929 . S
H941 C951 0.929 . S
H942 C946 0.929 . S
H943 C952 0.929 . S
C944 H938 0.930 . S
C944 C945 1.367 . S
C944 C952 1.378 . S
C945 C944 1.367 . S
C945 C953 1.433 . S
C946 H942 0.929 . S
C946 C948 1.378 . S
C946 C950 1.350 . S
C947 C950 1.463 . S
C947 C952 1.350 . S
C947 N955 1.427 . S
C948 H939 0.930 . S
C948 C946 1.378 . S
C948 C949 1.367 . S
C949 C948 1.367 . S
C949 C951 1.433 . S
C950 C946 1.350 . S
C950 C947 1.463 . S
C950 N954 1.427 . S
C951 H941 0.929 . S
C951 C949 1.433 . S
C951 N954 1.384 . S
C952 H943 0.929 . S
C952 C944 1.378 . S
C952 C947 1.350 . S
C953 H940 0.929 . S
C953 C945 1.433 . S
C953 N955 1.384 . S
N954 C950 1.427 . S
N954 C951 1.384 . S
N955 C947 1.427 . S
N955 C953 1.384 . S
H956 C962 0.930 . S
H957 C966 0.930 . S
H958 C971 0.929 . S
H959 C969 0.929 . S
H960 C964 0.929 . S
H961 C970 0.929 . S
C962 H956 0.930 . S
C962 C963 1.367 . S
C962 C970 1.378 . S
C963 C962 1.367 . S
C963 C971 1.433 . S
C964 H960 0.929 . S
C964 C966 1.378 . S
C964 C968 1.350 . S
C965 C968 1.463 . S
C965 C970 1.350 . S
C965 N973 1.427 . S
C966 H957 0.930 . S
C966 C964 1.378 . S
C966 C967 1.367 . S
C967 C966 1.367 . S
C967 C969 1.433 . S
C968 C964 1.350 . S
C968 C965 1.463 . S
C968 N972 1.427 . S
C969 H959 0.929 . S
C969 C967 1.433 . S
C969 N972 1.384 . S
C970 H961 0.929 . S
C970 C962 1.378 . S
C970 C965 1.350 . S
C971 H958 0.929 . S
C971 C963 1.433 . S
C971 N973 1.384 . S
N972 C968 1.427 . S
N972 C969 1.384 . S
N973 C965 1.427 . S
N973 C971 1.384 . S
H974 C980 0.930 . S
H975 C984 0.930 . S
H976 C989 0.929 . S
H977 C987 0.929 . S
H978 C982 0.929 . S
H979 C988 0.929 . S
C980 H974 0.930 . S
C980 C981 1.367 . S
C980 C988 1.378 . S
C981 C980 1.367 . S
C981 C989 1.433 . S
C982 H978 0.929 . S
C982 C984 1.378 . S
C982 C986 1.350 . S
C983 C986 1.463 . S
C983 C988 1.350 . S
C983 N991 1.427 . S
C984 H975 0.930 . S
C984 C982 1.378 . S
C984 C985 1.367 . S
C985 C984 1.367 . S
C985 C987 1.433 . S
C986 C982 1.350 . S
C986 C983 1.463 . S
C986 N990 1.427 . S
C987 H977 0.929 . S
C987 C985 1.433 . S
C987 N990 1.384 . S
C988 H979 0.929 . S
C988 C980 1.378 . S
C988 C983 1.350 . S
C989 H976 0.929 . S
C989 C981 1.433 . S
C989 N991 1.384 . S
N990 C986 1.427 . S
N990 C987 1.384 . S
N991 C983 1.427 . S
N991 C989 1.384 . S
H992 C998 0.930 . S
H993 C1002 0.930 . S
H994 C1007 0.929 . S
H995 C1005 0.929 . S
H996 C1000 0.929 . S
H997 C1006 0.929 . S
C998 H992 0.930 . S
C998 C999 1.367 . S
C998 C1006 1.378 . S
C999 C998 1.367 . S
C999 C1007 1.433 . S
C1000 H996 0.929 . S
C1000 C1002 1.378 . S
C1000 C1004 1.350 . S
C1001 C1004 1.463 . S
C1001 C1006 1.350 . S
C1001 N1009 1.427 . S
C1002 H993 0.930 . S
C1002 C1000 1.378 . S
C1002 C1003 1.367 . S
C1003 C1002 1.367 . S
C1003 C1005 1.433 . S
C1004 C1000 1.350 . S
C1004 C1001 1.463 . S
C1004 N1008 1.427 . S
C1005 H995 0.929 . S
C1005 C1003 1.433 . S
C1005 N1008 1.384 . S
C1006 H997 0.929 . S
C1006 C998 1.378 . S
C1006 C1001 1.350 . S
C1007 H994 0.929 . S
C1007 C999 1.433 . S
C1007 N1009 1.384 . S
N1008 C1004 1.427 . S
N1008 C1005 1.384 . S
N1009 C1001 1.427 . S
N1009 C1007 1.384 . S
H1010 C1016 0.930 . S
H1011 C1020 0.930 . S
H1012 C1025 0.929 . S
H1013 C1023 0.929 . S
H1014 C1018 0.929 . S
H1015 C1024 0.929 . S
C1016 H1010 0.930 . S
C1016 C1017 1.367 . S
C1016 C1024 1.378 . S
C1017 C1016 1.367 . S
C1017 C1025 1.433 . S
C1018 H1014 0.929 . S
C1018 C1020 1.378 . S
C1018 C1022 1.350 . S
C1019 C1022 1.463 . S
C1019 C1024 1.350 . S
C1019 N1027 1.427 . S
C1020 H1011 0.930 . S
C1020 C1018 1.378 . S
C1020 C1021 1.367 . S
C1021 C1020 1.367 . S
C1021 C1023 1.433 . S
C1022 C1018 1.350 . S
C1022 C1019 1.463 . S
C1022 N1026 1.427 . S
C1023 H1013 0.929 . S
C1023 C1021 1.433 . S
C1023 N1026 1.384 . S
C1024 H1015 0.929 . S
C1024 C1016 1.378 . S
C1024 C1019 1.350 . S
C1025 H1012 0.929 . S
C1025 C1017 1.433 . S
C1025 N1027 1.384 . S
N1026 C1022 1.427 . S
N1026 C1023 1.384 . S
N1027 C1019 1.427 . S
N1027 C1025 1.384 . S
H1028 C1034 0.930 . S
H1029 C1038 0.930 . S
H1030 C1043 0.929 . S
H1031 C1041 0.929 . S
H1032 C1036 0.929 . S
H1033 C1042 0.929 . S
C1034 H1028 0.930 . S
C1034 C1035 1.367 . S
C1034 C1042 1.378 . S
C1035 C1034 1.367 . S
C1035 C1043 1.433 . S
C1036 H1032 0.929 . S
C1036 C1038 1.378 . S
C1036 C1040 1.350 . S
C1037 C1040 1.463 . S
C1037 C1042 1.350 . S
C1037 N1045 1.427 . S
C1038 H1029 0.930 . S
C1038 C1036 1.378 . S
C1038 C1039 1.367 . S
C1039 C1038 1.367 . S
C1039 C1041 1.433 . S
C1040 C1036 1.350 . S
C1040 C1037 1.463 . S
C1040 N1044 1.427 . S
C1041 H1031 0.929 . S
C1041 C1039 1.433 . S
C1041 N1044 1.384 . S
C1042 H1033 0.929 . S
C1042 C1034 1.378 . S
C1042 C1037 1.350 . S
C1043 H1030 0.929 . S
C1043 C1035 1.433 . S
C1043 N1045 1.384 . S
N1044 C1040 1.427 . S
N1044 C1041 1.384 . S
N1045 C1037 1.427 . S
N1045 C1043 1.384 . S
H1046 C1052 0.930 . S
H1047 C1056 0.930 . S
H1048 C1061 0.929 . S
H1049 C1059 0.929 . S
H1050 C1054 0.929 . S
H1051 C1060 0.929 . S
C1052 H1046 0.930 . S
C1052 C1053 1.367 . S
C1052 C1060 1.378 . S
C1053 C1052 1.367 . S
C1053 C1061 1.433 . S
C1054 H1050 0.929 . S
C1054 C1056 1.378 . S
C1054 C1058 1.350 . S
C1055 C1058 1.463 . S
C1055 C1060 1.350 . S
C1055 N1063 1.427 . S
C1056 H1047 0.930 . S
C1056 C1054 1.378 . S
C1056 C1057 1.367 . S
C1057 C1056 1.367 . S
C1057 C1059 1.433 . S
C1058 C1054 1.350 . S
C1058 C1055 1.463 . S
C1058 N1062 1.427 . S
C1059 H1049 0.929 . S
C1059 C1057 1.433 . S
C1059 N1062 1.384 . S
C1060 H1051 0.929 . S
C1060 C1052 1.378 . S
C1060 C1055 1.350 . S
C1061 H1048 0.929 . S
C1061 C1053 1.433 . S
C1061 N1063 1.384 . S
N1062 C1058 1.427 . S
N1062 C1059 1.384 . S
N1063 C1055 1.427 . S
N1063 C1061 1.384 . S
H1064 C1070 0.930 . S
H1065 C1074 0.930 . S
H1066 C1079 0.929 . S
H1067 C1077 0.929 . S
H1068 C1072 0.929 . S
H1069 C1078 0.929 . S
C1070 H1064 0.930 . S
C1070 C1071 1.367 . S
C1070 C1078 1.378 . S
C1071 C1070 1.367 . S
C1071 C1079 1.433 . S
C1072 H1068 0.929 . S
C1072 C1074 1.378 . S
C1072 C1076 1.350 . S
C1073 C1076 1.463 . S
C1073 C1078 1.350 . S
C1073 N1081 1.427 . S
C1074 H1065 0.930 . S
C1074 C1072 1.378 . S
C1074 C1075 1.367 . S
C1075 C1074 1.367 . S
C1075 C1077 1.433 . S
C1076 C1072 1.350 . S
C1076 C1073 1.463 . S
C1076 N1080 1.427 . S
C1077 H1067 0.929 . S
C1077 C1075 1.433 . S
C1077 N1080 1.384 . S
C1078 H1069 0.929 . S
C1078 C1070 1.378 . S
C1078 C1073 1.350 . S
C1079 H1066 0.929 . S
C1079 C1071 1.433 . S
C1079 N1081 1.384 . S
N1080 C1076 1.427 . S
N1080 C1077 1.384 . S
N1081 C1073 1.427 . S
N1081 C1079 1.384 . S
H1082 C1088 0.930 . S
H1083 C1092 0.930 . S
H1084 C1097 0.929 . S
H1085 C1095 0.929 . S
H1086 C1090 0.929 . S
H1087 C1096 0.929 . S
C1088 H1082 0.930 . S
C1088 C1089 1.367 . S
C1088 C1096 1.378 . S
C1089 C1088 1.367 . S
C1089 C1097 1.433 . S
C1090 H1086 0.929 . S
C1090 C1092 1.378 . S
C1090 C1094 1.350 . S
C1091 C1094 1.463 . S
C1091 C1096 1.350 . S
C1091 N1099 1.427 . S
C1092 H1083 0.930 . S
C1092 C1090 1.378 . S
C1092 C1093 1.367 . S
C1093 C1092 1.367 . S
C1093 C1095 1.433 . S
C1094 C1090 1.350 . S
C1094 C1091 1.463 . S
C1094 N1098 1.427 . S
C1095 H1085 0.929 . S
C1095 C1093 1.433 . S
C1095 N1098 1.384 . S
C1096 H1087 0.929 . S
C1096 C1088 1.378 . S
C1096 C1091 1.350 . S
C1097 H1084 0.929 . S
C1097 C1089 1.433 . S
C1097 N1099 1.384 . S
N1098 C1094 1.427 . S
N1098 C1095 1.384 . S
N1099 C1091 1.427 . S
N1099 C1097 1.384 . S
H1100 C1106 0.930 . S
H1101 C1110 0.930 . S
H1102 C1115 0.929 . S
H1103 C1113 0.929 . S
H1104 C1108 0.929 . S
H1105 C1114 0.929 . S
C1106 H1100 0.930 . S
C1106 C1107 1.367 . S
C1106 C1114 1.378 . S
C1107 C1106 1.367 . S
C1107 C1115 1.433 . S
C1108 H1104 0.929 . S
C1108 C1110 1.378 . S
C1108 C1112 1.350 . S
C1109 C1112 1.463 . S
C1109 C1114 1.350 . S
C1109 N1117 1.427 . S
C1110 H1101 0.930 . S
C1110 C1108 1.378 . S
C1110 C1111 1.367 . S
C1111 C1110 1.367 . S
C1111 C1113 1.433 . S
C1112 C1108 1.350 . S
C1112 C1109 1.463 . S
C1112 N1116 1.427 . S
C1113 H1103 0.929 . S
C1113 C1111 1.433 . S
C1113 N1116 1.384 . S
C1114 H1105 0.929 . S
C1114 C1106 1.378 . S
C1114 C1109 1.350 . S
C1115 H1102 0.929 . S
C1115 C1107 1.433 . S
C1115 N1117 1.384 . S
N1116 C1112 1.427 . S
N1116 C1113 1.384 . S
N1117 C1109 1.427 . S
N1117 C1115 1.384 . S
H1118 C1124 0.930 . S
H1119 C1128 0.930 . S
H1120 C1133 0.929 . S
H1121 C1131 0.929 . S
H1122 C1126 0.929 . S
H1123 C1132 0.929 . S
C1124 H1118 0.930 . S
C1124 C1125 1.367 . S
C1124 C1132 1.378 . S
C1125 C1124 1.367 . S
C1125 C1133 1.433 . S
C1126 H1122 0.929 . S
C1126 C1128 1.378 . S
C1126 C1130 1.350 . S
C1127 C1130 1.463 . S
C1127 C1132 1.350 . S
C1127 N1135 1.427 . S
C1128 H1119 0.930 . S
C1128 C1126 1.378 . S
C1128 C1129 1.367 . S
C1129 C1128 1.367 . S
C1129 C1131 1.433 . S
C1130 C1126 1.350 . S
C1130 C1127 1.463 . S
C1130 N1134 1.427 . S
C1131 H1121 0.929 . S
C1131 C1129 1.433 . S
C1131 N1134 1.384 . S
C1132 H1123 0.929 . S
C1132 C1124 1.378 . S
C1132 C1127 1.350 . S
C1133 H1120 0.929 . S
C1133 C1125 1.433 . S
C1133 N1135 1.384 . S
N1134 C1130 1.427 . S
N1134 C1131 1.384 . S
N1135 C1127 1.427 . S
N1135 C1133 1.384 . S
H1136 C1142 0.930 . S
H1137 C1146 0.930 . S
H1138 C1151 0.929 . S
H1139 C1149 0.929 . S
H1140 C1144 0.929 . S
H1141 C1150 0.929 . S
C1142 H1136 0.930 . S
C1142 C1143 1.367 . S
C1142 C1150 1.378 . S
C1143 C1142 1.367 . S
C1143 C1151 1.433 . S
C1144 H1140 0.929 . S
C1144 C1146 1.378 . S
C1144 C1148 1.350 . S
C1145 C1148 1.463 . S
C1145 C1150 1.350 . S
C1145 N1153 1.427 . S
C1146 H1137 0.930 . S
C1146 C1144 1.378 . S
C1146 C1147 1.367 . S
C1147 C1146 1.367 . S
C1147 C1149 1.433 . S
C1148 C1144 1.350 . S
C1148 C1145 1.463 . S
C1148 N1152 1.427 . S
C1149 H1139 0.929 . S
C1149 C1147 1.433 . S
C1149 N1152 1.384 . S
C1150 H1141 0.929 . S
C1150 C1142 1.378 . S
C1150 C1145 1.350 . S
C1151 H1138 0.929 . S
C1151 C1143 1.433 . S
C1151 N1153 1.384 . S
N1152 C1148 1.427 . S
N1152 C1149 1.384 . S
N1153 C1145 1.427 . S
N1153 C1151 1.384 . S
H1154 C1160 0.930 . S
H1155 C1164 0.930 . S
H1156 C1169 0.929 . S
H1157 C1167 0.929 . S
H1158 C1162 0.929 . S
H1159 C1168 0.929 . S
C1160 H1154 0.930 . S
C1160 C1161 1.367 . S
C1160 C1168 1.378 . S
C1161 C1160 1.367 . S
C1161 C1169 1.433 . S
C1162 H1158 0.929 . S
C1162 C1164 1.378 . S
C1162 C1166 1.350 . S
C1163 C1166 1.463 . S
C1163 C1168 1.350 . S
C1163 N1171 1.427 . S
C1164 H1155 0.930 . S
C1164 C1162 1.378 . S
C1164 C1165 1.367 . S
C1165 C1164 1.367 . S
C1165 C1167 1.433 . S
C1166 C1162 1.350 . S
C1166 C1163 1.463 . S
C1166 N1170 1.427 . S
C1167 H1157 0.929 . S
C1167 C1165 1.433 . S
C1167 N1170 1.384 . S
C1168 H1159 0.929 . S
C1168 C1160 1.378 . S
C1168 C1163 1.350 . S
C1169 H1156 0.929 . S
C1169 C1161 1.433 . S
C1169 N1171 1.384 . S
N1170 C1166 1.427 . S
N1170 C1167 1.384 . S
N1171 C1163 1.427 . S
N1171 C1169 1.384 . S
H1172 C1178 0.930 . S
H1173 C1182 0.930 . S
H1174 C1187 0.929 . S
H1175 C1185 0.929 . S
H1176 C1180 0.929 . S
H1177 C1186 0.929 . S
C1178 H1172 0.930 . S
C1178 C1179 1.367 . S
C1178 C1186 1.378 . S
C1179 C1178 1.367 . S
C1179 C1187 1.433 . S
C1180 H1176 0.929 . S
C1180 C1182 1.378 . S
C1180 C1184 1.350 . S
C1181 C1184 1.463 . S
C1181 C1186 1.350 . S
C1181 N1189 1.427 . S
C1182 H1173 0.930 . S
C1182 C1180 1.378 . S
C1182 C1183 1.367 . S
C1183 C1182 1.367 . S
C1183 C1185 1.433 . S
C1184 C1180 1.350 . S
C1184 C1181 1.463 . S
C1184 N1188 1.427 . S
C1185 H1175 0.929 . S
C1185 C1183 1.433 . S
C1185 N1188 1.384 . S
C1186 H1177 0.929 . S
C1186 C1178 1.378 . S
C1186 C1181 1.350 . S
C1187 H1174 0.929 . S
C1187 C1179 1.433 . S
C1187 N1189 1.384 . S
N1188 C1184 1.427 . S
N1188 C1185 1.384 . S
N1189 C1181 1.427 . S
N1189 C1187 1.384 . S
H1190 C1196 0.930 . S
H1191 C1200 0.930 . S
H1192 C1205 0.929 . S
H1193 C1203 0.929 . S
H1194 C1198 0.929 . S
H1195 C1204 0.929 . S
C1196 H1190 0.930 . S
C1196 C1197 1.367 . S
C1196 C1204 1.378 . S
C1197 C1196 1.367 . S
C1197 C1205 1.433 . S
C1198 H1194 0.929 . S
C1198 C1200 1.378 . S
C1198 C1202 1.350 . S
C1199 C1202 1.463 . S
C1199 C1204 1.350 . S
C1199 N1207 1.427 . S
C1200 H1191 0.930 . S
C1200 C1198 1.378 . S
C1200 C1201 1.367 . S
C1201 C1200 1.367 . S
C1201 C1203 1.433 . S
C1202 C1198 1.350 . S
C1202 C1199 1.463 . S
C1202 N1206 1.427 . S
C1203 H1193 0.929 . S
C1203 C1201 1.433 . S
C1203 N1206 1.384 . S
C1204 H1195 0.929 . S
C1204 C1196 1.378 . S
C1204 C1199 1.350 . S
C1205 H1192 0.929 . S
C1205 C1197 1.433 . S
C1205 N1207 1.384 . S
N1206 C1202 1.427 . S
N1206 C1203 1.384 . S
N1207 C1199 1.427 . S
N1207 C1205 1.384 . S
H1208 C1214 0.930 . S
H1209 C1218 0.930 . S
H1210 C1223 0.929 . S
H1211 C1221 0.929 . S
H1212 C1216 0.929 . S
H1213 C1222 0.929 . S
C1214 H1208 0.930 . S
C1214 C1215 1.367 . S
C1214 C1222 1.378 . S
C1215 C1214 1.367 . S
C1215 C1223 1.433 . S
C1216 H1212 0.929 . S
C1216 C1218 1.378 . S
C1216 C1220 1.350 . S
C1217 C1220 1.463 . S
C1217 C1222 1.350 . S
C1217 N1225 1.427 . S
C1218 H1209 0.930 . S
C1218 C1216 1.378 . S
C1218 C1219 1.367 . S
C1219 C1218 1.367 . S
C1219 C1221 1.433 . S
C1220 C1216 1.350 . S
C1220 C1217 1.463 . S
C1220 N1224 1.427 . S
C1221 H1211 0.929 . S
C1221 C1219 1.433 . S
C1221 N1224 1.384 . S
C1222 H1213 0.929 . S
C1222 C1214 1.378 . S
C1222 C1217 1.350 . S
C1223 H1210 0.929 . S
C1223 C1215 1.433 . S
C1223 N1225 1.384 . S
N1224 C1220 1.427 . S
N1224 C1221 1.384 . S
N1225 C1217 1.427 . S
N1225 C1223 1.384 . S
H1226 C1232 0.930 . S
H1227 C1236 0.930 . S
H1228 C1241 0.929 . S
H1229 C1239 0.929 . S
H1230 C1234 0.929 . S
H1231 C1240 0.929 . S
C1232 H1226 0.930 . S
C1232 C1233 1.367 . S
C1232 C1240 1.378 . S
C1233 C1232 1.367 . S
C1233 C1241 1.433 . S
C1234 H1230 0.929 . S
C1234 C1236 1.378 . S
C1234 C1238 1.350 . S
C1235 C1238 1.463 . S
C1235 C1240 1.350 . S
C1235 N1243 1.427 . S
C1236 H1227 0.930 . S
C1236 C1234 1.378 . S
C1236 C1237 1.367 . S
C1237 C1236 1.367 . S
C1237 C1239 1.433 . S
C1238 C1234 1.350 . S
C1238 C1235 1.463 . S
C1238 N1242 1.427 . S
C1239 H1229 0.929 . S
C1239 C1237 1.433 . S
C1239 N1242 1.384 . S
C1240 H1231 0.929 . S
C1240 C1232 1.378 . S
C1240 C1235 1.350 . S
C1241 H1228 0.929 . S
C1241 C1233 1.433 . S
C1241 N1243 1.384 . S
N1242 C1238 1.427 . S
N1242 C1239 1.384 . S
N1243 C1235 1.427 . S
N1243 C1241 1.384 . S
H1244 C1250 0.930 . S
H1245 C1254 0.930 . S
H1246 C1259 0.929 . S
H1247 C1257 0.929 . S
H1248 C1252 0.929 . S
H1249 C1258 0.929 . S
C1250 H1244 0.930 . S
C1250 C1251 1.367 . S
C1250 C1258 1.378 . S
C1251 C1250 1.367 . S
C1251 C1259 1.433 . S
C1252 H1248 0.929 . S
C1252 C1254 1.378 . S
C1252 C1256 1.350 . S
C1253 C1256 1.463 . S
C1253 C1258 1.350 . S
C1253 N1261 1.427 . S
C1254 H1245 0.930 . S
C1254 C1252 1.378 . S
C1254 C1255 1.367 . S
C1255 C1254 1.367 . S
C1255 C1257 1.433 . S
C1256 C1252 1.350 . S
C1256 C1253 1.463 . S
C1256 N1260 1.427 . S
C1257 H1247 0.929 . S
C1257 C1255 1.433 . S
C1257 N1260 1.384 . S
C1258 H1249 0.929 . S
C1258 C1250 1.378 . S
C1258 C1253 1.350 . S
C1259 H1246 0.929 . S
C1259 C1251 1.433 . S
C1259 N1261 1.384 . S
N1260 C1256 1.427 . S
N1260 C1257 1.384 . S
N1261 C1253 1.427 . S
N1261 C1259 1.384 . S
H1262 C1268 0.930 . S
H1263 C1272 0.930 . S
H1264 C1277 0.929 . S
H1265 C1275 0.929 . S
H1266 C1270 0.929 . S
H1267 C1276 0.929 . S
C1268 H1262 0.930 . S
C1268 C1269 1.367 . S
C1268 C1276 1.378 . S
C1269 C1268 1.367 . S
C1269 C1277 1.433 . S
C1270 H1266 0.929 . S
C1270 C1272 1.378 . S
C1270 C1274 1.350 . S
C1271 C1274 1.463 . S
C1271 C1276 1.350 . S
C1271 N1279 1.427 . S
C1272 H1263 0.930 . S
C1272 C1270 1.378 . S
C1272 C1273 1.367 . S
C1273 C1272 1.367 . S
C1273 C1275 1.433 . S
C1274 C1270 1.350 . S
C1274 C1271 1.463 . S
C1274 N1278 1.427 . S
C1275 H1265 0.929 . S
C1275 C1273 1.433 . S
C1275 N1278 1.384 . S
C1276 H1267 0.929 . S
C1276 C1268 1.378 . S
C1276 C1271 1.350 . S
C1277 H1264 0.929 . S
C1277 C1269 1.433 . S
C1277 N1279 1.384 . S
N1278 C1274 1.427 . S
N1278 C1275 1.384 . S
N1279 C1271 1.427 . S
N1279 C1277 1.384 . S
H1280 C1286 0.930 . S
H1281 C1290 0.930 . S
H1282 C1295 0.929 . S
H1283 C1293 0.929 . S
H1284 C1288 0.929 . S
H1285 C1294 0.929 . S
C1286 H1280 0.930 . S
C1286 C1287 1.367 . S
C1286 C1294 1.378 . S
C1287 C1286 1.367 . S
C1287 C1295 1.433 . S
C1288 H1284 0.929 . S
C1288 C1290 1.378 . S
C1288 C1292 1.350 . S
C1289 C1292 1.463 . S
C1289 C1294 1.350 . S
C1289 N1297 1.427 . S
C1290 H1281 0.930 . S
C1290 C1288 1.378 . S
C1290 C1291 1.367 . S
C1291 C1290 1.367 . S
C1291 C1293 1.433 . S
C1292 C1288 1.350 . S
C1292 C1289 1.463 . S
C1292 N1296 1.427 . S
C1293 H1283 0.929 . S
C1293 C1291 1.433 . S
C1293 N1296 1.384 . S
C1294 H1285 0.929 . S
C1294 C1286 1.378 . S
C1294 C1289 1.350 . S
C1295 H1282 0.929 . S
C1295 C1287 1.433 . S
C1295 N1297 1.384 . S
N1296 C1292 1.427 . S
N1296 C1293 1.384 . S
N1297 C1289 1.427 . S
N1297 C1295 1.384 . S
H1298 C1304 0.930 . S
H1299 C1308 0.930 . S
H1300 C1313 0.929 . S
H1301 C1311 0.929 . S
H1302 C1306 0.929 . S
H1303 C1312 0.929 . S
C1304 H1298 0.930 . S
C1304 C1305 1.367 . S
C1304 C1312 1.378 . S
C1305 C1304 1.367 . S
C1305 C1313 1.433 . S
C1306 H1302 0.929 . S
C1306 C1308 1.378 . S
C1306 C1310 1.350 . S
C1307 C1310 1.463 . S
C1307 C1312 1.350 . S
C1307 N1315 1.427 . S
C1308 H1299 0.930 . S
C1308 C1306 1.378 . S
C1308 C1309 1.367 . S
C1309 C1308 1.367 . S
C1309 C1311 1.433 . S
C1310 C1306 1.350 . S
C1310 C1307 1.463 . S
C1310 N1314 1.427 . S
C1311 H1301 0.929 . S
C1311 C1309 1.433 . S
C1311 N1314 1.384 . S
C1312 H1303 0.929 . S
C1312 C1304 1.378 . S
C1312 C1307 1.350 . S
C1313 H1300 0.929 . S
C1313 C1305 1.433 . S
C1313 N1315 1.384 . S
N1314 C1310 1.427 . S
N1314 C1311 1.384 . S
N1315 C1307 1.427 . S
N1315 C1313 1.384 . S
H1316 C1322 0.930 . S
H1317 C1326 0.930 . S
H1318 C1331 0.929 . S
H1319 C1329 0.929 . S
H1320 C1324 0.929 . S
H1321 C1330 0.929 . S
C1322 H1316 0.930 . S
C1322 C1323 1.367 . S
C1322 C1330 1.378 . S
C1323 C1322 1.367 . S
C1323 C1331 1.433 . S
C1324 H1320 0.929 . S
C1324 C1326 1.378 . S
C1324 C1328 1.350 . S
C1325 C1328 1.463 . S
C1325 C1330 1.350 . S
C1325 N1333 1.427 . S
C1326 H1317 0.930 . S
C1326 C1324 1.378 . S
C1326 C1327 1.367 . S
C1327 C1326 1.367 . S
C1327 C1329 1.433 . S
C1328 C1324 1.350 . S
C1328 C1325 1.463 . S
C1328 N1332 1.427 . S
C1329 H1319 0.929 . S
C1329 C1327 1.433 . S
C1329 N1332 1.384 . S
C1330 H1321 0.929 . S
C1330 C1322 1.378 . S
C1330 C1325 1.350 . S
C1331 H1318 0.929 . S
C1331 C1323 1.433 . S
C1331 N1333 1.384 . S
N1332 C1328 1.427 . S
N1332 C1329 1.384 . S
N1333 C1325 1.427 . S
N1333 C1331 1.384 . S
H1334 C1340 0.930 . S
H1335 C1344 0.930 . S
H1336 C1349 0.929 . S
H1337 C1347 0.929 . S
H1338 C1342 0.929 . S
H1339 C1348 0.929 . S
C1340 H1334 0.930 . S
C1340 C1341 1.367 . S
C1340 C1348 1.378 . S
C1341 C1340 1.367 . S
C1341 C1349 1.433 . S
C1342 H1338 0.929 . S
C1342 C1344 1.378 . S
C1342 C1346 1.350 . S
C1343 C1346 1.463 . S
C1343 C1348 1.350 . S
C1343 N1351 1.427 . S
C1344 H1335 0.930 . S
C1344 C1342 1.378 . S
C1344 C1345 1.367 . S
C1345 C1344 1.367 . S
C1345 C1347 1.433 . S
C1346 C1342 1.350 . S
C1346 C1343 1.463 . S
C1346 N1350 1.427 . S
C1347 H1337 0.929 . S
C1347 C1345 1.433 . S
C1347 N1350 1.384 . S
C1348 H1339 0.929 . S
C1348 C1340 1.378 . S
C1348 C1343 1.350 . S
C1349 H1336 0.929 . S
C1349 C1341 1.433 . S
C1349 N1351 1.384 . S
N1350 C1346 1.427 . S
N1350 C1347 1.384 . S
N1351 C1343 1.427 . S
N1351 C1349 1.384 . S
H1352 C1358 0.930 . S
H1353 C1362 0.930 . S
H1354 C1367 0.929 . S
H1355 C1365 0.929 . S
H1356 C1360 0.929 . S
H1357 C1366 0.929 . S
C1358 H1352 0.930 . S
C1358 C1359 1.367 . S
C1358 C1366 1.378 . S
C1359 C1358 1.367 . S
C1359 C1367 1.433 . S
C1360 H1356 0.929 . S
C1360 C1362 1.378 . S
C1360 C1364 1.350 . S
C1361 C1364 1.463 . S
C1361 C1366 1.350 . S
C1361 N1369 1.427 . S
C1362 H1353 0.930 . S
C1362 C1360 1.378 . S
C1362 C1363 1.367 . S
C1363 C1362 1.367 . S
C1363 C1365 1.433 . S
C1364 C1360 1.350 . S
C1364 C1361 1.463 . S
C1364 N1368 1.427 . S
C1365 H1355 0.929 . S
C1365 C1363 1.433 . S
C1365 N1368 1.384 . S
C1366 H1357 0.929 . S
C1366 C1358 1.378 . S
C1366 C1361 1.350 . S
C1367 H1354 0.929 . S
C1367 C1359 1.433 . S
C1367 N1369 1.384 . S
N1368 C1364 1.427 . S
N1368 C1365 1.384 . S
N1369 C1361 1.427 . S
N1369 C1367 1.384 . S
H1370 C1376 0.930 . S
H1371 C1380 0.930 . S
H1372 C1385 0.929 . S
H1373 C1383 0.929 . S
H1374 C1378 0.929 . S
H1375 C1384 0.929 . S
C1376 H1370 0.930 . S
C1376 C1377 1.367 . S
C1376 C1384 1.378 . S
C1377 C1376 1.367 . S
C1377 C1385 1.433 . S
C1378 H1374 0.929 . S
C1378 C1380 1.378 . S
C1378 C1382 1.350 . S
C1379 C1382 1.463 . S
C1379 C1384 1.350 . S
C1379 N1387 1.427 . S
C1380 H1371 0.930 . S
C1380 C1378 1.378 . S
C1380 C1381 1.367 . S
C1381 C1380 1.367 . S
C1381 C1383 1.433 . S
C1382 C1378 1.350 . S
C1382 C1379 1.463 . S
C1382 N1386 1.427 . S
C1383 H1373 0.929 . S
C1383 C1381 1.433 . S
C1383 N1386 1.384 . S
C1384 H1375 0.929 . S
C1384 C1376 1.378 . S
C1384 C1379 1.350 . S
C1385 H1372 0.929 . S
C1385 C1377 1.433 . S
C1385 N1387 1.384 . S
N1386 C1382 1.427 . S
N1386 C1383 1.384 . S
N1387 C1379 1.427 . S
N1387 C1385 1.384 . S
H1388 C1394 0.930 . S
H1389 C1398 0.930 . S
H1390 C1403 0.929 . S
H1391 C1401 0.929 . S
H1392 C1396 0.929 . S
H1393 C1402 0.929 . S
C1394 H1388 0.930 . S
C1394 C1395 1.367 . S
C1394 C1402 1.378 . S
C1395 C1394 1.367 . S
C1395 C1403 1.433 . S
C1396 H1392 0.929 . S
C1396 C1398 1.378 . S
C1396 C1400 1.350 . S
C1397 C1400 1.463 . S
C1397 C1402 1.350 . S
C1397 N1405 1.427 . S
C1398 H1389 0.930 . S
C1398 C1396 1.378 . S
C1398 C1399 1.367 . S
C1399 C1398 1.367 . S
C1399 C1401 1.433 . S
C1400 C1396 1.350 . S
C1400 C1397 1.463 . S
C1400 N1404 1.427 . S
C1401 H1391 0.929 . S
C1401 C1399 1.433 . S
C1401 N1404 1.384 . S
C1402 H1393 0.929 . S
C1402 C1394 1.378 . S
C1402 C1397 1.350 . S
C1403 H1390 0.929 . S
C1403 C1395 1.433 . S
C1403 N1405 1.384 . S
N1404 C1400 1.427 . S
N1404 C1401 1.384 . S
N1405 C1397 1.427 . S
N1405 C1403 1.384 . S
H1406 C1412 0.930 . S
H1407 C1416 0.930 . S
H1408 C1421 0.929 . S
H1409 C1419 0.929 . S
H1410 C1414 0.929 . S
H1411 C1420 0.929 . S
C1412 H1406 0.930 . S
C1412 C1413 1.367 . S
C1412 C1420 1.378 . S
C1413 C1412 1.367 . S
C1413 C1421 1.433 . S
C1414 H1410 0.929 . S
C1414 C1416 1.378 . S
C1414 C1418 1.350 . S
C1415 C1418 1.463 . S
C1415 C1420 1.350 . S
C1415 N1423 1.427 . S
C1416 H1407 0.930 . S
C1416 C1414 1.378 . S
C1416 C1417 1.367 . S
C1417 C1416 1.367 . S
C1417 C1419 1.433 . S
C1418 C1414 1.350 . S
C1418 C1415 1.463 . S
C1418 N1422 1.427 . S
C1419 H1409 0.929 . S
C1419 C1417 1.433 . S
C1419 N1422 1.384 . S
C1420 H1411 0.929 . S
C1420 C1412 1.378 . S
C1420 C1415 1.350 . S
C1421 H1408 0.929 . S
C1421 C1413 1.433 . S
C1421 N1423 1.384 . S
N1422 C1418 1.427 . S
N1422 C1419 1.384 . S
N1423 C1415 1.427 . S
N1423 C1421 1.384 . S
H1424 C1430 0.930 . S
H1425 C1434 0.930 . S
H1426 C1439 0.929 . S
H1427 C1437 0.929 . S
H1428 C1432 0.929 . S
H1429 C1438 0.929 . S
C1430 H1424 0.930 . S
C1430 C1431 1.367 . S
C1430 C1438 1.378 . S
C1431 C1430 1.367 . S
C1431 C1439 1.433 . S
C1432 H1428 0.929 . S
C1432 C1434 1.378 . S
C1432 C1436 1.350 . S
C1433 C1436 1.463 . S
C1433 C1438 1.350 . S
C1433 N1441 1.427 . S
C1434 H1425 0.930 . S
C1434 C1432 1.378 . S
C1434 C1435 1.367 . S
C1435 C1434 1.367 . S
C1435 C1437 1.433 . S
C1436 C1432 1.350 . S
C1436 C1433 1.463 . S
C1436 N1440 1.427 . S
C1437 H1427 0.929 . S
C1437 C1435 1.433 . S
C1437 N1440 1.384 . S
C1438 H1429 0.929 . S
C1438 C1430 1.378 . S
C1438 C1433 1.350 . S
C1439 H1426 0.929 . S
C1439 C1431 1.433 . S
C1439 N1441 1.384 . S
N1440 C1436 1.427 . S
N1440 C1437 1.384 . S
N1441 C1433 1.427 . S
N1441 C1439 1.384 . S
H1442 C1448 0.930 . S
H1443 C1452 0.930 . S
H1444 C1457 0.929 . S
H1445 C1455 0.929 . S
H1446 C1450 0.929 . S
H1447 C1456 0.929 . S
C1448 H1442 0.930 . S
C1448 C1449 1.367 . S
C1448 C1456 1.378 . S
C1449 C1448 1.367 . S
C1449 C1457 1.433 . S
C1450 H1446 0.929 . S
C1450 C1452 1.378 . S
C1450 C1454 1.350 . S
C1451 C1454 1.463 . S
C1451 C1456 1.350 . S
C1451 N1459 1.427 . S
C1452 H1443 0.930 . S
C1452 C1450 1.378 . S
C1452 C1453 1.367 . S
C1453 C1452 1.367 . S
C1453 C1455 1.433 . S
C1454 C1450 1.350 . S
C1454 C1451 1.463 . S
C1454 N1458 1.427 . S
C1455 H1445 0.929 . S
C1455 C1453 1.433 . S
C1455 N1458 1.384 . S
C1456 H1447 0.929 . S
C1456 C1448 1.378 . S
C1456 C1451 1.350 . S
C1457 H1444 0.929 . S
C1457 C1449 1.433 . S
C1457 N1459 1.384 . S
N1458 C1454 1.427 . S
N1458 C1455 1.384 . S
N1459 C1451 1.427 . S
N1459 C1457 1.384 . S
H1460 C1466 0.930 . S
H1461 C1470 0.930 . S
H1462 C1475 0.929 . S
H1463 C1473 0.929 . S
H1464 C1468 0.929 . S
H1465 C1474 0.929 . S
C1466 H1460 0.930 . S
C1466 C1467 1.367 . S
C1466 C1474 1.378 . S
C1467 C1466 1.367 . S
C1467 C1475 1.433 . S
C1468 H1464 0.929 . S
C1468 C1470 1.378 . S
C1468 C1472 1.350 . S
C1469 C1472 1.463 . S
C1469 C1474 1.350 . S
C1469 N1477 1.427 . S
C1470 H1461 0.930 . S
C1470 C1468 1.378 . S
C1470 C1471 1.367 . S
C1471 C1470 1.367 . S
C1471 C1473 1.433 . S
C1472 C1468 1.350 . S
C1472 C1469 1.463 . S
C1472 N1476 1.427 . S
C1473 H1463 0.929 . S
C1473 C1471 1.433 . S
C1473 N1476 1.384 . S
C1474 H1465 0.929 . S
C1474 C1466 1.378 . S
C1474 C1469 1.350 . S
C1475 H1462 0.929 . S
C1475 C1467 1.433 . S
C1475 N1477 1.384 . S
N1476 C1472 1.427 . S
N1476 C1473 1.384 . S
N1477 C1469 1.427 . S
N1477 C1475 1.384 . S
H1478 C1484 0.930 . S
H1479 C1488 0.930 . S
H1480 C1493 0.929 . S
H1481 C1491 0.929 . S
H1482 C1486 0.929 . S
H1483 C1492 0.929 . S
C1484 H1478 0.930 . S
C1484 C1485 1.367 . S
C1484 C1492 1.378 . S
C1485 C1484 1.367 . S
C1485 C1493 1.433 . S
C1486 H1482 0.929 . S
C1486 C1488 1.378 . S
C1486 C1490 1.350 . S
C1487 C1490 1.463 . S
C1487 C1492 1.350 . S
C1487 N1495 1.427 . S
C1488 H1479 0.930 . S
C1488 C1486 1.378 . S
C1488 C1489 1.367 . S
C1489 C1488 1.367 . S
C1489 C1491 1.433 . S
C1490 C1486 1.350 . S
C1490 C1487 1.463 . S
C1490 N1494 1.427 . S
C1491 H1481 0.929 . S
C1491 C1489 1.433 . S
C1491 N1494 1.384 . S
C1492 H1483 0.929 . S
C1492 C1484 1.378 . S
C1492 C1487 1.350 . S
C1493 H1480 0.929 . S
C1493 C1485 1.433 . S
C1493 N1495 1.384 . S
N1494 C1490 1.427 . S
N1494 C1491 1.384 . S
N1495 C1487 1.427 . S
N1495 C1493 1.384 . S
H1496 C1502 0.930 . S
H1497 C1506 0.930 . S
H1498 C1511 0.929 . S
H1499 C1509 0.929 . S
H1500 C1504 0.929 . S
H1501 C1510 0.929 . S
C1502 H1496 0.930 . S
C1502 C1503 1.367 . S
C1502 C1510 1.378 . S
C1503 C1502 1.367 . S
C1503 C1511 1.433 . S
C1504 H1500 0.929 . S
C1504 C1506 1.378 . S
C1504 C1508 1.350 . S
C1505 C1508 1.463 . S
C1505 C1510 1.350 . S
C1505 N1513 1.427 . S
C1506 H1497 0.930 . S
C1506 C1504 1.378 . S
C1506 C1507 1.367 . S
C1507 C1506 1.367 . S
C1507 C1509 1.433 . S
C1508 C1504 1.350 . S
C1508 C1505 1.463 . S
C1508 N1512 1.427 . S
C1509 H1499 0.929 . S
C1509 C1507 1.433 . S
C1509 N1512 1.384 . S
C1510 H1501 0.929 . S
C1510 C1502 1.378 . S
C1510 C1505 1.350 . S
C1511 H1498 0.929 . S
C1511 C1503 1.433 . S
C1511 N1513 1.384 . S
N1512 C1508 1.427 . S
N1512 C1509 1.384 . S
N1513 C1505 1.427 . S
N1513 C1511 1.384 . S
H1514 C1520 0.930 . S
H1515 C1524 0.930 . S
H1516 C1529 0.929 . S
H1517 C1527 0.929 . S
H1518 C1522 0.929 . S
H1519 C1528 0.929 . S
C1520 H1514 0.930 . S
C1520 C1521 1.367 . S
C1520 C1528 1.378 . S
C1521 C1520 1.367 . S
C1521 C1529 1.433 . S
C1522 H1518 0.929 . S
C1522 C1524 1.378 . S
C1522 C1526 1.350 . S
C1523 C1526 1.463 . S
C1523 C1528 1.350 . S
C1523 N1531 1.427 . S
C1524 H1515 0.930 . S
C1524 C1522 1.378 . S
C1524 C1525 1.367 . S
C1525 C1524 1.367 . S
C1525 C1527 1.433 . S
C1526 C1522 1.350 . S
C1526 C1523 1.463 . S
C1526 N1530 1.427 . S
C1527 H1517 0.929 . S
C1527 C1525 1.433 . S
C1527 N1530 1.384 . S
C1528 H1519 0.929 . S
C1528 C1520 1.378 . S
C1528 C1523 1.350 . S
C1529 H1516 0.929 . S
C1529 C1521 1.433 . S
C1529 N1531 1.384 . S
N1530 C1526 1.427 . S
N1530 C1527 1.384 . S
N1531 C1523 1.427 . S
N1531 C1529 1.384 . S
H1532 C1538 0.930 . S
H1533 C1542 0.930 . S
H1534 C1547 0.929 . S
H1535 C1545 0.929 . S
H1536 C1540 0.929 . S
H1537 C1546 0.929 . S
C1538 H1532 0.930 . S
C1538 C1539 1.367 . S
C1538 C1546 1.378 . S
C1539 C1538 1.367 . S
C1539 C1547 1.433 . S
C1540 H1536 0.929 . S
C1540 C1542 1.378 . S
C1540 C1544 1.350 . S
C1541 C1544 1.463 . S
C1541 C1546 1.350 . S
C1541 N1549 1.427 . S
C1542 H1533 0.930 . S
C1542 C1540 1.378 . S
C1542 C1543 1.367 . S
C1543 C1542 1.367 . S
C1543 C1545 1.433 . S
C1544 C1540 1.350 . S
C1544 C1541 1.463 . S
C1544 N1548 1.427 . S
C1545 H1535 0.929 . S
C1545 C1543 1.433 . S
C1545 N1548 1.384 . S
C1546 H1537 0.929 . S
C1546 C1538 1.378 . S
C1546 C1541 1.350 . S
C1547 H1534 0.929 . S
C1547 C1539 1.433 . S
C1547 N1549 1.384 . S
N1548 C1544 1.427 . S
N1548 C1545 1.384 . S
N1549 C1541 1.427 . S
N1549 C1547 1.384 . S
H1550 C1556 0.930 . S
H1551 C1560 0.930 . S
H1552 C1565 0.929 . S
H1553 C1563 0.929 . S
H1554 C1558 0.929 . S
H1555 C1564 0.929 . S
C1556 H1550 0.930 . S
C1556 C1557 1.367 . S
C1556 C1564 1.378 . S
C1557 C1556 1.367 . S
C1557 C1565 1.433 . S
C1558 H1554 0.929 . S
C1558 C1560 1.378 . S
C1558 C1562 1.350 . S
C1559 C1562 1.463 . S
C1559 C1564 1.350 . S
C1559 N1567 1.427 . S
C1560 H1551 0.930 . S
C1560 C1558 1.378 . S
C1560 C1561 1.367 . S
C1561 C1560 1.367 . S
C1561 C1563 1.433 . S
C1562 C1558 1.350 . S
C1562 C1559 1.463 . S
C1562 N1566 1.427 . S
C1563 H1553 0.929 . S
C1563 C1561 1.433 . S
C1563 N1566 1.384 . S
C1564 H1555 0.929 . S
C1564 C1556 1.378 . S
C1564 C1559 1.350 . S
C1565 H1552 0.929 . S
C1565 C1557 1.433 . S
C1565 N1567 1.384 . S
N1566 C1562 1.427 . S
N1566 C1563 1.384 . S
N1567 C1559 1.427 . S
N1567 C1565 1.384 . S
H1568 C1574 0.930 . S
H1569 C1578 0.930 . S
H1570 C1583 0.933 . S
H1571 C1581 0.934 . S
H1572 C1576 0.929 . S
H1573 C1582 0.929 . S
C1574 H1568 0.930 . S
C1574 C1575 1.367 . S
C1574 C1582 1.378 . S
C1575 C1574 1.367 . S
C1575 C1583 1.433 1_554 S
C1576 H1572 0.929 . S
C1576 C1578 1.378 . S
C1576 C1580 1.350 . S
C1577 C1580 1.463 1_454 S
C1577 C1582 1.350 . S
C1577 N1585 1.427 1_454 S
C1578 H1569 0.930 . S
C1578 C1576 1.378 . S
C1578 C1579 1.367 . S
C1579 C1578 1.367 . S
C1579 C1581 1.433 1_556 S
C1580 C1576 1.350 . S
C1580 C1577 1.463 1_656 S
C1580 N1584 1.427 1_656 S
C1581 H1571 0.934 . S
C1581 C1579 1.433 1_554 S
C1581 N1584 1.384 1_655 S
C1582 H1573 0.929 . S
C1582 C1574 1.378 . S
C1582 C1577 1.350 . S
C1583 H1570 0.933 . S
C1583 C1575 1.433 1_556 S
C1583 N1585 1.384 1_455 S
N1584 C1580 1.427 1_454 S
N1584 C1581 1.384 1_455 S
N1585 C1577 1.427 1_656 S
N1585 C1583 1.384 1_655 S
H1586 C1592 0.930 . S
H1587 C1596 0.930 . S
H1588 C1601 0.929 . S
H1589 C1599 0.929 . S
H1590 C1594 0.929 . S
H1591 C1600 0.929 . S
C1592 H1586 0.930 . S
C1592 C1593 1.367 . S
C1592 C1600 1.378 . S
C1593 C1592 1.367 . S
C1593 C1601 1.433 1_556 S
C1594 H1590 0.929 . S
C1594 C1596 1.378 . S
C1594 C1598 1.350 . S
C1595 C1598 1.463 1_556 S
C1595 C1600 1.350 . S
C1595 N1603 1.427 1_556 S
C1596 H1587 0.930 . S
C1596 C1594 1.378 . S
C1596 C1597 1.367 . S
C1597 C1596 1.367 . S
C1597 C1599 1.433 1_554 S
C1598 C1594 1.350 . S
C1598 C1595 1.463 1_554 S
C1598 N1602 1.427 1_554 S
C1599 H1589 0.929 . S
C1599 C1597 1.433 1_556 S
C1599 N1602 1.384 . S
C1600 H1591 0.929 . S
C1600 C1592 1.378 . S
C1600 C1595 1.350 . S
C1601 H1588 0.929 . S
C1601 C1593 1.433 1_554 S
C1601 N1603 1.384 . S
N1602 C1598 1.427 1_556 S
N1602 C1599 1.384 . S
N1603 C1595 1.427 1_554 S
N1603 C1601 1.384 . S
H1604 C1610 0.930 . S
H1605 C1614 0.930 . S
H1606 C1619 0.929 . S
H1607 C1617 0.929 . S
H1608 C1612 0.925 1_455 S
H1609 C1618 0.924 1_655 S
C1610 H1604 0.930 . S
C1610 C1611 1.367 . S
C1610 C1618 1.378 . S
C1611 C1610 1.367 . S
C1611 C1619 1.433 . S
C1612 H1608 0.925 1_655 S
C1612 C1614 1.378 . S
C1612 C1616 1.350 . S
C1613 C1616 1.463 1_455 S
C1613 C1618 1.350 . S
C1613 N1621 1.427 . S
C1614 H1605 0.930 . S
C1614 C1612 1.378 . S
C1614 C1615 1.367 . S
C1615 C1614 1.367 . S
C1615 C1617 1.433 . S
C1616 C1612 1.350 . S
C1616 C1613 1.463 1_655 S
C1616 N1620 1.427 . S
C1617 H1607 0.929 . S
C1617 C1615 1.433 . S
C1617 N1620 1.384 . S
C1618 H1609 0.924 1_455 S
C1618 C1610 1.378 . S
C1618 C1613 1.350 . S
C1619 H1606 0.929 . S
C1619 C1611 1.433 . S
C1619 N1621 1.384 . S
N1620 C1616 1.427 . S
N1620 C1617 1.384 . S
N1621 C1613 1.427 . S
N1621 C1619 1.384 . S
H1622 C1628 0.930 . S
H1623 C1632 0.930 . S
H1624 C1637 0.929 . S
H1625 C1635 0.929 . S
H1626 C1630 0.929 . S
H1627 C1636 0.929 . S
C1628 H1622 0.930 . S
C1628 C1629 1.367 . S
C1628 C1636 1.378 . S
C1629 C1628 1.367 . S
C1629 C1637 1.433 . S
C1630 H1626 0.929 . S
C1630 C1632 1.378 . S
C1630 C1634 1.350 . S
C1631 C1634 1.463 . S
C1631 C1636 1.350 . S
C1631 N1639 1.427 . S
C1632 H1623 0.930 . S
C1632 C1630 1.378 . S
C1632 C1633 1.367 . S
C1633 C1632 1.367 . S
C1633 C1635 1.433 . S
C1634 C1630 1.350 . S
C1634 C1631 1.463 . S
C1634 N1638 1.427 . S
C1635 H1625 0.929 . S
C1635 C1633 1.433 . S
C1635 N1638 1.384 . S
C1636 H1627 0.929 . S
C1636 C1628 1.378 . S
C1636 C1631 1.350 . S
C1637 H1624 0.929 . S
C1637 C1629 1.433 . S
C1637 N1639 1.384 . S
N1638 C1634 1.427 . S
N1638 C1635 1.384 . S
N1639 C1631 1.427 . S
N1639 C1637 1.384 . S
H1640 C1646 0.930 . S
H1641 C1650 0.930 . S
H1642 C1655 0.929 . S
H1643 C1653 0.929 . S
H1644 C1648 0.929 . S
H1645 C1654 0.929 . S
C1646 H1640 0.930 . S
C1646 C1647 1.367 . S
C1646 C1654 1.378 . S
C1647 C1646 1.367 . S
C1647 C1655 1.433 1_554 S
C1648 H1644 0.929 . S
C1648 C1650 1.378 . S
C1648 C1652 1.350 . S
C1649 C1652 1.463 1_554 S
C1649 C1654 1.350 . S
C1649 N1657 1.427 1_554 S
C1650 H1641 0.930 . S
C1650 C1648 1.378 . S
C1650 C1651 1.367 . S
C1651 C1650 1.367 . S
C1651 C1653 1.433 1_556 S
C1652 C1648 1.350 . S
C1652 C1649 1.463 1_556 S
C1652 N1656 1.427 1_556 S
C1653 H1643 0.929 . S
C1653 C1651 1.433 1_554 S
C1653 N1656 1.384 . S
C1654 H1645 0.929 . S
C1654 C1646 1.378 . S
C1654 C1649 1.350 . S
C1655 H1642 0.929 . S
C1655 C1647 1.433 1_556 S
C1655 N1657 1.384 . S
N1656 C1652 1.427 1_554 S
N1656 C1653 1.384 . S
N1657 C1649 1.427 1_556 S
N1657 C1655 1.384 . S
H1658 C1664 0.930 . S
H1659 C1668 0.930 . S
H1660 C1673 0.929 . S
H1661 C1671 0.929 . S
H1662 C1666 0.929 1_655 S
H1663 C1672 0.929 1_455 S
C1664 H1658 0.930 . S
C1664 C1665 1.367 . S
C1664 C1672 1.378 . S
C1665 C1664 1.367 . S
C1665 C1673 1.433 . S
C1666 H1662 0.929 1_455 S
C1666 C1668 1.378 . S
C1666 C1670 1.350 . S
C1667 C1670 1.463 1_655 S
C1667 C1672 1.350 . S
C1667 N1675 1.427 . S
C1668 H1659 0.930 . S
C1668 C1666 1.378 . S
C1668 C1669 1.367 . S
C1669 C1668 1.367 . S
C1669 C1671 1.433 . S
C1670 C1666 1.350 . S
C1670 C1667 1.463 1_455 S
C1670 N1674 1.427 . S
C1671 H1661 0.929 . S
C1671 C1669 1.433 . S
C1671 N1674 1.384 . S
C1672 H1663 0.929 1_655 S
C1672 C1664 1.378 . S
C1672 C1667 1.350 . S
C1673 H1660 0.929 . S
C1673 C1665 1.433 . S
C1673 N1675 1.384 . S
N1674 C1670 1.427 . S
N1674 C1671 1.384 . S
N1675 C1667 1.427 . S
N1675 C1673 1.384 . S
H1676 C1682 0.930 . S
H1677 C1686 0.930 . S
H1678 C1691 0.929 . S
H1679 C1689 0.929 . S
H1680 C1684 0.929 . S
H1681 C1690 0.929 . S
C1682 H1676 0.930 . S
C1682 C1683 1.367 . S
C1682 C1690 1.378 . S
C1683 C1682 1.367 . S
C1683 C1691 1.433 . S
C1684 H1680 0.929 . S
C1684 C1686 1.378 . S
C1684 C1688 1.350 . S
C1685 C1688 1.463 . S
C1685 C1690 1.350 . S
C1685 N1693 1.427 . S
C1686 H1677 0.930 . S
C1686 C1684 1.378 . S
C1686 C1687 1.367 . S
C1687 C1686 1.367 . S
C1687 C1689 1.433 . S
C1688 C1684 1.350 . S
C1688 C1685 1.463 . S
C1688 N1692 1.427 . S
C1689 H1679 0.929 . S
C1689 C1687 1.433 . S
C1689 N1692 1.384 . S
C1690 H1681 0.929 . S
C1690 C1682 1.378 . S
C1690 C1685 1.350 . S
C1691 H1678 0.929 . S
C1691 C1683 1.433 . S
C1691 N1693 1.384 . S
N1692 C1688 1.427 . S
N1692 C1689 1.384 . S
N1693 C1685 1.427 . S
N1693 C1691 1.384 . S
H1694 C1700 0.930 . S
H1695 C1704 0.930 . S
H1696 C1709 0.929 . S
H1697 C1707 0.929 . S
H1698 C1702 0.951 . S
H1699 C1708 0.929 1_545 S
C1700 H1694 0.930 . S
C1700 C1701 1.367 . S
C1700 C1708 1.378 . S
C1701 C1700 1.367 . S
C1701 C1709 1.433 1_455 S
C1702 H1698 0.951 . S
C1702 C1704 1.378 . S
C1702 C1706 1.350 . S
C1703 C1706 1.463 1_465 S
C1703 C1708 1.350 . S
C1703 N1711 1.427 1_455 S
C1704 H1695 0.930 . S
C1704 C1702 1.378 . S
C1704 C1705 1.367 . S
C1705 C1704 1.367 . S
C1705 C1707 1.433 1_655 S
C1706 C1702 1.350 . S
C1706 C1703 1.463 1_645 S
C1706 N1710 1.427 1_655 S
C1707 H1697 0.929 . S
C1707 C1705 1.433 1_455 S
C1707 N1710 1.384 . S
C1708 H1699 0.929 1_565 S
C1708 C1700 1.378 . S
C1708 C1703 1.350 . S
C1709 H1696 0.929 . S
C1709 C1701 1.433 1_655 S
C1709 N1711 1.384 . S
N1710 C1706 1.427 1_455 S
N1710 C1707 1.384 . S
N1711 C1703 1.427 1_655 S
N1711 C1709 1.384 . S
H1712 C1718 0.930 . S
H1713 C1722 0.930 . S
H1714 C1727 0.929 . S
H1715 C1725 0.929 . S
H1716 C1720 0.929 . S
H1717 C1726 0.929 . S
C1718 H1712 0.930 . S
C1718 C1719 1.367 . S
C1718 C1726 1.378 . S
C1719 C1718 1.367 . S
C1719 C1727 1.433 . S
C1720 H1716 0.929 . S
C1720 C1722 1.378 . S
C1720 C1724 1.350 . S
C1721 C1724 1.463 . S
C1721 C1726 1.350 . S
C1721 N1729 1.427 . S
C1722 H1713 0.930 . S
C1722 C1720 1.378 . S
C1722 C1723 1.367 . S
C1723 C1722 1.367 . S
C1723 C1725 1.433 . S
C1724 C1720 1.350 . S
C1724 C1721 1.463 . S
C1724 N1728 1.427 . S
C1725 H1715 0.929 . S
C1725 C1723 1.433 . S
C1725 N1728 1.384 . S
C1726 H1717 0.929 . S
C1726 C1718 1.378 . S
C1726 C1721 1.350 . S
C1727 H1714 0.929 . S
C1727 C1719 1.433 . S
C1727 N1729 1.384 . S
N1728 C1724 1.427 . S
N1728 C1725 1.384 . S
N1729 C1721 1.427 . S
N1729 C1727 1.384 . S
H1730 C1736 0.930 . S
H1731 C1740 0.930 . S
H1732 C1745 0.929 . S
H1733 C1743 0.929 . S
H1734 C1738 0.929 . S
H1735 C1744 0.929 . S
C1736 H1730 0.930 . S
C1736 C1737 1.367 . S
C1736 C1744 1.378 . S
C1737 C1736 1.367 . S
C1737 C1745 1.433 . S
C1738 H1734 0.929 . S
C1738 C1740 1.378 . S
C1738 C1742 1.350 . S
C1739 C1742 1.463 1_545 S
C1739 C1744 1.350 . S
C1739 N1747 1.427 . S
C1740 H1731 0.930 . S
C1740 C1738 1.378 . S
C1740 C1741 1.367 . S
C1741 C1740 1.367 . S
C1741 C1743 1.433 . S
C1742 C1738 1.350 . S
C1742 C1739 1.463 1_565 S
C1742 N1746 1.427 . S
C1743 H1733 0.929 . S
C1743 C1741 1.433 . S
C1743 N1746 1.384 . S
C1744 H1735 0.929 . S
C1744 C1736 1.378 . S
C1744 C1739 1.350 . S
C1745 H1732 0.929 . S
C1745 C1737 1.433 . S
C1745 N1747 1.384 . S
N1746 C1742 1.427 . S
N1746 C1743 1.384 . S
N1747 C1739 1.427 . S
N1747 C1745 1.384 . S
H1748 C1754 0.930 . S
H1749 C1758 0.930 . S
H1750 C1763 0.929 . S
H1751 C1761 0.929 . S
H1752 C1756 0.929 . S
H1753 C1762 0.929 . S
C1754 H1748 0.930 . S
C1754 C1755 1.367 . S
C1754 C1762 1.378 . S
C1755 C1754 1.367 . S
C1755 C1763 1.433 . S
C1756 H1752 0.929 . S
C1756 C1758 1.378 . S
C1756 C1760 1.350 . S
C1757 C1760 1.463 . S
C1757 C1762 1.350 . S
C1757 N1765 1.427 . S
C1758 H1749 0.930 . S
C1758 C1756 1.378 . S
C1758 C1759 1.367 . S
C1759 C1758 1.367 . S
C1759 C1761 1.433 . S
C1760 C1756 1.350 . S
C1760 C1757 1.463 . S
C1760 N1764 1.427 . S
C1761 H1751 0.929 . S
C1761 C1759 1.433 . S
C1761 N1764 1.384 . S
C1762 H1753 0.929 . S
C1762 C1754 1.378 . S
C1762 C1757 1.350 . S
C1763 H1750 0.929 . S
C1763 C1755 1.433 . S
C1763 N1765 1.384 . S
N1764 C1760 1.427 . S
N1764 C1761 1.384 . S
N1765 C1757 1.427 . S
N1765 C1763 1.384 . S
H1766 C1772 0.930 . S
H1767 C1776 0.930 . S
H1768 C1781 0.929 . S
H1769 C1779 0.929 . S
H1770 C1774 0.929 . S
H1771 C1780 0.929 . S
C1772 H1766 0.930 . S
C1772 C1773 1.367 . S
C1772 C1780 1.378 . S
C1773 C1772 1.367 . S
C1773 C1781 1.433 . S
C1774 H1770 0.929 . S
C1774 C1776 1.378 . S
C1774 C1778 1.350 . S
C1775 C1778 1.463 1_565 S
C1775 C1780 1.350 . S
C1775 N1783 1.427 . S
C1776 H1767 0.930 . S
C1776 C1774 1.378 . S
C1776 C1777 1.367 . S
C1777 C1776 1.367 . S
C1777 C1779 1.433 . S
C1778 C1774 1.350 . S
C1778 C1775 1.463 1_545 S
C1778 N1782 1.427 . S
C1779 H1769 0.929 . S
C1779 C1777 1.433 . S
C1779 N1782 1.384 . S
C1780 H1771 0.929 . S
C1780 C1772 1.378 . S
C1780 C1775 1.350 . S
C1781 H1768 0.929 . S
C1781 C1773 1.433 . S
C1781 N1783 1.384 . S
N1782 C1778 1.427 . S
N1782 C1779 1.384 . S
N1783 C1775 1.427 . S
N1783 C1781 1.384 . S
H1784 C1790 0.930 . S
H1785 C1794 0.930 . S
H1786 C1799 0.929 . S
H1787 C1797 0.929 . S
H1788 C1792 0.929 . S
H1789 C1798 0.929 . S
C1790 H1784 0.930 . S
C1790 C1791 1.367 . S
C1790 C1798 1.378 . S
C1791 C1790 1.367 . S
C1791 C1799 1.433 . S
C1792 H1788 0.929 . S
C1792 C1794 1.378 . S
C1792 C1796 1.350 . S
C1793 C1796 1.463 . S
C1793 C1798 1.350 . S
C1793 N1801 1.427 . S
C1794 H1785 0.930 . S
C1794 C1792 1.378 . S
C1794 C1795 1.367 . S
C1795 C1794 1.367 . S
C1795 C1797 1.433 . S
C1796 C1792 1.350 . S
C1796 C1793 1.463 . S
C1796 N1800 1.427 . S
C1797 H1787 0.929 . S
C1797 C1795 1.433 . S
C1797 N1800 1.384 . S
C1798 H1789 0.929 . S
C1798 C1790 1.378 . S
C1798 C1793 1.350 . S
C1799 H1786 0.929 . S
C1799 C1791 1.433 . S
C1799 N1801 1.384 . S
N1800 C1796 1.427 . S
N1800 C1797 1.384 . S
N1801 C1793 1.427 . S
N1801 C1799 1.384 . S
H1802 C1808 0.930 . S
H1803 C1812 0.930 . S
H1804 C1817 0.929 . S
H1805 C1815 0.929 . S
H1806 C1810 0.929 . S
H1807 C1816 0.929 . S
C1808 H1802 0.930 . S
C1808 C1809 1.367 . S
C1808 C1816 1.378 . S
C1809 C1808 1.367 . S
C1809 C1817 1.433 . S
C1810 H1806 0.929 . S
C1810 C1812 1.378 . S
C1810 C1814 1.350 . S
C1811 C1814 1.463 . S
C1811 C1816 1.350 . S
C1811 N1819 1.427 . S
C1812 H1803 0.930 . S
C1812 C1810 1.378 . S
C1812 C1813 1.367 . S
C1813 C1812 1.367 . S
C1813 C1815 1.433 . S
C1814 C1810 1.350 . S
C1814 C1811 1.463 . S
C1814 N1818 1.427 . S
C1815 H1805 0.929 . S
C1815 C1813 1.433 . S
C1815 N1818 1.384 . S
C1816 H1807 0.929 . S
C1816 C1808 1.378 . S
C1816 C1811 1.350 . S
C1817 H1804 0.929 . S
C1817 C1809 1.433 . S
C1817 N1819 1.384 . S
N1818 C1814 1.427 . S
N1818 C1815 1.384 . S
N1819 C1811 1.427 . S
N1819 C1817 1.384 . S
H1820 C1826 0.930 . S
H1821 C1830 0.930 . S
H1822 C1835 0.929 . S
H1823 C1833 0.929 . S
H1824 C1828 0.929 . S
H1825 C1834 0.929 . S
C1826 H1820 0.930 . S
C1826 C1827 1.367 . S
C1826 C1834 1.378 . S
C1827 C1826 1.367 . S
C1827 C1835 1.433 . S
C1828 H1824 0.929 . S
C1828 C1830 1.378 . S
C1828 C1832 1.350 . S
C1829 C1832 1.463 . S
C1829 C1834 1.350 . S
C1829 N1837 1.427 . S
C1830 H1821 0.930 . S
C1830 C1828 1.378 . S
C1830 C1831 1.367 . S
C1831 C1830 1.367 . S
C1831 C1833 1.433 . S
C1832 C1828 1.350 . S
C1832 C1829 1.463 . S
C1832 N1836 1.427 . S
C1833 H1823 0.929 . S
C1833 C1831 1.433 . S
C1833 N1836 1.384 . S
C1834 H1825 0.929 . S
C1834 C1826 1.378 . S
C1834 C1829 1.350 . S
C1835 H1822 0.929 . S
C1835 C1827 1.433 . S
C1835 N1837 1.384 . S
N1836 C1832 1.427 . S
N1836 C1833 1.384 . S
N1837 C1829 1.427 . S
N1837 C1835 1.384 . S
H1838 C1844 0.930 1_556 S
H1839 C1848 0.907 1_554 S
H1840 C1853 0.929 . S
H1841 C1851 0.929 . S
H1842 C1846 0.929 . S
H1843 C1852 0.929 . S
C1844 H1838 0.930 1_554 S
C1844 C1845 1.367 . S
C1844 C1852 1.378 1_554 S
C1845 C1844 1.367 . S
C1845 C1853 1.433 . S
C1846 H1842 0.929 . S
C1846 C1848 1.359 1_554 S
C1846 C1850 1.350 1_554 S
C1847 C1850 1.463 1_564 S
C1847 C1852 1.350 1_554 S
C1847 N1855 1.427 . S
C1848 H1839 0.907 1_556 S
C1848 C1846 1.359 1_556 S
C1848 C1849 1.414 . S
C1849 C1848 1.414 . S
C1849 C1851 1.433 . S
C1850 C1846 1.350 1_556 S
C1850 C1847 1.463 1_546 S
C1850 N1854 1.427 . S
C1851 H1841 0.929 . S
C1851 C1849 1.433 . S
C1851 N1854 1.384 . S
C1852 H1843 0.929 . S
C1852 C1844 1.378 1_556 S
C1852 C1847 1.350 1_556 S
C1853 H1840 0.929 . S
C1853 C1845 1.433 . S
C1853 N1855 1.384 . S
N1854 C1850 1.427 . S
N1854 C1851 1.384 . S
N1855 C1847 1.427 . S
N1855 C1853 1.384 . S
H1856 C1862 0.930 . S
H1857 C1866 0.912 1_554 S
H1858 C1871 0.929 . S
H1859 C1869 0.929 . S
H1860 C1864 0.929 . S
H1861 C1870 0.929 1_556 S
C1862 H1856 0.930 . S
C1862 C1863 1.367 . S
C1862 C1870 1.378 . S
C1863 C1862 1.367 . S
C1863 C1871 1.433 . S
C1864 H1860 0.929 . S
C1864 C1866 1.350 1_554 S
C1864 C1868 1.350 . S
C1865 C1868 1.463 . S
C1865 C1870 1.350 . S
C1865 N1873 1.427 . S
C1866 H1857 0.912 1_556 S
C1866 C1864 1.350 1_556 S
C1866 C1867 1.414 . S
C1867 C1866 1.414 . S
C1867 C1869 1.433 . S
C1868 C1864 1.350 . S
C1868 C1865 1.463 . S
C1868 N1872 1.427 1_554 S
C1869 H1859 0.929 . S
C1869 C1867 1.433 . S
C1869 N1872 1.384 . S
C1870 H1861 0.929 1_554 S
C1870 C1862 1.378 . S
C1870 C1865 1.350 . S
C1871 H1858 0.929 . S
C1871 C1863 1.433 . S
C1871 N1873 1.384 . S
N1872 C1868 1.427 1_556 S
N1872 C1869 1.384 . S
N1873 C1865 1.427 . S
N1873 C1871 1.384 . S
H1874 C1880 0.930 . S
H1875 C1884 0.930 . S
H1876 C1889 0.929 . S
H1877 C1887 0.912 1_554 S
H1878 C1882 0.929 . S
H1879 C1888 0.929 . S
C1880 H1874 0.930 . S
C1880 C1881 1.367 . S
C1880 C1888 1.378 . S
C1881 C1880 1.367 . S
C1881 C1889 1.433 . S
C1882 H1878 0.929 . S
C1882 C1884 1.378 . S
C1882 C1886 1.350 1_556 S
C1883 C1886 1.463 . S
C1883 C1888 1.350 . S
C1883 N1891 1.427 . S
C1884 H1875 0.930 . S
C1884 C1882 1.378 . S
C1884 C1885 1.367 . S
C1885 C1884 1.367 . S
C1885 C1887 1.480 . S
C1886 C1882 1.350 1_554 S
C1886 C1883 1.463 . S
C1886 N1890 1.427 . S
C1887 H1877 0.912 1_556 S
C1887 C1885 1.480 . S
C1887 N1890 1.356 1_556 S
C1888 H1879 0.929 . S
C1888 C1880 1.378 . S
C1888 C1883 1.350 . S
C1889 H1876 0.929 . S
C1889 C1881 1.433 . S
C1889 N1891 1.384 . S
N1890 C1886 1.427 . S
N1890 C1887 1.356 1_554 S
N1891 C1883 1.427 . S
N1891 C1889 1.384 . S
H1892 C1898 0.930 . S
H1893 C1902 0.930 . S
H1894 C1907 0.929 . S
H1895 C1905 0.929 . S
H1896 C1900 0.929 . S
H1897 C1906 0.929 . S
C1898 H1892 0.930 . S
C1898 C1899 1.367 . S
C1898 C1906 1.378 . S
C1899 C1898 1.367 . S
C1899 C1907 1.433 . S
C1900 H1896 0.929 . S
C1900 C1902 1.378 . S
C1900 C1904 1.350 . S
C1901 C1904 1.463 . S
C1901 C1906 1.350 . S
C1901 N1909 1.427 . S
C1902 H1893 0.930 . S
C1902 C1900 1.378 . S
C1902 C1903 1.367 . S
C1903 C1902 1.367 . S
C1903 C1905 1.433 . S
C1904 C1900 1.350 . S
C1904 C1901 1.463 . S
C1904 N1908 1.427 . S
C1905 H1895 0.929 . S
C1905 C1903 1.433 . S
C1905 N1908 1.384 . S
C1906 H1897 0.929 . S
C1906 C1898 1.378 . S
C1906 C1901 1.350 . S
C1907 H1894 0.929 . S
C1907 C1899 1.433 . S
C1907 N1909 1.384 . S
N1908 C1904 1.427 . S
N1908 C1905 1.384 . S
N1909 C1901 1.427 . S
N1909 C1907 1.384 . S
H1910 C1916 0.930 . S
H1911 C1920 0.930 . S
H1912 C1925 0.929 . S
H1913 C1923 0.929 1_655 S
H1914 C1918 0.929 . S
H1915 C1924 0.929 . S
C1916 H1910 0.930 . S
C1916 C1917 1.367 . S
C1916 C1924 1.378 . S
C1917 C1916 1.367 . S
C1917 C1925 1.433 . S
C1918 H1914 0.929 . S
C1918 C1920 1.378 . S
C1918 C1922 1.350 . S
C1919 C1922 1.463 . S
C1919 C1924 1.350 . S
C1919 N1927 1.427 . S
C1920 H1911 0.930 . S
C1920 C1918 1.378 . S
C1920 C1921 1.367 . S
C1921 C1920 1.367 . S
C1921 C1923 1.433 . S
C1922 C1918 1.350 . S
C1922 C1919 1.463 . S
C1922 N1926 1.427 . S
C1923 H1913 0.929 1_455 S
C1923 C1921 1.433 . S
C1923 N1926 1.384 . S
C1924 H1915 0.929 . S
C1924 C1916 1.378 . S
C1924 C1919 1.350 . S
C1925 H1912 0.929 . S
C1925 C1917 1.433 . S
C1925 N1927 1.384 . S
N1926 C1922 1.427 . S
N1926 C1923 1.384 . S
N1927 C1919 1.427 . S
N1927 C1925 1.384 . S
H1928 C1934 0.930 . S
H1929 C1938 0.930 . S
H1930 C1943 0.929 . S
H1931 C1941 0.931 . S
H1932 C1936 0.929 . S
H1933 C1942 0.929 . S
C1934 H1928 0.930 . S
C1934 C1935 1.367 . S
C1934 C1942 1.378 . S
C1935 C1934 1.367 . S
C1935 C1943 1.433 . S
C1936 H1932 0.929 . S
C1936 C1938 1.378 . S
C1936 C1940 1.350 1_554 S
C1937 C1940 1.463 . S
C1937 C1942 1.350 . S
C1937 N1945 1.427 . S
C1938 H1929 0.930 . S
C1938 C1936 1.378 . S
C1938 C1939 1.367 . S
C1939 C1938 1.367 . S
C1939 C1941 1.430 1_554 S
C1940 C1936 1.350 1_556 S
C1940 C1937 1.463 . S
C1940 N1944 1.427 . S
C1941 H1931 0.931 . S
C1941 C1939 1.430 1_556 S
C1941 N1944 1.386 . S
C1942 H1933 0.929 . S
C1942 C1934 1.378 . S
C1942 C1937 1.350 . S
C1943 H1930 0.929 . S
C1943 C1935 1.433 . S
C1943 N1945 1.384 . S
N1944 C1940 1.427 . S
N1944 C1941 1.386 . S
N1945 C1937 1.427 . S
N1945 C1943 1.384 . S
H1946 C1952 0.930 . S
H1947 C1956 0.930 . S
H1948 C1961 0.929 . S
H1949 C1959 0.929 1_455 S
H1950 C1954 0.905 1_556 S
H1951 C1960 0.929 . S
C1952 H1946 0.930 . S
C1952 C1953 1.367 . S
C1952 C1960 1.378 . S
C1953 C1952 1.367 . S
C1953 C1961 1.433 . S
C1954 H1950 0.905 1_554 S
C1954 C1956 1.417 . S
C1954 C1958 1.339 1_554 S
C1955 C1958 1.463 . S
C1955 C1960 1.350 . S
C1955 N1963 1.427 . S
C1956 H1947 0.930 . S
C1956 C1954 1.417 . S
C1956 C1957 1.367 . S
C1957 C1956 1.367 . S
C1957 C1959 1.433 . S
C1958 C1954 1.339 1_556 S
C1958 C1955 1.463 . S
C1958 N1962 1.427 1_556 S
C1959 H1949 0.929 1_655 S
C1959 C1957 1.433 . S
C1959 N1962 1.384 . S
C1960 H1951 0.929 . S
C1960 C1952 1.378 . S
C1960 C1955 1.350 . S
C1961 H1948 0.929 . S
C1961 C1953 1.433 . S
C1961 N1963 1.384 . S
N1962 C1958 1.427 1_554 S
N1962 C1959 1.384 . S
N1963 C1955 1.427 . S
N1963 C1961 1.384 . S
H1964 C1970 0.930 . S
H1965 C1974 0.930 . S
H1966 C1979 0.929 . S
H1967 C1977 0.929 . S
H1968 C1972 0.929 . S
H1969 C1978 0.929 . S
C1970 H1964 0.930 . S
C1970 C1971 1.367 . S
C1970 C1978 1.378 . S
C1971 C1970 1.367 . S
C1971 C1979 1.433 . S
C1972 H1968 0.929 . S
C1972 C1974 1.378 . S
C1972 C1976 1.350 . S
C1973 C1976 1.463 . S
C1973 C1978 1.350 . S
C1973 N1981 1.427 . S
C1974 H1965 0.930 . S
C1974 C1972 1.378 . S
C1974 C1975 1.367 . S
C1975 C1974 1.367 . S
C1975 C1977 1.433 . S
C1976 C1972 1.350 . S
C1976 C1973 1.463 . S
C1976 N1980 1.427 . S
C1977 H1967 0.929 . S
C1977 C1975 1.433 . S
C1977 N1980 1.384 . S
C1978 H1969 0.929 . S
C1978 C1970 1.378 . S
C1978 C1973 1.350 . S
C1979 H1966 0.929 . S
C1979 C1971 1.433 . S
C1979 N1981 1.384 . S
N1980 C1976 1.427 . S
N1980 C1977 1.384 . S
N1981 C1973 1.427 . S
N1981 C1979 1.384 . S
H1982 C1988 0.930 1_455 S
H1983 C1992 0.930 . S
H1984 C1997 0.929 . S
H1985 C1995 0.929 . S
H1986 C1990 0.929 . S
H1987 C1996 0.929 . S
C1988 H1982 0.930 1_655 S
C1988 C1989 1.367 . S
C1988 C1996 1.378 . S
C1989 C1988 1.367 . S
C1989 C1997 1.433 . S
C1990 H1986 0.929 . S
C1990 C1992 1.378 . S
C1990 C1994 1.350 . S
C1991 C1994 1.463 . S
C1991 C1996 1.350 . S
C1991 N1999 1.427 . S
C1992 H1983 0.930 . S
C1992 C1990 1.378 . S
C1992 C1993 1.367 . S
C1993 C1992 1.367 . S
C1993 C1995 1.433 . S
C1994 C1990 1.350 . S
C1994 C1991 1.463 . S
C1994 N1998 1.427 . S
C1995 H1985 0.929 . S
C1995 C1993 1.433 . S
C1995 N1998 1.384 . S
C1996 H1987 0.929 . S
C1996 C1988 1.378 . S
C1996 C1991 1.350 . S
C1997 H1984 0.929 . S
C1997 C1989 1.433 . S
C1997 N1999 1.384 . S
N1998 C1994 1.427 . S
N1998 C1995 1.384 . S
N1999 C1991 1.427 . S
N1999 C1997 1.384 . S
H2000 C2006 0.930 . S
H2001 C2010 0.930 . S
H2002 C2015 0.929 . S
H2003 C2013 0.929 . S
H2004 C2008 0.929 . S
H2005 C2014 0.929 . S
C2006 H2000 0.930 . S
C2006 C2007 1.367 . S
C2006 C2014 1.378 . S
C2007 C2006 1.367 . S
C2007 C2015 1.433 . S
C2008 H2004 0.929 . S
C2008 C2010 1.378 1_565 S
C2008 C2012 1.350 . S
C2009 C2012 1.463 . S
C2009 C2014 1.350 . S
C2009 N2017 1.427 . S
C2010 H2001 0.930 . S
C2010 C2008 1.378 1_545 S
C2010 C2011 1.365 1_545 S
C2011 C2010 1.365 1_565 S
C2011 C2013 1.439 . S
C2012 C2008 1.350 . S
C2012 C2009 1.463 . S
C2012 N2016 1.427 . S
C2013 H2003 0.929 . S
C2013 C2011 1.439 . S
C2013 N2016 1.384 . S
C2014 H2005 0.929 . S
C2014 C2006 1.378 . S
C2014 C2009 1.350 . S
C2015 H2002 0.929 . S
C2015 C2007 1.433 . S
C2015 N2017 1.384 . S
N2016 C2012 1.427 . S
N2016 C2013 1.384 . S
N2017 C2009 1.427 . S
N2017 C2015 1.384 . S
H2018 C2024 0.930 . S
H2019 C2028 0.930 1_655 S
H2020 C2033 0.929 . S
H2021 C2031 0.929 . S
H2022 C2026 0.929 . S
H2023 C2032 0.929 . S
C2024 H2018 0.930 . S
C2024 C2025 1.367 . S
C2024 C2032 1.378 . S
C2025 C2024 1.367 . S
C2025 C2033 1.433 . S
C2026 H2022 0.929 . S
C2026 C2028 1.378 . S
C2026 C2030 1.350 . S
C2027 C2030 1.463 . S
C2027 C2032 1.350 . S
C2027 N2035 1.427 . S
C2028 H2019 0.930 1_455 S
C2028 C2026 1.378 . S
C2028 C2029 1.367 . S
C2029 C2028 1.367 . S
C2029 C2031 1.433 . S
C2030 C2026 1.350 . S
C2030 C2027 1.463 . S
C2030 N2034 1.427 . S
C2031 H2021 0.929 . S
C2031 C2029 1.433 . S
C2031 N2034 1.384 . S
C2032 H2023 0.929 . S
C2032 C2024 1.378 . S
C2032 C2027 1.350 . S
C2033 H2020 0.929 . S
C2033 C2025 1.433 . S
C2033 N2035 1.384 . S
N2034 C2030 1.427 . S
N2034 C2031 1.384 . S
N2035 C2027 1.427 . S
N2035 C2033 1.384 . S
H2036 C2042 0.930 . S
H2037 C2046 0.930 . S
H2038 C2051 0.929 . S
H2039 C2049 0.929 . S
H2040 C2044 0.929 . S
H2041 C2050 0.929 . S
C2042 H2036 0.930 . S
C2042 C2043 1.367 . S
C2042 C2050 1.378 . S
C2043 C2042 1.367 . S
C2043 C2051 1.433 . S
C2044 H2040 0.929 . S
C2044 C2046 1.378 . S
C2044 C2048 1.350 . S
C2045 C2048 1.463 . S
C2045 C2050 1.350 . S
C2045 N2053 1.427 . S
C2046 H2037 0.930 . S
C2046 C2044 1.378 . S
C2046 C2047 1.367 . S
C2047 C2046 1.367 . S
C2047 C2049 1.433 . S
C2048 C2044 1.350 . S
C2048 C2045 1.463 . S
C2048 N2052 1.427 . S
C2049 H2039 0.929 . S
C2049 C2047 1.433 . S
C2049 N2052 1.384 . S
C2050 H2041 0.929 . S
C2050 C2042 1.378 . S
C2050 C2045 1.350 . S
C2051 H2038 0.929 . S
C2051 C2043 1.433 . S
C2051 N2053 1.384 . S
N2052 C2048 1.427 . S
N2052 C2049 1.384 . S
N2053 C2045 1.427 . S
N2053 C2051 1.384 . S
H2054 C2060 0.930 . S
H2055 C2064 0.930 1_655 S
H2056 C2069 0.929 . S
H2057 C2067 0.929 . S
H2058 C2062 0.929 . S
H2059 C2068 0.929 . S
C2060 H2054 0.930 . S
C2060 C2061 1.367 . S
C2060 C2068 1.378 . S
C2061 C2060 1.367 . S
C2061 C2069 1.433 . S
C2062 H2058 0.929 . S
C2062 C2064 1.378 . S
C2062 C2066 1.350 . S
C2063 C2066 1.463 . S
C2063 C2068 1.350 . S
C2063 N2071 1.427 . S
C2064 H2055 0.930 1_455 S
C2064 C2062 1.378 . S
C2064 C2065 1.367 . S
C2065 C2064 1.367 . S
C2065 C2067 1.433 1_565 S
C2066 C2062 1.350 . S
C2066 C2063 1.463 . S
C2066 N2070 1.427 . S
C2067 H2057 0.929 . S
C2067 C2065 1.433 1_545 S
C2067 N2070 1.384 1_545 S
C2068 H2059 0.929 . S
C2068 C2060 1.378 . S
C2068 C2063 1.350 . S
C2069 H2056 0.929 . S
C2069 C2061 1.433 . S
C2069 N2071 1.384 . S
N2070 C2066 1.427 . S
N2070 C2067 1.384 1_565 S
N2071 C2063 1.427 . S
N2071 C2069 1.384 . S
H2072 C2078 0.930 . S
H2073 C2082 0.930 . S
H2074 C2087 0.929 . S
H2075 C2085 0.929 . S
H2076 C2080 0.929 . S
H2077 C2086 0.929 . S
C2078 H2072 0.930 . S
C2078 C2079 1.380 . S
C2078 C2086 1.378 . S
C2079 C2078 1.380 . S
C2079 C2087 1.430 1_545 S
C2080 H2076 0.929 . S
C2080 C2082 1.378 . S
C2080 C2084 1.350 . S
C2081 C2084 1.463 . S
C2081 C2086 1.350 . S
C2081 N2089 1.427 . S
C2082 H2073 0.930 . S
C2082 C2080 1.378 . S
C2082 C2083 1.367 . S
C2083 C2082 1.367 . S
C2083 C2085 1.433 . S
C2084 C2080 1.350 . S
C2084 C2081 1.463 . S
C2084 N2088 1.427 . S
C2085 H2075 0.929 . S
C2085 C2083 1.433 . S
C2085 N2088 1.384 . S
C2086 H2077 0.929 . S
C2086 C2078 1.378 . S
C2086 C2081 1.350 . S
C2087 H2074 0.929 . S
C2087 C2079 1.430 1_565 S
C2087 N2089 1.384 1_565 S
N2088 C2084 1.427 . S
N2088 C2085 1.384 . S
N2089 C2081 1.427 . S
N2089 C2087 1.384 1_545 S
H2090 C2096 0.930 . S
H2091 C2100 0.930 . S
H2092 C2105 0.929 . S
H2093 C2103 0.929 . S
H2094 C2098 0.929 . S
H2095 C2104 0.929 . S
C2096 H2090 0.930 . S
C2096 C2097 1.367 . S
C2096 C2104 1.378 . S
C2097 C2096 1.367 . S
C2097 C2105 1.433 . S
C2098 H2094 0.929 . S
C2098 C2100 1.378 . S
C2098 C2102 1.350 . S
C2099 C2102 1.463 . S
C2099 C2104 1.350 . S
C2099 N2107 1.427 . S
C2100 H2091 0.930 . S
C2100 C2098 1.378 . S
C2100 C2101 1.367 . S
C2101 C2100 1.367 . S
C2101 C2103 1.433 . S
C2102 C2098 1.350 . S
C2102 C2099 1.463 . S
C2102 N2106 1.427 . S
C2103 H2093 0.929 . S
C2103 C2101 1.433 . S
C2103 N2106 1.384 . S
C2104 H2095 0.929 . S
C2104 C2096 1.378 . S
C2104 C2099 1.350 . S
C2105 H2092 0.929 . S
C2105 C2097 1.433 . S
C2105 N2107 1.384 . S
N2106 C2102 1.427 . S
N2106 C2103 1.384 . S
N2107 C2099 1.427 . S
N2107 C2105 1.384 . S
H2108 C2114 0.930 . S
H2109 C2118 0.930 . S
H2110 C2123 0.929 . S
H2111 C2121 0.929 . S
H2112 C2116 0.929 . S
H2113 C2122 0.929 . S
C2114 H2108 0.930 . S
C2114 C2115 1.367 . S
C2114 C2122 1.378 . S
C2115 C2114 1.367 . S
C2115 C2123 1.433 . S
C2116 H2112 0.929 . S
C2116 C2118 1.378 . S
C2116 C2120 1.350 . S
C2117 C2120 1.463 . S
C2117 C2122 1.350 . S
C2117 N2125 1.427 . S
C2118 H2109 0.930 . S
C2118 C2116 1.378 . S
C2118 C2119 1.367 . S
C2119 C2118 1.367 . S
C2119 C2121 1.433 . S
C2120 C2116 1.350 . S
C2120 C2117 1.463 . S
C2120 N2124 1.427 . S
C2121 H2111 0.929 . S
C2121 C2119 1.433 . S
C2121 N2124 1.384 . S
C2122 H2113 0.929 . S
C2122 C2114 1.378 . S
C2122 C2117 1.350 . S
C2123 H2110 0.929 . S
C2123 C2115 1.433 . S
C2123 N2125 1.384 . S
N2124 C2120 1.427 . S
N2124 C2121 1.384 . S
N2125 C2117 1.427 . S
N2125 C2123 1.384 . S
H2126 C2132 0.930 . S
H2127 C2136 0.930 . S
H2128 C2141 0.929 . S
H2129 C2139 0.929 . S
H2130 C2134 0.932 . S
H2131 C2140 0.929 . S
C2132 H2126 0.930 . S
C2132 C2133 1.367 . S
C2132 C2140 1.378 . S
C2133 C2132 1.367 . S
C2133 C2141 1.433 . S
C2134 H2130 0.932 . S
C2134 C2136 1.378 1_545 S
C2134 C2138 1.350 . S
C2135 C2138 1.463 . S
C2135 C2140 1.350 . S
C2135 N2143 1.427 . S
C2136 H2127 0.930 . S
C2136 C2134 1.378 1_565 S
C2136 C2137 1.370 . S
C2137 C2136 1.370 . S
C2137 C2139 1.426 1_565 S
C2138 C2134 1.350 . S
C2138 C2135 1.463 . S
C2138 N2142 1.427 . S
C2139 H2129 0.929 . S
C2139 C2137 1.426 1_545 S
C2139 N2142 1.384 . S
C2140 H2131 0.929 . S
C2140 C2132 1.378 . S
C2140 C2135 1.350 . S
C2141 H2128 0.929 . S
C2141 C2133 1.433 . S
C2141 N2143 1.384 . S
N2142 C2138 1.427 . S
N2142 C2139 1.384 . S
N2143 C2135 1.427 . S
N2143 C2141 1.384 . S
H2144 C2150 0.930 . S
H2145 C2154 0.930 . S
H2146 C2159 0.929 . S
H2147 C2157 0.929 . S
H2148 C2152 0.929 . S
H2149 C2158 0.929 . S
C2150 H2144 0.930 . S
C2150 C2151 1.367 . S
C2150 C2158 1.378 . S
C2151 C2150 1.367 . S
C2151 C2159 1.433 . S
C2152 H2148 0.929 . S
C2152 C2154 1.378 . S
C2152 C2156 1.350 . S
C2153 C2156 1.463 . S
C2153 C2158 1.350 . S
C2153 N2161 1.427 . S
C2154 H2145 0.930 . S
C2154 C2152 1.378 . S
C2154 C2155 1.367 . S
C2155 C2154 1.367 . S
C2155 C2157 1.433 . S
C2156 C2152 1.350 . S
C2156 C2153 1.463 . S
C2156 N2160 1.427 . S
C2157 H2147 0.929 . S
C2157 C2155 1.433 . S
C2157 N2160 1.384 . S
C2158 H2149 0.929 . S
C2158 C2150 1.378 . S
C2158 C2153 1.350 . S
C2159 H2146 0.929 . S
C2159 C2151 1.433 . S
C2159 N2161 1.384 . S
N2160 C2156 1.427 . S
N2160 C2157 1.384 . S
N2161 C2153 1.427 . S
N2161 C2159 1.384 . S
H2162 C2168 0.930 . S
H2163 C2172 0.930 . S
H2164 C2177 0.929 . S
H2165 C2175 0.929 . S
H2166 C2170 0.929 . S
H2167 C2176 0.929 . S
C2168 H2162 0.930 . S
C2168 C2169 1.367 . S
C2168 C2176 1.378 . S
C2169 C2168 1.367 . S
C2169 C2177 1.433 . S
C2170 H2166 0.929 . S
C2170 C2172 1.378 . S
C2170 C2174 1.350 . S
C2171 C2174 1.463 . S
C2171 C2176 1.350 . S
C2171 N2179 1.427 . S
C2172 H2163 0.930 . S
C2172 C2170 1.378 . S
C2172 C2173 1.367 . S
C2173 C2172 1.367 . S
C2173 C2175 1.433 . S
C2174 C2170 1.350 . S
C2174 C2171 1.463 . S
C2174 N2178 1.427 . S
C2175 H2165 0.929 . S
C2175 C2173 1.433 . S
C2175 N2178 1.384 . S
C2176 H2167 0.929 . S
C2176 C2168 1.378 . S
C2176 C2171 1.350 . S
C2177 H2164 0.929 . S
C2177 C2169 1.433 . S
C2177 N2179 1.384 . S
N2178 C2174 1.427 . S
N2178 C2175 1.384 . S
N2179 C2171 1.427 . S
N2179 C2177 1.384 . S
H2180 C2186 0.930 . S
H2181 C2190 0.930 . S
H2182 C2195 0.929 . S
H2183 C2193 0.929 . S
H2184 C2188 0.929 . S
H2185 C2194 0.929 . S
C2186 H2180 0.930 . S
C2186 C2187 1.367 . S
C2186 C2194 1.378 . S
C2187 C2186 1.367 . S
C2187 C2195 1.433 . S
C2188 H2184 0.929 . S
C2188 C2190 1.378 . S
C2188 C2192 1.350 . S
C2189 C2192 1.463 . S
C2189 C2194 1.350 . S
C2189 N2197 1.427 . S
C2190 H2181 0.930 . S
C2190 C2188 1.378 . S
C2190 C2191 1.367 . S
C2191 C2190 1.367 . S
C2191 C2193 1.433 . S
C2192 C2188 1.350 . S
C2192 C2189 1.463 . S
C2192 N2196 1.427 . S
C2193 H2183 0.929 . S
C2193 C2191 1.433 . S
C2193 N2196 1.384 . S
C2194 H2185 0.929 . S
C2194 C2186 1.378 . S
C2194 C2189 1.350 . S
C2195 H2182 0.929 . S
C2195 C2187 1.433 . S
C2195 N2197 1.384 . S
N2196 C2192 1.427 . S
N2196 C2193 1.384 . S
N2197 C2189 1.427 . S
N2197 C2195 1.384 . S
H2198 C2204 0.930 . S
H2199 C2208 0.930 . S
H2200 C2213 0.929 . S
H2201 C2211 0.929 . S
H2202 C2206 0.929 . S
H2203 C2212 0.929 . S
C2204 H2198 0.930 . S
C2204 C2205 1.367 . S
C2204 C2212 1.378 . S
C2205 C2204 1.367 . S
C2205 C2213 1.433 . S
C2206 H2202 0.929 . S
C2206 C2208 1.378 . S
C2206 C2210 1.350 . S
C2207 C2210 1.463 . S
C2207 C2212 1.350 . S
C2207 N2215 1.427 . S
C2208 H2199 0.930 . S
C2208 C2206 1.378 . S
C2208 C2209 1.367 . S
C2209 C2208 1.367 . S
C2209 C2211 1.433 . S
C2210 C2206 1.350 . S
C2210 C2207 1.463 . S
C2210 N2214 1.427 . S
C2211 H2201 0.929 . S
C2211 C2209 1.433 . S
C2211 N2214 1.384 . S
C2212 H2203 0.929 . S
C2212 C2204 1.378 . S
C2212 C2207 1.350 . S
C2213 H2200 0.929 . S
C2213 C2205 1.433 . S
C2213 N2215 1.384 . S
N2214 C2210 1.427 . S
N2214 C2211 1.384 . S
N2215 C2207 1.427 . S
N2215 C2213 1.384 . S
H2216 C2222 0.930 . S
H2217 C2226 0.930 . S
H2218 C2231 0.929 . S
H2219 C2229 0.929 . S
H2220 C2224 0.929 . S
H2221 C2230 0.929 . S
C2222 H2216 0.930 . S
C2222 C2223 1.367 . S
C2222 C2230 1.378 . S
C2223 C2222 1.367 . S
C2223 C2231 1.433 . S
C2224 H2220 0.929 . S
C2224 C2226 1.378 . S
C2224 C2228 1.350 . S
C2225 C2228 1.463 . S
C2225 C2230 1.350 . S
C2225 N2233 1.427 . S
C2226 H2217 0.930 . S
C2226 C2224 1.378 . S
C2226 C2227 1.367 . S
C2227 C2226 1.367 . S
C2227 C2229 1.433 . S
C2228 C2224 1.350 . S
C2228 C2225 1.463 . S
C2228 N2232 1.427 . S
C2229 H2219 0.929 . S
C2229 C2227 1.433 . S
C2229 N2232 1.384 . S
C2230 H2221 0.929 . S
C2230 C2222 1.378 . S
C2230 C2225 1.350 . S
C2231 H2218 0.929 . S
C2231 C2223 1.433 . S
C2231 N2233 1.384 . S
N2232 C2228 1.427 . S
N2232 C2229 1.384 . S
N2233 C2225 1.427 . S
N2233 C2231 1.384 . S
H2234 C2240 0.930 . S
H2235 C2244 0.930 . S
H2236 C2249 0.929 . S
H2237 C2247 0.929 . S
H2238 C2242 0.929 . S
H2239 C2248 0.929 . S
C2240 H2234 0.930 . S
C2240 C2241 1.367 . S
C2240 C2248 1.378 . S
C2241 C2240 1.367 . S
C2241 C2249 1.433 . S
C2242 H2238 0.929 . S
C2242 C2244 1.378 . S
C2242 C2246 1.350 . S
C2243 C2246 1.463 . S
C2243 C2248 1.350 . S
C2243 N2251 1.427 . S
C2244 H2235 0.930 . S
C2244 C2242 1.378 . S
C2244 C2245 1.367 . S
C2245 C2244 1.367 . S
C2245 C2247 1.433 . S
C2246 C2242 1.350 . S
C2246 C2243 1.463 . S
C2246 N2250 1.427 . S
C2247 H2237 0.929 . S
C2247 C2245 1.433 . S
C2247 N2250 1.384 . S
C2248 H2239 0.929 . S
C2248 C2240 1.378 . S
C2248 C2243 1.350 . S
C2249 H2236 0.929 . S
C2249 C2241 1.433 . S
C2249 N2251 1.384 . S
N2250 C2246 1.427 . S
N2250 C2247 1.384 . S
N2251 C2243 1.427 . S
N2251 C2249 1.384 . S
H2252 C2258 0.930 . S
H2253 C2262 0.930 . S
H2254 C2267 0.929 . S
H2255 C2265 0.929 . S
H2256 C2260 0.929 . S
H2257 C2266 0.929 . S
C2258 H2252 0.930 . S
C2258 C2259 1.367 . S
C2258 C2266 1.378 . S
C2259 C2258 1.367 . S
C2259 C2267 1.433 . S
C2260 H2256 0.929 . S
C2260 C2262 1.378 . S
C2260 C2264 1.350 . S
C2261 C2264 1.463 . S
C2261 C2266 1.350 . S
C2261 N2269 1.427 . S
C2262 H2253 0.930 . S
C2262 C2260 1.378 . S
C2262 C2263 1.367 . S
C2263 C2262 1.367 . S
C2263 C2265 1.433 . S
C2264 C2260 1.350 . S
C2264 C2261 1.463 . S
C2264 N2268 1.427 . S
C2265 H2255 0.929 . S
C2265 C2263 1.433 . S
C2265 N2268 1.384 . S
C2266 H2257 0.929 . S
C2266 C2258 1.378 . S
C2266 C2261 1.350 . S
C2267 H2254 0.929 . S
C2267 C2259 1.433 . S
C2267 N2269 1.384 . S
N2268 C2264 1.427 . S
N2268 C2265 1.384 . S
N2269 C2261 1.427 . S
N2269 C2267 1.384 . S
H2270 C2276 0.930 . S
H2271 C2280 0.930 . S
H2272 C2285 0.929 . S
H2273 C2283 0.929 . S
H2274 C2278 0.929 . S
H2275 C2284 0.929 . S
C2276 H2270 0.930 . S
C2276 C2277 1.367 . S
C2276 C2284 1.378 . S
C2277 C2276 1.367 . S
C2277 C2285 1.433 . S
C2278 H2274 0.929 . S
C2278 C2280 1.378 . S
C2278 C2282 1.350 . S
C2279 C2282 1.463 . S
C2279 C2284 1.350 . S
C2279 N2287 1.427 . S
C2280 H2271 0.930 . S
C2280 C2278 1.378 . S
C2280 C2281 1.367 . S
C2281 C2280 1.367 . S
C2281 C2283 1.433 . S
C2282 C2278 1.350 . S
C2282 C2279 1.463 . S
C2282 N2286 1.427 . S
C2283 H2273 0.929 . S
C2283 C2281 1.433 . S
C2283 N2286 1.384 . S
C2284 H2275 0.929 . S
C2284 C2276 1.378 . S
C2284 C2279 1.350 . S
C2285 H2272 0.929 . S
C2285 C2277 1.433 . S
C2285 N2287 1.384 . S
N2286 C2282 1.427 . S
N2286 C2283 1.384 . S
N2287 C2279 1.427 . S
N2287 C2285 1.384 . S
H2288 C2294 0.930 . S
H2289 C2298 0.930 . S
H2290 C2303 0.929 . S
H2291 C2301 0.937 . S
H2292 C2296 0.929 . S
H2293 C2302 0.929 . S
C2294 H2288 0.930 . S
C2294 C2295 1.367 . S
C2294 C2302 1.378 . S
C2295 C2294 1.367 . S
C2295 C2303 1.433 . S
C2296 H2292 0.929 . S
C2296 C2298 1.378 . S
C2296 C2300 1.350 1_556 S
C2297 C2300 1.463 . S
C2297 C2302 1.350 . S
C2297 N2305 1.427 . S
C2298 H2289 0.930 . S
C2298 C2296 1.378 . S
C2298 C2299 1.367 . S
C2299 C2298 1.367 . S
C2299 C2301 1.433 1_565 S
C2300 C2296 1.350 1_554 S
C2300 C2297 1.463 . S
C2300 N2304 1.427 . S
C2301 H2291 0.937 . S
C2301 C2299 1.433 1_545 S
C2301 N2304 1.384 1_546 S
C2302 H2293 0.929 . S
C2302 C2294 1.378 . S
C2302 C2297 1.350 . S
C2303 H2290 0.929 . S
C2303 C2295 1.433 . S
C2303 N2305 1.384 . S
N2304 C2300 1.427 . S
N2304 C2301 1.384 1_564 S
N2305 C2297 1.427 . S
N2305 C2303 1.384 . S
H2306 C2312 0.930 . S
H2307 C2316 0.930 . S
H2308 C2321 0.929 . S
H2309 C2319 0.929 . S
H2310 C2314 0.929 . S
H2311 C2320 0.929 . S
C2312 H2306 0.930 . S
C2312 C2313 1.367 . S
C2312 C2320 1.378 . S
C2313 C2312 1.367 . S
C2313 C2321 1.433 . S
C2314 H2310 0.929 . S
C2314 C2316 1.378 . S
C2314 C2318 1.350 1_556 S
C2315 C2318 1.463 . S
C2315 C2320 1.350 . S
C2315 N2323 1.427 . S
C2316 H2307 0.930 . S
C2316 C2314 1.378 . S
C2316 C2317 1.367 . S
C2317 C2316 1.367 . S
C2317 C2319 1.435 1_556 S
C2318 C2314 1.350 1_554 S
C2318 C2315 1.463 . S
C2318 N2322 1.427 . S
C2319 H2309 0.929 . S
C2319 C2317 1.435 1_554 S
C2319 N2322 1.383 . S
C2320 H2311 0.929 . S
C2320 C2312 1.378 . S
C2320 C2315 1.350 . S
C2321 H2308 0.929 . S
C2321 C2313 1.433 . S
C2321 N2323 1.384 . S
N2322 C2318 1.427 . S
N2322 C2319 1.383 . S
N2323 C2315 1.427 . S
N2323 C2321 1.384 . S
H2324 C2330 0.930 . S
H2325 C2334 0.930 . S
H2326 C2339 0.929 . S
H2327 C2337 0.929 . S
H2328 C2332 0.929 . S
H2329 C2338 0.929 . S
C2330 H2324 0.930 . S
C2330 C2331 1.367 . S
C2330 C2338 1.378 . S
C2331 C2330 1.367 . S
C2331 C2339 1.433 . S
C2332 H2328 0.929 . S
C2332 C2334 1.378 . S
C2332 C2336 1.350 . S
C2333 C2336 1.463 . S
C2333 C2338 1.350 . S
C2333 N2341 1.427 . S
C2334 H2325 0.930 . S
C2334 C2332 1.378 . S
C2334 C2335 1.367 . S
C2335 C2334 1.367 . S
C2335 C2337 1.433 . S
C2336 C2332 1.350 . S
C2336 C2333 1.463 . S
C2336 N2340 1.427 . S
C2337 H2327 0.929 . S
C2337 C2335 1.433 . S
C2337 N2340 1.384 . S
C2338 H2329 0.929 . S
C2338 C2330 1.378 . S
C2338 C2333 1.350 . S
C2339 H2326 0.929 . S
C2339 C2331 1.433 . S
C2339 N2341 1.384 . S
N2340 C2336 1.427 . S
N2340 C2337 1.384 . S
N2341 C2333 1.427 . S
N2341 C2339 1.384 . S
H2342 C2348 0.930 . S
H2343 C2352 0.930 . S
H2344 C2357 0.942 . S
H2345 C2355 0.929 . S
H2346 C2350 0.929 . S
H2347 C2356 0.929 . S
C2348 H2342 0.930 . S
C2348 C2349 1.367 . S
C2348 C2356 1.378 . S
C2349 C2348 1.367 . S
C2349 C2357 1.433 1_565 S
C2350 H2346 0.929 . S
C2350 C2352 1.378 . S
C2350 C2354 1.350 . S
C2351 C2354 1.463 . S
C2351 C2356 1.350 . S
C2351 N2359 1.427 . S
C2352 H2343 0.930 . S
C2352 C2350 1.378 . S
C2352 C2353 1.367 . S
C2353 C2352 1.367 . S
C2353 C2355 1.433 . S
C2354 C2350 1.350 . S
C2354 C2351 1.463 . S
C2354 N2358 1.427 . S
C2355 H2345 0.929 . S
C2355 C2353 1.433 . S
C2355 N2358 1.384 . S
C2356 H2347 0.929 . S
C2356 C2348 1.378 . S
C2356 C2351 1.350 . S
C2357 H2344 0.942 . S
C2357 C2349 1.433 1_545 S
C2357 N2359 1.372 1_545 S
N2358 C2354 1.427 . S
N2358 C2355 1.384 . S
N2359 C2351 1.427 . S
N2359 C2357 1.372 1_565 S
H2360 C2366 0.930 . S
H2361 C2370 0.930 . S
H2362 C2375 0.929 . S
H2363 C2373 0.929 . S
H2364 C2368 0.929 . S
H2365 C2374 0.965 . S
C2366 H2360 0.930 . S
C2366 C2367 1.383 . S
C2366 C2374 1.339 1_554 S
C2367 C2366 1.383 . S
C2367 C2375 1.428 1_545 S
C2368 H2364 0.929 . S
C2368 C2370 1.378 . S
C2368 C2372 1.350 . S
C2369 C2372 1.463 . S
C2369 C2374 1.357 . S
C2369 N2377 1.427 1_556 S
C2370 H2361 0.930 . S
C2370 C2368 1.378 . S
C2370 C2371 1.367 . S
C2371 C2370 1.367 . S
C2371 C2373 1.433 . S
C2372 C2368 1.350 . S
C2372 C2369 1.463 . S
C2372 N2376 1.427 . S
C2373 H2363 0.929 . S
C2373 C2371 1.433 . S
C2373 N2376 1.384 . S
C2374 H2365 0.965 . S
C2374 C2366 1.339 1_556 S
C2374 C2369 1.357 . S
C2375 H2362 0.929 . S
C2375 C2367 1.428 1_565 S
C2375 N2377 1.384 1_565 S
N2376 C2372 1.427 . S
N2376 C2373 1.384 . S
N2377 C2369 1.427 1_554 S
N2377 C2375 1.384 1_545 S
H2378 C2384 0.930 . S
H2379 C2388 0.930 . S
H2380 C2393 0.932 . S
H2381 C2391 0.929 . S
H2382 C2386 0.929 . S
H2383 C2392 0.929 . S
C2384 H2378 0.930 . S
C2384 C2385 1.367 . S
C2384 C2392 1.378 . S
C2385 C2384 1.367 . S
C2385 C2393 1.433 . S
C2386 H2382 0.929 . S
C2386 C2388 1.378 . S
C2386 C2390 1.350 . S
C2387 C2390 1.463 . S
C2387 C2392 1.350 1_556 S
C2387 N2395 1.427 . S
C2388 H2379 0.930 . S
C2388 C2386 1.378 . S
C2388 C2389 1.367 . S
C2389 C2388 1.367 . S
C2389 C2391 1.433 . S
C2390 C2386 1.350 . S
C2390 C2387 1.463 . S
C2390 N2394 1.427 . S
C2391 H2381 0.929 . S
C2391 C2389 1.433 . S
C2391 N2394 1.384 . S
C2392 H2383 0.929 . S
C2392 C2384 1.378 . S
C2392 C2387 1.350 1_554 S
C2393 H2380 0.932 . S
C2393 C2385 1.433 . S
C2393 N2395 1.384 1_554 S
N2394 C2390 1.427 . S
N2394 C2391 1.384 . S
N2395 C2387 1.427 . S
N2395 C2393 1.384 1_556 S
H2396 C2402 0.930 . S
H2397 C2406 0.930 . S
H2398 C2411 0.929 . S
H2399 C2409 0.929 . S
H2400 C2404 0.929 . S
H2401 C2410 0.929 . S
C2402 H2396 0.930 . S
C2402 C2403 1.367 . S
C2402 C2410 1.378 . S
C2403 C2402 1.367 . S
C2403 C2411 1.433 . S
C2404 H2400 0.929 . S
C2404 C2406 1.378 . S
C2404 C2408 1.350 . S
C2405 C2408 1.463 . S
C2405 C2410 1.350 . S
C2405 N2413 1.427 . S
C2406 H2397 0.930 . S
C2406 C2404 1.378 . S
C2406 C2407 1.367 . S
C2407 C2406 1.367 . S
C2407 C2409 1.433 . S
C2408 C2404 1.350 . S
C2408 C2405 1.463 . S
C2408 N2412 1.427 . S
C2409 H2399 0.929 . S
C2409 C2407 1.433 . S
C2409 N2412 1.384 . S
C2410 H2401 0.929 . S
C2410 C2402 1.378 . S
C2410 C2405 1.350 . S
C2411 H2398 0.929 . S
C2411 C2403 1.433 . S
C2411 N2413 1.384 . S
N2412 C2408 1.427 . S
N2412 C2409 1.384 . S
N2413 C2405 1.427 . S
N2413 C2411 1.384 . S
H2414 C2420 0.930 . S
H2415 C2424 0.930 . S
H2416 C2429 0.929 1_565 S
H2417 C2427 0.929 . S
H2418 C2422 0.929 . S
H2419 C2428 0.929 . S
C2420 H2414 0.930 . S
C2420 C2421 1.369 . S
C2420 C2428 1.378 . S
C2421 C2420 1.369 . S
C2421 C2429 1.434 . S
C2422 H2418 0.929 . S
C2422 C2424 1.378 . S
C2422 C2426 1.350 . S
C2423 C2426 1.463 . S
C2423 C2428 1.350 . S
C2423 N2431 1.427 . S
C2424 H2415 0.930 . S
C2424 C2422 1.378 . S
C2424 C2425 1.367 . S
C2425 C2424 1.367 . S
C2425 C2427 1.433 . S
C2426 C2422 1.350 . S
C2426 C2423 1.463 . S
C2426 N2430 1.427 . S
C2427 H2417 0.929 . S
C2427 C2425 1.433 . S
C2427 N2430 1.384 . S
C2428 H2419 0.929 . S
C2428 C2420 1.378 . S
C2428 C2423 1.350 . S
C2429 H2416 0.929 1_545 S
C2429 C2421 1.434 . S
C2429 N2431 1.384 . S
N2430 C2426 1.427 . S
N2430 C2427 1.384 . S
N2431 C2423 1.427 . S
N2431 C2429 1.384 . S
C711 C8 1.189 . S
C715 C40 1.190 . S
C729 C84 1.193 . S
C733 C52 1.192 . S
C747 C96 1.188 . S
C751 C128 1.189 . S
C765 C142 1.181 . S
C769 C164 1.181 . S
C783 C186 1.194 . S
C787 C216 1.193 . S
C801 C260 1.189 . S
C805 C228 1.190 . S
C819 C304 1.189 . S
C823 C272 1.189 . S
C837 C318 1.187 . S
C841 C348 1.186 . S
C855 C360 1.193 . S
C859 C392 1.192 . S
C873 C406 1.187 . S
C877 C436 1.188 . S
C891 C448 1.185 . S
C895 C480 1.184 . S
C909 C524 1.179 . S
C913 C502 1.179 . S
C927 C536 1.187 . S
C931 C568 1.188 . S
C945 C612 1.189 . S
C949 C580 1.190 . S
C963 C656 1.181 . S
C967 C624 1.182 . S
C981 C700 1.189 . S
C985 C678 1.188 . S
C999 C7 1.522 . S
C1003 C565 1.530 . S
C1017 C535 1.525 . S
C1021 C37 1.523 . S
C1035 C609 1.522 . S
C1039 C51 1.527 . S
C1053 C81 1.522 . S
C1057 C579 1.529 . S
C1071 C103 1.534 . S
C1075 C659 1.529 . S
C1089 C631 1.532 . S
C1093 C131 1.531 . S
C1107 C703 1.530 . S
C1111 C139 1.537 . S
C1125 C681 1.536 . S
C1129 C161 1.529 . S
C1143 C389 1.522 . S
C1147 C197 1.526 . S
C1161 C213 1.526 . S
C1165 C359 1.522 . S
C1179 C227 1.529 . S
C1183 C433 1.522 . S
C1197 C417 1.523 . S
C1201 C257 1.530 . S
C1215 C483 1.537 . S
C1219 C279 1.530 . S
C1233 C307 1.537 . S
C1237 C455 1.529 . S
C1251 C315 1.535 . S
C1255 C527 1.529 . S
C1269 C351 1.531 . S
C1273 C505 1.537 . S
C1287 C18 1.549 . S
C1291 C76 1.549 . S
C1305 C62 1.546 . S
C1309 C32 1.546 . S
C1323 C98 1.548 . S
C1327 C172 1.547 . S
C1341 C150 1.550 . S
C1345 C118 1.551 . S
C1359 C252 1.550 . S
C1363 C184 1.550 . S
C1377 C208 1.547 . S
C1381 C238 1.547 . S
C1395 C338 1.550 . S
C1399 C274 1.551 . S
C1413 C294 1.549 . S
C1417 C326 1.548 . S
C1431 C370 1.548 . S
C1435 C428 1.548 . S
C1449 C384 1.549 . S
C1453 C404 1.549 . S
C1467 C450 1.547 . S
C1471 C514 1.547 . S
C1485 C470 1.549 . S
C1489 C492 1.550 . S
C1503 C546 1.550 . S
C1507 C604 1.550 . S
C1521 C560 1.549 . S
C1525 C590 1.549 . S
C1539 C690 1.549 . S
C1543 C626 1.548 . S
C1557 C646 1.550 . S
C1561 C668 1.549 . S
C1575 C15 0.951 . S
C1579 C95 0.956 . S
C1593 C653 0.957 . S
C1597 C43 0.952 . S
C1611 C59 0.953 . S
C1615 C329 0.959 . S
C1629 C87 0.971 . S
C1633 C521 0.974 . S
C1647 C571 0.951 . S
C1651 C125 0.956 . S
C1665 C153 0.959 . S
C1669 C235 0.954 . S
C1683 C439 0.970 . S
C1687 C175 0.974 . S
C1701 C183 0.951 . S
C1705 C271 0.957 . S
C1719 C477 0.974 . S
C1723 C219 0.970 . S
C1737 C697 0.958 . S
C1741 C263 0.953 . S
C1755 C395 0.960 . S
C1759 C301 0.965 . S
C1773 C615 0.973 . S
C1777 C345 0.976 . S
C1791 C367 0.969 . S
C1795 C447 0.973 . S
C1809 C403 0.962 . S
C1813 C675 0.967 . S
C1827 C587 0.951 . S
C1831 C499 0.956 . S
C1845 C543 0.963 . S
C1849 C623 0.967 . S
C1863 C10 1.313 . S
C1867 C645 1.363 . S
C1881 C30 1.323 . S
C1885 C109 1.362 1_455 S
C1899 C513 1.362 . S
C1903 C54 1.324 . S
C1917 C74 1.325 . S
C1921 C323 1.365 1_455 S
C1935 C106 1.336 . S
C1939 C557 1.370 . S
C1953 C120 1.335 . S
C1957 C21 1.372 1_655 S
C1971 C140 1.324 . S
C1975 C425 1.367 . S
C1989 C241 1.368 1_655 S
C1993 C162 1.323 . S
C2007 C194 1.313 . S
C2011 C469 1.359 1_565 S
C2025 C206 1.311 . S
C2029 C285 1.360 1_455 S
C2043 C689 1.360 . S
C2047 C230 1.315 . S
C2061 C250 1.312 . S
C2065 C147 1.360 1_465 S
C2079 C381 1.358 1_545 S
C2083 C282 1.324 . S
C2097 C296 1.330 . S
C2101 C191 1.371 1_655 S
C2115 C316 1.339 . S
C2119 C601 1.373 . S
C2133 C340 1.328 . S
C2137 C65 1.375 1_655 S
C2151 C293 1.363 . S
C2155 C362 1.314 . S
C2169 C382 1.326 . S
C2173 C461 1.365 . S
C2187 C414 1.319 . S
C2191 C169 1.365 . S
C2205 C667 1.360 . S
C2209 C426 1.318 . S
C2223 C458 1.334 . S
C2227 C205 1.372 . S
C2241 C373 1.367 . S
C2245 C472 1.325 . S
C2259 C494 1.331 . S
C2263 C73 1.371 . S
C2277 C593 1.370 . S
C2281 C516 1.336 . S
C2295 C538 1.320 . S
C2299 C117 1.361 1_565 S
C2313 C558 1.326 . S
C2317 C637 1.363 . S
C2331 C337 1.360 . S
C2335 C582 1.315 . S
C2349 C491 1.360 1_565 S
C2353 C602 1.311 . S
C2367 C29 1.357 1_545 S
C2371 C634 1.325 . S
C2385 C549 1.372 . S
C2389 C648 1.339 . S
C2403 C670 1.326 . S
C2407 C249 1.369 . S
C2421 C411 1.369 1_545 S
C2425 C692 1.338 . S
