# Generated by pormake.
# Topology smm, (6)-cn, num edge types: 1
# Building blocks:
#     Node 0, Type 0, BuildingBlock: BETDEL_clean_sbu_0, # of connection points: 6
#     Node 1, Type 0, BuildingBlock: BETDEL_clean_sbu_0, # of connection points: 6
#     Node 2, Type 0, BuildingBlock: BETDEL_clean_sbu_0, # of connection points: 6
#     Node 3, Type 0, BuildingBlock: BETDEL_clean_sbu_0, # of connection points: 6
#     Node 4, Type 0, BuildingBlock: BETDEL_clean_sbu_0, # of connection points: 6
#     Node 5, Type 0, BuildingBlock: BETDEL_clean_sbu_0, # of connection points: 6
#     Node 6, Type 0, BuildingBlock: BETDEL_clean_sbu_0, # of connection points: 6
#     Node 7, Type 0, BuildingBlock: BETDEL_clean_sbu_0, # of connection points: 6
#     Node 8, Type 0, BuildingBlock: BETDEL_clean_sbu_0, # of connection points: 6
#     Edge 9, Type (0, 0), BuildingBlock: UVAHIK_clean_linker_0, # of connection points: 2
#     Edge 10, Type (0, 0), BuildingBlock: UVAHIK_clean_linker_0, # of connection points: 2
#     Edge 11, Type (0, 0), BuildingBlock: UVAHIK_clean_linker_0, # of connection points: 2
#     Edge 12, Type (0, 0), BuildingBlock: UVAHIK_clean_linker_0, # of connection points: 2
#     Edge 13, Type (0, 0), BuildingBlock: UVAHIK_clean_linker_0, # of connection points: 2
#     Edge 14, Type (0, 0), BuildingBlock: UVAHIK_clean_linker_0, # of connection points: 2
#     Edge 15, Type (0, 0), BuildingBlock: UVAHIK_clean_linker_0, # of connection points: 2
#     Edge 16, Type (0, 0), BuildingBlock: UVAHIK_clean_linker_0, # of connection points: 2
#     Edge 17, Type (0, 0), BuildingBlock: UVAHIK_clean_linker_0, # of connection points: 2
#     Edge 18, Type (0, 0), BuildingBlock: UVAHIK_clean_linker_0, # of connection points: 2
#     Edge 19, Type (0, 0), BuildingBlock: UVAHIK_clean_linker_0, # of connection points: 2
#     Edge 20, Type (0, 0), BuildingBlock: UVAHIK_clean_linker_0, # of connection points: 2
#     Edge 21, Type (0, 0), BuildingBlock: UVAHIK_clean_linker_0, # of connection points: 2
#     Edge 22, Type (0, 0), BuildingBlock: UVAHIK_clean_linker_0, # of connection points: 2
#     Edge 23, Type (0, 0), BuildingBlock: UVAHIK_clean_linker_0, # of connection points: 2
#     Edge 24, Type (0, 0), BuildingBlock: UVAHIK_clean_linker_0, # of connection points: 2
#     Edge 25, Type (0, 0), BuildingBlock: UVAHIK_clean_linker_0, # of connection points: 2
#     Edge 26, Type (0, 0), BuildingBlock: UVAHIK_clean_linker_0, # of connection points: 2
#     Edge 27, Type (0, 0), BuildingBlock: UVAHIK_clean_linker_0, # of connection points: 2
#     Edge 28, Type (0, 0), BuildingBlock: UVAHIK_clean_linker_0, # of connection points: 2
#     Edge 29, Type (0, 0), BuildingBlock: UVAHIK_clean_linker_0, # of connection points: 2
#     Edge 30, Type (0, 0), BuildingBlock: UVAHIK_clean_linker_0, # of connection points: 2
#     Edge 31, Type (0, 0), BuildingBlock: UVAHIK_clean_linker_0, # of connection points: 2
#     Edge 32, Type (0, 0), BuildingBlock: UVAHIK_clean_linker_0, # of connection points: 2
#     Edge 33, Type (0, 0), BuildingBlock: UVAHIK_clean_linker_0, # of connection points: 2
#     Edge 34, Type (0, 0), BuildingBlock: UVAHIK_clean_linker_0, # of connection points: 2
#     Edge 35, Type (0, 0), BuildingBlock: UVAHIK_clean_linker_0, # of connection points: 2
# Relax obj value: 0.075
# Max RMSD: 0.144
# Mean RMSD: 0.144
data_MOF--net-smm--node1-BETDEL_clean_sbu_0--edge1-UVAHIK_clean_linker_0
_symmetry_space_group_name_H-M    P1
_symmetry_Int_Tables_number       1
_symmetry_cell_setting            triclinic
loop_
_symmetry_equiv_pos_as_xyz
'x, y, z'
_cell_length_a     71.394381
_cell_length_b     71.349162
_cell_length_c     18.592155
_cell_angle_alpha  89.975739
_cell_angle_beta   89.921573
_cell_angle_gamma 120.04371
loop_
_atom_site_label
_atom_site_type_symbol
_atom_site_fract_x
_atom_site_fract_y
_atom_site_fract_z
_atom_type_partial_charge
Dy0 Dy 0.05152 0.22289 0.96307 0.0
C1 C 0.98356 0.13655 0.05089 0.0
C2 C 0.08086 0.26022 0.89514 0.0
Dy3 Dy 1.0153 0.17627 0.0044 0.0
O4 O 0.08329 0.25431 0.95896 0.0
O5 O 0.06264 0.24548 0.86793 0.0
O6 O 0.05036 0.23502 0.07317 0.0
O7 O 0.04274 0.2027 0.05868 0.0
C8 C 0.04299 0.21613 0.10306 0.0
C9 C 0.02484 0.18384 0.86456 0.0
O10 O 0.99949 0.19588 0.03121 0.0
O11 O 0.02264 0.22727 0.96754 0.0
O12 O 0.98217 0.14689 -0.00445 0.0
O13 O 1.00204 0.14838 0.08272 0.0
O14 O 1.01872 0.16528 0.89459 0.0
O15 O 0.02403 0.19665 0.909 0.0
O16 O 0.06888 0.20371 0.95227 0.0
O17 O 0.04451 0.17294 0.01616 0.0
C18 C 1.00462 0.21519 0.00472 0.0
C19 C 0.06353 0.18499 -0.01548 0.0
Dy20 Dy 0.84985 0.85803 0.97472 0.0
C21 C 0.93594 0.87803 0.0594 0.0
C22 C 0.81182 0.8455 0.90426 0.0
Dy23 Dy 0.89457 0.865 0.01559 0.0
O24 O 0.81752 0.85605 0.96459 0.0
O25 O 0.82704 0.84199 0.88179 0.0
O26 O 0.8445 0.86778 0.08338 0.0
O27 O 0.86415 0.85372 0.07261 0.0
C28 C 0.85811 0.86344 0.11496 0.0
C29 C 0.88482 0.86021 0.87555 0.0
O30 O 0.8743 0.83027 0.0476 0.0
O31 O 0.84444 0.82386 -0.02046 0.0
O32 O 0.92471 0.86244 0.01469 0.0
O33 O 0.92423 0.88604 0.08249 0.0
O34 O 0.89635 0.85303 0.90525 0.0
O35 O 0.88054 0.87069 0.92 0.0
O36 O 0.86946 0.89412 0.96212 0.0
O37 O 0.89894 0.89828 0.02789 0.0
C38 C 0.85552 0.8167 0.01686 0.0
C39 C 0.88774 0.90643 -0.00237 0.0
Dy40 Dy 0.2137 0.01945 0.95762 0.0
C41 C 0.19609 0.08777 0.03834 0.0
C42 C 0.22542 0.9926 0.89159 0.0
Dy43 Dy 0.20785 0.05843 -0.00505 0.0
O44 O 0.2164 0.98934 0.95455 0.0
O45 O 0.22786 1.01046 0.86429 0.0
O46 O 0.20152 1.00467 0.06595 0.0
O47 O 0.21779 0.03856 0.05364 0.0
C48 C 0.20687 0.02311 0.09611 0.0
C49 C 0.21328 0.05308 0.85565 0.0
O50 O 0.24237 0.07212 0.02791 0.0
O51 O 0.24823 0.04752 0.96413 0.0
O52 O 0.21098 0.09136 -0.00853 0.0
O53 O 0.18803 0.06824 0.06367 0.0
O54 O 0.21998 0.07183 0.8847 0.0
O55 O 0.20251 0.03838 0.90026 0.0
O56 O 0.17778 1.00378 0.94308 0.0
O57 O 0.17398 0.0302 0.0038 0.0
C58 C 0.25565 0.06607 -0.0001 0.0
C59 C 0.16561 1.01055 0.97535 0.0
Dy60 Dy 0.71799 0.55457 0.30059 0.0
C61 C 0.65054 0.46877 0.38469 0.0
C62 C 0.7445 0.59324 0.23425 0.0
Dy63 Dy 0.67918 0.50994 0.33943 0.0
O64 O 0.74832 0.58717 0.29572 0.0
O65 O 0.72628 0.57803 0.20841 0.0
O66 O 0.73294 0.55753 0.40858 0.0
O67 O 0.69905 0.53989 0.3975 0.0
C68 C 0.71458 0.54456 0.43951 0.0
C69 C 0.68442 0.52022 0.1995 0.0
O70 O 0.66534 0.53073 0.3717 0.0
O71 O 0.6899 0.56094 0.30658 0.0
O72 O 0.67018 0.48055 0.40844 0.0
O73 O 0.64641 0.47985 0.33852 0.0
O74 O 0.66569 0.50824 0.22902 0.0
O75 O 0.69911 0.52431 0.24408 0.0
O76 O 0.73357 0.53427 0.28486 0.0
O77 O 0.70748 0.50444 0.34807 0.0
C78 C 0.67139 0.54996 0.34274 0.0
C79 C 0.72695 0.51549 0.31814 0.0
Dy80 Dy 0.517 0.19057 0.2932 0.0
C81 C 0.60332 0.21078 0.37698 0.0
C82 C 0.47823 0.17752 0.22686 0.0
Dy83 Dy 0.56215 0.19767 0.33118 0.0
O84 O 0.48409 0.18751 0.28819 0.0
O85 O 0.4937 0.17488 0.20116 0.0
O86 O 0.51371 0.20235 0.40123 0.0
O87 O 0.53213 0.18692 0.38975 0.0
C88 C 0.5271 0.19751 0.43185 0.0
C89 C 0.55182 0.19237 0.19141 0.0
O90 O 0.54212 0.16293 0.36335 0.0
O91 O 0.51131 0.15635 0.3006 0.0
O92 O 0.59248 0.19548 0.33093 0.0
O93 O 0.59136 0.21852 0.40006 0.0
O94 O 0.56428 0.18622 0.22059 0.0
O95 O 0.54732 0.20265 0.23617 0.0
O96 O 0.53655 0.22656 0.27785 0.0
O97 O 0.56683 0.23117 0.33992 0.0
C98 C 0.52284 0.14932 0.3358 0.0
C99 C 0.55529 0.23911 0.31067 0.0
Dy100 Dy 0.88238 0.35353 0.30416 0.0
C101 C 0.86163 0.41972 0.38225 0.0
C102 C 0.89531 0.32641 0.248 0.0
Dy103 Dy 0.87519 0.39178 0.33874 0.0
O104 O 0.89626 0.33154 0.31538 0.0
O105 O 0.88712 0.33602 0.21085 0.0
O106 O 0.8685 0.33852 0.41068 0.0
O107 O 0.88544 0.37255 0.39968 0.0
C108 C 0.87403 0.35696 0.4412 0.0
C109 C 0.88143 0.38661 0.19996 0.0
O110 O 0.90975 0.40616 0.37152 0.0
O111 O 0.91597 0.38305 0.30084 0.0
O112 O 0.87644 0.42389 0.33438 0.0
O113 O 0.85474 0.40047 0.40852 0.0
O114 O 0.88748 0.4053 0.22865 0.0
O115 O 0.87086 0.37187 0.24471 0.0
O116 O 0.84631 0.33594 0.29353 0.0
O117 O 0.84147 0.36304 0.34464 0.0
C118 C 0.92321 0.40104 0.33953 0.0
C119 C 0.8337 0.34295 0.32062 0.0
Dy120 Dy 0.38414 0.88909 0.64447 0.0
C121 C 0.3155 0.80276 0.72476 0.0
C122 C 0.40997 0.92922 0.58704 0.0
Dy123 Dy 0.34768 0.84256 0.68158 0.0
O124 O 0.40102 0.9253 0.65026 0.0
O125 O 0.40496 0.9111 0.55484 0.0
O126 O 0.40026 0.89161 0.75009 0.0
O127 O 0.36639 0.87249 0.74173 0.0
C128 C 0.38241 0.87796 0.78238 0.0
C129 C 0.36073 0.84986 0.5439 0.0
O130 O 0.32935 0.86031 0.69545 0.0
O131 O 0.35511 0.89343 0.64627 0.0
O132 O 0.3144 0.8136 0.67029 0.0
O133 O 0.33392 0.81418 0.75767 0.0
O134 O 0.35414 0.83151 0.57593 0.0
O135 O 0.35853 0.8626 0.58478 0.0
O136 O 0.40103 0.86977 0.63151 0.0
O137 O 0.37767 0.84129 0.70535 0.0
C138 C 0.33557 0.8803 0.67322 0.0
C139 C 0.39632 0.85233 0.67059 0.0
Dy140 Dy 0.18335 0.52421 0.63766 0.0
C141 C 0.26999 0.54581 0.72233 0.0
C142 C 0.14483 0.51111 0.56946 0.0
Dy143 Dy 0.22864 0.53207 0.67697 0.0
O144 O 0.14994 0.51997 0.6327 0.0
O145 O 0.16088 0.50958 0.54303 0.0
O146 O 0.17938 0.53538 0.74597 0.0
O147 O 0.19832 0.52048 0.73453 0.0
C148 C 0.19283 0.53067 0.77683 0.0
C149 C 0.21887 0.52735 0.5367 0.0
O150 O 0.20903 0.49724 0.70821 0.0
O151 O 0.17851 0.49024 0.64282 0.0
O152 O 0.25931 0.5305 0.67614 0.0
O153 O 0.25774 0.55315 0.74595 0.0
O154 O 0.23134 0.52123 0.56596 0.0
O155 O 0.21396 0.53721 0.58183 0.0
O156 O 0.20237 0.56036 0.6248 0.0
O157 O 0.23247 0.56515 0.68844 0.0
C158 C 0.1901 0.48343 0.67889 0.0
C159 C 0.22081 0.57295 0.65918 0.0
Dy160 Dy 0.54828 0.68857 0.62918 0.0
C161 C 0.53035 0.75644 0.71271 0.0
C162 C 0.56069 0.66235 0.56244 0.0
Dy163 Dy 0.54237 0.72746 0.66739 0.0
O164 O 0.55122 0.6586 0.62475 0.0
O165 O 0.56311 0.6803 0.53605 0.0
O166 O 0.53639 0.67377 0.7377 0.0
O167 O 0.5525 0.70764 0.72536 0.0
C168 C 0.54173 0.69219 0.76798 0.0
C169 C 0.54767 0.72225 0.52788 0.0
O170 O 0.57697 0.74139 0.6992 0.0
O171 O 0.58276 0.71674 0.63546 0.0
O172 O 0.54476 0.76007 0.66388 0.0
O173 O 0.52291 0.73707 0.73882 0.0
O174 O 0.55436 0.74098 0.55712 0.0
O175 O 0.53698 0.7075 0.57246 0.0
O176 O 0.51232 0.67278 0.61473 0.0
O177 O 0.50856 0.69919 0.67572 0.0
C178 C 0.59021 0.73534 0.67094 0.0
C179 C 0.50017 0.67958 0.64705 0.0
C180 C 0.08822 0.28831 0.80185 0.0
C181 C 0.09494 0.28179 0.86318 0.0
C182 C 0.10017 0.30962 0.77666 0.0
C183 C 0.14001 0.36463 0.84095 0.0
H184 H 0.1434 0.37966 0.63901 0.0
C185 C 0.1909 0.4527 0.74149 0.0
C186 C 0.18077 0.45993 0.6929 0.0
C187 C 0.18157 0.43072 0.75826 0.0
C188 C 0.14248 0.37569 0.69562 0.0
H189 H 0.11991 0.29202 0.94422 0.0
H190 H 0.14119 0.32901 0.8991 0.0
H191 H 0.12581 0.34161 0.67465 0.0
H192 H 0.15315 0.44953 0.62225 0.0
H193 H 0.13692 0.41108 0.6514 0.0
H194 H 0.15677 0.3987 0.8618 0.0
C195 C 0.12638 0.31793 0.87147 0.0
C196 C 0.13236 0.35388 0.71615 0.0
C197 C 0.11431 0.29667 0.89701 0.0
C198 C 0.16136 0.44454 0.66003 0.0
C199 C 0.15211 0.42249 0.67641 0.0
C200 C 0.15027 0.38638 0.82037 0.0
C201 C 0.11921 0.32485 0.81195 0.0
C202 C 0.13088 0.34805 0.7892 0.0
C203 C 0.16197 0.41538 0.72647 0.0
C204 C 0.15152 0.39218 0.74755 0.0
H205 H 0.07328 0.27718 0.77488 0.0
H206 H 0.09397 0.31434 0.73124 0.0
H207 H 0.1388 0.36085 0.89777 0.0
H208 H 0.20588 0.46405 0.76776 0.0
H209 H 0.18969 0.42573 0.79635 0.0
C210 C 0.77552 0.8425 0.89857 0.0
C211 C 0.79035 0.83693 0.87066 0.0
C212 C 0.75451 0.83301 0.87122 0.0
C213 C 0.71961 0.80095 0.71796 0.0
H214 H 0.67375 0.78467 0.85824 0.0
C215 C 0.62845 0.74302 0.65655 0.0
C216 C 0.61372 0.74859 0.68584 0.0
C217 C 0.65044 0.75484 0.67444 0.0
C218 C 0.68637 0.78933 0.81823 0.0
H219 H 0.79513 0.81754 0.79112 0.0
H220 H 0.75826 0.80056 0.74413 0.0
H221 H 0.71124 0.80343 0.89754 0.0
H222 H 0.61073 0.77139 0.75547 0.0
H223 H 0.64894 0.79189 0.78646 0.0
H224 H 0.69447 0.78632 0.63891 0.0
C225 C 0.7629 0.81251 0.78639 0.0
C226 C 0.70791 0.80016 0.84072 0.0
C227 C 0.78401 0.82215 0.81347 0.0
C228 C 0.62156 0.76655 0.73207 0.0
C229 C 0.64347 0.77826 0.75023 0.0
C230 C 0.69799 0.78996 0.6955 0.0
C231 C 0.74777 0.81757 0.81575 0.0
C232 C 0.72485 0.8062 0.79092 0.0
C233 C 0.65812 0.77239 0.72234 0.0
C234 C 0.68114 0.7841 0.74542 0.0
H235 H 0.78004 0.85396 0.94238 0.0
H236 H 0.74349 0.83768 0.8941 0.0
H237 H 0.73222 0.80555 0.67798 0.0
H238 H 0.62299 0.72931 0.62066 0.0
H239 H 0.6613 0.74984 0.65242 0.0
C240 C 0.24596 0.98573 0.79606 0.0
C241 C 0.2334 0.97902 0.85903 0.0
C242 C 0.255 0.97376 0.76861 0.0
C243 C 0.25129 0.92016 0.77386 0.0
H244 H 0.31223 0.95275 0.72488 0.0
C245 C 0.30364 0.87971 0.73269 0.0
C246 C 0.32083 0.88912 0.68319 0.0
C247 C 0.29135 0.88957 0.74786 0.0
C248 C 0.29511 0.94334 0.73692 0.0
H249 H 0.21984 0.95422 0.94144 0.0
H250 H 0.23551 0.93322 0.89329 0.0
H251 H 0.29357 0.97184 0.76141 0.0
H252 H 0.33778 0.9156 0.60775 0.0
H253 H 0.31601 0.93235 0.63231 0.0
H254 H 0.25281 0.89162 0.74926 0.0
C255 C 0.23835 0.94768 0.865 0.0
C256 C 0.28442 0.95434 0.7581 0.0
C257 C 0.22946 0.95976 0.89276 0.0
C258 C 0.32482 0.90805 0.64685 0.0
C259 C 0.31241 0.91776 0.66137 0.0
C260 C 0.26195 0.90912 0.75204 0.0
C261 C 0.25152 0.95474 0.80327 0.0
C262 C 0.26244 0.9429 0.7773 0.0
C263 C 0.29583 0.90897 0.71333 0.0
C264 C 0.28406 0.92057 0.7337 0.0
H265 H 0.24921 1.0005 0.7689 0.0
H266 H 0.26488 0.97948 0.7205 0.0
H267 H 0.23428 0.91089 0.7877 0.0
H268 H 0.3002 0.86519 0.76192 0.0
H269 H 0.27888 0.88241 0.78869 0.0
C270 C 0.45018 0.15446 0.13622 0.0
C271 C 0.45646 0.16862 0.19517 0.0
C272 C 0.42891 0.14456 0.11047 0.0
C273 C 0.37364 0.13037 0.16943 0.0
H274 H 0.35978 0.11828 0.96706 0.0
C275 C 0.28687 0.09673 0.06363 0.0
C276 C 0.27915 0.07926 0.01535 0.0
C277 C 0.30878 0.10841 0.08188 0.0
C278 C 0.36341 0.12143 0.0238 0.0
H279 H 0.44581 0.18424 0.27164 0.0
H280 H 0.40895 0.16754 0.22568 0.0
H281 H 0.39761 0.13775 0.00504 0.0
H282 H 0.28862 0.06079 0.94683 0.0
H283 H 0.32696 0.08131 0.9786 0.0
H284 H 0.33949 0.11421 0.18811 0.0
C285 C 0.42017 0.16354 0.20034 0.0
C286 C 0.38509 0.13255 0.04565 0.0
C287 C 0.44135 0.17327 0.22637 0.0
C288 C 0.294 0.07412 -0.01568 0.0
C289 C 0.31599 0.08594 0.00222 0.0
C290 C 0.35203 0.11943 0.14754 0.0
C291 C 0.41353 0.14873 0.14288 0.0
C292 C 0.3905 0.13718 0.11883 0.0
C293 C 0.32356 0.10303 0.05197 0.0
C294 C 0.34664 0.11482 0.07453 0.0
H295 H 0.46151 0.15054 0.11132 0.0
H296 H 0.42438 0.13311 0.06665 0.0
H297 H 0.37709 0.13315 0.22636 0.0
H298 H 0.27595 0.10121 0.08851 0.0
H299 H 0.31416 0.12168 0.11965 0.0
C300 C 0.91393 0.30502 0.26372 0.0
C301 C 0.90338 0.31255 0.21847 0.0
C302 C 0.9224 0.2926 0.23617 0.0
C303 C 0.94055 0.27979 0.06581 0.0
H304 H 0.94127 0.23524 0.18326 0.0
C305 C 0.97021 0.21169 0.05447 0.0
C306 C 0.99034 0.22427 0.02047 0.0
C307 C 0.95745 0.22078 0.07304 0.0
C308 C 0.94097 0.24739 0.14912 0.0
H309 H 0.89303 0.3127 0.10917 0.0
H310 H 0.90742 0.29053 0.0609 0.0
H311 H 0.92221 0.25336 0.22573 0.0
H312 H 1.01269 0.25628 0.97865 0.0
H313 H 0.99082 0.27216 0.01237 0.0
H314 H 0.95895 0.2735 -0.01145 0.0
C315 C 0.90953 0.29456 0.11756 0.0
C316 C 0.93028 0.25804 0.17404 0.0
C317 C 0.90115 0.30714 0.14518 0.0
C318 C 0.99722 0.24603 0.00438 0.0
C319 C 0.98456 0.25515 0.02338 0.0
C320 C 0.95111 0.26902 0.04064 0.0
C321 C 0.9204 0.28723 0.16267 0.0
C322 C 0.93025 0.27466 0.13334 0.0
C323 C 0.96458 0.24272 0.05853 0.0
C324 C 0.95179 0.25293 0.0825 0.0
H325 H 0.91598 0.30905 0.32042 0.0
H326 H 0.931 0.28765 0.27239 0.0
H327 H 0.94104 0.29259 0.03312 0.0
H328 H 0.96434 0.19484 0.06735 0.0
H329 H 0.94201 0.21061 0.099 0.0
C330 C 0.82601 0.77816 -0.00187 0.0
C331 C 0.84565 0.79315 0.03078 0.0
C332 C 0.81615 0.75608 0.01474 0.0
C333 C 0.81346 0.71959 0.15895 0.0
H334 H 0.78704 0.67466 0.0143 0.0
C335 C 0.7775 0.62991 0.23452 0.0
C336 C 0.75775 0.61503 0.20278 0.0
C337 C 0.78923 0.65117 0.20902 0.0
C338 C 0.79414 0.687 0.05547 0.0
H339 H 0.87056 0.79651 0.10519 0.0
H340 H 0.85335 0.75812 0.13402 0.0
H341 H 0.80545 0.7127 0.97798 0.0
H342 H 0.73496 0.61044 0.11838 0.0
H343 H 0.75517 0.64772 0.07458 0.0
H344 H 0.80185 0.69414 0.23666 0.0
C345 C 0.84549 0.76346 0.09608 0.0
C346 C 0.80472 0.70879 0.03458 0.0
C347 C 0.85541 0.78548 0.07918 0.0
C348 C 0.7502 0.6216 0.1437 0.0
C349 C 0.76185 0.64294 0.11844 0.0
C350 C 0.80279 0.69787 0.17985 0.0
C351 C 0.82563 0.74853 0.0647 0.0
C352 C 0.81453 0.72533 0.08613 0.0
C353 C 0.78136 0.65811 0.15156 0.0
C354 C 0.79302 0.68125 0.12845 0.0
H355 H 0.81807 0.78349 0.96048 0.0
H356 H 0.80078 0.74501 -0.00998 0.0
H357 H 0.8205 0.73194 0.20013 0.0
H358 H 0.78376 0.62522 0.27991 0.0
H359 H 0.8044 0.66222 0.23487 0.0
C360 C 0.11826 0.4902 0.47228 0.0
C361 C 0.12338 0.50252 0.53558 0.0
C362 C 0.0974 0.48077 0.4433 0.0
C363 C 0.04704 0.48358 0.44512 0.0
H364 H 1.01941 0.42292 0.3928 0.0
C365 C 0.9547 0.43124 0.40406 0.0
C366 C 0.94681 0.4147 0.3522 0.0
C367 C 0.9768 0.44314 0.41976 0.0
C368 C 0.02695 0.43996 0.40586 0.0
H369 H 0.11099 0.51515 0.61722 0.0
H370 H 0.07463 0.49882 0.56649 0.0
H371 H 0.05708 0.44178 0.43105 0.0
H372 H 0.95616 0.39822 0.27439 0.0
H373 H 0.99473 0.41928 0.30055 0.0
H374 H 1.01696 0.48182 0.42007 0.0
C375 C 0.08669 0.49647 0.53903 0.0
C376 C 0.04857 0.45076 0.42796 0.0
C377 C 0.10748 0.50574 0.56829 0.0
C378 C 0.96164 0.41074 0.31502 0.0
C379 C 0.98378 0.42274 0.33039 0.0
C380 C 0.02546 0.47283 0.42252 0.0
C381 C 0.08132 0.48364 0.47673 0.0
C382 C 0.05879 0.47262 0.44867 0.0
C383 C 0.99163 0.43891 0.38366 0.0
C384 C 1.01503 0.45079 0.40343 0.0
H385 H 0.13024 0.48749 0.44595 0.0
H386 H 0.09381 0.47114 0.39486 0.0
H387 H 0.05456 0.50051 0.45981 0.0
H388 H 0.94374 0.43468 0.43404 0.0
H389 H 0.98214 0.45522 0.46183 0.0
C390 C 0.58257 0.6567 0.4687 0.0
C391 C 0.56936 0.64932 0.53017 0.0
C392 C 0.59227 0.64527 0.44182 0.0
C393 C 0.58914 0.59194 0.44502 0.0
H394 H 0.6504 0.62507 0.40073 0.0
C395 C 0.64118 0.55142 0.40689 0.0
C396 C 0.65819 0.56035 0.35658 0.0
C397 C 0.62945 0.56179 0.42276 0.0
C398 C 0.63322 0.61554 0.41159 0.0
H399 H 0.55542 0.62394 0.61058 0.0
H400 H 0.5722 0.60387 0.56339 0.0
H401 H 0.63124 0.64381 0.43638 0.0
H402 H 0.67576 0.58693 0.28194 0.0
H403 H 0.65499 0.60472 0.30831 0.0
H404 H 0.59105 0.56366 0.42013 0.0
C405 C 0.57504 0.61844 0.5358 0.0
C406 C 0.62224 0.62632 0.4322 0.0
C407 C 0.5655 0.62997 0.56301 0.0
C408 C 0.66287 0.57967 0.32139 0.0
C409 C 0.65102 0.58996 0.33688 0.0
C410 C 0.60009 0.58115 0.42387 0.0
C411 C 0.58879 0.62612 0.47551 0.0
C412 C 0.60012 0.61464 0.4498 0.0
C413 C 0.63429 0.58129 0.38834 0.0
C414 C 0.62233 0.59279 0.40754 0.0
H415 H 0.5858 0.67157 0.44232 0.0
H416 H 0.60259 0.65147 0.39483 0.0
H417 H 0.57204 0.58249 0.45737 0.0
H418 H 0.6372 0.53663 0.43534 0.0
H419 H 0.61693 0.55476 0.46347 0.0
C420 C 0.49155 0.11116 0.33113 0.0
C421 C 0.51301 0.12584 0.35124 0.0
C422 C 0.48181 0.08931 0.35061 0.0
C423 C 0.46776 0.04163 0.37239 0.0
H424 H 0.47852 0.02976 0.56684 0.0
C425 C 0.43141 0.95424 0.48606 0.0
C426 C 0.4232 0.95114 0.55644 0.0
C427 C 0.44349 0.97518 0.45746 0.0
C428 C 0.47527 0.03278 0.51245 0.0
H429 H 0.5413 0.12878 0.40516 0.0
H430 H 0.52443 0.09072 0.43822 0.0
H431 H 0.49719 0.06678 0.52214 0.0
H432 H 0.42112 0.96737 0.65206 0.0
H433 H 0.44195 1.00371 0.60238 0.0
H434 H 0.44525 1.00761 0.36382 0.0
C435 C 0.51497 0.09617 0.40858 0.0
C436 C 0.4862 0.05401 0.48646 0.0
C437 C 0.52469 0.118 0.38925 0.0
C438 C 0.42734 0.96928 0.59775 0.0
C439 C 0.4394 0.99013 0.56937 0.0
C440 C 0.45682 0.02035 0.39844 0.0
C441 C 0.4933 0.0816 0.39055 0.0
C442 C 0.48244 0.05876 0.41634 0.0
C443 C 0.44764 0.99338 0.4989 0.0
C444 C 0.46025 0.01571 0.46914 0.0
H445 H 0.48205 0.11662 0.30185 0.0
H446 H 0.46503 0.07861 0.3364 0.0
H447 H 0.46465 0.04469 0.31788 0.0
H448 H 0.42841 0.94051 0.45306 0.0
H449 H 0.44974 0.97713 0.4032 0.0
C450 C 0.19593 0.12204 0.01305 0.0
C451 C 0.18673 0.10195 0.04841 0.0
C452 C 0.1853 0.13401 0.01227 0.0
C453 C 0.14042 0.13855 0.09678 0.0
H454 H 0.13775 0.16187 0.91094 0.0
C455 C 0.07405 0.15841 0.02832 0.0
C456 C 0.07955 0.17756 -0.00973 0.0
C457 C 0.08906 0.15157 0.03779 0.0
C458 C 0.1386 0.15576 0.96345 0.0
H459 H 0.15967 0.07903 0.11325 0.0
H460 H 0.14097 0.0998 0.11166 0.0
H461 H 0.16077 0.14593 0.92653 0.0
H462 H 0.10527 0.20433 0.93126 0.0
H463 H 0.13161 0.19216 0.94751 0.0
H464 H 0.1178 0.14788 0.1331 0.0
C465 C 0.15652 0.10649 0.08507 0.0
C466 C 0.15182 0.14663 0.97253 0.0
C467 C 0.1672 0.09454 0.08596 0.0
C468 C 0.10047 0.18951 0.9608 0.0
C469 C 0.11554 0.18253 0.97002 0.0
C470 C 0.12717 0.14761 0.08764 0.0
C471 C 0.16518 0.12613 0.04671 0.0
C472 C 0.15262 0.13758 0.03901 0.0
C473 C 0.11004 0.16359 0.00937 0.0
C474 C 0.12578 0.15596 0.02052 0.0
H475 H 0.21101 0.12817 -0.01624 0.0
H476 H 0.19264 0.14925 -0.01661 0.0
H477 H 0.14095 0.13212 0.14904 0.0
H478 H 0.0581 0.14865 0.05162 0.0
H479 H 0.08412 0.13667 0.06704 0.0
C480 C 0.91356 0.94236 0.05161 0.0
C481 C 0.896 0.93 0.0056 0.0
C482 C 0.92128 0.96442 0.06138 0.0
C483 C 0.9068 1.00734 0.03852 0.0
H484 H 0.96883 0.04519 0.05574 0.0
C485 C 0.95101 0.10125 0.01903 0.0
C486 C 0.96921 0.1131 0.063 0.0
C487 C 0.93999 0.0786 0.01957 0.0
C488 C 0.95144 0.03482 0.05216 0.0
H489 H 0.87277 0.93127 0.93375 0.0
H490 H 0.88664 0.97007 0.94948 0.0
H491 H 0.95423 1.00665 0.03734 0.0
H492 H 0.98929 0.11064 0.14543 0.0
H493 H 0.96997 0.07107 0.14677 0.0
H494 H 0.90424 0.03587 0.05157 0.0
C495 C 0.89419 0.96253 0.979 0.0
C496 C 0.94304 1.01267 0.04151 0.0
C497 C 0.88633 0.94031 0.96953 0.0
C498 C 0.97533 0.10192 0.11091 0.0
C499 C 0.96439 0.07927 0.11118 0.0
C500 C 0.91526 0.02961 0.04869 0.0
C501 C 0.91182 0.97487 0.02498 0.0
C502 C 0.9206 0.99858 0.03485 0.0
C503 C 0.94705 0.06737 0.0638 0.0
C504 C 0.93769 0.04358 0.05593 0.0
H505 H 0.9213 0.93498 0.08104 0.0
H506 H 0.93457 0.97323 0.09836 0.0
H507 H 0.88943 0.99696 0.03452 0.0
H508 H 0.94597 0.10947 -0.01856 0.0
H509 H 0.92675 0.06993 -0.01771 0.0
C510 C 0.97074 0.87892 0.03512 0.0
C511 C 0.95961 0.88822 0.06797 0.0
C512 C 0.99334 0.89026 0.03156 0.0
C513 C 0.04284 0.93824 0.10292 0.0
H514 H 0.06684 0.93698 0.91682 0.0
C515 C 0.12916 1.00251 0.01939 0.0
C516 C 0.14196 0.99562 -0.01694 0.0
C517 C 0.1072 0.98823 0.03175 0.0
C518 C 0.06046 0.9373 0.9694 0.0
H519 H 0.96334 0.91621 0.12586 0.0
H520 H 1.00279 0.93616 0.11931 0.0
H521 H 0.02822 0.91376 0.9389 0.0
H522 H 0.14144 0.96828 0.93011 0.0
H523 H 0.10293 0.94331 0.95155 0.0
H524 H 0.07506 0.96213 0.13282 0.0
C525 C 0.99415 0.92001 0.09684 0.0
C526 C 0.03829 0.92394 -0.01779 0.0
C527 C 0.97152 0.9086 0.1006 0.0
C528 C 0.13208 0.97416 0.95806 0.0
C529 C 0.11 0.95985 0.97026 0.0
C530 C 0.06498 0.95164 0.09002 0.0
C531 C 1.00531 0.91122 0.06053 0.0
C532 C 0.02915 0.92439 0.04891 0.0
C533 C 0.09737 0.96668 0.00803 0.0
C534 C 0.07402 0.95153 0.02283 0.0
H535 H 0.96195 0.86318 0.00967 0.0
H536 H 1.0014 0.88281 0.00455 0.0
H537 H 0.03644 0.93877 0.15525 0.0
H538 H 0.13612 0.01891 0.03931 0.0
H539 H 0.09787 0.99415 0.05975 0.0
C540 C 0.76258 0.51719 0.29434 0.0
C541 C 0.74166 0.50648 0.32429 0.0
C542 C 0.77652 0.50884 0.30345 0.0
C543 C 0.77623 0.45809 0.35127 0.0
H544 H 0.83723 0.49644 0.38943 0.0
C545 C 0.8313 0.42414 0.42993 0.0
C546 C 0.85084 0.43263 0.39169 0.0
C547 C 0.81904 0.43447 0.42763 0.0
C548 C 0.82025 0.48554 0.3785 0.0
H549 H 0.71912 0.47858 0.38757 0.0
H550 H 0.74333 0.46438 0.40402 0.0
H551 H 0.81362 0.51162 0.36971 0.0
H552 H 0.87353 0.45919 0.32447 0.0
H553 H 0.85222 0.47731 0.32074 0.0
H554 H 0.78278 0.43203 0.3601 0.0
C555 C 0.74893 0.47898 0.37239 0.0
C556 C 0.80673 0.49424 0.36684 0.0
C557 C 0.73503 0.48724 0.36317 0.0
C558 C 0.85853 0.45231 0.35462 0.0
C559 C 0.84633 0.46271 0.35257 0.0
C560 C 0.78969 0.44942 0.36324 0.0
C561 C 0.76986 0.48963 0.34273 0.0
C562 C 0.78452 0.4806 0.35326 0.0
C563 C 0.82613 0.45356 0.38727 0.0
C564 C 0.81185 0.46301 0.37716 0.0
H565 H 0.76823 0.53205 0.26416 0.0
H566 H 0.79245 0.51735 0.27918 0.0
H567 H 0.75933 0.4471 0.33952 0.0
H568 H 0.82498 0.40898 0.45891 0.0
H569 H 0.80372 0.42721 0.45596 0.0
C570 C 0.64531 0.43333 0.42869 0.0
C571 C 0.63698 0.44511 0.39429 0.0
C572 C 0.63409 0.41068 0.426 0.0
C573 C 0.59437 0.36609 0.31193 0.0
H574 H 0.59541 0.3299 0.46556 0.0
C575 C 0.55177 0.27221 0.29142 0.0
C576 C 0.56354 0.2627 0.31781 0.0
C577 C 0.55918 0.29426 0.30276 0.0
C578 C 0.5951 0.33981 0.42195 0.0
H579 H 0.60986 0.44253 0.33389 0.0
H580 H 0.59003 0.40304 0.33064 0.0
H581 H 0.61037 0.36856 0.48608 0.0
H582 H 0.5926 0.26916 0.37574 0.0
H583 H 0.60543 0.30734 0.3947 0.0
H584 H 0.57928 0.33733 0.24763 0.0
C585 C 0.60543 0.41122 0.35824 0.0
C586 C 0.60367 0.36198 0.43374 0.0
C587 C 0.61669 0.43385 0.36072 0.0
C588 C 0.58301 0.27583 0.35475 0.0
C589 C 0.59032 0.29775 0.36626 0.0
C590 C 0.58573 0.3439 0.30022 0.0
C591 C 0.61428 0.39936 0.38902 0.0
C592 C 0.60367 0.37547 0.3786 0.0
C593 C 0.57843 0.30721 0.34106 0.0
C594 C 0.58628 0.33055 0.35476 0.0
H595 H 0.661 0.44162 0.45453 0.0
H596 H 0.6415 0.40213 0.44984 0.0
H597 H 0.59439 0.37601 0.26778 0.0
H598 H 0.53669 0.26258 0.26296 0.0
H599 H 0.54958 0.30105 0.28289 0.0
C600 C 0.6385 0.24097 0.42248 0.0
C601 C 0.62688 0.22083 0.38814 0.0
C602 C 0.66115 0.25222 0.42188 0.0
C603 C 0.70659 0.25635 0.31395 0.0
H604 H 0.74147 0.29361 0.4694 0.0
C605 C 0.80054 0.30631 0.30273 0.0
C606 C 0.81006 0.32779 0.32738 0.0
C607 C 0.77838 0.29192 0.31272 0.0
C608 C 0.73193 0.28336 0.42533 0.0
H609 H 0.62969 0.19604 0.33 0.0
H610 H 0.66916 0.21537 0.33048 0.0
H611 H 0.70256 0.27034 0.48626 0.0
H612 H 0.80355 0.35095 0.38131 0.0
H613 H 0.76515 0.32601 0.3981 0.0
H614 H 0.73597 0.26952 0.25289 0.0
C615 C 0.66088 0.22278 0.35635 0.0
C616 C 0.70962 0.27003 0.43499 0.0
C617 C 0.63826 0.2116 0.35668 0.0
C618 C 0.79686 0.33455 0.3616 0.0
C619 C 0.77481 0.32018 0.37188 0.0
C620 C 0.72891 0.26962 0.30441 0.0
C621 C 0.67263 0.24351 0.38715 0.0
C622 C 0.69661 0.25654 0.37912 0.0
C623 C 0.76531 0.29867 0.34802 0.0
C624 C 0.7418 0.2835 0.35963 0.0
H625 H 0.63012 0.24852 0.44674 0.0
H626 H 0.66961 0.26821 0.44563 0.0
H627 H 0.69706 0.24646 0.26925 0.0
H628 H 0.81022 0.30053 0.27632 0.0
H629 H 0.77155 0.27541 0.294 0.0
C630 C 0.52921 0.7902 0.68779 0.0
C631 C 0.5208 0.77038 0.72447 0.0
C632 C 0.51827 0.80186 0.68874 0.0
C633 C 0.47449 0.80663 0.77994 0.0
H634 H 0.46829 0.82733 0.59347 0.0
C635 C 0.40764 0.82712 0.7221 0.0
C636 C 0.41242 0.84509 0.67841 0.0
C637 C 0.42263 0.82019 0.73103 0.0
C638 C 0.47012 0.82199 0.64618 0.0
H639 H 0.49491 0.74768 0.79366 0.0
H640 H 0.47568 0.76798 0.79528 0.0
H641 H 0.49162 0.81171 0.60605 0.0
H642 H 0.43689 0.86988 0.60985 0.0
H643 H 0.46319 0.85775 0.62564 0.0
H644 H 0.45267 0.81658 0.81975 0.0
C645 C 0.49083 0.77464 0.76615 0.0
C646 C 0.48353 0.81302 0.65347 0.0
C647 C 0.50181 0.76298 0.76521 0.0
C648 C 0.43264 0.85596 0.64372 0.0
C649 C 0.44769 0.84896 0.6526 0.0
C650 C 0.46109 0.81561 0.77266 0.0
C651 C 0.49864 0.79394 0.72635 0.0
C652 C 0.48566 0.80497 0.72024 0.0
C653 C 0.44286 0.83101 0.69656 0.0
C654 C 0.45848 0.8231 0.70545 0.0
H655 H 0.54387 0.79632 0.65608 0.0
H656 H 0.52495 0.81685 0.65863 0.0
H657 H 0.47602 0.8009 0.83235 0.0
H658 H 0.39224 0.81827 0.74965 0.0
H659 H 0.41818 0.80608 0.76416 0.0
C660 C 0.24622 0.60888 0.71378 0.0
C661 C 0.22876 0.59645 0.66746 0.0
C662 C 0.25372 0.63088 0.7239 0.0
C663 C 0.23889 0.67357 0.70148 0.0
H664 H 0.30082 0.71157 0.72141 0.0
C665 C 0.2831 0.76775 0.6892 0.0
C666 C 0.30101 0.77923 0.73469 0.0
C667 C 0.27207 0.74509 0.68764 0.0
C668 C 0.28346 0.70115 0.71703 0.0
H669 H 0.20545 0.59754 0.59556 0.0
H670 H 0.21896 0.63629 0.61186 0.0
H671 H 0.28647 0.67316 0.70085 0.0
H672 H 0.32052 0.77604 0.81765 0.0
H673 H 0.30121 0.7365 0.81529 0.0
H674 H 0.23614 0.70196 0.71591 0.0
C675 C 0.2266 0.62882 0.6413 0.0
C676 C 0.27519 0.67907 0.70515 0.0
C677 C 0.21895 0.60664 0.63152 0.0
C678 C 0.30679 0.76763 0.78199 0.0
C679 C 0.29586 0.745 0.78014 0.0
C680 C 0.24723 0.69578 0.71283 0.0
C681 C 0.24416 0.64124 0.6875 0.0
C682 C 0.25279 0.66491 0.69775 0.0
C683 C 0.27885 0.7335 0.73123 0.0
C684 C 0.26961 0.70979 0.72124 0.0
H685 H 0.25404 0.6016 0.74324 0.0
H686 H 0.26692 0.63971 0.76115 0.0
H687 H 0.22155 0.66314 0.69683 0.0
H688 H 0.27832 0.77629 0.65204 0.0
H689 H 0.25908 0.73673 0.64927 0.0
C690 C 0.46624 0.64359 0.62716 0.0
C691 C 0.47644 0.66489 0.65378 0.0
C692 C 0.44396 0.62969 0.63736 0.0
C693 C 0.39352 0.63041 0.68149 0.0
H694 H 0.37112 0.57015 0.73205 0.0
C695 C 0.30487 0.57665 0.76681 0.0
C696 C 0.29367 0.55657 0.73184 0.0
C697 C 0.32747 0.58882 0.76358 0.0
C698 C 0.37714 0.58692 0.71767 0.0
H699 H 0.47107 0.68819 0.71209 0.0
H700 H 0.43272 0.6641 0.73038 0.0
H701 H 0.40985 0.59352 0.70933 0.0
H702 H 0.29728 0.53284 0.6699 0.0
H703 H 0.33671 0.554 0.66457 0.0
H704 H 0.36094 0.62391 0.68986 0.0
C705 C 0.44171 0.65814 0.70056 0.0
C706 C 0.39931 0.60029 0.70427 0.0
C707 C 0.46384 0.67197 0.69029 0.0
C708 C 0.30551 0.54827 0.69747 0.0
C709 C 0.32811 0.56038 0.69451 0.0
C710 C 0.37146 0.61711 0.69518 0.0
C711 C 0.43144 0.63682 0.67436 0.0
C712 C 0.40779 0.62224 0.68627 0.0
C713 C 0.33931 0.5811 0.72556 0.0
C714 C 0.36298 0.59523 0.71366 0.0
H715 H 0.47545 0.63759 0.59892 0.0
H716 H 0.43652 0.61343 0.6158 0.0
H717 H 0.39937 0.6471 0.66632 0.0
H718 H 0.29614 0.58344 0.79367 0.0
H719 H 0.33566 0.60456 0.78913 0.0
C720 C 0.02851 0.17239 0.74171 0.0
C721 C 0.02793 0.18781 0.78695 0.0
C722 C 0.03021 0.17553 0.66745 0.0
C723 C 0.02017 0.20513 0.52488 0.0
H724 H 0.05619 0.19012 0.41034 0.0
C725 C 0.04 0.22806 0.22591 0.0
C726 C 0.03927 0.21204 0.1804 0.0
C727 C 0.03776 0.22469 0.30004 0.0
C728 C 0.0459 0.19416 0.44167 0.0
H729 H 0.02866 0.21852 0.79099 0.0
H730 H 0.03236 0.2244 0.66136 0.0
H731 H 0.05503 0.18572 0.54061 0.0
H732 H 0.0351 0.17981 0.17543 0.0
H733 H 0.03114 0.17389 0.30528 0.0
H734 H 1.01125 0.2138 0.42577 0.0
C735 C 0.03119 0.20976 0.68298 0.0
C736 C 0.04523 0.19165 0.51613 0.0
C737 C 0.02938 0.20655 0.75718 0.0
C738 C 0.03576 0.19242 0.20963 0.0
C739 C 0.03364 0.18909 0.28376 0.0
C740 C 0.02092 0.20775 0.45044 0.0
C741 C 0.0314 0.19417 0.63733 0.0
C742 C 0.03235 0.1971 0.55845 0.0
C743 C 0.03486 0.2053 0.32961 0.0
C744 C 0.03377 0.20225 0.40825 0.0
H745 H 0.02733 0.15776 0.76359 0.0
H746 H 0.03007 0.16312 0.63357 0.0
H747 H 1.0098 0.20911 0.55601 0.0
H748 H 0.04264 0.24331 0.20437 0.0
H749 H 0.0389 0.23749 0.33436 0.0
C750 C 0.87535 0.87361 0.76668 0.0
C751 C 0.87921 0.8582 0.79939 0.0
C752 C 0.87119 0.87249 0.69324 0.0
C753 C 0.85436 0.86325 0.54271 0.0
H754 H 0.88289 0.8417 0.41815 0.0
C755 C 0.84252 0.85958 0.23675 0.0
C756 C 0.85981 0.86264 0.19299 0.0
C757 C 0.8435 0.85744 0.31087 0.0
C758 C 0.87507 0.84812 0.45193 0.0
H759 H 0.88069 0.82893 0.78353 0.0
H760 H 0.87203 0.82604 0.65577 0.0
H761 H 0.88717 0.84123 0.5469 0.0
H762 H 0.8918 0.86644 0.1908 0.0
H763 H 0.89441 0.86447 0.32092 0.0
H764 H 0.84385 0.87192 0.44778 0.0
C765 C 0.87324 0.83963 0.68554 0.0
C766 C 0.87712 0.84739 0.52622 0.0
C767 C 0.87804 0.84115 0.7587 0.0
C768 C 0.87829 0.86402 0.22402 0.0
C769 C 0.8796 0.8626 0.29843 0.0
C770 C 0.85286 0.8646 0.46843 0.0
C771 C 0.87018 0.85554 0.65154 0.0
C772 C 0.8669 0.85508 0.57262 0.0
C773 C 0.8621 0.85904 0.34282 0.0
C774 C 0.86329 0.85715 0.42199 0.0
H775 H 0.87626 0.88695 0.79739 0.0
H776 H 0.86942 0.88532 0.66911 0.0
H777 H 0.84582 0.86887 0.57652 0.0
H778 H 0.82795 0.85816 0.21351 0.0
H779 H 0.82948 0.85418 0.34271 0.0
C780 C 0.20326 0.02844 0.75044 0.0
C781 C 0.21378 0.04953 0.77837 0.0
C782 C 0.20246 0.02518 0.67637 0.0
C783 C 0.22824 0.05208 0.50619 0.0
H784 H 0.1732 1.01009 0.42266 0.0
C785 C 0.21401 0.04674 0.20247 0.0
C786 C 0.20495 0.02588 0.17319 0.0
C787 C 0.214 0.04946 0.2766 0.0
C788 C 0.18868 0.02175 0.44544 0.0
H789 H 0.23214 0.08369 0.75212 0.0
H790 H 0.23051 0.07804 0.62251 0.0
H791 H 0.17639 0.01488 0.55296 0.0
H792 H 0.18783 0.99151 0.19694 0.0
H793 H 0.18787 0.99628 0.32702 0.0
H794 H 0.2405 0.05904 0.39871 0.0
C795 C 0.2231 0.06403 0.65761 0.0
C796 C 0.19054 0.02443 0.51982 0.0
C797 C 0.22394 0.06728 0.73163 0.0
C798 C 0.19502 1.00776 0.21856 0.0
C799 C 0.19495 1.01048 0.29274 0.0
C800 C 0.22636 0.04945 0.4319 0.0
C801 C 0.21215 0.04297 0.6293 0.0
C802 C 0.21033 0.03965 0.55079 0.0
C803 C 0.20484 0.03136 0.32237 0.0
C804 C 0.20656 0.03431 0.40094 0.0
H805 H 0.19534 0.0145 0.78568 0.0
H806 H 0.19419 1.00877 0.65592 0.0
H807 H 0.24376 0.0637 0.52876 0.0
H808 H 0.22157 0.06095 0.16831 0.0
H809 H 0.2214 0.06572 0.29822 0.0
C810 C 0.73037 0.54765 0.56077 0.0
C811 C 0.71207 0.53974 0.51659 0.0
C812 C 0.72799 0.5445 0.63491 0.0
C813 C 0.71736 0.54967 0.78838 0.0
H814 H 0.67379 0.49571 0.87432 0.0
C815 C 0.67034 0.51564 0.07489 0.0
C816 C 0.68801 0.52377 0.12195 0.0
C817 C 0.67373 0.51761 0.0008 0.0
C818 C 0.68588 0.51093 0.85089 0.0
H819 H 0.67701 0.5216 0.51382 0.0
H820 H 0.6728 0.51631 0.64369 0.0
H821 H 0.67921 0.49795 0.74431 0.0
H822 H 0.72301 0.54078 0.12963 0.0
H823 H 0.72897 0.54423 -0.00017 0.0
H824 H 0.72396 0.56268 0.89492 0.0
C825 C 0.68897 0.5248 0.62118 0.0
C826 C 0.689 0.51218 0.77668 0.0
C827 C 0.69136 0.52794 0.54703 0.0
C828 C 0.70913 0.53441 0.09419 0.0
C829 C 0.71253 0.53643 0.02011 0.0
C830 C 0.71426 0.5484 0.8626 0.0
C831 C 0.70726 0.53337 0.66587 0.0
C832 C 0.70468 0.53161 0.74474 0.0
C833 C 0.69485 0.52779 0.9728 0.0
C834 C 0.69839 0.52907 0.89439 0.0
H835 H 0.74652 0.55663 0.53823 0.0
H836 H 0.74235 0.55096 0.6681 0.0
H837 H 0.72932 0.56495 0.76501 0.0
H838 H 0.6539 0.50746 0.09524 0.0
H839 H 0.65984 0.51113 0.96539 0.0
C840 C 0.54427 0.19165 0.53908 0.0
C841 C 0.53204 0.20006 0.50879 0.0
C842 C 0.54749 0.19256 0.61318 0.0
C843 C 0.5222 0.19538 0.78057 0.0
H844 H 0.5765 0.20706 0.86614 0.0
C845 C 0.5372 0.20243 0.08636 0.0
C846 C 0.54826 0.19238 0.1139 0.0
C847 C 0.53519 0.20383 0.0123 0.0
C848 C 0.56119 0.20358 0.84281 0.0
H849 H 0.51449 0.21696 0.5306 0.0
H850 H 0.5203 0.21875 0.66036 0.0
H851 H 0.57421 0.21018 0.73614 0.0
H852 H 0.56533 0.17535 0.08681 0.0
H853 H 0.56167 0.17763 0.95703 0.0
H854 H 0.50914 0.18864 0.88716 0.0
C855 C 0.52703 0.21109 0.62711 0.0
C856 C 0.55991 0.20541 0.76861 0.0
C857 C 0.5238 0.21016 0.55303 0.0
C858 C 0.55682 0.18327 0.06664 0.0
C859 C 0.55486 0.18471 -0.00742 0.0
C860 C 0.52349 0.19357 0.85476 0.0
C861 C 0.53857 0.20195 0.65795 0.0
C862 C 0.54036 0.20119 0.73681 0.0
C863 C 0.54425 0.19523 0.9648 0.0
C864 C 0.54296 0.1975 0.88642 0.0
H865 H 0.55087 0.18387 0.50581 0.0
H866 H 0.55631 0.18523 0.6356 0.0
H867 H 0.50682 0.19169 0.7573 0.0
H868 H 0.53049 0.2096 0.12195 0.0
H869 H 0.52705 0.21214 -0.00779 0.0
C870 C 0.85982 0.34107 0.56147 0.0
C871 C 0.87104 0.35943 0.51775 0.0
C872 C 0.85877 0.34336 0.63551 0.0
C873 C 0.86706 0.38258 0.77834 0.0
H874 H 0.8814 0.34626 0.89423 0.0
C875 C 0.89108 0.40063 0.07519 0.0
C876 C 0.88116 0.38297 0.12242 0.0
C877 C 0.88921 0.39727 0.00113 0.0
C878 C 0.87715 0.35634 0.86258 0.0
H879 H 0.88896 0.39453 0.51546 0.0
H880 H 0.88739 0.39856 0.64518 0.0
H881 H 0.87753 0.34097 0.76448 0.0
H882 H 0.86193 0.34799 0.13035 0.0
H883 H 0.85872 0.34208 0.00068 0.0
H884 H 0.86699 0.39813 0.87655 0.0
C885 C 0.8793 0.38243 0.62242 0.0
C886 C 0.87485 0.35327 0.78848 0.0
C887 C 0.88032 0.38013 0.54836 0.0
C888 C 0.86986 0.36186 0.09483 0.0
C889 C 0.86802 0.35848 0.02079 0.0
C890 C 0.8694 0.38567 0.85249 0.0
C891 C 0.86892 0.36404 0.66678 0.0
C892 C 0.86993 0.36646 0.74566 0.0
C893 C 0.87742 0.37618 0.97336 0.0
C894 C 0.87462 0.37268 0.8951 0.0
H895 H 0.85234 0.32494 0.53875 0.0
H896 H 0.85035 0.32895 0.66846 0.0
H897 H 0.86301 0.39279 0.74659 0.0
H898 H 0.89996 0.41706 0.09542 0.0
H899 H 0.8969 0.41115 0.96557 0.0
C900 C 0.36772 0.83806 0.4261 0.0
C901 C 0.36617 0.85371 0.46719 0.0
C902 C 0.37117 0.84082 0.35205 0.0
C903 C 0.3617 0.86739 0.20064 0.0
H904 H 0.40078 0.85389 0.09773 0.0
C905 C 0.39975 0.88021 0.90031 0.0
C906 C 0.38087 0.87273 0.85924 0.0
C907 C 0.3984 0.87675 0.97443 0.0
C908 C 0.38984 0.85775 0.1259 0.0
H909 H 0.36774 0.88484 0.46447 0.0
H910 H 0.37381 0.88971 0.3347 0.0
H911 H 0.399 0.85162 0.2291 0.0
H912 H 0.34581 0.85505 0.86202 0.0
H913 H 0.34342 0.84901 -0.00801 0.0
H914 H 0.35262 0.87366 0.09778 0.0
C915 C 0.37215 0.87523 0.35961 0.0
C916 C 0.38875 0.85635 0.20083 0.0
C917 C 0.36881 0.87251 0.43373 0.0
C918 C 0.3606 0.8611 0.89279 0.0
C919 C 0.35924 0.85774 0.967 0.0
C920 C 0.36268 0.86865 0.12582 0.0
C921 C 0.37301 0.85924 0.31798 0.0
C922 C 0.3747 0.86121 0.23883 0.0
C923 C 0.37814 0.86584 0.0086 0.0
C924 C 0.37676 0.86385 0.08777 0.0
H925 H 0.3658 0.82345 0.45091 0.0
H926 H 0.37163 0.82819 0.32114 0.0
H927 H 0.35052 0.87097 0.22858 0.0
H928 H 0.41557 0.88914 0.87543 0.0
H929 H 0.41321 0.88326 0.0053 0.0
C930 C 0.21016 0.5251 0.88428 0.0
C931 C 0.19772 0.53325 0.85384 0.0
C932 C 0.2135 0.52621 0.95835 0.0
C933 C 0.18851 0.5294 0.12618 0.0
H934 H 0.24325 0.54193 0.21032 0.0
C935 C 0.20428 0.53745 0.43161 0.0
C936 C 0.21543 0.52749 0.45914 0.0
C937 C 0.20219 0.53877 0.35753 0.0
C938 C 0.22783 0.53822 0.18741 0.0
H939 H 0.17985 0.54983 0.87539 0.0
H940 H 0.18586 0.55199 0.00507 0.0
H941 H 0.24049 0.54444 0.08026 0.0
H942 H 0.23267 0.51064 0.43201 0.0
H943 H 0.22889 0.5128 0.30226 0.0
H944 H 0.17582 0.52305 0.23326 0.0
C945 C 0.19268 0.54438 0.97198 0.0
C946 C 0.22627 0.5397 0.11316 0.0
C947 C 0.18932 0.54324 0.89793 0.0
C948 C 0.22408 0.51848 0.41185 0.0
C949 C 0.22205 0.51985 0.3378 0.0
C950 C 0.19009 0.52796 0.20042 0.0
C951 C 0.20449 0.53555 0.00297 0.0
C952 C 0.20655 0.53515 0.08185 0.0
C953 C 0.21127 0.53019 0.31001 0.0
C954 C 0.20971 0.53219 0.23159 0.0
H955 H 0.21688 0.51741 0.85114 0.0
H956 H 0.22252 0.51912 -0.01912 0.0
H957 H 0.17302 0.52547 0.10334 0.0
H958 H 0.19751 0.54456 0.4672 0.0
H959 H 0.19392 0.54695 0.33744 0.0
C960 C 0.55831 0.7365 0.40384 0.0
C961 C 0.54823 0.71873 0.45057 0.0
C962 C 0.55756 0.73326 0.32981 0.0
C963 C 0.52539 0.6935 0.19175 0.0
H964 H 0.57537 0.72842 0.07113 0.0
C965 C 0.53014 0.67685 0.89062 0.0
C966 C 0.53994 0.69497 0.84517 0.0
C967 C 0.5301 0.67959 0.96482 0.0
C968 C 0.56123 0.71874 0.10417 0.0
H969 H 0.53003 0.6837 0.45782 0.0
H970 H 0.52904 0.67799 0.32809 0.0
H971 H 0.57845 0.73315 0.20119 0.0
H972 H 0.55641 0.73003 0.84023 0.0
H973 H 0.5563 0.73482 0.97014 0.0
H974 H 0.50823 0.679 0.09447 0.0
C975 C 0.53717 0.6944 0.34854 0.0
C976 C 0.563 0.72141 0.17848 0.0
C977 C 0.53787 0.69766 0.42261 0.0
C978 C 0.54895 0.71582 0.87443 0.0
C979 C 0.54897 0.71856 0.94857 0.0
C980 C 0.52364 0.69078 0.11737 0.0
C981 C 0.54678 0.71219 0.30147 0.0
C982 C 0.54508 0.70887 0.22292 0.0
C983 C 0.5399 0.70048 -0.00558 0.0
C984 C 0.54153 0.70344 0.07302 0.0
H985 H 0.56637 0.75291 0.42434 0.0
H986 H 0.56491 0.74727 0.29472 0.0
H987 H 0.51123 0.68385 0.22474 0.0
H988 H 0.52301 0.66061 0.86904 0.0
H989 H 0.5231 0.6654 -0.00087 0.0
loop_
_geom_bond_atom_site_label_1
_geom_bond_atom_site_label_2
_geom_bond_distance
_geom_bond_site_symmetry_2
_ccdc_geom_bond_type
Dy0 O4 2.398 . S
Dy0 O5 2.491 1_554 S
Dy0 O6 2.403 . S
Dy0 O7 2.664 . S
Dy0 O11 2.326 . S
Dy0 O15 2.310 1_554 S
Dy0 O16 2.351 . S
C1 O12 1.185 1_554 S
C1 O13 1.355 . S
C2 O4 1.185 1_556 S
C2 O5 1.355 . S
Dy3 O7 2.310 1_655 S
Dy3 O10 2.351 . S
Dy3 O12 2.398 1_554 S
Dy3 O13 2.491 . S
Dy3 O14 2.403 1_554 S
Dy3 O15 2.664 1_654 S
Dy3 O17 2.326 1_654 S
O4 Dy0 2.398 . S
O4 C2 1.185 1_554 S
O5 Dy0 2.491 1_556 S
O5 C2 1.355 . S
O6 Dy0 2.403 . S
O6 C8 1.254 . S
O7 Dy0 2.664 . S
O7 Dy3 2.310 1_455 S
O7 C8 1.268 . S
C8 O6 1.254 . S
C8 O7 1.268 . S
C9 O14 1.254 1_455 S
C9 O15 1.268 . S
O10 Dy3 2.351 . S
O10 C18 1.249 . S
O11 Dy0 2.326 . S
O11 C18 1.267 1_455 S
O12 C1 1.185 1_556 S
O12 Dy3 2.398 1_556 S
O13 C1 1.355 . S
O13 Dy3 2.491 . S
O14 Dy3 2.403 1_556 S
O14 C9 1.254 1_655 S
O15 Dy0 2.310 1_556 S
O15 Dy3 2.664 1_456 S
O15 C9 1.268 . S
O16 Dy0 2.351 . S
O16 C19 1.249 1_554 S
O17 Dy3 2.326 1_456 S
O17 C19 1.267 . S
C18 O10 1.249 . S
C18 O11 1.267 1_655 S
C19 O16 1.249 1_556 S
C19 O17 1.267 . S
Dy20 O24 2.398 . S
Dy20 O25 2.491 1_554 S
Dy20 O26 2.403 . S
Dy20 O27 2.664 . S
Dy20 O31 2.326 . S
Dy20 O35 2.310 1_554 S
Dy20 O36 2.351 . S
C21 O32 1.185 1_554 S
C21 O33 1.355 . S
C22 O24 1.185 1_556 S
C22 O25 1.355 . S
Dy23 O27 2.310 . S
Dy23 O30 2.351 . S
Dy23 O32 2.398 1_554 S
Dy23 O33 2.491 . S
Dy23 O34 2.403 1_554 S
Dy23 O35 2.664 1_554 S
Dy23 O37 2.326 1_554 S
O24 Dy20 2.398 . S
O24 C22 1.185 1_554 S
O25 Dy20 2.491 1_556 S
O25 C22 1.355 . S
O26 Dy20 2.403 . S
O26 C28 1.254 . S
O27 Dy20 2.664 . S
O27 Dy23 2.310 . S
O27 C28 1.268 . S
C28 O26 1.254 . S
C28 O27 1.268 . S
C29 O34 1.254 . S
C29 O35 1.268 . S
O30 Dy23 2.351 . S
O30 C38 1.249 . S
O31 Dy20 2.326 . S
O31 C38 1.267 . S
O32 C21 1.185 1_556 S
O32 Dy23 2.398 1_556 S
O33 C21 1.355 . S
O33 Dy23 2.491 . S
O34 Dy23 2.403 1_556 S
O34 C29 1.254 . S
O35 Dy20 2.310 1_556 S
O35 Dy23 2.664 1_556 S
O35 C29 1.268 . S
O36 Dy20 2.351 . S
O36 C39 1.249 1_554 S
O37 Dy23 2.326 1_556 S
O37 C39 1.267 . S
C38 O30 1.249 . S
C38 O31 1.267 . S
C39 O36 1.249 1_556 S
C39 O37 1.267 . S
Dy40 O44 2.398 . S
Dy40 O45 2.491 1_554 S
Dy40 O46 2.403 . S
Dy40 O47 2.664 1_565 S
Dy40 O51 2.326 1_565 S
Dy40 O55 2.310 1_564 S
Dy40 O56 2.351 . S
C41 O52 1.185 1_554 S
C41 O53 1.355 . S
C42 O44 1.185 1_556 S
C42 O45 1.355 . S
Dy43 O47 2.310 . S
Dy43 O50 2.351 . S
Dy43 O52 2.398 1_554 S
Dy43 O53 2.491 . S
Dy43 O54 2.403 1_554 S
Dy43 O55 2.664 1_554 S
Dy43 O57 2.326 1_554 S
O44 Dy40 2.398 . S
O44 C42 1.185 1_554 S
O45 Dy40 2.491 1_556 S
O45 C42 1.355 . S
O46 Dy40 2.403 . S
O46 C48 1.254 1_565 S
O47 Dy40 2.664 1_545 S
O47 Dy43 2.310 . S
O47 C48 1.268 . S
C48 O46 1.254 1_545 S
C48 O47 1.268 . S
C49 O54 1.254 . S
C49 O55 1.268 . S
O50 Dy43 2.351 . S
O50 C58 1.249 . S
O51 Dy40 2.326 1_545 S
O51 C58 1.267 . S
O52 C41 1.185 1_556 S
O52 Dy43 2.398 1_556 S
O53 C41 1.355 . S
O53 Dy43 2.491 . S
O54 Dy43 2.403 1_556 S
O54 C49 1.254 . S
O55 Dy40 2.310 1_546 S
O55 Dy43 2.664 1_556 S
O55 C49 1.268 . S
O56 Dy40 2.351 . S
O56 C59 1.249 1_554 S
O57 Dy43 2.326 1_556 S
O57 C59 1.267 1_545 S
C58 O50 1.249 . S
C58 O51 1.267 . S
C59 O56 1.249 1_556 S
C59 O57 1.267 1_565 S
Dy60 O64 2.398 . S
Dy60 O65 2.491 . S
Dy60 O66 2.403 . S
Dy60 O67 2.664 . S
Dy60 O71 2.326 . S
Dy60 O75 2.310 . S
Dy60 O76 2.351 . S
C61 O72 1.185 . S
C61 O73 1.355 . S
C62 O64 1.185 . S
C62 O65 1.355 . S
Dy63 O67 2.310 . S
Dy63 O70 2.351 . S
Dy63 O72 2.398 . S
Dy63 O73 2.491 . S
Dy63 O74 2.403 . S
Dy63 O75 2.664 . S
Dy63 O77 2.326 . S
O64 Dy60 2.398 . S
O64 C62 1.185 . S
O65 Dy60 2.491 . S
O65 C62 1.355 . S
O66 Dy60 2.403 . S
O66 C68 1.254 . S
O67 Dy60 2.664 . S
O67 Dy63 2.310 . S
O67 C68 1.268 . S
C68 O66 1.254 . S
C68 O67 1.268 . S
C69 O74 1.254 . S
C69 O75 1.268 . S
O70 Dy63 2.351 . S
O70 C78 1.249 . S
O71 Dy60 2.326 . S
O71 C78 1.267 . S
O72 C61 1.185 . S
O72 Dy63 2.398 . S
O73 C61 1.355 . S
O73 Dy63 2.491 . S
O74 Dy63 2.403 . S
O74 C69 1.254 . S
O75 Dy60 2.310 . S
O75 Dy63 2.664 . S
O75 C69 1.268 . S
O76 Dy60 2.351 . S
O76 C79 1.249 . S
O77 Dy63 2.326 . S
O77 C79 1.267 . S
C78 O70 1.249 . S
C78 O71 1.267 . S
C79 O76 1.249 . S
C79 O77 1.267 . S
Dy80 O84 2.398 . S
Dy80 O85 2.491 . S
Dy80 O86 2.403 . S
Dy80 O87 2.664 . S
Dy80 O91 2.326 . S
Dy80 O95 2.310 . S
Dy80 O96 2.351 . S
C81 O92 1.185 . S
C81 O93 1.355 . S
C82 O84 1.185 . S
C82 O85 1.355 . S
Dy83 O87 2.310 . S
Dy83 O90 2.351 . S
Dy83 O92 2.398 . S
Dy83 O93 2.491 . S
Dy83 O94 2.403 . S
Dy83 O95 2.664 . S
Dy83 O97 2.326 . S
O84 Dy80 2.398 . S
O84 C82 1.185 . S
O85 Dy80 2.491 . S
O85 C82 1.355 . S
O86 Dy80 2.403 . S
O86 C88 1.254 . S
O87 Dy80 2.664 . S
O87 Dy83 2.310 . S
O87 C88 1.268 . S
C88 O86 1.254 . S
C88 O87 1.268 . S
C89 O94 1.254 . S
C89 O95 1.268 . S
O90 Dy83 2.351 . S
O90 C98 1.249 . S
O91 Dy80 2.326 . S
O91 C98 1.267 . S
O92 C81 1.185 . S
O92 Dy83 2.398 . S
O93 C81 1.355 . S
O93 Dy83 2.491 . S
O94 Dy83 2.403 . S
O94 C89 1.254 . S
O95 Dy80 2.310 . S
O95 Dy83 2.664 . S
O95 C89 1.268 . S
O96 Dy80 2.351 . S
O96 C99 1.249 . S
O97 Dy83 2.326 . S
O97 C99 1.267 . S
C98 O90 1.249 . S
C98 O91 1.267 . S
C99 O96 1.249 . S
C99 O97 1.267 . S
Dy100 O104 2.398 . S
Dy100 O105 2.491 . S
Dy100 O106 2.403 . S
Dy100 O107 2.664 . S
Dy100 O111 2.326 . S
Dy100 O115 2.310 . S
Dy100 O116 2.351 . S
C101 O112 1.185 . S
C101 O113 1.355 . S
C102 O104 1.185 . S
C102 O105 1.355 . S
Dy103 O107 2.310 . S
Dy103 O110 2.351 . S
Dy103 O112 2.398 . S
Dy103 O113 2.491 . S
Dy103 O114 2.403 . S
Dy103 O115 2.664 . S
Dy103 O117 2.326 . S
O104 Dy100 2.398 . S
O104 C102 1.185 . S
O105 Dy100 2.491 . S
O105 C102 1.355 . S
O106 Dy100 2.403 . S
O106 C108 1.254 . S
O107 Dy100 2.664 . S
O107 Dy103 2.310 . S
O107 C108 1.268 . S
C108 O106 1.254 . S
C108 O107 1.268 . S
C109 O114 1.254 . S
C109 O115 1.268 . S
O110 Dy103 2.351 . S
O110 C118 1.249 . S
O111 Dy100 2.326 . S
O111 C118 1.267 . S
O112 C101 1.185 . S
O112 Dy103 2.398 . S
O113 C101 1.355 . S
O113 Dy103 2.491 . S
O114 Dy103 2.403 . S
O114 C109 1.254 . S
O115 Dy100 2.310 . S
O115 Dy103 2.664 . S
O115 C109 1.268 . S
O116 Dy100 2.351 . S
O116 C119 1.249 . S
O117 Dy103 2.326 . S
O117 C119 1.267 . S
C118 O110 1.249 . S
C118 O111 1.267 . S
C119 O116 1.249 . S
C119 O117 1.267 . S
Dy120 O124 2.398 . S
Dy120 O125 2.491 . S
Dy120 O126 2.403 . S
Dy120 O127 2.664 . S
Dy120 O131 2.326 . S
Dy120 O135 2.310 . S
Dy120 O136 2.351 . S
C121 O132 1.185 . S
C121 O133 1.355 . S
C122 O124 1.185 . S
C122 O125 1.355 . S
Dy123 O127 2.310 . S
Dy123 O130 2.351 . S
Dy123 O132 2.398 . S
Dy123 O133 2.491 . S
Dy123 O134 2.403 . S
Dy123 O135 2.664 . S
Dy123 O137 2.326 . S
O124 Dy120 2.398 . S
O124 C122 1.185 . S
O125 Dy120 2.491 . S
O125 C122 1.355 . S
O126 Dy120 2.403 . S
O126 C128 1.254 . S
O127 Dy120 2.664 . S
O127 Dy123 2.310 . S
O127 C128 1.268 . S
C128 O126 1.254 . S
C128 O127 1.268 . S
C129 O134 1.254 . S
C129 O135 1.268 . S
O130 Dy123 2.351 . S
O130 C138 1.249 . S
O131 Dy120 2.326 . S
O131 C138 1.267 . S
O132 C121 1.185 . S
O132 Dy123 2.398 . S
O133 C121 1.355 . S
O133 Dy123 2.491 . S
O134 Dy123 2.403 . S
O134 C129 1.254 . S
O135 Dy120 2.310 . S
O135 Dy123 2.664 . S
O135 C129 1.268 . S
O136 Dy120 2.351 . S
O136 C139 1.249 . S
O137 Dy123 2.326 . S
O137 C139 1.267 . S
C138 O130 1.249 . S
C138 O131 1.267 . S
C139 O136 1.249 . S
C139 O137 1.267 . S
Dy140 O144 2.398 . S
Dy140 O145 2.491 . S
Dy140 O146 2.403 . S
Dy140 O147 2.664 . S
Dy140 O151 2.326 . S
Dy140 O155 2.310 . S
Dy140 O156 2.351 . S
C141 O152 1.185 . S
C141 O153 1.355 . S
C142 O144 1.185 . S
C142 O145 1.355 . S
Dy143 O147 2.310 . S
Dy143 O150 2.351 . S
Dy143 O152 2.398 . S
Dy143 O153 2.491 . S
Dy143 O154 2.403 . S
Dy143 O155 2.664 . S
Dy143 O157 2.326 . S
O144 Dy140 2.398 . S
O144 C142 1.185 . S
O145 Dy140 2.491 . S
O145 C142 1.355 . S
O146 Dy140 2.403 . S
O146 C148 1.254 . S
O147 Dy140 2.664 . S
O147 Dy143 2.310 . S
O147 C148 1.268 . S
C148 O146 1.254 . S
C148 O147 1.268 . S
C149 O154 1.254 . S
C149 O155 1.268 . S
O150 Dy143 2.351 . S
O150 C158 1.249 . S
O151 Dy140 2.326 . S
O151 C158 1.267 . S
O152 C141 1.185 . S
O152 Dy143 2.398 . S
O153 C141 1.355 . S
O153 Dy143 2.491 . S
O154 Dy143 2.403 . S
O154 C149 1.254 . S
O155 Dy140 2.310 . S
O155 Dy143 2.664 . S
O155 C149 1.268 . S
O156 Dy140 2.351 . S
O156 C159 1.249 . S
O157 Dy143 2.326 . S
O157 C159 1.267 . S
C158 O150 1.249 . S
C158 O151 1.267 . S
C159 O156 1.249 . S
C159 O157 1.267 . S
Dy160 O164 2.398 . S
Dy160 O165 2.491 . S
Dy160 O166 2.403 . S
Dy160 O167 2.664 . S
Dy160 O171 2.326 . S
Dy160 O175 2.310 . S
Dy160 O176 2.351 . S
C161 O172 1.185 . S
C161 O173 1.355 . S
C162 O164 1.185 . S
C162 O165 1.355 . S
Dy163 O167 2.310 . S
Dy163 O170 2.351 . S
Dy163 O172 2.398 . S
Dy163 O173 2.491 . S
Dy163 O174 2.403 . S
Dy163 O175 2.664 . S
Dy163 O177 2.326 . S
O164 Dy160 2.398 . S
O164 C162 1.185 . S
O165 Dy160 2.491 . S
O165 C162 1.355 . S
O166 Dy160 2.403 . S
O166 C168 1.254 . S
O167 Dy160 2.664 . S
O167 Dy163 2.310 . S
O167 C168 1.268 . S
C168 O166 1.254 . S
C168 O167 1.268 . S
C169 O174 1.254 . S
C169 O175 1.268 . S
O170 Dy163 2.351 . S
O170 C178 1.249 . S
O171 Dy160 2.326 . S
O171 C178 1.267 . S
O172 C161 1.185 . S
O172 Dy163 2.398 . S
O173 C161 1.355 . S
O173 Dy163 2.491 . S
O174 Dy163 2.403 . S
O174 C169 1.254 . S
O175 Dy160 2.310 . S
O175 Dy163 2.664 . S
O175 C169 1.268 . S
O176 Dy160 2.351 . S
O176 C179 1.249 . S
O177 Dy163 2.326 . S
O177 C179 1.267 . S
C178 O170 1.249 . S
C178 O171 1.267 . S
C179 O176 1.249 . S
C179 O177 1.267 . S
C180 C181 1.349 . S
C180 C182 1.327 . S
C180 H205 0.950 . S
C181 C180 1.349 . S
C181 C197 1.348 . S
C182 C180 1.327 . S
C182 C201 1.429 . S
C182 H206 0.950 . S
C183 C200 1.574 . S
C183 C202 1.368 . S
C183 H207 0.949 . S
H184 C188 0.949 . S
C185 C186 1.349 . S
C185 C187 1.327 . S
C185 H208 0.950 . S
C186 C185 1.349 . S
C186 C198 1.349 . S
C187 C185 1.327 . S
C187 C203 1.429 . S
C187 H209 0.950 . S
C188 H184 0.949 . S
C188 C196 1.574 . S
C188 C204 1.368 . S
H189 C197 0.951 1_554 S
H190 C195 0.950 1_554 S
H191 C196 0.949 . S
H192 C198 0.950 . S
H193 C199 0.950 . S
H194 C200 0.949 . S
C195 H190 0.950 1_556 S
C195 C197 1.327 . S
C195 C201 1.429 . S
C196 C188 1.574 . S
C196 H191 0.949 . S
C196 C202 1.368 . S
C197 C181 1.348 . S
C197 H189 0.951 1_556 S
C197 C195 1.327 . S
C198 C186 1.349 . S
C198 H192 0.950 . S
C198 C199 1.327 . S
C199 H193 0.950 . S
C199 C198 1.327 . S
C199 C203 1.429 . S
C200 C183 1.574 . S
C200 H194 0.949 . S
C200 C204 1.368 . S
C201 C182 1.429 . S
C201 C195 1.429 . S
C201 C202 1.523 . S
C202 C183 1.368 . S
C202 C196 1.368 . S
C202 C201 1.523 . S
C203 C187 1.429 . S
C203 C199 1.429 . S
C203 C204 1.523 . S
C204 C188 1.368 . S
C204 C200 1.368 . S
C204 C203 1.523 . S
H205 C180 0.950 . S
H206 C182 0.950 . S
H207 C183 0.949 . S
H208 C185 0.950 . S
H209 C187 0.950 . S
C210 C211 1.349 1_554 S
C210 C212 1.327 1_554 S
C210 H235 0.950 . S
C211 C210 1.349 1_556 S
C211 C227 1.349 . S
C212 C210 1.327 1_556 S
C212 C231 1.429 . S
C212 H236 0.950 1_556 S
C213 C230 1.574 . S
C213 C232 1.368 . S
C213 H237 0.949 . S
H214 C218 0.949 . S
C215 C216 1.349 . S
C215 C217 1.327 . S
C215 H238 0.950 . S
C216 C215 1.349 . S
C216 C228 1.349 . S
C217 C215 1.327 . S
C217 C233 1.429 . S
C217 H239 0.950 . S
C218 H214 0.949 . S
C218 C226 1.574 . S
C218 C234 1.368 . S
H219 C227 0.950 . S
H220 C225 0.950 . S
H221 C226 0.949 . S
H222 C228 0.950 . S
H223 C229 0.950 . S
H224 C230 0.949 . S
C225 H220 0.950 . S
C225 C227 1.327 . S
C225 C231 1.429 . S
C226 C218 1.574 . S
C226 H221 0.949 . S
C226 C232 1.368 . S
C227 C211 1.349 . S
C227 H219 0.950 . S
C227 C225 1.327 . S
C228 C216 1.349 . S
C228 H222 0.950 . S
C228 C229 1.327 . S
C229 H223 0.950 . S
C229 C228 1.327 . S
C229 C233 1.429 . S
C230 C213 1.574 . S
C230 H224 0.949 . S
C230 C234 1.368 . S
C231 C212 1.429 . S
C231 C225 1.429 . S
C231 C232 1.523 . S
C232 C213 1.368 . S
C232 C226 1.368 . S
C232 C231 1.523 . S
C233 C217 1.429 . S
C233 C229 1.429 . S
C233 C234 1.523 . S
C234 C218 1.368 . S
C234 C230 1.368 . S
C234 C233 1.523 . S
H235 C210 0.950 . S
H236 C212 0.950 1_554 S
H237 C213 0.949 . S
H238 C215 0.950 . S
H239 C217 0.950 . S
C240 C241 1.349 . S
C240 C242 1.327 . S
C240 H265 0.950 . S
C241 C240 1.349 . S
C241 C257 1.349 . S
C242 C240 1.327 . S
C242 C261 1.429 . S
C242 H266 0.950 . S
C243 C260 1.574 . S
C243 C262 1.368 . S
C243 H267 0.949 . S
H244 C248 0.949 . S
C245 C246 1.349 . S
C245 C247 1.327 . S
C245 H268 0.950 . S
C246 C245 1.349 . S
C246 C258 1.349 . S
C247 C245 1.327 . S
C247 C263 1.429 . S
C247 H269 0.950 . S
C248 H244 0.949 . S
C248 C256 1.574 . S
C248 C264 1.368 . S
H249 C257 0.950 . S
H250 C255 0.950 . S
H251 C256 0.949 . S
H252 C258 0.950 . S
H253 C259 0.950 . S
H254 C260 0.949 . S
C255 H250 0.950 . S
C255 C257 1.327 . S
C255 C261 1.429 . S
C256 C248 1.574 . S
C256 H251 0.949 . S
C256 C262 1.368 . S
C257 C241 1.349 . S
C257 H249 0.950 . S
C257 C255 1.327 . S
C258 C246 1.349 . S
C258 H252 0.950 . S
C258 C259 1.327 . S
C259 H253 0.950 . S
C259 C258 1.327 . S
C259 C263 1.429 . S
C260 C243 1.574 . S
C260 H254 0.949 . S
C260 C264 1.368 . S
C261 C242 1.429 . S
C261 C255 1.429 . S
C261 C262 1.523 . S
C262 C243 1.368 . S
C262 C256 1.368 . S
C262 C261 1.523 . S
C263 C247 1.429 . S
C263 C259 1.429 . S
C263 C264 1.523 . S
C264 C248 1.368 . S
C264 C260 1.368 . S
C264 C263 1.523 . S
H265 C240 0.950 . S
H266 C242 0.950 . S
H267 C243 0.949 . S
H268 C245 0.950 . S
H269 C247 0.950 . S
C270 C271 1.349 . S
C270 C272 1.327 . S
C270 H295 0.950 . S
C271 C270 1.349 . S
C271 C287 1.349 . S
C272 C270 1.327 . S
C272 C291 1.429 . S
C272 H296 0.950 . S
C273 C290 1.574 . S
C273 C292 1.368 . S
C273 H297 0.949 . S
H274 C278 0.949 . S
C275 C276 1.349 . S
C275 C277 1.327 . S
C275 H298 0.950 . S
C276 C275 1.349 . S
C276 C288 1.349 1_554 S
C277 C275 1.327 . S
C277 C293 1.429 . S
C277 H299 0.950 . S
C278 H274 0.949 . S
C278 C286 1.574 . S
C278 C294 1.368 . S
H279 C287 0.950 . S
H280 C285 0.950 . S
H281 C286 0.949 . S
H282 C288 0.950 . S
H283 C289 0.950 1_556 S
H284 C290 0.949 . S
C285 H280 0.950 . S
C285 C287 1.327 . S
C285 C291 1.429 . S
C286 C278 1.574 . S
C286 H281 0.949 . S
C286 C292 1.368 . S
C287 C271 1.349 . S
C287 H279 0.950 . S
C287 C285 1.327 . S
C288 C276 1.349 1_556 S
C288 H282 0.950 . S
C288 C289 1.327 1_556 S
C289 H283 0.950 1_554 S
C289 C288 1.327 1_554 S
C289 C293 1.429 . S
C290 C273 1.574 . S
C290 H284 0.949 . S
C290 C294 1.368 . S
C291 C272 1.429 . S
C291 C285 1.429 . S
C291 C292 1.523 . S
C292 C273 1.368 . S
C292 C286 1.368 . S
C292 C291 1.523 . S
C293 C277 1.429 . S
C293 C289 1.429 . S
C293 C294 1.523 . S
C294 C278 1.368 . S
C294 C290 1.368 . S
C294 C293 1.523 . S
H295 C270 0.950 . S
H296 C272 0.950 . S
H297 C273 0.949 . S
H298 C275 0.950 . S
H299 C277 0.950 . S
C300 C301 1.349 . S
C300 C302 1.327 . S
C300 H325 0.950 . S
C301 C300 1.349 . S
C301 C317 1.349 . S
C302 C300 1.327 . S
C302 C321 1.429 . S
C302 H326 0.950 . S
C303 C320 1.574 . S
C303 C322 1.368 . S
C303 H327 0.949 . S
H304 C308 0.949 . S
C305 C306 1.349 . S
C305 C307 1.327 . S
C305 H328 0.950 1_554 S
C306 C305 1.349 . S
C306 C318 1.349 . S
C307 C305 1.327 . S
C307 C323 1.429 . S
C307 H329 0.950 . S
C308 H304 0.949 . S
C308 C316 1.574 . S
C308 C324 1.368 . S
H309 C317 0.950 . S
H310 C315 0.950 . S
H311 C316 0.949 . S
H312 C318 0.950 1_455 S
H313 C319 0.950 . S
H314 C320 0.949 . S
C315 H310 0.950 . S
C315 C317 1.327 . S
C315 C321 1.429 . S
C316 C308 1.574 . S
C316 H311 0.949 . S
C316 C322 1.368 . S
C317 C301 1.349 . S
C317 H309 0.950 . S
C317 C315 1.327 . S
C318 C306 1.349 . S
C318 H312 0.950 1_655 S
C318 C319 1.327 . S
C319 H313 0.950 . S
C319 C318 1.327 . S
C319 C323 1.429 . S
C320 C303 1.574 . S
C320 H314 0.949 . S
C320 C324 1.368 . S
C321 C302 1.429 . S
C321 C315 1.429 . S
C321 C322 1.523 . S
C322 C303 1.368 . S
C322 C316 1.368 . S
C322 C321 1.523 . S
C323 C307 1.429 . S
C323 C319 1.429 . S
C323 C324 1.523 . S
C324 C308 1.368 . S
C324 C320 1.368 . S
C324 C323 1.523 . S
H325 C300 0.950 . S
H326 C302 0.950 . S
H327 C303 0.949 . S
H328 C305 0.950 1_556 S
H329 C307 0.950 . S
C330 C331 1.349 1_556 S
C330 C332 1.327 1_556 S
C330 H355 0.950 . S
C331 C330 1.349 1_554 S
C331 C347 1.349 . S
C332 C330 1.327 1_554 S
C332 C351 1.429 . S
C332 H356 0.950 1_554 S
C333 C350 1.574 . S
C333 C352 1.368 . S
C333 H357 0.949 . S
H334 C338 0.949 . S
C335 C336 1.349 . S
C335 C337 1.327 . S
C335 H358 0.950 . S
C336 C335 1.349 . S
C336 C348 1.349 . S
C337 C335 1.327 . S
C337 C353 1.429 . S
C337 H359 0.950 . S
C338 H334 0.949 . S
C338 C346 1.574 . S
C338 C354 1.368 . S
H339 C347 0.950 . S
H340 C345 0.950 . S
H341 C346 0.949 . S
H342 C348 0.950 . S
H343 C349 0.950 . S
H344 C350 0.949 . S
C345 H340 0.950 . S
C345 C347 1.327 . S
C345 C351 1.429 . S
C346 C338 1.574 . S
C346 H341 0.949 . S
C346 C352 1.368 . S
C347 C331 1.349 . S
C347 H339 0.950 . S
C347 C345 1.327 . S
C348 C336 1.349 . S
C348 H342 0.950 . S
C348 C349 1.327 . S
C349 H343 0.950 . S
C349 C348 1.327 . S
C349 C353 1.429 . S
C350 C333 1.574 . S
C350 H344 0.949 . S
C350 C354 1.368 . S
C351 C332 1.429 . S
C351 C345 1.429 . S
C351 C352 1.523 . S
C352 C333 1.368 . S
C352 C346 1.368 . S
C352 C351 1.523 . S
C353 C337 1.429 . S
C353 C349 1.429 . S
C353 C354 1.523 . S
C354 C338 1.368 . S
C354 C350 1.368 . S
C354 C353 1.523 . S
H355 C330 0.950 . S
H356 C332 0.950 1_556 S
H357 C333 0.949 . S
H358 C335 0.950 . S
H359 C337 0.950 . S
C360 C361 1.349 . S
C360 C362 1.327 . S
C360 H385 0.950 . S
C361 C360 1.349 . S
C361 C377 1.349 . S
C362 C360 1.327 . S
C362 C381 1.429 . S
C362 H386 0.950 . S
C363 C380 1.574 1_455 S
C363 C382 1.368 . S
C363 H387 0.949 . S
H364 C368 0.949 . S
C365 C366 1.349 . S
C365 C367 1.327 . S
C365 H388 0.950 . S
C366 C365 1.349 . S
C366 C378 1.349 . S
C367 C365 1.327 . S
C367 C383 1.429 . S
C367 H389 0.950 . S
C368 H364 0.949 . S
C368 C376 1.574 1_655 S
C368 C384 1.368 . S
H369 C377 0.950 . S
H370 C375 0.950 . S
H371 C376 0.949 . S
H372 C378 0.950 . S
H373 C379 0.950 . S
H374 C380 0.949 . S
C375 H370 0.950 . S
C375 C377 1.327 . S
C375 C381 1.429 . S
C376 C368 1.574 1_455 S
C376 H371 0.949 . S
C376 C382 1.368 . S
C377 C361 1.349 . S
C377 H369 0.950 . S
C377 C375 1.327 . S
C378 C366 1.349 . S
C378 H372 0.950 . S
C378 C379 1.327 . S
C379 H373 0.950 . S
C379 C378 1.327 . S
C379 C383 1.429 . S
C380 C363 1.574 1_655 S
C380 H374 0.949 . S
C380 C384 1.368 . S
C381 C362 1.429 . S
C381 C375 1.429 . S
C381 C382 1.523 . S
C382 C363 1.368 . S
C382 C376 1.368 . S
C382 C381 1.523 . S
C383 C367 1.429 . S
C383 C379 1.429 . S
C383 C384 1.523 . S
C384 C368 1.368 . S
C384 C380 1.368 . S
C384 C383 1.523 . S
H385 C360 0.950 . S
H386 C362 0.950 . S
H387 C363 0.949 . S
H388 C365 0.950 . S
H389 C367 0.950 . S
C390 C391 1.349 . S
C390 C392 1.327 . S
C390 H415 0.950 . S
C391 C390 1.349 . S
C391 C407 1.349 . S
C392 C390 1.327 . S
C392 C411 1.429 . S
C392 H416 0.950 . S
C393 C410 1.574 . S
C393 C412 1.368 . S
C393 H417 0.949 . S
H394 C398 0.949 . S
C395 C396 1.349 . S
C395 C397 1.327 . S
C395 H418 0.950 . S
C396 C395 1.349 . S
C396 C408 1.349 . S
C397 C395 1.327 . S
C397 C413 1.429 . S
C397 H419 0.950 . S
C398 H394 0.949 . S
C398 C406 1.574 . S
C398 C414 1.368 . S
H399 C407 0.950 . S
H400 C405 0.950 . S
H401 C406 0.949 . S
H402 C408 0.950 . S
H403 C409 0.950 . S
H404 C410 0.949 . S
C405 H400 0.950 . S
C405 C407 1.327 . S
C405 C411 1.429 . S
C406 C398 1.574 . S
C406 H401 0.949 . S
C406 C412 1.368 . S
C407 C391 1.349 . S
C407 H399 0.950 . S
C407 C405 1.327 . S
C408 C396 1.349 . S
C408 H402 0.950 . S
C408 C409 1.327 . S
C409 H403 0.950 . S
C409 C408 1.327 . S
C409 C413 1.429 . S
C410 C393 1.574 . S
C410 H404 0.949 . S
C410 C414 1.368 . S
C411 C392 1.429 . S
C411 C405 1.429 . S
C411 C412 1.523 . S
C412 C393 1.368 . S
C412 C406 1.368 . S
C412 C411 1.523 . S
C413 C397 1.429 . S
C413 C409 1.429 . S
C413 C414 1.523 . S
C414 C398 1.368 . S
C414 C410 1.368 . S
C414 C413 1.523 . S
H415 C390 0.950 . S
H416 C392 0.950 . S
H417 C393 0.949 . S
H418 C395 0.950 . S
H419 C397 0.950 . S
C420 C421 1.349 . S
C420 C422 1.327 . S
C420 H445 0.950 . S
C421 C420 1.349 . S
C421 C437 1.349 . S
C422 C420 1.327 . S
C422 C441 1.429 . S
C422 H446 0.950 . S
C423 C440 1.574 . S
C423 C442 1.368 . S
C423 H447 0.949 . S
H424 C428 0.949 . S
C425 C426 1.349 . S
C425 C427 1.327 . S
C425 H448 0.950 . S
C426 C425 1.349 . S
C426 C438 1.349 . S
C427 C425 1.327 . S
C427 C443 1.429 . S
C427 H449 0.950 . S
C428 H424 0.949 . S
C428 C436 1.574 . S
C428 C444 1.368 . S
H429 C437 0.950 . S
H430 C435 0.950 . S
H431 C436 0.949 . S
H432 C438 0.950 . S
H433 C439 0.950 . S
H434 C440 0.949 . S
C435 H430 0.950 . S
C435 C437 1.327 . S
C435 C441 1.429 . S
C436 C428 1.574 . S
C436 H431 0.949 . S
C436 C442 1.368 . S
C437 C421 1.349 . S
C437 H429 0.950 . S
C437 C435 1.327 . S
C438 C426 1.349 . S
C438 H432 0.950 . S
C438 C439 1.327 . S
C439 H433 0.950 . S
C439 C438 1.327 . S
C439 C443 1.429 . S
C440 C423 1.574 . S
C440 H434 0.949 . S
C440 C444 1.368 . S
C441 C422 1.429 . S
C441 C435 1.429 . S
C441 C442 1.523 . S
C442 C423 1.368 . S
C442 C436 1.368 . S
C442 C441 1.523 . S
C443 C427 1.429 . S
C443 C439 1.429 . S
C443 C444 1.523 1_565 S
C444 C428 1.368 . S
C444 C440 1.368 . S
C444 C443 1.523 1_545 S
H445 C420 0.950 . S
H446 C422 0.950 . S
H447 C423 0.949 . S
H448 C425 0.950 . S
H449 C427 0.950 . S
C450 C451 1.349 1_556 S
C450 C452 1.327 . S
C450 H475 0.950 . S
C451 C450 1.349 1_554 S
C451 C467 1.349 . S
C452 C450 1.327 . S
C452 C471 1.429 1_556 S
C452 H476 0.950 . S
C453 C470 1.574 . S
C453 C472 1.368 . S
C453 H477 0.949 . S
H454 C458 0.949 . S
C455 C456 1.349 . S
C455 C457 1.327 . S
C455 H478 0.950 . S
C456 C455 1.349 . S
C456 C468 1.349 1_554 S
C457 C455 1.327 . S
C457 C473 1.429 . S
C457 H479 0.950 . S
C458 H454 0.949 . S
C458 C466 1.574 . S
C458 C474 1.368 1_556 S
H459 C467 0.950 . S
H460 C465 0.950 . S
H461 C466 0.949 . S
H462 C468 0.950 . S
H463 C469 0.950 . S
H464 C470 0.949 . S
C465 H460 0.950 . S
C465 C467 1.327 . S
C465 C471 1.429 . S
C466 C458 1.574 . S
C466 H461 0.949 . S
C466 C472 1.368 1_556 S
C467 C451 1.349 . S
C467 H459 0.950 . S
C467 C465 1.327 . S
C468 C456 1.349 1_556 S
C468 H462 0.950 . S
C468 C469 1.327 . S
C469 H463 0.950 . S
C469 C468 1.327 . S
C469 C473 1.429 1_556 S
C470 C453 1.574 . S
C470 H464 0.949 . S
C470 C474 1.368 . S
C471 C452 1.429 1_554 S
C471 C465 1.429 . S
C471 C472 1.523 . S
C472 C453 1.368 . S
C472 C466 1.368 1_554 S
C472 C471 1.523 . S
C473 C457 1.429 . S
C473 C469 1.429 1_554 S
C473 C474 1.523 . S
C474 C458 1.368 1_554 S
C474 C470 1.368 . S
C474 C473 1.523 . S
H475 C450 0.950 . S
H476 C452 0.950 . S
H477 C453 0.949 . S
H478 C455 0.950 . S
H479 C457 0.950 . S
C480 C481 1.349 . S
C480 C482 1.327 . S
C480 H505 0.950 . S
C481 C480 1.349 . S
C481 C497 1.349 1_554 S
C482 C480 1.327 . S
C482 C501 1.429 . S
C482 H506 0.950 . S
C483 C500 1.574 1_565 S
C483 C502 1.368 1_556 S
C483 H507 0.949 . S
H484 C488 0.949 . S
C485 C486 1.349 1_556 S
C485 C487 1.327 . S
C485 H508 0.950 . S
C486 C485 1.349 1_554 S
C486 C498 1.349 . S
C487 C485 1.327 . S
C487 C503 1.429 1_556 S
C487 H509 0.950 . S
C488 H484 0.949 . S
C488 C496 1.574 1_545 S
C488 C504 1.368 . S
H489 C497 0.950 . S
H490 C495 0.950 . S
H491 C496 0.949 . S
H492 C498 0.950 . S
H493 C499 0.950 . S
H494 C500 0.949 . S
C495 H490 0.950 . S
C495 C497 1.327 . S
C495 C501 1.429 1_556 S
C496 C488 1.574 1_565 S
C496 H491 0.949 . S
C496 C502 1.368 . S
C497 C481 1.349 1_556 S
C497 H489 0.950 . S
C497 C495 1.327 . S
C498 C486 1.349 . S
C498 H492 0.950 . S
C498 C499 1.327 . S
C499 H493 0.950 . S
C499 C498 1.327 . S
C499 C503 1.429 . S
C500 C483 1.574 1_545 S
C500 H494 0.949 . S
C500 C504 1.368 1_556 S
C501 C482 1.429 . S
C501 C495 1.429 1_554 S
C501 C502 1.523 . S
C502 C483 1.368 1_554 S
C502 C496 1.368 . S
C502 C501 1.523 . S
C503 C487 1.429 1_554 S
C503 C499 1.429 . S
C503 C504 1.523 . S
C504 C488 1.368 . S
C504 C500 1.368 1_554 S
C504 C503 1.523 . S
H505 C480 0.950 . S
H506 C482 0.950 . S
H507 C483 0.949 . S
H508 C485 0.950 . S
H509 C487 0.950 . S
C510 C511 1.349 1_556 S
C510 C512 1.327 . S
C510 H535 0.950 . S
C511 C510 1.349 1_554 S
C511 C527 1.349 . S
C512 C510 1.327 . S
C512 C531 1.429 1_556 S
C512 H536 0.950 . S
C513 C530 1.574 . S
C513 C532 1.368 . S
C513 H537 0.949 . S
H514 C518 0.949 . S
C515 C516 1.349 . S
C515 C517 1.327 . S
C515 H538 0.950 . S
C516 C515 1.349 . S
C516 C528 1.349 1_554 S
C517 C515 1.327 . S
C517 C533 1.429 . S
C517 H539 0.950 . S
C518 H514 0.949 . S
C518 C526 1.574 . S
C518 C534 1.368 1_556 S
H519 C527 0.950 . S
H520 C525 0.950 . S
H521 C526 0.949 . S
H522 C528 0.950 . S
H523 C529 0.950 . S
H524 C530 0.949 . S
C525 H520 0.950 . S
C525 C527 1.327 . S
C525 C531 1.429 . S
C526 C518 1.574 . S
C526 H521 0.949 . S
C526 C532 1.368 1_556 S
C527 C511 1.349 . S
C527 H519 0.950 . S
C527 C525 1.327 . S
C528 C516 1.349 1_556 S
C528 H522 0.950 . S
C528 C529 1.327 . S
C529 H523 0.950 . S
C529 C528 1.327 . S
C529 C533 1.429 1_556 S
C530 C513 1.574 . S
C530 H524 0.949 . S
C530 C534 1.368 . S
C531 C512 1.429 1_554 S
C531 C525 1.429 . S
C531 C532 1.523 1_655 S
C532 C513 1.368 . S
C532 C526 1.368 1_554 S
C532 C531 1.523 1_455 S
C533 C517 1.429 . S
C533 C529 1.429 1_554 S
C533 C534 1.523 . S
C534 C518 1.368 1_554 S
C534 C530 1.368 . S
C534 C533 1.523 . S
H535 C510 0.950 . S
H536 C512 0.950 . S
H537 C513 0.949 . S
H538 C515 0.950 . S
H539 C517 0.950 . S
C540 C541 1.349 . S
C540 C542 1.327 . S
C540 H565 0.950 . S
C541 C540 1.349 . S
C541 C557 1.349 . S
C542 C540 1.327 . S
C542 C561 1.429 . S
C542 H566 0.950 . S
C543 C560 1.574 . S
C543 C562 1.368 . S
C543 H567 0.949 . S
H544 C548 0.949 . S
C545 C546 1.349 . S
C545 C547 1.327 . S
C545 H568 0.950 . S
C546 C545 1.349 . S
C546 C558 1.349 . S
C547 C545 1.327 . S
C547 C563 1.429 . S
C547 H569 0.950 . S
C548 H544 0.949 . S
C548 C556 1.574 . S
C548 C564 1.368 . S
H549 C557 0.950 . S
H550 C555 0.950 . S
H551 C556 0.949 . S
H552 C558 0.950 . S
H553 C559 0.950 . S
H554 C560 0.949 . S
C555 H550 0.950 . S
C555 C557 1.327 . S
C555 C561 1.429 . S
C556 C548 1.574 . S
C556 H551 0.949 . S
C556 C562 1.368 . S
C557 C541 1.349 . S
C557 H549 0.950 . S
C557 C555 1.327 . S
C558 C546 1.349 . S
C558 H552 0.950 . S
C558 C559 1.327 . S
C559 H553 0.950 . S
C559 C558 1.327 . S
C559 C563 1.429 . S
C560 C543 1.574 . S
C560 H554 0.949 . S
C560 C564 1.368 . S
C561 C542 1.429 . S
C561 C555 1.429 . S
C561 C562 1.523 . S
C562 C543 1.368 . S
C562 C556 1.368 . S
C562 C561 1.523 . S
C563 C547 1.429 . S
C563 C559 1.429 . S
C563 C564 1.523 . S
C564 C548 1.368 . S
C564 C560 1.368 . S
C564 C563 1.523 . S
H565 C540 0.950 . S
H566 C542 0.950 . S
H567 C543 0.949 . S
H568 C545 0.950 . S
H569 C547 0.950 . S
C570 C571 1.349 . S
C570 C572 1.327 . S
C570 H595 0.950 . S
C571 C570 1.349 . S
C571 C587 1.349 . S
C572 C570 1.327 . S
C572 C591 1.429 . S
C572 H596 0.950 . S
C573 C590 1.574 . S
C573 C592 1.368 . S
C573 H597 0.949 . S
H574 C578 0.949 . S
C575 C576 1.349 . S
C575 C577 1.327 . S
C575 H598 0.950 . S
C576 C575 1.349 . S
C576 C588 1.349 . S
C577 C575 1.327 . S
C577 C593 1.429 . S
C577 H599 0.950 . S
C578 H574 0.949 . S
C578 C586 1.574 . S
C578 C594 1.368 . S
H579 C587 0.950 . S
H580 C585 0.950 . S
H581 C586 0.949 . S
H582 C588 0.950 . S
H583 C589 0.950 . S
H584 C590 0.949 . S
C585 H580 0.950 . S
C585 C587 1.327 . S
C585 C591 1.429 . S
C586 C578 1.574 . S
C586 H581 0.949 . S
C586 C592 1.368 . S
C587 C571 1.349 . S
C587 H579 0.950 . S
C587 C585 1.327 . S
C588 C576 1.349 . S
C588 H582 0.950 . S
C588 C589 1.327 . S
C589 H583 0.950 . S
C589 C588 1.327 . S
C589 C593 1.429 . S
C590 C573 1.574 . S
C590 H584 0.949 . S
C590 C594 1.368 . S
C591 C572 1.429 . S
C591 C585 1.429 . S
C591 C592 1.523 . S
C592 C573 1.368 . S
C592 C586 1.368 . S
C592 C591 1.523 . S
C593 C577 1.429 . S
C593 C589 1.429 . S
C593 C594 1.523 . S
C594 C578 1.368 . S
C594 C590 1.368 . S
C594 C593 1.523 . S
H595 C570 0.950 . S
H596 C572 0.950 . S
H597 C573 0.949 . S
H598 C575 0.950 . S
H599 C577 0.950 . S
C600 C601 1.349 . S
C600 C602 1.327 . S
C600 H625 0.950 . S
C601 C600 1.349 . S
C601 C617 1.349 . S
C602 C600 1.327 . S
C602 C621 1.429 . S
C602 H626 0.950 . S
C603 C620 1.574 . S
C603 C622 1.368 . S
C603 H627 0.949 . S
H604 C608 0.949 . S
C605 C606 1.349 . S
C605 C607 1.327 . S
C605 H628 0.950 . S
C606 C605 1.349 . S
C606 C618 1.349 . S
C607 C605 1.327 . S
C607 C623 1.429 . S
C607 H629 0.950 . S
C608 H604 0.949 . S
C608 C616 1.574 . S
C608 C624 1.368 . S
H609 C617 0.950 . S
H610 C615 0.950 . S
H611 C616 0.949 . S
H612 C618 0.950 . S
H613 C619 0.950 . S
H614 C620 0.949 . S
C615 H610 0.950 . S
C615 C617 1.327 . S
C615 C621 1.429 . S
C616 C608 1.574 . S
C616 H611 0.949 . S
C616 C622 1.368 . S
C617 C601 1.349 . S
C617 H609 0.950 . S
C617 C615 1.327 . S
C618 C606 1.349 . S
C618 H612 0.950 . S
C618 C619 1.327 . S
C619 H613 0.950 . S
C619 C618 1.327 . S
C619 C623 1.429 . S
C620 C603 1.574 . S
C620 H614 0.949 . S
C620 C624 1.368 . S
C621 C602 1.429 . S
C621 C615 1.429 . S
C621 C622 1.523 . S
C622 C603 1.368 . S
C622 C616 1.368 . S
C622 C621 1.523 . S
C623 C607 1.429 . S
C623 C619 1.429 . S
C623 C624 1.523 . S
C624 C608 1.368 . S
C624 C620 1.368 . S
C624 C623 1.523 . S
H625 C600 0.950 . S
H626 C602 0.950 . S
H627 C603 0.949 . S
H628 C605 0.950 . S
H629 C607 0.950 . S
C630 C631 1.349 . S
C630 C632 1.327 . S
C630 H655 0.950 . S
C631 C630 1.349 . S
C631 C647 1.349 . S
C632 C630 1.327 . S
C632 C651 1.429 . S
C632 H656 0.950 . S
C633 C650 1.574 . S
C633 C652 1.368 . S
C633 H657 0.949 . S
H634 C638 0.949 . S
C635 C636 1.349 . S
C635 C637 1.327 . S
C635 H658 0.950 . S
C636 C635 1.349 . S
C636 C648 1.349 . S
C637 C635 1.327 . S
C637 C653 1.429 . S
C637 H659 0.950 . S
C638 H634 0.949 . S
C638 C646 1.574 . S
C638 C654 1.368 . S
H639 C647 0.950 . S
H640 C645 0.950 . S
H641 C646 0.949 . S
H642 C648 0.950 . S
H643 C649 0.950 . S
H644 C650 0.949 . S
C645 H640 0.950 . S
C645 C647 1.327 . S
C645 C651 1.429 . S
C646 C638 1.574 . S
C646 H641 0.949 . S
C646 C652 1.368 . S
C647 C631 1.349 . S
C647 H639 0.950 . S
C647 C645 1.327 . S
C648 C636 1.349 . S
C648 H642 0.950 . S
C648 C649 1.327 . S
C649 H643 0.950 . S
C649 C648 1.327 . S
C649 C653 1.429 . S
C650 C633 1.574 . S
C650 H644 0.949 . S
C650 C654 1.368 . S
C651 C632 1.429 . S
C651 C645 1.429 . S
C651 C652 1.523 . S
C652 C633 1.368 . S
C652 C646 1.368 . S
C652 C651 1.523 . S
C653 C637 1.429 . S
C653 C649 1.429 . S
C653 C654 1.523 . S
C654 C638 1.368 . S
C654 C650 1.368 . S
C654 C653 1.523 . S
H655 C630 0.950 . S
H656 C632 0.950 . S
H657 C633 0.949 . S
H658 C635 0.950 . S
H659 C637 0.950 . S
C660 C661 1.349 . S
C660 C662 1.327 . S
C660 H685 0.950 . S
C661 C660 1.349 . S
C661 C677 1.349 . S
C662 C660 1.327 . S
C662 C681 1.429 . S
C662 H686 0.950 . S
C663 C680 1.574 . S
C663 C682 1.368 . S
C663 H687 0.949 . S
H664 C668 0.949 . S
C665 C666 1.349 . S
C665 C667 1.327 . S
C665 H688 0.950 . S
C666 C665 1.349 . S
C666 C678 1.349 . S
C667 C665 1.327 . S
C667 C683 1.429 . S
C667 H689 0.950 . S
C668 H664 0.949 . S
C668 C676 1.574 . S
C668 C684 1.368 . S
H669 C677 0.950 . S
H670 C675 0.950 . S
H671 C676 0.949 . S
H672 C678 0.950 . S
H673 C679 0.950 . S
H674 C680 0.949 . S
C675 H670 0.950 . S
C675 C677 1.327 . S
C675 C681 1.429 . S
C676 C668 1.574 . S
C676 H671 0.949 . S
C676 C682 1.368 . S
C677 C661 1.349 . S
C677 H669 0.950 . S
C677 C675 1.327 . S
C678 C666 1.349 . S
C678 H672 0.950 . S
C678 C679 1.327 . S
C679 H673 0.950 . S
C679 C678 1.327 . S
C679 C683 1.429 . S
C680 C663 1.574 . S
C680 H674 0.949 . S
C680 C684 1.368 . S
C681 C662 1.429 . S
C681 C675 1.429 . S
C681 C682 1.523 . S
C682 C663 1.368 . S
C682 C676 1.368 . S
C682 C681 1.523 . S
C683 C667 1.429 . S
C683 C679 1.429 . S
C683 C684 1.523 . S
C684 C668 1.368 . S
C684 C680 1.368 . S
C684 C683 1.523 . S
H685 C660 0.950 . S
H686 C662 0.950 . S
H687 C663 0.949 . S
H688 C665 0.950 . S
H689 C667 0.950 . S
C690 C691 1.349 . S
C690 C692 1.327 . S
C690 H715 0.950 . S
C691 C690 1.349 . S
C691 C707 1.349 . S
C692 C690 1.327 . S
C692 C711 1.429 . S
C692 H716 0.950 . S
C693 C710 1.574 . S
C693 C712 1.368 . S
C693 H717 0.949 . S
H694 C698 0.949 . S
C695 C696 1.349 . S
C695 C697 1.327 . S
C695 H718 0.950 . S
C696 C695 1.349 . S
C696 C708 1.349 . S
C697 C695 1.327 . S
C697 C713 1.429 . S
C697 H719 0.950 . S
C698 H694 0.949 . S
C698 C706 1.574 . S
C698 C714 1.368 . S
H699 C707 0.950 . S
H700 C705 0.950 . S
H701 C706 0.949 . S
H702 C708 0.950 . S
H703 C709 0.950 . S
H704 C710 0.949 . S
C705 H700 0.950 . S
C705 C707 1.327 . S
C705 C711 1.429 . S
C706 C698 1.574 . S
C706 H701 0.949 . S
C706 C712 1.368 . S
C707 C691 1.349 . S
C707 H699 0.950 . S
C707 C705 1.327 . S
C708 C696 1.349 . S
C708 H702 0.950 . S
C708 C709 1.327 . S
C709 H703 0.950 . S
C709 C708 1.327 . S
C709 C713 1.429 . S
C710 C693 1.574 . S
C710 H704 0.949 . S
C710 C714 1.368 . S
C711 C692 1.429 . S
C711 C705 1.429 . S
C711 C712 1.523 . S
C712 C693 1.368 . S
C712 C706 1.368 . S
C712 C711 1.523 . S
C713 C697 1.429 . S
C713 C709 1.429 . S
C713 C714 1.523 . S
C714 C698 1.368 . S
C714 C710 1.368 . S
C714 C713 1.523 . S
H715 C690 0.950 . S
H716 C692 0.950 . S
H717 C693 0.949 . S
H718 C695 0.950 . S
H719 C697 0.950 . S
C720 C721 1.349 1_655 S
C720 C722 1.329 . S
C720 H745 0.950 . S
C721 C720 1.349 1_455 S
C721 C737 1.349 . S
C722 C720 1.329 . S
C722 C741 1.414 1_655 S
C722 H746 0.964 . S
C723 C740 1.574 . S
C723 C742 1.368 . S
C723 H747 0.949 . S
H724 C728 0.949 1_655 S
C725 C726 1.349 . S
C725 C727 1.327 . S
C725 H748 0.950 . S
C726 C725 1.349 . S
C726 C738 1.349 . S
C727 C725 1.327 . S
C727 C743 1.429 . S
C727 H749 0.950 . S
C728 H724 0.949 1_455 S
C728 C736 1.577 . S
C728 C744 1.368 . S
H729 C737 0.950 . S
H730 C735 0.950 . S
H731 C736 0.928 1_655 S
H732 C738 0.950 1_655 S
H733 C739 0.950 1_655 S
H734 C740 0.949 . S
C735 H730 0.950 . S
C735 C737 1.327 . S
C735 C741 1.429 . S
C736 C728 1.577 . S
C736 H731 0.928 1_455 S
C736 C742 1.391 . S
C737 C721 1.349 . S
C737 H729 0.950 . S
C737 C735 1.327 . S
C738 C726 1.349 . S
C738 H732 0.950 1_455 S
C738 C739 1.327 . S
C739 H733 0.950 1_455 S
C739 C738 1.327 . S
C739 C743 1.429 . S
C740 C723 1.574 . S
C740 H734 0.949 . S
C740 C744 1.368 . S
C741 C722 1.414 1_455 S
C741 C735 1.429 . S
C741 C742 1.523 . S
C742 C723 1.368 . S
C742 C736 1.391 . S
C742 C741 1.523 . S
C743 C727 1.429 . S
C743 C739 1.429 . S
C743 C744 1.523 . S
C744 C728 1.368 . S
C744 C740 1.368 . S
C744 C743 1.523 . S
H745 C720 0.950 . S
H746 C722 0.964 . S
H747 C723 0.949 . S
H748 C725 0.950 . S
H749 C727 0.950 . S
C750 C751 1.349 . S
C750 C752 1.327 . S
C750 H775 0.950 . S
C751 C750 1.349 . S
C751 C767 1.349 . S
C752 C750 1.327 . S
C752 C771 1.429 . S
C752 H776 0.950 . S
C753 C770 1.574 . S
C753 C772 1.368 . S
C753 H777 0.949 . S
H754 C758 0.949 . S
C755 C756 1.349 . S
C755 C757 1.327 . S
C755 H778 0.950 . S
C756 C755 1.349 . S
C756 C768 1.349 . S
C757 C755 1.327 . S
C757 C773 1.429 . S
C757 H779 0.950 . S
C758 H754 0.949 . S
C758 C766 1.574 . S
C758 C774 1.368 . S
H759 C767 0.950 . S
H760 C765 0.950 . S
H761 C766 0.949 . S
H762 C768 0.950 . S
H763 C769 0.950 . S
H764 C770 0.949 . S
C765 H760 0.950 . S
C765 C767 1.327 . S
C765 C771 1.429 . S
C766 C758 1.574 . S
C766 H761 0.949 . S
C766 C772 1.368 . S
C767 C751 1.349 . S
C767 H759 0.950 . S
C767 C765 1.327 . S
C768 C756 1.349 . S
C768 H762 0.950 . S
C768 C769 1.327 . S
C769 H763 0.950 . S
C769 C768 1.327 . S
C769 C773 1.429 . S
C770 C753 1.574 . S
C770 H764 0.949 . S
C770 C774 1.368 . S
C771 C752 1.429 . S
C771 C765 1.429 . S
C771 C772 1.523 . S
C772 C753 1.368 . S
C772 C766 1.368 . S
C772 C771 1.523 . S
C773 C757 1.429 . S
C773 C769 1.429 . S
C773 C774 1.523 . S
C774 C758 1.368 . S
C774 C770 1.368 . S
C774 C773 1.523 . S
H775 C750 0.950 . S
H776 C752 0.950 . S
H777 C753 0.949 . S
H778 C755 0.950 . S
H779 C757 0.950 . S
C780 C781 1.349 . S
C780 C782 1.327 . S
C780 H805 0.950 1_545 S
C781 C780 1.349 . S
C781 C797 1.349 . S
C782 C780 1.327 . S
C782 C801 1.429 . S
C782 H806 0.950 1_545 S
C783 C800 1.574 . S
C783 C802 1.368 . S
C783 H807 0.949 . S
H784 C788 0.949 1_565 S
C785 C786 1.349 . S
C785 C787 1.327 . S
C785 H808 0.950 . S
C786 C785 1.349 . S
C786 C798 1.349 . S
C787 C785 1.327 . S
C787 C803 1.429 . S
C787 H809 0.950 . S
C788 H784 0.949 1_545 S
C788 C796 1.574 . S
C788 C804 1.368 . S
H789 C797 0.950 . S
H790 C795 0.950 . S
H791 C796 0.949 1_565 S
H792 C798 0.950 1_565 S
H793 C799 0.950 1_565 S
H794 C800 0.949 . S
C795 H790 0.950 . S
C795 C797 1.327 . S
C795 C801 1.429 . S
C796 C788 1.574 . S
C796 H791 0.949 1_545 S
C796 C802 1.368 . S
C797 C781 1.349 . S
C797 H789 0.950 . S
C797 C795 1.327 . S
C798 C786 1.349 . S
C798 H792 0.950 1_545 S
C798 C799 1.327 . S
C799 H793 0.950 1_545 S
C799 C798 1.327 . S
C799 C803 1.429 . S
C800 C783 1.574 . S
C800 H794 0.949 . S
C800 C804 1.368 . S
C801 C782 1.429 . S
C801 C795 1.429 . S
C801 C802 1.523 . S
C802 C783 1.368 . S
C802 C796 1.368 . S
C802 C801 1.523 . S
C803 C787 1.429 . S
C803 C799 1.429 . S
C803 C804 1.523 . S
C804 C788 1.368 . S
C804 C800 1.368 . S
C804 C803 1.523 . S
H805 C780 0.950 1_565 S
H806 C782 0.950 1_565 S
H807 C783 0.949 . S
H808 C785 0.950 . S
H809 C787 0.950 . S
C810 C811 1.349 . S
C810 C812 1.327 . S
C810 H835 0.950 . S
C811 C810 1.349 . S
C811 C827 1.349 . S
C812 C810 1.327 . S
C812 C831 1.429 . S
C812 H836 0.950 . S
C813 C830 1.574 . S
C813 C832 1.368 . S
C813 H837 0.949 . S
H814 C818 0.949 . S
C815 C816 1.349 . S
C815 C817 1.327 . S
C815 H838 0.950 . S
C816 C815 1.349 . S
C816 C828 1.349 . S
C817 C815 1.327 . S
C817 C833 1.429 1_554 S
C817 H839 0.950 . S
C818 H814 0.949 . S
C818 C826 1.574 . S
C818 C834 1.368 . S
H819 C827 0.950 . S
H820 C825 0.950 . S
H821 C826 0.949 . S
H822 C828 0.950 . S
H823 C829 0.950 . S
H824 C830 0.949 . S
C825 H820 0.950 . S
C825 C827 1.327 . S
C825 C831 1.429 . S
C826 C818 1.574 . S
C826 H821 0.949 . S
C826 C832 1.368 . S
C827 C811 1.349 . S
C827 H819 0.950 . S
C827 C825 1.327 . S
C828 C816 1.349 . S
C828 H822 0.950 . S
C828 C829 1.327 . S
C829 H823 0.950 . S
C829 C828 1.327 . S
C829 C833 1.429 1_554 S
C830 C813 1.574 . S
C830 H824 0.949 . S
C830 C834 1.368 . S
C831 C812 1.429 . S
C831 C825 1.429 . S
C831 C832 1.523 . S
C832 C813 1.368 . S
C832 C826 1.368 . S
C832 C831 1.523 . S
C833 C817 1.429 1_556 S
C833 C829 1.429 1_556 S
C833 C834 1.523 . S
C834 C818 1.368 . S
C834 C830 1.368 . S
C834 C833 1.523 . S
H835 C810 0.950 . S
H836 C812 0.950 . S
H837 C813 0.949 . S
H838 C815 0.950 . S
H839 C817 0.950 . S
C840 C841 1.349 . S
C840 C842 1.327 . S
C840 H865 0.950 . S
C841 C840 1.349 . S
C841 C857 1.349 . S
C842 C840 1.327 . S
C842 C861 1.429 . S
C842 H866 0.950 . S
C843 C860 1.574 . S
C843 C862 1.368 . S
C843 H867 0.949 . S
H844 C848 0.949 . S
C845 C846 1.349 . S
C845 C847 1.327 . S
C845 H868 0.950 . S
C846 C845 1.349 . S
C846 C858 1.349 . S
C847 C845 1.327 . S
C847 C863 1.429 1_554 S
C847 H869 0.950 . S
C848 H844 0.949 . S
C848 C856 1.574 . S
C848 C864 1.368 . S
H849 C857 0.950 . S
H850 C855 0.950 . S
H851 C856 0.949 . S
H852 C858 0.950 . S
H853 C859 0.950 . S
H854 C860 0.949 . S
C855 H850 0.950 . S
C855 C857 1.327 . S
C855 C861 1.429 . S
C856 C848 1.574 . S
C856 H851 0.949 . S
C856 C862 1.368 . S
C857 C841 1.349 . S
C857 H849 0.950 . S
C857 C855 1.327 . S
C858 C846 1.349 . S
C858 H852 0.950 . S
C858 C859 1.327 . S
C859 H853 0.950 . S
C859 C858 1.327 . S
C859 C863 1.429 1_554 S
C860 C843 1.574 . S
C860 H854 0.949 . S
C860 C864 1.368 . S
C861 C842 1.429 . S
C861 C855 1.429 . S
C861 C862 1.523 . S
C862 C843 1.368 . S
C862 C856 1.368 . S
C862 C861 1.523 . S
C863 C847 1.429 1_556 S
C863 C859 1.429 1_556 S
C863 C864 1.523 . S
C864 C848 1.368 . S
C864 C860 1.368 . S
C864 C863 1.523 . S
H865 C840 0.950 . S
H866 C842 0.950 . S
H867 C843 0.949 . S
H868 C845 0.950 . S
H869 C847 0.950 . S
C870 C871 1.349 . S
C870 C872 1.327 . S
C870 H895 0.950 . S
C871 C870 1.349 . S
C871 C887 1.349 . S
C872 C870 1.327 . S
C872 C891 1.429 . S
C872 H896 0.950 . S
C873 C890 1.574 . S
C873 C892 1.368 . S
C873 H897 0.949 . S
H874 C878 0.949 . S
C875 C876 1.349 . S
C875 C877 1.327 . S
C875 H898 0.950 . S
C876 C875 1.349 . S
C876 C888 1.349 . S
C877 C875 1.327 . S
C877 C893 1.421 1_554 S
C877 H899 0.950 . S
C878 H874 0.949 . S
C878 C886 1.574 . S
C878 C894 1.368 . S
H879 C887 0.950 . S
H880 C885 0.950 . S
H881 C886 0.949 . S
H882 C888 0.950 . S
H883 C889 0.950 . S
H884 C890 0.949 . S
C885 H880 0.950 . S
C885 C887 1.327 . S
C885 C891 1.429 . S
C886 C878 1.574 . S
C886 H881 0.949 . S
C886 C892 1.368 . S
C887 C871 1.349 . S
C887 H879 0.950 . S
C887 C885 1.327 . S
C888 C876 1.349 . S
C888 H882 0.950 . S
C888 C889 1.327 . S
C889 H883 0.950 . S
C889 C888 1.327 . S
C889 C893 1.420 1_554 S
C890 C873 1.574 . S
C890 H884 0.949 . S
C890 C894 1.368 . S
C891 C872 1.429 . S
C891 C885 1.429 . S
C891 C892 1.523 . S
C892 C873 1.368 . S
C892 C886 1.368 . S
C892 C891 1.523 . S
C893 C877 1.421 1_556 S
C893 C889 1.420 1_556 S
C893 C894 1.538 . S
C894 C878 1.368 . S
C894 C890 1.368 . S
C894 C893 1.538 . S
H895 C870 0.950 . S
H896 C872 0.950 . S
H897 C873 0.949 . S
H898 C875 0.950 . S
H899 C877 0.950 . S
C900 C901 1.349 . S
C900 C902 1.327 . S
C900 H925 0.950 . S
C901 C900 1.349 . S
C901 C917 1.349 . S
C902 C900 1.327 . S
C902 C921 1.429 . S
C902 H926 0.950 . S
C903 C920 1.574 . S
C903 C922 1.368 . S
C903 H927 0.949 . S
H904 C908 0.949 . S
C905 C906 1.349 . S
C905 C907 1.327 . S
C905 H928 0.950 . S
C906 C905 1.349 . S
C906 C918 1.349 . S
C907 C905 1.327 . S
C907 C923 1.429 1_556 S
C907 H929 0.955 . S
C908 H904 0.949 . S
C908 C916 1.574 . S
C908 C924 1.368 . S
H909 C917 0.950 . S
H910 C915 0.950 . S
H911 C916 0.949 . S
H912 C918 0.950 . S
H913 C919 0.950 . S
H914 C920 0.949 . S
C915 H910 0.950 . S
C915 C917 1.327 . S
C915 C921 1.429 . S
C916 C908 1.574 . S
C916 H911 0.949 . S
C916 C922 1.368 . S
C917 C901 1.349 . S
C917 H909 0.950 . S
C917 C915 1.327 . S
C918 C906 1.349 . S
C918 H912 0.950 . S
C918 C919 1.327 . S
C919 H913 0.950 . S
C919 C918 1.327 . S
C919 C923 1.429 1_556 S
C920 C903 1.574 . S
C920 H914 0.949 . S
C920 C924 1.368 . S
C921 C902 1.429 . S
C921 C915 1.429 . S
C921 C922 1.523 . S
C922 C903 1.368 . S
C922 C916 1.368 . S
C922 C921 1.523 . S
C923 C907 1.429 1_554 S
C923 C919 1.429 1_554 S
C923 C924 1.523 . S
C924 C908 1.368 . S
C924 C920 1.368 . S
C924 C923 1.523 . S
H925 C900 0.950 . S
H926 C902 0.950 . S
H927 C903 0.949 . S
H928 C905 0.950 . S
H929 C907 0.955 . S
C930 C931 1.349 . S
C930 C932 1.327 . S
C930 H955 0.950 . S
C931 C930 1.349 . S
C931 C947 1.349 . S
C932 C930 1.327 . S
C932 C951 1.429 1_556 S
C932 H956 0.950 . S
C933 C950 1.574 . S
C933 C952 1.368 . S
C933 H957 0.949 . S
H934 C938 0.949 . S
C935 C936 1.349 . S
C935 C937 1.327 . S
C935 H958 0.950 . S
C936 C935 1.349 . S
C936 C948 1.349 . S
C937 C935 1.327 . S
C937 C953 1.429 . S
C937 H959 0.950 . S
C938 H934 0.949 . S
C938 C946 1.574 . S
C938 C954 1.368 . S
H939 C947 0.950 . S
H940 C945 0.950 1_554 S
H941 C946 0.949 . S
H942 C948 0.950 . S
H943 C949 0.950 . S
H944 C950 0.949 . S
C945 H940 0.950 1_556 S
C945 C947 1.327 . S
C945 C951 1.429 1_556 S
C946 C938 1.574 . S
C946 H941 0.949 . S
C946 C952 1.368 . S
C947 C931 1.349 . S
C947 H939 0.950 . S
C947 C945 1.327 . S
C948 C936 1.349 . S
C948 H942 0.950 . S
C948 C949 1.327 . S
C949 H943 0.950 . S
C949 C948 1.327 . S
C949 C953 1.429 . S
C950 C933 1.574 . S
C950 H944 0.949 . S
C950 C954 1.368 . S
C951 C932 1.429 1_554 S
C951 C945 1.429 1_554 S
C951 C952 1.523 . S
C952 C933 1.368 . S
C952 C946 1.368 . S
C952 C951 1.523 . S
C953 C937 1.429 . S
C953 C949 1.429 . S
C953 C954 1.523 . S
C954 C938 1.368 . S
C954 C950 1.368 . S
C954 C953 1.523 . S
H955 C930 0.950 . S
H956 C932 0.950 . S
H957 C933 0.949 . S
H958 C935 0.950 . S
H959 C937 0.950 . S
C960 C961 1.349 . S
C960 C962 1.327 . S
C960 H985 0.950 . S
C961 C960 1.349 . S
C961 C977 1.349 . S
C962 C960 1.327 . S
C962 C981 1.429 . S
C962 H986 0.950 . S
C963 C980 1.574 . S
C963 C982 1.368 . S
C963 H987 0.949 . S
H964 C968 0.949 . S
C965 C966 1.349 . S
C965 C967 1.327 . S
C965 H988 0.950 . S
C966 C965 1.349 . S
C966 C978 1.349 . S
C967 C965 1.327 . S
C967 C983 1.429 1_556 S
C967 H989 0.950 1_556 S
C968 H964 0.949 . S
C968 C976 1.574 . S
C968 C984 1.368 . S
H969 C977 0.950 . S
H970 C975 0.950 . S
H971 C976 0.949 . S
H972 C978 0.950 . S
H973 C979 0.950 . S
H974 C980 0.949 . S
C975 H970 0.950 . S
C975 C977 1.327 . S
C975 C981 1.429 . S
C976 C968 1.574 . S
C976 H971 0.949 . S
C976 C982 1.368 . S
C977 C961 1.349 . S
C977 H969 0.950 . S
C977 C975 1.327 . S
C978 C966 1.349 . S
C978 H972 0.950 . S
C978 C979 1.327 . S
C979 H973 0.950 . S
C979 C978 1.327 . S
C979 C983 1.429 1_556 S
C980 C963 1.574 . S
C980 H974 0.949 . S
C980 C984 1.368 . S
C981 C962 1.429 . S
C981 C975 1.429 . S
C981 C982 1.523 . S
C982 C963 1.368 . S
C982 C976 1.368 . S
C982 C981 1.523 . S
C983 C967 1.429 1_554 S
C983 C979 1.429 1_554 S
C983 C984 1.523 . S
C984 C968 1.368 . S
C984 C980 1.368 . S
C984 C983 1.523 . S
H985 C960 0.950 . S
H986 C962 0.950 . S
H987 C963 0.949 . S
H988 C965 0.950 . S
H989 C967 0.950 1_554 S
C181 C2 1.820 . S
C186 C158 1.777 . S
C211 C22 1.820 . S
C216 C178 1.777 . S
C241 C42 1.820 . S
C246 C138 1.777 . S
C271 C82 1.820 . S
C276 C58 1.777 . S
C301 C102 1.820 . S
C306 C18 1.777 . S
C331 C38 1.777 . S
C336 C62 1.820 . S
C361 C142 1.820 . S
C366 C118 1.777 . S
C391 C162 1.820 . S
C396 C78 1.777 . S
C421 C98 1.777 . S
C426 C122 1.820 . S
C451 C41 1.539 . S
C456 C19 1.558 1_554 S
C481 C39 1.558 1_554 S
C486 C1 1.539 . S
C511 C21 1.539 . S
C516 C59 1.558 1_554 S
C541 C79 1.558 . S
C546 C101 1.538 . S
C571 C61 1.539 . S
C576 C99 1.558 . S
C601 C81 1.539 . S
C606 C119 1.558 . S
C631 C161 1.538 . S
C636 C139 1.558 . S
C661 C159 1.558 . S
C666 C121 1.539 . S
C691 C179 1.558 . S
C696 C141 1.539 . S
C721 C9 0.865 . S
C726 C8 0.865 . S
C751 C29 0.865 . S
C756 C28 0.865 . S
C781 C49 0.865 . S
C786 C48 0.865 . S
C811 C68 0.865 . S
C816 C69 0.865 . S
C841 C88 0.865 . S
C846 C89 0.865 . S
C871 C108 0.865 . S
C876 C109 0.865 . S
C901 C129 0.865 . S
C906 C128 0.865 . S
C931 C148 0.865 . S
C936 C149 0.865 . S
C961 C169 0.865 . S
C966 C168 0.865 . S
