# Generated by pormake.
# Topology whw, (6)-cn, num edge types: 1
# Building blocks:
#     Node 0, Type 0, BuildingBlock: BETFAJ_clean_sbu_0, # of connection points: 6
#     Node 1, Type 0, BuildingBlock: BETFAJ_clean_sbu_0, # of connection points: 6
#     Node 2, Type 0, BuildingBlock: BETFAJ_clean_sbu_0, # of connection points: 6
#     Node 3, Type 0, BuildingBlock: BETFAJ_clean_sbu_0, # of connection points: 6
#     Node 4, Type 0, BuildingBlock: BETFAJ_clean_sbu_0, # of connection points: 6
#     Node 5, Type 0, BuildingBlock: BETFAJ_clean_sbu_0, # of connection points: 6
#     Node 6, Type 0, BuildingBlock: BETFAJ_clean_sbu_0, # of connection points: 6
#     Node 7, Type 0, BuildingBlock: BETFAJ_clean_sbu_0, # of connection points: 6
#     Node 8, Type 0, BuildingBlock: BETFAJ_clean_sbu_0, # of connection points: 6
#     Node 9, Type 0, BuildingBlock: BETFAJ_clean_sbu_0, # of connection points: 6
#     Node 10, Type 0, BuildingBlock: BETFAJ_clean_sbu_0, # of connection points: 6
#     Node 11, Type 0, BuildingBlock: BETFAJ_clean_sbu_0, # of connection points: 6
#     Node 12, Type 0, BuildingBlock: BETFAJ_clean_sbu_0, # of connection points: 6
#     Node 13, Type 0, BuildingBlock: BETFAJ_clean_sbu_0, # of connection points: 6
#     Node 14, Type 0, BuildingBlock: BETFAJ_clean_sbu_0, # of connection points: 6
#     Node 15, Type 0, BuildingBlock: BETFAJ_clean_sbu_0, # of connection points: 6
#     Edge 16, Type (0, 0), BuildingBlock: CIFDUS_clean_linker_0, # of connection points: 2
#     Edge 17, Type (0, 0), BuildingBlock: CIFDUS_clean_linker_0, # of connection points: 2
#     Edge 18, Type (0, 0), BuildingBlock: CIFDUS_clean_linker_0, # of connection points: 2
#     Edge 19, Type (0, 0), BuildingBlock: CIFDUS_clean_linker_0, # of connection points: 2
#     Edge 20, Type (0, 0), BuildingBlock: CIFDUS_clean_linker_0, # of connection points: 2
#     Edge 21, Type (0, 0), BuildingBlock: CIFDUS_clean_linker_0, # of connection points: 2
#     Edge 22, Type (0, 0), BuildingBlock: CIFDUS_clean_linker_0, # of connection points: 2
#     Edge 23, Type (0, 0), BuildingBlock: CIFDUS_clean_linker_0, # of connection points: 2
#     Edge 24, Type (0, 0), BuildingBlock: CIFDUS_clean_linker_0, # of connection points: 2
#     Edge 25, Type (0, 0), BuildingBlock: CIFDUS_clean_linker_0, # of connection points: 2
#     Edge 26, Type (0, 0), BuildingBlock: CIFDUS_clean_linker_0, # of connection points: 2
#     Edge 27, Type (0, 0), BuildingBlock: CIFDUS_clean_linker_0, # of connection points: 2
#     Edge 28, Type (0, 0), BuildingBlock: CIFDUS_clean_linker_0, # of connection points: 2
#     Edge 29, Type (0, 0), BuildingBlock: CIFDUS_clean_linker_0, # of connection points: 2
#     Edge 30, Type (0, 0), BuildingBlock: CIFDUS_clean_linker_0, # of connection points: 2
#     Edge 31, Type (0, 0), BuildingBlock: CIFDUS_clean_linker_0, # of connection points: 2
#     Edge 32, Type (0, 0), BuildingBlock: CIFDUS_clean_linker_0, # of connection points: 2
#     Edge 33, Type (0, 0), BuildingBlock: CIFDUS_clean_linker_0, # of connection points: 2
#     Edge 34, Type (0, 0), BuildingBlock: CIFDUS_clean_linker_0, # of connection points: 2
#     Edge 35, Type (0, 0), BuildingBlock: CIFDUS_clean_linker_0, # of connection points: 2
#     Edge 36, Type (0, 0), BuildingBlock: CIFDUS_clean_linker_0, # of connection points: 2
#     Edge 37, Type (0, 0), BuildingBlock: CIFDUS_clean_linker_0, # of connection points: 2
#     Edge 38, Type (0, 0), BuildingBlock: CIFDUS_clean_linker_0, # of connection points: 2
#     Edge 39, Type (0, 0), BuildingBlock: CIFDUS_clean_linker_0, # of connection points: 2
#     Edge 40, Type (0, 0), BuildingBlock: CIFDUS_clean_linker_0, # of connection points: 2
#     Edge 41, Type (0, 0), BuildingBlock: CIFDUS_clean_linker_0, # of connection points: 2
#     Edge 42, Type (0, 0), BuildingBlock: CIFDUS_clean_linker_0, # of connection points: 2
#     Edge 43, Type (0, 0), BuildingBlock: CIFDUS_clean_linker_0, # of connection points: 2
#     Edge 44, Type (0, 0), BuildingBlock: CIFDUS_clean_linker_0, # of connection points: 2
#     Edge 45, Type (0, 0), BuildingBlock: CIFDUS_clean_linker_0, # of connection points: 2
#     Edge 46, Type (0, 0), BuildingBlock: CIFDUS_clean_linker_0, # of connection points: 2
#     Edge 47, Type (0, 0), BuildingBlock: CIFDUS_clean_linker_0, # of connection points: 2
#     Edge 48, Type (0, 0), BuildingBlock: CIFDUS_clean_linker_0, # of connection points: 2
#     Edge 49, Type (0, 0), BuildingBlock: CIFDUS_clean_linker_0, # of connection points: 2
#     Edge 50, Type (0, 0), BuildingBlock: CIFDUS_clean_linker_0, # of connection points: 2
#     Edge 51, Type (0, 0), BuildingBlock: CIFDUS_clean_linker_0, # of connection points: 2
#     Edge 52, Type (0, 0), BuildingBlock: CIFDUS_clean_linker_0, # of connection points: 2
#     Edge 53, Type (0, 0), BuildingBlock: CIFDUS_clean_linker_0, # of connection points: 2
#     Edge 54, Type (0, 0), BuildingBlock: CIFDUS_clean_linker_0, # of connection points: 2
#     Edge 55, Type (0, 0), BuildingBlock: CIFDUS_clean_linker_0, # of connection points: 2
#     Edge 56, Type (0, 0), BuildingBlock: CIFDUS_clean_linker_0, # of connection points: 2
#     Edge 57, Type (0, 0), BuildingBlock: CIFDUS_clean_linker_0, # of connection points: 2
#     Edge 58, Type (0, 0), BuildingBlock: CIFDUS_clean_linker_0, # of connection points: 2
#     Edge 59, Type (0, 0), BuildingBlock: CIFDUS_clean_linker_0, # of connection points: 2
#     Edge 60, Type (0, 0), BuildingBlock: CIFDUS_clean_linker_0, # of connection points: 2
#     Edge 61, Type (0, 0), BuildingBlock: CIFDUS_clean_linker_0, # of connection points: 2
#     Edge 62, Type (0, 0), BuildingBlock: CIFDUS_clean_linker_0, # of connection points: 2
#     Edge 63, Type (0, 0), BuildingBlock: CIFDUS_clean_linker_0, # of connection points: 2
# Relax obj value: 0.370
# Max RMSD: 0.250
# Mean RMSD: 0.216
data_MOF--net-whw--node1-BETFAJ_clean_sbu_0--edge1-CIFDUS_clean_linker_0
_symmetry_space_group_name_H-M    P1
_symmetry_Int_Tables_number       1
_symmetry_cell_setting            triclinic
loop_
_symmetry_equiv_pos_as_xyz
'x, y, z'
_cell_length_a     40.633389
_cell_length_b     40.640869
_cell_length_c     31.422839
_cell_angle_alpha  89.695052
_cell_angle_beta   97.047347
_cell_angle_gamma 94.470863
loop_
_atom_site_label
_atom_site_type_symbol
_atom_site_fract_x
_atom_site_fract_y
_atom_site_fract_z
_atom_type_partial_charge
Sm0 Sm 0.05573 0.15142 0.15669 0.0
Sm1 Sm 0.98822 0.12337 0.16524 0.0
C2 C 0.11506 0.16903 0.13556 0.0
C3 C 0.12842 0.16552 0.095 0.0
C4 C 0.12873 0.13404 0.07695 0.0
C5 C 0.13109 0.13085 1.03367 0.0
C6 C 0.13386 0.15908 1.00815 0.0
C7 C 0.13683 0.19053 1.02693 0.0
C8 C 0.13415 0.19374 0.0703 0.0
C9 C 0.01867 0.19047 0.19962 0.0
C10 C -0.0024 0.15922 0.07348 0.0
C11 C 0.93176 0.09991 0.191 0.0
C12 C 0.91875 0.10242 0.23187 0.0
C13 C 0.93209 0.12756 0.2607 0.0
C14 C 0.9225 0.12821 0.30152 0.0
C15 C 0.89967 0.10348 0.3142 0.0
C16 C 0.88627 0.07832 0.28533 0.0
C17 C 0.89577 0.07783 0.24418 0.0
C18 C 0.01875 0.0848 0.11348 0.0
C19 C 0.04669 0.13093 0.25261 0.0
O20 O 0.10828 0.14154 0.15579 0.0
O21 O 0.09151 0.18937 0.13433 0.0
O22 O 0.00902 0.17466 0.16589 0.0
O23 O 0.05043 0.18984 0.20959 0.0
O24 O 0.0296 0.15624 0.08642 0.0
O25 O 0.97529 0.15226 0.10066 0.0
O26 O 0.93463 0.12741 0.16942 0.0
O27 O 0.95789 0.08289 0.1925 0.0
O28 O 0.03367 0.09793 0.14813 0.0
O29 O 0.98776 0.09047 0.10782 0.0
O30 O 0.01438 0.12994 0.238 0.0
O31 O 0.06839 0.13188 0.22477 0.0
H32 H 0.12447 0.11179 0.09526 0.0
H33 H 0.12844 0.10629 1.01979 0.0
H34 H 0.13957 0.21257 1.00772 0.0
H35 H 0.134 0.21821 0.08376 0.0
H36 H 0.95071 0.14607 0.25216 0.0
H37 H 0.93384 0.1474 0.32366 0.0
H38 H 0.86878 0.05895 0.29474 0.0
H39 H 0.88589 0.0579 0.22241 0.0
Sm40 Sm 0.1686 0.78936 0.45572 0.0
Sm41 Sm 0.1642 0.72474 0.4063 0.0
C42 C 0.16678 0.83731 0.51166 0.0
C43 C 0.15368 0.84232 0.55235 0.0
C44 C 0.12795 0.82092 0.56511 0.0
C45 C 0.1141 0.8276 0.60235 0.0
C46 C 0.1257 0.8558 0.62727 0.0
C47 C 0.15235 0.87638 0.61514 0.0
C48 C 0.1662 0.86965 0.57792 0.0
C49 C 0.2231 0.78014 0.41461 0.0
C50 C 0.17008 0.71804 0.50599 0.0
C51 C 0.17153 0.67922 0.34937 0.0
C52 C 0.1605 0.67414 0.30332 0.0
C53 C 0.1725 0.69543 0.27229 0.0
C54 C 0.1611 0.69052 0.2289 0.0
C55 C 0.13728 0.66449 0.21581 0.0
C56 C 0.12503 0.64354 0.24703 0.0
C57 C 0.13678 0.64813 0.29024 0.0
C58 C 0.10557 0.73744 0.4366 0.0
C59 C 0.1437 0.79382 0.35593 0.0
O60 O 0.1446 0.83197 0.47803 0.0
O61 O 0.19163 0.81854 0.5128 0.0
O62 O 0.2079 0.75804 0.43511 0.0
O63 O 0.21125 0.80844 0.41867 0.0
O64 O 0.16006 0.74817 0.50438 0.0
O65 O 0.18087 0.70473 0.47274 0.0
O66 O 0.19395 0.7036 0.3601 0.0
O67 O 0.14814 0.67657 0.37455 0.0
O68 O 0.12545 0.75826 0.42132 0.0
O69 O 0.11529 0.70792 0.43346 0.0
O70 O 0.15088 0.76277 0.35317 0.0
O71 O 0.14568 0.80979 0.39257 0.0
H72 H 0.11816 0.7995 0.54586 0.0
H73 H 0.09394 0.81098 0.61128 0.0
H74 H 0.16162 0.8984 0.63343 0.0
H75 H 0.18614 0.8863 0.56846 0.0
H76 H 0.19068 0.71587 0.28141 0.0
H77 H 0.17127 0.70688 0.20565 0.0
H78 H 0.10608 0.62371 0.23821 0.0
H79 H 0.127 0.63153 0.31356 0.0
Sm80 Sm 0.49994 0.88096 0.70589 0.0
Sm81 Sm 0.53776 0.86555 0.61642 0.0
C82 C 0.48501 0.86803 0.7861 0.0
C83 C 0.47728 0.85716 0.83096 0.0
C84 C 0.48396 0.82526 0.84601 0.0
C85 C 0.47673 0.81397 0.88683 0.0
C86 C 0.46182 0.83365 0.9152 0.0
C87 C 0.45544 0.8659 0.90026 0.0
C88 C 0.46294 0.87733 0.85914 0.0
C89 C 0.50105 0.92858 0.64412 0.0
C90 C 0.58322 0.896 0.69996 0.0
C91 C 0.55139 0.85231 0.53692 0.0
C92 C 0.55913 0.84337 0.49226 0.0
C93 C 0.56103 0.86719 0.4598 0.0
C94 C 0.56605 0.85852 0.41754 0.0
C95 C 0.57004 0.82549 0.4054 0.0
C96 C 0.56854 0.80176 0.43859 0.0
C97 C 0.56299 0.81044 0.48071 0.0
C98 C 0.53222 0.82069 0.67964 0.0
C99 C 0.45494 0.8555 0.62032 0.0
O100 O 0.50249 0.84999 0.76448 0.0
O101 O 0.47605 0.89487 0.76542 0.0
O102 O 0.5232 0.90877 0.65384 0.0
O103 O 0.47901 0.92695 0.67154 0.0
O104 O 0.55665 0.89305 0.72131 0.0
O105 O 0.583 0.88943 0.65853 0.0
O106 O 0.55011 0.88267 0.55083 0.0
O107 O 0.54639 0.82971 0.56583 0.0
O108 O 0.51164 0.84011 0.66537 0.0
O109 O 0.55779 0.82191 0.65823 0.0
O110 O 0.48051 0.86235 0.59808 0.0
O111 O 0.4566 0.85622 0.66252 0.0
H112 H 0.49493 0.80858 0.82601 0.0
H113 H 0.48341 0.78947 0.89599 0.0
H114 H 0.44399 0.88235 0.91994 0.0
H115 H 0.45726 0.90204 0.84932 0.0
H116 H 0.55795 0.89276 0.46679 0.0
H117 H 0.56604 0.87824 0.39444 0.0
H118 H 0.57178 0.77613 0.43263 0.0
H119 H 0.56163 0.79106 0.50437 0.0
Sm120 Sm 0.34472 0.19673 0.91368 0.0
Sm121 Sm 0.35348 0.2602 0.86426 0.0
C122 C 0.34383 0.14894 0.97096 0.0
C123 C 0.35533 0.14189 1.01602 0.0
C124 C 0.38663 0.1544 1.0359 0.0
C125 C 0.39785 0.14483 0.07768 0.0
C126 C 0.37785 0.12281 0.10028 0.0
C127 C 0.34613 0.11137 0.08057 0.0
C128 C 0.33508 0.12074 0.03883 0.0
C129 C 0.29081 0.20981 0.85567 0.0
C130 C 0.34639 0.26832 0.96149 0.0
C131 C 0.35143 0.3067 0.8049 0.0
C132 C 0.36848 0.3148 0.76677 0.0
C133 C 0.35705 0.30003 0.72675 0.0
C134 C 0.37368 0.30752 0.69114 0.0
C135 C 0.40195 0.33004 0.6948 0.0
C136 C 0.41308 0.34509 0.73466 0.0
C137 C 0.39653 0.33757 0.77021 0.0
C138 C 0.41105 0.24413 0.91306 0.0
C139 C 0.36693 0.18824 0.82119 0.0
O140 O 0.36663 0.15335 0.945 0.0
O141 O 0.31992 0.16882 0.96355 0.0
O142 O 0.30788 0.23076 0.88065 0.0
O143 O 0.30033 0.1805 0.86354 0.0
O144 O 0.35605 0.2381 0.9641 0.0
O145 O 0.33584 0.28118 0.92423 0.0
O146 O 0.33064 0.28034 0.8027 0.0
O147 O 0.36958 0.31012 0.84218 0.0
O148 O 0.39008 0.22417 0.89188 0.0
O149 O 0.40269 0.27411 0.90691 0.0
O150 O 0.36362 0.22024 0.81611 0.0
O151 O 0.36346 0.17287 0.85745 0.0
H152 H 0.40264 0.17093 1.01888 0.0
H153 H 0.42252 0.15397 0.09175 0.0
H154 H 0.32981 0.09502 0.09734 0.0
H155 H 0.3108 0.111 1.02404 0.0
H156 H 0.33538 0.28252 0.72293 0.0
H157 H 0.36466 0.29533 0.66091 0.0
H158 H 0.4344 0.36303 0.73832 0.0
H159 H 0.40576 0.34966 0.80044 0.0
Sm160 Sm 0.04598 0.90187 0.93739 0.0
Sm161 Sm 0.98134 0.90077 0.87539 0.0
C162 C 0.09315 0.91281 1.00237 0.0
C163 C 0.09952 0.90195 0.04692 0.0
C164 C 0.07495 0.90169 0.07478 0.0
C165 C 0.08194 0.89119 0.11706 0.0
C166 C 0.11353 0.88094 0.13182 0.0
C167 C 0.13762 0.88034 0.10349 0.0
C168 C 0.13065 0.89081 0.06138 0.0
C169 C 0.02843 0.84211 0.89689 0.0
C170 C 0.9729 0.87932 0.97156 0.0
C171 C 0.93371 0.89286 0.81 0.0
C172 C 0.92734 0.87793 0.76688 0.0
C173 C 0.93983 0.84783 0.75787 0.0
C174 C 0.93081 0.8327 0.71784 0.0
C175 C 0.90898 0.84727 0.68613 0.0
C176 C 0.89775 0.87812 0.69482 0.0
C177 C 0.9069 0.89328 0.73481 0.0
C178 C -0.00391 0.95737 0.92468 0.0
C179 C 0.05434 0.90755 0.83975 0.0
O180 O 0.06916 0.93233 0.99303 0.0
O181 O 0.09395 0.89011 0.97335 0.0
O182 O 0.00876 0.86082 0.91057 0.0
O183 O 0.05901 0.85371 0.90735 0.0
O184 O 0.00479 0.8894 0.98103 0.0
O185 O 0.95802 0.8779 0.93185 0.0
O186 O 0.93681 0.87254 0.84247 0.0
O187 O 0.95456 0.91917 0.81492 0.0
O188 O 0.01677 0.94204 0.90703 0.0
O189 O 0.96623 0.94475 0.91191 0.0
O190 O 0.02317 0.8951 0.83428 0.0
O191 O 0.06838 0.91913 0.87723 0.0
H192 H 0.05054 0.90975 0.06403 0.0
H193 H 0.06294 0.89166 0.13837 0.0
H194 H 0.16186 0.8717 0.11393 0.0
H195 H 0.14964 0.89026 0.04005 0.0
H196 H 0.95597 0.83566 0.78202 0.0
H197 H 0.94058 0.80933 0.71198 0.0
H198 H 0.8808 0.88999 0.67141 0.0
H199 H 0.89716 0.91659 0.74116 0.0
Sm200 Sm 0.41686 0.78777 0.26495 0.0
Sm201 Sm 0.4148 0.71928 0.22818 0.0
C202 C 0.39962 0.84181 0.29897 0.0
C203 C 0.38009 0.84726 0.33353 0.0
C204 C 0.36252 0.82031 0.35028 0.0
C205 C 0.34774 0.82382 0.38733 0.0
C206 C 0.3532 0.85366 0.41039 0.0
C207 C 0.36876 0.88139 0.39154 0.0
C208 C 0.38188 0.87819 0.35298 0.0
C209 C 0.47651 0.77572 0.23915 0.0
C210 C 0.43486 0.72502 0.33176 0.0
C211 C 0.41122 0.66162 0.18891 0.0
C212 C 0.41101 0.65192 0.14459 0.0
C213 C 0.41536 0.67644 0.11402 0.0
C214 C 0.40924 0.66894 0.07079 0.0
C215 C 0.39782 0.63678 0.0576 0.0
C216 C 0.39459 0.61179 0.08822 0.0
C217 C 0.40113 0.61941 0.13176 0.0
C218 C 0.36014 0.73068 0.26792 0.0
C219 C 0.41807 0.78267 0.1591 0.0
O220 O 0.38282 0.8275 0.26493 0.0
O221 O 0.42799 0.82923 0.31102 0.0
O222 O 0.4572 0.75473 0.2557 0.0
O223 O 0.46672 0.80507 0.24295 0.0
O224 O 0.42445 0.7554 0.32793 0.0
O225 O 0.43795 0.70754 0.29708 0.0
O226 O 0.43914 0.67566 0.20811 0.0
O227 O 0.38527 0.67709 0.1953 0.0
O228 O 0.37347 0.75122 0.24313 0.0
O229 O 0.37514 0.70386 0.27053 0.0
O230 O 0.41871 0.75044 0.16529 0.0
O231 O 0.41452 0.80218 0.19183 0.0
H232 H 0.36251 0.79607 0.33651 0.0
H233 H 0.33538 0.80215 0.40036 0.0
H234 H 0.37391 0.90473 0.40838 0.0
H235 H 0.39568 0.89913 0.34029 0.0
H236 H 0.42273 0.70157 0.12357 0.0
H237 H 0.4128 0.68843 0.04773 0.0
H238 H 0.38577 0.58678 0.07856 0.0
H239 H 0.39707 0.60038 0.15524 0.0
Sm240 Sm 0.47912 0.08956 0.43245 0.0
Sm241 Sm 0.54282 0.08864 0.38964 0.0
C242 C 0.43081 0.08481 0.48253 0.0
C243 C 0.42788 0.09318 0.52705 0.0
C244 C 0.45628 0.10319 0.55533 0.0
C245 C 0.45313 0.11494 0.59613 0.0
C246 C 0.42147 0.11698 0.60905 0.0
C247 C 0.3931 0.10599 0.58104 0.0
C248 C 0.39632 0.09421 0.54025 0.0
C249 C 0.49902 0.14848 0.3968 0.0
C250 C 0.55312 0.10627 0.48889 0.0
C251 C 0.59023 0.09432 0.3391 0.0
C252 C 0.59589 0.10589 0.29586 0.0
C253 C 0.60226 0.13961 0.28732 0.0
C254 C 0.60944 0.14984 0.24678 0.0
C255 C 0.61058 0.12657 0.21408 0.0
C256 C 0.60382 0.09295 0.22259 0.0
C257 C 0.59661 0.08273 0.26306 0.0
C258 C 0.52978 0.03255 0.4349 0.0
C259 C 0.46977 0.08667 0.33165 0.0
O260 O 0.44904 0.06066 0.47637 0.0
O261 O 0.43639 0.11 0.45791 0.0
O262 O 0.51792 0.12934 0.41735 0.0
O263 O 0.46814 0.13783 0.39675 0.0
O264 O 0.52133 0.09615 0.4885 0.0
O265 O 0.56727 0.11003 0.45347 0.0
O266 O 0.58664 0.11659 0.36782 0.0
O267 O 0.57036 0.06754 0.34116 0.0
O268 O 0.5072 0.04742 0.41246 0.0
O269 O 0.55912 0.04532 0.42956 0.0
O270 O 0.50158 0.09658 0.3353 0.0
O271 O 0.45545 0.0749 0.3646 0.0
H272 H 0.48079 0.10286 0.54543 0.0
H273 H 0.47538 0.12299 0.61725 0.0
H274 H 0.36838 0.10774 0.58999 0.0
H275 H 0.37415 0.08695 0.51853 0.0
H276 H 0.60202 0.1581 0.31197 0.0
H277 H 0.61412 0.176 0.24106 0.0
H278 H 0.60497 0.0744 0.1983 0.0
H279 H 0.59215 0.05656 0.26889 0.0
Sm280 Sm 0.11004 0.18999 0.59824 0.0
Sm281 Sm 0.12988 0.25584 0.57316 0.0
C282 C 0.10612 0.1317 0.63459 0.0
C283 C 0.11857 0.12366 0.67805 0.0
C284 C 0.13846 0.14816 0.70233 0.0
C285 C 0.1462 0.14417 0.74589 0.0
C286 C 0.13353 0.11583 0.76556 0.0
C287 C 0.11513 0.09038 0.74124 0.0
C288 C 0.10757 0.09434 0.69713 0.0
C289 C 0.05595 0.22174 0.5611 0.0
C290 C 0.10615 0.25183 0.66805 0.0
C291 C 0.14769 0.31154 0.53628 0.0
C292 C 0.14595 0.3211 0.49154 0.0
C293 C 0.12304 0.30374 0.46121 0.0
C294 C 0.12596 0.30717 0.41788 0.0
C295 C 0.15179 0.32808 0.40435 0.0
C296 C 0.17362 0.34685 0.43459 0.0
C297 C 0.1709 0.34309 0.47819 0.0
C298 C 0.17757 0.2313 0.63144 0.0
C299 C 0.10915 0.19793 0.49639 0.0
O300 O 0.12933 0.14104 0.61075 0.0
O301 O 0.08196 0.15133 0.63195 0.0
O302 O 0.08028 0.23414 0.58609 0.0
O303 O 0.0612 0.19145 0.55279 0.0
O304 O 0.10817 0.21946 0.66314 0.0
O305 O 0.10956 0.27181 0.63507 0.0
O306 O 0.11927 0.30647 0.55194 0.0
O307 O 0.1679 0.28842 0.54619 0.0
O308 O 0.16211 0.21445 0.59987 0.0
O309 O 0.16904 0.26116 0.63034 0.0
O310 O 0.11188 0.22967 0.50653 0.0
O311 O 0.11293 0.1761 0.52734 0.0
H312 H 0.14616 0.17128 0.68798 0.0
H313 H 0.16 0.16419 0.76467 0.0
H314 H 0.1048 0.06872 0.75667 0.0
H315 H 0.09172 0.0756 0.67851 0.0
H316 H 0.10364 0.28662 0.47101 0.0
H317 H 0.10818 0.29324 0.39494 0.0
H318 H 0.19335 0.36347 0.42458 0.0
H319 H 0.18902 0.35623 0.50149 0.0
Sm320 Sm 0.92331 0.28952 0.76225 0.0
Sm321 Sm 0.91275 0.21825 0.73125 0.0
C322 C 0.91066 0.35008 0.78047 0.0
C323 C 0.8949 0.36474 0.81438 0.0
C324 C 0.86713 0.34839 0.83003 0.0
C325 C 0.8562 0.35948 0.86739 0.0
C326 C 0.87326 0.38672 0.88991 0.0
C327 C 0.89967 0.40422 0.87234 0.0
C328 C 0.9103 0.39333 0.8348 0.0
C329 C 0.98058 0.26229 0.74836 0.0
C330 C 0.93749 0.23037 0.83355 0.0
C331 C 0.90311 0.16131 0.69047 0.0
C332 C 0.90382 0.15256 0.6458 0.0
C333 C 0.91854 0.17537 0.619 0.0
C334 C 0.91409 0.17066 0.57497 0.0
C335 C 0.89418 0.14329 0.55701 0.0
C336 C 0.88022 0.11979 0.58397 0.0
C337 C 0.88498 0.12449 0.62829 0.0
C338 C 0.86227 0.23943 0.77181 0.0
C339 C 0.92281 0.27946 0.65691 0.0
O340 O 0.89118 0.3311 0.75297 0.0
O341 O 0.93912 0.33795 0.79318 0.0
O342 O 0.95223 0.2576 0.72806 0.0
O343 O 0.98047 0.28569 0.77651 0.0
O344 O 0.92543 0.2598 0.8266 0.0
O345 O 0.94107 0.21115 0.80036 0.0
O346 O 0.93175 0.17135 0.71243 0.0
O347 O 0.87908 0.17992 0.69591 0.0
O348 O 0.87681 0.25581 0.74442 0.0
O349 O 0.87389 0.21096 0.7783 0.0
O350 O 0.91533 0.24741 0.6644 0.0
O351 O 0.92731 0.30052 0.68971 0.0
H352 H 0.85491 0.32616 0.81466 0.0
H353 H 0.83572 0.34559 0.87999 0.0
H354 H 0.91397 0.42481 0.88925 0.0
H355 H 0.93192 0.40603 0.82324 0.0
H356 H 0.93253 0.19745 0.632 0.0
H357 H 0.92574 0.18878 0.55498 0.0
H358 H 0.86465 0.09853 0.57074 0.0
H359 H 0.87281 0.10707 0.64866 0.0
Sm360 Sm 0.60841 0.69053 0.09847 0.0
Sm361 Sm 0.61857 0.75735 0.07497 0.0
C362 C 0.61171 0.63371 0.13785 0.0
C363 C 0.62555 0.63071 0.1822 0.0
C364 C 0.64564 0.65777 0.20038 0.0
C365 C 0.65338 0.66059 0.24419 0.0
C366 C 0.63941 0.63717 0.27078 0.0
C367 C 0.62004 0.60925 0.25269 0.0
C368 C 0.61327 0.60595 0.20829 0.0
C369 C 0.55016 0.71368 0.05965 0.0
C370 C 0.59594 0.7483 0.17019 0.0
C371 C 0.6287 0.81628 0.04138 0.0
C372 C 0.62963 0.83329 1.00019 0.0
C373 C 0.60103 0.84614 0.97901 0.0
C374 C 0.60287 0.86416 0.94145 0.0
C375 C 0.63333 0.86965 0.92469 0.0
C376 C 0.66177 0.85646 0.94546 0.0
C377 C 0.66 0.83861 0.98308 0.0
C378 C 0.67051 0.74133 0.13355 0.0
C379 C 0.60636 0.69947 0.99622 0.0
O380 O 0.63327 0.64431 0.11213 0.0
O381 O 0.58481 0.64963 0.13352 0.0
O382 O 0.5717 0.72895 0.08615 0.0
O383 O 0.55946 0.68459 0.05278 0.0
O384 O 0.60222 0.71722 0.16342 0.0
O385 O 0.59661 0.76964 0.13812 0.0
O386 O 0.59976 0.80512 0.0523 0.0
O387 O 0.65217 0.7964 0.05168 0.0
O388 O 0.6582 0.722 0.1023 0.0
O389 O 0.65545 0.76803 0.13271 0.0
O390 O 0.60914 0.73126 1.00677 0.0
O391 O 0.60912 0.67731 1.02692 0.0
H392 H 0.6529 0.67818 0.18066 0.0
H393 H 0.66852 0.68219 0.2572 0.0
H394 H 0.60841 0.59113 0.27265 0.0
H395 H 0.59663 0.58558 0.19459 0.0
H396 H 0.57735 0.84254 0.99158 0.0
H397 H 0.58043 0.87355 0.92526 0.0
H398 H 0.68544 0.86035 0.9329 0.0
H399 H 0.68258 0.82932 0.999 0.0
Sm400 Sm 0.67037 0.2877 0.95924 0.0
Sm401 Sm 0.6635 0.22407 0.90639 0.0
C402 C 0.66708 0.33622 1.01384 0.0
C403 C 0.6532 0.34117 0.05404 0.0
C404 C 0.62802 0.31904 0.06672 0.0
C405 C 0.61367 0.32529 0.10373 0.0
C406 C 0.62421 0.35381 0.12853 0.0
C407 C 0.6502 0.37528 0.11633 0.0
C408 C 0.66457 0.36895 0.07936 0.0
C409 C 0.72632 0.27519 0.92277 0.0
C410 C 0.66931 0.2163 1.00929 0.0
C411 C 0.66789 0.17184 0.85876 0.0
C412 C 0.65254 0.16204 0.81528 0.0
C413 C 0.6727 0.15491 0.78384 0.0
C414 C 0.6584 0.14599 0.74238 0.0
C415 C 0.62368 0.14406 0.73178 0.0
C416 C 0.60365 0.15218 0.76297 0.0
C417 C 0.61789 0.16106 0.80427 0.0
C418 C 0.6041 0.24957 0.91586 0.0
C419 C 0.65602 0.29397 0.85838 0.0
O420 O 0.64541 0.33032 0.97976 0.0
O421 O 0.69232 0.31787 1.01592 0.0
O422 O 0.70807 0.25375 0.93991 0.0
O423 O 0.71661 0.30448 0.92665 0.0
O424 O 0.66927 0.24866 1.0116 0.0
O425 O 0.66867 0.20029 0.97281 0.0
O426 O 0.68986 0.19731 0.86098 0.0
O427 O 0.64794 0.17205 0.88849 0.0
O428 O 0.62836 0.24854 0.94464 0.0
O429 O 0.61003 0.23512 0.88121 0.0
O430 O 0.66817 0.26496 0.85704 0.0
O431 O 0.64795 0.30613 0.89404 0.0
H432 H 0.61912 0.29728 0.04765 0.0
H433 H 0.59409 0.30797 0.11269 0.0
H434 H 0.65866 0.39757 0.13446 0.0
H435 H 0.68408 0.38618 0.06998 0.0
H436 H 0.69951 0.1561 0.79144 0.0
H437 H 0.67446 0.13988 0.71898 0.0
H438 H 0.57687 0.15175 0.75543 0.0
H439 H 0.6017 0.16721 0.82749 0.0
Sm440 Sm 0.8466 0.69831 0.40778 0.0
Sm441 Sm 0.85276 0.75976 0.35178 0.0
C442 C 0.84958 0.65268 0.46777 0.0
C443 C 0.86573 0.64918 0.51206 0.0
C444 C 0.90055 0.65122 0.52129 0.0
C445 C 0.91547 0.64647 0.56296 0.0
C446 C 0.89601 0.64024 0.59666 0.0
C447 C 0.86115 0.63859 0.5874 0.0
C448 C 0.8462 0.64282 0.54546 0.0
C449 C 0.79329 0.70343 0.34494 0.0
C450 C 0.84833 0.77214 0.45262 0.0
C451 C 0.84807 0.81003 0.29854 0.0
C452 C 0.86518 0.81983 0.26125 0.0
C453 C 0.84655 0.82729 0.22233 0.0
C454 C 0.86248 0.83612 0.18652 0.0
C455 C 0.89737 0.83759 0.18913 0.0
C456 C 0.91588 0.82924 0.22789 0.0
C457 C 0.89998 0.82045 0.26358 0.0
C458 C 0.91261 0.7374 0.38474 0.0
C459 C 0.86848 0.68913 0.31568 0.0
O460 O 0.86919 0.65484 0.43751 0.0
O461 O 0.82535 0.6724 0.46193 0.0
O462 O 0.80818 0.72738 0.36715 0.0
O463 O 0.80439 0.67595 0.35888 0.0
O464 O 0.8492 0.73992 0.45723 0.0
O465 O 0.84618 0.78612 0.41449 0.0
O466 O 0.82796 0.78321 0.29366 0.0
O467 O 0.86611 0.81192 0.33607 0.0
O468 O 0.88766 0.73826 0.40461 0.0
O469 O 0.90746 0.75107 0.34738 0.0
O470 O 0.85435 0.71676 0.30569 0.0
O471 O 0.87461 0.67915 0.35555 0.0
H472 H 0.91641 0.65608 0.4963 0.0
H473 H 0.94235 0.64716 0.56847 0.0
H474 H 0.84534 0.63431 0.61252 0.0
H475 H 0.8193 0.64109 0.53909 0.0
H476 H 0.81965 0.8264 0.21971 0.0
H477 H 0.84753 0.84247 0.15713 0.0
H478 H 0.94273 0.82935 0.23062 0.0
H479 H 0.91499 0.81406 0.29292 0.0
Sm480 Sm 0.54203 0.65107 0.65722 0.0
Sm481 Sm 0.47667 0.61952 0.66559 0.0
C482 C 0.60118 0.66724 0.63485 0.0
C483 C 0.61331 0.65866 0.59541 0.0
C484 C 0.59358 0.63587 0.56814 0.0
C485 C 0.60405 0.62684 0.52996 0.0
C486 C 0.63418 0.64096 0.51862 0.0
C487 C 0.65391 0.66404 0.54567 0.0
C488 C 0.64354 0.67275 0.58441 0.0
C489 C 0.50393 0.68681 0.70297 0.0
C490 C 0.48348 0.66165 0.57663 0.0
C491 C 0.42 0.59464 0.6888 0.0
C492 C 0.40709 0.59492 0.73006 0.0
C493 C 0.41136 0.62378 0.75504 0.0
C494 C 0.40439 0.62275 0.79709 0.0
C495 C 0.39319 0.59281 0.81485 0.0
C496 C 0.38809 0.5641 0.78963 0.0
C497 C 0.39497 0.56519 0.7473 0.0
C498 C 0.50955 0.58376 0.61301 0.0
C499 C 0.53495 0.63082 0.75468 0.0
O500 O 0.59482 0.64162 0.65877 0.0
O501 O 0.57732 0.68731 0.63015 0.0
O502 O 0.49373 0.67155 0.66899 0.0
O503 O 0.53615 0.68856 0.70971 0.0
O504 O 0.5158 0.66243 0.58916 0.0
O505 O 0.462 0.64915 0.60232 0.0
O506 O 0.42314 0.62319 0.66963 0.0
O507 O 0.44576 0.57733 0.68818 0.0
O508 O 0.52306 0.59641 0.64858 0.0
O509 O 0.47874 0.58987 0.60564 0.0
O510 O 0.50319 0.62286 0.73885 0.0
O511 O 0.55674 0.63897 0.72805 0.0
H512 H 0.56989 0.62549 0.57644 0.0
H513 H 0.5881 0.60993 0.50851 0.0
H514 H 0.67687 0.67563 0.53638 0.0
H515 H 0.65868 0.69064 0.60528 0.0
H516 H 0.42148 0.64683 0.74283 0.0
H517 H 0.40931 0.64508 0.81629 0.0
H518 H 0.37958 0.54078 0.80297 0.0
H519 H 0.3922 0.54261 0.7286 0.0
Sm520 Sm -0.00232 0.37595 0.20074 0.0
Sm521 Sm 0.02215 0.35828 0.10336 0.0
C522 C 0.98147 0.36287 0.2805 0.0
C523 C 0.97229 0.35544 0.32579 0.0
C524 C -0.00353 0.35698 0.36245 0.0
C525 C 0.98877 0.34582 0.40351 0.0
C526 C 0.95658 0.33212 0.40986 0.0
C527 C 0.93241 0.33112 0.37317 0.0
C528 C 0.94004 0.3424 0.33235 0.0
C529 C 0.01544 0.42778 0.14892 0.0
C530 C 0.07625 0.36462 0.19065 0.0
C531 C 0.05028 0.34705 1.03213 0.0
C532 C 0.05233 0.3322 0.98816 0.0
C533 C 0.05079 0.35177 0.95076 0.0
C534 C 0.0564 0.33883 0.91058 0.0
C535 C 0.06413 0.30574 0.90599 0.0
C536 C 0.06595 0.2864 0.94377 0.0
C537 C 0.06014 0.29924 0.9837 0.0
C538 C 0.98305 0.31345 0.14373 0.0
C539 C 0.94769 0.3795 0.11145 0.0
O540 O 0.00991 0.37805 0.27303 0.0
O541 O 0.96032 0.35825 0.24556 0.0
O542 O 0.0273 0.40014 0.15161 0.0
O543 O 0.99521 0.43084 0.178 0.0
O544 O 0.05226 0.36528 0.21552 0.0
O545 O 0.07163 0.36429 0.14822 0.0
O546 O 0.03358 0.37309 0.03689 0.0
O547 O 0.05197 0.32783 0.066 0.0
O548 O 0.00623 0.33263 0.16111 0.0
O549 O 0.98208 0.31398 0.10228 0.0
O550 O 0.97326 0.38289 0.08855 0.0
O551 O 0.95 0.37122 0.1526 0.0
H552 H 0.02183 0.36595 0.35921 0.0
H553 H 0.00852 0.34692 0.43005 0.0
H554 H 0.90719 0.32135 0.37582 0.0
H555 H 0.92057 0.34012 0.30549 0.0
H556 H 0.0457 0.37745 0.95264 0.0
H557 H 0.05445 0.35497 0.88305 0.0
H558 H 0.07274 0.26121 0.94312 0.0
H559 H 0.06259 0.28332 1.01146 0.0
Sm560 Sm 0.54562 0.3998 0.43971 0.0
Sm561 Sm 0.48064 0.39971 0.37991 0.0
C562 C 0.592 0.4108 0.50548 0.0
C563 C 0.59596 0.39982 0.5505 0.0
C564 C 0.58458 0.41833 0.58266 0.0
C565 C 0.58831 0.40777 0.62519 0.0
C566 C 0.60346 0.37853 0.63627 0.0
C567 C 0.6142 0.35972 0.60393 0.0
C568 C 0.61078 0.37039 0.56161 0.0
C569 C 0.52691 0.34037 0.39994 0.0
C570 C 0.47263 0.38013 0.47632 0.0
C571 C 0.43223 0.39273 0.31534 0.0
C572 C 0.42661 0.37818 0.27201 0.0
C573 C 0.44087 0.34913 0.26259 0.0
C574 C 0.43409 0.33502 0.22168 0.0
C575 C 0.41348 0.35004 0.18895 0.0
C576 C 0.39977 0.37949 0.19862 0.0
C577 C 0.40611 0.39323 0.23978 0.0
C578 C 0.49938 0.45696 0.42586 0.0
C579 C 0.55305 0.40434 0.34204 0.0
O580 O 0.5689 0.43105 0.49459 0.0
O581 O 0.59333 0.38822 0.47634 0.0
O582 O 0.50749 0.35911 0.41419 0.0
O583 O 0.55775 0.35126 0.41022 0.0
O584 O 0.50495 0.38858 0.48453 0.0
O585 O 0.45691 0.3795 0.43714 0.0
O586 O 0.4356 0.37204 0.34734 0.0
O587 O 0.45285 0.41919 0.32082 0.0
O588 O 0.51835 0.44047 0.40709 0.0
O589 O 0.46896 0.44416 0.41917 0.0
O590 O 0.52156 0.39269 0.33733 0.0
O591 O 0.56783 0.41586 0.37918 0.0
H592 H 0.57298 0.4411 0.57506 0.0
H593 H 0.58002 0.42288 0.64947 0.0
H594 H 0.62532 0.33666 0.61128 0.0
H595 H 0.61972 0.35547 0.53763 0.0
H596 H 0.4569 0.33709 0.28698 0.0
H597 H 0.44464 0.31202 0.21612 0.0
H598 H 0.38437 0.39227 0.1744 0.0
H599 H 0.39496 0.41571 0.24647 0.0
Sm600 Sm 0.98064 0.5896 0.93418 0.0
Sm601 Sm 0.04354 0.58672 0.88809 0.0
C602 C 0.92743 0.58181 0.9747 0.0
C603 C 0.91779 0.59393 1.01524 0.0
C604 C 0.92685 0.57789 0.05422 0.0
C605 C 0.9172 0.58914 0.09232 0.0
C606 C 0.89837 0.6167 0.09222 0.0
C607 C 0.88996 0.63312 0.05337 0.0
C608 C 0.89929 0.62168 1.01525 0.0
C609 C 0.01199 0.65007 0.91897 0.0
C610 C 0.05331 0.60252 0.98782 0.0
C611 C 0.09077 0.59169 0.83715 0.0
C612 C 0.09669 0.60763 0.79622 0.0
C613 C 0.08995 0.64059 0.78817 0.0
C614 C 0.09657 0.65555 0.74974 0.0
C615 C 0.10939 0.63773 0.71794 0.0
C616 C 0.11578 0.60458 0.72606 0.0
C617 C 0.10965 0.58978 0.7649 0.0
C618 C 0.02664 0.53068 0.93379 0.0
C619 C 0.96986 0.58717 0.83098 0.0
O620 O 0.95077 0.5612 0.97806 0.0
O621 O 0.93035 0.60347 0.9441 0.0
O622 O 0.0082 0.62594 0.89354 0.0
O623 O -0.00323 0.64365 0.95234 0.0
O624 O 0.02325 0.58793 0.98871 0.0
O625 O 0.06521 0.61104 0.95183 0.0
O626 O 0.09029 0.61129 0.8701 0.0
O627 O 0.06793 0.56691 0.8351 0.0
O628 O 0.00662 0.5477 0.91095 0.0
O629 O 0.05687 0.54179 0.93001 0.0
O630 O 0.00246 0.59187 0.83245 0.0
O631 O 0.95501 0.58144 0.86555 0.0
H632 H 0.94112 0.5564 0.05533 0.0
H633 H 0.92388 0.57578 0.12163 0.0
H634 H 0.87616 0.65492 0.05232 0.0
H635 H 0.892 0.63462 0.98579 0.0
H636 H 0.07982 0.65495 0.81172 0.0
H637 H 0.09198 0.6813 0.74533 0.0
H638 H 0.12512 0.58983 0.70228 0.0
H639 H 0.11494 0.56428 0.77046 0.0
H640 H 0.16266 0.11515 0.96418 0.0
H641 H 0.09687 0.19409 0.94879 0.0
H642 H 0.08944 0.18584 0.87141 0.0
H643 H 0.10265 0.15696 0.80862 0.0
H644 H 0.1661 0.07645 0.82365 0.0
H645 H 0.17242 0.08348 0.9019 0.0
C646 C 0.14655 0.13037 0.94382 0.0
C647 C 0.13076 0.15542 0.96166 0.0
C648 C 0.14163 0.12489 0.89987 0.0
C649 C 0.11003 0.17525 0.93532 0.0
C650 C 0.10544 0.17032 0.89129 0.0
C651 C 0.11756 0.14084 0.82935 0.0
C652 C 0.1342 0.11645 0.81161 0.0
C653 C 0.12124 0.14533 0.87339 0.0
C654 C 0.15327 0.09529 0.83763 0.0
C655 C 0.15701 0.09952 0.88189 0.0
H656 H 0.17473 0.84374 0.31746 0.0
H657 H 0.0848 0.7794 0.30813 0.0
H658 H 0.06551 0.80318 0.23843 0.0
H659 H 0.07696 0.83887 0.17781 0.0
H660 H 0.16881 0.90066 0.18564 0.0
H661 H 0.1851 0.88107 0.25817 0.0
C662 C 0.15078 0.83541 0.30013 0.0
C663 C 0.13102 0.81015 0.31693 0.0
C664 C 0.14056 0.84837 0.25984 0.0
C665 C 0.10018 0.79891 0.2949 0.0
C666 C 0.08928 0.81241 0.25531 0.0
C667 C 0.10024 0.84838 0.19578 0.0
C668 C 0.12177 0.87097 0.17668 0.0
C669 C 0.10963 0.83664 0.23706 0.0
C670 C 0.15209 0.88292 0.19982 0.0
C671 C 0.16134 0.87187 0.24121 0.0
H672 H 0.36746 0.80322 0.46437 0.0
H673 H 0.33882 0.9035 0.46267 0.0
H674 H 0.36311 0.91053 0.53731 0.0
H675 H 0.40572 0.89297 0.59345 0.0
H676 H 0.43728 0.7944 0.59072 0.0
H677 H 0.39747 0.78126 0.52732 0.0
C678 C 0.36465 0.82614 0.48053 0.0
C679 C 0.35246 0.8533 0.45735 0.0
C680 C 0.37967 0.83031 0.52257 0.0
C681 C 0.34916 0.8826 0.47946 0.0
C682 C 0.36315 0.88668 0.52206 0.0
C683 C 0.40235 0.8682 0.58003 0.0
C684 C 0.42378 0.84453 0.59578 0.0
C685 C 0.38058 0.86149 0.54265 0.0
C686 C 0.42041 0.81263 0.57856 0.0
C687 C 0.39796 0.80531 0.54228 0.0
H688 H 0.41255 0.20661 0.76905 0.0
H689 H 0.3406 0.12764 0.79448 0.0
H690 H 0.35206 0.0975 0.73129 0.0
H691 H 0.38085 0.09517 0.66723 0.0
H692 H 0.45387 0.17376 0.64308 0.0
H693 H 0.44442 0.20222 0.70817 0.0
C694 C 0.39956 0.18274 0.76062 0.0
C695 C 0.37555 0.16933 0.78544 0.0
C696 C 0.40666 0.1655 0.72491 0.0
C697 C 0.35918 0.1382 0.77533 0.0
C698 C 0.36566 0.1211 0.73932 0.0
C699 C 0.3947 0.11849 0.67634 0.0
C700 C 0.4178 0.13249 0.65038 0.0
C701 C 0.38906 0.13474 0.7136 0.0
C702 C 0.43608 0.16242 0.66279 0.0
C703 C 0.43054 0.17882 0.69977 0.0
H704 H 0.87952 0.82207 0.10455 0.0
H705 H 0.95394 0.87832 0.19066 0.0
H706 H 0.98372 0.89564 0.13076 0.0
H707 H 0.98873 0.89509 0.05472 0.0
H708 H 0.91401 0.84097 0.96703 0.0
H709 H 0.88362 0.8232 1.02688 0.0
C710 C 0.90203 0.83841 0.11012 0.0
C711 C 0.91464 0.84861 0.1521 0.0
C712 C 0.91884 0.84877 0.0754 0.0
C713 C 0.94406 0.86952 0.15882 0.0
C714 C 0.96099 0.87968 0.12459 0.0
C715 C 0.96591 0.87923 0.04867 0.0
C716 C 0.9538 0.86905 1.00678 0.0
C717 C 0.94868 0.86933 0.0829 0.0
C718 C 0.92382 0.84909 0.99919 0.0
C719 C 0.90651 0.83887 1.03334 0.0
H720 H 0.98233 0.18556 0.86995 0.0
H721 H 0.90852 0.2484 0.90287 0.0
H722 H 0.91767 0.23094 0.97739 0.0
H723 H 0.94798 0.19878 1.03585 0.0
H724 H 0.02557 0.14014 1.0043 0.0
H725 H 0.01386 0.15474 0.92875 0.0
C726 C 0.9681 0.19537 0.89331 0.0
C727 C 0.94436 0.21836 0.8797 0.0
C728 C 0.97434 0.18588 0.93741 0.0
C729 C 0.92682 0.23078 0.91142 0.0
C730 C 0.93208 0.22072 0.95456 0.0
C731 C 0.96213 0.1889 1.01246 0.0
C732 C 0.98765 0.16794 1.0266 0.0
C733 C 0.9559 0.19837 0.96833 0.0
C734 C 0.00585 0.15619 0.99511 0.0
C735 C -0.00089 0.16459 0.95148 0.0
H736 H 0.64392 0.16032 0.65415 0.0
H737 H 0.56846 0.10205 0.71325 0.0
H738 H 0.5408 0.08479 0.64303 0.0
H739 H 0.53759 0.08646 0.5658 0.0
H740 H 0.6123 0.14399 0.50482 0.0
H741 H 0.64168 0.16028 0.57527 0.0
C742 C 0.62168 0.14351 0.65162 0.0
C743 C 0.60807 0.13277 0.68884 0.0
C744 C 0.60603 0.13333 0.61108 0.0
C745 C 0.57906 0.11123 0.68508 0.0
C746 C 0.56336 0.10111 0.64501 0.0
C747 C 0.56019 0.10276 0.56782 0.0
C748 C 0.57252 0.11447 0.53042 0.0
C749 C 0.5765 0.11219 0.60796 0.0
C750 C 0.60232 0.13477 0.53341 0.0
C751 C 0.619 0.14418 0.57357 0.0
H752 H 0.56549 0.76301 0.36432 0.0
H753 H 0.58832 0.86643 0.33828 0.0
H754 H 0.59543 0.85285 0.26542 0.0
H755 H 0.59714 0.8115 0.20698 0.0
H756 H 0.57929 0.70821 0.23554 0.0
H757 H 0.56942 0.7221 0.308 0.0
C758 C 0.57237 0.78301 0.34356 0.0
C759 C 0.57559 0.81622 0.35906 0.0
C760 C 0.57771 0.77497 0.30077 0.0
C761 C 0.58436 0.84073 0.3292 0.0
C762 C 0.58892 0.83294 0.28666 0.0
C763 C 0.5909 0.79196 0.22888 0.0
C764 C 0.58888 0.75857 0.21469 0.0
C765 C 0.58574 0.80012 0.27179 0.0
C766 C 0.58107 0.73403 0.24457 0.0
C767 C 0.57535 0.74201 0.28648 0.0
H768 H 0.64791 0.59292 0.33454 0.0
H769 H 0.63614 0.69636 0.30973 0.0
H770 H 0.63874 0.7071 0.38602 0.0
H771 H 0.6398 0.68639 0.45884 0.0
H772 H 0.64306 0.58218 0.48311 0.0
H773 H 0.64769 0.57203 0.40734 0.0
C774 C 0.64581 0.61774 0.34589 0.0
C775 C 0.64228 0.64376 0.31685 0.0
C776 C 0.64576 0.6235 0.38943 0.0
C777 C 0.63981 0.67598 0.33172 0.0
C778 C 0.64097 0.68215 0.37523 0.0
C779 C 0.64249 0.66166 0.44748 0.0
C780 C 0.6421 0.6351 0.47574 0.0
C781 C 0.6436 0.65603 0.40419 0.0
C782 C 0.64414 0.60286 0.46129 0.0
C783 C 0.64652 0.59712 0.41827 0.0
H784 H 0.60541 0.33075 0.82805 0.0
H785 H 0.6995 0.29904 0.80064 0.0
H786 H 0.69236 0.32463 0.73032 0.0
H787 H 0.65836 0.35299 0.67552 0.0
H788 H 0.56174 0.38096 0.69855 0.0
H789 H 0.5712 0.3608 0.77225 0.0
C790 C 0.62444 0.33006 0.80675 0.0
C791 C 0.65281 0.31307 0.81893 0.0
C792 C 0.6197 0.34405 0.76578 0.0
C793 C 0.67733 0.3118 0.79139 0.0
C794 C 0.67329 0.32641 0.75131 0.0
C795 C 0.63916 0.3544 0.69644 0.0
C796 C 0.60926 0.36799 0.68146 0.0
C797 C 0.6443 0.34193 0.73789 0.0
C798 C 0.58509 0.37065 0.70944 0.0
C799 C 0.59038 0.35897 0.75145 0.0
H800 H 0.91706 0.43026 0.074 0.0
H801 H 0.90725 0.32517 0.09148 0.0
H802 H 0.87289 0.31823 1.02237 0.0
H803 H 0.86241 0.34089 0.95053 0.0
H804 H 0.87498 0.44621 0.93124 0.0
H805 H 0.89102 0.45456 1.00797 0.0
C806 C 0.90592 0.40614 0.06344 0.0
C807 C 0.91506 0.37815 0.08658 0.0
C808 C 0.88754 0.40243 1.02295 0.0
C809 C 0.90038 0.34692 0.07362 0.0
C810 C 0.8812 0.34297 1.03384 0.0
C811 C 0.86692 0.36585 0.96314 0.0
C812 C 0.86874 0.39284 0.9351 0.0
C813 C 0.87699 0.37036 1.00697 0.0
C814 C 0.87452 0.42497 0.95219 0.0
C815 C 0.88377 0.42976 0.996 0.0
H816 H 0.8325 0.67907 0.23988 0.0
H817 H 0.92414 0.65597 0.31401 0.0
H818 H 0.94156 0.63006 0.2508 0.0
H819 H 0.93211 0.61872 0.17308 0.0
H820 H 0.8384 0.6397 0.10122 0.0
H821 H 0.82058 0.6625 0.16516 0.0
C822 C 0.85614 0.66804 0.24215 0.0
C823 C 0.87729 0.66952 0.28077 0.0
C824 C 0.86574 0.65341 0.20616 0.0
C825 C 0.9076 0.65485 0.28417 0.0
C826 C 0.91758 0.64034 0.24811 0.0
C827 C 0.90755 0.62769 0.17154 0.0
C828 C 0.88691 0.6281 0.13216 0.0
C829 C 0.89706 0.64012 0.20869 0.0
C830 C 0.85523 0.64003 0.13076 0.0
C831 C 0.84483 0.65278 0.16736 0.0
H832 H 0.49838 0.3686 0.55769 0.0
H833 H 0.40515 0.36882 0.47526 0.0
H834 H 0.3749 0.35272 0.53567 0.0
H835 H 0.37519 0.34001 0.61236 0.0
H836 H 0.46903 0.33804 0.69319 0.0
H837 H 0.49882 0.35397 0.63269 0.0
C838 C 0.47143 0.36519 0.55282 0.0
C839 C 0.45405 0.37008 0.5122 0.0
C840 C 0.45432 0.3558 0.58739 0.0
C841 C 0.41914 0.36525 0.50635 0.0
C842 C 0.40182 0.35606 0.54084 0.0
C843 C 0.40216 0.3426 0.61659 0.0
C844 C 0.41983 0.33807 0.65731 0.0
C845 C 0.4192 0.35137 0.58154 0.0
C846 C 0.45479 0.34197 0.66238 0.0
C847 C 0.47187 0.35087 0.62779 0.0
H848 H 0.45722 0.63315 0.49836 0.0
H849 H 0.48614 0.72732 0.55937 0.0
H850 H 0.47317 0.75545 0.49086 0.0
H851 H 0.4548 0.75371 0.41212 0.0
H852 H 0.42969 0.65912 0.35028 0.0
H853 H 0.43961 0.63134 0.41929 0.0
C854 C 0.46018 0.65986 0.49676 0.0
C855 C 0.47204 0.67804 0.53464 0.0
C856 C 0.45347 0.67603 0.4565 0.0
C857 C 0.47655 0.71262 0.53126 0.0
C858 C 0.46926 0.72879 0.49182 0.0
C859 C 0.45138 0.72704 0.4137 0.0
C860 C 0.44139 0.70882 0.37534 0.0
C861 C 0.45787 0.71085 0.45398 0.0
C862 C 0.43753 0.6741 0.37866 0.0
C863 C 0.44312 0.65804 0.41844 0.0
H864 H 0.12344 0.60563 0.17526 0.0
H865 H 0.12448 0.71065 0.15295 0.0
H866 H 0.10262 0.70055 0.07784 0.0
H867 H 0.07886 0.66155 1.02001 0.0
H868 H 0.07163 0.55734 0.04642 0.0
H869 H 0.09989 0.56726 0.11876 0.0
C870 C 0.11858 0.62639 0.15421 0.0
C871 C 0.12534 0.6588 0.16983 0.0
C872 C 0.1049 0.62046 0.11181 0.0
C873 C 0.1198 0.68539 0.14167 0.0
C874 C 0.10709 0.67967 0.09879 0.0
C875 C 0.08418 0.64119 0.04162 0.0
C876 C 0.07385 0.60878 1.02849 0.0
C877 C 0.09911 0.64729 0.0837 0.0
C878 C 0.07985 0.58236 0.05633 0.0
C879 C 0.09581 0.58807 0.09757 0.0
H880 H 0.08432 0.22055 0.73976 0.0
H881 H 0.11427 0.31687 0.69316 0.0
H882 H 0.10451 0.34188 0.76055 0.0
H883 H 0.08772 0.33692 0.83403 0.0
H884 H 0.05308 0.2408 0.87765 0.0
H885 H 0.06422 0.2162 0.81114 0.0
C886 C 0.08894 0.247 0.74431 0.0
C887 C 0.10031 0.26646 0.71071 0.0
C888 C 0.08253 0.26166 0.78338 0.0
C889 C 0.10562 0.30087 0.71783 0.0
C890 C 0.09999 0.31537 0.7567 0.0
C891 C 0.08234 0.31058 0.82935 0.0
C892 C 0.07009 0.29114 0.86274 0.0
C893 C 0.08835 0.29609 0.78992 0.0
C894 C 0.06356 0.25691 0.85444 0.0
C895 C 0.06978 0.24253 0.81582 0.0
H896 H 0.98841 0.30997 0.22805 0.0
H897 H 0.92666 0.27382 0.11448 0.0
H898 H 0.9128 0.22286 0.15102 0.0
H899 H 0.95237 0.18647 0.18405 0.0
H900 H 0.03296 0.22441 0.27622 0.0
H901 H 0.00397 0.27342 0.28569 0.0
C902 C 0.96969 0.292 0.21267 0.0
C903 C 0.9601 0.29438 0.16843 0.0
C904 C 0.96638 0.26122 0.23173 0.0
C905 C 0.93562 0.27163 0.14819 0.0
C906 C 0.92787 0.24235 0.16931 0.0
C907 C 0.96251 0.20484 0.20789 0.0
C908 C 0.99578 0.20426 0.22589 0.0
C909 C 0.94866 0.23511 0.20671 0.0
C910 C 0.00819 0.22596 0.25947 0.0
C911 C 0.99152 0.25407 0.26454 0.0
H912 H 0.96255 0.78397 0.39942 0.0
H913 H 0.93647 0.68047 0.41664 0.0
H914 H 0.99487 0.67171 0.44146 0.0
H915 H 0.054 0.69278 0.44807 0.0
H916 H 0.07911 0.79669 0.43019 0.0
H917 H 0.02028 0.80637 0.41716 0.0
C918 C 0.96977 0.75966 0.40934 0.0
C919 C 0.94595 0.73277 0.4058 0.0
C920 C 0.00307 0.75499 0.42336 0.0
C921 C 0.95487 0.70137 0.41908 0.0
C922 C 0.98813 0.69642 0.43309 0.0
C923 C 0.04651 0.7176 0.44219 0.0
C924 C 0.0707 0.74385 0.43894 0.0
C925 C 0.0126 0.7229 0.43391 0.0
C926 C 0.06084 0.77601 0.43209 0.0
C927 C 0.02725 0.78156 0.42445 0.0
H928 H 0.52075 0.7 0.78854 0.0
H929 H 0.43519 0.69473 0.69578 0.0
H930 H 0.43164 0.75398 0.70158 0.0
H931 H 0.47186 0.79874 0.69083 0.0
H932 H 0.57442 0.79445 0.74416 0.0
H933 H 0.55803 0.74942 0.79159 0.0
C934 C 0.50104 0.71234 0.7705 0.0
C935 C 0.48276 0.69573 0.73539 0.0
C936 C 0.50613 0.74615 0.76417 0.0
C937 C 0.45284 0.70858 0.71893 0.0
C938 C 0.45154 0.74273 0.72123 0.0
C939 C 0.49045 0.78881 0.71411 0.0
C940 C 0.52431 0.79825 0.71329 0.0
C941 C 0.48124 0.76131 0.7369 0.0
C942 C 0.54842 0.7859 0.74335 0.0
C943 C 0.53885 0.76088 0.77091 0.0
H944 H 0.55418 0.2024 0.90551 0.0
H945 H 0.57926 0.30235 0.94981 0.0
H946 H 0.52097 0.30799 0.96007 0.0
H947 H 0.46222 0.28628 0.94729 0.0
H948 H 0.43795 0.18587 0.9033 0.0
H949 H 0.4969 0.17801 0.90365 0.0
C950 C 0.54675 0.22529 0.91766 0.0
C951 C 0.57024 0.25228 0.92583 0.0
C952 C 0.51358 0.22808 0.92379 0.0
C953 C 0.56108 0.28156 0.94276 0.0
C954 C 0.52792 0.2847 0.94865 0.0
C955 C 0.46995 0.26251 0.93861 0.0
C956 C 0.44595 0.23699 0.92412 0.0
C957 C 0.50382 0.25841 0.938 0.0
C958 C 0.45608 0.20604 0.91391 0.0
C959 C 0.48973 0.20159 0.91379 0.0
H960 H 0.06961 0.79395 0.8871 0.0
H961 H 0.96623 0.81158 0.88726 0.0
H962 H 0.95149 0.75234 0.88986 0.0
H963 H 0.96921 0.69653 0.90353 0.0
H964 H 0.07208 0.67807 0.9033 0.0
H965 H 0.0861 0.73674 0.88936 0.0
C966 C 0.0438 0.78472 0.88683 0.0
C967 C 0.01912 0.80693 0.88817 0.0
C968 C 0.03561 0.75066 0.88916 0.0
C969 C 0.9857 0.79484 0.887 0.0
C970 C 0.97727 0.76102 0.8887 0.0
C971 C 0.99457 0.70549 0.89984 0.0
C972 C 0.01983 0.68378 0.90519 0.0
C973 C 0.0022 0.7389 0.89176 0.0
C974 C 0.05251 0.69489 0.89966 0.0
C975 C 0.06043 0.72827 0.89175 0.0
H976 H 0.52017 0.77056 0.05689 0.0
H977 H 0.50155 0.66662 0.07724 0.0
H978 H 0.48529 0.6771 0.14763 0.0
H979 H 0.4857 0.71592 0.20784 0.0
H980 H 0.50546 0.81999 0.18752 0.0
H981 H 0.51595 0.80956 0.11428 0.0
C982 C 0.51049 0.7504 0.07577 0.0
C983 C 0.51558 0.71795 0.06496 0.0
C984 C 0.50421 0.75676 0.11755 0.0
C985 C 0.50036 0.69199 0.087 0.0
C986 C 0.49234 0.69785 0.128 0.0
C987 C 0.49179 0.7361 0.18702 0.0
C988 C 0.49329 0.76849 0.20206 0.0
C989 C 0.49606 0.73007 0.14444 0.0
C990 C 0.50361 0.79471 0.17619 0.0
C991 C 0.50886 0.7889 0.13407 0.0
H992 H 0.45975 0.19763 0.37356 0.0
H993 H 0.56239 0.17499 0.39577 0.0
H994 H 0.58049 0.23349 0.39068 0.0
H995 H 0.56677 0.29114 0.39204 0.0
H996 H 0.464 0.31367 0.37678 0.0
H997 H 0.44616 0.25517 0.36635 0.0
C998 C 0.48607 0.20551 0.37654 0.0
C999 C 0.50977 0.1824 0.3859 0.0
C1000 C 0.49617 0.23916 0.3753 0.0
C1001 C 0.54378 0.19262 0.38917 0.0
C1002 C 0.5541 0.22601 0.38639 0.0
C1003 C 0.54051 0.28323 0.38567 0.0
C1004 C 0.51664 0.30635 0.38602 0.0
C1005 C 0.53049 0.24956 0.38139 0.0
C1006 C 0.48272 0.29606 0.37727 0.0
C1007 C 0.47254 0.26268 0.37141 0.0
H1008 H 0.03473 0.2815 0.57893 0.0
H1009 H 0.00182 0.17842 0.57055 0.0
H1010 H 0.99 0.17888 0.64451 0.0
H1011 H 0.99446 0.20731 0.71329 0.0
H1012 H 0.02144 0.31185 0.72076 0.0
H1013 H 0.03399 0.31174 0.6465 0.0
C1014 C 0.02305 0.25965 0.59259 0.0
C1015 C 0.02318 0.22898 0.57207 0.0
C1016 C 0.01818 0.25995 0.63593 0.0
C1017 C 0.00491 0.20176 0.58766 0.0
C1018 C -0.00067 0.20164 0.63049 0.0
C1019 C 0.00457 0.22973 0.69913 0.0
C1020 C 0.00718 0.25944 0.72214 0.0
C1021 C 0.00776 0.23017 0.65548 0.0
C1022 C 0.01976 0.28858 0.70368 0.0
C1023 C 0.02546 0.28878 0.66074 0.0
H1024 H 0.9916 0.02308 0.10387 0.0
H1025 H 0.06707 0.09043 0.06021 0.0
H1026 H 0.06979 0.0545 0.9983 0.0
H1027 H 0.04402 0.00761 0.95091 0.0
H1028 H 0.96331 0.94554 0.99306 0.0
H1029 H 0.96948 0.97488 0.06086 0.0
C1030 C 0.00974 0.02908 0.0818 0.0
C1031 C 0.03004 0.05874 0.0874 0.0
C1032 C 0.00955 0.00935 0.0452 0.0
C1033 C 0.05239 0.06699 0.05765 0.0
C1034 C 0.05329 0.04676 1.02168 0.0
C1035 C 0.02827 0.00033 0.97535 0.0
C1036 C 0.00331 0.97431 0.9669 0.0
C1037 C 0.03105 0.01845 1.01421 0.0
C1038 C 0.98275 0.96535 0.99862 0.0
C1039 C 0.98621 0.9822 0.03755 0.0
H1040 H 0.2634 0.72971 0.41112 0.0
H1041 H 0.23412 0.81829 0.34599 0.0
H1042 H 0.27211 0.81077 0.29296 0.0
H1043 H 0.31545 0.77944 0.26556 0.0
H1044 H 0.34687 0.69314 0.33513 0.0
H1045 H 0.30672 0.69923 0.38484 0.0
C1046 C 0.26529 0.74722 0.38519 0.0
C1047 C 0.246 0.77444 0.38256 0.0
C1048 C 0.28777 0.74317 0.35517 0.0
C1049 C 0.24888 0.79713 0.34893 0.0
C1050 C 0.27055 0.79282 0.3184 0.0
C1051 C 0.31329 0.76196 0.29144 0.0
C1052 C 0.33434 0.73597 0.29641 0.0
C1053 C 0.29038 0.76599 0.32121 0.0
C1054 C 0.33114 0.7135 0.33029 0.0
C1055 C 0.30815 0.71693 0.35907 0.0
H1056 H 0.47363 0.00968 0.47219 0.0
H1057 H 0.57846 -0.00153 0.47423 0.0
H1058 H 0.57844 0.96535 0.53836 0.0
H1059 H 0.55057 0.94315 0.59719 0.0
H1060 H 0.44699 0.95678 0.60157 0.0
H1061 H 0.44487 0.98704 0.53333 0.0
C1062 C 0.49642 0.00065 0.48728 0.0
C1063 C 0.52612 0.00778 0.46916 0.0
C1064 C 0.49668 0.98258 0.52585 0.0
C1065 C 0.55521 -0.00607 0.48766 0.0
C1066 C 0.5554 0.97507 0.52463 0.0
C1067 C 0.52747 0.95268 0.58318 0.0
C1068 C 0.49906 0.94795 0.60424 0.0
C1069 C 0.52658 0.96997 0.54455 0.0
C1070 C 0.46932 0.96052 0.58597 0.0
C1071 C 0.46806 0.97755 0.54686 0.0
H1072 H 0.26751 0.16946 0.78738 0.0
H1073 H 0.26542 0.26855 0.83528 0.0
H1074 H 0.23108 0.28309 0.76961 0.0
H1075 H 0.20197 0.26812 0.69988 0.0
H1076 H 0.20321 0.16993 0.64879 0.0
H1077 H 0.23781 0.15438 0.71486 0.0
C1078 C 0.2593 0.19417 0.78349 0.0
C1079 C 0.26886 0.21794 0.81637 0.0
C1080 C 0.23968 0.20244 0.74524 0.0
C1081 C 0.25835 0.24987 0.81068 0.0
C1082 C 0.23879 0.25818 0.77309 0.0
C1083 C 0.20982 0.24322 0.70266 0.0
C1084 C 0.19989 0.22018 0.66915 0.0
C1085 C 0.22942 0.23472 0.74029 0.0
C1086 C 0.21052 0.18817 0.67385 0.0
C1087 C 0.23018 0.17933 0.71172 0.0
H1088 H 0.72582 0.2551 0.84074 0.0
H1089 H 0.7912 0.28215 0.95566 0.0
H1090 H 0.83975 0.27539 0.91802 0.0
H1091 H 0.86315 0.2611 0.85236 0.0
H1092 H 0.79785 0.23724 0.73648 0.0
H1093 H 0.74924 0.24412 0.77404 0.0
C1094 C 0.75064 0.25938 0.85751 0.0
C1095 C 0.75512 0.26849 0.90099 0.0
C1096 C 0.77822 0.25649 0.83526 0.0
C1097 C 0.78739 0.27447 0.92234 0.0
C1098 C 0.81503 0.27085 0.90078 0.0
C1099 C 0.83826 0.25795 0.83539 0.0
C1100 C 0.83381 0.24925 0.79184 0.0
C1101 C 0.81071 0.26193 0.85723 0.0
C1102 C 0.80161 0.24474 0.76987 0.0
C1103 C 0.77394 0.2483 0.79144 0.0
H1104 H 0.76814 0.75785 0.30507 0.0
H1105 H 0.77106 0.65291 0.28991 0.0
H1106 H 0.73753 0.65467 0.22007 0.0
H1107 H 0.70536 0.68621 0.16296 0.0
H1108 H 0.70247 0.79117 0.1813 0.0
H1109 H 0.73932 0.78933 0.2473 0.0
C1110 C 0.76175 0.73547 0.28628 0.0
C1111 C 0.77219 0.70542 0.30288 0.0
C1112 C 0.74264 0.73661 0.24572 0.0
C1113 C 0.76323 0.67651 0.27816 0.0
C1114 C 0.74419 0.67747 0.23787 0.0
C1115 C 0.71267 0.70858 0.18143 0.0
C1116 C 0.69952 0.73841 0.16752 0.0
C1117 C 0.73345 0.70741 0.22118 0.0
C1118 C 0.711 0.76741 0.19129 0.0
C1119 C 0.73215 0.76656 0.22958 0.0
H1120 H 0.53955 0.58212 0.54148 0.0
H1121 H 0.49536 0.52013 0.63385 0.0
H1122 H 0.48873 0.4737 0.58337 0.0
H1123 H 0.48833 0.4537 0.50899 0.0
H1124 H 0.53641 0.51469 0.41863 0.0
H1125 H 0.54957 0.55869 0.47259 0.0
C1126 C 0.53072 0.55795 0.55175 0.0
C1127 C 0.51933 0.5543 0.59208 0.0
C1128 C 0.52678 0.53153 0.52235 0.0
C1129 C 0.50556 0.5232 0.60365 0.0
C1130 C 0.50115 0.49684 0.57444 0.0
C1131 C 0.50218 0.47647 0.50151 0.0
C1132 C 0.51095 0.48145 0.45988 0.0
C1133 C 0.51048 0.50116 0.53308 0.0
C1134 C 0.52926 0.51064 0.45046 0.0
C1135 C 0.53676 0.53571 0.48128 0.0
H1136 H 0.06964 0.50758 0.99722 0.0
H1137 H 0.9651 0.50558 0.95179 0.0
H1138 H 0.95178 0.47795 1.01795 0.0
H1139 H 0.97049 0.45425 0.08931 0.0
H1140 H 0.07532 0.45069 0.12906 0.0
H1141 H 0.08813 0.48157 0.06537 0.0
C1142 C 0.04389 0.50103 1.00166 0.0
C1143 C 0.01827 0.50979 0.97042 0.0
C1144 C 0.0366 0.48469 0.03925 0.0
C1145 C 0.98517 0.50027 0.97619 0.0
C1146 C 0.97759 0.48438 1.01393 0.0
C1147 C 0.99599 0.46075 0.08411 0.0
C1148 C 0.02194 0.45101 0.11416 0.0
C1149 C 0.00313 0.47685 0.04602 0.0
C1150 C 0.05501 0.45865 0.10673 0.0
C1151 C 0.06232 0.47591 0.07011 0.0
H1152 H 0.01938 0.16379 0.31675 0.0
H1153 H 0.10655 0.11586 0.29379 0.0
H1154 H 0.13322 0.13113 0.36551 0.0
H1155 H 0.13308 0.15906 0.43592 0.0
H1156 H 0.04835 0.21131 0.45705 0.0
H1157 H 0.01991 0.19333 0.38672 0.0
C1158 C 0.04391 0.15603 0.32769 0.0
C1159 C 0.06024 0.13755 0.29945 0.0
C1160 C 0.05996 0.16602 0.36929 0.0
C1161 C 0.09272 0.12922 0.31445 0.0
C1162 C 0.10826 0.13821 0.35573 0.0
C1163 C 0.10845 0.16661 0.42508 0.0
C1164 C 0.09317 0.18689 0.45211 0.0
C1165 C 0.09234 0.15675 0.38359 0.0
C1166 C 0.06109 0.19619 0.43706 0.0
C1167 C 0.04465 0.18572 0.39666 0.0
H1168 H 0.15325 0.88022 0.70596 0.0
H1169 H 0.05913 0.8527 0.63009 0.0
H1170 H 0.0296 0.86804 0.6887 0.0
H1171 H 0.02999 0.88889 0.75995 0.0
H1172 H 0.12263 0.91571 0.83919 0.0
H1173 H 0.15342 0.90214 0.77977 0.0
C1174 C 0.12628 0.8778 0.70227 0.0
C1175 C 0.10843 0.86498 0.66382 0.0
C1176 C 0.10928 0.88698 0.73618 0.0
C1177 C 0.07351 0.86178 0.65957 0.0
C1178 C 0.05656 0.87086 0.69289 0.0
C1179 C 0.05696 0.89203 0.76452 0.0
C1180 C 0.07397 0.90347 0.80389 0.0
C1181 C 0.07418 0.88344 0.73112 0.0
C1182 C 0.10891 0.90733 0.80896 0.0
C1183 C 0.12648 0.8993 0.77516 0.0
H1184 H 0.42475 0.75098 0.08201 0.0
H1185 H 0.42737 0.84843 0.1362 0.0
H1186 H 0.44085 0.87261 0.06827 0.0
H1187 H 0.45306 0.86663 0.99236 0.0
H1188 H 0.44828 0.76832 0.93894 0.0
H1189 H 0.43569 0.74502 1.00659 0.0
C1190 C 0.4279 0.77755 0.07921 0.0
C1191 C 0.42442 0.79747 0.11532 0.0
C1192 C 0.43596 0.79161 0.03947 0.0
C1193 C 0.42927 0.83198 0.10978 0.0
C1194 C 0.43726 0.84599 0.07054 0.0
C1195 C 0.44905 0.84009 0.99492 0.0
C1196 C 0.45262 0.81988 0.95885 0.0
C1197 C 0.44077 0.82615 1.03486 0.0
C1198 C 0.44715 0.78537 0.9649 0.0
C1199 C 0.43934 0.77164 1.00411 0.0
H1200 H 0.42424 0.05136 0.27473 0.0
H1201 H 0.47183 0.14864 0.30302 0.0
H1202 H 0.44681 0.16901 0.23464 0.0
H1203 H 0.4142 0.1586 0.16501 0.0
H1204 H 0.36902 0.06072 0.13355 0.0
H1205 H 0.38969 0.04139 0.20474 0.0
C1206 C 0.42844 0.07707 0.26601 0.0
C1207 C 0.4497 0.09848 0.2935 0.0
C1208 C 0.41462 0.08852 0.2259 0.0
C1209 C 0.45546 0.13174 0.28206 0.0
C1210 C 0.44132 0.1434 0.24293 0.0
C1211 C 0.40903 0.13298 0.17354 0.0
C1212 C 0.3901 0.11122 0.14387 0.0
C1213 C 0.42146 0.12185 0.21418 0.0
C1214 C 0.38317 0.07821 0.15591 0.0
C1215 C 0.39514 0.06702 0.19658 0.0
H1216 H 0.85544 0.75 0.5339 0.0
H1217 H 0.85911 0.84006 0.4605 0.0
H1218 H 0.87822 0.87158 0.52652 0.0
H1219 H 0.89649 0.8727 0.60487 0.0
H1220 H 0.89236 0.78132 0.67579 0.0
H1221 H 0.87192 0.7511 0.61027 0.0
C1222 C 0.85997 0.7766 0.53204 0.0
C1223 C 0.85547 0.79258 0.49217 0.0
C1224 C 0.87162 0.79427 0.56961 0.0
C1225 C 0.86187 0.82708 0.49077 0.0
C1226 C 0.8731 0.84508 0.52847 0.0
C1227 C 0.8908 0.84623 0.60607 0.0
C1228 C 0.89643 0.82936 0.6454 0.0
C1229 C 0.87844 0.82882 0.56808 0.0
C1230 C 0.88917 0.79497 0.64608 0.0
C1231 C 0.87706 0.77763 0.60864 0.0
H1232 H 0.89513 0.08755 0.5109 0.0
H1233 H 0.87935 0.19119 0.49866 0.0
H1234 H 0.8761 0.18699 0.4209 0.0
H1235 H 0.88256 0.15497 0.35751 0.0
H1236 H 0.89966 0.05172 0.36949 0.0
H1237 H 0.89589 0.05418 0.44646 0.0
C1238 C 0.8902 0.10898 0.4911 0.0
C1239 C 0.88803 0.13968 0.5102 0.0
C1240 C 0.88833 0.10639 0.4466 0.0
C1241 C 0.88189 0.16744 0.48443 0.0
C1242 C 0.8798 0.16504 0.4401 0.0
C1243 C 0.88507 0.13298 0.37703 0.0
C1244 C 0.89169 0.10336 0.35843 0.0
C1245 C 0.88381 0.13483 0.42102 0.0
C1246 C 0.8944 0.07476 0.38345 0.0
C1247 C 0.89257 0.07624 0.42736 0.0
H1248 H 0.62978 0.16088 1.0217 0.0
H1249 H 0.70213 0.23293 0.08632 0.0
H1250 H 0.691 0.2107 0.15574 0.0
H1251 H 0.65847 0.17341 0.19804 0.0
H1252 H 0.58327 0.10329 0.13481 0.0
H1253 H 0.59804 0.12165 0.06491 0.0
C1254 C 0.64369 0.17096 0.05105 0.0
C1255 C 0.66701 0.19816 0.04929 0.0
C1256 C 0.63636 0.15868 0.091 0.0
C1257 C 0.68429 0.21176 0.08727 0.0
C1258 C 0.67778 0.19924 0.12687 0.0
C1259 C 0.6451 0.1623 0.16899 0.0
C1260 C 0.61965 0.13725 0.17162 0.0
C1261 C 0.65336 0.17325 0.12912 0.0
C1262 C 0.60313 0.12254 0.13365 0.0
C1263 C 0.61148 0.13309 0.09367 0.0
H1264 H 0.59764 0.94486 0.75654 0.0
H1265 H 0.63718 0.85992 0.70675 0.0
H1266 H 0.66438 0.8476 0.77812 0.0
H1267 H 0.66003 0.85055 0.85529 0.0
H1268 H 0.60952 0.92898 0.90438 0.0
H1269 H 0.60203 0.95372 0.83325 0.0
C1270 C 0.61391 0.92482 0.76117 0.0
C1271 C 0.61469 0.9027 0.72734 0.0
C1272 C 0.62557 0.91563 0.80279 0.0
C1273 C 0.63605 0.8771 0.7327 0.0
C1274 C 0.65072 0.86948 0.77377 0.0
C1275 C 0.64847 0.87369 0.85053 0.0
C1276 C 0.6349 0.88784 0.88443 0.0
C1277 C 0.64301 0.88686 0.80929 0.0
C1278 C 0.61963 0.91757 0.87826 0.0
C1279 C 0.61556 0.93176 0.83778 0.0
H1280 H 0.58153 0.67834 0.79217 0.0
H1281 H 0.51202 0.59993 0.82588 0.0
H1282 H 0.52925 0.61211 0.90241 0.0
H1283 H 0.56381 0.64632 0.96097 0.0
H1284 H 0.62647 0.72975 0.92501 0.0
H1285 H 0.61191 0.71491 0.84928 0.0
C1286 C 0.57027 0.66353 0.81613 0.0
C1287 C 0.5457 0.63752 0.80242 0.0
C1288 C 0.57904 0.67198 0.86031 0.0
C1289 C 0.53099 0.61974 0.83469 0.0
C1290 C 0.54089 0.62687 0.87876 0.0
C1291 C 0.57463 0.66106 0.93661 0.0
C1292 C 0.59724 0.68888 0.9495 0.0
C1293 C 0.56491 0.65303 0.8922 0.0
C1294 C 0.6097 0.70807 0.91678 0.0
C1295 C 0.60126 0.69952 0.87316 0.0
H1296 H 0.52839 0.38197 0.26364 0.0
H1297 H 0.62083 0.41493 0.33963 0.0
H1298 H 0.65142 0.40203 0.27987 0.0
H1299 H 0.65135 0.37972 0.20653 0.0
H1300 H 0.55765 0.34706 0.13297 0.0
H1301 H 0.5281 0.36075 0.19234 0.0
C1302 C 0.55525 0.38663 0.26736 0.0
C1303 C 0.57225 0.39966 0.30592 0.0
C1304 C 0.57245 0.37869 0.23358 0.0
C1305 C 0.60708 0.40528 0.31002 0.0
C1306 C 0.62456 0.3977 0.27601 0.0
C1307 C 0.62446 0.37585 0.20343 0.0
C1308 C 0.60679 0.36207 0.16542 0.0
C1309 C 0.60743 0.38419 0.23768 0.0
C1310 C 0.57197 0.35692 0.16208 0.0
C1311 C 0.55498 0.36505 0.19585 0.0
H1312 H 0.97824 0.35395 0.49459 0.0
H1313 H 0.91555 0.27676 0.42486 0.0
H1314 H 0.90032 0.25341 0.4921 0.0
H1315 H 0.90381 0.25421 0.57255 0.0
H1316 H 0.9638 0.33363 0.64136 0.0
H1317 H 0.98087 0.35547 0.57444 0.0
C1318 C 0.96134 0.33192 0.4938 0.0
C1319 C 0.94816 0.3177 0.45328 0.0
C1320 C 0.95193 0.31851 0.53339 0.0
C1321 C 0.92604 0.2891 0.45445 0.0
C1322 C 0.91731 0.27538 0.49341 0.0
C1323 C 0.92048 0.27639 0.57307 0.0
C1324 C 0.93196 0.29206 0.6132 0.0
C1325 C 0.92984 0.28982 0.53337 0.0
C1326 C 0.95378 0.32085 0.61189 0.0
C1327 C 0.96384 0.33351 0.57316 0.0
H1328 H 0.98779 0.62961 0.77148 0.0
H1329 H 0.90706 0.56104 0.79994 0.0
H1330 H 0.87627 0.57197 0.72958 0.0
H1331 H 0.87454 0.59883 0.65868 0.0
H1332 H 0.95408 0.67119 0.63518 0.0
H1333 H 0.98366 0.66012 0.70495 0.0
C1334 C 0.96354 0.61679 0.7622 0.0
C1335 C 0.95003 0.59378 0.79 0.0
C1336 C 0.94604 0.62364 0.72259 0.0
C1337 C 0.91809 0.5784 0.77848 0.0
C1338 C 0.90058 0.58467 0.7384 0.0
C1339 C 0.89801 0.61268 0.66901 0.0
C1340 C 0.91229 0.63532 0.64101 0.0
C1341 C 0.91458 0.60698 0.70996 0.0
C1342 C 0.94291 0.6528 0.65519 0.0
C1343 C 0.95977 0.64677 0.69533 0.0
H1344 H 0.35663 0.35152 0.13147 0.0
H1345 H 0.45459 0.31493 0.14652 0.0
H1346 H 0.44208 0.28703 0.07771 0.0
H1347 H 0.40317 0.27153 1.01425 0.0
H1348 H 0.30761 0.31197 0.99431 0.0
H1349 H 0.32 0.34125 0.06349 0.0
C1350 C 0.37564 0.33809 0.11956 0.0
C1351 C 0.40636 0.33497 0.14514 0.0
C1352 C 0.36881 0.32299 0.07892 0.0
C1353 C 0.43029 0.31697 0.12873 0.0
C1354 C 0.42335 0.30126 0.08897 0.0
C1355 C 0.3851 0.28689 1.02506 0.0
C1356 C 0.35428 0.28921 1.00001 0.0
C1357 C 0.39261 0.30378 0.06414 0.0
C1358 C 0.33138 0.30976 1.01346 0.0
C1359 C 0.33844 0.32629 0.05298 0.0
H1360 H 0.41407 0.5848 1.01406 0.0
H1361 H 0.36185 0.67349 0.99934 0.0
H1362 H 0.35221 0.6652 0.92192 0.0
H1363 H 0.36257 0.63519 0.85871 0.0
H1364 H 0.41704 0.54801 0.87294 0.0
H1365 H 0.42032 0.55217 0.95089 0.0
C1366 C 0.39993 0.60182 0.99391 0.0
C1367 C 0.38896 0.62978 1.01187 0.0
C1368 C 0.39458 0.59696 0.94968 0.0
C1369 C 0.371 0.65204 0.98574 0.0
C1370 C 0.36531 0.64725 0.94168 0.0
C1371 C 0.37478 0.61693 0.87901 0.0
C1372 C 0.38972 0.59154 0.86063 0.0
C1373 C 0.37762 0.62018 0.92335 0.0
C1374 C 0.40512 0.56762 0.88674 0.0
C1375 C 0.40734 0.5702 0.93115 0.0
H1376 H 0.1203 0.72429 0.55278 0.0
H1377 H 0.20252 0.66535 0.54106 0.0
H1378 H 0.1907 0.63452 0.60579 0.0
H1379 H 0.15878 0.62729 0.66787 0.0
H1380 H 0.07362 0.68401 0.67372 0.0
H1381 H 0.08563 0.71354 0.6095 0.0
C1382 C 0.13588 0.70484 0.56451 0.0
C1383 C 0.1629 0.6977 0.54316 0.0
C1384 C 0.12864 0.68718 0.60088 0.0
C1385 C 0.18195 0.67159 0.55758 0.0
C1386 C 0.17518 0.65406 0.5945 0.0
C1387 C 0.14244 0.64566 0.65482 0.0
C1388 C 0.11571 0.65378 0.67659 0.0
C1389 C 0.14882 0.66202 0.61677 0.0
C1390 C 0.09506 0.6779 0.65891 0.0
C1391 C 0.10165 0.69464 0.62178 0.0
H1392 H 0.11268 0.31386 0.21112 0.0
H1393 H 0.11154 0.41902 0.22401 0.0
H1394 H 0.14428 0.41758 0.29436 0.0
H1395 H 0.15628 0.38417 0.35872 0.0
H1396 H 0.15248 0.27823 0.34758 0.0
H1397 H 0.13904 0.28186 0.26996 0.0
C1398 C 0.12163 0.33657 0.22825 0.0
C1399 C 0.10969 0.36634 0.21333 0.0
C1400 C 0.13841 0.33511 0.26971 0.0
C1401 C 0.12081 0.39584 0.23537 0.0
C1402 C 0.13888 0.3949 0.27594 0.0
C1403 C 0.15399 0.36209 0.33897 0.0
C1404 C 0.15441 0.33099 0.35834 0.0
C1405 C 0.14529 0.36435 0.29467 0.0
C1406 C 0.15141 0.30238 0.3329 0.0
C1407 C 0.14377 0.30444 0.28866 0.0
loop_
_geom_bond_atom_site_label_1
_geom_bond_atom_site_label_2
_geom_bond_distance
_geom_bond_site_symmetry_2
_ccdc_geom_bond_type
Sm0 C2 2.846 . S
Sm0 O20 2.543 . S
Sm0 O21 2.450 . S
Sm0 O22 2.681 1_455 S
Sm0 O23 2.464 . S
Sm0 O24 2.396 1_455 S
Sm0 O28 2.386 . S
Sm0 O31 2.408 . S
Sm1 C11 2.846 . S
Sm1 O22 2.386 . S
Sm1 O25 2.408 . S
Sm1 O26 2.543 . S
Sm1 O27 2.450 . S
Sm1 O28 2.681 1_655 S
Sm1 O29 2.464 . S
Sm1 O30 2.396 1_655 S
C2 Sm0 2.846 . S
C2 C3 1.506 1_554 S
C2 O20 1.261 . S
C2 O21 1.242 . S
C3 C2 1.506 1_556 S
C3 C4 1.358 . S
C3 C8 1.382 . S
C4 C3 1.358 . S
C4 C5 1.385 . S
C4 H32 0.930 . S
C5 C4 1.385 . S
C5 C6 1.395 . S
C5 H33 0.929 . S
C6 C5 1.395 . S
C6 C7 1.335 . S
C7 C6 1.335 . S
C7 C8 1.398 . S
C7 H34 0.930 . S
C8 C3 1.382 . S
C8 C7 1.398 . S
C8 H35 0.929 . S
C9 O22 1.271 1_455 S
C9 O23 1.251 . S
C10 O24 1.252 . S
C10 O25 1.272 . S
C11 Sm1 2.846 . S
C11 C12 1.506 . S
C11 O26 1.261 . S
C11 O27 1.242 . S
C12 C11 1.506 . S
C12 C13 1.358 . S
C12 C17 1.382 . S
C13 C12 1.358 . S
C13 C14 1.385 . S
C13 H36 0.930 . S
C14 C13 1.385 . S
C14 C15 1.395 . S
C14 H37 0.929 . S
C15 C14 1.395 . S
C15 C16 1.335 . S
C16 C15 1.335 . S
C16 C17 1.398 . S
C16 H38 0.930 . S
C17 C12 1.382 . S
C17 C16 1.398 . S
C17 H39 0.929 . S
C18 O28 1.271 1_655 S
C18 O29 1.251 . S
C19 O30 1.252 . S
C19 O31 1.272 . S
O20 Sm0 2.543 . S
O20 C2 1.261 . S
O21 Sm0 2.450 . S
O21 C2 1.242 . S
O22 Sm0 2.681 1_655 S
O22 Sm1 2.386 . S
O22 C9 1.271 1_655 S
O23 Sm0 2.464 . S
O23 C9 1.251 . S
O24 Sm0 2.396 1_655 S
O24 C10 1.252 . S
O25 Sm1 2.408 . S
O25 C10 1.272 . S
O26 Sm1 2.543 . S
O26 C11 1.261 . S
O27 Sm1 2.450 . S
O27 C11 1.242 . S
O28 Sm0 2.386 . S
O28 Sm1 2.681 1_455 S
O28 C18 1.271 1_455 S
O29 Sm1 2.464 . S
O29 C18 1.251 . S
O30 Sm1 2.396 1_455 S
O30 C19 1.252 . S
O31 Sm0 2.408 . S
O31 C19 1.272 . S
H32 C4 0.930 . S
H33 C5 0.929 . S
H34 C7 0.930 . S
H35 C8 0.929 . S
H36 C13 0.930 . S
H37 C14 0.929 . S
H38 C16 0.930 . S
H39 C17 0.929 . S
Sm40 C42 2.846 . S
Sm40 O60 2.543 . S
Sm40 O61 2.450 . S
Sm40 O62 2.681 . S
Sm40 O63 2.464 . S
Sm40 O64 2.396 . S
Sm40 O68 2.386 . S
Sm40 O71 2.408 . S
Sm41 C51 2.846 . S
Sm41 O62 2.386 . S
Sm41 O65 2.408 . S
Sm41 O66 2.543 . S
Sm41 O67 2.450 . S
Sm41 O68 2.681 . S
Sm41 O69 2.464 . S
Sm41 O70 2.396 . S
C42 Sm40 2.846 . S
C42 C43 1.506 . S
C42 O60 1.261 . S
C42 O61 1.242 . S
C43 C42 1.506 . S
C43 C44 1.358 . S
C43 C48 1.382 . S
C44 C43 1.358 . S
C44 C45 1.385 . S
C44 H72 0.930 . S
C45 C44 1.385 . S
C45 C46 1.395 . S
C45 H73 0.929 . S
C46 C45 1.395 . S
C46 C47 1.335 . S
C47 C46 1.335 . S
C47 C48 1.398 . S
C47 H74 0.930 . S
C48 C43 1.382 . S
C48 C47 1.398 . S
C48 H75 0.929 . S
C49 O62 1.271 . S
C49 O63 1.251 . S
C50 O64 1.252 . S
C50 O65 1.272 . S
C51 Sm41 2.846 . S
C51 C52 1.506 . S
C51 O66 1.261 . S
C51 O67 1.242 . S
C52 C51 1.506 . S
C52 C53 1.358 . S
C52 C57 1.382 . S
C53 C52 1.358 . S
C53 C54 1.385 . S
C53 H76 0.930 . S
C54 C53 1.385 . S
C54 C55 1.395 . S
C54 H77 0.929 . S
C55 C54 1.395 . S
C55 C56 1.335 . S
C56 C55 1.335 . S
C56 C57 1.398 . S
C56 H78 0.930 . S
C57 C52 1.382 . S
C57 C56 1.398 . S
C57 H79 0.929 . S
C58 O68 1.271 . S
C58 O69 1.251 . S
C59 O70 1.252 . S
C59 O71 1.272 . S
O60 Sm40 2.543 . S
O60 C42 1.261 . S
O61 Sm40 2.450 . S
O61 C42 1.242 . S
O62 Sm40 2.681 . S
O62 Sm41 2.386 . S
O62 C49 1.271 . S
O63 Sm40 2.464 . S
O63 C49 1.251 . S
O64 Sm40 2.396 . S
O64 C50 1.252 . S
O65 Sm41 2.408 . S
O65 C50 1.272 . S
O66 Sm41 2.543 . S
O66 C51 1.261 . S
O67 Sm41 2.450 . S
O67 C51 1.242 . S
O68 Sm40 2.386 . S
O68 Sm41 2.681 . S
O68 C58 1.271 . S
O69 Sm41 2.464 . S
O69 C58 1.251 . S
O70 Sm41 2.396 . S
O70 C59 1.252 . S
O71 Sm40 2.408 . S
O71 C59 1.272 . S
H72 C44 0.930 . S
H73 C45 0.929 . S
H74 C47 0.930 . S
H75 C48 0.929 . S
H76 C53 0.930 . S
H77 C54 0.929 . S
H78 C56 0.930 . S
H79 C57 0.929 . S
Sm80 C82 2.846 . S
Sm80 O100 2.543 . S
Sm80 O101 2.450 . S
Sm80 O102 2.681 . S
Sm80 O103 2.464 . S
Sm80 O104 2.396 . S
Sm80 O108 2.386 . S
Sm80 O111 2.408 . S
Sm81 C91 2.846 . S
Sm81 O102 2.386 . S
Sm81 O105 2.408 . S
Sm81 O106 2.543 . S
Sm81 O107 2.450 . S
Sm81 O108 2.681 . S
Sm81 O109 2.464 . S
Sm81 O110 2.396 . S
C82 Sm80 2.846 . S
C82 C83 1.506 . S
C82 O100 1.261 . S
C82 O101 1.242 . S
C83 C82 1.506 . S
C83 C84 1.358 . S
C83 C88 1.382 . S
C84 C83 1.358 . S
C84 C85 1.385 . S
C84 H112 0.930 . S
C85 C84 1.385 . S
C85 C86 1.395 . S
C85 H113 0.929 . S
C86 C85 1.395 . S
C86 C87 1.335 . S
C87 C86 1.335 . S
C87 C88 1.398 . S
C87 H114 0.930 . S
C88 C83 1.382 . S
C88 C87 1.398 . S
C88 H115 0.929 . S
C89 O102 1.271 . S
C89 O103 1.251 . S
C90 O104 1.252 . S
C90 O105 1.272 . S
C91 Sm81 2.846 . S
C91 C92 1.506 . S
C91 O106 1.261 . S
C91 O107 1.242 . S
C92 C91 1.506 . S
C92 C93 1.358 . S
C92 C97 1.382 . S
C93 C92 1.358 . S
C93 C94 1.385 . S
C93 H116 0.930 . S
C94 C93 1.385 . S
C94 C95 1.395 . S
C94 H117 0.929 . S
C95 C94 1.395 . S
C95 C96 1.335 . S
C96 C95 1.335 . S
C96 C97 1.398 . S
C96 H118 0.930 . S
C97 C92 1.382 . S
C97 C96 1.398 . S
C97 H119 0.929 . S
C98 O108 1.271 . S
C98 O109 1.251 . S
C99 O110 1.252 . S
C99 O111 1.272 . S
O100 Sm80 2.543 . S
O100 C82 1.261 . S
O101 Sm80 2.450 . S
O101 C82 1.242 . S
O102 Sm80 2.681 . S
O102 Sm81 2.386 . S
O102 C89 1.271 . S
O103 Sm80 2.464 . S
O103 C89 1.251 . S
O104 Sm80 2.396 . S
O104 C90 1.252 . S
O105 Sm81 2.408 . S
O105 C90 1.272 . S
O106 Sm81 2.543 . S
O106 C91 1.261 . S
O107 Sm81 2.450 . S
O107 C91 1.242 . S
O108 Sm80 2.386 . S
O108 Sm81 2.681 . S
O108 C98 1.271 . S
O109 Sm81 2.464 . S
O109 C98 1.251 . S
O110 Sm81 2.396 . S
O110 C99 1.252 . S
O111 Sm80 2.408 . S
O111 C99 1.272 . S
H112 C84 0.930 . S
H113 C85 0.929 . S
H114 C87 0.930 . S
H115 C88 0.929 . S
H116 C93 0.930 . S
H117 C94 0.929 . S
H118 C96 0.930 . S
H119 C97 0.929 . S
Sm120 C122 2.846 . S
Sm120 O140 2.543 . S
Sm120 O141 2.450 . S
Sm120 O142 2.681 . S
Sm120 O143 2.464 . S
Sm120 O144 2.396 . S
Sm120 O148 2.386 . S
Sm120 O151 2.408 . S
Sm121 C131 2.846 . S
Sm121 O142 2.386 . S
Sm121 O145 2.408 . S
Sm121 O146 2.543 . S
Sm121 O147 2.450 . S
Sm121 O148 2.681 . S
Sm121 O149 2.464 . S
Sm121 O150 2.396 . S
C122 Sm120 2.846 . S
C122 C123 1.506 . S
C122 O140 1.261 . S
C122 O141 1.242 . S
C123 C122 1.506 . S
C123 C124 1.358 1_556 S
C123 C128 1.382 1_556 S
C124 C123 1.358 1_554 S
C124 C125 1.385 . S
C124 H152 0.930 . S
C125 C124 1.385 . S
C125 C126 1.395 . S
C125 H153 0.929 . S
C126 C125 1.395 . S
C126 C127 1.335 . S
C127 C126 1.335 . S
C127 C128 1.398 . S
C127 H154 0.930 . S
C128 C123 1.382 1_554 S
C128 C127 1.398 . S
C128 H155 0.929 1_554 S
C129 O142 1.271 . S
C129 O143 1.251 . S
C130 O144 1.252 . S
C130 O145 1.272 . S
C131 Sm121 2.846 . S
C131 C132 1.506 . S
C131 O146 1.261 . S
C131 O147 1.242 . S
C132 C131 1.506 . S
C132 C133 1.358 . S
C132 C137 1.382 . S
C133 C132 1.358 . S
C133 C134 1.385 . S
C133 H156 0.930 . S
C134 C133 1.385 . S
C134 C135 1.395 . S
C134 H157 0.929 . S
C135 C134 1.395 . S
C135 C136 1.335 . S
C136 C135 1.335 . S
C136 C137 1.398 . S
C136 H158 0.930 . S
C137 C132 1.382 . S
C137 C136 1.398 . S
C137 H159 0.929 . S
C138 O148 1.271 . S
C138 O149 1.251 . S
C139 O150 1.252 . S
C139 O151 1.272 . S
O140 Sm120 2.543 . S
O140 C122 1.261 . S
O141 Sm120 2.450 . S
O141 C122 1.242 . S
O142 Sm120 2.681 . S
O142 Sm121 2.386 . S
O142 C129 1.271 . S
O143 Sm120 2.464 . S
O143 C129 1.251 . S
O144 Sm120 2.396 . S
O144 C130 1.252 . S
O145 Sm121 2.408 . S
O145 C130 1.272 . S
O146 Sm121 2.543 . S
O146 C131 1.261 . S
O147 Sm121 2.450 . S
O147 C131 1.242 . S
O148 Sm120 2.386 . S
O148 Sm121 2.681 . S
O148 C138 1.271 . S
O149 Sm121 2.464 . S
O149 C138 1.251 . S
O150 Sm121 2.396 . S
O150 C139 1.252 . S
O151 Sm120 2.408 . S
O151 C139 1.272 . S
H152 C124 0.930 . S
H153 C125 0.929 . S
H154 C127 0.930 . S
H155 C128 0.929 1_556 S
H156 C133 0.930 . S
H157 C134 0.929 . S
H158 C136 0.930 . S
H159 C137 0.929 . S
Sm160 C162 2.846 1_556 S
Sm160 O180 2.543 . S
Sm160 O181 2.450 . S
Sm160 O182 2.681 . S
Sm160 O183 2.464 . S
Sm160 O184 2.396 . S
Sm160 O188 2.386 . S
Sm160 O191 2.408 . S
Sm161 C171 2.846 . S
Sm161 O182 2.386 1_655 S
Sm161 O185 2.408 . S
Sm161 O186 2.543 . S
Sm161 O187 2.450 . S
Sm161 O188 2.681 1_655 S
Sm161 O189 2.464 . S
Sm161 O190 2.396 1_655 S
C162 Sm160 2.846 1_554 S
C162 C163 1.506 . S
C162 O180 1.261 1_554 S
C162 O181 1.242 1_554 S
C163 C162 1.506 . S
C163 C164 1.358 . S
C163 C168 1.382 . S
C164 C163 1.358 . S
C164 C165 1.385 . S
C164 H192 0.930 . S
C165 C164 1.385 . S
C165 C166 1.395 . S
C165 H193 0.929 . S
C166 C165 1.395 . S
C166 C167 1.335 . S
C167 C166 1.335 . S
C167 C168 1.398 . S
C167 H194 0.930 . S
C168 C163 1.382 . S
C168 C167 1.398 . S
C168 H195 0.929 . S
C169 O182 1.271 . S
C169 O183 1.251 . S
C170 O184 1.252 1_655 S
C170 O185 1.272 . S
C171 Sm161 2.846 . S
C171 C172 1.506 . S
C171 O186 1.261 . S
C171 O187 1.242 . S
C172 C171 1.506 . S
C172 C173 1.358 . S
C172 C177 1.382 . S
C173 C172 1.358 . S
C173 C174 1.385 . S
C173 H196 0.930 . S
C174 C173 1.385 . S
C174 C175 1.395 . S
C174 H197 0.929 . S
C175 C174 1.395 . S
C175 C176 1.335 . S
C176 C175 1.335 . S
C176 C177 1.398 . S
C176 H198 0.930 . S
C177 C172 1.382 . S
C177 C176 1.398 . S
C177 H199 0.929 . S
C178 O188 1.271 . S
C178 O189 1.251 1_455 S
C179 O190 1.252 . S
C179 O191 1.272 . S
O180 Sm160 2.543 . S
O180 C162 1.261 1_556 S
O181 Sm160 2.450 . S
O181 C162 1.242 1_556 S
O182 Sm160 2.681 . S
O182 Sm161 2.386 1_455 S
O182 C169 1.271 . S
O183 Sm160 2.464 . S
O183 C169 1.251 . S
O184 Sm160 2.396 . S
O184 C170 1.252 1_455 S
O185 Sm161 2.408 . S
O185 C170 1.272 . S
O186 Sm161 2.543 . S
O186 C171 1.261 . S
O187 Sm161 2.450 . S
O187 C171 1.242 . S
O188 Sm160 2.386 . S
O188 Sm161 2.681 1_455 S
O188 C178 1.271 . S
O189 Sm161 2.464 . S
O189 C178 1.251 1_655 S
O190 Sm161 2.396 1_455 S
O190 C179 1.252 . S
O191 Sm160 2.408 . S
O191 C179 1.272 . S
H192 C164 0.930 . S
H193 C165 0.929 . S
H194 C167 0.930 . S
H195 C168 0.929 . S
H196 C173 0.930 . S
H197 C174 0.929 . S
H198 C176 0.930 . S
H199 C177 0.929 . S
Sm200 C202 2.846 . S
Sm200 O220 2.543 . S
Sm200 O221 2.450 . S
Sm200 O222 2.681 . S
Sm200 O223 2.464 . S
Sm200 O224 2.396 . S
Sm200 O228 2.386 . S
Sm200 O231 2.408 . S
Sm201 C211 2.846 . S
Sm201 O222 2.386 . S
Sm201 O225 2.408 . S
Sm201 O226 2.543 . S
Sm201 O227 2.450 . S
Sm201 O228 2.681 . S
Sm201 O229 2.464 . S
Sm201 O230 2.396 . S
C202 Sm200 2.846 . S
C202 C203 1.506 . S
C202 O220 1.261 . S
C202 O221 1.242 . S
C203 C202 1.506 . S
C203 C204 1.358 . S
C203 C208 1.382 . S
C204 C203 1.358 . S
C204 C205 1.385 . S
C204 H232 0.930 . S
C205 C204 1.385 . S
C205 C206 1.395 . S
C205 H233 0.929 . S
C206 C205 1.395 . S
C206 C207 1.335 . S
C207 C206 1.335 . S
C207 C208 1.398 . S
C207 H234 0.930 . S
C208 C203 1.382 . S
C208 C207 1.398 . S
C208 H235 0.929 . S
C209 O222 1.271 . S
C209 O223 1.251 . S
C210 O224 1.252 . S
C210 O225 1.272 . S
C211 Sm201 2.846 . S
C211 C212 1.506 . S
C211 O226 1.261 . S
C211 O227 1.242 . S
C212 C211 1.506 . S
C212 C213 1.358 . S
C212 C217 1.382 . S
C213 C212 1.358 . S
C213 C214 1.385 1_554 S
C213 H236 0.930 . S
C214 C213 1.385 1_556 S
C214 C215 1.395 . S
C214 H237 0.929 . S
C215 C214 1.395 . S
C215 C216 1.335 . S
C216 C215 1.335 . S
C216 C217 1.398 1_556 S
C216 H238 0.930 . S
C217 C212 1.382 . S
C217 C216 1.398 1_554 S
C217 H239 0.929 . S
C218 O228 1.271 . S
C218 O229 1.251 . S
C219 O230 1.252 . S
C219 O231 1.272 . S
O220 Sm200 2.543 . S
O220 C202 1.261 . S
O221 Sm200 2.450 . S
O221 C202 1.242 . S
O222 Sm200 2.681 . S
O222 Sm201 2.386 . S
O222 C209 1.271 . S
O223 Sm200 2.464 . S
O223 C209 1.251 . S
O224 Sm200 2.396 . S
O224 C210 1.252 . S
O225 Sm201 2.408 . S
O225 C210 1.272 . S
O226 Sm201 2.543 . S
O226 C211 1.261 . S
O227 Sm201 2.450 . S
O227 C211 1.242 . S
O228 Sm200 2.386 . S
O228 Sm201 2.681 . S
O228 C218 1.271 . S
O229 Sm201 2.464 . S
O229 C218 1.251 . S
O230 Sm201 2.396 . S
O230 C219 1.252 . S
O231 Sm200 2.408 . S
O231 C219 1.272 . S
H232 C204 0.930 . S
H233 C205 0.929 . S
H234 C207 0.930 . S
H235 C208 0.929 . S
H236 C213 0.930 . S
H237 C214 0.929 . S
H238 C216 0.930 . S
H239 C217 0.929 . S
Sm240 C242 2.846 . S
Sm240 O260 2.543 . S
Sm240 O261 2.450 . S
Sm240 O262 2.681 . S
Sm240 O263 2.464 . S
Sm240 O264 2.396 . S
Sm240 O268 2.386 . S
Sm240 O271 2.408 . S
Sm241 C251 2.846 . S
Sm241 O262 2.386 . S
Sm241 O265 2.408 . S
Sm241 O266 2.543 . S
Sm241 O267 2.450 . S
Sm241 O268 2.681 . S
Sm241 O269 2.464 . S
Sm241 O270 2.396 . S
C242 Sm240 2.846 . S
C242 C243 1.506 . S
C242 O260 1.261 . S
C242 O261 1.242 . S
C243 C242 1.506 . S
C243 C244 1.358 . S
C243 C248 1.382 . S
C244 C243 1.358 . S
C244 C245 1.385 . S
C244 H272 0.930 . S
C245 C244 1.385 . S
C245 C246 1.395 . S
C245 H273 0.929 . S
C246 C245 1.395 . S
C246 C247 1.335 . S
C247 C246 1.335 . S
C247 C248 1.398 . S
C247 H274 0.930 . S
C248 C243 1.382 . S
C248 C247 1.398 . S
C248 H275 0.929 . S
C249 O262 1.271 . S
C249 O263 1.251 . S
C250 O264 1.252 . S
C250 O265 1.272 . S
C251 Sm241 2.846 . S
C251 C252 1.506 . S
C251 O266 1.261 . S
C251 O267 1.242 . S
C252 C251 1.506 . S
C252 C253 1.358 . S
C252 C257 1.382 . S
C253 C252 1.358 . S
C253 C254 1.385 . S
C253 H276 0.930 . S
C254 C253 1.385 . S
C254 C255 1.395 . S
C254 H277 0.929 . S
C255 C254 1.395 . S
C255 C256 1.335 . S
C256 C255 1.335 . S
C256 C257 1.398 . S
C256 H278 0.930 . S
C257 C252 1.382 . S
C257 C256 1.398 . S
C257 H279 0.929 . S
C258 O268 1.271 . S
C258 O269 1.251 . S
C259 O270 1.252 . S
C259 O271 1.272 . S
O260 Sm240 2.543 . S
O260 C242 1.261 . S
O261 Sm240 2.450 . S
O261 C242 1.242 . S
O262 Sm240 2.681 . S
O262 Sm241 2.386 . S
O262 C249 1.271 . S
O263 Sm240 2.464 . S
O263 C249 1.251 . S
O264 Sm240 2.396 . S
O264 C250 1.252 . S
O265 Sm241 2.408 . S
O265 C250 1.272 . S
O266 Sm241 2.543 . S
O266 C251 1.261 . S
O267 Sm241 2.450 . S
O267 C251 1.242 . S
O268 Sm240 2.386 . S
O268 Sm241 2.681 . S
O268 C258 1.271 . S
O269 Sm241 2.464 . S
O269 C258 1.251 . S
O270 Sm241 2.396 . S
O270 C259 1.252 . S
O271 Sm240 2.408 . S
O271 C259 1.272 . S
H272 C244 0.930 . S
H273 C245 0.929 . S
H274 C247 0.930 . S
H275 C248 0.929 . S
H276 C253 0.930 . S
H277 C254 0.929 . S
H278 C256 0.930 . S
H279 C257 0.929 . S
Sm280 C282 2.846 . S
Sm280 O300 2.543 . S
Sm280 O301 2.450 . S
Sm280 O302 2.681 . S
Sm280 O303 2.464 . S
Sm280 O304 2.396 . S
Sm280 O308 2.386 . S
Sm280 O311 2.408 . S
Sm281 C291 2.846 . S
Sm281 O302 2.386 . S
Sm281 O305 2.408 . S
Sm281 O306 2.543 . S
Sm281 O307 2.450 . S
Sm281 O308 2.681 . S
Sm281 O309 2.464 . S
Sm281 O310 2.396 . S
C282 Sm280 2.846 . S
C282 C283 1.506 . S
C282 O300 1.261 . S
C282 O301 1.242 . S
C283 C282 1.506 . S
C283 C284 1.358 . S
C283 C288 1.382 . S
C284 C283 1.358 . S
C284 C285 1.385 . S
C284 H312 0.930 . S
C285 C284 1.385 . S
C285 C286 1.395 . S
C285 H313 0.929 . S
C286 C285 1.395 . S
C286 C287 1.335 . S
C287 C286 1.335 . S
C287 C288 1.398 . S
C287 H314 0.930 . S
C288 C283 1.382 . S
C288 C287 1.398 . S
C288 H315 0.929 . S
C289 O302 1.271 . S
C289 O303 1.251 . S
C290 O304 1.252 . S
C290 O305 1.272 . S
C291 Sm281 2.846 . S
C291 C292 1.506 . S
C291 O306 1.261 . S
C291 O307 1.242 . S
C292 C291 1.506 . S
C292 C293 1.358 . S
C292 C297 1.382 . S
C293 C292 1.358 . S
C293 C294 1.385 . S
C293 H316 0.930 . S
C294 C293 1.385 . S
C294 C295 1.395 . S
C294 H317 0.929 . S
C295 C294 1.395 . S
C295 C296 1.335 . S
C296 C295 1.335 . S
C296 C297 1.398 . S
C296 H318 0.930 . S
C297 C292 1.382 . S
C297 C296 1.398 . S
C297 H319 0.929 . S
C298 O308 1.271 . S
C298 O309 1.251 . S
C299 O310 1.252 . S
C299 O311 1.272 . S
O300 Sm280 2.543 . S
O300 C282 1.261 . S
O301 Sm280 2.450 . S
O301 C282 1.242 . S
O302 Sm280 2.681 . S
O302 Sm281 2.386 . S
O302 C289 1.271 . S
O303 Sm280 2.464 . S
O303 C289 1.251 . S
O304 Sm280 2.396 . S
O304 C290 1.252 . S
O305 Sm281 2.408 . S
O305 C290 1.272 . S
O306 Sm281 2.543 . S
O306 C291 1.261 . S
O307 Sm281 2.450 . S
O307 C291 1.242 . S
O308 Sm280 2.386 . S
O308 Sm281 2.681 . S
O308 C298 1.271 . S
O309 Sm281 2.464 . S
O309 C298 1.251 . S
O310 Sm281 2.396 . S
O310 C299 1.252 . S
O311 Sm280 2.408 . S
O311 C299 1.272 . S
H312 C284 0.930 . S
H313 C285 0.929 . S
H314 C287 0.930 . S
H315 C288 0.929 . S
H316 C293 0.930 . S
H317 C294 0.929 . S
H318 C296 0.930 . S
H319 C297 0.929 . S
Sm320 C322 2.846 . S
Sm320 O340 2.543 . S
Sm320 O341 2.450 . S
Sm320 O342 2.681 . S
Sm320 O343 2.464 . S
Sm320 O344 2.396 . S
Sm320 O348 2.386 . S
Sm320 O351 2.408 . S
Sm321 C331 2.846 . S
Sm321 O342 2.386 . S
Sm321 O345 2.408 . S
Sm321 O346 2.543 . S
Sm321 O347 2.450 . S
Sm321 O348 2.681 . S
Sm321 O349 2.464 . S
Sm321 O350 2.396 . S
C322 Sm320 2.846 . S
C322 C323 1.506 . S
C322 O340 1.261 . S
C322 O341 1.242 . S
C323 C322 1.506 . S
C323 C324 1.358 . S
C323 C328 1.382 . S
C324 C323 1.358 . S
C324 C325 1.385 . S
C324 H352 0.930 . S
C325 C324 1.385 . S
C325 C326 1.395 . S
C325 H353 0.929 . S
C326 C325 1.395 . S
C326 C327 1.335 . S
C327 C326 1.335 . S
C327 C328 1.398 . S
C327 H354 0.930 . S
C328 C323 1.382 . S
C328 C327 1.398 . S
C328 H355 0.929 . S
C329 O342 1.271 . S
C329 O343 1.251 . S
C330 O344 1.252 . S
C330 O345 1.272 . S
C331 Sm321 2.846 . S
C331 C332 1.506 . S
C331 O346 1.261 . S
C331 O347 1.242 . S
C332 C331 1.506 . S
C332 C333 1.358 . S
C332 C337 1.382 . S
C333 C332 1.358 . S
C333 C334 1.385 . S
C333 H356 0.930 . S
C334 C333 1.385 . S
C334 C335 1.395 . S
C334 H357 0.929 . S
C335 C334 1.395 . S
C335 C336 1.335 . S
C336 C335 1.335 . S
C336 C337 1.398 . S
C336 H358 0.930 . S
C337 C332 1.382 . S
C337 C336 1.398 . S
C337 H359 0.929 . S
C338 O348 1.271 . S
C338 O349 1.251 . S
C339 O350 1.252 . S
C339 O351 1.272 . S
O340 Sm320 2.543 . S
O340 C322 1.261 . S
O341 Sm320 2.450 . S
O341 C322 1.242 . S
O342 Sm320 2.681 . S
O342 Sm321 2.386 . S
O342 C329 1.271 . S
O343 Sm320 2.464 . S
O343 C329 1.251 . S
O344 Sm320 2.396 . S
O344 C330 1.252 . S
O345 Sm321 2.408 . S
O345 C330 1.272 . S
O346 Sm321 2.543 . S
O346 C331 1.261 . S
O347 Sm321 2.450 . S
O347 C331 1.242 . S
O348 Sm320 2.386 . S
O348 Sm321 2.681 . S
O348 C338 1.271 . S
O349 Sm321 2.464 . S
O349 C338 1.251 . S
O350 Sm321 2.396 . S
O350 C339 1.252 . S
O351 Sm320 2.408 . S
O351 C339 1.272 . S
H352 C324 0.930 . S
H353 C325 0.929 . S
H354 C327 0.930 . S
H355 C328 0.929 . S
H356 C333 0.930 . S
H357 C334 0.929 . S
H358 C336 0.930 . S
H359 C337 0.929 . S
Sm360 C362 2.846 . S
Sm360 O380 2.543 . S
Sm360 O381 2.450 . S
Sm360 O382 2.681 . S
Sm360 O383 2.464 . S
Sm360 O384 2.396 . S
Sm360 O388 2.386 . S
Sm360 O391 2.408 . S
Sm361 C371 2.846 1_554 S
Sm361 O382 2.386 . S
Sm361 O385 2.408 . S
Sm361 O386 2.543 1_554 S
Sm361 O387 2.450 . S
Sm361 O388 2.681 . S
Sm361 O389 2.464 . S
Sm361 O390 2.396 . S
C362 Sm360 2.846 . S
C362 C363 1.506 . S
C362 O380 1.261 . S
C362 O381 1.242 . S
C363 C362 1.506 . S
C363 C364 1.358 . S
C363 C368 1.382 . S
C364 C363 1.358 . S
C364 C365 1.385 . S
C364 H392 0.930 . S
C365 C364 1.385 . S
C365 C366 1.395 . S
C365 H393 0.929 . S
C366 C365 1.395 . S
C366 C367 1.335 . S
C367 C366 1.335 . S
C367 C368 1.398 . S
C367 H394 0.930 . S
C368 C363 1.382 . S
C368 C367 1.398 . S
C368 H395 0.929 . S
C369 O382 1.271 . S
C369 O383 1.251 . S
C370 O384 1.252 . S
C370 O385 1.272 . S
C371 Sm361 2.846 1_556 S
C371 C372 1.506 . S
C371 O386 1.261 . S
C371 O387 1.242 1_556 S
C372 C371 1.506 . S
C372 C373 1.358 . S
C372 C377 1.382 . S
C373 C372 1.358 . S
C373 C374 1.385 . S
C373 H396 0.930 . S
C374 C373 1.385 . S
C374 C375 1.395 . S
C374 H397 0.929 . S
C375 C374 1.395 . S
C375 C376 1.335 . S
C376 C375 1.335 . S
C376 C377 1.398 . S
C376 H398 0.930 . S
C377 C372 1.382 . S
C377 C376 1.398 . S
C377 H399 0.929 . S
C378 O388 1.271 . S
C378 O389 1.251 . S
C379 O390 1.252 . S
C379 O391 1.272 . S
O380 Sm360 2.543 . S
O380 C362 1.261 . S
O381 Sm360 2.450 . S
O381 C362 1.242 . S
O382 Sm360 2.681 . S
O382 Sm361 2.386 . S
O382 C369 1.271 . S
O383 Sm360 2.464 . S
O383 C369 1.251 . S
O384 Sm360 2.396 . S
O384 C370 1.252 . S
O385 Sm361 2.408 . S
O385 C370 1.272 . S
O386 Sm361 2.543 1_556 S
O386 C371 1.261 . S
O387 Sm361 2.450 . S
O387 C371 1.242 1_554 S
O388 Sm360 2.386 . S
O388 Sm361 2.681 . S
O388 C378 1.271 . S
O389 Sm361 2.464 . S
O389 C378 1.251 . S
O390 Sm361 2.396 . S
O390 C379 1.252 . S
O391 Sm360 2.408 . S
O391 C379 1.272 . S
H392 C364 0.930 . S
H393 C365 0.929 . S
H394 C367 0.930 . S
H395 C368 0.929 . S
H396 C373 0.930 . S
H397 C374 0.929 . S
H398 C376 0.930 . S
H399 C377 0.929 . S
Sm400 C402 2.846 . S
Sm400 O420 2.543 . S
Sm400 O421 2.450 . S
Sm400 O422 2.681 . S
Sm400 O423 2.464 . S
Sm400 O424 2.396 . S
Sm400 O428 2.386 . S
Sm400 O431 2.408 . S
Sm401 C411 2.846 . S
Sm401 O422 2.386 . S
Sm401 O425 2.408 . S
Sm401 O426 2.543 . S
Sm401 O427 2.450 . S
Sm401 O428 2.681 . S
Sm401 O429 2.464 . S
Sm401 O430 2.396 . S
C402 Sm400 2.846 . S
C402 C403 1.506 1_556 S
C402 O420 1.261 . S
C402 O421 1.242 . S
C403 C402 1.506 1_554 S
C403 C404 1.358 . S
C403 C408 1.382 . S
C404 C403 1.358 . S
C404 C405 1.385 . S
C404 H432 0.930 . S
C405 C404 1.385 . S
C405 C406 1.395 . S
C405 H433 0.929 . S
C406 C405 1.395 . S
C406 C407 1.335 . S
C407 C406 1.335 . S
C407 C408 1.398 . S
C407 H434 0.930 . S
C408 C403 1.382 . S
C408 C407 1.398 . S
C408 H435 0.929 . S
C409 O422 1.271 . S
C409 O423 1.251 . S
C410 O424 1.252 . S
C410 O425 1.272 . S
C411 Sm401 2.846 . S
C411 C412 1.506 . S
C411 O426 1.261 . S
C411 O427 1.242 . S
C412 C411 1.506 . S
C412 C413 1.358 . S
C412 C417 1.382 . S
C413 C412 1.358 . S
C413 C414 1.385 . S
C413 H436 0.930 . S
C414 C413 1.385 . S
C414 C415 1.395 . S
C414 H437 0.929 . S
C415 C414 1.395 . S
C415 C416 1.335 . S
C416 C415 1.335 . S
C416 C417 1.398 . S
C416 H438 0.930 . S
C417 C412 1.382 . S
C417 C416 1.398 . S
C417 H439 0.929 . S
C418 O428 1.271 . S
C418 O429 1.251 . S
C419 O430 1.252 . S
C419 O431 1.272 . S
O420 Sm400 2.543 . S
O420 C402 1.261 . S
O421 Sm400 2.450 . S
O421 C402 1.242 . S
O422 Sm400 2.681 . S
O422 Sm401 2.386 . S
O422 C409 1.271 . S
O423 Sm400 2.464 . S
O423 C409 1.251 . S
O424 Sm400 2.396 . S
O424 C410 1.252 . S
O425 Sm401 2.408 . S
O425 C410 1.272 . S
O426 Sm401 2.543 . S
O426 C411 1.261 . S
O427 Sm401 2.450 . S
O427 C411 1.242 . S
O428 Sm400 2.386 . S
O428 Sm401 2.681 . S
O428 C418 1.271 . S
O429 Sm401 2.464 . S
O429 C418 1.251 . S
O430 Sm401 2.396 . S
O430 C419 1.252 . S
O431 Sm400 2.408 . S
O431 C419 1.272 . S
H432 C404 0.930 . S
H433 C405 0.929 . S
H434 C407 0.930 . S
H435 C408 0.929 . S
H436 C413 0.930 . S
H437 C414 0.929 . S
H438 C416 0.930 . S
H439 C417 0.929 . S
Sm440 C442 2.846 . S
Sm440 O460 2.543 . S
Sm440 O461 2.450 . S
Sm440 O462 2.681 . S
Sm440 O463 2.464 . S
Sm440 O464 2.396 . S
Sm440 O468 2.386 . S
Sm440 O471 2.408 . S
Sm441 C451 2.846 . S
Sm441 O462 2.386 . S
Sm441 O465 2.408 . S
Sm441 O466 2.543 . S
Sm441 O467 2.450 . S
Sm441 O468 2.681 . S
Sm441 O469 2.464 . S
Sm441 O470 2.396 . S
C442 Sm440 2.846 . S
C442 C443 1.506 . S
C442 O460 1.261 . S
C442 O461 1.242 . S
C443 C442 1.506 . S
C443 C444 1.358 . S
C443 C448 1.382 . S
C444 C443 1.358 . S
C444 C445 1.385 . S
C444 H472 0.930 . S
C445 C444 1.385 . S
C445 C446 1.395 . S
C445 H473 0.929 . S
C446 C445 1.395 . S
C446 C447 1.335 . S
C447 C446 1.335 . S
C447 C448 1.398 . S
C447 H474 0.930 . S
C448 C443 1.382 . S
C448 C447 1.398 . S
C448 H475 0.929 . S
C449 O462 1.271 . S
C449 O463 1.251 . S
C450 O464 1.252 . S
C450 O465 1.272 . S
C451 Sm441 2.846 . S
C451 C452 1.506 . S
C451 O466 1.261 . S
C451 O467 1.242 . S
C452 C451 1.506 . S
C452 C453 1.358 . S
C452 C457 1.382 . S
C453 C452 1.358 . S
C453 C454 1.385 . S
C453 H476 0.930 . S
C454 C453 1.385 . S
C454 C455 1.395 . S
C454 H477 0.929 . S
C455 C454 1.395 . S
C455 C456 1.335 . S
C456 C455 1.335 . S
C456 C457 1.398 . S
C456 H478 0.930 . S
C457 C452 1.382 . S
C457 C456 1.398 . S
C457 H479 0.929 . S
C458 O468 1.271 . S
C458 O469 1.251 . S
C459 O470 1.252 . S
C459 O471 1.272 . S
O460 Sm440 2.543 . S
O460 C442 1.261 . S
O461 Sm440 2.450 . S
O461 C442 1.242 . S
O462 Sm440 2.681 . S
O462 Sm441 2.386 . S
O462 C449 1.271 . S
O463 Sm440 2.464 . S
O463 C449 1.251 . S
O464 Sm440 2.396 . S
O464 C450 1.252 . S
O465 Sm441 2.408 . S
O465 C450 1.272 . S
O466 Sm441 2.543 . S
O466 C451 1.261 . S
O467 Sm441 2.450 . S
O467 C451 1.242 . S
O468 Sm440 2.386 . S
O468 Sm441 2.681 . S
O468 C458 1.271 . S
O469 Sm441 2.464 . S
O469 C458 1.251 . S
O470 Sm441 2.396 . S
O470 C459 1.252 . S
O471 Sm440 2.408 . S
O471 C459 1.272 . S
H472 C444 0.930 . S
H473 C445 0.929 . S
H474 C447 0.930 . S
H475 C448 0.929 . S
H476 C453 0.930 . S
H477 C454 0.929 . S
H478 C456 0.930 . S
H479 C457 0.929 . S
Sm480 C482 2.846 . S
Sm480 O500 2.543 . S
Sm480 O501 2.450 . S
Sm480 O502 2.681 . S
Sm480 O503 2.464 . S
Sm480 O504 2.396 . S
Sm480 O508 2.386 . S
Sm480 O511 2.408 . S
Sm481 C491 2.846 . S
Sm481 O502 2.386 . S
Sm481 O505 2.408 . S
Sm481 O506 2.543 . S
Sm481 O507 2.450 . S
Sm481 O508 2.681 . S
Sm481 O509 2.464 . S
Sm481 O510 2.396 . S
C482 Sm480 2.846 . S
C482 C483 1.506 . S
C482 O500 1.261 . S
C482 O501 1.242 . S
C483 C482 1.506 . S
C483 C484 1.358 . S
C483 C488 1.382 . S
C484 C483 1.358 . S
C484 C485 1.385 . S
C484 H512 0.930 . S
C485 C484 1.385 . S
C485 C486 1.395 . S
C485 H513 0.929 . S
C486 C485 1.395 . S
C486 C487 1.335 . S
C487 C486 1.335 . S
C487 C488 1.398 . S
C487 H514 0.930 . S
C488 C483 1.382 . S
C488 C487 1.398 . S
C488 H515 0.929 . S
C489 O502 1.271 . S
C489 O503 1.251 . S
C490 O504 1.252 . S
C490 O505 1.272 . S
C491 Sm481 2.846 . S
C491 C492 1.506 . S
C491 O506 1.261 . S
C491 O507 1.242 . S
C492 C491 1.506 . S
C492 C493 1.358 . S
C492 C497 1.382 . S
C493 C492 1.358 . S
C493 C494 1.385 . S
C493 H516 0.930 . S
C494 C493 1.385 . S
C494 C495 1.395 . S
C494 H517 0.929 . S
C495 C494 1.395 . S
C495 C496 1.335 . S
C496 C495 1.335 . S
C496 C497 1.398 . S
C496 H518 0.930 . S
C497 C492 1.382 . S
C497 C496 1.398 . S
C497 H519 0.929 . S
C498 O508 1.271 . S
C498 O509 1.251 . S
C499 O510 1.252 . S
C499 O511 1.272 . S
O500 Sm480 2.543 . S
O500 C482 1.261 . S
O501 Sm480 2.450 . S
O501 C482 1.242 . S
O502 Sm480 2.681 . S
O502 Sm481 2.386 . S
O502 C489 1.271 . S
O503 Sm480 2.464 . S
O503 C489 1.251 . S
O504 Sm480 2.396 . S
O504 C490 1.252 . S
O505 Sm481 2.408 . S
O505 C490 1.272 . S
O506 Sm481 2.543 . S
O506 C491 1.261 . S
O507 Sm481 2.450 . S
O507 C491 1.242 . S
O508 Sm480 2.386 . S
O508 Sm481 2.681 . S
O508 C498 1.271 . S
O509 Sm481 2.464 . S
O509 C498 1.251 . S
O510 Sm481 2.396 . S
O510 C499 1.252 . S
O511 Sm480 2.408 . S
O511 C499 1.272 . S
H512 C484 0.930 . S
H513 C485 0.929 . S
H514 C487 0.930 . S
H515 C488 0.929 . S
H516 C493 0.930 . S
H517 C494 0.929 . S
H518 C496 0.930 . S
H519 C497 0.929 . S
Sm520 C522 2.846 . S
Sm520 O540 2.543 . S
Sm520 O541 2.450 . S
Sm520 O542 2.681 1_655 S
Sm520 O543 2.464 . S
Sm520 O544 2.396 1_655 S
Sm520 O548 2.386 1_655 S
Sm520 O551 2.408 . S
Sm521 C531 2.846 . S
Sm521 O542 2.386 . S
Sm521 O545 2.408 . S
Sm521 O546 2.543 . S
Sm521 O547 2.450 . S
Sm521 O548 2.681 . S
Sm521 O549 2.464 . S
Sm521 O550 2.396 . S
C522 Sm520 2.846 . S
C522 C523 1.506 . S
C522 O540 1.261 . S
C522 O541 1.242 . S
C523 C522 1.506 . S
C523 C524 1.358 . S
C523 C528 1.382 . S
C524 C523 1.358 . S
C524 C525 1.385 . S
C524 H552 0.930 . S
C525 C524 1.385 . S
C525 C526 1.395 . S
C525 H553 0.929 . S
C526 C525 1.395 . S
C526 C527 1.335 . S
C527 C526 1.335 . S
C527 C528 1.398 . S
C527 H554 0.930 . S
C528 C523 1.382 . S
C528 C527 1.398 . S
C528 H555 0.929 . S
C529 O542 1.271 . S
C529 O543 1.251 1_455 S
C530 O544 1.252 . S
C530 O545 1.272 . S
C531 Sm521 2.846 . S
C531 C532 1.506 1_554 S
C531 O546 1.261 . S
C531 O547 1.242 . S
C532 C531 1.506 1_556 S
C532 C533 1.358 . S
C532 C537 1.382 . S
C533 C532 1.358 . S
C533 C534 1.385 . S
C533 H556 0.930 . S
C534 C533 1.385 . S
C534 C535 1.395 . S
C534 H557 0.929 . S
C535 C534 1.395 . S
C535 C536 1.335 . S
C536 C535 1.335 . S
C536 C537 1.398 . S
C536 H558 0.930 . S
C537 C532 1.382 . S
C537 C536 1.398 . S
C537 H559 0.929 . S
C538 O548 1.271 . S
C538 O549 1.251 . S
C539 O550 1.252 1_655 S
C539 O551 1.272 . S
O540 Sm520 2.543 . S
O540 C522 1.261 . S
O541 Sm520 2.450 . S
O541 C522 1.242 . S
O542 Sm520 2.681 1_455 S
O542 Sm521 2.386 . S
O542 C529 1.271 . S
O543 Sm520 2.464 . S
O543 C529 1.251 1_655 S
O544 Sm520 2.396 1_455 S
O544 C530 1.252 . S
O545 Sm521 2.408 . S
O545 C530 1.272 . S
O546 Sm521 2.543 . S
O546 C531 1.261 . S
O547 Sm521 2.450 . S
O547 C531 1.242 . S
O548 Sm520 2.386 1_455 S
O548 Sm521 2.681 . S
O548 C538 1.271 . S
O549 Sm521 2.464 . S
O549 C538 1.251 . S
O550 Sm521 2.396 . S
O550 C539 1.252 1_455 S
O551 Sm520 2.408 . S
O551 C539 1.272 . S
H552 C524 0.930 . S
H553 C525 0.929 . S
H554 C527 0.930 . S
H555 C528 0.929 . S
H556 C533 0.930 . S
H557 C534 0.929 . S
H558 C536 0.930 . S
H559 C537 0.929 . S
Sm560 C562 2.846 . S
Sm560 O580 2.543 . S
Sm560 O581 2.450 . S
Sm560 O582 2.681 . S
Sm560 O583 2.464 . S
Sm560 O584 2.396 . S
Sm560 O588 2.386 . S
Sm560 O591 2.408 . S
Sm561 C571 2.846 . S
Sm561 O582 2.386 . S
Sm561 O585 2.408 . S
Sm561 O586 2.543 . S
Sm561 O587 2.450 . S
Sm561 O588 2.681 . S
Sm561 O589 2.464 . S
Sm561 O590 2.396 . S
C562 Sm560 2.846 . S
C562 C563 1.506 . S
C562 O580 1.261 . S
C562 O581 1.242 . S
C563 C562 1.506 . S
C563 C564 1.358 . S
C563 C568 1.382 . S
C564 C563 1.358 . S
C564 C565 1.385 . S
C564 H592 0.930 . S
C565 C564 1.385 . S
C565 C566 1.395 . S
C565 H593 0.929 . S
C566 C565 1.395 . S
C566 C567 1.335 . S
C567 C566 1.335 . S
C567 C568 1.398 . S
C567 H594 0.930 . S
C568 C563 1.382 . S
C568 C567 1.398 . S
C568 H595 0.929 . S
C569 O582 1.271 . S
C569 O583 1.251 . S
C570 O584 1.252 . S
C570 O585 1.272 . S
C571 Sm561 2.846 . S
C571 C572 1.506 . S
C571 O586 1.261 . S
C571 O587 1.242 . S
C572 C571 1.506 . S
C572 C573 1.358 . S
C572 C577 1.382 . S
C573 C572 1.358 . S
C573 C574 1.385 . S
C573 H596 0.930 . S
C574 C573 1.385 . S
C574 C575 1.395 . S
C574 H597 0.929 . S
C575 C574 1.395 . S
C575 C576 1.335 . S
C576 C575 1.335 . S
C576 C577 1.398 . S
C576 H598 0.930 . S
C577 C572 1.382 . S
C577 C576 1.398 . S
C577 H599 0.929 . S
C578 O588 1.271 . S
C578 O589 1.251 . S
C579 O590 1.252 . S
C579 O591 1.272 . S
O580 Sm560 2.543 . S
O580 C562 1.261 . S
O581 Sm560 2.450 . S
O581 C562 1.242 . S
O582 Sm560 2.681 . S
O582 Sm561 2.386 . S
O582 C569 1.271 . S
O583 Sm560 2.464 . S
O583 C569 1.251 . S
O584 Sm560 2.396 . S
O584 C570 1.252 . S
O585 Sm561 2.408 . S
O585 C570 1.272 . S
O586 Sm561 2.543 . S
O586 C571 1.261 . S
O587 Sm561 2.450 . S
O587 C571 1.242 . S
O588 Sm560 2.386 . S
O588 Sm561 2.681 . S
O588 C578 1.271 . S
O589 Sm561 2.464 . S
O589 C578 1.251 . S
O590 Sm561 2.396 . S
O590 C579 1.252 . S
O591 Sm560 2.408 . S
O591 C579 1.272 . S
H592 C564 0.930 . S
H593 C565 0.929 . S
H594 C567 0.930 . S
H595 C568 0.929 . S
H596 C573 0.930 . S
H597 C574 0.929 . S
H598 C576 0.930 . S
H599 C577 0.929 . S
Sm600 C602 2.846 . S
Sm600 O620 2.543 . S
Sm600 O621 2.450 . S
Sm600 O622 2.681 1_655 S
Sm600 O623 2.464 . S
Sm600 O624 2.396 1_655 S
Sm600 O628 2.386 1_655 S
Sm600 O631 2.408 . S
Sm601 C611 2.846 . S
Sm601 O622 2.386 . S
Sm601 O625 2.408 . S
Sm601 O626 2.543 . S
Sm601 O627 2.450 . S
Sm601 O628 2.681 . S
Sm601 O629 2.464 . S
Sm601 O630 2.396 . S
C602 Sm600 2.846 . S
C602 C603 1.506 1_556 S
C602 O620 1.261 . S
C602 O621 1.242 . S
C603 C602 1.506 1_554 S
C603 C604 1.358 . S
C603 C608 1.382 . S
C604 C603 1.358 . S
C604 C605 1.385 . S
C604 H632 0.930 . S
C605 C604 1.385 . S
C605 C606 1.395 . S
C605 H633 0.929 . S
C606 C605 1.395 . S
C606 C607 1.335 . S
C607 C606 1.335 . S
C607 C608 1.398 . S
C607 H634 0.930 . S
C608 C603 1.382 . S
C608 C607 1.398 . S
C608 H635 0.929 . S
C609 O622 1.271 . S
C609 O623 1.251 1_455 S
C610 O624 1.252 . S
C610 O625 1.272 . S
C611 Sm601 2.846 . S
C611 C612 1.506 . S
C611 O626 1.261 . S
C611 O627 1.242 . S
C612 C611 1.506 . S
C612 C613 1.358 . S
C612 C617 1.382 . S
C613 C612 1.358 . S
C613 C614 1.385 . S
C613 H636 0.930 . S
C614 C613 1.385 . S
C614 C615 1.395 . S
C614 H637 0.929 . S
C615 C614 1.395 . S
C615 C616 1.335 . S
C616 C615 1.335 . S
C616 C617 1.398 . S
C616 H638 0.930 . S
C617 C612 1.382 . S
C617 C616 1.398 . S
C617 H639 0.929 . S
C618 O628 1.271 . S
C618 O629 1.251 . S
C619 O630 1.252 1_655 S
C619 O631 1.272 . S
O620 Sm600 2.543 . S
O620 C602 1.261 . S
O621 Sm600 2.450 . S
O621 C602 1.242 . S
O622 Sm600 2.681 1_455 S
O622 Sm601 2.386 . S
O622 C609 1.271 . S
O623 Sm600 2.464 . S
O623 C609 1.251 1_655 S
O624 Sm600 2.396 1_455 S
O624 C610 1.252 . S
O625 Sm601 2.408 . S
O625 C610 1.272 . S
O626 Sm601 2.543 . S
O626 C611 1.261 . S
O627 Sm601 2.450 . S
O627 C611 1.242 . S
O628 Sm600 2.386 1_455 S
O628 Sm601 2.681 . S
O628 C618 1.271 . S
O629 Sm601 2.464 . S
O629 C618 1.251 . S
O630 Sm601 2.396 . S
O630 C619 1.252 1_455 S
O631 Sm600 2.408 . S
O631 C619 1.272 . S
H632 C604 0.930 . S
H633 C605 0.929 . S
H634 C607 0.930 . S
H635 C608 0.929 . S
H636 C613 0.930 . S
H637 C614 0.929 . S
H638 C616 0.930 . S
H639 C617 0.929 . S
H640 C646 0.930 . S
H641 C649 0.930 . S
H642 C650 0.930 . S
H643 C651 0.930 . S
H644 C654 0.930 . S
H645 C655 0.930 . S
C646 H640 0.930 . S
C646 C647 1.355 . S
C646 C648 1.415 . S
C647 C646 1.355 . S
C647 C649 1.419 . S
C648 C646 1.415 . S
C648 C653 1.425 . S
C648 C655 1.409 . S
C649 H641 0.930 . S
C649 C647 1.419 . S
C649 C650 1.362 . S
C650 H642 0.930 . S
C650 C649 1.362 . S
C650 C653 1.409 . S
C651 H643 0.930 . S
C651 C652 1.355 . S
C651 C653 1.415 . S
C652 C651 1.355 . S
C652 C654 1.419 . S
C653 C648 1.425 . S
C653 C650 1.409 . S
C653 C651 1.415 . S
C654 H644 0.930 . S
C654 C652 1.419 . S
C654 C655 1.362 . S
C655 H645 0.930 . S
C655 C648 1.409 . S
C655 C654 1.362 . S
H656 C662 0.930 . S
H657 C665 0.930 . S
H658 C666 0.930 . S
H659 C667 0.930 . S
H660 C670 0.930 . S
H661 C671 0.930 . S
C662 H656 0.930 . S
C662 C663 1.355 . S
C662 C664 1.415 . S
C663 C662 1.355 . S
C663 C665 1.419 . S
C664 C662 1.415 . S
C664 C669 1.425 . S
C664 C671 1.409 . S
C665 H657 0.930 . S
C665 C663 1.419 . S
C665 C666 1.362 . S
C666 H658 0.930 . S
C666 C665 1.362 . S
C666 C669 1.409 . S
C667 H659 0.930 . S
C667 C668 1.355 . S
C667 C669 1.415 . S
C668 C667 1.355 . S
C668 C670 1.419 . S
C669 C664 1.425 . S
C669 C666 1.409 . S
C669 C667 1.415 . S
C670 H660 0.930 . S
C670 C668 1.419 . S
C670 C671 1.362 . S
C671 H661 0.930 . S
C671 C664 1.409 . S
C671 C670 1.362 . S
H672 C678 0.930 . S
H673 C681 0.930 . S
H674 C682 0.930 . S
H675 C683 0.930 . S
H676 C686 0.930 . S
H677 C687 0.930 . S
C678 H672 0.930 . S
C678 C679 1.355 . S
C678 C680 1.415 . S
C679 C678 1.355 . S
C679 C681 1.419 . S
C680 C678 1.415 . S
C680 C685 1.425 . S
C680 C687 1.409 . S
C681 H673 0.930 . S
C681 C679 1.419 . S
C681 C682 1.362 . S
C682 H674 0.930 . S
C682 C681 1.362 . S
C682 C685 1.409 . S
C683 H675 0.930 . S
C683 C684 1.355 . S
C683 C685 1.415 . S
C684 C683 1.355 . S
C684 C686 1.419 . S
C685 C680 1.425 . S
C685 C682 1.409 . S
C685 C683 1.415 . S
C686 H676 0.930 . S
C686 C684 1.419 . S
C686 C687 1.362 . S
C687 H677 0.930 . S
C687 C680 1.409 . S
C687 C686 1.362 . S
H688 C694 0.930 . S
H689 C697 0.930 . S
H690 C698 0.930 . S
H691 C699 0.930 . S
H692 C702 0.930 . S
H693 C703 0.930 . S
C694 H688 0.930 . S
C694 C695 1.355 . S
C694 C696 1.415 . S
C695 C694 1.355 . S
C695 C697 1.419 . S
C696 C694 1.415 . S
C696 C701 1.425 . S
C696 C703 1.409 . S
C697 H689 0.930 . S
C697 C695 1.419 . S
C697 C698 1.362 . S
C698 H690 0.930 . S
C698 C697 1.362 . S
C698 C701 1.409 . S
C699 H691 0.930 . S
C699 C700 1.355 . S
C699 C701 1.415 . S
C700 C699 1.355 . S
C700 C702 1.419 . S
C701 C696 1.425 . S
C701 C698 1.409 . S
C701 C699 1.415 . S
C702 H692 0.930 . S
C702 C700 1.419 . S
C702 C703 1.362 . S
C703 H693 0.930 . S
C703 C696 1.409 . S
C703 C702 1.362 . S
H704 C710 0.930 . S
H705 C713 0.930 . S
H706 C714 0.930 . S
H707 C715 0.930 . S
H708 C718 0.930 . S
H709 C719 0.930 1_556 S
C710 H704 0.930 . S
C710 C711 1.355 . S
C710 C712 1.415 . S
C711 C710 1.355 . S
C711 C713 1.419 . S
C712 C710 1.415 . S
C712 C717 1.425 . S
C712 C719 1.411 . S
C713 H705 0.930 . S
C713 C711 1.419 . S
C713 C714 1.362 . S
C714 H706 0.930 . S
C714 C713 1.362 . S
C714 C717 1.409 . S
C715 H707 0.930 . S
C715 C716 1.355 1_554 S
C715 C717 1.415 . S
C716 C715 1.355 1_556 S
C716 C718 1.419 . S
C717 C712 1.425 . S
C717 C714 1.409 . S
C717 C715 1.415 . S
C718 H708 0.930 . S
C718 C716 1.419 . S
C718 C719 1.361 1_556 S
C719 H709 0.930 1_554 S
C719 C712 1.411 . S
C719 C718 1.361 1_554 S
H720 C726 0.930 . S
H721 C729 0.930 . S
H722 C730 0.930 . S
H723 C731 0.930 . S
H724 C734 0.930 . S
H725 C735 0.930 . S
C726 H720 0.930 . S
C726 C727 1.355 . S
C726 C728 1.415 . S
C727 C726 1.355 . S
C727 C729 1.419 . S
C728 C726 1.415 . S
C728 C733 1.425 . S
C728 C735 1.409 . S
C729 H721 0.930 . S
C729 C727 1.419 . S
C729 C730 1.362 . S
C730 H722 0.930 . S
C730 C729 1.362 . S
C730 C733 1.409 . S
C731 H723 0.930 . S
C731 C732 1.355 . S
C731 C733 1.415 . S
C732 C731 1.355 . S
C732 C734 1.419 . S
C733 C728 1.425 . S
C733 C730 1.409 . S
C733 C731 1.415 . S
C734 H724 0.930 . S
C734 C732 1.419 . S
C734 C735 1.362 . S
C735 H725 0.930 . S
C735 C728 1.409 . S
C735 C734 1.362 . S
H736 C742 0.930 . S
H737 C745 0.930 . S
H738 C746 0.930 . S
H739 C747 0.930 . S
H740 C750 0.930 . S
H741 C751 0.930 . S
C742 H736 0.930 . S
C742 C743 1.355 . S
C742 C744 1.415 . S
C743 C742 1.355 . S
C743 C745 1.419 . S
C744 C742 1.415 . S
C744 C749 1.425 . S
C744 C751 1.409 . S
C745 H737 0.930 . S
C745 C743 1.419 . S
C745 C746 1.362 . S
C746 H738 0.930 . S
C746 C745 1.362 . S
C746 C749 1.409 . S
C747 H739 0.930 . S
C747 C748 1.355 . S
C747 C749 1.415 . S
C748 C747 1.355 . S
C748 C750 1.419 . S
C749 C744 1.425 . S
C749 C746 1.409 . S
C749 C747 1.415 . S
C750 H740 0.930 . S
C750 C748 1.419 . S
C750 C751 1.362 . S
C751 H741 0.930 . S
C751 C744 1.409 . S
C751 C750 1.362 . S
H752 C758 0.930 . S
H753 C761 0.930 . S
H754 C762 0.930 . S
H755 C763 0.930 . S
H756 C766 0.930 . S
H757 C767 0.930 . S
C758 H752 0.930 . S
C758 C759 1.355 . S
C758 C760 1.415 . S
C759 C758 1.355 . S
C759 C761 1.419 . S
C760 C758 1.415 . S
C760 C765 1.425 . S
C760 C767 1.409 . S
C761 H753 0.930 . S
C761 C759 1.419 . S
C761 C762 1.362 . S
C762 H754 0.930 . S
C762 C761 1.362 . S
C762 C765 1.409 . S
C763 H755 0.930 . S
C763 C764 1.355 . S
C763 C765 1.415 . S
C764 C763 1.355 . S
C764 C766 1.419 . S
C765 C760 1.425 . S
C765 C762 1.409 . S
C765 C763 1.415 . S
C766 H756 0.930 . S
C766 C764 1.419 . S
C766 C767 1.362 . S
C767 H757 0.930 . S
C767 C760 1.409 . S
C767 C766 1.362 . S
H768 C774 0.930 . S
H769 C777 0.930 . S
H770 C778 0.930 . S
H771 C779 0.930 . S
H772 C782 0.930 . S
H773 C783 0.930 . S
C774 H768 0.930 . S
C774 C775 1.355 . S
C774 C776 1.415 . S
C775 C774 1.355 . S
C775 C777 1.419 . S
C776 C774 1.415 . S
C776 C781 1.425 . S
C776 C783 1.409 . S
C777 H769 0.930 . S
C777 C775 1.419 . S
C777 C778 1.362 . S
C778 H770 0.930 . S
C778 C777 1.362 . S
C778 C781 1.409 . S
C779 H771 0.930 . S
C779 C780 1.355 . S
C779 C781 1.415 . S
C780 C779 1.355 . S
C780 C782 1.419 . S
C781 C776 1.425 . S
C781 C778 1.409 . S
C781 C779 1.415 . S
C782 H772 0.930 . S
C782 C780 1.419 . S
C782 C783 1.362 . S
C783 H773 0.930 . S
C783 C776 1.409 . S
C783 C782 1.362 . S
H784 C790 0.930 . S
H785 C793 0.930 . S
H786 C794 0.930 . S
H787 C795 0.930 . S
H788 C798 0.930 . S
H789 C799 0.930 . S
C790 H784 0.930 . S
C790 C791 1.355 . S
C790 C792 1.415 . S
C791 C790 1.355 . S
C791 C793 1.419 . S
C792 C790 1.415 . S
C792 C797 1.425 . S
C792 C799 1.409 . S
C793 H785 0.930 . S
C793 C791 1.419 . S
C793 C794 1.362 . S
C794 H786 0.930 . S
C794 C793 1.362 . S
C794 C797 1.409 . S
C795 H787 0.930 . S
C795 C796 1.355 . S
C795 C797 1.415 . S
C796 C795 1.355 . S
C796 C798 1.419 . S
C797 C792 1.425 . S
C797 C794 1.409 . S
C797 C795 1.415 . S
C798 H788 0.930 . S
C798 C796 1.419 . S
C798 C799 1.362 . S
C799 H789 0.930 . S
C799 C792 1.409 . S
C799 C798 1.362 . S
H800 C806 0.930 . S
H801 C809 0.930 1_455 S
H802 C810 0.930 . S
H803 C811 0.930 . S
H804 C814 0.930 . S
H805 C815 0.930 . S
C806 H800 0.930 . S
C806 C807 1.355 . S
C806 C808 1.415 1_554 S
C807 C806 1.355 . S
C807 C809 1.419 . S
C808 C806 1.415 1_556 S
C808 C813 1.425 . S
C808 C815 1.409 . S
C809 H801 0.930 1_655 S
C809 C807 1.419 . S
C809 C810 1.362 1_554 S
C810 H802 0.930 . S
C810 C809 1.362 1_556 S
C810 C813 1.409 . S
C811 H803 0.930 . S
C811 C812 1.355 . S
C811 C813 1.415 . S
C812 C811 1.355 . S
C812 C814 1.419 . S
C813 C808 1.425 . S
C813 C810 1.409 . S
C813 C811 1.415 . S
C814 H804 0.930 . S
C814 C812 1.419 . S
C814 C815 1.362 . S
C815 H805 0.930 . S
C815 C808 1.409 . S
C815 C814 1.362 . S
H816 C822 0.930 . S
H817 C825 0.930 . S
H818 C826 0.930 . S
H819 C827 0.930 . S
H820 C830 0.930 . S
H821 C831 0.930 . S
C822 H816 0.930 . S
C822 C823 1.355 . S
C822 C824 1.415 . S
C823 C822 1.355 . S
C823 C825 1.419 . S
C824 C822 1.415 . S
C824 C829 1.425 . S
C824 C831 1.409 . S
C825 H817 0.930 . S
C825 C823 1.419 . S
C825 C826 1.362 . S
C826 H818 0.930 . S
C826 C825 1.362 . S
C826 C829 1.409 . S
C827 H819 0.930 . S
C827 C828 1.355 . S
C827 C829 1.415 . S
C828 C827 1.355 . S
C828 C830 1.419 . S
C829 C824 1.425 . S
C829 C826 1.409 . S
C829 C827 1.415 . S
C830 H820 0.930 . S
C830 C828 1.419 . S
C830 C831 1.362 . S
C831 H821 0.930 . S
C831 C824 1.409 . S
C831 C830 1.362 . S
H832 C838 0.930 . S
H833 C841 0.930 . S
H834 C842 0.930 . S
H835 C843 0.930 . S
H836 C846 0.930 . S
H837 C847 0.930 . S
C838 H832 0.930 . S
C838 C839 1.355 . S
C838 C840 1.415 . S
C839 C838 1.355 . S
C839 C841 1.419 . S
C840 C838 1.415 . S
C840 C845 1.425 . S
C840 C847 1.409 . S
C841 H833 0.930 . S
C841 C839 1.419 . S
C841 C842 1.362 . S
C842 H834 0.930 . S
C842 C841 1.362 . S
C842 C845 1.409 . S
C843 H835 0.930 . S
C843 C844 1.355 . S
C843 C845 1.415 . S
C844 C843 1.355 . S
C844 C846 1.419 . S
C845 C840 1.425 . S
C845 C842 1.409 . S
C845 C843 1.415 . S
C846 H836 0.930 . S
C846 C844 1.419 . S
C846 C847 1.362 . S
C847 H837 0.930 . S
C847 C840 1.409 . S
C847 C846 1.362 . S
H848 C854 0.930 . S
H849 C857 0.930 . S
H850 C858 0.930 . S
H851 C859 0.930 . S
H852 C862 0.930 . S
H853 C863 0.930 . S
C854 H848 0.930 . S
C854 C855 1.355 . S
C854 C856 1.415 . S
C855 C854 1.355 . S
C855 C857 1.419 . S
C856 C854 1.415 . S
C856 C861 1.425 . S
C856 C863 1.409 . S
C857 H849 0.930 . S
C857 C855 1.419 . S
C857 C858 1.362 . S
C858 H850 0.930 . S
C858 C857 1.362 . S
C858 C861 1.409 . S
C859 H851 0.930 . S
C859 C860 1.355 . S
C859 C861 1.415 . S
C860 C859 1.355 . S
C860 C862 1.419 . S
C861 C856 1.425 . S
C861 C858 1.409 . S
C861 C859 1.415 . S
C862 H852 0.930 . S
C862 C860 1.419 . S
C862 C863 1.362 . S
C863 H853 0.930 . S
C863 C856 1.409 . S
C863 C862 1.362 . S
H864 C870 0.930 . S
H865 C873 0.930 . S
H866 C874 0.930 . S
H867 C875 0.930 . S
H868 C878 0.930 1_556 S
H869 C879 0.930 . S
C870 H864 0.930 . S
C870 C871 1.355 . S
C870 C872 1.415 . S
C871 C870 1.355 . S
C871 C873 1.419 . S
C872 C870 1.415 . S
C872 C877 1.425 . S
C872 C879 1.409 . S
C873 H865 0.930 . S
C873 C871 1.419 . S
C873 C874 1.362 . S
C874 H866 0.930 . S
C874 C873 1.362 . S
C874 C877 1.409 . S
C875 H867 0.930 . S
C875 C876 1.355 1_554 S
C875 C877 1.415 . S
C876 C875 1.355 1_556 S
C876 C878 1.419 1_556 S
C877 C872 1.425 . S
C877 C874 1.409 . S
C877 C875 1.415 . S
C878 H868 0.930 1_554 S
C878 C876 1.419 1_554 S
C878 C879 1.362 . S
C879 H869 0.930 . S
C879 C872 1.409 . S
C879 C878 1.362 . S
H880 C886 0.930 . S
H881 C889 0.930 . S
H882 C890 0.930 . S
H883 C891 0.930 . S
H884 C894 0.930 . S
H885 C895 0.930 . S
C886 H880 0.930 . S
C886 C887 1.355 . S
C886 C888 1.415 . S
C887 C886 1.355 . S
C887 C889 1.419 . S
C888 C886 1.415 . S
C888 C893 1.425 . S
C888 C895 1.409 . S
C889 H881 0.930 . S
C889 C887 1.419 . S
C889 C890 1.362 . S
C890 H882 0.930 . S
C890 C889 1.362 . S
C890 C893 1.409 . S
C891 H883 0.930 . S
C891 C892 1.355 . S
C891 C893 1.415 . S
C892 C891 1.355 . S
C892 C894 1.419 . S
C893 C888 1.425 . S
C893 C890 1.409 . S
C893 C891 1.415 . S
C894 H884 0.930 . S
C894 C892 1.419 . S
C894 C895 1.362 . S
C895 H885 0.930 . S
C895 C888 1.409 . S
C895 C894 1.362 . S
H896 C902 0.930 . S
H897 C905 0.930 . S
H898 C906 0.930 . S
H899 C907 0.930 . S
H900 C910 0.930 . S
H901 C911 0.930 . S
C902 H896 0.930 . S
C902 C903 1.355 1_655 S
C902 C904 1.415 . S
C903 C902 1.355 1_455 S
C903 C905 1.419 . S
C904 C902 1.415 . S
C904 C909 1.425 1_655 S
C904 C911 1.409 . S
C905 H897 0.930 . S
C905 C903 1.419 . S
C905 C906 1.362 . S
C906 H898 0.930 . S
C906 C905 1.362 . S
C906 C909 1.409 . S
C907 H899 0.930 . S
C907 C908 1.344 1_455 S
C907 C909 1.415 . S
C908 C907 1.344 1_655 S
C908 C910 1.434 . S
C909 C904 1.425 1_455 S
C909 C906 1.409 . S
C909 C907 1.415 . S
C910 H900 0.930 . S
C910 C908 1.434 . S
C910 C911 1.362 . S
C911 H901 0.930 . S
C911 C904 1.409 . S
C911 C910 1.362 . S
H912 C918 0.930 . S
H913 C921 0.930 . S
H914 C922 0.930 . S
H915 C923 0.930 . S
H916 C926 0.930 . S
H917 C927 0.930 . S
C918 H912 0.930 . S
C918 C919 1.355 . S
C918 C920 1.415 1_655 S
C919 C918 1.355 . S
C919 C921 1.419 . S
C920 C918 1.415 1_455 S
C920 C925 1.425 . S
C920 C927 1.409 . S
C921 H913 0.930 . S
C921 C919 1.419 . S
C921 C922 1.362 1_655 S
C922 H914 0.930 . S
C922 C921 1.362 1_455 S
C922 C925 1.409 . S
C923 H915 0.930 . S
C923 C924 1.355 . S
C923 C925 1.415 . S
C924 C923 1.355 . S
C924 C926 1.419 . S
C925 C920 1.425 . S
C925 C922 1.409 . S
C925 C923 1.415 . S
C926 H916 0.930 . S
C926 C924 1.419 . S
C926 C927 1.362 . S
C927 H917 0.930 . S
C927 C920 1.409 . S
C927 C926 1.362 . S
H928 C934 0.930 . S
H929 C937 0.930 . S
H930 C938 0.930 . S
H931 C939 0.930 . S
H932 C942 0.930 . S
H933 C943 0.930 . S
C934 H928 0.930 . S
C934 C935 1.355 . S
C934 C936 1.415 . S
C935 C934 1.355 . S
C935 C937 1.419 . S
C936 C934 1.415 . S
C936 C941 1.425 . S
C936 C943 1.409 . S
C937 H929 0.930 . S
C937 C935 1.419 . S
C937 C938 1.362 . S
C938 H930 0.930 . S
C938 C937 1.362 . S
C938 C941 1.409 . S
C939 H931 0.930 . S
C939 C940 1.355 . S
C939 C941 1.415 . S
C940 C939 1.355 . S
C940 C942 1.419 . S
C941 C936 1.425 . S
C941 C938 1.409 . S
C941 C939 1.415 . S
C942 H932 0.930 . S
C942 C940 1.419 . S
C942 C943 1.362 . S
C943 H933 0.930 . S
C943 C936 1.409 . S
C943 C942 1.362 . S
H944 C950 0.930 . S
H945 C953 0.930 . S
H946 C954 0.930 . S
H947 C955 0.930 . S
H948 C958 0.930 . S
H949 C959 0.930 . S
C950 H944 0.930 . S
C950 C951 1.355 . S
C950 C952 1.415 . S
C951 C950 1.355 . S
C951 C953 1.419 . S
C952 C950 1.415 . S
C952 C957 1.425 . S
C952 C959 1.409 . S
C953 H945 0.930 . S
C953 C951 1.419 . S
C953 C954 1.362 . S
C954 H946 0.930 . S
C954 C953 1.362 . S
C954 C957 1.409 . S
C955 H947 0.930 . S
C955 C956 1.355 . S
C955 C957 1.415 . S
C956 C955 1.355 . S
C956 C958 1.419 . S
C957 C952 1.425 . S
C957 C954 1.409 . S
C957 C955 1.415 . S
C958 H948 0.930 . S
C958 C956 1.419 . S
C958 C959 1.362 . S
C959 H949 0.930 . S
C959 C952 1.409 . S
C959 C958 1.362 . S
H960 C966 0.930 . S
H961 C969 0.930 . S
H962 C970 0.930 . S
H963 C971 0.930 1_655 S
H964 C974 0.930 . S
H965 C975 0.930 . S
C966 H960 0.930 . S
C966 C967 1.355 . S
C966 C968 1.415 . S
C967 C966 1.355 . S
C967 C969 1.419 1_455 S
C968 C966 1.415 . S
C968 C973 1.425 . S
C968 C975 1.409 . S
C969 H961 0.930 . S
C969 C967 1.419 1_655 S
C969 C970 1.362 . S
C970 H962 0.930 . S
C970 C969 1.362 . S
C970 C973 1.409 1_655 S
C971 H963 0.930 1_455 S
C971 C972 1.355 . S
C971 C973 1.415 . S
C972 C971 1.355 . S
C972 C974 1.419 . S
C973 C968 1.425 . S
C973 C970 1.409 1_455 S
C973 C971 1.415 . S
C974 H964 0.930 . S
C974 C972 1.419 . S
C974 C975 1.362 . S
C975 H965 0.930 . S
C975 C968 1.409 . S
C975 C974 1.362 . S
H976 C982 0.930 . S
H977 C985 0.930 . S
H978 C986 0.930 . S
H979 C987 0.930 . S
H980 C990 0.930 . S
H981 C991 0.930 . S
C982 H976 0.930 . S
C982 C983 1.355 . S
C982 C984 1.415 . S
C983 C982 1.355 . S
C983 C985 1.419 . S
C984 C982 1.415 . S
C984 C989 1.425 . S
C984 C991 1.409 . S
C985 H977 0.930 . S
C985 C983 1.419 . S
C985 C986 1.362 . S
C986 H978 0.930 . S
C986 C985 1.362 . S
C986 C989 1.409 . S
C987 H979 0.930 . S
C987 C988 1.355 . S
C987 C989 1.415 . S
C988 C987 1.355 . S
C988 C990 1.419 . S
C989 C984 1.425 . S
C989 C986 1.409 . S
C989 C987 1.415 . S
C990 H980 0.930 . S
C990 C988 1.419 . S
C990 C991 1.362 . S
C991 H981 0.930 . S
C991 C984 1.409 . S
C991 C990 1.362 . S
H992 C998 0.930 . S
H993 C1001 0.930 . S
H994 C1002 0.930 . S
H995 C1003 0.930 . S
H996 C1006 0.930 . S
H997 C1007 0.930 . S
C998 H992 0.930 . S
C998 C999 1.355 . S
C998 C1000 1.415 . S
C999 C998 1.355 . S
C999 C1001 1.419 . S
C1000 C998 1.415 . S
C1000 C1005 1.425 . S
C1000 C1007 1.409 . S
C1001 H993 0.930 . S
C1001 C999 1.419 . S
C1001 C1002 1.362 . S
C1002 H994 0.930 . S
C1002 C1001 1.362 . S
C1002 C1005 1.409 . S
C1003 H995 0.930 . S
C1003 C1004 1.355 . S
C1003 C1005 1.415 . S
C1004 C1003 1.355 . S
C1004 C1006 1.419 . S
C1005 C1000 1.425 . S
C1005 C1002 1.409 . S
C1005 C1003 1.415 . S
C1006 H996 0.930 . S
C1006 C1004 1.419 . S
C1006 C1007 1.362 . S
C1007 H997 0.930 . S
C1007 C1000 1.409 . S
C1007 C1006 1.362 . S
H1008 C1014 0.930 . S
H1009 C1017 0.930 . S
H1010 C1018 0.918 1_655 S
H1011 C1019 0.930 . S
H1012 C1022 0.930 . S
H1013 C1023 0.930 . S
C1014 H1008 0.930 . S
C1014 C1015 1.355 . S
C1014 C1016 1.415 . S
C1015 C1014 1.355 . S
C1015 C1017 1.419 . S
C1016 C1014 1.415 . S
C1016 C1021 1.425 . S
C1016 C1023 1.409 . S
C1017 H1009 0.930 . S
C1017 C1015 1.419 . S
C1017 C1018 1.362 . S
C1018 H1010 0.918 1_455 S
C1018 C1017 1.362 . S
C1018 C1021 1.409 . S
C1019 H1011 0.930 . S
C1019 C1020 1.355 . S
C1019 C1021 1.415 1_655 S
C1020 C1019 1.355 . S
C1020 C1022 1.419 . S
C1021 C1016 1.425 . S
C1021 C1018 1.409 . S
C1021 C1019 1.415 1_455 S
C1022 H1012 0.930 . S
C1022 C1020 1.419 . S
C1022 C1023 1.362 1_655 S
C1023 H1013 0.930 . S
C1023 C1016 1.409 . S
C1023 C1022 1.362 1_455 S
H1024 C1030 0.930 . S
H1025 C1033 0.930 . S
H1026 C1034 0.946 . S
H1027 C1035 0.942 . S
H1028 C1038 0.930 . S
H1029 C1039 0.930 1_554 S
C1030 H1024 0.930 . S
C1030 C1031 1.355 1_565 S
C1030 C1032 1.415 . S
C1031 C1030 1.355 1_545 S
C1031 C1033 1.419 . S
C1032 C1030 1.415 . S
C1032 C1037 1.425 1_564 S
C1032 C1039 1.409 1_554 S
C1033 H1025 0.930 . S
C1033 C1031 1.419 . S
C1033 C1034 1.339 1_554 S
C1034 H1026 0.946 . S
C1034 C1033 1.339 1_556 S
C1034 C1037 1.417 . S
C1035 H1027 0.942 . S
C1035 C1036 1.339 1_545 S
C1035 C1037 1.418 . S
C1036 C1035 1.339 1_565 S
C1036 C1038 1.419 . S
C1037 C1032 1.425 1_546 S
C1037 C1034 1.417 . S
C1037 C1035 1.418 . S
C1038 H1028 0.930 . S
C1038 C1036 1.419 . S
C1038 C1039 1.362 . S
C1039 H1029 0.930 1_556 S
C1039 C1032 1.409 1_556 S
C1039 C1038 1.362 . S
H1040 C1046 0.930 . S
H1041 C1049 0.930 . S
H1042 C1050 0.930 . S
H1043 C1051 0.930 . S
H1044 C1054 0.930 . S
H1045 C1055 0.930 . S
C1046 H1040 0.930 . S
C1046 C1047 1.355 . S
C1046 C1048 1.415 . S
C1047 C1046 1.355 . S
C1047 C1049 1.419 . S
C1048 C1046 1.415 . S
C1048 C1053 1.425 . S
C1048 C1055 1.409 . S
C1049 H1041 0.930 . S
C1049 C1047 1.419 . S
C1049 C1050 1.362 . S
C1050 H1042 0.930 . S
C1050 C1049 1.362 . S
C1050 C1053 1.409 . S
C1051 H1043 0.930 . S
C1051 C1052 1.355 . S
C1051 C1053 1.415 . S
C1052 C1051 1.355 . S
C1052 C1054 1.419 . S
C1053 C1048 1.425 . S
C1053 C1050 1.409 . S
C1053 C1051 1.415 . S
C1054 H1044 0.930 . S
C1054 C1052 1.419 . S
C1054 C1055 1.362 . S
C1055 H1045 0.930 . S
C1055 C1048 1.409 . S
C1055 C1054 1.362 . S
H1056 C1062 0.930 . S
H1057 C1065 0.930 . S
H1058 C1066 0.930 . S
H1059 C1067 0.930 . S
H1060 C1070 0.930 . S
H1061 C1071 0.930 . S
C1062 H1056 0.930 . S
C1062 C1063 1.355 . S
C1062 C1064 1.407 1_545 S
C1063 C1062 1.355 . S
C1063 C1065 1.419 . S
C1064 C1062 1.407 1_565 S
C1064 C1069 1.427 1_565 S
C1064 C1071 1.416 . S
C1065 H1057 0.930 . S
C1065 C1063 1.419 . S
C1065 C1066 1.362 . S
C1066 H1058 0.930 . S
C1066 C1065 1.362 . S
C1066 C1069 1.421 . S
C1067 H1059 0.930 . S
C1067 C1068 1.355 . S
C1067 C1069 1.403 1_565 S
C1068 C1067 1.355 . S
C1068 C1070 1.419 . S
C1069 C1064 1.427 1_545 S
C1069 C1066 1.421 . S
C1069 C1067 1.403 1_545 S
C1070 H1060 0.930 . S
C1070 C1068 1.419 . S
C1070 C1071 1.362 . S
C1071 H1061 0.930 . S
C1071 C1064 1.416 . S
C1071 C1070 1.362 . S
H1072 C1078 0.930 . S
H1073 C1081 0.930 . S
H1074 C1082 0.930 . S
H1075 C1083 0.930 . S
H1076 C1086 0.930 . S
H1077 C1087 0.930 . S
C1078 H1072 0.930 . S
C1078 C1079 1.355 . S
C1078 C1080 1.415 . S
C1079 C1078 1.355 . S
C1079 C1081 1.419 . S
C1080 C1078 1.415 . S
C1080 C1085 1.425 . S
C1080 C1087 1.409 . S
C1081 H1073 0.930 . S
C1081 C1079 1.419 . S
C1081 C1082 1.362 . S
C1082 H1074 0.930 . S
C1082 C1081 1.362 . S
C1082 C1085 1.409 . S
C1083 H1075 0.930 . S
C1083 C1084 1.355 . S
C1083 C1085 1.415 . S
C1084 C1083 1.355 . S
C1084 C1086 1.419 . S
C1085 C1080 1.425 . S
C1085 C1082 1.409 . S
C1085 C1083 1.415 . S
C1086 H1076 0.930 . S
C1086 C1084 1.419 . S
C1086 C1087 1.362 . S
C1087 H1077 0.930 . S
C1087 C1080 1.409 . S
C1087 C1086 1.362 . S
H1088 C1094 0.930 . S
H1089 C1097 0.930 . S
H1090 C1098 0.930 . S
H1091 C1099 0.930 . S
H1092 C1102 0.930 . S
H1093 C1103 0.930 . S
C1094 H1088 0.930 . S
C1094 C1095 1.355 . S
C1094 C1096 1.415 . S
C1095 C1094 1.355 . S
C1095 C1097 1.419 . S
C1096 C1094 1.415 . S
C1096 C1101 1.425 . S
C1096 C1103 1.409 . S
C1097 H1089 0.930 . S
C1097 C1095 1.419 . S
C1097 C1098 1.362 . S
C1098 H1090 0.930 . S
C1098 C1097 1.362 . S
C1098 C1101 1.409 . S
C1099 H1091 0.930 . S
C1099 C1100 1.355 . S
C1099 C1101 1.415 . S
C1100 C1099 1.355 . S
C1100 C1102 1.419 . S
C1101 C1096 1.425 . S
C1101 C1098 1.409 . S
C1101 C1099 1.415 . S
C1102 H1092 0.930 . S
C1102 C1100 1.419 . S
C1102 C1103 1.362 . S
C1103 H1093 0.930 . S
C1103 C1096 1.409 . S
C1103 C1102 1.362 . S
H1104 C1110 0.930 . S
H1105 C1113 0.930 . S
H1106 C1114 0.930 . S
H1107 C1115 0.930 . S
H1108 C1118 0.930 . S
H1109 C1119 0.930 . S
C1110 H1104 0.930 . S
C1110 C1111 1.355 . S
C1110 C1112 1.415 . S
C1111 C1110 1.355 . S
C1111 C1113 1.419 . S
C1112 C1110 1.415 . S
C1112 C1117 1.425 . S
C1112 C1119 1.409 . S
C1113 H1105 0.930 . S
C1113 C1111 1.419 . S
C1113 C1114 1.362 . S
C1114 H1106 0.930 . S
C1114 C1113 1.362 . S
C1114 C1117 1.409 . S
C1115 H1107 0.930 . S
C1115 C1116 1.355 . S
C1115 C1117 1.415 . S
C1116 C1115 1.355 . S
C1116 C1118 1.419 . S
C1117 C1112 1.425 . S
C1117 C1114 1.409 . S
C1117 C1115 1.415 . S
C1118 H1108 0.930 . S
C1118 C1116 1.419 . S
C1118 C1119 1.362 . S
C1119 H1109 0.930 . S
C1119 C1112 1.409 . S
C1119 C1118 1.362 . S
H1120 C1126 0.930 . S
H1121 C1129 0.930 . S
H1122 C1130 0.930 . S
H1123 C1131 0.930 . S
H1124 C1134 0.930 . S
H1125 C1135 0.930 . S
C1126 H1120 0.930 . S
C1126 C1127 1.355 . S
C1126 C1128 1.415 . S
C1127 C1126 1.355 . S
C1127 C1129 1.419 . S
C1128 C1126 1.415 . S
C1128 C1133 1.425 . S
C1128 C1135 1.409 . S
C1129 H1121 0.930 . S
C1129 C1127 1.419 . S
C1129 C1130 1.362 . S
C1130 H1122 0.930 . S
C1130 C1129 1.362 . S
C1130 C1133 1.409 . S
C1131 H1123 0.930 . S
C1131 C1132 1.355 . S
C1131 C1133 1.415 . S
C1132 C1131 1.355 . S
C1132 C1134 1.419 . S
C1133 C1128 1.425 . S
C1133 C1130 1.409 . S
C1133 C1131 1.415 . S
C1134 H1124 0.930 . S
C1134 C1132 1.419 . S
C1134 C1135 1.362 . S
C1135 H1125 0.930 . S
C1135 C1128 1.409 . S
C1135 C1134 1.362 . S
H1136 C1142 0.930 . S
H1137 C1145 0.930 1_655 S
H1138 C1146 0.930 1_554 S
H1139 C1147 0.930 1_655 S
H1140 C1150 0.930 . S
H1141 C1151 0.930 1_556 S
C1142 H1136 0.930 . S
C1142 C1143 1.355 . S
C1142 C1144 1.415 . S
C1143 C1142 1.355 . S
C1143 C1145 1.419 . S
C1144 C1142 1.415 . S
C1144 C1149 1.425 1_556 S
C1144 C1151 1.409 1_556 S
C1145 H1137 0.930 1_455 S
C1145 C1143 1.419 . S
C1145 C1146 1.362 1_455 S
C1146 H1138 0.930 1_556 S
C1146 C1145 1.362 1_655 S
C1146 C1149 1.409 1_656 S
C1147 H1139 0.930 1_455 S
C1147 C1148 1.355 . S
C1147 C1149 1.415 . S
C1148 C1147 1.355 . S
C1148 C1150 1.419 . S
C1149 C1144 1.425 1_554 S
C1149 C1146 1.409 1_454 S
C1149 C1147 1.415 . S
C1150 H1140 0.930 . S
C1150 C1148 1.419 . S
C1150 C1151 1.362 . S
C1151 H1141 0.930 1_554 S
C1151 C1144 1.409 1_554 S
C1151 C1150 1.362 . S
H1152 C1158 0.930 . S
H1153 C1161 0.930 . S
H1154 C1162 0.930 . S
H1155 C1163 0.930 . S
H1156 C1166 0.930 . S
H1157 C1167 0.930 . S
C1158 H1152 0.930 . S
C1158 C1159 1.355 . S
C1158 C1160 1.415 . S
C1159 C1158 1.355 . S
C1159 C1161 1.419 . S
C1160 C1158 1.415 . S
C1160 C1165 1.425 . S
C1160 C1167 1.409 . S
C1161 H1153 0.930 . S
C1161 C1159 1.419 . S
C1161 C1162 1.362 . S
C1162 H1154 0.930 . S
C1162 C1161 1.362 . S
C1162 C1165 1.409 . S
C1163 H1155 0.930 . S
C1163 C1164 1.355 . S
C1163 C1165 1.415 . S
C1164 C1163 1.355 . S
C1164 C1166 1.419 . S
C1165 C1160 1.425 . S
C1165 C1162 1.409 . S
C1165 C1163 1.415 . S
C1166 H1156 0.930 . S
C1166 C1164 1.419 . S
C1166 C1167 1.362 . S
C1167 H1157 0.930 . S
C1167 C1160 1.409 . S
C1167 C1166 1.362 . S
H1168 C1174 0.930 . S
H1169 C1177 0.930 . S
H1170 C1178 0.930 . S
H1171 C1179 0.930 . S
H1172 C1182 0.930 . S
H1173 C1183 0.930 . S
C1174 H1168 0.930 . S
C1174 C1175 1.355 . S
C1174 C1176 1.415 . S
C1175 C1174 1.355 . S
C1175 C1177 1.419 . S
C1176 C1174 1.415 . S
C1176 C1181 1.425 . S
C1176 C1183 1.409 . S
C1177 H1169 0.930 . S
C1177 C1175 1.419 . S
C1177 C1178 1.362 . S
C1178 H1170 0.930 . S
C1178 C1177 1.362 . S
C1178 C1181 1.409 . S
C1179 H1171 0.930 . S
C1179 C1180 1.355 . S
C1179 C1181 1.415 . S
C1180 C1179 1.355 . S
C1180 C1182 1.419 . S
C1181 C1176 1.425 . S
C1181 C1178 1.409 . S
C1181 C1179 1.415 . S
C1182 H1172 0.930 . S
C1182 C1180 1.419 . S
C1182 C1183 1.362 . S
C1183 H1173 0.930 . S
C1183 C1176 1.409 . S
C1183 C1182 1.362 . S
H1184 C1190 0.928 1_556 S
H1185 C1193 0.930 . S
H1186 C1194 0.930 . S
H1187 C1195 0.930 . S
H1188 C1198 0.930 . S
H1189 C1199 0.930 . S
C1190 H1184 0.928 1_554 S
C1190 C1191 1.355 . S
C1190 C1192 1.415 1_554 S
C1191 C1190 1.355 . S
C1191 C1193 1.419 . S
C1192 C1190 1.415 1_556 S
C1192 C1197 1.425 . S
C1192 C1199 1.409 . S
C1193 H1185 0.930 . S
C1193 C1191 1.419 . S
C1193 C1194 1.362 . S
C1194 H1186 0.930 . S
C1194 C1193 1.362 . S
C1194 C1197 1.409 1_554 S
C1195 H1187 0.930 . S
C1195 C1196 1.355 . S
C1195 C1197 1.415 . S
C1196 C1195 1.355 . S
C1196 C1198 1.419 . S
C1197 C1192 1.425 . S
C1197 C1194 1.409 1_556 S
C1197 C1195 1.415 . S
C1198 H1188 0.930 . S
C1198 C1196 1.419 . S
C1198 C1199 1.362 . S
C1199 H1189 0.930 . S
C1199 C1192 1.409 . S
C1199 C1198 1.362 . S
H1200 C1206 0.930 . S
H1201 C1209 0.930 . S
H1202 C1210 0.930 . S
H1203 C1211 0.930 . S
H1204 C1214 0.930 . S
H1205 C1215 0.930 . S
C1206 H1200 0.930 . S
C1206 C1207 1.355 . S
C1206 C1208 1.415 . S
C1207 C1206 1.355 . S
C1207 C1209 1.419 . S
C1208 C1206 1.415 . S
C1208 C1213 1.425 . S
C1208 C1215 1.409 . S
C1209 H1201 0.930 . S
C1209 C1207 1.419 . S
C1209 C1210 1.362 . S
C1210 H1202 0.930 . S
C1210 C1209 1.362 . S
C1210 C1213 1.409 . S
C1211 H1203 0.930 . S
C1211 C1212 1.355 . S
C1211 C1213 1.415 . S
C1212 C1211 1.355 . S
C1212 C1214 1.419 . S
C1213 C1208 1.425 . S
C1213 C1210 1.409 . S
C1213 C1211 1.415 . S
C1214 H1204 0.930 . S
C1214 C1212 1.419 . S
C1214 C1215 1.362 . S
C1215 H1205 0.930 . S
C1215 C1208 1.409 . S
C1215 C1214 1.362 . S
H1216 C1222 0.930 . S
H1217 C1225 0.930 . S
H1218 C1226 0.930 . S
H1219 C1227 0.930 . S
H1220 C1230 0.930 . S
H1221 C1231 0.930 . S
C1222 H1216 0.930 . S
C1222 C1223 1.355 . S
C1222 C1224 1.415 . S
C1223 C1222 1.355 . S
C1223 C1225 1.419 . S
C1224 C1222 1.415 . S
C1224 C1229 1.425 . S
C1224 C1231 1.409 . S
C1225 H1217 0.930 . S
C1225 C1223 1.419 . S
C1225 C1226 1.362 . S
C1226 H1218 0.930 . S
C1226 C1225 1.362 . S
C1226 C1229 1.409 . S
C1227 H1219 0.930 . S
C1227 C1228 1.355 . S
C1227 C1229 1.415 . S
C1228 C1227 1.355 . S
C1228 C1230 1.419 . S
C1229 C1224 1.425 . S
C1229 C1226 1.409 . S
C1229 C1227 1.415 . S
C1230 H1220 0.930 . S
C1230 C1228 1.419 . S
C1230 C1231 1.362 . S
C1231 H1221 0.930 . S
C1231 C1224 1.409 . S
C1231 C1230 1.362 . S
H1232 C1238 0.930 . S
H1233 C1241 0.930 . S
H1234 C1242 0.930 . S
H1235 C1243 0.930 . S
H1236 C1246 0.930 . S
H1237 C1247 0.930 . S
C1238 H1232 0.930 . S
C1238 C1239 1.355 . S
C1238 C1240 1.415 . S
C1239 C1238 1.355 . S
C1239 C1241 1.419 . S
C1240 C1238 1.415 . S
C1240 C1245 1.425 . S
C1240 C1247 1.409 . S
C1241 H1233 0.930 . S
C1241 C1239 1.419 . S
C1241 C1242 1.362 . S
C1242 H1234 0.930 . S
C1242 C1241 1.362 . S
C1242 C1245 1.409 . S
C1243 H1235 0.930 . S
C1243 C1244 1.355 . S
C1243 C1245 1.415 . S
C1244 C1243 1.355 . S
C1244 C1246 1.419 . S
C1245 C1240 1.425 . S
C1245 C1242 1.409 . S
C1245 C1243 1.415 . S
C1246 H1236 0.930 . S
C1246 C1244 1.419 . S
C1246 C1247 1.362 . S
C1247 H1237 0.930 . S
C1247 C1240 1.409 . S
C1247 C1246 1.362 . S
H1248 C1254 0.930 1_556 S
H1249 C1257 0.930 . S
H1250 C1258 0.930 . S
H1251 C1259 0.930 . S
H1252 C1262 0.930 . S
H1253 C1263 0.930 . S
C1254 H1248 0.930 1_554 S
C1254 C1255 1.355 . S
C1254 C1256 1.415 . S
C1255 C1254 1.355 . S
C1255 C1257 1.419 . S
C1256 C1254 1.415 . S
C1256 C1261 1.425 . S
C1256 C1263 1.409 . S
C1257 H1249 0.930 . S
C1257 C1255 1.419 . S
C1257 C1258 1.362 . S
C1258 H1250 0.930 . S
C1258 C1257 1.362 . S
C1258 C1261 1.409 . S
C1259 H1251 0.930 . S
C1259 C1260 1.355 . S
C1259 C1261 1.415 . S
C1260 C1259 1.355 . S
C1260 C1262 1.419 . S
C1261 C1256 1.425 . S
C1261 C1258 1.409 . S
C1261 C1259 1.415 . S
C1262 H1252 0.930 . S
C1262 C1260 1.419 . S
C1262 C1263 1.362 . S
C1263 H1253 0.930 . S
C1263 C1256 1.409 . S
C1263 C1262 1.362 . S
H1264 C1270 0.930 . S
H1265 C1273 0.930 . S
H1266 C1274 0.930 . S
H1267 C1275 0.930 . S
H1268 C1278 0.930 . S
H1269 C1279 0.930 . S
C1270 H1264 0.930 . S
C1270 C1271 1.355 . S
C1270 C1272 1.415 . S
C1271 C1270 1.355 . S
C1271 C1273 1.419 . S
C1272 C1270 1.415 . S
C1272 C1277 1.425 . S
C1272 C1279 1.409 . S
C1273 H1265 0.930 . S
C1273 C1271 1.419 . S
C1273 C1274 1.362 . S
C1274 H1266 0.930 . S
C1274 C1273 1.362 . S
C1274 C1277 1.409 . S
C1275 H1267 0.930 . S
C1275 C1276 1.355 . S
C1275 C1277 1.415 . S
C1276 C1275 1.355 . S
C1276 C1278 1.419 . S
C1277 C1272 1.425 . S
C1277 C1274 1.409 . S
C1277 C1275 1.415 . S
C1278 H1268 0.930 . S
C1278 C1276 1.419 . S
C1278 C1279 1.362 . S
C1279 H1269 0.930 . S
C1279 C1272 1.409 . S
C1279 C1278 1.362 . S
H1280 C1286 0.930 . S
H1281 C1289 0.930 . S
H1282 C1290 0.930 . S
H1283 C1291 0.930 . S
H1284 C1294 0.930 . S
H1285 C1295 0.930 . S
C1286 H1280 0.930 . S
C1286 C1287 1.355 . S
C1286 C1288 1.415 . S
C1287 C1286 1.355 . S
C1287 C1289 1.419 . S
C1288 C1286 1.415 . S
C1288 C1293 1.425 . S
C1288 C1295 1.409 . S
C1289 H1281 0.930 . S
C1289 C1287 1.419 . S
C1289 C1290 1.362 . S
C1290 H1282 0.930 . S
C1290 C1289 1.362 . S
C1290 C1293 1.409 . S
C1291 H1283 0.930 . S
C1291 C1292 1.355 . S
C1291 C1293 1.415 . S
C1292 C1291 1.355 . S
C1292 C1294 1.419 . S
C1293 C1288 1.425 . S
C1293 C1290 1.409 . S
C1293 C1291 1.415 . S
C1294 H1284 0.930 . S
C1294 C1292 1.419 . S
C1294 C1295 1.362 . S
C1295 H1285 0.930 . S
C1295 C1288 1.409 . S
C1295 C1294 1.362 . S
H1296 C1302 0.930 . S
H1297 C1305 0.930 . S
H1298 C1306 0.930 . S
H1299 C1307 0.930 . S
H1300 C1310 0.930 . S
H1301 C1311 0.930 . S
C1302 H1296 0.930 . S
C1302 C1303 1.355 . S
C1302 C1304 1.415 . S
C1303 C1302 1.355 . S
C1303 C1305 1.419 . S
C1304 C1302 1.415 . S
C1304 C1309 1.425 . S
C1304 C1311 1.409 . S
C1305 H1297 0.930 . S
C1305 C1303 1.419 . S
C1305 C1306 1.362 . S
C1306 H1298 0.930 . S
C1306 C1305 1.362 . S
C1306 C1309 1.409 . S
C1307 H1299 0.930 . S
C1307 C1308 1.355 . S
C1307 C1309 1.415 . S
C1308 C1307 1.355 . S
C1308 C1310 1.419 . S
C1309 C1304 1.425 . S
C1309 C1306 1.409 . S
C1309 C1307 1.415 . S
C1310 H1300 0.930 . S
C1310 C1308 1.419 . S
C1310 C1311 1.362 . S
C1311 H1301 0.930 . S
C1311 C1304 1.409 . S
C1311 C1310 1.362 . S
H1312 C1318 0.930 . S
H1313 C1321 0.930 . S
H1314 C1322 0.930 . S
H1315 C1323 0.930 . S
H1316 C1326 0.930 . S
H1317 C1327 0.930 . S
C1318 H1312 0.930 . S
C1318 C1319 1.355 . S
C1318 C1320 1.415 . S
C1319 C1318 1.355 . S
C1319 C1321 1.419 . S
C1320 C1318 1.415 . S
C1320 C1325 1.425 . S
C1320 C1327 1.409 . S
C1321 H1313 0.930 . S
C1321 C1319 1.419 . S
C1321 C1322 1.362 . S
C1322 H1314 0.930 . S
C1322 C1321 1.362 . S
C1322 C1325 1.409 . S
C1323 H1315 0.930 . S
C1323 C1324 1.355 . S
C1323 C1325 1.415 . S
C1324 C1323 1.355 . S
C1324 C1326 1.419 . S
C1325 C1320 1.425 . S
C1325 C1322 1.409 . S
C1325 C1323 1.415 . S
C1326 H1316 0.930 . S
C1326 C1324 1.419 . S
C1326 C1327 1.362 . S
C1327 H1317 0.930 . S
C1327 C1320 1.409 . S
C1327 C1326 1.362 . S
H1328 C1334 0.930 . S
H1329 C1337 0.930 . S
H1330 C1338 0.930 . S
H1331 C1339 0.930 . S
H1332 C1342 0.930 . S
H1333 C1343 0.930 . S
C1334 H1328 0.930 . S
C1334 C1335 1.355 . S
C1334 C1336 1.415 . S
C1335 C1334 1.355 . S
C1335 C1337 1.419 . S
C1336 C1334 1.415 . S
C1336 C1341 1.425 . S
C1336 C1343 1.409 . S
C1337 H1329 0.930 . S
C1337 C1335 1.419 . S
C1337 C1338 1.362 . S
C1338 H1330 0.930 . S
C1338 C1337 1.362 . S
C1338 C1341 1.409 . S
C1339 H1331 0.930 . S
C1339 C1340 1.355 . S
C1339 C1341 1.415 . S
C1340 C1339 1.355 . S
C1340 C1342 1.419 . S
C1341 C1336 1.425 . S
C1341 C1338 1.409 . S
C1341 C1339 1.415 . S
C1342 H1332 0.930 . S
C1342 C1340 1.419 . S
C1342 C1343 1.362 . S
C1343 H1333 0.930 . S
C1343 C1336 1.409 . S
C1343 C1342 1.362 . S
H1344 C1350 0.930 . S
H1345 C1353 0.930 . S
H1346 C1354 0.930 . S
H1347 C1355 0.930 . S
H1348 C1358 0.930 . S
H1349 C1359 0.930 . S
C1350 H1344 0.930 . S
C1350 C1351 1.355 . S
C1350 C1352 1.415 . S
C1351 C1350 1.355 . S
C1351 C1353 1.419 . S
C1352 C1350 1.415 . S
C1352 C1357 1.425 . S
C1352 C1359 1.409 . S
C1353 H1345 0.930 . S
C1353 C1351 1.419 . S
C1353 C1354 1.362 . S
C1354 H1346 0.930 . S
C1354 C1353 1.362 . S
C1354 C1357 1.409 . S
C1355 H1347 0.930 . S
C1355 C1356 1.355 . S
C1355 C1357 1.415 1_556 S
C1356 C1355 1.355 . S
C1356 C1358 1.419 . S
C1357 C1352 1.425 . S
C1357 C1354 1.409 . S
C1357 C1355 1.415 1_554 S
C1358 H1348 0.930 . S
C1358 C1356 1.419 . S
C1358 C1359 1.362 1_556 S
C1359 H1349 0.930 . S
C1359 C1352 1.409 . S
C1359 C1358 1.362 1_554 S
H1360 C1366 0.930 . S
H1361 C1369 0.930 . S
H1362 C1370 0.930 . S
H1363 C1371 0.930 . S
H1364 C1374 0.930 . S
H1365 C1375 0.930 . S
C1366 H1360 0.930 . S
C1366 C1367 1.355 . S
C1366 C1368 1.415 . S
C1367 C1366 1.355 . S
C1367 C1369 1.419 . S
C1368 C1366 1.415 . S
C1368 C1373 1.425 . S
C1368 C1375 1.409 . S
C1369 H1361 0.930 . S
C1369 C1367 1.419 . S
C1369 C1370 1.362 . S
C1370 H1362 0.930 . S
C1370 C1369 1.362 . S
C1370 C1373 1.409 . S
C1371 H1363 0.930 . S
C1371 C1372 1.355 . S
C1371 C1373 1.415 . S
C1372 C1371 1.355 . S
C1372 C1374 1.419 . S
C1373 C1368 1.425 . S
C1373 C1370 1.409 . S
C1373 C1371 1.415 . S
C1374 H1364 0.930 . S
C1374 C1372 1.419 . S
C1374 C1375 1.362 . S
C1375 H1365 0.930 . S
C1375 C1368 1.409 . S
C1375 C1374 1.362 . S
H1376 C1382 0.930 . S
H1377 C1385 0.930 . S
H1378 C1386 0.930 . S
H1379 C1387 0.930 . S
H1380 C1390 0.930 . S
H1381 C1391 0.930 . S
C1382 H1376 0.930 . S
C1382 C1383 1.355 . S
C1382 C1384 1.415 . S
C1383 C1382 1.355 . S
C1383 C1385 1.419 . S
C1384 C1382 1.415 . S
C1384 C1389 1.425 . S
C1384 C1391 1.409 . S
C1385 H1377 0.930 . S
C1385 C1383 1.419 . S
C1385 C1386 1.362 . S
C1386 H1378 0.930 . S
C1386 C1385 1.362 . S
C1386 C1389 1.409 . S
C1387 H1379 0.930 . S
C1387 C1388 1.355 . S
C1387 C1389 1.415 . S
C1388 C1387 1.355 . S
C1388 C1390 1.419 . S
C1389 C1384 1.425 . S
C1389 C1386 1.409 . S
C1389 C1387 1.415 . S
C1390 H1380 0.930 . S
C1390 C1388 1.419 . S
C1390 C1391 1.362 . S
C1391 H1381 0.930 . S
C1391 C1384 1.409 . S
C1391 C1390 1.362 . S
H1392 C1398 0.930 . S
H1393 C1401 0.930 . S
H1394 C1402 0.930 . S
H1395 C1403 0.930 . S
H1396 C1406 0.930 . S
H1397 C1407 0.930 . S
C1398 H1392 0.930 . S
C1398 C1399 1.355 . S
C1398 C1400 1.415 . S
C1399 C1398 1.355 . S
C1399 C1401 1.419 . S
C1400 C1398 1.415 . S
C1400 C1405 1.425 . S
C1400 C1407 1.409 . S
C1401 H1393 0.930 . S
C1401 C1399 1.419 . S
C1401 C1402 1.362 . S
C1402 H1394 0.930 . S
C1402 C1401 1.362 . S
C1402 C1405 1.409 . S
C1403 H1395 0.930 . S
C1403 C1404 1.355 . S
C1403 C1405 1.415 . S
C1404 C1403 1.355 . S
C1404 C1406 1.419 . S
C1405 C1400 1.425 . S
C1405 C1402 1.409 . S
C1405 C1403 1.415 . S
C1406 H1396 0.930 . S
C1406 C1404 1.419 . S
C1406 C1407 1.362 . S
C1407 H1397 0.930 . S
C1407 C1400 1.409 . S
C1407 C1406 1.362 . S
C647 C6 0.792 . S
C652 C286 1.002 . S
C663 C59 1.020 . S
C668 C166 1.043 . S
C679 C206 0.638 . S
C684 C99 0.457 . S
C695 C139 1.014 . S
C700 C246 0.946 . S
C711 C455 0.957 . S
C716 C170 0.946 . S
C727 C330 2.801 . S
C732 C10 2.717 1_556 S
C743 C415 0.993 . S
C748 C250 0.997 . S
C759 C95 2.013 . S
C764 C370 1.960 . S
C775 C366 0.921 . S
C780 C486 0.777 . S
C791 C419 1.083 . S
C796 C566 1.070 . S
C807 C539 0.370 . S
C812 C326 0.622 . S
C823 C459 0.947 . S
C828 C606 0.985 . S
C839 C570 0.960 . S
C844 C135 0.924 . S
C855 C490 2.717 . S
C860 C210 2.801 . S
C871 C55 0.998 . S
C876 C610 1.063 . S
C887 C290 1.987 . S
C892 C535 1.978 . S
C903 C538 0.500 . S
C908 C9 0.680 1_655 S
C919 C458 0.661 . S
C924 C58 0.634 . S
C935 C489 0.532 . S
C940 C98 0.674 . S
C951 C418 0.653 . S
C956 C138 0.641 . S
C967 C169 0.609 . S
C972 C609 0.584 . S
C983 C369 0.864 . S
C988 C209 1.064 . S
C999 C249 0.587 . S
C1004 C569 0.429 . S
C1015 C289 0.920 . S
C1020 C329 1.055 . S
C1031 C18 1.634 1_455 S
C1036 C178 1.597 . S
C1047 C49 1.491 . S
C1052 C218 1.513 . S
C1063 C258 1.680 . S
C1068 C89 1.680 . S
C1079 C129 1.935 . S
C1084 C298 1.908 . S
C1095 C409 1.581 . S
C1100 C338 1.594 . S
C1111 C449 1.899 . S
C1116 C378 1.863 . S
C1127 C498 1.659 . S
C1132 C578 1.684 . S
C1143 C618 1.711 . S
C1148 C529 1.717 . S
C1159 C19 3.647 . S
C1164 C299 3.661 . S
C1175 C46 1.988 . S
C1180 C179 2.108 . S
C1191 C219 2.916 . S
C1196 C86 2.853 . S
C1207 C259 2.094 . S
C1212 C126 2.016 . S
C1223 C450 2.066 . S
C1228 C175 1.962 . S
C1239 C335 0.689 . S
C1244 C15 0.752 . S
C1255 C410 2.094 1_554 S
C1260 C255 2.004 . S
C1271 C90 1.017 . S
C1276 C375 0.940 . S
C1287 C499 3.651 . S
C1292 C379 3.663 1_556 S
C1303 C579 2.105 . S
C1308 C406 1.993 . S
C1319 C526 2.851 . S
C1324 C339 2.916 . S
C1335 C619 2.076 . S
C1340 C446 1.952 . S
C1351 C575 1.966 . S
C1356 C130 2.076 . S
C1367 C215 0.748 . S
C1372 C495 0.741 . S
C1383 C50 2.086 . S
C1388 C615 1.981 . S
C1399 C530 1.035 . S
C1404 C295 0.948 . S
