# Generated by pormake.
# Topology crs, (6)-cn, num edge types: 1
# Building blocks:
#     Node 0, Type 0, BuildingBlock: UKALOJ_clean_sbu_0, # of connection points: 6
#     Node 1, Type 0, BuildingBlock: UKALOJ_clean_sbu_0, # of connection points: 6
#     Node 2, Type 0, BuildingBlock: UKALOJ_clean_sbu_0, # of connection points: 6
#     Node 3, Type 0, BuildingBlock: UKALOJ_clean_sbu_0, # of connection points: 6
#     Node 4, Type 0, BuildingBlock: UKALOJ_clean_sbu_0, # of connection points: 6
#     Node 5, Type 0, BuildingBlock: UKALOJ_clean_sbu_0, # of connection points: 6
#     Node 6, Type 0, BuildingBlock: UKALOJ_clean_sbu_0, # of connection points: 6
#     Node 7, Type 0, BuildingBlock: UKALOJ_clean_sbu_0, # of connection points: 6
#     Node 8, Type 0, BuildingBlock: UKALOJ_clean_sbu_0, # of connection points: 6
#     Node 9, Type 0, BuildingBlock: UKALOJ_clean_sbu_0, # of connection points: 6
#     Node 10, Type 0, BuildingBlock: UKALOJ_clean_sbu_0, # of connection points: 6
#     Node 11, Type 0, BuildingBlock: UKALOJ_clean_sbu_0, # of connection points: 6
#     Node 12, Type 0, BuildingBlock: UKALOJ_clean_sbu_0, # of connection points: 6
#     Node 13, Type 0, BuildingBlock: UKALOJ_clean_sbu_0, # of connection points: 6
#     Node 14, Type 0, BuildingBlock: UKALOJ_clean_sbu_0, # of connection points: 6
#     Node 15, Type 0, BuildingBlock: UKALOJ_clean_sbu_0, # of connection points: 6
#     Edge 16, Type (0, 0), BuildingBlock: OJICUG_clean_linker_0, # of connection points: 2
#     Edge 17, Type (0, 0), BuildingBlock: OJICUG_clean_linker_0, # of connection points: 2
#     Edge 18, Type (0, 0), BuildingBlock: OJICUG_clean_linker_0, # of connection points: 2
#     Edge 19, Type (0, 0), BuildingBlock: OJICUG_clean_linker_0, # of connection points: 2
#     Edge 20, Type (0, 0), BuildingBlock: OJICUG_clean_linker_0, # of connection points: 2
#     Edge 21, Type (0, 0), BuildingBlock: OJICUG_clean_linker_0, # of connection points: 2
#     Edge 22, Type (0, 0), BuildingBlock: OJICUG_clean_linker_0, # of connection points: 2
#     Edge 23, Type (0, 0), BuildingBlock: OJICUG_clean_linker_0, # of connection points: 2
#     Edge 24, Type (0, 0), BuildingBlock: OJICUG_clean_linker_0, # of connection points: 2
#     Edge 25, Type (0, 0), BuildingBlock: OJICUG_clean_linker_0, # of connection points: 2
#     Edge 26, Type (0, 0), BuildingBlock: OJICUG_clean_linker_0, # of connection points: 2
#     Edge 27, Type (0, 0), BuildingBlock: OJICUG_clean_linker_0, # of connection points: 2
#     Edge 28, Type (0, 0), BuildingBlock: OJICUG_clean_linker_0, # of connection points: 2
#     Edge 29, Type (0, 0), BuildingBlock: OJICUG_clean_linker_0, # of connection points: 2
#     Edge 30, Type (0, 0), BuildingBlock: OJICUG_clean_linker_0, # of connection points: 2
#     Edge 31, Type (0, 0), BuildingBlock: OJICUG_clean_linker_0, # of connection points: 2
#     Edge 32, Type (0, 0), BuildingBlock: OJICUG_clean_linker_0, # of connection points: 2
#     Edge 33, Type (0, 0), BuildingBlock: OJICUG_clean_linker_0, # of connection points: 2
#     Edge 34, Type (0, 0), BuildingBlock: OJICUG_clean_linker_0, # of connection points: 2
#     Edge 35, Type (0, 0), BuildingBlock: OJICUG_clean_linker_0, # of connection points: 2
#     Edge 36, Type (0, 0), BuildingBlock: OJICUG_clean_linker_0, # of connection points: 2
#     Edge 37, Type (0, 0), BuildingBlock: OJICUG_clean_linker_0, # of connection points: 2
#     Edge 38, Type (0, 0), BuildingBlock: OJICUG_clean_linker_0, # of connection points: 2
#     Edge 39, Type (0, 0), BuildingBlock: OJICUG_clean_linker_0, # of connection points: 2
#     Edge 40, Type (0, 0), BuildingBlock: OJICUG_clean_linker_0, # of connection points: 2
#     Edge 41, Type (0, 0), BuildingBlock: OJICUG_clean_linker_0, # of connection points: 2
#     Edge 42, Type (0, 0), BuildingBlock: OJICUG_clean_linker_0, # of connection points: 2
#     Edge 43, Type (0, 0), BuildingBlock: OJICUG_clean_linker_0, # of connection points: 2
#     Edge 44, Type (0, 0), BuildingBlock: OJICUG_clean_linker_0, # of connection points: 2
#     Edge 45, Type (0, 0), BuildingBlock: OJICUG_clean_linker_0, # of connection points: 2
#     Edge 46, Type (0, 0), BuildingBlock: OJICUG_clean_linker_0, # of connection points: 2
#     Edge 47, Type (0, 0), BuildingBlock: OJICUG_clean_linker_0, # of connection points: 2
#     Edge 48, Type (0, 0), BuildingBlock: OJICUG_clean_linker_0, # of connection points: 2
#     Edge 49, Type (0, 0), BuildingBlock: OJICUG_clean_linker_0, # of connection points: 2
#     Edge 50, Type (0, 0), BuildingBlock: OJICUG_clean_linker_0, # of connection points: 2
#     Edge 51, Type (0, 0), BuildingBlock: OJICUG_clean_linker_0, # of connection points: 2
#     Edge 52, Type (0, 0), BuildingBlock: OJICUG_clean_linker_0, # of connection points: 2
#     Edge 53, Type (0, 0), BuildingBlock: OJICUG_clean_linker_0, # of connection points: 2
#     Edge 54, Type (0, 0), BuildingBlock: OJICUG_clean_linker_0, # of connection points: 2
#     Edge 55, Type (0, 0), BuildingBlock: OJICUG_clean_linker_0, # of connection points: 2
#     Edge 56, Type (0, 0), BuildingBlock: OJICUG_clean_linker_0, # of connection points: 2
#     Edge 57, Type (0, 0), BuildingBlock: OJICUG_clean_linker_0, # of connection points: 2
#     Edge 58, Type (0, 0), BuildingBlock: OJICUG_clean_linker_0, # of connection points: 2
#     Edge 59, Type (0, 0), BuildingBlock: OJICUG_clean_linker_0, # of connection points: 2
#     Edge 60, Type (0, 0), BuildingBlock: OJICUG_clean_linker_0, # of connection points: 2
#     Edge 61, Type (0, 0), BuildingBlock: OJICUG_clean_linker_0, # of connection points: 2
#     Edge 62, Type (0, 0), BuildingBlock: OJICUG_clean_linker_0, # of connection points: 2
#     Edge 63, Type (0, 0), BuildingBlock: OJICUG_clean_linker_0, # of connection points: 2
# Relax obj value: 0.568
# Max RMSD: 0.380
# Mean RMSD: 0.264
data_MOF--net-crs--node1-UKALOJ_clean_sbu_0--edge1-OJICUG_clean_linker_0
_symmetry_space_group_name_H-M    P1
_symmetry_Int_Tables_number       1
_symmetry_cell_setting            triclinic
loop_
_symmetry_equiv_pos_as_xyz
'x, y, z'
_cell_length_a     35.384778
_cell_length_b     35.466591
_cell_length_c     30.268287
_cell_angle_alpha  85.925228
_cell_angle_beta   94.158607
_cell_angle_gamma 104.97633
loop_
_atom_site_label
_atom_site_type_symbol
_atom_site_fract_x
_atom_site_fract_y
_atom_site_fract_z
_atom_type_partial_charge
Zn0 Zn -0.00404 0.00236 0.00492 0.0
O1 O 0.03551 0.98515 0.05219 0.0
C2 C 0.06386 0.06699 0.97087 0.0
Zn3 Zn 0.02798 -0.01235 0.95055 0.0
C4 C 0.065 0.97429 0.04154 0.0
O5 O 0.06974 0.97165 0.0005 0.0
C6 C 0.95814 0.01738 0.91571 0.0
O7 O -0.00943 0.93168 0.95974 0.0
O8 O 0.95783 0.94602 0.01208 0.0
N9 N 0.05035 0.9651 0.90065 0.0
C10 C 0.03038 0.94298 0.8677 0.0
C11 C 0.08896 0.93736 0.87072 0.0
N12 N 0.08686 0.96178 0.9022 0.0
N13 N 0.05396 0.92551 0.84833 0.0
C14 C 0.98304 0.04852 0.08371 0.0
C15 C 0.92083 0.03815 0.08031 0.0
N16 N 0.96879 0.02225 0.05265 0.0
N17 N 0.93011 0.01556 0.05096 0.0
N18 N 0.95356 0.05894 0.10141 0.0
H19 H 0.04425 0.04938 0.08269 0.0
H20 H 0.03223 0.07248 0.12865 0.0
H21 H 0.03325 0.09642 0.07445 0.0
C22 C 0.02567 0.06753 0.09288 0.0
C23 C 0.98693 0.93517 0.85654 0.0
H24 H 0.97443 0.90455 0.84737 0.0
H25 H 0.98198 0.95453 0.82748 0.0
H26 H 0.97028 0.94018 0.88383 0.0
O27 O 0.98651 0.00581 0.90294 0.0
O28 O 0.95543 0.01939 0.95701 0.0
C29 C 0.96403 0.92116 0.98711 0.0
O30 O 0.03653 0.05773 -0.00222 0.0
O31 O 0.06685 0.04301 0.94287 0.0
Zn32 Zn 0.023 0.2449 0.27606 0.0
O33 O 0.00181 0.19597 0.23761 0.0
C34 C 0.07204 0.285 0.19884 0.0
Zn35 Zn -0.00855 0.27614 0.2248 0.0
C36 C 0.98143 0.19525 0.2013 0.0
O37 O 0.97202 0.22612 0.18602 0.0
C38 C 0.03196 0.32517 0.3023 0.0
O39 O 0.9422 0.25503 0.26273 0.0
O40 O 0.9726 0.22557 0.31436 0.0
N41 N 0.95901 0.30592 0.18275 0.0
C42 C 0.93035 0.32265 0.19165 0.0
C43 C 0.93274 0.3251 0.12135 0.0
N44 N 0.96049 0.30761 0.139 0.0
N45 N 0.91312 0.33438 0.15374 0.0
C46 C 0.07524 0.18869 0.30922 0.0
C47 C 0.06282 0.1776 0.37747 0.0
N48 N 0.05198 0.21173 0.31803 0.0
N49 N 0.04441 0.20479 0.36053 0.0
N50 N 0.08254 0.16718 0.34595 0.0
H51 H 0.0701 0.19476 0.23712 0.0
H52 H 0.08804 0.1539 0.25941 0.0
H53 H 0.11903 0.20261 0.26144 0.0
C54 C 0.08846 0.18474 0.2641 0.0
C55 C 0.9203 0.32936 0.23732 0.0
H56 H 0.94477 0.3294 0.26208 0.0
H57 H 0.8947 0.30587 0.24757 0.0
H58 H 0.91229 0.35761 0.23736 0.0
O59 O 0.01198 0.32559 0.26552 0.0
O60 O 0.04261 0.29438 0.31547 0.0
C61 C 0.94151 0.23451 0.29885 0.0
O62 O 0.07281 0.26515 0.23562 0.0
O63 O 0.04108 0.29552 0.18596 0.0
Zn64 Zn 0.73264 0.2874 0.54152 0.0
O65 O 0.67603 0.2516 0.53121 0.0
C66 C 0.7603 0.21717 0.5782 0.0
Zn67 Zn 0.74747 0.2545 0.48808 0.0
C68 C 0.66536 0.22501 0.50395 0.0
O69 O 0.69045 0.21769 0.48011 0.0
C70 C 0.8129 0.32115 0.52269 0.0
O71 O 0.73228 0.29385 0.43954 0.0
O72 O 0.71914 0.3293 0.49021 0.0
N73 N 0.76711 0.22555 0.44209 0.0
C74 C 0.79428 0.23822 0.41175 0.0
C75 C 0.78167 0.17599 0.41657 0.0
N76 N 0.75904 0.18684 0.4447 0.0
N77 N 0.8038 0.20776 0.39538 0.0
C78 C 0.68703 0.29253 0.62286 0.0
C79 C 0.68304 0.35155 0.61849 0.0
N80 N 0.70988 0.31142 0.59003 0.0
N81 N 0.70751 0.34819 0.58759 0.0
N82 N 0.67017 0.31709 0.64136 0.0
H83 H 0.64697 0.23786 0.64361 0.0
H84 H 0.69685 0.24405 0.66401 0.0
H85 H 0.68238 0.23196 0.60771 0.0
C86 C 0.67784 0.24925 0.63465 0.0
C87 C 0.8147 0.28021 0.40157 0.0
H88 H 0.82188 0.28507 0.36622 0.0
H89 H 0.84263 0.28777 0.42206 0.0
H90 H 0.79642 0.29976 0.40872 0.0
O91 O 0.80343 0.29383 0.49579 0.0
O92 O 0.78873 0.32476 0.55019 0.0
C93 C 0.72243 0.32408 0.44942 0.0
O94 O 0.74868 0.24565 0.59048 0.0
O95 O 0.76292 0.21431 0.53707 0.0
Zn96 Zn 0.74103 0.02582 0.77272 0.0
O97 O 0.75607 0.08076 0.73502 0.0
C98 C 0.68167 -0.00105 0.69826 0.0
Zn99 Zn 0.76674 0.00056 0.71935 0.0
C100 C 0.77211 0.08493 0.69796 0.0
O101 O 0.78183 0.056 0.68355 0.0
C102 C 0.73697 0.94125 0.79358 0.0
O103 O 0.82179 0.01296 0.75776 0.0
O104 O 0.79677 0.0389 0.8087 0.0
N105 N 0.78718 0.97213 0.67156 0.0
C106 C 0.82181 0.96387 0.66639 0.0
C107 C 0.77938 0.92828 0.62323 0.0
N108 N 0.76109 0.95017 0.64422 0.0
N109 N 0.81759 0.93584 0.63677 0.0
C110 C 0.69336 0.07531 0.81671 0.0
C111 C 0.69526 0.05487 0.88453 0.0
N112 N 0.71609 0.04973 0.82035 0.0
N113 N 0.71723 0.03722 0.8626 0.0
N114 N 0.68006 0.07914 0.85657 0.0
H115 H 0.68616 0.07942 0.74468 0.0
H116 H 0.70033 0.12496 0.77084 0.0
H117 H 0.6508 0.09556 0.77325 0.0
C118 C 0.68191 0.09453 0.7738 0.0
C119 C 0.85991 0.98503 0.68821 0.0
H120 H 0.86053 0.01624 0.69071 0.0
H121 H 0.88493 0.98333 0.66904 0.0
H122 H 0.86305 0.97158 0.72202 0.0
O123 O 0.75148 0.94562 0.75579 0.0
O124 O 0.72779 0.97008 0.80886 0.0
C125 C 0.82574 0.02881 0.79492 0.0
O126 O 0.68565 0.01209 0.7367 0.0
O127 O 0.7106 -0.01015 0.68307 0.0
Zn128 Zn 0.59843 0.81741 0.28431 0.0
O129 O 0.57752 0.765 0.24932 0.0
C130 C 0.64747 0.85847 0.21002 0.0
Zn131 Zn 0.56768 0.84496 0.22989 0.0
C132 C 0.55776 0.76445 0.21241 0.0
O133 O 0.55237 0.796 0.19424 0.0
C134 C 0.60596 0.89845 0.29948 0.0
O135 O 0.51801 0.81945 0.26703 0.0
O136 O 0.55106 0.79817 0.32331 0.0
N137 N 0.53462 0.87052 0.18553 0.0
C138 C 0.50867 0.89115 0.19216 0.0
C139 C 0.50519 0.88183 0.12299 0.0
N140 N 0.53266 0.865 0.14251 0.0
N141 N 0.48995 0.89874 0.1534 0.0
C142 C 0.63003 0.75515 0.34156 0.0
C143 C 0.68752 0.78753 0.36064 0.0
N144 N 0.6327 0.79266 0.32819 0.0
N145 N 0.66825 0.81296 0.34103 0.0
N146 N 0.66407 0.75095 0.36169 0.0
H147 H 0.56823 0.73096 0.3268 0.0
H148 H 0.59342 0.69786 0.35691 0.0
H149 H 0.6009 0.70972 0.29914 0.0
C150 C 0.59589 0.72161 0.33051 0.0
C151 C 0.49951 0.90142 0.23684 0.0
H152 H 0.51154 0.88526 0.26443 0.0
H153 H 0.46736 0.89552 0.23935 0.0
H154 H 0.51256 0.93304 0.24092 0.0
O155 O 0.58344 0.89455 0.26479 0.0
O156 O 0.6172 0.86939 0.31715 0.0
C157 C 0.51862 0.80085 0.30445 0.0
O158 O 0.64607 0.83661 0.24517 0.0
O159 O 0.6168 0.86772 0.19384 0.0
Zn160 Zn 0.25983 0.76816 0.49375 0.0
O161 O 0.21387 0.71741 0.48744 0.0
C162 C 0.30868 0.72637 0.54902 0.0
Zn163 Zn 0.29395 0.7412 0.45314 0.0
C164 C 0.21814 0.68809 0.46842 0.0
O165 O 0.25001 0.68945 0.45103 0.0
C166 C 0.33742 0.81955 0.48125 0.0
O167 O 0.26706 0.76323 0.39482 0.0
O168 O 0.23683 0.79183 0.43755 0.0
N169 N 0.32749 0.71898 0.41631 0.0
C170 C 0.35078 0.73694 0.38381 0.0
C171 C 0.36635 0.68378 0.40338 0.0
N172 N 0.33673 0.68565 0.42805 0.0
N173 N 0.37538 0.71548 0.37512 0.0
C174 C 0.20254 0.77879 0.56091 0.0
C175 C 0.20349 0.83902 0.54847 0.0
N176 N 0.22846 0.79349 0.52986 0.0
N177 N 0.22937 0.83098 0.52246 0.0
N178 N 0.18667 0.80685 0.57322 0.0
H179 H 0.16241 0.72257 0.55541 0.0
H180 H 0.183 0.73211 0.61061 0.0
H181 H 0.21227 0.72086 0.56993 0.0
C182 C 0.18957 0.73621 0.57514 0.0
C183 C 0.35337 0.7777 0.3642 0.0
H184 H 0.33303 0.79199 0.37789 0.0
H185 H 0.3467 0.7766 0.32788 0.0
H186 H 0.38369 0.79614 0.3696 0.0
O187 O 0.3395 0.79239 0.4574 0.0
O188 O 0.30597 0.81765 0.49974 0.0
C189 C 0.24359 0.78428 0.39913 0.0
O190 O 0.28279 0.74503 0.55051 0.0
O191 O 0.31914 0.71961 0.5117 0.0
Zn192 Zn 0.29131 0.5822 0.77439 0.0
O193 O 0.30848 0.63275 0.73273 0.0
C194 C 0.24252 0.53931 0.70055 0.0
Zn195 Zn 0.32342 0.55285 0.734 0.0
C196 C 0.3311 0.63374 0.70169 0.0
O197 O 0.34311 0.60388 0.6958 0.0
C198 C 0.27958 0.5 0.80339 0.0
O199 O 0.37168 0.57018 0.77901 0.0
O200 O 0.34025 0.60212 0.81645 0.0
N201 N 0.3532 0.52615 0.69715 0.0
C202 C 0.37161 0.49779 0.70804 0.0
C203 C 0.36785 0.50477 0.63739 0.0
N204 N 0.35129 0.53083 0.65329 0.0
N205 N 0.38112 0.48402 0.67116 0.0
C206 C 0.22808 0.62099 0.79786 0.0
C207 C 0.23275 0.61815 0.86858 0.0
N208 N 0.25969 0.6077 0.81047 0.0
N209 N 0.26288 0.60632 0.85443 0.0
N210 N 0.21054 0.62734 0.83358 0.0
H211 H 0.23797 0.63303 0.72791 0.0
H212 H 0.20041 0.6527 0.74776 0.0
H213 H 0.19095 0.60136 0.74048 0.0
C214 C 0.21384 0.62752 0.7507 0.0
C215 C 0.37596 0.48029 0.75416 0.0
H216 H 0.37219 0.49975 0.77953 0.0
H217 H 0.40529 0.47455 0.76022 0.0
H218 H 0.35373 0.4519 0.75781 0.0
O219 O 0.30124 0.50075 0.77156 0.0
O220 O 0.27354 0.53157 0.8147 0.0
C221 C 0.37094 0.59119 0.81109 0.0
O222 O 0.24154 0.55958 0.73308 0.0
O223 O 0.27504 0.53479 0.69019 0.0
Zn224 Zn 0.00573 0.51292 0.44913 0.0
O225 O 0.02195 0.4753 0.40698 0.0
C226 C 0.94975 0.44594 0.49165 0.0
Zn227 Zn 0.03346 0.48574 0.50511 0.0
C228 C 0.03779 0.44813 0.42117 0.0
O229 O 0.04686 0.44483 0.46255 0.0
C230 C -0.00218 0.55029 0.53071 0.0
O231 O 0.08841 0.52512 0.49332 0.0
O232 O 0.05844 0.5541 0.44148 0.0
N233 N 0.05949 0.46291 0.55825 0.0
C234 C 0.08332 0.48197 0.59066 0.0
C235 C 0.08756 0.42295 0.5962 0.0
N236 N 0.06179 0.42611 0.56191 0.0
N237 N 0.10086 0.4575 0.6151 0.0
C238 C 0.96262 0.53091 0.36128 0.0
C239 C 0.98334 0.59302 0.356 0.0
N240 N 0.98697 0.54164 0.39665 0.0
N241 N 0.00041 0.58015 0.39298 0.0
N242 N 0.95984 0.56264 0.33513 0.0
H243 H 0.94971 0.46851 0.37714 0.0
H244 H 0.94053 0.48218 0.31999 0.0
H245 H 0.90779 0.48749 0.36038 0.0
C246 C 0.93894 0.48983 0.35455 0.0
C247 C 0.09339 0.52548 0.59598 0.0
H248 H 0.12544 0.53713 0.60227 0.0
H249 H 0.07889 0.53116 0.62521 0.0
H250 H 0.08445 0.54223 0.56699 0.0
O251 O 0.01713 0.5262 0.5465 0.0
O252 O -0.01162 0.55086 0.48959 0.0
C253 C 0.08924 0.5528 0.46447 0.0
O254 O 0.95142 0.47062 0.45859 0.0
O255 O 0.98004 0.44645 0.51698 0.0
Zn256 Zn 0.22915 0.287 0.99212 0.0
O257 O 0.26851 0.34171 0.00547 0.0
C258 C 0.29375 0.25242 0.9644 0.0
Zn259 Zn 0.25671 0.25821 0.04675 0.0
C260 C 0.29638 0.34178 0.03402 0.0
O261 O 0.29792 0.31045 0.05551 0.0
C262 C 0.18936 0.20308 0.00353 0.0
O263 O 0.21954 0.27366 0.09005 0.0
O264 O 0.18843 0.29933 0.03563 0.0
N265 N 0.2858 0.23855 0.09813 0.0
C266 C 0.27505 0.21286 0.13224 0.0
C267 C 0.33732 0.23327 0.13781 0.0
N268 N 0.32442 0.25184 0.10201 0.0
N269 N 0.30685 0.20905 0.15776 0.0
C270 C 0.22493 0.33833 0.908 0.0
C271 C 0.16526 0.34092 0.90193 0.0
N272 N 0.20598 0.3137 0.93981 0.0
N273 N 0.16879 0.31496 0.9358 0.0
N274 N 0.2 0.35536 0.88359 0.0
H275 H 0.27962 0.38199 0.89983 0.0
H276 H 0.27511 0.33762 0.8728 0.0
H277 H 0.28544 0.33943 0.9315 0.0
C278 C 0.26865 0.34971 0.90339 0.0
C279 C 0.23402 0.18833 0.13759 0.0
H280 H 0.21232 0.20217 0.11958 0.0
H281 H 0.22745 0.18392 0.17312 0.0
H282 H 0.23107 0.15924 0.12438 0.0
O283 O 0.21424 0.20426 0.03643 0.0
O284 O 0.18978 0.23372 0.979 0.0
C285 C 0.19228 0.28974 0.0768 0.0
O286 O 0.26958 0.27201 0.94968 0.0
O287 O 0.29438 0.2418 0.00517 0.0
Zn288 Zn 0.22465 -0.01352 0.27317 0.0
O289 O 0.24689 0.04435 0.25214 0.0
C290 C 0.18506 0.96836 0.18165 0.0
Zn291 Zn 0.26362 0.9722 0.22566 0.0
C292 C 0.2725 0.055 0.22364 0.0
O293 O 0.28365 0.02967 0.20427 0.0
C294 C 0.21956 0.90275 0.27831 0.0
O295 O 0.30916 0.98303 0.27808 0.0
O296 O 0.27022 -0.00442 0.32508 0.0
N297 N 0.29969 0.95841 0.18353 0.0
C298 C 0.33072 0.94308 0.19095 0.0
C299 C 0.32666 0.95855 0.12168 0.0
N300 N 0.29703 0.96779 0.14042 0.0
N301 N 0.3481 0.94304 0.15285 0.0
C302 C 0.17133 0.03517 0.30422 0.0
C303 C 0.16185 0.01506 0.37148 0.0
N304 N 0.18822 0.00509 0.31252 0.0
N305 N 0.1821 -0.00748 0.35436 0.0
N306 N 0.15515 0.04232 0.34071 0.0
H307 H 0.17303 0.0404 0.23223 0.0
H308 H 0.19269 0.08477 0.25975 0.0
H309 H 0.14079 0.06489 0.25485 0.0
C310 C 0.1693 0.05718 0.26014 0.0
C311 C 0.34383 0.92752 0.23512 0.0
H312 H 0.36671 0.95092 0.25099 0.0
H313 H 0.35692 0.90283 0.23087 0.0
H314 H 0.31903 0.91758 0.25707 0.0
O315 O 0.24408 0.91398 0.24841 0.0
O316 O 0.20496 0.92751 0.29496 0.0
C317 C 0.30418 -0.00682 0.31637 0.0
O318 O 0.17984 0.97726 0.22034 0.0
O319 O 0.21826 0.96361 0.17377 0.0
Zn320 Zn 0.48668 0.22376 0.821 0.0
O321 O 0.45737 0.17285 0.78791 0.0
C322 C 0.53299 0.25711 0.73978 0.0
Zn323 Zn 0.4562 0.25503 0.76941 0.0
C324 C 0.43355 0.17244 0.75439 0.0
O325 O 0.427 0.20428 0.73829 0.0
C326 C 0.5088 0.30608 0.83605 0.0
O327 O 0.41094 0.24579 0.81285 0.0
O328 O 0.4386 0.21367 0.86499 0.0
N329 N 0.42919 0.28658 0.72533 0.0
C330 C 0.41965 0.3204 0.72944 0.0
C331 C 0.41286 0.30913 0.66063 0.0
N332 N 0.42464 0.27938 0.68262 0.0
N333 N 0.40986 0.33527 0.68939 0.0
C334 C 0.5426 0.17059 0.84712 0.0
C335 C 0.54984 0.17068 0.91753 0.0
N336 N 0.51854 0.19113 0.86054 0.0
N337 N 0.52298 0.19095 0.90443 0.0
N338 N 0.56267 0.15786 0.88202 0.0
H339 H 0.52116 0.16473 0.778 0.0
H340 H 0.55091 0.13242 0.79852 0.0
H341 H 0.5732 0.18315 0.78712 0.0
C342 C 0.54675 0.16227 0.79995 0.0
C343 C 0.419 0.3387 0.77249 0.0
H344 H 0.39444 0.35298 0.77115 0.0
H345 H 0.44655 0.36161 0.77797 0.0
H346 H 0.41594 0.31688 0.80082 0.0
O347 O 0.48642 0.30572 0.80124 0.0
O348 O 0.51431 0.27422 0.85367 0.0
C349 C 0.41026 0.22857 0.85117 0.0
O350 O 0.53432 0.23858 0.77711 0.0
O351 O 0.50144 0.26564 0.72616 0.0
Zn352 Zn -0.00924 0.71092 0.72403 0.0
O353 O 0.98318 0.66559 0.68101 0.0
C354 C 0.04466 0.76272 0.66102 0.0
Zn355 Zn 0.9602 0.74111 0.67126 0.0
C356 C 0.96744 0.66509 0.64188 0.0
O357 O 0.95267 0.69328 0.62717 0.0
C358 C -0.00961 0.78746 0.75268 0.0
O359 O 0.90705 0.71165 0.70147 0.0
O360 O 0.93848 0.68245 0.75224 0.0
N361 N 0.93125 0.77494 0.62902 0.0
C362 C 0.90549 0.79422 0.64084 0.0
C363 C 0.92698 0.82091 0.57933 0.0
N364 N 0.94451 0.79162 0.59064 0.0
N365 N 0.90262 0.82341 0.61061 0.0
C366 C 0.04956 0.66716 0.76946 0.0
C367 C 0.03934 0.66941 0.83776 0.0
N368 N 0.0195 0.68363 0.77103 0.0
N369 N 0.01295 0.68468 0.81344 0.0
N370 N 0.06234 0.65793 0.81083 0.0
H371 H 0.0548 0.67451 0.69798 0.0
H372 H 0.06765 0.63225 0.72423 0.0
H373 H 0.10032 0.67955 0.73095 0.0
C374 C 0.06894 0.66343 0.72804 0.0
C375 C 0.88103 0.7827 0.68047 0.0
H376 H 0.86158 0.75328 0.67569 0.0
H377 H 0.86175 0.80222 0.68422 0.0
H378 H 0.89964 0.78167 0.71131 0.0
O379 O 0.97205 0.78849 0.71513 0.0
O380 O -0.00036 0.75637 0.7664 0.0
C381 C 0.9065 0.68821 0.73536 0.0
O382 O 0.04337 0.74016 0.69567 0.0
O383 O 0.01313 0.76848 0.64246 0.0
Zn384 Zn 0.72435 0.52169 0.26389 0.0
O385 O 0.73081 0.56627 0.21086 0.0
C386 C 0.65404 0.47465 0.21465 0.0
Zn387 Zn 0.73812 0.48311 0.21567 0.0
C388 C 0.73994 0.56165 0.172 0.0
O389 O 0.74409 0.52838 0.16316 0.0
C390 C 0.72341 0.44448 0.3084 0.0
O391 O 0.79647 0.50676 0.23387 0.0
O392 O 0.78259 0.54276 0.28316 0.0
N393 N 0.75604 0.44713 0.1755 0.0
C394 C 0.78057 0.4238 0.1855 0.0
C395 C 0.76985 0.42542 0.11529 0.0
N396 N 0.74939 0.44802 0.13182 0.0
N397 N 0.78938 0.40967 0.14842 0.0
C398 C 0.71992 0.59589 0.3099 0.0
C399 C 0.67263 0.57292 0.35197 0.0
N400 N 0.70835 0.55702 0.30531 0.0
N401 N 0.67925 0.54276 0.33184 0.0
N402 N 0.69766 0.60665 0.33866 0.0
H403 H 0.77703 0.60852 0.28255 0.0
H404 H 0.76649 0.64902 0.30732 0.0
H405 H 0.74354 0.63318 0.2545 0.0
C406 C 0.75379 0.62311 0.28752 0.0
C407 C 0.79867 0.41714 0.23094 0.0
H408 H 0.79878 0.44038 0.25328 0.0
H409 H 0.82932 0.41533 0.22882 0.0
H410 H 0.78178 0.38891 0.2459 0.0
O411 O 0.73165 0.43888 0.26951 0.0
O412 O 0.71856 0.47758 0.31615 0.0
C413 C 0.80764 0.53213 0.26257 0.0
O414 O 0.66574 0.49996 0.24359 0.0
O415 O 0.67884 0.4612 0.19653 0.0
Zn416 Zn 0.75945 0.77036 0.00327 0.0
O417 O 0.69929 0.74934 0.0034 0.0
C418 C 0.77014 0.69554 0.04374 0.0
Zn419 Zn 0.76978 0.73542 0.95073 0.0
C420 C 0.68615 0.72171 0.97753 0.0
O421 O 0.70903 0.71251 0.95205 0.0
C422 C 0.84368 0.78331 0.98161 0.0
O423 O 0.76097 0.77854 0.89885 0.0
O424 O 0.75248 0.81271 0.95267 0.0
N425 N 0.77156 0.69666 0.90517 0.0
C426 C 0.78908 0.70165 0.86647 0.0
C427 C 0.76546 0.64039 0.87851 0.0
N428 N 0.75652 0.6586 0.91244 0.0
N429 N 0.78518 0.66693 0.84884 0.0
C430 C 0.74769 0.81384 0.08416 0.0
C431 C 0.78131 0.8714 0.06589 0.0
N432 N 0.7627 0.81206 0.04532 0.0
N433 N 0.78396 0.84769 0.03423 0.0
N434 N 0.7594 0.85058 0.09795 0.0
H435 H 0.69151 0.78938 0.11085 0.0
H436 H 0.73125 0.77401 0.14012 0.0
H437 H 0.71204 0.75407 0.08742 0.0
C438 C 0.71892 0.78067 0.10659 0.0
C439 C 0.81311 0.73993 0.84755 0.0
H440 H 0.81844 0.76343 0.87097 0.0
H441 H 0.79753 0.74873 0.81698 0.0
H442 H 0.84176 0.73661 0.83809 0.0
O443 O 0.83223 0.75922 0.95136 0.0
O444 O 0.81872 0.79057 0.00505 0.0
C445 C 0.75367 0.80925 0.91149 0.0
O446 O 0.76447 0.72764 0.05431 0.0
O447 O 0.77591 0.69168 0.00336 0.0
Zn448 Zn 0.47771 0.03514 0.53801 0.0
O449 O 0.52137 0.02811 0.59032 0.0
C450 C 0.52502 0.10857 0.50541 0.0
Zn451 Zn 0.51269 0.02409 0.48604 0.0
C452 C 0.552 0.02029 0.57808 0.0
O453 O 0.55528 0.01818 0.53703 0.0
C454 C 0.43763 0.03288 0.44466 0.0
O455 O 0.49155 0.96366 0.48773 0.0
O456 O 0.45564 0.97471 0.53933 0.0
N457 N 0.55452 0.02672 0.44445 0.0
C458 C 0.55752 0.00759 0.40896 0.0
C459 C 0.61378 0.04604 0.42347 0.0
N460 N 0.58929 0.05094 0.45316 0.0
N461 N 0.59423 0.01953 0.39499 0.0
C462 C 0.44481 0.05561 0.62179 0.0
C463 C 0.38322 0.03219 0.61079 0.0
N464 N 0.43911 0.0379 0.58319 0.0
N465 N 0.40087 0.02304 0.57649 0.0
N466 N 0.41034 0.0519 0.64003 0.0
H467 H 0.50612 0.08645 0.61534 0.0
H468 H 0.49394 0.06286 0.6688 0.0
H469 H 0.48034 0.10727 0.65201 0.0
C470 C 0.48359 0.07947 0.64005 0.0
C471 C 0.52605 0.97423 0.3913 0.0
H472 H 0.49692 0.97478 0.40198 0.0
H473 H 0.53256 0.94629 0.40388 0.0
H474 H 0.52542 0.97538 0.35455 0.0
O475 O 0.47018 0.02795 0.43447 0.0
O476 O 0.43342 0.03895 0.48488 0.0
C477 C 0.46468 0.95112 0.51477 0.0
O478 O 0.50064 0.0975 0.53534 0.0
O479 O 0.53273 0.08334 0.48282 0.0
Zn480 Zn 0.48424 0.54658 0.05515 0.0
O481 O 0.50838 0.51772 0.11006 0.0
C482 C 0.56116 0.59178 0.024 0.0
Zn483 Zn 0.50984 0.51456 0.01066 0.0
C484 C 0.52914 0.49466 0.10315 0.0
O485 O 0.53549 0.4895 0.06379 0.0
C486 C 0.4655 0.56477 0.96127 0.0
O487 O 0.45964 0.46835 0.01628 0.0
O488 O 0.43274 0.502 0.05756 0.0
N489 N 0.53514 0.48585 0.9715 0.0
C490 C 0.52088 0.46012 0.94022 0.0
C491 C 0.58197 0.4636 0.95102 0.0
N492 N 0.57314 0.48833 0.97788 0.0
N493 N 0.54974 0.44598 0.92676 0.0
C494 C 0.48487 0.59936 0.13012 0.0
C495 C 0.43125 0.61594 0.11774 0.0
N496 N 0.46447 0.57795 0.09715 0.0
N497 N 0.43082 0.58776 0.08991 0.0
N498 N 0.4647 0.62336 0.14361 0.0
H499 H 0.5398 0.58142 0.12922 0.0
H500 H 0.52862 0.59476 0.18166 0.0
H501 H 0.54509 0.63172 0.13905 0.0
C502 C 0.52686 0.60151 0.14534 0.0
C503 C 0.47825 0.44588 0.9265 0.0
H504 H 0.46522 0.41939 0.94745 0.0
H505 H 0.47424 0.43792 0.8914 0.0
H506 H 0.46248 0.46847 0.93083 0.0
O507 O 0.48446 0.53955 0.95677 0.0
O508 O 0.45993 0.57352 -0.00012 0.0
C509 C 0.43095 0.4713 0.03754 0.0
O510 O 0.53515 0.5931 0.04995 0.0
O511 O 0.55866 0.56072 0.00472 0.0
C512 C 0.9434 0.12384 0.11093 0.0
C513 C 0.95647 0.09137 0.12827 0.0
H514 H 0.94116 0.18259 0.12036 0.0
C515 C 0.97496 0.09211 0.17075 0.0
H516 H 0.92909 0.12364 0.07805 0.0
C517 C 0.98204 0.12556 0.19485 0.0
C518 C 0.9706 0.15894 0.17688 0.0
H519 H 0.98473 0.06706 0.18476 0.0
H520 H -0.00267 0.12551 0.22718 0.0
C521 C 0.95047 0.15748 0.13501 0.0
C522 C 0.83602 0.22172 0.32506 0.0
C523 C 0.83662 0.20914 0.36984 0.0
H524 H 0.86852 0.23837 0.26702 0.0
C525 C 0.87087 0.20156 0.39057 0.0
H526 H 0.80968 0.22755 0.30876 0.0
C527 C 0.90489 0.2084 0.36717 0.0
C528 C 0.90493 0.22283 0.32272 0.0
H529 H 0.87163 0.19202 0.42533 0.0
H530 H 0.93142 0.20379 0.3843 0.0
C531 C 0.86979 0.22824 0.30155 0.0
C532 C 0.76286 0.15312 0.68445 0.0
C533 C 0.7747 0.12147 0.6694 0.0
H534 H 0.74944 0.20824 0.66789 0.0
C535 C 0.78502 0.12346 0.62512 0.0
H536 H 0.75482 0.15274 0.71834 0.0
C537 C 0.78168 0.1552 0.59614 0.0
C538 C 0.7681 0.18598 0.6106 0.0
H539 H 0.79421 0.09973 0.61223 0.0
H540 H 0.78867 0.15497 0.56192 0.0
C541 C 0.7597 0.18501 0.65545 0.0
C542 C 0.89429 0.03576 0.89854 0.0
C543 C 0.92671 0.02524 0.8835 0.0
H544 H 0.83749 0.04554 0.88259 0.0
C545 C 0.9272 0.0197 0.83799 0.0
H546 H 0.89285 0.04045 0.93328 0.0
C547 C 0.89529 0.02268 0.80877 0.0
C548 C 0.86203 0.03129 0.82423 0.0
H549 H 0.95177 0.01195 0.82507 0.0
H550 H 0.89639 0.01735 0.77423 0.0
C551 C 0.86247 0.0388 0.86933 0.0
C552 C 0.08778 0.97161 0.1218 0.0
C553 C 0.09463 0.96826 0.07715 0.0
H554 H 0.11044 0.97415 0.18926 0.0
C555 C 0.13089 0.96233 0.06741 0.0
H556 H 0.06028 0.97618 0.13079 0.0
C557 C 0.15995 0.96111 0.10139 0.0
C558 C 0.15341 0.96588 0.14582 0.0
H559 H 0.13726 0.95977 0.03345 0.0
H560 H 0.18791 0.95752 0.09266 0.0
C561 C 0.11668 0.97049 0.15554 0.0
C562 C 0.02896 0.4224 0.34496 0.0
C563 C 0.04173 0.41888 0.38989 0.0
H564 H 0.01618 0.3961 0.28233 0.0
C565 C 0.05483 0.38567 0.40472 0.0
H566 H 0.01869 0.44752 0.33217 0.0
C567 C 0.05353 0.35601 0.37577 0.0
C568 C 0.03895 0.3588 0.33139 0.0
H569 H 0.0648 0.38193 0.43904 0.0
H570 H 0.0625 0.33019 0.38868 0.0
C571 C 0.02752 0.39281 0.31621 0.0
C572 C 0.6392 0.28465 0.70919 0.0
C573 C 0.63705 0.306 0.66861 0.0
H574 H 0.60793 0.25184 0.76333 0.0
C575 C 0.60077 0.31145 0.65185 0.0
H576 H 0.66698 0.27998 0.72245 0.0
C577 C 0.56692 0.29488 0.67458 0.0
C578 C 0.56871 0.27262 0.71473 0.0
H579 H 0.59844 0.32727 0.62025 0.0
H580 H 0.5393 0.2994 0.66049 0.0
C581 C 0.60535 0.2681 0.73209 0.0
C582 C 0.72757 0.90276 0.86666 0.0
C583 C 0.73627 0.90491 0.82186 0.0
H584 H 0.72641 0.87135 0.92966 0.0
C585 C 0.74869 0.87388 0.80595 0.0
H586 H 0.71814 0.92605 0.88024 0.0
C587 C 0.75352 0.84222 0.8345 0.0
C588 C 0.74633 0.84101 0.8797 0.0
H589 H 0.75584 0.87458 0.77166 0.0
H590 H 0.76393 0.81931 0.82144 0.0
C591 C 0.73264 0.87138 0.89514 0.0
C592 C 0.1305 0.30717 0.09507 0.0
C593 C 0.16378 0.29379 0.10894 0.0
H594 H 0.07561 0.31537 0.11261 0.0
C595 C 0.16821 0.28115 0.15376 0.0
H596 H 0.12611 0.31711 0.06086 0.0
C597 C 0.13934 0.28012 0.18337 0.0
C598 C 0.10518 0.29175 0.16911 0.0
H599 H 0.19349 0.27074 0.16582 0.0
H600 H 0.14328 0.26897 0.21717 0.0
C601 C 0.10156 0.30622 0.12483 0.0
C602 C 0.72381 0.37592 0.33514 0.0
C603 C 0.72035 0.41308 0.3444 0.0
H604 H 0.72658 0.31891 0.36051 0.0
C605 C 0.71488 0.42004 0.3885 0.0
H606 H 0.72773 0.36931 0.30165 0.0
C607 C 0.7141 0.39086 0.42263 0.0
C608 C 0.71867 0.35404 0.41341 0.0
H609 H 0.71201 0.44832 0.39686 0.0
H610 H 0.71094 0.3975 0.45634 0.0
C611 C 0.72296 0.34687 0.36907 0.0
C612 C 0.58434 0.01945 0.65554 0.0
C613 C 0.58349 0.01259 0.61025 0.0
H614 H 0.61574 0.02018 0.71902 0.0
C615 C 0.6136 -0.0018 0.59523 0.0
H616 H 0.56161 0.03036 0.6683 0.0
C617 C 0.64426 -0.00813 0.62425 0.0
C618 C 0.64597 -5e-05 0.66922 0.0
H619 H 0.61385 -0.0078 0.56067 0.0
H620 H 0.66733 0.98178 0.61101 0.0
C621 C 0.6153 0.01335 0.68465 0.0
C622 C 0.01896 0.8938 0.78184 0.0
C623 C 0.04136 0.89202 0.82183 0.0
H624 H 0.98423 0.86193 0.72898 0.0
C625 C 0.04651 0.85584 0.83898 0.0
H626 H 0.01441 0.9215 0.76836 0.0
C627 C 0.02891 0.82182 0.81713 0.0
C628 C 0.00588 0.82328 0.77743 0.0
H629 H 0.06305 0.85378 0.8702 0.0
H630 H 0.03347 0.79435 0.83142 0.0
C631 C 0.00129 0.85971 0.75981 0.0
C632 C 0.11113 0.1278 0.94304 0.0
C633 C 0.09586 0.10196 0.97828 0.0
H634 H 0.15284 0.18083 0.92373 0.0
C635 C 0.1128 0.10837 0.02142 0.0
H636 H 0.09878 0.12297 0.90948 0.0
C637 C 0.14424 0.14053 0.02947 0.0
C638 C 0.15872 0.16722 -0.00544 0.0
H639 H 0.1022 0.08805 0.04888 0.0
H640 H 0.15654 0.14501 0.06311 0.0
C641 C 0.14199 0.16063 0.95125 0.0
C642 C 0.68411 0.65333 0.38831 0.0
C643 C 0.69427 0.64507 0.34661 0.0
H644 H 0.66658 0.69466 0.42602 0.0
C645 C 0.6966 0.67341 0.31139 0.0
H646 H 0.68141 0.6316 0.41569 0.0
C647 C 0.68919 0.70917 0.31764 0.0
C648 C 0.67812 0.71697 0.3588 0.0
H649 H 0.70192 0.6673 0.27829 0.0
H650 H 0.68982 0.73009 0.28965 0.0
C651 C 0.67592 0.68915 0.39435 0.0
C652 C 0.37514 0.87003 0.53082 0.0
C653 C 0.37241 0.85075 0.49145 0.0
H654 H 0.40811 0.9157 0.5705 0.0
C655 C 0.40386 0.86039 0.46348 0.0
H656 H 0.35183 0.86221 0.5537 0.0
C657 C 0.43634 0.89121 0.4731 0.0
C658 C 0.43772 0.91228 0.51103 0.0
H659 H 0.40264 0.84524 0.43337 0.0
H660 H 0.45903 0.9 0.4495 0.0
C661 C 0.40769 0.90023 0.54077 0.0
C662 C 0.12823 0.67222 0.84734 0.0
C663 C 0.09772 0.64681 0.82358 0.0
H664 H 0.18925 0.68563 0.86902 0.0
C665 C 0.10363 0.61266 0.80814 0.0
H666 H 0.12392 0.69876 0.85933 0.0
C667 C 0.14046 0.60528 0.81366 0.0
C668 C 0.17178 0.63214 0.83439 0.0
H669 H 0.0801 0.59255 0.79044 0.0
H670 H 0.14499 0.57935 0.80035 0.0
C671 C 0.16528 0.66488 0.85275 0.0
C672 C 0.85583 0.36855 0.4723 0.0
C673 C 0.84831 0.35264 0.5156 0.0
H674 H 0.89344 0.41151 0.43085 0.0
C675 C 0.87315 0.36884 0.55127 0.0
H676 H 0.83626 0.35725 0.44444 0.0
C677 C 0.90609 0.39963 0.54344 0.0
C678 C 0.91373 0.4154 0.50001 0.0
H679 H 0.86742 0.35733 0.58493 0.0
H680 H 0.92553 0.41123 0.57133 0.0
C681 C 0.88807 0.39996 0.46458 0.0
C682 C 0.41896 0.95756 0.16863 0.0
C683 C 0.38494 0.93495 0.14757 0.0
H684 H 0.48019 0.96478 0.18486 0.0
C685 C 0.38691 0.90322 0.12366 0.0
H686 H 0.41779 0.98258 0.18653 0.0
C687 C 0.42224 0.89252 0.12349 0.0
C688 C 0.45583 0.91366 0.14702 0.0
H689 H 0.36075 0.88572 0.10712 0.0
H690 H 0.42287 0.86655 0.10706 0.0
C691 C 0.45433 0.94729 0.16787 0.0
C692 C 0.42693 0.44326 0.6884 0.0
C693 C 0.39155 0.44806 0.6682 0.0
H694 H 0.46072 0.4027 0.71032 0.0
C695 C 0.36414 0.416 0.65024 0.0
H696 H 0.44844 0.46793 0.70187 0.0
C697 C 0.37093 0.37883 0.65533 0.0
C698 C 0.40504 0.37365 0.67858 0.0
H699 H 0.3366 0.41944 0.63471 0.0
H700 H 0.34881 0.3539 0.64337 0.0
C701 C 0.43369 0.40622 0.6935 0.0
C702 C 0.11849 0.80896 0.57682 0.0
C703 C 0.15269 0.80174 0.59788 0.0
H704 H 0.057 0.80225 0.58053 0.0
C705 C 0.15231 0.7862 0.64168 0.0
H706 H 0.11855 0.82112 0.54297 0.0
C707 C 0.11729 0.77499 0.66308 0.0
C708 C 0.08232 0.77968 0.64097 0.0
H709 H 0.17884 0.78138 0.65857 0.0
H710 H 0.11741 0.76146 0.69631 0.0
C711 C 0.08344 0.79803 0.59824 0.0
C712 C 0.19176 0.85232 0.33653 0.0
C713 C 0.21504 0.86349 0.29994 0.0
H714 H 0.18224 0.81717 0.39681 0.0
C715 C 0.24052 0.84082 0.2905 0.0
H716 H 0.17128 0.86866 0.34411 0.0
C717 C 0.24706 0.81145 0.32094 0.0
C718 C 0.22798 0.80442 0.36081 0.0
H719 H 0.2584 0.8483 0.26202 0.0
H720 H 0.26973 0.79713 0.31525 0.0
C721 C 0.19819 0.82291 0.36679 0.0
C722 C 0.9608 0.63445 0.56768 0.0
C723 C 0.97069 0.6335 0.61347 0.0
H724 H 0.96158 0.609 0.50562 0.0
C725 C -0.01227 0.60365 0.63192 0.0
H726 H 0.94792 0.65706 0.55229 0.0
C727 C -0.00409 0.57642 0.60528 0.0
C728 C 0.98714 0.57799 0.55935 0.0
H729 H -0.00416 0.60183 0.66706 0.0
H730 H 0.00973 0.55449 0.62068 0.0
C731 C 0.96887 0.60696 0.54094 0.0
C732 C 0.44686 0.73657 0.38156 0.0
C733 C 0.4119 0.73078 0.35503 0.0
H734 H 0.50821 0.76429 0.38668 0.0
C735 C 0.41239 0.74702 0.31149 0.0
H736 H 0.44677 0.72477 0.41555 0.0
C737 C 0.447 0.77063 0.2954 0.0
C738 C 0.48181 0.77779 0.3225 0.0
H739 H 0.38557 0.74269 0.29069 0.0
H740 H 0.44645 0.78325 0.26177 0.0
C741 C 0.48166 0.75981 0.36537 0.0
C742 C 0.27841 0.12467 0.23645 0.0
C743 C 0.28882 0.09645 0.21292 0.0
H744 H 0.2774 0.18477 0.23697 0.0
C745 C 0.31355 0.10815 0.17766 0.0
H746 H 0.26074 0.11648 0.26502 0.0
C747 C 0.32375 0.14706 0.16273 0.0
C748 C 0.30912 0.17434 0.18278 0.0
H749 H 0.32283 0.08705 0.1597 0.0
H750 H 0.33966 0.15519 0.1328 0.0
C751 C 0.28848 0.16363 0.22122 0.0
C752 C 0.80473 0.67642 0.77225 0.0
C753 C 0.80837 0.65985 0.81521 0.0
H754 H 0.83259 0.69668 0.71174 0.0
C755 C 0.84073 0.6449 0.8278 0.0
H756 H 0.77972 0.68793 0.76218 0.0
C757 C 0.87155 0.65101 0.79978 0.0
C758 C 0.87015 0.67199 0.75872 0.0
H759 H 0.84395 0.63222 0.86104 0.0
H760 H 0.89769 0.64214 0.8119 0.0
C761 C 0.83528 0.682 0.74386 0.0
C762 C 0.31713 0.6952 0.66931 0.0
C763 C 0.33648 0.66557 0.66725 0.0
H764 H 0.29324 0.73809 0.63289 0.0
C765 C 0.35392 0.66201 0.62798 0.0
H766 H 0.30398 0.69905 0.69936 0.0
C767 C 0.3474 0.6841 0.58968 0.0
C768 C 0.32367 0.71011 0.59047 0.0
H769 H 0.36963 0.6398 0.62567 0.0
H770 H 0.35849 0.67868 0.55894 0.0
C771 C 0.31075 0.71735 0.63111 0.0
C772 C 0.3332 0.01359 0.39266 0.0
C773 C 0.3382 0.00423 0.34935 0.0
H774 H 0.36044 0.03043 0.45653 0.0
C775 C 0.37648 0.00693 0.33718 0.0
H776 H 0.30424 0.01219 0.40317 0.0
C777 C 0.40868 0.01771 0.36757 0.0
C778 C 0.40372 0.02629 0.41116 0.0
H779 H 0.38174 0.00072 0.30402 0.0
H780 H 0.43752 0.01862 0.35699 0.0
C781 C 0.36553 0.02441 0.42319 0.0
C782 C 0.90418 0.82384 0.94825 0.0
C783 C 0.88335 0.80907 0.98599 0.0
H784 H 0.9467 0.87167 0.91924 0.0
C785 C 0.89469 0.82777 0.02614 0.0
H786 H 0.89588 0.8101 0.91692 0.0
C787 C 0.92218 0.86371 0.02699 0.0
C788 C 0.93985 0.88072 0.98811 0.0
H789 H 0.87933 0.81661 0.05595 0.0
H790 H 0.92818 0.879 0.05748 0.0
C791 C 0.93266 0.85944 0.94946 0.0
C792 C 0.60766 0.18517 0.46221 0.0
C793 C 0.62436 0.20222 0.5016 0.0
H794 H 0.56003 0.1437 0.43184 0.0
C795 C 0.60212 0.1958 0.53944 0.0
H796 H 0.62374 0.19068 0.43229 0.0
C797 C 0.56573 0.16845 0.53949 0.0
C798 C 0.55122 0.14796 0.50139 0.0
H799 H 0.61414 0.20944 0.57 0.0
H800 H 0.55119 0.16051 0.57035 0.0
C801 C 0.57096 0.15882 0.46188 0.0
C802 C 0.84982 0.40244 0.11798 0.0
C803 C 0.81775 0.38763 0.14452 0.0
H804 H 0.90597 0.39691 0.10059 0.0
C805 C 0.81577 0.35297 0.17065 0.0
H806 H 0.85184 0.42917 0.0976 0.0
C807 C 0.84642 0.3347 0.17234 0.0
C808 C 0.87986 0.35098 0.14831 0.0
H809 H 0.79089 0.34069 0.19065 0.0
H810 H 0.84426 0.30812 0.19296 0.0
C811 C 0.88069 0.38419 0.11984 0.0
C812 C 0.16128 0.58259 0.47224 0.0
C813 C 0.12311 0.58655 0.46255 0.0
H814 H 0.22215 0.61252 0.48051 0.0
C815 C 0.11665 0.62388 0.45396 0.0
H816 H 0.16669 0.554 0.47926 0.0
C817 C 0.14777 0.65695 0.45622 0.0
C818 C 0.18588 0.65308 0.4657 0.0
H819 H 0.08731 0.62763 0.44703 0.0
H820 H 0.14209 0.68555 0.45038 0.0
C821 C 0.19272 0.61581 0.47298 0.0
C822 C 0.62095 0.08274 0.89348 0.0
C823 C 0.65254 0.10055 0.86702 0.0
H824 H 0.56715 0.08743 0.91908 0.0
C825 C 0.65609 0.13909 0.84994 0.0
H826 H 0.61774 0.05317 0.90738 0.0
C827 C 0.62732 0.15841 0.85656 0.0
C828 C 0.59461 0.13979 0.88077 0.0
H829 H 0.68087 0.15413 0.831 0.0
H830 H 0.63012 0.18772 0.842 0.0
C831 C 0.59216 0.10223 0.90029 0.0
C832 C 0.76282 0.59303 0.09734 0.0
C833 C 0.74764 0.59551 0.13852 0.0
H834 H 0.78223 0.6225 0.03529 0.0
C835 C 0.7412 0.63147 0.14831 0.0
H836 H 0.76827 0.5659 0.08858 0.0
C837 C 0.74993 0.66401 0.11828 0.0
C838 C 0.76492 0.66163 0.07704 0.0
H839 H 0.72898 0.63455 0.17915 0.0
H840 H 0.74398 0.6909 0.12712 0.0
C841 C 0.77118 0.62562 0.0669 0.0
C842 C 0.9156 0.54135 0.27106 0.0
C843 C 0.92655 0.56517 0.30707 0.0
H844 H 0.8682 0.5115 0.2286 0.0
C845 C 0.90031 0.5844 0.32199 0.0
H846 H 0.93604 0.5271 0.25874 0.0
C847 C 0.86176 0.57561 0.3052 0.0
C848 C 0.84936 0.54762 0.27327 0.0
H849 H 0.90855 0.60303 0.34977 0.0
H850 H 0.84124 0.58857 0.31954 0.0
C851 C 0.87694 0.53238 0.25422 0.0
C852 C 0.20663 0.49365 0.64364 0.0
C853 C 0.20584 0.5162 0.67973 0.0
H854 H 0.17265 0.4556 0.59534 0.0
C855 C 0.16995 0.51363 0.69838 0.0
H856 H 0.23394 0.49443 0.62913 0.0
C857 C 0.1353 0.49054 0.67978 0.0
C858 C 0.13597 0.4699 0.64224 0.0
H859 H 0.1685 0.52977 0.727 0.0
H860 H 0.10762 0.49069 0.69281 0.0
C861 C 0.17187 0.47066 0.62502 0.0
C862 C 0.71533 0.85414 0.20238 0.0
C863 C 0.68331 0.8686 0.18588 0.0
H864 H 0.76616 0.83735 0.18557 0.0
C865 C 0.6837 0.88714 0.14336 0.0
H866 H 0.71624 0.84054 0.23551 0.0
C867 C 0.71281 0.88591 0.11546 0.0
C868 C 0.74121 0.86603 0.13002 0.0
H869 H 0.65974 0.89918 0.13023 0.0
H870 H 0.71051 0.89627 0.08108 0.0
C871 C 0.74409 0.85262 0.17427 0.0
C872 C 0.60206 0.44524 0.15863 0.0
C873 C 0.61353 0.46765 0.19591 0.0
H874 H 0.56482 0.43587 0.09971 0.0
C875 C 0.5893 0.49035 0.20872 0.0
H876 H 0.61957 0.42671 0.1486 0.0
C877 C 0.55806 0.49585 0.18051 0.0
C878 C 0.5508 0.47846 0.13957 0.0
H879 H 0.5969 0.50723 0.238 0.0
H880 H 0.54249 0.51681 0.18862 0.0
C881 C 0.57077 0.45062 0.13057 0.0
C882 C 0.35857 0.44552 0.03235 0.0
C883 C 0.39604 0.4389 0.03917 0.0
H884 H 0.29676 0.41916 0.02422 0.0
C885 C 0.4003 0.4008 0.04598 0.0
H886 H 0.35502 0.47496 0.02675 0.0
C887 C 0.36741 0.36943 0.04597 0.0
C888 C 0.32989 0.37571 0.03775 0.0
H889 H 0.42908 0.39531 0.0513 0.0
H890 H 0.37147 0.34012 0.05087 0.0
C891 C 0.32552 0.41389 0.03082 0.0
C892 C 0.08369 0.09869 0.36596 0.0
C893 C 0.10258 0.13651 0.34972 0.0
H894 H 0.08588 0.03849 0.37542 0.0
C895 C 0.14044 0.14342 0.33471 0.0
H896 H 0.05447 0.09284 0.37787 0.0
C897 C 0.1583 0.11273 0.33367 0.0
C898 C 0.13844 0.07438 0.347 0.0
H899 H 0.15589 0.17255 0.32312 0.0
H900 H 0.18752 0.11884 0.32179 0.0
C901 C 0.10151 0.06779 0.36455 0.0
C902 C 0.23414 0.39192 0.82064 0.0
C903 C 0.21184 0.39094 0.8573 0.0
H904 H 0.2744 0.42726 0.77577 0.0
C905 C 0.21025 0.42598 0.87478 0.0
H906 H 0.236 0.36495 0.80733 0.0
C907 C 0.23262 0.46154 0.85753 0.0
C908 C 0.25694 0.46245 0.82254 0.0
H909 H 0.19385 0.42555 0.90374 0.0
H910 H 0.23158 0.48816 0.87231 0.0
C911 C 0.25672 0.4274 0.80348 0.0
C912 C 0.32033 0.25366 0.8895 0.0
C913 C 0.32173 0.24313 0.93503 0.0
H914 H 0.3464 0.25659 0.82757 0.0
C915 C 0.35096 0.22476 0.95242 0.0
H916 H 0.29821 0.26764 0.87488 0.0
C917 C 0.37894 0.21835 0.92514 0.0
C918 C 0.37822 0.23007 0.87983 0.0
H919 H 0.35286 0.21616 0.9874 0.0
H920 H 0.40176 0.20535 0.9398 0.0
C921 C 0.34807 0.24714 0.86232 0.0
C922 C 0.45702 0.57321 0.87949 0.0
C923 C 0.44782 0.58113 0.92166 0.0
H924 H 0.44012 0.57135 0.81048 0.0
C925 C 0.41874 0.60093 0.92534 0.0
H926 H 0.48007 0.55889 0.8756 0.0
C927 C 0.39598 0.60837 0.88785 0.0
C928 C 0.40208 0.59589 0.84649 0.0
H929 H 0.4116 0.60802 0.95744 0.0
H930 H 0.37158 0.62074 0.89205 0.0
C931 C 0.43432 0.58059 0.84212 0.0
C932 C 0.63541 0.66273 0.95659 0.0
C933 C 0.64823 0.69386 0.98468 0.0
H934 H 0.59877 0.60558 0.94794 0.0
C935 C 0.62966 0.69283 0.02446 0.0
H936 H 0.64894 0.66282 0.92558 0.0
C937 C 0.60079 0.65971 0.03743 0.0
C938 C 0.59061 0.62731 0.01094 0.0
H939 H 0.63912 0.71639 0.04688 0.0
H940 H 0.58761 0.65885 0.06882 0.0
C941 C 0.60718 0.62963 0.9698 0.0
C942 C 0.89035 0.87462 0.65458 0.0
C943 C 0.88456 0.85501 0.61495 0.0
H944 H 0.87237 0.9137 0.69374 0.0
C945 C 0.85996 0.86582 0.58065 0.0
H946 H 0.90987 0.86739 0.6812 0.0
C947 C 0.83952 0.89392 0.58709 0.0
C948 C 0.84351 0.91197 0.62783 0.0
H949 H 0.85539 0.85141 0.54963 0.0
H950 H 0.81955 0.90067 0.56072 0.0
C951 C 0.8695 0.90204 0.66133 0.0
C952 C 0.39349 0.13624 0.69218 0.0
C953 C 0.41754 0.13612 0.73122 0.0
H954 H 0.37158 0.10773 0.63205 0.0
C955 C 0.4305 0.10256 0.74444 0.0
H956 H 0.38256 0.16146 0.6815 0.0
C957 C 0.42376 0.07182 0.71627 0.0
C958 C 0.40401 0.07433 0.6748 0.0
H959 H 0.44861 0.10136 0.77468 0.0
H960 H 0.4372 0.04789 0.7248 0.0
C961 C 0.38672 0.10539 0.66413 0.0
C962 C 0.52375 0.37862 0.83475 0.0
C963 C 0.52553 0.34305 0.85739 0.0
H964 H 0.53028 0.44002 0.83999 0.0
C965 C 0.5402 0.34297 0.90174 0.0
H966 H 0.51369 0.37968 0.80017 0.0
C967 C 0.55019 0.37754 0.92396 0.0
C968 C 0.54551 0.41232 0.9021 0.0
H969 H 0.54211 0.31602 0.91989 0.0
H970 H 0.55958 0.37688 0.9588 0.0
C971 C 0.53345 0.41305 0.85714 0.0
C972 C 0.60385 0.96753 0.29871 0.0
C973 C 0.61547 0.93568 0.3206 0.0
H974 H 0.58831 0.02093 0.30685 0.0
C975 C 0.63059 0.93816 0.36468 0.0
H976 H 0.59301 0.96672 0.26429 0.0
C977 C 0.62854 0.96963 0.38839 0.0
C978 C 0.6114 -0.00167 0.36799 0.0
H979 H 0.64032 0.91425 0.38197 0.0
H980 H 0.63594 0.96929 0.42375 0.0
C981 C 0.60162 -0.00126 0.32256 0.0
C982 C 0.50055 0.65913 0.2064 0.0
C983 C 0.48282 0.65939 0.1635 0.0
H984 H 0.53921 0.69215 0.25538 0.0
C985 C 0.49044 0.69399 0.13662 0.0
H986 H 0.49534 0.63236 0.22717 0.0
C987 C 0.51619 0.72775 0.15199 0.0
C988 C 0.53474 0.72748 0.19462 0.0
H989 H 0.47788 0.69431 0.10293 0.0
H990 H 0.52163 0.75406 0.13038 0.0
C991 C 0.52637 0.69296 0.22192 0.0
loop_
_geom_bond_atom_site_label_1
_geom_bond_atom_site_label_2
_geom_bond_distance
_geom_bond_site_symmetry_2
_ccdc_geom_bond_type
Zn0 O1 2.055 . S
Zn0 O8 2.046 1_445 S
Zn0 N16 2.036 1_455 S
Zn0 O28 2.053 1_454 S
Zn0 O30 2.066 . S
O1 Zn0 2.055 . S
O1 C4 1.259 . S
C2 O30 1.256 1_556 S
C2 O31 1.244 . S
Zn3 O5 2.046 1_556 S
Zn3 O7 2.055 1_456 S
Zn3 N9 2.036 . S
Zn3 O27 2.066 1_465 S
Zn3 O31 2.053 1_565 S
C4 O1 1.259 . S
C4 O5 1.254 1_545 S
O5 Zn3 2.046 1_554 S
O5 C4 1.254 1_565 S
C6 O27 1.256 . S
C6 O28 1.244 . S
O7 Zn3 2.055 1_654 S
O7 C29 1.259 . S
O8 Zn0 2.046 1_665 S
O8 C29 1.254 . S
N9 Zn3 2.036 . S
N9 C10 1.298 . S
N9 N12 1.398 . S
C10 N9 1.298 . S
C10 N13 1.367 . S
C10 C23 1.481 1_455 S
C11 N12 1.299 . S
C11 N13 1.379 . S
N12 N9 1.398 . S
N12 C11 1.299 . S
N13 C10 1.367 . S
N13 C11 1.379 . S
C14 N16 1.298 1_455 S
C14 N18 1.367 1_455 S
C14 C22 1.481 . S
C15 N17 1.299 . S
C15 N18 1.379 . S
N16 Zn0 2.036 1_655 S
N16 C14 1.298 1_655 S
N16 N17 1.398 . S
N17 C15 1.299 . S
N17 N16 1.398 . S
N18 C14 1.367 1_655 S
N18 C15 1.379 . S
H19 C22 0.980 . S
H20 C22 0.981 . S
H21 C22 0.981 . S
C22 C14 1.481 . S
C22 H19 0.980 . S
C22 H20 0.981 . S
C22 H21 0.981 . S
C23 C10 1.481 1_655 S
C23 H24 0.980 . S
C23 H25 0.981 . S
C23 H26 0.981 . S
H24 C23 0.980 . S
H25 C23 0.981 . S
H26 C23 0.981 . S
O27 Zn3 2.066 1_645 S
O27 C6 1.256 . S
O28 Zn0 2.053 1_656 S
O28 C6 1.244 . S
C29 O7 1.259 . S
C29 O8 1.254 . S
O30 Zn0 2.066 . S
O30 C2 1.256 1_554 S
O31 C2 1.244 . S
O31 Zn3 2.053 1_545 S
Zn32 O33 2.055 . S
Zn32 O40 2.046 . S
Zn32 N48 2.036 . S
Zn32 O60 2.053 . S
Zn32 O62 2.066 . S
O33 Zn32 2.055 . S
O33 C36 1.259 . S
C34 O62 1.256 . S
C34 O63 1.244 . S
Zn35 O37 2.046 . S
Zn35 O39 2.055 1_455 S
Zn35 N41 2.048 . S
Zn35 O59 2.066 . S
Zn35 O63 2.053 . S
C36 O33 1.259 . S
C36 O37 1.254 . S
O37 Zn35 2.046 . S
O37 C36 1.254 . S
C38 O59 1.256 . S
C38 O60 1.244 . S
O39 Zn35 2.055 1_655 S
O39 C61 1.268 . S
O40 Zn32 2.046 . S
O40 C61 1.227 1_455 S
N41 Zn35 2.048 . S
N41 C42 1.283 1_455 S
N41 N44 1.403 . S
C42 N41 1.283 1_655 S
C42 N45 1.367 . S
C42 C55 1.481 . S
C43 N44 1.299 1_655 S
C43 N45 1.379 . S
N44 N41 1.403 . S
N44 C43 1.299 1_455 S
N45 C42 1.367 . S
N45 C43 1.379 . S
C46 N48 1.298 . S
C46 N50 1.367 . S
C46 C54 1.481 . S
C47 N49 1.299 . S
C47 N50 1.379 . S
N48 Zn32 2.036 . S
N48 C46 1.298 . S
N48 N49 1.398 . S
N49 C47 1.299 . S
N49 N48 1.398 . S
N50 C46 1.367 . S
N50 C47 1.379 . S
H51 C54 0.980 . S
H52 C54 0.981 . S
H53 C54 0.981 . S
C54 C46 1.481 . S
C54 H51 0.980 . S
C54 H52 0.981 . S
C54 H53 0.981 . S
C55 C42 1.481 . S
C55 H56 0.980 . S
C55 H57 0.981 . S
C55 H58 0.981 . S
H56 C55 0.980 . S
H57 C55 0.981 . S
H58 C55 0.981 . S
O59 Zn35 2.066 . S
O59 C38 1.256 . S
O60 Zn32 2.053 . S
O60 C38 1.244 . S
C61 O39 1.268 . S
C61 O40 1.227 1_655 S
O62 Zn32 2.066 . S
O62 C34 1.256 . S
O63 C34 1.244 . S
O63 Zn35 2.053 . S
Zn64 O65 2.055 . S
Zn64 O72 2.046 . S
Zn64 N80 2.036 . S
Zn64 O92 2.053 . S
Zn64 O94 2.066 . S
O65 Zn64 2.055 . S
O65 C68 1.259 . S
C66 O94 1.256 . S
C66 O95 1.244 . S
Zn67 O69 2.046 . S
Zn67 O71 2.055 . S
Zn67 N73 2.036 . S
Zn67 O91 2.066 . S
Zn67 O95 2.053 . S
C68 O65 1.259 . S
C68 O69 1.254 . S
O69 Zn67 2.046 . S
O69 C68 1.254 . S
C70 O91 1.256 . S
C70 O92 1.244 . S
O71 Zn67 2.055 . S
O71 C93 1.259 . S
O72 Zn64 2.046 . S
O72 C93 1.254 . S
N73 Zn67 2.036 . S
N73 C74 1.298 . S
N73 N76 1.398 . S
C74 N73 1.298 . S
C74 N77 1.367 . S
C74 C87 1.481 . S
C75 N76 1.299 . S
C75 N77 1.379 . S
N76 N73 1.398 . S
N76 C75 1.299 . S
N77 C74 1.367 . S
N77 C75 1.379 . S
C78 N80 1.298 . S
C78 N82 1.367 . S
C78 C86 1.481 . S
C79 N81 1.299 . S
C79 N82 1.379 . S
N80 Zn64 2.036 . S
N80 C78 1.298 . S
N80 N81 1.398 . S
N81 C79 1.299 . S
N81 N80 1.398 . S
N82 C78 1.367 . S
N82 C79 1.379 . S
H83 C86 0.980 . S
H84 C86 0.981 . S
H85 C86 0.981 . S
C86 C78 1.481 . S
C86 H83 0.980 . S
C86 H84 0.981 . S
C86 H85 0.981 . S
C87 C74 1.481 . S
C87 H88 0.980 . S
C87 H89 0.981 . S
C87 H90 0.981 . S
H88 C87 0.980 . S
H89 C87 0.981 . S
H90 C87 0.981 . S
O91 Zn67 2.066 . S
O91 C70 1.256 . S
O92 Zn64 2.053 . S
O92 C70 1.244 . S
C93 O71 1.259 . S
C93 O72 1.254 . S
O94 Zn64 2.066 . S
O94 C66 1.256 . S
O95 C66 1.244 . S
O95 Zn67 2.053 . S
Zn96 O97 2.055 . S
Zn96 O104 2.046 . S
Zn96 N112 2.036 . S
Zn96 O124 2.053 1_545 S
Zn96 O126 2.066 . S
O97 Zn96 2.055 . S
O97 C100 1.259 . S
C98 O126 1.256 . S
C98 O127 1.253 . S
Zn99 O101 2.046 . S
Zn99 O103 2.055 . S
Zn99 N105 2.036 1_545 S
Zn99 O123 2.066 1_545 S
Zn99 O127 2.052 . S
C100 O97 1.259 . S
C100 O101 1.254 . S
O101 Zn99 2.046 . S
O101 C100 1.254 . S
C102 O123 1.256 . S
C102 O124 1.244 . S
O103 Zn99 2.055 . S
O103 C125 1.259 . S
O104 Zn96 2.046 . S
O104 C125 1.254 . S
N105 Zn99 2.036 1_565 S
N105 C106 1.298 . S
N105 N108 1.398 . S
C106 N105 1.298 . S
C106 N109 1.367 . S
C106 C119 1.481 . S
C107 N108 1.299 . S
C107 N109 1.379 . S
N108 N105 1.398 . S
N108 C107 1.299 . S
N109 C106 1.367 . S
N109 C107 1.379 . S
C110 N112 1.298 . S
C110 N114 1.367 . S
C110 C118 1.481 . S
C111 N113 1.299 . S
C111 N114 1.379 . S
N112 Zn96 2.036 . S
N112 C110 1.298 . S
N112 N113 1.398 . S
N113 C111 1.299 . S
N113 N112 1.398 . S
N114 C110 1.367 . S
N114 C111 1.379 . S
H115 C118 0.980 . S
H116 C118 0.981 . S
H117 C118 0.981 . S
C118 C110 1.481 . S
C118 H115 0.980 . S
C118 H116 0.981 . S
C118 H117 0.981 . S
C119 C106 1.481 . S
C119 H120 0.980 . S
C119 H121 0.981 . S
C119 H122 0.981 . S
H120 C119 0.980 . S
H121 C119 0.981 . S
H122 C119 0.981 . S
O123 Zn99 2.066 1_565 S
O123 C102 1.256 . S
O124 Zn96 2.053 1_565 S
O124 C102 1.244 . S
C125 O103 1.259 . S
C125 O104 1.254 . S
O126 Zn96 2.066 . S
O126 C98 1.256 . S
O127 C98 1.253 . S
O127 Zn99 2.052 . S
Zn128 O129 2.055 . S
Zn128 O136 2.046 . S
Zn128 N144 2.036 . S
Zn128 O156 2.053 . S
Zn128 O158 2.066 . S
O129 Zn128 2.055 . S
O129 C132 1.259 . S
C130 O158 1.256 . S
C130 O159 1.244 . S
Zn131 O133 2.046 . S
Zn131 O135 2.055 . S
Zn131 N137 2.036 . S
Zn131 O155 2.066 . S
Zn131 O159 2.053 . S
C132 O129 1.259 . S
C132 O133 1.254 . S
O133 Zn131 2.046 . S
O133 C132 1.254 . S
C134 O155 1.256 . S
C134 O156 1.244 . S
O135 Zn131 2.055 . S
O135 C157 1.259 . S
O136 Zn128 2.046 . S
O136 C157 1.254 . S
N137 Zn131 2.036 . S
N137 C138 1.298 . S
N137 N140 1.398 . S
C138 N137 1.298 . S
C138 N141 1.367 . S
C138 C151 1.481 . S
C139 N140 1.299 . S
C139 N141 1.379 . S
N140 N137 1.398 . S
N140 C139 1.299 . S
N141 C138 1.367 . S
N141 C139 1.379 . S
C142 N144 1.298 . S
C142 N146 1.367 . S
C142 C150 1.481 . S
C143 N145 1.299 . S
C143 N146 1.379 . S
N144 Zn128 2.036 . S
N144 C142 1.298 . S
N144 N145 1.398 . S
N145 C143 1.299 . S
N145 N144 1.398 . S
N146 C142 1.367 . S
N146 C143 1.379 . S
H147 C150 0.980 . S
H148 C150 0.981 . S
H149 C150 0.981 . S
C150 C142 1.481 . S
C150 H147 0.980 . S
C150 H148 0.981 . S
C150 H149 0.981 . S
C151 C138 1.481 . S
C151 H152 0.980 . S
C151 H153 0.981 . S
C151 H154 0.981 . S
H152 C151 0.980 . S
H153 C151 0.981 . S
H154 C151 0.981 . S
O155 Zn131 2.066 . S
O155 C134 1.256 . S
O156 Zn128 2.053 . S
O156 C134 1.244 . S
C157 O135 1.259 . S
C157 O136 1.254 . S
O158 Zn128 2.066 . S
O158 C130 1.256 . S
O159 C130 1.244 . S
O159 Zn131 2.053 . S
Zn160 O161 2.055 . S
Zn160 O168 2.046 . S
Zn160 N176 2.036 . S
Zn160 O188 2.053 . S
Zn160 O190 2.066 . S
O161 Zn160 2.055 . S
O161 C164 1.259 . S
C162 O190 1.256 . S
C162 O191 1.244 . S
Zn163 O165 2.046 . S
Zn163 O167 2.055 . S
Zn163 N169 2.036 . S
Zn163 O187 2.066 . S
Zn163 O191 2.053 . S
C164 O161 1.259 . S
C164 O165 1.254 . S
O165 Zn163 2.046 . S
O165 C164 1.254 . S
C166 O187 1.256 . S
C166 O188 1.244 . S
O167 Zn163 2.055 . S
O167 C189 1.259 . S
O168 Zn160 2.046 . S
O168 C189 1.254 . S
N169 Zn163 2.036 . S
N169 C170 1.298 . S
N169 N172 1.398 . S
C170 N169 1.298 . S
C170 N173 1.367 . S
C170 C183 1.481 . S
C171 N172 1.299 . S
C171 N173 1.379 . S
N172 N169 1.398 . S
N172 C171 1.299 . S
N173 C170 1.367 . S
N173 C171 1.379 . S
C174 N176 1.298 . S
C174 N178 1.367 . S
C174 C182 1.481 . S
C175 N177 1.299 . S
C175 N178 1.379 . S
N176 Zn160 2.036 . S
N176 C174 1.298 . S
N176 N177 1.398 . S
N177 C175 1.299 . S
N177 N176 1.398 . S
N178 C174 1.367 . S
N178 C175 1.379 . S
H179 C182 0.980 . S
H180 C182 0.981 . S
H181 C182 0.981 . S
C182 C174 1.481 . S
C182 H179 0.980 . S
C182 H180 0.981 . S
C182 H181 0.981 . S
C183 C170 1.481 . S
C183 H184 0.980 . S
C183 H185 0.981 . S
C183 H186 0.981 . S
H184 C183 0.980 . S
H185 C183 0.981 . S
H186 C183 0.981 . S
O187 Zn163 2.066 . S
O187 C166 1.256 . S
O188 Zn160 2.053 . S
O188 C166 1.244 . S
C189 O167 1.259 . S
C189 O168 1.254 . S
O190 Zn160 2.066 . S
O190 C162 1.256 . S
O191 C162 1.244 . S
O191 Zn163 2.053 . S
Zn192 O193 2.055 . S
Zn192 O200 2.046 . S
Zn192 N208 2.036 . S
Zn192 O220 2.053 . S
Zn192 O222 2.066 . S
O193 Zn192 2.055 . S
O193 C196 1.259 . S
C194 O222 1.256 . S
C194 O223 1.244 . S
Zn195 O197 2.046 . S
Zn195 O199 2.055 . S
Zn195 N201 2.036 . S
Zn195 O219 2.066 . S
Zn195 O223 2.053 . S
C196 O193 1.259 . S
C196 O197 1.254 . S
O197 Zn195 2.046 . S
O197 C196 1.254 . S
C198 O219 1.256 . S
C198 O220 1.244 . S
O199 Zn195 2.055 . S
O199 C221 1.259 . S
O200 Zn192 2.046 . S
O200 C221 1.254 . S
N201 Zn195 2.036 . S
N201 C202 1.298 . S
N201 N204 1.398 . S
C202 N201 1.298 . S
C202 N205 1.367 . S
C202 C215 1.481 . S
C203 N204 1.299 . S
C203 N205 1.379 . S
N204 N201 1.398 . S
N204 C203 1.299 . S
N205 C202 1.367 . S
N205 C203 1.379 . S
C206 N208 1.298 . S
C206 N210 1.367 . S
C206 C214 1.481 . S
C207 N209 1.299 . S
C207 N210 1.379 . S
N208 Zn192 2.036 . S
N208 C206 1.298 . S
N208 N209 1.398 . S
N209 C207 1.299 . S
N209 N208 1.398 . S
N210 C206 1.367 . S
N210 C207 1.379 . S
H211 C214 0.980 . S
H212 C214 0.981 . S
H213 C214 0.981 . S
C214 C206 1.481 . S
C214 H211 0.980 . S
C214 H212 0.981 . S
C214 H213 0.981 . S
C215 C202 1.481 . S
C215 H216 0.980 . S
C215 H217 0.981 . S
C215 H218 0.981 . S
H216 C215 0.980 . S
H217 C215 0.981 . S
H218 C215 0.981 . S
O219 Zn195 2.066 . S
O219 C198 1.256 . S
O220 Zn192 2.053 . S
O220 C198 1.244 . S
C221 O199 1.259 . S
C221 O200 1.254 . S
O222 Zn192 2.066 . S
O222 C194 1.256 . S
O223 C194 1.244 . S
O223 Zn195 2.053 . S
Zn224 O225 2.055 1_655 S
Zn224 O232 2.046 1_655 S
Zn224 N240 2.036 . S
Zn224 O252 2.053 . S
Zn224 O254 2.066 . S
O225 Zn224 2.055 1_455 S
O225 C228 1.259 . S
C226 O254 1.256 . S
C226 O255 1.244 . S
Zn227 O229 2.046 . S
Zn227 O231 2.055 . S
Zn227 N233 2.036 . S
Zn227 O251 2.066 . S
Zn227 O255 2.053 1_455 S
C228 O225 1.259 . S
C228 O229 1.254 . S
O229 Zn227 2.046 . S
O229 C228 1.254 . S
C230 O251 1.256 . S
C230 O252 1.244 1_455 S
O231 Zn227 2.055 . S
O231 C253 1.259 . S
O232 Zn224 2.046 1_455 S
O232 C253 1.254 . S
N233 Zn227 2.036 . S
N233 C234 1.298 . S
N233 N236 1.398 . S
C234 N233 1.298 . S
C234 N237 1.367 . S
C234 C247 1.481 . S
C235 N236 1.299 . S
C235 N237 1.379 . S
N236 N233 1.398 . S
N236 C235 1.299 . S
N237 C234 1.367 . S
N237 C235 1.379 . S
C238 N240 1.298 . S
C238 N242 1.367 . S
C238 C246 1.481 . S
C239 N241 1.299 . S
C239 N242 1.379 . S
N240 Zn224 2.036 . S
N240 C238 1.298 . S
N240 N241 1.398 . S
N241 C239 1.299 . S
N241 N240 1.398 . S
N242 C238 1.367 . S
N242 C239 1.379 . S
H243 C246 0.980 . S
H244 C246 0.981 . S
H245 C246 0.981 . S
C246 C238 1.481 . S
C246 H243 0.980 . S
C246 H244 0.981 . S
C246 H245 0.981 . S
C247 C234 1.481 . S
C247 H248 0.980 . S
C247 H249 0.981 . S
C247 H250 0.981 . S
H248 C247 0.980 . S
H249 C247 0.981 . S
H250 C247 0.981 . S
O251 Zn227 2.066 . S
O251 C230 1.256 . S
O252 Zn224 2.053 . S
O252 C230 1.244 1_655 S
C253 O231 1.259 . S
C253 O232 1.254 . S
O254 Zn224 2.066 . S
O254 C226 1.256 . S
O255 C226 1.244 . S
O255 Zn227 2.053 1_655 S
Zn256 O257 2.055 1_556 S
Zn256 O264 2.046 1_556 S
Zn256 N272 2.036 . S
Zn256 O284 2.053 . S
Zn256 O286 2.066 . S
O257 Zn256 2.055 1_554 S
O257 C260 1.259 . S
C258 O286 1.256 . S
C258 O287 1.244 . S
Zn259 O261 2.046 . S
Zn259 O263 2.055 . S
Zn259 N265 2.036 . S
Zn259 O283 2.066 . S
Zn259 O287 2.053 1_554 S
C260 O257 1.259 . S
C260 O261 1.254 . S
O261 Zn259 2.046 . S
O261 C260 1.254 . S
C262 O283 1.256 1_556 S
C262 O284 1.244 . S
O263 Zn259 2.055 . S
O263 C285 1.259 . S
O264 Zn256 2.046 1_554 S
O264 C285 1.254 . S
N265 Zn259 2.036 . S
N265 C266 1.298 . S
N265 N268 1.398 . S
C266 N265 1.298 . S
C266 N269 1.367 . S
C266 C279 1.481 . S
C267 N268 1.299 . S
C267 N269 1.379 . S
N268 N265 1.398 . S
N268 C267 1.299 . S
N269 C266 1.367 . S
N269 C267 1.379 . S
C270 N272 1.298 . S
C270 N274 1.367 . S
C270 C278 1.481 . S
C271 N273 1.299 . S
C271 N274 1.379 . S
N272 Zn256 2.036 . S
N272 C270 1.298 . S
N272 N273 1.398 . S
N273 C271 1.299 . S
N273 N272 1.398 . S
N274 C270 1.367 . S
N274 C271 1.379 . S
H275 C278 0.980 . S
H276 C278 0.981 . S
H277 C278 0.981 . S
C278 C270 1.481 . S
C278 H275 0.980 . S
C278 H276 0.981 . S
C278 H277 0.981 . S
C279 C266 1.481 . S
C279 H280 0.980 . S
C279 H281 0.981 . S
C279 H282 0.981 . S
H280 C279 0.980 . S
H281 C279 0.981 . S
H282 C279 0.981 . S
O283 Zn259 2.066 . S
O283 C262 1.256 1_554 S
O284 Zn256 2.053 . S
O284 C262 1.244 . S
C285 O263 1.259 . S
C285 O264 1.254 . S
O286 Zn256 2.066 . S
O286 C258 1.256 . S
O287 C258 1.244 . S
O287 Zn259 2.053 1_556 S
Zn288 O289 2.055 . S
Zn288 O296 2.046 . S
Zn288 N304 2.036 . S
Zn288 O316 2.053 1_545 S
Zn288 O318 2.066 . S
O289 Zn288 2.055 . S
O289 C292 1.259 . S
C290 O318 1.256 1_565 S
C290 O319 1.244 . S
Zn291 O293 2.046 1_565 S
Zn291 O295 2.055 1_565 S
Zn291 N297 2.036 . S
Zn291 O315 2.066 . S
Zn291 O319 2.053 . S
C292 O289 1.259 . S
C292 O293 1.254 . S
O293 Zn291 2.046 1_545 S
O293 C292 1.254 . S
C294 O315 1.256 . S
C294 O316 1.244 . S
O295 Zn291 2.055 1_545 S
O295 C317 1.259 . S
O296 Zn288 2.046 . S
O296 C317 1.254 . S
N297 Zn291 2.036 . S
N297 C298 1.298 . S
N297 N300 1.398 . S
C298 N297 1.298 . S
C298 N301 1.367 . S
C298 C311 1.481 . S
C299 N300 1.299 . S
C299 N301 1.379 . S
N300 N297 1.398 . S
N300 C299 1.299 . S
N301 C298 1.367 . S
N301 C299 1.379 . S
C302 N304 1.298 . S
C302 N306 1.367 . S
C302 C310 1.481 . S
C303 N305 1.299 . S
C303 N306 1.379 . S
N304 Zn288 2.036 . S
N304 C302 1.298 . S
N304 N305 1.398 . S
N305 C303 1.299 . S
N305 N304 1.398 . S
N306 C302 1.367 . S
N306 C303 1.379 . S
H307 C310 0.980 . S
H308 C310 0.981 . S
H309 C310 0.981 . S
C310 C302 1.481 . S
C310 H307 0.980 . S
C310 H308 0.981 . S
C310 H309 0.981 . S
C311 C298 1.481 . S
C311 H312 0.980 . S
C311 H313 0.981 . S
C311 H314 0.981 . S
H312 C311 0.980 . S
H313 C311 0.981 . S
H314 C311 0.981 . S
O315 Zn291 2.066 . S
O315 C294 1.256 . S
O316 Zn288 2.053 1_565 S
O316 C294 1.244 . S
C317 O295 1.259 . S
C317 O296 1.254 . S
O318 Zn288 2.066 . S
O318 C290 1.256 1_545 S
O319 C290 1.244 . S
O319 Zn291 2.053 . S
Zn320 O321 2.055 . S
Zn320 O328 2.046 . S
Zn320 N336 2.036 . S
Zn320 O348 2.053 . S
Zn320 O350 2.066 . S
O321 Zn320 2.055 . S
O321 C324 1.259 . S
C322 O350 1.256 . S
C322 O351 1.244 . S
Zn323 O325 2.046 . S
Zn323 O327 2.055 . S
Zn323 N329 2.036 . S
Zn323 O347 2.066 . S
Zn323 O351 2.053 . S
C324 O321 1.259 . S
C324 O325 1.254 . S
O325 Zn323 2.046 . S
O325 C324 1.254 . S
C326 O347 1.256 . S
C326 O348 1.244 . S
O327 Zn323 2.055 . S
O327 C349 1.259 . S
O328 Zn320 2.046 . S
O328 C349 1.254 . S
N329 Zn323 2.036 . S
N329 C330 1.298 . S
N329 N332 1.398 . S
C330 N329 1.298 . S
C330 N333 1.367 . S
C330 C343 1.481 . S
C331 N332 1.299 . S
C331 N333 1.379 . S
N332 N329 1.398 . S
N332 C331 1.299 . S
N333 C330 1.367 . S
N333 C331 1.379 . S
C334 N336 1.298 . S
C334 N338 1.367 . S
C334 C342 1.481 . S
C335 N337 1.299 . S
C335 N338 1.379 . S
N336 Zn320 2.036 . S
N336 C334 1.298 . S
N336 N337 1.398 . S
N337 C335 1.299 . S
N337 N336 1.398 . S
N338 C334 1.367 . S
N338 C335 1.379 . S
H339 C342 0.980 . S
H340 C342 0.981 . S
H341 C342 0.981 . S
C342 C334 1.481 . S
C342 H339 0.980 . S
C342 H340 0.981 . S
C342 H341 0.981 . S
C343 C330 1.481 . S
C343 H344 0.980 . S
C343 H345 0.981 . S
C343 H346 0.981 . S
H344 C343 0.980 . S
H345 C343 0.981 . S
H346 C343 0.981 . S
O347 Zn323 2.066 . S
O347 C326 1.256 . S
O348 Zn320 2.053 . S
O348 C326 1.244 . S
C349 O327 1.259 . S
C349 O328 1.254 . S
O350 Zn320 2.066 . S
O350 C322 1.256 . S
O351 C322 1.244 . S
O351 Zn323 2.053 . S
Zn352 O353 2.055 1_455 S
Zn352 O360 2.046 1_455 S
Zn352 N368 2.036 . S
Zn352 O380 2.053 . S
Zn352 O382 2.066 . S
O353 Zn352 2.055 1_655 S
O353 C356 1.259 . S
C354 O382 1.256 . S
C354 O383 1.244 . S
Zn355 O357 2.046 . S
Zn355 O359 2.055 . S
Zn355 N361 2.036 . S
Zn355 O379 2.066 . S
Zn355 O383 2.053 1_655 S
C356 O353 1.259 . S
C356 O357 1.254 . S
O357 Zn355 2.046 . S
O357 C356 1.254 . S
C358 O379 1.256 1_455 S
C358 O380 1.244 . S
O359 Zn355 2.055 . S
O359 C381 1.259 . S
O360 Zn352 2.046 1_655 S
O360 C381 1.254 . S
N361 Zn355 2.036 . S
N361 C362 1.298 . S
N361 N364 1.398 . S
C362 N361 1.298 . S
C362 N365 1.367 . S
C362 C375 1.481 . S
C363 N364 1.299 . S
C363 N365 1.379 . S
N364 N361 1.398 . S
N364 C363 1.299 . S
N365 C362 1.367 . S
N365 C363 1.379 . S
C366 N368 1.298 . S
C366 N370 1.367 . S
C366 C374 1.481 . S
C367 N369 1.299 . S
C367 N370 1.379 . S
N368 Zn352 2.036 . S
N368 C366 1.298 . S
N368 N369 1.398 . S
N369 C367 1.299 . S
N369 N368 1.398 . S
N370 C366 1.367 . S
N370 C367 1.379 . S
H371 C374 0.980 . S
H372 C374 0.981 . S
H373 C374 0.981 . S
C374 C366 1.481 . S
C374 H371 0.980 . S
C374 H372 0.981 . S
C374 H373 0.981 . S
C375 C362 1.481 . S
C375 H376 0.980 . S
C375 H377 0.981 . S
C375 H378 0.981 . S
H376 C375 0.980 . S
H377 C375 0.981 . S
H378 C375 0.981 . S
O379 Zn355 2.066 . S
O379 C358 1.256 1_655 S
O380 Zn352 2.053 . S
O380 C358 1.244 . S
C381 O359 1.259 . S
C381 O360 1.254 . S
O382 Zn352 2.066 . S
O382 C354 1.256 . S
O383 C354 1.244 . S
O383 Zn355 2.053 1_455 S
Zn384 O385 2.055 . S
Zn384 O392 2.046 . S
Zn384 N400 2.036 . S
Zn384 O412 2.053 . S
Zn384 O414 2.066 . S
O385 Zn384 2.055 . S
O385 C388 1.259 . S
C386 O414 1.256 . S
C386 O415 1.244 . S
Zn387 O389 2.046 . S
Zn387 O391 2.055 . S
Zn387 N393 2.036 . S
Zn387 O411 2.066 . S
Zn387 O415 2.053 . S
C388 O385 1.259 . S
C388 O389 1.254 . S
O389 Zn387 2.046 . S
O389 C388 1.254 . S
C390 O411 1.256 . S
C390 O412 1.244 . S
O391 Zn387 2.055 . S
O391 C413 1.259 . S
O392 Zn384 2.046 . S
O392 C413 1.254 . S
N393 Zn387 2.036 . S
N393 C394 1.298 . S
N393 N396 1.398 . S
C394 N393 1.298 . S
C394 N397 1.367 . S
C394 C407 1.481 . S
C395 N396 1.299 . S
C395 N397 1.379 . S
N396 N393 1.398 . S
N396 C395 1.299 . S
N397 C394 1.367 . S
N397 C395 1.379 . S
C398 N400 1.298 . S
C398 N402 1.367 . S
C398 C406 1.481 . S
C399 N401 1.299 . S
C399 N402 1.379 . S
N400 Zn384 2.036 . S
N400 C398 1.298 . S
N400 N401 1.398 . S
N401 C399 1.299 . S
N401 N400 1.398 . S
N402 C398 1.367 . S
N402 C399 1.379 . S
H403 C406 0.980 . S
H404 C406 0.981 . S
H405 C406 0.981 . S
C406 C398 1.481 . S
C406 H403 0.980 . S
C406 H404 0.981 . S
C406 H405 0.981 . S
C407 C394 1.481 . S
C407 H408 0.980 . S
C407 H409 0.981 . S
C407 H410 0.981 . S
H408 C407 0.980 . S
H409 C407 0.981 . S
H410 C407 0.981 . S
O411 Zn387 2.066 . S
O411 C390 1.256 . S
O412 Zn384 2.053 . S
O412 C390 1.244 . S
C413 O391 1.259 . S
C413 O392 1.254 . S
O414 Zn384 2.066 . S
O414 C386 1.256 . S
O415 C386 1.244 . S
O415 Zn387 2.053 . S
Zn416 O417 2.055 . S
Zn416 O424 2.046 1_554 S
Zn416 N432 2.036 . S
Zn416 O444 2.053 . S
Zn416 O446 2.066 . S
O417 Zn416 2.055 . S
O417 C420 1.259 1_554 S
C418 O446 1.256 . S
C418 O447 1.244 . S
Zn419 O421 2.046 . S
Zn419 O423 2.055 . S
Zn419 N425 2.036 . S
Zn419 O443 2.066 . S
Zn419 O447 2.053 1_556 S
C420 O417 1.259 1_556 S
C420 O421 1.254 . S
O421 Zn419 2.046 . S
O421 C420 1.254 . S
C422 O443 1.256 1_554 S
C422 O444 1.244 . S
O423 Zn419 2.055 . S
O423 C445 1.259 . S
O424 Zn416 2.046 1_556 S
O424 C445 1.254 . S
N425 Zn419 2.036 . S
N425 C426 1.298 . S
N425 N428 1.398 . S
C426 N425 1.298 . S
C426 N429 1.367 . S
C426 C439 1.481 . S
C427 N428 1.299 . S
C427 N429 1.379 . S
N428 N425 1.398 . S
N428 C427 1.299 . S
N429 C426 1.367 . S
N429 C427 1.379 . S
C430 N432 1.298 . S
C430 N434 1.367 . S
C430 C438 1.481 . S
C431 N433 1.299 . S
C431 N434 1.379 . S
N432 Zn416 2.036 . S
N432 C430 1.298 . S
N432 N433 1.398 . S
N433 C431 1.299 . S
N433 N432 1.398 . S
N434 C430 1.367 . S
N434 C431 1.379 . S
H435 C438 0.980 . S
H436 C438 0.981 . S
H437 C438 0.981 . S
C438 C430 1.481 . S
C438 H435 0.980 . S
C438 H436 0.981 . S
C438 H437 0.981 . S
C439 C426 1.481 . S
C439 H440 0.980 . S
C439 H441 0.981 . S
C439 H442 0.981 . S
H440 C439 0.980 . S
H441 C439 0.981 . S
H442 C439 0.981 . S
O443 Zn419 2.066 . S
O443 C422 1.256 1_556 S
O444 Zn416 2.053 . S
O444 C422 1.244 . S
C445 O423 1.259 . S
C445 O424 1.254 . S
O446 Zn416 2.066 . S
O446 C418 1.256 . S
O447 C418 1.244 . S
O447 Zn419 2.053 1_554 S
Zn448 O449 2.055 . S
Zn448 O456 2.046 1_545 S
Zn448 N464 2.036 . S
Zn448 O476 2.053 . S
Zn448 O478 2.066 . S
O449 Zn448 2.055 . S
O449 C452 1.259 . S
C450 O478 1.256 . S
C450 O479 1.244 . S
Zn451 O453 2.046 1_545 S
Zn451 O455 2.055 1_545 S
Zn451 N457 2.036 1_545 S
Zn451 O475 2.066 . S
Zn451 O479 2.053 . S
C452 O449 1.259 . S
C452 O453 1.254 1_545 S
O453 Zn451 2.046 1_565 S
O453 C452 1.254 1_565 S
C454 O475 1.256 . S
C454 O476 1.244 . S
O455 Zn451 2.055 1_565 S
O455 C477 1.259 . S
O456 Zn448 2.046 1_565 S
O456 C477 1.254 . S
N457 Zn451 2.036 1_565 S
N457 C458 1.298 . S
N457 N460 1.398 . S
C458 N457 1.298 . S
C458 N461 1.367 . S
C458 C471 1.481 . S
C459 N460 1.299 . S
C459 N461 1.379 . S
N460 N457 1.398 . S
N460 C459 1.299 . S
N461 C458 1.367 . S
N461 C459 1.379 . S
C462 N464 1.298 . S
C462 N466 1.367 . S
C462 C470 1.481 . S
C463 N465 1.299 . S
C463 N466 1.379 . S
N464 Zn448 2.036 . S
N464 C462 1.298 . S
N464 N465 1.398 . S
N465 C463 1.299 . S
N465 N464 1.398 . S
N466 C462 1.367 . S
N466 C463 1.379 . S
H467 C470 0.980 . S
H468 C470 0.981 . S
H469 C470 0.981 . S
C470 C462 1.481 . S
C470 H467 0.980 . S
C470 H468 0.981 . S
C470 H469 0.981 . S
C471 C458 1.481 . S
C471 H472 0.980 . S
C471 H473 0.981 . S
C471 H474 0.981 . S
H472 C471 0.980 . S
H473 C471 0.981 . S
H474 C471 0.981 . S
O475 Zn451 2.066 . S
O475 C454 1.256 . S
O476 Zn448 2.053 . S
O476 C454 1.244 . S
C477 O455 1.259 . S
C477 O456 1.254 . S
O478 Zn448 2.066 . S
O478 C450 1.256 . S
O479 C450 1.244 . S
O479 Zn451 2.053 . S
Zn480 O481 2.055 . S
Zn480 O488 2.046 . S
Zn480 N496 2.036 . S
Zn480 O508 2.053 1_554 S
Zn480 O510 2.066 . S
O481 Zn480 2.055 . S
O481 C484 1.259 . S
C482 O510 1.256 1_556 S
C482 O511 1.244 . S
Zn483 O485 2.046 1_556 S
Zn483 O487 2.055 1_556 S
Zn483 N489 2.036 . S
Zn483 O507 2.066 . S
Zn483 O511 2.053 . S
C484 O481 1.259 . S
C484 O485 1.254 . S
O485 Zn483 2.046 1_554 S
O485 C484 1.254 . S
C486 O507 1.256 . S
C486 O508 1.244 . S
O487 Zn483 2.055 1_554 S
O487 C509 1.259 . S
O488 Zn480 2.046 . S
O488 C509 1.254 . S
N489 Zn483 2.036 . S
N489 C490 1.298 . S
N489 N492 1.398 . S
C490 N489 1.298 . S
C490 N493 1.367 . S
C490 C503 1.481 . S
C491 N492 1.299 . S
C491 N493 1.379 . S
N492 N489 1.398 . S
N492 C491 1.299 . S
N493 C490 1.367 . S
N493 C491 1.379 . S
C494 N496 1.298 . S
C494 N498 1.367 . S
C494 C502 1.481 . S
C495 N497 1.299 . S
C495 N498 1.379 . S
N496 Zn480 2.036 . S
N496 C494 1.298 . S
N496 N497 1.398 . S
N497 C495 1.299 . S
N497 N496 1.398 . S
N498 C494 1.367 . S
N498 C495 1.379 . S
H499 C502 0.980 . S
H500 C502 0.981 . S
H501 C502 0.981 . S
C502 C494 1.481 . S
C502 H499 0.980 . S
C502 H500 0.981 . S
C502 H501 0.981 . S
C503 C490 1.481 . S
C503 H504 0.980 . S
C503 H505 0.981 . S
C503 H506 0.981 . S
H504 C503 0.980 . S
H505 C503 0.981 . S
H506 C503 0.981 . S
O507 Zn483 2.066 . S
O507 C486 1.256 . S
O508 Zn480 2.053 1_556 S
O508 C486 1.244 . S
C509 O487 1.259 . S
C509 O488 1.254 . S
O510 Zn480 2.066 . S
O510 C482 1.256 1_554 S
O511 C482 1.244 . S
O511 Zn483 2.053 . S
C512 C513 1.387 1_655 S
C512 H516 0.950 . S
C512 C521 1.390 . S
C513 C512 1.387 1_455 S
C513 C515 1.387 . S
H514 C521 0.950 . S
C515 C513 1.387 . S
C515 C517 1.390 . S
C515 H519 0.950 . S
H516 C512 0.950 . S
C517 C515 1.390 . S
C517 C518 1.387 . S
C517 H520 0.950 . S
C518 C517 1.387 . S
C518 C521 1.387 1_455 S
H519 C515 0.950 . S
H520 C517 0.950 . S
C521 C512 1.390 . S
C521 H514 0.950 . S
C521 C518 1.387 1_655 S
C522 C523 1.387 . S
C522 H526 0.950 . S
C522 C531 1.390 . S
C523 C522 1.387 . S
C523 C525 1.387 . S
H524 C531 0.950 . S
C525 C523 1.387 . S
C525 C527 1.390 . S
C525 H529 0.950 . S
H526 C522 0.950 . S
C527 C525 1.390 . S
C527 C528 1.387 . S
C527 H530 0.950 . S
C528 C527 1.387 . S
C528 C531 1.387 . S
H529 C525 0.950 . S
H530 C527 0.950 . S
C531 C522 1.390 . S
C531 H524 0.950 . S
C531 C528 1.387 . S
C532 C533 1.387 . S
C532 H536 0.950 . S
C532 C541 1.390 . S
C533 C532 1.387 . S
C533 C535 1.387 . S
H534 C541 0.950 . S
C535 C533 1.387 . S
C535 C537 1.390 . S
C535 H539 0.950 . S
H536 C532 0.950 . S
C537 C535 1.390 . S
C537 C538 1.387 . S
C537 H540 0.950 . S
C538 C537 1.387 . S
C538 C541 1.387 . S
H539 C535 0.950 . S
H540 C537 0.950 . S
C541 C532 1.390 . S
C541 H534 0.950 . S
C541 C538 1.387 . S
C542 C543 1.387 . S
C542 H546 0.950 . S
C542 C551 1.390 . S
C543 C542 1.387 . S
C543 C545 1.387 . S
H544 C551 0.950 . S
C545 C543 1.387 . S
C545 C547 1.390 . S
C545 H549 0.950 1_545 S
H546 C542 0.950 . S
C547 C545 1.390 . S
C547 C548 1.387 . S
C547 H550 0.950 1_545 S
C548 C547 1.387 . S
C548 C551 1.387 . S
H549 C545 0.950 1_565 S
H550 C547 0.950 1_565 S
C551 C542 1.390 . S
C551 H544 0.950 . S
C551 C548 1.387 . S
C552 C553 1.387 . S
C552 H556 0.950 . S
C552 C561 1.390 . S
C553 C552 1.387 . S
C553 C555 1.387 1_545 S
H554 C561 0.950 . S
C555 C553 1.387 1_565 S
C555 C557 1.390 . S
C555 H559 0.950 . S
H556 C552 0.950 . S
C557 C555 1.390 . S
C557 C558 1.387 . S
C557 H560 0.950 . S
C558 C557 1.387 . S
C558 C561 1.387 1_565 S
H559 C555 0.950 . S
H560 C557 0.950 . S
C561 C552 1.390 . S
C561 H554 0.950 . S
C561 C558 1.387 1_545 S
C562 C563 1.387 . S
C562 H566 0.950 . S
C562 C571 1.390 . S
C563 C562 1.387 . S
C563 C565 1.387 . S
H564 C571 0.950 . S
C565 C563 1.387 . S
C565 C567 1.390 . S
C565 H569 0.950 . S
H566 C562 0.950 . S
C567 C565 1.390 . S
C567 C568 1.387 . S
C567 H570 0.950 . S
C568 C567 1.387 . S
C568 C571 1.387 . S
H569 C565 0.950 . S
H570 C567 0.950 . S
C571 C562 1.390 . S
C571 H564 0.950 . S
C571 C568 1.387 . S
C572 C573 1.387 . S
C572 H576 0.950 . S
C572 C581 1.390 . S
C573 C572 1.387 . S
C573 C575 1.387 . S
H574 C581 0.950 . S
C575 C573 1.387 . S
C575 C577 1.390 . S
C575 H579 0.950 . S
H576 C572 0.950 . S
C577 C575 1.390 . S
C577 C578 1.387 . S
C577 H580 0.950 . S
C578 C577 1.387 . S
C578 C581 1.387 . S
H579 C575 0.950 . S
H580 C577 0.950 . S
C581 C572 1.390 . S
C581 H574 0.950 . S
C581 C578 1.387 . S
C582 C583 1.387 . S
C582 H586 0.950 . S
C582 C591 1.390 . S
C583 C582 1.387 . S
C583 C585 1.387 . S
H584 C591 0.950 . S
C585 C583 1.387 . S
C585 C587 1.390 . S
C585 H589 0.950 . S
H586 C582 0.950 . S
C587 C585 1.390 . S
C587 C588 1.387 . S
C587 H590 0.950 . S
C588 C587 1.387 . S
C588 C591 1.387 . S
H589 C585 0.950 . S
H590 C587 0.950 . S
C591 C582 1.390 . S
C591 H584 0.950 . S
C591 C588 1.387 . S
C592 C593 1.387 . S
C592 H596 0.950 . S
C592 C601 1.390 . S
C593 C592 1.387 . S
C593 C595 1.387 . S
H594 C601 0.950 . S
C595 C593 1.387 . S
C595 C597 1.390 . S
C595 H599 0.950 . S
H596 C592 0.950 . S
C597 C595 1.390 . S
C597 C598 1.387 . S
C597 H600 0.950 . S
C598 C597 1.387 . S
C598 C601 1.387 . S
H599 C595 0.950 . S
H600 C597 0.950 . S
C601 C592 1.390 . S
C601 H594 0.950 . S
C601 C598 1.387 . S
C602 C603 1.387 . S
C602 H606 0.950 . S
C602 C611 1.390 . S
C603 C602 1.387 . S
C603 C605 1.387 . S
H604 C611 0.950 . S
C605 C603 1.387 . S
C605 C607 1.390 . S
C605 H609 0.950 . S
H606 C602 0.950 . S
C607 C605 1.390 . S
C607 C608 1.387 . S
C607 H610 0.950 . S
C608 C607 1.387 . S
C608 C611 1.387 . S
H609 C605 0.950 . S
H610 C607 0.950 . S
C611 C602 1.390 . S
C611 H604 0.950 . S
C611 C608 1.387 . S
C612 C613 1.387 . S
C612 H616 0.950 . S
C612 C621 1.390 . S
C613 C612 1.387 . S
C613 C615 1.387 1_545 S
H614 C621 0.950 . S
C615 C613 1.387 1_565 S
C615 C617 1.390 . S
C615 H619 0.950 . S
H616 C612 0.950 . S
C617 C615 1.390 . S
C617 C618 1.387 1_565 S
C617 H620 0.950 . S
C618 C617 1.387 1_545 S
C618 C621 1.387 . S
H619 C615 0.950 . S
H620 C617 0.950 . S
C621 C612 1.390 . S
C621 H614 0.950 . S
C621 C618 1.387 . S
C622 C623 1.387 . S
C622 H626 0.950 1_455 S
C622 C631 1.390 1_455 S
C623 C622 1.387 . S
C623 C625 1.387 . S
H624 C631 0.950 . S
C625 C623 1.387 . S
C625 C627 1.390 . S
C625 H629 0.950 . S
H626 C622 0.950 1_655 S
C627 C625 1.390 . S
C627 C628 1.387 . S
C627 H630 0.950 . S
C628 C627 1.387 . S
C628 C631 1.387 1_455 S
H629 C625 0.950 . S
H630 C627 0.950 . S
C631 C622 1.390 1_655 S
C631 H624 0.950 . S
C631 C628 1.387 1_655 S
C632 C633 1.387 . S
C632 H636 0.950 . S
C632 C641 1.390 . S
C633 C632 1.387 . S
C633 C635 1.387 1_556 S
H634 C641 0.950 . S
C635 C633 1.387 1_554 S
C635 C637 1.390 . S
C635 H639 0.950 . S
H636 C632 0.950 . S
C637 C635 1.390 . S
C637 C638 1.387 1_554 S
C637 H640 0.950 . S
C638 C637 1.387 1_556 S
C638 C641 1.387 . S
H639 C635 0.950 . S
H640 C637 0.950 . S
C641 C632 1.390 . S
C641 H634 0.950 . S
C641 C638 1.387 . S
C642 C643 1.387 . S
C642 H646 0.950 . S
C642 C651 1.390 . S
C643 C642 1.387 . S
C643 C645 1.387 . S
H644 C651 0.950 . S
C645 C643 1.387 . S
C645 C647 1.390 . S
C645 H649 0.950 . S
H646 C642 0.950 . S
C647 C645 1.390 . S
C647 C648 1.387 . S
C647 H650 0.950 . S
C648 C647 1.387 . S
C648 C651 1.387 . S
H649 C645 0.950 . S
H650 C647 0.950 . S
C651 C642 1.390 . S
C651 H644 0.950 . S
C651 C648 1.387 . S
C652 C653 1.387 . S
C652 H656 0.950 . S
C652 C661 1.390 . S
C653 C652 1.387 . S
C653 C655 1.387 . S
H654 C661 0.950 . S
C655 C653 1.387 . S
C655 C657 1.390 . S
C655 H659 0.950 . S
H656 C652 0.950 . S
C657 C655 1.390 . S
C657 C658 1.387 . S
C657 H660 0.950 . S
C658 C657 1.387 . S
C658 C661 1.387 . S
H659 C655 0.950 . S
H660 C657 0.950 . S
C661 C652 1.390 . S
C661 H654 0.950 . S
C661 C658 1.387 . S
C662 C663 1.387 . S
C662 H666 0.950 . S
C662 C671 1.390 . S
C663 C662 1.387 . S
C663 C665 1.387 . S
H664 C671 0.950 . S
C665 C663 1.387 . S
C665 C667 1.390 . S
C665 H669 0.950 . S
H666 C662 0.950 . S
C667 C665 1.390 . S
C667 C668 1.387 . S
C667 H670 0.950 . S
C668 C667 1.387 . S
C668 C671 1.387 . S
H669 C665 0.950 . S
H670 C667 0.950 . S
C671 C662 1.390 . S
C671 H664 0.950 . S
C671 C668 1.387 . S
C672 C673 1.387 . S
C672 H676 0.950 . S
C672 C681 1.390 . S
C673 C672 1.387 . S
C673 C675 1.387 . S
H674 C681 0.950 . S
C675 C673 1.387 . S
C675 C677 1.390 . S
C675 H679 0.950 . S
H676 C672 0.950 . S
C677 C675 1.390 . S
C677 C678 1.387 . S
C677 H680 0.950 . S
C678 C677 1.387 . S
C678 C681 1.387 . S
H679 C675 0.950 . S
H680 C677 0.950 . S
C681 C672 1.390 . S
C681 H674 0.950 . S
C681 C678 1.387 . S
C682 C683 1.387 . S
C682 H686 0.950 . S
C682 C691 1.390 . S
C683 C682 1.387 . S
C683 C685 1.387 . S
H684 C691 0.950 . S
C685 C683 1.387 . S
C685 C687 1.390 . S
C685 H689 0.950 . S
H686 C682 0.950 . S
C687 C685 1.390 . S
C687 C688 1.387 . S
C687 H690 0.950 . S
C688 C687 1.387 . S
C688 C691 1.387 . S
H689 C685 0.950 . S
H690 C687 0.950 . S
C691 C682 1.390 . S
C691 H684 0.950 . S
C691 C688 1.387 . S
C692 C693 1.387 . S
C692 H696 0.950 . S
C692 C701 1.390 . S
C693 C692 1.387 . S
C693 C695 1.387 . S
H694 C701 0.950 . S
C695 C693 1.387 . S
C695 C697 1.390 . S
C695 H699 0.950 . S
H696 C692 0.950 . S
C697 C695 1.390 . S
C697 C698 1.387 . S
C697 H700 0.950 . S
C698 C697 1.387 . S
C698 C701 1.387 . S
H699 C695 0.950 . S
H700 C697 0.950 . S
C701 C692 1.390 . S
C701 H694 0.950 . S
C701 C698 1.387 . S
C702 C703 1.387 . S
C702 H706 0.950 . S
C702 C711 1.390 . S
C703 C702 1.387 . S
C703 C705 1.387 . S
H704 C711 0.950 . S
C705 C703 1.387 . S
C705 C707 1.390 . S
C705 H709 0.950 . S
H706 C702 0.950 . S
C707 C705 1.390 . S
C707 C708 1.387 . S
C707 H710 0.950 . S
C708 C707 1.387 . S
C708 C711 1.387 . S
H709 C705 0.950 . S
H710 C707 0.950 . S
C711 C702 1.390 . S
C711 H704 0.950 . S
C711 C708 1.387 . S
C712 C713 1.387 . S
C712 H716 0.950 . S
C712 C721 1.390 . S
C713 C712 1.387 . S
C713 C715 1.387 . S
H714 C721 0.950 . S
C715 C713 1.387 . S
C715 C717 1.390 . S
C715 H719 0.950 . S
H716 C712 0.950 . S
C717 C715 1.390 . S
C717 C718 1.387 . S
C717 H720 0.950 . S
C718 C717 1.387 . S
C718 C721 1.387 . S
H719 C715 0.950 . S
H720 C717 0.950 . S
C721 C712 1.390 . S
C721 H714 0.950 . S
C721 C718 1.387 . S
C722 C723 1.387 . S
C722 H726 0.950 . S
C722 C731 1.390 . S
C723 C722 1.387 . S
C723 C725 1.387 . S
H724 C731 0.950 . S
C725 C723 1.387 . S
C725 C727 1.390 . S
C725 H729 0.950 . S
H726 C722 0.950 . S
C727 C725 1.390 . S
C727 C728 1.387 . S
C727 H730 0.950 1_655 S
C728 C727 1.387 . S
C728 C731 1.387 . S
H729 C725 0.950 . S
H730 C727 0.950 1_455 S
C731 C722 1.390 . S
C731 H724 0.950 . S
C731 C728 1.387 . S
C732 C733 1.387 . S
C732 H736 0.950 . S
C732 C741 1.390 . S
C733 C732 1.387 . S
C733 C735 1.387 . S
H734 C741 0.950 . S
C735 C733 1.387 . S
C735 C737 1.390 . S
C735 H739 0.950 . S
H736 C732 0.950 . S
C737 C735 1.390 . S
C737 C738 1.387 . S
C737 H740 0.950 . S
C738 C737 1.387 . S
C738 C741 1.387 . S
H739 C735 0.950 . S
H740 C737 0.950 . S
C741 C732 1.390 . S
C741 H734 0.950 . S
C741 C738 1.387 . S
C742 C743 1.387 . S
C742 H746 0.950 . S
C742 C751 1.390 . S
C743 C742 1.387 . S
C743 C745 1.387 . S
H744 C751 0.950 . S
C745 C743 1.387 . S
C745 C747 1.390 . S
C745 H749 0.950 . S
H746 C742 0.950 . S
C747 C745 1.390 . S
C747 C748 1.387 . S
C747 H750 0.950 . S
C748 C747 1.387 . S
C748 C751 1.387 . S
H749 C745 0.950 . S
H750 C747 0.950 . S
C751 C742 1.390 . S
C751 H744 0.950 . S
C751 C748 1.387 . S
C752 C753 1.387 . S
C752 H756 0.950 . S
C752 C761 1.390 . S
C753 C752 1.387 . S
C753 C755 1.387 . S
H754 C761 0.950 . S
C755 C753 1.387 . S
C755 C757 1.390 . S
C755 H759 0.950 . S
H756 C752 0.950 . S
C757 C755 1.390 . S
C757 C758 1.387 . S
C757 H760 0.950 . S
C758 C757 1.387 . S
C758 C761 1.387 . S
H759 C755 0.950 . S
H760 C757 0.950 . S
C761 C752 1.390 . S
C761 H754 0.950 . S
C761 C758 1.387 . S
C762 C763 1.387 . S
C762 H766 0.950 . S
C762 C771 1.390 . S
C763 C762 1.387 . S
C763 C765 1.387 . S
H764 C771 0.950 . S
C765 C763 1.387 . S
C765 C767 1.390 . S
C765 H769 0.950 . S
H766 C762 0.950 . S
C767 C765 1.390 . S
C767 C768 1.387 . S
C767 H770 0.950 . S
C768 C767 1.387 . S
C768 C771 1.387 . S
H769 C765 0.950 . S
H770 C767 0.950 . S
C771 C762 1.390 . S
C771 H764 0.950 . S
C771 C768 1.387 . S
C772 C773 1.387 . S
C772 H776 0.950 . S
C772 C781 1.390 . S
C773 C772 1.387 . S
C773 C775 1.387 . S
H774 C781 0.950 . S
C775 C773 1.387 . S
C775 C777 1.390 . S
C775 H779 0.950 1_545 S
H776 C772 0.950 . S
C777 C775 1.390 . S
C777 C778 1.387 . S
C777 H780 0.950 1_545 S
C778 C777 1.387 . S
C778 C781 1.387 . S
H779 C775 0.950 1_565 S
H780 C777 0.950 1_565 S
C781 C772 1.390 . S
C781 H774 0.950 . S
C781 C778 1.387 . S
C782 C783 1.387 1_556 S
C782 H786 0.950 . S
C782 C791 1.390 . S
C783 C782 1.387 1_554 S
C783 C785 1.387 . S
H784 C791 0.950 . S
C785 C783 1.387 . S
C785 C787 1.390 . S
C785 H789 0.950 . S
H786 C782 0.950 . S
C787 C785 1.390 . S
C787 C788 1.387 . S
C787 H790 0.950 . S
C788 C787 1.387 . S
C788 C791 1.387 1_554 S
H789 C785 0.950 . S
H790 C787 0.950 . S
C791 C782 1.390 . S
C791 H784 0.950 . S
C791 C788 1.387 1_556 S
C792 C793 1.387 . S
C792 H796 0.950 . S
C792 C801 1.390 . S
C793 C792 1.387 . S
C793 C795 1.387 . S
H794 C801 0.950 . S
C795 C793 1.387 . S
C795 C797 1.390 . S
C795 H799 0.950 . S
H796 C792 0.950 . S
C797 C795 1.390 . S
C797 C798 1.387 . S
C797 H800 0.950 . S
C798 C797 1.387 . S
C798 C801 1.387 . S
H799 C795 0.950 . S
H800 C797 0.950 . S
C801 C792 1.390 . S
C801 H794 0.950 . S
C801 C798 1.387 . S
C802 C803 1.387 . S
C802 H806 0.950 . S
C802 C811 1.390 . S
C803 C802 1.387 . S
C803 C805 1.387 . S
H804 C811 0.950 . S
C805 C803 1.387 . S
C805 C807 1.390 . S
C805 H809 0.950 . S
H806 C802 0.950 . S
C807 C805 1.390 . S
C807 C808 1.387 . S
C807 H810 0.950 . S
C808 C807 1.387 . S
C808 C811 1.387 . S
H809 C805 0.950 . S
H810 C807 0.950 . S
C811 C802 1.390 . S
C811 H804 0.950 . S
C811 C808 1.387 . S
C812 C813 1.387 . S
C812 H816 0.950 . S
C812 C821 1.390 . S
C813 C812 1.387 . S
C813 C815 1.387 . S
H814 C821 0.950 . S
C815 C813 1.387 . S
C815 C817 1.390 . S
C815 H819 0.950 . S
H816 C812 0.950 . S
C817 C815 1.390 . S
C817 C818 1.387 . S
C817 H820 0.950 . S
C818 C817 1.387 . S
C818 C821 1.387 . S
H819 C815 0.950 . S
H820 C817 0.950 . S
C821 C812 1.390 . S
C821 H814 0.950 . S
C821 C818 1.387 . S
C822 C823 1.387 . S
C822 H826 0.950 . S
C822 C831 1.390 . S
C823 C822 1.387 . S
C823 C825 1.387 . S
H824 C831 0.950 . S
C825 C823 1.387 . S
C825 C827 1.390 . S
C825 H829 0.950 . S
H826 C822 0.950 . S
C827 C825 1.390 . S
C827 C828 1.387 . S
C827 H830 0.950 . S
C828 C827 1.387 . S
C828 C831 1.387 . S
H829 C825 0.950 . S
H830 C827 0.950 . S
C831 C822 1.390 . S
C831 H824 0.950 . S
C831 C828 1.387 . S
C832 C833 1.387 . S
C832 H836 0.950 . S
C832 C841 1.390 . S
C833 C832 1.387 . S
C833 C835 1.387 . S
H834 C841 0.950 . S
C835 C833 1.387 . S
C835 C837 1.390 . S
C835 H839 0.950 . S
H836 C832 0.950 . S
C837 C835 1.390 . S
C837 C838 1.387 . S
C837 H840 0.950 . S
C838 C837 1.387 . S
C838 C841 1.387 . S
H839 C835 0.950 . S
H840 C837 0.950 . S
C841 C832 1.390 . S
C841 H834 0.950 . S
C841 C838 1.387 . S
C842 C843 1.387 . S
C842 H846 0.950 . S
C842 C851 1.390 . S
C843 C842 1.387 . S
C843 C845 1.387 . S
H844 C851 0.950 . S
C845 C843 1.387 . S
C845 C847 1.390 . S
C845 H849 0.950 . S
H846 C842 0.950 . S
C847 C845 1.390 . S
C847 C848 1.387 . S
C847 H850 0.950 . S
C848 C847 1.387 . S
C848 C851 1.387 . S
H849 C845 0.950 . S
H850 C847 0.950 . S
C851 C842 1.390 . S
C851 H844 0.950 . S
C851 C848 1.387 . S
C852 C853 1.387 . S
C852 H856 0.950 . S
C852 C861 1.390 . S
C853 C852 1.387 . S
C853 C855 1.387 . S
H854 C861 0.950 . S
C855 C853 1.387 . S
C855 C857 1.390 . S
C855 H859 0.950 . S
H856 C852 0.950 . S
C857 C855 1.390 . S
C857 C858 1.387 . S
C857 H860 0.950 . S
C858 C857 1.387 . S
C858 C861 1.387 . S
H859 C855 0.950 . S
H860 C857 0.950 . S
C861 C852 1.390 . S
C861 H854 0.950 . S
C861 C858 1.387 . S
C862 C863 1.387 . S
C862 H866 0.950 . S
C862 C871 1.390 . S
C863 C862 1.387 . S
C863 C865 1.387 . S
H864 C871 0.950 . S
C865 C863 1.387 . S
C865 C867 1.390 . S
C865 H869 0.950 . S
H866 C862 0.950 . S
C867 C865 1.390 . S
C867 C868 1.387 . S
C867 H870 0.950 . S
C868 C867 1.387 . S
C868 C871 1.387 . S
H869 C865 0.950 . S
H870 C867 0.950 . S
C871 C862 1.390 . S
C871 H864 0.950 . S
C871 C868 1.387 . S
C872 C873 1.387 . S
C872 H876 0.950 . S
C872 C881 1.390 . S
C873 C872 1.387 . S
C873 C875 1.387 . S
H874 C881 0.950 . S
C875 C873 1.387 . S
C875 C877 1.390 . S
C875 H879 0.950 . S
H876 C872 0.950 . S
C877 C875 1.390 . S
C877 C878 1.387 . S
C877 H880 0.950 . S
C878 C877 1.387 . S
C878 C881 1.387 . S
H879 C875 0.950 . S
H880 C877 0.950 . S
C881 C872 1.390 . S
C881 H874 0.950 . S
C881 C878 1.387 . S
C882 C883 1.387 1_556 S
C882 H886 0.950 . S
C882 C891 1.390 . S
C883 C882 1.387 1_554 S
C883 C885 1.387 . S
H884 C891 0.950 . S
C885 C883 1.387 . S
C885 C887 1.390 . S
C885 H889 0.950 . S
H886 C882 0.950 . S
C887 C885 1.390 . S
C887 C888 1.387 . S
C887 H890 0.950 . S
C888 C887 1.387 . S
C888 C891 1.387 1_554 S
H889 C885 0.950 . S
H890 C887 0.950 . S
C891 C882 1.390 . S
C891 H884 0.950 . S
C891 C888 1.387 1_556 S
C892 C893 1.387 . S
C892 H896 0.950 . S
C892 C901 1.390 . S
C893 C892 1.387 . S
C893 C895 1.387 . S
H894 C901 0.950 . S
C895 C893 1.387 . S
C895 C897 1.390 . S
C895 H899 0.950 . S
H896 C892 0.950 . S
C897 C895 1.390 . S
C897 C898 1.387 . S
C897 H900 0.950 . S
C898 C897 1.387 . S
C898 C901 1.387 . S
H899 C895 0.950 . S
H900 C897 0.950 . S
C901 C892 1.390 . S
C901 H894 0.950 . S
C901 C898 1.387 . S
C902 C903 1.387 . S
C902 H906 0.950 . S
C902 C911 1.390 . S
C903 C902 1.387 . S
C903 C905 1.387 . S
H904 C911 0.950 . S
C905 C903 1.387 . S
C905 C907 1.390 . S
C905 H909 0.950 . S
H906 C902 0.950 . S
C907 C905 1.390 . S
C907 C908 1.387 . S
C907 H910 0.950 . S
C908 C907 1.387 . S
C908 C911 1.387 . S
H909 C905 0.950 . S
H910 C907 0.950 . S
C911 C902 1.390 . S
C911 H904 0.950 . S
C911 C908 1.387 . S
C912 C913 1.387 . S
C912 H916 0.950 . S
C912 C921 1.390 . S
C913 C912 1.387 . S
C913 C915 1.387 . S
H914 C921 0.950 . S
C915 C913 1.387 . S
C915 C917 1.390 . S
C915 H919 0.950 . S
H916 C912 0.950 . S
C917 C915 1.390 . S
C917 C918 1.387 . S
C917 H920 0.950 . S
C918 C917 1.387 . S
C918 C921 1.387 . S
H919 C915 0.950 . S
H920 C917 0.950 . S
C921 C912 1.390 . S
C921 H914 0.950 . S
C921 C918 1.387 . S
C922 C923 1.387 . S
C922 H926 0.950 . S
C922 C931 1.390 . S
C923 C922 1.387 . S
C923 C925 1.387 . S
H924 C931 0.950 . S
C925 C923 1.387 . S
C925 C927 1.390 . S
C925 H929 0.950 . S
H926 C922 0.950 . S
C927 C925 1.390 . S
C927 C928 1.387 . S
C927 H930 0.950 . S
C928 C927 1.387 . S
C928 C931 1.387 . S
H929 C925 0.950 . S
H930 C927 0.950 . S
C931 C922 1.390 . S
C931 H924 0.950 . S
C931 C928 1.387 . S
C932 C933 1.387 . S
C932 H936 0.950 . S
C932 C941 1.390 . S
C933 C932 1.387 . S
C933 C935 1.387 1_556 S
H934 C941 0.950 . S
C935 C933 1.387 1_554 S
C935 C937 1.390 . S
C935 H939 0.950 . S
H936 C932 0.950 . S
C937 C935 1.390 . S
C937 C938 1.387 1_554 S
C937 H940 0.950 . S
C938 C937 1.387 1_556 S
C938 C941 1.387 . S
H939 C935 0.950 . S
H940 C937 0.950 . S
C941 C932 1.390 . S
C941 H934 0.950 . S
C941 C938 1.387 . S
C942 C943 1.387 . S
C942 H946 0.950 . S
C942 C951 1.390 . S
C943 C942 1.387 . S
C943 C945 1.387 . S
H944 C951 0.950 . S
C945 C943 1.387 . S
C945 C947 1.390 . S
C945 H949 0.950 . S
H946 C942 0.950 . S
C947 C945 1.390 . S
C947 C948 1.387 . S
C947 H950 0.950 . S
C948 C947 1.387 . S
C948 C951 1.387 . S
H949 C945 0.950 . S
H950 C947 0.950 . S
C951 C942 1.390 . S
C951 H944 0.950 . S
C951 C948 1.387 . S
C952 C953 1.387 . S
C952 H956 0.950 . S
C952 C961 1.390 . S
C953 C952 1.387 . S
C953 C955 1.387 . S
H954 C961 0.950 . S
C955 C953 1.387 . S
C955 C957 1.390 . S
C955 H959 0.950 . S
H956 C952 0.950 . S
C957 C955 1.390 . S
C957 C958 1.387 . S
C957 H960 0.950 . S
C958 C957 1.387 . S
C958 C961 1.387 . S
H959 C955 0.950 . S
H960 C957 0.950 . S
C961 C952 1.390 . S
C961 H954 0.950 . S
C961 C958 1.387 . S
C962 C963 1.387 . S
C962 H966 0.950 . S
C962 C971 1.390 . S
C963 C962 1.387 . S
C963 C965 1.387 . S
H964 C971 0.950 . S
C965 C963 1.387 . S
C965 C967 1.390 . S
C965 H969 0.950 . S
H966 C962 0.950 . S
C967 C965 1.390 . S
C967 C968 1.387 . S
C967 H970 0.950 . S
C968 C967 1.387 . S
C968 C971 1.387 . S
H969 C965 0.950 . S
H970 C967 0.950 . S
C971 C962 1.390 . S
C971 H964 0.950 . S
C971 C968 1.387 . S
C972 C973 1.387 . S
C972 H976 0.950 . S
C972 C981 1.390 . S
C973 C972 1.387 . S
C973 C975 1.387 . S
H974 C981 0.950 . S
C975 C973 1.387 . S
C975 C977 1.390 . S
C975 H979 0.950 . S
H976 C972 0.950 . S
C977 C975 1.390 . S
C977 C978 1.387 . S
C977 H980 0.950 . S
C978 C977 1.387 . S
C978 C981 1.387 . S
H979 C975 0.950 . S
H980 C977 0.950 . S
C981 C972 1.390 . S
C981 H974 0.950 . S
C981 C978 1.387 . S
C982 C983 1.387 . S
C982 H986 0.950 . S
C982 C991 1.390 . S
C983 C982 1.387 . S
C983 C985 1.387 . S
H984 C991 0.950 . S
C985 C983 1.387 . S
C985 C987 1.390 . S
C985 H989 0.950 . S
H986 C982 0.950 . S
C987 C985 1.390 . S
C987 C988 1.387 . S
C987 H990 0.950 . S
C988 C987 1.387 . S
C988 C991 1.387 . S
H989 C985 0.950 . S
H990 C987 0.950 . S
C991 C982 1.390 . S
C991 H984 0.950 . S
C991 C988 1.387 . S
C513 N18 1.004 1_455 S
C518 C36 0.998 . S
C523 N77 1.003 . S
C528 C61 1.020 . S
C533 C100 1.650 . S
C538 C66 1.672 . S
C543 C6 1.672 . S
C548 C125 1.650 . S
C553 C4 1.844 . S
C558 C290 1.812 . S
C563 C228 1.855 . S
C568 C38 1.792 . S
C573 N82 1.236 . S
C578 C322 1.246 . S
C583 C102 1.663 . S
C588 C445 1.686 . S
C593 C285 1.854 . S
C598 C34 1.790 . S
C603 C390 1.812 . S
C608 C93 1.843 . S
C613 C452 1.686 . S
C618 C98 1.663 . S
C623 N13 1.236 . S
C628 C358 1.245 . S
C633 C2 1.389 . S
C638 C262 1.393 . S
C643 N402 0.894 . S
C648 N146 0.914 . S
C653 C166 1.342 . S
C658 C477 1.337 . S
C663 N370 0.620 . S
C668 N210 0.616 . S
C673 C70 1.388 . S
C678 C226 1.391 . S
C683 N301 0.886 . S
C688 N141 0.907 . S
C693 N205 0.620 . S
C698 N333 0.624 . S
C703 N178 0.936 . S
C708 C354 0.943 . S
C713 C294 1.204 . S
C718 C189 1.247 . S
C723 C356 1.655 . S
C728 C230 1.714 1_655 S
C733 N173 0.595 . S
C738 C157 0.593 . S
C743 C292 0.612 . S
C748 N269 0.615 . S
C753 N429 0.832 . S
C758 C381 0.836 . S
C763 C196 1.355 . S
C768 C162 1.419 . S
C773 C317 1.527 . S
C778 C454 1.544 . S
C783 C422 1.303 . S
C788 C29 1.292 . S
C793 C68 1.290 . S
C798 C450 1.302 . S
C803 N397 1.198 . S
C808 N45 1.189 . S
C813 C253 1.250 . S
C818 C164 1.254 . S
C823 N114 0.714 . S
C828 N338 0.709 . S
C833 C388 1.527 . S
C838 C418 1.544 . S
C843 N242 0.615 . S
C848 C413 0.612 . S
C853 C194 1.094 . S
C858 N237 1.079 . S
C863 C130 0.858 . S
C868 N434 0.854 . S
C873 C386 1.206 . S
C878 C484 1.248 . S
C883 C509 1.254 . S
C888 C260 1.250 . S
C893 N50 1.189 . S
C898 N306 1.198 . S
C903 N274 1.081 . S
C908 C198 1.095 . S
C913 C258 1.714 . S
C918 C349 1.654 . S
C923 C486 1.418 . S
C928 C221 1.355 . S
C933 C420 1.337 . S
C938 C482 1.342 . S
C943 N365 0.707 . S
C948 N109 0.711 . S
C953 C324 0.836 . S
C958 N466 0.831 . S
C963 C326 0.948 . S
C968 N493 0.940 . S
C973 C134 0.860 . S
C978 N461 0.856 . S
C983 N498 0.592 . S
C988 C132 0.589 . S
