# Generated by pormake.
# Topology lcy-e, (6)-cn, num edge types: 1
# Building blocks:
#     Node 0, Type 0, BuildingBlock: KUMJIN_clean_sbu_1, # of connection points: 6
#     Node 1, Type 0, BuildingBlock: KUMJIN_clean_sbu_1, # of connection points: 6
#     Node 2, Type 0, BuildingBlock: KUMJIN_clean_sbu_1, # of connection points: 6
#     Node 3, Type 0, BuildingBlock: KUMJIN_clean_sbu_1, # of connection points: 6
#     Node 4, Type 0, BuildingBlock: KUMJIN_clean_sbu_1, # of connection points: 6
#     Node 5, Type 0, BuildingBlock: KUMJIN_clean_sbu_1, # of connection points: 6
#     Node 6, Type 0, BuildingBlock: KUMJIN_clean_sbu_1, # of connection points: 6
#     Node 7, Type 0, BuildingBlock: KUMJIN_clean_sbu_1, # of connection points: 6
#     Node 8, Type 0, BuildingBlock: KUMJIN_clean_sbu_1, # of connection points: 6
#     Node 9, Type 0, BuildingBlock: KUMJIN_clean_sbu_1, # of connection points: 6
#     Node 10, Type 0, BuildingBlock: KUMJIN_clean_sbu_1, # of connection points: 6
#     Node 11, Type 0, BuildingBlock: KUMJIN_clean_sbu_1, # of connection points: 6
#     Edge 12, Type (0, 0), BuildingBlock: MIFKUJ_clean_linker_0, # of connection points: 2
#     Edge 13, Type (0, 0), BuildingBlock: MIFKUJ_clean_linker_0, # of connection points: 2
#     Edge 14, Type (0, 0), BuildingBlock: MIFKUJ_clean_linker_0, # of connection points: 2
#     Edge 15, Type (0, 0), BuildingBlock: MIFKUJ_clean_linker_0, # of connection points: 2
#     Edge 16, Type (0, 0), BuildingBlock: MIFKUJ_clean_linker_0, # of connection points: 2
#     Edge 17, Type (0, 0), BuildingBlock: MIFKUJ_clean_linker_0, # of connection points: 2
#     Edge 18, Type (0, 0), BuildingBlock: MIFKUJ_clean_linker_0, # of connection points: 2
#     Edge 19, Type (0, 0), BuildingBlock: MIFKUJ_clean_linker_0, # of connection points: 2
#     Edge 20, Type (0, 0), BuildingBlock: MIFKUJ_clean_linker_0, # of connection points: 2
#     Edge 21, Type (0, 0), BuildingBlock: MIFKUJ_clean_linker_0, # of connection points: 2
#     Edge 22, Type (0, 0), BuildingBlock: MIFKUJ_clean_linker_0, # of connection points: 2
#     Edge 23, Type (0, 0), BuildingBlock: MIFKUJ_clean_linker_0, # of connection points: 2
#     Edge 24, Type (0, 0), BuildingBlock: MIFKUJ_clean_linker_0, # of connection points: 2
#     Edge 25, Type (0, 0), BuildingBlock: MIFKUJ_clean_linker_0, # of connection points: 2
#     Edge 26, Type (0, 0), BuildingBlock: MIFKUJ_clean_linker_0, # of connection points: 2
#     Edge 27, Type (0, 0), BuildingBlock: MIFKUJ_clean_linker_0, # of connection points: 2
#     Edge 28, Type (0, 0), BuildingBlock: MIFKUJ_clean_linker_0, # of connection points: 2
#     Edge 29, Type (0, 0), BuildingBlock: MIFKUJ_clean_linker_0, # of connection points: 2
#     Edge 30, Type (0, 0), BuildingBlock: MIFKUJ_clean_linker_0, # of connection points: 2
#     Edge 31, Type (0, 0), BuildingBlock: MIFKUJ_clean_linker_0, # of connection points: 2
#     Edge 32, Type (0, 0), BuildingBlock: MIFKUJ_clean_linker_0, # of connection points: 2
#     Edge 33, Type (0, 0), BuildingBlock: MIFKUJ_clean_linker_0, # of connection points: 2
#     Edge 34, Type (0, 0), BuildingBlock: MIFKUJ_clean_linker_0, # of connection points: 2
#     Edge 35, Type (0, 0), BuildingBlock: MIFKUJ_clean_linker_0, # of connection points: 2
#     Edge 36, Type (0, 0), BuildingBlock: MIFKUJ_clean_linker_0, # of connection points: 2
#     Edge 37, Type (0, 0), BuildingBlock: MIFKUJ_clean_linker_0, # of connection points: 2
#     Edge 38, Type (0, 0), BuildingBlock: MIFKUJ_clean_linker_0, # of connection points: 2
#     Edge 39, Type (0, 0), BuildingBlock: MIFKUJ_clean_linker_0, # of connection points: 2
#     Edge 40, Type (0, 0), BuildingBlock: MIFKUJ_clean_linker_0, # of connection points: 2
#     Edge 41, Type (0, 0), BuildingBlock: MIFKUJ_clean_linker_0, # of connection points: 2
#     Edge 42, Type (0, 0), BuildingBlock: MIFKUJ_clean_linker_0, # of connection points: 2
#     Edge 43, Type (0, 0), BuildingBlock: MIFKUJ_clean_linker_0, # of connection points: 2
#     Edge 44, Type (0, 0), BuildingBlock: MIFKUJ_clean_linker_0, # of connection points: 2
#     Edge 45, Type (0, 0), BuildingBlock: MIFKUJ_clean_linker_0, # of connection points: 2
#     Edge 46, Type (0, 0), BuildingBlock: MIFKUJ_clean_linker_0, # of connection points: 2
#     Edge 47, Type (0, 0), BuildingBlock: MIFKUJ_clean_linker_0, # of connection points: 2
# Relax obj value: 0.094
# Max RMSD: 0.234
# Mean RMSD: 0.233
data_MOF--net-lcy-e--node1-KUMJIN_clean_sbu_1--edge1-MIFKUJ_clean_linker_0
_symmetry_space_group_name_H-M    P1
_symmetry_Int_Tables_number       1
_symmetry_cell_setting            triclinic
loop_
_symmetry_equiv_pos_as_xyz
'x, y, z'
_cell_length_a     54.908522
_cell_length_b     54.659125
_cell_length_c     54.891825
_cell_angle_alpha  89.909847
_cell_angle_beta   90.053779
_cell_angle_gamma 89.877929
loop_
_atom_site_label
_atom_site_type_symbol
_atom_site_fract_x
_atom_site_fract_y
_atom_site_fract_z
_atom_type_partial_charge
Eu0 Eu 0.14092 0.2048 0.51135 0.0
C1 C 0.06559 0.27799 0.45655 0.0
N2 N 0.07884 0.25901 0.44757 0.0
C3 C 0.04501 0.24639 0.42306 0.0
C4 C 0.04116 0.28156 0.44944 0.0
C5 C 0.06927 0.24383 0.43039 0.0
C6 C 0.03081 0.2652 0.4328 0.0
C7 C 0.06369 0.31466 0.4814 0.0
C8 C 0.07669 0.29435 0.47235 0.0
C9 C 0.03924 0.31803 0.47469 0.0
C10 C 0.02799 0.3015 0.45878 0.0
Eu11 Eu 0.1194 0.25589 0.46135 0.0
N12 N 0.10028 0.29037 0.47891 0.0
C13 C 0.07564 0.33089 0.49706 0.0
C14 C 0.11235 0.30679 0.49315 0.0
C15 C 0.10008 0.32695 0.50288 0.0
H16 H 0.08058 0.23014 0.42191 0.0
H17 H 0.10955 0.33961 0.51463 0.0
H18 H 0.1926 0.22324 0.53703 0.0
H19 H 0.12306 0.12778 0.44997 0.0
H20 H 0.1314 0.3044 0.49695 0.0
H21 H 0.06623 0.34661 0.50457 0.0
H22 H 0.11203 0.16168 0.47694 0.0
H23 H 0.0374 0.23407 0.40966 0.0
H24 H 0.0289 0.33343 0.4816 0.0
H25 H 0.00917 0.30448 0.45359 0.0
H26 H 0.23619 0.21143 0.53723 0.0
H27 H 0.01208 0.26729 0.42692 0.0
H28 H 0.1661 0.11534 0.44589 0.0
N29 N 0.18246 0.19513 0.51241 0.0
C30 C 0.18959 0.1757 0.49874 0.0
C31 C 0.22328 0.20127 0.52632 0.0
C32 C 0.21424 0.16849 0.49813 0.0
C33 C 0.1987 0.20792 0.52617 0.0
C34 C 0.2311 0.18148 0.51223 0.0
N35 N 0.14863 0.17125 0.48524 0.0
C36 C 0.13097 0.15792 0.47392 0.0
C37 C 0.17938 0.14363 0.47 0.0
C38 C 0.1723 0.16366 0.48455 0.0
C39 C 0.16147 0.13103 0.45699 0.0
C40 C 0.13714 0.13804 0.45919 0.0
H41 H 0.25021 0.17649 0.51224 0.0
H42 H 0.24021 0.14316 0.48243 0.0
H43 H 0.2097 0.12125 0.45801 0.0
O44 O 0.12337 0.17434 0.53164 0.0
O45 O 0.16704 0.21755 0.48226 0.0
O46 O 0.1413 0.22234 0.45015 0.0
O47 O 0.15137 0.19691 0.54864 0.0
O48 O 0.10269 0.20275 0.49529 0.0
O49 O 0.10847 0.21643 0.45631 0.0
O50 O 0.14525 0.28132 0.44458 0.0
O51 O 0.09801 0.25684 0.49787 0.0
O52 O 0.12022 0.23575 0.52734 0.0
O53 O 0.11604 0.26655 0.42301 0.0
O54 O 0.15345 0.26387 0.48342 0.0
O55 O 0.15213 0.24398 0.52105 0.0
C56 C 0.1633 0.21846 0.45873 0.0
C57 C 0.13431 0.16528 0.57442 0.0
C58 C 0.11861 0.13186 0.59983 0.0
C59 C 0.13059 0.14222 0.61999 0.0
C60 C 0.14583 0.17511 0.59506 0.0
C61 C 0.144 0.16363 0.61759 0.0
C62 C 0.12072 0.1434 0.57682 0.0
C63 C 0.09526 0.20499 0.47261 0.0
C64 C 0.13619 0.17886 0.55109 0.0
C65 C 0.22133 0.14888 0.48324 0.0
C66 C 0.20396 0.13648 0.46925 0.0
C67 C 0.10238 0.25026 0.52074 0.0
C68 C 0.13046 0.30568 0.41201 0.0
C69 C 0.13846 0.33485 0.37914 0.0
C70 C 0.12351 0.35199 0.39099 0.0
C71 C 0.11559 0.32312 0.4234 0.0
C72 C 0.14171 0.31149 0.38963 0.0
C73 C 0.11203 0.34606 0.41286 0.0
C74 C 0.15833 0.26264 0.50689 0.0
C75 C 0.13437 0.28154 0.42345 0.0
H76 H 0.12977 0.13359 0.63776 0.0
H77 H 0.1562 0.19191 0.5939 0.0
H78 H 0.15301 0.1714 0.63331 0.0
H79 H 0.11157 0.13569 0.56111 0.0
H80 H 0.12069 0.37002 0.38326 0.0
H81 H 0.10681 0.31911 0.44049 0.0
H82 H 0.15329 0.29816 0.38071 0.0
H83 H 0.10057 0.35942 0.42184 0.0
Eu84 Eu 0.04869 0.88801 0.76464 0.0
C85 C 0.98355 0.81353 0.71482 0.0
N86 N 0.9996 0.82829 0.70312 0.0
C87 C 0.01589 0.79392 0.68169 0.0
C88 C 0.98405 0.78799 0.71145 0.0
C89 C 0.01416 0.81914 0.68522 0.0
C90 C 1.00118 0.77816 0.6953 0.0
C91 C 0.94658 0.80983 0.73868 0.0
C92 C 0.96504 0.82424 0.72821 0.0
C93 C 0.94799 0.78423 0.7369 0.0
C94 C 0.96673 0.77331 0.72332 0.0
Eu95 Eu 0.99779 0.87021 0.71327 0.0
N96 N 0.96427 0.84901 0.72968 0.0
C97 C 0.9268 0.82167 0.7497 0.0
C98 C 0.94419 0.86073 0.73855 0.0
C99 C 0.92533 0.84722 0.74905 0.0
H100 H 0.02481 0.83131 0.67396 0.0
H101 H 0.90975 0.85655 0.75661 0.0
H102 H 0.02963 0.94016 0.78932 0.0
H103 H 0.12957 0.86939 0.70888 0.0
H104 H 0.9433 0.88048 0.73827 0.0
H105 H 0.91217 0.81128 0.75791 0.0
H106 H 0.09508 0.85862 0.73513 0.0
H107 H 0.02849 0.78686 0.66838 0.0
H108 H 0.9342 0.77276 0.74517 0.0
H109 H 0.96704 0.75361 0.72127 0.0
H110 H 0.04022 0.98416 0.78823 0.0
H111 H 1.00232 0.75861 0.69232 0.0
H112 H 0.14017 0.91283 0.70222 0.0
N113 N 0.05778 0.92993 0.76486 0.0
C114 C 0.07746 0.93706 0.75169 0.0
C115 C 0.05075 0.97113 0.77777 0.0
C116 C 0.08403 0.96194 0.75036 0.0
C117 C 0.04474 0.94629 0.7783 0.0
C118 C 0.07036 0.97902 0.76359 0.0
N119 N 0.08392 0.8955 0.74082 0.0
C120 C 0.09837 0.87761 0.73121 0.0
C121 C 0.11084 0.92644 0.7248 0.0
C122 C 0.09059 0.91944 0.73896 0.0
C123 C 0.12449 0.90821 0.71325 0.0
C124 C 0.11847 0.88368 0.71684 0.0
H125 H 0.07483 0.99831 0.76304 0.0
H126 H 0.10893 0.98804 0.73426 0.0
H127 H 0.13248 0.95698 0.71198 0.0
O128 O 0.08144 0.87985 0.78637 0.0
O129 O 0.03597 0.91484 0.73545 0.0
O130 O 0.03207 0.89038 0.70217 0.0
O131 O 0.04776 0.8912 0.8044 0.0
O132 O 0.05256 0.85134 0.74552 0.0
O133 O 0.03743 0.85896 0.70707 0.0
O134 O 0.9787 0.89941 0.69337 0.0
O135 O 0.99081 0.85985 0.75317 0.0
O136 O 0.02915 0.85169 0.76664 0.0
O137 O 0.97828 0.86287 0.67936 0.0
O138 O 0.99012 0.90373 0.73664 0.0
O139 O 0.00984 0.90043 0.77436 0.0
C140 C 0.03737 0.91166 0.71179 0.0
C141 C 0.08271 0.8827 0.83089 0.0
C142 C 0.11647 0.86931 0.85726 0.0
C143 C 0.10399 0.87927 0.87732 0.0
C144 C 0.07079 0.89219 0.85141 0.0
C145 C 0.08143 0.89057 0.87438 0.0
C146 C 0.10584 0.87142 0.83382 0.0
C147 C 0.05062 0.84576 0.72226 0.0
C148 C 0.07049 0.88456 0.80683 0.0
C149 C 0.10377 0.96898 0.73574 0.0
C150 C 0.11711 0.95129 0.72297 0.0
C151 C 0.00557 0.84999 0.76931 0.0
C152 C 0.97726 0.89458 0.65056 0.0
C153 C 0.96316 0.90737 0.61019 0.0
C154 C 0.98751 0.90807 0.60235 0.0
C155 C 1.00138 0.89552 0.64227 0.0
C156 C 0.95809 0.90085 0.63455 0.0
C157 C 0.00646 0.90249 0.61837 0.0
C158 C 0.99151 0.90797 0.76034 0.0
C159 C 0.97221 0.88547 0.67533 0.0
H160 H 0.1118 0.87847 0.89543 0.0
H161 H 0.05317 0.90099 0.84974 0.0
H162 H 0.07209 0.8981 0.89003 0.0
H163 H 0.11519 0.86384 0.81817 0.0
H164 H 0.99187 0.91317 0.58377 0.0
H165 H 0.01622 0.89034 0.65419 0.0
H166 H 0.93938 0.89989 0.64076 0.0
H167 H 0.02513 0.9032 0.61213 0.0
Eu168 Eu 0.38956 0.74638 0.95476 0.0
C169 C 0.31414 0.79632 0.02682 0.0
N170 N 0.32716 0.80612 0.00814 0.0
C171 C 0.29248 0.82954 0.99538 0.0
C172 C 0.28933 0.80226 0.02993 0.0
C173 C 0.31709 0.82337 0.99323 0.0
C174 C 0.27846 0.81874 0.01365 0.0
C175 C 0.31266 0.77051 0.06291 0.0
C176 C 0.32579 0.78091 0.04342 0.0
C177 C 0.28787 0.7761 0.06576 0.0
C178 C 0.27626 0.79197 0.04938 0.0
Eu179 Eu 0.36848 0.79469 0.00662 0.0
N180 N 0.34979 0.77553 0.04012 0.0
C181 C 0.32469 0.75422 0.07855 0.0
C182 C 0.36177 0.76023 0.05568 0.0
C183 C 0.34926 0.74888 0.07472 0.0
H184 H 0.32807 0.83271 0.97984 0.0
H185 H 0.35864 0.73616 0.08656 0.0
H186 H 0.4371 0.71487 0.97958 0.0
H187 H 0.38339 0.79785 0.87024 0.0
H188 H 0.38085 0.75655 0.05332 0.0
H189 H 0.31515 0.74551 0.09349 0.0
H190 H 0.36819 0.7802 0.90888 0.0
H191 H 0.28444 0.84286 0.98316 0.0
H192 H 0.27748 0.76822 0.08059 0.0
H193 H 0.25717 0.79627 0.05197 0.0
H194 H 0.48009 0.70735 0.97035 0.0
H195 H 0.25944 0.82373 0.01542 0.0
H196 H 0.42659 0.79226 0.85866 0.0
N197 N 0.43166 0.73952 0.94982 0.0
C198 C 0.44131 0.74911 0.92905 0.0
C199 C 0.46947 0.71933 0.95875 0.0
C200 C 0.46549 0.74376 0.92228 0.0
C201 C 0.44512 0.72423 0.96427 0.0
C202 C 0.47971 0.72914 0.93767 0.0
N203 N 0.40295 0.76711 0.91989 0.0
C204 C 0.38724 0.77858 0.9043 0.0
C205 C 0.43574 0.77191 0.8913 0.0
C206 C 0.42653 0.76298 0.91358 0.0
C207 C 0.42014 0.78508 0.87589 0.0
C208 C 0.39575 0.78831 0.88236 0.0
H209 H 0.49842 0.72476 0.9331 0.0
H210 H 0.49247 0.747 0.89393 0.0
H211 H 0.46711 0.77294 0.86743 0.0
O212 O 0.36209 0.7267 0.93293 0.0
O213 O 0.4002 0.7864 0.95163 0.0
O214 O 0.40676 0.79669 0.99111 0.0
O215 O 0.39904 0.71329 0.93498 0.0
O216 O 0.35158 0.7628 0.95314 0.0
O217 O 0.35821 0.80174 0.96709 0.0
O218 O 0.37959 0.81406 0.0395 0.0
O219 O 0.34693 0.75809 1.0037 0.0
O220 O 0.37534 0.73066 0.98933 0.0
O221 O 0.3694 0.83487 0.00756 0.0
O222 O 0.40313 0.77444 0.01606 0.0
O223 O 0.4042 0.7381 0.99377 0.0
C224 C 0.41317 0.79757 0.96817 0.0
C225 C 0.3695 0.68498 0.92118 0.0
C226 C 0.35421 0.65417 0.89235 0.0
C227 C 0.36067 0.63592 0.90943 0.0
C228 C 0.37549 0.66638 0.9377 0.0
C229 C 0.37081 0.64204 0.93193 0.0
C230 C 0.35853 0.67888 0.89874 0.0
C231 C 0.34549 0.78602 0.95421 0.0
C232 C 0.3776 0.71031 0.92541 0.0
C233 C 0.47445 0.75221 0.8999 0.0
C234 C 0.45983 0.76661 0.88466 0.0
C235 C 0.35417 0.73537 0.99917 0.0
C236 C 0.36643 0.85466 0.04623 0.0
C237 C 0.3722 0.89037 0.07249 0.0
C238 C 0.34789 0.88828 0.0801 0.0
C239 C 0.34218 0.85308 0.05401 0.0
C240 C 0.38138 0.87357 0.05531 0.0
C241 C 0.33297 0.86988 0.07076 0.0
C242 C 0.41073 0.75185 0.01274 0.0
C243 C 0.37689 0.8358 0.03012 0.0
H244 H 0.35869 0.61669 0.90534 0.0
H245 H 0.38462 0.67056 0.95466 0.0
H246 H 0.37582 0.62774 0.94465 0.0
H247 H 0.35396 0.69348 0.88618 0.0
H248 H 0.34041 0.901 0.09325 0.0
H249 H 0.33047 0.8387 0.04744 0.0
H250 H 0.40024 0.87477 0.0496 0.0
H251 H 0.31425 0.86848 0.07675 0.0
Eu252 Eu 0.45405 0.11543 0.26124 0.0
C253 C 0.52163 0.19266 0.20169 0.0
N254 N 0.50354 0.17792 0.19345 0.0
C255 C 0.49007 0.20922 0.16595 0.0
C256 C 0.5244 0.21659 0.19253 0.0
C257 C 0.48817 0.18558 0.17546 0.0
C258 C 0.50829 0.22477 0.1745 0.0
C259 C 0.55801 0.19768 0.22631 0.0
C260 C 0.53831 0.18331 0.21828 0.0
C261 C 0.56031 0.22185 0.21794 0.0
C262 C 0.54359 0.23125 0.20102 0.0
Eu263 Eu 0.50223 0.13803 0.20969 0.0
N264 N 0.53576 0.15977 0.22587 0.0
C265 C 0.57525 0.18707 0.2419 0.0
C266 C 0.55317 0.14899 0.24009 0.0
C267 C 0.5729 0.16257 0.2487 0.0
H268 H 0.47494 0.1731 0.16795 0.0
H269 H 0.5864 0.15406 0.26034 0.0
H270 H 0.47313 0.06112 0.28122 0.0
H271 H 0.37345 0.14002 0.20737 0.0
H272 H 0.55156 0.13008 0.24506 0.0
H273 H 0.59081 0.1974 0.24817 0.0
H274 H 0.4092 0.14805 0.2327 0.0
H275 H 0.47783 0.21524 0.15168 0.0
H276 H 0.57526 0.23323 0.22401 0.0
H277 H 0.54597 0.24971 0.19423 0.0
H278 H 0.46049 0.0177 0.27853 0.0
H279 H 0.51028 0.24274 0.16649 0.0
H280 H 0.3603 0.09754 0.20004 0.0
N281 N 0.44417 0.07385 0.25887 0.0
C282 C 0.42384 0.06827 0.24589 0.0
C283 C 0.45008 0.03173 0.26925 0.0
C284 C 0.41605 0.04381 0.24381 0.0
C285 C 0.45722 0.05621 0.2707 0.0
C286 C 0.42944 0.02549 0.2557 0.0
N287 N 0.41923 0.11057 0.23628 0.0
C288 C 0.40523 0.12945 0.22791 0.0
C289 C 0.3901 0.08159 0.2205 0.0
C290 C 0.41127 0.08704 0.23402 0.0
C291 C 0.37686 0.1009 0.2102 0.0
C292 C 0.38428 0.12493 0.21421 0.0
H293 H 0.42403 0.00648 0.2545 0.0
H294 H 0.38918 0.01968 0.22789 0.0
H295 H 0.36622 0.05272 0.20793 0.0
O296 O 0.42394 0.13073 0.28334 0.0
O297 O 0.46577 0.09019 0.23051 0.0
O298 O 0.4681 0.11724 0.19922 0.0
O299 O 0.44748 0.10205 0.29803 0.0
O300 O 0.45146 0.1545 0.24668 0.0
O301 O 0.46279 0.14949 0.20691 0.0
O302 O 0.52797 0.1118 0.19379 0.0
O303 O 0.50463 0.15889 0.24618 0.0
O304 O 0.48456 0.13741 0.27709 0.0
O305 O 0.51188 0.13951 0.17106 0.0
O306 O 0.51136 0.10387 0.23162 0.0
O307 O 0.49323 0.10405 0.2699 0.0
C308 C 0.46463 0.09488 0.20712 0.0
C309 C 0.41503 0.11599 0.32479 0.0
C310 C 0.38175 0.13012 0.35121 0.0
C311 C 0.38943 0.11311 0.36894 0.0
C312 C 0.42227 0.09953 0.3431 0.0
C313 C 0.40952 0.09811 0.36492 0.0
C314 C 0.39461 0.13132 0.32888 0.0
C315 C 0.45258 0.16261 0.22411 0.0
C316 C 0.42879 0.11625 0.30156 0.0
C317 C 0.39538 0.03838 0.2298 0.0
C318 C 0.3824 0.05721 0.21828 0.0
C319 C 0.49962 0.15436 0.26933 0.0
C320 C 0.55127 0.1263 0.16044 0.0
C321 C 0.58046 0.1189 0.12744 0.0
C322 C 0.5958 0.13672 0.1378 0.0
C323 C 0.56716 0.14365 0.17039 0.0
C324 C 0.55792 0.11393 0.13887 0.0
C325 C 0.58922 0.14885 0.15909 0.0
C326 C 0.51172 0.09909 0.25517 0.0
C327 C 0.52755 0.12171 0.17217 0.0
H328 H 0.37968 0.11109 0.38596 0.0
H329 H 0.43775 0.0875 0.34053 0.0
H330 H 0.41516 0.08517 0.37878 0.0
H331 H 0.38893 0.14418 0.31494 0.0
H332 H 0.61288 0.1416 0.12924 0.0
H333 H 0.56247 0.15335 0.18677 0.0
H334 H 0.54571 0.10041 0.1312 0.0
H335 H 0.60122 0.16249 0.16681 0.0
Eu336 Eu 0.63403 0.29907 0.4914 0.0
C337 C 0.56383 0.23214 0.54683 0.0
N338 N 0.57746 0.25027 0.55681 0.0
C339 C 0.54236 0.26559 0.57787 0.0
C340 C 0.53853 0.23083 0.55103 0.0
C341 C 0.56742 0.26587 0.57343 0.0
C342 C 0.52775 0.24829 0.56624 0.0
C343 C 0.56213 0.19416 0.52403 0.0
C344 C 0.57544 0.21389 0.53371 0.0
C345 C 0.53677 0.19341 0.52718 0.0
C346 C 0.525 0.21171 0.54065 0.0
Eu347 Eu 0.61928 0.2506 0.54624 0.0
N348 N 0.59997 0.2152 0.53083 0.0
C349 C 0.57477 0.17564 0.51174 0.0
C350 C 0.61264 0.19622 0.52068 0.0
C351 C 0.60015 0.17662 0.51024 0.0
H352 H 0.5787 0.27864 0.5833 0.0
H353 H 0.61008 0.16265 0.50055 0.0
H354 H 0.68432 0.27639 0.46606 0.0
H355 H 0.61859 0.38578 0.53927 0.0
H356 H 0.63226 0.19687 0.51978 0.0
H357 H 0.56518 0.16036 0.50368 0.0
H358 H 0.60667 0.34685 0.52101 0.0
H359 H 0.53437 0.27855 0.59045 0.0
H360 H 0.52617 0.17848 0.51978 0.0
H361 H 0.50551 0.21055 0.54347 0.0
H362 H 0.72703 0.28897 0.4594 0.0
H363 H 0.50837 0.24796 0.56988 0.0
H364 H 0.66109 0.40011 0.53588 0.0
N365 N 0.67534 0.30812 0.4865 0.0
C366 C 0.68266 0.33021 0.49506 0.0
C367 C 0.71477 0.30067 0.46953 0.0
C368 C 0.7066 0.33842 0.49101 0.0
C369 C 0.6907 0.29348 0.47354 0.0
C370 C 0.72276 0.32326 0.47827 0.0
N371 N 0.64273 0.33677 0.51063 0.0
C372 C 0.62563 0.35162 0.52103 0.0
C373 C 0.6733 0.36781 0.51663 0.0
C374 C 0.66606 0.34474 0.50775 0.0
C375 C 0.65618 0.38232 0.52875 0.0
C376 C 0.63221 0.37424 0.53081 0.0
H377 H 0.74136 0.32893 0.4749 0.0
H378 H 0.73146 0.36865 0.4953 0.0
H379 H 0.70273 0.39404 0.51855 0.0
O380 O 0.62401 0.33001 0.46816 0.0
O381 O 0.663 0.29062 0.51988 0.0
O382 O 0.6398 0.28595 0.55406 0.0
O383 O 0.63387 0.29495 0.45157 0.0
O384 O 0.59893 0.30433 0.51293 0.0
O385 O 0.60767 0.29043 0.5517 0.0
O386 O 0.64718 0.22859 0.5648 0.0
O387 O 0.6062 0.24239 0.50722 0.0
O388 O 0.59764 0.28053 0.49402 0.0
O389 O 0.61489 0.239 0.58415 0.0
O390 O 0.65308 0.24427 0.52295 0.0
O391 O 0.64563 0.25926 0.48392 0.0
C392 C 0.66062 0.29153 0.54365 0.0
C393 C 0.62276 0.3285 0.42389 0.0
C394 C 0.60843 0.36211 0.39782 0.0
C395 C 0.61396 0.34775 0.37729 0.0
C396 C 0.62791 0.31465 0.40303 0.0
C397 C 0.62362 0.32429 0.37992 0.0
C398 C 0.61318 0.35244 0.42122 0.0
C399 C 0.59428 0.30336 0.53648 0.0
C400 C 0.62694 0.31759 0.44821 0.0
C401 C 0.71353 0.36161 0.4993 0.0
C402 C 0.69707 0.37613 0.51233 0.0
C403 C 0.59569 0.25699 0.49135 0.0
C404 C 0.63351 0.20193 0.59599 0.0
C405 C 0.64487 0.17275 0.62789 0.0
C406 C 0.63106 0.15474 0.61602 0.0
C407 C 0.61934 0.18376 0.58491 0.0
C408 C 0.64602 0.19648 0.61781 0.0
C409 C 0.61827 0.16029 0.59477 0.0
C410 C 0.65477 0.24256 0.49901 0.0
C411 C 0.63504 0.22657 0.58504 0.0
H412 H 0.61094 0.35475 0.35906 0.0
H413 H 0.63525 0.2963 0.40454 0.0
H414 H 0.62773 0.31348 0.36393 0.0
H415 H 0.60889 0.36325 0.43719 0.0
H416 H 0.62989 0.1364 0.62345 0.0
H417 H 0.60892 0.18769 0.56875 0.0
H418 H 0.65677 0.21047 0.62673 0.0
H419 H 0.60742 0.14636 0.58596 0.0
Eu420 Eu 0.01026 0.36218 0.80171 0.0
C421 C 0.95474 0.44107 0.73671 0.0
N422 N 0.94586 0.4263 0.7545 0.0
C423 C 0.92367 0.45994 0.77161 0.0
C424 C 0.9491 0.46624 0.73624 0.0
C425 C 0.92946 0.43502 0.77101 0.0
C426 C 0.93385 0.4757 0.75437 0.0
C427 C 0.97631 0.44511 0.69835 0.0
C428 C 0.96814 0.43068 0.71798 0.0
C429 C 0.97168 0.47039 0.69836 0.0
C430 C 0.95811 0.48093 0.71727 0.0
Eu431 Eu 0.95781 0.38482 0.75293 0.0
N432 N 0.9723 0.4062 0.71847 0.0
C433 C 0.98844 0.4336 0.67905 0.0
C434 C 0.98258 0.3946 0.69896 0.0
C435 C 0.99129 0.40818 0.67921 0.0
H436 H 0.9209 0.42273 0.78383 0.0
H437 H 1.00008 0.39905 0.6641 0.0
H438 H 0.0336 0.31057 0.77957 0.0
H439 H 0.95002 0.37794 0.87993 0.0
H440 H 0.9845 0.37495 0.69903 0.0
H441 H 0.99507 0.44408 0.66367 0.0
H442 H 0.9759 0.39012 0.8458 0.0
H443 H 0.91121 0.46691 0.7852 0.0
H444 H 0.97801 0.48184 0.68355 0.0
H445 H 0.95413 0.50035 0.71671 0.0
H446 H 0.03291 0.26626 0.78923 0.0
H447 H 0.92914 0.49496 0.7547 0.0
H448 H 0.94622 0.33437 0.89095 0.0
N449 N 0.00957 0.31996 0.80836 0.0
C450 C 0.99651 0.31233 0.82798 0.0
C451 C 0.02254 0.27901 0.80018 0.0
C452 C 0.99561 0.2873 0.83412 0.0
C453 C 0.02282 0.30398 0.79468 0.0
C454 C 0.00883 0.27062 0.81994 0.0
N455 N 0.98411 0.35367 0.83488 0.0
C456 C 0.97308 0.37097 0.84898 0.0
C457 C 0.96921 0.32182 0.86147 0.0
C458 C 0.9832 0.32953 0.84134 0.0
C459 C 0.95681 0.33946 0.87513 0.0
C460 C 0.95887 0.36412 0.86894 0.0
H461 H 0.00857 0.25124 0.82409 0.0
H462 H 0.98046 0.26052 0.85892 0.0
H463 H 0.95774 0.29068 0.88306 0.0
O464 O 0.02958 0.36789 0.8361 0.0
O465 O 0.98049 0.33689 0.78787 0.0
O466 O 0.94814 0.36271 0.78651 0.0
O467 O 0.04917 0.35402 0.80496 0.0
O468 O 0.9952 0.40058 0.80657 0.0
O469 O 0.95633 0.39502 0.7929 0.0
O470 O 0.93919 0.35834 0.72931 0.0
O471 O 0.99688 0.39832 0.74554 0.0
O472 O 0.02015 0.39654 0.78108 0.0
O473 O 0.91942 0.3892 0.74326 0.0
O474 O 0.98065 0.35132 0.74384 0.0
O475 O 0.01919 0.35291 0.76191 0.0
C476 C 0.95693 0.34058 0.78923 0.0
C477 C 0.07165 0.37726 0.83438 0.0
C478 C 0.0973 0.39578 0.86593 0.0
C479 C 0.11267 0.40492 0.8477 0.0
C480 C 0.08729 0.3868 0.81651 0.0
C481 C 0.10761 0.40053 0.82317 0.0
C482 C 0.0767 0.38196 0.85923 0.0
C483 C 0.97299 0.4088 0.80308 0.0
C484 C 0.05072 0.36162 0.82746 0.0
C485 C 0.98142 0.27968 0.85396 0.0
C486 C 0.96836 0.29688 0.86763 0.0
C487 C 0.01661 0.40344 0.75837 0.0
C488 C 0.90664 0.37383 0.70531 0.0
C489 C 0.87467 0.36375 0.67589 0.0
C490 C 0.88422 0.38145 0.65997 0.0
C491 C 0.91554 0.3916 0.68917 0.0
C492 C 0.88589 0.36006 0.69875 0.0
C493 C 0.90441 0.39532 0.66665 0.0
C494 C 0.00448 0.34788 0.74332 0.0
C495 C 0.91858 0.37017 0.72916 0.0
H496 H 0.12865 0.41548 0.85248 0.0
H497 H 0.084 0.38348 0.79737 0.0
H498 H 0.11961 0.40768 0.80925 0.0
H499 H 0.0649 0.37463 0.87327 0.0
H500 H 0.87585 0.3847 0.64237 0.0
H501 H 0.93096 0.40276 0.69402 0.0
H502 H 0.87872 0.34644 0.71118 0.0
H503 H 0.91144 0.40907 0.65432 0.0
Eu504 Eu 0.8663 0.70539 0.99621 0.0
C505 C 0.93426 0.7838 0.0445 0.0
N506 N 0.92464 0.76288 0.05375 0.0
C507 C 0.96302 0.75248 0.0718 0.0
C508 C 0.95912 0.7893 0.0477 0.0
C509 C 0.9383 0.74784 0.06811 0.0
C510 C 0.97357 0.77316 0.06127 0.0
C511 C 0.92836 0.82229 0.0232 0.0
C512 C 0.91899 0.80018 0.03252 0.0
C513 C 0.9533 0.82743 0.02561 0.0
C514 C 0.96862 0.81099 0.03786 0.0
Eu515 Eu 0.88285 0.7565 0.04655 0.0
N516 N 0.89487 0.79484 0.03065 0.0
C517 C 0.91227 0.83888 0.01226 0.0
C518 C 0.87903 0.81147 0.02107 0.0
C519 C 0.88747 0.83351 0.01134 0.0
H520 H 0.92995 0.73279 0.07751 0.0
H521 H 0.87477 0.84654 1.00358 0.0
H522 H 0.81914 0.72953 0.9635 0.0
H523 H 0.87195 0.62069 0.04781 0.0
H524 H 0.85985 0.8082 0.0216 0.0
H525 H 0.91867 0.85621 0.00519 0.0
H526 H 0.88728 0.65932 0.03007 0.0
H527 H 0.97376 0.74036 0.08314 0.0
H528 H 0.96082 0.84429 0.01852 0.0
H529 H 0.98772 0.81544 0.04003 0.0
H530 H 0.77601 0.72073 0.95641 0.0
H531 H 0.99263 0.77699 0.06438 0.0
H532 H 0.82878 0.60912 0.0421 0.0
N533 N 0.82432 0.70007 0.98861 0.0
C534 C 0.81449 0.67944 0.99842 0.0
C535 C 0.78655 0.70914 0.96849 0.0
C536 C 0.79017 0.67292 0.99345 0.0
C537 C 0.81099 0.71442 0.97311 0.0
C538 C 0.77605 0.68835 0.97876 0.0
N539 N 0.85265 0.67035 0.01668 0.0
C540 C 0.86824 0.65477 0.02837 0.0
C541 C 0.81984 0.64176 0.0215 0.0
C542 C 0.82913 0.66399 0.01242 0.0
C543 C 0.83532 0.62632 0.0348 0.0
C544 C 0.85968 0.6328 0.03813 0.0
H545 H 0.75725 0.68398 0.97466 0.0
H546 H 0.76265 0.6451 0.99784 0.0
H547 H 0.78864 0.61787 0.02255 0.0
O548 O 0.89309 0.68046 0.98011 0.0
O549 O 0.85386 0.70229 0.03576 0.0
O550 O 0.84438 0.74141 0.04523 0.0
O551 O 0.85944 0.68775 0.9611 0.0
O552 O 0.90368 0.70495 0.01346 0.0
O553 O 0.89613 0.7173 0.05264 0.0
O554 O 0.87459 0.78654 0.07189 0.0
O555 O 0.90738 0.75344 0.01244 0.0
O556 O 0.88253 0.74004 0.98108 0.0
O557 O 0.87885 0.74962 0.08547 0.0
O558 O 0.84915 0.76488 0.02395 0.0
O559 O 0.85164 0.74394 0.98701 0.0
C560 C 0.83906 0.7181 0.04583 0.0
C561 C 0.89227 0.67169 0.93778 0.0
C562 C 0.90985 0.64333 0.90787 0.0
C563 C 0.91478 0.66358 0.89271 0.0
C564 C 0.8977 0.69145 0.92251 0.0
C565 C 0.90888 0.68735 0.90007 0.0
C566 C 0.89847 0.64772 0.93052 0.0
C567 C 0.90875 0.70434 0.03681 0.0
C568 C 0.87976 0.67544 0.96117 0.0
C569 C 0.78096 0.65075 1.00238 0.0
C570 C 0.79573 0.63523 0.01636 0.0
C571 C 0.90099 0.75295 0.98922 0.0
C572 C 0.88537 0.78192 0.11386 0.0
C573 C 0.88182 0.80665 0.15118 0.0
C574 C 0.904 0.79637 0.15922 0.0
C575 C 0.90756 0.7725 0.12237 0.0
C576 C 0.87256 0.79913 0.12827 0.0
C577 C 0.91677 0.77972 0.14485 0.0
C578 C 0.84353 0.76225 1.0007 0.0
C579 C 0.87452 0.77245 0.09104 0.0
H580 H 0.92292 0.66111 0.87493 0.0
H581 H 0.89312 0.70997 0.92788 0.0
H582 H 0.91285 0.70265 0.88819 0.0
H583 H 0.89455 0.63259 0.94268 0.0
H584 H 0.91143 0.80077 0.17693 0.0
H585 H 0.91754 0.75906 0.11198 0.0
H586 H 0.85544 0.80647 0.12164 0.0
H587 H 0.93373 0.77202 0.15141 0.0
Eu588 Eu 0.49642 0.6419 0.30096 0.0
C589 C 0.53947 0.57101 0.21731 0.0
N590 N 0.54998 0.57976 0.23782 0.0
C591 C 0.56989 0.5414 0.24451 0.0
C592 C 0.54249 0.54641 0.21036 0.0
C593 C 0.56576 0.56575 0.25093 0.0
C594 C 0.55783 0.53152 0.22436 0.0
C595 C 0.51456 0.5784 0.18169 0.0
C596 C 0.52641 0.587 0.20279 0.0
C597 C 0.51648 0.55362 0.17525 0.0
C598 C 0.53069 0.5377 0.18941 0.0
Eu599 Eu 0.54235 0.6208 0.24766 0.0
N600 N 0.52552 0.611 0.20917 0.0
C601 C 0.50081 0.59493 0.16795 0.0
C602 C 0.5142 0.62748 0.19441 0.0
C603 C 0.50044 0.61953 0.17456 0.0
H604 H 0.57571 0.57359 0.26588 0.0
H605 H 0.4898 0.63246 0.16423 0.0
H606 H 0.46772 0.6907 0.27409 0.0
H607 H 0.55207 0.63893 0.38277 0.0
H608 H 0.51577 0.64673 0.1977 0.0
H609 H 0.49086 0.58898 0.152 0.0
H610 H 0.52923 0.62179 0.34773 0.0
H611 H 0.58259 0.53048 0.25495 0.0
H612 H 0.50739 0.54668 0.15917 0.0
H613 H 0.53256 0.51876 0.18393 0.0
H614 H 0.46908 0.73544 0.27634 0.0
H615 H 0.56102 0.51269 0.21924 0.0
H616 H 0.55466 0.68382 0.38811 0.0
N617 N 0.4944 0.68522 0.3019 0.0
C618 C 0.50741 0.69599 0.3201 0.0
C619 C 0.48023 0.72457 0.28852 0.0
C620 C 0.50791 0.72167 0.3226 0.0
C621 C 0.47997 0.69906 0.28696 0.0
C622 C 0.49452 0.73595 0.30619 0.0
N623 N 0.5199 0.65668 0.33344 0.0
C624 C 0.5305 0.64139 0.35004 0.0
C625 C 0.53274 0.69188 0.35626 0.0
C626 C 0.5199 0.68131 0.33669 0.0
C627 C 0.54459 0.67639 0.37285 0.0
C628 C 0.54327 0.65103 0.36984 0.0
H629 H 0.49451 0.75573 0.30748 0.0
H630 H 0.5221 0.75198 0.34365 0.0
H631 H 0.54365 0.7259 0.3732 0.0
O632 O 0.47852 0.61848 0.32809 0.0
O633 O 0.53726 0.6497 0.30081 0.0
O634 O 0.54249 0.65958 0.26139 0.0
O635 O 0.46378 0.65418 0.32012 0.0
O636 O 0.5105 0.60299 0.30403 0.0
O637 O 0.54826 0.60548 0.286 0.0
O638 O 0.57165 0.6282 0.22027 0.0
O639 O 0.50798 0.59686 0.25283 0.0
O640 O 0.47908 0.62339 0.26879 0.0
O641 O 0.57966 0.6225 0.25907 0.0
O642 O 0.52099 0.6559 0.24035 0.0
O643 O 0.48462 0.65317 0.26196 0.0
C644 C 0.54682 0.66405 0.28429 0.0
C645 C 0.43663 0.62495 0.33718 0.0
C646 C 0.40621 0.6078 0.36531 0.0
C647 C 0.38855 0.61076 0.34684 0.0
C648 C 0.41868 0.62729 0.3192 0.0
C649 C 0.39483 0.62012 0.32402 0.0
C650 C 0.43043 0.61497 0.3601 0.0
C651 C 0.5326 0.59443 0.30044 0.0
C652 C 0.46149 0.63428 0.33298 0.0
C653 C 0.52136 0.73229 0.34161 0.0
C654 C 0.53359 0.71744 0.35849 0.0
C655 C 0.48506 0.6031 0.25737 0.0
C656 C 0.61489 0.63094 0.23426 0.0
C657 C 0.65129 0.64152 0.21054 0.0
C658 C 0.66549 0.63834 0.23162 0.0
C659 C 0.62988 0.62787 0.25489 0.0
C660 C 0.62574 0.63803 0.2119 0.0
C661 C 0.65485 0.63162 0.25355 0.0
C662 C 0.49757 0.66074 0.24296 0.0
C663 C 0.5882 0.62746 0.23745 0.0
H664 H 0.36962 0.60639 0.35003 0.0
H665 H 0.42299 0.63512 0.30159 0.0
H666 H 0.38098 0.62227 0.31013 0.0
H667 H 0.44452 0.61298 0.37379 0.0
H668 H 0.68501 0.64119 0.23113 0.0
H669 H 0.62233 0.62266 0.27236 0.0
H670 H 0.61457 0.6406 0.1958 0.0
H671 H 0.66604 0.62932 0.26964 0.0
Eu672 Eu 0.25329 0.45478 0.11401 0.0
C673 C 0.21672 0.53579 0.18821 0.0
N674 N 0.20451 0.51672 0.17813 0.0
C675 C 0.18473 0.5086 0.21606 0.0
C676 C 0.2144 0.54109 0.21322 0.0
C677 C 0.18792 0.50385 0.19132 0.0
C678 C 0.19836 0.52701 0.22721 0.0
C679 C 0.24354 0.57069 0.18322 0.0
C680 C 0.23077 0.5507 0.17328 0.0
C681 C 0.24213 0.57534 0.20833 0.0
C682 C 0.22748 0.56067 0.22327 0.0
Eu683 Eu 0.21015 0.51083 0.13616 0.0
N684 N 0.23171 0.54583 0.14899 0.0
C685 C 0.25709 0.58559 0.16755 0.0
C686 C 0.24375 0.56107 0.13352 0.0
C687 C 0.25696 0.58091 0.14255 0.0
H688 H 0.17628 0.49072 0.18255 0.0
H689 H 0.26677 0.59277 0.13018 0.0
H690 H 0.28618 0.47851 0.06665 0.0
H691 H 0.1947 0.37473 0.11467 0.0
H692 H 0.24272 0.55836 0.11422 0.0
H693 H 0.26722 0.60108 0.17449 0.0
H694 H 0.21927 0.40823 0.13265 0.0
H695 H 0.17133 0.49841 0.22625 0.0
H696 H 0.25191 0.59055 0.21631 0.0
H697 H 0.22609 0.56487 0.2425 0.0
H698 H 0.28571 0.47695 0.02199 0.0
H699 H 0.19575 0.53083 0.24638 0.0
H700 H 0.19158 0.37083 0.06984 0.0
N701 N 0.25686 0.45325 0.07094 0.0
C702 C 0.24269 0.43633 0.05963 0.0
C703 C 0.27325 0.46568 0.03234 0.0
C704 C 0.24258 0.43416 0.03402 0.0
C705 C 0.27304 0.46689 0.05777 0.0
C706 C 0.25765 0.44955 0.02038 0.0
N707 N 0.22916 0.42302 0.09829 0.0
C708 C 0.21791 0.40643 0.11307 0.0
C709 C 0.21511 0.40176 0.06267 0.0
C710 C 0.22896 0.42038 0.07371 0.0
C711 C 0.20243 0.38538 0.07764 0.0
C712 C 0.20409 0.38755 0.10296 0.0
H713 H 0.25802 0.4485 1.00067 0.0
H714 H 0.22747 0.41458 1.00321 0.0
H715 H 0.2035 0.38616 0.02831 0.0
O716 O 0.26822 0.42714 0.13872 0.0
O717 O 0.21234 0.4556 0.10748 0.0
O718 O 0.20637 0.49535 0.09815 0.0
O719 O 0.28616 0.4341 0.10458 0.0
O720 O 0.23906 0.45522 0.15278 0.0
O721 O 0.20093 0.47245 0.14996 0.0
O722 O 0.1896 0.54397 0.12731 0.0
O723 O 0.24622 0.50477 0.15727 0.0
O724 O 0.2732 0.48682 0.13012 0.0
O725 O 0.17027 0.51071 0.13637 0.0
O726 O 0.22968 0.51636 0.1002 0.0
O727 O 0.26519 0.49312 0.10088 0.0
C728 C 0.20222 0.4723 0.09373 0.0
C729 C 0.3103 0.41893 0.13715 0.0
C730 C 0.34069 0.39257 0.15692 0.0
C731 C 0.35513 0.41347 0.16099 0.0
C732 C 0.32489 0.43938 0.14174 0.0
C733 C 0.34721 0.43662 0.15357 0.0
C734 C 0.31815 0.39557 0.14482 0.0
C735 C 0.21636 0.45696 0.16015 0.0
C736 C 0.28661 0.42171 0.12485 0.0
C737 C 0.22796 0.41632 0.02287 0.0
C738 C 0.21436 0.40008 0.03716 0.0
C739 C 0.2686 0.50015 0.14953 0.0
C740 C 0.14911 0.54839 0.14161 0.0
C741 C 0.11123 0.57185 0.13793 0.0
C742 C 0.11156 0.57556 0.16327 0.0
C743 C 0.14926 0.55275 0.16675 0.0
C744 C 0.13022 0.55824 0.12717 0.0
C745 C 0.1305 0.56617 0.1775 0.0
C746 C 0.25247 0.51254 0.09379 0.0
C747 C 0.16839 0.53369 0.13004 0.0
H748 H 0.37278 0.41197 0.16966 0.0
H749 H 0.31902 0.45744 0.13611 0.0
H750 H 0.35848 0.45248 0.15694 0.0
H751 H 0.30652 0.3799 0.14167 0.0
H752 H 0.09735 0.58611 0.17205 0.0
H753 H 0.16381 0.54588 0.17807 0.0
H754 H 0.13014 0.55504 0.10767 0.0
H755 H 0.13069 0.5694 0.19694 0.0
Eu756 Eu 0.76086 0.04892 0.89388 0.0
C757 C 0.70531 0.97827 0.81702 0.0
N758 N 0.69595 0.99708 0.83025 0.0
C759 C 0.66892 0.0075 0.79755 0.0
C760 C 0.69693 0.97361 0.79321 0.0
C761 C 0.67776 0.01141 0.82108 0.0
C762 C 0.67842 0.98839 0.78364 0.0
C763 C 0.73236 0.94313 0.81442 0.0
C764 C 0.72268 0.96303 0.82761 0.0
C765 C 0.7245 0.93887 0.79047 0.0
C766 C 0.70678 0.95401 0.77992 0.0
Eu767 Eu 0.71019 1.00039 0.87054 0.0
N768 N 0.73017 0.96767 0.85079 0.0
C769 C 0.7495 0.92794 0.8258 0.0
C770 C 0.74618 0.9524 0.86224 0.0
C771 C 0.75629 0.93252 0.84986 0.0
H772 H 0.66924 0.02505 0.83242 0.0
H773 H 0.76921 0.92065 0.85889 0.0
H774 H 0.78773 0.0255 0.94355 0.0
H775 H 0.70759 0.13284 0.88237 0.0
H776 H 0.75148 0.95583 0.88071 0.0
H777 H 0.75737 0.9125 0.81627 0.0
H778 H 0.72636 0.09429 0.86935 0.0
H779 H 0.65434 0.01878 0.79041 0.0
H780 H 0.7318 0.92373 0.78004 0.0
H781 H 0.70063 0.95027 0.76154 0.0
H782 H 0.79376 0.0366 0.9867 0.0
H783 H 0.67084 0.98472 0.76584 0.0
H784 H 0.71284 0.14717 0.92471 0.0
N785 N 0.76693 0.0573 0.93534 0.0
C786 C 0.75748 0.07872 0.94355 0.0
C787 C 0.78347 0.04857 0.97478 0.0
C788 C 0.7609 0.08599 0.96794 0.0
C789 C 0.77982 0.04221 0.95041 0.0
C790 C 0.77402 0.07058 0.98359 0.0
N791 N 0.74017 0.08529 0.90441 0.0
C792 C 0.72779 0.09949 0.88812 0.0
C793 C 0.73397 0.11555 0.93573 0.0
C794 C 0.74382 0.09315 0.92766 0.0
C795 C 0.72057 0.12978 0.91927 0.0
C796 C 0.71749 0.12171 0.89537 0.0
H797 H 0.77699 0.07553 1.00246 0.0
H798 H 0.75392 0.11441 0.99451 0.0
H799 H 0.7314 0.1407 0.96605 0.0
O800 O 0.78271 0.07386 0.8705 0.0
O801 O 0.72739 0.04434 0.91722 0.0
O802 O 0.69605 0.034 0.89114 0.0
O803 O 0.79844 0.05665 0.90294 0.0
O804 O 0.74412 0.05371 0.85599 0.0
O805 O 0.70463 0.03967 0.85863 0.0
O806 O 0.69576 0.96948 0.89115 0.0
O807 O 0.74637 1.00227 0.84857 0.0
O808 O 0.77235 0.01326 0.87872 0.0
O809 O 0.67189 0.9895 0.86728 0.0
O810 O 0.72698 0.99518 0.90824 0.0
O811 O 0.76639 0.00942 0.90713 0.0
C812 C 0.70411 0.04275 0.91206 0.0
C813 C 0.82594 0.08211 0.87992 0.0
C814 C 0.85235 0.1144 0.86355 0.0
C815 C 0.87251 0.10211 0.87383 0.0
C816 C 0.84656 0.0702 0.88937 0.0
C817 C 0.86961 0.08015 0.88633 0.0
C818 C 0.82887 0.10417 0.86675 0.0
C819 C 0.72152 0.05285 0.84787 0.0
C820 C 0.80178 0.07112 0.88443 0.0
C821 C 0.75121 0.10835 0.97592 0.0
C822 C 0.73809 0.1232 0.95978 0.0
C823 C 0.76873 0.00627 0.85647 0.0
C824 C 0.65457 0.97229 0.90261 0.0
C825 C 0.61852 0.95445 0.92184 0.0
C826 C 0.61966 0.97271 0.93985 0.0
C827 C 0.6556 0.98981 0.92116 0.0
C828 C 0.6359 0.95459 0.90287 0.0
C829 C 0.63806 0.99023 0.93947 0.0
C830 C 0.74999 0.99325 0.91453 0.0
C831 C 0.67344 0.97225 0.88354 0.0
H832 H 0.89069 0.1096 0.87262 0.0
H833 H 0.84487 0.05313 0.89928 0.0
H834 H 0.88534 0.07092 0.89393 0.0
H835 H 0.81302 0.11323 0.85915 0.0
H836 H 0.60631 0.97338 0.95436 0.0
H837 H 0.67021 1.00296 0.92156 0.0
H838 H 0.63532 0.94068 0.88883 0.0
H839 H 0.6389 0.00399 0.95361 0.0
Eu840 Eu 0.74842 0.95575 0.39133 0.0
C841 C 0.79666 0.03161 0.31587 0.0
N842 N 0.80762 0.01368 0.32916 0.0
C843 C 0.83411 0.00437 0.29579 0.0
C844 C 0.8036 0.03606 0.29156 0.0
C845 C 0.82652 1.00053 0.31975 0.0
C846 C 0.82252 0.02214 0.28158 0.0
C847 C 0.76744 0.06497 0.31354 0.0
C848 C 0.77907 0.0462 0.32685 0.0
C849 C 0.77377 0.0689 0.28908 0.0
C850 C 0.7919 0.05458 0.27816 0.0
Eu851 Eu 0.79413 0.00932 0.36967 0.0
N852 N 0.77315 0.0419 0.35054 0.0
C853 C 0.74979 0.07924 0.32523 0.0
C854 C 0.75724 0.05687 0.36248 0.0
C855 C 0.7447 0.07518 0.34981 0.0
H856 H 0.83634 0.98773 0.33109 0.0
H857 H 0.73131 0.08633 0.35907 0.0
H858 H 0.71554 0.97254 0.43963 0.0
H859 H 0.82102 0.88729 0.38257 0.0
H860 H 0.75382 0.05434 0.38158 0.0
H861 H 0.74023 0.09364 0.31554 0.0
H862 H 0.79324 0.91923 0.36806 0.0
H863 H 0.84919 0.99394 0.28849 0.0
H864 H 0.76497 0.08317 0.27853 0.0
H865 H 0.7969 0.05811 0.25939 0.0
H866 H 0.70987 0.95927 0.48236 0.0
H867 H 0.82871 0.0255 0.26317 0.0
H868 H 0.8189 0.87323 0.42532 0.0
N869 N 0.74346 0.94654 0.43261 0.0
C870 C 0.75746 0.92793 0.44129 0.0
C871 C 0.72335 0.95039 0.47103 0.0
C872 C 0.75475 0.91972 0.46547 0.0
C873 C 0.72672 0.95798 0.44696 0.0
C874 C 0.73725 0.93104 0.48025 0.0
N875 N 0.77705 0.92545 0.40264 0.0
C876 C 0.79285 0.9144 0.38695 0.0
C877 C 0.78986 0.89827 0.43488 0.0
C878 C 0.77481 0.91725 0.42601 0.0
C879 C 0.80698 0.88781 0.41916 0.0
C880 C 0.80833 0.89577 0.39505 0.0
H881 H 0.73432 0.92502 0.49882 0.0
H882 H 0.76745 0.89372 0.49251 0.0
H883 H 0.79847 0.87542 0.466 0.0
O884 O 0.73522 0.92281 0.37306 0.0
O885 O 0.77786 0.96858 0.41729 0.0
O886 O 0.80835 0.97595 0.3902 0.0
O887 O 0.71205 0.94131 0.39887 0.0
O888 O 0.764 0.95507 0.3527 0.0
O889 O 0.80238 0.97083 0.35691 0.0
O890 O 0.80903 0.03565 0.39582 0.0
O891 O 0.75715 0.00781 0.34933 0.0
O892 O 0.72881 0.98587 0.37211 0.0
O893 O 0.83011 0.02574 0.36444 0.0
O894 O 0.77267 0.01515 0.40466 0.0
O895 O 0.73599 0.99391 0.40371 0.0
C896 C 0.801 0.97125 0.41247 0.0
C897 C 0.69288 0.91956 0.36684 0.0
C898 C 0.66487 0.89156 0.34605 0.0
C899 C 0.65322 0.91201 0.33557 0.0
C900 C 0.68114 0.93951 0.35583 0.0
C901 C 0.66133 0.93569 0.34041 0.0
C902 C 0.68475 0.8956 0.36191 0.0
C903 C 0.78637 0.95795 0.34461 0.0
C904 C 0.7138 0.92352 0.3832 0.0
C905 C 0.76949 0.90056 0.4741 0.0
C906 C 0.78714 0.89006 0.45896 0.0
C907 C 0.73456 1.0013 0.35471 0.0
C908 C 0.85195 0.03614 0.39984 0.0
C909 C 0.88854 0.05417 0.41784 0.0
C910 C 0.8931 0.03192 0.42991 0.0
C911 C 0.85747 0.01397 0.41141 0.0
C912 C 0.8678 0.05623 0.40272 0.0
C913 C 0.87774 0.01194 0.42657 0.0
C914 C 0.74934 0.01314 0.40993 0.0
C915 C 0.82983 0.03805 0.38464 0.0
H916 H 0.63754 0.90978 0.32381 0.0
H917 H 0.68721 0.95803 0.35923 0.0
H918 H 0.65211 0.95117 0.33226 0.0
H919 H 0.69414 0.88019 0.37013 0.0
H920 H 0.90894 0.02982 0.44153 0.0
H921 H 0.8462 0.99818 0.40848 0.0
H922 H 0.86394 0.07334 0.39347 0.0
H923 H 0.88165 0.99475 0.43561 0.0
Eu924 Eu 0.29694 0.49239 0.63983 0.0
C925 C 0.23534 0.55424 0.56177 0.0
N926 N 0.2533 0.5613 0.57728 0.0
C927 C 0.27084 0.58628 0.54605 0.0
C928 C 0.235 0.56234 0.53737 0.0
C929 C 0.27034 0.57793 0.57008 0.0
C930 C 0.25343 0.57809 0.52945 0.0
C931 C 0.19589 0.53516 0.556 0.0
C932 C 0.21606 0.54073 0.57088 0.0
C933 C 0.19611 0.54206 0.53136 0.0
C934 C 0.21565 0.55559 0.52205 0.0
Eu935 Eu 0.25026 0.5472 0.61788 0.0
N936 N 0.21609 0.53482 0.59492 0.0
C937 C 0.17559 0.52391 0.56662 0.0
C938 C 0.19578 0.52532 0.60568 0.0
C939 C 0.17538 0.51936 0.59167 0.0
H940 H 0.28342 0.58503 0.58298 0.0
H941 H 0.15955 0.51128 0.60019 0.0
H942 H 0.27314 0.46621 0.68915 0.0
H943 H 0.37902 0.54818 0.62914 0.0
H944 H 0.19558 0.5221 0.62499 0.0
H945 H 0.15971 0.51941 0.5558 0.0
H946 H 0.34351 0.52507 0.61503 0.0
H947 H 0.2843 0.59945 0.54054 0.0
H948 H 0.18087 0.53777 0.51957 0.0
H949 H 0.21517 0.56155 0.50322 0.0
H950 H 0.28174 0.46383 0.73343 0.0
H951 H 0.25373 0.58489 0.51091 0.0
H952 H 0.38918 0.54915 0.67291 0.0
N953 N 0.30326 0.48936 0.68186 0.0
C954 C 0.32305 0.5013 0.69071 0.0
C955 C 0.29345 0.47444 0.72162 0.0
C956 C 0.32863 0.50044 0.71577 0.0
C957 C 0.28858 0.47585 0.69666 0.0
C958 C 0.31353 0.48682 0.73123 0.0
N959 N 0.33139 0.5158 0.65061 0.0
C960 C 0.34651 0.5268 0.63427 0.0
C961 C 0.35801 0.52747 0.68359 0.0
C962 C 0.33735 0.51502 0.67474 0.0
C963 C 0.37283 0.53987 0.66697 0.0
C964 C 0.36716 0.53938 0.64221 0.0
H965 H 0.3172 0.48576 0.7506 0.0
H966 H 0.35338 0.51298 0.74383 0.0
H967 H 0.37928 0.5363 0.71566 0.0
O968 O 0.32944 0.47143 0.62929 0.0
O969 O 0.28374 0.5215 0.66616 0.0
O970 O 0.28329 0.55502 0.64165 0.0
O971 O 0.29845 0.45281 0.64612 0.0
O972 O 0.30335 0.50956 0.60256 0.0
O973 O 0.29056 0.54863 0.60943 0.0
O974 O 0.22516 0.56554 0.64313 0.0
O975 O 0.24245 0.50928 0.60088 0.0
O976 O 0.27558 0.48321 0.6066 0.0
O977 O 0.24274 0.58636 0.61504 0.0
O978 O 0.23913 0.52392 0.65026 0.0
O979 O 0.2565 0.48492 0.64824 0.0
C980 C 0.28558 0.54523 0.66337 0.0
C981 C 0.33305 0.42708 0.63422 0.0
C982 C 0.36701 0.40218 0.6189 0.0
C983 C 0.35433 0.38104 0.62598 0.0
C984 C 0.32101 0.40556 0.64123 0.0
C985 C 0.33163 0.38277 0.63716 0.0
C986 C 0.35636 0.42533 0.62327 0.0
C987 C 0.30097 0.53234 0.59541 0.0
C988 C 0.31998 0.45076 0.63624 0.0
C989 C 0.34886 0.51334 0.72461 0.0
C990 C 0.36355 0.52671 0.70857 0.0
C991 C 0.25474 0.48889 0.59643 0.0
C992 C 0.20362 0.59933 0.62659 0.0
C993 C 0.17328 0.63095 0.63507 0.0
C994 C 0.15981 0.62302 0.61477 0.0
C995 C 0.18999 0.59215 0.60621 0.0
C996 C 0.19537 0.61907 0.64089 0.0
C997 C 0.16819 0.60382 0.60043 0.0
C998 C 0.23824 0.50002 0.6537 0.0
C999 C 0.2267 0.58673 0.63238 0.0
H1000 H 0.36214 0.36307 0.62302 0.0
H1001 H 0.3031 0.40628 0.64943 0.0
H1002 H 0.32207 0.36631 0.64249 0.0
H1003 H 0.3658 0.44173 0.61747 0.0
H1004 H 0.14293 0.63202 0.60974 0.0
H1005 H 0.19628 0.57776 0.59452 0.0
H1006 H 0.20593 0.625 0.65649 0.0
H1007 H 0.15786 0.59806 0.58465 0.0
H1008 H 0.15161 0.28358 0.5516 0.0
H1009 H 0.16685 0.32356 0.56498 0.0
H1010 H 0.20893 0.32966 0.49887 0.0
H1011 H 0.19298 0.29039 0.48512 0.0
H1012 H 0.20899 0.34282 0.57504 0.0
H1013 H 0.21442 0.38746 0.4807 0.0
H1014 H 0.1959 0.38396 0.4399 0.0
H1015 H 0.1301 0.35632 0.47169 0.0
H1016 H 0.14827 0.35979 0.51283 0.0
H1017 H 0.27847 0.44905 0.57837 0.0
H1018 H 0.26093 0.41213 0.56155 0.0
H1019 H 0.18974 0.44541 0.56238 0.0
H1020 H 0.20724 0.48269 0.58004 0.0
H1021 H 0.20081 0.41431 0.51966 0.0
H1022 H 0.20052 0.41042 0.60778 0.0
H1023 H 0.21961 0.41457 0.64818 0.0
H1024 H 0.27428 0.36198 0.62841 0.0
H1025 H 0.25532 0.35733 0.58788 0.0
C1026 C 0.16454 0.29326 0.54024 0.0
C1027 C 0.1712 0.28388 0.51739 0.0
C1028 C 0.17308 0.3162 0.54776 0.0
C1029 C 0.18857 0.33002 0.53265 0.0
C1030 C 0.19641 0.31983 0.51053 0.0
C1031 C 0.18755 0.2972 0.50284 0.0
C1032 C 0.19637 0.3551 0.53991 0.0
C1033 C 0.20703 0.35838 0.5629 0.0
C1034 C 0.19395 0.37564 0.52419 0.0
C1035 C 0.18271 0.37371 0.49974 0.0
C1036 C 0.19597 0.3807 0.47899 0.0
C1037 C 0.18557 0.37867 0.45584 0.0
C1038 C 0.16188 0.3698 0.45325 0.0
C1039 C 0.1485 0.363 0.4738 0.0
C1040 C 0.15883 0.36497 0.49701 0.0
C1041 C 0.25908 0.44892 0.57476 0.0
C1042 C 0.24418 0.469 0.58113 0.0
C1043 C 0.24911 0.42764 0.56505 0.0
C1044 C 0.224 0.42583 0.56115 0.0
C1045 C 0.2092 0.44639 0.56546 0.0
C1046 C 0.21922 0.46779 0.57549 0.0
C1047 C 0.21336 0.40175 0.5546 0.0
C1048 C 0.20243 0.39868 0.53177 0.0
C1049 C 0.21552 0.38137 0.57038 0.0
C1050 C 0.22662 0.38366 0.59483 0.0
C1051 C 0.21666 0.39981 0.61205 0.0
C1052 C 0.22746 0.40227 0.63495 0.0
C1053 C 0.24827 0.38872 0.64082 0.0
C1054 C 0.25819 0.37249 0.62384 0.0
C1055 C 0.24736 0.36985 0.60094 0.0
H1056 H 0.25665 0.39072 0.65855 0.0
H1057 H 0.15391 0.3683 0.4353 0.0
H1058 H 0.81533 0.01472 0.86947 0.0
H1059 H 0.85213 0.99807 0.85235 0.0
H1060 H 0.81045 0.96202 0.79632 0.0
H1061 H 0.77253 0.97844 0.81408 0.0
H1062 H 0.84572 0.93187 0.81765 0.0
H1063 H 0.84392 0.01353 0.7832 0.0
H1064 H 0.83896 0.05826 0.78671 0.0
H1065 H 0.89976 0.06141 0.83585 0.0
H1066 H 0.90495 0.01668 0.8328 0.0
H1067 H 0.95483 0.93167 0.73657 0.0
H1068 H 0.91719 0.94783 0.75344 0.0
H1069 H 0.94125 0.92888 0.8258 0.0
H1070 H 0.97908 0.91169 0.80894 0.0
H1071 H 0.91455 0.98621 0.79533 0.0
H1072 H 0.90609 0.9064 0.84106 0.0
H1073 H 0.90838 0.8614 0.84347 0.0
H1074 H 0.86667 0.85561 0.77748 0.0
H1075 H 0.86461 0.90068 0.77453 0.0
C1076 C 0.81366 1.00329 0.85345 0.0
C1077 C 0.79073 0.99765 0.84335 0.0
C1078 C 0.83494 0.9939 0.84358 0.0
C1079 C 0.83415 0.97908 0.82289 0.0
C1080 C 0.81142 0.97354 0.81232 0.0
C1081 C 0.7898 0.98295 0.8224 0.0
C1082 C 0.8573 0.96921 0.813 0.0
C1083 C 0.86062 0.9438 0.81243 0.0
C1084 C 0.87709 0.98472 0.80702 0.0
C1085 C 0.87479 0.01176 0.80778 0.0
C1086 C 0.85625 0.02378 0.79472 0.0
C1087 C 0.85338 0.04913 0.79666 0.0
C1088 C 0.86902 0.06267 0.81151 0.0
C1089 C 0.88768 0.05091 0.82432 0.0
C1090 C 0.89065 0.02557 0.82243 0.0
C1091 C 0.9523 0.93087 0.75613 0.0
C1092 C 0.97007 0.92026 0.7714 0.0
C1093 C 0.93066 0.9401 0.7657 0.0
C1094 C 0.92622 0.93908 0.79076 0.0
C1095 C 0.94413 0.92929 0.8063 0.0
C1096 C 0.96587 0.91982 0.79668 0.0
C1097 C 0.90294 0.94895 0.80023 0.0
C1098 C 0.89958 0.97437 0.80048 0.0
C1099 C 0.88328 0.93356 0.80644 0.0
C1100 C 0.88581 0.90673 0.80722 0.0
C1101 C 0.89794 0.89548 0.82678 0.0
C1102 C 0.89911 0.87 0.82828 0.0
C1103 C 0.888 0.85563 0.81042 0.0
C1104 C 0.87547 0.86675 0.79117 0.0
C1105 C 0.87442 0.89225 0.78949 0.0
H1106 H 0.88891 0.83588 0.81161 0.0
H1107 H 0.86668 0.08227 0.8131 0.0
H1108 H 0.31442 0.73227 0.03063 0.0
H1109 H 0.29576 0.69455 0.04653 0.0
H1110 H 0.3427 0.65165 1.00027 0.0
H1111 H 0.36168 0.68861 0.9854 0.0
H1112 H 0.29616 0.63506 0.99928 0.0
H1113 H 0.35735 0.65812 0.05772 0.0
H1114 H 0.37659 0.68662 0.08669 0.0
H1115 H 0.31145 0.68729 0.12992 0.0
H1116 H 0.29168 0.65908 0.10095 0.0
H1117 H 0.30027 0.52736 0.09483 0.0
H1118 H 0.31677 0.56549 0.07772 0.0
H1119 H 0.24666 0.5818 0.04597 0.0
H1120 H 0.23054 0.54367 0.06215 0.0
H1121 H 0.30464 0.61224 0.08642 0.0
H1122 H 0.2521 0.61478 0.99516 0.0
H1123 H 0.23536 0.58603 0.96491 0.0
H1124 H 0.28869 0.53225 0.98555 0.0
H1125 H 0.306 0.56084 0.01562 0.0
C1126 C 0.32084 0.71484 0.0241 0.0
C1127 C 0.34008 0.7136 0.00728 0.0
C1128 C 0.31009 0.69327 0.03305 0.0
C1129 C 0.31803 0.67023 0.02473 0.0
C1130 C 0.33629 0.66914 0.00704 0.0
C1131 C 0.34721 0.69044 0.99858 0.0
C1132 C 0.3082 0.64692 0.03464 0.0
C1133 C 0.29776 0.63018 0.01839 0.0
C1134 C 0.31094 0.64024 0.0594 0.0
C1135 C 0.32297 0.6567 0.07709 0.0
C1136 C 0.34709 0.66446 0.07334 0.0
C1137 C 0.3581 0.68052 0.08976 0.0
C1138 C 0.34525 0.68876 0.11012 0.0
C1139 C 0.32138 0.68089 0.11413 0.0
C1140 C 0.31026 0.66486 0.09773 0.0
C1141 C 0.28869 0.53872 0.08352 0.0
C1142 C 0.2642 0.53239 0.07963 0.0
C1143 C 0.29798 0.56071 0.0741 0.0
C1144 C 0.28299 0.57658 0.06048 0.0
C1145 C 0.25875 0.56981 0.05608 0.0
C1146 C 0.24956 0.54791 0.0653 0.0
C1147 C 0.29237 0.60037 0.05104 0.0
C1148 C 0.30277 0.61718 0.06736 0.0
C1149 C 0.29002 0.607 0.02618 0.0
C1150 C 0.28018 0.58987 0.00776 0.0
C1151 C 0.26033 0.59687 0.99312 0.0
C1152 C 0.25074 0.5806 0.97603 0.0
C1153 C 0.26091 0.5573 0.97336 0.0
C1154 C 0.28078 0.55027 0.98769 0.0
C1155 C 0.29049 0.5665 0.00476 0.0
H1156 H 0.25341 0.54471 0.96015 0.0
H1157 H 0.35378 0.70124 0.1228 0.0
H1158 H 0.52282 0.08715 0.30284 0.0
H1159 H 0.56167 0.07161 0.31851 0.0
H1160 H 0.59032 0.06964 0.24533 0.0
H1161 H 0.5515 0.08354 0.2296 0.0
H1162 H 0.60711 0.03345 0.26572 0.0
H1163 H 0.60318 0.11684 0.29004 0.0
H1164 H 0.58872 0.15476 0.30958 0.0
H1165 H 0.59202 0.11996 0.37971 0.0
H1166 H 0.60613 0.08169 0.36054 0.0
H1167 H 0.73192 0.02292 0.30904 0.0
H1168 H 0.69556 0.04152 0.29002 0.0
H1169 H 0.65385 0.02568 0.35464 0.0
H1170 H 0.68933 0.00717 0.37336 0.0
H1171 H 0.64649 0.0734 0.33651 0.0
H1172 H 0.6496 0.98894 0.30802 0.0
H1173 H 0.66941 0.95454 0.28663 0.0
H1174 H 0.67178 0.99698 0.22077 0.0
H1175 H 0.65231 0.0317 0.24192 0.0
C1176 C 0.5373 0.08308 0.29009 0.0
C1177 C 0.53399 0.08697 0.26497 0.0
C1178 C 0.55967 0.07447 0.29909 0.0
C1179 C 0.57935 0.07001 0.28321 0.0
C1180 C 0.57565 0.07297 0.25809 0.0
C1181 C 0.55326 0.08102 0.24909 0.0
C1182 C 0.60377 0.06218 0.29249 0.0
C1183 C 0.61575 0.04256 0.28098 0.0
C1184 C 0.6154 0.07383 0.31242 0.0
C1185 C 0.60557 0.09636 0.32383 0.0
C1186 C 0.60054 0.11718 0.30959 0.0
C1187 C 0.59252 0.13877 0.32062 0.0
C1188 C 0.58966 0.13982 0.34589 0.0
C1189 C 0.59439 0.11916 0.36015 0.0
C1190 C 0.60238 0.09751 0.34921 0.0
C1191 C 0.71504 0.02369 0.31919 0.0
C1192 C 0.71361 0.01362 0.34273 0.0
C1193 C 0.69429 0.0342 0.30832 0.0
C1194 C 0.672 0.03497 0.32098 0.0
C1195 C 0.67083 0.02542 0.34459 0.0
C1196 C 0.69124 0.01474 0.35523 0.0
C1197 C 0.64937 0.04484 0.30982 0.0
C1198 C 0.63774 0.06468 0.32107 0.0
C1199 C 0.63838 0.03388 0.2893 0.0
C1200 C 0.64977 0.01293 0.27659 0.0
C1201 C 0.65452 0.99094 0.28903 0.0
C1202 C 0.66566 0.9714 0.27696 0.0
C1203 C 0.67191 0.9736 0.25238 0.0
C1204 C 0.66697 0.99532 0.23982 0.0
C1205 C 0.65588 0.01491 0.25183 0.0
H1206 H 0.68053 0.95846 0.24306 0.0
H1207 H 0.58373 0.15664 0.35443 0.0
H1208 H 0.64295 0.21772 0.45725 0.0
H1209 H 0.65755 0.17702 0.44483 0.0
H1210 H 0.70682 0.17576 0.50596 0.0
H1211 H 0.69137 0.21567 0.51921 0.0
H1212 H 0.72269 0.16479 0.44856 0.0
H1213 H 0.67916 0.14201 0.52025 0.0
H1214 H 0.6456 0.13751 0.5496 0.0
H1215 H 0.60191 0.10273 0.49478 0.0
H1216 H 0.63502 0.10784 0.46483 0.0
H1217 H 0.77211 0.0457 0.43974 0.0
H1218 H 0.7559 0.08372 0.45625 0.0
H1219 H 0.68553 0.06726 0.42541 0.0
H1220 H 0.70155 0.02843 0.40969 0.0
H1221 H 0.67995 0.08747 0.46855 0.0
H1222 H 0.72985 0.1105 0.39753 0.0
H1223 H 0.76826 0.11248 0.37397 0.0
H1224 H 0.80488 0.14386 0.43541 0.0
H1225 H 0.76678 0.14246 0.45916 0.0
C1226 C 0.65693 0.20879 0.46797 0.0
C1227 C 0.66598 0.21989 0.48921 0.0
C1228 C 0.6651 0.18546 0.461 0.0
C1229 C 0.68286 0.17313 0.47481 0.0
C1230 C 0.69273 0.1847 0.49535 0.0
C1231 C 0.68406 0.20761 0.50274 0.0
C1232 C 0.69215 0.14879 0.46705 0.0
C1233 C 0.71339 0.14786 0.453 0.0
C1234 C 0.68016 0.12669 0.473 0.0
C1235 C 0.65934 0.12591 0.49011 0.0
C1236 C 0.66215 0.13411 0.51422 0.0
C1237 C 0.6433 0.13118 0.53106 0.0
C1238 C 0.62167 0.11972 0.52411 0.0
C1239 C 0.61871 0.11151 0.50018 0.0
C1240 C 0.63745 0.11458 0.48322 0.0
C1241 C 0.75306 0.04995 0.43675 0.0
C1242 C 0.73814 0.03401 0.42325 0.0
C1243 C 0.74387 0.07194 0.44595 0.0
C1244 C 0.71966 0.07895 0.44141 0.0
C1245 C 0.70436 0.0625 0.42896 0.0
C1246 C 0.71349 0.0402 0.42005 0.0
C1247 C 0.71036 0.10336 0.4496 0.0
C1248 C 0.68909 0.10438 0.46375 0.0
C1249 C 0.72278 0.12552 0.44443 0.0
C1250 C 0.74558 0.12618 0.43011 0.0
C1251 C 0.74615 0.11768 0.40599 0.0
C1252 C 0.76781 0.11871 0.39263 0.0
C1253 C 0.78897 0.12802 0.40326 0.0
C1254 C 0.7885 0.13657 0.42721 0.0
C1255 C 0.76687 0.13579 0.44058 0.0
H1256 H 0.8057 0.12873 0.39288 0.0
H1257 H 0.60713 0.11739 0.5372 0.0
H1258 H 0.01892 0.44503 0.72981 0.0
H1259 H 0.05561 0.46325 0.71163 0.0
H1260 H 0.09886 0.40377 0.74038 0.0
H1261 H 0.06253 0.38618 0.75886 0.0
H1262 H 0.12192 0.44317 0.74854 0.0
H1263 H 0.08152 0.41098 0.67708 0.0
H1264 H 0.0471 0.40676 0.6485 0.0
H1265 H 0.04946 0.48385 0.63344 0.0
H1266 H 0.08373 0.48856 0.66216 0.0
H1267 H 0.22742 0.45263 0.6677 0.0
H1268 H 0.18898 0.43758 0.68534 0.0
H1269 H 0.15997 0.51083 0.6846 0.0
H1270 H 0.19817 0.5261 0.66832 0.0
H1271 H 0.12931 0.46761 0.66182 0.0
H1272 H 0.16905 0.49962 0.73329 0.0
H1273 H 0.20306 0.50419 0.76226 0.0
H1274 H 0.20131 0.42707 0.77725 0.0
H1275 H 0.16755 0.42201 0.74797 0.0
C1276 C 0.03625 0.43582 0.73195 0.0
C1277 C 0.03794 0.41432 0.74588 0.0
C1278 C 0.05727 0.4462 0.72156 0.0
C1279 C 0.08023 0.4349 0.72447 0.0
C1280 C 0.08159 0.4131 0.73799 0.0
C1281 C 0.06079 0.40304 0.7486 0.0
C1282 C 0.1031 0.44568 0.71412 0.0
C1283 C 0.12347 0.44817 0.72948 0.0
C1284 C 0.10528 0.45301 0.68941 0.0
C1285 C 0.085 0.45014 0.67189 0.0
C1286 C 0.0746 0.42704 0.66774 0.0
C1287 C 0.05514 0.42456 0.65152 0.0
C1288 C 0.04607 0.44503 0.6392 0.0
C1289 C 0.05649 0.46802 0.64301 0.0
C1290 C 0.07595 0.4706 0.65924 0.0
C1291 C 0.21287 0.46549 0.67133 0.0
C1292 C 0.21586 0.49046 0.66593 0.0
C1293 C 0.19092 0.45689 0.68139 0.0
C1294 C 0.17148 0.47307 0.68591 0.0
C1295 C 0.17456 0.49798 0.68095 0.0
C1296 C 0.19658 0.50663 0.67158 0.0
C1297 C 0.14798 0.46421 0.69613 0.0
C1298 C 0.12759 0.46237 0.68081 0.0
C1299 C 0.1457 0.45744 0.72084 0.0
C1300 C 0.16612 0.46037 0.73817 0.0
C1301 C 0.17618 0.48359 0.74249 0.0
C1302 C 0.19534 0.48629 0.75903 0.0
C1303 C 0.20442 0.46591 0.77151 0.0
C1304 C 0.19432 0.44282 0.76751 0.0
C1305 C 0.17519 0.44002 0.75094 0.0
H1306 H 0.21923 0.46804 0.78435 0.0
H1307 H 0.03097 0.44308 0.62667 0.0
H1308 H 0.79603 0.98118 0.9306 0.0
H1309 H 0.8102 0.94136 0.94513 0.0
H1310 H 0.7375 0.91251 0.93666 0.0
H1311 H 0.7229 0.95266 0.92524 0.0
H1312 H 0.75285 0.89144 0.97077 0.0
H1313 H 0.7903 0.9037 0.8936 0.0
H1314 H 0.81454 0.92557 0.86251 0.0
H1315 H 0.87759 0.92144 0.90857 0.0
H1316 H 0.85372 0.89968 0.93994 0.0
H1317 H 0.83845 0.77484 0.95211 0.0
H1318 H 0.82015 0.81254 0.93588 0.0
H1319 H 0.79994 0.83382 0.00886 0.0
H1320 H 0.8156 0.79561 0.02447 0.0
H1321 H 0.83003 0.85681 0.93897 0.0
H1322 H 0.75571 0.87215 0.01359 0.0
H1323 H 0.72703 0.84753 0.0379 0.0
H1324 H 0.7292 0.79067 0.98403 0.0
H1325 H 0.75759 0.81512 0.95922 0.0
C1326 C 0.78297 0.96648 0.93242 0.0
C1327 C 0.75832 0.9702 0.92642 0.0
C1328 C 0.7912 0.94347 0.94028 0.0
C1329 C 0.77522 0.92336 0.94125 0.0
C1330 C 0.75044 0.92742 0.9361 0.0
C1331 C 0.74204 0.95058 0.92936 0.0
C1332 C 0.78392 0.89815 0.94774 0.0
C1333 C 0.76967 0.88395 0.96359 0.0
C1334 C 0.80556 0.88771 0.93808 0.0
C1335 C 0.82017 0.90028 0.91914 0.0
C1336 C 0.80932 0.90753 0.89706 0.0
C1337 C 0.82299 0.91985 0.87941 0.0
C1338 C 0.84758 0.92483 0.88358 0.0
C1339 C 0.85856 0.91746 0.90536 0.0
C1340 C 0.84499 0.90511 0.92306 0.0
C1341 C 0.82939 0.78726 0.96451 0.0
C1342 C 0.82886 0.78232 0.98965 0.0
C1343 C 0.8192 0.80901 0.95527 0.0
C1344 C 0.80839 0.82624 0.97102 0.0
C1345 C 0.80736 0.8208 0.99601 0.0
C1346 C 0.81663 0.79884 0.00502 0.0
C1347 C 0.7988 0.85022 0.96183 0.0
C1348 C 0.81301 0.86424 0.94574 0.0
C1349 C 0.77633 0.86001 0.97006 0.0
C1350 C 0.7589 0.8454 0.98465 0.0
C1351 C 0.74993 0.85447 0.00686 0.0
C1352 C 0.73376 0.84052 0.02075 0.0
C1353 C 0.72634 0.81752 0.01255 0.0
C1354 C 0.73501 0.80846 0.99039 0.0
C1355 C 0.75114 0.82235 0.97642 0.0
H1356 H 0.71385 0.80674 0.02335 0.0
H1357 H 0.85812 0.93441 0.86992 0.0
H1358 H 0.48435 0.56714 0.22159 0.0
H1359 H 0.44818 0.54775 0.20366 0.0
H1360 H 0.40246 0.58557 0.25514 0.0
H1361 H 0.43808 0.60527 0.27252 0.0
H1362 H 0.39158 0.53288 0.24749 0.0
H1363 H 0.38591 0.61199 0.19526 0.0
H1364 H 0.40676 0.64336 0.17066 0.0
H1365 H 0.44933 0.58754 0.13565 0.0
H1366 H 0.4282 0.55581 0.1598 0.0
H1367 H 0.27181 0.52188 0.19515 0.0
H1368 H 0.30871 0.53803 0.21482 0.0
H1369 H 0.35108 0.51773 0.15184 0.0
H1370 H 0.31476 0.50273 0.13198 0.0
H1371 H 0.36446 0.56082 0.16581 0.0
H1372 H 0.35118 0.48362 0.20569 0.0
H1373 H 0.32764 0.45335 0.22919 0.0
H1374 H 0.32249 0.50362 0.28905 0.0
H1375 H 0.34572 0.53434 0.26573 0.0
C1376 C 0.46666 0.57139 0.22898 0.0
C1377 C 0.46423 0.58834 0.24806 0.0
C1378 C 0.44596 0.56026 0.21878 0.0
C1379 C 0.42256 0.56549 0.22788 0.0
C1380 C 0.42026 0.58136 0.24771 0.0
C1381 C 0.44076 0.59269 0.25758 0.0
C1382 C 0.40023 0.55527 0.21642 0.0
C1383 C 0.38562 0.53889 0.22961 0.0
C1384 C 0.39238 0.56304 0.1932 0.0
C1385 C 0.40579 0.58175 0.1794 0.0
C1386 C 0.39986 0.60652 0.18241 0.0
C1387 C 0.41169 0.62431 0.16855 0.0
C1388 C 0.42969 0.6175 0.15186 0.0
C1389 C 0.43564 0.59281 0.1488 0.0
C1390 C 0.42366 0.57491 0.16247 0.0
C1391 C 0.28895 0.52112 0.18545 0.0
C1392 C 0.29019 0.51085 0.162 0.0
C1393 C 0.31011 0.53014 0.19679 0.0
C1394 C 0.33286 0.52886 0.18494 0.0
C1395 C 0.33389 0.51897 0.16144 0.0
C1396 C 0.31294 0.51019 0.15014 0.0
C1397 C 0.35579 0.53779 0.19654 0.0
C1398 C 0.37042 0.55431 0.18353 0.0
C1399 C 0.3637 0.52979 0.21982 0.0
C1400 C 0.34996 0.51133 0.23391 0.0
C1401 C 0.34488 0.48827 0.22381 0.0
C1402 C 0.33161 0.47103 0.2371 0.0
C1403 C 0.32352 0.47658 0.26058 0.0
C1404 C 0.32874 0.49936 0.27085 0.0
C1405 C 0.34196 0.51668 0.25762 0.0
H1406 H 0.31325 0.46321 0.27085 0.0
H1407 H 0.43887 0.63133 0.14119 0.0
H1408 H 0.50598 0.20385 0.27626 0.0
H1409 H 0.5223 0.22351 0.31302 0.0
H1410 H 0.54012 0.15236 0.34257 0.0
H1411 H 0.52299 0.13315 0.30674 0.0
H1412 H 0.52302 0.17409 0.37613 0.0
H1413 H 0.5852 0.20119 0.31951 0.0
H1414 H 0.60094 0.22136 0.28251 0.0
H1415 H 0.56606 0.28852 0.30331 0.0
H1416 H 0.55046 0.26884 0.34065 0.0
H1417 H 0.59975 0.2105 0.47303 0.0
H1418 H 0.58472 0.19502 0.43423 0.0
H1419 H 0.55505 0.26619 0.41733 0.0
H1420 H 0.57042 0.28185 0.45613 0.0
H1421 H 0.57668 0.24687 0.37802 0.0
H1422 H 0.51868 0.21806 0.43769 0.0
H1423 H 0.50744 0.19688 0.47576 0.0
H1424 H 0.53834 0.13004 0.44859 0.0
H1425 H 0.55009 0.15093 0.41051 0.0
C1426 C 0.51398 0.19262 0.29045 0.0
C1427 C 0.51335 0.16703 0.28869 0.0
C1428 C 0.52343 0.20381 0.3115 0.0
C1429 C 0.53309 0.18958 0.33075 0.0
C1430 C 0.53311 0.164 0.32823 0.0
C1431 C 0.52334 0.15293 0.3076 0.0
C1432 C 0.54195 0.20074 0.35411 0.0
C1433 C 0.53509 0.18976 0.37629 0.0
C1434 C 0.55712 0.2217 0.35495 0.0
C1435 C 0.56648 0.23351 0.33263 0.0
C1436 C 0.5808 0.22022 0.31608 0.0
C1437 C 0.58968 0.23155 0.29507 0.0
C1438 C 0.58425 0.25611 0.29039 0.0
C1439 C 0.57016 0.26948 0.30688 0.0
C1440 C 0.5614 0.25829 0.32803 0.0
C1441 C 0.58971 0.22277 0.46132 0.0
C1442 C 0.5859 0.24727 0.46804 0.0
C1443 C 0.5812 0.21392 0.43898 0.0
C1444 C 0.56833 0.22931 0.42293 0.0
C1445 C 0.56482 0.25391 0.4294 0.0
C1446 C 0.5735 0.26279 0.45169 0.0
C1447 C 0.55832 0.21966 0.39957 0.0
C1448 C 0.56474 0.23108 0.37758 0.0
C1449 C 0.54316 0.19879 0.39883 0.0
C1450 C 0.53533 0.18607 0.42133 0.0
C1451 C 0.5231 0.19886 0.43987 0.0
C1452 C 0.51667 0.18691 0.46145 0.0
C1453 C 0.52217 0.16213 0.46458 0.0
C1454 C 0.53407 0.14923 0.44613 0.0
C1455 C 0.54059 0.16109 0.42453 0.0
H1456 H 0.5172 0.15291 0.4813 0.0
H1457 H 0.59109 0.26481 0.27406 0.0
H1458 H 0.06359 0.28348 0.52092 0.0
H1459 H 0.04362 0.30136 0.55694 0.0
H1460 H 0.08893 0.25696 0.60364 0.0
H1461 H 0.10883 0.23975 0.56875 0.0
H1462 H 0.0433 0.25611 0.61912 0.0
H1463 H 0.10256 0.31679 0.59296 0.0
H1464 H 0.11957 0.34505 0.56234 0.0
H1465 H 0.05148 0.38381 0.55925 0.0
H1466 H 0.03403 0.35558 0.58971 0.0
H1467 H 0.05119 0.35018 0.72522 0.0
H1468 H 0.06556 0.33462 0.68567 0.0
H1469 H 0.99394 0.30602 0.67081 0.0
H1470 H 0.97971 0.32091 0.70999 0.0
H1471 H 0.04998 0.34463 0.63793 0.0
H1472 H 0.99813 0.25385 0.64247 0.0
H1473 H 0.98358 0.22428 0.6732 0.0
H1474 H 0.04236 0.24424 0.72083 0.0
H1475 H 0.05727 0.27382 0.69032 0.0
C1476 C 0.06944 0.27784 0.53882 0.0
C1477 C 0.08835 0.26066 0.54159 0.0
C1478 C 0.0579 0.28789 0.55942 0.0
C1479 C 0.06491 0.28057 0.58305 0.0
C1480 C 0.08313 0.2629 0.58569 0.0
C1481 C 0.09465 0.25315 0.56542 0.0
C1482 C 0.05425 0.2914 0.60549 0.0
C1483 C 0.04449 0.27552 0.62305 0.0
C1484 C 0.05623 0.3166 0.61096 0.0
C1485 C 0.06697 0.33404 0.59342 0.0
C1486 C 0.09123 0.33134 0.58571 0.0
C1487 C 0.10095 0.34733 0.56839 0.0
C1488 C 0.0866 0.36619 0.55883 0.0
C1489 C 0.06257 0.36918 0.56667 0.0
C1490 C 0.05277 0.35323 0.58398 0.0
C1491 C 0.03868 0.3402 0.71366 0.0
C1492 C 0.01439 0.3366 0.72087 0.0
C1493 C 0.0468 0.33162 0.69096 0.0
C1494 C 0.03082 0.31911 0.6753 0.0
C1495 C 0.00666 0.31542 0.68262 0.0
C1496 C 0.99858 0.32395 0.70512 0.0
C1497 C 0.03927 0.30925 0.65153 0.0
C1498 C 0.04852 0.32529 0.63382 0.0
C1499 C 0.03726 0.28407 0.64599 0.0
C1500 C 0.02868 0.26609 0.66423 0.0
C1501 C 0.00798 0.25182 0.65947 0.0
C1502 C 0.99965 0.23511 0.67685 0.0
C1503 C 0.01201 0.23241 0.69897 0.0
C1504 C 0.03275 0.24639 0.70373 0.0
C1505 C 0.04112 0.26316 0.68643 0.0
H1506 H 0.00553 0.21946 0.71241 0.0
H1507 H 0.09412 0.37849 0.54533 0.0
H1508 H 0.02891 0.82101 0.80271 0.0
H1509 H 0.013 0.80541 0.84137 0.0
H1510 H 0.94405 0.84035 0.82694 0.0
H1511 H 0.95996 0.85651 0.7886 0.0
H1512 H 0.95848 0.84832 0.87346 0.0
H1513 H 0.9498 0.78021 0.8207 0.0
H1514 H 0.96278 0.74933 0.79073 0.0
H1515 H 0.01407 0.71998 0.84223 0.0
H1516 H 1.00175 0.75108 0.87236 0.0
H1517 H 0.88223 0.78281 0.95499 0.0
H1518 H 0.90274 0.8003 0.91957 0.0
H1519 H 0.97112 0.77062 0.94477 0.0
H1520 H 0.95039 0.75328 0.98079 0.0
H1521 H 0.95888 0.75984 0.89398 0.0
H1522 H 0.96742 0.82993 0.94622 0.0
H1523 H 0.95285 0.86084 0.97543 0.0
H1524 H 0.89866 0.88467 0.92416 0.0
H1525 H 0.91322 0.85418 0.89442 0.0
C1526 C 0.01031 0.82532 0.80772 0.0
C1527 C 0.99561 0.83973 0.79233 0.0
C1528 C 1.00121 0.81632 0.82982 0.0
C1529 C 0.97723 0.82158 0.83708 0.0
C1530 C 0.96258 0.83608 0.8218 0.0
C1531 C 0.97163 0.84503 0.79967 0.0
C1532 C 0.96751 0.81218 0.8607 0.0
C1533 C 0.95844 0.82894 0.87779 0.0
C1534 C 0.96768 0.78694 0.86667 0.0
C1535 C 0.97507 0.76815 0.84868 0.0
C1536 C 0.96402 0.76733 0.82556 0.0
C1537 C 0.97124 0.74977 0.80855 0.0
C1538 C 0.98929 0.73274 0.81455 0.0
C1539 C 1.00013 0.73322 0.83759 0.0
C1540 C 0.99305 0.75082 0.85464 0.0
C1541 C 0.90171 0.78042 0.95322 0.0
C1542 C 0.91475 0.76683 0.97065 0.0
C1543 C 0.91342 0.79038 0.93295 0.0
C1544 C 0.93847 0.78673 0.92942 0.0
C1545 C 0.95176 0.77364 0.94712 0.0
C1546 C 0.94001 0.76398 0.96777 0.0
C1547 C 0.9502 0.79602 0.90672 0.0
C1548 C 0.95935 0.77922 0.88971 0.0
C1549 C 0.94991 0.82118 0.90066 0.0
C1550 C 0.9413 0.83974 0.91822 0.0
C1551 C 0.95236 0.84176 0.94122 0.0
C1552 C 0.94414 0.85924 0.95783 0.0
C1553 C 0.92473 0.87465 0.95172 0.0
C1554 C 0.91368 0.87277 0.92886 0.0
C1555 C 0.922 0.85549 0.91206 0.0
H1556 H 0.91829 0.88808 0.96467 0.0
H1557 H 0.99484 0.71912 0.80137 0.0
H1558 H 0.45698 0.64727 0.21757 0.0
H1559 H 0.44468 0.66275 0.17722 0.0
H1560 H 0.50005 0.71809 0.18086 0.0
H1561 H 0.5131 0.70227 0.22073 0.0
H1562 H 0.44411 0.72972 0.16568 0.0
H1563 H 0.51815 0.68981 0.14797 0.0
H1564 H 0.55055 0.6589 0.14412 0.0
H1565 H 0.50232 0.61249 0.10356 0.0
H1566 H 0.46936 0.64286 0.10778 0.0
H1567 H 0.44038 0.77531 0.04454 0.0
H1568 H 0.45479 0.7607 0.08397 0.0
H1569 H 0.42355 0.68985 0.0696 0.0
H1570 H 0.40919 0.70443 0.02967 0.0
H1571 H 0.4686 0.68658 0.09011 0.0
H1572 H 0.39284 0.73182 0.11569 0.0
H1573 H 0.36699 0.76903 0.11734 0.0
H1574 H 0.42895 0.81198 0.13783 0.0
H1575 H 0.45485 0.77501 0.13731 0.0
C1576 C 0.46603 0.66319 0.21008 0.0
C1577 C 0.48574 0.67384 0.22245 0.0
C1578 C 0.45933 0.67162 0.18683 0.0
C1579 C 0.4719 0.69101 0.17573 0.0
C1580 C 0.49046 0.70274 0.18881 0.0
C1581 C 0.49761 0.69396 0.21174 0.0
C1582 C 0.46478 0.69973 0.15098 0.0
C1583 C 0.44957 0.72026 0.14919 0.0
C1584 C 0.47211 0.6877 0.12929 0.0
C1585 C 0.49099 0.66832 0.12894 0.0
C1586 C 0.51417 0.67272 0.13891 0.0
C1587 C 0.53277 0.65541 0.13637 0.0
C1588 C 0.52851 0.63373 0.12361 0.0
C1589 C 0.50561 0.62928 0.11343 0.0
C1590 C 0.48693 0.64649 0.116 0.0
C1591 C 0.43692 0.75645 0.04955 0.0
C1592 C 0.42379 0.74097 0.03385 0.0
C1593 C 0.44482 0.74825 0.07235 0.0
C1594 C 0.43959 0.72441 0.08021 0.0
C1595 C 0.42755 0.70844 0.06409 0.0
C1596 C 0.41966 0.71665 0.0411 0.0
C1597 C 0.44739 0.71601 0.10492 0.0
C1598 C 0.46278 0.69562 0.10671 0.0
C1599 C 0.44112 0.72871 0.1265 0.0
C1600 C 0.42571 0.75085 0.12614 0.0
C1601 C 0.40088 0.74928 0.12034 0.0
C1602 C 0.38625 0.77025 0.12115 0.0
C1603 C 0.39639 0.79285 0.12725 0.0
C1604 C 0.42113 0.7945 0.13297 0.0
C1605 C 0.43573 0.77354 0.13263 0.0
H1606 H 0.38503 0.80904 0.12774 0.0
H1607 H 0.54293 0.62035 0.12167 0.0
H1608 H 0.13335 0.31522 0.33342 0.0
H1609 H 0.14823 0.33273 0.29491 0.0
H1610 H 0.1862 0.38872 0.33519 0.0
H1611 H 0.17057 0.37183 0.37329 0.0
H1612 H 0.1621 0.40951 0.30227 0.0
H1613 H 0.21501 0.33981 0.30285 0.0
H1614 H 0.22605 0.29607 0.30403 0.0
H1615 H 0.18562 0.28377 0.23819 0.0
H1616 H 0.17401 0.32737 0.23684 0.0
H1617 H 0.24539 0.4301 0.19077 0.0
H1618 H 0.23349 0.40683 0.22686 0.0
H1619 H 0.15848 0.427 0.2151 0.0
H1620 H 0.17002 0.44929 0.17813 0.0
H1621 H 0.20147 0.36738 0.23273 0.0
H1622 H 0.13525 0.43958 0.27183 0.0
H1623 H 0.13134 0.48405 0.27868 0.0
H1624 H 0.20887 0.49209 0.27211 0.0
H1625 H 0.21312 0.44777 0.2649 0.0
C1626 C 0.1453 0.33095 0.33394 0.0
C1627 C 0.15084 0.34223 0.35625 0.0
C1628 C 0.15383 0.34096 0.31194 0.0
C1629 C 0.16837 0.36217 0.31199 0.0
C1630 C 0.17486 0.37254 0.3345 0.0
C1631 C 0.16607 0.36281 0.35632 0.0
C1632 C 0.17532 0.37493 0.28888 0.0
C1633 C 0.17058 0.40011 0.28707 0.0
C1634 C 0.18668 0.363 0.26897 0.0
C1635 C 0.19341 0.33677 0.26992 0.0
C1636 C 0.20827 0.32772 0.28877 0.0
C1637 C 0.21466 0.30297 0.28944 0.0
C1638 C 0.20648 0.28714 0.27124 0.0
C1639 C 0.1919 0.29604 0.25231 0.0
C1640 C 0.18541 0.32076 0.25158 0.0
C1641 C 0.2263 0.42952 0.19567 0.0
C1642 C 0.20874 0.44217 0.18172 0.0
C1643 C 0.21955 0.41617 0.21639 0.0
C1644 C 0.19514 0.41539 0.22389 0.0
C1645 C 0.17749 0.42764 0.20987 0.0
C1646 C 0.18417 0.44058 0.18882 0.0
C1647 C 0.18818 0.40179 0.24639 0.0
C1648 C 0.19273 0.37653 0.24793 0.0
C1649 C 0.17722 0.41367 0.26642 0.0
C1650 C 0.17443 0.44052 0.26752 0.0
C1651 C 0.15138 0.45095 0.27149 0.0
C1652 C 0.14913 0.47608 0.27554 0.0
C1653 C 0.16985 0.49086 0.27599 0.0
C1654 C 0.19283 0.48062 0.27182 0.0
C1655 C 0.19514 0.45555 0.26748 0.0
H1656 H 0.16809 0.51028 0.27937 0.0
H1657 H 0.21148 0.26798 0.27177 0.0
H1658 H 0.95426 0.88435 0.56737 0.0
H1659 H 0.92572 0.89634 0.53531 0.0
H1660 H 0.9005 0.95628 0.57983 0.0
H1661 H 0.92836 0.94336 0.61254 0.0
H1662 H 0.86393 0.9397 0.55631 0.0
H1663 H 0.94305 0.96338 0.53158 0.0
H1664 H 0.98686 0.95787 0.52349 0.0
H1665 H 0.9705 0.90472 0.46833 0.0
H1666 H 0.92657 0.9096 0.47641 0.0
H1667 H 0.80276 0.99459 0.45579 0.0
H1668 H 0.83007 0.98672 0.49005 0.0
H1669 H 0.86383 0.92797 0.44963 0.0
H1670 H 0.83814 0.93788 0.4144 0.0
H1671 H 0.89685 0.94765 0.47259 0.0
H1672 H 0.81584 0.92142 0.50558 0.0
H1673 H 0.77324 0.92853 0.51828 0.0
H1674 H 0.79482 0.99221 0.55821 0.0
H1675 H 0.83769 0.98493 0.54678 0.0
C1676 C 0.94233 0.89986 0.57042 0.0
C1677 C 0.94354 0.91298 0.59236 0.0
C1678 C 0.92618 0.90689 0.55199 0.0
C1679 C 0.91138 0.92774 0.55469 0.0
C1680 C 0.9118 0.94026 0.57711 0.0
C1681 C 0.92765 0.93285 0.59584 0.0
C1682 C 0.89592 0.93658 0.53396 0.0
C1683 C 0.87124 0.94163 0.53805 0.0
C1684 C 0.90523 0.93932 0.51002 0.0
C1685 C 0.93156 0.93673 0.50472 0.0
C1686 C 0.94881 0.95044 0.5178 0.0
C1687 C 0.97366 0.94742 0.51323 0.0
C1688 C 0.98146 0.93093 0.49543 0.0
C1689 C 0.96442 0.91748 0.48212 0.0
C1690 C 0.93955 0.92037 0.48668 0.0
C1691 C 0.81622 0.98015 0.45426 0.0
C1692 C 0.81841 0.96681 0.43255 0.0
C1693 C 0.83159 0.97529 0.47406 0.0
C1694 C 0.84862 0.95602 0.47314 0.0
C1695 C 0.85088 0.94286 0.45115 0.0
C1696 C 0.83618 0.94844 0.43096 0.0
C1697 C 0.86447 0.9498 0.49465 0.0
C1698 C 0.88942 0.9455 0.49076 0.0
C1699 C 0.85551 0.94824 0.51888 0.0
C1700 C 0.82978 0.95281 0.52511 0.0
C1701 C 0.81142 0.937 0.51695 0.0
C1702 C 0.78728 0.94103 0.52393 0.0
C1703 C 0.78125 0.961 0.5386 0.0
C1704 C 0.79946 0.97682 0.54672 0.0
C1705 C 0.82369 0.97264 0.54021 0.0
H1706 H 0.7625 0.96408 0.54384 0.0
H1707 H 1.00072 0.9286 0.49193 0.0
H1708 H 0.29829 0.59412 0.66587 0.0
H1709 H 0.3072 0.61804 0.70267 0.0
H1710 H 0.29361 0.55426 0.74702 0.0
H1711 H 0.28324 0.53107 0.71087 0.0
H1712 H 0.27368 0.59153 0.76754 0.0
H1713 H 0.35492 0.57827 0.73125 0.0
H1714 H 0.38545 0.58301 0.69862 0.0
H1715 H 0.37541 0.66088 0.69968 0.0
H1716 H 0.34508 0.65665 0.73257 0.0
H1717 H 0.32757 0.61307 0.88012 0.0
H1718 H 0.31553 0.59918 0.84028 0.0
H1719 H 0.34219 0.66617 0.80844 0.0
H1720 H 0.35766 0.6788 0.84802 0.0
H1721 H 0.35248 0.63406 0.77904 0.0
H1722 H 0.27696 0.64989 0.81807 0.0
H1723 H 0.2461 0.64811 0.85063 0.0
H1724 H 0.24169 0.57009 0.84276 0.0
H1725 H 0.27277 0.57136 0.8104 0.0
C1726 C 0.29709 0.5853 0.6835 0.0
C1727 C 0.29047 0.5605 0.6853 0.0
C1728 C 0.30242 0.59893 0.70456 0.0
C1729 C 0.30155 0.58793 0.72779 0.0
C1730 C 0.29454 0.5633 0.72946 0.0
C1731 C 0.28887 0.5499 0.70861 0.0
C1732 C 0.30752 0.60165 0.7506 0.0
C1733 C 0.29101 0.60068 0.7701 0.0
C1734 C 0.32952 0.61473 0.7538 0.0
C1735 C 0.34764 0.61713 0.7341 0.0
C1736 C 0.35917 0.59637 0.7244 0.0
C1737 C 0.37641 0.59896 0.70588 0.0
C1738 C 0.38218 0.62217 0.6969 0.0
C1739 C 0.37087 0.6429 0.70658 0.0
C1740 C 0.35374 0.64043 0.72522 0.0
C1741 C 0.33152 0.62483 0.86478 0.0
C1742 C 0.34408 0.6471 0.86781 0.0
C1743 C 0.32389 0.61703 0.84179 0.0
C1744 C 0.32719 0.6318 0.82108 0.0
C1745 C 0.33919 0.65434 0.82399 0.0
C1746 C 0.34773 0.66177 0.84694 0.0
C1747 C 0.31901 0.62317 0.79645 0.0
C1748 C 0.33501 0.62519 0.77657 0.0
C1749 C 0.29623 0.61152 0.79272 0.0
C1750 C 0.27725 0.61073 0.81189 0.0
C1751 C 0.26946 0.63235 0.82335 0.0
C1752 C 0.25194 0.63143 0.84178 0.0
C1753 C 0.24196 0.609 0.84878 0.0
C1754 C 0.24943 0.58745 0.83732 0.0
C1755 C 0.26696 0.58826 0.81891 0.0
H1756 H 0.22841 0.60832 0.86307 0.0
H1757 H 0.39551 0.62409 0.68252 0.0
H1758 H 0.55293 0.1065 0.08706 0.0
H1759 H 0.56799 0.0912 0.0477 0.0
H1760 H 0.64088 0.08829 0.07672 0.0
H1761 H 0.62605 0.10252 0.11602 0.0
H1762 H 0.63418 0.11778 0.03325 0.0
H1763 H 0.61534 0.03688 0.06571 0.0
H1764 H 0.58738 0.0058 0.08237 0.0
H1765 H 0.54234 0.01196 0.01861 0.0
H1766 H 0.57007 0.04295 1.00161 0.0
H1767 H 0.71508 0.05472 0.95892 0.0
H1768 H 0.68807 0.06782 0.99116 0.0
H1769 H 0.62645 0.06086 0.94299 0.0
H1770 H 0.65392 0.04861 0.90963 0.0
H1771 H 0.62018 0.0388 0.99114 0.0
H1772 H 0.63969 0.11433 0.95572 0.0
H1773 H 0.66282 0.14878 0.93845 0.0
H1774 H 0.70162 0.15698 0.00588 0.0
H1775 H 0.67921 0.12211 0.02337 0.0
C1776 C 0.57205 0.102 0.08524 0.0
C1777 C 0.58834 0.10623 0.10464 0.0
C1778 C 0.58063 0.09335 0.0627 0.0
C1779 C 0.6056 0.08886 0.05924 0.0
C1780 C 0.62159 0.09185 0.07892 0.0
C1781 C 0.61306 0.10016 0.10137 0.0
C1782 C 0.61578 0.08318 0.0348 0.0
C1783 C 0.63128 0.10044 0.02411 0.0
C1784 C 0.61103 0.06109 0.02233 0.0
C1785 C 0.59458 0.04236 0.03253 0.0
C1786 C 0.59938 0.03167 0.05534 0.0
C1787 C 0.58364 0.01398 0.06479 0.0
C1788 C 0.5631 0.00684 0.05155 0.0
C1789 C 0.55831 0.01734 0.02881 0.0
C1790 C 0.57404 0.03493 0.01924 0.0
C1791 C 0.69591 0.05642 0.95474 0.0
C1792 C 0.68683 0.05093 0.93136 0.0
C1793 C 0.6804 0.06376 0.97342 0.0
C1794 C 0.65525 0.06547 0.9695 0.0
C1795 C 0.64585 0.05972 0.94637 0.0
C1796 C 0.66156 0.0528 0.92733 0.0
C1797 C 0.63932 0.07314 0.99003 0.0
C1798 C 0.62285 0.05629 1.00006 0.0
C1799 C 0.64285 0.09586 1.0018 0.0
C1800 C 0.65783 0.11552 0.99082 0.0
C1801 C 0.65345 0.12319 0.96674 0.0
C1802 C 0.66633 0.14289 0.95696 0.0
C1803 C 0.68347 0.15522 0.97115 0.0
C1804 C 0.68815 0.14756 0.99499 0.0
C1805 C 0.67544 0.12776 0.00482 0.0
H1806 H 0.6933 0.17059 0.96359 0.0
H1807 H 0.55091 0.99317 0.0589 0.0
H1808 H 0.6381 0.19138 0.67368 0.0
H1809 H 0.65383 0.17436 0.71208 0.0
H1810 H 0.69631 0.12185 0.67147 0.0
H1811 H 0.6798 0.13818 0.63343 0.0
H1812 H 0.67363 0.09888 0.70368 0.0
H1813 H 0.72144 0.17175 0.7054 0.0
H1814 H 0.72942 0.21613 0.70466 0.0
H1815 H 0.68606 0.22548 0.76907 0.0
H1816 H 0.67754 0.18119 0.76999 0.0
H1817 H 0.75253 0.07523 0.81573 0.0
H1818 H 0.74209 0.09878 0.77918 0.0
H1819 H 0.66579 0.08766 0.79347 0.0
H1820 H 0.67596 0.06576 0.83105 0.0
H1821 H 0.70732 0.14288 0.77503 0.0
H1822 H 0.6478 0.06742 0.73067 0.0
H1823 H 0.64692 0.02287 0.72357 0.0
H1824 H 0.72348 0.01829 0.73894 0.0
H1825 H 0.72491 0.06282 0.74564 0.0
C1826 C 0.65125 0.17659 0.67308 0.0
C1827 C 0.65782 0.16608 0.65067 0.0
C1828 C 0.66026 0.16685 0.695 0.0
C1829 C 0.67634 0.14673 0.69483 0.0
C1830 C 0.68382 0.1372 0.67225 0.0
C1831 C 0.67453 0.14663 0.65048 0.0
C1832 C 0.68384 0.13413 0.71785 0.0
C1833 C 0.68092 0.10866 0.71924 0.0
C1834 C 0.6937 0.14661 0.73822 0.0
C1835 C 0.69866 0.17322 0.73762 0.0
C1836 C 0.71343 0.18331 0.71928 0.0
C1837 C 0.71809 0.20844 0.71885 0.0
C1838 C 0.70821 0.22363 0.73677 0.0
C1839 C 0.69368 0.21371 0.75518 0.0
C1840 C 0.68894 0.18859 0.75567 0.0
C1841 C 0.73349 0.07793 0.81128 0.0
C1842 C 0.71508 0.06782 0.82604 0.0
C1843 C 0.72759 0.09141 0.79035 0.0
C1844 C 0.70319 0.09467 0.78345 0.0
C1845 C 0.68476 0.08504 0.79829 0.0
C1846 C 0.69063 0.07215 0.81959 0.0
C1847 C 0.69692 0.10786 0.76059 0.0
C1848 C 0.69985 0.13334 0.75941 0.0
C1849 C 0.68767 0.09539 0.74009 0.0
C1850 C 0.68636 0.06838 0.73901 0.0
C1851 C 0.66438 0.05684 0.7328 0.0
C1852 C 0.66383 0.03164 0.72864 0.0
C1853 C 0.6852 0.01784 0.73053 0.0
C1854 C 0.70699 0.02905 0.73735 0.0
C1855 C 0.70765 0.05425 0.74146 0.0
H1856 H 0.68486 0.99842 0.72676 0.0
H1857 H 0.71186 0.24307 0.73642 0.0
H1858 H 0.20315 0.49469 0.04937 0.0
H1859 H 0.18283 0.48157 0.01178 0.0
H1860 H 0.15121 0.4205 0.05015 0.0
H1861 H 0.17145 0.43367 0.08778 0.0
H1862 H 0.18829 0.43888 0.98667 0.0
H1863 H 0.10037 0.40918 0.03083 0.0
H1864 H 0.07255 0.42177 0.06391 0.0
H1865 H 0.09091 0.49712 0.0514 0.0
H1866 H 0.11904 0.48484 0.01849 0.0
H1867 H 0.12975 0.37125 0.89429 0.0
H1868 H 0.14513 0.38325 0.93451 0.0
H1869 H 0.09579 0.44483 0.93487 0.0
H1870 H 0.07993 0.43225 0.89494 0.0
H1871 H 0.09892 0.42774 0.97917 0.0
H1872 H 0.15726 0.44939 0.91792 0.0
H1873 H 0.1854 0.44252 0.88362 0.0
H1874 H 0.22699 0.39218 0.9272 0.0
H1875 H 0.19884 0.39846 0.96164 0.0
C1876 C 0.19159 0.47865 0.04981 0.0
C1877 C 0.18886 0.46514 0.07143 0.0
C1878 C 0.18012 0.47109 0.02832 0.0
C1879 C 0.16532 0.45015 0.02813 0.0
C1880 C 0.16222 0.43691 0.04988 0.0
C1881 C 0.17389 0.44435 0.07132 0.0
C1882 C 0.15384 0.44168 0.00503 0.0
C1883 C 0.16877 0.43629 0.98505 0.0
C1884 C 0.12839 0.43877 1.00265 0.0
C1885 C 0.11169 0.44612 0.02236 0.0
C1886 C 0.09838 0.42841 0.03517 0.0
C1887 C 0.08266 0.43548 0.05392 0.0
C1888 C 0.07997 0.46023 0.05975 0.0
C1889 C 0.09307 0.47795 0.04693 0.0
C1890 C 0.10897 0.47095 0.02832 0.0
C1891 C 0.12183 0.38698 0.90331 0.0
C1892 C 0.10352 0.4007 0.89175 0.0
C1893 C 0.13079 0.39401 0.92616 0.0
C1894 C 0.12201 0.41526 0.93766 0.0
C1895 C 0.10294 0.4284 0.92647 0.0
C1896 C 0.09382 0.4212 0.9037 0.0
C1897 C 0.13341 0.42442 0.96068 0.0
C1898 C 0.11848 0.43 0.98071 0.0
C1899 C 0.15893 0.428 0.9629 0.0
C1900 C 0.17579 0.42415 0.94221 0.0
C1901 C 0.17228 0.43669 0.9201 0.0
C1902 C 0.18825 0.43293 0.90065 0.0
C1903 C 0.20793 0.41686 0.9032 0.0
C1904 C 0.21171 0.40457 0.92522 0.0
C1905 C 0.19575 0.40821 0.94471 0.0
H1906 H 0.22029 0.41399 0.88812 0.0
H1907 H 0.06771 0.46568 0.0742 0.0
H1908 H 0.83273 0.94564 0.32981 0.0
H1909 H 0.84486 0.92311 0.29336 0.0
H1910 H 0.76942 0.91391 0.27371 0.0
H1911 H 0.75717 0.93733 0.30971 0.0
H1912 H 0.79355 0.87142 0.26878 0.0
H1913 H 0.80388 0.95136 0.2369 0.0
H1914 H 0.81712 0.99417 0.23257 0.0
H1915 H 0.89178 0.97201 0.24096 0.0
H1916 H 0.87892 0.92891 0.24478 0.0
H1917 H 0.832 0.81377 0.15739 0.0
H1918 H 0.8117 0.84139 0.18604 0.0
H1919 H 0.88171 0.86659 0.21132 0.0
H1920 H 0.9018 0.84116 0.18141 0.0
H1921 H 0.85452 0.90295 0.21013 0.0
H1922 H 0.84022 0.81985 0.24151 0.0
H1923 H 0.82337 0.77815 0.23824 0.0
H1924 H 0.75177 0.80794 0.22708 0.0
H1925 H 0.76827 0.84979 0.23005 0.0
C1926 C 0.81871 0.93948 0.31742 0.0
C1927 C 0.79398 0.94398 0.32247 0.0
C1928 C 0.82568 0.92638 0.2966 0.0
C1929 C 0.8081 0.91701 0.28047 0.0
C1930 C 0.78337 0.92102 0.28572 0.0
C1931 C 0.7764 0.93443 0.30638 0.0
C1932 C 0.81567 0.9023 0.25875 0.0
C1933 C 0.80671 0.87843 0.25582 0.0
C1934 C 0.83271 0.91121 0.24162 0.0
C1935 C 0.84045 0.93706 0.24138 0.0
C1936 C 0.8231 0.95569 0.23811 0.0
C1937 C 0.83055 0.97995 0.23552 0.0
C1938 C 0.8553 0.98583 0.23652 0.0
C1939 C 0.87263 0.96743 0.24015 0.0
C1940 C 0.86529 0.94307 0.24241 0.0
C1941 C 0.84308 0.82553 0.16871 0.0
C1942 C 0.86872 0.82466 0.16723 0.0
C1943 C 0.8314 0.84108 0.1855 0.0
C1944 C 0.84506 0.85571 0.20162 0.0
C1945 C 0.87055 0.85543 0.19946 0.0
C1946 C 0.88213 0.84046 0.18241 0.0
C1947 C 0.83342 0.87152 0.22074 0.0
C1948 C 0.84149 0.89577 0.22314 0.0
C1949 C 0.81532 0.86298 0.23712 0.0
C1950 C 0.80549 0.83786 0.23579 0.0
C1951 C 0.82091 0.81746 0.23828 0.0
C1952 C 0.81142 0.79382 0.23648 0.0
C1953 C 0.78653 0.7904 0.2324 0.0
C1954 C 0.77104 0.81061 0.23021 0.0
C1955 C 0.78044 0.83427 0.23197 0.0
H1956 H 0.77922 0.77208 0.23097 0.0
H1957 H 0.86104 0.00466 0.23455 0.0
H1958 H 0.33939 0.56383 0.59124 0.0
H1959 H 0.36162 0.57474 0.55428 0.0
H1960 H 0.31145 0.5315 0.51164 0.0
H1961 H 0.29129 0.51827 0.54913 0.0
H1962 H 0.35049 0.52492 0.49264 0.0
H1963 H 0.31529 0.60619 0.51354 0.0
H1964 H 0.30805 0.6401 0.54259 0.0
H1965 H 0.38512 0.64647 0.55446 0.0
H1966 H 0.39252 0.6124 0.52586 0.0
H1967 H 0.36994 0.57462 0.37617 0.0
H1968 H 0.35506 0.56221 0.41574 0.0
H1969 H 0.41217 0.60355 0.4505 0.0
H1970 H 0.42559 0.61842 0.41082 0.0
H1971 H 0.37459 0.61044 0.47497 0.0
H1972 H 0.40968 0.53604 0.44547 0.0
H1973 H 0.41673 0.50261 0.41616 0.0
H1974 H 0.34108 0.48312 0.41948 0.0
H1975 H 0.33351 0.51663 0.44855 0.0
C1976 C 0.33331 0.55657 0.57392 0.0
C1977 C 0.31377 0.5401 0.57297 0.0
C1978 C 0.34574 0.56321 0.55259 0.0
C1979 C 0.33802 0.55469 0.52961 0.0
C1980 C 0.31811 0.53842 0.52887 0.0
C1981 C 0.30645 0.53089 0.55031 0.0
C1982 C 0.35086 0.56184 0.50641 0.0
C1983 C 0.35534 0.54374 0.48875 0.0
C1984 C 0.35862 0.58608 0.50128 0.0
C1985 C 0.35429 0.60654 0.5182 0.0
C1986 C 0.33052 0.61467 0.52276 0.0
C1987 C 0.32644 0.63393 0.539 0.0
C1988 C 0.3461 0.6453 0.55051 0.0
C1989 C 0.36989 0.63757 0.54565 0.0
C1990 C 0.37403 0.61833 0.52942 0.0
C1991 C 0.37926 0.58153 0.3921 0.0
C1992 C 0.39893 0.59794 0.38988 0.0
C1993 C 0.37097 0.57385 0.41495 0.0
C1994 C 0.3827 0.58139 0.43641 0.0
C1995 C 0.40274 0.59728 0.43434 0.0
C1996 C 0.41066 0.60555 0.41144 0.0
C1997 C 0.37329 0.57369 0.46092 0.0
C1998 C 0.3697 0.59161 0.47886 0.0
C1999 C 0.36644 0.54926 0.46629 0.0
C2000 C 0.37103 0.52892 0.44907 0.0
C2001 C 0.39454 0.52468 0.43986 0.0
C2002 C 0.39862 0.50572 0.42329 0.0
C2003 C 0.37936 0.49077 0.41594 0.0
C2004 C 0.35598 0.49471 0.42519 0.0
C2005 C 0.35179 0.51366 0.44173 0.0
H2006 H 0.38256 0.47611 0.4031 0.0
H2007 H 0.34292 0.66019 0.56308 0.0
H2008 H 0.16446 0.21236 0.4086 0.0
H2009 H 0.20045 0.20393 0.3833 0.0
H2010 H 0.24585 0.20573 0.44754 0.0
H2011 H 0.21088 0.21624 0.47203 0.0
H2012 H 0.26905 0.22646 0.4141 0.0
H2013 H 0.2227 0.1497 0.41633 0.0
H2014 H 0.18612 0.12491 0.408 0.0
H2015 H 0.19033 0.14341 0.33209 0.0
H2016 H 0.22693 0.16833 0.33997 0.0
H2017 H 0.37063 0.15251 0.39421 0.0
H2018 H 0.33286 0.17234 0.40573 0.0
H2019 H 0.30616 0.16512 0.33214 0.0
H2020 H 0.34372 0.14342 0.32081 0.0
H2021 H 0.27178 0.15273 0.36169 0.0
H2022 H 0.3233 0.22266 0.35904 0.0
H2023 H 0.35997 0.24722 0.36743 0.0
H2024 H 0.34604 0.24255 0.44427 0.0
H2025 H 0.3095 0.21767 0.43637 0.0
C2026 C 0.18219 0.21116 0.41719 0.0
C2027 C 0.1846 0.21435 0.44249 0.0
C2028 C 0.20276 0.2061 0.40276 0.0
C2029 C 0.226 0.2036 0.41347 0.0
C2030 C 0.2283 0.20743 0.43863 0.0
C2031 C 0.20804 0.21308 0.4528 0.0
C2032 C 0.24817 0.19676 0.39914 0.0
C2033 C 0.26962 0.21024 0.40275 0.0
C2034 C 0.24898 0.17624 0.38342 0.0
C2035 C 0.22732 0.16099 0.37875 0.0
C2036 C 0.21575 0.1485 0.39789 0.0
C2037 C 0.19502 0.13446 0.39326 0.0
C2038 C 0.18582 0.13269 0.36959 0.0
C2039 C 0.19743 0.14484 0.35043 0.0
C2040 C 0.21818 0.15887 0.35495 0.0
C2041 C 0.35679 0.15509 0.38036 0.0
C2042 C 0.36019 0.14598 0.35662 0.0
C2043 C 0.33521 0.16686 0.38693 0.0
C2044 C 0.31659 0.17069 0.36979 0.0
C2045 C 0.32023 0.16249 0.34574 0.0
C2046 C 0.34184 0.15031 0.3392 0.0
C2047 C 0.29292 0.18175 0.37766 0.0
C2048 C 0.27119 0.16916 0.37274 0.0
C2049 C 0.29187 0.20309 0.39229 0.0
C2050 C 0.31371 0.21824 0.39709 0.0
C2051 C 0.32813 0.22678 0.37773 0.0
C2052 C 0.34889 0.24076 0.3824 0.0
C2053 C 0.35534 0.24643 0.40637 0.0
C2054 C 0.34102 0.23817 0.42572 0.0
C2055 C 0.32026 0.22416 0.42115 0.0
H2056 H 0.37143 0.25725 0.40995 0.0
H2057 H 0.16974 0.12184 0.36607 0.0
H2058 H 0.08594 0.12265 0.63585 0.0
H2059 H 0.07024 0.08294 0.64862 0.0
H2060 H 0.10327 0.0491 0.58594 0.0
H2061 H 0.11975 0.08905 0.57325 0.0
H2062 H 0.05157 0.03123 0.60331 0.0
H2063 H 0.13484 0.04226 0.62854 0.0
H2064 H 0.16877 0.06602 0.64589 0.0
H2065 H 0.13008 0.07268 0.71353 0.0
H2066 H 0.09568 0.04936 0.69637 0.0
H2067 H 0.05265 0.91188 0.664 0.0
H2068 H 0.06333 0.94762 0.639 0.0
H2069 H 0.04727 0.9951 0.69956 0.0
H2070 H 0.03521 0.95988 0.72395 0.0
H2071 H 0.09288 1.00344 0.67895 0.0
H2072 H 0.00985 0.99342 0.65475 0.0
H2073 H 0.97348 0.97366 0.63735 0.0
H2074 H 0.00973 0.96648 0.56847 0.0
H2075 H 0.04658 0.98567 0.58561 0.0
C2076 C 0.08954 0.10686 0.62449 0.0
C2077 C 0.10444 0.10894 0.60374 0.0
C2078 C 0.08046 0.08418 0.63179 0.0
C2079 C 0.0858 0.06305 0.61839 0.0
C2080 C 0.09893 0.06524 0.59652 0.0
C2081 C 0.10826 0.08806 0.58925 0.0
C2082 C 0.08005 0.03873 0.6291 0.0
C2083 C 0.06093 0.02477 0.6195 0.0
C2084 C 0.09187 0.03067 0.65057 0.0
C2085 C 0.11263 0.04431 0.6611 0.0
C2086 C 0.13349 0.04899 0.64704 0.0
C2087 C 0.15281 0.06235 0.65684 0.0
C2088 C 0.15156 0.07092 0.68078 0.0
C2089 C 0.13101 0.06607 0.69498 0.0
C2090 C 0.1116 0.05278 0.68523 0.0
C2091 C 0.05087 0.92997 0.67178 0.0
C2092 C 0.04315 0.93298 0.69603 0.0
C2093 C 0.05713 0.95036 0.65752 0.0
C2094 C 0.05613 0.97404 0.66743 0.0
C2095 C 0.04826 0.97702 0.69154 0.0
C2096 C 0.04154 0.9568 0.70554 0.0
C2097 C 0.06423 0.99579 0.65329 0.0
C2098 C 0.08379 0.00944 0.66242 0.0
C2099 C 0.05272 1.00346 0.63145 0.0
C2100 C 0.03109 0.99071 0.62155 0.0
C2101 C 0.01025 0.98723 0.63602 0.0
C2102 C 0.9895 0.97625 0.62617 0.0
C2103 C 0.98928 0.96897 0.60179 0.0
C2104 C 0.00993 0.97223 0.58732 0.0
C2105 C 0.03076 0.9831 0.59711 0.0
H2106 H 0.97309 0.96086 0.59407 0.0
H2107 H 0.16654 0.08126 0.68834 0.0
H2108 H 0.12712 0.83591 0.89254 0.0
H2109 H 0.16709 0.82105 0.90517 0.0
H2110 H 0.2003 0.85944 0.84518 0.0
H2111 H 0.15996 0.87469 0.83244 0.0
H2112 H 0.22223 0.81273 0.85492 0.0
H2113 H 0.20136 0.88592 0.89808 0.0
H2114 H 0.17459 0.91269 0.92234 0.0
H2115 H 0.17384 0.85962 0.98011 0.0
H2116 H 0.20028 0.83233 0.95598 0.0
H2117 H 0.33653 0.82956 0.93099 0.0
H2118 H 0.29854 0.84253 0.91083 0.0
H2119 H 0.26515 0.77401 0.93042 0.0
H2120 H 0.30319 0.76066 0.94977 0.0
H2121 H 0.24552 0.83803 0.93863 0.0
H2122 H 0.25763 0.76134 0.88866 0.0
H2123 H 0.28531 0.73548 0.86436 0.0
H2124 H 0.30377 0.79735 0.81975 0.0
H2125 H 0.2766 0.82366 0.84427 0.0
C2126 C 0.14286 0.84103 0.88182 0.0
C2127 C 0.14035 0.85685 0.8617 0.0
C2128 C 0.16574 0.83247 0.88907 0.0
C2129 C 0.18681 0.83948 0.87644 0.0
C2130 C 0.18431 0.85388 0.85529 0.0
C2131 C 0.16125 0.86253 0.84798 0.0
C2132 C 0.21127 0.83316 0.88663 0.0
C2133 C 0.22731 0.81845 0.87314 0.0
C2134 C 0.21814 0.84051 0.91044 0.0
C2135 C 0.20262 0.85702 0.92516 0.0
C2136 C 0.19535 0.8799 0.91589 0.0
C2137 C 0.18025 0.89517 0.92962 0.0
C2138 C 0.17248 0.88784 0.95273 0.0
C2139 C 0.17985 0.86526 0.96219 0.0
C2140 C 0.19491 0.84989 0.94851 0.0
C2141 C 0.32112 0.81723 0.93077 0.0
C2142 C 0.32284 0.79405 0.94178 0.0
C2143 C 0.29949 0.82462 0.91925 0.0
C2144 C 0.27919 0.80903 0.91871 0.0
C2145 C 0.28078 0.78606 0.93005 0.0
C2146 C 0.30249 0.77849 0.94115 0.0
C2147 C 0.25599 0.81712 0.9072 0.0
C2148 C 0.24032 0.83235 0.92042 0.0
C2149 C 0.24944 0.8102 0.88327 0.0
C2150 C 0.26549 0.79447 0.86848 0.0
C2151 C 0.26786 0.76946 0.87387 0.0
C2152 C 0.2834 0.75472 0.86005 0.0
C2153 C 0.29638 0.76479 0.84058 0.0
C2154 C 0.2938 0.7896 0.83489 0.0
C2155 C 0.27837 0.80443 0.84877 0.0
H2156 H 0.30837 0.75335 0.82986 0.0
H2157 H 0.16077 0.89969 0.96333 0.0
H2158 H 0.45353 0.09709 0.15808 0.0
H2159 H 0.44271 0.06301 0.1312 0.0
H2160 H 0.45071 0.01268 0.19139 0.0
H2161 H 0.46365 0.04608 0.21734 0.0
H2162 H 0.46698 0.99114 0.15521 0.0
H2163 H 0.39143 0.03551 0.16684 0.0
H2164 H 0.36401 0.07133 0.16547 0.0
H2165 H 0.37667 0.07896 0.08871 0.0
H2166 H 0.40396 0.04301 0.08955 0.0
H2167 H 0.38456 0.89629 0.12004 0.0
H2168 H 0.40544 0.93116 0.13875 0.0
H2169 H 0.41413 0.96428 0.06795 0.0
H2170 H 0.39367 0.92897 0.04909 0.0
H2171 H 0.39235 0.99535 0.10443 0.0
H2172 H 0.46282 0.94514 0.09367 0.0
H2173 H 0.48746 0.9075 0.09662 0.0
H2174 H 0.48234 0.90962 0.17465 0.0
H2175 H 0.45732 0.94707 0.17215 0.0
C2176 C 0.45316 0.07872 0.16548 0.0
C2177 C 0.45885 0.07448 0.1901 0.0
C2178 C 0.44668 0.0592 0.15015 0.0
C2179 C 0.44519 0.0351 0.15926 0.0
C2180 C 0.4515 0.03093 0.18372 0.0
C2181 C 0.45857 0.05024 0.19876 0.0
C2182 C 0.43712 0.01409 0.14366 0.0
C2183 C 0.4505 0.99212 0.14434 0.0
C2184 C 0.41601 0.01518 0.12878 0.0
C2185 C 0.39988 0.03684 0.12831 0.0
C2186 C 0.38847 0.04496 0.14973 0.0
C2187 C 0.37296 0.06525 0.14904 0.0
C2188 C 0.36879 0.07755 0.1271 0.0
C2189 C 0.37998 0.06947 0.10572 0.0
C2190 C 0.39539 0.0491 0.10625 0.0
C2191 C 0.39137 0.91081 0.10846 0.0
C2192 C 0.38764 0.90993 0.08314 0.0
C2193 C 0.40328 0.93071 0.11914 0.0
C2194 C 0.41138 0.95035 0.10476 0.0
C2195 C 0.40808 0.94931 0.07938 0.0
C2196 C 0.39655 0.92912 0.06861 0.0
C2197 C 0.42188 0.97248 0.11658 0.0
C2198 C 0.40894 0.99458 0.11517 0.0
C2199 C 0.44312 0.97136 0.13113 0.0
C2200 C 0.45803 0.94878 0.13271 0.0
C2201 C 0.46675 0.93744 0.11145 0.0
C2202 C 0.48082 0.91617 0.11304 0.0
C2203 C 0.48642 0.90614 0.1358 0.0
C2204 C 0.47797 0.91739 0.15703 0.0
C2205 C 0.46386 0.93865 0.15554 0.0
H2206 H 0.49735 0.88968 0.137 0.0
H2207 H 0.35679 0.09327 0.12665 0.0
H2208 H 0.82884 0.36269 0.69584 0.0
H2209 H 0.79175 0.34645 0.67662 0.0
H2210 H 0.8352 0.31699 0.61808 0.0
H2211 H 0.87187 0.33379 0.63684 0.0
H2212 H 0.80146 0.34394 0.60032 0.0
H2213 H 0.80305 0.28091 0.6606 0.0
H2214 H 0.80355 0.26287 0.70178 0.0
H2215 H 0.7352 0.29752 0.71796 0.0
H2216 H 0.73453 0.31619 0.67703 0.0
H2217 H 0.70849 0.28947 0.53044 0.0
H2218 H 0.74418 0.29849 0.55504 0.0
H2219 H 0.69778 0.31817 0.6154 0.0
H2220 H 0.66189 0.30751 0.59111 0.0
H2221 H 0.73267 0.29595 0.63362 0.0
H2222 H 0.73814 0.36724 0.57809 0.0
H2223 H 0.74296 0.39088 0.54005 0.0
H2224 H 0.79874 0.34125 0.51615 0.0
H2225 H 0.79493 0.31798 0.55454 0.0
C2226 C 0.83043 0.3521 0.67925 0.0
C2227 C 0.85317 0.34944 0.66779 0.0
C2228 C 0.80924 0.3428 0.66826 0.0
C2229 C 0.81055 0.33045 0.64579 0.0
C2230 C 0.83357 0.32651 0.6353 0.0
C2231 C 0.85457 0.336 0.64608 0.0
C2232 C 0.78814 0.3243 0.63153 0.0
C2233 C 0.78662 0.33305 0.60759 0.0
C2234 C 0.76824 0.31093 0.64108 0.0
C2235 C 0.76889 0.30017 0.66585 0.0
C2236 C 0.78828 0.28494 0.67305 0.0
C2237 C 0.78856 0.27455 0.69632 0.0
C2238 C 0.76945 0.2791 0.7125 0.0
C2239 C 0.75002 0.29406 0.70543 0.0
C2240 C 0.74969 0.30456 0.6822 0.0
C2241 C 0.70583 0.29583 0.54892 0.0
C2242 C 0.68226 0.29784 0.55875 0.0
C2243 C 0.72638 0.30133 0.56299 0.0
C2244 C 0.724 0.30978 0.58709 0.0
C2245 C 0.70037 0.31179 0.59692 0.0
C2246 C 0.67977 0.30573 0.58298 0.0
C2247 C 0.74605 0.31556 0.60226 0.0
C2248 C 0.74751 0.3068 0.62638 0.0
C2249 C 0.76606 0.329 0.59301 0.0
C2250 C 0.76597 0.34075 0.56885 0.0
C2251 C 0.75112 0.3612 0.56451 0.0
C2252 C 0.75392 0.3747 0.54307 0.0
C2253 C 0.77112 0.36754 0.52568 0.0
C2254 C 0.78546 0.34678 0.52963 0.0
C2255 C 0.78312 0.33355 0.55127 0.0
H2256 H 0.77333 0.37809 0.50914 0.0
H2257 H 0.76966 0.27096 0.73048 0.0
H2258 H 0.99747 0.45173 0.80205 0.0
H2259 H 0.9862 0.49043 0.82138 0.0
H2260 H 0.9222 0.4563 0.85182 0.0
H2261 H 0.93294 0.41789 0.83133 0.0
H2262 H 0.91005 0.49881 0.83798 0.0
H2263 H 0.97674 0.47001 0.88596 0.0
H2264 H 0.0182 0.4543 0.89356 0.0
H2265 H 0.04864 0.52006 0.8635 0.0
H2266 H 0.00736 0.53599 0.85538 0.0
H2267 H 0.88532 0.59993 0.91627 0.0
H2268 H 0.8958 0.55902 0.90173 0.0
H2269 H 0.95906 0.58819 0.86547 0.0
H2270 H 0.9497 0.6287 0.88125 0.0
H2271 H 0.97065 0.54667 0.88491 0.0
H2272 H 0.90207 0.57375 0.83556 0.0
H2273 H 0.85995 0.58824 0.82923 0.0
H2274 H 0.83245 0.5239 0.86471 0.0
H2275 H 0.87442 0.5092 0.8715 0.0
C2276 C 0.98104 0.45256 0.81294 0.0
C2277 C 0.96607 0.43191 0.81526 0.0
C2278 C 0.97464 0.47464 0.82413 0.0
C2279 C 0.95357 0.47634 0.83862 0.0
C2280 C 0.93857 0.45559 0.84085 0.0
C2281 C 0.94472 0.43363 0.82921 0.0
C2282 C 0.94701 0.49978 0.85111 0.0
C2283 C 0.92326 0.50902 0.84857 0.0
C2284 C 0.96415 0.51349 0.86476 0.0
C2285 C 0.98898 0.5041 0.86991 0.0
C2286 C 0.99229 0.48106 0.88086 0.0
C2287 C 0.01575 0.47212 0.88526 0.0
C2288 C 0.03605 0.48615 0.87898 0.0
C2289 C 0.03291 0.50919 0.86834 0.0
C2290 C 0.00949 0.5182 0.86386 0.0
C2291 C 0.90169 0.59766 0.90554 0.0
C2292 C 0.91646 0.61794 0.89979 0.0
C2293 C 0.9075 0.57419 0.89691 0.0
C2294 C 0.92797 0.57043 0.88197 0.0
C2295 C 0.94305 0.59049 0.87677 0.0
C2296 C 0.93746 0.61383 0.88561 0.0
C2297 C 0.9338 0.54581 0.87151 0.0
C2298 C 0.95743 0.53635 0.87445 0.0
C2299 C 0.91647 0.53174 0.85851 0.0
C2300 C 0.89132 0.54052 0.85423 0.0
C2301 C 0.88702 0.56279 0.84212 0.0
C2302 C 0.86318 0.57102 0.83844 0.0
C2303 C 0.84353 0.55703 0.84661 0.0
C2304 C 0.84767 0.53474 0.85842 0.0
C2305 C 0.87147 0.52644 0.86217 0.0
H2306 H 0.82509 0.56344 0.84376 0.0
H2307 H 0.0542 0.47919 0.8824 0.0
H2308 H 0.82974 0.67305 0.06593 0.0
H2309 H 0.7937 0.66009 0.0885 0.0
H2310 H 0.76172 0.73154 0.07815 0.0
H2311 H 0.79793 0.74456 0.0557 0.0
H2312 H 0.75589 0.7204 0.12226 0.0
H2313 H 0.72498 0.67212 0.05203 0.0
H2314 H 0.72295 0.64105 0.01953 0.0
H2315 H 0.76137 0.58992 0.06507 0.0
H2316 H 0.76261 0.62045 0.09819 0.0
H2317 H 0.64542 0.68239 0.18167 0.0
H2318 H 0.67347 0.69668 0.14964 0.0
H2319 H 0.71581 0.63056 0.15791 0.0
H2320 H 0.68766 0.61619 0.18907 0.0
H2321 H 0.71309 0.64132 0.11234 0.0
H2322 H 0.73083 0.68799 0.18529 0.0
H2323 H 0.72124 0.71675 0.21854 0.0
H2324 H 0.70373 0.77257 0.16618 0.0
H2325 H 0.71289 0.74401 0.13264 0.0
C2326 C 0.8148 0.68582 0.06797 0.0
C2327 C 0.81669 0.70977 0.05877 0.0
C2328 C 0.79403 0.67835 0.08085 0.0
C2329 C 0.77452 0.69462 0.08483 0.0
C2330 C 0.77634 0.7185 0.07539 0.0
C2331 C 0.79714 0.72599 0.06257 0.0
C2332 C 0.7534 0.68754 0.10068 0.0
C2333 C 0.74632 0.70325 0.11973 0.0
C2334 C 0.74087 0.66509 0.09809 0.0
C2335 C 0.74443 0.64866 0.0772 0.0
C2336 C 0.73345 0.65442 0.05484 0.0
C2337 C 0.732 0.63677 0.03654 0.0
C2338 C 0.74201 0.61352 0.04023 0.0
C2339 C 0.7536 0.60791 0.06223 0.0
C2340 C 0.75458 0.62533 0.0808 0.0
C2341 C 0.66032 0.67068 0.17603 0.0
C2342 C 0.6643 0.64812 0.18771 0.0
C2343 C 0.67659 0.67901 0.15805 0.0
C2344 C 0.69716 0.66496 0.15164 0.0
C2345 C 0.70025 0.64187 0.16249 0.0
C2346 C 0.68406 0.63358 0.18025 0.0
C2347 C 0.71588 0.67393 0.13398 0.0
C2348 C 0.72259 0.65856 0.11472 0.0
C2349 C 0.72784 0.69676 0.13635 0.0
C2350 C 0.72228 0.71381 0.1565 0.0
C2351 C 0.72474 0.70634 0.1809 0.0
C2352 C 0.71942 0.72261 0.19978 0.0
C2353 C 0.71183 0.74646 0.19448 0.0
C2354 C 0.70957 0.75409 0.17027 0.0
C2355 C 0.71483 0.73788 0.15132 0.0
H2356 H 0.70775 0.75904 0.20913 0.0
H2357 H 0.74095 0.59991 0.02598 0.0
H2358 H 0.62111 0.40591 0.41942 0.0
H2359 H 0.60691 0.44709 0.40779 0.0
H2360 H 0.55714 0.41507 0.35612 0.0
H2361 H 0.57108 0.37431 0.36761 0.0
H2362 H 0.58584 0.44794 0.33492 0.0
H2363 H 0.53723 0.44283 0.4074 0.0
H2364 H 0.53035 0.4378 0.4515 0.0
H2365 H 0.57363 0.50154 0.46583 0.0
H2366 H 0.58117 0.50666 0.42182 0.0
H2367 H 0.50374 0.56178 0.32507 0.0
H2368 H 0.51604 0.52379 0.34542 0.0
H2369 H 0.59085 0.53749 0.32625 0.0
H2370 H 0.57897 0.57624 0.30721 0.0
H2371 H 0.55038 0.51489 0.38441 0.0
H2372 H 0.61323 0.48033 0.30802 0.0
H2373 H 0.61635 0.4755 0.26346 0.0
H2374 H 0.53901 0.48526 0.25661 0.0
H2375 H 0.53549 0.49023 0.30114 0.0
C2376 C 0.60676 0.40771 0.40598 0.0
C2377 C 0.5975 0.38686 0.39414 0.0
C2378 C 0.59867 0.43124 0.39933 0.0
C2379 C 0.58108 0.43423 0.3809 0.0
C2380 C 0.57089 0.41331 0.37019 0.0
C2381 C 0.57893 0.38998 0.37675 0.0
C2382 C 0.5747 0.4588 0.37084 0.0
C2383 C 0.57831 0.46264 0.34588 0.0
C2384 C 0.56465 0.47796 0.38497 0.0
C2385 C 0.56 0.47496 0.41136 0.0
C2386 C 0.54548 0.45563 0.41998 0.0
C2387 C 0.54143 0.45278 0.44495 0.0
C2388 C 0.5516 0.4693 0.46147 0.0
C2389 C 0.5658 0.48873 0.45303 0.0
C2390 C 0.56997 0.49161 0.42808 0.0
C2391 C 0.52287 0.55689 0.32535 0.0
C2392 C 0.54027 0.57188 0.31384 0.0
C2393 C 0.52985 0.53511 0.33699 0.0
C2394 C 0.55432 0.5276 0.33709 0.0
C2395 C 0.57181 0.54271 0.32609 0.0
C2396 C 0.56491 0.56477 0.31494 0.0
C2397 C 0.56156 0.50386 0.34845 0.0
C2398 C 0.55827 0.50028 0.37362 0.0
C2399 C 0.57176 0.48469 0.33453 0.0
C2400 C 0.57417 0.48594 0.30778 0.0
C2401 C 0.59698 0.48189 0.29691 0.0
C2402 C 0.59879 0.47892 0.27172 0.0
C2403 C 0.57786 0.47976 0.25727 0.0
C2404 C 0.55517 0.48442 0.26788 0.0
C2405 C 0.55329 0.48757 0.29306 0.0
H2406 H 0.57927 0.47696 0.23782 0.0
H2407 H 0.54843 0.46707 0.4808 0.0
H2408 H 0.33507 0.3477 0.13443 0.0
H2409 H 0.35174 0.30812 0.14727 0.0
H2410 H 0.38324 0.34198 0.21075 0.0
H2411 H 0.36611 0.3813 0.19857 0.0
H2412 H 0.41632 0.31416 0.1872 0.0
H2413 H 0.33476 0.3052 0.21621 0.0
H2414 H 0.28996 0.30477 0.21335 0.0
H2415 H 0.29357 0.24702 0.1605 0.0
H2416 H 0.33845 0.24739 0.16276 0.0
H2417 H 0.43965 0.19961 0.25495 0.0
H2418 H 0.4186 0.23789 0.24496 0.0
H2419 H 0.41566 0.21683 0.16944 0.0
H2420 H 0.43482 0.17757 0.17961 0.0
H2421 H 0.36865 0.23822 0.2 0.0
H2422 H 0.45049 0.28377 0.16048 0.0
H2423 H 0.49507 0.28778 0.16447 0.0
H2424 H 0.48988 0.27404 0.24134 0.0
H2425 H 0.4452 0.27137 0.23795 0.0
C2426 C 0.34516 0.3467 0.15136 0.0
C2427 C 0.34939 0.36793 0.16528 0.0
C2428 C 0.35478 0.32402 0.15863 0.0
C2429 C 0.36884 0.32204 0.17997 0.0
C2430 C 0.37266 0.34304 0.19411 0.0
C2431 C 0.36293 0.36561 0.18699 0.0
C2432 C 0.3804 0.2984 0.18721 0.0
C2433 C 0.40578 0.29765 0.19015 0.0
C2434 C 0.36684 0.2767 0.19095 0.0
C2435 C 0.33993 0.27652 0.18945 0.0
C2436 C 0.326 0.29258 0.2038 0.0
C2437 C 0.30059 0.29232 0.20232 0.0
C2438 C 0.28892 0.27593 0.1867 0.0
C2439 C 0.30263 0.25974 0.17256 0.0
C2440 C 0.32805 0.25996 0.17393 0.0
C2441 C 0.43452 0.20307 0.23619 0.0
C2442 C 0.43976 0.18584 0.21791 0.0
C2443 C 0.42271 0.22509 0.23049 0.0
C2444 C 0.4164 0.2306 0.20632 0.0
C2445 C 0.42094 0.2132 0.18812 0.0
C2446 C 0.43222 0.1909 0.19391 0.0
C2447 C 0.4044 0.25421 0.20014 0.0
C2448 C 0.37904 0.25484 0.19711 0.0
C2449 C 0.41787 0.27593 0.19663 0.0
C2450 C 0.44466 0.27654 0.19882 0.0
C2451 C 0.45893 0.28148 0.17819 0.0
C2452 C 0.48416 0.28382 0.1804 0.0
C2453 C 0.49532 0.28096 0.20312 0.0
C2454 C 0.48124 0.27602 0.22372 0.0
C2455 C 0.45594 0.27412 0.22167 0.0
H2456 H 0.51487 0.28271 0.20478 0.0
H2457 H 0.26924 0.27573 0.18561 0.0
H2458 H 0.90793 0.33984 0.80081 0.0
H2459 H 0.88254 0.30371 0.80864 0.0
H2460 H 0.94458 0.25696 0.79548 0.0
H2461 H 0.96913 0.29246 0.78592 0.0
H2462 H 0.90767 0.23747 0.77538 0.0
H2463 H 0.91927 0.2733 0.85792 0.0
H2464 H 0.91412 0.30615 0.88836 0.0
H2465 H 0.83736 0.30842 0.87383 0.0
H2466 H 0.84198 0.27524 0.8437 0.0
H2467 H 0.89111 0.12674 0.83468 0.0
H2468 H 0.90191 0.16662 0.81924 0.0
H2469 H 0.83304 0.19562 0.84387 0.0
H2470 H 0.82325 0.15591 0.86214 0.0
H2471 H 0.86403 0.22715 0.85372 0.0
H2472 H 0.85001 0.18541 0.77967 0.0
H2473 H 0.85264 0.15193 0.74975 0.0
H2474 H 0.93002 0.16195 0.74468 0.0
H2475 H 0.92792 0.19523 0.77486 0.0
C2476 C 0.91603 0.32181 0.79942 0.0
C2477 C 0.94074 0.31913 0.79322 0.0
C2478 C 0.90156 0.30113 0.80418 0.0
C2479 C 0.91166 0.27742 0.80319 0.0
C2480 C 0.9362 0.27489 0.7965 0.0
C2481 C 0.9504 0.29537 0.79131 0.0
C2482 C 0.89717 0.25495 0.80888 0.0
C2483 C 0.89825 0.23518 0.79259 0.0
C2484 C 0.88362 0.25214 0.83063 0.0
C2485 C 0.88101 0.2721 0.84848 0.0
C2486 C 0.90136 0.28095 0.86118 0.0
C2487 C 0.89853 0.29958 0.87835 0.0
C2488 C 0.87552 0.30957 0.88282 0.0
C2489 C 0.8552 0.30076 0.87029 0.0
C2490 C 0.85787 0.28197 0.85327 0.0
C2491 C 0.87822 0.14155 0.83714 0.0
C2492 C 0.85647 0.138 0.85025 0.0
C2493 C 0.88425 0.16444 0.82769 0.0
C2494 C 0.86817 0.18435 0.82979 0.0
C2495 C 0.84585 0.18066 0.84188 0.0
C2496 C 0.84009 0.15778 0.85208 0.0
C2497 C 0.87563 0.20913 0.82078 0.0
C2498 C 0.8731 0.22939 0.83631 0.0
C2499 C 0.88748 0.21251 0.79806 0.0
C2500 C 0.88879 0.19278 0.77958 0.0
C2501 C 0.86759 0.18042 0.77224 0.0
C2502 C 0.869 0.16146 0.75524 0.0
C2503 C 0.89148 0.15481 0.74533 0.0
C2504 C 0.91261 0.16714 0.75235 0.0
C2505 C 0.91132 0.18608 0.76937 0.0
H2506 H 0.89253 0.14011 0.73218 0.0
H2507 H 0.87342 0.32403 0.8961 0.0
H2508 H 0.06244 0.56907 0.14669 0.0
H2509 H 0.02942 0.58982 0.1249 0.0
H2510 H 0.08134 0.61992 0.0742 0.0
H2511 H 0.11456 0.59905 0.09601 0.0
H2512 H 0.05025 0.65494 0.0918 0.0
H2513 H 0.0441 0.5772 0.05496 0.0
H2514 H 0.04151 0.53225 0.0528 0.0
H2515 H 0.97344 0.53405 0.09124 0.0
H2516 H 0.97586 0.57901 0.09404 0.0
H2517 H 0.94395 0.68331 0.00842 0.0
H2518 H 0.97939 0.65949 0.02147 0.0
H2519 H 0.95788 0.66797 0.09641 0.0
H2520 H 0.92149 0.6907 0.08351 0.0
H2521 H 0.97593 0.61366 0.06103 0.0
H2522 H 0.02275 0.69102 0.11367 0.0
H2523 H 0.03095 0.73534 0.11129 0.0
H2524 H 0.02207 0.73331 0.03359 0.0
H2525 H 0.0143 0.68894 0.03549 0.0
C2526 C 0.0668 0.57995 0.13077 0.0
C2527 C 0.09109 0.58249 0.1231 0.0
C2528 C 0.0479 0.59171 0.11826 0.0
C2529 C 0.05286 0.60641 0.09788 0.0
C2530 C 0.07708 0.60866 0.08988 0.0
C2531 C 0.09601 0.59661 0.10224 0.0
C2532 C 0.03281 0.62023 0.08575 0.0
C2533 C 0.03407 0.64584 0.08499 0.0
C2534 C 0.01182 0.60846 0.07645 0.0
C2535 C 0.01028 0.58145 0.07491 0.0
C2536 C 0.0287 0.56799 0.06316 0.0
C2537 C 0.02724 0.54251 0.06179 0.0
C2538 C 0.00735 0.53029 0.07192 0.0
C2539 C 0.98886 0.54354 0.08343 0.0
C2540 C 0.99026 0.56902 0.08491 0.0
C2541 C 0.94657 0.68004 0.02771 0.0
C2542 C 0.93001 0.68941 0.04496 0.0
C2543 C 0.96694 0.66648 0.0351 0.0
C2544 C 0.97146 0.66236 0.05989 0.0
C2545 C 0.95487 0.67129 0.07718 0.0
C2546 C 0.93416 0.68439 0.06978 0.0
C2547 C 0.99322 0.64826 0.06776 0.0
C2548 C 0.99217 0.62263 0.06785 0.0
C2549 C 0.01465 0.65995 0.07591 0.0
C2550 C 0.01754 0.6868 0.07479 0.0
C2551 C 0.02238 0.7001 0.09611 0.0
C2552 C 0.0271 0.72518 0.09483 0.0
C2553 C 0.02715 0.73709 0.0723 0.0
C2554 C 0.02205 0.72404 0.05103 0.0
C2555 C 0.01737 0.69895 0.05221 0.0
H2556 H 0.03118 0.75643 0.07132 0.0
H2557 H 0.00623 0.51056 0.07081 0.0
H2558 H 0.64874 0.87399 0.3022 0.0
H2559 H 0.63025 0.83444 0.29354 0.0
H2560 H 0.64258 0.81179 0.36779 0.0
H2561 H 0.66075 0.85175 0.37686 0.0
H2562 H 0.65283 0.77469 0.33334 0.0
H2563 H 0.58747 0.83042 0.35204 0.0
H2564 H 0.56414 0.86878 0.34777 0.0
H2565 H 0.55066 0.85268 0.2724 0.0
H2566 H 0.57426 0.8144 0.27614 0.0
H2567 H 0.57374 0.67167 0.32554 0.0
H2568 H 0.59438 0.70931 0.33796 0.0
H2569 H 0.57324 0.74347 0.27017 0.0
H2570 H 0.55129 0.70642 0.25855 0.0
H2571 H 0.56728 0.77468 0.3041 0.0
H2572 H 0.63309 0.72102 0.2831 0.0
H2573 H 0.65715 0.68292 0.28507 0.0
H2574 H 0.67112 0.69518 0.36108 0.0
H2575 H 0.64679 0.73316 0.35963 0.0
C2576 C 0.64746 0.86072 0.31681 0.0
C2577 C 0.65591 0.86635 0.34038 0.0
C2578 C 0.63696 0.83801 0.31176 0.0
C2579 C 0.63466 0.82025 0.33009 0.0
C2580 C 0.64409 0.82525 0.35336 0.0
C2581 C 0.65455 0.8481 0.35849 0.0
C2582 C 0.62155 0.79694 0.32501 0.0
C2583 C 0.63402 0.77463 0.32727 0.0
C2584 C 0.59719 0.79684 0.31652 0.0
C2585 C 0.58277 0.81967 0.31433 0.0
C2586 C 0.57966 0.83515 0.33452 0.0
C2587 C 0.56638 0.85687 0.3322 0.0
C2588 C 0.55596 0.86319 0.30981 0.0
C2589 C 0.55876 0.84777 0.28972 0.0
C2590 C 0.57206 0.82606 0.29194 0.0
C2591 C 0.57334 0.68733 0.31344 0.0
C2592 C 0.56062 0.68623 0.29126 0.0
C2593 C 0.58541 0.70876 0.32039 0.0
C2594 C 0.58571 0.72931 0.30491 0.0
C2595 C 0.5733 0.728 0.28253 0.0
C2596 C 0.56092 0.70671 0.27578 0.0
C2597 C 0.59864 0.75227 0.31198 0.0
C2598 C 0.58609 0.7746 0.31018 0.0
C2599 C 0.62305 0.75238 0.32049 0.0
C2600 C 0.63796 0.72978 0.32131 0.0
C2601 C 0.64119 0.71551 0.30026 0.0
C2602 C 0.65487 0.69394 0.30128 0.0
C2603 C 0.66562 0.68661 0.3232 0.0
C2604 C 0.66276 0.70086 0.34412 0.0
C2605 C 0.64904 0.72241 0.34322 0.0
H2606 H 0.6762 0.6699 0.32396 0.0
H2607 H 0.54569 0.88002 0.30805 0.0
H2608 H 0.55016 0.30431 0.51467 0.0
H2609 H 0.51325 0.32513 0.5281 0.0
H2610 H 0.55182 0.35326 0.59065 0.0
H2611 H 0.5885 0.33085 0.57788 0.0
H2612 H 0.51001 0.34253 0.60488 0.0
H2613 H 0.53578 0.38927 0.53653 0.0
H2614 H 0.54943 0.39699 0.49443 0.0
H2615 H 0.48225 0.36793 0.46687 0.0
H2616 H 0.46831 0.35979 0.5088 0.0
H2617 H 0.41074 0.42223 0.63247 0.0
H2618 H 0.45138 0.41084 0.61734 0.0
H2619 H 0.41839 0.36355 0.56392 0.0
H2620 H 0.37795 0.37478 0.57902 0.0
H2621 H 0.45932 0.38893 0.54579 0.0
H2622 H 0.43661 0.33987 0.61629 0.0
H2623 H 0.42367 0.33516 0.65906 0.0
H2624 H 0.48767 0.3733 0.68301 0.0
H2625 H 0.50077 0.37853 0.64031 0.0
C2626 C 0.55074 0.315 0.53127 0.0
C2627 C 0.57218 0.31616 0.54518 0.0
C2628 C 0.52965 0.32712 0.53886 0.0
C2629 C 0.52972 0.34155 0.56006 0.0
C2630 C 0.55118 0.34246 0.57414 0.0
C2631 C 0.57217 0.32971 0.56687 0.0
C2632 C 0.50724 0.35508 0.56771 0.0
C2633 C 0.49931 0.35308 0.59196 0.0
C2634 C 0.49284 0.36879 0.55103 0.0
C2635 C 0.50107 0.3738 0.5258 0.0
C2636 C 0.52398 0.38442 0.52148 0.0
C2637 C 0.53176 0.38888 0.49765 0.0
C2638 C 0.51674 0.38293 0.47799 0.0
C2639 C 0.49387 0.37254 0.48211 0.0
C2640 C 0.486 0.36804 0.50591 0.0
C2641 C 0.4122 0.4099 0.61711 0.0
C2642 C 0.39121 0.39929 0.607 0.0
C2643 C 0.43541 0.40327 0.60857 0.0
C2644 C 0.43796 0.3861 0.58965 0.0
C2645 C 0.41692 0.37679 0.57852 0.0
C2646 C 0.39382 0.38317 0.58721 0.0
C2647 C 0.4623 0.37615 0.58273 0.0
C2648 C 0.47041 0.37871 0.55865 0.0
C2649 C 0.47714 0.3634 0.59961 0.0
C2650 C 0.46952 0.35978 0.62519 0.0
C2651 C 0.44783 0.34735 0.6307 0.0
C2652 C 0.44048 0.34459 0.6549 0.0
C2653 C 0.45481 0.35397 0.67374 0.0
C2654 C 0.47657 0.36607 0.6684 0.0
C2655 C 0.48397 0.36893 0.64422 0.0
H2656 H 0.44908 0.35183 0.69248 0.0
H2657 H 0.5228 0.38639 0.45955 0.0
H2658 H 0.19684 0.67335 0.64756 0.0
H2659 H 0.1782 0.71055 0.66452 0.0
H2660 H 0.1097 0.6726 0.67148 0.0
H2661 H 0.12811 0.63582 0.65429 0.0
H2662 H 0.10296 0.71343 0.64823 0.0
H2663 H 0.14444 0.68942 0.72119 0.0
H2664 H 0.17968 0.67788 0.74662 0.0
H2665 H 0.21304 0.74737 0.73205 0.0
H2666 H 0.17815 0.75916 0.7062 0.0
H2667 H 0.06155 0.80447 0.74759 0.0
H2668 H 0.08379 0.76839 0.73345 0.0
H2669 H 0.09356 0.80232 0.66318 0.0
H2670 H 0.0709 0.83839 0.67717 0.0
H2671 H 0.13075 0.76464 0.71729 0.0
H2672 H 0.09021 0.77298 0.62847 0.0
H2673 H 0.05271 0.77734 0.60393 0.0
H2674 H 0.01439 0.73095 0.65411 0.0
H2675 H 0.0515 0.72713 0.67934 0.0
C2676 C 0.17798 0.67288 0.6533 0.0
C2677 C 0.16384 0.65182 0.6495 0.0
C2678 C 0.16732 0.69412 0.66293 0.0
C2679 C 0.14246 0.69445 0.66914 0.0
C2680 C 0.12881 0.67292 0.6666 0.0
C2681 C 0.13936 0.65188 0.65687 0.0
C2682 C 0.12995 0.71746 0.67646 0.0
C2683 C 0.1092 0.72461 0.66331 0.0
C2684 C 0.13785 0.73214 0.69614 0.0
C2685 C 0.15885 0.72505 0.71155 0.0
C2686 C 0.15941 0.70214 0.72322 0.0
C2687 C 0.1793 0.69557 0.73774 0.0
C2688 C 0.19863 0.71185 0.74089 0.0
C2689 C 0.19809 0.73476 0.72955 0.0
C2690 C 0.17826 0.74139 0.71497 0.0
C2691 C 0.06837 0.80421 0.72908 0.0
C2692 C 0.06426 0.82412 0.71337 0.0
C2693 C 0.08102 0.78354 0.721 0.0
C2694 C 0.08992 0.78236 0.69707 0.0
C2695 C 0.0862 0.80243 0.68145 0.0
C2696 C 0.07343 0.82311 0.6895 0.0
C2697 C 0.10387 0.76047 0.68899 0.0
C2698 C 0.12484 0.75355 0.70202 0.0
C2699 C 0.09605 0.74568 0.66944 0.0
C2700 C 0.07328 0.75037 0.65603 0.0
C2701 C 0.07358 0.76424 0.63451 0.0
C2702 C 0.05246 0.76653 0.62046 0.0
C2703 C 0.03114 0.75451 0.6275 0.0
C2704 C 0.03087 0.74033 0.64872 0.0
C2705 C 0.05184 0.73836 0.66306 0.0
H2706 H 0.01485 0.75615 0.6165 0.0
H2707 H 0.214 0.70674 0.75217 0.0
H2708 H 0.42664 0.81473 0.92301 0.0
H2709 H 0.46338 0.8376 0.91227 0.0
H2710 H 0.48688 0.83472 0.98722 0.0
H2711 H 0.45057 0.81134 0.99787 0.0
H2712 H 0.48888 0.87956 0.97159 0.0
H2713 H 0.5228 0.80395 0.94172 0.0
H2714 H 0.52974 0.7665 0.91766 0.0
H2715 H 0.51673 0.80653 0.8515 0.0
H2716 H 0.51029 0.84433 0.87521 0.0
H2717 H 0.60644 0.92799 0.96197 0.0
H2718 H 0.57248 0.8998 0.96711 0.0
H2719 H 0.55303 0.90932 0.89152 0.0
H2720 H 0.58757 0.93744 0.88617 0.0
H2721 H 0.54776 0.8625 0.90528 0.0
H2722 H 0.52216 0.93983 0.93807 0.0
H2723 H 0.52574 0.9764 0.9641 0.0
H2724 H 0.52658 0.93092 0.02797 0.0
H2725 H 0.52339 0.89408 1.0023 0.0
C2726 C 0.43995 0.81836 0.93706 0.0
C2727 C 0.43572 0.81093 0.96124 0.0
C2728 C 0.46099 0.83151 0.9309 0.0
C2729 C 0.47812 0.8378 0.94887 0.0
C2730 C 0.47402 0.83012 0.97298 0.0
C2731 C 0.45314 0.81683 0.97908 0.0
C2732 C 0.49899 0.85433 0.94322 0.0
C2733 C 0.50187 0.87559 0.95724 0.0
C2734 C 0.51566 0.84983 0.92408 0.0
C2735 C 0.51576 0.82677 0.91018 0.0
C2736 C 0.52101 0.80462 0.92207 0.0
C2737 C 0.52525 0.78346 0.90849 0.0
C2738 C 0.52389 0.78421 0.88305 0.0
C2739 C 0.51791 0.80602 0.87117 0.0
C2740 C 0.51405 0.82732 0.88466 0.0
C2741 C 0.59499 0.92403 0.94639 0.0
C2742 C 0.59945 0.93523 0.92376 0.0
C2743 C 0.57549 0.90797 0.94938 0.0
C2744 C 0.55969 0.90297 0.92991 0.0
C2745 C 0.56479 0.91313 0.9069 0.0
C2746 C 0.58455 0.92912 0.90383 0.0
C2747 C 0.53777 0.88739 0.93386 0.0
C2748 C 0.53457 0.86652 0.91945 0.0
C2749 C 0.52096 0.89209 0.95285 0.0
C2750 C 0.52266 0.91423 0.96827 0.0
C2751 C 0.52325 0.93765 0.95766 0.0
C2752 C 0.5252 0.95841 0.97235 0.0
C2753 C 0.52639 0.95596 0.99766 0.0
C2754 C 0.52565 0.93277 0.00836 0.0
C2755 C 0.52374 0.91195 0.99376 0.0
H2756 H 0.52779 0.97201 0.00903 0.0
H2757 H 0.52727 0.76781 0.87255 0.0
H2758 H 0.90378 0.07426 0.46046 0.0
H2759 H 0.93705 0.10334 0.46658 0.0
H2760 H 0.94716 0.10834 0.38883 0.0
H2761 H 0.91354 0.07926 0.38264 0.0
H2762 H 0.99044 0.09876 0.41458 0.0
H2763 H 0.92478 0.15607 0.41749 0.0
H2764 H 0.88518 0.17246 0.43099 0.0
H2765 H 0.91135 0.17584 0.50466 0.0
H2766 H 0.95099 0.15907 0.49165 0.0
H2767 H 0.08335 0.18787 0.42711 0.0
H2768 H 0.04631 0.16647 0.41488 0.0
H2769 H 0.02122 0.16744 0.48937 0.0
H2770 H 0.05738 0.19055 0.50127 0.0
H2771 H 0.98448 0.17598 0.4616 0.0
H2772 H 0.04787 0.11517 0.46058 0.0
H2773 H 0.08755 0.0978 0.44856 0.0
H2774 H 0.06592 0.09973 0.37336 0.0
H2775 H 0.02614 0.11728 0.38497 0.0
C2776 C 0.9128 0.08194 0.44466 0.0
C2777 C 0.90603 0.07462 0.42108 0.0
C2778 C 0.93181 0.09855 0.44817 0.0
C2779 C 0.94461 0.10807 0.42817 0.0
C2780 C 0.93751 0.10125 0.40452 0.0
C2781 C 0.9182 0.08484 0.40098 0.0
C2782 C 0.96615 0.12407 0.43224 0.0
C2783 C 0.98909 0.11589 0.42446 0.0
C2784 C 0.96454 0.14605 0.44573 0.0
C2785 C 0.94076 0.15613 0.45362 0.0
C2786 C 0.92201 0.16011 0.4366 0.0
C2787 C 0.89958 0.1695 0.44416 0.0
C2788 C 0.89573 0.17514 0.46867 0.0
C2789 C 0.91434 0.17144 0.48568 0.0
C2790 C 0.9368 0.16201 0.47822 0.0
C2791 C 0.06967 0.18407 0.44077 0.0
C2792 C 0.07308 0.19144 0.46505 0.0
C2793 C 0.04864 0.17141 0.43384 0.0
C2794 C 0.03095 0.16499 0.45122 0.0
C2795 C 0.03446 0.1722 0.47554 0.0
C2796 C 0.05526 0.18526 0.48237 0.0
C2797 C 0.00893 0.15055 0.44425 0.0
C2798 C 0.98588 0.15897 0.45154 0.0
C2799 C 0.01047 0.12861 0.43057 0.0
C2800 C 0.03417 0.11773 0.42361 0.0
C2801 C 0.05164 0.11199 0.44148 0.0
C2802 C 0.07414 0.10212 0.43474 0.0
C2803 C 0.07931 0.09778 0.4102 0.0
C2804 C 0.06192 0.10316 0.39236 0.0
C2805 C 0.03938 0.11302 0.399 0.0
H2806 H 0.09676 0.09018 0.40502 0.0
H2807 H 0.87835 0.18243 0.47449 0.0
loop_
_geom_bond_atom_site_label_1
_geom_bond_atom_site_label_2
_geom_bond_distance
_geom_bond_site_symmetry_2
_ccdc_geom_bond_type
Eu0 N29 2.600 . S
Eu0 N35 2.562 . S
Eu0 O44 2.462 . S
Eu0 O45 2.373 . S
Eu0 O47 2.432 . S
Eu0 O48 2.291 . S
Eu0 O52 2.335 . S
Eu0 O55 2.372 . S
Eu0 C64 2.787 . S
C1 N2 1.365 . S
C1 C4 1.405 . S
C1 C8 1.448 . S
N2 C1 1.365 . S
N2 C5 1.319 . S
N2 Eu11 2.600 . S
C3 C5 1.397 . S
C3 C6 1.367 . S
C3 H23 0.931 . S
C4 C1 1.405 . S
C4 C6 1.403 . S
C4 C10 1.439 . S
C5 N2 1.319 . S
C5 C3 1.397 . S
C5 H16 0.930 . S
C6 C3 1.367 . S
C6 C4 1.403 . S
C6 H27 0.929 1_455 S
C7 C8 1.430 . S
C7 C9 1.387 . S
C7 C13 1.404 . S
C8 C1 1.448 . S
C8 C7 1.430 . S
C8 N12 1.351 . S
C9 C7 1.387 . S
C9 C10 1.374 . S
C9 H24 0.931 . S
C10 C4 1.439 . S
C10 C9 1.374 . S
C10 H25 0.931 1_455 S
Eu11 N2 2.600 . S
Eu11 N12 2.562 . S
Eu11 O46 2.335 . S
Eu11 O49 2.372 . S
Eu11 O50 2.462 . S
Eu11 O51 2.373 . S
Eu11 O53 2.432 . S
Eu11 O54 2.291 . S
Eu11 C75 2.787 . S
N12 C8 1.351 . S
N12 Eu11 2.562 . S
N12 C14 1.325 . S
C13 C7 1.404 . S
C13 C15 1.366 . S
C13 H21 0.930 . S
C14 N12 1.325 . S
C14 C15 1.416 . S
C14 H20 0.929 . S
C15 C13 1.366 . S
C15 C14 1.416 . S
C15 H17 0.930 . S
H16 C5 0.930 . S
H17 C15 0.930 . S
H18 C33 0.930 . S
H19 C40 0.930 . S
H20 C14 0.929 . S
H21 C13 0.930 . S
H22 C36 0.929 . S
H23 C3 0.931 . S
H24 C9 0.931 . S
H25 C10 0.931 1_655 S
H26 C31 0.931 . S
H27 C6 0.929 1_655 S
H28 C39 0.930 . S
N29 Eu0 2.600 . S
N29 C30 1.365 . S
N29 C33 1.319 . S
C30 N29 1.365 . S
C30 C32 1.405 . S
C30 C38 1.448 . S
C31 H26 0.931 . S
C31 C33 1.397 . S
C31 C34 1.367 . S
C32 C30 1.405 . S
C32 C34 1.403 . S
C32 C65 1.439 . S
C33 H18 0.930 . S
C33 N29 1.319 . S
C33 C31 1.397 . S
C34 C31 1.367 . S
C34 C32 1.403 . S
C34 H41 0.929 . S
N35 Eu0 2.562 . S
N35 C36 1.325 . S
N35 C38 1.351 . S
C36 H22 0.929 . S
C36 N35 1.325 . S
C36 C40 1.416 . S
C37 C38 1.430 . S
C37 C39 1.404 . S
C37 C66 1.387 . S
C38 C30 1.448 . S
C38 N35 1.351 . S
C38 C37 1.430 . S
C39 H28 0.930 . S
C39 C37 1.404 . S
C39 C40 1.366 . S
C40 H19 0.930 . S
C40 C36 1.416 . S
C40 C39 1.366 . S
H41 C34 0.929 . S
H42 C65 0.931 . S
H43 C66 0.931 . S
O44 Eu0 2.462 . S
O44 C64 1.252 . S
O45 Eu0 2.373 . S
O45 C56 1.249 . S
O46 Eu11 2.335 . S
O46 C56 1.264 . S
O47 Eu0 2.432 . S
O47 C64 1.268 . S
O48 Eu0 2.291 . S
O48 C63 1.255 . S
O49 Eu11 2.372 . S
O49 C63 1.257 . S
O50 Eu11 2.462 . S
O50 C75 1.252 . S
O51 Eu11 2.373 . S
O51 C67 1.249 . S
O52 Eu0 2.335 . S
O52 C67 1.264 . S
O53 Eu11 2.432 . S
O53 C75 1.268 . S
O54 Eu11 2.291 . S
O54 C74 1.255 . S
O55 Eu0 2.372 . S
O55 C74 1.257 . S
C56 O45 1.249 . S
C56 O46 1.264 . S
C57 C60 1.382 . S
C57 C62 1.390 . S
C57 C64 1.506 . S
C58 C59 1.398 . S
C58 C62 1.392 . S
C59 C58 1.398 . S
C59 C61 1.372 . S
C59 H76 0.931 . S
C60 C57 1.382 . S
C60 C61 1.390 . S
C60 H77 0.931 . S
C61 C59 1.372 . S
C61 C60 1.390 . S
C61 H78 0.929 . S
C62 C57 1.390 . S
C62 C58 1.392 . S
C62 H79 0.930 . S
C63 O48 1.255 . S
C63 O49 1.257 . S
C64 Eu0 2.787 . S
C64 O44 1.252 . S
C64 O47 1.268 . S
C64 C57 1.506 . S
C65 C32 1.439 . S
C65 H42 0.931 . S
C65 C66 1.374 . S
C66 C37 1.387 . S
C66 H43 0.931 . S
C66 C65 1.374 . S
C67 O51 1.249 . S
C67 O52 1.264 . S
C68 C71 1.382 . S
C68 C72 1.390 . S
C68 C75 1.506 . S
C69 C70 1.398 . S
C69 C72 1.392 . S
C70 C69 1.398 . S
C70 C73 1.372 . S
C70 H80 0.931 . S
C71 C68 1.382 . S
C71 C73 1.390 . S
C71 H81 0.931 . S
C72 C68 1.390 . S
C72 C69 1.392 . S
C72 H82 0.930 . S
C73 C70 1.372 . S
C73 C71 1.390 . S
C73 H83 0.929 . S
C74 O54 1.255 . S
C74 O55 1.257 . S
C75 Eu11 2.787 . S
C75 O50 1.252 . S
C75 O53 1.268 . S
C75 C68 1.506 . S
H76 C59 0.931 . S
H77 C60 0.931 . S
H78 C61 0.929 . S
H79 C62 0.930 . S
H80 C70 0.931 . S
H81 C71 0.931 . S
H82 C72 0.930 . S
H83 C73 0.929 . S
Eu84 N113 2.600 . S
Eu84 N119 2.562 . S
Eu84 O128 2.462 . S
Eu84 O129 2.373 . S
Eu84 O131 2.432 . S
Eu84 O132 2.291 . S
Eu84 O136 2.335 . S
Eu84 O139 2.372 . S
Eu84 C148 2.787 . S
C85 N86 1.365 . S
C85 C88 1.405 . S
C85 C92 1.448 . S
N86 C85 1.365 . S
N86 C89 1.319 1_655 S
N86 Eu95 2.600 . S
C87 C89 1.397 . S
C87 C90 1.367 1_455 S
C87 H107 0.931 . S
C88 C85 1.405 . S
C88 C90 1.403 . S
C88 C94 1.439 . S
C89 N86 1.319 1_455 S
C89 C87 1.397 . S
C89 H100 0.930 . S
C90 C87 1.367 1_655 S
C90 C88 1.403 . S
C90 H111 0.929 . S
C91 C92 1.430 . S
C91 C93 1.387 . S
C91 C97 1.404 . S
C92 C85 1.448 . S
C92 C91 1.430 . S
C92 N96 1.351 . S
C93 C91 1.387 . S
C93 C94 1.374 . S
C93 H108 0.931 . S
C94 C88 1.439 . S
C94 C93 1.374 . S
C94 H109 0.931 . S
Eu95 N86 2.600 . S
Eu95 N96 2.562 . S
Eu95 O130 2.335 1_655 S
Eu95 O133 2.372 1_655 S
Eu95 O134 2.462 . S
Eu95 O135 2.371 1_655 S
Eu95 O137 2.432 . S
Eu95 O138 2.291 . S
Eu95 C159 2.787 . S
N96 C92 1.351 . S
N96 Eu95 2.562 . S
N96 C98 1.325 . S
C97 C91 1.404 . S
C97 C99 1.366 . S
C97 H105 0.930 . S
C98 N96 1.325 . S
C98 C99 1.416 . S
C98 H104 0.929 . S
C99 C97 1.366 . S
C99 C98 1.416 . S
C99 H101 0.930 . S
H100 C89 0.930 . S
H101 C99 0.930 . S
H102 C117 0.930 . S
H103 C124 0.930 . S
H104 C98 0.929 . S
H105 C97 0.930 . S
H106 C120 0.929 . S
H107 C87 0.931 . S
H108 C93 0.931 . S
H109 C94 0.931 . S
H110 C115 0.931 . S
H111 C90 0.929 . S
H112 C123 0.930 . S
N113 Eu84 2.600 . S
N113 C114 1.365 . S
N113 C117 1.319 . S
C114 N113 1.365 . S
C114 C116 1.405 . S
C114 C122 1.448 . S
C115 H110 0.931 . S
C115 C117 1.397 . S
C115 C118 1.367 . S
C116 C114 1.405 . S
C116 C118 1.403 . S
C116 C149 1.439 . S
C117 H102 0.930 . S
C117 N113 1.319 . S
C117 C115 1.397 . S
C118 C115 1.367 . S
C118 C116 1.403 . S
C118 H125 0.929 1_565 S
N119 Eu84 2.562 . S
N119 C120 1.325 . S
N119 C122 1.351 . S
C120 H106 0.929 . S
C120 N119 1.325 . S
C120 C124 1.416 . S
C121 C122 1.430 . S
C121 C123 1.404 . S
C121 C150 1.387 . S
C122 C114 1.448 . S
C122 N119 1.351 . S
C122 C121 1.430 . S
C123 H112 0.930 . S
C123 C121 1.404 . S
C123 C124 1.366 . S
C124 H103 0.930 . S
C124 C120 1.416 . S
C124 C123 1.366 . S
H125 C118 0.929 1_545 S
H126 C149 0.908 1_545 S
H127 C150 0.931 . S
O128 Eu84 2.462 . S
O128 C148 1.252 . S
O129 Eu84 2.373 . S
O129 C140 1.249 . S
O130 Eu95 2.335 1_455 S
O130 C140 1.264 . S
O131 Eu84 2.432 . S
O131 C148 1.268 . S
O132 Eu84 2.291 . S
O132 C147 1.255 . S
O133 Eu95 2.372 1_455 S
O133 C147 1.257 . S
O134 Eu95 2.462 . S
O134 C159 1.252 . S
O135 Eu95 2.371 1_455 S
O135 C151 1.252 . S
O136 Eu84 2.335 . S
O136 C151 1.264 . S
O137 Eu95 2.432 . S
O137 C159 1.268 . S
O138 Eu95 2.291 . S
O138 C158 1.255 . S
O139 Eu84 2.372 . S
O139 C158 1.257 1_455 S
C140 O129 1.249 . S
C140 O130 1.264 . S
C141 C144 1.382 . S
C141 C146 1.390 . S
C141 C148 1.506 . S
C142 C143 1.398 . S
C142 C146 1.392 . S
C143 C142 1.398 . S
C143 C145 1.372 . S
C143 H160 0.931 . S
C144 C141 1.382 . S
C144 C145 1.390 . S
C144 H161 0.931 . S
C145 C143 1.372 . S
C145 C144 1.390 . S
C145 H162 0.929 . S
C146 C141 1.390 . S
C146 C142 1.392 . S
C146 H163 0.930 . S
C147 O132 1.255 . S
C147 O133 1.257 . S
C148 Eu84 2.787 . S
C148 O128 1.252 . S
C148 O131 1.268 . S
C148 C141 1.506 . S
C149 C116 1.439 . S
C149 H126 0.908 1_565 S
C149 C150 1.374 . S
C150 C121 1.387 . S
C150 H127 0.931 . S
C150 C149 1.374 . S
C151 O135 1.252 . S
C151 O136 1.264 . S
C152 C155 1.382 . S
C152 C156 1.390 . S
C152 C159 1.506 . S
C153 C154 1.398 . S
C153 C156 1.392 . S
C154 C153 1.398 . S
C154 C157 1.372 . S
C154 H164 0.931 . S
C155 C152 1.382 . S
C155 C157 1.390 . S
C155 H165 0.931 . S
C156 C152 1.390 . S
C156 C153 1.392 . S
C156 H166 0.930 . S
C157 C154 1.372 . S
C157 C155 1.390 . S
C157 H167 0.929 . S
C158 O138 1.255 . S
C158 O139 1.257 1_655 S
C159 Eu95 2.787 . S
C159 O134 1.252 . S
C159 O137 1.268 . S
C159 C152 1.506 . S
H160 C143 0.931 . S
H161 C144 0.931 . S
H162 C145 0.929 . S
H163 C146 0.930 . S
H164 C154 0.931 . S
H165 C155 0.931 . S
H166 C156 0.930 . S
H167 C157 0.929 . S
Eu168 N197 2.600 . S
Eu168 N203 2.562 . S
Eu168 O212 2.462 . S
Eu168 O213 2.373 . S
Eu168 O215 2.432 . S
Eu168 O216 2.291 . S
Eu168 O220 2.335 . S
Eu168 O223 2.372 . S
Eu168 C232 2.787 . S
C169 N170 1.365 . S
C169 C172 1.405 . S
C169 C176 1.448 . S
N170 C169 1.365 . S
N170 C173 1.319 1_554 S
N170 Eu179 2.600 . S
C171 C173 1.397 . S
C171 C174 1.367 1_556 S
C171 H191 0.931 . S
C172 C169 1.405 . S
C172 C174 1.403 . S
C172 C178 1.439 . S
C173 N170 1.319 1_556 S
C173 C171 1.397 . S
C173 H184 0.930 . S
C174 C171 1.367 1_554 S
C174 C172 1.403 . S
C174 H195 0.929 . S
C175 C176 1.430 . S
C175 C177 1.387 . S
C175 C181 1.404 . S
C176 C169 1.448 . S
C176 C175 1.430 . S
C176 N180 1.351 . S
C177 C175 1.387 . S
C177 C178 1.374 . S
C177 H192 0.931 . S
C178 C172 1.439 . S
C178 C177 1.374 . S
C178 H193 0.931 . S
Eu179 N170 2.600 . S
Eu179 N180 2.562 . S
Eu179 O214 2.335 1_554 S
Eu179 O217 2.372 1_554 S
Eu179 O218 2.462 . S
Eu179 O219 2.369 1_554 S
Eu179 O221 2.432 . S
Eu179 O222 2.291 . S
Eu179 C243 2.787 . S
N180 C176 1.351 . S
N180 Eu179 2.562 . S
N180 C182 1.325 . S
C181 C175 1.404 . S
C181 C183 1.366 . S
C181 H189 0.930 . S
C182 N180 1.325 . S
C182 C183 1.416 . S
C182 H188 0.929 . S
C183 C181 1.366 . S
C183 C182 1.416 . S
C183 H185 0.930 . S
H184 C173 0.930 . S
H185 C183 0.930 . S
H186 C201 0.930 . S
H187 C208 0.930 . S
H188 C182 0.929 . S
H189 C181 0.930 . S
H190 C204 0.929 . S
H191 C171 0.931 . S
H192 C177 0.931 . S
H193 C178 0.931 . S
H194 C199 0.931 . S
H195 C174 0.929 . S
H196 C207 0.930 . S
N197 Eu168 2.600 . S
N197 C198 1.365 . S
N197 C201 1.319 . S
C198 N197 1.365 . S
C198 C200 1.405 . S
C198 C206 1.448 . S
C199 H194 0.931 . S
C199 C201 1.397 . S
C199 C202 1.367 . S
C200 C198 1.405 . S
C200 C202 1.403 . S
C200 C233 1.439 . S
C201 H186 0.930 . S
C201 N197 1.319 . S
C201 C199 1.397 . S
C202 C199 1.367 . S
C202 C200 1.403 . S
C202 H209 0.929 . S
N203 Eu168 2.562 . S
N203 C204 1.325 . S
N203 C206 1.351 . S
C204 H190 0.929 . S
C204 N203 1.325 . S
C204 C208 1.416 . S
C205 C206 1.430 . S
C205 C207 1.404 . S
C205 C234 1.387 . S
C206 C198 1.448 . S
C206 N203 1.351 . S
C206 C205 1.430 . S
C207 H196 0.930 . S
C207 C205 1.404 . S
C207 C208 1.366 . S
C208 H187 0.930 . S
C208 C204 1.416 . S
C208 C207 1.366 . S
H209 C202 0.929 . S
H210 C233 0.931 . S
H211 C234 0.931 . S
O212 Eu168 2.462 . S
O212 C232 1.252 . S
O213 Eu168 2.373 . S
O213 C224 1.249 . S
O214 Eu179 2.335 1_556 S
O214 C224 1.264 . S
O215 Eu168 2.432 . S
O215 C232 1.268 . S
O216 Eu168 2.291 . S
O216 C231 1.255 . S
O217 Eu179 2.372 1_556 S
O217 C231 1.257 . S
O218 Eu179 2.462 . S
O218 C243 1.252 . S
O219 Eu179 2.369 1_556 S
O219 C235 1.257 . S
O220 Eu168 2.335 . S
O220 C235 1.264 . S
O221 Eu179 2.432 . S
O221 C243 1.268 . S
O222 Eu179 2.291 . S
O222 C242 1.255 . S
O223 Eu168 2.372 . S
O223 C242 1.257 1_556 S
C224 O213 1.249 . S
C224 O214 1.264 . S
C225 C228 1.382 . S
C225 C230 1.390 . S
C225 C232 1.506 . S
C226 C227 1.398 . S
C226 C230 1.392 . S
C227 C226 1.398 . S
C227 C229 1.372 . S
C227 H244 0.931 . S
C228 C225 1.382 . S
C228 C229 1.390 . S
C228 H245 0.931 . S
C229 C227 1.372 . S
C229 C228 1.390 . S
C229 H246 0.929 . S
C230 C225 1.390 . S
C230 C226 1.392 . S
C230 H247 0.930 . S
C231 O216 1.255 . S
C231 O217 1.257 . S
C232 Eu168 2.787 . S
C232 O212 1.252 . S
C232 O215 1.268 . S
C232 C225 1.506 . S
C233 C200 1.439 . S
C233 H210 0.931 . S
C233 C234 1.374 . S
C234 C205 1.387 . S
C234 H211 0.931 . S
C234 C233 1.374 . S
C235 O219 1.257 . S
C235 O220 1.264 . S
C236 C239 1.382 . S
C236 C240 1.390 . S
C236 C243 1.506 . S
C237 C238 1.398 . S
C237 C240 1.392 . S
C238 C237 1.398 . S
C238 C241 1.372 . S
C238 H248 0.931 . S
C239 C236 1.382 . S
C239 C241 1.390 . S
C239 H249 0.931 . S
C240 C236 1.390 . S
C240 C237 1.392 . S
C240 H250 0.930 . S
C241 C238 1.372 . S
C241 C239 1.390 . S
C241 H251 0.929 . S
C242 O222 1.255 . S
C242 O223 1.257 1_554 S
C243 Eu179 2.787 . S
C243 O218 1.252 . S
C243 O221 1.268 . S
C243 C236 1.506 . S
H244 C227 0.931 . S
H245 C228 0.931 . S
H246 C229 0.929 . S
H247 C230 0.930 . S
H248 C238 0.931 . S
H249 C239 0.931 . S
H250 C240 0.930 . S
H251 C241 0.929 . S
Eu252 N281 2.600 . S
Eu252 N287 2.562 . S
Eu252 O296 2.462 . S
Eu252 O297 2.373 . S
Eu252 O299 2.432 . S
Eu252 O300 2.291 . S
Eu252 O304 2.335 . S
Eu252 O307 2.372 . S
Eu252 C316 2.787 . S
C253 N254 1.365 . S
C253 C256 1.405 . S
C253 C260 1.448 . S
N254 C253 1.365 . S
N254 C257 1.319 . S
N254 Eu263 2.600 . S
C255 C257 1.397 . S
C255 C258 1.367 . S
C255 H275 0.931 . S
C256 C253 1.405 . S
C256 C258 1.403 . S
C256 C262 1.439 . S
C257 N254 1.319 . S
C257 C255 1.397 . S
C257 H268 0.930 . S
C258 C255 1.367 . S
C258 C256 1.403 . S
C258 H279 0.929 . S
C259 C260 1.430 . S
C259 C261 1.387 . S
C259 C265 1.404 . S
C260 C253 1.448 . S
C260 C259 1.430 . S
C260 N264 1.351 . S
C261 C259 1.387 . S
C261 C262 1.374 . S
C261 H276 0.931 . S
C262 C256 1.439 . S
C262 C261 1.374 . S
C262 H277 0.931 . S
Eu263 N254 2.600 . S
Eu263 N264 2.562 . S
Eu263 O298 2.335 . S
Eu263 O301 2.372 . S
Eu263 O302 2.462 . S
Eu263 O303 2.373 . S
Eu263 O305 2.432 . S
Eu263 O306 2.291 . S
Eu263 C327 2.787 . S
N264 C260 1.351 . S
N264 Eu263 2.562 . S
N264 C266 1.325 . S
C265 C259 1.404 . S
C265 C267 1.366 . S
C265 H273 0.930 . S
C266 N264 1.325 . S
C266 C267 1.416 . S
C266 H272 0.929 . S
C267 C265 1.366 . S
C267 C266 1.416 . S
C267 H269 0.930 . S
H268 C257 0.930 . S
H269 C267 0.930 . S
H270 C285 0.930 . S
H271 C292 0.930 . S
H272 C266 0.929 . S
H273 C265 0.930 . S
H274 C288 0.929 . S
H275 C255 0.931 . S
H276 C261 0.931 . S
H277 C262 0.931 . S
H278 C283 0.931 . S
H279 C258 0.929 . S
H280 C291 0.930 . S
N281 Eu252 2.600 . S
N281 C282 1.365 . S
N281 C285 1.319 . S
C282 N281 1.365 . S
C282 C284 1.405 . S
C282 C290 1.448 . S
C283 H278 0.931 . S
C283 C285 1.397 . S
C283 C286 1.367 . S
C284 C282 1.405 . S
C284 C286 1.403 . S
C284 C317 1.439 . S
C285 H270 0.930 . S
C285 N281 1.319 . S
C285 C283 1.397 . S
C286 C283 1.367 . S
C286 C284 1.403 . S
C286 H293 0.929 1_545 S
N287 Eu252 2.562 . S
N287 C288 1.325 . S
N287 C290 1.351 . S
C288 H274 0.929 . S
C288 N287 1.325 . S
C288 C292 1.416 . S
C289 C290 1.430 . S
C289 C291 1.404 . S
C289 C318 1.387 . S
C290 C282 1.448 . S
C290 N287 1.351 . S
C290 C289 1.430 . S
C291 H280 0.930 . S
C291 C289 1.404 . S
C291 C292 1.366 . S
C292 H271 0.930 . S
C292 C288 1.416 . S
C292 C291 1.366 . S
H293 C286 0.929 1_565 S
H294 C317 0.935 . S
H295 C318 0.931 . S
O296 Eu252 2.462 . S
O296 C316 1.252 . S
O297 Eu252 2.373 . S
O297 C308 1.249 . S
O298 Eu263 2.335 . S
O298 C308 1.264 . S
O299 Eu252 2.432 . S
O299 C316 1.268 . S
O300 Eu252 2.291 . S
O300 C315 1.255 . S
O301 Eu263 2.372 . S
O301 C315 1.257 . S
O302 Eu263 2.462 . S
O302 C327 1.252 . S
O303 Eu263 2.373 . S
O303 C319 1.249 . S
O304 Eu252 2.335 . S
O304 C319 1.264 . S
O305 Eu263 2.432 . S
O305 C327 1.268 . S
O306 Eu263 2.291 . S
O306 C326 1.255 . S
O307 Eu252 2.372 . S
O307 C326 1.257 . S
C308 O297 1.249 . S
C308 O298 1.264 . S
C309 C312 1.382 . S
C309 C314 1.390 . S
C309 C316 1.506 . S
C310 C311 1.398 . S
C310 C314 1.392 . S
C311 C310 1.398 . S
C311 C313 1.372 . S
C311 H328 0.931 . S
C312 C309 1.382 . S
C312 C313 1.390 . S
C312 H329 0.931 . S
C313 C311 1.372 . S
C313 C312 1.390 . S
C313 H330 0.929 . S
C314 C309 1.390 . S
C314 C310 1.392 . S
C314 H331 0.930 . S
C315 O300 1.255 . S
C315 O301 1.257 . S
C316 Eu252 2.787 . S
C316 O296 1.252 . S
C316 O299 1.268 . S
C316 C309 1.506 . S
C317 C284 1.439 . S
C317 H294 0.935 . S
C317 C318 1.374 . S
C318 C289 1.387 . S
C318 H295 0.931 . S
C318 C317 1.374 . S
C319 O303 1.249 . S
C319 O304 1.264 . S
C320 C323 1.382 . S
C320 C324 1.390 . S
C320 C327 1.506 . S
C321 C322 1.398 . S
C321 C324 1.392 . S
C322 C321 1.398 . S
C322 C325 1.372 . S
C322 H332 0.931 . S
C323 C320 1.382 . S
C323 C325 1.390 . S
C323 H333 0.931 . S
C324 C320 1.390 . S
C324 C321 1.392 . S
C324 H334 0.930 . S
C325 C322 1.372 . S
C325 C323 1.390 . S
C325 H335 0.929 . S
C326 O306 1.255 . S
C326 O307 1.257 . S
C327 Eu263 2.787 . S
C327 O302 1.252 . S
C327 O305 1.268 . S
C327 C320 1.506 . S
H328 C311 0.931 . S
H329 C312 0.931 . S
H330 C313 0.929 . S
H331 C314 0.930 . S
H332 C322 0.931 . S
H333 C323 0.931 . S
H334 C324 0.930 . S
H335 C325 0.929 . S
Eu336 N365 2.600 . S
Eu336 N371 2.562 . S
Eu336 O380 2.462 . S
Eu336 O381 2.373 . S
Eu336 O383 2.432 . S
Eu336 O384 2.291 . S
Eu336 O388 2.335 . S
Eu336 O391 2.372 . S
Eu336 C400 2.787 . S
C337 N338 1.365 . S
C337 C340 1.405 . S
C337 C344 1.448 . S
N338 C337 1.365 . S
N338 C341 1.319 . S
N338 Eu347 2.600 . S
C339 C341 1.397 . S
C339 C342 1.367 . S
C339 H359 0.931 . S
C340 C337 1.405 . S
C340 C342 1.403 . S
C340 C346 1.439 . S
C341 N338 1.319 . S
C341 C339 1.397 . S
C341 H352 0.930 . S
C342 C339 1.367 . S
C342 C340 1.403 . S
C342 H363 0.929 . S
C343 C344 1.430 . S
C343 C345 1.387 . S
C343 C349 1.404 . S
C344 C337 1.448 . S
C344 C343 1.430 . S
C344 N348 1.351 . S
C345 C343 1.387 . S
C345 C346 1.374 . S
C345 H360 0.931 . S
C346 C340 1.439 . S
C346 C345 1.374 . S
C346 H361 0.931 . S
Eu347 N338 2.600 . S
Eu347 N348 2.562 . S
Eu347 O382 2.335 . S
Eu347 O385 2.372 . S
Eu347 O386 2.462 . S
Eu347 O387 2.373 . S
Eu347 O389 2.432 . S
Eu347 O390 2.291 . S
Eu347 C411 2.787 . S
N348 C344 1.351 . S
N348 Eu347 2.562 . S
N348 C350 1.325 . S
C349 C343 1.404 . S
C349 C351 1.366 . S
C349 H357 0.930 . S
C350 N348 1.325 . S
C350 C351 1.416 . S
C350 H356 0.929 . S
C351 C349 1.366 . S
C351 C350 1.416 . S
C351 H353 0.930 . S
H352 C341 0.930 . S
H353 C351 0.930 . S
H354 C369 0.930 . S
H355 C376 0.930 . S
H356 C350 0.929 . S
H357 C349 0.930 . S
H358 C372 0.929 . S
H359 C339 0.931 . S
H360 C345 0.931 . S
H361 C346 0.931 . S
H362 C367 0.931 . S
H363 C342 0.929 . S
H364 C375 0.930 . S
N365 Eu336 2.600 . S
N365 C366 1.365 . S
N365 C369 1.319 . S
C366 N365 1.365 . S
C366 C368 1.405 . S
C366 C374 1.448 . S
C367 H362 0.931 . S
C367 C369 1.397 . S
C367 C370 1.367 . S
C368 C366 1.405 . S
C368 C370 1.403 . S
C368 C401 1.439 . S
C369 H354 0.930 . S
C369 N365 1.319 . S
C369 C367 1.397 . S
C370 C367 1.367 . S
C370 C368 1.403 . S
C370 H377 0.929 . S
N371 Eu336 2.562 . S
N371 C372 1.325 . S
N371 C374 1.351 . S
C372 H358 0.929 . S
C372 N371 1.325 . S
C372 C376 1.416 . S
C373 C374 1.430 . S
C373 C375 1.404 . S
C373 C402 1.387 . S
C374 C366 1.448 . S
C374 N371 1.351 . S
C374 C373 1.430 . S
C375 H364 0.930 . S
C375 C373 1.404 . S
C375 C376 1.366 . S
C376 H355 0.930 . S
C376 C372 1.416 . S
C376 C375 1.366 . S
H377 C370 0.929 . S
H378 C401 0.931 . S
H379 C402 0.931 . S
O380 Eu336 2.462 . S
O380 C400 1.252 . S
O381 Eu336 2.373 . S
O381 C392 1.249 . S
O382 Eu347 2.335 . S
O382 C392 1.264 . S
O383 Eu336 2.432 . S
O383 C400 1.268 . S
O384 Eu336 2.291 . S
O384 C399 1.255 . S
O385 Eu347 2.372 . S
O385 C399 1.257 . S
O386 Eu347 2.462 . S
O386 C411 1.252 . S
O387 Eu347 2.373 . S
O387 C403 1.249 . S
O388 Eu336 2.335 . S
O388 C403 1.264 . S
O389 Eu347 2.432 . S
O389 C411 1.268 . S
O390 Eu347 2.291 . S
O390 C410 1.255 . S
O391 Eu336 2.372 . S
O391 C410 1.257 . S
C392 O381 1.249 . S
C392 O382 1.264 . S
C393 C396 1.382 . S
C393 C398 1.390 . S
C393 C400 1.506 . S
C394 C395 1.398 . S
C394 C398 1.392 . S
C395 C394 1.398 . S
C395 C397 1.372 . S
C395 H412 0.931 . S
C396 C393 1.382 . S
C396 C397 1.390 . S
C396 H413 0.931 . S
C397 C395 1.372 . S
C397 C396 1.390 . S
C397 H414 0.929 . S
C398 C393 1.390 . S
C398 C394 1.392 . S
C398 H415 0.930 . S
C399 O384 1.255 . S
C399 O385 1.257 . S
C400 Eu336 2.787 . S
C400 O380 1.252 . S
C400 O383 1.268 . S
C400 C393 1.506 . S
C401 C368 1.439 . S
C401 H378 0.931 . S
C401 C402 1.374 . S
C402 C373 1.387 . S
C402 H379 0.931 . S
C402 C401 1.374 . S
C403 O387 1.249 . S
C403 O388 1.264 . S
C404 C407 1.382 . S
C404 C408 1.390 . S
C404 C411 1.506 . S
C405 C406 1.398 . S
C405 C408 1.392 . S
C406 C405 1.398 . S
C406 C409 1.372 . S
C406 H416 0.931 . S
C407 C404 1.382 . S
C407 C409 1.390 . S
C407 H417 0.931 . S
C408 C404 1.390 . S
C408 C405 1.392 . S
C408 H418 0.930 . S
C409 C406 1.372 . S
C409 C407 1.390 . S
C409 H419 0.929 . S
C410 O390 1.255 . S
C410 O391 1.257 . S
C411 Eu347 2.787 . S
C411 O386 1.252 . S
C411 O389 1.268 . S
C411 C404 1.506 . S
H412 C395 0.931 . S
H413 C396 0.931 . S
H414 C397 0.929 . S
H415 C398 0.930 . S
H416 C406 0.931 . S
H417 C407 0.931 . S
H418 C408 0.930 . S
H419 C409 0.929 . S
Eu420 N449 2.600 . S
Eu420 N455 2.562 1_455 S
Eu420 O464 2.462 . S
Eu420 O465 2.373 1_455 S
Eu420 O467 2.432 . S
Eu420 O468 2.291 1_455 S
Eu420 O472 2.335 . S
Eu420 O475 2.372 . S
Eu420 C484 2.787 . S
C421 N422 1.365 . S
C421 C424 1.405 . S
C421 C428 1.448 . S
N422 C421 1.365 . S
N422 C425 1.319 . S
N422 Eu431 2.600 . S
C423 C425 1.397 . S
C423 C426 1.367 . S
C423 H443 0.931 . S
C424 C421 1.405 . S
C424 C426 1.403 . S
C424 C430 1.439 . S
C425 N422 1.319 . S
C425 C423 1.397 . S
C425 H436 0.930 . S
C426 C423 1.367 . S
C426 C424 1.403 . S
C426 H447 0.929 . S
C427 C428 1.430 . S
C427 C429 1.387 . S
C427 C433 1.404 . S
C428 C421 1.448 . S
C428 C427 1.430 . S
C428 N432 1.351 . S
C429 C427 1.387 . S
C429 C430 1.374 . S
C429 H444 0.931 . S
C430 C424 1.439 . S
C430 C429 1.374 . S
C430 H445 0.931 . S
Eu431 N422 2.600 . S
Eu431 N432 2.562 . S
Eu431 O466 2.335 . S
Eu431 O469 2.372 . S
Eu431 O470 2.462 . S
Eu431 O471 2.373 . S
Eu431 O473 2.432 . S
Eu431 O474 2.291 . S
Eu431 C495 2.787 . S
N432 C428 1.351 . S
N432 Eu431 2.562 . S
N432 C434 1.325 . S
C433 C427 1.404 . S
C433 C435 1.366 . S
C433 H441 0.930 . S
C434 N432 1.325 . S
C434 C435 1.416 . S
C434 H440 0.929 . S
C435 C433 1.366 . S
C435 C434 1.416 . S
C435 H437 0.930 . S
H436 C425 0.930 . S
H437 C435 0.930 . S
H438 C453 0.930 . S
H439 C460 0.930 . S
H440 C434 0.929 . S
H441 C433 0.930 . S
H442 C456 0.929 . S
H443 C423 0.931 . S
H444 C429 0.931 . S
H445 C430 0.931 . S
H446 C451 0.931 . S
H447 C426 0.929 . S
H448 C459 0.930 . S
N449 Eu420 2.600 . S
N449 C450 1.365 . S
N449 C453 1.319 . S
C450 N449 1.365 . S
C450 C452 1.405 . S
C450 C458 1.448 1_455 S
C451 H446 0.931 . S
C451 C453 1.397 . S
C451 C454 1.367 . S
C452 C450 1.405 . S
C452 C454 1.403 . S
C452 C485 1.439 1_455 S
C453 H438 0.930 . S
C453 N449 1.319 . S
C453 C451 1.397 . S
C454 C451 1.367 . S
C454 C452 1.403 . S
C454 H461 0.929 . S
N455 Eu420 2.562 1_655 S
N455 C456 1.325 . S
N455 C458 1.351 . S
C456 H442 0.929 . S
C456 N455 1.325 . S
C456 C460 1.416 . S
C457 C458 1.430 . S
C457 C459 1.404 . S
C457 C486 1.387 . S
C458 C450 1.448 1_655 S
C458 N455 1.351 . S
C458 C457 1.430 . S
C459 H448 0.930 . S
C459 C457 1.404 . S
C459 C460 1.366 . S
C460 H439 0.930 . S
C460 C456 1.416 . S
C460 C459 1.366 . S
H461 C454 0.929 . S
H462 C485 0.930 1_455 S
H463 C486 0.931 . S
O464 Eu420 2.462 . S
O464 C484 1.252 . S
O465 Eu420 2.373 1_655 S
O465 C476 1.249 . S
O466 Eu431 2.335 . S
O466 C476 1.264 . S
O467 Eu420 2.432 . S
O467 C484 1.268 . S
O468 Eu420 2.291 1_655 S
O468 C483 1.255 . S
O469 Eu431 2.372 . S
O469 C483 1.257 . S
O470 Eu431 2.462 . S
O470 C495 1.252 . S
O471 Eu431 2.373 . S
O471 C487 1.249 1_655 S
O472 Eu420 2.335 . S
O472 C487 1.264 . S
O473 Eu431 2.432 . S
O473 C495 1.268 . S
O474 Eu431 2.291 . S
O474 C494 1.255 . S
O475 Eu420 2.372 . S
O475 C494 1.257 1_455 S
C476 O465 1.249 . S
C476 O466 1.264 . S
C477 C480 1.382 . S
C477 C482 1.390 . S
C477 C484 1.506 . S
C478 C479 1.398 . S
C478 C482 1.392 . S
C479 C478 1.398 . S
C479 C481 1.372 . S
C479 H496 0.931 . S
C480 C477 1.382 . S
C480 C481 1.390 . S
C480 H497 0.931 . S
C481 C479 1.372 . S
C481 C480 1.390 . S
C481 H498 0.929 . S
C482 C477 1.390 . S
C482 C478 1.392 . S
C482 H499 0.930 . S
C483 O468 1.255 . S
C483 O469 1.257 . S
C484 Eu420 2.787 . S
C484 O464 1.252 . S
C484 O467 1.268 . S
C484 C477 1.506 . S
C485 C452 1.439 1_655 S
C485 H462 0.930 1_655 S
C485 C486 1.374 . S
C486 C457 1.387 . S
C486 H463 0.931 . S
C486 C485 1.374 . S
C487 O471 1.249 1_455 S
C487 O472 1.264 . S
C488 C491 1.382 . S
C488 C492 1.390 . S
C488 C495 1.506 . S
C489 C490 1.398 . S
C489 C492 1.392 . S
C490 C489 1.398 . S
C490 C493 1.372 . S
C490 H500 0.931 . S
C491 C488 1.382 . S
C491 C493 1.390 . S
C491 H501 0.931 . S
C492 C488 1.390 . S
C492 C489 1.392 . S
C492 H502 0.930 . S
C493 C490 1.372 . S
C493 C491 1.390 . S
C493 H503 0.929 . S
C494 O474 1.255 . S
C494 O475 1.257 1_655 S
C495 Eu431 2.787 . S
C495 O470 1.252 . S
C495 O473 1.268 . S
C495 C488 1.506 . S
H496 C479 0.931 . S
H497 C480 0.931 . S
H498 C481 0.929 . S
H499 C482 0.930 . S
H500 C490 0.931 . S
H501 C491 0.931 . S
H502 C492 0.930 . S
H503 C493 0.929 . S
Eu504 N533 2.600 . S
Eu504 N539 2.562 1_556 S
Eu504 O548 2.462 . S
Eu504 O549 2.373 1_556 S
Eu504 O551 2.432 . S
Eu504 O552 2.291 1_556 S
Eu504 O556 2.335 . S
Eu504 O559 2.372 . S
Eu504 C568 2.787 . S
C505 N506 1.365 . S
C505 C508 1.405 . S
C505 C512 1.448 . S
N506 C505 1.365 . S
N506 C509 1.319 . S
N506 Eu515 2.600 . S
C507 C509 1.397 . S
C507 C510 1.367 . S
C507 H527 0.931 . S
C508 C505 1.405 . S
C508 C510 1.403 . S
C508 C514 1.439 . S
C509 N506 1.319 . S
C509 C507 1.397 . S
C509 H520 0.930 . S
C510 C507 1.367 . S
C510 C508 1.403 . S
C510 H531 0.929 1_655 S
C511 C512 1.430 . S
C511 C513 1.387 . S
C511 C517 1.404 . S
C512 C505 1.448 . S
C512 C511 1.430 . S
C512 N516 1.351 . S
C513 C511 1.387 . S
C513 C514 1.374 . S
C513 H528 0.931 . S
C514 C508 1.439 . S
C514 C513 1.374 . S
C514 H529 0.931 . S
Eu515 N506 2.600 . S
Eu515 N516 2.562 . S
Eu515 O550 2.335 . S
Eu515 O553 2.372 . S
Eu515 O554 2.462 . S
Eu515 O555 2.373 . S
Eu515 O557 2.432 . S
Eu515 O558 2.291 . S
Eu515 C579 2.787 . S
N516 C512 1.351 . S
N516 Eu515 2.562 . S
N516 C518 1.325 . S
C517 C511 1.404 . S
C517 C519 1.366 . S
C517 H525 0.930 . S
C518 N516 1.325 . S
C518 C519 1.416 . S
C518 H524 0.929 . S
C519 C517 1.366 . S
C519 C518 1.416 . S
C519 H521 0.935 . S
H520 C509 0.930 . S
H521 C519 0.935 . S
H522 C537 0.930 . S
H523 C544 0.930 . S
H524 C518 0.929 . S
H525 C517 0.930 . S
H526 C540 0.929 . S
H527 C507 0.931 . S
H528 C513 0.931 . S
H529 C514 0.931 . S
H530 C535 0.931 . S
H531 C510 0.929 1_455 S
H532 C543 0.930 . S
N533 Eu504 2.600 . S
N533 C534 1.365 . S
N533 C537 1.319 . S
C534 N533 1.365 . S
C534 C536 1.405 . S
C534 C542 1.448 1_556 S
C535 H530 0.931 . S
C535 C537 1.397 . S
C535 C538 1.367 . S
C536 C534 1.405 . S
C536 C538 1.403 . S
C536 C569 1.443 . S
C537 H522 0.930 . S
C537 N533 1.319 . S
C537 C535 1.397 . S
C538 C535 1.367 . S
C538 C536 1.403 . S
C538 H545 0.929 . S
N539 Eu504 2.562 1_554 S
N539 C540 1.325 . S
N539 C542 1.351 . S
C540 H526 0.929 . S
C540 N539 1.325 . S
C540 C544 1.416 . S
C541 C542 1.430 . S
C541 C543 1.404 . S
C541 C570 1.387 . S
C542 C534 1.448 1_554 S
C542 N539 1.351 . S
C542 C541 1.430 . S
C543 H532 0.930 . S
C543 C541 1.404 . S
C543 C544 1.366 . S
C544 H523 0.930 . S
C544 C540 1.416 . S
C544 C543 1.366 . S
H545 C538 0.929 . S
H546 C569 0.932 . S
H547 C570 0.931 . S
O548 Eu504 2.462 . S
O548 C568 1.252 . S
O549 Eu504 2.373 1_554 S
O549 C560 1.249 . S
O550 Eu515 2.335 . S
O550 C560 1.264 . S
O551 Eu504 2.432 . S
O551 C568 1.268 . S
O552 Eu504 2.291 1_554 S
O552 C567 1.255 . S
O553 Eu515 2.372 . S
O553 C567 1.257 . S
O554 Eu515 2.462 . S
O554 C579 1.252 . S
O555 Eu515 2.373 . S
O555 C571 1.249 1_554 S
O556 Eu504 2.335 . S
O556 C571 1.264 . S
O557 Eu515 2.432 . S
O557 C579 1.268 . S
O558 Eu515 2.291 . S
O558 C578 1.285 . S
O559 Eu504 2.372 . S
O559 C578 1.229 1_556 S
C560 O549 1.249 . S
C560 O550 1.264 . S
C561 C564 1.382 . S
C561 C566 1.390 . S
C561 C568 1.506 . S
C562 C563 1.398 . S
C562 C566 1.392 . S
C563 C562 1.398 . S
C563 C565 1.372 . S
C563 H580 0.931 . S
C564 C561 1.382 . S
C564 C565 1.390 . S
C564 H581 0.931 . S
C565 C563 1.372 . S
C565 C564 1.390 . S
C565 H582 0.929 . S
C566 C561 1.390 . S
C566 C562 1.392 . S
C566 H583 0.930 . S
C567 O552 1.255 . S
C567 O553 1.257 . S
C568 Eu504 2.787 . S
C568 O548 1.252 . S
C568 O551 1.268 . S
C568 C561 1.506 . S
C569 C536 1.443 . S
C569 H546 0.932 . S
C569 C570 1.369 1_556 S
C570 C541 1.387 . S
C570 H547 0.931 . S
C570 C569 1.369 1_554 S
C571 O555 1.249 1_556 S
C571 O556 1.264 . S
C572 C575 1.382 . S
C572 C576 1.390 . S
C572 C579 1.506 . S
C573 C574 1.398 . S
C573 C576 1.392 . S
C574 C573 1.398 . S
C574 C577 1.372 . S
C574 H584 0.931 . S
C575 C572 1.382 . S
C575 C577 1.390 . S
C575 H585 0.931 . S
C576 C572 1.390 . S
C576 C573 1.392 . S
C576 H586 0.930 . S
C577 C574 1.372 . S
C577 C575 1.390 . S
C577 H587 0.929 . S
C578 O558 1.285 . S
C578 O559 1.229 1_554 S
C579 Eu515 2.787 . S
C579 O554 1.252 . S
C579 O557 1.268 . S
C579 C572 1.506 . S
H580 C563 0.931 . S
H581 C564 0.931 . S
H582 C565 0.929 . S
H583 C566 0.930 . S
H584 C574 0.931 . S
H585 C575 0.931 . S
H586 C576 0.930 . S
H587 C577 0.929 . S
Eu588 N617 2.600 . S
Eu588 N623 2.562 . S
Eu588 O632 2.462 . S
Eu588 O633 2.373 . S
Eu588 O635 2.432 . S
Eu588 O636 2.291 . S
Eu588 O640 2.335 . S
Eu588 O643 2.372 . S
Eu588 C652 2.787 . S
C589 N590 1.365 . S
C589 C592 1.405 . S
C589 C596 1.448 . S
N590 C589 1.365 . S
N590 C593 1.319 . S
N590 Eu599 2.600 . S
C591 C593 1.397 . S
C591 C594 1.367 . S
C591 H611 0.931 . S
C592 C589 1.405 . S
C592 C594 1.403 . S
C592 C598 1.439 . S
C593 N590 1.319 . S
C593 C591 1.397 . S
C593 H604 0.930 . S
C594 C591 1.367 . S
C594 C592 1.403 . S
C594 H615 0.929 . S
C595 C596 1.430 . S
C595 C597 1.387 . S
C595 C601 1.404 . S
C596 C589 1.448 . S
C596 C595 1.430 . S
C596 N600 1.351 . S
C597 C595 1.387 . S
C597 C598 1.374 . S
C597 H612 0.931 . S
C598 C592 1.439 . S
C598 C597 1.374 . S
C598 H613 0.931 . S
Eu599 N590 2.600 . S
Eu599 N600 2.562 . S
Eu599 O634 2.335 . S
Eu599 O637 2.372 . S
Eu599 O638 2.462 . S
Eu599 O639 2.373 . S
Eu599 O641 2.432 . S
Eu599 O642 2.291 . S
Eu599 C663 2.787 . S
N600 C596 1.351 . S
N600 Eu599 2.562 . S
N600 C602 1.325 . S
C601 C595 1.404 . S
C601 C603 1.366 . S
C601 H609 0.930 . S
C602 N600 1.325 . S
C602 C603 1.416 . S
C602 H608 0.929 . S
C603 C601 1.366 . S
C603 C602 1.416 . S
C603 H605 0.930 . S
H604 C593 0.930 . S
H605 C603 0.930 . S
H606 C621 0.930 . S
H607 C628 0.930 . S
H608 C602 0.929 . S
H609 C601 0.930 . S
H610 C624 0.929 . S
H611 C591 0.931 . S
H612 C597 0.931 . S
H613 C598 0.931 . S
H614 C619 0.931 . S
H615 C594 0.929 . S
H616 C627 0.930 . S
N617 Eu588 2.600 . S
N617 C618 1.365 . S
N617 C621 1.319 . S
C618 N617 1.365 . S
C618 C620 1.405 . S
C618 C626 1.448 . S
C619 H614 0.931 . S
C619 C621 1.397 . S
C619 C622 1.367 . S
C620 C618 1.405 . S
C620 C622 1.403 . S
C620 C653 1.439 . S
C621 H606 0.930 . S
C621 N617 1.319 . S
C621 C619 1.397 . S
C622 C619 1.367 . S
C622 C620 1.403 . S
C622 H629 0.929 . S
N623 Eu588 2.562 . S
N623 C624 1.325 . S
N623 C626 1.351 . S
C624 H610 0.929 . S
C624 N623 1.325 . S
C624 C628 1.416 . S
C625 C626 1.430 . S
C625 C627 1.404 . S
C625 C654 1.387 . S
C626 C618 1.448 . S
C626 N623 1.351 . S
C626 C625 1.430 . S
C627 H616 0.930 . S
C627 C625 1.404 . S
C627 C628 1.366 . S
C628 H607 0.930 . S
C628 C624 1.416 . S
C628 C627 1.366 . S
H629 C622 0.929 . S
H630 C653 0.931 . S
H631 C654 0.931 . S
O632 Eu588 2.462 . S
O632 C652 1.252 . S
O633 Eu588 2.373 . S
O633 C644 1.249 . S
O634 Eu599 2.335 . S
O634 C644 1.264 . S
O635 Eu588 2.432 . S
O635 C652 1.268 . S
O636 Eu588 2.291 . S
O636 C651 1.255 . S
O637 Eu599 2.372 . S
O637 C651 1.257 . S
O638 Eu599 2.462 . S
O638 C663 1.252 . S
O639 Eu599 2.373 . S
O639 C655 1.249 . S
O640 Eu588 2.335 . S
O640 C655 1.264 . S
O641 Eu599 2.432 . S
O641 C663 1.268 . S
O642 Eu599 2.291 . S
O642 C662 1.255 . S
O643 Eu588 2.372 . S
O643 C662 1.257 . S
C644 O633 1.249 . S
C644 O634 1.264 . S
C645 C648 1.382 . S
C645 C650 1.390 . S
C645 C652 1.506 . S
C646 C647 1.398 . S
C646 C650 1.392 . S
C647 C646 1.398 . S
C647 C649 1.372 . S
C647 H664 0.931 . S
C648 C645 1.382 . S
C648 C649 1.390 . S
C648 H665 0.931 . S
C649 C647 1.372 . S
C649 C648 1.390 . S
C649 H666 0.929 . S
C650 C645 1.390 . S
C650 C646 1.392 . S
C650 H667 0.930 . S
C651 O636 1.255 . S
C651 O637 1.257 . S
C652 Eu588 2.787 . S
C652 O632 1.252 . S
C652 O635 1.268 . S
C652 C645 1.506 . S
C653 C620 1.439 . S
C653 H630 0.931 . S
C653 C654 1.374 . S
C654 C625 1.387 . S
C654 H631 0.931 . S
C654 C653 1.374 . S
C655 O639 1.249 . S
C655 O640 1.264 . S
C656 C659 1.382 . S
C656 C660 1.390 . S
C656 C663 1.506 . S
C657 C658 1.398 . S
C657 C660 1.392 . S
C658 C657 1.398 . S
C658 C661 1.372 . S
C658 H668 0.931 . S
C659 C656 1.382 . S
C659 C661 1.390 . S
C659 H669 0.931 . S
C660 C656 1.390 . S
C660 C657 1.392 . S
C660 H670 0.930 . S
C661 C658 1.372 . S
C661 C659 1.390 . S
C661 H671 0.929 . S
C662 O642 1.255 . S
C662 O643 1.257 . S
C663 Eu599 2.787 . S
C663 O638 1.252 . S
C663 O641 1.268 . S
C663 C656 1.506 . S
H664 C647 0.931 . S
H665 C648 0.931 . S
H666 C649 0.929 . S
H667 C650 0.930 . S
H668 C658 0.931 . S
H669 C659 0.931 . S
H670 C660 0.930 . S
H671 C661 0.929 . S
Eu672 N701 2.600 . S
Eu672 N707 2.562 . S
Eu672 O716 2.462 . S
Eu672 O717 2.373 . S
Eu672 O719 2.432 . S
Eu672 O720 2.291 . S
Eu672 O724 2.335 . S
Eu672 O727 2.372 . S
Eu672 C736 2.787 . S
C673 N674 1.365 . S
C673 C676 1.405 . S
C673 C680 1.448 . S
N674 C673 1.365 . S
N674 C677 1.319 . S
N674 Eu683 2.600 . S
C675 C677 1.397 . S
C675 C678 1.367 . S
C675 H695 0.931 . S
C676 C673 1.405 . S
C676 C678 1.403 . S
C676 C682 1.439 . S
C677 N674 1.319 . S
C677 C675 1.397 . S
C677 H688 0.930 . S
C678 C675 1.367 . S
C678 C676 1.403 . S
C678 H699 0.929 . S
C679 C680 1.430 . S
C679 C681 1.387 . S
C679 C685 1.404 . S
C680 C673 1.448 . S
C680 C679 1.430 . S
C680 N684 1.351 . S
C681 C679 1.387 . S
C681 C682 1.374 . S
C681 H696 0.931 . S
C682 C676 1.439 . S
C682 C681 1.374 . S
C682 H697 0.931 . S
Eu683 N674 2.600 . S
Eu683 N684 2.562 . S
Eu683 O718 2.335 . S
Eu683 O721 2.372 . S
Eu683 O722 2.462 . S
Eu683 O723 2.373 . S
Eu683 O725 2.432 . S
Eu683 O726 2.291 . S
Eu683 C747 2.787 . S
N684 C680 1.351 . S
N684 Eu683 2.562 . S
N684 C686 1.325 . S
C685 C679 1.404 . S
C685 C687 1.366 . S
C685 H693 0.930 . S
C686 N684 1.325 . S
C686 C687 1.416 . S
C686 H692 0.929 . S
C687 C685 1.366 . S
C687 C686 1.416 . S
C687 H689 0.930 . S
H688 C677 0.930 . S
H689 C687 0.930 . S
H690 C705 0.930 . S
H691 C712 0.930 . S
H692 C686 0.929 . S
H693 C685 0.930 . S
H694 C708 0.929 . S
H695 C675 0.931 . S
H696 C681 0.931 . S
H697 C682 0.931 . S
H698 C703 0.931 . S
H699 C678 0.929 . S
H700 C711 0.930 . S
N701 Eu672 2.600 . S
N701 C702 1.365 . S
N701 C705 1.319 . S
C702 N701 1.365 . S
C702 C704 1.405 . S
C702 C710 1.448 . S
C703 H698 0.931 . S
C703 C705 1.397 . S
C703 C706 1.367 . S
C704 C702 1.405 . S
C704 C706 1.403 . S
C704 C737 1.439 . S
C705 H690 0.930 . S
C705 N701 1.319 . S
C705 C703 1.397 . S
C706 C703 1.367 . S
C706 C704 1.403 . S
C706 H713 0.929 1_554 S
N707 Eu672 2.562 . S
N707 C708 1.325 . S
N707 C710 1.351 . S
C708 H694 0.929 . S
C708 N707 1.325 . S
C708 C712 1.416 . S
C709 C710 1.430 . S
C709 C711 1.404 . S
C709 C738 1.387 . S
C710 C702 1.448 . S
C710 N707 1.351 . S
C710 C709 1.430 . S
C711 H700 0.930 . S
C711 C709 1.404 . S
C711 C712 1.366 . S
C712 H691 0.930 . S
C712 C708 1.416 . S
C712 C711 1.366 . S
H713 C706 0.929 1_556 S
H714 C737 0.907 1_556 S
H715 C738 0.931 . S
O716 Eu672 2.462 . S
O716 C736 1.252 . S
O717 Eu672 2.373 . S
O717 C728 1.249 . S
O718 Eu683 2.335 . S
O718 C728 1.264 . S
O719 Eu672 2.432 . S
O719 C736 1.268 . S
O720 Eu672 2.291 . S
O720 C735 1.255 . S
O721 Eu683 2.372 . S
O721 C735 1.257 . S
O722 Eu683 2.462 . S
O722 C747 1.252 . S
O723 Eu683 2.373 . S
O723 C739 1.249 . S
O724 Eu672 2.335 . S
O724 C739 1.264 . S
O725 Eu683 2.432 . S
O725 C747 1.268 . S
O726 Eu683 2.291 . S
O726 C746 1.255 . S
O727 Eu672 2.372 . S
O727 C746 1.257 . S
C728 O717 1.249 . S
C728 O718 1.264 . S
C729 C732 1.382 . S
C729 C734 1.390 . S
C729 C736 1.506 . S
C730 C731 1.398 . S
C730 C734 1.392 . S
C731 C730 1.398 . S
C731 C733 1.372 . S
C731 H748 0.931 . S
C732 C729 1.382 . S
C732 C733 1.390 . S
C732 H749 0.931 . S
C733 C731 1.372 . S
C733 C732 1.390 . S
C733 H750 0.929 . S
C734 C729 1.390 . S
C734 C730 1.392 . S
C734 H751 0.930 . S
C735 O720 1.255 . S
C735 O721 1.257 . S
C736 Eu672 2.787 . S
C736 O716 1.252 . S
C736 O719 1.268 . S
C736 C729 1.506 . S
C737 C704 1.439 . S
C737 H714 0.907 1_554 S
C737 C738 1.374 . S
C738 C709 1.387 . S
C738 H715 0.931 . S
C738 C737 1.374 . S
C739 O723 1.249 . S
C739 O724 1.264 . S
C740 C743 1.382 . S
C740 C744 1.390 . S
C740 C747 1.506 . S
C741 C742 1.398 . S
C741 C744 1.392 . S
C742 C741 1.398 . S
C742 C745 1.372 . S
C742 H752 0.931 . S
C743 C740 1.382 . S
C743 C745 1.390 . S
C743 H753 0.931 . S
C744 C740 1.390 . S
C744 C741 1.392 . S
C744 H754 0.930 . S
C745 C742 1.372 . S
C745 C743 1.390 . S
C745 H755 0.929 . S
C746 O726 1.255 . S
C746 O727 1.257 . S
C747 Eu683 2.787 . S
C747 O722 1.252 . S
C747 O725 1.268 . S
C747 C740 1.506 . S
H748 C731 0.931 . S
H749 C732 0.931 . S
H750 C733 0.929 . S
H751 C734 0.930 . S
H752 C742 0.931 . S
H753 C743 0.931 . S
H754 C744 0.930 . S
H755 C745 0.929 . S
Eu756 N785 2.600 . S
Eu756 N791 2.562 . S
Eu756 O800 2.462 . S
Eu756 O801 2.373 . S
Eu756 O803 2.432 . S
Eu756 O804 2.291 . S
Eu756 O808 2.335 . S
Eu756 O811 2.372 . S
Eu756 C820 2.787 . S
C757 N758 1.365 . S
C757 C760 1.405 . S
C757 C764 1.448 . S
N758 C757 1.365 . S
N758 C761 1.319 1_565 S
N758 Eu767 2.600 . S
C759 C761 1.397 . S
C759 C762 1.369 1_545 S
C759 H779 0.929 . S
C760 C757 1.405 . S
C760 C762 1.403 . S
C760 C766 1.439 . S
C761 N758 1.319 1_545 S
C761 C759 1.397 . S
C761 H772 0.930 . S
C762 C759 1.369 1_565 S
C762 C760 1.403 . S
C762 H783 0.929 . S
C763 C764 1.430 . S
C763 C765 1.387 . S
C763 C769 1.404 . S
C764 C757 1.448 . S
C764 C763 1.430 . S
C764 N768 1.351 . S
C765 C763 1.387 . S
C765 C766 1.374 . S
C765 H780 0.931 . S
C766 C760 1.439 . S
C766 C765 1.374 . S
C766 H781 0.931 . S
Eu767 N758 2.600 . S
Eu767 N768 2.562 . S
Eu767 O802 2.335 1_565 S
Eu767 O805 2.372 1_565 S
Eu767 O806 2.462 . S
Eu767 O807 2.377 . S
Eu767 O809 2.432 . S
Eu767 O810 2.291 . S
Eu767 C831 2.787 . S
N768 C764 1.351 . S
N768 Eu767 2.562 . S
N768 C770 1.325 . S
C769 C763 1.404 . S
C769 C771 1.366 . S
C769 H777 0.930 . S
C770 N768 1.325 . S
C770 C771 1.416 . S
C770 H776 0.929 . S
C771 C769 1.366 . S
C771 C770 1.416 . S
C771 H773 0.930 . S
H772 C761 0.930 . S
H773 C771 0.930 . S
H774 C789 0.930 . S
H775 C796 0.930 . S
H776 C770 0.929 . S
H777 C769 0.930 . S
H778 C792 0.929 . S
H779 C759 0.929 . S
H780 C765 0.931 . S
H781 C766 0.931 . S
H782 C787 0.931 . S
H783 C762 0.929 . S
H784 C795 0.930 . S
N785 Eu756 2.600 . S
N785 C786 1.365 . S
N785 C789 1.319 . S
C786 N785 1.365 . S
C786 C788 1.405 . S
C786 C794 1.448 . S
C787 H782 0.931 . S
C787 C789 1.397 . S
C787 C790 1.367 . S
C788 C786 1.405 . S
C788 C790 1.403 . S
C788 C821 1.439 . S
C789 H774 0.930 . S
C789 N785 1.319 . S
C789 C787 1.397 . S
C790 C787 1.367 . S
C790 C788 1.403 . S
C790 H797 0.929 1_556 S
N791 Eu756 2.562 . S
N791 C792 1.325 . S
N791 C794 1.351 . S
C792 H778 0.929 . S
C792 N791 1.325 . S
C792 C796 1.416 . S
C793 C794 1.430 . S
C793 C795 1.404 . S
C793 C822 1.387 . S
C794 C786 1.448 . S
C794 N791 1.351 . S
C794 C793 1.430 . S
C795 H784 0.930 . S
C795 C793 1.404 . S
C795 C796 1.366 . S
C796 H775 0.930 . S
C796 C792 1.416 . S
C796 C795 1.366 . S
H797 C790 0.929 1_554 S
H798 C821 0.931 . S
H799 C822 0.931 . S
O800 Eu756 2.462 . S
O800 C820 1.252 . S
O801 Eu756 2.373 . S
O801 C812 1.249 . S
O802 Eu767 2.335 1_545 S
O802 C812 1.264 . S
O803 Eu756 2.432 . S
O803 C820 1.268 . S
O804 Eu756 2.291 . S
O804 C819 1.255 . S
O805 Eu767 2.372 1_545 S
O805 C819 1.257 . S
O806 Eu767 2.462 . S
O806 C831 1.252 . S
O807 Eu767 2.377 . S
O807 C823 1.240 1_565 S
O808 Eu756 2.335 . S
O808 C823 1.264 . S
O809 Eu767 2.432 . S
O809 C831 1.268 . S
O810 Eu767 2.291 . S
O810 C830 1.255 . S
O811 Eu756 2.372 . S
O811 C830 1.257 1_545 S
C812 O801 1.249 . S
C812 O802 1.264 . S
C813 C816 1.382 . S
C813 C818 1.390 . S
C813 C820 1.506 . S
C814 C815 1.398 . S
C814 C818 1.392 . S
C815 C814 1.398 . S
C815 C817 1.372 . S
C815 H832 0.931 . S
C816 C813 1.382 . S
C816 C817 1.390 . S
C816 H833 0.931 . S
C817 C815 1.372 . S
C817 C816 1.390 . S
C817 H834 0.929 . S
C818 C813 1.390 . S
C818 C814 1.392 . S
C818 H835 0.930 . S
C819 O804 1.255 . S
C819 O805 1.257 . S
C820 Eu756 2.787 . S
C820 O800 1.252 . S
C820 O803 1.268 . S
C820 C813 1.506 . S
C821 C788 1.439 . S
C821 H798 0.931 . S
C821 C822 1.374 . S
C822 C793 1.387 . S
C822 H799 0.931 . S
C822 C821 1.374 . S
C823 O807 1.240 1_545 S
C823 O808 1.264 . S
C824 C827 1.382 . S
C824 C828 1.390 . S
C824 C831 1.506 . S
C825 C826 1.398 . S
C825 C828 1.392 . S
C826 C825 1.398 . S
C826 C829 1.372 . S
C826 H836 0.931 . S
C827 C824 1.382 . S
C827 C829 1.390 . S
C827 H837 0.931 . S
C828 C824 1.390 . S
C828 C825 1.392 . S
C828 H838 0.930 . S
C829 C826 1.372 . S
C829 C827 1.390 . S
C829 H839 0.929 . S
C830 O810 1.255 . S
C830 O811 1.257 1_565 S
C831 Eu767 2.787 . S
C831 O806 1.252 . S
C831 O809 1.268 . S
C831 C824 1.506 . S
H832 C815 0.931 . S
H833 C816 0.931 . S
H834 C817 0.929 . S
H835 C818 0.930 . S
H836 C826 0.931 . S
H837 C827 0.931 . S
H838 C828 0.930 . S
H839 C829 0.929 . S
Eu840 N869 2.600 . S
Eu840 N875 2.562 . S
Eu840 O884 2.462 . S
Eu840 O885 2.373 . S
Eu840 O887 2.432 . S
Eu840 O888 2.291 . S
Eu840 O892 2.335 . S
Eu840 O895 2.372 . S
Eu840 C904 2.787 . S
C841 N842 1.365 . S
C841 C844 1.405 . S
C841 C848 1.448 . S
N842 C841 1.365 . S
N842 C845 1.319 1_545 S
N842 Eu851 2.600 . S
C843 C845 1.399 . S
C843 C846 1.352 1_565 S
C843 H863 0.944 . S
C844 C841 1.405 . S
C844 C846 1.403 . S
C844 C850 1.439 . S
C845 N842 1.319 1_565 S
C845 C843 1.399 . S
C845 H856 0.930 . S
C846 C843 1.352 1_545 S
C846 C844 1.403 . S
C846 H867 0.929 . S
C847 C848 1.430 . S
C847 C849 1.387 . S
C847 C853 1.404 . S
C848 C841 1.448 . S
C848 C847 1.430 . S
C848 N852 1.351 . S
C849 C847 1.387 . S
C849 C850 1.374 . S
C849 H864 0.931 . S
C850 C844 1.439 . S
C850 C849 1.374 . S
C850 H865 0.931 . S
Eu851 N842 2.600 . S
Eu851 N852 2.562 . S
Eu851 O886 2.335 1_545 S
Eu851 O889 2.372 1_545 S
Eu851 O890 2.462 . S
Eu851 O891 2.374 . S
Eu851 O893 2.432 . S
Eu851 O894 2.291 . S
Eu851 C915 2.787 . S
N852 C848 1.351 . S
N852 Eu851 2.562 . S
N852 C854 1.325 . S
C853 C847 1.404 . S
C853 C855 1.366 . S
C853 H861 0.930 . S
C854 N852 1.325 . S
C854 C855 1.416 . S
C854 H860 0.929 . S
C855 C853 1.366 . S
C855 C854 1.416 . S
C855 H857 0.930 . S
H856 C845 0.930 . S
H857 C855 0.930 . S
H858 C873 0.930 . S
H859 C880 0.930 . S
H860 C854 0.929 . S
H861 C853 0.930 . S
H862 C876 0.929 . S
H863 C843 0.944 . S
H864 C849 0.931 . S
H865 C850 0.931 . S
H866 C871 0.931 . S
H867 C846 0.929 . S
H868 C879 0.930 . S
N869 Eu840 2.600 . S
N869 C870 1.365 . S
N869 C873 1.319 . S
C870 N869 1.365 . S
C870 C872 1.405 . S
C870 C878 1.448 . S
C871 H866 0.931 . S
C871 C873 1.397 . S
C871 C874 1.367 . S
C872 C870 1.405 . S
C872 C874 1.403 . S
C872 C905 1.439 . S
C873 H858 0.930 . S
C873 N869 1.319 . S
C873 C871 1.397 . S
C874 C871 1.367 . S
C874 C872 1.403 . S
C874 H881 0.929 . S
N875 Eu840 2.562 . S
N875 C876 1.325 . S
N875 C878 1.351 . S
C876 H862 0.929 . S
C876 N875 1.325 . S
C876 C880 1.416 . S
C877 C878 1.430 . S
C877 C879 1.404 . S
C877 C906 1.387 . S
C878 C870 1.448 . S
C878 N875 1.351 . S
C878 C877 1.430 . S
C879 H868 0.930 . S
C879 C877 1.404 . S
C879 C880 1.366 . S
C880 H859 0.930 . S
C880 C876 1.416 . S
C880 C879 1.366 . S
H881 C874 0.929 . S
H882 C905 0.931 . S
H883 C906 0.931 . S
O884 Eu840 2.462 . S
O884 C904 1.252 . S
O885 Eu840 2.373 . S
O885 C896 1.249 . S
O886 Eu851 2.335 1_565 S
O886 C896 1.264 . S
O887 Eu840 2.432 . S
O887 C904 1.268 . S
O888 Eu840 2.291 . S
O888 C903 1.255 . S
O889 Eu851 2.372 1_565 S
O889 C903 1.257 . S
O890 Eu851 2.462 . S
O890 C915 1.252 . S
O891 Eu851 2.374 . S
O891 C907 1.245 1_545 S
O892 Eu840 2.335 . S
O892 C907 1.264 . S
O893 Eu851 2.432 . S
O893 C915 1.268 . S
O894 Eu851 2.291 . S
O894 C914 1.255 . S
O895 Eu840 2.372 . S
O895 C914 1.257 1_565 S
C896 O885 1.249 . S
C896 O886 1.264 . S
C897 C900 1.382 . S
C897 C902 1.390 . S
C897 C904 1.506 . S
C898 C899 1.398 . S
C898 C902 1.392 . S
C899 C898 1.398 . S
C899 C901 1.372 . S
C899 H916 0.931 . S
C900 C897 1.382 . S
C900 C901 1.390 . S
C900 H917 0.931 . S
C901 C899 1.372 . S
C901 C900 1.390 . S
C901 H918 0.929 . S
C902 C897 1.390 . S
C902 C898 1.392 . S
C902 H919 0.930 . S
C903 O888 1.255 . S
C903 O889 1.257 . S
C904 Eu840 2.787 . S
C904 O884 1.252 . S
C904 O887 1.268 . S
C904 C897 1.506 . S
C905 C872 1.439 . S
C905 H882 0.931 . S
C905 C906 1.374 . S
C906 C877 1.387 . S
C906 H883 0.931 . S
C906 C905 1.374 . S
C907 O891 1.245 1_565 S
C907 O892 1.264 . S
C908 C911 1.382 . S
C908 C912 1.390 . S
C908 C915 1.506 . S
C909 C910 1.398 . S
C909 C912 1.392 . S
C910 C909 1.398 . S
C910 C913 1.372 . S
C910 H920 0.931 . S
C911 C908 1.382 . S
C911 C913 1.390 . S
C911 H921 0.931 . S
C912 C908 1.390 . S
C912 C909 1.392 . S
C912 H922 0.930 . S
C913 C910 1.372 . S
C913 C911 1.390 . S
C913 H923 0.929 . S
C914 O894 1.255 . S
C914 O895 1.257 1_545 S
C915 Eu851 2.787 . S
C915 O890 1.252 . S
C915 O893 1.268 . S
C915 C908 1.506 . S
H916 C899 0.931 . S
H917 C900 0.931 . S
H918 C901 0.929 . S
H919 C902 0.930 . S
H920 C910 0.931 . S
H921 C911 0.931 . S
H922 C912 0.930 . S
H923 C913 0.929 . S
Eu924 N953 2.600 . S
Eu924 N959 2.562 . S
Eu924 O968 2.462 . S
Eu924 O969 2.373 . S
Eu924 O971 2.432 . S
Eu924 O972 2.291 . S
Eu924 O976 2.335 . S
Eu924 O979 2.372 . S
Eu924 C988 2.787 . S
C925 N926 1.365 . S
C925 C928 1.405 . S
C925 C932 1.448 . S
N926 C925 1.365 . S
N926 C929 1.319 . S
N926 Eu935 2.600 . S
C927 C929 1.397 . S
C927 C930 1.367 . S
C927 H947 0.931 . S
C928 C925 1.405 . S
C928 C930 1.403 . S
C928 C934 1.439 . S
C929 N926 1.319 . S
C929 C927 1.397 . S
C929 H940 0.930 . S
C930 C927 1.367 . S
C930 C928 1.403 . S
C930 H951 0.929 . S
C931 C932 1.430 . S
C931 C933 1.387 . S
C931 C937 1.404 . S
C932 C925 1.448 . S
C932 C931 1.430 . S
C932 N936 1.351 . S
C933 C931 1.387 . S
C933 C934 1.374 . S
C933 H948 0.931 . S
C934 C928 1.439 . S
C934 C933 1.374 . S
C934 H949 0.931 . S
Eu935 N926 2.600 . S
Eu935 N936 2.562 . S
Eu935 O970 2.335 . S
Eu935 O973 2.372 . S
Eu935 O974 2.462 . S
Eu935 O975 2.373 . S
Eu935 O977 2.432 . S
Eu935 O978 2.291 . S
Eu935 C999 2.787 . S
N936 C932 1.351 . S
N936 Eu935 2.562 . S
N936 C938 1.325 . S
C937 C931 1.404 . S
C937 C939 1.366 . S
C937 H945 0.930 . S
C938 N936 1.325 . S
C938 C939 1.416 . S
C938 H944 0.929 . S
C939 C937 1.366 . S
C939 C938 1.416 . S
C939 H941 0.930 . S
H940 C929 0.930 . S
H941 C939 0.930 . S
H942 C957 0.930 . S
H943 C964 0.930 . S
H944 C938 0.929 . S
H945 C937 0.930 . S
H946 C960 0.929 . S
H947 C927 0.931 . S
H948 C933 0.931 . S
H949 C934 0.931 . S
H950 C955 0.931 . S
H951 C930 0.929 . S
H952 C963 0.930 . S
N953 Eu924 2.600 . S
N953 C954 1.365 . S
N953 C957 1.319 . S
C954 N953 1.365 . S
C954 C956 1.405 . S
C954 C962 1.448 . S
C955 H950 0.931 . S
C955 C957 1.397 . S
C955 C958 1.367 . S
C956 C954 1.405 . S
C956 C958 1.403 . S
C956 C989 1.439 . S
C957 H942 0.930 . S
C957 N953 1.319 . S
C957 C955 1.397 . S
C958 C955 1.367 . S
C958 C956 1.403 . S
C958 H965 0.929 . S
N959 Eu924 2.562 . S
N959 C960 1.325 . S
N959 C962 1.351 . S
C960 H946 0.929 . S
C960 N959 1.325 . S
C960 C964 1.416 . S
C961 C962 1.430 . S
C961 C963 1.404 . S
C961 C990 1.387 . S
C962 C954 1.448 . S
C962 N959 1.351 . S
C962 C961 1.430 . S
C963 H952 0.930 . S
C963 C961 1.404 . S
C963 C964 1.366 . S
C964 H943 0.930 . S
C964 C960 1.416 . S
C964 C963 1.366 . S
H965 C958 0.929 . S
H966 C989 0.931 . S
H967 C990 0.931 . S
O968 Eu924 2.462 . S
O968 C988 1.252 . S
O969 Eu924 2.373 . S
O969 C980 1.249 . S
O970 Eu935 2.335 . S
O970 C980 1.264 . S
O971 Eu924 2.432 . S
O971 C988 1.268 . S
O972 Eu924 2.291 . S
O972 C987 1.255 . S
O973 Eu935 2.372 . S
O973 C987 1.257 . S
O974 Eu935 2.462 . S
O974 C999 1.252 . S
O975 Eu935 2.373 . S
O975 C991 1.249 . S
O976 Eu924 2.335 . S
O976 C991 1.264 . S
O977 Eu935 2.432 . S
O977 C999 1.268 . S
O978 Eu935 2.291 . S
O978 C998 1.255 . S
O979 Eu924 2.372 . S
O979 C998 1.257 . S
C980 O969 1.249 . S
C980 O970 1.264 . S
C981 C984 1.382 . S
C981 C986 1.390 . S
C981 C988 1.506 . S
C982 C983 1.398 . S
C982 C986 1.392 . S
C983 C982 1.398 . S
C983 C985 1.372 . S
C983 H1000 0.931 . S
C984 C981 1.382 . S
C984 C985 1.390 . S
C984 H1001 0.931 . S
C985 C983 1.372 . S
C985 C984 1.390 . S
C985 H1002 0.929 . S
C986 C981 1.390 . S
C986 C982 1.392 . S
C986 H1003 0.930 . S
C987 O972 1.255 . S
C987 O973 1.257 . S
C988 Eu924 2.787 . S
C988 O968 1.252 . S
C988 O971 1.268 . S
C988 C981 1.506 . S
C989 C956 1.439 . S
C989 H966 0.931 . S
C989 C990 1.374 . S
C990 C961 1.387 . S
C990 H967 0.931 . S
C990 C989 1.374 . S
C991 O975 1.249 . S
C991 O976 1.264 . S
C992 C995 1.382 . S
C992 C996 1.390 . S
C992 C999 1.506 . S
C993 C994 1.398 . S
C993 C996 1.392 . S
C994 C993 1.398 . S
C994 C997 1.372 . S
C994 H1004 0.931 . S
C995 C992 1.382 . S
C995 C997 1.390 . S
C995 H1005 0.931 . S
C996 C992 1.390 . S
C996 C993 1.392 . S
C996 H1006 0.930 . S
C997 C994 1.372 . S
C997 C995 1.390 . S
C997 H1007 0.929 . S
C998 O978 1.255 . S
C998 O979 1.257 . S
C999 Eu935 2.787 . S
C999 O974 1.252 . S
C999 O977 1.268 . S
C999 C992 1.506 . S
H1000 C983 0.931 . S
H1001 C984 0.931 . S
H1002 C985 0.929 . S
H1003 C986 0.930 . S
H1004 C994 0.931 . S
H1005 C995 0.931 . S
H1006 C996 0.930 . S
H1007 C997 0.929 . S
H1008 C1026 0.951 . S
H1009 C1028 0.951 . S
H1010 C1030 0.950 . S
H1011 C1031 0.950 . S
H1012 C1033 0.950 . S
H1013 C1036 0.950 . S
H1014 C1037 0.950 . S
H1015 C1039 0.950 . S
H1016 C1040 0.950 . S
H1017 C1041 0.951 . S
H1018 C1043 0.951 . S
H1019 C1045 0.950 . S
H1020 C1046 0.950 . S
H1021 C1048 0.950 . S
H1022 C1051 0.950 . S
H1023 C1052 0.950 . S
H1024 C1054 0.950 . S
H1025 C1055 0.950 . S
C1026 H1008 0.951 . S
C1026 C1027 1.366 . S
C1026 C1028 1.388 . S
C1027 C1026 1.366 . S
C1027 C1031 1.385 . S
C1028 H1009 0.951 . S
C1028 C1026 1.388 . S
C1028 C1029 1.366 . S
C1029 C1028 1.366 . S
C1029 C1030 1.414 . S
C1029 C1032 1.499 . S
C1030 H1010 0.950 . S
C1030 C1029 1.414 . S
C1030 C1031 1.374 . S
C1031 H1011 0.950 . S
C1031 C1027 1.385 . S
C1031 C1030 1.374 . S
C1032 C1029 1.499 . S
C1032 C1033 1.373 . S
C1032 C1034 1.389 . S
C1033 H1012 0.950 . S
C1033 C1032 1.373 . S
C1033 C1049 1.377 . S
C1034 C1032 1.389 . S
C1034 C1035 1.524 . S
C1034 C1048 1.377 . S
C1035 C1034 1.524 . S
C1035 C1036 1.397 . S
C1035 C1040 1.363 . S
C1036 H1013 0.950 . S
C1036 C1035 1.397 . S
C1036 C1037 1.334 . S
C1037 H1014 0.950 . S
C1037 C1036 1.334 . S
C1037 C1038 1.287 . S
C1038 C1037 1.287 . S
C1038 C1039 1.524 . S
C1038 H1057 0.913 . S
C1039 H1015 0.950 . S
C1039 C1038 1.524 . S
C1039 C1040 1.415 . S
C1040 H1016 0.950 . S
C1040 C1035 1.363 . S
C1040 C1039 1.415 . S
C1041 H1017 0.951 . S
C1041 C1042 1.366 . S
C1041 C1043 1.388 . S
C1042 C1041 1.366 . S
C1042 C1046 1.385 . S
C1043 H1018 0.951 . S
C1043 C1041 1.388 . S
C1043 C1044 1.366 . S
C1044 C1043 1.366 . S
C1044 C1045 1.414 . S
C1044 C1047 1.499 . S
C1045 H1019 0.950 . S
C1045 C1044 1.414 . S
C1045 C1046 1.374 . S
C1046 H1020 0.950 . S
C1046 C1042 1.385 . S
C1046 C1045 1.374 . S
C1047 C1044 1.499 . S
C1047 C1048 1.373 . S
C1047 C1049 1.389 . S
C1048 H1021 0.950 . S
C1048 C1034 1.377 . S
C1048 C1047 1.373 . S
C1049 C1033 1.377 . S
C1049 C1047 1.389 . S
C1049 C1050 1.524 . S
C1050 C1049 1.524 . S
C1050 C1051 1.397 . S
C1050 C1055 1.363 . S
C1051 H1022 0.950 . S
C1051 C1050 1.397 . S
C1051 C1052 1.334 . S
C1052 H1023 0.950 . S
C1052 C1051 1.334 . S
C1052 C1053 1.287 . S
C1053 C1052 1.287 . S
C1053 C1054 1.524 . S
C1053 H1056 0.999 . S
C1054 H1024 0.950 . S
C1054 C1053 1.524 . S
C1054 C1055 1.415 . S
C1055 H1025 0.950 . S
C1055 C1050 1.363 . S
C1055 C1054 1.415 . S
H1056 C1053 0.999 . S
H1057 C1038 0.913 . S
H1058 C1076 0.982 . S
H1059 C1078 0.951 . S
H1060 C1080 0.950 . S
H1061 C1081 0.950 . S
H1062 C1083 0.950 . S
H1063 C1086 0.950 . S
H1064 C1087 0.950 . S
H1065 C1089 0.950 . S
H1066 C1090 0.950 . S
H1067 C1091 0.951 . S
H1068 C1093 0.951 . S
H1069 C1095 0.950 . S
H1070 C1096 0.950 . S
H1071 C1098 0.950 . S
H1072 C1101 0.950 . S
H1073 C1102 0.950 . S
H1074 C1104 0.950 . S
H1075 C1105 0.950 . S
C1076 H1058 0.982 . S
C1076 C1077 1.354 1_545 S
C1076 C1078 1.372 1_545 S
C1077 C1076 1.354 1_565 S
C1077 C1081 1.385 . S
C1078 H1059 0.951 . S
C1078 C1076 1.372 1_565 S
C1078 C1079 1.366 . S
C1079 C1078 1.366 . S
C1079 C1080 1.414 . S
C1079 C1082 1.499 . S
C1080 H1060 0.950 . S
C1080 C1079 1.414 . S
C1080 C1081 1.374 . S
C1081 H1061 0.950 . S
C1081 C1077 1.385 . S
C1081 C1080 1.374 . S
C1082 C1079 1.499 . S
C1082 C1083 1.373 . S
C1082 C1084 1.389 . S
C1083 H1062 0.950 . S
C1083 C1082 1.373 . S
C1083 C1099 1.377 . S
C1084 C1082 1.389 . S
C1084 C1085 1.524 1_565 S
C1084 C1098 1.377 . S
C1085 C1084 1.524 1_545 S
C1085 C1086 1.397 . S
C1085 C1090 1.363 . S
C1086 H1063 0.950 . S
C1086 C1085 1.397 . S
C1086 C1087 1.334 . S
C1087 H1064 0.950 . S
C1087 C1086 1.334 . S
C1087 C1088 1.287 . S
C1088 C1087 1.287 . S
C1088 C1089 1.524 . S
C1088 H1107 0.913 . S
C1089 H1065 0.950 . S
C1089 C1088 1.524 . S
C1089 C1090 1.415 . S
C1090 H1066 0.950 . S
C1090 C1085 1.363 . S
C1090 C1089 1.415 . S
C1091 H1067 0.951 . S
C1091 C1092 1.366 . S
C1091 C1093 1.388 . S
C1092 C1091 1.366 . S
C1092 C1096 1.385 . S
C1093 H1068 0.951 . S
C1093 C1091 1.388 . S
C1093 C1094 1.366 . S
C1094 C1093 1.366 . S
C1094 C1095 1.414 . S
C1094 C1097 1.499 . S
C1095 H1069 0.950 . S
C1095 C1094 1.414 . S
C1095 C1096 1.374 . S
C1096 H1070 0.950 . S
C1096 C1092 1.385 . S
C1096 C1095 1.374 . S
C1097 C1094 1.499 . S
C1097 C1098 1.373 . S
C1097 C1099 1.389 . S
C1098 H1071 0.950 . S
C1098 C1084 1.377 . S
C1098 C1097 1.373 . S
C1099 C1083 1.377 . S
C1099 C1097 1.389 . S
C1099 C1100 1.524 . S
C1100 C1099 1.524 . S
C1100 C1101 1.397 . S
C1100 C1105 1.363 . S
C1101 H1072 0.950 . S
C1101 C1100 1.397 . S
C1101 C1102 1.334 . S
C1102 H1073 0.950 . S
C1102 C1101 1.334 . S
C1102 C1103 1.287 . S
C1103 C1102 1.287 . S
C1103 C1104 1.524 . S
C1103 H1106 0.999 . S
C1104 H1074 0.950 . S
C1104 C1103 1.524 . S
C1104 C1105 1.415 . S
C1105 H1075 0.950 . S
C1105 C1100 1.363 . S
C1105 C1104 1.415 . S
H1106 C1103 0.999 . S
H1107 C1088 0.913 . S
H1108 C1126 0.951 . S
H1109 C1128 0.951 . S
H1110 C1130 0.950 1_556 S
H1111 C1131 0.950 . S
H1112 C1133 0.954 1_556 S
H1113 C1136 0.950 . S
H1114 C1137 0.950 . S
H1115 C1139 0.950 . S
H1116 C1140 0.950 . S
H1117 C1141 0.951 . S
H1118 C1143 0.951 . S
H1119 C1145 0.950 . S
H1120 C1146 0.950 . S
H1121 C1148 0.950 . S
H1122 C1151 0.950 . S
H1123 C1152 0.950 . S
H1124 C1154 0.950 . S
H1125 C1155 0.950 . S
C1126 H1108 0.951 . S
C1126 C1127 1.366 . S
C1126 C1128 1.388 . S
C1127 C1126 1.366 . S
C1127 C1131 1.385 1_554 S
C1128 H1109 0.951 . S
C1128 C1126 1.388 . S
C1128 C1129 1.366 . S
C1129 C1128 1.366 . S
C1129 C1130 1.414 . S
C1129 C1132 1.499 . S
C1130 H1110 0.950 1_554 S
C1130 C1129 1.414 . S
C1130 C1131 1.374 1_554 S
C1131 H1111 0.950 . S
C1131 C1127 1.385 1_556 S
C1131 C1130 1.374 1_556 S
C1132 C1129 1.499 . S
C1132 C1133 1.373 . S
C1132 C1134 1.389 . S
C1133 H1112 0.954 1_554 S
C1133 C1132 1.373 . S
C1133 C1149 1.377 . S
C1134 C1132 1.389 . S
C1134 C1135 1.524 . S
C1134 C1148 1.377 . S
C1135 C1134 1.524 . S
C1135 C1136 1.397 . S
C1135 C1140 1.363 . S
C1136 H1113 0.950 . S
C1136 C1135 1.397 . S
C1136 C1137 1.334 . S
C1137 H1114 0.950 . S
C1137 C1136 1.334 . S
C1137 C1138 1.287 . S
C1138 C1137 1.287 . S
C1138 C1139 1.524 . S
C1138 H1157 0.913 . S
C1139 H1115 0.950 . S
C1139 C1138 1.524 . S
C1139 C1140 1.415 . S
C1140 H1116 0.950 . S
C1140 C1135 1.363 . S
C1140 C1139 1.415 . S
C1141 H1117 0.951 . S
C1141 C1142 1.366 . S
C1141 C1143 1.388 . S
C1142 C1141 1.366 . S
C1142 C1146 1.385 . S
C1143 H1118 0.951 . S
C1143 C1141 1.388 . S
C1143 C1144 1.366 . S
C1144 C1143 1.366 . S
C1144 C1145 1.414 . S
C1144 C1147 1.499 . S
C1145 H1119 0.950 . S
C1145 C1144 1.414 . S
C1145 C1146 1.374 . S
C1146 H1120 0.950 . S
C1146 C1142 1.385 . S
C1146 C1145 1.374 . S
C1147 C1144 1.499 . S
C1147 C1148 1.373 . S
C1147 C1149 1.389 . S
C1148 H1121 0.950 . S
C1148 C1134 1.377 . S
C1148 C1147 1.373 . S
C1149 C1133 1.377 . S
C1149 C1147 1.389 . S
C1149 C1150 1.524 . S
C1150 C1149 1.524 . S
C1150 C1151 1.397 . S
C1150 C1155 1.363 1_554 S
C1151 H1122 0.950 . S
C1151 C1150 1.397 . S
C1151 C1152 1.334 1_554 S
C1152 H1123 0.950 . S
C1152 C1151 1.334 1_556 S
C1152 C1153 1.287 . S
C1153 C1152 1.287 . S
C1153 C1154 1.524 . S
C1153 H1156 0.999 . S
C1154 H1124 0.950 . S
C1154 C1153 1.524 . S
C1154 C1155 1.415 . S
C1155 H1125 0.950 . S
C1155 C1150 1.363 1_556 S
C1155 C1154 1.415 . S
H1156 C1153 0.999 . S
H1157 C1138 0.913 . S
H1158 C1176 0.951 . S
H1159 C1178 0.951 . S
H1160 C1180 0.950 . S
H1161 C1181 0.950 . S
H1162 C1183 0.950 . S
H1163 C1186 0.950 . S
H1164 C1187 0.950 . S
H1165 C1189 0.950 . S
H1166 C1190 0.950 . S
H1167 C1191 0.951 . S
H1168 C1193 0.951 . S
H1169 C1195 0.950 . S
H1170 C1196 0.950 1_565 S
H1171 C1198 0.950 . S
H1172 C1201 0.950 . S
H1173 C1202 0.950 . S
H1174 C1204 0.950 . S
H1175 C1205 0.950 . S
C1176 H1158 0.951 . S
C1176 C1177 1.366 . S
C1176 C1178 1.388 . S
C1177 C1176 1.366 . S
C1177 C1181 1.385 . S
C1178 H1159 0.951 . S
C1178 C1176 1.388 . S
C1178 C1179 1.366 . S
C1179 C1178 1.366 . S
C1179 C1180 1.414 . S
C1179 C1182 1.499 . S
C1180 H1160 0.950 . S
C1180 C1179 1.414 . S
C1180 C1181 1.374 . S
C1181 H1161 0.950 . S
C1181 C1177 1.385 . S
C1181 C1180 1.374 . S
C1182 C1179 1.499 . S
C1182 C1183 1.373 . S
C1182 C1184 1.389 . S
C1183 H1162 0.950 . S
C1183 C1182 1.373 . S
C1183 C1199 1.377 . S
C1184 C1182 1.389 . S
C1184 C1185 1.524 . S
C1184 C1198 1.377 . S
C1185 C1184 1.524 . S
C1185 C1186 1.397 . S
C1185 C1190 1.363 . S
C1186 H1163 0.950 . S
C1186 C1185 1.397 . S
C1186 C1187 1.334 . S
C1187 H1164 0.950 . S
C1187 C1186 1.334 . S
C1187 C1188 1.287 . S
C1188 C1187 1.287 . S
C1188 C1189 1.524 . S
C1188 H1207 0.913 . S
C1189 H1165 0.950 . S
C1189 C1188 1.524 . S
C1189 C1190 1.415 . S
C1190 H1166 0.950 . S
C1190 C1185 1.363 . S
C1190 C1189 1.415 . S
C1191 H1167 0.951 . S
C1191 C1192 1.366 . S
C1191 C1193 1.388 . S
C1192 C1191 1.366 . S
C1192 C1196 1.385 . S
C1193 H1168 0.951 . S
C1193 C1191 1.388 . S
C1193 C1194 1.366 . S
C1194 C1193 1.366 . S
C1194 C1195 1.414 . S
C1194 C1197 1.499 . S
C1195 H1169 0.950 . S
C1195 C1194 1.414 . S
C1195 C1196 1.374 . S
C1196 H1170 0.950 1_545 S
C1196 C1192 1.385 . S
C1196 C1195 1.374 . S
C1197 C1194 1.499 . S
C1197 C1198 1.373 . S
C1197 C1199 1.389 . S
C1198 H1171 0.950 . S
C1198 C1184 1.377 . S
C1198 C1197 1.373 . S
C1199 C1183 1.377 . S
C1199 C1197 1.389 . S
C1199 C1200 1.524 . S
C1200 C1199 1.524 . S
C1200 C1201 1.397 1_545 S
C1200 C1205 1.363 . S
C1201 H1172 0.950 . S
C1201 C1200 1.397 1_565 S
C1201 C1202 1.334 . S
C1202 H1173 0.950 . S
C1202 C1201 1.334 . S
C1202 C1203 1.287 . S
C1203 C1202 1.287 . S
C1203 C1204 1.524 1_565 S
C1203 H1206 0.999 . S
C1204 H1174 0.950 . S
C1204 C1203 1.524 1_545 S
C1204 C1205 1.415 . S
C1205 H1175 0.950 . S
C1205 C1200 1.363 . S
C1205 C1204 1.415 . S
H1206 C1203 0.999 . S
H1207 C1188 0.913 . S
H1208 C1226 0.951 . S
H1209 C1228 0.951 . S
H1210 C1230 0.950 . S
H1211 C1231 0.950 . S
H1212 C1233 0.950 . S
H1213 C1236 0.950 . S
H1214 C1237 0.950 . S
H1215 C1239 0.950 . S
H1216 C1240 0.950 . S
H1217 C1241 0.951 . S
H1218 C1243 0.951 . S
H1219 C1245 0.950 . S
H1220 C1246 0.950 . S
H1221 C1248 0.950 . S
H1222 C1251 0.950 . S
H1223 C1252 0.950 . S
H1224 C1254 0.950 . S
H1225 C1255 0.950 . S
C1226 H1208 0.951 . S
C1226 C1227 1.366 . S
C1226 C1228 1.388 . S
C1227 C1226 1.366 . S
C1227 C1231 1.385 . S
C1228 H1209 0.951 . S
C1228 C1226 1.388 . S
C1228 C1229 1.366 . S
C1229 C1228 1.366 . S
C1229 C1230 1.414 . S
C1229 C1232 1.499 . S
C1230 H1210 0.950 . S
C1230 C1229 1.414 . S
C1230 C1231 1.374 . S
C1231 H1211 0.950 . S
C1231 C1227 1.385 . S
C1231 C1230 1.374 . S
C1232 C1229 1.499 . S
C1232 C1233 1.373 . S
C1232 C1234 1.389 . S
C1233 H1212 0.950 . S
C1233 C1232 1.373 . S
C1233 C1249 1.377 . S
C1234 C1232 1.389 . S
C1234 C1235 1.524 . S
C1234 C1248 1.377 . S
C1235 C1234 1.524 . S
C1235 C1236 1.397 . S
C1235 C1240 1.363 . S
C1236 H1213 0.950 . S
C1236 C1235 1.397 . S
C1236 C1237 1.334 . S
C1237 H1214 0.950 . S
C1237 C1236 1.334 . S
C1237 C1238 1.287 . S
C1238 C1237 1.287 . S
C1238 C1239 1.524 . S
C1238 H1257 0.913 . S
C1239 H1215 0.950 . S
C1239 C1238 1.524 . S
C1239 C1240 1.415 . S
C1240 H1216 0.950 . S
C1240 C1235 1.363 . S
C1240 C1239 1.415 . S
C1241 H1217 0.951 . S
C1241 C1242 1.366 . S
C1241 C1243 1.388 . S
C1242 C1241 1.366 . S
C1242 C1246 1.385 . S
C1243 H1218 0.951 . S
C1243 C1241 1.388 . S
C1243 C1244 1.366 . S
C1244 C1243 1.366 . S
C1244 C1245 1.414 . S
C1244 C1247 1.499 . S
C1245 H1219 0.950 . S
C1245 C1244 1.414 . S
C1245 C1246 1.374 . S
C1246 H1220 0.950 . S
C1246 C1242 1.385 . S
C1246 C1245 1.374 . S
C1247 C1244 1.499 . S
C1247 C1248 1.373 . S
C1247 C1249 1.389 . S
C1248 H1221 0.950 . S
C1248 C1234 1.377 . S
C1248 C1247 1.373 . S
C1249 C1233 1.377 . S
C1249 C1247 1.389 . S
C1249 C1250 1.524 . S
C1250 C1249 1.524 . S
C1250 C1251 1.397 . S
C1250 C1255 1.363 . S
C1251 H1222 0.950 . S
C1251 C1250 1.397 . S
C1251 C1252 1.334 . S
C1252 H1223 0.950 . S
C1252 C1251 1.334 . S
C1252 C1253 1.287 . S
C1253 C1252 1.287 . S
C1253 C1254 1.524 . S
C1253 H1256 0.999 . S
C1254 H1224 0.950 . S
C1254 C1253 1.524 . S
C1254 C1255 1.415 . S
C1255 H1225 0.950 . S
C1255 C1250 1.363 . S
C1255 C1254 1.415 . S
H1256 C1253 0.999 . S
H1257 C1238 0.913 . S
H1258 C1276 0.951 . S
H1259 C1278 0.951 . S
H1260 C1280 0.950 . S
H1261 C1281 0.950 . S
H1262 C1283 0.950 . S
H1263 C1286 0.950 . S
H1264 C1287 0.950 . S
H1265 C1289 0.950 . S
H1266 C1290 0.950 . S
H1267 C1291 0.951 . S
H1268 C1293 0.951 . S
H1269 C1295 0.950 . S
H1270 C1296 0.950 . S
H1271 C1298 0.950 . S
H1272 C1301 0.950 . S
H1273 C1302 0.950 . S
H1274 C1304 0.950 . S
H1275 C1305 0.950 . S
C1276 H1258 0.951 . S
C1276 C1277 1.366 . S
C1276 C1278 1.388 . S
C1277 C1276 1.366 . S
C1277 C1281 1.385 . S
C1278 H1259 0.951 . S
C1278 C1276 1.388 . S
C1278 C1279 1.366 . S
C1279 C1278 1.366 . S
C1279 C1280 1.414 . S
C1279 C1282 1.499 . S
C1280 H1260 0.950 . S
C1280 C1279 1.414 . S
C1280 C1281 1.374 . S
C1281 H1261 0.950 . S
C1281 C1277 1.385 . S
C1281 C1280 1.374 . S
C1282 C1279 1.499 . S
C1282 C1283 1.373 . S
C1282 C1284 1.389 . S
C1283 H1262 0.950 . S
C1283 C1282 1.373 . S
C1283 C1299 1.377 . S
C1284 C1282 1.389 . S
C1284 C1285 1.524 . S
C1284 C1298 1.377 . S
C1285 C1284 1.524 . S
C1285 C1286 1.397 . S
C1285 C1290 1.363 . S
C1286 H1263 0.950 . S
C1286 C1285 1.397 . S
C1286 C1287 1.334 . S
C1287 H1264 0.950 . S
C1287 C1286 1.334 . S
C1287 C1288 1.287 . S
C1288 C1287 1.287 . S
C1288 C1289 1.524 . S
C1288 H1307 0.913 . S
C1289 H1265 0.950 . S
C1289 C1288 1.524 . S
C1289 C1290 1.415 . S
C1290 H1266 0.950 . S
C1290 C1285 1.363 . S
C1290 C1289 1.415 . S
C1291 H1267 0.951 . S
C1291 C1292 1.366 . S
C1291 C1293 1.388 . S
C1292 C1291 1.366 . S
C1292 C1296 1.385 . S
C1293 H1268 0.951 . S
C1293 C1291 1.388 . S
C1293 C1294 1.366 . S
C1294 C1293 1.366 . S
C1294 C1295 1.414 . S
C1294 C1297 1.499 . S
C1295 H1269 0.950 . S
C1295 C1294 1.414 . S
C1295 C1296 1.374 . S
C1296 H1270 0.950 . S
C1296 C1292 1.385 . S
C1296 C1295 1.374 . S
C1297 C1294 1.499 . S
C1297 C1298 1.373 . S
C1297 C1299 1.389 . S
C1298 H1271 0.950 . S
C1298 C1284 1.377 . S
C1298 C1297 1.373 . S
C1299 C1283 1.377 . S
C1299 C1297 1.389 . S
C1299 C1300 1.524 . S
C1300 C1299 1.524 . S
C1300 C1301 1.397 . S
C1300 C1305 1.363 . S
C1301 H1272 0.950 . S
C1301 C1300 1.397 . S
C1301 C1302 1.334 . S
C1302 H1273 0.950 . S
C1302 C1301 1.334 . S
C1302 C1303 1.287 . S
C1303 C1302 1.287 . S
C1303 C1304 1.524 . S
C1303 H1306 0.999 . S
C1304 H1274 0.950 . S
C1304 C1303 1.524 . S
C1304 C1305 1.415 . S
C1305 H1275 0.950 . S
C1305 C1300 1.363 . S
C1305 C1304 1.415 . S
H1306 C1303 0.999 . S
H1307 C1288 0.913 . S
H1308 C1326 0.951 . S
H1309 C1328 0.951 . S
H1310 C1330 0.950 . S
H1311 C1331 0.950 . S
H1312 C1333 0.950 . S
H1313 C1336 0.950 . S
H1314 C1337 0.950 . S
H1315 C1339 0.950 . S
H1316 C1340 0.950 . S
H1317 C1341 0.951 . S
H1318 C1343 0.951 . S
H1319 C1345 0.950 . S
H1320 C1346 0.950 . S
H1321 C1348 0.950 . S
H1322 C1351 0.950 . S
H1323 C1352 0.950 . S
H1324 C1354 0.950 . S
H1325 C1355 0.950 . S
C1326 H1308 0.951 . S
C1326 C1327 1.366 . S
C1326 C1328 1.388 . S
C1327 C1326 1.366 . S
C1327 C1331 1.385 . S
C1328 H1309 0.951 . S
C1328 C1326 1.388 . S
C1328 C1329 1.366 . S
C1329 C1328 1.366 . S
C1329 C1330 1.414 . S
C1329 C1332 1.499 . S
C1330 H1310 0.950 . S
C1330 C1329 1.414 . S
C1330 C1331 1.374 . S
C1331 H1311 0.950 . S
C1331 C1327 1.385 . S
C1331 C1330 1.374 . S
C1332 C1329 1.499 . S
C1332 C1333 1.373 . S
C1332 C1334 1.389 . S
C1333 H1312 0.950 . S
C1333 C1332 1.373 . S
C1333 C1349 1.377 . S
C1334 C1332 1.389 . S
C1334 C1335 1.524 . S
C1334 C1348 1.377 . S
C1335 C1334 1.524 . S
C1335 C1336 1.397 . S
C1335 C1340 1.363 . S
C1336 H1313 0.950 . S
C1336 C1335 1.397 . S
C1336 C1337 1.334 . S
C1337 H1314 0.950 . S
C1337 C1336 1.334 . S
C1337 C1338 1.287 . S
C1338 C1337 1.287 . S
C1338 C1339 1.524 . S
C1338 H1357 0.913 . S
C1339 H1315 0.950 . S
C1339 C1338 1.524 . S
C1339 C1340 1.415 . S
C1340 H1316 0.950 . S
C1340 C1335 1.363 . S
C1340 C1339 1.415 . S
C1341 H1317 0.951 . S
C1341 C1342 1.366 . S
C1341 C1343 1.388 . S
C1342 C1341 1.366 . S
C1342 C1346 1.385 1_556 S
C1343 H1318 0.951 . S
C1343 C1341 1.388 . S
C1343 C1344 1.366 . S
C1344 C1343 1.366 . S
C1344 C1345 1.414 . S
C1344 C1347 1.499 . S
C1345 H1319 0.950 . S
C1345 C1344 1.414 . S
C1345 C1346 1.374 1_556 S
C1346 H1320 0.950 . S
C1346 C1342 1.385 1_554 S
C1346 C1345 1.374 1_554 S
C1347 C1344 1.499 . S
C1347 C1348 1.373 . S
C1347 C1349 1.389 . S
C1348 H1321 0.950 . S
C1348 C1334 1.377 . S
C1348 C1347 1.373 . S
C1349 C1333 1.377 . S
C1349 C1347 1.389 . S
C1349 C1350 1.524 . S
C1350 C1349 1.524 . S
C1350 C1351 1.397 1_556 S
C1350 C1355 1.363 . S
C1351 H1322 0.950 . S
C1351 C1350 1.397 1_554 S
C1351 C1352 1.334 . S
C1352 H1323 0.950 . S
C1352 C1351 1.334 . S
C1352 C1353 1.287 . S
C1353 C1352 1.287 . S
C1353 C1354 1.524 1_554 S
C1353 H1356 0.999 . S
C1354 H1324 0.950 . S
C1354 C1353 1.524 1_556 S
C1354 C1355 1.415 . S
C1355 H1325 0.950 . S
C1355 C1350 1.363 . S
C1355 C1354 1.415 . S
H1356 C1353 0.999 . S
H1357 C1338 0.913 . S
H1358 C1376 0.951 . S
H1359 C1378 0.951 . S
H1360 C1380 0.950 . S
H1361 C1381 0.950 . S
H1362 C1383 0.950 . S
H1363 C1386 0.950 . S
H1364 C1387 0.950 . S
H1365 C1389 0.950 . S
H1366 C1390 0.950 . S
H1367 C1391 0.951 . S
H1368 C1393 0.951 . S
H1369 C1395 0.950 . S
H1370 C1396 0.950 . S
H1371 C1398 0.950 . S
H1372 C1401 0.950 . S
H1373 C1402 0.950 . S
H1374 C1404 0.950 . S
H1375 C1405 0.950 . S
C1376 H1358 0.951 . S
C1376 C1377 1.366 . S
C1376 C1378 1.388 . S
C1377 C1376 1.366 . S
C1377 C1381 1.385 . S
C1378 H1359 0.951 . S
C1378 C1376 1.388 . S
C1378 C1379 1.366 . S
C1379 C1378 1.366 . S
C1379 C1380 1.414 . S
C1379 C1382 1.499 . S
C1380 H1360 0.950 . S
C1380 C1379 1.414 . S
C1380 C1381 1.374 . S
C1381 H1361 0.950 . S
C1381 C1377 1.385 . S
C1381 C1380 1.374 . S
C1382 C1379 1.499 . S
C1382 C1383 1.373 . S
C1382 C1384 1.389 . S
C1383 H1362 0.950 . S
C1383 C1382 1.373 . S
C1383 C1399 1.377 . S
C1384 C1382 1.389 . S
C1384 C1385 1.524 . S
C1384 C1398 1.377 . S
C1385 C1384 1.524 . S
C1385 C1386 1.397 . S
C1385 C1390 1.363 . S
C1386 H1363 0.950 . S
C1386 C1385 1.397 . S
C1386 C1387 1.334 . S
C1387 H1364 0.950 . S
C1387 C1386 1.334 . S
C1387 C1388 1.287 . S
C1388 C1387 1.287 . S
C1388 C1389 1.524 . S
C1388 H1407 0.913 . S
C1389 H1365 0.950 . S
C1389 C1388 1.524 . S
C1389 C1390 1.415 . S
C1390 H1366 0.950 . S
C1390 C1385 1.363 . S
C1390 C1389 1.415 . S
C1391 H1367 0.951 . S
C1391 C1392 1.366 . S
C1391 C1393 1.388 . S
C1392 C1391 1.366 . S
C1392 C1396 1.385 . S
C1393 H1368 0.951 . S
C1393 C1391 1.388 . S
C1393 C1394 1.366 . S
C1394 C1393 1.366 . S
C1394 C1395 1.414 . S
C1394 C1397 1.499 . S
C1395 H1369 0.950 . S
C1395 C1394 1.414 . S
C1395 C1396 1.374 . S
C1396 H1370 0.950 . S
C1396 C1392 1.385 . S
C1396 C1395 1.374 . S
C1397 C1394 1.499 . S
C1397 C1398 1.373 . S
C1397 C1399 1.389 . S
C1398 H1371 0.950 . S
C1398 C1384 1.377 . S
C1398 C1397 1.373 . S
C1399 C1383 1.377 . S
C1399 C1397 1.389 . S
C1399 C1400 1.524 . S
C1400 C1399 1.524 . S
C1400 C1401 1.397 . S
C1400 C1405 1.363 . S
C1401 H1372 0.950 . S
C1401 C1400 1.397 . S
C1401 C1402 1.334 . S
C1402 H1373 0.950 . S
C1402 C1401 1.334 . S
C1402 C1403 1.287 . S
C1403 C1402 1.287 . S
C1403 C1404 1.524 . S
C1403 H1406 0.999 . S
C1404 H1374 0.950 . S
C1404 C1403 1.524 . S
C1404 C1405 1.415 . S
C1405 H1375 0.950 . S
C1405 C1400 1.363 . S
C1405 C1404 1.415 . S
H1406 C1403 0.999 . S
H1407 C1388 0.913 . S
H1408 C1426 0.951 . S
H1409 C1428 0.951 . S
H1410 C1430 0.950 . S
H1411 C1431 0.950 . S
H1412 C1433 0.950 . S
H1413 C1436 0.950 . S
H1414 C1437 0.950 . S
H1415 C1439 0.950 . S
H1416 C1440 0.950 . S
H1417 C1441 0.951 . S
H1418 C1443 0.951 . S
H1419 C1445 0.950 . S
H1420 C1446 0.950 . S
H1421 C1448 0.950 . S
H1422 C1451 0.950 . S
H1423 C1452 0.950 . S
H1424 C1454 0.950 . S
H1425 C1455 0.950 . S
C1426 H1408 0.951 . S
C1426 C1427 1.366 . S
C1426 C1428 1.388 . S
C1427 C1426 1.366 . S
C1427 C1431 1.385 . S
C1428 H1409 0.951 . S
C1428 C1426 1.388 . S
C1428 C1429 1.366 . S
C1429 C1428 1.366 . S
C1429 C1430 1.414 . S
C1429 C1432 1.499 . S
C1430 H1410 0.950 . S
C1430 C1429 1.414 . S
C1430 C1431 1.374 . S
C1431 H1411 0.950 . S
C1431 C1427 1.385 . S
C1431 C1430 1.374 . S
C1432 C1429 1.499 . S
C1432 C1433 1.373 . S
C1432 C1434 1.389 . S
C1433 H1412 0.950 . S
C1433 C1432 1.373 . S
C1433 C1449 1.377 . S
C1434 C1432 1.389 . S
C1434 C1435 1.524 . S
C1434 C1448 1.377 . S
C1435 C1434 1.524 . S
C1435 C1436 1.397 . S
C1435 C1440 1.363 . S
C1436 H1413 0.950 . S
C1436 C1435 1.397 . S
C1436 C1437 1.334 . S
C1437 H1414 0.950 . S
C1437 C1436 1.334 . S
C1437 C1438 1.287 . S
C1438 C1437 1.287 . S
C1438 C1439 1.524 . S
C1438 H1457 0.913 . S
C1439 H1415 0.950 . S
C1439 C1438 1.524 . S
C1439 C1440 1.415 . S
C1440 H1416 0.950 . S
C1440 C1435 1.363 . S
C1440 C1439 1.415 . S
C1441 H1417 0.951 . S
C1441 C1442 1.366 . S
C1441 C1443 1.388 . S
C1442 C1441 1.366 . S
C1442 C1446 1.385 . S
C1443 H1418 0.951 . S
C1443 C1441 1.388 . S
C1443 C1444 1.366 . S
C1444 C1443 1.366 . S
C1444 C1445 1.414 . S
C1444 C1447 1.499 . S
C1445 H1419 0.950 . S
C1445 C1444 1.414 . S
C1445 C1446 1.374 . S
C1446 H1420 0.950 . S
C1446 C1442 1.385 . S
C1446 C1445 1.374 . S
C1447 C1444 1.499 . S
C1447 C1448 1.373 . S
C1447 C1449 1.389 . S
C1448 H1421 0.950 . S
C1448 C1434 1.377 . S
C1448 C1447 1.373 . S
C1449 C1433 1.377 . S
C1449 C1447 1.389 . S
C1449 C1450 1.524 . S
C1450 C1449 1.524 . S
C1450 C1451 1.397 . S
C1450 C1455 1.363 . S
C1451 H1422 0.950 . S
C1451 C1450 1.397 . S
C1451 C1452 1.334 . S
C1452 H1423 0.950 . S
C1452 C1451 1.334 . S
C1452 C1453 1.287 . S
C1453 C1452 1.287 . S
C1453 C1454 1.524 . S
C1453 H1456 0.999 . S
C1454 H1424 0.950 . S
C1454 C1453 1.524 . S
C1454 C1455 1.415 . S
C1455 H1425 0.950 . S
C1455 C1450 1.363 . S
C1455 C1454 1.415 . S
H1456 C1453 0.999 . S
H1457 C1438 0.913 . S
H1458 C1476 0.951 . S
H1459 C1478 0.951 . S
H1460 C1480 0.950 . S
H1461 C1481 0.950 . S
H1462 C1483 0.950 . S
H1463 C1486 0.950 . S
H1464 C1487 0.950 . S
H1465 C1489 0.950 . S
H1466 C1490 0.950 . S
H1467 C1491 0.951 . S
H1468 C1493 0.951 . S
H1469 C1495 0.933 1_655 S
H1470 C1496 0.950 . S
H1471 C1498 0.950 . S
H1472 C1501 0.950 1_655 S
H1473 C1502 0.950 . S
H1474 C1504 0.950 . S
H1475 C1505 0.950 . S
C1476 H1458 0.951 . S
C1476 C1477 1.366 . S
C1476 C1478 1.388 . S
C1477 C1476 1.366 . S
C1477 C1481 1.385 . S
C1478 H1459 0.951 . S
C1478 C1476 1.388 . S
C1478 C1479 1.366 . S
C1479 C1478 1.366 . S
C1479 C1480 1.414 . S
C1479 C1482 1.499 . S
C1480 H1460 0.950 . S
C1480 C1479 1.414 . S
C1480 C1481 1.374 . S
C1481 H1461 0.950 . S
C1481 C1477 1.385 . S
C1481 C1480 1.374 . S
C1482 C1479 1.499 . S
C1482 C1483 1.373 . S
C1482 C1484 1.389 . S
C1483 H1462 0.950 . S
C1483 C1482 1.373 . S
C1483 C1499 1.377 . S
C1484 C1482 1.389 . S
C1484 C1485 1.524 . S
C1484 C1498 1.377 . S
C1485 C1484 1.524 . S
C1485 C1486 1.397 . S
C1485 C1490 1.363 . S
C1486 H1463 0.950 . S
C1486 C1485 1.397 . S
C1486 C1487 1.334 . S
C1487 H1464 0.950 . S
C1487 C1486 1.334 . S
C1487 C1488 1.287 . S
C1488 C1487 1.287 . S
C1488 C1489 1.524 . S
C1488 H1507 0.913 . S
C1489 H1465 0.950 . S
C1489 C1488 1.524 . S
C1489 C1490 1.415 . S
C1490 H1466 0.950 . S
C1490 C1485 1.363 . S
C1490 C1489 1.415 . S
C1491 H1467 0.951 . S
C1491 C1492 1.366 . S
C1491 C1493 1.388 . S
C1492 C1491 1.366 . S
C1492 C1496 1.385 1_455 S
C1493 H1468 0.951 . S
C1493 C1491 1.388 . S
C1493 C1494 1.366 . S
C1494 C1493 1.366 . S
C1494 C1495 1.449 . S
C1494 C1497 1.499 . S
C1495 H1469 0.933 1_455 S
C1495 C1494 1.449 . S
C1495 C1496 1.359 1_455 S
C1496 H1470 0.950 . S
C1496 C1492 1.385 1_655 S
C1496 C1495 1.359 1_655 S
C1497 C1494 1.499 . S
C1497 C1498 1.373 . S
C1497 C1499 1.389 . S
C1498 H1471 0.950 . S
C1498 C1484 1.377 . S
C1498 C1497 1.373 . S
C1499 C1483 1.377 . S
C1499 C1497 1.389 . S
C1499 C1500 1.524 . S
C1500 C1499 1.524 . S
C1500 C1501 1.397 . S
C1500 C1505 1.363 . S
C1501 H1472 0.950 1_455 S
C1501 C1500 1.397 . S
C1501 C1502 1.334 1_455 S
C1502 H1473 0.950 . S
C1502 C1501 1.334 1_655 S
C1502 C1503 1.287 1_655 S
C1503 C1502 1.287 1_455 S
C1503 C1504 1.524 . S
C1503 H1506 0.999 . S
C1504 H1474 0.950 . S
C1504 C1503 1.524 . S
C1504 C1505 1.415 . S
C1505 H1475 0.950 . S
C1505 C1500 1.363 . S
C1505 C1504 1.415 . S
H1506 C1503 0.999 . S
H1507 C1488 0.913 . S
H1508 C1526 0.951 . S
H1509 C1528 0.951 1_455 S
H1510 C1530 0.950 . S
H1511 C1531 0.950 . S
H1512 C1533 0.950 . S
H1513 C1536 0.950 . S
H1514 C1537 0.950 . S
H1515 C1539 0.950 1_455 S
H1516 C1540 0.950 . S
H1517 C1541 0.951 . S
H1518 C1543 0.951 . S
H1519 C1545 0.950 . S
H1520 C1546 0.950 . S
H1521 C1548 0.950 . S
H1522 C1551 0.950 . S
H1523 C1552 0.950 . S
H1524 C1554 0.950 . S
H1525 C1555 0.950 . S
C1526 H1508 0.951 . S
C1526 C1527 1.366 1_455 S
C1526 C1528 1.388 1_455 S
C1527 C1526 1.366 1_655 S
C1527 C1531 1.385 . S
C1528 H1509 0.951 1_655 S
C1528 C1526 1.388 1_655 S
C1528 C1529 1.366 . S
C1529 C1528 1.366 . S
C1529 C1530 1.414 . S
C1529 C1532 1.499 . S
C1530 H1510 0.950 . S
C1530 C1529 1.414 . S
C1530 C1531 1.374 . S
C1531 H1511 0.950 . S
C1531 C1527 1.385 . S
C1531 C1530 1.374 . S
C1532 C1529 1.499 . S
C1532 C1533 1.373 . S
C1532 C1534 1.389 . S
C1533 H1512 0.950 . S
C1533 C1532 1.373 . S
C1533 C1549 1.377 . S
C1534 C1532 1.389 . S
C1534 C1535 1.524 . S
C1534 C1548 1.377 . S
C1535 C1534 1.524 . S
C1535 C1536 1.397 . S
C1535 C1540 1.363 . S
C1536 H1513 0.950 . S
C1536 C1535 1.397 . S
C1536 C1537 1.334 . S
C1537 H1514 0.950 . S
C1537 C1536 1.334 . S
C1537 C1538 1.287 . S
C1538 C1537 1.287 . S
C1538 C1539 1.524 . S
C1538 H1557 0.913 . S
C1539 H1515 0.950 1_655 S
C1539 C1538 1.524 . S
C1539 C1540 1.415 . S
C1540 H1516 0.950 . S
C1540 C1535 1.363 . S
C1540 C1539 1.415 . S
C1541 H1517 0.951 . S
C1541 C1542 1.366 . S
C1541 C1543 1.388 . S
C1542 C1541 1.366 . S
C1542 C1546 1.385 . S
C1543 H1518 0.951 . S
C1543 C1541 1.388 . S
C1543 C1544 1.366 . S
C1544 C1543 1.366 . S
C1544 C1545 1.414 . S
C1544 C1547 1.499 . S
C1545 H1519 0.950 . S
C1545 C1544 1.414 . S
C1545 C1546 1.374 . S
C1546 H1520 0.950 . S
C1546 C1542 1.385 . S
C1546 C1545 1.374 . S
C1547 C1544 1.499 . S
C1547 C1548 1.373 . S
C1547 C1549 1.389 . S
C1548 H1521 0.950 . S
C1548 C1534 1.377 . S
C1548 C1547 1.373 . S
C1549 C1533 1.377 . S
C1549 C1547 1.389 . S
C1549 C1550 1.524 . S
C1550 C1549 1.524 . S
C1550 C1551 1.397 . S
C1550 C1555 1.363 . S
C1551 H1522 0.950 . S
C1551 C1550 1.397 . S
C1551 C1552 1.334 . S
C1552 H1523 0.950 . S
C1552 C1551 1.334 . S
C1552 C1553 1.287 . S
C1553 C1552 1.287 . S
C1553 C1554 1.524 . S
C1553 H1556 0.999 . S
C1554 H1524 0.950 . S
C1554 C1553 1.524 . S
C1554 C1555 1.415 . S
C1555 H1525 0.950 . S
C1555 C1550 1.363 . S
C1555 C1554 1.415 . S
H1556 C1553 0.999 . S
H1557 C1538 0.913 . S
H1558 C1576 0.951 . S
H1559 C1578 0.951 . S
H1560 C1580 0.950 . S
H1561 C1581 0.950 . S
H1562 C1583 0.950 . S
H1563 C1586 0.950 . S
H1564 C1587 0.950 . S
H1565 C1589 0.950 . S
H1566 C1590 0.950 . S
H1567 C1591 0.951 . S
H1568 C1593 0.951 . S
H1569 C1595 0.950 . S
H1570 C1596 0.950 . S
H1571 C1598 0.950 . S
H1572 C1601 0.950 . S
H1573 C1602 0.950 . S
H1574 C1604 0.950 . S
H1575 C1605 0.950 . S
C1576 H1558 0.951 . S
C1576 C1577 1.366 . S
C1576 C1578 1.388 . S
C1577 C1576 1.366 . S
C1577 C1581 1.385 . S
C1578 H1559 0.951 . S
C1578 C1576 1.388 . S
C1578 C1579 1.366 . S
C1579 C1578 1.366 . S
C1579 C1580 1.414 . S
C1579 C1582 1.499 . S
C1580 H1560 0.950 . S
C1580 C1579 1.414 . S
C1580 C1581 1.374 . S
C1581 H1561 0.950 . S
C1581 C1577 1.385 . S
C1581 C1580 1.374 . S
C1582 C1579 1.499 . S
C1582 C1583 1.373 . S
C1582 C1584 1.389 . S
C1583 H1562 0.950 . S
C1583 C1582 1.373 . S
C1583 C1599 1.377 . S
C1584 C1582 1.389 . S
C1584 C1585 1.524 . S
C1584 C1598 1.377 . S
C1585 C1584 1.524 . S
C1585 C1586 1.397 . S
C1585 C1590 1.363 . S
C1586 H1563 0.950 . S
C1586 C1585 1.397 . S
C1586 C1587 1.334 . S
C1587 H1564 0.950 . S
C1587 C1586 1.334 . S
C1587 C1588 1.287 . S
C1588 C1587 1.287 . S
C1588 C1589 1.524 . S
C1588 H1607 0.913 . S
C1589 H1565 0.950 . S
C1589 C1588 1.524 . S
C1589 C1590 1.415 . S
C1590 H1566 0.950 . S
C1590 C1585 1.363 . S
C1590 C1589 1.415 . S
C1591 H1567 0.951 . S
C1591 C1592 1.366 . S
C1591 C1593 1.388 . S
C1592 C1591 1.366 . S
C1592 C1596 1.385 . S
C1593 H1568 0.951 . S
C1593 C1591 1.388 . S
C1593 C1594 1.366 . S
C1594 C1593 1.366 . S
C1594 C1595 1.414 . S
C1594 C1597 1.499 . S
C1595 H1569 0.950 . S
C1595 C1594 1.414 . S
C1595 C1596 1.374 . S
C1596 H1570 0.950 . S
C1596 C1592 1.385 . S
C1596 C1595 1.374 . S
C1597 C1594 1.499 . S
C1597 C1598 1.373 . S
C1597 C1599 1.389 . S
C1598 H1571 0.950 . S
C1598 C1584 1.377 . S
C1598 C1597 1.373 . S
C1599 C1583 1.377 . S
C1599 C1597 1.389 . S
C1599 C1600 1.524 . S
C1600 C1599 1.524 . S
C1600 C1601 1.397 . S
C1600 C1605 1.363 . S
C1601 H1572 0.950 . S
C1601 C1600 1.397 . S
C1601 C1602 1.334 . S
C1602 H1573 0.950 . S
C1602 C1601 1.334 . S
C1602 C1603 1.287 . S
C1603 C1602 1.287 . S
C1603 C1604 1.524 . S
C1603 H1606 0.999 . S
C1604 H1574 0.950 . S
C1604 C1603 1.524 . S
C1604 C1605 1.415 . S
C1605 H1575 0.950 . S
C1605 C1600 1.363 . S
C1605 C1604 1.415 . S
H1606 C1603 0.999 . S
H1607 C1588 0.913 . S
H1608 C1626 0.951 . S
H1609 C1628 0.951 . S
H1610 C1630 0.950 . S
H1611 C1631 0.950 . S
H1612 C1633 0.950 . S
H1613 C1636 0.950 . S
H1614 C1637 0.950 . S
H1615 C1639 0.950 . S
H1616 C1640 0.950 . S
H1617 C1641 0.951 . S
H1618 C1643 0.951 . S
H1619 C1645 0.950 . S
H1620 C1646 0.950 . S
H1621 C1648 0.950 . S
H1622 C1651 0.950 . S
H1623 C1652 0.950 . S
H1624 C1654 0.950 . S
H1625 C1655 0.950 . S
C1626 H1608 0.951 . S
C1626 C1627 1.366 . S
C1626 C1628 1.388 . S
C1627 C1626 1.366 . S
C1627 C1631 1.385 . S
C1628 H1609 0.951 . S
C1628 C1626 1.388 . S
C1628 C1629 1.366 . S
C1629 C1628 1.366 . S
C1629 C1630 1.414 . S
C1629 C1632 1.499 . S
C1630 H1610 0.950 . S
C1630 C1629 1.414 . S
C1630 C1631 1.374 . S
C1631 H1611 0.950 . S
C1631 C1627 1.385 . S
C1631 C1630 1.374 . S
C1632 C1629 1.499 . S
C1632 C1633 1.373 . S
C1632 C1634 1.389 . S
C1633 H1612 0.950 . S
C1633 C1632 1.373 . S
C1633 C1649 1.377 . S
C1634 C1632 1.389 . S
C1634 C1635 1.524 . S
C1634 C1648 1.377 . S
C1635 C1634 1.524 . S
C1635 C1636 1.397 . S
C1635 C1640 1.363 . S
C1636 H1613 0.950 . S
C1636 C1635 1.397 . S
C1636 C1637 1.334 . S
C1637 H1614 0.950 . S
C1637 C1636 1.334 . S
C1637 C1638 1.287 . S
C1638 C1637 1.287 . S
C1638 C1639 1.524 . S
C1638 H1657 0.913 . S
C1639 H1615 0.950 . S
C1639 C1638 1.524 . S
C1639 C1640 1.415 . S
C1640 H1616 0.950 . S
C1640 C1635 1.363 . S
C1640 C1639 1.415 . S
C1641 H1617 0.951 . S
C1641 C1642 1.366 . S
C1641 C1643 1.388 . S
C1642 C1641 1.366 . S
C1642 C1646 1.385 . S
C1643 H1618 0.951 . S
C1643 C1641 1.388 . S
C1643 C1644 1.366 . S
C1644 C1643 1.366 . S
C1644 C1645 1.414 . S
C1644 C1647 1.499 . S
C1645 H1619 0.950 . S
C1645 C1644 1.414 . S
C1645 C1646 1.374 . S
C1646 H1620 0.950 . S
C1646 C1642 1.385 . S
C1646 C1645 1.374 . S
C1647 C1644 1.499 . S
C1647 C1648 1.373 . S
C1647 C1649 1.389 . S
C1648 H1621 0.950 . S
C1648 C1634 1.377 . S
C1648 C1647 1.373 . S
C1649 C1633 1.377 . S
C1649 C1647 1.389 . S
C1649 C1650 1.524 . S
C1650 C1649 1.524 . S
C1650 C1651 1.397 . S
C1650 C1655 1.363 . S
C1651 H1622 0.950 . S
C1651 C1650 1.397 . S
C1651 C1652 1.334 . S
C1652 H1623 0.950 . S
C1652 C1651 1.334 . S
C1652 C1653 1.287 . S
C1653 C1652 1.287 . S
C1653 C1654 1.524 . S
C1653 H1656 0.999 . S
C1654 H1624 0.950 . S
C1654 C1653 1.524 . S
C1654 C1655 1.415 . S
C1655 H1625 0.950 . S
C1655 C1650 1.363 . S
C1655 C1654 1.415 . S
H1656 C1653 0.999 . S
H1657 C1638 0.913 . S
H1658 C1676 0.951 . S
H1659 C1678 0.951 . S
H1660 C1680 0.950 . S
H1661 C1681 0.950 . S
H1662 C1683 0.950 . S
H1663 C1686 0.950 . S
H1664 C1687 0.950 . S
H1665 C1689 0.950 . S
H1666 C1690 0.950 . S
H1667 C1691 0.951 . S
H1668 C1693 0.951 . S
H1669 C1695 0.950 . S
H1670 C1696 0.950 . S
H1671 C1698 0.950 . S
H1672 C1701 0.950 . S
H1673 C1702 0.950 . S
H1674 C1704 0.950 . S
H1675 C1705 0.950 . S
C1676 H1658 0.951 . S
C1676 C1677 1.366 . S
C1676 C1678 1.388 . S
C1677 C1676 1.366 . S
C1677 C1681 1.385 . S
C1678 H1659 0.951 . S
C1678 C1676 1.388 . S
C1678 C1679 1.366 . S
C1679 C1678 1.366 . S
C1679 C1680 1.414 . S
C1679 C1682 1.499 . S
C1680 H1660 0.950 . S
C1680 C1679 1.414 . S
C1680 C1681 1.374 . S
C1681 H1661 0.950 . S
C1681 C1677 1.385 . S
C1681 C1680 1.374 . S
C1682 C1679 1.499 . S
C1682 C1683 1.373 . S
C1682 C1684 1.389 . S
C1683 H1662 0.950 . S
C1683 C1682 1.373 . S
C1683 C1699 1.377 . S
C1684 C1682 1.389 . S
C1684 C1685 1.524 . S
C1684 C1698 1.377 . S
C1685 C1684 1.524 . S
C1685 C1686 1.397 . S
C1685 C1690 1.363 . S
C1686 H1663 0.950 . S
C1686 C1685 1.397 . S
C1686 C1687 1.334 . S
C1687 H1664 0.950 . S
C1687 C1686 1.334 . S
C1687 C1688 1.287 . S
C1688 C1687 1.287 . S
C1688 C1689 1.524 . S
C1688 H1707 0.913 . S
C1689 H1665 0.950 . S
C1689 C1688 1.524 . S
C1689 C1690 1.415 . S
C1690 H1666 0.950 . S
C1690 C1685 1.363 . S
C1690 C1689 1.415 . S
C1691 H1667 0.951 . S
C1691 C1692 1.366 . S
C1691 C1693 1.388 . S
C1692 C1691 1.366 . S
C1692 C1696 1.385 . S
C1693 H1668 0.951 . S
C1693 C1691 1.388 . S
C1693 C1694 1.366 . S
C1694 C1693 1.366 . S
C1694 C1695 1.414 . S
C1694 C1697 1.499 . S
C1695 H1669 0.950 . S
C1695 C1694 1.414 . S
C1695 C1696 1.374 . S
C1696 H1670 0.950 . S
C1696 C1692 1.385 . S
C1696 C1695 1.374 . S
C1697 C1694 1.499 . S
C1697 C1698 1.373 . S
C1697 C1699 1.389 . S
C1698 H1671 0.950 . S
C1698 C1684 1.377 . S
C1698 C1697 1.373 . S
C1699 C1683 1.377 . S
C1699 C1697 1.389 . S
C1699 C1700 1.524 . S
C1700 C1699 1.524 . S
C1700 C1701 1.397 . S
C1700 C1705 1.363 . S
C1701 H1672 0.950 . S
C1701 C1700 1.397 . S
C1701 C1702 1.334 . S
C1702 H1673 0.950 . S
C1702 C1701 1.334 . S
C1702 C1703 1.287 . S
C1703 C1702 1.287 . S
C1703 C1704 1.524 . S
C1703 H1706 0.999 . S
C1704 H1674 0.950 . S
C1704 C1703 1.524 . S
C1704 C1705 1.415 . S
C1705 H1675 0.950 . S
C1705 C1700 1.363 . S
C1705 C1704 1.415 . S
H1706 C1703 0.999 . S
H1707 C1688 0.913 . S
H1708 C1726 0.951 . S
H1709 C1728 0.951 . S
H1710 C1730 0.950 . S
H1711 C1731 0.950 . S
H1712 C1733 0.950 . S
H1713 C1736 0.950 . S
H1714 C1737 0.950 . S
H1715 C1739 0.950 . S
H1716 C1740 0.950 . S
H1717 C1741 0.951 . S
H1718 C1743 0.951 . S
H1719 C1745 0.950 . S
H1720 C1746 0.950 . S
H1721 C1748 0.950 . S
H1722 C1751 0.950 . S
H1723 C1752 0.950 . S
H1724 C1754 0.950 . S
H1725 C1755 0.950 . S
C1726 H1708 0.951 . S
C1726 C1727 1.366 . S
C1726 C1728 1.388 . S
C1727 C1726 1.366 . S
C1727 C1731 1.385 . S
C1728 H1709 0.951 . S
C1728 C1726 1.388 . S
C1728 C1729 1.366 . S
C1729 C1728 1.366 . S
C1729 C1730 1.414 . S
C1729 C1732 1.499 . S
C1730 H1710 0.950 . S
C1730 C1729 1.414 . S
C1730 C1731 1.374 . S
C1731 H1711 0.950 . S
C1731 C1727 1.385 . S
C1731 C1730 1.374 . S
C1732 C1729 1.499 . S
C1732 C1733 1.373 . S
C1732 C1734 1.389 . S
C1733 H1712 0.950 . S
C1733 C1732 1.373 . S
C1733 C1749 1.377 . S
C1734 C1732 1.389 . S
C1734 C1735 1.524 . S
C1734 C1748 1.377 . S
C1735 C1734 1.524 . S
C1735 C1736 1.397 . S
C1735 C1740 1.363 . S
C1736 H1713 0.950 . S
C1736 C1735 1.397 . S
C1736 C1737 1.334 . S
C1737 H1714 0.950 . S
C1737 C1736 1.334 . S
C1737 C1738 1.287 . S
C1738 C1737 1.287 . S
C1738 C1739 1.524 . S
C1738 H1757 0.913 . S
C1739 H1715 0.950 . S
C1739 C1738 1.524 . S
C1739 C1740 1.415 . S
C1740 H1716 0.950 . S
C1740 C1735 1.363 . S
C1740 C1739 1.415 . S
C1741 H1717 0.951 . S
C1741 C1742 1.366 . S
C1741 C1743 1.388 . S
C1742 C1741 1.366 . S
C1742 C1746 1.385 . S
C1743 H1718 0.951 . S
C1743 C1741 1.388 . S
C1743 C1744 1.366 . S
C1744 C1743 1.366 . S
C1744 C1745 1.414 . S
C1744 C1747 1.499 . S
C1745 H1719 0.950 . S
C1745 C1744 1.414 . S
C1745 C1746 1.374 . S
C1746 H1720 0.950 . S
C1746 C1742 1.385 . S
C1746 C1745 1.374 . S
C1747 C1744 1.499 . S
C1747 C1748 1.373 . S
C1747 C1749 1.389 . S
C1748 H1721 0.950 . S
C1748 C1734 1.377 . S
C1748 C1747 1.373 . S
C1749 C1733 1.377 . S
C1749 C1747 1.389 . S
C1749 C1750 1.524 . S
C1750 C1749 1.524 . S
C1750 C1751 1.397 . S
C1750 C1755 1.363 . S
C1751 H1722 0.950 . S
C1751 C1750 1.397 . S
C1751 C1752 1.334 . S
C1752 H1723 0.950 . S
C1752 C1751 1.334 . S
C1752 C1753 1.287 . S
C1753 C1752 1.287 . S
C1753 C1754 1.524 . S
C1753 H1756 0.999 . S
C1754 H1724 0.950 . S
C1754 C1753 1.524 . S
C1754 C1755 1.415 . S
C1755 H1725 0.950 . S
C1755 C1750 1.363 . S
C1755 C1754 1.415 . S
H1756 C1753 0.999 . S
H1757 C1738 0.913 . S
H1758 C1776 0.951 . S
H1759 C1778 0.951 . S
H1760 C1780 0.950 . S
H1761 C1781 0.950 . S
H1762 C1783 0.950 . S
H1763 C1786 0.950 . S
H1764 C1787 0.950 . S
H1765 C1789 0.948 . S
H1766 C1790 0.950 . S
H1767 C1791 0.951 . S
H1768 C1793 0.951 . S
H1769 C1795 0.950 . S
H1770 C1796 0.950 . S
H1771 C1798 0.950 1_556 S
H1772 C1801 0.950 . S
H1773 C1802 0.950 . S
H1774 C1804 0.950 . S
H1775 C1805 0.950 . S
C1776 H1758 0.951 . S
C1776 C1777 1.366 . S
C1776 C1778 1.388 . S
C1777 C1776 1.366 . S
C1777 C1781 1.385 . S
C1778 H1759 0.951 . S
C1778 C1776 1.388 . S
C1778 C1779 1.366 . S
C1779 C1778 1.366 . S
C1779 C1780 1.414 . S
C1779 C1782 1.499 . S
C1780 H1760 0.950 . S
C1780 C1779 1.414 . S
C1780 C1781 1.374 . S
C1781 H1761 0.950 . S
C1781 C1777 1.385 . S
C1781 C1780 1.374 . S
C1782 C1779 1.499 . S
C1782 C1783 1.373 . S
C1782 C1784 1.389 . S
C1783 H1762 0.950 . S
C1783 C1782 1.373 . S
C1783 C1799 1.377 . S
C1784 C1782 1.389 . S
C1784 C1785 1.524 . S
C1784 C1798 1.377 . S
C1785 C1784 1.524 . S
C1785 C1786 1.397 . S
C1785 C1790 1.363 . S
C1786 H1763 0.950 . S
C1786 C1785 1.397 . S
C1786 C1787 1.334 1_545 S
C1787 H1764 0.950 . S
C1787 C1786 1.334 1_565 S
C1787 C1788 1.287 . S
C1788 C1787 1.287 . S
C1788 C1789 1.524 1_565 S
C1788 H1807 0.913 . S
C1789 H1765 0.948 . S
C1789 C1788 1.524 1_545 S
C1789 C1790 1.415 . S
C1790 H1766 0.950 . S
C1790 C1785 1.363 . S
C1790 C1789 1.415 . S
C1791 H1767 0.951 . S
C1791 C1792 1.366 . S
C1791 C1793 1.388 . S
C1792 C1791 1.366 . S
C1792 C1796 1.385 . S
C1793 H1768 0.951 . S
C1793 C1791 1.388 . S
C1793 C1794 1.366 . S
C1794 C1793 1.366 . S
C1794 C1795 1.414 . S
C1794 C1797 1.499 . S
C1795 H1769 0.950 . S
C1795 C1794 1.414 . S
C1795 C1796 1.374 . S
C1796 H1770 0.950 . S
C1796 C1792 1.385 . S
C1796 C1795 1.374 . S
C1797 C1794 1.499 . S
C1797 C1798 1.373 1_556 S
C1797 C1799 1.389 1_556 S
C1798 H1771 0.950 1_554 S
C1798 C1784 1.377 . S
C1798 C1797 1.373 1_554 S
C1799 C1783 1.377 . S
C1799 C1797 1.389 1_554 S
C1799 C1800 1.524 . S
C1800 C1799 1.524 . S
C1800 C1801 1.397 1_554 S
C1800 C1805 1.363 . S
C1801 H1772 0.950 . S
C1801 C1800 1.397 1_556 S
C1801 C1802 1.334 . S
C1802 H1773 0.950 . S
C1802 C1801 1.334 . S
C1802 C1803 1.287 . S
C1803 C1802 1.287 . S
C1803 C1804 1.524 1_556 S
C1803 H1806 0.999 . S
C1804 H1774 0.950 . S
C1804 C1803 1.524 1_554 S
C1804 C1805 1.415 . S
C1805 H1775 0.950 . S
C1805 C1800 1.363 . S
C1805 C1804 1.415 . S
H1806 C1803 0.999 . S
H1807 C1788 0.913 . S
H1808 C1826 0.951 . S
H1809 C1828 0.951 . S
H1810 C1830 0.950 . S
H1811 C1831 0.950 . S
H1812 C1833 0.950 . S
H1813 C1836 0.950 . S
H1814 C1837 0.950 . S
H1815 C1839 0.950 . S
H1816 C1840 0.950 . S
H1817 C1841 0.951 . S
H1818 C1843 0.951 . S
H1819 C1845 0.950 . S
H1820 C1846 0.950 . S
H1821 C1848 0.950 . S
H1822 C1851 0.950 . S
H1823 C1852 0.950 . S
H1824 C1854 0.950 . S
H1825 C1855 0.950 . S
C1826 H1808 0.951 . S
C1826 C1827 1.366 . S
C1826 C1828 1.388 . S
C1827 C1826 1.366 . S
C1827 C1831 1.385 . S
C1828 H1809 0.951 . S
C1828 C1826 1.388 . S
C1828 C1829 1.366 . S
C1829 C1828 1.366 . S
C1829 C1830 1.414 . S
C1829 C1832 1.499 . S
C1830 H1810 0.950 . S
C1830 C1829 1.414 . S
C1830 C1831 1.374 . S
C1831 H1811 0.950 . S
C1831 C1827 1.385 . S
C1831 C1830 1.374 . S
C1832 C1829 1.499 . S
C1832 C1833 1.373 . S
C1832 C1834 1.389 . S
C1833 H1812 0.950 . S
C1833 C1832 1.373 . S
C1833 C1849 1.377 . S
C1834 C1832 1.389 . S
C1834 C1835 1.524 . S
C1834 C1848 1.377 . S
C1835 C1834 1.524 . S
C1835 C1836 1.397 . S
C1835 C1840 1.363 . S
C1836 H1813 0.950 . S
C1836 C1835 1.397 . S
C1836 C1837 1.334 . S
C1837 H1814 0.950 . S
C1837 C1836 1.334 . S
C1837 C1838 1.287 . S
C1838 C1837 1.287 . S
C1838 C1839 1.524 . S
C1838 H1857 0.913 . S
C1839 H1815 0.950 . S
C1839 C1838 1.524 . S
C1839 C1840 1.415 . S
C1840 H1816 0.950 . S
C1840 C1835 1.363 . S
C1840 C1839 1.415 . S
C1841 H1817 0.951 . S
C1841 C1842 1.366 . S
C1841 C1843 1.388 . S
C1842 C1841 1.366 . S
C1842 C1846 1.385 . S
C1843 H1818 0.951 . S
C1843 C1841 1.388 . S
C1843 C1844 1.366 . S
C1844 C1843 1.366 . S
C1844 C1845 1.414 . S
C1844 C1847 1.499 . S
C1845 H1819 0.950 . S
C1845 C1844 1.414 . S
C1845 C1846 1.374 . S
C1846 H1820 0.950 . S
C1846 C1842 1.385 . S
C1846 C1845 1.374 . S
C1847 C1844 1.499 . S
C1847 C1848 1.373 . S
C1847 C1849 1.389 . S
C1848 H1821 0.950 . S
C1848 C1834 1.377 . S
C1848 C1847 1.373 . S
C1849 C1833 1.377 . S
C1849 C1847 1.389 . S
C1849 C1850 1.524 . S
C1850 C1849 1.524 . S
C1850 C1851 1.397 . S
C1850 C1855 1.363 . S
C1851 H1822 0.950 . S
C1851 C1850 1.397 . S
C1851 C1852 1.334 . S
C1852 H1823 0.950 . S
C1852 C1851 1.334 . S
C1852 C1853 1.287 . S
C1853 C1852 1.287 . S
C1853 C1854 1.524 . S
C1853 H1856 0.999 1_545 S
C1854 H1824 0.950 . S
C1854 C1853 1.524 . S
C1854 C1855 1.415 . S
C1855 H1825 0.950 . S
C1855 C1850 1.363 . S
C1855 C1854 1.415 . S
H1856 C1853 0.999 1_565 S
H1857 C1838 0.913 . S
H1858 C1876 0.951 . S
H1859 C1878 0.951 . S
H1860 C1880 0.950 . S
H1861 C1881 0.950 . S
H1862 C1883 0.950 . S
H1863 C1886 0.950 . S
H1864 C1887 0.950 . S
H1865 C1889 0.950 . S
H1866 C1890 0.950 . S
H1867 C1891 0.951 . S
H1868 C1893 0.951 . S
H1869 C1895 0.950 . S
H1870 C1896 0.950 . S
H1871 C1898 0.950 . S
H1872 C1901 0.950 . S
H1873 C1902 0.950 . S
H1874 C1904 0.950 . S
H1875 C1905 0.950 . S
C1876 H1858 0.951 . S
C1876 C1877 1.366 . S
C1876 C1878 1.388 . S
C1877 C1876 1.366 . S
C1877 C1881 1.385 . S
C1878 H1859 0.951 . S
C1878 C1876 1.388 . S
C1878 C1879 1.366 . S
C1879 C1878 1.366 . S
C1879 C1880 1.414 . S
C1879 C1882 1.499 . S
C1880 H1860 0.950 . S
C1880 C1879 1.414 . S
C1880 C1881 1.374 . S
C1881 H1861 0.950 . S
C1881 C1877 1.385 . S
C1881 C1880 1.374 . S
C1882 C1879 1.499 . S
C1882 C1883 1.373 1_554 S
C1882 C1884 1.389 1_554 S
C1883 H1862 0.950 . S
C1883 C1882 1.373 1_556 S
C1883 C1899 1.377 . S
C1884 C1882 1.389 1_556 S
C1884 C1885 1.524 1_556 S
C1884 C1898 1.377 . S
C1885 C1884 1.524 1_554 S
C1885 C1886 1.397 . S
C1885 C1890 1.363 . S
C1886 H1863 0.950 . S
C1886 C1885 1.397 . S
C1886 C1887 1.334 . S
C1887 H1864 0.950 . S
C1887 C1886 1.334 . S
C1887 C1888 1.287 . S
C1888 C1887 1.287 . S
C1888 C1889 1.524 . S
C1888 H1907 0.913 . S
C1889 H1865 0.950 . S
C1889 C1888 1.524 . S
C1889 C1890 1.415 . S
C1890 H1866 0.950 . S
C1890 C1885 1.363 . S
C1890 C1889 1.415 . S
C1891 H1867 0.951 . S
C1891 C1892 1.366 . S
C1891 C1893 1.388 . S
C1892 C1891 1.366 . S
C1892 C1896 1.385 . S
C1893 H1868 0.951 . S
C1893 C1891 1.388 . S
C1893 C1894 1.366 . S
C1894 C1893 1.366 . S
C1894 C1895 1.414 . S
C1894 C1897 1.499 . S
C1895 H1869 0.950 . S
C1895 C1894 1.414 . S
C1895 C1896 1.374 . S
C1896 H1870 0.950 . S
C1896 C1892 1.385 . S
C1896 C1895 1.374 . S
C1897 C1894 1.499 . S
C1897 C1898 1.373 . S
C1897 C1899 1.389 . S
C1898 H1871 0.950 . S
C1898 C1884 1.377 . S
C1898 C1897 1.373 . S
C1899 C1883 1.377 . S
C1899 C1897 1.389 . S
C1899 C1900 1.524 . S
C1900 C1899 1.524 . S
C1900 C1901 1.397 . S
C1900 C1905 1.363 . S
C1901 H1872 0.950 . S
C1901 C1900 1.397 . S
C1901 C1902 1.334 . S
C1902 H1873 0.950 . S
C1902 C1901 1.334 . S
C1902 C1903 1.287 . S
C1903 C1902 1.287 . S
C1903 C1904 1.524 . S
C1903 H1906 0.999 . S
C1904 H1874 0.950 . S
C1904 C1903 1.524 . S
C1904 C1905 1.415 . S
C1905 H1875 0.950 . S
C1905 C1900 1.363 . S
C1905 C1904 1.415 . S
H1906 C1903 0.999 . S
H1907 C1888 0.913 . S
H1908 C1926 0.951 . S
H1909 C1928 0.951 . S
H1910 C1930 0.950 . S
H1911 C1931 0.950 . S
H1912 C1933 0.950 . S
H1913 C1936 0.950 . S
H1914 C1937 0.950 . S
H1915 C1939 0.950 . S
H1916 C1940 0.950 . S
H1917 C1941 0.951 . S
H1918 C1943 0.951 . S
H1919 C1945 0.950 . S
H1920 C1946 0.950 . S
H1921 C1948 0.950 . S
H1922 C1951 0.950 . S
H1923 C1952 0.950 . S
H1924 C1954 0.950 . S
H1925 C1955 0.950 . S
C1926 H1908 0.951 . S
C1926 C1927 1.366 . S
C1926 C1928 1.388 . S
C1927 C1926 1.366 . S
C1927 C1931 1.385 . S
C1928 H1909 0.951 . S
C1928 C1926 1.388 . S
C1928 C1929 1.366 . S
C1929 C1928 1.366 . S
C1929 C1930 1.414 . S
C1929 C1932 1.499 . S
C1930 H1910 0.950 . S
C1930 C1929 1.414 . S
C1930 C1931 1.374 . S
C1931 H1911 0.950 . S
C1931 C1927 1.385 . S
C1931 C1930 1.374 . S
C1932 C1929 1.499 . S
C1932 C1933 1.373 . S
C1932 C1934 1.389 . S
C1933 H1912 0.950 . S
C1933 C1932 1.373 . S
C1933 C1949 1.377 . S
C1934 C1932 1.389 . S
C1934 C1935 1.524 . S
C1934 C1948 1.377 . S
C1935 C1934 1.524 . S
C1935 C1936 1.397 . S
C1935 C1940 1.363 . S
C1936 H1913 0.950 . S
C1936 C1935 1.397 . S
C1936 C1937 1.334 . S
C1937 H1914 0.950 . S
C1937 C1936 1.334 . S
C1937 C1938 1.287 . S
C1938 C1937 1.287 . S
C1938 C1939 1.524 . S
C1938 H1957 0.913 . S
C1939 H1915 0.950 . S
C1939 C1938 1.524 . S
C1939 C1940 1.415 . S
C1940 H1916 0.950 . S
C1940 C1935 1.363 . S
C1940 C1939 1.415 . S
C1941 H1917 0.951 . S
C1941 C1942 1.366 . S
C1941 C1943 1.388 . S
C1942 C1941 1.366 . S
C1942 C1946 1.385 . S
C1943 H1918 0.951 . S
C1943 C1941 1.388 . S
C1943 C1944 1.366 . S
C1944 C1943 1.366 . S
C1944 C1945 1.414 . S
C1944 C1947 1.499 . S
C1945 H1919 0.950 . S
C1945 C1944 1.414 . S
C1945 C1946 1.374 . S
C1946 H1920 0.950 . S
C1946 C1942 1.385 . S
C1946 C1945 1.374 . S
C1947 C1944 1.499 . S
C1947 C1948 1.373 . S
C1947 C1949 1.389 . S
C1948 H1921 0.950 . S
C1948 C1934 1.377 . S
C1948 C1947 1.373 . S
C1949 C1933 1.377 . S
C1949 C1947 1.389 . S
C1949 C1950 1.524 . S
C1950 C1949 1.524 . S
C1950 C1951 1.397 . S
C1950 C1955 1.363 . S
C1951 H1922 0.950 . S
C1951 C1950 1.397 . S
C1951 C1952 1.334 . S
C1952 H1923 0.950 . S
C1952 C1951 1.334 . S
C1952 C1953 1.287 . S
C1953 C1952 1.287 . S
C1953 C1954 1.524 . S
C1953 H1956 0.999 . S
C1954 H1924 0.950 . S
C1954 C1953 1.524 . S
C1954 C1955 1.415 . S
C1955 H1925 0.950 . S
C1955 C1950 1.363 . S
C1955 C1954 1.415 . S
H1956 C1953 0.999 . S
H1957 C1938 0.913 . S
H1958 C1976 0.951 . S
H1959 C1978 0.951 . S
H1960 C1980 0.950 . S
H1961 C1981 0.950 . S
H1962 C1983 0.950 . S
H1963 C1986 0.950 . S
H1964 C1987 0.950 . S
H1965 C1989 0.950 . S
H1966 C1990 0.950 . S
H1967 C1991 0.951 . S
H1968 C1993 0.951 . S
H1969 C1995 0.950 . S
H1970 C1996 0.950 . S
H1971 C1998 0.950 . S
H1972 C2001 0.950 . S
H1973 C2002 0.950 . S
H1974 C2004 0.950 . S
H1975 C2005 0.950 . S
C1976 H1958 0.951 . S
C1976 C1977 1.366 . S
C1976 C1978 1.388 . S
C1977 C1976 1.366 . S
C1977 C1981 1.385 . S
C1978 H1959 0.951 . S
C1978 C1976 1.388 . S
C1978 C1979 1.366 . S
C1979 C1978 1.366 . S
C1979 C1980 1.414 . S
C1979 C1982 1.499 . S
C1980 H1960 0.950 . S
C1980 C1979 1.414 . S
C1980 C1981 1.374 . S
C1981 H1961 0.950 . S
C1981 C1977 1.385 . S
C1981 C1980 1.374 . S
C1982 C1979 1.499 . S
C1982 C1983 1.373 . S
C1982 C1984 1.389 . S
C1983 H1962 0.950 . S
C1983 C1982 1.373 . S
C1983 C1999 1.377 . S
C1984 C1982 1.389 . S
C1984 C1985 1.524 . S
C1984 C1998 1.377 . S
C1985 C1984 1.524 . S
C1985 C1986 1.397 . S
C1985 C1990 1.363 . S
C1986 H1963 0.950 . S
C1986 C1985 1.397 . S
C1986 C1987 1.334 . S
C1987 H1964 0.950 . S
C1987 C1986 1.334 . S
C1987 C1988 1.287 . S
C1988 C1987 1.287 . S
C1988 C1989 1.524 . S
C1988 H2007 0.913 . S
C1989 H1965 0.950 . S
C1989 C1988 1.524 . S
C1989 C1990 1.415 . S
C1990 H1966 0.950 . S
C1990 C1985 1.363 . S
C1990 C1989 1.415 . S
C1991 H1967 0.951 . S
C1991 C1992 1.366 . S
C1991 C1993 1.388 . S
C1992 C1991 1.366 . S
C1992 C1996 1.385 . S
C1993 H1968 0.951 . S
C1993 C1991 1.388 . S
C1993 C1994 1.366 . S
C1994 C1993 1.366 . S
C1994 C1995 1.414 . S
C1994 C1997 1.499 . S
C1995 H1969 0.950 . S
C1995 C1994 1.414 . S
C1995 C1996 1.374 . S
C1996 H1970 0.950 . S
C1996 C1992 1.385 . S
C1996 C1995 1.374 . S
C1997 C1994 1.499 . S
C1997 C1998 1.373 . S
C1997 C1999 1.389 . S
C1998 H1971 0.950 . S
C1998 C1984 1.377 . S
C1998 C1997 1.373 . S
C1999 C1983 1.377 . S
C1999 C1997 1.389 . S
C1999 C2000 1.524 . S
C2000 C1999 1.524 . S
C2000 C2001 1.397 . S
C2000 C2005 1.363 . S
C2001 H1972 0.950 . S
C2001 C2000 1.397 . S
C2001 C2002 1.334 . S
C2002 H1973 0.950 . S
C2002 C2001 1.334 . S
C2002 C2003 1.287 . S
C2003 C2002 1.287 . S
C2003 C2004 1.524 . S
C2003 H2006 0.999 . S
C2004 H1974 0.950 . S
C2004 C2003 1.524 . S
C2004 C2005 1.415 . S
C2005 H1975 0.950 . S
C2005 C2000 1.363 . S
C2005 C2004 1.415 . S
H2006 C2003 0.999 . S
H2007 C1988 0.913 . S
H2008 C2026 0.951 . S
H2009 C2028 0.951 . S
H2010 C2030 0.950 . S
H2011 C2031 0.950 . S
H2012 C2033 0.950 . S
H2013 C2036 0.950 . S
H2014 C2037 0.950 . S
H2015 C2039 0.950 . S
H2016 C2040 0.950 . S
H2017 C2041 0.951 . S
H2018 C2043 0.951 . S
H2019 C2045 0.950 . S
H2020 C2046 0.950 . S
H2021 C2048 0.950 . S
H2022 C2051 0.950 . S
H2023 C2052 0.950 . S
H2024 C2054 0.950 . S
H2025 C2055 0.950 . S
C2026 H2008 0.951 . S
C2026 C2027 1.366 . S
C2026 C2028 1.388 . S
C2027 C2026 1.366 . S
C2027 C2031 1.385 . S
C2028 H2009 0.951 . S
C2028 C2026 1.388 . S
C2028 C2029 1.366 . S
C2029 C2028 1.366 . S
C2029 C2030 1.414 . S
C2029 C2032 1.499 . S
C2030 H2010 0.950 . S
C2030 C2029 1.414 . S
C2030 C2031 1.374 . S
C2031 H2011 0.950 . S
C2031 C2027 1.385 . S
C2031 C2030 1.374 . S
C2032 C2029 1.499 . S
C2032 C2033 1.373 . S
C2032 C2034 1.389 . S
C2033 H2012 0.950 . S
C2033 C2032 1.373 . S
C2033 C2049 1.377 . S
C2034 C2032 1.389 . S
C2034 C2035 1.524 . S
C2034 C2048 1.377 . S
C2035 C2034 1.524 . S
C2035 C2036 1.397 . S
C2035 C2040 1.363 . S
C2036 H2013 0.950 . S
C2036 C2035 1.397 . S
C2036 C2037 1.334 . S
C2037 H2014 0.950 . S
C2037 C2036 1.334 . S
C2037 C2038 1.287 . S
C2038 C2037 1.287 . S
C2038 C2039 1.524 . S
C2038 H2057 0.913 . S
C2039 H2015 0.950 . S
C2039 C2038 1.524 . S
C2039 C2040 1.415 . S
C2040 H2016 0.950 . S
C2040 C2035 1.363 . S
C2040 C2039 1.415 . S
C2041 H2017 0.951 . S
C2041 C2042 1.366 . S
C2041 C2043 1.388 . S
C2042 C2041 1.366 . S
C2042 C2046 1.385 . S
C2043 H2018 0.951 . S
C2043 C2041 1.388 . S
C2043 C2044 1.366 . S
C2044 C2043 1.366 . S
C2044 C2045 1.414 . S
C2044 C2047 1.499 . S
C2045 H2019 0.950 . S
C2045 C2044 1.414 . S
C2045 C2046 1.374 . S
C2046 H2020 0.950 . S
C2046 C2042 1.385 . S
C2046 C2045 1.374 . S
C2047 C2044 1.499 . S
C2047 C2048 1.373 . S
C2047 C2049 1.389 . S
C2048 H2021 0.950 . S
C2048 C2034 1.377 . S
C2048 C2047 1.373 . S
C2049 C2033 1.377 . S
C2049 C2047 1.389 . S
C2049 C2050 1.524 . S
C2050 C2049 1.524 . S
C2050 C2051 1.397 . S
C2050 C2055 1.363 . S
C2051 H2022 0.950 . S
C2051 C2050 1.397 . S
C2051 C2052 1.334 . S
C2052 H2023 0.950 . S
C2052 C2051 1.334 . S
C2052 C2053 1.287 . S
C2053 C2052 1.287 . S
C2053 C2054 1.524 . S
C2053 H2056 0.999 . S
C2054 H2024 0.950 . S
C2054 C2053 1.524 . S
C2054 C2055 1.415 . S
C2055 H2025 0.950 . S
C2055 C2050 1.363 . S
C2055 C2054 1.415 . S
H2056 C2053 0.999 . S
H2057 C2038 0.913 . S
H2058 C2076 0.951 . S
H2059 C2078 0.951 . S
H2060 C2080 0.950 . S
H2061 C2081 0.950 . S
H2062 C2083 0.950 . S
H2063 C2086 0.950 . S
H2064 C2087 0.950 . S
H2065 C2089 0.950 . S
H2066 C2090 0.950 . S
H2067 C2091 0.951 . S
H2068 C2093 0.951 . S
H2069 C2095 0.950 . S
H2070 C2096 0.950 . S
H2071 C2098 0.950 . S
H2072 C2101 0.951 . S
H2073 C2102 0.950 . S
H2074 C2104 0.950 . S
H2075 C2105 0.950 . S
C2076 H2058 0.951 . S
C2076 C2077 1.366 . S
C2076 C2078 1.388 . S
C2077 C2076 1.366 . S
C2077 C2081 1.385 . S
C2078 H2059 0.951 . S
C2078 C2076 1.388 . S
C2078 C2079 1.366 . S
C2079 C2078 1.366 . S
C2079 C2080 1.414 . S
C2079 C2082 1.499 . S
C2080 H2060 0.950 . S
C2080 C2079 1.414 . S
C2080 C2081 1.374 . S
C2081 H2061 0.950 . S
C2081 C2077 1.385 . S
C2081 C2080 1.374 . S
C2082 C2079 1.499 . S
C2082 C2083 1.373 . S
C2082 C2084 1.389 . S
C2083 H2062 0.950 . S
C2083 C2082 1.373 . S
C2083 C2099 1.377 . S
C2084 C2082 1.389 . S
C2084 C2085 1.524 . S
C2084 C2098 1.377 . S
C2085 C2084 1.524 . S
C2085 C2086 1.397 . S
C2085 C2090 1.363 . S
C2086 H2063 0.950 . S
C2086 C2085 1.397 . S
C2086 C2087 1.334 . S
C2087 H2064 0.950 . S
C2087 C2086 1.334 . S
C2087 C2088 1.287 . S
C2088 C2087 1.287 . S
C2088 C2089 1.524 . S
C2088 H2107 0.913 . S
C2089 H2065 0.950 . S
C2089 C2088 1.524 . S
C2089 C2090 1.415 . S
C2090 H2066 0.950 . S
C2090 C2085 1.363 . S
C2090 C2089 1.415 . S
C2091 H2067 0.951 . S
C2091 C2092 1.366 . S
C2091 C2093 1.388 . S
C2092 C2091 1.366 . S
C2092 C2096 1.385 . S
C2093 H2068 0.951 . S
C2093 C2091 1.388 . S
C2093 C2094 1.366 . S
C2094 C2093 1.366 . S
C2094 C2095 1.414 . S
C2094 C2097 1.499 . S
C2095 H2069 0.950 . S
C2095 C2094 1.414 . S
C2095 C2096 1.374 . S
C2096 H2070 0.950 . S
C2096 C2092 1.385 . S
C2096 C2095 1.374 . S
C2097 C2094 1.499 . S
C2097 C2098 1.373 1_565 S
C2097 C2099 1.389 1_565 S
C2098 H2071 0.950 . S
C2098 C2084 1.377 . S
C2098 C2097 1.373 1_545 S
C2099 C2083 1.377 . S
C2099 C2097 1.389 1_545 S
C2099 C2100 1.524 1_545 S
C2100 C2099 1.524 1_565 S
C2100 C2101 1.402 . S
C2100 C2105 1.363 . S
C2101 H2072 0.951 . S
C2101 C2100 1.402 . S
C2101 C2102 1.327 1_455 S
C2102 H2073 0.950 . S
C2102 C2101 1.327 1_655 S
C2102 C2103 1.287 . S
C2103 C2102 1.287 . S
C2103 C2104 1.524 . S
C2103 H2106 0.999 . S
C2104 H2074 0.950 . S
C2104 C2103 1.524 . S
C2104 C2105 1.415 1_655 S
C2105 H2075 0.950 . S
C2105 C2100 1.363 . S
C2105 C2104 1.415 1_455 S
H2106 C2103 0.999 . S
H2107 C2088 0.913 . S
H2108 C2126 0.951 . S
H2109 C2128 0.951 . S
H2110 C2130 0.950 . S
H2111 C2131 0.950 . S
H2112 C2133 0.950 . S
H2113 C2136 0.950 . S
H2114 C2137 0.950 . S
H2115 C2139 0.950 . S
H2116 C2140 0.950 . S
H2117 C2141 0.951 . S
H2118 C2143 0.951 . S
H2119 C2145 0.950 . S
H2120 C2146 0.950 . S
H2121 C2148 0.950 . S
H2122 C2151 0.950 . S
H2123 C2152 0.950 . S
H2124 C2154 0.950 . S
H2125 C2155 0.950 . S
C2126 H2108 0.951 . S
C2126 C2127 1.366 . S
C2126 C2128 1.388 . S
C2127 C2126 1.366 . S
C2127 C2131 1.385 . S
C2128 H2109 0.951 . S
C2128 C2126 1.388 . S
C2128 C2129 1.366 . S
C2129 C2128 1.366 . S
C2129 C2130 1.414 . S
C2129 C2132 1.499 . S
C2130 H2110 0.950 . S
C2130 C2129 1.414 . S
C2130 C2131 1.374 . S
C2131 H2111 0.950 . S
C2131 C2127 1.385 . S
C2131 C2130 1.374 . S
C2132 C2129 1.499 . S
C2132 C2133 1.373 . S
C2132 C2134 1.389 . S
C2133 H2112 0.950 . S
C2133 C2132 1.373 . S
C2133 C2149 1.377 . S
C2134 C2132 1.389 . S
C2134 C2135 1.524 . S
C2134 C2148 1.377 . S
C2135 C2134 1.524 . S
C2135 C2136 1.397 . S
C2135 C2140 1.363 . S
C2136 H2113 0.950 . S
C2136 C2135 1.397 . S
C2136 C2137 1.334 . S
C2137 H2114 0.950 . S
C2137 C2136 1.334 . S
C2137 C2138 1.287 . S
C2138 C2137 1.287 . S
C2138 C2139 1.524 . S
C2138 H2157 0.913 . S
C2139 H2115 0.950 . S
C2139 C2138 1.524 . S
C2139 C2140 1.415 . S
C2140 H2116 0.950 . S
C2140 C2135 1.363 . S
C2140 C2139 1.415 . S
C2141 H2117 0.951 . S
C2141 C2142 1.366 . S
C2141 C2143 1.388 . S
C2142 C2141 1.366 . S
C2142 C2146 1.385 . S
C2143 H2118 0.951 . S
C2143 C2141 1.388 . S
C2143 C2144 1.366 . S
C2144 C2143 1.366 . S
C2144 C2145 1.414 . S
C2144 C2147 1.499 . S
C2145 H2119 0.950 . S
C2145 C2144 1.414 . S
C2145 C2146 1.374 . S
C2146 H2120 0.950 . S
C2146 C2142 1.385 . S
C2146 C2145 1.374 . S
C2147 C2144 1.499 . S
C2147 C2148 1.373 . S
C2147 C2149 1.389 . S
C2148 H2121 0.950 . S
C2148 C2134 1.377 . S
C2148 C2147 1.373 . S
C2149 C2133 1.377 . S
C2149 C2147 1.389 . S
C2149 C2150 1.524 . S
C2150 C2149 1.524 . S
C2150 C2151 1.397 . S
C2150 C2155 1.363 . S
C2151 H2122 0.950 . S
C2151 C2150 1.397 . S
C2151 C2152 1.334 . S
C2152 H2123 0.950 . S
C2152 C2151 1.334 . S
C2152 C2153 1.287 . S
C2153 C2152 1.287 . S
C2153 C2154 1.524 . S
C2153 H2156 0.999 . S
C2154 H2124 0.950 . S
C2154 C2153 1.524 . S
C2154 C2155 1.415 . S
C2155 H2125 0.950 . S
C2155 C2150 1.363 . S
C2155 C2154 1.415 . S
H2156 C2153 0.999 . S
H2157 C2138 0.913 . S
H2158 C2176 0.951 . S
H2159 C2178 0.951 . S
H2160 C2180 0.950 . S
H2161 C2181 0.950 . S
H2162 C2183 0.950 . S
H2163 C2186 0.950 . S
H2164 C2187 0.950 . S
H2165 C2189 0.950 . S
H2166 C2190 0.950 . S
H2167 C2191 0.951 . S
H2168 C2193 0.951 . S
H2169 C2195 0.950 . S
H2170 C2196 0.950 . S
H2171 C2198 0.950 . S
H2172 C2201 0.950 . S
H2173 C2202 0.950 . S
H2174 C2204 0.950 . S
H2175 C2205 0.950 . S
C2176 H2158 0.951 . S
C2176 C2177 1.366 . S
C2176 C2178 1.388 . S
C2177 C2176 1.366 . S
C2177 C2181 1.385 . S
C2178 H2159 0.951 . S
C2178 C2176 1.388 . S
C2178 C2179 1.366 . S
C2179 C2178 1.366 . S
C2179 C2180 1.414 . S
C2179 C2182 1.499 . S
C2180 H2160 0.950 . S
C2180 C2179 1.414 . S
C2180 C2181 1.374 . S
C2181 H2161 0.950 . S
C2181 C2177 1.385 . S
C2181 C2180 1.374 . S
C2182 C2179 1.499 . S
C2182 C2183 1.373 1_545 S
C2182 C2184 1.386 1_545 S
C2183 H2162 0.950 . S
C2183 C2182 1.373 1_565 S
C2183 C2199 1.377 . S
C2184 C2182 1.386 1_565 S
C2184 C2185 1.504 1_565 S
C2184 C2198 1.402 . S
C2185 C2184 1.504 1_545 S
C2185 C2186 1.397 . S
C2185 C2190 1.363 . S
C2186 H2163 0.950 . S
C2186 C2185 1.397 . S
C2186 C2187 1.334 . S
C2187 H2164 0.950 . S
C2187 C2186 1.334 . S
C2187 C2188 1.287 . S
C2188 C2187 1.287 . S
C2188 C2189 1.524 . S
C2188 H2207 0.913 . S
C2189 H2165 0.950 . S
C2189 C2188 1.524 . S
C2189 C2190 1.415 . S
C2190 H2166 0.950 . S
C2190 C2185 1.363 . S
C2190 C2189 1.415 . S
C2191 H2167 0.951 . S
C2191 C2192 1.366 . S
C2191 C2193 1.388 . S
C2192 C2191 1.366 . S
C2192 C2196 1.385 . S
C2193 H2168 0.951 . S
C2193 C2191 1.388 . S
C2193 C2194 1.366 . S
C2194 C2193 1.366 . S
C2194 C2195 1.414 . S
C2194 C2197 1.499 . S
C2195 H2169 0.950 . S
C2195 C2194 1.414 . S
C2195 C2196 1.374 . S
C2196 H2170 0.950 . S
C2196 C2192 1.385 . S
C2196 C2195 1.374 . S
C2197 C2194 1.499 . S
C2197 C2198 1.373 . S
C2197 C2199 1.389 . S
C2198 H2171 0.950 . S
C2198 C2184 1.402 . S
C2198 C2197 1.373 . S
C2199 C2183 1.377 . S
C2199 C2197 1.389 . S
C2199 C2200 1.524 . S
C2200 C2199 1.524 . S
C2200 C2201 1.397 . S
C2200 C2205 1.363 . S
C2201 H2172 0.950 . S
C2201 C2200 1.397 . S
C2201 C2202 1.334 . S
C2202 H2173 0.950 . S
C2202 C2201 1.334 . S
C2202 C2203 1.287 . S
C2203 C2202 1.287 . S
C2203 C2204 1.524 . S
C2203 H2206 0.999 . S
C2204 H2174 0.950 . S
C2204 C2203 1.524 . S
C2204 C2205 1.415 . S
C2205 H2175 0.950 . S
C2205 C2200 1.363 . S
C2205 C2204 1.415 . S
H2206 C2203 0.999 . S
H2207 C2188 0.913 . S
H2208 C2226 0.951 . S
H2209 C2228 0.951 . S
H2210 C2230 0.950 . S
H2211 C2231 0.950 . S
H2212 C2233 0.950 . S
H2213 C2236 0.950 . S
H2214 C2237 0.950 . S
H2215 C2239 0.950 . S
H2216 C2240 0.950 . S
H2217 C2241 0.951 . S
H2218 C2243 0.951 . S
H2219 C2245 0.950 . S
H2220 C2246 0.950 . S
H2221 C2248 0.950 . S
H2222 C2251 0.950 . S
H2223 C2252 0.950 . S
H2224 C2254 0.950 . S
H2225 C2255 0.950 . S
C2226 H2208 0.951 . S
C2226 C2227 1.366 . S
C2226 C2228 1.388 . S
C2227 C2226 1.366 . S
C2227 C2231 1.385 . S
C2228 H2209 0.951 . S
C2228 C2226 1.388 . S
C2228 C2229 1.366 . S
C2229 C2228 1.366 . S
C2229 C2230 1.414 . S
C2229 C2232 1.499 . S
C2230 H2210 0.950 . S
C2230 C2229 1.414 . S
C2230 C2231 1.374 . S
C2231 H2211 0.950 . S
C2231 C2227 1.385 . S
C2231 C2230 1.374 . S
C2232 C2229 1.499 . S
C2232 C2233 1.373 . S
C2232 C2234 1.389 . S
C2233 H2212 0.950 . S
C2233 C2232 1.373 . S
C2233 C2249 1.377 . S
C2234 C2232 1.389 . S
C2234 C2235 1.524 . S
C2234 C2248 1.377 . S
C2235 C2234 1.524 . S
C2235 C2236 1.397 . S
C2235 C2240 1.363 . S
C2236 H2213 0.950 . S
C2236 C2235 1.397 . S
C2236 C2237 1.334 . S
C2237 H2214 0.950 . S
C2237 C2236 1.334 . S
C2237 C2238 1.287 . S
C2238 C2237 1.287 . S
C2238 C2239 1.524 . S
C2238 H2257 0.913 . S
C2239 H2215 0.950 . S
C2239 C2238 1.524 . S
C2239 C2240 1.415 . S
C2240 H2216 0.950 . S
C2240 C2235 1.363 . S
C2240 C2239 1.415 . S
C2241 H2217 0.951 . S
C2241 C2242 1.366 . S
C2241 C2243 1.388 . S
C2242 C2241 1.366 . S
C2242 C2246 1.385 . S
C2243 H2218 0.951 . S
C2243 C2241 1.388 . S
C2243 C2244 1.366 . S
C2244 C2243 1.366 . S
C2244 C2245 1.414 . S
C2244 C2247 1.499 . S
C2245 H2219 0.950 . S
C2245 C2244 1.414 . S
C2245 C2246 1.374 . S
C2246 H2220 0.950 . S
C2246 C2242 1.385 . S
C2246 C2245 1.374 . S
C2247 C2244 1.499 . S
C2247 C2248 1.373 . S
C2247 C2249 1.389 . S
C2248 H2221 0.950 . S
C2248 C2234 1.377 . S
C2248 C2247 1.373 . S
C2249 C2233 1.377 . S
C2249 C2247 1.389 . S
C2249 C2250 1.524 . S
C2250 C2249 1.524 . S
C2250 C2251 1.397 . S
C2250 C2255 1.363 . S
C2251 H2222 0.950 . S
C2251 C2250 1.397 . S
C2251 C2252 1.334 . S
C2252 H2223 0.950 . S
C2252 C2251 1.334 . S
C2252 C2253 1.287 . S
C2253 C2252 1.287 . S
C2253 C2254 1.524 . S
C2253 H2256 0.999 . S
C2254 H2224 0.950 . S
C2254 C2253 1.524 . S
C2254 C2255 1.415 . S
C2255 H2225 0.950 . S
C2255 C2250 1.363 . S
C2255 C2254 1.415 . S
H2256 C2253 0.999 . S
H2257 C2238 0.913 . S
H2258 C2276 0.951 . S
H2259 C2278 0.951 . S
H2260 C2280 0.950 . S
H2261 C2281 0.950 . S
H2262 C2283 0.950 . S
H2263 C2286 0.950 . S
H2264 C2287 0.950 . S
H2265 C2289 0.950 . S
H2266 C2290 0.938 1_655 S
H2267 C2291 0.951 . S
H2268 C2293 0.951 . S
H2269 C2295 0.950 . S
H2270 C2296 0.950 . S
H2271 C2298 0.950 . S
H2272 C2301 0.950 . S
H2273 C2302 0.950 . S
H2274 C2304 0.950 . S
H2275 C2305 0.950 . S
C2276 H2258 0.951 . S
C2276 C2277 1.366 . S
C2276 C2278 1.388 . S
C2277 C2276 1.366 . S
C2277 C2281 1.385 . S
C2278 H2259 0.951 . S
C2278 C2276 1.388 . S
C2278 C2279 1.366 . S
C2279 C2278 1.366 . S
C2279 C2280 1.414 . S
C2279 C2282 1.499 . S
C2280 H2260 0.950 . S
C2280 C2279 1.414 . S
C2280 C2281 1.374 . S
C2281 H2261 0.950 . S
C2281 C2277 1.385 . S
C2281 C2280 1.374 . S
C2282 C2279 1.499 . S
C2282 C2283 1.373 . S
C2282 C2284 1.389 . S
C2283 H2262 0.950 . S
C2283 C2282 1.373 . S
C2283 C2299 1.377 . S
C2284 C2282 1.389 . S
C2284 C2285 1.524 . S
C2284 C2298 1.377 . S
C2285 C2284 1.524 . S
C2285 C2286 1.397 . S
C2285 C2290 1.363 1_655 S
C2286 H2263 0.950 . S
C2286 C2285 1.397 . S
C2286 C2287 1.334 1_655 S
C2287 H2264 0.950 . S
C2287 C2286 1.334 1_455 S
C2287 C2288 1.287 . S
C2288 C2287 1.287 . S
C2288 C2289 1.524 . S
C2288 H2307 0.913 . S
C2289 H2265 0.950 . S
C2289 C2288 1.524 . S
C2289 C2290 1.415 . S
C2290 H2266 0.938 1_455 S
C2290 C2285 1.363 1_455 S
C2290 C2289 1.415 . S
C2291 H2267 0.951 . S
C2291 C2292 1.366 . S
C2291 C2293 1.388 . S
C2292 C2291 1.366 . S
C2292 C2296 1.385 . S
C2293 H2268 0.951 . S
C2293 C2291 1.388 . S
C2293 C2294 1.366 . S
C2294 C2293 1.366 . S
C2294 C2295 1.414 . S
C2294 C2297 1.499 . S
C2295 H2269 0.950 . S
C2295 C2294 1.414 . S
C2295 C2296 1.374 . S
C2296 H2270 0.950 . S
C2296 C2292 1.385 . S
C2296 C2295 1.374 . S
C2297 C2294 1.499 . S
C2297 C2298 1.373 . S
C2297 C2299 1.389 . S
C2298 H2271 0.950 . S
C2298 C2284 1.377 . S
C2298 C2297 1.373 . S
C2299 C2283 1.377 . S
C2299 C2297 1.389 . S
C2299 C2300 1.524 . S
C2300 C2299 1.524 . S
C2300 C2301 1.397 . S
C2300 C2305 1.363 . S
C2301 H2272 0.950 . S
C2301 C2300 1.397 . S
C2301 C2302 1.334 . S
C2302 H2273 0.950 . S
C2302 C2301 1.334 . S
C2302 C2303 1.287 . S
C2303 C2302 1.287 . S
C2303 C2304 1.524 . S
C2303 H2306 0.999 . S
C2304 H2274 0.950 . S
C2304 C2303 1.524 . S
C2304 C2305 1.415 . S
C2305 H2275 0.950 . S
C2305 C2300 1.363 . S
C2305 C2304 1.415 . S
H2306 C2303 0.999 . S
H2307 C2288 0.913 . S
H2308 C2326 0.951 . S
H2309 C2328 0.951 . S
H2310 C2330 0.950 . S
H2311 C2331 0.950 . S
H2312 C2333 0.950 . S
H2313 C2336 0.950 . S
H2314 C2337 0.950 . S
H2315 C2339 0.950 . S
H2316 C2340 0.950 . S
H2317 C2341 0.951 . S
H2318 C2343 0.951 . S
H2319 C2345 0.950 . S
H2320 C2346 0.950 . S
H2321 C2348 0.950 . S
H2322 C2351 0.950 . S
H2323 C2352 0.950 . S
H2324 C2354 0.950 . S
H2325 C2355 0.950 . S
C2326 H2308 0.951 . S
C2326 C2327 1.366 . S
C2326 C2328 1.388 . S
C2327 C2326 1.366 . S
C2327 C2331 1.385 . S
C2328 H2309 0.951 . S
C2328 C2326 1.388 . S
C2328 C2329 1.366 . S
C2329 C2328 1.366 . S
C2329 C2330 1.414 . S
C2329 C2332 1.499 . S
C2330 H2310 0.950 . S
C2330 C2329 1.414 . S
C2330 C2331 1.374 . S
C2331 H2311 0.950 . S
C2331 C2327 1.385 . S
C2331 C2330 1.374 . S
C2332 C2329 1.499 . S
C2332 C2333 1.373 . S
C2332 C2334 1.389 . S
C2333 H2312 0.950 . S
C2333 C2332 1.373 . S
C2333 C2349 1.377 . S
C2334 C2332 1.389 . S
C2334 C2335 1.524 . S
C2334 C2348 1.377 . S
C2335 C2334 1.524 . S
C2335 C2336 1.397 . S
C2335 C2340 1.363 . S
C2336 H2313 0.950 . S
C2336 C2335 1.397 . S
C2336 C2337 1.334 . S
C2337 H2314 0.950 . S
C2337 C2336 1.334 . S
C2337 C2338 1.287 . S
C2338 C2337 1.287 . S
C2338 C2339 1.524 . S
C2338 H2357 0.913 . S
C2339 H2315 0.950 . S
C2339 C2338 1.524 . S
C2339 C2340 1.415 . S
C2340 H2316 0.950 . S
C2340 C2335 1.363 . S
C2340 C2339 1.415 . S
C2341 H2317 0.951 . S
C2341 C2342 1.366 . S
C2341 C2343 1.388 . S
C2342 C2341 1.366 . S
C2342 C2346 1.385 . S
C2343 H2318 0.951 . S
C2343 C2341 1.388 . S
C2343 C2344 1.366 . S
C2344 C2343 1.366 . S
C2344 C2345 1.414 . S
C2344 C2347 1.499 . S
C2345 H2319 0.950 . S
C2345 C2344 1.414 . S
C2345 C2346 1.374 . S
C2346 H2320 0.950 . S
C2346 C2342 1.385 . S
C2346 C2345 1.374 . S
C2347 C2344 1.499 . S
C2347 C2348 1.373 . S
C2347 C2349 1.389 . S
C2348 H2321 0.950 . S
C2348 C2334 1.377 . S
C2348 C2347 1.373 . S
C2349 C2333 1.377 . S
C2349 C2347 1.389 . S
C2349 C2350 1.524 . S
C2350 C2349 1.524 . S
C2350 C2351 1.397 . S
C2350 C2355 1.363 . S
C2351 H2322 0.950 . S
C2351 C2350 1.397 . S
C2351 C2352 1.334 . S
C2352 H2323 0.950 . S
C2352 C2351 1.334 . S
C2352 C2353 1.287 . S
C2353 C2352 1.287 . S
C2353 C2354 1.524 . S
C2353 H2356 0.999 . S
C2354 H2324 0.950 . S
C2354 C2353 1.524 . S
C2354 C2355 1.415 . S
C2355 H2325 0.950 . S
C2355 C2350 1.363 . S
C2355 C2354 1.415 . S
H2356 C2353 0.999 . S
H2357 C2338 0.913 . S
H2358 C2376 0.951 . S
H2359 C2378 0.951 . S
H2360 C2380 0.950 . S
H2361 C2381 0.950 . S
H2362 C2383 0.950 . S
H2363 C2386 0.950 . S
H2364 C2387 0.950 . S
H2365 C2389 0.950 . S
H2366 C2390 0.950 . S
H2367 C2391 0.951 . S
H2368 C2393 0.951 . S
H2369 C2395 0.950 . S
H2370 C2396 0.950 . S
H2371 C2398 0.950 . S
H2372 C2401 0.950 . S
H2373 C2402 0.950 . S
H2374 C2404 0.950 . S
H2375 C2405 0.950 . S
C2376 H2358 0.951 . S
C2376 C2377 1.366 . S
C2376 C2378 1.388 . S
C2377 C2376 1.366 . S
C2377 C2381 1.385 . S
C2378 H2359 0.951 . S
C2378 C2376 1.388 . S
C2378 C2379 1.366 . S
C2379 C2378 1.366 . S
C2379 C2380 1.414 . S
C2379 C2382 1.499 . S
C2380 H2360 0.950 . S
C2380 C2379 1.414 . S
C2380 C2381 1.374 . S
C2381 H2361 0.950 . S
C2381 C2377 1.385 . S
C2381 C2380 1.374 . S
C2382 C2379 1.499 . S
C2382 C2383 1.373 . S
C2382 C2384 1.389 . S
C2383 H2362 0.950 . S
C2383 C2382 1.373 . S
C2383 C2399 1.377 . S
C2384 C2382 1.389 . S
C2384 C2385 1.524 . S
C2384 C2398 1.377 . S
C2385 C2384 1.524 . S
C2385 C2386 1.397 . S
C2385 C2390 1.363 . S
C2386 H2363 0.950 . S
C2386 C2385 1.397 . S
C2386 C2387 1.334 . S
C2387 H2364 0.950 . S
C2387 C2386 1.334 . S
C2387 C2388 1.287 . S
C2388 C2387 1.287 . S
C2388 C2389 1.524 . S
C2388 H2407 0.913 . S
C2389 H2365 0.950 . S
C2389 C2388 1.524 . S
C2389 C2390 1.415 . S
C2390 H2366 0.950 . S
C2390 C2385 1.363 . S
C2390 C2389 1.415 . S
C2391 H2367 0.951 . S
C2391 C2392 1.366 . S
C2391 C2393 1.388 . S
C2392 C2391 1.366 . S
C2392 C2396 1.385 . S
C2393 H2368 0.951 . S
C2393 C2391 1.388 . S
C2393 C2394 1.366 . S
C2394 C2393 1.366 . S
C2394 C2395 1.414 . S
C2394 C2397 1.499 . S
C2395 H2369 0.950 . S
C2395 C2394 1.414 . S
C2395 C2396 1.374 . S
C2396 H2370 0.950 . S
C2396 C2392 1.385 . S
C2396 C2395 1.374 . S
C2397 C2394 1.499 . S
C2397 C2398 1.373 . S
C2397 C2399 1.389 . S
C2398 H2371 0.950 . S
C2398 C2384 1.377 . S
C2398 C2397 1.373 . S
C2399 C2383 1.377 . S
C2399 C2397 1.389 . S
C2399 C2400 1.524 . S
C2400 C2399 1.524 . S
C2400 C2401 1.397 . S
C2400 C2405 1.363 . S
C2401 H2372 0.950 . S
C2401 C2400 1.397 . S
C2401 C2402 1.334 . S
C2402 H2373 0.950 . S
C2402 C2401 1.334 . S
C2402 C2403 1.287 . S
C2403 C2402 1.287 . S
C2403 C2404 1.524 . S
C2403 H2406 0.999 . S
C2404 H2374 0.950 . S
C2404 C2403 1.524 . S
C2404 C2405 1.415 . S
C2405 H2375 0.950 . S
C2405 C2400 1.363 . S
C2405 C2404 1.415 . S
H2406 C2403 0.999 . S
H2407 C2388 0.913 . S
H2408 C2426 0.951 . S
H2409 C2428 0.951 . S
H2410 C2430 0.950 . S
H2411 C2431 0.950 . S
H2412 C2433 0.950 . S
H2413 C2436 0.950 . S
H2414 C2437 0.950 . S
H2415 C2439 0.950 . S
H2416 C2440 0.950 . S
H2417 C2441 0.951 . S
H2418 C2443 0.951 . S
H2419 C2445 0.950 . S
H2420 C2446 0.950 . S
H2421 C2448 0.950 . S
H2422 C2451 0.950 . S
H2423 C2452 0.950 . S
H2424 C2454 0.950 . S
H2425 C2455 0.950 . S
C2426 H2408 0.951 . S
C2426 C2427 1.366 . S
C2426 C2428 1.388 . S
C2427 C2426 1.366 . S
C2427 C2431 1.385 . S
C2428 H2409 0.951 . S
C2428 C2426 1.388 . S
C2428 C2429 1.366 . S
C2429 C2428 1.366 . S
C2429 C2430 1.414 . S
C2429 C2432 1.499 . S
C2430 H2410 0.950 . S
C2430 C2429 1.414 . S
C2430 C2431 1.374 . S
C2431 H2411 0.950 . S
C2431 C2427 1.385 . S
C2431 C2430 1.374 . S
C2432 C2429 1.499 . S
C2432 C2433 1.373 . S
C2432 C2434 1.389 . S
C2433 H2412 0.950 . S
C2433 C2432 1.373 . S
C2433 C2449 1.377 . S
C2434 C2432 1.389 . S
C2434 C2435 1.524 . S
C2434 C2448 1.377 . S
C2435 C2434 1.524 . S
C2435 C2436 1.397 . S
C2435 C2440 1.363 . S
C2436 H2413 0.950 . S
C2436 C2435 1.397 . S
C2436 C2437 1.334 . S
C2437 H2414 0.950 . S
C2437 C2436 1.334 . S
C2437 C2438 1.287 . S
C2438 C2437 1.287 . S
C2438 C2439 1.524 . S
C2438 H2457 0.913 . S
C2439 H2415 0.950 . S
C2439 C2438 1.524 . S
C2439 C2440 1.415 . S
C2440 H2416 0.950 . S
C2440 C2435 1.363 . S
C2440 C2439 1.415 . S
C2441 H2417 0.951 . S
C2441 C2442 1.366 . S
C2441 C2443 1.388 . S
C2442 C2441 1.366 . S
C2442 C2446 1.385 . S
C2443 H2418 0.951 . S
C2443 C2441 1.388 . S
C2443 C2444 1.366 . S
C2444 C2443 1.366 . S
C2444 C2445 1.414 . S
C2444 C2447 1.499 . S
C2445 H2419 0.950 . S
C2445 C2444 1.414 . S
C2445 C2446 1.374 . S
C2446 H2420 0.950 . S
C2446 C2442 1.385 . S
C2446 C2445 1.374 . S
C2447 C2444 1.499 . S
C2447 C2448 1.373 . S
C2447 C2449 1.389 . S
C2448 H2421 0.950 . S
C2448 C2434 1.377 . S
C2448 C2447 1.373 . S
C2449 C2433 1.377 . S
C2449 C2447 1.389 . S
C2449 C2450 1.524 . S
C2450 C2449 1.524 . S
C2450 C2451 1.397 . S
C2450 C2455 1.363 . S
C2451 H2422 0.950 . S
C2451 C2450 1.397 . S
C2451 C2452 1.334 . S
C2452 H2423 0.950 . S
C2452 C2451 1.334 . S
C2452 C2453 1.287 . S
C2453 C2452 1.287 . S
C2453 C2454 1.524 . S
C2453 H2456 0.999 . S
C2454 H2424 0.950 . S
C2454 C2453 1.524 . S
C2454 C2455 1.415 . S
C2455 H2425 0.950 . S
C2455 C2450 1.363 . S
C2455 C2454 1.415 . S
H2456 C2453 0.999 . S
H2457 C2438 0.913 . S
H2458 C2476 0.951 . S
H2459 C2478 0.951 . S
H2460 C2480 0.950 . S
H2461 C2481 0.950 . S
H2462 C2483 0.950 . S
H2463 C2486 0.950 . S
H2464 C2487 0.950 . S
H2465 C2489 0.950 . S
H2466 C2490 0.950 . S
H2467 C2491 0.951 . S
H2468 C2493 0.951 . S
H2469 C2495 0.950 . S
H2470 C2496 0.950 . S
H2471 C2498 0.950 . S
H2472 C2501 0.950 . S
H2473 C2502 0.950 . S
H2474 C2504 0.950 . S
H2475 C2505 0.950 . S
C2476 H2458 0.951 . S
C2476 C2477 1.366 . S
C2476 C2478 1.388 . S
C2477 C2476 1.366 . S
C2477 C2481 1.385 . S
C2478 H2459 0.951 . S
C2478 C2476 1.388 . S
C2478 C2479 1.366 . S
C2479 C2478 1.366 . S
C2479 C2480 1.414 . S
C2479 C2482 1.499 . S
C2480 H2460 0.950 . S
C2480 C2479 1.414 . S
C2480 C2481 1.374 . S
C2481 H2461 0.950 . S
C2481 C2477 1.385 . S
C2481 C2480 1.374 . S
C2482 C2479 1.499 . S
C2482 C2483 1.373 . S
C2482 C2484 1.389 . S
C2483 H2462 0.950 . S
C2483 C2482 1.373 . S
C2483 C2499 1.377 . S
C2484 C2482 1.389 . S
C2484 C2485 1.524 . S
C2484 C2498 1.377 . S
C2485 C2484 1.524 . S
C2485 C2486 1.397 . S
C2485 C2490 1.363 . S
C2486 H2463 0.950 . S
C2486 C2485 1.397 . S
C2486 C2487 1.334 . S
C2487 H2464 0.950 . S
C2487 C2486 1.334 . S
C2487 C2488 1.287 . S
C2488 C2487 1.287 . S
C2488 C2489 1.524 . S
C2488 H2507 0.913 . S
C2489 H2465 0.950 . S
C2489 C2488 1.524 . S
C2489 C2490 1.415 . S
C2490 H2466 0.950 . S
C2490 C2485 1.363 . S
C2490 C2489 1.415 . S
C2491 H2467 0.951 . S
C2491 C2492 1.366 . S
C2491 C2493 1.388 . S
C2492 C2491 1.366 . S
C2492 C2496 1.385 . S
C2493 H2468 0.951 . S
C2493 C2491 1.388 . S
C2493 C2494 1.366 . S
C2494 C2493 1.366 . S
C2494 C2495 1.414 . S
C2494 C2497 1.499 . S
C2495 H2469 0.950 . S
C2495 C2494 1.414 . S
C2495 C2496 1.374 . S
C2496 H2470 0.950 . S
C2496 C2492 1.385 . S
C2496 C2495 1.374 . S
C2497 C2494 1.499 . S
C2497 C2498 1.373 . S
C2497 C2499 1.389 . S
C2498 H2471 0.950 . S
C2498 C2484 1.377 . S
C2498 C2497 1.373 . S
C2499 C2483 1.377 . S
C2499 C2497 1.389 . S
C2499 C2500 1.524 . S
C2500 C2499 1.524 . S
C2500 C2501 1.397 . S
C2500 C2505 1.363 . S
C2501 H2472 0.950 . S
C2501 C2500 1.397 . S
C2501 C2502 1.334 . S
C2502 H2473 0.950 . S
C2502 C2501 1.334 . S
C2502 C2503 1.287 . S
C2503 C2502 1.287 . S
C2503 C2504 1.524 . S
C2503 H2506 0.999 . S
C2504 H2474 0.950 . S
C2504 C2503 1.524 . S
C2504 C2505 1.415 . S
C2505 H2475 0.950 . S
C2505 C2500 1.363 . S
C2505 C2504 1.415 . S
H2506 C2503 0.999 . S
H2507 C2488 0.913 . S
H2508 C2526 0.951 . S
H2509 C2528 0.951 . S
H2510 C2530 0.950 . S
H2511 C2531 0.950 . S
H2512 C2533 0.950 . S
H2513 C2536 0.950 . S
H2514 C2537 0.950 . S
H2515 C2539 0.954 . S
H2516 C2540 0.950 1_655 S
H2517 C2541 0.951 . S
H2518 C2543 0.951 . S
H2519 C2545 0.950 . S
H2520 C2546 0.950 . S
H2521 C2548 0.950 . S
H2522 C2551 0.950 1_655 S
H2523 C2552 0.950 1_655 S
H2524 C2554 0.950 . S
H2525 C2555 0.950 . S
C2526 H2508 0.951 . S
C2526 C2527 1.366 . S
C2526 C2528 1.388 . S
C2527 C2526 1.366 . S
C2527 C2531 1.385 . S
C2528 H2509 0.951 . S
C2528 C2526 1.388 . S
C2528 C2529 1.366 . S
C2529 C2528 1.366 . S
C2529 C2530 1.414 . S
C2529 C2532 1.499 . S
C2530 H2510 0.950 . S
C2530 C2529 1.414 . S
C2530 C2531 1.374 . S
C2531 H2511 0.950 . S
C2531 C2527 1.385 . S
C2531 C2530 1.374 . S
C2532 C2529 1.499 . S
C2532 C2533 1.373 . S
C2532 C2534 1.389 . S
C2533 H2512 0.950 . S
C2533 C2532 1.373 . S
C2533 C2549 1.377 . S
C2534 C2532 1.389 . S
C2534 C2535 1.524 . S
C2534 C2548 1.377 1_455 S
C2535 C2534 1.524 . S
C2535 C2536 1.397 . S
C2535 C2540 1.363 . S
C2536 H2513 0.950 . S
C2536 C2535 1.397 . S
C2536 C2537 1.334 . S
C2537 H2514 0.950 . S
C2537 C2536 1.334 . S
C2537 C2538 1.287 . S
C2538 C2537 1.287 . S
C2538 C2539 1.520 1_455 S
C2538 H2557 0.913 . S
C2539 H2515 0.954 . S
C2539 C2538 1.520 1_655 S
C2539 C2540 1.415 1_655 S
C2540 H2516 0.950 1_455 S
C2540 C2535 1.363 . S
C2540 C2539 1.415 1_455 S
C2541 H2517 0.951 . S
C2541 C2542 1.366 . S
C2541 C2543 1.388 . S
C2542 C2541 1.366 . S
C2542 C2546 1.385 . S
C2543 H2518 0.951 . S
C2543 C2541 1.388 . S
C2543 C2544 1.366 . S
C2544 C2543 1.366 . S
C2544 C2545 1.414 . S
C2544 C2547 1.499 . S
C2545 H2519 0.950 . S
C2545 C2544 1.414 . S
C2545 C2546 1.374 . S
C2546 H2520 0.950 . S
C2546 C2542 1.385 . S
C2546 C2545 1.374 . S
C2547 C2544 1.499 . S
C2547 C2548 1.373 . S
C2547 C2549 1.389 1_655 S
C2548 H2521 0.950 . S
C2548 C2534 1.377 1_655 S
C2548 C2547 1.373 . S
C2549 C2533 1.377 . S
C2549 C2547 1.389 1_455 S
C2549 C2550 1.524 . S
C2550 C2549 1.524 . S
C2550 C2551 1.397 . S
C2550 C2555 1.363 . S
C2551 H2522 0.950 1_455 S
C2551 C2550 1.397 . S
C2551 C2552 1.334 . S
C2552 H2523 0.950 1_455 S
C2552 C2551 1.334 . S
C2552 C2553 1.287 . S
C2553 C2552 1.287 . S
C2553 C2554 1.524 . S
C2553 H2556 0.999 . S
C2554 H2524 0.950 . S
C2554 C2553 1.524 . S
C2554 C2555 1.415 . S
C2555 H2525 0.950 . S
C2555 C2550 1.363 . S
C2555 C2554 1.415 . S
H2556 C2553 0.999 . S
H2557 C2538 0.913 . S
H2558 C2576 0.951 . S
H2559 C2578 0.951 . S
H2560 C2580 0.950 . S
H2561 C2581 0.950 . S
H2562 C2583 0.950 . S
H2563 C2586 0.950 . S
H2564 C2587 0.950 . S
H2565 C2589 0.950 . S
H2566 C2590 0.950 . S
H2567 C2591 0.951 . S
H2568 C2593 0.951 . S
H2569 C2595 0.950 . S
H2570 C2596 0.950 . S
H2571 C2598 0.950 . S
H2572 C2601 0.950 . S
H2573 C2602 0.950 . S
H2574 C2604 0.950 . S
H2575 C2605 0.950 . S
C2576 H2558 0.951 . S
C2576 C2577 1.366 . S
C2576 C2578 1.388 . S
C2577 C2576 1.366 . S
C2577 C2581 1.385 . S
C2578 H2559 0.951 . S
C2578 C2576 1.388 . S
C2578 C2579 1.366 . S
C2579 C2578 1.366 . S
C2579 C2580 1.414 . S
C2579 C2582 1.499 . S
C2580 H2560 0.950 . S
C2580 C2579 1.414 . S
C2580 C2581 1.374 . S
C2581 H2561 0.950 . S
C2581 C2577 1.385 . S
C2581 C2580 1.374 . S
C2582 C2579 1.499 . S
C2582 C2583 1.373 . S
C2582 C2584 1.389 . S
C2583 H2562 0.950 . S
C2583 C2582 1.373 . S
C2583 C2599 1.377 . S
C2584 C2582 1.389 . S
C2584 C2585 1.524 . S
C2584 C2598 1.377 . S
C2585 C2584 1.524 . S
C2585 C2586 1.397 . S
C2585 C2590 1.363 . S
C2586 H2563 0.950 . S
C2586 C2585 1.397 . S
C2586 C2587 1.334 . S
C2587 H2564 0.950 . S
C2587 C2586 1.334 . S
C2587 C2588 1.287 . S
C2588 C2587 1.287 . S
C2588 C2589 1.524 . S
C2588 H2607 0.913 . S
C2589 H2565 0.950 . S
C2589 C2588 1.524 . S
C2589 C2590 1.415 . S
C2590 H2566 0.950 . S
C2590 C2585 1.363 . S
C2590 C2589 1.415 . S
C2591 H2567 0.951 . S
C2591 C2592 1.366 . S
C2591 C2593 1.388 . S
C2592 C2591 1.366 . S
C2592 C2596 1.385 . S
C2593 H2568 0.951 . S
C2593 C2591 1.388 . S
C2593 C2594 1.366 . S
C2594 C2593 1.366 . S
C2594 C2595 1.414 . S
C2594 C2597 1.499 . S
C2595 H2569 0.950 . S
C2595 C2594 1.414 . S
C2595 C2596 1.374 . S
C2596 H2570 0.950 . S
C2596 C2592 1.385 . S
C2596 C2595 1.374 . S
C2597 C2594 1.499 . S
C2597 C2598 1.373 . S
C2597 C2599 1.389 . S
C2598 H2571 0.950 . S
C2598 C2584 1.377 . S
C2598 C2597 1.373 . S
C2599 C2583 1.377 . S
C2599 C2597 1.389 . S
C2599 C2600 1.524 . S
C2600 C2599 1.524 . S
C2600 C2601 1.397 . S
C2600 C2605 1.363 . S
C2601 H2572 0.950 . S
C2601 C2600 1.397 . S
C2601 C2602 1.334 . S
C2602 H2573 0.950 . S
C2602 C2601 1.334 . S
C2602 C2603 1.287 . S
C2603 C2602 1.287 . S
C2603 C2604 1.524 . S
C2603 H2606 0.999 . S
C2604 H2574 0.950 . S
C2604 C2603 1.524 . S
C2604 C2605 1.415 . S
C2605 H2575 0.950 . S
C2605 C2600 1.363 . S
C2605 C2604 1.415 . S
H2606 C2603 0.999 . S
H2607 C2588 0.913 . S
H2608 C2626 0.951 . S
H2609 C2628 0.951 . S
H2610 C2630 0.950 . S
H2611 C2631 0.950 . S
H2612 C2633 0.950 . S
H2613 C2636 0.950 . S
H2614 C2637 0.950 . S
H2615 C2639 0.950 . S
H2616 C2640 0.950 . S
H2617 C2641 0.951 . S
H2618 C2643 0.951 . S
H2619 C2645 0.950 . S
H2620 C2646 0.950 . S
H2621 C2648 0.950 . S
H2622 C2651 0.950 . S
H2623 C2652 0.950 . S
H2624 C2654 0.950 . S
H2625 C2655 0.950 . S
C2626 H2608 0.951 . S
C2626 C2627 1.366 . S
C2626 C2628 1.388 . S
C2627 C2626 1.366 . S
C2627 C2631 1.385 . S
C2628 H2609 0.951 . S
C2628 C2626 1.388 . S
C2628 C2629 1.366 . S
C2629 C2628 1.366 . S
C2629 C2630 1.414 . S
C2629 C2632 1.499 . S
C2630 H2610 0.950 . S
C2630 C2629 1.414 . S
C2630 C2631 1.374 . S
C2631 H2611 0.950 . S
C2631 C2627 1.385 . S
C2631 C2630 1.374 . S
C2632 C2629 1.499 . S
C2632 C2633 1.373 . S
C2632 C2634 1.389 . S
C2633 H2612 0.950 . S
C2633 C2632 1.373 . S
C2633 C2649 1.377 . S
C2634 C2632 1.389 . S
C2634 C2635 1.524 . S
C2634 C2648 1.377 . S
C2635 C2634 1.524 . S
C2635 C2636 1.397 . S
C2635 C2640 1.363 . S
C2636 H2613 0.950 . S
C2636 C2635 1.397 . S
C2636 C2637 1.334 . S
C2637 H2614 0.950 . S
C2637 C2636 1.334 . S
C2637 C2638 1.287 . S
C2638 C2637 1.287 . S
C2638 C2639 1.524 . S
C2638 H2657 0.913 . S
C2639 H2615 0.950 . S
C2639 C2638 1.524 . S
C2639 C2640 1.415 . S
C2640 H2616 0.950 . S
C2640 C2635 1.363 . S
C2640 C2639 1.415 . S
C2641 H2617 0.951 . S
C2641 C2642 1.366 . S
C2641 C2643 1.388 . S
C2642 C2641 1.366 . S
C2642 C2646 1.385 . S
C2643 H2618 0.951 . S
C2643 C2641 1.388 . S
C2643 C2644 1.366 . S
C2644 C2643 1.366 . S
C2644 C2645 1.414 . S
C2644 C2647 1.499 . S
C2645 H2619 0.950 . S
C2645 C2644 1.414 . S
C2645 C2646 1.374 . S
C2646 H2620 0.950 . S
C2646 C2642 1.385 . S
C2646 C2645 1.374 . S
C2647 C2644 1.499 . S
C2647 C2648 1.373 . S
C2647 C2649 1.389 . S
C2648 H2621 0.950 . S
C2648 C2634 1.377 . S
C2648 C2647 1.373 . S
C2649 C2633 1.377 . S
C2649 C2647 1.389 . S
C2649 C2650 1.524 . S
C2650 C2649 1.524 . S
C2650 C2651 1.397 . S
C2650 C2655 1.363 . S
C2651 H2622 0.950 . S
C2651 C2650 1.397 . S
C2651 C2652 1.334 . S
C2652 H2623 0.950 . S
C2652 C2651 1.334 . S
C2652 C2653 1.287 . S
C2653 C2652 1.287 . S
C2653 C2654 1.524 . S
C2653 H2656 0.999 . S
C2654 H2624 0.950 . S
C2654 C2653 1.524 . S
C2654 C2655 1.415 . S
C2655 H2625 0.950 . S
C2655 C2650 1.363 . S
C2655 C2654 1.415 . S
H2656 C2653 0.999 . S
H2657 C2638 0.913 . S
H2658 C2676 0.951 . S
H2659 C2678 0.951 . S
H2660 C2680 0.950 . S
H2661 C2681 0.950 . S
H2662 C2683 0.950 . S
H2663 C2686 0.950 . S
H2664 C2687 0.950 . S
H2665 C2689 0.950 . S
H2666 C2690 0.950 . S
H2667 C2691 0.951 . S
H2668 C2693 0.951 . S
H2669 C2695 0.950 . S
H2670 C2696 0.950 . S
H2671 C2698 0.950 . S
H2672 C2701 0.950 . S
H2673 C2702 0.950 . S
H2674 C2704 0.950 . S
H2675 C2705 0.950 . S
C2676 H2658 0.951 . S
C2676 C2677 1.366 . S
C2676 C2678 1.388 . S
C2677 C2676 1.366 . S
C2677 C2681 1.385 . S
C2678 H2659 0.951 . S
C2678 C2676 1.388 . S
C2678 C2679 1.366 . S
C2679 C2678 1.366 . S
C2679 C2680 1.414 . S
C2679 C2682 1.499 . S
C2680 H2660 0.950 . S
C2680 C2679 1.414 . S
C2680 C2681 1.374 . S
C2681 H2661 0.950 . S
C2681 C2677 1.385 . S
C2681 C2680 1.374 . S
C2682 C2679 1.499 . S
C2682 C2683 1.373 . S
C2682 C2684 1.389 . S
C2683 H2662 0.950 . S
C2683 C2682 1.373 . S
C2683 C2699 1.377 . S
C2684 C2682 1.389 . S
C2684 C2685 1.524 . S
C2684 C2698 1.377 . S
C2685 C2684 1.524 . S
C2685 C2686 1.397 . S
C2685 C2690 1.363 . S
C2686 H2663 0.950 . S
C2686 C2685 1.397 . S
C2686 C2687 1.334 . S
C2687 H2664 0.950 . S
C2687 C2686 1.334 . S
C2687 C2688 1.287 . S
C2688 C2687 1.287 . S
C2688 C2689 1.524 . S
C2688 H2707 0.913 . S
C2689 H2665 0.950 . S
C2689 C2688 1.524 . S
C2689 C2690 1.415 . S
C2690 H2666 0.950 . S
C2690 C2685 1.363 . S
C2690 C2689 1.415 . S
C2691 H2667 0.951 . S
C2691 C2692 1.366 . S
C2691 C2693 1.388 . S
C2692 C2691 1.366 . S
C2692 C2696 1.385 . S
C2693 H2668 0.951 . S
C2693 C2691 1.388 . S
C2693 C2694 1.366 . S
C2694 C2693 1.366 . S
C2694 C2695 1.414 . S
C2694 C2697 1.499 . S
C2695 H2669 0.950 . S
C2695 C2694 1.414 . S
C2695 C2696 1.374 . S
C2696 H2670 0.950 . S
C2696 C2692 1.385 . S
C2696 C2695 1.374 . S
C2697 C2694 1.499 . S
C2697 C2698 1.373 . S
C2697 C2699 1.389 . S
C2698 H2671 0.950 . S
C2698 C2684 1.377 . S
C2698 C2697 1.373 . S
C2699 C2683 1.377 . S
C2699 C2697 1.389 . S
C2699 C2700 1.524 . S
C2700 C2699 1.524 . S
C2700 C2701 1.397 . S
C2700 C2705 1.363 . S
C2701 H2672 0.950 . S
C2701 C2700 1.397 . S
C2701 C2702 1.334 . S
C2702 H2673 0.950 . S
C2702 C2701 1.334 . S
C2702 C2703 1.287 . S
C2703 C2702 1.287 . S
C2703 C2704 1.524 . S
C2703 H2706 0.999 . S
C2704 H2674 0.950 . S
C2704 C2703 1.524 . S
C2704 C2705 1.415 . S
C2705 H2675 0.950 . S
C2705 C2700 1.363 . S
C2705 C2704 1.415 . S
H2706 C2703 0.999 . S
H2707 C2688 0.913 . S
H2708 C2726 0.951 . S
H2709 C2728 0.951 . S
H2710 C2730 0.950 . S
H2711 C2731 0.950 . S
H2712 C2733 0.950 . S
H2713 C2736 0.950 . S
H2714 C2737 0.950 . S
H2715 C2739 0.950 . S
H2716 C2740 0.950 . S
H2717 C2741 0.951 . S
H2718 C2743 0.951 . S
H2719 C2745 0.950 . S
H2720 C2746 0.950 . S
H2721 C2748 0.950 . S
H2722 C2751 0.950 . S
H2723 C2752 0.950 . S
H2724 C2754 0.950 . S
H2725 C2755 0.950 . S
C2726 H2708 0.951 . S
C2726 C2727 1.366 . S
C2726 C2728 1.388 . S
C2727 C2726 1.366 . S
C2727 C2731 1.385 . S
C2728 H2709 0.951 . S
C2728 C2726 1.388 . S
C2728 C2729 1.366 . S
C2729 C2728 1.366 . S
C2729 C2730 1.414 . S
C2729 C2732 1.499 . S
C2730 H2710 0.950 . S
C2730 C2729 1.414 . S
C2730 C2731 1.374 . S
C2731 H2711 0.950 . S
C2731 C2727 1.385 . S
C2731 C2730 1.374 . S
C2732 C2729 1.499 . S
C2732 C2733 1.373 . S
C2732 C2734 1.389 . S
C2733 H2712 0.950 . S
C2733 C2732 1.373 . S
C2733 C2749 1.377 . S
C2734 C2732 1.389 . S
C2734 C2735 1.524 . S
C2734 C2748 1.377 . S
C2735 C2734 1.524 . S
C2735 C2736 1.397 . S
C2735 C2740 1.363 . S
C2736 H2713 0.950 . S
C2736 C2735 1.397 . S
C2736 C2737 1.334 . S
C2737 H2714 0.950 . S
C2737 C2736 1.334 . S
C2737 C2738 1.287 . S
C2738 C2737 1.287 . S
C2738 C2739 1.524 . S
C2738 H2757 0.913 . S
C2739 H2715 0.950 . S
C2739 C2738 1.524 . S
C2739 C2740 1.415 . S
C2740 H2716 0.950 . S
C2740 C2735 1.363 . S
C2740 C2739 1.415 . S
C2741 H2717 0.951 . S
C2741 C2742 1.366 . S
C2741 C2743 1.388 . S
C2742 C2741 1.366 . S
C2742 C2746 1.385 . S
C2743 H2718 0.951 . S
C2743 C2741 1.388 . S
C2743 C2744 1.366 . S
C2744 C2743 1.366 . S
C2744 C2745 1.414 . S
C2744 C2747 1.499 . S
C2745 H2719 0.950 . S
C2745 C2744 1.414 . S
C2745 C2746 1.374 . S
C2746 H2720 0.950 . S
C2746 C2742 1.385 . S
C2746 C2745 1.374 . S
C2747 C2744 1.499 . S
C2747 C2748 1.373 . S
C2747 C2749 1.389 . S
C2748 H2721 0.950 . S
C2748 C2734 1.377 . S
C2748 C2747 1.373 . S
C2749 C2733 1.377 . S
C2749 C2747 1.389 . S
C2749 C2750 1.524 . S
C2750 C2749 1.524 . S
C2750 C2751 1.397 . S
C2750 C2755 1.363 . S
C2751 H2722 0.950 . S
C2751 C2750 1.397 . S
C2751 C2752 1.334 . S
C2752 H2723 0.950 . S
C2752 C2751 1.334 . S
C2752 C2753 1.287 . S
C2753 C2752 1.287 . S
C2753 C2754 1.524 1_556 S
C2753 H2756 1.011 . S
C2754 H2724 0.950 . S
C2754 C2753 1.524 1_554 S
C2754 C2755 1.415 1_554 S
C2755 H2725 0.950 . S
C2755 C2750 1.363 . S
C2755 C2754 1.415 1_556 S
H2756 C2753 1.011 . S
H2757 C2738 0.913 . S
H2758 C2776 0.951 . S
H2759 C2778 0.951 . S
H2760 C2780 0.950 . S
H2761 C2781 0.950 . S
H2762 C2783 0.950 . S
H2763 C2786 0.950 . S
H2764 C2787 0.950 . S
H2765 C2789 0.950 . S
H2766 C2790 0.950 . S
H2767 C2791 0.951 . S
H2768 C2793 0.951 . S
H2769 C2795 0.950 . S
H2770 C2796 0.950 . S
H2771 C2798 0.950 . S
H2772 C2801 0.950 . S
H2773 C2802 0.950 . S
H2774 C2804 0.950 . S
H2775 C2805 0.950 . S
C2776 H2758 0.951 . S
C2776 C2777 1.366 . S
C2776 C2778 1.388 . S
C2777 C2776 1.366 . S
C2777 C2781 1.385 . S
C2778 H2759 0.951 . S
C2778 C2776 1.388 . S
C2778 C2779 1.366 . S
C2779 C2778 1.366 . S
C2779 C2780 1.414 . S
C2779 C2782 1.499 . S
C2780 H2760 0.950 . S
C2780 C2779 1.414 . S
C2780 C2781 1.374 . S
C2781 H2761 0.950 . S
C2781 C2777 1.385 . S
C2781 C2780 1.374 . S
C2782 C2779 1.499 . S
C2782 C2783 1.373 . S
C2782 C2784 1.389 . S
C2783 H2762 0.950 . S
C2783 C2782 1.373 . S
C2783 C2799 1.371 1_655 S
C2784 C2782 1.389 . S
C2784 C2785 1.524 . S
C2784 C2798 1.377 . S
C2785 C2784 1.524 . S
C2785 C2786 1.397 . S
C2785 C2790 1.363 . S
C2786 H2763 0.950 . S
C2786 C2785 1.397 . S
C2786 C2787 1.334 . S
C2787 H2764 0.950 . S
C2787 C2786 1.334 . S
C2787 C2788 1.287 . S
C2788 C2787 1.287 . S
C2788 C2789 1.524 . S
C2788 H2807 0.913 . S
C2789 H2765 0.950 . S
C2789 C2788 1.524 . S
C2789 C2790 1.415 . S
C2790 H2766 0.950 . S
C2790 C2785 1.363 . S
C2790 C2789 1.415 . S
C2791 H2767 0.951 . S
C2791 C2792 1.366 . S
C2791 C2793 1.388 . S
C2792 C2791 1.366 . S
C2792 C2796 1.385 . S
C2793 H2768 0.951 . S
C2793 C2791 1.388 . S
C2793 C2794 1.366 . S
C2794 C2793 1.366 . S
C2794 C2795 1.414 . S
C2794 C2797 1.499 . S
C2795 H2769 0.950 . S
C2795 C2794 1.414 . S
C2795 C2796 1.374 . S
C2796 H2770 0.950 . S
C2796 C2792 1.385 . S
C2796 C2795 1.374 . S
C2797 C2794 1.499 . S
C2797 C2798 1.373 1_455 S
C2797 C2799 1.390 . S
C2798 H2771 0.950 . S
C2798 C2784 1.377 . S
C2798 C2797 1.373 1_655 S
C2799 C2783 1.371 1_455 S
C2799 C2797 1.390 . S
C2799 C2800 1.530 . S
C2800 C2799 1.530 . S
C2800 C2801 1.397 . S
C2800 C2805 1.363 . S
C2801 H2772 0.950 . S
C2801 C2800 1.397 . S
C2801 C2802 1.334 . S
C2802 H2773 0.950 . S
C2802 C2801 1.334 . S
C2802 C2803 1.287 . S
C2803 C2802 1.287 . S
C2803 C2804 1.524 . S
C2803 H2806 0.999 . S
C2804 H2774 0.950 . S
C2804 C2803 1.524 . S
C2804 C2805 1.415 . S
C2805 H2775 0.950 . S
C2805 C2800 1.363 . S
C2805 C2804 1.415 . S
H2806 C2803 0.999 . S
H2807 C2788 0.913 . S
C1027 C74 1.578 . S
C1042 C991 1.624 . S
C1077 C823 1.651 1_565 S
C1092 C158 1.605 . S
C1127 C235 1.627 1_554 S
C1142 C746 1.581 . S
C1177 C326 1.610 . S
C1192 C907 1.656 1_545 S
C1227 C410 1.616 . S
C1242 C914 1.616 . S
C1277 C487 1.640 . S
C1292 C998 1.595 . S
C1327 C830 1.621 . S
C1342 C578 1.610 1_556 S
C1377 C655 1.617 . S
C1392 C739 1.616 . S
C1427 C319 1.615 . S
C1442 C403 1.615 . S
C1477 C67 1.649 . S
C1492 C494 1.603 1_455 S
C1527 C151 1.623 1_655 S
C1542 C571 1.623 . S
C1577 C662 1.629 . S
C1592 C242 1.631 . S
C1627 C69 1.396 . S
C1642 C735 1.607 . S
C1677 C153 1.415 . S
C1692 C896 1.612 . S
C1727 C980 1.601 . S
C1742 C226 1.556 . S
C1777 C321 1.378 . S
C1792 C812 1.569 . S
C1827 C405 1.392 . S
C1842 C819 1.602 . S
C1877 C728 1.589 . S
C1892 C478 1.546 . S
C1927 C903 1.604 . S
C1942 C573 1.394 . S
C1977 C987 1.651 . S
C1992 C646 1.588 . S
C2027 C56 1.587 . S
C2042 C310 1.542 . S
C2077 C58 1.501 . S
C2092 C140 1.548 . S
C2127 C142 1.544 . S
C2142 C231 1.605 . S
C2177 C308 1.561 . S
C2192 C237 1.369 . S
C2227 C489 1.417 . S
C2242 C392 1.613 . S
C2277 C483 1.627 . S
C2292 C562 1.562 . S
C2327 C560 1.613 . S
C2342 C657 1.416 . S
C2377 C394 1.554 . S
C2392 C651 1.620 . S
C2427 C730 1.503 . S
C2442 C315 1.567 . S
C2477 C476 1.575 . S
C2492 C814 1.528 . S
C2527 C741 1.377 . S
C2542 C567 1.587 . S
C2577 C898 1.557 . S
C2592 C644 1.607 . S
C2627 C399 1.602 . S
C2642 C982 1.541 . S
C2677 C993 1.393 . S
C2692 C147 1.603 . S
C2727 C224 1.601 . S
C2742 C825 1.405 . S
C2777 C909 1.411 . S
C2792 C63 1.623 . S
