# Generated by pormake.
# Topology uop, (4)-cn, num edge types: 1
# Building blocks:
#     Node 0, Type 0, BuildingBlock: CEKHIL_clean_sbu_0, # of connection points: 4
#     Node 1, Type 0, BuildingBlock: CEKHIL_clean_sbu_0, # of connection points: 4
#     Node 2, Type 0, BuildingBlock: CEKHIL_clean_sbu_0, # of connection points: 4
#     Node 3, Type 0, BuildingBlock: CEKHIL_clean_sbu_0, # of connection points: 4
#     Node 4, Type 0, BuildingBlock: CEKHIL_clean_sbu_0, # of connection points: 4
#     Node 5, Type 0, BuildingBlock: CEKHIL_clean_sbu_0, # of connection points: 4
#     Node 6, Type 0, BuildingBlock: CEKHIL_clean_sbu_0, # of connection points: 4
#     Node 7, Type 0, BuildingBlock: CEKHIL_clean_sbu_0, # of connection points: 4
#     Node 8, Type 0, BuildingBlock: CEKHIL_clean_sbu_0, # of connection points: 4
#     Node 9, Type 0, BuildingBlock: CEKHIL_clean_sbu_0, # of connection points: 4
#     Node 10, Type 0, BuildingBlock: CEKHIL_clean_sbu_0, # of connection points: 4
#     Node 11, Type 0, BuildingBlock: CEKHIL_clean_sbu_0, # of connection points: 4
#     Edge 12, Type (0, 0), BuildingBlock: XIVTED_clean_linker_0, # of connection points: 2
#     Edge 13, Type (0, 0), BuildingBlock: XIVTED_clean_linker_0, # of connection points: 2
#     Edge 14, Type (0, 0), BuildingBlock: XIVTED_clean_linker_0, # of connection points: 2
#     Edge 15, Type (0, 0), BuildingBlock: XIVTED_clean_linker_0, # of connection points: 2
#     Edge 16, Type (0, 0), BuildingBlock: XIVTED_clean_linker_0, # of connection points: 2
#     Edge 17, Type (0, 0), BuildingBlock: XIVTED_clean_linker_0, # of connection points: 2
#     Edge 18, Type (0, 0), BuildingBlock: XIVTED_clean_linker_0, # of connection points: 2
#     Edge 19, Type (0, 0), BuildingBlock: XIVTED_clean_linker_0, # of connection points: 2
#     Edge 20, Type (0, 0), BuildingBlock: XIVTED_clean_linker_0, # of connection points: 2
#     Edge 21, Type (0, 0), BuildingBlock: XIVTED_clean_linker_0, # of connection points: 2
#     Edge 22, Type (0, 0), BuildingBlock: XIVTED_clean_linker_0, # of connection points: 2
#     Edge 23, Type (0, 0), BuildingBlock: XIVTED_clean_linker_0, # of connection points: 2
#     Edge 24, Type (0, 0), BuildingBlock: XIVTED_clean_linker_0, # of connection points: 2
#     Edge 25, Type (0, 0), BuildingBlock: XIVTED_clean_linker_0, # of connection points: 2
#     Edge 26, Type (0, 0), BuildingBlock: XIVTED_clean_linker_0, # of connection points: 2
#     Edge 27, Type (0, 0), BuildingBlock: XIVTED_clean_linker_0, # of connection points: 2
#     Edge 28, Type (0, 0), BuildingBlock: XIVTED_clean_linker_0, # of connection points: 2
#     Edge 29, Type (0, 0), BuildingBlock: XIVTED_clean_linker_0, # of connection points: 2
#     Edge 30, Type (0, 0), BuildingBlock: XIVTED_clean_linker_0, # of connection points: 2
#     Edge 31, Type (0, 0), BuildingBlock: XIVTED_clean_linker_0, # of connection points: 2
#     Edge 32, Type (0, 0), BuildingBlock: XIVTED_clean_linker_0, # of connection points: 2
#     Edge 33, Type (0, 0), BuildingBlock: XIVTED_clean_linker_0, # of connection points: 2
#     Edge 34, Type (0, 0), BuildingBlock: XIVTED_clean_linker_0, # of connection points: 2
#     Edge 35, Type (0, 0), BuildingBlock: XIVTED_clean_linker_0, # of connection points: 2
# Relax obj value: 0.152
# Max RMSD: 0.165
# Mean RMSD: 0.161
data_MOF--net-uop--node1-CEKHIL_clean_sbu_0--edge1-XIVTED_clean_linker_0
_symmetry_space_group_name_H-M    P1
_symmetry_Int_Tables_number       1
_symmetry_cell_setting            triclinic
loop_
_symmetry_equiv_pos_as_xyz
'x, y, z'
_cell_length_a     32.93738
_cell_length_b     32.01015
_cell_length_c     44.369617
_cell_angle_alpha  89.997864
_cell_angle_beta   90.000673
_cell_angle_gamma 120.89989
loop_
_atom_site_label
_atom_site_type_symbol
_atom_site_fract_x
_atom_site_fract_y
_atom_site_fract_z
_atom_type_partial_charge
Co0 Co 0.23007 0.38725 0.23484 0.0
O1 O 0.16432 0.34882 0.24457 0.0
O2 O 0.19526 0.34865 0.20021 0.0
C3 C 0.25662 0.37089 0.27696 0.0
O4 O 0.29711 0.42097 0.21787 0.0
Co5 Co 0.29335 0.47687 0.27535 0.0
O6 O 0.34472 0.48213 0.24939 0.0
C7 C 0.22631 0.48007 0.23371 0.0
C8 C 0.15794 0.33208 0.21731 0.0
C9 C 0.3381 0.45616 0.22603 0.0
O10 O 0.22079 0.44154 0.22084 0.0
O11 O 0.24992 0.49728 0.25808 0.0
O12 O 0.24177 0.34031 0.25463 0.0
O13 O 0.24999 0.40715 0.27438 0.0
Co14 Co 0.85996 0.25606 0.49717 0.0
O15 O 0.91557 0.25875 0.51274 0.0
O16 O 0.88306 0.29925 0.53131 0.0
C17 C 0.81706 0.17465 0.49302 0.0
O18 O 0.80149 0.26024 0.48914 0.0
Co19 Co 0.82407 0.22156 0.43367 0.0
O20 O 0.76564 0.21933 0.44699 0.0
C21 C 0.90481 0.31985 0.4413 0.0
C22 C 0.91582 0.28817 0.53299 0.0
C23 C 0.76622 0.24158 0.47088 0.0
O24 O 0.90012 0.31233 0.4698 0.0
O25 O 0.87859 0.28766 0.42191 0.0
O26 O 0.8206 0.19619 0.51849 0.0
O27 O 0.84258 0.20261 0.47093 0.0
Co28 Co 0.60873 0.83972 0.87102 0.0
O29 O 0.64905 0.81447 0.87946 0.0
O30 O 0.64438 0.84399 0.83524 0.0
C31 C 0.62545 0.88539 0.91248 0.0
O32 O 0.57251 0.87115 0.85525 0.0
Co33 Co 0.52401 0.8111 0.91438 0.0
O34 O 0.51654 0.85821 0.88951 0.0
C35 C 0.51929 0.7392 0.87168 0.0
C36 C 0.6632 0.82464 0.85175 0.0
C37 C 0.53915 0.87728 0.86516 0.0
O38 O 0.55647 0.77301 0.85848 0.0
O39 O 0.50342 0.7458 0.89643 0.0
O40 O 0.65379 0.90168 0.88943 0.0
O41 O 0.59185 0.84039 0.91103 0.0
Co42 Co 0.75649 0.598 0.23784 0.0
O43 O 0.82077 0.64329 0.24866 0.0
O44 O 0.78993 0.63811 0.20341 0.0
C45 C 0.72226 0.60814 0.27842 0.0
O46 O 0.69072 0.55689 0.21959 0.0
Co47 Co 0.69991 0.5063 0.27804 0.0
O48 O 0.64654 0.49541 0.25179 0.0
C49 C 0.77231 0.51211 0.23741 0.0
C50 C 0.82675 0.65868 0.22107 0.0
C51 C 0.65112 0.51966 0.2279 0.0
O52 O 0.77478 0.54959 0.22502 0.0
O53 O 0.74804 0.49211 0.26119 0.0
O54 O 0.73543 0.63878 0.25614 0.0
O55 O 0.73583 0.57682 0.27711 0.0
Co56 Co 0.13698 0.73163 0.50793 0.0
O57 O 0.07299 0.7042 0.52144 0.0
O58 O 0.12515 0.68708 0.54052 0.0
C59 C 0.15688 0.80985 0.50674 0.0
O60 O 0.20587 0.75412 0.50054 0.0
Co61 Co 0.16461 0.77787 0.44467 0.0
O62 O 0.22993 0.7978 0.45768 0.0
C63 C 0.10954 0.67209 0.44961 0.0
C64 C 0.08288 0.68079 0.5412 0.0
C65 C 0.23824 0.78109 0.48148 0.0
O66 O 0.11641 0.67733 0.47815 0.0
O67 O 0.12184 0.70791 0.43163 0.0
O68 O 0.15663 0.78915 0.53192 0.0
O69 O 0.13886 0.78098 0.48367 0.0
Co70 Co 0.39546 0.16212 0.87706 0.0
O71 O 0.35258 0.18413 0.88569 0.0
O72 O 0.3605 0.15797 0.84104 0.0
C73 C 0.37907 0.11476 0.91763 0.0
O74 O 0.43463 0.13433 0.86083 0.0
Co75 Co 0.47969 0.19231 0.9207 0.0
O76 O 0.49038 0.14781 0.89532 0.0
C77 C 0.48209 0.26463 0.87943 0.0
C78 C 0.33982 0.17517 0.85768 0.0
C79 C 0.46873 0.12935 0.87061 0.0
O80 O 0.4458 0.23028 0.86588 0.0
O81 O 0.49865 0.258 0.90387 0.0
O82 O 0.35186 0.09868 0.89405 0.0
O83 O 0.41147 0.16037 0.91723 0.0
Co84 Co 0.58756 0.73227 0.48838 0.0
O85 O 0.62411 0.70536 0.47377 0.0
O86 O 0.5546 0.68863 0.45546 0.0
C87 C 0.64574 0.81048 0.49017 0.0
O88 O 0.54113 0.75445 0.49671 0.0
Co89 Co 0.60647 0.77698 0.55209 0.0
O90 O 0.5608 0.79708 0.53999 0.0
C91 C 0.55559 0.67129 0.54617 0.0
C92 C 0.59068 0.68255 0.45402 0.0
C93 C 0.53569 0.78088 0.51621 0.0
O94 O 0.55418 0.67714 0.51767 0.0
O95 O 0.57892 0.70668 0.56445 0.0
O96 O 0.62504 0.79049 0.46491 0.0
O97 O 0.63517 0.78098 0.51288 0.0
Co98 Co 0.83587 0.59944 0.75819 0.0
O99 O 0.81639 0.64462 0.74786 0.0
O100 O 0.84418 0.6403 0.79254 0.0
C101 C 0.8782 0.60858 0.71677 0.0
O102 O 0.86152 0.55876 0.77588 0.0
Co103 Co 0.79944 0.50679 0.71863 0.0
O104 O 0.84394 0.49721 0.74368 0.0
C105 C 0.73438 0.51386 0.76009 0.0
C106 C 0.82718 0.66062 0.77527 0.0
C107 C 0.86437 0.52189 0.76728 0.0
O108 O 0.76982 0.55134 0.77214 0.0
O109 O 0.73787 0.49347 0.73624 0.0
O110 O 0.89675 0.63975 0.73872 0.0
O111 O 0.83347 0.57731 0.71896 0.0
Co112 Co 0.22723 0.83813 0.12912 0.0
O113 O 0.16224 0.81431 0.11983 0.0
O114 O 0.19404 0.83766 0.16526 0.0
C115 C 0.25844 0.88951 0.09032 0.0
O116 O 0.29396 0.86713 0.14598 0.0
Co117 Co 0.28504 0.81491 0.08382 0.0
O118 O 0.3385 0.85945 0.11028 0.0
C119 C 0.2169 0.73796 0.12354 0.0
C120 C 0.15683 0.8208 0.14803 0.0
C121 C 0.33395 0.87505 0.13577 0.0
O122 O 0.21214 0.76996 0.13803 0.0
O123 O 0.24086 0.7475 0.09918 0.0
O124 O 0.24512 0.90243 0.11437 0.0
O125 O 0.2468 0.84437 0.08904 0.0
Co126 Co 0.39212 0.2551 0.49859 0.0
O127 O 0.33931 0.25747 0.4825 0.0
O128 O 0.4126 0.2984 0.4645 0.0
C129 C 0.35408 0.17369 0.50259 0.0
O130 O 0.45479 0.25969 0.50717 0.0
Co131 Co 0.39285 0.22078 0.56211 0.0
O132 O 0.44944 0.21882 0.54939 0.0
C133 C 0.41006 0.31895 0.55432 0.0
C134 C 0.36872 0.28706 0.46243 0.0
C135 C 0.47136 0.24118 0.5256 0.0
O136 O 0.4074 0.31123 0.52585 0.0
O137 O 0.40418 0.28688 0.57379 0.0
O138 O 0.37256 0.19549 0.47727 0.0
O139 O 0.35578 0.20138 0.52466 0.0
Co140 Co 0.15582 0.38999 0.76 0.0
O141 O 0.18362 0.35152 0.75136 0.0
O142 O 0.15173 0.35236 0.79521 0.0
C143 C 0.11359 0.37265 0.71757 0.0
O144 O 0.12181 0.42369 0.77601 0.0
Co145 Co 0.18187 0.47874 0.7187 0.0
O146 O 0.13458 0.48363 0.74365 0.0
C147 C 0.25196 0.48319 0.76103 0.0
C148 C 0.17294 0.33552 0.77877 0.0
C149 C 0.11525 0.45813 0.76716 0.0
O150 O 0.21903 0.44476 0.77399 0.0
O151 O 0.24557 0.50002 0.73649 0.0
O152 O 0.09767 0.34244 0.74009 0.0
O153 O 0.15629 0.40912 0.7202 0.0
Co154 Co 0.75818 0.15629 0.12641 0.0
O155 O 0.82233 0.17683 0.11677 0.0
O156 O 0.79066 0.1547 0.16234 0.0
C157 C 0.72485 0.10555 0.08755 0.0
O158 O 0.69218 0.13055 0.1437 0.0
Co159 Co 0.70319 0.18419 0.08211 0.0
O160 O 0.64911 0.14244 0.10897 0.0
C161 C 0.77439 0.25899 0.12147 0.0
C162 C 0.82753 0.17004 0.14495 0.0
C163 C 0.65302 0.12562 0.13415 0.0
O164 O 0.77708 0.22547 0.13559 0.0
O165 O 0.75013 0.25093 0.09738 0.0
O166 O 0.73695 0.09136 0.11158 0.0
O167 O 0.73858 0.15131 0.08632 0.0
H168 H 0.2101 0.65623 0.09849 0.0
H169 H 0.21305 0.55106 0.2575 0.0
H170 H 0.18378 0.71 0.18103 0.0
H171 H 0.19816 0.47298 0.17493 0.0
H172 H 0.19393 0.60471 0.23 0.0
H173 H 0.19664 0.58372 0.12539 0.0
C174 C 0.2007 0.65245 0.12214 0.0
C175 C 0.19917 0.68982 0.13767 0.0
C176 C 0.19408 0.57536 0.21797 0.0
C177 C 0.18433 0.60723 0.16865 0.0
C178 C 0.20524 0.54486 0.23364 0.0
C179 C 0.20813 0.50811 0.21837 0.0
C180 C 0.1866 0.56963 0.1867 0.0
C181 C 0.19688 0.50122 0.18755 0.0
C182 C 0.19293 0.61096 0.13748 0.0
C183 C 0.18608 0.68252 0.16821 0.0
N184 N 0.18748 0.53233 0.1726 0.0
N185 N 0.18013 0.64253 0.18284 0.0
H186 H 0.69586 0.23094 0.43299 0.0
H187 H 0.53065 0.22994 0.56367 0.0
H188 H 0.7413 0.26008 0.52584 0.0
H189 H 0.51557 0.26073 0.47093 0.0
H190 H 0.60433 0.23316 0.55033 0.0
H191 H 0.62539 0.23396 0.4465 0.0
C192 C 0.69108 0.23809 0.45618 0.0
C193 C 0.72449 0.2453 0.47832 0.0
C194 C 0.58497 0.23951 0.533 0.0
C195 C 0.64388 0.24828 0.49392 0.0
C196 C 0.54289 0.23751 0.54055 0.0
C197 C 0.51695 0.24509 0.51838 0.0
C198 C 0.60072 0.24828 0.50299 0.0
C199 C 0.53454 0.2549 0.48878 0.0
C200 C 0.65099 0.23999 0.46384 0.0
C201 C 0.71657 0.25457 0.50802 0.0
N202 N 0.57513 0.25579 0.48189 0.0
N203 N 0.67684 0.25538 0.51502 0.0
H204 H 0.52538 0.71791 0.81264 0.0
H205 H 0.27492 0.47134 0.8185 0.0
H206 H 0.44641 0.65392 0.89444 0.0
H207 H 0.33465 0.55884 0.73846 0.0
H208 H 0.34836 0.52511 0.84541 0.0
H209 H 0.4668 0.64637 0.7847 0.0
C210 C 0.49631 0.68844 0.82487 0.0
C211 C 0.49015 0.69242 0.85583 0.0
C212 C 0.34553 0.53207 0.82185 0.0
C213 C 0.42315 0.61073 0.82396 0.0
C214 C 0.30365 0.50142 0.80643 0.0
C215 C 0.29822 0.51125 0.77633 0.0
C216 C 0.38228 0.57259 0.80701 0.0
C217 C 0.3369 0.55045 0.76181 0.0
C218 C 0.46281 0.64772 0.80885 0.0
C219 C 0.452 0.65286 0.87048 0.0
N220 N 0.37714 0.58001 0.77739 0.0
N221 N 0.41957 0.61391 0.85433 0.0
H222 H 0.79015 0.44315 0.25945 0.0
H223 H 0.78275 0.34259 0.09822 0.0
H224 H 0.80255 0.52459 0.17887 0.0
H225 H 0.81331 0.2858 0.1778 0.0
H226 H 0.80133 0.41578 0.12635 0.0
H227 H 0.80996 0.39172 0.23001 0.0
C228 C 0.79779 0.45072 0.23566 0.0
C229 C 0.79355 0.48744 0.22146 0.0
C230 C 0.8049 0.38773 0.13748 0.0
C231 C 0.81561 0.42833 0.18755 0.0
C232 C 0.79416 0.34582 0.12143 0.0
C233 C 0.79519 0.30737 0.13588 0.0
C234 C 0.81595 0.39079 0.16829 0.0
C235 C 0.81108 0.31405 0.16586 0.0
C236 C 0.80928 0.42144 0.21885 0.0
C237 C 0.8047 0.49619 0.19068 0.0
N238 N 0.81981 0.35445 0.18126 0.0
N239 N 0.81416 0.46609 0.1746 0.0
H240 H 0.49103 0.80594 0.55825 0.0
H241 H 0.30958 0.80936 0.44031 0.0
H242 H 0.49285 0.77873 0.46307 0.0
H243 H 0.27714 0.77568 0.53468 0.0
H244 H 0.3871 0.81838 0.44887 0.0
H245 H 0.42241 0.81501 0.55006 0.0
C246 C 0.47738 0.80247 0.53559 0.0
C247 C 0.49726 0.791 0.51134 0.0
C248 C 0.36306 0.80941 0.4677 0.0
C249 C 0.41932 0.80165 0.50189 0.0
C250 C 0.31896 0.80444 0.46288 0.0
C251 C 0.28668 0.79117 0.48676 0.0
C252 C 0.37514 0.80173 0.49664 0.0
C253 C 0.30072 0.78528 0.51556 0.0
C254 C 0.43818 0.80746 0.53099 0.0
C255 C 0.47817 0.78691 0.48246 0.0
N256 N 0.34391 0.79048 0.51969 0.0
N257 N 0.44015 0.79212 0.47854 0.0
H258 H 0.55659 0.34964 0.90159 0.0
H259 H 0.64716 0.4449 0.73885 0.0
H260 H 0.46952 0.28841 0.82232 0.0
H261 H 0.71789 0.52771 0.81866 0.0
H262 H 0.57648 0.39441 0.76888 0.0
H263 H 0.61031 0.42191 0.87248 0.0
C264 C 0.54831 0.35169 0.8782 0.0
C265 C 0.50919 0.31229 0.86417 0.0
C266 C 0.60713 0.42421 0.77975 0.0
C267 C 0.57081 0.39468 0.83066 0.0
C268 C 0.64758 0.45296 0.7626 0.0
C269 C 0.68887 0.48976 0.77642 0.0
C270 C 0.60832 0.43173 0.811 0.0
C271 C 0.68709 0.49919 0.80715 0.0
C272 C 0.57896 0.39308 0.8616 0.0
C273 C 0.49976 0.31745 0.83396 0.0
N274 N 0.64781 0.46962 0.82357 0.0
N275 N 0.53094 0.3574 0.81804 0.0
H276 H 0.57266 0.42975 0.2207 0.0
H277 H 0.41594 0.54357 0.21291 0.0
H278 H 0.62972 0.58095 0.1984 0.0
H279 H 0.35767 0.38909 0.20318 0.0
H280 H 0.49354 0.55771 0.19863 0.0
H281 H 0.49428 0.4124 0.20552 0.0
C282 C 0.56881 0.45909 0.21187 0.0
C283 C 0.60746 0.507 0.21131 0.0
C284 C 0.46367 0.52074 0.19878 0.0
C285 C 0.51771 0.48769 0.19461 0.0
C286 C 0.41937 0.5127 0.20696 0.0
C287 C 0.3807 0.46509 0.20962 0.0
C288 C 0.46959 0.48078 0.19417 0.0
C289 C 0.38678 0.42634 0.2015 0.0
C290 C 0.52405 0.44917 0.20314 0.0
C291 C 0.60073 0.54357 0.19938 0.0
N292 N 0.43078 0.43494 0.19492 0.0
N293 N 0.5564 0.5334 0.19225 0.0
H294 H 0.04046 0.62646 0.406 0.0
H295 H 0.99536 0.36854 0.46015 0.0
H296 H 0.12857 0.60352 0.46745 0.0
H297 H 0.89852 0.38229 0.40158 0.0
H298 H 0.05278 0.45471 0.45338 0.0
H299 H -0.00413 0.53833 0.39515 0.0
C300 C 0.05107 0.60306 0.4166 0.0
C301 C 0.08772 0.62193 0.43793 0.0
C302 C 0.01935 0.43907 0.44154 0.0
C303 C 0.03736 0.52195 0.42579 0.0
C304 C 0.98669 0.38976 0.44532 0.0
C305 C 0.94227 0.36859 0.4315 0.0
C306 C 0.00713 0.46799 0.42446 0.0
C307 C 0.93262 0.3975 0.41251 0.0
C308 C 0.02556 0.55287 0.41054 0.0
C309 C 0.10005 0.59026 0.4512 0.0
N310 N 0.96449 0.44616 0.41 0.0
N311 N 0.07476 0.54198 0.4451 0.0
H312 H 0.40935 0.0455 0.84008 0.0
H313 H 0.60221 0.96531 0.84034 0.0
H314 H 0.55557 0.13903 0.86531 0.0
H315 H 0.45323 0.86813 0.85645 0.0
H316 H 0.58622 0.0304 0.8282 0.0
H317 H 0.42719 0.98286 0.82492 0.0
C318 C 0.44548 0.05344 0.84148 0.0
C319 C 0.48093 0.09704 0.85441 0.0
C320 C 0.55694 0.99438 0.83352 0.0
C321 C 0.50144 0.02603 0.83713 0.0
C322 C 0.56598 0.95723 0.84023 0.0
C323 C 0.52899 0.91168 0.84977 0.0
C324 C 0.5106 0.98543 0.83604 0.0
C325 C 0.48273 0.90308 0.84956 0.0
C326 C 0.45555 0.01766 0.83299 0.0
C327 C 0.52711 0.10548 0.8559 0.0
N328 N 0.47487 0.93982 0.84319 0.0
N329 N 0.53596 0.07004 0.84772 0.0
H330 H 0.46646 0.60546 0.52976 0.0
H331 H 0.4737 0.3785 0.59748 0.0
H332 H 0.57928 0.6228 0.58755 0.0
H333 H 0.37382 0.37118 0.5318 0.0
H334 H 0.50365 0.46618 0.60384 0.0
H335 H 0.42274 0.51873 0.54056 0.0
C336 C 0.48172 0.59088 0.54511 0.0
C337 C 0.52669 0.62104 0.5575 0.0
C338 C 0.4745 0.44505 0.58855 0.0
C339 C 0.47734 0.52115 0.56944 0.0
C340 C 0.45722 0.39508 0.5851 0.0
C341 C 0.42156 0.36793 0.56392 0.0
C342 C 0.45549 0.4674 0.57086 0.0
C343 C 0.40167 0.391 0.54817 0.0
C344 C 0.45679 0.54128 0.55126 0.0
C345 C 0.54467 0.60053 0.57752 0.0
N346 N 0.41912 0.43932 0.55178 0.0
N347 N 0.52028 0.55147 0.58245 0.0
H348 H 0.94683 0.58458 0.79647 0.0
H349 H 0.03016 0.39062 0.79164 0.0
H350 H 0.85641 0.43315 0.77316 0.0
H351 H 0.12166 0.54499 0.77762 0.0
H352 H 0.96584 0.4046 0.80544 0.0
H353 H 0.00927 0.56793 0.81029 0.0
C354 C 0.93957 0.54756 0.7952 0.0
C355 C 0.89681 0.51033 0.78313 0.0
C356 C 0.00043 0.43548 0.80015 0.0
C357 C 0.96779 0.49119 0.79877 0.0
C358 C 0.03713 0.42756 0.79246 0.0
C359 C 0.08086 0.46667 0.78303 0.0
C360 C 0.00798 0.48283 0.7987 0.0
C361 C 0.0881 0.51381 0.78431 0.0
C362 C 0.97527 0.53816 0.80292 0.0
C363 C 0.88928 0.46304 0.78186 0.0
N364 N 0.05184 0.52055 0.7916 0.0
N365 N 0.92468 0.45491 0.78917 0.0
H366 H 0.35432 0.95509 0.16963 0.0
H367 H 0.57889 0.13963 0.14139 0.0
H368 H 0.4139 0.87018 0.1387 0.0
H369 H 0.6264 0.04062 0.1638 0.0
H370 H 0.49897 0.0783 0.15669 0.0
H371 H 0.43383 0.02021 0.1844 0.0
C372 C 0.38393 0.94961 0.16676 0.0
C373 C 0.3779 0.90782 0.15231 0.0
C374 C 0.52703 0.07047 0.15952 0.0
C375 C 0.46851 0.98213 0.16838 0.0
C376 C 0.57266 0.10544 0.15055 0.0
C377 C 0.60902 0.09488 0.15113 0.0
C378 C 0.51753 0.02416 0.16841 0.0
C379 C 0.59924 0.05009 0.16306 0.0
C380 C 0.42931 0.98697 0.17484 0.0
C381 C 0.41732 0.90239 0.14918 0.0
N382 N 0.55402 0.01572 0.17037 0.0
N383 N 0.46108 0.93944 0.15675 0.0
H384 H 0.31815 0.43798 0.31749 0.0
H385 H 0.27963 0.24341 0.44001 0.0
H386 H 0.23811 0.28388 0.29871 0.0
H387 H 0.41996 0.36773 0.42708 0.0
H388 H 0.25333 0.26658 0.39481 0.0
H389 H 0.34713 0.42077 0.36435 0.0
C390 C 0.30675 0.40067 0.32328 0.0
C391 C 0.27585 0.36219 0.30443 0.0
C392 C 0.28976 0.2889 0.4021 0.0
C393 C 0.30747 0.34258 0.35763 0.0
C394 C 0.30471 0.27598 0.42788 0.0
C395 C 0.35203 0.30366 0.43705 0.0
C396 C 0.3221 0.33033 0.38587 0.0
C397 C 0.38323 0.34536 0.42049 0.0
C398 C 0.32331 0.391 0.34979 0.0
C399 C 0.26211 0.31448 0.31266 0.0
N400 N 0.36764 0.35769 0.39559 0.0
N401 N 0.27757 0.30592 0.33892 0.0
H402 H 0.96236 0.24508 0.55462 0.0
H403 H 0.11844 0.43959 0.67716 0.0
H404 H 0.94512 0.36857 0.56859 0.0
H405 H 0.04599 0.28543 0.6956 0.0
H406 H 0.07197 0.42223 0.63043 0.0
H407 H 0.01254 0.26839 0.59947 0.0
C408 C 0.96972 0.2775 0.56689 0.0
C409 C 0.94953 0.3049 0.55813 0.0
C410 C 0.06645 0.39247 0.64487 0.0
C411 C 0.00695 0.33174 0.60891 0.0
C412 C 0.09285 0.40222 0.6713 0.0
C413 C 0.08576 0.36377 0.69004 0.0
C414 C 0.0342 0.34401 0.63699 0.0
C415 C 0.0522 0.316 0.68173 0.0
C416 C -0.00199 0.2905 0.59248 0.0
C417 C 0.9599 0.34641 0.57487 0.0
N418 N 0.02798 0.30737 0.65555 0.0
N419 N 0.98823 0.35883 0.59956 0.0
H420 H 0.57576 0.85886 0.96524 0.0
H421 H 0.6757 0.00683 0.08995 0.0
H422 H 0.6861 0.9832 0.91773 0.0
H423 H 0.71613 0.12727 0.02923 0.0
H424 H 0.64143 0.95069 0.04772 0.0
H425 H 0.58859 0.91091 0.00887 0.0
C426 C 0.60269 0.89711 0.96403 0.0
C427 C 0.63066 0.91667 0.93818 0.0
C428 C 0.65656 0.98923 0.04367 0.0
C429 C 0.64592 0.976 0.9879 0.0
C430 C 0.67661 0.02133 0.06773 0.0
C431 C 0.69905 0.07163 0.06289 0.0
C432 C 0.65944 0.00773 0.01456 0.0
C433 C 0.69918 0.08864 0.03378 0.0
C434 C 0.61018 0.92667 0.98897 0.0
C435 C 0.66442 0.96656 0.9375 0.0
N436 N 0.68042 0.05669 0.01051 0.0
N437 N 0.67128 0.99456 0.96212 0.0
H438 H 0.54168 0.65377 0.40093 0.0
H439 H 0.66883 0.65059 0.27845 0.0
H440 H 0.65316 0.65095 0.45032 0.0
H441 H 0.7078 0.56591 0.33389 0.0
H442 H 0.62418 0.65594 0.32064 0.0
H443 H 0.5626 0.62376 0.35631 0.0
C444 C 0.57003 0.64609 0.40251 0.0
C445 C 0.59645 0.65577 0.42909 0.0
C446 C 0.64144 0.63511 0.32338 0.0
C447 C 0.62098 0.62255 0.37827 0.0
C448 C 0.66747 0.63264 0.29945 0.0
C449 C 0.6923 0.60819 0.30291 0.0
C450 C 0.64084 0.61348 0.35104 0.0
C451 C 0.6892 0.58527 0.33044 0.0
C452 C 0.58225 0.6295 0.37699 0.0
C453 C 0.63253 0.6448 0.43005 0.0
N454 N 0.66466 0.58929 0.35374 0.0
N455 N 0.64403 0.62911 0.40487 0.0
H456 H 0.98731 0.64056 0.54055 0.0
H457 H 0.97376 0.64898 0.71531 0.0
H458 H 0.10234 0.65956 0.59693 0.0
H459 H 0.84772 0.56549 0.6618 0.0
H460 H 0.0216 0.65209 0.67228 0.0
H461 H 0.93449 0.60997 0.58412 0.0
C462 C 0.00116 0.63736 0.56202 0.0
C463 C 0.04923 0.6531 0.56537 0.0
C464 C 0.98344 0.63249 0.67009 0.0
C465 C 0.98955 0.61933 0.61522 0.0
C466 C 0.95621 0.63111 0.6945 0.0
C467 C 0.90692 0.60763 0.69179 0.0
C468 C 0.96118 0.61115 0.64267 0.0
C469 C 0.88575 0.58436 0.6646 0.0
C470 C 0.97104 0.61984 0.58683 0.0
C471 C 0.06547 0.64796 0.59352 0.0
N472 N 0.91311 0.58744 0.64082 0.0
N473 N 0.03586 0.6325 0.61762 0.0
H474 H 0.30315 0.98823 0.0934 0.0
H475 H 0.42071 0.14118 0.97315 0.0
H476 H 0.27623 0.87058 0.0334 0.0
H477 H 0.32196 0.01634 0.92061 0.0
H478 H 0.40205 0.08829 0.01719 0.0
H479 H 0.34316 0.04598 0.05254 0.0
C480 C 0.30625 0.97467 0.07167 0.0
C481 C 0.28604 0.92466 0.06656 0.0
C482 C 0.38434 0.07259 0.99605 0.0
C483 C 0.33244 0.99043 0.01992 0.0
C484 C 0.39524 0.10263 0.97091 0.0
C485 C 0.372 0.08313 0.9435 0.0
C486 C 0.35002 0.0229 0.99357 0.0
C487 C 0.33993 0.0329 0.94155 0.0
C488 C 0.32965 0.00772 0.04845 0.0
C489 C 0.29121 0.90892 0.03813 0.0
N490 N 0.32967 0.00448 0.96635 0.0
N491 N 0.31326 0.94173 0.01564 0.0
H492 H 0.85509 0.17304 0.20369 0.0
H493 H 0.12878 0.30061 0.1594 0.0
H494 H 0.90658 0.19504 0.11216 0.0
H495 H 0.07741 0.28539 0.25062 0.0
H496 H 0.04688 0.2507 0.14193 0.0
H497 H 0.9357 0.20281 0.22169 0.0
C498 C 0.88322 0.18357 0.18741 0.0
C499 C 0.87433 0.18224 0.15645 0.0
C500 C 0.05362 0.25791 0.16581 0.0
C501 C 0.9664 0.2165 0.17673 0.0
C502 C 0.10034 0.2863 0.17575 0.0
C503 C 0.10976 0.29769 0.2064 0.0
C504 C 0.01632 0.24096 0.18672 0.0
C505 C 0.07166 0.27806 0.2267 0.0
C506 C 0.92922 0.20064 0.19765 0.0
C507 C 0.912 0.19609 0.13628 0.0
N508 N 0.02662 0.25103 0.21647 0.0
N509 N 0.95645 0.21308 0.14678 0.0
H510 H 0.80636 0.11639 0.44448 0.0
H511 H 0.67348 0.86885 0.54069 0.0
H512 H 0.77119 0.11072 0.5387 0.0
H513 H 0.68611 0.87354 0.44379 0.0
H514 H 0.71686 0.95833 0.54144 0.0
H515 H 0.76816 0.02741 0.44443 0.0
C516 C 0.79043 0.09645 0.46507 0.0
C517 C 0.79188 0.12096 0.49157 0.0
C518 C 0.7103 0.93965 0.52005 0.0
C519 C 0.74875 0.0195 0.49187 0.0
C520 C 0.68588 0.8887 0.51968 0.0
C521 C 0.67604 0.8639 0.49217 0.0
C522 C 0.72513 0.96567 0.49272 0.0
C523 C 0.69263 0.89127 0.46551 0.0
C524 C 0.76878 0.04573 0.46509 0.0
C525 C 0.77084 0.09333 0.5177 0.0
N526 N 0.71622 0.94059 0.46645 0.0
N527 N 0.7503 0.04416 0.51721 0.0
H528 H 0.83095 0.69131 0.83349 0.0
H529 H 0.69011 0.82626 0.79292 0.0
H530 H 0.79744 0.71211 0.74273 0.0
H531 H 0.7145 0.795 0.88352 0.0
H532 H 0.74094 0.79693 0.77392 0.0
H533 H 0.80057 0.74208 0.85205 0.0
C534 C 0.81789 0.70716 0.81745 0.0
C535 C 0.81606 0.69694 0.78661 0.0
C536 C 0.73552 0.79699 0.79798 0.0
C537 C 0.78088 0.75455 0.80759 0.0
C538 C 0.70658 0.81378 0.8088 0.0
C539 C 0.69757 0.81238 0.83977 0.0
C540 C 0.75549 0.77878 0.81833 0.0
C541 C 0.71996 0.79607 0.85941 0.0
C542 C 0.80039 0.73599 0.82803 0.0
C543 C 0.79893 0.71855 0.76677 0.0
N544 N 0.74753 0.77954 0.84835 0.0
N545 N 0.78152 0.74588 0.77763 0.0
H546 H 0.85543 0.6879 0.16286 0.0
H547 H 0.12946 0.81923 0.20674 0.0
H548 H 0.907 0.71022 0.25436 0.0
H549 H 0.07696 0.79252 0.11537 0.0
H550 H 0.04891 0.78996 0.2248 0.0
H551 H 0.93711 0.73742 0.14511 0.0
C552 C 0.88386 0.70384 0.17922 0.0
C553 C 0.87453 0.69441 0.21006 0.0
C554 C 0.05516 0.79096 0.20078 0.0
C555 C 0.9679 0.75051 0.19002 0.0
C556 C 0.1011 0.80766 0.1905 0.0
C557 C 0.10975 0.80767 0.15958 0.0
C558 C 0.01777 0.77417 0.17994 0.0
C559 C 0.0718 0.79255 0.13947 0.0
C560 C 0.93049 0.73194 0.1691 0.0
C561 C 0.91266 0.71606 0.23032 0.0
N562 N 0.02745 0.77605 0.15 0.0
N563 N 0.9577 0.74264 0.21993 0.0
H564 H 0.17622 0.8716 0.55348 0.0
H565 H 0.33946 0.11054 0.45708 0.0
H566 H 0.19186 0.86974 0.45703 0.0
H567 H 0.30286 0.11445 0.55004 0.0
H568 H 0.28798 0.02237 0.45714 0.0
H569 H 0.22312 0.96018 0.5528 0.0
C570 C 0.18924 0.88995 0.53205 0.0
C571 C 0.18032 0.86333 0.50524 0.0
C572 C 0.29111 0.04241 0.47753 0.0
C573 C 0.23468 0.96497 0.50441 0.0
C574 C 0.32075 0.09282 0.47762 0.0
C575 C 0.32547 0.11997 0.50365 0.0
C576 C 0.26611 0.01868 0.50373 0.0
C577 C 0.30031 0.09495 0.52952 0.0
C578 C 0.21606 0.94057 0.53173 0.0
C579 C 0.19783 0.88894 0.47817 0.0
N580 N 0.27171 0.04563 0.52891 0.0
N581 N 0.22463 0.93846 0.47847 0.0
H582 H 0.16936 0.30559 0.83721 0.0
H583 H 0.31493 0.17484 0.79862 0.0
H584 H 0.20831 0.28849 0.74715 0.0
H585 H 0.28666 0.20307 0.88902 0.0
H586 H 0.26471 0.20445 0.77907 0.0
H587 H 0.20106 0.25626 0.85638 0.0
C588 C 0.18407 0.291 0.82147 0.0
C589 C 0.18683 0.30165 0.79064 0.0
C590 C 0.26915 0.20369 0.8032 0.0
C591 C 0.22321 0.24553 0.81229 0.0
C592 C 0.2977 0.18669 0.81434 0.0
C593 C 0.30544 0.18715 0.84541 0.0
C594 C 0.24832 0.22122 0.82334 0.0
C595 C 0.28214 0.20269 0.86483 0.0
C596 C 0.20223 0.26295 0.83239 0.0
C597 C 0.20605 0.28169 0.77117 0.0
N598 N 0.25498 0.21952 0.85346 0.0
N599 N 0.22385 0.25495 0.78234 0.0
loop_
_geom_bond_atom_site_label_1
_geom_bond_atom_site_label_2
_geom_bond_distance
_geom_bond_site_symmetry_2
_ccdc_geom_bond_type
Co0 O1 2.216 . S
Co0 O2 2.091 . S
Co0 O4 2.004 . S
Co0 O10 2.021 . S
Co0 O12 2.137 . S
Co0 O13 2.244 . S
O1 Co0 2.216 . S
O1 C8 1.247 . S
O2 Co0 2.091 . S
O2 C8 1.261 . S
C3 O12 1.247 . S
C3 O13 1.272 . S
O4 Co0 2.004 . S
O4 C9 1.259 . S
Co5 O6 2.061 . S
Co5 O11 2.052 . S
Co5 O13 2.135 . S
O6 Co5 2.061 . S
O6 C9 1.235 . S
C7 O10 1.238 . S
C7 O11 1.241 . S
C8 O1 1.247 . S
C8 O2 1.261 . S
C9 O4 1.259 . S
C9 O6 1.235 . S
O10 Co0 2.021 . S
O10 C7 1.238 . S
O11 Co5 2.052 . S
O11 C7 1.241 . S
O12 Co0 2.137 . S
O12 C3 1.247 . S
O13 Co0 2.244 . S
O13 C3 1.272 . S
O13 Co5 2.135 . S
Co14 O15 2.216 . S
Co14 O16 2.091 . S
Co14 O18 2.004 . S
Co14 O24 2.021 . S
Co14 O26 2.137 . S
Co14 O27 2.244 . S
O15 Co14 2.216 . S
O15 C22 1.247 . S
O16 Co14 2.091 . S
O16 C22 1.261 . S
C17 O26 1.247 . S
C17 O27 1.272 . S
O18 Co14 2.004 . S
O18 C23 1.259 . S
Co19 O20 2.061 . S
Co19 O25 2.052 . S
Co19 O27 2.135 . S
O20 Co19 2.061 . S
O20 C23 1.235 . S
C21 O24 1.238 . S
C21 O25 1.241 . S
C22 O15 1.247 . S
C22 O16 1.261 . S
C23 O18 1.259 . S
C23 O20 1.235 . S
O24 Co14 2.021 . S
O24 C21 1.238 . S
O25 Co19 2.052 . S
O25 C21 1.241 . S
O26 Co14 2.137 . S
O26 C17 1.247 . S
O27 Co14 2.244 . S
O27 C17 1.272 . S
O27 Co19 2.135 . S
Co28 O29 2.216 . S
Co28 O30 2.091 . S
Co28 O32 2.004 . S
Co28 O38 2.021 . S
Co28 O40 2.137 . S
Co28 O41 2.244 . S
O29 Co28 2.216 . S
O29 C36 1.247 . S
O30 Co28 2.091 . S
O30 C36 1.261 . S
C31 O40 1.247 . S
C31 O41 1.272 . S
O32 Co28 2.004 . S
O32 C37 1.259 . S
Co33 O34 2.061 . S
Co33 O39 2.052 . S
Co33 O41 2.135 . S
O34 Co33 2.061 . S
O34 C37 1.235 . S
C35 O38 1.238 . S
C35 O39 1.241 . S
C36 O29 1.247 . S
C36 O30 1.261 . S
C37 O32 1.259 . S
C37 O34 1.235 . S
O38 Co28 2.021 . S
O38 C35 1.238 . S
O39 Co33 2.052 . S
O39 C35 1.241 . S
O40 Co28 2.137 . S
O40 C31 1.247 . S
O41 Co28 2.244 . S
O41 C31 1.272 . S
O41 Co33 2.135 . S
Co42 O43 2.216 . S
Co42 O44 2.091 . S
Co42 O46 2.004 . S
Co42 O52 2.021 . S
Co42 O54 2.137 . S
Co42 O55 2.244 . S
O43 Co42 2.216 . S
O43 C50 1.247 . S
O44 Co42 2.091 . S
O44 C50 1.261 . S
C45 O54 1.247 . S
C45 O55 1.272 . S
O46 Co42 2.004 . S
O46 C51 1.259 . S
Co47 O48 2.061 . S
Co47 O53 2.052 . S
Co47 O55 2.135 . S
O48 Co47 2.061 . S
O48 C51 1.235 . S
C49 O52 1.238 . S
C49 O53 1.241 . S
C50 O43 1.247 . S
C50 O44 1.261 . S
C51 O46 1.259 . S
C51 O48 1.235 . S
O52 Co42 2.021 . S
O52 C49 1.238 . S
O53 Co47 2.052 . S
O53 C49 1.241 . S
O54 Co42 2.137 . S
O54 C45 1.247 . S
O55 Co42 2.244 . S
O55 C45 1.272 . S
O55 Co47 2.135 . S
Co56 O57 2.216 . S
Co56 O58 2.091 . S
Co56 O60 2.004 . S
Co56 O66 2.021 . S
Co56 O68 2.137 . S
Co56 O69 2.244 . S
O57 Co56 2.216 . S
O57 C64 1.247 . S
O58 Co56 2.091 . S
O58 C64 1.261 . S
C59 O68 1.247 . S
C59 O69 1.272 . S
O60 Co56 2.004 . S
O60 C65 1.259 . S
Co61 O62 2.061 . S
Co61 O67 2.052 . S
Co61 O69 2.135 . S
O62 Co61 2.061 . S
O62 C65 1.235 . S
C63 O66 1.238 . S
C63 O67 1.241 . S
C64 O57 1.247 . S
C64 O58 1.261 . S
C65 O60 1.259 . S
C65 O62 1.235 . S
O66 Co56 2.021 . S
O66 C63 1.238 . S
O67 Co61 2.052 . S
O67 C63 1.241 . S
O68 Co56 2.137 . S
O68 C59 1.247 . S
O69 Co56 2.244 . S
O69 C59 1.272 . S
O69 Co61 2.135 . S
Co70 O71 2.216 . S
Co70 O72 2.091 . S
Co70 O74 2.004 . S
Co70 O80 2.021 . S
Co70 O82 2.137 . S
Co70 O83 2.244 . S
O71 Co70 2.216 . S
O71 C78 1.247 . S
O72 Co70 2.091 . S
O72 C78 1.261 . S
C73 O82 1.247 . S
C73 O83 1.272 . S
O74 Co70 2.004 . S
O74 C79 1.259 . S
Co75 O76 2.061 . S
Co75 O81 2.052 . S
Co75 O83 2.135 . S
O76 Co75 2.061 . S
O76 C79 1.235 . S
C77 O80 1.238 . S
C77 O81 1.241 . S
C78 O71 1.247 . S
C78 O72 1.261 . S
C79 O74 1.259 . S
C79 O76 1.235 . S
O80 Co70 2.021 . S
O80 C77 1.238 . S
O81 Co75 2.052 . S
O81 C77 1.241 . S
O82 Co70 2.137 . S
O82 C73 1.247 . S
O83 Co70 2.244 . S
O83 C73 1.272 . S
O83 Co75 2.135 . S
Co84 O85 2.216 . S
Co84 O86 2.091 . S
Co84 O88 2.004 . S
Co84 O94 2.021 . S
Co84 O96 2.137 . S
Co84 O97 2.244 . S
O85 Co84 2.216 . S
O85 C92 1.247 . S
O86 Co84 2.091 . S
O86 C92 1.261 . S
C87 O96 1.247 . S
C87 O97 1.272 . S
O88 Co84 2.004 . S
O88 C93 1.259 . S
Co89 O90 2.061 . S
Co89 O95 2.052 . S
Co89 O97 2.135 . S
O90 Co89 2.061 . S
O90 C93 1.235 . S
C91 O94 1.238 . S
C91 O95 1.241 . S
C92 O85 1.247 . S
C92 O86 1.261 . S
C93 O88 1.259 . S
C93 O90 1.235 . S
O94 Co84 2.021 . S
O94 C91 1.238 . S
O95 Co89 2.052 . S
O95 C91 1.241 . S
O96 Co84 2.137 . S
O96 C87 1.247 . S
O97 Co84 2.244 . S
O97 C87 1.272 . S
O97 Co89 2.135 . S
Co98 O99 2.216 . S
Co98 O100 2.091 . S
Co98 O102 2.004 . S
Co98 O108 2.021 . S
Co98 O110 2.137 . S
Co98 O111 2.244 . S
O99 Co98 2.216 . S
O99 C106 1.247 . S
O100 Co98 2.091 . S
O100 C106 1.261 . S
C101 O110 1.247 . S
C101 O111 1.272 . S
O102 Co98 2.004 . S
O102 C107 1.259 . S
Co103 O104 2.061 . S
Co103 O109 2.052 . S
Co103 O111 2.135 . S
O104 Co103 2.061 . S
O104 C107 1.235 . S
C105 O108 1.238 . S
C105 O109 1.241 . S
C106 O99 1.247 . S
C106 O100 1.261 . S
C107 O102 1.259 . S
C107 O104 1.235 . S
O108 Co98 2.021 . S
O108 C105 1.238 . S
O109 Co103 2.052 . S
O109 C105 1.241 . S
O110 Co98 2.137 . S
O110 C101 1.247 . S
O111 Co98 2.244 . S
O111 C101 1.272 . S
O111 Co103 2.135 . S
Co112 O113 2.216 . S
Co112 O114 2.091 . S
Co112 O116 2.004 . S
Co112 O122 2.021 . S
Co112 O124 2.137 . S
Co112 O125 2.244 . S
O113 Co112 2.216 . S
O113 C120 1.247 . S
O114 Co112 2.091 . S
O114 C120 1.261 . S
C115 O124 1.247 . S
C115 O125 1.272 . S
O116 Co112 2.004 . S
O116 C121 1.259 . S
Co117 O118 2.061 . S
Co117 O123 2.052 . S
Co117 O125 2.135 . S
O118 Co117 2.061 . S
O118 C121 1.235 . S
C119 O122 1.238 . S
C119 O123 1.241 . S
C120 O113 1.247 . S
C120 O114 1.261 . S
C121 O116 1.259 . S
C121 O118 1.235 . S
O122 Co112 2.021 . S
O122 C119 1.238 . S
O123 Co117 2.052 . S
O123 C119 1.241 . S
O124 Co112 2.137 . S
O124 C115 1.247 . S
O125 Co112 2.244 . S
O125 C115 1.272 . S
O125 Co117 2.135 . S
Co126 O127 2.216 . S
Co126 O128 2.091 . S
Co126 O130 2.004 . S
Co126 O136 2.021 . S
Co126 O138 2.137 . S
Co126 O139 2.244 . S
O127 Co126 2.216 . S
O127 C134 1.247 . S
O128 Co126 2.091 . S
O128 C134 1.261 . S
C129 O138 1.247 . S
C129 O139 1.272 . S
O130 Co126 2.004 . S
O130 C135 1.259 . S
Co131 O132 2.061 . S
Co131 O137 2.052 . S
Co131 O139 2.135 . S
O132 Co131 2.061 . S
O132 C135 1.235 . S
C133 O136 1.238 . S
C133 O137 1.241 . S
C134 O127 1.247 . S
C134 O128 1.261 . S
C135 O130 1.259 . S
C135 O132 1.235 . S
O136 Co126 2.021 . S
O136 C133 1.238 . S
O137 Co131 2.052 . S
O137 C133 1.241 . S
O138 Co126 2.137 . S
O138 C129 1.247 . S
O139 Co126 2.244 . S
O139 C129 1.272 . S
O139 Co131 2.135 . S
Co140 O141 2.216 . S
Co140 O142 2.091 . S
Co140 O144 2.004 . S
Co140 O150 2.021 . S
Co140 O152 2.137 . S
Co140 O153 2.244 . S
O141 Co140 2.216 . S
O141 C148 1.247 . S
O142 Co140 2.091 . S
O142 C148 1.261 . S
C143 O152 1.247 . S
C143 O153 1.272 . S
O144 Co140 2.004 . S
O144 C149 1.259 . S
Co145 O146 2.061 . S
Co145 O151 2.052 . S
Co145 O153 2.135 . S
O146 Co145 2.061 . S
O146 C149 1.235 . S
C147 O150 1.238 . S
C147 O151 1.241 . S
C148 O141 1.247 . S
C148 O142 1.261 . S
C149 O144 1.259 . S
C149 O146 1.235 . S
O150 Co140 2.021 . S
O150 C147 1.238 . S
O151 Co145 2.052 . S
O151 C147 1.241 . S
O152 Co140 2.137 . S
O152 C143 1.247 . S
O153 Co140 2.244 . S
O153 C143 1.272 . S
O153 Co145 2.135 . S
Co154 O155 2.216 . S
Co154 O156 2.091 . S
Co154 O158 2.004 . S
Co154 O164 2.021 . S
Co154 O166 2.137 . S
Co154 O167 2.244 . S
O155 Co154 2.216 . S
O155 C162 1.247 . S
O156 Co154 2.091 . S
O156 C162 1.261 . S
C157 O166 1.247 . S
C157 O167 1.272 . S
O158 Co154 2.004 . S
O158 C163 1.259 . S
Co159 O160 2.061 . S
Co159 O165 2.052 . S
Co159 O167 2.135 . S
O160 Co159 2.061 . S
O160 C163 1.235 . S
C161 O164 1.238 . S
C161 O165 1.241 . S
C162 O155 1.247 . S
C162 O156 1.261 . S
C163 O158 1.259 . S
C163 O160 1.235 . S
O164 Co154 2.021 . S
O164 C161 1.238 . S
O165 Co159 2.052 . S
O165 C161 1.241 . S
O166 Co154 2.137 . S
O166 C157 1.247 . S
O167 Co154 2.244 . S
O167 C157 1.272 . S
O167 Co159 2.135 . S
H168 C174 0.930 . S
H169 C178 0.930 . S
H170 C183 0.929 . S
H171 C181 0.929 . S
H172 C176 0.929 . S
H173 C182 0.929 . S
C174 H168 0.930 . S
C174 C175 1.367 . S
C174 C182 1.378 . S
C175 C174 1.367 . S
C175 C183 1.433 . S
C176 H172 0.929 . S
C176 C178 1.378 . S
C176 C180 1.350 . S
C177 C180 1.463 . S
C177 C182 1.350 . S
C177 N185 1.427 . S
C178 H169 0.930 . S
C178 C176 1.378 . S
C178 C179 1.367 . S
C179 C178 1.367 . S
C179 C181 1.433 . S
C180 C176 1.350 . S
C180 C177 1.463 . S
C180 N184 1.427 . S
C181 H171 0.929 . S
C181 C179 1.433 . S
C181 N184 1.384 . S
C182 H173 0.929 . S
C182 C174 1.378 . S
C182 C177 1.350 . S
C183 H170 0.929 . S
C183 C175 1.433 . S
C183 N185 1.384 . S
N184 C180 1.427 . S
N184 C181 1.384 . S
N185 C177 1.427 . S
N185 C183 1.384 . S
H186 C192 0.930 . S
H187 C196 0.930 . S
H188 C201 0.929 . S
H189 C199 0.929 . S
H190 C194 0.929 . S
H191 C200 0.929 . S
C192 H186 0.930 . S
C192 C193 1.367 . S
C192 C200 1.378 . S
C193 C192 1.367 . S
C193 C201 1.433 . S
C194 H190 0.929 . S
C194 C196 1.378 . S
C194 C198 1.350 . S
C195 C198 1.463 . S
C195 C200 1.350 . S
C195 N203 1.427 . S
C196 H187 0.930 . S
C196 C194 1.378 . S
C196 C197 1.367 . S
C197 C196 1.367 . S
C197 C199 1.433 . S
C198 C194 1.350 . S
C198 C195 1.463 . S
C198 N202 1.427 . S
C199 H189 0.929 . S
C199 C197 1.433 . S
C199 N202 1.384 . S
C200 H191 0.929 . S
C200 C192 1.378 . S
C200 C195 1.350 . S
C201 H188 0.929 . S
C201 C193 1.433 . S
C201 N203 1.384 . S
N202 C198 1.427 . S
N202 C199 1.384 . S
N203 C195 1.427 . S
N203 C201 1.384 . S
H204 C210 0.930 . S
H205 C214 0.930 . S
H206 C219 0.929 . S
H207 C217 0.929 . S
H208 C212 0.929 . S
H209 C218 0.929 . S
C210 H204 0.930 . S
C210 C211 1.367 . S
C210 C218 1.378 . S
C211 C210 1.367 . S
C211 C219 1.433 . S
C212 H208 0.929 . S
C212 C214 1.378 . S
C212 C216 1.350 . S
C213 C216 1.463 . S
C213 C218 1.350 . S
C213 N221 1.427 . S
C214 H205 0.930 . S
C214 C212 1.378 . S
C214 C215 1.367 . S
C215 C214 1.367 . S
C215 C217 1.433 . S
C216 C212 1.350 . S
C216 C213 1.463 . S
C216 N220 1.427 . S
C217 H207 0.929 . S
C217 C215 1.433 . S
C217 N220 1.384 . S
C218 H209 0.929 . S
C218 C210 1.378 . S
C218 C213 1.350 . S
C219 H206 0.929 . S
C219 C211 1.433 . S
C219 N221 1.384 . S
N220 C216 1.427 . S
N220 C217 1.384 . S
N221 C213 1.427 . S
N221 C219 1.384 . S
H222 C228 0.930 . S
H223 C232 0.930 . S
H224 C237 0.929 . S
H225 C235 0.929 . S
H226 C230 0.929 . S
H227 C236 0.929 . S
C228 H222 0.930 . S
C228 C229 1.367 . S
C228 C236 1.378 . S
C229 C228 1.367 . S
C229 C237 1.433 . S
C230 H226 0.929 . S
C230 C232 1.378 . S
C230 C234 1.350 . S
C231 C234 1.463 . S
C231 C236 1.350 . S
C231 N239 1.427 . S
C232 H223 0.930 . S
C232 C230 1.378 . S
C232 C233 1.367 . S
C233 C232 1.367 . S
C233 C235 1.433 . S
C234 C230 1.350 . S
C234 C231 1.463 . S
C234 N238 1.427 . S
C235 H225 0.929 . S
C235 C233 1.433 . S
C235 N238 1.384 . S
C236 H227 0.929 . S
C236 C228 1.378 . S
C236 C231 1.350 . S
C237 H224 0.929 . S
C237 C229 1.433 . S
C237 N239 1.384 . S
N238 C234 1.427 . S
N238 C235 1.384 . S
N239 C231 1.427 . S
N239 C237 1.384 . S
H240 C246 0.930 . S
H241 C250 0.930 . S
H242 C255 0.929 . S
H243 C253 0.929 . S
H244 C248 0.929 . S
H245 C254 0.929 . S
C246 H240 0.930 . S
C246 C247 1.367 . S
C246 C254 1.378 . S
C247 C246 1.367 . S
C247 C255 1.433 . S
C248 H244 0.929 . S
C248 C250 1.378 . S
C248 C252 1.350 . S
C249 C252 1.463 . S
C249 C254 1.350 . S
C249 N257 1.427 . S
C250 H241 0.930 . S
C250 C248 1.378 . S
C250 C251 1.367 . S
C251 C250 1.367 . S
C251 C253 1.433 . S
C252 C248 1.350 . S
C252 C249 1.463 . S
C252 N256 1.427 . S
C253 H243 0.929 . S
C253 C251 1.433 . S
C253 N256 1.384 . S
C254 H245 0.929 . S
C254 C246 1.378 . S
C254 C249 1.350 . S
C255 H242 0.929 . S
C255 C247 1.433 . S
C255 N257 1.384 . S
N256 C252 1.427 . S
N256 C253 1.384 . S
N257 C249 1.427 . S
N257 C255 1.384 . S
H258 C264 0.930 . S
H259 C268 0.930 . S
H260 C273 0.929 . S
H261 C271 0.929 . S
H262 C266 0.929 . S
H263 C272 0.929 . S
C264 H258 0.930 . S
C264 C265 1.367 . S
C264 C272 1.378 . S
C265 C264 1.367 . S
C265 C273 1.433 . S
C266 H262 0.929 . S
C266 C268 1.378 . S
C266 C270 1.350 . S
C267 C270 1.463 . S
C267 C272 1.350 . S
C267 N275 1.427 . S
C268 H259 0.930 . S
C268 C266 1.378 . S
C268 C269 1.367 . S
C269 C268 1.367 . S
C269 C271 1.433 . S
C270 C266 1.350 . S
C270 C267 1.463 . S
C270 N274 1.427 . S
C271 H261 0.929 . S
C271 C269 1.433 . S
C271 N274 1.384 . S
C272 H263 0.929 . S
C272 C264 1.378 . S
C272 C267 1.350 . S
C273 H260 0.929 . S
C273 C265 1.433 . S
C273 N275 1.384 . S
N274 C270 1.427 . S
N274 C271 1.384 . S
N275 C267 1.427 . S
N275 C273 1.384 . S
H276 C282 0.930 . S
H277 C286 0.930 . S
H278 C291 0.929 . S
H279 C289 0.929 . S
H280 C284 0.929 . S
H281 C290 0.929 . S
C282 H276 0.930 . S
C282 C283 1.367 . S
C282 C290 1.378 . S
C283 C282 1.367 . S
C283 C291 1.433 . S
C284 H280 0.929 . S
C284 C286 1.378 . S
C284 C288 1.350 . S
C285 C288 1.463 . S
C285 C290 1.350 . S
C285 N293 1.427 . S
C286 H277 0.930 . S
C286 C284 1.378 . S
C286 C287 1.367 . S
C287 C286 1.367 . S
C287 C289 1.433 . S
C288 C284 1.350 . S
C288 C285 1.463 . S
C288 N292 1.427 . S
C289 H279 0.929 . S
C289 C287 1.433 . S
C289 N292 1.384 . S
C290 H281 0.929 . S
C290 C282 1.378 . S
C290 C285 1.350 . S
C291 H278 0.929 . S
C291 C283 1.433 . S
C291 N293 1.384 . S
N292 C288 1.427 . S
N292 C289 1.384 . S
N293 C285 1.427 . S
N293 C291 1.384 . S
H294 C300 0.930 1_655 S
H295 C304 0.930 1_455 S
H296 C309 0.929 . S
H297 C307 0.929 . S
H298 C302 0.929 . S
H299 C308 0.929 . S
C300 H294 0.930 1_455 S
C300 C301 1.367 . S
C300 C308 1.378 1_455 S
C301 C300 1.367 . S
C301 C309 1.433 . S
C302 H298 0.929 . S
C302 C304 1.378 1_455 S
C302 C306 1.350 1_455 S
C303 C306 1.463 1_455 S
C303 C308 1.350 1_455 S
C303 N311 1.427 . S
C304 H295 0.930 1_655 S
C304 C302 1.378 1_655 S
C304 C305 1.367 . S
C305 C304 1.367 . S
C305 C307 1.433 . S
C306 C302 1.350 1_655 S
C306 C303 1.463 1_655 S
C306 N310 1.427 . S
C307 H297 0.929 . S
C307 C305 1.433 . S
C307 N310 1.384 . S
C308 H299 0.929 . S
C308 C300 1.378 1_655 S
C308 C303 1.350 1_655 S
C309 H296 0.929 . S
C309 C301 1.433 . S
C309 N311 1.384 . S
N310 C306 1.427 . S
N310 C307 1.384 . S
N311 C303 1.427 . S
N311 C309 1.384 . S
H312 C318 0.930 . S
H313 C322 0.930 . S
H314 C327 0.929 . S
H315 C325 0.929 . S
H316 C320 0.929 . S
H317 C326 0.929 . S
C318 H312 0.930 . S
C318 C319 1.367 . S
C318 C326 1.378 1_545 S
C319 C318 1.367 . S
C319 C327 1.433 . S
C320 H316 0.929 . S
C320 C322 1.378 1_545 S
C320 C324 1.350 1_545 S
C321 C324 1.463 1_545 S
C321 C326 1.350 1_545 S
C321 N329 1.427 . S
C322 H313 0.930 . S
C322 C320 1.378 1_565 S
C322 C323 1.367 . S
C323 C322 1.367 . S
C323 C325 1.433 . S
C324 C320 1.350 1_565 S
C324 C321 1.463 1_565 S
C324 N328 1.427 . S
C325 H315 0.929 . S
C325 C323 1.433 . S
C325 N328 1.384 . S
C326 H317 0.929 . S
C326 C318 1.378 1_565 S
C326 C321 1.350 1_565 S
C327 H314 0.929 . S
C327 C319 1.433 . S
C327 N329 1.384 . S
N328 C324 1.427 . S
N328 C325 1.384 . S
N329 C321 1.427 . S
N329 C327 1.384 . S
H330 C336 0.930 . S
H331 C340 0.930 . S
H332 C345 0.929 . S
H333 C343 0.929 . S
H334 C338 0.929 . S
H335 C344 0.929 . S
C336 H330 0.930 . S
C336 C337 1.367 . S
C336 C344 1.378 . S
C337 C336 1.367 . S
C337 C345 1.433 . S
C338 H334 0.929 . S
C338 C340 1.378 . S
C338 C342 1.350 . S
C339 C342 1.463 . S
C339 C344 1.350 . S
C339 N347 1.427 . S
C340 H331 0.930 . S
C340 C338 1.378 . S
C340 C341 1.367 . S
C341 C340 1.367 . S
C341 C343 1.433 . S
C342 C338 1.350 . S
C342 C339 1.463 . S
C342 N346 1.427 . S
C343 H333 0.929 . S
C343 C341 1.433 . S
C343 N346 1.384 . S
C344 H335 0.929 . S
C344 C336 1.378 . S
C344 C339 1.350 . S
C345 H332 0.929 . S
C345 C337 1.433 . S
C345 N347 1.384 . S
N346 C342 1.427 . S
N346 C343 1.384 . S
N347 C339 1.427 . S
N347 C345 1.384 . S
H348 C354 0.930 1_455 S
H349 C358 0.930 1_655 S
H350 C363 0.929 . S
H351 C361 0.929 . S
H352 C356 0.929 . S
H353 C362 0.929 . S
C354 H348 0.930 1_655 S
C354 C355 1.367 . S
C354 C362 1.378 1_655 S
C355 C354 1.367 . S
C355 C363 1.433 . S
C356 H352 0.929 . S
C356 C358 1.378 1_655 S
C356 C360 1.350 1_655 S
C357 C360 1.463 1_655 S
C357 C362 1.350 1_655 S
C357 N365 1.427 . S
C358 H349 0.930 1_455 S
C358 C356 1.378 1_455 S
C358 C359 1.367 . S
C359 C358 1.367 . S
C359 C361 1.433 . S
C360 C356 1.350 1_455 S
C360 C357 1.463 1_455 S
C360 N364 1.427 . S
C361 H351 0.929 . S
C361 C359 1.433 . S
C361 N364 1.384 . S
C362 H353 0.929 . S
C362 C354 1.378 1_455 S
C362 C357 1.350 1_455 S
C363 H350 0.929 . S
C363 C355 1.433 . S
C363 N365 1.384 . S
N364 C360 1.427 . S
N364 C361 1.384 . S
N365 C357 1.427 . S
N365 C363 1.384 . S
H366 C372 0.930 . S
H367 C376 0.930 . S
H368 C381 0.929 . S
H369 C379 0.929 . S
H370 C374 0.929 1_565 S
H371 C380 0.929 1_545 S
C372 H366 0.930 . S
C372 C373 1.367 . S
C372 C380 1.378 . S
C373 C372 1.367 . S
C373 C381 1.433 . S
C374 H370 0.929 1_545 S
C374 C376 1.378 . S
C374 C378 1.350 . S
C375 C378 1.463 1_565 S
C375 C380 1.350 . S
C375 N383 1.427 . S
C376 H367 0.930 . S
C376 C374 1.378 . S
C376 C377 1.367 . S
C377 C376 1.367 . S
C377 C379 1.433 . S
C378 C374 1.350 . S
C378 C375 1.463 1_545 S
C378 N382 1.427 . S
C379 H369 0.929 . S
C379 C377 1.433 . S
C379 N382 1.384 . S
C380 H371 0.929 1_565 S
C380 C372 1.378 . S
C380 C375 1.350 . S
C381 H368 0.929 . S
C381 C373 1.433 . S
C381 N383 1.384 . S
N382 C378 1.427 . S
N382 C379 1.384 . S
N383 C375 1.427 . S
N383 C381 1.384 . S
H384 C390 0.930 . S
H385 C394 0.930 . S
H386 C399 0.929 . S
H387 C397 0.929 . S
H388 C392 0.929 . S
H389 C398 0.929 . S
C390 H384 0.930 . S
C390 C391 1.367 . S
C390 C398 1.378 . S
C391 C390 1.367 . S
C391 C399 1.433 . S
C392 H388 0.929 . S
C392 C394 1.378 . S
C392 C396 1.350 . S
C393 C396 1.463 . S
C393 C398 1.350 . S
C393 N401 1.427 . S
C394 H385 0.930 . S
C394 C392 1.378 . S
C394 C395 1.367 . S
C395 C394 1.367 . S
C395 C397 1.433 . S
C396 C392 1.350 . S
C396 C393 1.463 . S
C396 N400 1.427 . S
C397 H387 0.929 . S
C397 C395 1.433 . S
C397 N400 1.384 . S
C398 H389 0.929 . S
C398 C390 1.378 . S
C398 C393 1.350 . S
C399 H386 0.929 . S
C399 C391 1.433 . S
C399 N401 1.384 . S
N400 C396 1.427 . S
N400 C397 1.384 . S
N401 C393 1.427 . S
N401 C399 1.384 . S
H402 C408 0.930 . S
H403 C412 0.930 . S
H404 C417 0.929 . S
H405 C415 0.929 . S
H406 C410 0.929 . S
H407 C416 0.929 . S
C408 H402 0.930 . S
C408 C409 1.367 . S
C408 C416 1.378 . S
C409 C408 1.367 . S
C409 C417 1.433 . S
C410 H406 0.929 . S
C410 C412 1.378 . S
C410 C414 1.350 . S
C411 C414 1.463 1_655 S
C411 C416 1.350 . S
C411 N419 1.427 . S
C412 H403 0.930 . S
C412 C410 1.378 . S
C412 C413 1.367 . S
C413 C412 1.367 . S
C413 C415 1.433 . S
C414 C410 1.350 . S
C414 C411 1.463 1_455 S
C414 N418 1.427 . S
C415 H405 0.929 . S
C415 C413 1.433 . S
C415 N418 1.384 . S
C416 H407 0.929 . S
C416 C408 1.378 . S
C416 C411 1.350 . S
C417 H404 0.929 . S
C417 C409 1.433 . S
C417 N419 1.384 . S
N418 C414 1.427 . S
N418 C415 1.384 . S
N419 C411 1.427 . S
N419 C417 1.384 . S
H420 C426 0.930 . S
H421 C430 0.930 . S
H422 C435 0.929 . S
H423 C433 0.929 . S
H424 C428 0.929 1_565 S
H425 C434 0.929 1_545 S
C426 H420 0.930 . S
C426 C427 1.367 . S
C426 C434 1.378 . S
C427 C426 1.367 . S
C427 C435 1.433 . S
C428 H424 0.929 1_545 S
C428 C430 1.378 . S
C428 C432 1.350 . S
C429 C432 1.463 1_566 S
C429 C434 1.350 . S
C429 N437 1.427 . S
C430 H421 0.930 . S
C430 C428 1.378 . S
C430 C431 1.367 . S
C431 C430 1.367 . S
C431 C433 1.433 . S
C432 C428 1.350 . S
C432 C429 1.463 1_544 S
C432 N436 1.427 . S
C433 H423 0.929 . S
C433 C431 1.433 . S
C433 N436 1.384 . S
C434 H425 0.929 1_565 S
C434 C426 1.378 . S
C434 C429 1.350 . S
C435 H422 0.929 . S
C435 C427 1.433 . S
C435 N437 1.384 . S
N436 C432 1.427 . S
N436 C433 1.384 . S
N437 C429 1.427 . S
N437 C435 1.384 . S
H438 C444 0.930 . S
H439 C448 0.930 . S
H440 C453 0.929 . S
H441 C451 0.929 . S
H442 C446 0.929 . S
H443 C452 0.929 . S
C444 H438 0.930 . S
C444 C445 1.367 . S
C444 C452 1.378 . S
C445 C444 1.367 . S
C445 C453 1.433 . S
C446 H442 0.929 . S
C446 C448 1.378 . S
C446 C450 1.350 . S
C447 C450 1.463 . S
C447 C452 1.350 . S
C447 N455 1.427 . S
C448 H439 0.930 . S
C448 C446 1.378 . S
C448 C449 1.367 . S
C449 C448 1.367 . S
C449 C451 1.433 . S
C450 C446 1.350 . S
C450 C447 1.463 . S
C450 N454 1.427 . S
C451 H441 0.929 . S
C451 C449 1.433 . S
C451 N454 1.384 . S
C452 H443 0.929 . S
C452 C444 1.378 . S
C452 C447 1.350 . S
C453 H440 0.929 . S
C453 C445 1.433 . S
C453 N455 1.384 . S
N454 C450 1.427 . S
N454 C451 1.384 . S
N455 C447 1.427 . S
N455 C453 1.384 . S
H456 C462 0.930 1_655 S
H457 C466 0.930 1_455 S
H458 C471 0.929 . S
H459 C469 0.929 . S
H460 C464 0.929 . S
H461 C470 0.929 . S
C462 H456 0.930 1_455 S
C462 C463 1.367 . S
C462 C470 1.378 1_455 S
C463 C462 1.367 . S
C463 C471 1.433 . S
C464 H460 0.929 . S
C464 C466 1.378 1_455 S
C464 C468 1.350 1_455 S
C465 C468 1.463 1_455 S
C465 C470 1.350 1_455 S
C465 N473 1.427 . S
C466 H457 0.930 1_655 S
C466 C464 1.378 1_655 S
C466 C467 1.367 . S
C467 C466 1.367 . S
C467 C469 1.433 . S
C468 C464 1.350 1_655 S
C468 C465 1.463 1_655 S
C468 N472 1.427 . S
C469 H459 0.929 . S
C469 C467 1.433 . S
C469 N472 1.384 . S
C470 H461 0.929 . S
C470 C462 1.378 1_655 S
C470 C465 1.350 1_655 S
C471 H458 0.929 . S
C471 C463 1.433 . S
C471 N473 1.384 . S
N472 C468 1.427 . S
N472 C469 1.384 . S
N473 C465 1.427 . S
N473 C471 1.384 . S
H474 C480 0.930 . S
H475 C484 0.930 . S
H476 C489 0.929 . S
H477 C487 0.929 . S
H478 C482 0.929 . S
H479 C488 0.929 . S
C480 H474 0.930 . S
C480 C481 1.367 . S
C480 C488 1.378 . S
C481 C480 1.367 . S
C481 C489 1.433 . S
C482 H478 0.929 . S
C482 C484 1.378 . S
C482 C486 1.350 . S
C483 C486 1.463 1_564 S
C483 C488 1.350 . S
C483 N491 1.427 . S
C484 H475 0.930 . S
C484 C482 1.378 . S
C484 C485 1.367 . S
C485 C484 1.367 . S
C485 C487 1.433 . S
C486 C482 1.350 . S
C486 C483 1.463 1_546 S
C486 N490 1.427 . S
C487 H477 0.929 . S
C487 C485 1.433 . S
C487 N490 1.384 . S
C488 H479 0.929 . S
C488 C480 1.378 . S
C488 C483 1.350 . S
C489 H476 0.929 . S
C489 C481 1.433 . S
C489 N491 1.384 . S
N490 C486 1.427 . S
N490 C487 1.384 . S
N491 C483 1.427 . S
N491 C489 1.384 . S
H492 C498 0.930 . S
H493 C502 0.930 . S
H494 C507 0.929 . S
H495 C505 0.929 . S
H496 C500 0.929 . S
H497 C506 0.929 . S
C498 H492 0.930 . S
C498 C499 1.367 . S
C498 C506 1.378 . S
C499 C498 1.367 . S
C499 C507 1.433 . S
C500 H496 0.929 . S
C500 C502 1.378 . S
C500 C504 1.350 . S
C501 C504 1.463 1_655 S
C501 C506 1.350 . S
C501 N509 1.427 . S
C502 H493 0.930 . S
C502 C500 1.378 . S
C502 C503 1.367 . S
C503 C502 1.367 . S
C503 C505 1.433 . S
C504 C500 1.350 . S
C504 C501 1.463 1_455 S
C504 N508 1.427 . S
C505 H495 0.929 . S
C505 C503 1.433 . S
C505 N508 1.384 . S
C506 H497 0.929 . S
C506 C498 1.378 . S
C506 C501 1.350 . S
C507 H494 0.929 . S
C507 C499 1.433 . S
C507 N509 1.384 . S
N508 C504 1.427 . S
N508 C505 1.384 . S
N509 C501 1.427 . S
N509 C507 1.384 . S
H510 C516 0.930 . S
H511 C520 0.930 . S
H512 C525 0.929 . S
H513 C523 0.929 . S
H514 C518 0.929 . S
H515 C524 0.929 . S
C516 H510 0.930 . S
C516 C517 1.367 . S
C516 C524 1.378 . S
C517 C516 1.367 . S
C517 C525 1.433 . S
C518 H514 0.929 . S
C518 C520 1.378 . S
C518 C522 1.350 . S
C519 C522 1.463 1_545 S
C519 C524 1.350 . S
C519 N527 1.427 . S
C520 H511 0.930 . S
C520 C518 1.378 . S
C520 C521 1.367 . S
C521 C520 1.367 . S
C521 C523 1.433 . S
C522 C518 1.350 . S
C522 C519 1.463 1_565 S
C522 N526 1.427 . S
C523 H513 0.929 . S
C523 C521 1.433 . S
C523 N526 1.384 . S
C524 H515 0.929 . S
C524 C516 1.378 . S
C524 C519 1.350 . S
C525 H512 0.929 . S
C525 C517 1.433 . S
C525 N527 1.384 . S
N526 C522 1.427 . S
N526 C523 1.384 . S
N527 C519 1.427 . S
N527 C525 1.384 . S
H528 C534 0.930 . S
H529 C538 0.930 . S
H530 C543 0.929 . S
H531 C541 0.929 . S
H532 C536 0.929 . S
H533 C542 0.929 . S
C534 H528 0.930 . S
C534 C535 1.367 . S
C534 C542 1.378 . S
C535 C534 1.367 . S
C535 C543 1.433 . S
C536 H532 0.929 . S
C536 C538 1.378 . S
C536 C540 1.350 . S
C537 C540 1.463 . S
C537 C542 1.350 . S
C537 N545 1.427 . S
C538 H529 0.930 . S
C538 C536 1.378 . S
C538 C539 1.367 . S
C539 C538 1.367 . S
C539 C541 1.433 . S
C540 C536 1.350 . S
C540 C537 1.463 . S
C540 N544 1.427 . S
C541 H531 0.929 . S
C541 C539 1.433 . S
C541 N544 1.384 . S
C542 H533 0.929 . S
C542 C534 1.378 . S
C542 C537 1.350 . S
C543 H530 0.929 . S
C543 C535 1.433 . S
C543 N545 1.384 . S
N544 C540 1.427 . S
N544 C541 1.384 . S
N545 C537 1.427 . S
N545 C543 1.384 . S
H546 C552 0.930 . S
H547 C556 0.930 . S
H548 C561 0.929 . S
H549 C559 0.929 . S
H550 C554 0.929 . S
H551 C560 0.929 . S
C552 H546 0.930 . S
C552 C553 1.367 . S
C552 C560 1.378 . S
C553 C552 1.367 . S
C553 C561 1.433 . S
C554 H550 0.929 . S
C554 C556 1.378 . S
C554 C558 1.350 . S
C555 C558 1.463 1_655 S
C555 C560 1.350 . S
C555 N563 1.427 . S
C556 H547 0.930 . S
C556 C554 1.378 . S
C556 C557 1.367 . S
C557 C556 1.367 . S
C557 C559 1.433 . S
C558 C554 1.350 . S
C558 C555 1.463 1_455 S
C558 N562 1.427 . S
C559 H549 0.929 . S
C559 C557 1.433 . S
C559 N562 1.384 . S
C560 H551 0.929 . S
C560 C552 1.378 . S
C560 C555 1.350 . S
C561 H548 0.929 . S
C561 C553 1.433 . S
C561 N563 1.384 . S
N562 C558 1.427 . S
N562 C559 1.384 . S
N563 C555 1.427 . S
N563 C561 1.384 . S
H564 C570 0.930 . S
H565 C574 0.930 . S
H566 C579 0.929 . S
H567 C577 0.929 . S
H568 C572 0.929 . S
H569 C578 0.929 . S
C570 H564 0.930 . S
C570 C571 1.367 . S
C570 C578 1.378 . S
C571 C570 1.367 . S
C571 C579 1.433 . S
C572 H568 0.929 . S
C572 C574 1.378 . S
C572 C576 1.350 . S
C573 C576 1.463 1_565 S
C573 C578 1.350 . S
C573 N581 1.427 . S
C574 H565 0.930 . S
C574 C572 1.378 . S
C574 C575 1.367 . S
C575 C574 1.367 . S
C575 C577 1.433 . S
C576 C572 1.350 . S
C576 C573 1.463 1_545 S
C576 N580 1.427 . S
C577 H567 0.929 . S
C577 C575 1.433 . S
C577 N580 1.384 . S
C578 H569 0.929 . S
C578 C570 1.378 . S
C578 C573 1.350 . S
C579 H566 0.929 . S
C579 C571 1.433 . S
C579 N581 1.384 . S
N580 C576 1.427 . S
N580 C577 1.384 . S
N581 C573 1.427 . S
N581 C579 1.384 . S
H582 C588 0.930 . S
H583 C592 0.930 . S
H584 C597 0.929 . S
H585 C595 0.929 . S
H586 C590 0.929 . S
H587 C596 0.929 . S
C588 H582 0.930 . S
C588 C589 1.367 . S
C588 C596 1.378 . S
C589 C588 1.367 . S
C589 C597 1.433 . S
C590 H586 0.929 . S
C590 C592 1.378 . S
C590 C594 1.350 . S
C591 C594 1.463 . S
C591 C596 1.350 . S
C591 N599 1.427 . S
C592 H583 0.930 . S
C592 C590 1.378 . S
C592 C593 1.367 . S
C593 C592 1.367 . S
C593 C595 1.433 . S
C594 C590 1.350 . S
C594 C591 1.463 . S
C594 N598 1.427 . S
C595 H585 0.929 . S
C595 C593 1.433 . S
C595 N598 1.384 . S
C596 H587 0.929 . S
C596 C588 1.378 . S
C596 C591 1.350 . S
C597 H584 0.929 . S
C597 C589 1.433 . S
C597 N599 1.384 . S
N598 C594 1.427 . S
N598 C595 1.384 . S
N599 C591 1.427 . S
N599 C597 1.384 . S
C175 C119 1.732 . S
C179 C7 1.743 . S
C193 C23 1.828 . S
C197 C135 1.828 . S
C211 C35 1.740 . S
C215 C147 1.749 . S
C229 C49 1.739 . S
C233 C161 1.736 . S
C247 C93 1.828 . S
C251 C65 1.828 . S
C265 C77 1.732 . S
C269 C105 1.743 . S
C283 C51 0.994 . S
C287 C9 1.004 . S
C301 C63 1.085 . S
C305 C21 1.085 . S
C319 C79 0.883 . S
C323 C37 0.905 . S
C337 C91 1.076 . S
C341 C133 1.077 . S
C355 C107 1.018 . S
C359 C149 1.011 . S
C373 C121 0.879 . S
C377 C163 0.905 . S
C391 C3 1.569 . S
C395 C134 1.565 . S
C409 C22 1.566 . S
C413 C143 1.568 . S
C427 C31 1.553 . S
C431 C157 1.556 . S
C445 C92 1.561 . S
C449 C45 1.570 . S
C463 C64 1.564 . S
C467 C101 1.568 . S
C481 C115 1.557 . S
C485 C73 1.555 . S
C499 C162 1.229 . S
C503 C8 1.223 . S
C517 C17 1.290 . S
C521 C87 1.286 . S
C535 C106 1.224 . S
C539 C36 1.229 . S
C553 C50 1.225 . S
C557 C120 1.230 . S
C571 C59 1.274 . S
C575 C129 1.273 . S
C589 C148 1.227 . S
C593 C78 1.225 . S
