# Generated by pormake.
# Topology ukb, (4)-cn, num edge types: 1
# Building blocks:
#     Node 0, Type 0, BuildingBlock: QUQFOY_clean_sbu_3, # of connection points: 4
#     Node 1, Type 0, BuildingBlock: QUQFOY_clean_sbu_3, # of connection points: 4
#     Node 2, Type 0, BuildingBlock: QUQFOY_clean_sbu_3, # of connection points: 4
#     Node 3, Type 0, BuildingBlock: QUQFOY_clean_sbu_3, # of connection points: 4
#     Node 4, Type 0, BuildingBlock: QUQFOY_clean_sbu_3, # of connection points: 4
#     Node 5, Type 0, BuildingBlock: QUQFOY_clean_sbu_3, # of connection points: 4
#     Node 6, Type 0, BuildingBlock: QUQFOY_clean_sbu_3, # of connection points: 4
#     Node 7, Type 0, BuildingBlock: QUQFOY_clean_sbu_3, # of connection points: 4
#     Node 8, Type 0, BuildingBlock: QUQFOY_clean_sbu_3, # of connection points: 4
#     Node 9, Type 0, BuildingBlock: QUQFOY_clean_sbu_3, # of connection points: 4
#     Node 10, Type 0, BuildingBlock: QUQFOY_clean_sbu_3, # of connection points: 4
#     Node 11, Type 0, BuildingBlock: QUQFOY_clean_sbu_3, # of connection points: 4
#     Node 12, Type 0, BuildingBlock: QUQFOY_clean_sbu_3, # of connection points: 4
#     Node 13, Type 0, BuildingBlock: QUQFOY_clean_sbu_3, # of connection points: 4
#     Node 14, Type 0, BuildingBlock: QUQFOY_clean_sbu_3, # of connection points: 4
#     Node 15, Type 0, BuildingBlock: QUQFOY_clean_sbu_3, # of connection points: 4
#     Edge 16, Type (0, 0), BuildingBlock: ZUJKAS_clean_linker_0, # of connection points: 2
#     Edge 17, Type (0, 0), BuildingBlock: ZUJKAS_clean_linker_0, # of connection points: 2
#     Edge 18, Type (0, 0), BuildingBlock: ZUJKAS_clean_linker_0, # of connection points: 2
#     Edge 19, Type (0, 0), BuildingBlock: ZUJKAS_clean_linker_0, # of connection points: 2
#     Edge 20, Type (0, 0), BuildingBlock: ZUJKAS_clean_linker_0, # of connection points: 2
#     Edge 21, Type (0, 0), BuildingBlock: ZUJKAS_clean_linker_0, # of connection points: 2
#     Edge 22, Type (0, 0), BuildingBlock: ZUJKAS_clean_linker_0, # of connection points: 2
#     Edge 23, Type (0, 0), BuildingBlock: ZUJKAS_clean_linker_0, # of connection points: 2
#     Edge 24, Type (0, 0), BuildingBlock: ZUJKAS_clean_linker_0, # of connection points: 2
#     Edge 25, Type (0, 0), BuildingBlock: ZUJKAS_clean_linker_0, # of connection points: 2
#     Edge 26, Type (0, 0), BuildingBlock: ZUJKAS_clean_linker_0, # of connection points: 2
#     Edge 27, Type (0, 0), BuildingBlock: ZUJKAS_clean_linker_0, # of connection points: 2
#     Edge 28, Type (0, 0), BuildingBlock: ZUJKAS_clean_linker_0, # of connection points: 2
#     Edge 29, Type (0, 0), BuildingBlock: ZUJKAS_clean_linker_0, # of connection points: 2
#     Edge 30, Type (0, 0), BuildingBlock: ZUJKAS_clean_linker_0, # of connection points: 2
#     Edge 31, Type (0, 0), BuildingBlock: ZUJKAS_clean_linker_0, # of connection points: 2
#     Edge 32, Type (0, 0), BuildingBlock: ZUJKAS_clean_linker_0, # of connection points: 2
#     Edge 33, Type (0, 0), BuildingBlock: ZUJKAS_clean_linker_0, # of connection points: 2
#     Edge 34, Type (0, 0), BuildingBlock: ZUJKAS_clean_linker_0, # of connection points: 2
#     Edge 35, Type (0, 0), BuildingBlock: ZUJKAS_clean_linker_0, # of connection points: 2
#     Edge 36, Type (0, 0), BuildingBlock: ZUJKAS_clean_linker_0, # of connection points: 2
#     Edge 37, Type (0, 0), BuildingBlock: ZUJKAS_clean_linker_0, # of connection points: 2
#     Edge 38, Type (0, 0), BuildingBlock: ZUJKAS_clean_linker_0, # of connection points: 2
#     Edge 39, Type (0, 0), BuildingBlock: ZUJKAS_clean_linker_0, # of connection points: 2
#     Edge 40, Type (0, 0), BuildingBlock: ZUJKAS_clean_linker_0, # of connection points: 2
#     Edge 41, Type (0, 0), BuildingBlock: ZUJKAS_clean_linker_0, # of connection points: 2
#     Edge 42, Type (0, 0), BuildingBlock: ZUJKAS_clean_linker_0, # of connection points: 2
#     Edge 43, Type (0, 0), BuildingBlock: ZUJKAS_clean_linker_0, # of connection points: 2
#     Edge 44, Type (0, 0), BuildingBlock: ZUJKAS_clean_linker_0, # of connection points: 2
#     Edge 45, Type (0, 0), BuildingBlock: ZUJKAS_clean_linker_0, # of connection points: 2
#     Edge 46, Type (0, 0), BuildingBlock: ZUJKAS_clean_linker_0, # of connection points: 2
#     Edge 47, Type (0, 0), BuildingBlock: ZUJKAS_clean_linker_0, # of connection points: 2
# Relax obj value: 0.084
# Max RMSD: 0.047
# Mean RMSD: 0.047
data_MOF--net-ukb--node1-QUQFOY_clean_sbu_3--edge1-ZUJKAS_clean_linker_0
_symmetry_space_group_name_H-M    P1
_symmetry_Int_Tables_number       1
_symmetry_cell_setting            triclinic
loop_
_symmetry_equiv_pos_as_xyz
'x, y, z'
_cell_length_a     59.147897
_cell_length_b     58.918881
_cell_length_c     51.096585
_cell_angle_alpha  90.110947
_cell_angle_beta   89.766528
_cell_angle_gamma 89.891701
loop_
_atom_site_label
_atom_site_type_symbol
_atom_site_fract_x
_atom_site_fract_y
_atom_site_fract_z
_atom_type_partial_charge
C0 C 0.52658 0.18266 0.10757 0.0
O1 O 0.54746 0.17808 0.10994 0.0
Cd2 Cd 0.56547 0.1688 0.15033 0.0
O3 O 0.51326 0.18125 0.12718 0.0
Cd4 Cd 0.51518 0.16981 0.17402 0.0
C5 C 0.54794 0.21544 0.18615 0.0
O6 O 0.54327 0.13969 0.1696 0.0
O7 O 0.53655 0.15072 0.20895 0.0
O8 O 0.4799 0.14985 0.16617 0.0
C9 C 0.54698 0.13721 0.19381 0.0
O10 O 0.56398 0.20389 0.17597 0.0
C11 C 0.47012 0.15663 0.18693 0.0
O12 O 0.52778 0.20785 0.18655 0.0
O13 O 0.48112 0.1701 0.20154 0.0
C14 C 0.28672 0.52386 0.60645 0.0
O15 O 0.29153 0.54479 0.60828 0.0
Cd16 Cd 0.30074 0.56386 0.648 0.0
O17 O 0.28793 0.51096 0.62641 0.0
Cd18 Cd 0.29954 0.51404 0.67318 0.0
C19 C 0.25424 0.54763 0.68471 0.0
O20 O 0.32966 0.5419 0.66788 0.0
O21 O 0.31883 0.53604 0.70747 0.0
O22 O 0.31948 0.47842 0.66603 0.0
C23 C 0.33224 0.54611 0.69199 0.0
O24 O 0.26562 0.56309 0.67329 0.0
C25 C 0.31292 0.4691 0.6871 0.0
O26 O 0.26193 0.52746 0.6864 0.0
O27 O 0.29948 0.48046 0.70154 0.0
C28 C 0.94121 0.28832 0.10578 0.0
O29 O 0.9204 0.29309 0.10869 0.0
Cd30 Cd 0.90296 0.30464 0.14875 0.0
O31 O 0.95491 0.29036 0.12484 0.0
Cd32 Cd 0.9532 0.30325 0.1713 0.0
C33 C 0.9193 0.25915 0.18644 0.0
O34 O 0.92611 0.33406 0.16563 0.0
O35 O 0.93209 0.32427 0.20544 0.0
O36 O -0.01068 0.32172 0.16289 0.0
C37 C 0.92234 0.33763 0.18967 0.0
O38 O 0.90341 0.27085 0.17642 0.0
C39 C -0.00157 0.31565 0.18422 0.0
O40 O 0.93971 0.26599 0.1856 0.0
O41 O -0.01327 0.30316 0.19929 0.0
C42 C 0.18582 0.94385 0.61001 0.0
O43 O 0.18185 0.92281 0.6129 0.0
Cd44 Cd 0.17075 0.90465 0.65267 0.0
O45 O 0.18319 0.95767 0.62904 0.0
Cd46 Cd 0.17019 0.95643 0.67551 0.0
C47 C 0.21486 0.92296 0.69149 0.0
O48 O 0.14113 0.92784 0.66914 0.0
O49 O 0.14716 0.93713 0.70917 0.0
O50 O 0.15151 -0.00767 0.66592 0.0
C51 C 0.13601 0.92532 0.69302 0.0
O52 O 0.20429 0.9069 0.68017 0.0
C53 C 0.15709 0.00196 0.68718 0.0
O54 O 0.20694 0.94311 0.6916 0.0
O55 O 0.16947 -0.00934 0.70271 0.0
C56 C 0.52616 0.28915 0.86691 0.0
O57 O 0.54708 0.29364 0.86479 0.0
Cd58 Cd 0.56611 0.3024 0.82482 0.0
O59 O 0.51316 0.29045 0.84711 0.0
Cd60 Cd 0.51629 0.30186 0.80021 0.0
C61 C 0.5493 0.25599 0.78842 0.0
O62 O 0.54459 0.33165 0.80488 0.0
O63 O 0.53836 0.32046 0.76549 0.0
O64 O 0.4813 0.32332 0.80528 0.0
C65 C 0.5486 0.33397 0.78067 0.0
O66 O 0.56505 0.26711 0.79953 0.0
C67 C 0.47176 0.31508 0.78519 0.0
O68 O 0.52933 0.26405 0.78713 0.0
O69 O 0.48271 0.3001 0.77245 0.0
C70 C 0.18156 0.52285 0.36589 0.0
O71 O 0.17652 0.54376 0.36435 0.0
Cd72 Cd 0.1667 0.56334 0.32525 0.0
O73 O 0.18045 0.51005 0.34577 0.0
Cd74 Cd 0.16878 0.51391 0.29903 0.0
C75 C 0.21326 0.54864 0.28788 0.0
O76 O 0.13808 0.54112 0.30532 0.0
O77 O 0.14897 0.53625 0.26551 0.0
O78 O 0.14908 0.47784 0.30343 0.0
C79 C 0.13527 0.54561 0.28133 0.0
O80 O 0.20169 0.56384 0.29963 0.0
C81 C 0.15687 0.46924 0.28244 0.0
O82 O 0.20592 0.52838 0.28597 0.0
O83 O 0.17088 0.48117 0.26956 0.0
C84 C 0.94161 0.18265 0.86223 0.0
O85 O 0.92077 0.17807 0.85957 0.0
Cd86 Cd 0.90272 0.16772 0.8196 0.0
O87 O 0.95515 0.1811 0.84282 0.0
Cd88 Cd 0.95281 0.16963 0.79588 0.0
C89 C 0.91853 0.21421 0.78326 0.0
O90 O 0.92568 0.13884 0.80091 0.0
O91 O 0.93136 0.1499 0.7614 0.0
O92 O -0.01115 0.15009 0.80119 0.0
C93 C 0.92175 0.13607 0.77679 0.0
O94 O 0.90271 0.20232 0.7932 0.0
C95 C -0.00221 0.15803 0.78051 0.0
O96 O 0.93893 0.20721 0.78339 0.0
O97 O -0.01398 0.17197 0.76737 0.0
C98 C 0.28606 0.94574 0.36412 0.0
O99 O 0.29072 0.9248 0.36159 0.0
Cd100 Cd 0.30031 0.90623 0.32161 0.0
O101 O 0.2874 0.95913 0.34458 0.0
Cd102 Cd 0.29904 0.95643 0.29762 0.0
C103 C 0.25422 0.92266 0.2849 0.0
O104 O 0.32933 0.9287 0.30255 0.0
O105 O 0.31869 0.9347 0.26304 0.0
O106 O 0.31968 -0.00817 0.30314 0.0
C107 C 0.3322 0.92477 0.27842 0.0
O108 O 0.26553 0.90695 0.29593 0.0
C109 C 0.31183 0.00132 0.28282 0.0
O110 O 0.26179 0.94288 0.28396 0.0
O111 O 0.29734 -0.00981 0.26977 0.0
C112 C 0.44516 0.78687 0.86566 0.0
O113 O 0.42433 0.79196 0.86418 0.0
Cd114 Cd 0.40494 0.8025 0.82527 0.0
O115 O 0.45796 0.78826 0.84557 0.0
Cd116 Cd 0.45425 0.80053 0.79906 0.0
C117 C 0.41942 0.75624 0.78714 0.0
O118 O 0.42745 0.83147 0.80596 0.0
O119 O 0.43226 0.82135 0.76591 0.0
O120 O 0.49044 0.8198 0.80372 0.0
C121 C 0.42302 0.83485 0.78207 0.0
O122 O 0.40428 0.76774 0.79907 0.0
C123 C 0.49895 0.81213 0.78263 0.0
O124 O 0.43962 0.76357 0.78536 0.0
O125 O 0.48688 0.79845 0.76948 0.0
C126 C 0.68121 0.44244 0.36178 0.0
O127 O 0.67549 0.42183 0.35879 0.0
Cd128 Cd 0.66542 0.40453 0.31824 0.0
O129 O 0.6803 0.45643 0.34278 0.0
Cd130 Cd 0.66717 0.45668 0.29639 0.0
C131 C 0.71125 0.42222 0.28096 0.0
O132 O 0.63719 0.42904 0.30166 0.0
O133 O 0.64436 0.43825 0.26186 0.0
O134 O 0.64912 0.49283 0.30652 0.0
C135 C 0.63252 0.42671 0.27768 0.0
O136 O 0.70012 0.40635 0.29198 0.0
C137 C 0.65566 0.50275 0.2858 0.0
O138 O 0.70367 0.44248 0.28063 0.0
O139 O 0.66826 0.49144 0.27034 0.0
C140 C 0.02483 0.68234 0.86348 0.0
O141 O 0.04562 0.67746 0.86064 0.0
Cd142 Cd 0.06362 0.66758 0.82034 0.0
O143 O 0.01134 0.68132 0.8441 0.0
Cd144 Cd 0.01374 0.67047 0.79697 0.0
C145 C 0.04845 0.71481 0.78497 0.0
O146 O 0.04046 0.63917 0.80126 0.0
O147 O 0.03508 0.65076 0.76197 0.0
O148 O 0.97749 0.65135 0.80215 0.0
C149 C 0.04448 0.6366 0.7771 0.0
O150 O 0.06408 0.70266 0.79485 0.0
C151 C 0.96866 0.65967 0.78167 0.0
O152 O 0.02804 0.70797 0.78482 0.0
O153 O 0.98059 0.67362 0.7687 0.0
C154 C 0.7916 0.02528 0.36437 0.0
O155 O 0.79745 0.04596 0.36257 0.0
Cd156 Cd 0.80478 0.06576 0.32276 0.0
O157 O 0.79102 0.01242 0.34427 0.0
Cd158 Cd 0.80165 0.01474 0.29696 0.0
C159 C 0.75702 0.04999 0.28774 0.0
O160 O 0.83164 0.04236 0.30151 0.0
O161 O 0.82212 0.03521 0.26185 0.0
O162 O 0.82145 0.97883 0.30219 0.0
C163 C 0.83474 0.04611 0.2774 0.0
O164 O 0.7687 0.06512 0.29933 0.0
C165 C 0.81303 0.96946 0.28207 0.0
O166 O 0.76452 0.02982 0.28503 0.0
O167 O 0.79859 0.98092 0.26929 0.0
C168 C 0.44518 0.68181 0.10672 0.0
O169 O 0.42427 0.67727 0.10873 0.0
Cd170 Cd 0.40484 0.66816 0.14832 0.0
O171 O 0.45807 0.68063 0.12663 0.0
Cd172 Cd 0.45438 0.66976 0.17359 0.0
C173 C 0.42026 0.71496 0.18471 0.0
O174 O 0.42675 0.63937 0.16873 0.0
O175 O 0.43231 0.65075 0.20815 0.0
O176 O 0.48993 0.64908 0.16959 0.0
C177 C 0.42246 0.63703 0.19286 0.0
O178 O 0.40483 0.70346 0.17352 0.0
C179 C 0.49893 0.65769 0.18982 0.0
O180 O 0.44039 0.70734 0.1862 0.0
O181 O 0.48742 0.67251 0.20214 0.0
C182 C 0.79068 0.44582 0.60633 0.0
O183 O 0.79695 0.42528 0.60855 0.0
Cd184 Cd 0.80512 0.40652 0.64873 0.0
O185 O 0.79011 0.45912 0.62606 0.0
Cd186 Cd 0.80142 0.45834 0.67316 0.0
C187 C 0.75752 0.42281 0.68456 0.0
O188 O 0.83171 0.43102 0.66821 0.0
O189 O 0.8233 0.43916 0.70801 0.0
O190 O 0.81903 0.49483 0.66446 0.0
C191 C 0.83553 0.42788 0.69225 0.0
O192 O 0.76934 0.40761 0.67308 0.0
C193 C 0.81237 0.5042 0.68553 0.0
O194 O 0.76467 0.44314 0.68654 0.0
O195 O 0.79987 0.49245 0.70056 0.0
C196 C 0.02707 0.78485 0.10843 0.0
O197 O 0.04791 0.78951 0.11093 0.0
Cd198 Cd 0.06553 0.80052 0.15083 0.0
O199 O 0.01353 0.78694 0.12777 0.0
Cd200 Cd 0.01525 0.80005 0.17418 0.0
C201 C 0.04871 0.75539 0.18916 0.0
O202 O 0.04271 0.83039 0.16799 0.0
O203 O 0.036 0.82143 0.20799 0.0
O204 O 0.97943 0.819 0.16562 0.0
C205 C 0.04616 0.83431 0.192 0.0
O206 O 0.06452 0.76641 0.17795 0.0
C207 C 0.9699 0.81282 0.18673 0.0
O208 O 0.02855 0.76304 0.18949 0.0
O209 O 0.98129 0.80013 0.20185 0.0
C210 C 0.68051 0.0266 0.60811 0.0
O211 O 0.67399 0.04706 0.61034 0.0
Cd212 Cd 0.66474 0.0647 0.65096 0.0
O213 O 0.68045 0.01333 0.6278 0.0
Cd214 Cd 0.66747 0.01453 0.67438 0.0
C215 C 0.71168 0.04871 0.68702 0.0
O216 O 0.63636 0.04139 0.6698 0.0
O217 O 0.64729 0.03549 0.70923 0.0
O218 O 0.64909 0.9784 0.6657 0.0
C219 C 0.63349 0.04518 0.69397 0.0
O220 O 0.70003 0.06418 0.676 0.0
C221 C 0.6553 0.96897 0.68681 0.0
O222 O 0.70442 0.02839 0.68822 0.0
O223 O 0.66787 0.98051 0.7019 0.0
H224 H 0.43951 0.135 0.15598 0.0
H225 H 0.40524 0.11529 0.16998 0.0
H226 H 0.41685 0.13692 0.24952 0.0
H227 H 0.45063 0.1574 0.23544 0.0
H228 H 0.40603 0.08049 0.20141 0.0
H229 H 0.34986 0.14503 0.246 0.0
H230 H 0.3738 0.15257 0.2258 0.0
H231 H 0.37761 0.14594 0.25991 0.0
C232 C 0.43443 0.13603 0.17634 0.0
C233 C 0.44778 0.14765 0.19465 0.0
C234 C 0.41483 0.12477 0.18431 0.0
C235 C 0.4083 0.12476 0.21077 0.0
C236 C 0.42114 0.13715 0.22891 0.0
H237 H 0.34086 0.02972 0.3082 0.0
H238 H 0.36082 0.06234 0.28974 0.0
C239 C 0.44058 0.14871 0.22086 0.0
C240 C 0.39008 0.10933 0.21985 0.0
H241 H 0.34294 0.10606 0.25863 0.0
C242 C 0.392 0.08621 0.21348 0.0
C243 C 0.3718 0.11673 0.23573 0.0
C244 C 0.36801 0.14147 0.24203 0.0
C245 C 0.37671 0.07021 0.2233 0.0
C246 C 0.35899 0.07749 0.23991 0.0
C247 C 0.35663 0.10061 0.24588 0.0
C248 C 0.34382 0.06083 0.2524 0.0
C249 C 0.38003 0.04544 0.21664 0.0
C250 C 0.32719 0.04973 0.23771 0.0
C251 C 0.31571 0.0311 0.2482 0.0
C252 C 0.32087 0.02324 0.27346 0.0
C253 C 0.33659 0.03529 0.28865 0.0
C254 C 0.34795 0.05398 0.27819 0.0
H255 H 0.39587 0.04236 0.20541 0.0
H256 H 0.38046 0.03514 0.23481 0.0
H257 H 0.36556 0.03942 0.20474 0.0
H258 H 0.32387 0.05482 0.21773 0.0
H259 H 0.30368 0.02219 0.23603 0.0
H260 H 0.33449 0.43765 0.6568 0.0
H261 H 0.35501 0.40404 0.67161 0.0
H262 H 0.33421 0.41789 0.75111 0.0
H263 H 0.31294 0.45098 0.73624 0.0
H264 H 0.39007 0.40667 0.7023 0.0
H265 H 0.32781 0.35039 0.7502 0.0
H266 H 0.31943 0.37358 0.7293 0.0
H267 H 0.32638 0.37867 0.76311 0.0
C268 C 0.33381 0.43317 0.67734 0.0
C269 C 0.32221 0.44698 0.69539 0.0
C270 C 0.34553 0.41396 0.68578 0.0
C271 C 0.34604 0.40828 0.71246 0.0
C272 C 0.33362 0.42151 0.73036 0.0
H273 H 0.44375 0.34515 0.81 0.0
H274 H 0.41077 0.36442 0.79159 0.0
C275 C 0.3216 0.44056 0.72186 0.0
C276 C 0.36199 0.39063 0.72187 0.0
H277 H 0.36696 0.34464 0.76217 0.0
C278 C 0.38489 0.39286 0.71497 0.0
C279 C 0.35529 0.37265 0.73854 0.0
C280 C 0.33084 0.36853 0.74549 0.0
C281 C 0.40133 0.37816 0.72496 0.0
C282 C 0.39475 0.36075 0.74231 0.0
C283 C 0.37186 0.35809 0.74886 0.0
C284 C 0.41188 0.34619 0.75486 0.0
C285 C 0.42582 0.38177 0.71765 0.0
C286 C 0.42291 0.32914 0.74048 0.0
C287 C 0.44174 0.31807 0.75092 0.0
C288 C 0.44988 0.32404 0.77583 0.0
C289 C 0.43797 0.34026 0.79071 0.0
C290 C 0.41908 0.35121 0.7803 0.0
H291 H 0.42834 0.39734 0.70576 0.0
H292 H 0.43631 0.38304 0.73557 0.0
H293 H 0.43202 0.36698 0.70619 0.0
H294 H 0.41755 0.32514 0.72075 0.0
H295 H 0.45053 0.30562 0.73899 0.0
H296 H 0.016 0.31761 0.23345 0.0
H297 H 0.04963 0.33842 0.24734 0.0
H298 H 0.06519 0.35398 0.1668 0.0
H299 H 0.03102 0.33404 0.15287 0.0
H300 H 0.09487 0.33744 0.23853 0.0
H301 H 0.05785 0.4164 0.19745 0.0
H302 H 0.0421 0.39034 0.19972 0.0
H303 H 0.06218 0.39444 0.1736 0.0
C304 C 0.02677 0.32519 0.21867 0.0
C305 C 0.0207 0.32457 0.19212 0.0
C306 C 0.046 0.33706 0.22663 0.0
C307 C 0.05958 0.34827 0.20816 0.0
C308 C 0.05456 0.34604 0.18144 0.0
H309 H 0.16308 0.45125 0.23361 0.0
H310 H 0.14332 0.41868 0.21464 0.0
C311 C 0.03512 0.33454 0.1735 0.0
C312 C 0.07773 0.36377 0.21708 0.0
H313 H 0.09378 0.41941 0.21654 0.0
C314 C 0.09473 0.35533 0.23358 0.0
C315 C 0.0774 0.38719 0.2108 0.0
C316 C 0.05881 0.39772 0.19465 0.0
C317 C 0.11128 0.36974 0.24412 0.0
C318 C 0.11078 0.39308 0.23793 0.0
C319 C 0.0942 0.4014 0.22095 0.0
C320 C 0.12596 0.40973 0.25047 0.0
C321 C 0.12905 0.36005 0.262 0.0
C322 C 0.12298 0.41516 0.27699 0.0
C323 C 0.13403 0.43387 0.28782 0.0
C324 C 0.14827 0.44742 0.27227 0.0
C325 C 0.15225 0.44112 0.2461 0.0
C326 C 0.14101 0.42252 0.23522 0.0
H327 H 0.13024 0.34129 0.26024 0.0
H328 H 0.14586 0.36756 0.25764 0.0
H329 H 0.12465 0.3643 0.28257 0.0
H330 H 0.11115 0.40569 0.28895 0.0
H331 H 0.13065 0.43828 0.30805 0.0
H332 H 0.15389 0.02029 0.73609 0.0
H333 H 0.13201 0.05371 0.74914 0.0
H334 H 0.11766 0.06792 0.66808 0.0
H335 H 0.13868 0.0339 0.65499 0.0
H336 H 0.13172 0.09894 0.74005 0.0
H337 H 0.05514 0.05924 0.69718 0.0
H338 H 0.08152 0.04417 0.7002 0.0
H339 H 0.07737 0.064 0.67389 0.0
C340 C 0.14636 0.03073 0.72102 0.0
C341 C 0.14763 0.02429 0.69456 0.0
C342 C 0.13388 0.04985 0.7285 0.0
C343 C 0.12268 0.06295 0.70963 0.0
C344 C 0.12558 0.05764 0.68302 0.0
H345 H 0.01676 0.16455 0.73229 0.0
H346 H 0.05013 0.14538 0.71421 0.0
C347 C 0.13769 0.03829 0.67556 0.0
C348 C 0.1065 0.08083 0.71802 0.0
H349 H 0.0506 0.09532 0.7161 0.0
C350 C 0.11402 0.09825 0.73467 0.0
C351 C 0.08332 0.07978 0.71118 0.0
C352 C 0.07377 0.06069 0.69486 0.0
C353 C 0.09891 0.1145 0.74483 0.0
C354 C 0.07583 0.11328 0.73808 0.0
C355 C 0.06842 0.09628 0.72095 0.0
C356 C 0.05852 0.1281 0.75019 0.0
C357 C 0.1076 0.13272 0.76292 0.0
C358 C 0.05249 0.12495 0.77649 0.0
C359 C 0.03332 0.13564 0.7868 0.0
C360 C 0.01992 0.14971 0.77094 0.0
C361 C 0.02676 0.15385 0.745 0.0
C362 C 0.04582 0.14295 0.73464 0.0
H363 H 0.12629 0.13433 0.76181 0.0
H364 H 0.0998 0.14937 0.75819 0.0
H365 H 0.1029 0.12841 0.78336 0.0
H366 H 0.0619 0.11326 0.78866 0.0
H367 H 0.02849 0.13216 0.80686 0.0
H368 H 0.51713 0.806 0.73388 0.0
H369 H 0.55015 0.82527 0.71538 0.0
H370 H 0.56311 0.85668 0.79009 0.0
H371 H 0.53008 0.83765 0.80872 0.0
H372 H 0.55051 0.87489 0.7176 0.0
H373 H 0.62709 0.83639 0.76194 0.0
H374 H 0.60061 0.82131 0.75902 0.0
H375 H 0.6041 0.8424 0.78407 0.0
C376 C 0.52733 0.81656 0.74655 0.0
C377 C 0.52091 0.82047 0.7727 0.0
C378 C 0.54619 0.82751 0.73595 0.0
C379 C 0.55913 0.84221 0.75145 0.0
C380 C 0.55354 0.8451 0.77794 0.0
H381 H 0.65296 0.95101 0.73591 0.0
H382 H 0.63171 0.91742 0.74947 0.0
C383 C 0.53457 0.83434 0.78849 0.0
C384 C 0.57616 0.85715 0.73918 0.0
H385 H 0.6319 0.87196 0.74048 0.0
C386 C 0.56838 0.87407 0.72221 0.0
C387 C 0.59932 0.85613 0.74564 0.0
C388 C 0.60842 0.83799 0.76352 0.0
C389 C 0.583 0.89068 0.7123 0.0
C390 C 0.60625 0.88982 0.71882 0.0
C391 C 0.61413 0.8725 0.73534 0.0
C392 C 0.62214 0.90776 0.71014 0.0
C393 C 0.57306 0.90966 0.69614 0.0
C394 C 0.62471 0.91287 0.68347 0.0
C395 C 0.63645 0.93229 0.67573 0.0
C396 C 0.64634 0.94658 0.6945 0.0
C397 C 0.64545 0.94035 0.72102 0.0
C398 C 0.63333 0.92114 0.72878 0.0
H399 H 0.55444 0.91099 0.69873 0.0
H400 H 0.5807 0.92625 0.70139 0.0
H401 H 0.57647 0.90633 0.67511 0.0
H402 H 0.61678 0.90238 0.6687 0.0
H403 H 0.63715 0.93653 0.65512 0.0
H404 H 0.52819 0.62839 0.16579 0.0
H405 H 0.56114 0.60984 0.18515 0.0
H406 H 0.55192 0.64888 0.25582 0.0
H407 H 0.51895 0.66768 0.2366 0.0
H408 H 0.60379 0.62988 0.2154 0.0
H409 H 0.54206 0.577 0.27109 0.0
H410 H 0.53428 0.59131 0.24123 0.0
H411 H 0.53835 0.60735 0.27067 0.0
C412 C 0.53343 0.6334 0.18524 0.0
C413 C 0.52083 0.64931 0.19979 0.0
C414 C 0.55231 0.62286 0.19621 0.0
C415 C 0.5588 0.62798 0.22188 0.0
C416 C 0.5471 0.64478 0.23594 0.0
H417 H 0.63508 0.53362 0.3179 0.0
H418 H 0.61535 0.56828 0.30486 0.0
C419 C 0.52828 0.65546 0.22493 0.0
C420 C 0.57587 0.61368 0.23491 0.0
H421 H 0.58026 0.56747 0.27452 0.0
C422 C 0.5988 0.61638 0.22861 0.0
C423 C 0.56918 0.59623 0.25216 0.0
C424 C 0.54464 0.59258 0.25925 0.0
C425 C 0.61528 0.60171 0.23887 0.0
C426 C 0.60846 0.58355 0.25521 0.0
C427 C 0.58554 0.58141 0.26209 0.0
C428 C 0.62419 0.5654 0.26382 0.0
C429 C 0.63977 0.60583 0.2321 0.0
C430 C 0.63629 0.55258 0.24525 0.0
C431 C 0.64785 0.53294 0.25273 0.0
C432 C 0.64708 0.5255 0.27883 0.0
C433 C 0.63588 0.5389 0.29762 0.0
C434 C 0.62461 0.55871 0.29019 0.0
H435 H 0.64292 0.62411 0.22823 0.0
H436 H 0.65116 0.60015 0.24802 0.0
H437 H 0.64412 0.59631 0.21401 0.0
H438 H 0.63574 0.55696 0.22469 0.0
H439 H 0.65621 0.52288 0.23779 0.0
H440 H 0.94981 0.66716 0.73374 0.0
H441 H 0.91651 0.64842 0.71541 0.0
H442 H 0.90442 0.6152 0.78923 0.0
H443 H 0.93776 0.63367 0.80768 0.0
H444 H 0.91638 0.59853 0.7162 0.0
H445 H 0.84004 0.63618 0.76296 0.0
H446 H 0.86642 0.65142 0.75974 0.0
H447 H 0.86332 0.62998 0.78438 0.0
C448 C 0.93974 0.65632 0.74628 0.0
C449 C 0.9465 0.65172 0.77208 0.0
C450 C 0.92071 0.64567 0.73578 0.0
C451 C 0.90795 0.63062 0.75105 0.0
C452 C 0.91386 0.62706 0.77728 0.0
H453 H 0.81442 0.52194 0.73478 0.0
H454 H 0.83538 0.55562 0.74853 0.0
C455 C 0.933 0.63751 0.78772 0.0
C456 C 0.89084 0.6159 0.73865 0.0
H457 H 0.83512 0.60106 0.7405 0.0
C458 C 0.89853 0.59927 0.72112 0.0
C459 C 0.86772 0.61682 0.74551 0.0
C460 C 0.85874 0.63465 0.76405 0.0
C461 C 0.88388 0.58281 0.71104 0.0
C462 C 0.86066 0.58355 0.71797 0.0
C463 C 0.85286 0.60061 0.73504 0.0
C464 C 0.84476 0.56566 0.70923 0.0
C465 C 0.89375 0.56406 0.69429 0.0
C466 C 0.84212 0.56075 0.68252 0.0
C467 C 0.83057 0.54125 0.67465 0.0
C468 C 0.8209 0.52672 0.69336 0.0
C469 C 0.82176 0.5328 0.71994 0.0
C470 C 0.83372 0.55206 0.72782 0.0
H471 H 0.91239 0.56273 0.69654 0.0
H472 H 0.88619 0.54739 0.69932 0.0
H473 H 0.89021 0.56766 0.6734 0.0
H474 H 0.84991 0.57141 0.66779 0.0
H475 H 0.82987 0.53714 0.654 0.0
H476 H 0.84162 0.94035 0.30705 0.0
H477 H 0.86074 0.90725 0.28826 0.0
H478 H 0.82317 0.91548 0.2168 0.0
H479 H 0.80383 0.94863 0.23543 0.0
H480 H 0.84285 0.86402 0.25852 0.0
H481 H 0.89423 0.92647 0.20203 0.0
H482 H 0.87902 0.93445 0.23134 0.0
H483 H 0.86391 0.92921 0.2016 0.0
C484 C 0.83703 0.93484 0.28755 0.0
C485 C 0.82142 0.94726 0.27259 0.0
C486 C 0.8479 0.91587 0.27691 0.0
C487 C 0.84341 0.9091 0.25116 0.0
C488 C 0.82681 0.92053 0.23674 0.0
H489 H 0.93868 0.83294 0.1552 0.0
H490 H 0.90409 0.85254 0.16874 0.0
C491 C 0.81582 0.93945 0.24741 0.0
C492 C 0.85822 0.89214 0.23843 0.0
H493 H 0.90445 0.88828 0.19869 0.0
C494 C 0.85618 0.86917 0.24518 0.0
C495 C 0.87549 0.89903 0.22103 0.0
C496 C 0.87852 0.92362 0.21354 0.0
C497 C 0.87128 0.85285 0.23513 0.0
C498 C 0.88918 0.8599 0.21855 0.0
C499 C 0.89071 0.88283 0.2113 0.0
C500 C 0.90756 0.8444 0.20984 0.0
C501 C 0.86785 0.82829 0.24234 0.0
C502 C 0.92074 0.83278 0.22831 0.0
C503 C 0.94035 0.82128 0.22054 0.0
C504 C 0.9474 0.82165 0.19425 0.0
C505 C 0.93372 0.83247 0.17563 0.0
C506 C 0.91394 0.84365 0.18334 0.0
H507 H 0.84977 0.82471 0.24662 0.0
H508 H 0.87366 0.81674 0.22648 0.0
H509 H 0.87762 0.82446 0.2603 0.0
H510 H 0.91658 0.8336 0.24894 0.0
H511 H 0.95065 0.81323 0.23536 0.0
H512 H 0.51844 0.25072 0.19439 0.0
H513 H 0.52773 0.28946 0.20825 0.0
H514 H 0.59772 0.27011 0.21638 0.0
H515 H 0.58876 0.23179 0.20167 0.0
H516 H 0.54518 0.30745 0.25151 0.0
H517 H 0.60363 0.32396 0.16928 0.0
H518 H 0.58543 0.29945 0.17009 0.0
H519 H 0.61216 0.29915 0.18692 0.0
C520 C 0.53579 0.25475 0.19919 0.0
C521 C 0.55293 0.2383 0.19661 0.0
C522 C 0.54107 0.27689 0.20707 0.0
C523 C 0.56353 0.28286 0.21263 0.0
C524 C 0.58042 0.26613 0.21129 0.0
H525 H 0.61829 0.38981 0.30514 0.0
H526 H 0.59807 0.35687 0.28842 0.0
C527 C 0.57524 0.24417 0.20306 0.0
C528 C 0.56949 0.30647 0.22 0.0
H529 H 0.60731 0.34852 0.20666 0.0
C530 C 0.55854 0.31659 0.24149 0.0
C531 C 0.58645 0.31871 0.20648 0.0
C532 C 0.59738 0.30984 0.18174 0.0
C533 C 0.56499 0.33811 0.2507 0.0
C534 C 0.58336 0.34943 0.23859 0.0
C535 C 0.59345 0.33978 0.21626 0.0
C536 C 0.59339 0.37053 0.24946 0.0
C537 C 0.55197 0.34841 0.27324 0.0
C538 C 0.59795 0.38912 0.23308 0.0
C539 C 0.61011 0.40776 0.24244 0.0
C540 C 0.61772 0.40823 0.26844 0.0
C541 C 0.61243 0.39003 0.28508 0.0
C542 C 0.60065 0.37124 0.27559 0.0
H543 H 0.53416 0.34245 0.27338 0.0
H544 H 0.55977 0.34298 0.29193 0.0
H545 H 0.55201 0.36724 0.2724 0.0
H546 H 0.59262 0.38896 0.21283 0.0
H547 H 0.61393 0.42158 0.22921 0.0
H548 H 0.22376 0.5193 0.70896 0.0
H549 H 0.18639 0.52938 0.72652 0.0
H550 H 0.19639 0.59877 0.70254 0.0
H551 H 0.2336 0.58905 0.68524 0.0
H552 H 0.18102 0.59371 0.75451 0.0
H553 H 0.12892 0.54486 0.6836 0.0
H554 H 0.15073 0.5294 0.70039 0.0
H555 H 0.15834 0.55132 0.67768 0.0
C556 C 0.21799 0.5367 0.70741 0.0
C557 C 0.23169 0.55335 0.69564 0.0
C558 C 0.19659 0.54238 0.71732 0.0
C559 C 0.18858 0.56476 0.71555 0.0
C560 C 0.20226 0.58139 0.70401 0.0
H561 H 0.06155 0.63277 0.72747 0.0
H562 H 0.0956 0.6122 0.71381 0.0
C563 C 0.22355 0.57576 0.69412 0.0
C564 C 0.16615 0.57129 0.72613 0.0
H565 H 0.10938 0.56578 0.71598 0.0
C566 C 0.16533 0.58745 0.7463 0.0
C567 C 0.14579 0.56321 0.71513 0.0
C568 C 0.14582 0.54635 0.69287 0.0
C569 C 0.14468 0.59615 0.75545 0.0
C570 C 0.12429 0.58815 0.7444 0.0
C571 C 0.12507 0.57169 0.72452 0.0
C572 C 0.10217 0.59798 0.75205 0.0
C573 C 0.14492 0.61451 0.7761 0.0
C574 C 0.09419 0.59613 0.77784 0.0
C575 C 0.07482 0.60794 0.78574 0.0
C576 C 0.06304 0.6217 0.76791 0.0
C577 C 0.07033 0.62242 0.7417 0.0
C578 C 0.08974 0.61065 0.73385 0.0
H579 H 0.16201 0.62201 0.77855 0.0
H580 H 0.13288 0.62831 0.77112 0.0
H581 H 0.13966 0.60718 0.79516 0.0
H582 H 0.10335 0.5861 0.79205 0.0
H583 H 0.06951 0.60687 0.80601 0.0
H584 H 0.84993 0.08171 0.3065 0.0
H585 H 0.86804 0.11628 0.29064 0.0
H586 H 0.86932 0.08878 0.21231 0.0
H587 H 0.85014 0.05453 0.2279 0.0
H588 H 0.90642 0.12699 0.2672 0.0
H589 H 0.83531 0.14638 0.20035 0.0
H590 H 0.83405 0.12367 0.22386 0.0
H591 H 0.84874 0.11976 0.19323 0.0
C592 C 0.85422 0.08295 0.28592 0.0
C593 C 0.84833 0.06558 0.26834 0.0
C594 C 0.8646 0.10272 0.27688 0.0
C595 C 0.86953 0.10539 0.25017 0.0
C596 C 0.86501 0.08741 0.23286 0.0
H597 H 0.94691 0.2221 0.19154 0.0
H598 H 0.93633 0.18429 0.20716 0.0
C599 C 0.85422 0.06779 0.24181 0.0
C600 C 0.87837 0.1274 0.24046 0.0
H601 H 0.86689 0.1707 0.19828 0.0
C602 C 0.8978 0.13658 0.25212 0.0
C603 C 0.86688 0.14007 0.22108 0.0
C604 C 0.84498 0.1321 0.20909 0.0
C605 C 0.90594 0.15813 0.24512 0.0
C606 C 0.89476 0.17051 0.22528 0.0
C607 C 0.87552 0.16117 0.2134 0.0
C608 C 0.90191 0.19361 0.21715 0.0
C609 C 0.9259 0.16769 0.25975 0.0
C610 C 0.88603 0.21136 0.21711 0.0
C611 C 0.89186 0.23274 0.20758 0.0
C612 C 0.91381 0.23694 0.19822 0.0
C613 C 0.92993 0.21939 0.19892 0.0
C614 C 0.92394 0.19781 0.20799 0.0
H615 H 0.92814 0.15929 0.27902 0.0
H616 H 0.94151 0.16475 0.24811 0.0
H617 H 0.92398 0.18622 0.26303 0.0
H618 H 0.86894 0.20858 0.22411 0.0
H619 H 0.87911 0.24597 0.2074 0.0
H620 H 0.23481 0.88157 0.69765 0.0
H621 H 0.27142 0.87309 0.71695 0.0
H622 H 0.28171 0.94418 0.73304 0.0
H623 H 0.2449 0.95299 0.71347 0.0
H624 H 0.31925 0.92195 0.70883 0.0
H625 H 0.28804 0.87446 0.79506 0.0
H626 H 0.27604 0.86459 0.76491 0.0
H627 H 0.2701 0.89297 0.77609 0.0
C628 C 0.24472 0.89546 0.70539 0.0
C629 C 0.23684 0.91798 0.70407 0.0
C630 C 0.26562 0.89054 0.71656 0.0
C631 C 0.27909 0.90796 0.72675 0.0
C632 C 0.27144 0.93049 0.72542 0.0
H633 H 0.39866 0.86379 0.81312 0.0
H634 H 0.36546 0.88613 0.80084 0.0
C635 C 0.25041 0.93546 0.71429 0.0
C636 C 0.30148 0.9024 0.73791 0.0
H637 H 0.32677 0.86813 0.78284 0.0
C638 C 0.32097 0.91049 0.72529 0.0
C639 C 0.30365 0.88775 0.75963 0.0
C640 C 0.28334 0.87961 0.77489 0.0
C641 C 0.34259 0.90322 0.73291 0.0
C642 C 0.34465 0.88723 0.75339 0.0
C643 C 0.3252 0.88021 0.76695 0.0
C644 C 0.36648 0.8763 0.76002 0.0
C645 C 0.36298 0.91252 0.71874 0.0
C646 C 0.37823 0.86358 0.74108 0.0
C647 C 0.39724 0.85086 0.74802 0.0
C648 C 0.40467 0.85041 0.77411 0.0
C649 C 0.39332 0.86375 0.79287 0.0
C650 C 0.37436 0.87653 0.78589 0.0
H651 H 0.3594 0.92951 0.71029 0.0
H652 H 0.37775 0.9139 0.73198 0.0
H653 H 0.36751 0.90095 0.70237 0.0
H654 H 0.37217 0.8627 0.72114 0.0
H655 H 0.40557 0.8407 0.73313 0.0
H656 H 0.59038 0.23492 0.78544 0.0
H657 H 0.59905 0.1977 0.76699 0.0
H658 H 0.52887 0.18835 0.74732 0.0
H659 H 0.51988 0.22571 0.76593 0.0
H660 H 0.55006 0.15017 0.77259 0.0
H661 H 0.59982 0.18179 0.68806 0.0
H662 H 0.60857 0.19346 0.71889 0.0
H663 H 0.5808 0.19971 0.70662 0.0
C664 C 0.57673 0.22504 0.77716 0.0
C665 C 0.55443 0.23338 0.77706 0.0
C666 C 0.58176 0.2038 0.76652 0.0
C667 C 0.56465 0.19046 0.7555 0.0
C668 C 0.54232 0.1985 0.75562 0.0
H669 H 0.60487 0.07122 0.66482 0.0
H670 H 0.58395 0.10492 0.67908 0.0
C671 C 0.53724 0.21985 0.76621 0.0
C672 C 0.57029 0.16801 0.74421 0.0
H673 H 0.60417 0.14256 0.69864 0.0
C674 C 0.56165 0.14844 0.7562 0.0
C675 C 0.58513 0.16586 0.72259 0.0
C676 C 0.59397 0.18632 0.7081 0.0
C677 C 0.56836 0.12669 0.7479 0.0
C678 C 0.58431 0.1246 0.72732 0.0
C679 C 0.59208 0.14418 0.71455 0.0
C680 C 0.59426 0.10247 0.71956 0.0
C681 C 0.55846 0.10621 0.76134 0.0
C682 C 0.60672 0.08972 0.73768 0.0
C683 C 0.61865 0.07043 0.72961 0.0
C684 C 0.61852 0.06369 0.7032 0.0
C685 C 0.60534 0.076 0.68529 0.0
C686 C 0.59338 0.09526 0.6934 0.0
H687 H 0.5418 0.11018 0.77039 0.0
H688 H 0.55635 0.09186 0.74744 0.0
H689 H 0.57001 0.10069 0.77717 0.0
H690 H 0.60805 0.09524 0.75784 0.0
H691 H 0.62869 0.06134 0.74386 0.0
H692 H 0.39586 0.60891 0.16361 0.0
H693 H 0.3618 0.58882 0.17789 0.0
H694 H 0.37187 0.613 0.25668 0.0
H695 H 0.40611 0.63286 0.2427 0.0
H696 H 0.35749 0.56701 0.25351 0.0
H697 H 0.3039 0.62523 0.19457 0.0
H698 H 0.32564 0.61042 0.17672 0.0
H699 H 0.33329 0.63095 0.20116 0.0
C700 C 0.39099 0.60972 0.18405 0.0
C701 C 0.40351 0.6227 0.20198 0.0
C702 C 0.37149 0.5983 0.19213 0.0
C703 C 0.36414 0.59979 0.21822 0.0
C704 C 0.37724 0.61174 0.23643 0.0
H705 H 0.23358 0.59019 0.28822 0.0
H706 H 0.27046 0.60039 0.27042 0.0
C707 C 0.39676 0.62312 0.22839 0.0
C708 C 0.3421 0.59016 0.22631 0.0
H709 H 0.2852 0.59661 0.21823 0.0
C710 C 0.34166 0.57331 0.24569 0.0
C711 C 0.32152 0.59865 0.21622 0.0
C712 C 0.32096 0.61744 0.19617 0.0
C713 C 0.3211 0.56488 0.25548 0.0
C714 C 0.30054 0.57341 0.24539 0.0
C715 C 0.30102 0.59001 0.22576 0.0
C716 C 0.27831 0.56666 0.25624 0.0
C717 C 0.32148 0.54757 0.27719 0.0
C718 C 0.27042 0.5443 0.25397 0.0
C719 C 0.24925 0.53835 0.26417 0.0
C720 C 0.23561 0.55471 0.27672 0.0
C721 C 0.24359 0.57712 0.27873 0.0
C722 C 0.26469 0.58302 0.26855 0.0
H723 H 0.33851 0.54597 0.28611 0.0
H724 H 0.30912 0.55213 0.29275 0.0
H725 H 0.31664 0.53075 0.26919 0.0
H726 H 0.28055 0.53151 0.24415 0.0
H727 H 0.24358 0.52096 0.26221 0.0
H728 H 0.84986 0.39154 0.66355 0.0
H729 H 0.8678 0.35699 0.6797 0.0
H730 H 0.87098 0.38603 0.7572 0.0
H731 H 0.85196 0.42029 0.74136 0.0
H732 H 0.90639 0.34596 0.7021 0.0
H733 H 0.83626 0.32941 0.77189 0.0
H734 H 0.83493 0.35167 0.74783 0.0
H735 H 0.8503 0.35585 0.7778 0.0
C736 C 0.85455 0.39066 0.684 0.0
C737 C 0.84921 0.40846 0.70131 0.0
C738 C 0.86483 0.37089 0.69321 0.0
C739 C 0.87021 0.36866 0.71981 0.0
C740 C 0.86631 0.38706 0.73677 0.0
H741 H 0.94651 0.25083 0.77752 0.0
H742 H 0.93626 0.28884 0.76228 0.0
C743 C 0.85561 0.40669 0.72767 0.0
C744 C 0.87885 0.34666 0.7298 0.0
H745 H 0.86734 0.30433 0.77332 0.0
C746 C 0.89788 0.33684 0.71769 0.0
C747 C 0.8675 0.33459 0.74986 0.0
C748 C 0.846 0.34328 0.76243 0.0
C749 C 0.90572 0.31521 0.72488 0.0
C750 C 0.89467 0.30342 0.74536 0.0
C751 C 0.87587 0.31341 0.7577 0.0
C752 C 0.90148 0.28025 0.75365 0.0
C753 C 0.92518 0.30493 0.70974 0.0
C754 C 0.88527 0.26288 0.75445 0.0
C755 C 0.89093 0.24138 0.76376 0.0
C756 C 0.91302 0.23668 0.77217 0.0
C757 C 0.92941 0.2539 0.77088 0.0
C758 C 0.9236 0.2756 0.76202 0.0
H759 H 0.92724 0.31301 0.69024 0.0
H760 H 0.94107 0.3076 0.72078 0.0
H761 H 0.92278 0.28641 0.70686 0.0
H762 H 0.8681 0.26603 0.74808 0.0
H763 H 0.87796 0.22842 0.76441 0.0
H764 H 0.06185 0.84087 0.24167 0.0
H765 H 0.09531 0.86221 0.25481 0.0
H766 H 0.10559 0.88355 0.17494 0.0
H767 H 0.07235 0.86187 0.16154 0.0
H768 H 0.14308 0.86474 0.19548 0.0
H769 H 0.10925 0.92898 0.26443 0.0
H770 H 0.10024 0.90081 0.27263 0.0
H771 H 0.09138 0.91334 0.24223 0.0
C772 C 0.07098 0.85044 0.22697 0.0
C773 C 0.06453 0.84959 0.20054 0.0
C774 C 0.09002 0.86278 0.23455 0.0
C775 C 0.1028 0.87471 0.21591 0.0
C776 C 0.0959 0.87456 0.18966 0.0
H777 H 0.22389 0.95167 0.2617 0.0
H778 H 0.18709 0.94203 0.24275 0.0
C779 C 0.07691 0.86216 0.18205 0.0
C780 C 0.12462 0.88519 0.22334 0.0
H781 H 0.14917 0.92098 0.26749 0.0
C782 C 0.14436 0.87731 0.21095 0.0
C783 C 0.12629 0.90178 0.2433 0.0
C784 C 0.10563 0.9119 0.25623 0.0
C785 C 0.16578 0.88473 0.21884 0.0
C786 C 0.16751 0.90015 0.23996 0.0
C787 C 0.14777 0.90894 0.2515 0.0
C788 C 0.18968 0.90619 0.25132 0.0
C789 C 0.1864 0.87575 0.20471 0.0
C790 C 0.2031 0.88927 0.26269 0.0
C791 C 0.22403 0.89467 0.2735 0.0
C792 C 0.23196 0.91716 0.27329 0.0
C793 C 0.21834 0.93417 0.26209 0.0
C794 C 0.19731 0.92872 0.2513 0.0
H795 H 0.18218 0.86965 0.18474 0.0
H796 H 0.1997 0.88897 0.20314 0.0
H797 H 0.19344 0.86121 0.21582 0.0
H798 H 0.19731 0.87184 0.26334 0.0
H799 H 0.23397 0.88114 0.28206 0.0
H800 H 0.33679 0.5623 0.74182 0.0
H801 H 0.35636 0.59681 0.75561 0.0
H802 H 0.37951 0.60755 0.67647 0.0
H803 H 0.3597 0.57322 0.66239 0.0
H804 H 0.40183 0.6117 0.75193 0.0
H805 H 0.34304 0.66528 0.69382 0.0
H806 H 0.33766 0.63568 0.7003 0.0
H807 H 0.35788 0.64371 0.6757 0.0
C808 C 0.34625 0.57186 0.72739 0.0
C809 C 0.34645 0.56521 0.70095 0.0
C810 C 0.35746 0.59154 0.73532 0.0
C811 C 0.36903 0.6049 0.71697 0.0
C812 C 0.37031 0.59766 0.69083 0.0
H813 H 0.44699 0.72612 0.76101 0.0
H814 H 0.43657 0.68913 0.7427 0.0
C815 C 0.35906 0.578 0.68286 0.0
C816 C 0.3785 0.62707 0.72501 0.0
H817 H 0.37156 0.68419 0.71722 0.0
C818 C 0.39539 0.62758 0.74423 0.0
C819 C 0.36981 0.64771 0.7151 0.0
C820 C 0.35097 0.64822 0.69525 0.0
C821 C 0.40365 0.64824 0.75403 0.0
C822 C 0.39494 0.66885 0.7441 0.0
C823 C 0.3783 0.66832 0.72463 0.0
C824 C 0.40157 0.69118 0.75495 0.0
C825 C 0.421 0.64787 0.77559 0.0
C826 C 0.38524 0.70473 0.7674 0.0
C827 C 0.39106 0.72585 0.77772 0.0
C828 C 0.41337 0.73393 0.77571 0.0
C829 C 0.42969 0.72039 0.76298 0.0
C830 C 0.42381 0.69919 0.75264 0.0
H831 H 0.42269 0.63077 0.7845 0.0
H832 H 0.43771 0.65278 0.76744 0.0
H833 H 0.4165 0.66024 0.79119 0.0
H834 H 0.36796 0.69887 0.76931 0.0
H835 H 0.37803 0.7358 0.78734 0.0
H836 H 0.8967 0.36584 0.15954 0.0
H837 H 0.86279 0.3868 0.17279 0.0
H838 H 0.87133 0.3636 0.25216 0.0
H839 H 0.90545 0.34296 0.23919 0.0
H840 H 0.8251 0.36684 0.19175 0.0
H841 H 0.85591 0.42996 0.26349 0.0
H842 H 0.87464 0.41513 0.24126 0.0
H843 H 0.86523 0.40173 0.271 0.0
C844 C 0.89162 0.36558 0.17993 0.0
C845 C 0.90369 0.35267 0.19831 0.0
C846 C 0.87224 0.37757 0.18745 0.0
C847 C 0.86465 0.37695 0.2135 0.0
C848 C 0.87714 0.36474 0.23207 0.0
H849 H 0.73153 0.38071 0.27645 0.0
H850 H 0.7686 0.37194 0.258 0.0
C851 C 0.89657 0.35281 0.22459 0.0
C852 C 0.84244 0.38693 0.22067 0.0
H853 H 0.81608 0.42144 0.2651 0.0
C854 C 0.82318 0.37905 0.20753 0.0
C855 C 0.83994 0.40304 0.24105 0.0
C856 C 0.86006 0.41314 0.25483 0.0
C857 C 0.80142 0.38603 0.21502 0.0
C858 C 0.79885 0.40098 0.23649 0.0
C859 C 0.81812 0.40975 0.24883 0.0
C860 C 0.77628 0.40661 0.24734 0.0
C861 C 0.78135 0.3771 0.20007 0.0
C862 C 0.76849 0.42911 0.24792 0.0
C863 C 0.74723 0.43424 0.25854 0.0
C864 C 0.73353 0.41694 0.269 0.0
C865 C 0.74154 0.39445 0.26848 0.0
C866 C 0.7627 0.38936 0.25782 0.0
H867 H 0.78624 0.37149 0.18006 0.0
H868 H 0.77426 0.36223 0.21055 0.0
H869 H 0.76789 0.39018 0.19849 0.0
H870 H 0.77882 0.44266 0.24005 0.0
H871 H 0.74164 0.45175 0.25874 0.0
H872 H 0.08997 0.73011 0.77002 0.0
H873 H 0.1 0.76798 0.75475 0.0
H874 H 0.03029 0.78893 0.76152 0.0
H875 H 0.01994 0.75066 0.77595 0.0
H876 H 0.04888 0.80552 0.71796 0.0
H877 H 0.10611 0.82268 0.80079 0.0
H878 H 0.11442 0.79742 0.78368 0.0
H879 H 0.08746 0.79851 0.80022 0.0
C880 C 0.07674 0.74275 0.76823 0.0
C881 C 0.05419 0.73746 0.77444 0.0
C882 C 0.08253 0.76445 0.75967 0.0
C883 C 0.06601 0.78149 0.75773 0.0
C884 C 0.04335 0.7761 0.76313 0.0
H885 H 0.1163 0.92006 0.74098 0.0
H886 H 0.09511 0.88718 0.75689 0.0
C887 C 0.03747 0.75424 0.77135 0.0
C888 C 0.07253 0.80482 0.74991 0.0
H889 H 0.11036 0.84682 0.76331 0.0
C890 C 0.06212 0.8147 0.72806 0.0
C891 C 0.08936 0.8171 0.7635 0.0
C892 C 0.09978 0.80848 0.78852 0.0
C893 C 0.06889 0.83605 0.71868 0.0
C894 C 0.08702 0.84746 0.73101 0.0
C895 C 0.09667 0.83801 0.75358 0.0
C896 C 0.09711 0.8686 0.72033 0.0
C897 C 0.05641 0.84612 0.69576 0.0
C898 C 0.10503 0.8693 0.69438 0.0
C899 C 0.11675 0.88824 0.68514 0.0
C900 C 0.12131 0.9066 0.70188 0.0
C901 C 0.11306 0.90611 0.72768 0.0
C902 C 0.10097 0.88733 0.73677 0.0
H903 H 0.03866 0.84002 0.69511 0.0
H904 H 0.05627 0.86495 0.69656 0.0
H905 H 0.06479 0.84069 0.6773 0.0
H906 H 0.10295 0.85484 0.68152 0.0
H907 H 0.12312 0.88803 0.66523 0.0
H908 H 0.56227 0.13295 0.24398 0.0
H909 H 0.59665 0.1136 0.25846 0.0
H910 H 0.6089 0.09012 0.17969 0.0
H911 H 0.5747 0.10965 0.16493 0.0
H912 H 0.61225 0.06775 0.255 0.0
H913 H 0.66554 0.12774 0.1979 0.0
H914 H 0.6359 0.13278 0.20412 0.0
H915 H 0.6445 0.11277 0.17943 0.0
C916 C 0.57213 0.12345 0.22978 0.0
C917 C 0.56595 0.12308 0.20324 0.0
C918 C 0.59173 0.11237 0.2381 0.0
C919 C 0.60548 0.10078 0.22005 0.0
C920 C 0.5987 0.09932 0.19382 0.0
H921 H 0.72667 0.02262 0.26215 0.0
H922 H 0.68949 0.0333 0.24507 0.0
C923 C 0.57912 0.11041 0.18546 0.0
C924 C 0.62759 0.09152 0.22842 0.0
H925 H 0.68448 0.09893 0.22102 0.0
C926 C 0.62807 0.07442 0.24749 0.0
C927 C 0.64815 0.10051 0.21876 0.0
C928 C 0.64864 0.11959 0.19908 0.0
C929 C 0.64866 0.06613 0.25729 0.0
C930 C 0.66919 0.07507 0.24753 0.0
C931 C 0.66868 0.09202 0.2283 0.0
C932 C 0.69144 0.0682 0.25812 0.0
C933 C 0.64829 0.04844 0.27859 0.0
C934 C 0.70495 0.08437 0.27071 0.0
C935 C 0.72618 0.0784 0.28034 0.0
C936 C 0.73441 0.0561 0.27748 0.0
C937 C 0.72083 0.03991 0.26477 0.0
C938 C 0.69953 0.04594 0.25512 0.0
H939 H 0.63122 0.04663 0.28751 0.0
H940 H 0.65327 0.03177 0.27019 0.0
H941 H 0.66054 0.05276 0.29423 0.0
H942 H 0.69903 0.10166 0.27314 0.0
H943 H 0.73613 0.09133 0.28999 0.0
H944 H 0.44883 0.74586 0.20753 0.0
H945 H 0.43889 0.78303 0.226 0.0
H946 H 0.36913 0.77223 0.20536 0.0
H947 H 0.37874 0.7352 0.18706 0.0
H948 H 0.41724 0.82076 0.20048 0.0
H949 H 0.36716 0.78812 0.28424 0.0
H950 H 0.38671 0.77058 0.26594 0.0
H951 H 0.35897 0.77632 0.25327 0.0
C952 C 0.43136 0.75136 0.20701 0.0
C953 C 0.41456 0.73747 0.19594 0.0
C954 C 0.42574 0.7726 0.21751 0.0
C955 C 0.40324 0.78018 0.21734 0.0
C956 C 0.38653 0.76649 0.20608 0.0
H957 H 0.33714 0.90852 0.22858 0.0
H958 H 0.3581 0.87476 0.2147 0.0
C959 C 0.3921 0.74535 0.19553 0.0
C960 C 0.39703 0.80251 0.22855 0.0
H961 H 0.36223 0.82728 0.27368 0.0
C962 C 0.40544 0.82225 0.2167 0.0
C963 C 0.38193 0.80436 0.24995 0.0
C964 C 0.37331 0.78373 0.26429 0.0
C965 C 0.39825 0.84386 0.22495 0.0
C966 C 0.38206 0.84564 0.24531 0.0
C967 C 0.37451 0.8259 0.25793 0.0
C968 C 0.37174 0.8676 0.25307 0.0
C969 C 0.40794 0.86455 0.2117 0.0
C970 C 0.3724 0.87477 0.27925 0.0
C971 C 0.36027 0.89393 0.2873 0.0
C972 C 0.34714 0.90619 0.2693 0.0
C973 C 0.34715 0.89946 0.2429 0.0
C974 C 0.35926 0.88026 0.23489 0.0
H975 H 0.42472 0.86086 0.20278 0.0
H976 H 0.39641 0.86996 0.1958 0.0
H977 H 0.40974 0.87886 0.22569 0.0
H978 H 0.38184 0.86517 0.29362 0.0
H979 H 0.36063 0.89872 0.30777 0.0
H980 H 0.73735 0.38118 0.6837 0.0
H981 H 0.70049 0.37069 0.70133 0.0
H982 H 0.68996 0.43938 0.72803 0.0
H983 H 0.7269 0.45023 0.71013 0.0
H984 H 0.68588 0.37403 0.75347 0.0
H985 H 0.63195 0.42478 0.68638 0.0
H986 H 0.66137 0.41891 0.67956 0.0
H987 H 0.65373 0.4401 0.70331 0.0
C988 C 0.72724 0.39415 0.69323 0.0
C989 C 0.73511 0.41659 0.69544 0.0
C990 C 0.70616 0.38808 0.70331 0.0
C991 C 0.69242 0.4043 0.71572 0.0
C992 C 0.70017 0.4267 0.71813 0.0
H993 H 0.57579 0.36178 0.80956 0.0
H994 H 0.60981 0.38168 0.7948 0.0
C995 C 0.72133 0.43282 0.70802 0.0
C996 C 0.67028 0.39734 0.72663 0.0
H997 H 0.61325 0.40368 0.71918 0.0
C998 C 0.66998 0.38063 0.74614 0.0
C999 C 0.64962 0.40586 0.7168 0.0
C1000 C 0.64902 0.42328 0.69521 0.0
C1001 C 0.64958 0.37191 0.75584 0.0
C1002 C 0.6289 0.38044 0.74607 0.0
C1003 C 0.62916 0.39736 0.72677 0.0
C1004 C 0.60694 0.37084 0.75448 0.0
C1005 C 0.65034 0.35303 0.77577 0.0
C1006 C 0.59355 0.359 0.73645 0.0
C1007 C 0.57405 0.34772 0.74476 0.0
C1008 C 0.56759 0.34813 0.77127 0.0
C1009 C 0.58043 0.36098 0.78904 0.0
C1010 C 0.5999 0.37229 0.78069 0.0
H1011 H 0.66739 0.34518 0.77704 0.0
H1012 H 0.64593 0.35997 0.79534 0.0
H1013 H 0.63791 0.33958 0.77092 0.0
H1014 H 0.59867 0.35776 0.71611 0.0
H1015 H 0.56446 0.33808 0.73057 0.0
H1016 H 0.10673 0.57098 0.3118 0.0
H1017 H 0.08527 0.60465 0.29887 0.0
H1018 H 0.109 0.5967 0.21944 0.0
H1019 H 0.13016 0.56284 0.23208 0.0
H1020 H 0.10427 0.64306 0.28002 0.0
H1021 H 0.0425 0.61031 0.20831 0.0
H1022 H 0.05762 0.59197 0.23051 0.0
H1023 H 0.07085 0.60156 0.20074 0.0
C1024 C 0.10703 0.57614 0.29147 0.0
C1025 C 0.12021 0.56429 0.27297 0.0
C1026 C 0.09476 0.59539 0.28412 0.0
C1027 C 0.09532 0.60304 0.25814 0.0
C1028 C 0.10789 0.59082 0.23947 0.0
H1029 H 0.09014 0.73543 0.19422 0.0
H1030 H 0.09898 0.69864 0.21333 0.0
C1031 C 0.12012 0.57155 0.24677 0.0
C1032 C 0.08484 0.62505 0.25108 0.0
H1033 H 0.05028 0.65046 0.20646 0.0
C1034 C 0.09218 0.64463 0.26421 0.0
C1035 C 0.06886 0.62708 0.23068 0.0
C1036 C 0.05932 0.60657 0.21693 0.0
C1037 C 0.08487 0.66627 0.25661 0.0
C1038 C 0.07012 0.66838 0.23505 0.0
C1039 C 0.06182 0.64878 0.22279 0.0
C1040 C 0.06441 0.69082 0.22388 0.0
C1041 C 0.09328 0.68671 0.27147 0.0
C1042 C 0.04194 0.69842 0.22303 0.0
C1043 C 0.03676 0.71954 0.21202 0.0
C1044 C 0.05398 0.73325 0.20145 0.0
C1045 C 0.07645 0.72541 0.20225 0.0
C1046 C 0.08158 0.70441 0.2133 0.0
H1047 H 0.09871 0.68211 0.29157 0.0
H1048 H 0.10811 0.69394 0.26106 0.0
H1049 H 0.08003 0.70005 0.27283 0.0
H1050 H 0.02844 0.68807 0.23096 0.0
H1051 H 0.01927 0.72501 0.21161 0.0
H1052 H 0.89618 0.10722 0.8063 0.0
H1053 H 0.86251 0.08634 0.79269 0.0
H1054 H 0.87109 0.11109 0.7139 0.0
H1055 H 0.90496 0.13171 0.72723 0.0
H1056 H 0.82456 0.10659 0.77396 0.0
H1057 H 0.85685 0.04443 0.70144 0.0
H1058 H 0.87513 0.05906 0.72411 0.0
H1059 H 0.86588 0.07289 0.69465 0.0
C1060 C 0.89116 0.10786 0.78595 0.0
C1061 C 0.90318 0.1212 0.76785 0.0
C1062 C 0.87191 0.09593 0.77822 0.0
C1063 C 0.86441 0.09697 0.75224 0.0
C1064 C 0.87683 0.10963 0.73392 0.0
H1065 H 0.73123 0.09059 0.68992 0.0
H1066 H 0.76825 0.10029 0.70746 0.0
C1067 C 0.89612 0.12155 0.74162 0.0
C1068 C 0.84239 0.08686 0.74491 0.0
H1069 H 0.8169 0.05205 0.70045 0.0
C1070 C 0.82293 0.09443 0.75812 0.0
C1071 C 0.84029 0.07082 0.72443 0.0
C1072 C 0.86068 0.06114 0.71051 0.0
C1073 C 0.80134 0.08712 0.75069 0.0
C1074 C 0.79916 0.07213 0.72922 0.0
C1075 C 0.81864 0.06375 0.71673 0.0
C1076 C 0.77674 0.06594 0.71867 0.0
C1077 C 0.78103 0.09569 0.76572 0.0
C1078 C 0.76943 0.0433 0.71871 0.0
C1079 C 0.7482 0.03764 0.70863 0.0
C1080 C 0.73405 0.05453 0.69812 0.0
C1081 C 0.7416 0.07715 0.69795 0.0
C1082 C 0.76274 0.08277 0.70807 0.0
H1083 H 0.78573 0.10167 0.7856 0.0
H1084 H 0.77346 0.11022 0.75506 0.0
H1085 H 0.76797 0.08227 0.76762 0.0
H1086 H 0.78009 0.03006 0.72668 0.0
H1087 H 0.74296 0.02004 0.70895 0.0
H1088 H 0.48566 0.20261 0.09694 0.0
H1089 H 0.47364 0.21962 0.05548 0.0
H1090 H 0.53641 0.19871 0.01952 0.0
H1091 H 0.54848 0.18169 0.06054 0.0
H1092 H 0.49677 0.25472 0.03047 0.0
H1093 H 0.48955 0.18064 0.96464 0.0
H1094 H 0.48923 0.17804 -0.00011 0.0
H1095 H 0.51564 0.18023 0.98242 0.0
C1096 C 0.49671 0.20127 0.08006 0.0
C1097 C 0.51807 0.19085 0.08206 0.0
C1098 C 0.48981 0.21101 0.05642 0.0
C1099 C 0.50399 0.21013 0.03436 0.0
C1100 C 0.52499 0.19914 0.03614 0.0
H1101 H 0.54674 0.29185 0.91437 0.0
H1102 H 0.53466 0.2746 0.95533 0.0
C1103 C 0.53195 0.18958 0.05971 0.0
C1104 C 0.49829 0.22264 0.01018 0.0
H1105 H 0.49844 0.21663 0.94381 0.0
C1106 C 0.49652 0.24637 0.01153 0.0
C1107 C 0.49755 0.21173 -0.01446 0.0
C1108 C 0.49785 0.18622 0.98303 0.0
C1109 C 0.49611 0.25957 -0.01127 0.0
C1110 C 0.49779 0.24873 0.96409 0.0
C1111 C 0.49744 0.22494 0.96274 0.0
C1112 C 0.5032 0.26152 0.93999 0.0
C1113 C 0.49488 0.28505 -0.00877 0.0
C1114 C 0.48954 0.25984 0.91768 0.0
C1115 C 0.49645 0.26972 0.89407 0.0
C1116 C 0.51732 0.28106 0.89236 0.0
C1117 C 0.5306 0.28321 0.91498 0.0
C1118 C 0.52362 0.27353 0.93851 0.0
H1119 H 0.48596 0.29016 0.0095 0.0
H1120 H 0.51229 0.29201 -0.00791 0.0
H1121 H 0.48609 0.29277 0.97426 0.0
H1122 H 0.47383 0.25043 0.91839 0.0
H1123 H 0.48589 0.2677 0.87696 0.0
H1124 H 0.18137 0.54421 0.41316 0.0
H1125 H 0.19898 0.53166 0.45356 0.0
H1126 H 0.21841 0.46863 0.4167 0.0
H1127 H 0.20092 0.48123 0.37569 0.0
H1128 H 0.19269 0.49263 0.48545 0.0
H1129 H 0.27882 0.49717 0.44091 0.0
H1130 H 0.25451 0.50959 0.42519 0.0
H1131 H 0.25809 0.47935 0.42547 0.0
C1132 C 0.18919 0.52758 0.41358 0.0
C1133 C 0.18999 0.51385 0.39107 0.0
C1134 C 0.19916 0.52038 0.43678 0.0
C1135 C 0.2102 0.49935 0.43801 0.0
C1136 C 0.21019 0.48506 0.416 0.0
H1137 H 0.26898 0.4817 0.59594 0.0
H1138 H 0.25192 0.46885 0.55479 0.0
C1139 C 0.20012 0.49225 0.39266 0.0
C1140 C 0.22293 0.49363 0.46198 0.0
H1141 H 0.2765 0.49456 0.48649 0.0
C1142 C 0.21102 0.49241 0.48574 0.0
C1143 C 0.24684 0.49345 0.46213 0.0
C1144 C 0.26045 0.49505 0.43715 0.0
C1145 C 0.22237 0.49275 0.5098 0.0
C1146 C 0.24625 0.49405 0.50996 0.0
C1147 C 0.2582 0.49351 0.48619 0.0
C1148 C 0.2587 0.50009 0.53403 0.0
C1149 C 0.2087 0.49359 0.53479 0.0
C1150 C 0.2688 0.52155 0.53563 0.0
C1151 C 0.27855 0.52889 0.55891 0.0
C1152 C 0.27845 0.51489 0.58116 0.0
C1153 C 0.26922 0.49294 0.5792 0.0
C1154 C 0.2594 0.48559 0.55577 0.0
H1155 H 0.19026 0.49496 0.53105 0.0
H1156 H 0.21177 0.47791 0.54624 0.0
H1157 H 0.21397 0.50827 0.54697 0.0
H1158 H 0.26844 0.53299 0.51905 0.0
H1159 H 0.28565 0.54581 0.55962 0.0
H1160 H 0.9177 0.2865 0.06011 0.0
H1161 H 0.92917 0.26875 0.01909 0.0
H1162 H -0.00594 0.25204 0.0521 0.0
H1163 H 0.98265 0.26974 0.09366 0.0
H1164 H 0.96764 0.27706 -0.01461 0.0
H1165 H 0.96626 0.19017 0.02851 0.0
H1166 H 0.95311 0.21403 0.04476 0.0
H1167 H 0.98333 0.21154 0.04404 0.0
C1168 C 0.93449 0.27922 0.05871 0.0
C1169 C 0.94917 0.27935 0.08027 0.0
C1170 C 0.94105 0.26916 0.03518 0.0
C1171 C 0.96236 0.25893 0.03269 0.0
C1172 C 0.97745 0.25967 0.05379 0.0
H1173 H 0.9829 0.20136 0.87404 0.0
H1174 H -0.00573 0.21863 0.91571 0.0
C1175 C 0.97091 0.26985 0.07744 0.0
C1176 C 0.96779 0.24648 0.00831 0.0
H1177 H 0.96849 0.1929 0.98287 0.0
C1178 C 0.96843 0.25867 0.98476 0.0
C1179 C 0.96869 0.22251 0.00773 0.0
C1180 C 0.96773 0.20865 0.03252 0.0
C1181 C 0.96846 0.24746 0.96051 0.0
C1182 C 0.96805 0.22347 0.95993 0.0
C1183 C 0.96891 0.21129 0.98348 0.0
C1184 C 0.96284 0.21097 0.93558 0.0
C1185 C 0.9672 0.26133 0.93575 0.0
C1186 C 0.94175 0.20035 0.93333 0.0
C1187 C 0.93523 0.19053 0.90972 0.0
C1188 C 0.94972 0.19103 0.88785 0.0
C1189 C 0.97131 0.20077 0.89049 0.0
C1190 C 0.97781 0.21071 0.91421 0.0
H1191 H 0.96523 0.27976 0.9398 0.0
H1192 H 0.98291 0.25882 0.92416 0.0
H1193 H 0.95277 0.25564 0.92356 0.0
H1194 H 0.92997 0.20037 0.94963 0.0
H1195 H 0.91856 0.18302 0.90848 0.0
H1196 H 0.28733 0.92345 0.41068 0.0
H1197 H 0.27061 0.93515 0.45216 0.0
H1198 H 0.24978 -0.00138 0.41788 0.0
H1199 H 0.26646 -0.01306 0.37584 0.0
H1200 H 0.27757 0.97475 0.48458 0.0
H1201 H 0.19032 0.96796 0.44427 0.0
H1202 H 0.21439 0.9558 0.42751 0.0
H1203 H 0.21034 -0.01403 0.42776 0.0
C1204 C 0.27939 0.94 0.4119 0.0
C1205 C 0.278 0.95415 0.38984 0.0
C1206 C 0.26993 0.9467 0.4357 0.0
C1207 C 0.2588 0.96763 0.43798 0.0
C1208 C 0.25814 0.9823 0.41638 0.0
H1209 H 0.20221 -0.01383 0.59762 0.0
H1210 H 0.21868 -0.00174 0.55572 0.0
C1211 C 0.26773 0.97562 0.39245 0.0
C1212 C 0.24667 0.97287 0.46263 0.0
H1213 H 0.19393 0.97045 0.48977 0.0
C1214 C 0.25926 0.97446 0.48577 0.0
C1215 C 0.2228 0.97235 0.46396 0.0
C1216 C 0.20853 0.97034 0.43965 0.0
C1217 C 0.24864 0.97398 0.51037 0.0
C1218 C 0.22484 0.97202 0.51171 0.0
C1219 C 0.21218 0.97203 0.48856 0.0
C1220 C 0.21327 0.96602 0.53643 0.0
C1221 C 0.26299 0.97377 0.53472 0.0
C1222 C 0.20434 0.94414 0.53914 0.0
C1223 C 0.19501 0.93719 0.56287 0.0
C1224 C 0.19431 0.95204 0.58443 0.0
C1225 C 0.20257 0.97429 0.58141 0.0
C1226 C 0.21203 0.98122 0.55756 0.0
H1227 H 0.28137 0.97333 0.53014 0.0
H1228 H 0.25943 -0.01076 0.54648 0.0
H1229 H 0.25875 0.95881 0.54698 0.0
H1230 H 0.20517 0.93217 0.52303 0.0
H1231 H 0.18868 0.92 0.5644 0.0
H1232 H 0.48674 0.76762 0.87527 0.0
H1233 H 0.49943 0.74997 0.91618 0.0
H1234 H 0.43641 0.76858 0.95319 0.0
H1235 H 0.42374 0.78634 0.91289 0.0
H1236 H 0.47543 0.77552 0.98484 0.0
H1237 H 0.47168 0.68892 0.94079 0.0
H1238 H 0.48904 0.70996 0.92507 0.0
H1239 H 0.45887 0.71313 0.9251 0.0
C1240 C 0.47572 0.76819 0.89224 0.0
C1241 C 0.45412 0.77817 0.89073 0.0
C1242 C 0.48297 0.75803 0.91552 0.0
C1243 C 0.46873 0.75777 0.93756 0.0
C1244 C 0.44764 0.7686 0.93638 0.0
H1245 H 0.42338 0.68222 0.05991 0.0
H1246 H 0.43605 0.69923 0.01908 0.0
C1247 C 0.44039 0.77866 0.91325 0.0
C1248 C 0.47464 0.7451 0.96155 0.0
H1249 H 0.47431 0.69137 -0.01365 0.0
C1250 C 0.47583 0.75712 0.98523 0.0
C1251 C 0.47506 0.7211 0.96183 0.0
C1252 C 0.47351 0.70738 0.93693 0.0
C1253 C 0.4757 0.74578 0.00935 0.0
C1254 C 0.47464 0.7218 0.00966 0.0
C1255 C 0.47519 0.70976 -0.01405 0.0
C1256 C 0.46876 0.70932 0.03384 0.0
C1257 C 0.47482 0.75956 0.03427 0.0
C1258 C 0.48323 0.70885 0.05554 0.0
C1259 C 0.47597 0.69914 0.07912 0.0
C1260 C 0.45414 0.6898 0.08127 0.0
C1261 C 0.4402 0.68942 0.05905 0.0
C1262 C 0.44746 0.69905 0.03562 0.0
H1263 H 0.47329 0.77806 0.03043 0.0
H1264 H 0.46028 0.75418 0.04658 0.0
H1265 H 0.4905 0.75664 0.04564 0.0
H1266 H 0.49985 0.71646 0.05442 0.0
H1267 H 0.48716 0.6996 0.09584 0.0
H1268 H 0.80932 0.43635 0.55907 0.0
H1269 H 0.79315 0.44401 0.51607 0.0
H1270 H 0.73696 0.47862 0.55288 0.0
H1271 H 0.754 0.47223 0.59583 0.0
H1272 H 0.75678 0.42604 0.50086 0.0
H1273 H 0.74477 0.51863 0.49133 0.0
H1274 H 0.7622 0.50639 0.51656 0.0
H1275 H 0.73199 0.50833 0.52085 0.0
C1276 C 0.79388 0.4462 0.55784 0.0
C1277 C 0.78284 0.4537 0.58062 0.0
C1278 C 0.78462 0.45056 0.53331 0.0
C1279 C 0.76384 0.46199 0.5311 0.0
C1280 C 0.75328 0.47033 0.55389 0.0
H1281 H 0.67056 0.42554 0.40965 0.0
H1282 H 0.68962 0.43316 0.45104 0.0
C1283 C 0.76292 0.46652 0.57846 0.0
C1284 C 0.75187 0.4621 0.50559 0.0
H1285 H 0.72199 0.49514 0.46298 0.0
C1286 C 0.74949 0.44127 0.49249 0.0
C1287 C 0.74242 0.48194 0.49441 0.0
C1288 C 0.74569 0.5051 0.50641 0.0
C1289 C 0.73769 0.4396 0.46891 0.0
C1290 C 0.72699 0.45911 0.45862 0.0
C1291 C 0.72981 0.48011 0.47122 0.0
C1292 C 0.71292 0.45772 0.43476 0.0
C1293 C 0.73712 0.41689 0.45513 0.0
C1294 C 0.71859 0.47024 0.41233 0.0
C1295 C 0.7073 0.46631 0.38873 0.0
C1296 C 0.6904 0.44961 0.38727 0.0
C1297 C 0.68379 0.43822 0.41015 0.0
C1298 C 0.69473 0.44249 0.43376 0.0
H1299 H 0.75161 0.406 0.46094 0.0
H1300 H 0.72136 0.40784 0.46058 0.0
H1301 H 0.73753 0.41894 0.43354 0.0
H1302 H 0.73246 0.48222 0.41275 0.0
H1303 H 0.71268 0.47535 0.37136 0.0
H1304 H -0.01465 0.76697 0.09689 0.0
H1305 H 0.97342 0.74986 0.05533 0.0
H1306 H 0.03832 0.76573 0.02134 0.0
H1307 H 0.0503 0.78288 0.06236 0.0
H1308 H -0.00025 0.77526 -0.01144 0.0
H1309 H 2e-05 0.68777 0.03009 0.0
H1310 H 0.98343 0.7093 0.0463 0.0
H1311 H 0.01369 0.71113 0.04652 0.0
C1312 C -0.00302 0.767 0.08047 0.0
C1313 C 0.01886 0.77611 0.08301 0.0
C1314 C -0.00985 0.75717 0.05681 0.0
C1315 C 0.00508 0.75638 0.03542 0.0
C1316 C 0.02656 0.76619 0.03765 0.0
H1317 H 0.04769 0.68158 0.90962 0.0
H1318 H 0.03636 0.69845 0.95117 0.0
C1319 C 0.03341 0.7759 0.06119 0.0
C1320 C -0.00072 0.74438 0.01093 0.0
H1321 H -0.00222 0.69117 0.98453 0.0
C1322 C -0.0013 0.7569 -0.01239 0.0
C1323 C -0.00196 0.72043 0.00993 0.0
C1324 C -0.0011 0.70622 0.03445 0.0
C1325 C -0.00155 0.74603 0.96316 0.0
C1326 C -0.00143 0.72204 0.96214 0.0
C1327 C -0.00241 0.70956 -0.01452 0.0
C1328 C 0.00366 0.7098 0.93752 0.0
C1329 C -0.00017 0.76021 0.93864 0.0
C1330 C -0.01124 0.71012 0.91623 0.0
C1331 C -0.00478 0.70046 0.89227 0.0
C1332 C 0.01671 0.69042 0.88932 0.0
C1333 C 0.03111 0.68933 0.9111 0.0
C1334 C 0.02462 0.69888 0.93493 0.0
H1335 H 0.00202 0.77856 0.94301 0.0
H1336 H 0.01418 0.75447 0.92619 0.0
H1337 H 0.98407 0.75811 0.9272 0.0
H1338 H 0.9724 0.71828 0.91798 0.0
H1339 H 0.9837 0.70149 0.87589 0.0
H1340 H 0.71316 -0.00548 0.59932 0.0
H1341 H 0.73334 -0.01252 0.55802 0.0
H1342 H 0.68855 0.0339 0.51851 0.0
H1343 H 0.66901 0.04168 0.55977 0.0
H1344 H 0.72351 0.97339 0.50747 0.0
H1345 H 0.74976 0.06354 0.50906 0.0
H1346 H 0.73605 0.05018 0.53656 0.0
H1347 H 0.7196 0.0605 0.50946 0.0
C1348 C 0.70741 0.00289 0.5817 0.0
C1349 C 0.68982 0.01896 0.58277 0.0
C1350 C 0.71893 -0.00114 0.55815 0.0
C1351 C 0.7128 0.01065 0.5354 0.0
C1352 C 0.69394 0.02513 0.53603 0.0
H1353 H 0.75587 -0.00246 0.37465 0.0
H1354 H 0.73881 -0.00966 0.41756 0.0
C1355 C 0.68275 0.02949 0.55957 0.0
C1356 C 0.72719 0.00958 0.51165 0.0
H1357 H 0.75636 0.04341 0.46947 0.0
C1358 C 0.7309 -0.01138 0.4992 0.0
C1359 C 0.73733 0.02938 0.50133 0.0
C1360 C 0.73571 0.05211 0.51495 0.0
C1361 C 0.74384 -0.01289 0.47609 0.0
C1362 C 0.75275 0.00719 0.4649 0.0
C1363 C 0.7495 0.02798 0.47787 0.0
C1364 C 0.76499 0.00762 0.43945 0.0
C1365 C 0.74801 0.96404 0.46417 0.0
C1366 C 0.78543 0.01961 0.43734 0.0
C1367 C 0.79469 0.0244 0.41284 0.0
C1368 C 0.78402 0.0168 0.39 0.0
C1369 C 0.76452 0.00336 0.39206 0.0
C1370 C 0.75486 -0.00091 0.41661 0.0
H1371 H 0.74732 0.95051 0.47926 0.0
H1372 H 0.73462 0.96041 0.44962 0.0
H1373 H 0.76468 0.96322 0.45415 0.0
H1374 H 0.79361 0.02631 0.45464 0.0
H1375 H 0.80981 0.03472 0.4117 0.0
loop_
_geom_bond_atom_site_label_1
_geom_bond_atom_site_label_2
_geom_bond_distance
_geom_bond_site_symmetry_2
_ccdc_geom_bond_type
C0 O1 1.306 . S
C0 O3 1.160 . S
O1 C0 1.306 . S
O1 Cd2 2.228 . S
Cd2 O1 2.228 . S
Cd2 O6 2.273 . S
Cd2 O10 2.277 . S
O3 C0 1.160 . S
O3 Cd4 2.203 . S
Cd4 O3 2.203 . S
Cd4 O6 2.411 . S
Cd4 O7 2.333 . S
Cd4 O8 2.352 . S
Cd4 O12 2.277 . S
Cd4 O13 2.356 . S
C5 O10 1.209 . S
C5 O12 1.226 . S
O6 Cd2 2.273 . S
O6 Cd4 2.411 . S
O6 C9 1.320 . S
O7 Cd4 2.333 . S
O7 C9 1.214 . S
O8 Cd4 2.352 . S
O8 C11 1.258 . S
C9 O6 1.320 . S
C9 O7 1.214 . S
O10 Cd2 2.277 . S
O10 C5 1.209 . S
C11 O8 1.258 . S
C11 O13 1.282 . S
O12 Cd4 2.277 . S
O12 C5 1.226 . S
O13 Cd4 2.356 . S
O13 C11 1.282 . S
C14 O15 1.306 . S
C14 O17 1.160 . S
O15 C14 1.306 . S
O15 Cd16 2.228 . S
Cd16 O15 2.228 . S
Cd16 O20 2.273 . S
Cd16 O24 2.277 . S
O17 C14 1.160 . S
O17 Cd18 2.203 . S
Cd18 O17 2.203 . S
Cd18 O20 2.411 . S
Cd18 O21 2.333 . S
Cd18 O22 2.352 . S
Cd18 O26 2.277 . S
Cd18 O27 2.356 . S
C19 O24 1.209 . S
C19 O26 1.226 . S
O20 Cd16 2.273 . S
O20 Cd18 2.411 . S
O20 C23 1.320 . S
O21 Cd18 2.333 . S
O21 C23 1.214 . S
O22 Cd18 2.352 . S
O22 C25 1.258 . S
C23 O20 1.320 . S
C23 O21 1.214 . S
O24 Cd16 2.277 . S
O24 C19 1.209 . S
C25 O22 1.258 . S
C25 O27 1.282 . S
O26 Cd18 2.277 . S
O26 C19 1.226 . S
O27 Cd18 2.356 . S
O27 C25 1.282 . S
C28 O29 1.306 . S
C28 O31 1.160 . S
O29 C28 1.306 . S
O29 Cd30 2.228 . S
Cd30 O29 2.228 . S
Cd30 O34 2.273 . S
Cd30 O38 2.277 . S
O31 C28 1.160 . S
O31 Cd32 2.203 . S
Cd32 O31 2.203 . S
Cd32 O34 2.411 . S
Cd32 O35 2.333 . S
Cd32 O36 2.352 1_655 S
Cd32 O40 2.277 . S
Cd32 O41 2.356 1_655 S
C33 O38 1.209 . S
C33 O40 1.226 . S
O34 Cd30 2.273 . S
O34 Cd32 2.411 . S
O34 C37 1.320 . S
O35 Cd32 2.333 . S
O35 C37 1.214 . S
O36 Cd32 2.352 1_455 S
O36 C39 1.258 . S
C37 O34 1.320 . S
C37 O35 1.214 . S
O38 Cd30 2.277 . S
O38 C33 1.209 . S
C39 O36 1.258 . S
C39 O41 1.282 . S
O40 Cd32 2.277 . S
O40 C33 1.226 . S
O41 Cd32 2.356 1_455 S
O41 C39 1.282 . S
C42 O43 1.306 . S
C42 O45 1.160 . S
O43 C42 1.306 . S
O43 Cd44 2.228 . S
Cd44 O43 2.228 . S
Cd44 O48 2.273 . S
Cd44 O52 2.277 . S
O45 C42 1.160 . S
O45 Cd46 2.203 . S
Cd46 O45 2.203 . S
Cd46 O48 2.411 . S
Cd46 O49 2.333 . S
Cd46 O50 2.352 1_565 S
Cd46 O54 2.277 . S
Cd46 O55 2.356 1_565 S
C47 O52 1.209 . S
C47 O54 1.226 . S
O48 Cd44 2.273 . S
O48 Cd46 2.411 . S
O48 C51 1.320 . S
O49 Cd46 2.333 . S
O49 C51 1.214 . S
O50 Cd46 2.352 1_545 S
O50 C53 1.258 . S
C51 O48 1.320 . S
C51 O49 1.214 . S
O52 Cd44 2.277 . S
O52 C47 1.209 . S
C53 O50 1.258 . S
C53 O55 1.282 . S
O54 Cd46 2.277 . S
O54 C47 1.226 . S
O55 Cd46 2.356 1_545 S
O55 C53 1.282 . S
C56 O57 1.306 . S
C56 O59 1.160 . S
O57 C56 1.306 . S
O57 Cd58 2.228 . S
Cd58 O57 2.228 . S
Cd58 O62 2.273 . S
Cd58 O66 2.277 . S
O59 C56 1.160 . S
O59 Cd60 2.203 . S
Cd60 O59 2.203 . S
Cd60 O62 2.411 . S
Cd60 O63 2.333 . S
Cd60 O64 2.352 . S
Cd60 O68 2.277 . S
Cd60 O69 2.356 . S
C61 O66 1.209 . S
C61 O68 1.226 . S
O62 Cd58 2.273 . S
O62 Cd60 2.411 . S
O62 C65 1.320 . S
O63 Cd60 2.333 . S
O63 C65 1.214 . S
O64 Cd60 2.352 . S
O64 C67 1.258 . S
C65 O62 1.320 . S
C65 O63 1.214 . S
O66 Cd58 2.277 . S
O66 C61 1.209 . S
C67 O64 1.258 . S
C67 O69 1.282 . S
O68 Cd60 2.277 . S
O68 C61 1.226 . S
O69 Cd60 2.356 . S
O69 C67 1.282 . S
C70 O71 1.306 . S
C70 O73 1.160 . S
O71 C70 1.306 . S
O71 Cd72 2.228 . S
Cd72 O71 2.228 . S
Cd72 O76 2.273 . S
Cd72 O80 2.277 . S
O73 C70 1.160 . S
O73 Cd74 2.203 . S
Cd74 O73 2.203 . S
Cd74 O76 2.411 . S
Cd74 O77 2.333 . S
Cd74 O78 2.352 . S
Cd74 O82 2.277 . S
Cd74 O83 2.356 . S
C75 O80 1.209 . S
C75 O82 1.226 . S
O76 Cd72 2.273 . S
O76 Cd74 2.411 . S
O76 C79 1.320 . S
O77 Cd74 2.333 . S
O77 C79 1.214 . S
O78 Cd74 2.352 . S
O78 C81 1.258 . S
C79 O76 1.320 . S
C79 O77 1.214 . S
O80 Cd72 2.277 . S
O80 C75 1.209 . S
C81 O78 1.258 . S
C81 O83 1.282 . S
O82 Cd74 2.277 . S
O82 C75 1.226 . S
O83 Cd74 2.356 . S
O83 C81 1.282 . S
C84 O85 1.306 . S
C84 O87 1.160 . S
O85 C84 1.306 . S
O85 Cd86 2.228 . S
Cd86 O85 2.228 . S
Cd86 O90 2.273 . S
Cd86 O94 2.277 . S
O87 C84 1.160 . S
O87 Cd88 2.203 . S
Cd88 O87 2.203 . S
Cd88 O90 2.411 . S
Cd88 O91 2.333 . S
Cd88 O92 2.352 1_655 S
Cd88 O96 2.277 . S
Cd88 O97 2.356 1_655 S
C89 O94 1.209 . S
C89 O96 1.226 . S
O90 Cd86 2.273 . S
O90 Cd88 2.411 . S
O90 C93 1.320 . S
O91 Cd88 2.333 . S
O91 C93 1.214 . S
O92 Cd88 2.352 1_455 S
O92 C95 1.258 . S
C93 O90 1.320 . S
C93 O91 1.214 . S
O94 Cd86 2.277 . S
O94 C89 1.209 . S
C95 O92 1.258 . S
C95 O97 1.282 . S
O96 Cd88 2.277 . S
O96 C89 1.226 . S
O97 Cd88 2.356 1_455 S
O97 C95 1.282 . S
C98 O99 1.306 . S
C98 O101 1.160 . S
O99 C98 1.306 . S
O99 Cd100 2.228 . S
Cd100 O99 2.228 . S
Cd100 O104 2.273 . S
Cd100 O108 2.277 . S
O101 C98 1.160 . S
O101 Cd102 2.203 . S
Cd102 O101 2.203 . S
Cd102 O104 2.411 . S
Cd102 O105 2.333 . S
Cd102 O106 2.352 1_565 S
Cd102 O110 2.277 . S
Cd102 O111 2.356 1_565 S
C103 O108 1.209 . S
C103 O110 1.226 . S
O104 Cd100 2.273 . S
O104 Cd102 2.411 . S
O104 C107 1.320 . S
O105 Cd102 2.333 . S
O105 C107 1.214 . S
O106 Cd102 2.352 1_545 S
O106 C109 1.258 . S
C107 O104 1.320 . S
C107 O105 1.214 . S
O108 Cd100 2.277 . S
O108 C103 1.209 . S
C109 O106 1.258 . S
C109 O111 1.282 . S
O110 Cd102 2.277 . S
O110 C103 1.226 . S
O111 Cd102 2.356 1_545 S
O111 C109 1.282 . S
C112 O113 1.306 . S
C112 O115 1.160 . S
O113 C112 1.306 . S
O113 Cd114 2.228 . S
Cd114 O113 2.228 . S
Cd114 O118 2.273 . S
Cd114 O122 2.277 . S
O115 C112 1.160 . S
O115 Cd116 2.203 . S
Cd116 O115 2.203 . S
Cd116 O118 2.411 . S
Cd116 O119 2.333 . S
Cd116 O120 2.352 . S
Cd116 O124 2.277 . S
Cd116 O125 2.356 . S
C117 O122 1.209 . S
C117 O124 1.226 . S
O118 Cd114 2.273 . S
O118 Cd116 2.411 . S
O118 C121 1.320 . S
O119 Cd116 2.333 . S
O119 C121 1.214 . S
O120 Cd116 2.352 . S
O120 C123 1.258 . S
C121 O118 1.320 . S
C121 O119 1.214 . S
O122 Cd114 2.277 . S
O122 C117 1.209 . S
C123 O120 1.258 . S
C123 O125 1.282 . S
O124 Cd116 2.277 . S
O124 C117 1.226 . S
O125 Cd116 2.356 . S
O125 C123 1.282 . S
C126 O127 1.306 . S
C126 O129 1.160 . S
O127 C126 1.306 . S
O127 Cd128 2.228 . S
Cd128 O127 2.228 . S
Cd128 O132 2.273 . S
Cd128 O136 2.277 . S
O129 C126 1.160 . S
O129 Cd130 2.203 . S
Cd130 O129 2.203 . S
Cd130 O132 2.411 . S
Cd130 O133 2.333 . S
Cd130 O134 2.352 . S
Cd130 O138 2.277 . S
Cd130 O139 2.356 . S
C131 O136 1.209 . S
C131 O138 1.226 . S
O132 Cd128 2.273 . S
O132 Cd130 2.411 . S
O132 C135 1.320 . S
O133 Cd130 2.333 . S
O133 C135 1.214 . S
O134 Cd130 2.352 . S
O134 C137 1.258 . S
C135 O132 1.320 . S
C135 O133 1.214 . S
O136 Cd128 2.277 . S
O136 C131 1.209 . S
C137 O134 1.258 . S
C137 O139 1.282 . S
O138 Cd130 2.277 . S
O138 C131 1.226 . S
O139 Cd130 2.356 . S
O139 C137 1.282 . S
C140 O141 1.306 . S
C140 O143 1.160 . S
O141 C140 1.306 . S
O141 Cd142 2.228 . S
Cd142 O141 2.228 . S
Cd142 O146 2.273 . S
Cd142 O150 2.277 . S
O143 C140 1.160 . S
O143 Cd144 2.203 . S
Cd144 O143 2.203 . S
Cd144 O146 2.411 . S
Cd144 O147 2.333 . S
Cd144 O148 2.352 1_455 S
Cd144 O152 2.277 . S
Cd144 O153 2.356 1_455 S
C145 O150 1.209 . S
C145 O152 1.226 . S
O146 Cd142 2.273 . S
O146 Cd144 2.411 . S
O146 C149 1.320 . S
O147 Cd144 2.333 . S
O147 C149 1.214 . S
O148 Cd144 2.352 1_655 S
O148 C151 1.258 . S
C149 O146 1.320 . S
C149 O147 1.214 . S
O150 Cd142 2.277 . S
O150 C145 1.209 . S
C151 O148 1.258 . S
C151 O153 1.282 . S
O152 Cd144 2.277 . S
O152 C145 1.226 . S
O153 Cd144 2.356 1_655 S
O153 C151 1.282 . S
C154 O155 1.306 . S
C154 O157 1.160 . S
O155 C154 1.306 . S
O155 Cd156 2.228 . S
Cd156 O155 2.228 . S
Cd156 O160 2.273 . S
Cd156 O164 2.277 . S
O157 C154 1.160 . S
O157 Cd158 2.203 . S
Cd158 O157 2.203 . S
Cd158 O160 2.411 . S
Cd158 O161 2.333 . S
Cd158 O162 2.352 1_545 S
Cd158 O166 2.277 . S
Cd158 O167 2.356 1_545 S
C159 O164 1.209 . S
C159 O166 1.226 . S
O160 Cd156 2.273 . S
O160 Cd158 2.411 . S
O160 C163 1.320 . S
O161 Cd158 2.333 . S
O161 C163 1.214 . S
O162 Cd158 2.352 1_565 S
O162 C165 1.258 . S
C163 O160 1.320 . S
C163 O161 1.214 . S
O164 Cd156 2.277 . S
O164 C159 1.209 . S
C165 O162 1.258 . S
C165 O167 1.282 . S
O166 Cd158 2.277 . S
O166 C159 1.226 . S
O167 Cd158 2.356 1_565 S
O167 C165 1.282 . S
C168 O169 1.306 . S
C168 O171 1.160 . S
O169 C168 1.306 . S
O169 Cd170 2.228 . S
Cd170 O169 2.228 . S
Cd170 O174 2.273 . S
Cd170 O178 2.277 . S
O171 C168 1.160 . S
O171 Cd172 2.203 . S
Cd172 O171 2.203 . S
Cd172 O174 2.411 . S
Cd172 O175 2.333 . S
Cd172 O176 2.352 . S
Cd172 O180 2.277 . S
Cd172 O181 2.356 . S
C173 O178 1.209 . S
C173 O180 1.226 . S
O174 Cd170 2.273 . S
O174 Cd172 2.411 . S
O174 C177 1.320 . S
O175 Cd172 2.333 . S
O175 C177 1.214 . S
O176 Cd172 2.352 . S
O176 C179 1.258 . S
C177 O174 1.320 . S
C177 O175 1.214 . S
O178 Cd170 2.277 . S
O178 C173 1.209 . S
C179 O176 1.258 . S
C179 O181 1.282 . S
O180 Cd172 2.277 . S
O180 C173 1.226 . S
O181 Cd172 2.356 . S
O181 C179 1.282 . S
C182 O183 1.306 . S
C182 O185 1.160 . S
O183 C182 1.306 . S
O183 Cd184 2.228 . S
Cd184 O183 2.228 . S
Cd184 O188 2.273 . S
Cd184 O192 2.277 . S
O185 C182 1.160 . S
O185 Cd186 2.203 . S
Cd186 O185 2.203 . S
Cd186 O188 2.411 . S
Cd186 O189 2.333 . S
Cd186 O190 2.352 . S
Cd186 O194 2.277 . S
Cd186 O195 2.356 . S
C187 O192 1.209 . S
C187 O194 1.226 . S
O188 Cd184 2.273 . S
O188 Cd186 2.411 . S
O188 C191 1.320 . S
O189 Cd186 2.333 . S
O189 C191 1.214 . S
O190 Cd186 2.352 . S
O190 C193 1.258 . S
C191 O188 1.320 . S
C191 O189 1.214 . S
O192 Cd184 2.277 . S
O192 C187 1.209 . S
C193 O190 1.258 . S
C193 O195 1.282 . S
O194 Cd186 2.277 . S
O194 C187 1.226 . S
O195 Cd186 2.356 . S
O195 C193 1.282 . S
C196 O197 1.306 . S
C196 O199 1.160 . S
O197 C196 1.306 . S
O197 Cd198 2.228 . S
Cd198 O197 2.228 . S
Cd198 O202 2.273 . S
Cd198 O206 2.277 . S
O199 C196 1.160 . S
O199 Cd200 2.203 . S
Cd200 O199 2.203 . S
Cd200 O202 2.411 . S
Cd200 O203 2.333 . S
Cd200 O204 2.352 1_455 S
Cd200 O208 2.277 . S
Cd200 O209 2.356 1_455 S
C201 O206 1.209 . S
C201 O208 1.226 . S
O202 Cd198 2.273 . S
O202 Cd200 2.411 . S
O202 C205 1.320 . S
O203 Cd200 2.333 . S
O203 C205 1.214 . S
O204 Cd200 2.352 1_655 S
O204 C207 1.258 . S
C205 O202 1.320 . S
C205 O203 1.214 . S
O206 Cd198 2.277 . S
O206 C201 1.209 . S
C207 O204 1.258 . S
C207 O209 1.282 . S
O208 Cd200 2.277 . S
O208 C201 1.226 . S
O209 Cd200 2.356 1_655 S
O209 C207 1.282 . S
C210 O211 1.306 . S
C210 O213 1.160 . S
O211 C210 1.306 . S
O211 Cd212 2.228 . S
Cd212 O211 2.228 . S
Cd212 O216 2.273 . S
Cd212 O220 2.277 . S
O213 C210 1.160 . S
O213 Cd214 2.203 . S
Cd214 O213 2.203 . S
Cd214 O216 2.411 . S
Cd214 O217 2.333 . S
Cd214 O218 2.352 1_545 S
Cd214 O222 2.277 . S
Cd214 O223 2.356 1_545 S
C215 O220 1.209 . S
C215 O222 1.226 . S
O216 Cd212 2.273 . S
O216 Cd214 2.411 . S
O216 C219 1.320 . S
O217 Cd214 2.333 . S
O217 C219 1.214 . S
O218 Cd214 2.352 1_565 S
O218 C221 1.258 . S
C219 O216 1.320 . S
C219 O217 1.214 . S
O220 Cd212 2.277 . S
O220 C215 1.209 . S
C221 O218 1.258 . S
C221 O223 1.282 . S
O222 Cd214 2.277 . S
O222 C215 1.226 . S
O223 Cd214 2.356 1_565 S
O223 C221 1.282 . S
H224 C232 0.929 . S
H225 C234 0.930 . S
H226 C236 0.930 . S
H227 C239 0.929 . S
H228 C242 0.930 . S
H229 C244 0.960 . S
H230 C244 0.960 . S
H231 C244 0.960 . S
C232 H224 0.929 . S
C232 C233 1.377 . S
C232 C234 1.384 . S
C233 C232 1.377 . S
C233 C239 1.390 . S
C234 H225 0.930 . S
C234 C232 1.384 . S
C234 C235 1.372 . S
C235 C234 1.372 . S
C235 C236 1.400 . S
C235 C240 1.490 . S
C236 H226 0.930 . S
C236 C235 1.400 . S
C236 C239 1.386 . S
H237 C253 0.930 . S
H238 C254 0.931 . S
C239 H227 0.929 . S
C239 C233 1.390 . S
C239 C236 1.386 . S
C240 C235 1.490 . S
C240 C242 1.395 . S
C240 C243 1.403 . S
H241 C247 0.930 . S
C242 H228 0.930 . S
C242 C240 1.395 . S
C242 C245 1.403 . S
C243 C240 1.403 . S
C243 C244 1.524 . S
C243 C247 1.400 . S
C244 H229 0.960 . S
C244 H230 0.960 . S
C244 H231 0.960 . S
C244 C243 1.524 . S
C245 C242 1.403 . S
C245 C246 1.392 . S
C245 C249 1.495 . S
C246 C245 1.392 . S
C246 C247 1.385 . S
C246 C248 1.478 . S
C247 H241 0.930 . S
C247 C243 1.400 . S
C247 C246 1.385 . S
C248 C246 1.478 . S
C248 C250 1.381 . S
C248 C254 1.383 . S
C249 C245 1.495 . S
C249 H255 0.959 . S
C249 H256 0.961 . S
C249 H257 0.960 . S
C250 C248 1.381 . S
C250 C251 1.394 . S
C250 H258 0.930 . S
C251 C250 1.394 . S
C251 C252 1.383 . S
C251 H259 0.929 . S
C252 C251 1.383 . S
C252 C253 1.377 . S
C253 H237 0.930 . S
C253 C252 1.377 . S
C253 C254 1.379 . S
C254 H238 0.931 . S
C254 C248 1.383 . S
C254 C253 1.379 . S
H255 C249 0.959 . S
H256 C249 0.961 . S
H257 C249 0.960 . S
H258 C250 0.930 . S
H259 C251 0.929 . S
H260 C268 0.929 . S
H261 C270 0.930 . S
H262 C272 0.930 . S
H263 C275 0.929 . S
H264 C278 0.930 . S
H265 C280 0.960 . S
H266 C280 0.960 . S
H267 C280 0.960 . S
C268 H260 0.929 . S
C268 C269 1.377 . S
C268 C270 1.384 . S
C269 C268 1.377 . S
C269 C275 1.390 . S
C270 H261 0.930 . S
C270 C268 1.384 . S
C270 C271 1.372 . S
C271 C270 1.372 . S
C271 C272 1.400 . S
C271 C276 1.490 . S
C272 H262 0.930 . S
C272 C271 1.400 . S
C272 C275 1.386 . S
H273 C289 0.930 . S
H274 C290 0.931 . S
C275 H263 0.929 . S
C275 C269 1.390 . S
C275 C272 1.386 . S
C276 C271 1.490 . S
C276 C278 1.395 . S
C276 C279 1.403 . S
H277 C283 0.930 . S
C278 H264 0.930 . S
C278 C276 1.395 . S
C278 C281 1.403 . S
C279 C276 1.403 . S
C279 C280 1.524 . S
C279 C283 1.400 . S
C280 H265 0.960 . S
C280 H266 0.960 . S
C280 H267 0.960 . S
C280 C279 1.524 . S
C281 C278 1.403 . S
C281 C282 1.392 . S
C281 C285 1.495 . S
C282 C281 1.392 . S
C282 C283 1.385 . S
C282 C284 1.478 . S
C283 H277 0.930 . S
C283 C279 1.400 . S
C283 C282 1.385 . S
C284 C282 1.478 . S
C284 C286 1.381 . S
C284 C290 1.383 . S
C285 C281 1.495 . S
C285 H291 0.959 . S
C285 H292 0.961 . S
C285 H293 0.960 . S
C286 C284 1.381 . S
C286 C287 1.394 . S
C286 H294 0.930 . S
C287 C286 1.394 . S
C287 C288 1.383 . S
C287 H295 0.929 . S
C288 C287 1.383 . S
C288 C289 1.377 . S
C289 H273 0.930 . S
C289 C288 1.377 . S
C289 C290 1.379 . S
C290 H274 0.931 . S
C290 C284 1.383 . S
C290 C289 1.379 . S
H291 C285 0.959 . S
H292 C285 0.961 . S
H293 C285 0.960 . S
H294 C286 0.930 . S
H295 C287 0.929 . S
H296 C304 0.929 . S
H297 C306 0.930 . S
H298 C308 0.930 . S
H299 C311 0.929 . S
H300 C314 0.930 . S
H301 C316 0.960 . S
H302 C316 0.960 . S
H303 C316 0.960 . S
C304 H296 0.929 . S
C304 C305 1.377 . S
C304 C306 1.384 . S
C305 C304 1.377 . S
C305 C311 1.390 . S
C306 H297 0.930 . S
C306 C304 1.384 . S
C306 C307 1.372 . S
C307 C306 1.372 . S
C307 C308 1.400 . S
C307 C312 1.490 . S
C308 H298 0.930 . S
C308 C307 1.400 . S
C308 C311 1.386 . S
H309 C325 0.930 . S
H310 C326 0.931 . S
C311 H299 0.929 . S
C311 C305 1.390 . S
C311 C308 1.386 . S
C312 C307 1.490 . S
C312 C314 1.395 . S
C312 C315 1.403 . S
H313 C319 0.930 . S
C314 H300 0.930 . S
C314 C312 1.395 . S
C314 C317 1.403 . S
C315 C312 1.403 . S
C315 C316 1.524 . S
C315 C319 1.400 . S
C316 H301 0.960 . S
C316 H302 0.960 . S
C316 H303 0.960 . S
C316 C315 1.524 . S
C317 C314 1.403 . S
C317 C318 1.392 . S
C317 C321 1.495 . S
C318 C317 1.392 . S
C318 C319 1.385 . S
C318 C320 1.478 . S
C319 H313 0.930 . S
C319 C315 1.400 . S
C319 C318 1.385 . S
C320 C318 1.478 . S
C320 C322 1.381 . S
C320 C326 1.383 . S
C321 C317 1.495 . S
C321 H327 0.959 . S
C321 H328 0.961 . S
C321 H329 0.960 . S
C322 C320 1.381 . S
C322 C323 1.394 . S
C322 H330 0.930 . S
C323 C322 1.394 . S
C323 C324 1.383 . S
C323 H331 0.929 . S
C324 C323 1.383 . S
C324 C325 1.377 . S
C325 H309 0.930 . S
C325 C324 1.377 . S
C325 C326 1.379 . S
C326 H310 0.931 . S
C326 C320 1.383 . S
C326 C325 1.379 . S
H327 C321 0.959 . S
H328 C321 0.961 . S
H329 C321 0.960 . S
H330 C322 0.930 . S
H331 C323 0.929 . S
H332 C340 0.929 . S
H333 C342 0.930 . S
H334 C344 0.930 . S
H335 C347 0.929 . S
H336 C350 0.930 . S
H337 C352 0.960 . S
H338 C352 0.960 . S
H339 C352 0.960 . S
C340 H332 0.929 . S
C340 C341 1.377 . S
C340 C342 1.384 . S
C341 C340 1.377 . S
C341 C347 1.390 . S
C342 H333 0.930 . S
C342 C340 1.384 . S
C342 C343 1.372 . S
C343 C342 1.372 . S
C343 C344 1.400 . S
C343 C348 1.490 . S
C344 H334 0.930 . S
C344 C343 1.400 . S
C344 C347 1.386 . S
H345 C361 0.930 . S
H346 C362 0.931 . S
C347 H335 0.929 . S
C347 C341 1.390 . S
C347 C344 1.386 . S
C348 C343 1.490 . S
C348 C350 1.395 . S
C348 C351 1.403 . S
H349 C355 0.930 . S
C350 H336 0.930 . S
C350 C348 1.395 . S
C350 C353 1.403 . S
C351 C348 1.403 . S
C351 C352 1.524 . S
C351 C355 1.400 . S
C352 H337 0.960 . S
C352 H338 0.960 . S
C352 H339 0.960 . S
C352 C351 1.524 . S
C353 C350 1.403 . S
C353 C354 1.392 . S
C353 C357 1.495 . S
C354 C353 1.392 . S
C354 C355 1.385 . S
C354 C356 1.478 . S
C355 H349 0.930 . S
C355 C351 1.400 . S
C355 C354 1.385 . S
C356 C354 1.478 . S
C356 C358 1.381 . S
C356 C362 1.383 . S
C357 C353 1.495 . S
C357 H363 0.959 . S
C357 H364 0.961 . S
C357 H365 0.960 . S
C358 C356 1.381 . S
C358 C359 1.394 . S
C358 H366 0.930 . S
C359 C358 1.394 . S
C359 C360 1.383 . S
C359 H367 0.929 . S
C360 C359 1.383 . S
C360 C361 1.377 . S
C361 H345 0.930 . S
C361 C360 1.377 . S
C361 C362 1.379 . S
C362 H346 0.931 . S
C362 C356 1.383 . S
C362 C361 1.379 . S
H363 C357 0.959 . S
H364 C357 0.961 . S
H365 C357 0.960 . S
H366 C358 0.930 . S
H367 C359 0.929 . S
H368 C376 0.929 . S
H369 C378 0.930 . S
H370 C380 0.930 . S
H371 C383 0.929 . S
H372 C386 0.930 . S
H373 C388 0.960 . S
H374 C388 0.960 . S
H375 C388 0.960 . S
C376 H368 0.929 . S
C376 C377 1.377 . S
C376 C378 1.384 . S
C377 C376 1.377 . S
C377 C383 1.390 . S
C378 H369 0.930 . S
C378 C376 1.384 . S
C378 C379 1.372 . S
C379 C378 1.372 . S
C379 C380 1.400 . S
C379 C384 1.490 . S
C380 H370 0.930 . S
C380 C379 1.400 . S
C380 C383 1.386 . S
H381 C397 0.930 . S
H382 C398 0.931 . S
C383 H371 0.929 . S
C383 C377 1.390 . S
C383 C380 1.386 . S
C384 C379 1.490 . S
C384 C386 1.395 . S
C384 C387 1.403 . S
H385 C391 0.930 . S
C386 H372 0.930 . S
C386 C384 1.395 . S
C386 C389 1.403 . S
C387 C384 1.403 . S
C387 C388 1.524 . S
C387 C391 1.400 . S
C388 H373 0.960 . S
C388 H374 0.960 . S
C388 H375 0.960 . S
C388 C387 1.524 . S
C389 C386 1.403 . S
C389 C390 1.392 . S
C389 C393 1.495 . S
C390 C389 1.392 . S
C390 C391 1.385 . S
C390 C392 1.478 . S
C391 H385 0.930 . S
C391 C387 1.400 . S
C391 C390 1.385 . S
C392 C390 1.478 . S
C392 C394 1.381 . S
C392 C398 1.383 . S
C393 C389 1.495 . S
C393 H399 0.959 . S
C393 H400 0.961 . S
C393 H401 0.960 . S
C394 C392 1.381 . S
C394 C395 1.394 . S
C394 H402 0.930 . S
C395 C394 1.394 . S
C395 C396 1.383 . S
C395 H403 0.929 . S
C396 C395 1.383 . S
C396 C397 1.377 . S
C397 H381 0.930 . S
C397 C396 1.377 . S
C397 C398 1.379 . S
C398 H382 0.931 . S
C398 C392 1.383 . S
C398 C397 1.379 . S
H399 C393 0.959 . S
H400 C393 0.961 . S
H401 C393 0.960 . S
H402 C394 0.930 . S
H403 C395 0.929 . S
H404 C412 0.929 . S
H405 C414 0.930 . S
H406 C416 0.930 . S
H407 C419 0.929 . S
H408 C422 0.930 . S
H409 C424 0.960 . S
H410 C424 0.960 . S
H411 C424 0.960 . S
C412 H404 0.929 . S
C412 C413 1.377 . S
C412 C414 1.384 . S
C413 C412 1.377 . S
C413 C419 1.390 . S
C414 H405 0.930 . S
C414 C412 1.384 . S
C414 C415 1.372 . S
C415 C414 1.372 . S
C415 C416 1.400 . S
C415 C420 1.490 . S
C416 H406 0.930 . S
C416 C415 1.400 . S
C416 C419 1.386 . S
H417 C433 0.930 . S
H418 C434 0.931 . S
C419 H407 0.929 . S
C419 C413 1.390 . S
C419 C416 1.386 . S
C420 C415 1.490 . S
C420 C422 1.395 . S
C420 C423 1.403 . S
H421 C427 0.930 . S
C422 H408 0.930 . S
C422 C420 1.395 . S
C422 C425 1.403 . S
C423 C420 1.403 . S
C423 C424 1.524 . S
C423 C427 1.400 . S
C424 H409 0.960 . S
C424 H410 0.960 . S
C424 H411 0.960 . S
C424 C423 1.524 . S
C425 C422 1.403 . S
C425 C426 1.392 . S
C425 C429 1.495 . S
C426 C425 1.392 . S
C426 C427 1.385 . S
C426 C428 1.478 . S
C427 H421 0.930 . S
C427 C423 1.400 . S
C427 C426 1.385 . S
C428 C426 1.478 . S
C428 C430 1.381 . S
C428 C434 1.383 . S
C429 C425 1.495 . S
C429 H435 0.959 . S
C429 H436 0.961 . S
C429 H437 0.960 . S
C430 C428 1.381 . S
C430 C431 1.394 . S
C430 H438 0.930 . S
C431 C430 1.394 . S
C431 C432 1.383 . S
C431 H439 0.929 . S
C432 C431 1.383 . S
C432 C433 1.377 . S
C433 H417 0.930 . S
C433 C432 1.377 . S
C433 C434 1.379 . S
C434 H418 0.931 . S
C434 C428 1.383 . S
C434 C433 1.379 . S
H435 C429 0.959 . S
H436 C429 0.961 . S
H437 C429 0.960 . S
H438 C430 0.930 . S
H439 C431 0.929 . S
H440 C448 0.929 . S
H441 C450 0.930 . S
H442 C452 0.930 . S
H443 C455 0.929 . S
H444 C458 0.930 . S
H445 C460 0.960 . S
H446 C460 0.960 . S
H447 C460 0.960 . S
C448 H440 0.929 . S
C448 C449 1.377 . S
C448 C450 1.384 . S
C449 C448 1.377 . S
C449 C455 1.390 . S
C450 H441 0.930 . S
C450 C448 1.384 . S
C450 C451 1.372 . S
C451 C450 1.372 . S
C451 C452 1.400 . S
C451 C456 1.490 . S
C452 H442 0.930 . S
C452 C451 1.400 . S
C452 C455 1.386 . S
H453 C469 0.930 . S
H454 C470 0.931 . S
C455 H443 0.929 . S
C455 C449 1.390 . S
C455 C452 1.386 . S
C456 C451 1.490 . S
C456 C458 1.395 . S
C456 C459 1.403 . S
H457 C463 0.930 . S
C458 H444 0.930 . S
C458 C456 1.395 . S
C458 C461 1.403 . S
C459 C456 1.403 . S
C459 C460 1.524 . S
C459 C463 1.400 . S
C460 H445 0.960 . S
C460 H446 0.960 . S
C460 H447 0.960 . S
C460 C459 1.524 . S
C461 C458 1.403 . S
C461 C462 1.392 . S
C461 C465 1.495 . S
C462 C461 1.392 . S
C462 C463 1.385 . S
C462 C464 1.478 . S
C463 H457 0.930 . S
C463 C459 1.400 . S
C463 C462 1.385 . S
C464 C462 1.478 . S
C464 C466 1.381 . S
C464 C470 1.383 . S
C465 C461 1.495 . S
C465 H471 0.959 . S
C465 H472 0.961 . S
C465 H473 0.960 . S
C466 C464 1.381 . S
C466 C467 1.394 . S
C466 H474 0.930 . S
C467 C466 1.394 . S
C467 C468 1.383 . S
C467 H475 0.929 . S
C468 C467 1.383 . S
C468 C469 1.377 . S
C469 H453 0.930 . S
C469 C468 1.377 . S
C469 C470 1.379 . S
C470 H454 0.931 . S
C470 C464 1.383 . S
C470 C469 1.379 . S
H471 C465 0.959 . S
H472 C465 0.961 . S
H473 C465 0.960 . S
H474 C466 0.930 . S
H475 C467 0.929 . S
H476 C484 0.929 . S
H477 C486 0.930 . S
H478 C488 0.930 . S
H479 C491 0.929 . S
H480 C494 0.930 . S
H481 C496 0.960 . S
H482 C496 0.960 . S
H483 C496 0.960 . S
C484 H476 0.929 . S
C484 C485 1.377 . S
C484 C486 1.384 . S
C485 C484 1.377 . S
C485 C491 1.390 . S
C486 H477 0.930 . S
C486 C484 1.384 . S
C486 C487 1.372 . S
C487 C486 1.372 . S
C487 C488 1.400 . S
C487 C492 1.490 . S
C488 H478 0.930 . S
C488 C487 1.400 . S
C488 C491 1.386 . S
H489 C505 0.930 . S
H490 C506 0.931 . S
C491 H479 0.929 . S
C491 C485 1.390 . S
C491 C488 1.386 . S
C492 C487 1.490 . S
C492 C494 1.395 . S
C492 C495 1.403 . S
H493 C499 0.930 . S
C494 H480 0.930 . S
C494 C492 1.395 . S
C494 C497 1.403 . S
C495 C492 1.403 . S
C495 C496 1.524 . S
C495 C499 1.400 . S
C496 H481 0.960 . S
C496 H482 0.960 . S
C496 H483 0.960 . S
C496 C495 1.524 . S
C497 C494 1.403 . S
C497 C498 1.392 . S
C497 C501 1.495 . S
C498 C497 1.392 . S
C498 C499 1.385 . S
C498 C500 1.478 . S
C499 H493 0.930 . S
C499 C495 1.400 . S
C499 C498 1.385 . S
C500 C498 1.478 . S
C500 C502 1.381 . S
C500 C506 1.383 . S
C501 C497 1.495 . S
C501 H507 0.959 . S
C501 H508 0.961 . S
C501 H509 0.960 . S
C502 C500 1.381 . S
C502 C503 1.394 . S
C502 H510 0.930 . S
C503 C502 1.394 . S
C503 C504 1.383 . S
C503 H511 0.929 . S
C504 C503 1.383 . S
C504 C505 1.377 . S
C505 H489 0.930 . S
C505 C504 1.377 . S
C505 C506 1.379 . S
C506 H490 0.931 . S
C506 C500 1.383 . S
C506 C505 1.379 . S
H507 C501 0.959 . S
H508 C501 0.961 . S
H509 C501 0.960 . S
H510 C502 0.930 . S
H511 C503 0.929 . S
H512 C520 0.929 . S
H513 C522 0.930 . S
H514 C524 0.930 . S
H515 C527 0.929 . S
H516 C530 0.930 . S
H517 C532 0.960 . S
H518 C532 0.960 . S
H519 C532 0.960 . S
C520 H512 0.929 . S
C520 C521 1.377 . S
C520 C522 1.384 . S
C521 C520 1.377 . S
C521 C527 1.390 . S
C522 H513 0.930 . S
C522 C520 1.384 . S
C522 C523 1.372 . S
C523 C522 1.372 . S
C523 C524 1.400 . S
C523 C528 1.490 . S
C524 H514 0.930 . S
C524 C523 1.400 . S
C524 C527 1.386 . S
H525 C541 0.930 . S
H526 C542 0.931 . S
C527 H515 0.929 . S
C527 C521 1.390 . S
C527 C524 1.386 . S
C528 C523 1.490 . S
C528 C530 1.395 . S
C528 C531 1.403 . S
H529 C535 0.930 . S
C530 H516 0.930 . S
C530 C528 1.395 . S
C530 C533 1.403 . S
C531 C528 1.403 . S
C531 C532 1.524 . S
C531 C535 1.400 . S
C532 H517 0.960 . S
C532 H518 0.960 . S
C532 H519 0.960 . S
C532 C531 1.524 . S
C533 C530 1.403 . S
C533 C534 1.392 . S
C533 C537 1.495 . S
C534 C533 1.392 . S
C534 C535 1.385 . S
C534 C536 1.478 . S
C535 H529 0.930 . S
C535 C531 1.400 . S
C535 C534 1.385 . S
C536 C534 1.478 . S
C536 C538 1.381 . S
C536 C542 1.383 . S
C537 C533 1.495 . S
C537 H543 0.959 . S
C537 H544 0.961 . S
C537 H545 0.960 . S
C538 C536 1.381 . S
C538 C539 1.394 . S
C538 H546 0.930 . S
C539 C538 1.394 . S
C539 C540 1.383 . S
C539 H547 0.929 . S
C540 C539 1.383 . S
C540 C541 1.377 . S
C541 H525 0.930 . S
C541 C540 1.377 . S
C541 C542 1.379 . S
C542 H526 0.931 . S
C542 C536 1.383 . S
C542 C541 1.379 . S
H543 C537 0.959 . S
H544 C537 0.961 . S
H545 C537 0.960 . S
H546 C538 0.930 . S
H547 C539 0.929 . S
H548 C556 0.929 . S
H549 C558 0.930 . S
H550 C560 0.930 . S
H551 C563 0.929 . S
H552 C566 0.930 . S
H553 C568 0.960 . S
H554 C568 0.960 . S
H555 C568 0.960 . S
C556 H548 0.929 . S
C556 C557 1.377 . S
C556 C558 1.384 . S
C557 C556 1.377 . S
C557 C563 1.390 . S
C558 H549 0.930 . S
C558 C556 1.384 . S
C558 C559 1.372 . S
C559 C558 1.372 . S
C559 C560 1.400 . S
C559 C564 1.490 . S
C560 H550 0.930 . S
C560 C559 1.400 . S
C560 C563 1.386 . S
H561 C577 0.930 . S
H562 C578 0.931 . S
C563 H551 0.929 . S
C563 C557 1.390 . S
C563 C560 1.386 . S
C564 C559 1.490 . S
C564 C566 1.395 . S
C564 C567 1.403 . S
H565 C571 0.930 . S
C566 H552 0.930 . S
C566 C564 1.395 . S
C566 C569 1.403 . S
C567 C564 1.403 . S
C567 C568 1.524 . S
C567 C571 1.400 . S
C568 H553 0.960 . S
C568 H554 0.960 . S
C568 H555 0.960 . S
C568 C567 1.524 . S
C569 C566 1.403 . S
C569 C570 1.392 . S
C569 C573 1.495 . S
C570 C569 1.392 . S
C570 C571 1.385 . S
C570 C572 1.478 . S
C571 H565 0.930 . S
C571 C567 1.400 . S
C571 C570 1.385 . S
C572 C570 1.478 . S
C572 C574 1.381 . S
C572 C578 1.383 . S
C573 C569 1.495 . S
C573 H579 0.959 . S
C573 H580 0.961 . S
C573 H581 0.960 . S
C574 C572 1.381 . S
C574 C575 1.394 . S
C574 H582 0.930 . S
C575 C574 1.394 . S
C575 C576 1.383 . S
C575 H583 0.929 . S
C576 C575 1.383 . S
C576 C577 1.377 . S
C577 H561 0.930 . S
C577 C576 1.377 . S
C577 C578 1.379 . S
C578 H562 0.931 . S
C578 C572 1.383 . S
C578 C577 1.379 . S
H579 C573 0.959 . S
H580 C573 0.961 . S
H581 C573 0.960 . S
H582 C574 0.930 . S
H583 C575 0.929 . S
H584 C592 0.929 . S
H585 C594 0.930 . S
H586 C596 0.930 . S
H587 C599 0.929 . S
H588 C602 0.930 . S
H589 C604 0.960 . S
H590 C604 0.960 . S
H591 C604 0.960 . S
C592 H584 0.929 . S
C592 C593 1.377 . S
C592 C594 1.384 . S
C593 C592 1.377 . S
C593 C599 1.390 . S
C594 H585 0.930 . S
C594 C592 1.384 . S
C594 C595 1.372 . S
C595 C594 1.372 . S
C595 C596 1.400 . S
C595 C600 1.490 . S
C596 H586 0.930 . S
C596 C595 1.400 . S
C596 C599 1.386 . S
H597 C613 0.930 . S
H598 C614 0.931 . S
C599 H587 0.929 . S
C599 C593 1.390 . S
C599 C596 1.386 . S
C600 C595 1.490 . S
C600 C602 1.395 . S
C600 C603 1.403 . S
H601 C607 0.930 . S
C602 H588 0.930 . S
C602 C600 1.395 . S
C602 C605 1.403 . S
C603 C600 1.403 . S
C603 C604 1.524 . S
C603 C607 1.400 . S
C604 H589 0.960 . S
C604 H590 0.960 . S
C604 H591 0.960 . S
C604 C603 1.524 . S
C605 C602 1.403 . S
C605 C606 1.392 . S
C605 C609 1.495 . S
C606 C605 1.392 . S
C606 C607 1.385 . S
C606 C608 1.478 . S
C607 H601 0.930 . S
C607 C603 1.400 . S
C607 C606 1.385 . S
C608 C606 1.478 . S
C608 C610 1.381 . S
C608 C614 1.383 . S
C609 C605 1.495 . S
C609 H615 0.959 . S
C609 H616 0.961 . S
C609 H617 0.960 . S
C610 C608 1.381 . S
C610 C611 1.394 . S
C610 H618 0.930 . S
C611 C610 1.394 . S
C611 C612 1.383 . S
C611 H619 0.929 . S
C612 C611 1.383 . S
C612 C613 1.377 . S
C613 H597 0.930 . S
C613 C612 1.377 . S
C613 C614 1.379 . S
C614 H598 0.931 . S
C614 C608 1.383 . S
C614 C613 1.379 . S
H615 C609 0.959 . S
H616 C609 0.961 . S
H617 C609 0.960 . S
H618 C610 0.930 . S
H619 C611 0.929 . S
H620 C628 0.929 . S
H621 C630 0.930 . S
H622 C632 0.930 . S
H623 C635 0.929 . S
H624 C638 0.930 . S
H625 C640 0.960 . S
H626 C640 0.960 . S
H627 C640 0.960 . S
C628 H620 0.929 . S
C628 C629 1.377 . S
C628 C630 1.384 . S
C629 C628 1.377 . S
C629 C635 1.390 . S
C630 H621 0.930 . S
C630 C628 1.384 . S
C630 C631 1.372 . S
C631 C630 1.372 . S
C631 C632 1.400 . S
C631 C636 1.490 . S
C632 H622 0.930 . S
C632 C631 1.400 . S
C632 C635 1.386 . S
H633 C649 0.930 . S
H634 C650 0.931 . S
C635 H623 0.929 . S
C635 C629 1.390 . S
C635 C632 1.386 . S
C636 C631 1.490 . S
C636 C638 1.395 . S
C636 C639 1.403 . S
H637 C643 0.930 . S
C638 H624 0.930 . S
C638 C636 1.395 . S
C638 C641 1.403 . S
C639 C636 1.403 . S
C639 C640 1.524 . S
C639 C643 1.400 . S
C640 H625 0.960 . S
C640 H626 0.960 . S
C640 H627 0.960 . S
C640 C639 1.524 . S
C641 C638 1.403 . S
C641 C642 1.392 . S
C641 C645 1.495 . S
C642 C641 1.392 . S
C642 C643 1.385 . S
C642 C644 1.478 . S
C643 H637 0.930 . S
C643 C639 1.400 . S
C643 C642 1.385 . S
C644 C642 1.478 . S
C644 C646 1.381 . S
C644 C650 1.383 . S
C645 C641 1.495 . S
C645 H651 0.959 . S
C645 H652 0.961 . S
C645 H653 0.960 . S
C646 C644 1.381 . S
C646 C647 1.394 . S
C646 H654 0.930 . S
C647 C646 1.394 . S
C647 C648 1.383 . S
C647 H655 0.929 . S
C648 C647 1.383 . S
C648 C649 1.377 . S
C649 H633 0.930 . S
C649 C648 1.377 . S
C649 C650 1.379 . S
C650 H634 0.931 . S
C650 C644 1.383 . S
C650 C649 1.379 . S
H651 C645 0.959 . S
H652 C645 0.961 . S
H653 C645 0.960 . S
H654 C646 0.930 . S
H655 C647 0.929 . S
H656 C664 0.929 . S
H657 C666 0.930 . S
H658 C668 0.930 . S
H659 C671 0.929 . S
H660 C674 0.930 . S
H661 C676 0.960 . S
H662 C676 0.960 . S
H663 C676 0.960 . S
C664 H656 0.929 . S
C664 C665 1.377 . S
C664 C666 1.384 . S
C665 C664 1.377 . S
C665 C671 1.390 . S
C666 H657 0.930 . S
C666 C664 1.384 . S
C666 C667 1.372 . S
C667 C666 1.372 . S
C667 C668 1.400 . S
C667 C672 1.490 . S
C668 H658 0.930 . S
C668 C667 1.400 . S
C668 C671 1.386 . S
H669 C685 0.930 . S
H670 C686 0.931 . S
C671 H659 0.929 . S
C671 C665 1.390 . S
C671 C668 1.386 . S
C672 C667 1.490 . S
C672 C674 1.395 . S
C672 C675 1.403 . S
H673 C679 0.930 . S
C674 H660 0.930 . S
C674 C672 1.395 . S
C674 C677 1.403 . S
C675 C672 1.403 . S
C675 C676 1.524 . S
C675 C679 1.400 . S
C676 H661 0.960 . S
C676 H662 0.960 . S
C676 H663 0.960 . S
C676 C675 1.524 . S
C677 C674 1.403 . S
C677 C678 1.392 . S
C677 C681 1.495 . S
C678 C677 1.392 . S
C678 C679 1.385 . S
C678 C680 1.478 . S
C679 H673 0.930 . S
C679 C675 1.400 . S
C679 C678 1.385 . S
C680 C678 1.478 . S
C680 C682 1.381 . S
C680 C686 1.383 . S
C681 C677 1.495 . S
C681 H687 0.959 . S
C681 H688 0.961 . S
C681 H689 0.960 . S
C682 C680 1.381 . S
C682 C683 1.394 . S
C682 H690 0.930 . S
C683 C682 1.394 . S
C683 C684 1.383 . S
C683 H691 0.929 . S
C684 C683 1.383 . S
C684 C685 1.377 . S
C685 H669 0.930 . S
C685 C684 1.377 . S
C685 C686 1.379 . S
C686 H670 0.931 . S
C686 C680 1.383 . S
C686 C685 1.379 . S
H687 C681 0.959 . S
H688 C681 0.961 . S
H689 C681 0.960 . S
H690 C682 0.930 . S
H691 C683 0.929 . S
H692 C700 0.929 . S
H693 C702 0.930 . S
H694 C704 0.930 . S
H695 C707 0.929 . S
H696 C710 0.930 . S
H697 C712 0.960 . S
H698 C712 0.960 . S
H699 C712 0.960 . S
C700 H692 0.929 . S
C700 C701 1.377 . S
C700 C702 1.384 . S
C701 C700 1.377 . S
C701 C707 1.390 . S
C702 H693 0.930 . S
C702 C700 1.384 . S
C702 C703 1.372 . S
C703 C702 1.372 . S
C703 C704 1.400 . S
C703 C708 1.490 . S
C704 H694 0.930 . S
C704 C703 1.400 . S
C704 C707 1.386 . S
H705 C721 0.930 . S
H706 C722 0.931 . S
C707 H695 0.929 . S
C707 C701 1.390 . S
C707 C704 1.386 . S
C708 C703 1.490 . S
C708 C710 1.395 . S
C708 C711 1.403 . S
H709 C715 0.930 . S
C710 H696 0.930 . S
C710 C708 1.395 . S
C710 C713 1.403 . S
C711 C708 1.403 . S
C711 C712 1.524 . S
C711 C715 1.400 . S
C712 H697 0.960 . S
C712 H698 0.960 . S
C712 H699 0.960 . S
C712 C711 1.524 . S
C713 C710 1.403 . S
C713 C714 1.392 . S
C713 C717 1.495 . S
C714 C713 1.392 . S
C714 C715 1.385 . S
C714 C716 1.478 . S
C715 H709 0.930 . S
C715 C711 1.400 . S
C715 C714 1.385 . S
C716 C714 1.478 . S
C716 C718 1.381 . S
C716 C722 1.383 . S
C717 C713 1.495 . S
C717 H723 0.959 . S
C717 H724 0.961 . S
C717 H725 0.960 . S
C718 C716 1.381 . S
C718 C719 1.394 . S
C718 H726 0.930 . S
C719 C718 1.394 . S
C719 C720 1.383 . S
C719 H727 0.929 . S
C720 C719 1.383 . S
C720 C721 1.377 . S
C721 H705 0.930 . S
C721 C720 1.377 . S
C721 C722 1.379 . S
C722 H706 0.931 . S
C722 C716 1.383 . S
C722 C721 1.379 . S
H723 C717 0.959 . S
H724 C717 0.961 . S
H725 C717 0.960 . S
H726 C718 0.930 . S
H727 C719 0.929 . S
H728 C736 0.929 . S
H729 C738 0.930 . S
H730 C740 0.930 . S
H731 C743 0.929 . S
H732 C746 0.930 . S
H733 C748 0.960 . S
H734 C748 0.960 . S
H735 C748 0.960 . S
C736 H728 0.929 . S
C736 C737 1.377 . S
C736 C738 1.384 . S
C737 C736 1.377 . S
C737 C743 1.390 . S
C738 H729 0.930 . S
C738 C736 1.384 . S
C738 C739 1.372 . S
C739 C738 1.372 . S
C739 C740 1.400 . S
C739 C744 1.490 . S
C740 H730 0.930 . S
C740 C739 1.400 . S
C740 C743 1.386 . S
H741 C757 0.930 . S
H742 C758 0.931 . S
C743 H731 0.929 . S
C743 C737 1.390 . S
C743 C740 1.386 . S
C744 C739 1.490 . S
C744 C746 1.395 . S
C744 C747 1.403 . S
H745 C751 0.930 . S
C746 H732 0.930 . S
C746 C744 1.395 . S
C746 C749 1.403 . S
C747 C744 1.403 . S
C747 C748 1.524 . S
C747 C751 1.400 . S
C748 H733 0.960 . S
C748 H734 0.960 . S
C748 H735 0.960 . S
C748 C747 1.524 . S
C749 C746 1.403 . S
C749 C750 1.392 . S
C749 C753 1.495 . S
C750 C749 1.392 . S
C750 C751 1.385 . S
C750 C752 1.478 . S
C751 H745 0.930 . S
C751 C747 1.400 . S
C751 C750 1.385 . S
C752 C750 1.478 . S
C752 C754 1.381 . S
C752 C758 1.383 . S
C753 C749 1.495 . S
C753 H759 0.959 . S
C753 H760 0.961 . S
C753 H761 0.960 . S
C754 C752 1.381 . S
C754 C755 1.394 . S
C754 H762 0.930 . S
C755 C754 1.394 . S
C755 C756 1.383 . S
C755 H763 0.929 . S
C756 C755 1.383 . S
C756 C757 1.377 . S
C757 H741 0.930 . S
C757 C756 1.377 . S
C757 C758 1.379 . S
C758 H742 0.931 . S
C758 C752 1.383 . S
C758 C757 1.379 . S
H759 C753 0.959 . S
H760 C753 0.961 . S
H761 C753 0.960 . S
H762 C754 0.930 . S
H763 C755 0.929 . S
H764 C772 0.929 . S
H765 C774 0.930 . S
H766 C776 0.930 . S
H767 C779 0.929 . S
H768 C782 0.930 . S
H769 C784 0.960 . S
H770 C784 0.960 . S
H771 C784 0.960 . S
C772 H764 0.929 . S
C772 C773 1.377 . S
C772 C774 1.384 . S
C773 C772 1.377 . S
C773 C779 1.390 . S
C774 H765 0.930 . S
C774 C772 1.384 . S
C774 C775 1.372 . S
C775 C774 1.372 . S
C775 C776 1.400 . S
C775 C780 1.490 . S
C776 H766 0.930 . S
C776 C775 1.400 . S
C776 C779 1.386 . S
H777 C793 0.930 . S
H778 C794 0.931 . S
C779 H767 0.929 . S
C779 C773 1.390 . S
C779 C776 1.386 . S
C780 C775 1.490 . S
C780 C782 1.395 . S
C780 C783 1.403 . S
H781 C787 0.930 . S
C782 H768 0.930 . S
C782 C780 1.395 . S
C782 C785 1.403 . S
C783 C780 1.403 . S
C783 C784 1.524 . S
C783 C787 1.400 . S
C784 H769 0.960 . S
C784 H770 0.960 . S
C784 H771 0.960 . S
C784 C783 1.524 . S
C785 C782 1.403 . S
C785 C786 1.392 . S
C785 C789 1.495 . S
C786 C785 1.392 . S
C786 C787 1.385 . S
C786 C788 1.478 . S
C787 H781 0.930 . S
C787 C783 1.400 . S
C787 C786 1.385 . S
C788 C786 1.478 . S
C788 C790 1.381 . S
C788 C794 1.383 . S
C789 C785 1.495 . S
C789 H795 0.959 . S
C789 H796 0.961 . S
C789 H797 0.960 . S
C790 C788 1.381 . S
C790 C791 1.394 . S
C790 H798 0.930 . S
C791 C790 1.394 . S
C791 C792 1.383 . S
C791 H799 0.929 . S
C792 C791 1.383 . S
C792 C793 1.377 . S
C793 H777 0.930 . S
C793 C792 1.377 . S
C793 C794 1.379 . S
C794 H778 0.931 . S
C794 C788 1.383 . S
C794 C793 1.379 . S
H795 C789 0.959 . S
H796 C789 0.961 . S
H797 C789 0.960 . S
H798 C790 0.930 . S
H799 C791 0.929 . S
H800 C808 0.929 . S
H801 C810 0.930 . S
H802 C812 0.930 . S
H803 C815 0.929 . S
H804 C818 0.930 . S
H805 C820 0.960 . S
H806 C820 0.960 . S
H807 C820 0.960 . S
C808 H800 0.929 . S
C808 C809 1.377 . S
C808 C810 1.384 . S
C809 C808 1.377 . S
C809 C815 1.390 . S
C810 H801 0.930 . S
C810 C808 1.384 . S
C810 C811 1.372 . S
C811 C810 1.372 . S
C811 C812 1.400 . S
C811 C816 1.490 . S
C812 H802 0.930 . S
C812 C811 1.400 . S
C812 C815 1.386 . S
H813 C829 0.930 . S
H814 C830 0.931 . S
C815 H803 0.929 . S
C815 C809 1.390 . S
C815 C812 1.386 . S
C816 C811 1.490 . S
C816 C818 1.395 . S
C816 C819 1.403 . S
H817 C823 0.930 . S
C818 H804 0.930 . S
C818 C816 1.395 . S
C818 C821 1.403 . S
C819 C816 1.403 . S
C819 C820 1.524 . S
C819 C823 1.400 . S
C820 H805 0.960 . S
C820 H806 0.960 . S
C820 H807 0.960 . S
C820 C819 1.524 . S
C821 C818 1.403 . S
C821 C822 1.392 . S
C821 C825 1.495 . S
C822 C821 1.392 . S
C822 C823 1.385 . S
C822 C824 1.478 . S
C823 H817 0.930 . S
C823 C819 1.400 . S
C823 C822 1.385 . S
C824 C822 1.478 . S
C824 C826 1.381 . S
C824 C830 1.383 . S
C825 C821 1.495 . S
C825 H831 0.959 . S
C825 H832 0.961 . S
C825 H833 0.960 . S
C826 C824 1.381 . S
C826 C827 1.394 . S
C826 H834 0.930 . S
C827 C826 1.394 . S
C827 C828 1.383 . S
C827 H835 0.929 . S
C828 C827 1.383 . S
C828 C829 1.377 . S
C829 H813 0.930 . S
C829 C828 1.377 . S
C829 C830 1.379 . S
C830 H814 0.931 . S
C830 C824 1.383 . S
C830 C829 1.379 . S
H831 C825 0.959 . S
H832 C825 0.961 . S
H833 C825 0.960 . S
H834 C826 0.930 . S
H835 C827 0.929 . S
H836 C844 0.929 . S
H837 C846 0.930 . S
H838 C848 0.930 . S
H839 C851 0.929 . S
H840 C854 0.930 . S
H841 C856 0.960 . S
H842 C856 0.960 . S
H843 C856 0.960 . S
C844 H836 0.929 . S
C844 C845 1.377 . S
C844 C846 1.384 . S
C845 C844 1.377 . S
C845 C851 1.390 . S
C846 H837 0.930 . S
C846 C844 1.384 . S
C846 C847 1.372 . S
C847 C846 1.372 . S
C847 C848 1.400 . S
C847 C852 1.490 . S
C848 H838 0.930 . S
C848 C847 1.400 . S
C848 C851 1.386 . S
H849 C865 0.930 . S
H850 C866 0.931 . S
C851 H839 0.929 . S
C851 C845 1.390 . S
C851 C848 1.386 . S
C852 C847 1.490 . S
C852 C854 1.395 . S
C852 C855 1.403 . S
H853 C859 0.930 . S
C854 H840 0.930 . S
C854 C852 1.395 . S
C854 C857 1.403 . S
C855 C852 1.403 . S
C855 C856 1.524 . S
C855 C859 1.400 . S
C856 H841 0.960 . S
C856 H842 0.960 . S
C856 H843 0.960 . S
C856 C855 1.524 . S
C857 C854 1.403 . S
C857 C858 1.392 . S
C857 C861 1.495 . S
C858 C857 1.392 . S
C858 C859 1.385 . S
C858 C860 1.478 . S
C859 H853 0.930 . S
C859 C855 1.400 . S
C859 C858 1.385 . S
C860 C858 1.478 . S
C860 C862 1.381 . S
C860 C866 1.383 . S
C861 C857 1.495 . S
C861 H867 0.959 . S
C861 H868 0.961 . S
C861 H869 0.960 . S
C862 C860 1.381 . S
C862 C863 1.394 . S
C862 H870 0.930 . S
C863 C862 1.394 . S
C863 C864 1.383 . S
C863 H871 0.929 . S
C864 C863 1.383 . S
C864 C865 1.377 . S
C865 H849 0.930 . S
C865 C864 1.377 . S
C865 C866 1.379 . S
C866 H850 0.931 . S
C866 C860 1.383 . S
C866 C865 1.379 . S
H867 C861 0.959 . S
H868 C861 0.961 . S
H869 C861 0.960 . S
H870 C862 0.930 . S
H871 C863 0.929 . S
H872 C880 0.929 . S
H873 C882 0.930 . S
H874 C884 0.930 . S
H875 C887 0.929 . S
H876 C890 0.930 . S
H877 C892 0.960 . S
H878 C892 0.960 . S
H879 C892 0.960 . S
C880 H872 0.929 . S
C880 C881 1.377 . S
C880 C882 1.384 . S
C881 C880 1.377 . S
C881 C887 1.390 . S
C882 H873 0.930 . S
C882 C880 1.384 . S
C882 C883 1.372 . S
C883 C882 1.372 . S
C883 C884 1.400 . S
C883 C888 1.490 . S
C884 H874 0.930 . S
C884 C883 1.400 . S
C884 C887 1.386 . S
H885 C901 0.930 . S
H886 C902 0.931 . S
C887 H875 0.929 . S
C887 C881 1.390 . S
C887 C884 1.386 . S
C888 C883 1.490 . S
C888 C890 1.395 . S
C888 C891 1.403 . S
H889 C895 0.930 . S
C890 H876 0.930 . S
C890 C888 1.395 . S
C890 C893 1.403 . S
C891 C888 1.403 . S
C891 C892 1.524 . S
C891 C895 1.400 . S
C892 H877 0.960 . S
C892 H878 0.960 . S
C892 H879 0.960 . S
C892 C891 1.524 . S
C893 C890 1.403 . S
C893 C894 1.392 . S
C893 C897 1.495 . S
C894 C893 1.392 . S
C894 C895 1.385 . S
C894 C896 1.478 . S
C895 H889 0.930 . S
C895 C891 1.400 . S
C895 C894 1.385 . S
C896 C894 1.478 . S
C896 C898 1.381 . S
C896 C902 1.383 . S
C897 C893 1.495 . S
C897 H903 0.959 . S
C897 H904 0.961 . S
C897 H905 0.960 . S
C898 C896 1.381 . S
C898 C899 1.394 . S
C898 H906 0.930 . S
C899 C898 1.394 . S
C899 C900 1.383 . S
C899 H907 0.929 . S
C900 C899 1.383 . S
C900 C901 1.377 . S
C901 H885 0.930 . S
C901 C900 1.377 . S
C901 C902 1.379 . S
C902 H886 0.931 . S
C902 C896 1.383 . S
C902 C901 1.379 . S
H903 C897 0.959 . S
H904 C897 0.961 . S
H905 C897 0.960 . S
H906 C898 0.930 . S
H907 C899 0.929 . S
H908 C916 0.929 . S
H909 C918 0.930 . S
H910 C920 0.930 . S
H911 C923 0.929 . S
H912 C926 0.930 . S
H913 C928 0.960 . S
H914 C928 0.960 . S
H915 C928 0.960 . S
C916 H908 0.929 . S
C916 C917 1.377 . S
C916 C918 1.384 . S
C917 C916 1.377 . S
C917 C923 1.390 . S
C918 H909 0.930 . S
C918 C916 1.384 . S
C918 C919 1.372 . S
C919 C918 1.372 . S
C919 C920 1.400 . S
C919 C924 1.490 . S
C920 H910 0.930 . S
C920 C919 1.400 . S
C920 C923 1.386 . S
H921 C937 0.930 . S
H922 C938 0.931 . S
C923 H911 0.929 . S
C923 C917 1.390 . S
C923 C920 1.386 . S
C924 C919 1.490 . S
C924 C926 1.395 . S
C924 C927 1.403 . S
H925 C931 0.930 . S
C926 H912 0.930 . S
C926 C924 1.395 . S
C926 C929 1.403 . S
C927 C924 1.403 . S
C927 C928 1.524 . S
C927 C931 1.400 . S
C928 H913 0.960 . S
C928 H914 0.960 . S
C928 H915 0.960 . S
C928 C927 1.524 . S
C929 C926 1.403 . S
C929 C930 1.392 . S
C929 C933 1.495 . S
C930 C929 1.392 . S
C930 C931 1.385 . S
C930 C932 1.478 . S
C931 H925 0.930 . S
C931 C927 1.400 . S
C931 C930 1.385 . S
C932 C930 1.478 . S
C932 C934 1.381 . S
C932 C938 1.383 . S
C933 C929 1.495 . S
C933 H939 0.959 . S
C933 H940 0.961 . S
C933 H941 0.960 . S
C934 C932 1.381 . S
C934 C935 1.394 . S
C934 H942 0.930 . S
C935 C934 1.394 . S
C935 C936 1.383 . S
C935 H943 0.929 . S
C936 C935 1.383 . S
C936 C937 1.377 . S
C937 H921 0.930 . S
C937 C936 1.377 . S
C937 C938 1.379 . S
C938 H922 0.931 . S
C938 C932 1.383 . S
C938 C937 1.379 . S
H939 C933 0.959 . S
H940 C933 0.961 . S
H941 C933 0.960 . S
H942 C934 0.930 . S
H943 C935 0.929 . S
H944 C952 0.929 . S
H945 C954 0.930 . S
H946 C956 0.930 . S
H947 C959 0.929 . S
H948 C962 0.930 . S
H949 C964 0.960 . S
H950 C964 0.960 . S
H951 C964 0.960 . S
C952 H944 0.929 . S
C952 C953 1.377 . S
C952 C954 1.384 . S
C953 C952 1.377 . S
C953 C959 1.390 . S
C954 H945 0.930 . S
C954 C952 1.384 . S
C954 C955 1.372 . S
C955 C954 1.372 . S
C955 C956 1.400 . S
C955 C960 1.490 . S
C956 H946 0.930 . S
C956 C955 1.400 . S
C956 C959 1.386 . S
H957 C973 0.930 . S
H958 C974 0.931 . S
C959 H947 0.929 . S
C959 C953 1.390 . S
C959 C956 1.386 . S
C960 C955 1.490 . S
C960 C962 1.395 . S
C960 C963 1.403 . S
H961 C967 0.930 . S
C962 H948 0.930 . S
C962 C960 1.395 . S
C962 C965 1.403 . S
C963 C960 1.403 . S
C963 C964 1.524 . S
C963 C967 1.400 . S
C964 H949 0.960 . S
C964 H950 0.960 . S
C964 H951 0.960 . S
C964 C963 1.524 . S
C965 C962 1.403 . S
C965 C966 1.392 . S
C965 C969 1.495 . S
C966 C965 1.392 . S
C966 C967 1.385 . S
C966 C968 1.478 . S
C967 H961 0.930 . S
C967 C963 1.400 . S
C967 C966 1.385 . S
C968 C966 1.478 . S
C968 C970 1.381 . S
C968 C974 1.383 . S
C969 C965 1.495 . S
C969 H975 0.959 . S
C969 H976 0.961 . S
C969 H977 0.960 . S
C970 C968 1.381 . S
C970 C971 1.394 . S
C970 H978 0.930 . S
C971 C970 1.394 . S
C971 C972 1.383 . S
C971 H979 0.929 . S
C972 C971 1.383 . S
C972 C973 1.377 . S
C973 H957 0.930 . S
C973 C972 1.377 . S
C973 C974 1.379 . S
C974 H958 0.931 . S
C974 C968 1.383 . S
C974 C973 1.379 . S
H975 C969 0.959 . S
H976 C969 0.961 . S
H977 C969 0.960 . S
H978 C970 0.930 . S
H979 C971 0.929 . S
H980 C988 0.929 . S
H981 C990 0.930 . S
H982 C992 0.930 . S
H983 C995 0.929 . S
H984 C998 0.930 . S
H985 C1000 0.960 . S
H986 C1000 0.960 . S
H987 C1000 0.960 . S
C988 H980 0.929 . S
C988 C989 1.377 . S
C988 C990 1.384 . S
C989 C988 1.377 . S
C989 C995 1.390 . S
C990 H981 0.930 . S
C990 C988 1.384 . S
C990 C991 1.372 . S
C991 C990 1.372 . S
C991 C992 1.400 . S
C991 C996 1.490 . S
C992 H982 0.930 . S
C992 C991 1.400 . S
C992 C995 1.386 . S
H993 C1009 0.930 . S
H994 C1010 0.931 . S
C995 H983 0.929 . S
C995 C989 1.390 . S
C995 C992 1.386 . S
C996 C991 1.490 . S
C996 C998 1.395 . S
C996 C999 1.403 . S
H997 C1003 0.930 . S
C998 H984 0.930 . S
C998 C996 1.395 . S
C998 C1001 1.403 . S
C999 C996 1.403 . S
C999 C1000 1.524 . S
C999 C1003 1.400 . S
C1000 H985 0.960 . S
C1000 H986 0.960 . S
C1000 H987 0.960 . S
C1000 C999 1.524 . S
C1001 C998 1.403 . S
C1001 C1002 1.392 . S
C1001 C1005 1.495 . S
C1002 C1001 1.392 . S
C1002 C1003 1.385 . S
C1002 C1004 1.478 . S
C1003 H997 0.930 . S
C1003 C999 1.400 . S
C1003 C1002 1.385 . S
C1004 C1002 1.478 . S
C1004 C1006 1.381 . S
C1004 C1010 1.383 . S
C1005 C1001 1.495 . S
C1005 H1011 0.959 . S
C1005 H1012 0.961 . S
C1005 H1013 0.960 . S
C1006 C1004 1.381 . S
C1006 C1007 1.394 . S
C1006 H1014 0.930 . S
C1007 C1006 1.394 . S
C1007 C1008 1.383 . S
C1007 H1015 0.929 . S
C1008 C1007 1.383 . S
C1008 C1009 1.377 . S
C1009 H993 0.930 . S
C1009 C1008 1.377 . S
C1009 C1010 1.379 . S
C1010 H994 0.931 . S
C1010 C1004 1.383 . S
C1010 C1009 1.379 . S
H1011 C1005 0.959 . S
H1012 C1005 0.961 . S
H1013 C1005 0.960 . S
H1014 C1006 0.930 . S
H1015 C1007 0.929 . S
H1016 C1024 0.929 . S
H1017 C1026 0.930 . S
H1018 C1028 0.930 . S
H1019 C1031 0.929 . S
H1020 C1034 0.930 . S
H1021 C1036 0.960 . S
H1022 C1036 0.960 . S
H1023 C1036 0.960 . S
C1024 H1016 0.929 . S
C1024 C1025 1.377 . S
C1024 C1026 1.384 . S
C1025 C1024 1.377 . S
C1025 C1031 1.390 . S
C1026 H1017 0.930 . S
C1026 C1024 1.384 . S
C1026 C1027 1.372 . S
C1027 C1026 1.372 . S
C1027 C1028 1.400 . S
C1027 C1032 1.490 . S
C1028 H1018 0.930 . S
C1028 C1027 1.400 . S
C1028 C1031 1.386 . S
H1029 C1045 0.930 . S
H1030 C1046 0.931 . S
C1031 H1019 0.929 . S
C1031 C1025 1.390 . S
C1031 C1028 1.386 . S
C1032 C1027 1.490 . S
C1032 C1034 1.395 . S
C1032 C1035 1.403 . S
H1033 C1039 0.930 . S
C1034 H1020 0.930 . S
C1034 C1032 1.395 . S
C1034 C1037 1.403 . S
C1035 C1032 1.403 . S
C1035 C1036 1.524 . S
C1035 C1039 1.400 . S
C1036 H1021 0.960 . S
C1036 H1022 0.960 . S
C1036 H1023 0.960 . S
C1036 C1035 1.524 . S
C1037 C1034 1.403 . S
C1037 C1038 1.392 . S
C1037 C1041 1.495 . S
C1038 C1037 1.392 . S
C1038 C1039 1.385 . S
C1038 C1040 1.478 . S
C1039 H1033 0.930 . S
C1039 C1035 1.400 . S
C1039 C1038 1.385 . S
C1040 C1038 1.478 . S
C1040 C1042 1.381 . S
C1040 C1046 1.383 . S
C1041 C1037 1.495 . S
C1041 H1047 0.959 . S
C1041 H1048 0.961 . S
C1041 H1049 0.960 . S
C1042 C1040 1.381 . S
C1042 C1043 1.394 . S
C1042 H1050 0.930 . S
C1043 C1042 1.394 . S
C1043 C1044 1.383 . S
C1043 H1051 0.929 . S
C1044 C1043 1.383 . S
C1044 C1045 1.377 . S
C1045 H1029 0.930 . S
C1045 C1044 1.377 . S
C1045 C1046 1.379 . S
C1046 H1030 0.931 . S
C1046 C1040 1.383 . S
C1046 C1045 1.379 . S
H1047 C1041 0.959 . S
H1048 C1041 0.961 . S
H1049 C1041 0.960 . S
H1050 C1042 0.930 . S
H1051 C1043 0.929 . S
H1052 C1060 0.929 . S
H1053 C1062 0.930 . S
H1054 C1064 0.930 . S
H1055 C1067 0.929 . S
H1056 C1070 0.930 . S
H1057 C1072 0.960 . S
H1058 C1072 0.960 . S
H1059 C1072 0.960 . S
C1060 H1052 0.929 . S
C1060 C1061 1.377 . S
C1060 C1062 1.384 . S
C1061 C1060 1.377 . S
C1061 C1067 1.390 . S
C1062 H1053 0.930 . S
C1062 C1060 1.384 . S
C1062 C1063 1.372 . S
C1063 C1062 1.372 . S
C1063 C1064 1.400 . S
C1063 C1068 1.490 . S
C1064 H1054 0.930 . S
C1064 C1063 1.400 . S
C1064 C1067 1.386 . S
H1065 C1081 0.930 . S
H1066 C1082 0.931 . S
C1067 H1055 0.929 . S
C1067 C1061 1.390 . S
C1067 C1064 1.386 . S
C1068 C1063 1.490 . S
C1068 C1070 1.395 . S
C1068 C1071 1.403 . S
H1069 C1075 0.930 . S
C1070 H1056 0.930 . S
C1070 C1068 1.395 . S
C1070 C1073 1.403 . S
C1071 C1068 1.403 . S
C1071 C1072 1.524 . S
C1071 C1075 1.400 . S
C1072 H1057 0.960 . S
C1072 H1058 0.960 . S
C1072 H1059 0.960 . S
C1072 C1071 1.524 . S
C1073 C1070 1.403 . S
C1073 C1074 1.392 . S
C1073 C1077 1.495 . S
C1074 C1073 1.392 . S
C1074 C1075 1.385 . S
C1074 C1076 1.478 . S
C1075 H1069 0.930 . S
C1075 C1071 1.400 . S
C1075 C1074 1.385 . S
C1076 C1074 1.478 . S
C1076 C1078 1.381 . S
C1076 C1082 1.383 . S
C1077 C1073 1.495 . S
C1077 H1083 0.959 . S
C1077 H1084 0.961 . S
C1077 H1085 0.960 . S
C1078 C1076 1.381 . S
C1078 C1079 1.394 . S
C1078 H1086 0.930 . S
C1079 C1078 1.394 . S
C1079 C1080 1.383 . S
C1079 H1087 0.929 . S
C1080 C1079 1.383 . S
C1080 C1081 1.377 . S
C1081 H1065 0.930 . S
C1081 C1080 1.377 . S
C1081 C1082 1.379 . S
C1082 H1066 0.931 . S
C1082 C1076 1.383 . S
C1082 C1081 1.379 . S
H1083 C1077 0.959 . S
H1084 C1077 0.961 . S
H1085 C1077 0.960 . S
H1086 C1078 0.930 . S
H1087 C1079 0.929 . S
H1088 C1096 0.929 . S
H1089 C1098 0.930 . S
H1090 C1100 0.930 . S
H1091 C1103 0.929 . S
H1092 C1106 0.930 . S
H1093 C1108 0.960 1_556 S
H1094 C1108 0.960 . S
H1095 C1108 0.960 . S
C1096 H1088 0.929 . S
C1096 C1097 1.377 . S
C1096 C1098 1.384 . S
C1097 C1096 1.377 . S
C1097 C1103 1.390 . S
C1098 H1089 0.930 . S
C1098 C1096 1.384 . S
C1098 C1099 1.372 . S
C1099 C1098 1.372 . S
C1099 C1100 1.400 . S
C1099 C1104 1.490 . S
C1100 H1090 0.930 . S
C1100 C1099 1.400 . S
C1100 C1103 1.386 . S
H1101 C1117 0.930 . S
H1102 C1118 0.931 . S
C1103 H1091 0.929 . S
C1103 C1097 1.390 . S
C1103 C1100 1.386 . S
C1104 C1099 1.490 . S
C1104 C1106 1.395 . S
C1104 C1107 1.403 . S
H1105 C1111 0.930 . S
C1106 H1092 0.930 . S
C1106 C1104 1.395 . S
C1106 C1109 1.403 1_554 S
C1107 C1104 1.403 . S
C1107 C1108 1.524 . S
C1107 C1111 1.400 1_554 S
C1108 H1093 0.960 1_554 S
C1108 H1094 0.960 . S
C1108 H1095 0.960 . S
C1108 C1107 1.524 . S
C1109 C1106 1.403 1_556 S
C1109 C1110 1.392 . S
C1109 C1113 1.495 . S
C1110 C1109 1.392 . S
C1110 C1111 1.385 . S
C1110 C1112 1.478 . S
C1111 H1105 0.930 . S
C1111 C1107 1.400 1_556 S
C1111 C1110 1.385 . S
C1112 C1110 1.478 . S
C1112 C1114 1.381 . S
C1112 C1118 1.383 . S
C1113 C1109 1.495 . S
C1113 H1119 0.959 1_556 S
C1113 H1120 0.961 . S
C1113 H1121 0.960 . S
C1114 C1112 1.381 . S
C1114 C1115 1.394 . S
C1114 H1122 0.930 . S
C1115 C1114 1.394 . S
C1115 C1116 1.383 . S
C1115 H1123 0.929 . S
C1116 C1115 1.383 . S
C1116 C1117 1.377 . S
C1117 H1101 0.930 . S
C1117 C1116 1.377 . S
C1117 C1118 1.379 . S
C1118 H1102 0.931 . S
C1118 C1112 1.383 . S
C1118 C1117 1.379 . S
H1119 C1113 0.959 1_554 S
H1120 C1113 0.961 . S
H1121 C1113 0.960 . S
H1122 C1114 0.930 . S
H1123 C1115 0.929 . S
H1124 C1132 0.929 . S
H1125 C1134 0.930 . S
H1126 C1136 0.930 . S
H1127 C1139 0.929 . S
H1128 C1142 0.930 . S
H1129 C1144 0.960 . S
H1130 C1144 0.960 . S
H1131 C1144 0.960 . S
C1132 H1124 0.929 . S
C1132 C1133 1.377 . S
C1132 C1134 1.384 . S
C1133 C1132 1.377 . S
C1133 C1139 1.390 . S
C1134 H1125 0.930 . S
C1134 C1132 1.384 . S
C1134 C1135 1.372 . S
C1135 C1134 1.372 . S
C1135 C1136 1.400 . S
C1135 C1140 1.490 . S
C1136 H1126 0.930 . S
C1136 C1135 1.400 . S
C1136 C1139 1.386 . S
H1137 C1153 0.930 . S
H1138 C1154 0.931 . S
C1139 H1127 0.929 . S
C1139 C1133 1.390 . S
C1139 C1136 1.386 . S
C1140 C1135 1.490 . S
C1140 C1142 1.395 . S
C1140 C1143 1.403 . S
H1141 C1147 0.930 . S
C1142 H1128 0.930 . S
C1142 C1140 1.395 . S
C1142 C1145 1.403 . S
C1143 C1140 1.403 . S
C1143 C1144 1.524 . S
C1143 C1147 1.400 . S
C1144 H1129 0.960 . S
C1144 H1130 0.960 . S
C1144 H1131 0.960 . S
C1144 C1143 1.524 . S
C1145 C1142 1.403 . S
C1145 C1146 1.392 . S
C1145 C1149 1.495 . S
C1146 C1145 1.392 . S
C1146 C1147 1.385 . S
C1146 C1148 1.478 . S
C1147 H1141 0.930 . S
C1147 C1143 1.400 . S
C1147 C1146 1.385 . S
C1148 C1146 1.478 . S
C1148 C1150 1.381 . S
C1148 C1154 1.383 . S
C1149 C1145 1.495 . S
C1149 H1155 0.959 . S
C1149 H1156 0.961 . S
C1149 H1157 0.960 . S
C1150 C1148 1.381 . S
C1150 C1151 1.394 . S
C1150 H1158 0.930 . S
C1151 C1150 1.394 . S
C1151 C1152 1.383 . S
C1151 H1159 0.929 . S
C1152 C1151 1.383 . S
C1152 C1153 1.377 . S
C1153 H1137 0.930 . S
C1153 C1152 1.377 . S
C1153 C1154 1.379 . S
C1154 H1138 0.931 . S
C1154 C1148 1.383 . S
C1154 C1153 1.379 . S
H1155 C1149 0.959 . S
H1156 C1149 0.961 . S
H1157 C1149 0.960 . S
H1158 C1150 0.930 . S
H1159 C1151 0.929 . S
H1160 C1168 0.929 . S
H1161 C1170 0.930 . S
H1162 C1172 0.930 . S
H1163 C1175 0.929 . S
H1164 C1178 0.930 . S
H1165 C1180 0.960 . S
H1166 C1180 0.960 . S
H1167 C1180 0.960 1_455 S
C1168 H1160 0.929 . S
C1168 C1169 1.377 . S
C1168 C1170 1.384 . S
C1169 C1168 1.377 . S
C1169 C1175 1.390 1_655 S
C1170 H1161 0.930 . S
C1170 C1168 1.384 . S
C1170 C1171 1.372 . S
C1171 C1170 1.372 . S
C1171 C1172 1.400 1_655 S
C1171 C1176 1.490 . S
C1172 H1162 0.930 . S
C1172 C1171 1.400 1_455 S
C1172 C1175 1.386 . S
H1173 C1189 0.930 . S
H1174 C1190 0.931 . S
C1175 H1163 0.929 . S
C1175 C1169 1.390 1_455 S
C1175 C1172 1.386 . S
C1176 C1171 1.490 . S
C1176 C1178 1.395 . S
C1176 C1179 1.403 . S
H1177 C1183 0.930 . S
C1178 H1164 0.930 . S
C1178 C1176 1.395 . S
C1178 C1181 1.403 1_554 S
C1179 C1176 1.403 . S
C1179 C1180 1.524 . S
C1179 C1183 1.400 1_554 S
C1180 H1165 0.960 . S
C1180 H1166 0.960 . S
C1180 H1167 0.960 1_655 S
C1180 C1179 1.524 . S
C1181 C1178 1.403 1_556 S
C1181 C1182 1.392 . S
C1181 C1185 1.495 . S
C1182 C1181 1.392 . S
C1182 C1183 1.385 . S
C1182 C1184 1.478 . S
C1183 H1177 0.930 . S
C1183 C1179 1.400 1_556 S
C1183 C1182 1.385 . S
C1184 C1182 1.478 . S
C1184 C1186 1.381 . S
C1184 C1190 1.383 1_655 S
C1185 C1181 1.495 . S
C1185 H1191 0.959 . S
C1185 H1192 0.961 . S
C1185 H1193 0.960 . S
C1186 C1184 1.381 . S
C1186 C1187 1.394 . S
C1186 H1194 0.930 . S
C1187 C1186 1.394 . S
C1187 C1188 1.383 . S
C1187 H1195 0.929 . S
C1188 C1187 1.383 . S
C1188 C1189 1.377 1_655 S
C1189 H1173 0.930 . S
C1189 C1188 1.377 1_455 S
C1189 C1190 1.379 . S
C1190 H1174 0.931 . S
C1190 C1184 1.383 1_455 S
C1190 C1189 1.379 . S
H1191 C1185 0.959 . S
H1192 C1185 0.961 . S
H1193 C1185 0.960 . S
H1194 C1186 0.930 . S
H1195 C1187 0.929 . S
H1196 C1204 0.929 . S
H1197 C1206 0.930 . S
H1198 C1208 0.915 1_545 S
H1199 C1211 0.918 1_545 S
H1200 C1214 0.930 . S
H1201 C1216 0.960 . S
H1202 C1216 0.960 . S
H1203 C1216 0.960 . S
C1204 H1196 0.929 . S
C1204 C1205 1.377 . S
C1204 C1206 1.384 . S
C1205 C1204 1.377 . S
C1205 C1211 1.390 . S
C1206 H1197 0.930 . S
C1206 C1204 1.384 . S
C1206 C1207 1.372 . S
C1207 C1206 1.372 . S
C1207 C1208 1.400 . S
C1207 C1212 1.490 . S
C1208 H1198 0.915 1_565 S
C1208 C1207 1.400 . S
C1208 C1211 1.386 . S
H1209 C1225 0.930 . S
H1210 C1226 0.931 . S
C1211 H1199 0.918 1_565 S
C1211 C1205 1.390 . S
C1211 C1208 1.386 . S
C1212 C1207 1.490 . S
C1212 C1214 1.395 . S
C1212 C1215 1.403 1_565 S
H1213 C1219 0.930 . S
C1214 H1200 0.930 . S
C1214 C1212 1.395 . S
C1214 C1217 1.403 . S
C1215 C1212 1.403 1_545 S
C1215 C1216 1.524 . S
C1215 C1219 1.400 . S
C1216 H1201 0.960 . S
C1216 H1202 0.960 . S
C1216 H1203 0.960 . S
C1216 C1215 1.524 . S
C1217 C1214 1.403 . S
C1217 C1218 1.392 . S
C1217 C1221 1.495 . S
C1218 C1217 1.392 . S
C1218 C1219 1.385 1_565 S
C1218 C1220 1.478 . S
C1219 H1213 0.930 . S
C1219 C1215 1.400 . S
C1219 C1218 1.385 1_545 S
C1220 C1218 1.478 . S
C1220 C1222 1.381 . S
C1220 C1226 1.383 . S
C1221 C1217 1.495 . S
C1221 H1227 0.959 . S
C1221 H1228 0.961 . S
C1221 H1229 0.960 . S
C1222 C1220 1.381 . S
C1222 C1223 1.394 . S
C1222 H1230 0.930 . S
C1223 C1222 1.394 . S
C1223 C1224 1.383 . S
C1223 H1231 0.929 . S
C1224 C1223 1.383 . S
C1224 C1225 1.377 . S
C1225 H1209 0.930 . S
C1225 C1224 1.377 . S
C1225 C1226 1.379 . S
C1226 H1210 0.931 . S
C1226 C1220 1.383 . S
C1226 C1225 1.379 . S
H1227 C1221 0.959 . S
H1228 C1221 0.961 . S
H1229 C1221 0.960 . S
H1230 C1222 0.930 . S
H1231 C1223 0.929 . S
H1232 C1240 0.929 . S
H1233 C1242 0.930 . S
H1234 C1244 0.930 . S
H1235 C1247 0.929 . S
H1236 C1250 0.930 . S
H1237 C1252 0.960 . S
H1238 C1252 0.960 . S
H1239 C1252 0.960 . S
C1240 H1232 0.929 . S
C1240 C1241 1.377 . S
C1240 C1242 1.384 . S
C1241 C1240 1.377 . S
C1241 C1247 1.390 . S
C1242 H1233 0.930 . S
C1242 C1240 1.384 . S
C1242 C1243 1.372 . S
C1243 C1242 1.372 . S
C1243 C1244 1.400 . S
C1243 C1248 1.490 . S
C1244 H1234 0.930 . S
C1244 C1243 1.400 . S
C1244 C1247 1.386 . S
H1245 C1261 0.930 . S
H1246 C1262 0.931 . S
C1247 H1235 0.929 . S
C1247 C1241 1.390 . S
C1247 C1244 1.386 . S
C1248 C1243 1.490 . S
C1248 C1250 1.395 . S
C1248 C1251 1.403 . S
H1249 C1255 0.930 . S
C1250 H1236 0.930 . S
C1250 C1248 1.395 . S
C1250 C1253 1.403 1_556 S
C1251 C1248 1.403 . S
C1251 C1252 1.524 . S
C1251 C1255 1.400 1_556 S
C1252 H1237 0.960 . S
C1252 H1238 0.960 . S
C1252 H1239 0.960 . S
C1252 C1251 1.524 . S
C1253 C1250 1.403 1_554 S
C1253 C1254 1.392 . S
C1253 C1257 1.495 . S
C1254 C1253 1.392 . S
C1254 C1255 1.385 . S
C1254 C1256 1.478 . S
C1255 H1249 0.930 . S
C1255 C1251 1.400 1_554 S
C1255 C1254 1.385 . S
C1256 C1254 1.478 . S
C1256 C1258 1.381 . S
C1256 C1262 1.383 . S
C1257 C1253 1.495 . S
C1257 H1263 0.959 . S
C1257 H1264 0.961 . S
C1257 H1265 0.960 . S
C1258 C1256 1.381 . S
C1258 C1259 1.394 . S
C1258 H1266 0.930 . S
C1259 C1258 1.394 . S
C1259 C1260 1.383 . S
C1259 H1267 0.929 . S
C1260 C1259 1.383 . S
C1260 C1261 1.377 . S
C1261 H1245 0.930 . S
C1261 C1260 1.377 . S
C1261 C1262 1.379 . S
C1262 H1246 0.931 . S
C1262 C1256 1.383 . S
C1262 C1261 1.379 . S
H1263 C1257 0.959 . S
H1264 C1257 0.961 . S
H1265 C1257 0.960 . S
H1266 C1258 0.930 . S
H1267 C1259 0.929 . S
H1268 C1276 0.929 . S
H1269 C1278 0.930 . S
H1270 C1280 0.930 . S
H1271 C1283 0.929 . S
H1272 C1286 0.930 . S
H1273 C1288 0.960 . S
H1274 C1288 0.960 . S
H1275 C1288 0.960 . S
C1276 H1268 0.929 . S
C1276 C1277 1.377 . S
C1276 C1278 1.384 . S
C1277 C1276 1.377 . S
C1277 C1283 1.390 . S
C1278 H1269 0.930 . S
C1278 C1276 1.384 . S
C1278 C1279 1.372 . S
C1279 C1278 1.372 . S
C1279 C1280 1.400 . S
C1279 C1284 1.490 . S
C1280 H1270 0.930 . S
C1280 C1279 1.400 . S
C1280 C1283 1.386 . S
H1281 C1297 0.930 . S
H1282 C1298 0.931 . S
C1283 H1271 0.929 . S
C1283 C1277 1.390 . S
C1283 C1280 1.386 . S
C1284 C1279 1.490 . S
C1284 C1286 1.395 . S
C1284 C1287 1.403 . S
H1285 C1291 0.930 . S
C1286 H1272 0.930 . S
C1286 C1284 1.395 . S
C1286 C1289 1.403 . S
C1287 C1284 1.403 . S
C1287 C1288 1.524 . S
C1287 C1291 1.400 . S
C1288 H1273 0.960 . S
C1288 H1274 0.960 . S
C1288 H1275 0.960 . S
C1288 C1287 1.524 . S
C1289 C1286 1.403 . S
C1289 C1290 1.392 . S
C1289 C1293 1.495 . S
C1290 C1289 1.392 . S
C1290 C1291 1.385 . S
C1290 C1292 1.478 . S
C1291 H1285 0.930 . S
C1291 C1287 1.400 . S
C1291 C1290 1.385 . S
C1292 C1290 1.478 . S
C1292 C1294 1.381 . S
C1292 C1298 1.383 . S
C1293 C1289 1.495 . S
C1293 H1299 0.959 . S
C1293 H1300 0.961 . S
C1293 H1301 0.960 . S
C1294 C1292 1.381 . S
C1294 C1295 1.394 . S
C1294 H1302 0.930 . S
C1295 C1294 1.394 . S
C1295 C1296 1.383 . S
C1295 H1303 0.929 . S
C1296 C1295 1.383 . S
C1296 C1297 1.377 . S
C1297 H1281 0.930 . S
C1297 C1296 1.377 . S
C1297 C1298 1.379 . S
C1298 H1282 0.931 . S
C1298 C1292 1.383 . S
C1298 C1297 1.379 . S
H1299 C1293 0.959 . S
H1300 C1293 0.961 . S
H1301 C1293 0.960 . S
H1302 C1294 0.930 . S
H1303 C1295 0.929 . S
H1304 C1312 0.929 . S
H1305 C1314 0.930 . S
H1306 C1316 0.930 . S
H1307 C1319 0.929 . S
H1308 C1322 0.930 . S
H1309 C1324 0.960 . S
H1310 C1324 0.960 . S
H1311 C1324 0.960 . S
C1312 H1304 0.929 . S
C1312 C1313 1.377 . S
C1312 C1314 1.384 . S
C1313 C1312 1.377 . S
C1313 C1319 1.390 . S
C1314 H1305 0.930 . S
C1314 C1312 1.384 . S
C1314 C1315 1.372 . S
C1315 C1314 1.372 . S
C1315 C1316 1.400 . S
C1315 C1320 1.490 . S
C1316 H1306 0.930 . S
C1316 C1315 1.400 . S
C1316 C1319 1.386 . S
H1317 C1333 0.930 . S
H1318 C1334 0.931 . S
C1319 H1307 0.929 . S
C1319 C1313 1.390 . S
C1319 C1316 1.386 . S
C1320 C1315 1.490 . S
C1320 C1322 1.395 . S
C1320 C1323 1.403 1_455 S
H1321 C1327 0.930 . S
C1322 H1308 0.930 . S
C1322 C1320 1.395 . S
C1322 C1325 1.403 1_554 S
C1323 C1320 1.403 1_655 S
C1323 C1324 1.524 . S
C1323 C1327 1.400 1_554 S
C1324 H1309 0.960 . S
C1324 H1310 0.960 . S
C1324 H1311 0.960 . S
C1324 C1323 1.524 . S
C1325 C1322 1.403 1_556 S
C1325 C1326 1.392 . S
C1325 C1329 1.495 . S
C1326 C1325 1.392 . S
C1326 C1327 1.385 1_455 S
C1326 C1328 1.478 . S
C1327 H1321 0.930 . S
C1327 C1323 1.400 1_556 S
C1327 C1326 1.385 1_655 S
C1328 C1326 1.478 . S
C1328 C1330 1.381 . S
C1328 C1334 1.383 . S
C1329 C1325 1.495 . S
C1329 H1335 0.959 . S
C1329 H1336 0.961 . S
C1329 H1337 0.960 . S
C1330 C1328 1.381 . S
C1330 C1331 1.394 . S
C1330 H1338 0.930 . S
C1331 C1330 1.394 . S
C1331 C1332 1.383 . S
C1331 H1339 0.929 . S
C1332 C1331 1.383 . S
C1332 C1333 1.377 . S
C1333 H1317 0.930 . S
C1333 C1332 1.377 . S
C1333 C1334 1.379 . S
C1334 H1318 0.931 . S
C1334 C1328 1.383 . S
C1334 C1333 1.379 . S
H1335 C1329 0.959 . S
H1336 C1329 0.961 . S
H1337 C1329 0.960 . S
H1338 C1330 0.930 . S
H1339 C1331 0.929 . S
H1340 C1348 0.929 . S
H1341 C1350 0.930 . S
H1342 C1352 0.930 . S
H1343 C1355 0.929 . S
H1344 C1358 0.930 . S
H1345 C1360 0.960 . S
H1346 C1360 0.960 . S
H1347 C1360 0.960 . S
C1348 H1340 0.929 . S
C1348 C1349 1.377 . S
C1348 C1350 1.384 . S
C1349 C1348 1.377 . S
C1349 C1355 1.390 . S
C1350 H1341 0.930 . S
C1350 C1348 1.384 . S
C1350 C1351 1.372 . S
C1351 C1350 1.372 . S
C1351 C1352 1.400 . S
C1351 C1356 1.490 . S
C1352 H1342 0.930 . S
C1352 C1351 1.400 . S
C1352 C1355 1.386 . S
H1353 C1369 0.930 . S
H1354 C1370 0.931 . S
C1355 H1343 0.929 . S
C1355 C1349 1.390 . S
C1355 C1352 1.386 . S
C1356 C1351 1.490 . S
C1356 C1358 1.395 1_545 S
C1356 C1359 1.403 . S
H1357 C1363 0.930 . S
C1358 H1344 0.930 . S
C1358 C1356 1.395 1_565 S
C1358 C1361 1.403 . S
C1359 C1356 1.403 . S
C1359 C1360 1.524 . S
C1359 C1363 1.400 . S
C1360 H1345 0.960 . S
C1360 H1346 0.960 . S
C1360 H1347 0.960 . S
C1360 C1359 1.524 . S
C1361 C1358 1.403 . S
C1361 C1362 1.392 1_565 S
C1361 C1365 1.495 . S
C1362 C1361 1.392 1_545 S
C1362 C1363 1.385 . S
C1362 C1364 1.478 . S
C1363 H1357 0.930 . S
C1363 C1359 1.400 . S
C1363 C1362 1.385 . S
C1364 C1362 1.478 . S
C1364 C1366 1.381 . S
C1364 C1370 1.383 . S
C1365 C1361 1.495 . S
C1365 H1371 0.959 . S
C1365 H1372 0.961 . S
C1365 H1373 0.960 . S
C1366 C1364 1.381 . S
C1366 C1367 1.394 . S
C1366 H1374 0.930 . S
C1367 C1366 1.394 . S
C1367 C1368 1.383 . S
C1367 H1375 0.929 . S
C1368 C1367 1.383 . S
C1368 C1369 1.377 . S
C1369 H1353 0.930 . S
C1369 C1368 1.377 . S
C1369 C1370 1.379 . S
C1370 H1354 0.931 . S
C1370 C1364 1.383 . S
C1370 C1369 1.379 . S
H1371 C1365 0.959 . S
H1372 C1365 0.961 . S
H1373 C1365 0.960 . S
H1374 C1366 0.930 . S
H1375 C1367 0.929 . S
C233 C11 1.242 . S
C252 C109 1.227 . S
C269 C25 1.241 . S
C288 C67 1.226 . S
C305 C39 1.238 . S
C324 C81 1.247 . S
C341 C53 1.237 . S
C360 C95 1.250 . S
C377 C123 1.241 . S
C396 C221 1.234 . S
C413 C179 1.239 . S
C432 C137 1.242 . S
C449 C151 1.239 . S
C468 C193 1.228 . S
C485 C165 1.238 . S
C504 C207 1.241 . S
C521 C5 1.422 . S
C540 C135 1.435 . S
C557 C19 1.427 . S
C576 C149 1.441 . S
C593 C163 1.441 . S
C612 C33 1.434 . S
C629 C47 1.420 . S
C648 C121 1.433 . S
C665 C61 1.420 . S
C684 C219 1.433 . S
C701 C177 1.441 . S
C720 C75 1.435 . S
C737 C191 1.441 . S
C756 C89 1.427 . S
C773 C205 1.440 . S
C792 C103 1.417 . S
C809 C23 1.441 . S
C828 C117 1.409 . S
C845 C37 1.440 . S
C864 C131 1.418 . S
C881 C145 1.420 . S
C900 C51 1.438 . S
C917 C9 1.440 . S
C936 C159 1.437 . S
C953 C173 1.426 . S
C972 C107 1.433 . S
C989 C187 1.424 . S
C1008 C65 1.440 . S
C1025 C79 1.440 . S
C1044 C201 1.412 . S
C1061 C93 1.440 . S
C1080 C215 1.411 . S
C1097 C0 1.587 . S
C1116 C56 1.573 . S
C1133 C70 1.580 . S
C1152 C14 1.580 . S
C1169 C28 1.580 . S
C1188 C84 1.577 . S
C1205 C98 1.585 . S
C1224 C42 1.563 . S
C1241 C112 1.584 . S
C1260 C168 1.593 . S
C1277 C182 1.586 . S
C1296 C126 1.563 . S
C1313 C196 1.586 . S
C1332 C140 1.565 . S
C1349 C210 1.580 . S
C1368 C154 1.595 . S
