# Generated by pormake.
# Topology uob, (4)-cn, num edge types: 1
# Building blocks:
#     Node 0, Type 0, BuildingBlock: CEKHIL_clean_sbu_0, # of connection points: 4
#     Node 1, Type 0, BuildingBlock: CEKHIL_clean_sbu_0, # of connection points: 4
#     Node 2, Type 0, BuildingBlock: CEKHIL_clean_sbu_0, # of connection points: 4
#     Node 3, Type 0, BuildingBlock: CEKHIL_clean_sbu_0, # of connection points: 4
#     Node 4, Type 0, BuildingBlock: CEKHIL_clean_sbu_0, # of connection points: 4
#     Node 5, Type 0, BuildingBlock: CEKHIL_clean_sbu_0, # of connection points: 4
#     Node 6, Type 0, BuildingBlock: CEKHIL_clean_sbu_0, # of connection points: 4
#     Node 7, Type 0, BuildingBlock: CEKHIL_clean_sbu_0, # of connection points: 4
#     Node 8, Type 0, BuildingBlock: CEKHIL_clean_sbu_0, # of connection points: 4
#     Node 9, Type 0, BuildingBlock: CEKHIL_clean_sbu_0, # of connection points: 4
#     Node 10, Type 0, BuildingBlock: CEKHIL_clean_sbu_0, # of connection points: 4
#     Node 11, Type 0, BuildingBlock: CEKHIL_clean_sbu_0, # of connection points: 4
#     Node 12, Type 0, BuildingBlock: CEKHIL_clean_sbu_0, # of connection points: 4
#     Node 13, Type 0, BuildingBlock: CEKHIL_clean_sbu_0, # of connection points: 4
#     Node 14, Type 0, BuildingBlock: CEKHIL_clean_sbu_0, # of connection points: 4
#     Node 15, Type 0, BuildingBlock: CEKHIL_clean_sbu_0, # of connection points: 4
#     Edge 16, Type (0, 0), BuildingBlock: XIVTED_clean_linker_0, # of connection points: 2
#     Edge 17, Type (0, 0), BuildingBlock: XIVTED_clean_linker_0, # of connection points: 2
#     Edge 18, Type (0, 0), BuildingBlock: XIVTED_clean_linker_0, # of connection points: 2
#     Edge 19, Type (0, 0), BuildingBlock: XIVTED_clean_linker_0, # of connection points: 2
#     Edge 20, Type (0, 0), BuildingBlock: XIVTED_clean_linker_0, # of connection points: 2
#     Edge 21, Type (0, 0), BuildingBlock: XIVTED_clean_linker_0, # of connection points: 2
#     Edge 22, Type (0, 0), BuildingBlock: XIVTED_clean_linker_0, # of connection points: 2
#     Edge 23, Type (0, 0), BuildingBlock: XIVTED_clean_linker_0, # of connection points: 2
#     Edge 24, Type (0, 0), BuildingBlock: XIVTED_clean_linker_0, # of connection points: 2
#     Edge 25, Type (0, 0), BuildingBlock: XIVTED_clean_linker_0, # of connection points: 2
#     Edge 26, Type (0, 0), BuildingBlock: XIVTED_clean_linker_0, # of connection points: 2
#     Edge 27, Type (0, 0), BuildingBlock: XIVTED_clean_linker_0, # of connection points: 2
#     Edge 28, Type (0, 0), BuildingBlock: XIVTED_clean_linker_0, # of connection points: 2
#     Edge 29, Type (0, 0), BuildingBlock: XIVTED_clean_linker_0, # of connection points: 2
#     Edge 30, Type (0, 0), BuildingBlock: XIVTED_clean_linker_0, # of connection points: 2
#     Edge 31, Type (0, 0), BuildingBlock: XIVTED_clean_linker_0, # of connection points: 2
#     Edge 32, Type (0, 0), BuildingBlock: XIVTED_clean_linker_0, # of connection points: 2
#     Edge 33, Type (0, 0), BuildingBlock: XIVTED_clean_linker_0, # of connection points: 2
#     Edge 34, Type (0, 0), BuildingBlock: XIVTED_clean_linker_0, # of connection points: 2
#     Edge 35, Type (0, 0), BuildingBlock: XIVTED_clean_linker_0, # of connection points: 2
#     Edge 36, Type (0, 0), BuildingBlock: XIVTED_clean_linker_0, # of connection points: 2
#     Edge 37, Type (0, 0), BuildingBlock: XIVTED_clean_linker_0, # of connection points: 2
#     Edge 38, Type (0, 0), BuildingBlock: XIVTED_clean_linker_0, # of connection points: 2
#     Edge 39, Type (0, 0), BuildingBlock: XIVTED_clean_linker_0, # of connection points: 2
#     Edge 40, Type (0, 0), BuildingBlock: XIVTED_clean_linker_0, # of connection points: 2
#     Edge 41, Type (0, 0), BuildingBlock: XIVTED_clean_linker_0, # of connection points: 2
#     Edge 42, Type (0, 0), BuildingBlock: XIVTED_clean_linker_0, # of connection points: 2
#     Edge 43, Type (0, 0), BuildingBlock: XIVTED_clean_linker_0, # of connection points: 2
#     Edge 44, Type (0, 0), BuildingBlock: XIVTED_clean_linker_0, # of connection points: 2
#     Edge 45, Type (0, 0), BuildingBlock: XIVTED_clean_linker_0, # of connection points: 2
#     Edge 46, Type (0, 0), BuildingBlock: XIVTED_clean_linker_0, # of connection points: 2
#     Edge 47, Type (0, 0), BuildingBlock: XIVTED_clean_linker_0, # of connection points: 2
# Relax obj value: 0.172
# Max RMSD: 0.200
# Mean RMSD: 0.200
data_MOF--net-uob--node1-CEKHIL_clean_sbu_0--edge1-XIVTED_clean_linker_0
_symmetry_space_group_name_H-M    P1
_symmetry_Int_Tables_number       1
_symmetry_cell_setting            triclinic
loop_
_symmetry_equiv_pos_as_xyz
'x, y, z'
_cell_length_a     53.202689
_cell_length_b     53.251829
_cell_length_c     26.688543
_cell_angle_alpha  89.978437
_cell_angle_beta   89.979626
_cell_angle_gamma 90.003846
loop_
_atom_site_label
_atom_site_type_symbol
_atom_site_fract_x
_atom_site_fract_y
_atom_site_fract_z
_atom_type_partial_charge
Co0 Co 0.14079 0.07118 0.27646 0.0
O1 O 0.17623 0.07742 0.2724 0.0
O2 O 0.15913 0.04561 0.31345 0.0
C3 C 0.13115 0.07784 0.19551 0.0
O4 O 0.10478 0.05884 0.28718 0.0
Co5 Co 0.10439 0.11581 0.25542 0.0
O6 O 0.07835 0.08927 0.26113 0.0
C7 C 0.13383 0.11536 0.3477 0.0
C8 C 0.1793 0.05815 0.30152 0.0
C9 C 0.08249 0.06715 0.27759 0.0
O10 O 0.13941 0.09229 0.33893 0.0
O11 O 0.1219 0.12912 0.31642 0.0
O12 O 0.14037 0.05626 0.20926 0.0
O13 O 0.13127 0.09509 0.22937 0.0
Co14 Co 0.95289 0.63792 0.52244 0.0
O15 O 0.94234 0.67238 0.52113 0.0
O16 O 0.97734 0.6588 0.55686 0.0
C17 C 0.94454 0.62822 0.44216 0.0
O18 O 0.96987 0.60366 0.52987 0.0
Co19 Co 0.91228 0.59649 0.50553 0.0
O20 O 0.94153 0.57358 0.51078 0.0
C21 C 0.91164 0.62616 0.59741 0.0
C22 C 0.96205 0.67738 0.54798 0.0
C23 C 0.96364 0.5805 0.52305 0.0
O24 O 0.93405 0.63363 0.58728 0.0
O25 O 0.89846 0.61307 0.56703 0.0
O26 O 0.96536 0.63983 0.45327 0.0
O27 O 0.92869 0.62595 0.47835 0.0
Co28 Co 0.3773 0.45151 0.77585 0.0
O29 O 0.34224 0.44321 0.77385 0.0
O30 O 0.35793 0.47686 0.81117 0.0
C31 C 0.38651 0.44335 0.6952 0.0
O32 O 0.41258 0.46617 0.7842 0.0
Co33 Co 0.41622 0.40868 0.75712 0.0
O34 O 0.4407 0.43668 0.76102 0.0
C35 C 0.38678 0.40904 0.84956 0.0
C36 C 0.33843 0.46291 0.80145 0.0
C37 C 0.43529 0.45887 0.77542 0.0
O38 O 0.38026 0.43179 0.83999 0.0
O39 O 0.39928 0.39549 0.81882 0.0
O40 O 0.37629 0.46475 0.70713 0.0
O41 O 0.38778 0.42707 0.73081 0.0
Co42 Co 0.56442 0.86833 0.02623 0.0
O43 O 0.57005 0.83277 0.02557 0.0
O44 O 0.53682 0.85109 0.05947 0.0
C45 C 0.57543 0.87609 0.9462 0.0
O46 O 0.55228 0.90462 0.03253 0.0
Co47 Co 0.61004 0.90413 0.00982 0.0
O48 O 0.58364 0.93046 0.00872 0.0
C49 C 0.6052 0.87662 0.1045 0.0
C50 C 0.5495 0.83055 0.05137 0.0
C51 C 0.56097 0.92668 0.02243 0.0
O52 O 0.58269 0.87037 0.09221 0.0
O53 O 0.62014 0.8882 0.07483 0.0
O54 O 0.55282 0.86815 0.95624 0.0
O55 O 0.59077 0.87634 0.98346 0.0
Co56 Co 0.14152 0.45017 0.02656 0.0
O57 O 0.17683 0.443 0.02942 0.0
O58 O 0.16024 0.47593 -0.00894 0.0
C59 C 0.13202 0.44227 0.1071 0.0
O60 O 0.10589 0.46371 0.01726 0.0
Co61 Co 0.10377 0.40635 0.04549 0.0
O62 O 0.07847 0.43363 0.0407 0.0
C63 C 0.13401 0.40688 0.9542 0.0
C64 C 0.18015 0.46272 0.00155 0.0
C65 C 0.08335 0.4559 0.02597 0.0
O66 O 0.1394 0.43001 0.96288 0.0
O67 O 0.12204 0.39311 0.98541 0.0
O68 O 0.14176 0.46386 0.09491 0.0
O69 O 0.1315 0.42572 0.07195 0.0
Co70 Co 0.55858 0.63606 0.28194 0.0
O71 O 0.566 0.6713 0.28434 0.0
O72 O 0.53274 0.65492 0.24678 0.0
C73 C 0.56702 0.62679 0.36242 0.0
O74 O 0.5448 0.60045 0.27321 0.0
Co75 Co 0.60248 0.59824 0.30007 0.0
O76 O 0.57511 0.57305 0.29568 0.0
C77 C 0.60137 0.62806 0.20827 0.0
C78 C 0.54621 0.67473 0.25672 0.0
C79 C 0.55273 0.57791 0.28155 0.0
O80 O 0.57838 0.63378 0.2178 0.0
O81 O 0.61529 0.6159 0.23888 0.0
O82 O 0.54535 0.63654 0.35075 0.0
O83 O 0.5833 0.62604 0.32675 0.0
Co84 Co 0.37744 0.0708 0.52119 0.0
O85 O 0.34205 0.0777 0.52387 0.0
O86 O 0.35892 0.0449 0.48561 0.0
C87 C 0.38689 0.07857 0.60175 0.0
O88 O 0.41324 0.05754 0.5123 0.0
Co89 Co 0.41478 0.1149 0.54026 0.0
O90 O 0.44022 0.0877 0.53737 0.0
C91 C 0.38573 0.1137 0.44747 0.0
C92 C 0.33889 0.05795 0.49608 0.0
C93 C 0.43563 0.06543 0.52225 0.0
O94 O 0.37953 0.09091 0.45744 0.0
O95 O 0.39794 0.12759 0.47805 0.0
O96 O 0.37726 0.05697 0.58924 0.0
O97 O 0.38718 0.09531 0.56687 0.0
Co98 Co 0.9472 0.87502 0.77317 0.0
O99 O 0.93958 0.83978 0.77556 0.0
O100 O 0.97253 0.85617 0.73678 0.0
C101 C 0.93996 0.88439 0.85407 0.0
O102 O 0.96122 0.91048 0.76402 0.0
Co103 Co 0.90415 0.9134 0.79369 0.0
O104 O 0.93189 0.93822 0.78956 0.0
C105 C 0.90406 0.88458 0.70061 0.0
C106 C 0.95911 0.83638 0.74716 0.0
C107 C 0.95393 0.93307 0.77376 0.0
O108 O 0.92673 0.87768 0.70997 0.0
O109 O 0.8907 0.89717 0.73154 0.0
O110 O 0.96133 0.8744 0.84109 0.0
O111 O 0.92311 0.88519 0.81941 0.0
Co112 Co 0.64201 0.57532 0.78059 0.0
O113 O 0.6782 0.57757 0.78007 0.0
O114 O 0.65619 0.54811 0.81915 0.0
C115 C 0.63468 0.58286 0.69904 0.0
O116 O 0.60504 0.56609 0.78797 0.0
Co117 Co 0.60889 0.62185 0.75634 0.0
O118 O 0.58088 0.59713 0.75721 0.0
C119 C 0.63488 0.61925 0.85283 0.0
C120 C 0.67799 0.55794 0.80906 0.0
C121 C 0.58351 0.57507 0.77508 0.0
O122 O 0.6409 0.59638 0.84311 0.0
O123 O 0.62385 0.63355 0.8212 0.0
O124 O 0.64165 0.56054 0.71339 0.0
O125 O 0.63569 0.6001 0.73292 0.0
Co126 Co 0.44985 0.13891 0.02228 0.0
O127 O 0.44602 0.1749 0.02072 0.0
O128 O 0.47573 0.15456 0.06246 0.0
C129 C 0.44379 0.13108 0.94043 0.0
O130 O 0.46035 0.10224 0.031 0.0
Co131 Co 0.40446 0.10444 -0.00367 0.0
O132 O 0.42984 0.07719 0.00071 0.0
C133 C 0.40449 0.13191 0.09091 0.0
C134 C 0.46497 0.17578 0.05134 0.0
C135 C 0.45176 0.08041 0.01894 0.0
O136 O 0.42767 0.13754 0.08328 0.0
O137 O 0.39092 0.12046 0.05864 0.0
O138 O 0.46567 0.13889 0.9558 0.0
O139 O 0.42609 0.13144 0.97343 0.0
Co140 Co 0.87483 0.94772 0.27223 0.0
O141 O 0.83944 0.94107 0.26801 0.0
O142 O 0.85612 0.97321 0.30866 0.0
C143 C 0.88482 0.94083 0.1915 0.0
O144 O 0.91067 0.96056 0.28324 0.0
Co145 Co 0.91201 0.90358 0.25197 0.0
O146 O 0.93765 0.93046 0.25792 0.0
C147 C 0.88264 0.904 0.34442 0.0
C148 C 0.83612 0.96039 0.29691 0.0
C149 C 0.93312 0.95253 0.27419 0.0
O150 O 0.87627 0.92681 0.33498 0.0
O151 O 0.89512 0.89042 0.31371 0.0
O152 O 0.87531 0.96237 0.2047 0.0
O153 O 0.88478 0.92374 0.22569 0.0
Co154 Co 0.0774 0.37238 0.52703 0.0
O155 O 0.0795 0.33624 0.5258 0.0
O156 O 0.05031 0.35808 0.56599 0.0
C157 C 0.08468 0.37989 0.4455 0.0
O158 O 0.06846 0.40942 0.53516 0.0
Co159 Co 0.12409 0.40527 0.50259 0.0
O160 O 0.09905 0.43296 0.50076 0.0
C161 C 0.12171 0.37891 0.59871 0.0
C162 C 0.06008 0.33634 0.55533 0.0
C163 C 0.07724 0.43069 0.52005 0.0
O164 O 0.09882 0.37292 0.58903 0.0
O165 O 0.1359 0.3904 0.56752 0.0
O166 O 0.06232 0.37309 0.46009 0.0
O167 O 0.10205 0.37872 0.47915 0.0
Co168 Co 0.64148 0.94336 0.53192 0.0
O169 O 0.67694 0.93681 0.53046 0.0
O170 O 0.6585 0.96839 0.49102 0.0
C171 C 0.63558 0.93761 0.61431 0.0
O172 O 0.60535 0.95608 0.52609 0.0
Co173 Co 0.60495 0.90023 0.56212 0.0
O174 O 0.57926 0.92718 0.55919 0.0
C175 C 0.62912 0.8991 0.46351 0.0
C176 C 0.67898 0.95579 0.50024 0.0
C177 C 0.5833 0.94871 0.53983 0.0
O178 O 0.63731 0.92149 0.47108 0.0
O179 O 0.61729 0.88639 0.49669 0.0
O180 O 0.64382 0.95915 0.59814 0.0
O181 O 0.63393 0.91995 0.58155 0.0
Co182 Co 0.07053 0.14095 0.77437 0.0
O183 O 0.07417 0.17693 0.7779 0.0
O184 O 0.04421 0.15698 0.73613 0.0
C185 C 0.07723 0.1319 0.85548 0.0
O186 O 0.06005 0.10448 0.76375 0.0
Co187 Co 0.11596 0.10601 0.79645 0.0
O188 O 0.09044 0.07884 0.79237 0.0
C189 C 0.1151 0.13488 0.70334 0.0
C190 C 0.05491 0.17811 0.74806 0.0
C191 C 0.06847 0.08245 0.77472 0.0
O192 O 0.09211 0.14064 0.71255 0.0
O193 O 0.1289 0.12267 0.73411 0.0
O194 O 0.05523 0.13984 0.84109 0.0
O195 O 0.09475 0.13278 0.82207 0.0
Co196 Co 0.87349 0.56907 0.02528 0.0
O197 O 0.83741 0.5722 0.0269 0.0
O198 O 0.85836 0.54222 0.98712 0.0
C199 C 0.88147 0.57656 0.1066 0.0
O200 O 0.91023 0.55911 0.0168 0.0
Co201 Co 0.90751 0.61513 0.04826 0.0
O202 O 0.93512 0.59002 0.04577 0.0
C203 C 0.88036 0.61303 0.95312 0.0
C204 C 0.83691 0.55266 -0.00226 0.0
C205 C 0.93202 0.56792 0.02842 0.0
O206 O 0.87453 0.5901 0.9627 0.0
O207 O 0.89163 0.62723 0.98457 0.0
O208 O 0.874 0.55434 0.09261 0.0
O209 O 0.88064 0.59374 0.07258 0.0
Co210 Co 0.43955 0.36879 0.27775 0.0
O211 O 0.43724 0.33262 0.27848 0.0
O212 O 0.46647 0.35445 0.23841 0.0
C213 C 0.43262 0.37622 0.35951 0.0
O214 O 0.44873 0.40579 0.27001 0.0
Co215 Co 0.39298 0.40173 0.30299 0.0
O216 O 0.41768 0.4297 0.30166 0.0
C217 C 0.3953 0.37626 0.20603 0.0
C218 C 0.45663 0.33271 0.24883 0.0
C219 C 0.43965 0.42725 0.28322 0.0
O220 O 0.41805 0.3698 0.21581 0.0
O221 O 0.38117 0.38763 0.23748 0.0
O222 O 0.45484 0.36919 0.34449 0.0
O223 O 0.41509 0.37516 0.32616 0.0
H224 H 0.3227 0.01574 0.44466 0.0
H225 H 0.22043 0.08815 0.29768 0.0
H226 H 0.29946 0.09001 0.48999 0.0
H227 H 0.19434 0.01829 0.36138 0.0
H228 H 0.25888 0.08457 0.34674 0.0
H229 H 0.2834 0.01182 0.39573 0.0
C230 C 0.30925 0.03101 0.44495 0.0
C231 C 0.31434 0.05322 0.47157 0.0
C232 C 0.24486 0.06985 0.34929 0.0
C233 C 0.27023 0.04906 0.41511 0.0
C234 C 0.22294 0.07176 0.32119 0.0
C235 C 0.20401 0.05354 0.32554 0.0
C236 C 0.24827 0.04934 0.38136 0.0
C237 C 0.20844 0.03278 0.357 0.0
C238 C 0.28695 0.02872 0.41718 0.0
C239 C 0.29635 0.0725 0.47036 0.0
N240 N 0.23022 0.03121 0.38396 0.0
N241 N 0.27537 0.07015 0.4419 0.0
H242 H 1.00087 0.81975 0.69498 0.0
H243 H 0.92552 0.71228 0.56024 0.0
H244 H 0.92612 0.79772 0.74 0.0
H245 H 1.00341 0.69813 0.59554 0.0
H246 H 0.9271 0.7504 0.61049 0.0
H247 H 1.00408 0.78073 0.64531 0.0
C248 C 0.98532 0.80662 0.69497 0.0
C249 C 0.96322 0.81195 0.72186 0.0
C250 C 0.94392 0.73907 0.60687 0.0
C251 C 0.96653 0.76809 0.66433 0.0
C252 C 0.94313 0.7174 0.57783 0.0
C253 C 0.9644 0.70197 0.57354 0.0
C254 C 0.96625 0.74581 0.6312 0.0
C255 C 0.98661 0.70953 0.59785 0.0
C256 C 0.98718 0.78447 0.66669 0.0
C257 C 0.94357 0.79438 0.72022 0.0
N258 N 0.98703 0.73107 0.6256 0.0
N259 N 0.94555 0.7735 0.6914 0.0
H260 H 0.30059 0.42907 0.80877 0.0
H261 H 0.19633 0.5044 0.9485 0.0
H262 H 0.32073 0.50435 0.8535 0.0
H263 H 0.2195 0.4305 -0.00359 0.0
H264 H 0.23536 0.50767 0.89859 0.0
H265 H 0.26271 0.43201 0.85963 0.0
C266 C 0.29685 0.44645 0.82851 0.0
C267 C 0.31392 0.46651 0.82684 0.0
C268 C 0.23187 0.49099 0.92077 0.0
C269 C 0.27035 0.46991 0.885 0.0
C270 C 0.20972 0.48908 0.94915 0.0
C271 C 0.20467 0.46715 0.97674 0.0
C272 C 0.24847 0.47053 0.91906 0.0
C273 C 0.22257 0.4478 0.97599 0.0
C274 C 0.2753 0.44799 0.8578 0.0
C275 C 0.30805 0.48845 0.85378 0.0
N276 N 0.2434 0.44977 0.94696 0.0
N277 N 0.2866 0.48965 0.88184 0.0
H278 H 0.50752 0.81758 0.10741 0.0
H279 H 0.57832 0.71424 0.25368 0.0
H280 H 0.57878 0.78892 0.05514 0.0
H281 H 0.50537 0.69071 0.20055 0.0
H282 H 0.57524 0.75177 0.20178 0.0
H283 H 0.50262 0.77938 0.15931 0.0
C284 C 0.52186 0.80316 0.10612 0.0
C285 C 0.54362 0.80649 0.07687 0.0
C286 C 0.55975 0.73855 0.20222 0.0
C287 C 0.53839 0.7636 0.13666 0.0
C288 C 0.56137 0.71717 0.23197 0.0
C289 C 0.54209 0.69919 0.23142 0.0
C290 C 0.5385 0.7424 0.17229 0.0
C291 C 0.52067 0.70409 0.20202 0.0
C292 C 0.51903 0.78149 0.13566 0.0
C293 C 0.5617 0.78727 0.07694 0.0
N294 N 0.51941 0.72533 0.17339 0.0
N295 N 0.5589 0.76695 0.10705 0.0
H296 H 0.68202 0.53662 0.90164 0.0
H297 H 0.83193 0.53295 0.90397 0.0
H298 H 0.72642 0.56101 0.77544 0.0
H299 H 0.78874 0.55678 0.03218 0.0
H300 H 0.79273 0.52846 0.85612 0.0
H301 H 0.72091 0.52932 0.9491 0.0
C302 C 0.69996 0.53981 0.88351 0.0
C303 C 0.7011 0.54949 0.83463 0.0
C304 C 0.7919 0.53417 0.89504 0.0
C305 C 0.74537 0.54093 0.88833 0.0
C306 C 0.81416 0.53655 0.92245 0.0
C307 C 0.81348 0.54529 0.97203 0.0
C308 C 0.76886 0.54 0.91785 0.0
C309 C 0.79001 0.55007 -0.00602 0.0
C310 C 0.72205 0.53581 0.91069 0.0
C311 C 0.72479 0.55364 0.81312 0.0
N312 N 0.76858 0.54737 0.96672 0.0
N313 N 0.74605 0.54933 0.84012 0.0
H314 H 0.45287 0.28431 0.28213 0.0
H315 H 0.46034 0.22385 0.01699 0.0
H316 H 0.47781 0.32842 0.15605 0.0
H317 H 0.48242 0.1811 0.14693 0.0
H318 H 0.46399 0.26255 0.0664 0.0
H319 H 0.46083 0.24594 0.23366 0.0
C320 C 0.46039 0.28587 0.24454 0.0
C321 C 0.46478 0.30952 0.22308 0.0
C322 C 0.46849 0.24473 0.08378 0.0
C323 C 0.47321 0.26589 0.16714 0.0
C324 C 0.4664 0.22269 0.05567 0.0
C325 C 0.47123 0.19932 0.07788 0.0
C326 C 0.47463 0.24328 0.13486 0.0
C327 C 0.4788 0.19879 0.12827 0.0
C328 C 0.46496 0.26402 0.21699 0.0
C329 C 0.47439 0.31054 0.17411 0.0
N330 N 0.47978 0.22041 0.15541 0.0
N331 N 0.47783 0.28904 0.14739 0.0
H332 H 0.82045 1.00057 0.35507 0.0
H333 H 0.71737 0.92297 0.48892 0.0
H334 H 0.79583 0.92919 0.29614 0.0
H335 H 0.69448 0.9979 0.44727 0.0
H336 H 0.75464 0.92746 0.43659 0.0
H337 H 0.78123 1.0029 0.40464 0.0
C338 C 0.8067 0.98566 0.35187 0.0
C339 C 0.81145 0.96464 0.32139 0.0
C340 C 0.74157 0.94301 0.4394 0.0
C341 C 0.76736 0.96695 0.37854 0.0
C342 C 0.72037 0.94058 0.46947 0.0
C343 C 0.70275 0.96011 0.47256 0.0
C344 C 0.74565 0.96533 0.41289 0.0
C345 C 0.70762 0.98239 0.44588 0.0
C346 C 0.78443 0.98704 0.38005 0.0
C347 C 0.79305 0.94577 0.31894 0.0
N348 N 0.72878 0.9845 0.41716 0.0
N349 N 0.77212 0.94715 0.34782 0.0
H350 H 0.06229 0.28825 0.52022 0.0
H351 H 0.06074 0.22586 0.78359 0.0
H352 H 0.04061 0.3317 0.64949 0.0
H353 H 0.03503 0.18438 0.65468 0.0
H354 H 0.05599 0.26502 0.73592 0.0
H355 H 0.05494 0.24962 0.56825 0.0
C356 C 0.05557 0.28961 0.55844 0.0
C357 C 0.05193 0.31312 0.58091 0.0
C358 C 0.05094 0.24737 0.71846 0.0
C359 C 0.04426 0.26921 0.63633 0.0
C360 C 0.05366 0.22507 0.74556 0.0
C361 C 0.04816 0.20193 0.72306 0.0
C362 C 0.04345 0.24638 0.66805 0.0
C363 C 0.03924 0.20188 0.67355 0.0
C364 C 0.05135 0.26762 0.58575 0.0
C365 C 0.04339 0.3139 0.63067 0.0
N366 N 0.03765 0.22374 0.64731 0.0
N367 N 0.04032 0.29225 0.6571 0.0
H368 H 0.03284 0.08045 0.27901 0.0
H369 H 0.98269 0.93944 0.27967 0.0
H370 H 0.08152 0.01591 0.29236 0.0
H371 H 0.93365 1.00394 0.28695 0.0
H372 H 0.0189 0.96713 0.28703 0.0
H373 H 0.99643 0.05288 0.28464 0.0
C374 C 0.03593 0.06046 0.28333 0.0
C375 C 0.0604 0.05049 0.28477 0.0
C376 C 1.00024 0.97527 0.28735 0.0
C377 C 0.0185 0.01872 0.29109 0.0
C378 C 0.97948 0.95946 0.28297 0.0
C379 C 0.95499 0.96937 0.28222 0.0
C380 C 0.99666 1.0013 0.29055 0.0
C381 C 0.95213 0.99545 0.28724 0.0
C382 C 0.01505 0.04473 0.28669 0.0
C383 C 0.06308 0.02445 0.29095 0.0
N384 N 0.97273 0.01053 0.29073 0.0
N385 N 0.04239 0.00945 0.29343 0.0
H386 H 0.01336 0.58062 0.49497 0.0
H387 H 0.03237 0.43584 0.56984 0.0
H388 H 0.95656 0.53471 0.56492 0.0
H389 H 0.08601 0.4777 0.48155 0.0
H390 H 1.00633 0.47344 0.57594 0.0
H391 H 0.04244 0.54471 0.49766 0.0
C392 C 1.00721 0.56313 0.51168 0.0
C393 C 0.98256 0.5605 0.52954 0.0
C394 C 0.02383 0.47443 0.55529 0.0
C395 C 0.01547 0.51953 0.53276 0.0
C396 C 0.03871 0.45292 0.55174 0.0
C397 C 0.06144 0.45352 0.52506 0.0
C398 C 0.0316 0.49677 0.53187 0.0
C399 C 0.06869 0.47632 0.50267 0.0
C400 C 0.02369 0.54262 0.51291 0.0
C401 C 0.97535 0.53739 0.55026 0.0
N402 N 0.05379 0.49699 0.50643 0.0
N403 N 0.99168 0.51783 0.55125 0.0
H404 H 0.48467 0.44743 0.78914 0.0
H405 H 0.53401 0.58803 0.76062 0.0
H406 H 0.43436 0.51072 0.77639 0.0
H407 H 0.58129 0.52536 0.80158 0.0
H408 H 0.49726 0.56059 0.76611 0.0
H409 H 0.52007 0.47616 0.79392 0.0
C410 C 0.48103 0.46743 0.78745 0.0
C411 C 0.45646 0.47665 0.78193 0.0
C412 C 0.51566 0.55292 0.77421 0.0
C413 C 0.49721 0.50982 0.78716 0.0
C414 C 0.5367 0.56855 0.77097 0.0
C415 C 0.56089 0.55901 0.78043 0.0
C416 C 0.5188 0.5275 0.78659 0.0
C417 C 0.5631 0.53361 0.79386 0.0
C418 C 0.50132 0.48386 0.79036 0.0
C419 C 0.45297 0.50279 0.7806 0.0
N420 N 0.54238 0.51875 0.7962 0.0
N421 N 0.47317 0.51849 0.78269 0.0
H422 H 0.5094 0.92798 0.03205 0.0
H423 H 0.50255 0.07848 0.0381 0.0
H424 H 0.57449 0.97623 0.02315 0.0
H425 H 0.43788 0.03094 0.01439 0.0
H426 H 0.52894 0.04092 0.04358 0.0
H427 H 0.48259 0.96536 0.03616 0.0
C428 C 0.51808 0.94637 0.03121 0.0
C429 C 0.54426 0.9489 0.0269 0.0
C430 C 0.50895 0.03874 0.03735 0.0
C431 C 0.5137 0.99173 0.03177 0.0
C432 C 0.49385 0.06019 0.0344 0.0
C433 C 0.46795 0.05794 0.02542 0.0
C434 C 0.49806 0.01484 0.03167 0.0
C435 C 0.45777 0.03366 0.0209 0.0
C436 C 0.50276 0.9677 0.03343 0.0
C437 C 0.55441 0.97328 0.02599 0.0
N438 N 0.47283 0.01311 0.024 0.0
N439 N 0.53915 0.99369 0.02837 0.0
H440 H 0.08378 0.50759 0.0198 0.0
H441 H 0.9336 0.51779 0.00461 0.0
H442 H 0.0337 0.44378 0.01757 0.0
H443 H 0.98172 0.58097 0.03776 0.0
H444 H 0.97076 0.49111 -0.00191 0.0
H445 H 0.04715 0.5355 0.01514 0.0
C446 C 0.06516 0.49944 0.0179 0.0
C447 C 0.06184 0.47329 0.01953 0.0
C448 C 0.97319 0.51084 0.00663 0.0
C449 C 0.01994 0.50505 0.01414 0.0
C450 C 0.95195 0.52612 0.01027 0.0
C451 C 0.95445 0.55168 0.02209 0.0
C452 C 0.99717 0.52115 0.01463 0.0
C453 C 0.97882 0.56135 0.02894 0.0
C454 C 0.04426 0.51537 0.01545 0.0
C455 C 0.03722 0.4638 0.017 0.0
N456 N 0.99921 0.54607 0.02522 0.0
N457 N 0.01728 0.47964 0.01454 0.0
H458 H 0.42575 0.47647 0.29629 0.0
H459 H 0.56541 0.52881 0.26831 0.0
H460 H 0.48954 0.43025 0.25734 0.0
H461 H 0.50082 0.57752 0.28018 0.0
H462 H 0.53755 0.49271 0.26377 0.0
H463 H 0.45246 0.51368 0.2904 0.0
C464 C 0.44534 0.4741 0.28631 0.0
C465 C 0.4554 0.45008 0.27752 0.0
C466 C 0.52938 0.51126 0.26706 0.0
C467 C 0.4861 0.49274 0.27088 0.0
C468 C 0.54531 0.53196 0.26982 0.0
C469 C 0.53547 0.55629 0.27505 0.0
C470 C 0.5033 0.51473 0.27008 0.0
C471 C 0.50923 0.55912 0.27619 0.0
C472 C 0.46056 0.49541 0.28282 0.0
C473 C 0.48091 0.4483 0.26451 0.0
N474 N 0.49404 0.53854 0.27424 0.0
N475 N 0.49537 0.4693 0.26192 0.0
H476 H 0.48538 0.07759 0.51529 0.0
H477 H 0.53342 0.93694 0.54868 0.0
H478 H 0.4354 0.01374 0.51891 0.0
H479 H 0.58295 0.99886 0.51427 0.0
H480 H 0.49744 0.96477 0.53864 0.0
H481 H 0.52123 0.04913 0.51485 0.0
C482 C 0.48191 0.05755 0.51575 0.0
C483 C 0.45727 0.04806 0.5175 0.0
C484 C 0.51615 0.97226 0.53302 0.0
C485 C 0.49846 0.01529 0.51737 0.0
C486 C 0.53679 0.9564 0.53897 0.0
C487 C 0.56138 0.96556 0.53258 0.0
C488 C 0.51999 0.99761 0.52104 0.0
C489 C 0.5644 0.99094 0.51964 0.0
C490 C 0.50245 0.0413 0.51537 0.0
C491 C 0.45403 0.0219 0.51754 0.0
N492 N 0.54396 1.00611 0.51464 0.0
N493 N 0.4744 1.00643 0.51801 0.0
H494 H 0.01816 0.08179 0.75158 0.0
H495 H 1.00558 0.93183 0.7652 0.0
H496 H 0.08083 0.03254 0.78198 0.0
H497 H 0.94255 0.98291 0.76691 0.0
H498 H 0.03405 0.968 0.75959 0.0
H499 H 0.99079 0.0451 0.74521 0.0
C500 C 0.02624 0.06329 0.7566 0.0
C501 C 0.05185 0.06033 0.76772 0.0
C502 C 0.01397 0.97121 0.76097 0.0
C503 C 0.02054 0.01817 0.76047 0.0
C504 C 0.99771 0.95058 0.76399 0.0
C505 C 0.97163 0.95432 0.76699 0.0
C506 C 1.00403 0.99569 0.76046 0.0
C507 C 0.96251 0.97908 0.76529 0.0
C508 C 0.01056 0.04233 0.75308 0.0
C509 C 0.06118 0.0358 0.77376 0.0
N510 N 0.97866 0.99875 0.76224 0.0
N511 N 0.04553 0.01569 0.77019 0.0
H512 H 0.0958 0.16756 0.6344 0.0
H513 H 0.1226 0.16217 0.38492 0.0
H514 H 0.15712 0.11573 0.65756 0.0
H515 H 0.15856 0.09227 0.42507 0.0
H516 H 0.12569 0.17572 0.47192 0.0
H517 H 0.10729 0.17076 0.54676 0.0
C518 C 0.11206 0.15723 0.62121 0.0
C519 C 0.1251 0.14081 0.65307 0.0
C520 C 0.13278 0.15736 0.46183 0.0
C521 C 0.13876 0.14466 0.55235 0.0
C522 C 0.13122 0.14968 0.41196 0.0
C523 C 0.1394 0.12561 0.39798 0.0
C524 C 0.14225 0.14067 0.49799 0.0
C525 C 0.1512 0.11065 0.43435 0.0
C526 C 0.11886 0.1593 0.57098 0.0
C527 C 0.14627 0.12829 0.63414 0.0
N528 N 0.15187 0.11825 0.48282 0.0
N529 N 0.15207 0.13001 0.58469 0.0
H530 H 0.93054 0.65805 0.66846 0.0
H531 H 0.8937 0.65882 0.91367 0.0
H532 H 0.86894 0.60709 0.64062 0.0
H533 H 0.8577 0.58877 0.87468 0.0
H534 H 0.89488 0.67003 0.82518 0.0
H535 H 0.9165 0.6625 0.7545 0.0
C536 C 0.91379 0.64809 0.68025 0.0
C537 C 0.90126 0.63169 0.64756 0.0
C538 C 0.88683 0.65216 0.8359 0.0
C539 C 0.88458 0.63716 0.74618 0.0
C540 C 0.88589 0.64584 0.88658 0.0
C541 C 0.87651 0.62236 0.90152 0.0
C542 C 0.87863 0.63469 0.80002 0.0
C543 C 0.86589 0.60672 0.86484 0.0
C544 C 0.90551 0.65093 0.72945 0.0
C545 C 0.87943 0.61963 0.66472 0.0
N546 N 0.86765 0.61299 0.81571 0.0
N547 N 0.87208 0.62223 0.71315 0.0
H548 H 0.41434 0.34526 0.13363 0.0
H549 H 0.35472 0.42811 0.92039 0.0
H550 H 0.35581 0.39987 0.15999 0.0
H551 H 0.40487 0.36589 0.8923 0.0
H552 H 0.34927 0.41334 0.00623 0.0
H553 H 0.40526 0.34707 0.04421 0.0
C554 C 0.3993 0.35735 0.12069 0.0
C555 C 0.38628 0.37297 0.15414 0.0
C556 C 0.3612 0.40271 0.98111 0.0
C557 C 0.37608 0.37545 0.05176 0.0
C558 C 0.36445 0.41124 0.93213 0.0
C559 C 0.38083 0.39861 0.89948 0.0
C560 C 0.3747 0.38163 -0.00225 0.0
C561 C 0.39243 0.3765 0.91641 0.0
C562 C 0.39409 0.35835 0.06958 0.0
C563 C 0.36661 0.38782 0.13543 0.0
N564 N 0.38948 0.36897 0.96464 0.0
N565 N 0.36248 0.38912 0.0853 0.0
H566 H 0.66227 0.91315 0.39051 0.0
H567 H 0.58115 0.84972 0.17808 0.0
H568 H 0.60204 0.86094 0.42076 0.0
H569 H 0.64845 0.89287 0.14975 0.0
H570 H 0.59228 0.84799 0.26672 0.0
H571 H 0.66165 0.90044 0.30281 0.0
C572 C 0.64909 0.8988 0.37878 0.0
C573 C 0.63177 0.88851 0.4127 0.0
C574 C 0.60479 0.85753 0.24098 0.0
C575 C 0.63074 0.87409 0.31222 0.0
C576 C 0.5984 0.85861 0.19034 0.0
C577 C 0.61353 0.87206 0.15657 0.0
C578 C 0.62629 0.87022 0.25802 0.0
C579 C 0.63593 0.88271 0.17449 0.0
C580 C 0.64879 0.89147 0.3287 0.0
C581 C 0.6155 0.8696 0.3957 0.0
N582 N 0.6414 0.88194 0.22411 0.0
N583 N 0.61503 0.86335 0.34638 0.0
H584 H 0.10203 0.34747 0.66952 0.0
H585 H 0.12543 0.35905 0.91985 0.0
H586 H 0.1624 0.40029 0.64507 0.0
H587 H 0.15737 0.43024 0.87534 0.0
H588 H 0.13021 0.34403 0.83415 0.0
H589 H 0.11186 0.34711 0.75825 0.0
C590 C 0.11777 0.35857 0.68271 0.0
C591 C 0.13103 0.37442 0.65003 0.0
C592 C 0.13603 0.36297 0.84302 0.0
C593 C 0.14269 0.3739 0.75193 0.0
C594 C 0.13347 0.37154 0.89211 0.0
C595 C 0.14011 0.39631 0.90445 0.0
C596 C 0.14498 0.37943 0.80594 0.0
C597 C 0.15125 0.41128 0.86729 0.0
C598 C 0.1236 0.35815 0.73356 0.0
C599 C 0.15145 0.38807 0.66906 0.0
N600 N 0.15296 0.40273 0.81952 0.0
N601 N 0.15627 0.38797 0.71902 0.0
H602 H 0.58084 0.65903 0.13732 0.0
H603 H 0.6195 0.66414 0.89333 0.0
H604 H 0.64544 0.61201 0.16575 0.0
H605 H 0.65806 0.59529 0.93107 0.0
H606 H 0.61726 0.67452 0.98217 0.0
H607 H 0.59507 0.66479 0.05163 0.0
C608 C 0.59826 0.65023 0.12575 0.0
C609 C 0.61165 0.63453 0.15847 0.0
C610 C 0.62614 0.65711 0.97106 0.0
C611 C 0.62849 0.64151 0.06033 0.0
C612 C 0.62768 0.65128 0.9202 0.0
C613 C 0.63812 0.62832 0.90478 0.0
C614 C 0.63485 0.6397 0.00659 0.0
C615 C 0.6491 0.61281 0.94125 0.0
C616 C 0.60663 0.65384 0.07679 0.0
C617 C 0.6343 0.62397 0.14162 0.0
N618 N 0.64679 0.61859 -0.00947 0.0
N619 N 0.64173 0.62724 0.09339 0.0
H620 H 0.4029 0.15725 0.40448 0.0
H621 H 0.36174 0.11218 0.13279 0.0
H622 H 0.356 0.09269 0.37488 0.0
H623 H 0.42287 0.16336 0.16312 0.0
H624 H 0.34924 0.1148 0.22074 0.0
H625 H 0.39967 0.1691 0.31637 0.0
C626 C 0.39161 0.14575 0.3797 0.0
C627 C 0.38038 0.12348 0.39676 0.0
C628 C 0.36512 0.12578 0.20786 0.0
C629 C 0.37666 0.13698 0.29604 0.0
C630 C 0.37226 0.12433 0.15768 0.0
C631 C 0.39386 0.13696 0.14099 0.0
C632 C 0.37964 0.13999 0.24137 0.0
C633 C 0.40652 0.15272 0.17473 0.0
C634 C 0.38979 0.15256 0.32941 0.0
C635 C 0.36559 0.10962 0.36308 0.0
N636 N 0.39945 0.15349 0.22353 0.0
N637 N 0.36449 0.11639 0.3141 0.0
H638 H 0.92195 0.85183 0.63005 0.0
H639 H 0.8503 0.92273 0.41499 0.0
H640 H 0.86257 0.90553 0.65642 0.0
H641 H 0.90279 0.86224 0.38895 0.0
H642 H 0.84803 0.9106 0.50296 0.0
H643 H 0.90905 0.84911 0.54259 0.0
C644 C 0.90602 0.86286 0.61758 0.0
C645 C 0.8938 0.87953 0.65022 0.0
C646 C 0.85974 0.89971 0.47788 0.0
C647 C 0.87908 0.87665 0.55006 0.0
C648 C 0.86112 0.90669 0.42763 0.0
C649 C 0.87739 0.89397 0.39492 0.0
C650 C 0.87506 0.88016 0.49565 0.0
C651 C 0.89041 0.87293 0.41306 0.0
C652 C 0.89858 0.86121 0.56764 0.0
C653 C 0.87287 0.89282 0.63234 0.0
N654 N 0.88938 0.86701 0.46248 0.0
N655 N 0.86649 0.89149 0.58318 0.0
H656 H 0.04935 0.13772 0.94114 0.0
H657 H 0.13876 0.05104 0.10917 0.0
H658 H 0.11547 0.10088 0.88319 0.0
H659 H 0.09824 0.11461 0.16851 0.0
H660 H 0.12243 0.06114 0.02538 0.0
H661 H 0.05942 0.12125 0.02487 0.0
C662 C 0.06581 0.126 0.94595 0.0
C663 C 0.0818 0.12093 0.90543 0.0
C664 C 0.11701 0.07269 0.05698 0.0
C665 C 0.0931 0.10178 0.00024 0.0
C666 C 0.12625 0.06694 0.10464 0.0
C667 C 0.12012 0.08225 0.14557 0.0
C668 C 0.10117 0.09357 0.05064 0.0
C669 C 0.10373 0.10254 0.13783 0.0
C670 C 0.07155 0.11667 -0.00643 0.0
C671 C 0.10282 0.10553 0.91353 0.0
N672 N 0.09483 0.10764 0.09126 0.0
N673 N 0.10788 0.0965 0.96001 0.0
H674 H 0.96559 0.64129 0.35211 0.0
H675 H 0.88123 0.54667 0.19064 0.0
H676 H 0.91145 0.59105 0.4188 0.0
H677 H 0.90848 0.61765 0.13446 0.0
H678 H 0.90012 0.5565 0.27243 0.0
H679 H 0.95299 0.62606 0.26891 0.0
C680 C 0.9513 0.62687 0.34925 0.0
C681 C 0.93925 0.61768 0.39219 0.0
C682 C 0.90202 0.56978 0.24192 0.0
C683 C 0.92504 0.60007 0.29783 0.0
C684 C 0.89126 0.56421 0.1954 0.0
C685 C 0.89308 0.58148 0.15588 0.0
C686 C 0.91502 0.59253 0.24842 0.0
C687 C 0.90644 0.60386 0.16392 0.0
C688 C 0.94408 0.61827 0.30192 0.0
C689 C 0.92092 0.59892 0.38655 0.0
N690 N 0.91691 0.60873 0.20922 0.0
N691 N 0.91432 0.59076 0.34021 0.0
H692 H 0.37226 0.46366 0.60523 0.0
H693 H 0.46406 0.37757 0.44112 0.0
H694 H 0.42334 0.41009 0.67101 0.0
H695 H 0.39124 0.40232 0.3897 0.0
H696 H 0.45562 0.39755 0.52246 0.0
H697 H 0.38591 0.44986 0.52159 0.0
C698 C 0.38658 0.44928 0.60204 0.0
C699 C 0.39643 0.4377 0.64488 0.0
C700 C 0.44162 0.39865 0.49309 0.0
C701 C 0.41223 0.42213 0.55009 0.0
C702 C 0.44639 0.38725 0.44684 0.0
C703 C 0.42824 0.3881 0.40876 0.0
C704 C 0.41878 0.41134 0.50077 0.0
C705 C 0.40572 0.40105 0.41803 0.0
C706 C 0.39426 0.44136 0.55449 0.0
C707 C 0.41498 0.41921 0.63886 0.0
N708 N 0.40165 0.4122 0.46302 0.0
N709 N 0.42228 0.41195 0.59232 0.0
H710 H 0.66245 0.9139 0.68547 0.0
H711 H 0.5458 0.89264 0.86795 0.0
H712 H 0.59105 0.94957 0.65884 0.0
H713 H 0.623 0.8824 0.91302 0.0
H714 H 0.56065 0.91073 0.78821 0.0
H715 H 0.64735 0.89987 0.76746 0.0
C716 C 0.64374 0.91918 0.69762 0.0
C717 C 0.62804 0.93315 0.66628 0.0
C718 C 0.57425 0.90454 0.81576 0.0
C719 C 0.61026 0.91653 0.75879 0.0
C720 C 0.56581 0.89406 0.86092 0.0
C721 C 0.58323 0.88598 0.89694 0.0
C722 C 0.60022 0.90651 0.8066 0.0
C723 C 0.60893 0.88843 0.88631 0.0
C724 C 0.63505 0.91108 0.74413 0.0
C725 C 0.60374 0.93908 0.68269 0.0
N726 N 0.61662 0.89832 0.8421 0.0
N727 N 0.59542 0.93052 0.72785 0.0
H728 H 0.12639 0.40573 0.41657 0.0
H729 H 0.09551 0.40841 0.13016 0.0
H730 H 0.05414 0.38081 0.3624 0.0
H731 H 0.14427 0.46371 0.19715 0.0
H732 H 0.08093 0.3963 0.21346 0.0
H733 H 0.13472 0.42495 0.33549 0.0
C734 C 0.1122 0.40434 0.38768 0.0
C735 C 0.08954 0.39155 0.39623 0.0
C736 C 0.09459 0.41128 0.20991 0.0
C737 C 0.09918 0.41336 0.303 0.0
C738 C 0.10303 0.41813 0.16243 0.0
C739 C 0.12135 0.43689 0.1569 0.0
C740 C 0.10503 0.42281 0.25223 0.0
C741 C 0.13022 0.44907 0.19992 0.0
C742 C 0.11694 0.41549 0.34147 0.0
C743 C 0.07189 0.39041 0.35727 0.0
N744 N 0.1223 0.44149 0.246 0.0
N745 N 0.07722 0.40092 0.31197 0.0
H746 H 0.60983 0.62508 0.66951 0.0
H747 H 0.59953 0.58911 0.38512 0.0
H748 H 0.63195 0.55164 0.61717 0.0
H749 H 0.54839 0.64182 0.45333 0.0
H750 H 0.61329 0.57585 0.46827 0.0
H751 H 0.58946 0.63295 0.5893 0.0
C752 C 0.61038 0.61055 0.64119 0.0
C753 C 0.6227 0.58766 0.65003 0.0
C754 C 0.59886 0.5901 0.46509 0.0
C755 C 0.5995 0.59674 0.55785 0.0
C756 C 0.59105 0.59777 0.41768 0.0
C757 C 0.57299 0.61678 0.41248 0.0
C758 C 0.58901 0.60202 0.50759 0.0
C759 C 0.56242 0.62715 0.45586 0.0
C760 C 0.59858 0.61504 0.5955 0.0
C761 C 0.62277 0.56958 0.61182 0.0
N762 N 0.57094 0.61995 0.50175 0.0
N763 N 0.61156 0.57461 0.56707 0.0
H764 H 0.38281 0.05039 0.68726 0.0
H765 H 0.46995 0.14024 0.85351 0.0
H766 H 0.41779 0.11725 0.6281 0.0
H767 H 0.40777 0.09764 0.91309 0.0
H768 H 0.45946 0.12454 0.76922 0.0
H769 H 0.40061 0.06021 0.76981 0.0
C770 C 0.39436 0.06701 0.69155 0.0
C771 C 0.39852 0.08324 0.65106 0.0
C772 C 0.44835 0.11851 0.80105 0.0
C773 C 0.41917 0.0943 0.74467 0.0
C774 C 0.45434 0.12739 0.84895 0.0
C775 C 0.43949 0.12048 0.89012 0.0
C776 C 0.42778 0.10223 0.79485 0.0
C777 C 0.41951 0.10373 0.88236 0.0
C778 C 0.40449 0.07258 0.73852 0.0
C779 C 0.41383 0.10441 0.65849 0.0
N780 N 0.41424 0.09517 0.8357 0.0
N781 N 0.42358 0.10937 0.70446 0.0
H782 H 0.87805 0.96742 0.10444 0.0
H783 H 0.96669 0.87754 0.94094 0.0
H784 H 0.9178 0.9039 0.16607 0.0
H785 H 0.90309 0.91742 0.87986 0.0
H786 H 0.95659 0.89481 0.02397 0.0
H787 H 0.89498 0.95687 0.02132 0.0
C788 C 0.89051 0.95145 0.10057 0.0
C789 C 0.89624 0.93627 0.14195 0.0
C790 C 0.94503 0.89988 -0.00785 0.0
C791 C 0.91584 0.9244 0.04777 0.0
C792 C 0.95078 0.89007 0.94491 0.0
C793 C 0.93549 0.89577 0.90369 0.0
C794 C 0.92413 0.91579 -0.00223 0.0
C795 C 0.91518 0.91225 0.91073 0.0
C796 C 0.90011 0.94543 0.05328 0.0
C797 C 0.9126 0.91588 0.13505 0.0
N798 N 0.91007 0.92165 0.95687 0.0
N799 N 0.9218 0.9105 0.08885 0.0
loop_
_geom_bond_atom_site_label_1
_geom_bond_atom_site_label_2
_geom_bond_distance
_geom_bond_site_symmetry_2
_ccdc_geom_bond_type
Co0 O1 2.216 . S
Co0 O2 2.091 . S
Co0 O4 2.004 . S
Co0 O10 2.021 . S
Co0 O12 2.137 . S
Co0 O13 2.244 . S
O1 Co0 2.216 . S
O1 C8 1.247 . S
O2 Co0 2.091 . S
O2 C8 1.261 . S
C3 O12 1.247 . S
C3 O13 1.272 . S
O4 Co0 2.004 . S
O4 C9 1.259 . S
Co5 O6 2.061 . S
Co5 O11 2.052 . S
Co5 O13 2.135 . S
O6 Co5 2.061 . S
O6 C9 1.235 . S
C7 O10 1.238 . S
C7 O11 1.241 . S
C8 O1 1.247 . S
C8 O2 1.261 . S
C9 O4 1.259 . S
C9 O6 1.235 . S
O10 Co0 2.021 . S
O10 C7 1.238 . S
O11 Co5 2.052 . S
O11 C7 1.241 . S
O12 Co0 2.137 . S
O12 C3 1.247 . S
O13 Co0 2.244 . S
O13 C3 1.272 . S
O13 Co5 2.135 . S
Co14 O15 2.216 . S
Co14 O16 2.091 . S
Co14 O18 2.004 . S
Co14 O24 2.021 . S
Co14 O26 2.137 . S
Co14 O27 2.244 . S
O15 Co14 2.216 . S
O15 C22 1.247 . S
O16 Co14 2.091 . S
O16 C22 1.261 . S
C17 O26 1.247 . S
C17 O27 1.272 . S
O18 Co14 2.004 . S
O18 C23 1.259 . S
Co19 O20 2.061 . S
Co19 O25 2.052 . S
Co19 O27 2.135 . S
O20 Co19 2.061 . S
O20 C23 1.235 . S
C21 O24 1.238 . S
C21 O25 1.241 . S
C22 O15 1.247 . S
C22 O16 1.261 . S
C23 O18 1.259 . S
C23 O20 1.235 . S
O24 Co14 2.021 . S
O24 C21 1.238 . S
O25 Co19 2.052 . S
O25 C21 1.241 . S
O26 Co14 2.137 . S
O26 C17 1.247 . S
O27 Co14 2.244 . S
O27 C17 1.272 . S
O27 Co19 2.135 . S
Co28 O29 2.216 . S
Co28 O30 2.091 . S
Co28 O32 2.004 . S
Co28 O38 2.021 . S
Co28 O40 2.137 . S
Co28 O41 2.244 . S
O29 Co28 2.216 . S
O29 C36 1.247 . S
O30 Co28 2.091 . S
O30 C36 1.261 . S
C31 O40 1.247 . S
C31 O41 1.272 . S
O32 Co28 2.004 . S
O32 C37 1.259 . S
Co33 O34 2.061 . S
Co33 O39 2.052 . S
Co33 O41 2.135 . S
O34 Co33 2.061 . S
O34 C37 1.235 . S
C35 O38 1.238 . S
C35 O39 1.241 . S
C36 O29 1.247 . S
C36 O30 1.261 . S
C37 O32 1.259 . S
C37 O34 1.235 . S
O38 Co28 2.021 . S
O38 C35 1.238 . S
O39 Co33 2.052 . S
O39 C35 1.241 . S
O40 Co28 2.137 . S
O40 C31 1.247 . S
O41 Co28 2.244 . S
O41 C31 1.272 . S
O41 Co33 2.135 . S
Co42 O43 2.216 . S
Co42 O44 2.091 . S
Co42 O46 2.004 . S
Co42 O52 2.021 . S
Co42 O54 2.137 1_554 S
Co42 O55 2.244 . S
O43 Co42 2.216 . S
O43 C50 1.247 . S
O44 Co42 2.091 . S
O44 C50 1.261 . S
C45 O54 1.247 . S
C45 O55 1.272 1_556 S
O46 Co42 2.004 . S
O46 C51 1.259 . S
Co47 O48 2.061 . S
Co47 O53 2.052 . S
Co47 O55 2.135 . S
O48 Co47 2.061 . S
O48 C51 1.235 . S
C49 O52 1.238 . S
C49 O53 1.241 . S
C50 O43 1.247 . S
C50 O44 1.261 . S
C51 O46 1.259 . S
C51 O48 1.235 . S
O52 Co42 2.021 . S
O52 C49 1.238 . S
O53 Co47 2.052 . S
O53 C49 1.241 . S
O54 Co42 2.137 1_556 S
O54 C45 1.247 . S
O55 Co42 2.244 . S
O55 C45 1.272 1_554 S
O55 Co47 2.135 . S
Co56 O57 2.216 . S
Co56 O58 2.090 1_554 S
Co56 O60 2.004 . S
Co56 O66 2.021 1_554 S
Co56 O68 2.137 . S
Co56 O69 2.244 . S
O57 Co56 2.216 . S
O57 C64 1.245 1_554 S
O58 Co56 2.090 1_556 S
O58 C64 1.261 . S
C59 O68 1.247 . S
C59 O69 1.272 . S
O60 Co56 2.004 . S
O60 C65 1.259 . S
Co61 O62 2.061 . S
Co61 O67 2.052 1_554 S
Co61 O69 2.135 . S
O62 Co61 2.061 . S
O62 C65 1.235 . S
C63 O66 1.238 . S
C63 O67 1.241 . S
C64 O57 1.245 1_556 S
C64 O58 1.261 . S
C65 O60 1.259 . S
C65 O62 1.235 . S
O66 Co56 2.021 1_556 S
O66 C63 1.238 . S
O67 Co61 2.052 1_556 S
O67 C63 1.241 . S
O68 Co56 2.137 . S
O68 C59 1.247 . S
O69 Co56 2.244 . S
O69 C59 1.272 . S
O69 Co61 2.135 . S
Co70 O71 2.216 . S
Co70 O72 2.091 . S
Co70 O74 2.004 . S
Co70 O80 2.021 . S
Co70 O82 2.137 . S
Co70 O83 2.244 . S
O71 Co70 2.216 . S
O71 C78 1.247 . S
O72 Co70 2.091 . S
O72 C78 1.261 . S
C73 O82 1.247 . S
C73 O83 1.272 . S
O74 Co70 2.004 . S
O74 C79 1.259 . S
Co75 O76 2.061 . S
Co75 O81 2.052 . S
Co75 O83 2.135 . S
O76 Co75 2.061 . S
O76 C79 1.235 . S
C77 O80 1.238 . S
C77 O81 1.241 . S
C78 O71 1.247 . S
C78 O72 1.261 . S
C79 O74 1.259 . S
C79 O76 1.235 . S
O80 Co70 2.021 . S
O80 C77 1.238 . S
O81 Co75 2.052 . S
O81 C77 1.241 . S
O82 Co70 2.137 . S
O82 C73 1.247 . S
O83 Co70 2.244 . S
O83 C73 1.272 . S
O83 Co75 2.135 . S
Co84 O85 2.216 . S
Co84 O86 2.091 . S
Co84 O88 2.004 . S
Co84 O94 2.021 . S
Co84 O96 2.137 . S
Co84 O97 2.244 . S
O85 Co84 2.216 . S
O85 C92 1.247 . S
O86 Co84 2.091 . S
O86 C92 1.261 . S
C87 O96 1.247 . S
C87 O97 1.272 . S
O88 Co84 2.004 . S
O88 C93 1.259 . S
Co89 O90 2.061 . S
Co89 O95 2.052 . S
Co89 O97 2.135 . S
O90 Co89 2.061 . S
O90 C93 1.235 . S
C91 O94 1.238 . S
C91 O95 1.241 . S
C92 O85 1.247 . S
C92 O86 1.261 . S
C93 O88 1.259 . S
C93 O90 1.235 . S
O94 Co84 2.021 . S
O94 C91 1.238 . S
O95 Co89 2.052 . S
O95 C91 1.241 . S
O96 Co84 2.137 . S
O96 C87 1.247 . S
O97 Co84 2.244 . S
O97 C87 1.272 . S
O97 Co89 2.135 . S
Co98 O99 2.216 . S
Co98 O100 2.091 . S
Co98 O102 2.004 . S
Co98 O108 2.021 . S
Co98 O110 2.137 . S
Co98 O111 2.244 . S
O99 Co98 2.216 . S
O99 C106 1.247 . S
O100 Co98 2.091 . S
O100 C106 1.261 . S
C101 O110 1.247 . S
C101 O111 1.272 . S
O102 Co98 2.004 . S
O102 C107 1.259 . S
Co103 O104 2.061 . S
Co103 O109 2.052 . S
Co103 O111 2.135 . S
O104 Co103 2.061 . S
O104 C107 1.235 . S
C105 O108 1.238 . S
C105 O109 1.241 . S
C106 O99 1.247 . S
C106 O100 1.261 . S
C107 O102 1.259 . S
C107 O104 1.235 . S
O108 Co98 2.021 . S
O108 C105 1.238 . S
O109 Co103 2.052 . S
O109 C105 1.241 . S
O110 Co98 2.137 . S
O110 C101 1.247 . S
O111 Co98 2.244 . S
O111 C101 1.272 . S
O111 Co103 2.135 . S
Co112 O113 2.216 . S
Co112 O114 2.091 . S
Co112 O116 2.004 . S
Co112 O122 2.021 . S
Co112 O124 2.137 . S
Co112 O125 2.244 . S
O113 Co112 2.216 . S
O113 C120 1.247 . S
O114 Co112 2.091 . S
O114 C120 1.261 . S
C115 O124 1.247 . S
C115 O125 1.272 . S
O116 Co112 2.004 . S
O116 C121 1.259 . S
Co117 O118 2.061 . S
Co117 O123 2.052 . S
Co117 O125 2.135 . S
O118 Co117 2.061 . S
O118 C121 1.235 . S
C119 O122 1.238 . S
C119 O123 1.241 . S
C120 O113 1.247 . S
C120 O114 1.261 . S
C121 O116 1.259 . S
C121 O118 1.235 . S
O122 Co112 2.021 . S
O122 C119 1.238 . S
O123 Co117 2.052 . S
O123 C119 1.241 . S
O124 Co112 2.137 . S
O124 C115 1.247 . S
O125 Co112 2.244 . S
O125 C115 1.272 . S
O125 Co117 2.135 . S
Co126 O127 2.216 . S
Co126 O128 2.091 . S
Co126 O130 2.004 . S
Co126 O136 2.021 . S
Co126 O138 2.137 1_554 S
Co126 O139 2.244 . S
O127 Co126 2.216 . S
O127 C134 1.247 . S
O128 Co126 2.091 . S
O128 C134 1.261 . S
C129 O138 1.247 . S
C129 O139 1.272 1_556 S
O130 Co126 2.004 . S
O130 C135 1.259 . S
Co131 O132 2.061 . S
Co131 O137 2.052 . S
Co131 O139 2.135 . S
O132 Co131 2.061 . S
O132 C135 1.235 . S
C133 O136 1.238 . S
C133 O137 1.241 . S
C134 O127 1.247 . S
C134 O128 1.261 . S
C135 O130 1.259 . S
C135 O132 1.235 . S
O136 Co126 2.021 . S
O136 C133 1.238 . S
O137 Co131 2.052 . S
O137 C133 1.241 . S
O138 Co126 2.137 1_556 S
O138 C129 1.247 . S
O139 Co126 2.244 . S
O139 C129 1.272 1_554 S
O139 Co131 2.135 . S
Co140 O141 2.216 . S
Co140 O142 2.091 . S
Co140 O144 2.004 . S
Co140 O150 2.021 . S
Co140 O152 2.137 . S
Co140 O153 2.244 . S
O141 Co140 2.216 . S
O141 C148 1.247 . S
O142 Co140 2.091 . S
O142 C148 1.261 . S
C143 O152 1.247 . S
C143 O153 1.272 . S
O144 Co140 2.004 . S
O144 C149 1.259 . S
Co145 O146 2.061 . S
Co145 O151 2.052 . S
Co145 O153 2.135 . S
O146 Co145 2.061 . S
O146 C149 1.235 . S
C147 O150 1.238 . S
C147 O151 1.241 . S
C148 O141 1.247 . S
C148 O142 1.261 . S
C149 O144 1.259 . S
C149 O146 1.235 . S
O150 Co140 2.021 . S
O150 C147 1.238 . S
O151 Co145 2.052 . S
O151 C147 1.241 . S
O152 Co140 2.137 . S
O152 C143 1.247 . S
O153 Co140 2.244 . S
O153 C143 1.272 . S
O153 Co145 2.135 . S
Co154 O155 2.216 . S
Co154 O156 2.091 . S
Co154 O158 2.004 . S
Co154 O164 2.021 . S
Co154 O166 2.137 . S
Co154 O167 2.244 . S
O155 Co154 2.216 . S
O155 C162 1.247 . S
O156 Co154 2.091 . S
O156 C162 1.261 . S
C157 O166 1.247 . S
C157 O167 1.272 . S
O158 Co154 2.004 . S
O158 C163 1.259 . S
Co159 O160 2.061 . S
Co159 O165 2.052 . S
Co159 O167 2.135 . S
O160 Co159 2.061 . S
O160 C163 1.235 . S
C161 O164 1.238 . S
C161 O165 1.241 . S
C162 O155 1.247 . S
C162 O156 1.261 . S
C163 O158 1.259 . S
C163 O160 1.235 . S
O164 Co154 2.021 . S
O164 C161 1.238 . S
O165 Co159 2.052 . S
O165 C161 1.241 . S
O166 Co154 2.137 . S
O166 C157 1.247 . S
O167 Co154 2.244 . S
O167 C157 1.272 . S
O167 Co159 2.135 . S
Co168 O169 2.216 . S
Co168 O170 2.091 . S
Co168 O172 2.004 . S
Co168 O178 2.021 . S
Co168 O180 2.137 . S
Co168 O181 2.244 . S
O169 Co168 2.216 . S
O169 C176 1.247 . S
O170 Co168 2.091 . S
O170 C176 1.261 . S
C171 O180 1.247 . S
C171 O181 1.272 . S
O172 Co168 2.004 . S
O172 C177 1.259 . S
Co173 O174 2.061 . S
Co173 O179 2.052 . S
Co173 O181 2.135 . S
O174 Co173 2.061 . S
O174 C177 1.235 . S
C175 O178 1.238 . S
C175 O179 1.241 . S
C176 O169 1.247 . S
C176 O170 1.261 . S
C177 O172 1.259 . S
C177 O174 1.235 . S
O178 Co168 2.021 . S
O178 C175 1.238 . S
O179 Co173 2.052 . S
O179 C175 1.241 . S
O180 Co168 2.137 . S
O180 C171 1.247 . S
O181 Co168 2.244 . S
O181 C171 1.272 . S
O181 Co173 2.135 . S
Co182 O183 2.216 . S
Co182 O184 2.091 . S
Co182 O186 2.004 . S
Co182 O192 2.021 . S
Co182 O194 2.137 . S
Co182 O195 2.244 . S
O183 Co182 2.216 . S
O183 C190 1.247 . S
O184 Co182 2.091 . S
O184 C190 1.261 . S
C185 O194 1.247 . S
C185 O195 1.272 . S
O186 Co182 2.004 . S
O186 C191 1.259 . S
Co187 O188 2.061 . S
Co187 O193 2.052 . S
Co187 O195 2.135 . S
O188 Co187 2.061 . S
O188 C191 1.235 . S
C189 O192 1.238 . S
C189 O193 1.241 . S
C190 O183 1.247 . S
C190 O184 1.261 . S
C191 O186 1.259 . S
C191 O188 1.235 . S
O192 Co182 2.021 . S
O192 C189 1.238 . S
O193 Co187 2.052 . S
O193 C189 1.241 . S
O194 Co182 2.137 . S
O194 C185 1.247 . S
O195 Co182 2.244 . S
O195 C185 1.272 . S
O195 Co187 2.135 . S
Co196 O197 2.216 . S
Co196 O198 2.090 1_554 S
Co196 O200 2.004 . S
Co196 O206 2.021 1_554 S
Co196 O208 2.137 . S
Co196 O209 2.244 . S
O197 Co196 2.216 . S
O197 C204 1.245 1_554 S
O198 Co196 2.090 1_556 S
O198 C204 1.261 . S
C199 O208 1.247 . S
C199 O209 1.272 . S
O200 Co196 2.004 . S
O200 C205 1.259 . S
Co201 O202 2.061 . S
Co201 O207 2.052 1_554 S
Co201 O209 2.135 . S
O202 Co201 2.061 . S
O202 C205 1.235 . S
C203 O206 1.238 . S
C203 O207 1.241 . S
C204 O197 1.245 1_556 S
C204 O198 1.261 . S
C205 O200 1.259 . S
C205 O202 1.235 . S
O206 Co196 2.021 1_556 S
O206 C203 1.238 . S
O207 Co201 2.052 1_556 S
O207 C203 1.241 . S
O208 Co196 2.137 . S
O208 C199 1.247 . S
O209 Co196 2.244 . S
O209 C199 1.272 . S
O209 Co201 2.135 . S
Co210 O211 2.216 . S
Co210 O212 2.091 . S
Co210 O214 2.004 . S
Co210 O220 2.021 . S
Co210 O222 2.137 . S
Co210 O223 2.244 . S
O211 Co210 2.216 . S
O211 C218 1.247 . S
O212 Co210 2.091 . S
O212 C218 1.261 . S
C213 O222 1.247 . S
C213 O223 1.272 . S
O214 Co210 2.004 . S
O214 C219 1.259 . S
Co215 O216 2.061 . S
Co215 O221 2.052 . S
Co215 O223 2.135 . S
O216 Co215 2.061 . S
O216 C219 1.235 . S
C217 O220 1.238 . S
C217 O221 1.241 . S
C218 O211 1.247 . S
C218 O212 1.261 . S
C219 O214 1.259 . S
C219 O216 1.235 . S
O220 Co210 2.021 . S
O220 C217 1.238 . S
O221 Co215 2.052 . S
O221 C217 1.241 . S
O222 Co210 2.137 . S
O222 C213 1.247 . S
O223 Co210 2.244 . S
O223 C213 1.272 . S
O223 Co215 2.135 . S
H224 C230 0.930 . S
H225 C234 0.930 . S
H226 C239 0.929 . S
H227 C237 0.929 . S
H228 C232 0.929 . S
H229 C238 0.929 . S
C230 H224 0.930 . S
C230 C231 1.367 . S
C230 C238 1.378 . S
C231 C230 1.367 . S
C231 C239 1.433 . S
C232 H228 0.929 . S
C232 C234 1.378 . S
C232 C236 1.350 . S
C233 C236 1.463 . S
C233 C238 1.350 . S
C233 N241 1.427 . S
C234 H225 0.930 . S
C234 C232 1.378 . S
C234 C235 1.367 . S
C235 C234 1.367 . S
C235 C237 1.433 . S
C236 C232 1.350 . S
C236 C233 1.463 . S
C236 N240 1.427 . S
C237 H227 0.929 . S
C237 C235 1.433 . S
C237 N240 1.384 . S
C238 H229 0.929 . S
C238 C230 1.378 . S
C238 C233 1.350 . S
C239 H226 0.929 . S
C239 C231 1.433 . S
C239 N241 1.384 . S
N240 C236 1.427 . S
N240 C237 1.384 . S
N241 C233 1.427 . S
N241 C239 1.384 . S
H242 C248 0.930 . S
H243 C252 0.930 . S
H244 C257 0.929 . S
H245 C255 0.929 . S
H246 C250 0.929 . S
H247 C256 0.929 . S
C248 H242 0.930 . S
C248 C249 1.367 . S
C248 C256 1.378 . S
C249 C248 1.367 . S
C249 C257 1.433 . S
C250 H246 0.929 . S
C250 C252 1.378 . S
C250 C254 1.350 . S
C251 C254 1.463 . S
C251 C256 1.350 . S
C251 N259 1.427 . S
C252 H243 0.930 . S
C252 C250 1.378 . S
C252 C253 1.367 . S
C253 C252 1.367 . S
C253 C255 1.433 . S
C254 C250 1.350 . S
C254 C251 1.463 . S
C254 N258 1.427 . S
C255 H245 0.929 . S
C255 C253 1.433 . S
C255 N258 1.384 . S
C256 H247 0.929 . S
C256 C248 1.378 . S
C256 C251 1.350 . S
C257 H244 0.929 . S
C257 C249 1.433 . S
C257 N259 1.384 . S
N258 C254 1.427 . S
N258 C255 1.384 . S
N259 C251 1.427 . S
N259 C257 1.384 . S
H260 C266 0.930 . S
H261 C270 0.930 . S
H262 C275 0.929 . S
H263 C273 0.929 . S
H264 C268 0.929 . S
H265 C274 0.929 . S
C266 H260 0.930 . S
C266 C267 1.367 . S
C266 C274 1.378 . S
C267 C266 1.367 . S
C267 C275 1.433 . S
C268 H264 0.929 . S
C268 C270 1.378 . S
C268 C272 1.350 . S
C269 C272 1.463 . S
C269 C274 1.350 . S
C269 N277 1.427 . S
C270 H261 0.930 . S
C270 C268 1.378 . S
C270 C271 1.367 . S
C271 C270 1.367 . S
C271 C273 1.433 . S
C272 C268 1.350 . S
C272 C269 1.463 . S
C272 N276 1.427 . S
C273 H263 0.929 . S
C273 C271 1.433 . S
C273 N276 1.384 . S
C274 H265 0.929 . S
C274 C266 1.378 . S
C274 C269 1.350 . S
C275 H262 0.929 . S
C275 C267 1.433 . S
C275 N277 1.384 . S
N276 C272 1.427 . S
N276 C273 1.384 . S
N277 C269 1.427 . S
N277 C275 1.384 . S
H278 C284 0.930 . S
H279 C288 0.930 . S
H280 C293 0.929 . S
H281 C291 0.929 . S
H282 C286 0.929 . S
H283 C292 0.929 . S
C284 H278 0.930 . S
C284 C285 1.367 . S
C284 C292 1.378 . S
C285 C284 1.367 . S
C285 C293 1.433 . S
C286 H282 0.929 . S
C286 C288 1.378 . S
C286 C290 1.350 . S
C287 C290 1.463 . S
C287 C292 1.350 . S
C287 N295 1.427 . S
C288 H279 0.930 . S
C288 C286 1.378 . S
C288 C289 1.367 . S
C289 C288 1.367 . S
C289 C291 1.433 . S
C290 C286 1.350 . S
C290 C287 1.463 . S
C290 N294 1.427 . S
C291 H281 0.929 . S
C291 C289 1.433 . S
C291 N294 1.384 . S
C292 H283 0.929 . S
C292 C284 1.378 . S
C292 C287 1.350 . S
C293 H280 0.929 . S
C293 C285 1.433 . S
C293 N295 1.384 . S
N294 C290 1.427 . S
N294 C291 1.384 . S
N295 C287 1.427 . S
N295 C293 1.384 . S
H296 C302 0.930 . S
H297 C306 0.930 . S
H298 C311 0.929 . S
H299 C309 0.929 . S
H300 C304 0.929 . S
H301 C310 0.929 . S
C302 H296 0.930 . S
C302 C303 1.367 . S
C302 C310 1.378 . S
C303 C302 1.367 . S
C303 C311 1.433 . S
C304 H300 0.929 . S
C304 C306 1.378 . S
C304 C308 1.350 . S
C305 C308 1.463 . S
C305 C310 1.350 . S
C305 N313 1.427 . S
C306 H297 0.930 . S
C306 C304 1.378 . S
C306 C307 1.367 . S
C307 C306 1.367 . S
C307 C309 1.433 1_556 S
C308 C304 1.350 . S
C308 C305 1.463 . S
C308 N312 1.427 . S
C309 H299 0.929 . S
C309 C307 1.433 1_554 S
C309 N312 1.384 1_554 S
C310 H301 0.929 . S
C310 C302 1.378 . S
C310 C305 1.350 . S
C311 H298 0.929 . S
C311 C303 1.433 . S
C311 N313 1.384 . S
N312 C308 1.427 . S
N312 C309 1.384 1_556 S
N313 C305 1.427 . S
N313 C311 1.384 . S
H314 C320 0.930 . S
H315 C324 0.930 . S
H316 C329 0.929 . S
H317 C327 0.929 . S
H318 C322 0.929 . S
H319 C328 0.929 . S
C320 H314 0.930 . S
C320 C321 1.367 . S
C320 C328 1.378 . S
C321 C320 1.367 . S
C321 C329 1.433 . S
C322 H318 0.929 . S
C322 C324 1.378 . S
C322 C326 1.350 . S
C323 C326 1.463 . S
C323 C328 1.350 . S
C323 N331 1.427 . S
C324 H315 0.930 . S
C324 C322 1.378 . S
C324 C325 1.367 . S
C325 C324 1.367 . S
C325 C327 1.433 . S
C326 C322 1.350 . S
C326 C323 1.463 . S
C326 N330 1.427 . S
C327 H317 0.929 . S
C327 C325 1.433 . S
C327 N330 1.384 . S
C328 H319 0.929 . S
C328 C320 1.378 . S
C328 C323 1.350 . S
C329 H316 0.929 . S
C329 C321 1.433 . S
C329 N331 1.384 . S
N330 C326 1.427 . S
N330 C327 1.384 . S
N331 C323 1.427 . S
N331 C329 1.384 . S
H332 C338 0.930 . S
H333 C342 0.930 . S
H334 C347 0.929 . S
H335 C345 0.929 . S
H336 C340 0.929 . S
H337 C346 0.929 . S
C338 H332 0.930 . S
C338 C339 1.367 . S
C338 C346 1.378 . S
C339 C338 1.367 . S
C339 C347 1.433 . S
C340 H336 0.929 . S
C340 C342 1.378 . S
C340 C344 1.350 . S
C341 C344 1.463 . S
C341 C346 1.350 . S
C341 N349 1.427 . S
C342 H333 0.930 . S
C342 C340 1.378 . S
C342 C343 1.367 . S
C343 C342 1.367 . S
C343 C345 1.433 . S
C344 C340 1.350 . S
C344 C341 1.463 . S
C344 N348 1.427 . S
C345 H335 0.929 . S
C345 C343 1.433 . S
C345 N348 1.384 . S
C346 H337 0.929 . S
C346 C338 1.378 . S
C346 C341 1.350 . S
C347 H334 0.929 . S
C347 C339 1.433 . S
C347 N349 1.384 . S
N348 C344 1.427 . S
N348 C345 1.384 . S
N349 C341 1.427 . S
N349 C347 1.384 . S
H350 C356 0.930 . S
H351 C360 0.930 . S
H352 C365 0.929 . S
H353 C363 0.929 . S
H354 C358 0.929 . S
H355 C364 0.929 . S
C356 H350 0.930 . S
C356 C357 1.367 . S
C356 C364 1.378 . S
C357 C356 1.367 . S
C357 C365 1.433 . S
C358 H354 0.929 . S
C358 C360 1.378 . S
C358 C362 1.350 . S
C359 C362 1.463 . S
C359 C364 1.350 . S
C359 N367 1.427 . S
C360 H351 0.930 . S
C360 C358 1.378 . S
C360 C361 1.367 . S
C361 C360 1.367 . S
C361 C363 1.433 . S
C362 C358 1.350 . S
C362 C359 1.463 . S
C362 N366 1.427 . S
C363 H353 0.929 . S
C363 C361 1.433 . S
C363 N366 1.384 . S
C364 H355 0.929 . S
C364 C356 1.378 . S
C364 C359 1.350 . S
C365 H352 0.929 . S
C365 C357 1.433 . S
C365 N367 1.384 . S
N366 C362 1.427 . S
N366 C363 1.384 . S
N367 C359 1.427 . S
N367 C365 1.384 . S
H368 C374 0.930 . S
H369 C378 0.930 . S
H370 C383 0.929 . S
H371 C381 0.929 . S
H372 C376 0.929 . S
H373 C382 0.929 . S
C374 H368 0.930 . S
C374 C375 1.367 . S
C374 C382 1.378 . S
C375 C374 1.367 . S
C375 C383 1.433 . S
C376 H372 0.929 . S
C376 C378 1.378 . S
C376 C380 1.350 . S
C377 C380 1.463 1_445 S
C377 C382 1.350 . S
C377 N385 1.427 . S
C378 H369 0.930 . S
C378 C376 1.378 . S
C378 C379 1.367 . S
C379 C378 1.367 . S
C379 C381 1.433 . S
C380 C376 1.350 . S
C380 C377 1.463 1_665 S
C380 N384 1.427 . S
C381 H371 0.929 . S
C381 C379 1.433 . S
C381 N384 1.384 . S
C382 H373 0.929 . S
C382 C374 1.378 . S
C382 C377 1.350 . S
C383 H370 0.929 . S
C383 C375 1.433 . S
C383 N385 1.384 . S
N384 C380 1.427 . S
N384 C381 1.384 . S
N385 C377 1.427 . S
N385 C383 1.384 . S
H386 C392 0.930 . S
H387 C396 0.930 . S
H388 C401 0.929 . S
H389 C399 0.929 . S
H390 C394 0.929 . S
H391 C400 0.929 . S
C392 H386 0.930 . S
C392 C393 1.367 . S
C392 C400 1.378 . S
C393 C392 1.367 . S
C393 C401 1.433 . S
C394 H390 0.929 . S
C394 C396 1.378 . S
C394 C398 1.350 . S
C395 C398 1.463 1_655 S
C395 C400 1.350 . S
C395 N403 1.427 . S
C396 H387 0.930 . S
C396 C394 1.378 . S
C396 C397 1.367 . S
C397 C396 1.367 . S
C397 C399 1.433 . S
C398 C394 1.350 . S
C398 C395 1.463 1_455 S
C398 N402 1.427 . S
C399 H389 0.929 . S
C399 C397 1.433 . S
C399 N402 1.384 . S
C400 H391 0.929 . S
C400 C392 1.378 . S
C400 C395 1.350 . S
C401 H388 0.929 . S
C401 C393 1.433 . S
C401 N403 1.384 . S
N402 C398 1.427 . S
N402 C399 1.384 . S
N403 C395 1.427 . S
N403 C401 1.384 . S
H404 C410 0.930 . S
H405 C414 0.930 . S
H406 C419 0.929 . S
H407 C417 0.929 . S
H408 C412 0.929 . S
H409 C418 0.929 . S
C410 H404 0.930 . S
C410 C411 1.367 . S
C410 C418 1.378 . S
C411 C410 1.367 . S
C411 C419 1.433 . S
C412 H408 0.929 . S
C412 C414 1.378 . S
C412 C416 1.350 . S
C413 C416 1.463 . S
C413 C418 1.350 . S
C413 N421 1.427 . S
C414 H405 0.930 . S
C414 C412 1.378 . S
C414 C415 1.367 . S
C415 C414 1.367 . S
C415 C417 1.433 . S
C416 C412 1.350 . S
C416 C413 1.463 . S
C416 N420 1.427 . S
C417 H407 0.929 . S
C417 C415 1.433 . S
C417 N420 1.384 . S
C418 H409 0.929 . S
C418 C410 1.378 . S
C418 C413 1.350 . S
C419 H406 0.929 . S
C419 C411 1.433 . S
C419 N421 1.384 . S
N420 C416 1.427 . S
N420 C417 1.384 . S
N421 C413 1.427 . S
N421 C419 1.384 . S
H422 C428 0.930 . S
H423 C432 0.930 1_556 S
H424 C437 0.929 1_556 S
H425 C435 0.929 . S
H426 C430 0.929 1_556 S
H427 C436 0.929 . S
C428 H422 0.930 . S
C428 C429 1.367 . S
C428 C436 1.378 . S
C429 C428 1.367 . S
C429 C437 1.433 . S
C430 H426 0.929 1_554 S
C430 C432 1.378 . S
C430 C434 1.350 . S
C431 C434 1.463 1_565 S
C431 C436 1.350 . S
C431 N439 1.427 . S
C432 H423 0.930 1_554 S
C432 C430 1.378 . S
C432 C433 1.367 . S
C433 C432 1.367 . S
C433 C435 1.433 . S
C434 C430 1.350 . S
C434 C431 1.463 1_545 S
C434 N438 1.427 . S
C435 H425 0.929 . S
C435 C433 1.433 . S
C435 N438 1.384 . S
C436 H427 0.929 . S
C436 C428 1.378 . S
C436 C431 1.350 . S
C437 H424 0.929 1_554 S
C437 C429 1.433 . S
C437 N439 1.384 . S
N438 C434 1.427 . S
N438 C435 1.384 . S
N439 C431 1.427 . S
N439 C437 1.384 . S
H440 C446 0.930 . S
H441 C450 0.930 . S
H442 C455 0.929 . S
H443 C453 0.929 . S
H444 C448 0.929 . S
H445 C454 0.929 . S
C446 H440 0.930 . S
C446 C447 1.367 . S
C446 C454 1.378 . S
C447 C446 1.367 . S
C447 C455 1.433 . S
C448 H444 0.929 . S
C448 C450 1.378 . S
C448 C452 1.350 . S
C449 C452 1.463 1_455 S
C449 C454 1.350 . S
C449 N457 1.427 . S
C450 H441 0.930 . S
C450 C448 1.378 . S
C450 C451 1.367 . S
C451 C450 1.367 . S
C451 C453 1.433 . S
C452 C448 1.350 . S
C452 C449 1.463 1_655 S
C452 N456 1.427 . S
C453 H443 0.929 . S
C453 C451 1.433 . S
C453 N456 1.384 . S
C454 H445 0.929 . S
C454 C446 1.378 . S
C454 C449 1.350 . S
C455 H442 0.929 . S
C455 C447 1.433 . S
C455 N457 1.384 . S
N456 C452 1.427 . S
N456 C453 1.384 . S
N457 C449 1.427 . S
N457 C455 1.384 . S
H458 C464 0.930 . S
H459 C468 0.930 . S
H460 C473 0.929 . S
H461 C471 0.929 . S
H462 C466 0.929 . S
H463 C472 0.929 . S
C464 H458 0.930 . S
C464 C465 1.367 . S
C464 C472 1.378 . S
C465 C464 1.367 . S
C465 C473 1.433 . S
C466 H462 0.929 . S
C466 C468 1.378 . S
C466 C470 1.350 . S
C467 C470 1.463 . S
C467 C472 1.350 . S
C467 N475 1.427 . S
C468 H459 0.930 . S
C468 C466 1.378 . S
C468 C469 1.367 . S
C469 C468 1.367 . S
C469 C471 1.433 . S
C470 C466 1.350 . S
C470 C467 1.463 . S
C470 N474 1.427 . S
C471 H461 0.929 . S
C471 C469 1.433 . S
C471 N474 1.384 . S
C472 H463 0.929 . S
C472 C464 1.378 . S
C472 C467 1.350 . S
C473 H460 0.929 . S
C473 C465 1.433 . S
C473 N475 1.384 . S
N474 C470 1.427 . S
N474 C471 1.384 . S
N475 C467 1.427 . S
N475 C473 1.384 . S
H476 C482 0.930 . S
H477 C486 0.930 . S
H478 C491 0.930 . S
H479 C489 0.930 . S
H480 C484 0.929 . S
H481 C490 0.929 . S
C482 H476 0.930 . S
C482 C483 1.367 . S
C482 C490 1.378 . S
C483 C482 1.367 . S
C483 C491 1.433 . S
C484 H480 0.929 . S
C484 C486 1.378 . S
C484 C488 1.350 . S
C485 C488 1.463 1_545 S
C485 C490 1.350 . S
C485 N493 1.427 1_545 S
C486 H477 0.930 . S
C486 C484 1.378 . S
C486 C487 1.367 . S
C487 C486 1.367 . S
C487 C489 1.433 . S
C488 C484 1.350 . S
C488 C485 1.463 1_565 S
C488 N492 1.427 1_565 S
C489 H479 0.930 . S
C489 C487 1.433 . S
C489 N492 1.384 1_565 S
C490 H481 0.929 . S
C490 C482 1.378 . S
C490 C485 1.350 . S
C491 H478 0.930 . S
C491 C483 1.433 . S
C491 N493 1.384 1_545 S
N492 C488 1.427 1_545 S
N492 C489 1.384 1_545 S
N493 C485 1.427 1_565 S
N493 C491 1.384 1_565 S
H494 C500 0.930 1_655 S
H495 C504 0.930 1_455 S
H496 C509 0.929 . S
H497 C507 0.929 . S
H498 C502 0.929 . S
H499 C508 0.929 . S
C500 H494 0.930 1_455 S
C500 C501 1.367 . S
C500 C508 1.378 1_455 S
C501 C500 1.367 . S
C501 C509 1.433 . S
C502 H498 0.929 . S
C502 C504 1.378 1_455 S
C502 C506 1.350 1_455 S
C503 C506 1.463 1_445 S
C503 C508 1.350 1_455 S
C503 N511 1.427 . S
C504 H495 0.930 1_655 S
C504 C502 1.378 1_655 S
C504 C505 1.367 . S
C505 C504 1.367 . S
C505 C507 1.433 . S
C506 C502 1.350 1_655 S
C506 C503 1.463 1_665 S
C506 N510 1.427 . S
C507 H497 0.929 . S
C507 C505 1.433 . S
C507 N510 1.384 . S
C508 H499 0.929 . S
C508 C500 1.378 1_655 S
C508 C503 1.350 1_655 S
C509 H496 0.929 . S
C509 C501 1.433 . S
C509 N511 1.384 . S
N510 C506 1.427 . S
N510 C507 1.384 . S
N511 C503 1.427 . S
N511 C509 1.384 . S
H512 C518 0.930 . S
H513 C522 0.930 . S
H514 C527 0.929 . S
H515 C525 0.929 . S
H516 C520 0.929 . S
H517 C526 0.929 . S
C518 H512 0.930 . S
C518 C519 1.367 . S
C518 C526 1.378 . S
C519 C518 1.367 . S
C519 C527 1.433 . S
C520 H516 0.929 . S
C520 C522 1.378 . S
C520 C524 1.350 . S
C521 C524 1.463 . S
C521 C526 1.350 . S
C521 N529 1.427 . S
C522 H513 0.930 . S
C522 C520 1.378 . S
C522 C523 1.367 . S
C523 C522 1.367 . S
C523 C525 1.433 . S
C524 C520 1.350 . S
C524 C521 1.463 . S
C524 N528 1.427 . S
C525 H515 0.929 . S
C525 C523 1.433 . S
C525 N528 1.384 . S
C526 H517 0.929 . S
C526 C518 1.378 . S
C526 C521 1.350 . S
C527 H514 0.929 . S
C527 C519 1.433 . S
C527 N529 1.384 . S
N528 C524 1.427 . S
N528 C525 1.384 . S
N529 C521 1.427 . S
N529 C527 1.384 . S
H530 C536 0.930 . S
H531 C540 0.930 . S
H532 C545 0.929 . S
H533 C543 0.929 . S
H534 C538 0.929 . S
H535 C544 0.929 . S
C536 H530 0.930 . S
C536 C537 1.367 . S
C536 C544 1.378 . S
C537 C536 1.367 . S
C537 C545 1.433 . S
C538 H534 0.929 . S
C538 C540 1.378 . S
C538 C542 1.350 . S
C539 C542 1.463 . S
C539 C544 1.350 . S
C539 N547 1.427 . S
C540 H531 0.930 . S
C540 C538 1.378 . S
C540 C541 1.367 . S
C541 C540 1.367 . S
C541 C543 1.433 . S
C542 C538 1.350 . S
C542 C539 1.463 . S
C542 N546 1.427 . S
C543 H533 0.929 . S
C543 C541 1.433 . S
C543 N546 1.384 . S
C544 H535 0.929 . S
C544 C536 1.378 . S
C544 C539 1.350 . S
C545 H532 0.929 . S
C545 C537 1.433 . S
C545 N547 1.384 . S
N546 C542 1.427 . S
N546 C543 1.384 . S
N547 C539 1.427 . S
N547 C545 1.384 . S
H548 C554 0.930 . S
H549 C558 0.930 . S
H550 C563 0.929 . S
H551 C561 0.929 . S
H552 C556 0.929 1_554 S
H553 C562 0.929 . S
C554 H548 0.930 . S
C554 C555 1.367 . S
C554 C562 1.378 . S
C555 C554 1.367 . S
C555 C563 1.433 . S
C556 H552 0.929 1_556 S
C556 C558 1.378 . S
C556 C560 1.350 1_556 S
C557 C560 1.463 . S
C557 C562 1.350 . S
C557 N565 1.427 . S
C558 H549 0.930 . S
C558 C556 1.378 . S
C558 C559 1.367 . S
C559 C558 1.367 . S
C559 C561 1.433 . S
C560 C556 1.350 1_554 S
C560 C557 1.463 . S
C560 N564 1.427 1_554 S
C561 H551 0.929 . S
C561 C559 1.433 . S
C561 N564 1.384 . S
C562 H553 0.929 . S
C562 C554 1.378 . S
C562 C557 1.350 . S
C563 H550 0.929 . S
C563 C555 1.433 . S
C563 N565 1.384 . S
N564 C560 1.427 1_556 S
N564 C561 1.384 . S
N565 C557 1.427 . S
N565 C563 1.384 . S
H566 C572 0.930 . S
H567 C576 0.930 . S
H568 C581 0.929 . S
H569 C579 0.929 . S
H570 C574 0.929 . S
H571 C580 0.929 . S
C572 H566 0.930 . S
C572 C573 1.367 . S
C572 C580 1.378 . S
C573 C572 1.367 . S
C573 C581 1.433 . S
C574 H570 0.929 . S
C574 C576 1.378 . S
C574 C578 1.350 . S
C575 C578 1.463 . S
C575 C580 1.350 . S
C575 N583 1.427 . S
C576 H567 0.930 . S
C576 C574 1.378 . S
C576 C577 1.367 . S
C577 C576 1.367 . S
C577 C579 1.433 . S
C578 C574 1.350 . S
C578 C575 1.463 . S
C578 N582 1.427 . S
C579 H569 0.929 . S
C579 C577 1.433 . S
C579 N582 1.384 . S
C580 H571 0.929 . S
C580 C572 1.378 . S
C580 C575 1.350 . S
C581 H568 0.929 . S
C581 C573 1.433 . S
C581 N583 1.384 . S
N582 C578 1.427 . S
N582 C579 1.384 . S
N583 C575 1.427 . S
N583 C581 1.384 . S
H584 C590 0.930 . S
H585 C594 0.930 . S
H586 C599 0.929 . S
H587 C597 0.929 . S
H588 C592 0.929 . S
H589 C598 0.929 . S
C590 H584 0.930 . S
C590 C591 1.367 . S
C590 C598 1.378 . S
C591 C590 1.367 . S
C591 C599 1.433 . S
C592 H588 0.929 . S
C592 C594 1.378 . S
C592 C596 1.350 . S
C593 C596 1.463 . S
C593 C598 1.350 . S
C593 N601 1.427 . S
C594 H585 0.930 . S
C594 C592 1.378 . S
C594 C595 1.367 . S
C595 C594 1.367 . S
C595 C597 1.433 . S
C596 C592 1.350 . S
C596 C593 1.463 . S
C596 N600 1.427 . S
C597 H587 0.929 . S
C597 C595 1.433 . S
C597 N600 1.384 . S
C598 H589 0.929 . S
C598 C590 1.378 . S
C598 C593 1.350 . S
C599 H586 0.929 . S
C599 C591 1.433 . S
C599 N601 1.384 . S
N600 C596 1.427 . S
N600 C597 1.384 . S
N601 C593 1.427 . S
N601 C599 1.384 . S
H602 C608 0.930 . S
H603 C612 0.930 . S
H604 C617 0.929 . S
H605 C615 0.929 . S
H606 C610 0.929 1_554 S
H607 C616 0.929 . S
C608 H602 0.930 . S
C608 C609 1.367 . S
C608 C616 1.378 . S
C609 C608 1.367 . S
C609 C617 1.433 . S
C610 H606 0.929 1_556 S
C610 C612 1.378 . S
C610 C614 1.350 1_556 S
C611 C614 1.463 . S
C611 C616 1.350 . S
C611 N619 1.427 . S
C612 H603 0.930 . S
C612 C610 1.378 . S
C612 C613 1.367 . S
C613 C612 1.367 . S
C613 C615 1.433 . S
C614 C610 1.350 1_554 S
C614 C611 1.463 . S
C614 N618 1.427 1_554 S
C615 H605 0.929 . S
C615 C613 1.433 . S
C615 N618 1.384 . S
C616 H607 0.929 . S
C616 C608 1.378 . S
C616 C611 1.350 . S
C617 H604 0.929 . S
C617 C609 1.433 . S
C617 N619 1.384 . S
N618 C614 1.427 1_556 S
N618 C615 1.384 . S
N619 C611 1.427 . S
N619 C617 1.384 . S
H620 C626 0.930 . S
H621 C630 0.930 . S
H622 C635 0.929 . S
H623 C633 0.929 . S
H624 C628 0.929 . S
H625 C634 0.929 . S
C626 H620 0.930 . S
C626 C627 1.367 . S
C626 C634 1.378 . S
C627 C626 1.367 . S
C627 C635 1.433 . S
C628 H624 0.929 . S
C628 C630 1.378 . S
C628 C632 1.350 . S
C629 C632 1.463 . S
C629 C634 1.350 . S
C629 N637 1.427 . S
C630 H621 0.930 . S
C630 C628 1.378 . S
C630 C631 1.367 . S
C631 C630 1.367 . S
C631 C633 1.433 . S
C632 C628 1.350 . S
C632 C629 1.463 . S
C632 N636 1.427 . S
C633 H623 0.929 . S
C633 C631 1.433 . S
C633 N636 1.384 . S
C634 H625 0.929 . S
C634 C626 1.378 . S
C634 C629 1.350 . S
C635 H622 0.929 . S
C635 C627 1.433 . S
C635 N637 1.384 . S
N636 C632 1.427 . S
N636 C633 1.384 . S
N637 C629 1.427 . S
N637 C635 1.384 . S
H638 C644 0.930 . S
H639 C648 0.930 . S
H640 C653 0.929 . S
H641 C651 0.929 . S
H642 C646 0.929 . S
H643 C652 0.929 . S
C644 H638 0.930 . S
C644 C645 1.367 . S
C644 C652 1.378 . S
C645 C644 1.367 . S
C645 C653 1.433 . S
C646 H642 0.929 . S
C646 C648 1.378 . S
C646 C650 1.350 . S
C647 C650 1.463 . S
C647 C652 1.350 . S
C647 N655 1.427 . S
C648 H639 0.930 . S
C648 C646 1.378 . S
C648 C649 1.367 . S
C649 C648 1.367 . S
C649 C651 1.433 . S
C650 C646 1.350 . S
C650 C647 1.463 . S
C650 N654 1.427 . S
C651 H641 0.929 . S
C651 C649 1.433 . S
C651 N654 1.384 . S
C652 H643 0.929 . S
C652 C644 1.378 . S
C652 C647 1.350 . S
C653 H640 0.929 . S
C653 C645 1.433 . S
C653 N655 1.384 . S
N654 C650 1.427 . S
N654 C651 1.384 . S
N655 C647 1.427 . S
N655 C653 1.384 . S
H656 C662 0.930 . S
H657 C666 0.930 . S
H658 C671 0.929 . S
H659 C669 0.929 . S
H660 C664 0.929 . S
H661 C670 0.929 1_554 S
C662 H656 0.930 . S
C662 C663 1.367 . S
C662 C670 1.378 . S
C663 C662 1.367 . S
C663 C671 1.433 . S
C664 H660 0.929 . S
C664 C666 1.378 . S
C664 C668 1.350 . S
C665 C668 1.463 . S
C665 C670 1.350 1_554 S
C665 N673 1.427 1_554 S
C666 H657 0.930 . S
C666 C664 1.378 . S
C666 C667 1.367 . S
C667 C666 1.367 . S
C667 C669 1.433 . S
C668 C664 1.350 . S
C668 C665 1.463 . S
C668 N672 1.427 . S
C669 H659 0.929 . S
C669 C667 1.433 . S
C669 N672 1.384 . S
C670 H661 0.929 1_556 S
C670 C662 1.378 . S
C670 C665 1.350 1_556 S
C671 H658 0.929 . S
C671 C663 1.433 . S
C671 N673 1.384 . S
N672 C668 1.427 . S
N672 C669 1.384 . S
N673 C665 1.427 1_556 S
N673 C671 1.384 . S
H674 C680 0.930 . S
H675 C684 0.930 . S
H676 C689 0.929 . S
H677 C687 0.929 . S
H678 C682 0.929 . S
H679 C688 0.929 . S
C680 H674 0.930 . S
C680 C681 1.367 . S
C680 C688 1.378 . S
C681 C680 1.367 . S
C681 C689 1.433 . S
C682 H678 0.929 . S
C682 C684 1.378 . S
C682 C686 1.350 . S
C683 C686 1.463 . S
C683 C688 1.350 . S
C683 N691 1.427 . S
C684 H675 0.930 . S
C684 C682 1.378 . S
C684 C685 1.367 . S
C685 C684 1.367 . S
C685 C687 1.433 . S
C686 C682 1.350 . S
C686 C683 1.463 . S
C686 N690 1.427 . S
C687 H677 0.929 . S
C687 C685 1.433 . S
C687 N690 1.384 . S
C688 H679 0.929 . S
C688 C680 1.378 . S
C688 C683 1.350 . S
C689 H676 0.929 . S
C689 C681 1.433 . S
C689 N691 1.384 . S
N690 C686 1.427 . S
N690 C687 1.384 . S
N691 C683 1.427 . S
N691 C689 1.384 . S
H692 C698 0.930 . S
H693 C702 0.930 . S
H694 C707 0.929 . S
H695 C705 0.929 . S
H696 C700 0.929 . S
H697 C706 0.929 . S
C698 H692 0.930 . S
C698 C699 1.367 . S
C698 C706 1.378 . S
C699 C698 1.367 . S
C699 C707 1.433 . S
C700 H696 0.929 . S
C700 C702 1.378 . S
C700 C704 1.350 . S
C701 C704 1.463 . S
C701 C706 1.350 . S
C701 N709 1.427 . S
C702 H693 0.930 . S
C702 C700 1.378 . S
C702 C703 1.367 . S
C703 C702 1.367 . S
C703 C705 1.433 . S
C704 C700 1.350 . S
C704 C701 1.463 . S
C704 N708 1.427 . S
C705 H695 0.929 . S
C705 C703 1.433 . S
C705 N708 1.384 . S
C706 H697 0.929 . S
C706 C698 1.378 . S
C706 C701 1.350 . S
C707 H694 0.929 . S
C707 C699 1.433 . S
C707 N709 1.384 . S
N708 C704 1.427 . S
N708 C705 1.384 . S
N709 C701 1.427 . S
N709 C707 1.384 . S
H710 C716 0.930 . S
H711 C720 0.930 . S
H712 C725 0.929 . S
H713 C723 0.929 . S
H714 C718 0.929 . S
H715 C724 0.929 . S
C716 H710 0.930 . S
C716 C717 1.367 . S
C716 C724 1.378 . S
C717 C716 1.367 . S
C717 C725 1.433 . S
C718 H714 0.929 . S
C718 C720 1.378 . S
C718 C722 1.350 . S
C719 C722 1.463 . S
C719 C724 1.350 . S
C719 N727 1.427 . S
C720 H711 0.930 . S
C720 C718 1.378 . S
C720 C721 1.367 . S
C721 C720 1.367 . S
C721 C723 1.433 . S
C722 C718 1.350 . S
C722 C719 1.463 . S
C722 N726 1.427 . S
C723 H713 0.929 . S
C723 C721 1.433 . S
C723 N726 1.384 . S
C724 H715 0.929 . S
C724 C716 1.378 . S
C724 C719 1.350 . S
C725 H712 0.929 . S
C725 C717 1.433 . S
C725 N727 1.384 . S
N726 C722 1.427 . S
N726 C723 1.384 . S
N727 C719 1.427 . S
N727 C725 1.384 . S
H728 C734 0.930 . S
H729 C738 0.930 . S
H730 C743 0.929 . S
H731 C741 0.929 . S
H732 C736 0.929 . S
H733 C742 0.929 . S
C734 H728 0.930 . S
C734 C735 1.367 . S
C734 C742 1.378 . S
C735 C734 1.367 . S
C735 C743 1.433 . S
C736 H732 0.929 . S
C736 C738 1.378 . S
C736 C740 1.350 . S
C737 C740 1.463 . S
C737 C742 1.350 . S
C737 N745 1.427 . S
C738 H729 0.930 . S
C738 C736 1.378 . S
C738 C739 1.367 . S
C739 C738 1.367 . S
C739 C741 1.433 . S
C740 C736 1.350 . S
C740 C737 1.463 . S
C740 N744 1.427 . S
C741 H731 0.929 . S
C741 C739 1.433 . S
C741 N744 1.384 . S
C742 H733 0.929 . S
C742 C734 1.378 . S
C742 C737 1.350 . S
C743 H730 0.929 . S
C743 C735 1.433 . S
C743 N745 1.384 . S
N744 C740 1.427 . S
N744 C741 1.384 . S
N745 C737 1.427 . S
N745 C743 1.384 . S
H746 C752 0.930 . S
H747 C756 0.930 . S
H748 C761 0.929 . S
H749 C759 0.929 . S
H750 C754 0.929 . S
H751 C760 0.929 . S
C752 H746 0.930 . S
C752 C753 1.367 . S
C752 C760 1.378 . S
C753 C752 1.367 . S
C753 C761 1.433 . S
C754 H750 0.929 . S
C754 C756 1.378 . S
C754 C758 1.350 . S
C755 C758 1.463 . S
C755 C760 1.350 . S
C755 N763 1.427 . S
C756 H747 0.930 . S
C756 C754 1.378 . S
C756 C757 1.367 . S
C757 C756 1.367 . S
C757 C759 1.433 . S
C758 C754 1.350 . S
C758 C755 1.463 . S
C758 N762 1.427 . S
C759 H749 0.929 . S
C759 C757 1.433 . S
C759 N762 1.384 . S
C760 H751 0.929 . S
C760 C752 1.378 . S
C760 C755 1.350 . S
C761 H748 0.929 . S
C761 C753 1.433 . S
C761 N763 1.384 . S
N762 C758 1.427 . S
N762 C759 1.384 . S
N763 C755 1.427 . S
N763 C761 1.384 . S
H764 C770 0.930 . S
H765 C774 0.930 . S
H766 C779 0.929 . S
H767 C777 0.929 . S
H768 C772 0.929 . S
H769 C778 0.929 . S
C770 H764 0.930 . S
C770 C771 1.367 . S
C770 C778 1.378 . S
C771 C770 1.367 . S
C771 C779 1.433 . S
C772 H768 0.929 . S
C772 C774 1.378 . S
C772 C776 1.350 . S
C773 C776 1.463 . S
C773 C778 1.350 . S
C773 N781 1.427 . S
C774 H765 0.930 . S
C774 C772 1.378 . S
C774 C775 1.367 . S
C775 C774 1.367 . S
C775 C777 1.433 . S
C776 C772 1.350 . S
C776 C773 1.463 . S
C776 N780 1.427 . S
C777 H767 0.929 . S
C777 C775 1.433 . S
C777 N780 1.384 . S
C778 H769 0.929 . S
C778 C770 1.378 . S
C778 C773 1.350 . S
C779 H766 0.929 . S
C779 C771 1.433 . S
C779 N781 1.384 . S
N780 C776 1.427 . S
N780 C777 1.384 . S
N781 C773 1.427 . S
N781 C779 1.384 . S
H782 C788 0.930 . S
H783 C792 0.930 . S
H784 C797 0.929 . S
H785 C795 0.929 . S
H786 C790 0.929 1_554 S
H787 C796 0.929 . S
C788 H782 0.930 . S
C788 C789 1.367 . S
C788 C796 1.378 . S
C789 C788 1.367 . S
C789 C797 1.433 . S
C790 H786 0.929 1_556 S
C790 C792 1.378 . S
C790 C794 1.350 1_556 S
C791 C794 1.463 . S
C791 C796 1.350 . S
C791 N799 1.427 . S
C792 H783 0.930 . S
C792 C790 1.378 . S
C792 C793 1.367 . S
C793 C792 1.367 . S
C793 C795 1.433 . S
C794 C790 1.350 1_554 S
C794 C791 1.463 . S
C794 N798 1.427 1_554 S
C795 H785 0.929 . S
C795 C793 1.433 . S
C795 N798 1.384 . S
C796 H787 0.929 . S
C796 C788 1.378 . S
C796 C791 1.350 . S
C797 H784 0.929 . S
C797 C789 1.433 . S
C797 N799 1.384 . S
N798 C794 1.427 1_556 S
N798 C795 1.384 . S
N799 C791 1.427 . S
N799 C797 1.384 . S
C231 C92 1.524 . S
C235 C8 1.523 . S
C249 C106 1.520 . S
C253 C22 1.519 . S
C267 C36 1.520 . S
C271 C64 1.523 . S
C285 C50 1.518 . S
C289 C78 1.517 . S
C303 C120 1.516 . S
C307 C204 1.520 . S
C321 C218 1.525 . S
C325 C134 1.525 . S
C339 C148 1.522 . S
C343 C176 1.521 . S
C357 C162 1.525 . S
C361 C190 1.525 . S
C375 C9 1.407 . S
C379 C149 1.408 . S
C393 C23 1.411 . S
C397 C163 1.411 . S
C411 C37 1.407 . S
C415 C121 1.408 . S
C429 C51 1.416 . S
C433 C135 1.415 . S
C447 C65 1.419 . S
C451 C205 1.419 . S
C465 C219 1.406 . S
C469 C79 1.406 . S
C483 C93 1.405 . S
C487 C177 1.405 . S
C501 C191 1.419 . S
C505 C107 1.419 . S
C519 C189 0.421 . S
C523 C7 0.389 . S
C537 C21 0.421 . S
C541 C203 0.389 . S
C555 C217 0.417 . S
C559 C35 0.386 . S
C573 C175 0.411 . S
C577 C49 0.386 . S
C591 C161 0.421 . S
C595 C63 0.389 . S
C609 C77 0.420 . S
C613 C119 0.387 . S
C627 C91 0.417 . S
C631 C133 0.406 . S
C645 C105 0.388 . S
C649 C147 0.406 . S
C663 C185 1.485 . S
C667 C3 1.484 . S
C681 C17 1.488 . S
C685 C199 1.484 . S
C699 C31 1.488 . S
C703 C213 1.484 . S
C717 C171 1.493 . S
C721 C45 1.487 . S
C735 C157 1.491 . S
C739 C59 1.493 . S
C753 C115 1.492 . S
C757 C73 1.486 . S
C771 C87 1.485 . S
C775 C129 1.491 . S
C789 C143 1.485 . S
C793 C101 1.485 . S
