# Generated by pormake.
# Topology vmg, (6)-cn, num edge types: 1
# Building blocks:
#     Node 0, Type 0, BuildingBlock: IZENUY_clean_sbu_0, # of connection points: 6
#     Node 1, Type 0, BuildingBlock: IZENUY_clean_sbu_0, # of connection points: 6
#     Node 2, Type 0, BuildingBlock: IZENUY_clean_sbu_0, # of connection points: 6
#     Node 3, Type 0, BuildingBlock: IZENUY_clean_sbu_0, # of connection points: 6
#     Node 4, Type 0, BuildingBlock: IZENUY_clean_sbu_0, # of connection points: 6
#     Node 5, Type 0, BuildingBlock: IZENUY_clean_sbu_0, # of connection points: 6
#     Node 6, Type 0, BuildingBlock: IZENUY_clean_sbu_0, # of connection points: 6
#     Node 7, Type 0, BuildingBlock: IZENUY_clean_sbu_0, # of connection points: 6
#     Edge 8, Type (0, 0), BuildingBlock: XIVTED_clean_linker_0, # of connection points: 2
#     Edge 9, Type (0, 0), BuildingBlock: XIVTED_clean_linker_0, # of connection points: 2
#     Edge 10, Type (0, 0), BuildingBlock: XIVTED_clean_linker_0, # of connection points: 2
#     Edge 11, Type (0, 0), BuildingBlock: XIVTED_clean_linker_0, # of connection points: 2
#     Edge 12, Type (0, 0), BuildingBlock: XIVTED_clean_linker_0, # of connection points: 2
#     Edge 13, Type (0, 0), BuildingBlock: XIVTED_clean_linker_0, # of connection points: 2
#     Edge 14, Type (0, 0), BuildingBlock: XIVTED_clean_linker_0, # of connection points: 2
#     Edge 15, Type (0, 0), BuildingBlock: XIVTED_clean_linker_0, # of connection points: 2
#     Edge 16, Type (0, 0), BuildingBlock: XIVTED_clean_linker_0, # of connection points: 2
#     Edge 17, Type (0, 0), BuildingBlock: XIVTED_clean_linker_0, # of connection points: 2
#     Edge 18, Type (0, 0), BuildingBlock: XIVTED_clean_linker_0, # of connection points: 2
#     Edge 19, Type (0, 0), BuildingBlock: XIVTED_clean_linker_0, # of connection points: 2
#     Edge 20, Type (0, 0), BuildingBlock: XIVTED_clean_linker_0, # of connection points: 2
#     Edge 21, Type (0, 0), BuildingBlock: XIVTED_clean_linker_0, # of connection points: 2
#     Edge 22, Type (0, 0), BuildingBlock: XIVTED_clean_linker_0, # of connection points: 2
#     Edge 23, Type (0, 0), BuildingBlock: XIVTED_clean_linker_0, # of connection points: 2
#     Edge 24, Type (0, 0), BuildingBlock: XIVTED_clean_linker_0, # of connection points: 2
#     Edge 25, Type (0, 0), BuildingBlock: XIVTED_clean_linker_0, # of connection points: 2
#     Edge 26, Type (0, 0), BuildingBlock: XIVTED_clean_linker_0, # of connection points: 2
#     Edge 27, Type (0, 0), BuildingBlock: XIVTED_clean_linker_0, # of connection points: 2
#     Edge 28, Type (0, 0), BuildingBlock: XIVTED_clean_linker_0, # of connection points: 2
#     Edge 29, Type (0, 0), BuildingBlock: XIVTED_clean_linker_0, # of connection points: 2
#     Edge 30, Type (0, 0), BuildingBlock: XIVTED_clean_linker_0, # of connection points: 2
#     Edge 31, Type (0, 0), BuildingBlock: XIVTED_clean_linker_0, # of connection points: 2
# Relax obj value: 0.255
# Max RMSD: 0.238
# Mean RMSD: 0.238
data_MOF--net-vmg--node1-IZENUY_clean_sbu_0--edge1-XIVTED_clean_linker_0
_symmetry_space_group_name_H-M    P1
_symmetry_Int_Tables_number       1
_symmetry_cell_setting            triclinic
loop_
_symmetry_equiv_pos_as_xyz
'x, y, z'
_cell_length_a     28.387612
_cell_length_b     44.688199
_cell_length_c     26.694101
_cell_angle_alpha  89.896615
_cell_angle_beta   100.85821
_cell_angle_gamma 90.049606
loop_
_atom_site_label
_atom_site_type_symbol
_atom_site_fract_x
_atom_site_fract_y
_atom_site_fract_z
_atom_type_partial_charge
Fe0 Fe 0.24231 0.38683 0.19097 0.0
Fe1 Fe 0.17194 0.40104 0.09204 0.0
O2 O 0.21809 0.41234 0.14212 0.0
Fe3 Fe 0.23886 0.44965 0.14379 0.0
O4 O 0.21928 0.45598 0.20288 0.0
O5 O 0.25255 0.41575 0.24223 0.0
O6 O 0.18442 0.38102 0.20816 0.0
C7 C 0.14662 0.37338 0.17831 0.0
C8 C 0.32363 0.41616 0.18057 0.0
O9 O 0.14452 0.37403 0.13047 0.0
C10 C 0.22961 0.44014 0.043 0.0
O11 O 0.23562 0.35363 0.14775 0.0
O12 O 0.20958 0.37315 0.07182 0.0
O13 O 0.30031 0.44052 0.17639 0.0
O14 O 0.30202 0.39139 0.17762 0.0
C15 C 0.13886 0.45593 0.10803 0.0
O16 O 0.1906 0.42634 0.04427 0.0
O17 O 0.25885 0.44534 0.08381 0.0
C18 C 0.22858 0.35185 0.09916 0.0
O19 O 0.13158 0.42829 0.10991 0.0
O20 O 0.18121 0.46586 0.11185 0.0
C21 C 0.23283 0.44129 0.24321 0.0
Fe22 Fe 0.76066 0.4492 0.36424 0.0
Fe23 Fe 0.75739 0.38634 0.31768 0.0
O24 O 0.78136 0.4119 0.36636 0.0
Fe25 Fe 0.82712 0.40055 0.41683 0.0
O26 O 0.86785 0.42759 0.39885 0.0
O27 O 0.81847 0.46533 0.39622 0.0
O28 O 0.7804 0.45547 0.30518 0.0
C29 C 0.76671 0.44085 0.26489 0.0
C30 C 0.76946 0.43977 0.46511 0.0
O31 O 0.74729 0.41519 0.2661 0.0
C32 C 0.76932 0.35183 0.40984 0.0
O33 O 0.69914 0.44 0.33154 0.0
O34 O 0.69768 0.39086 0.33075 0.0
O35 O 0.80853 0.42604 0.46415 0.0
O36 O 0.74044 0.445 0.42415 0.0
C37 C 0.85294 0.3728 0.33115 0.0
O38 O 0.76379 0.35322 0.3613 0.0
O39 O 0.78883 0.37297 0.43713 0.0
C40 C 0.67595 0.41556 0.32754 0.0
O41 O 0.81542 0.38056 0.30095 0.0
O42 O 0.85449 0.37331 0.37893 0.0
C43 C 0.86076 0.45526 0.40022 0.0
Fe44 Fe 0.75961 0.5658 0.86516 0.0
Fe45 Fe 0.75647 0.62818 0.81646 0.0
O46 O 0.78058 0.60303 0.86594 0.0
Fe47 Fe 0.82674 0.61465 0.91578 0.0
O48 O 0.86701 0.5871 0.89861 0.0
O49 O 0.81722 0.54967 0.89742 0.0
O50 O 0.77902 0.55884 0.80616 0.0
C51 C 0.76528 0.57313 0.76544 0.0
C52 C 0.76901 0.57607 0.96573 0.0
O53 O 0.74601 0.59885 0.76592 0.0
C54 C 0.77028 0.66395 0.90735 0.0
O55 O 0.6982 0.57487 0.83245 0.0
O56 O 0.69676 0.62398 0.82997 0.0
O57 O 0.80803 0.5898 0.96418 0.0
O58 O 0.7397 0.57074 0.92504 0.0
C59 C 0.85215 0.64148 0.82881 0.0
O60 O 0.76331 0.66173 0.85883 0.0
O61 O 0.78919 0.64285 0.9353 0.0
C62 C 0.67502 0.59928 0.82771 0.0
O63 O 0.81437 0.63361 0.79914 0.0
O64 O 0.85426 0.64122 0.87668 0.0
C65 C 0.85961 0.5595 0.90112 0.0
Fe66 Fe 0.24131 0.62895 0.68973 0.0
Fe67 Fe 0.17194 0.61432 0.5905 0.0
O68 O 0.21758 0.6032 0.64125 0.0
Fe69 Fe 0.23845 0.56594 0.64386 0.0
O70 O 0.21847 0.55985 0.70285 0.0
O71 O 0.25138 0.60027 0.7416 0.0
O72 O 0.18317 0.6347 0.70616 0.0
C73 C 0.14569 0.64233 0.67576 0.0
C74 C 0.32292 0.59977 0.68046 0.0
O75 O 0.14427 0.64166 0.62801 0.0
C76 C 0.23002 0.57495 0.54297 0.0
O77 O 0.23488 0.66189 0.64581 0.0
O78 O 0.2102 0.64191 0.5701 0.0
O79 O 0.29981 0.57531 0.67671 0.0
O80 O 0.30111 0.62444 0.67691 0.0
C81 C 0.13846 0.55964 0.60757 0.0
O82 O 0.19085 0.58865 0.54356 0.0
O83 O 0.25895 0.57002 0.5841 0.0
C84 C 0.22947 0.66317 0.59728 0.0
O85 O 0.13124 0.58731 0.60859 0.0
O86 O 0.18081 0.54963 0.6118 0.0
C87 C 0.23201 0.57462 0.74301 0.0
Fe88 Fe 0.72803 0.88763 0.18157 0.0
Fe89 Fe 0.67194 0.90734 0.07673 0.0
O90 O 0.71385 0.9154 0.13337 0.0
Fe91 Fe 0.74022 0.95147 0.1417 0.0
O92 O 0.74483 0.95251 0.21038 0.0
O93 O 0.70905 0.91157 0.22971 0.0
O94 O 0.66735 0.87152 0.17088 0.0
C95 C 0.62767 0.88343 0.15106 0.0
C96 C 0.81787 0.91656 0.18108 0.0
O97 O 0.62489 0.90092 0.11334 0.0
C98 C 0.73879 0.93886 0.03731 0.0
O99 O 0.74819 0.86141 0.13722 0.0
O100 O 0.68581 0.86766 0.07592 0.0
O101 O 0.80044 0.93624 0.14878 0.0
O102 O 0.79091 0.89932 0.20093 0.0
C103 C 0.64815 0.96598 0.09744 0.0
O104 O 0.71648 0.91423 0.03678 0.0
O105 O 0.74117 0.95681 0.07429 0.0
C106 C 0.72326 0.85349 0.09494 0.0
O107 O 0.64971 0.9452 0.06623 0.0
O108 O 0.68137 0.96953 0.13572 0.0
C109 C 0.72424 0.9378 0.24027 0.0
Fe110 Fe 0.25319 0.95249 0.37647 0.0
Fe111 Fe 0.24821 0.89213 0.32137 0.0
O112 O 0.27527 0.91599 0.37129 0.0
Fe113 Fe 0.32542 0.90389 0.41611 0.0
O114 O 0.36202 0.93288 0.39641 0.0
O115 O 0.31203 0.96879 0.40531 0.0
O116 O 0.26687 0.96252 0.31611 0.0
C117 C 0.25139 0.94947 0.27463 0.0
C118 C 0.27218 0.93892 0.47588 0.0
O119 O 0.23387 0.9231 0.2738 0.0
C120 C 0.26869 0.85448 0.40981 0.0
O121 O 0.19044 0.94344 0.34752 0.0
O122 O 0.19037 0.89461 0.34028 0.0
O123 O 0.31108 0.9269 0.46907 0.0
O124 O 0.2391 0.94397 0.43817 0.0
C125 C 0.34348 0.88051 0.32367 0.0
O126 O 0.2587 0.85748 0.36133 0.0
O127 O 0.29115 0.87454 0.43755 0.0
C128 C 0.1679 0.91882 0.34108 0.0
O129 O 0.30363 0.88841 0.29818 0.0
O130 O 0.34958 0.87896 0.37187 0.0
C131 C 0.35414 0.96009 0.40309 0.0
Fe132 Fe 0.25832 0.06383 0.86668 0.0
Fe133 Fe 0.27055 0.12763 0.82661 0.0
O134 O 0.28497 0.09983 0.87473 0.0
Fe135 Fe 0.32736 0.1078 0.93103 0.0
O136 O 0.34936 0.06988 0.94134 0.0
O137 O 0.31698 0.04559 0.87206 0.0
O138 O 0.25307 0.06278 0.79793 0.0
C139 C 0.27345 0.0774 0.76775 0.0
C140 C 0.26077 0.07652 0.97121 0.0
O141 O 0.28893 0.10359 0.77818 0.0
C142 C 0.27625 0.16169 0.9135 0.0
O143 O 0.19825 0.07922 0.86022 0.0
O144 O 0.20755 0.11607 0.80783 0.0
O145 O 0.28317 0.1011 0.97145 0.0
O146 O 0.25799 0.05854 0.93423 0.0
C147 C 0.37103 0.1316 0.85621 0.0
O148 O 0.25097 0.15392 0.8713 0.0
O149 O 0.31383 0.14749 0.93195 0.0
C150 C 0.1807 0.0989 0.82795 0.0
O151 O 0.33131 0.14358 0.83671 0.0
O152 O 0.37403 0.11407 0.8939 0.0
C153 C 0.35049 0.04907 0.91008 0.0
Fe154 Fe 0.75045 0.12314 0.6867 0.0
Fe155 Fe 0.67362 0.1115 0.59159 0.0
O156 O 0.72349 0.09931 0.6367 0.0
Fe157 Fe 0.74537 0.06273 0.63176 0.0
O158 O 0.73111 0.05283 0.6919 0.0
O159 O 0.76423 0.09217 0.7344 0.0
O160 O 0.69489 0.12709 0.70949 0.0
C161 C 0.65518 0.13504 0.68377 0.0
C162 C 0.83076 0.0962 0.66761 0.0
O163 O 0.6493 0.13652 0.63558 0.0
C164 C 0.72708 0.07624 0.53232 0.0
O165 O 0.74044 0.15779 0.64665 0.0
O166 O 0.70822 0.14074 0.57036 0.0
O167 O 0.80809 0.07162 0.66118 0.0
O168 O 0.8084 0.12047 0.66818 0.0
C169 C 0.64442 0.05538 0.60444 0.0
O170 O 0.6882 0.08842 0.53886 0.0
O171 O 0.75995 0.07113 0.57022 0.0
C172 C 0.73069 0.16076 0.59815 0.0
O173 O 0.63668 0.08262 0.61106 0.0
O174 O 0.68654 0.04657 0.60251 0.0
C175 C 0.74618 0.06594 0.73342 0.0
H176 H 0.61518 0.36748 0.31139 0.0
H177 H 0.38261 0.46513 0.20004 0.0
H178 H 0.61662 0.46398 0.30213 0.0
H179 H 0.38474 0.36849 0.20278 0.0
H180 H 0.46806 0.46542 0.23756 0.0
H181 H 0.53 0.36778 0.27399 0.0
C182 C 0.59755 0.38878 0.30186 0.0
C183 C 0.62328 0.41576 0.30977 0.0
C184 C 0.44984 0.44416 0.22975 0.0
C185 C 0.5255 0.4162 0.26639 0.0
C186 C 0.40106 0.44396 0.20811 0.0
C187 C 0.37629 0.41673 0.19837 0.0
C188 C 0.47407 0.41696 0.24186 0.0
C189 C 0.4022 0.39003 0.20968 0.0
C190 C 0.54886 0.38892 0.28025 0.0
C191 C 0.59832 0.44264 0.29671 0.0
N192 N 0.44955 0.39083 0.23101 0.0
N193 N 0.55086 0.44217 0.27548 0.0
H194 H 0.61585 0.55038 0.80924 0.0
H195 H 0.38359 0.64791 0.69646 0.0
H196 H 0.61416 0.647 0.80475 0.0
H197 H 0.38224 0.55143 0.70628 0.0
H198 H 0.46873 0.64768 0.73405 0.0
H199 H 0.53043 0.55009 0.77174 0.0
C200 C 0.59749 0.57155 0.80079 0.0
C201 C 0.62238 0.59876 0.81001 0.0
C202 C 0.44989 0.62654 0.72787 0.0
C203 C 0.52463 0.59854 0.76654 0.0
C204 C 0.40123 0.62663 0.70616 0.0
C205 C 0.37555 0.59964 0.69836 0.0
C206 C 0.47324 0.59927 0.74194 0.0
C207 C 0.40051 0.57278 0.71163 0.0
C208 C 0.54873 0.57135 0.77916 0.0
C209 C 0.5966 0.62547 0.79823 0.0
N210 N 0.44793 0.57329 0.73296 0.0
N211 N 0.54925 0.62467 0.77692 0.0
H212 H 0.10603 0.8713 0.33587 0.0
H213 H 0.88476 0.95964 0.1713 0.0
H214 H 0.1096 0.96592 0.30406 0.0
H215 H 0.8702 0.8733 0.23958 0.0
H216 H 0.96927 0.96069 0.2131 0.0
H217 H 0.021 0.87038 0.29624 0.0
C218 C 0.08883 0.89196 0.32107 0.0
C219 C 0.11509 0.91874 0.3234 0.0
C220 C 0.94756 0.9415 0.21883 0.0
C221 C 0.01786 0.9177 0.27701 0.0
C222 C 0.89939 0.94076 0.19461 0.0
C223 C 0.8702 0.91634 0.20191 0.0
C224 C 0.96694 0.91753 0.25017 0.0
C225 C 0.89122 0.89263 0.23292 0.0
C226 C 0.04029 0.89139 0.29831 0.0
C227 C 0.09082 0.9448 0.30344 0.0
N228 N 0.93823 0.8938 0.2558 0.0
N229 N 0.04374 0.94356 0.28068 0.0
H230 H 0.11385 0.0559 0.83845 0.0
H231 H 0.89276 0.14356 0.672 0.0
H232 H 0.12822 0.14198 0.76918 0.0
H233 H 0.88883 0.04921 0.70589 0.0
H234 H 0.97769 0.14459 0.71189 0.0
H235 H 0.02932 0.0547 0.79669 0.0
C236 C 0.09918 0.0747 0.81495 0.0
C237 C 0.12832 0.09908 0.80733 0.0
C238 C 0.95835 0.12361 0.71023 0.0
C239 C 0.03157 0.0977 0.7591 0.0
C240 C 0.90987 0.12298 0.68732 0.0
C241 C 0.88354 0.09625 0.68548 0.0
C242 C 0.98068 0.09742 0.73218 0.0
C243 C 0.90769 0.07029 0.7061 0.0
C244 C 0.05099 0.07386 0.79075 0.0
C245 C 0.10724 0.12268 0.77608 0.0
N246 N 0.95474 0.07159 0.72899 0.0
N247 N 0.06024 0.12141 0.75321 0.0
H248 H 0.20648 0.3407 0.99692 0.0
H249 H 0.30788 0.17419 0.01368 0.0
H250 H 0.26699 0.29806 0.13992 0.0
H251 H 0.21984 0.21068 0.87782 0.0
H252 H 0.29567 0.21961 0.05978 0.0
H253 H 0.21462 0.29418 0.95261 0.0
C254 C 0.22171 0.32158 0.01924 0.0
C255 C 0.2361 0.32348 0.07261 0.0
C256 C 0.27879 0.21771 0.02001 0.0
C257 C 0.24543 0.26967 0.02121 0.0
C258 C 0.28582 0.19179 0.99344 0.0
C259 C 0.26519 0.18868 0.94148 0.0
C260 C 0.25124 0.24106 0.99454 0.0
C261 C 0.23648 0.21209 0.91771 0.0
C262 C 0.22607 0.29489 0.99365 0.0
C263 C 0.25546 0.29775 0.09889 0.0
N264 N 0.23072 0.23743 0.94434 0.0
N265 N 0.25968 0.27192 0.0729 0.0
H266 H 0.76707 0.34529 0.51095 0.0
H267 H 0.73256 0.16791 0.4975 0.0
H268 H 0.75053 0.29474 0.37104 0.0
H269 H 0.75057 0.21767 0.63829 0.0
H270 H 0.73994 0.21403 0.45138 0.0
H271 H 0.75999 0.29924 0.55773 0.0
C272 C 0.76166 0.32449 0.48985 0.0
C273 C 0.75968 0.32397 0.43674 0.0
C274 C 0.74244 0.21499 0.49233 0.0
C275 C 0.75175 0.27082 0.49078 0.0
C276 C 0.7383 0.18859 0.51892 0.0
C277 C 0.74056 0.18884 0.57206 0.0
C278 C 0.7489 0.24218 0.51873 0.0
C279 C 0.74862 0.21635 0.59747 0.0
C280 C 0.75774 0.29815 0.51682 0.0
C281 C 0.75222 0.2963 0.4118 0.0
N282 N 0.75222 0.24197 0.57049 0.0
N283 N 0.74877 0.27083 0.43909 0.0
H284 H 0.78227 0.80584 0.13138 0.0
H285 H 0.72939 0.71669 0.86505 0.0
H286 H 0.68992 0.83923 0.99565 0.0
H287 H 0.79476 0.67676 0.00886 0.0
H288 H 0.72083 0.76369 0.91018 0.0
H289 H 0.79484 0.76012 0.08456 0.0
C290 C 0.76492 0.80366 0.0918 0.0
C291 C 0.73462 0.82627 0.06768 0.0
C292 C 0.73702 0.74455 0.93171 0.0
C293 C 0.74882 0.7742 0.01383 0.0
C294 C 0.74182 0.71772 0.90593 0.0
C295 C 0.76268 0.69261 0.93299 0.0
C296 C 0.7536 0.74633 0.98481 0.0
C297 C 0.77828 0.69538 0.98612 0.0
C298 C 0.77189 0.77754 0.0651 0.0
C299 C 0.7131 0.82224 0.01612 0.0
N300 N 0.77356 0.72166 0.0101 0.0
N301 N 0.72055 0.79678 0.99104 0.0
H302 H 0.23021 0.66993 0.49582 0.0
H303 H 0.26858 0.84699 0.51079 0.0
H304 H 0.24956 0.72006 0.63634 0.0
H305 H 0.24744 0.79779 0.36927 0.0
H306 H 0.26098 0.8008 0.55659 0.0
H307 H 0.23758 0.71603 0.44928 0.0
C308 C 0.23628 0.69064 0.5171 0.0
C309 C 0.23899 0.69103 0.57032 0.0
C310 C 0.25785 0.79998 0.51555 0.0
C311 C 0.24726 0.74424 0.51657 0.0
C312 C 0.26213 0.82643 0.48914 0.0
C313 C 0.25903 0.82635 0.43588 0.0
C314 C 0.2504 0.77292 0.48885 0.0
C315 C 0.25007 0.79897 0.4102 0.0
C316 C 0.24037 0.71702 0.49026 0.0
C317 C 0.24727 0.7186 0.59548 0.0
N318 N 0.24634 0.77331 0.437 0.0
N319 N 0.25089 0.74409 0.56834 0.0
H320 H 0.85791 0.50617 0.95118 0.0
H321 H 0.14028 0.50964 0.05907 0.0
H322 H 0.95444 0.57117 0.90551 0.0
H323 H 0.0441 0.44406 0.10369 0.0
H324 H 0.07193 0.5338 0.00511 0.0
H325 H 0.92614 0.48214 0.0056 0.0
C326 C 0.89357 0.51497 0.95169 0.0
C327 C 0.90057 0.54081 0.92414 0.0
C328 C 0.06574 0.51429 0.02709 0.0
C329 C 0.97841 0.51399 0.9872 0.0
C330 C 0.10466 0.50074 0.05844 0.0
C331 C 0.09781 0.47469 0.08551 0.0
C332 C 0.01983 0.50166 0.02296 0.0
C333 C 0.05095 0.46397 0.083 0.0
C334 C 0.93243 0.5015 0.98329 0.0
C335 C 0.94748 0.55141 0.92654 0.0
N336 N 0.01373 0.47736 0.0518 0.0
N337 N 0.98462 0.5381 0.95797 0.0
H338 H 0.04426 0.5704 0.60786 0.0
H339 H 0.95499 0.44424 0.40031 0.0
H340 H 0.13897 0.50738 0.55461 0.0
H341 H 0.86045 0.50756 0.45311 0.0
H342 H 0.02324 0.4681 0.45472 0.0
H343 H 0.97604 0.54643 0.55357 0.0
C344 C 0.05054 0.55111 0.58545 0.0
C345 C 0.09727 0.54093 0.58541 0.0
C346 C 0.98764 0.47697 0.45406 0.0
C347 C 0.01966 0.51394 0.52238 0.0
C348 C 0.94875 0.46356 0.42265 0.0
C349 C 0.90205 0.47386 0.42252 0.0
C350 C 0.9797 0.50075 0.48567 0.0
C351 C 0.89589 0.49898 0.45196 0.0
C352 C 0.01167 0.53765 0.5541 0.0
C353 C 0.1035 0.51586 0.55588 0.0
N354 N 0.93433 0.51139 0.48288 0.0
N355 N 0.06507 0.5034 0.52502 0.0
H356 H 0.56338 0.96347 0.1288 0.0
H357 H 0.43511 0.05132 0.87839 0.0
H358 H 0.6402 0.011 0.02903 0.0
H359 H 0.3582 1.00391 0.97823 0.0
H360 H 0.51087 0.03461 0.93053 0.0
H361 H 0.48757 0.98001 0.0765 0.0
C362 C 0.56419 0.97877 0.09741 0.0
C363 C 0.60791 0.98666 0.08393 0.0
C364 C 0.47746 0.02715 0.94037 0.0
C365 C 0.52168 1.00397 0.02189 0.0
C366 C 0.43425 0.03601 0.90975 0.0
C367 C 0.39053 0.02822 0.92332 0.0
C368 C 0.47673 0.01072 0.9852 0.0
C369 C 0.39127 0.00961 0.96579 0.0
C370 C 0.52097 0.98752 0.06671 0.0
C371 C 0.60713 1.00523 0.04141 0.0
N372 N 0.43371 1.0018 0.99565 0.0
N373 N 0.56469 0.01296 0.01148 0.0
H374 H 0.35616 0.0089 0.46517 0.0
H375 H 0.64236 1.00669 0.54211 0.0
H376 H 0.44708 0.95197 0.39374 0.0
H377 H 0.55146 0.06365 0.61349 0.0
H378 H 0.57096 0.98508 0.48924 0.0
H379 H 0.42758 0.03062 0.51785 0.0
C380 C 0.39116 1.00152 0.45963 0.0
C381 C 0.39579 0.97849 0.4253 0.0
C382 C 0.56662 1.00208 0.51688 0.0
C383 C 0.47742 1.00257 0.48631 0.0
C384 C 0.60736 0.01409 0.5476 0.0
C385 C 0.60274 0.03708 0.582 0.0
C386 C 0.52112 0.01314 0.52078 0.0
C387 C 0.55653 0.04609 0.58711 0.0
C388 C 0.43191 0.0136 0.49025 0.0
C389 C 0.44199 0.96955 0.42009 0.0
N390 N 0.51748 0.03428 0.55644 0.0
N391 N 0.48105 0.98141 0.45067 0.0
H392 H 0.05455 0.3629 0.12722 0.0
H393 H 0.94521 0.36362 0.38285 0.0
H394 H 0.14057 0.36607 0.27883 0.0
H395 H 0.85932 0.3644 0.23107 0.0
H396 H 0.01714 0.35754 0.3457 0.0
H397 H 0.9829 0.35648 0.16471 0.0
C398 C 0.05853 0.36177 0.16834 0.0
C399 C 0.10374 0.36521 0.19984 0.0
C400 C 0.98248 0.35868 0.32055 0.0
C401 C 0.02165 0.3582 0.24312 0.0
C402 C 0.94133 0.362 0.34179 0.0
C403 C 0.89606 0.3647 0.3101 0.0
C404 C 0.97842 0.35808 0.26722 0.0
C405 C 0.89341 0.36261 0.25708 0.0
C406 C 0.01753 0.35823 0.18977 0.0
C407 C 0.10651 0.36369 0.25295 0.0
N408 N 0.93396 0.35968 0.23737 0.0
N409 N 0.06608 0.36055 0.27285 0.0
H410 H 0.05329 0.65076 0.62388 0.0
H411 H 0.94411 0.65263 0.8796 0.0
H412 H 0.13923 0.65147 0.77562 0.0
H413 H 0.85805 0.64807 0.72812 0.0
H414 H 0.01563 0.65913 0.84189 0.0
H415 H 0.98127 0.65673 0.66094 0.0
C416 C 0.05715 0.65268 0.66489 0.0
C417 C 0.10246 0.65042 0.69661 0.0
C418 C 0.98101 0.65705 0.8169 0.0
C419 C 0.02003 0.65692 0.73941 0.0
C420 C 0.94009 0.65346 0.83846 0.0
C421 C 0.89492 0.6496 0.80708 0.0
C422 C 0.97684 0.65674 0.76355 0.0
C423 C 0.89208 0.65077 0.75393 0.0
C424 C 0.01596 0.65595 0.68609 0.0
C425 C 0.10511 0.6529 0.74959 0.0
N426 N 0.93244 0.65398 0.73392 0.0
N427 N 0.06453 0.65576 0.76926 0.0
H428 H 0.34219 0.88458 0.22123 0.0
H429 H 0.62323 0.85529 0.24148 0.0
H430 H 0.43705 0.86438 0.36361 0.0
H431 H 0.53392 0.89886 0.11333 0.0
H432 H 0.55343 0.85042 0.2825 0.0
H433 H 0.40993 0.88144 0.17748 0.0
C434 C 0.37716 0.87909 0.24336 0.0
C435 C 0.38377 0.87483 0.29644 0.0
C436 C 0.54908 0.8608 0.24523 0.0
C437 C 0.46196 0.87137 0.24606 0.0
C438 C 0.58885 0.86346 0.22155 0.0
C439 C 0.58456 0.87749 0.1737 0.0
C440 C 0.50445 0.87201 0.22079 0.0
C441 C 0.53906 0.88786 0.15012 0.0
C442 C 0.41594 0.87746 0.21822 0.0
C443 C 0.43015 0.86784 0.32273 0.0
N444 N 0.50089 0.88494 0.1739 0.0
N445 N 0.4675 0.86645 0.29731 0.0
H446 H 0.65645 0.13186 0.78626 0.0
H447 H 0.37492 0.15933 0.7653 0.0
H448 H 0.56139 0.15047 0.64331 0.0
H449 H 0.46497 0.11672 0.894 0.0
H450 H 0.44463 0.16442 0.72416 0.0
H451 H 0.5886 0.1349 0.82982 0.0
C452 C 0.62141 0.13698 0.76396 0.0
C453 C 0.61478 0.1408 0.71078 0.0
C454 C 0.44916 0.1542 0.76158 0.0
C455 C 0.53646 0.14414 0.76094 0.0
C456 C 0.40944 0.15142 0.78531 0.0
C457 C 0.41399 0.1376 0.83337 0.0
C458 C 0.49396 0.14334 0.78617 0.0
C459 C 0.45964 0.12754 0.85705 0.0
C460 C 0.58257 0.13855 0.78899 0.0
C461 C 0.5683 0.14736 0.68426 0.0
N462 N 0.49775 0.1306 0.83322 0.0
N463 N 0.53088 0.14869 0.70959 0.0
H464 H 0.16966 0.4394 0.94986 0.0
H465 H 0.29421 0.57881 0.83598 0.0
H466 H 0.29843 0.48165 0.03114 0.0
H467 H 0.16646 0.53377 0.75916 0.0
H468 H 0.29608 0.54514 0.9096 0.0
H469 H 0.16951 0.474 0.87934 0.0
C470 C 0.19834 0.45567 0.95265 0.0
C471 C 0.23401 0.45757 0.99671 0.0
C472 C 0.26748 0.54286 0.8767 0.0
C473 C 0.23361 0.49789 0.91605 0.0
C474 C 0.26613 0.56228 0.83505 0.0
C475 C 0.23026 0.55895 0.79144 0.0
C476 C 0.23262 0.52019 0.87446 0.0
C477 C 0.19502 0.53694 0.79187 0.0
C478 C 0.19804 0.47566 0.91243 0.0
C479 C 0.27017 0.4793 0.99796 0.0
N480 N 0.19726 0.51839 0.83243 0.0
N481 N 0.26887 0.49874 0.95839 0.0
H482 H 0.82768 0.43784 0.55917 0.0
H483 H 0.70526 0.57835 0.67123 0.0
H484 H 0.70126 0.48177 0.47606 0.0
H485 H 0.82857 0.53033 0.75145 0.0
H486 H 0.70362 0.54485 0.59767 0.0
H487 H 0.82713 0.47183 0.63018 0.0
C488 C 0.79937 0.45436 0.55606 0.0
C489 C 0.76458 0.45692 0.51139 0.0
C490 C 0.73115 0.54185 0.63135 0.0
C491 C 0.76419 0.49651 0.5926 0.0
C492 C 0.73237 0.56114 0.67301 0.0
C493 C 0.76692 0.55699 0.71751 0.0
C494 C 0.76487 0.51848 0.63446 0.0
C495 C 0.80098 0.53416 0.71807 0.0
C496 C 0.79926 0.47398 0.59658 0.0
C497 C 0.72884 0.47892 0.50973 0.0
N498 N 0.79894 0.51578 0.67744 0.0
N499 N 0.72976 0.49801 0.54959 0.0
H500 H 0.70421 0.43715 0.17205 0.0
H501 H 0.8299 0.5762 0.05839 0.0
H502 H 0.83249 0.4816 0.24893 0.0
H503 H 0.69951 0.5352 0.97825 0.0
H504 H 0.83007 0.54144 0.12874 0.0
H505 H 0.70235 0.47108 0.09878 0.0
C506 C 0.7324 0.4536 0.17306 0.0
C507 C 0.76843 0.45668 0.21659 0.0
C508 C 0.80118 0.54011 0.09594 0.0
C509 C 0.76611 0.49575 0.13396 0.0
C510 C 0.80087 0.56019 0.05583 0.0
C511 C 0.76473 0.55868 0.01212 0.0
C512 C 0.76517 0.51818 0.09256 0.0
C513 C 0.72815 0.53726 0.01115 0.0
C514 C 0.73107 0.47318 0.13161 0.0
C515 C 0.80382 0.47861 0.21627 0.0
N516 N 0.72947 0.51772 0.05058 0.0
N517 N 0.80161 0.49731 0.1759 0.0
H518 H 0.1634 0.47906 0.25939 0.0
H519 H 0.30214 0.53588 0.53147 0.0
H520 H 0.29679 0.44 0.33522 0.0
H521 H 0.16855 0.57272 0.45077 0.0
H522 H 0.30235 0.50097 0.46098 0.0
H523 H 0.16442 0.51217 0.33167 0.0
C524 C 0.19268 0.47721 0.29179 0.0
C525 C 0.23013 0.45682 0.29133 0.0
C526 C 0.27319 0.51682 0.45864 0.0
C527 C 0.23213 0.49528 0.37425 0.0
C528 C 0.27319 0.53697 0.49868 0.0
C529 C 0.23513 0.55732 0.49725 0.0
C530 C 0.2349 0.51698 0.41686 0.0
C531 C 0.19863 0.55753 0.45376 0.0
C532 C 0.19341 0.49628 0.33299 0.0
C533 C 0.26707 0.45528 0.33432 0.0
N534 N 0.19933 0.53759 0.41558 0.0
N535 N 0.26742 0.47454 0.37401 0.0
H536 H 0.80697 0.9805 0.03048 0.0
H537 H 0.68769 0.01962 0.74368 0.0
H538 H 0.69733 0.92708 0.93788 0.0
H539 H 0.80549 0.07055 0.82844 0.0
H540 H 0.69297 0.98515 0.81462 0.0
H541 H 0.81195 0.01149 0.9562 0.0
C542 C 0.78479 0.97483 0.99409 0.0
C543 C 0.75138 0.95131 0.99035 0.0
C544 C 0.71779 1.00378 0.81799 0.0
C545 C 0.75611 0.98716 0.90559 0.0
C546 C 0.71467 0.02366 0.77752 0.0
C547 C 0.74645 0.04798 0.78001 0.0
C548 C 0.75283 0.0081 0.86186 0.0
C549 C 0.78018 0.0522 0.82505 0.0
C550 C 0.7874 0.99271 0.95185 0.0
C551 C 0.72364 0.9449 0.94244 0.0
N552 N 0.7826 0.03233 0.86432 0.0
N553 N 0.72612 0.96304 0.90208 0.0
H554 H 0.35082 0.06605 0.72269 0.0
H555 H 0.19462 0.96104 0.51042 0.0
H556 H 0.19761 0.05515 0.70293 0.0
H557 H 0.34934 0.9587 0.54579 0.0
H558 H 0.19528 0.99818 0.57743 0.0
H559 H 0.35134 0.03115 0.65135 0.0
C560 C 0.31724 0.05702 0.70222 0.0
C561 C 0.27407 0.06353 0.71806 0.0
C562 C 0.22913 0.98937 0.57091 0.0
C563 C 0.27437 0.02325 0.6382 0.0
C564 C 0.22871 0.96795 0.53293 0.0
C565 C 0.27191 0.95657 0.52267 0.0
C566 C 0.2731 0.9998 0.59865 0.0
C567 C 0.31511 0.96656 0.5528 0.0
C568 C 0.31756 0.03679 0.66221 0.0
C569 C 0.23157 0.05075 0.69144 0.0
N570 N 0.31463 0.9878 0.58916 0.0
N571 N 0.2328 0.03114 0.65304 0.0
H572 H 0.19515 0.94186 0.17866 0.0
H573 H 0.29907 0.09087 0.07062 0.0
H574 H 0.30367 0.99903 0.26491 0.0
H575 H 0.19554 0.03307 0.97868 0.0
H576 H 0.29278 0.06051 0.14541 0.0
H577 H 0.18963 0.97651 0.10595 0.0
C578 C 0.21799 0.96146 0.18215 0.0
C579 C 0.24971 0.96759 0.22792 0.0
C580 C 0.27091 0.05469 0.10897 0.0
C581 C 0.24309 1.00742 0.14585 0.0
C582 C 0.27406 0.07231 0.06644 0.0
C583 C 0.24824 0.06426 0.01837 0.0
C584 C 0.24183 0.02889 0.10321 0.0
C585 C 0.21658 0.0398 0.01507 0.0
C586 C 0.21454 0.98137 0.14096 0.0
C587 C 0.2783 0.99347 0.23055 0.0
N588 N 0.21475 0.02272 0.05674 0.0
N589 N 0.27422 0.01236 0.19029 0.0
H590 H 0.80445 0.05255 0.49936 0.0
H591 H 0.64626 0.95105 0.28302 0.0
H592 H 0.65002 0.0579 0.46086 0.0
H593 H 0.80028 0.95788 0.30732 0.0
H594 H 0.64621 0.98593 0.35445 0.0
H595 H 0.80317 0.01536 0.43233 0.0
C596 C 0.77033 0.0463 0.47618 0.0
C597 C 0.72737 0.05853 0.48559 0.0
C598 C 0.68004 0.97938 0.34461 0.0
C599 C 0.72544 0.01526 0.40953 0.0
C600 C 0.68005 0.95916 0.30454 0.0
C601 C 0.72337 0.9515 0.29 0.0
C602 C 0.72368 0.9918 0.36992 0.0
C603 C 0.7662 0.96316 0.31788 0.0
C604 C 0.76954 0.02484 0.43818 0.0
C605 C 0.6841 0.04936 0.45457 0.0
N606 N 0.76528 0.98281 0.3563 0.0
N607 N 0.68421 0.02809 0.4182 0.0
loop_
_geom_bond_atom_site_label_1
_geom_bond_atom_site_label_2
_geom_bond_distance
_geom_bond_site_symmetry_2
_ccdc_geom_bond_type
Fe0 O2 1.918 . S
Fe0 O5 1.997 . S
Fe0 O6 2.002 . S
Fe0 O11 1.976 . S
Fe0 O14 1.996 . S
Fe1 O2 1.918 . S
Fe1 O9 1.997 . S
Fe1 O12 1.996 . S
Fe1 O16 1.976 . S
Fe1 O19 2.002 . S
O2 Fe0 1.918 . S
O2 Fe1 1.918 . S
O2 Fe3 1.918 . S
Fe3 O2 1.918 . S
Fe3 O4 2.002 . S
Fe3 O13 1.976 . S
Fe3 O17 1.996 . S
Fe3 O20 1.997 . S
O4 Fe3 2.002 . S
O4 C21 1.295 . S
O5 Fe0 1.997 . S
O5 C21 1.235 . S
O6 Fe0 2.002 . S
O6 C7 1.295 . S
C7 O6 1.295 . S
C7 O9 1.235 . S
C8 O13 1.287 . S
C8 O14 1.255 . S
O9 Fe1 1.997 . S
O9 C7 1.235 . S
C10 O16 1.287 . S
C10 O17 1.255 . S
O11 Fe0 1.976 . S
O11 C18 1.287 . S
O12 Fe1 1.996 . S
O12 C18 1.255 . S
O13 Fe3 1.976 . S
O13 C8 1.287 . S
O14 Fe0 1.996 . S
O14 C8 1.255 . S
C15 O19 1.295 . S
C15 O20 1.235 . S
O16 Fe1 1.976 . S
O16 C10 1.287 . S
O17 Fe3 1.996 . S
O17 C10 1.255 . S
C18 O11 1.287 . S
C18 O12 1.255 . S
O19 Fe1 2.002 . S
O19 C15 1.295 . S
O20 Fe3 1.997 . S
O20 C15 1.235 . S
C21 O4 1.295 . S
C21 O5 1.235 . S
Fe22 O24 1.918 . S
Fe22 O27 1.997 . S
Fe22 O28 2.002 . S
Fe22 O33 1.976 . S
Fe22 O36 1.996 . S
Fe23 O24 1.918 . S
Fe23 O31 1.997 . S
Fe23 O34 1.996 . S
Fe23 O38 1.976 . S
Fe23 O41 2.002 . S
O24 Fe22 1.918 . S
O24 Fe23 1.918 . S
O24 Fe25 1.918 . S
Fe25 O24 1.918 . S
Fe25 O26 2.002 . S
Fe25 O35 1.976 . S
Fe25 O39 1.996 . S
Fe25 O42 1.997 . S
O26 Fe25 2.002 . S
O26 C43 1.295 . S
O27 Fe22 1.997 . S
O27 C43 1.235 . S
O28 Fe22 2.002 . S
O28 C29 1.295 . S
C29 O28 1.295 . S
C29 O31 1.235 . S
C30 O35 1.287 . S
C30 O36 1.255 . S
O31 Fe23 1.997 . S
O31 C29 1.235 . S
C32 O38 1.287 . S
C32 O39 1.255 . S
O33 Fe22 1.976 . S
O33 C40 1.287 . S
O34 Fe23 1.996 . S
O34 C40 1.255 . S
O35 Fe25 1.976 . S
O35 C30 1.287 . S
O36 Fe22 1.996 . S
O36 C30 1.255 . S
C37 O41 1.295 . S
C37 O42 1.235 . S
O38 Fe23 1.976 . S
O38 C32 1.287 . S
O39 Fe25 1.996 . S
O39 C32 1.255 . S
C40 O33 1.287 . S
C40 O34 1.255 . S
O41 Fe23 2.002 . S
O41 C37 1.295 . S
O42 Fe25 1.997 . S
O42 C37 1.235 . S
C43 O26 1.295 . S
C43 O27 1.235 . S
Fe44 O46 1.918 . S
Fe44 O49 1.997 . S
Fe44 O50 2.002 . S
Fe44 O55 1.976 . S
Fe44 O58 1.996 . S
Fe45 O46 1.918 . S
Fe45 O53 1.997 . S
Fe45 O56 1.996 . S
Fe45 O60 1.976 . S
Fe45 O63 2.002 . S
O46 Fe44 1.918 . S
O46 Fe45 1.918 . S
O46 Fe47 1.918 . S
Fe47 O46 1.918 . S
Fe47 O48 2.002 . S
Fe47 O57 1.976 . S
Fe47 O61 1.996 . S
Fe47 O64 1.997 . S
O48 Fe47 2.002 . S
O48 C65 1.295 . S
O49 Fe44 1.997 . S
O49 C65 1.235 . S
O50 Fe44 2.002 . S
O50 C51 1.295 . S
C51 O50 1.295 . S
C51 O53 1.235 . S
C52 O57 1.287 . S
C52 O58 1.255 . S
O53 Fe45 1.997 . S
O53 C51 1.235 . S
C54 O60 1.287 . S
C54 O61 1.255 . S
O55 Fe44 1.976 . S
O55 C62 1.287 . S
O56 Fe45 1.996 . S
O56 C62 1.255 . S
O57 Fe47 1.976 . S
O57 C52 1.287 . S
O58 Fe44 1.996 . S
O58 C52 1.255 . S
C59 O63 1.295 . S
C59 O64 1.235 . S
O60 Fe45 1.976 . S
O60 C54 1.287 . S
O61 Fe47 1.996 . S
O61 C54 1.255 . S
C62 O55 1.287 . S
C62 O56 1.255 . S
O63 Fe45 2.002 . S
O63 C59 1.295 . S
O64 Fe47 1.997 . S
O64 C59 1.235 . S
C65 O48 1.295 . S
C65 O49 1.235 . S
Fe66 O68 1.918 . S
Fe66 O71 1.997 . S
Fe66 O72 2.002 . S
Fe66 O77 1.976 . S
Fe66 O80 1.996 . S
Fe67 O68 1.918 . S
Fe67 O75 1.997 . S
Fe67 O78 1.996 . S
Fe67 O82 1.976 . S
Fe67 O85 2.002 . S
O68 Fe66 1.918 . S
O68 Fe67 1.918 . S
O68 Fe69 1.918 . S
Fe69 O68 1.918 . S
Fe69 O70 2.002 . S
Fe69 O79 1.976 . S
Fe69 O83 1.996 . S
Fe69 O86 1.997 . S
O70 Fe69 2.002 . S
O70 C87 1.295 . S
O71 Fe66 1.997 . S
O71 C87 1.235 . S
O72 Fe66 2.002 . S
O72 C73 1.295 . S
C73 O72 1.295 . S
C73 O75 1.235 . S
C74 O79 1.287 . S
C74 O80 1.255 . S
O75 Fe67 1.997 . S
O75 C73 1.235 . S
C76 O82 1.287 . S
C76 O83 1.255 . S
O77 Fe66 1.976 . S
O77 C84 1.287 . S
O78 Fe67 1.996 . S
O78 C84 1.255 . S
O79 Fe69 1.976 . S
O79 C74 1.287 . S
O80 Fe66 1.996 . S
O80 C74 1.255 . S
C81 O85 1.295 . S
C81 O86 1.235 . S
O82 Fe67 1.976 . S
O82 C76 1.287 . S
O83 Fe69 1.996 . S
O83 C76 1.255 . S
C84 O77 1.287 . S
C84 O78 1.255 . S
O85 Fe67 2.002 . S
O85 C81 1.295 . S
O86 Fe69 1.997 . S
O86 C81 1.235 . S
C87 O70 1.295 . S
C87 O71 1.235 . S
Fe88 O90 1.918 . S
Fe88 O93 1.997 . S
Fe88 O94 2.002 . S
Fe88 O99 1.976 . S
Fe88 O102 1.996 . S
Fe89 O90 1.918 . S
Fe89 O97 1.997 . S
Fe89 O100 1.996 . S
Fe89 O104 1.976 . S
Fe89 O107 2.002 . S
O90 Fe88 1.918 . S
O90 Fe89 1.918 . S
O90 Fe91 1.918 . S
Fe91 O90 1.918 . S
Fe91 O92 2.002 . S
Fe91 O101 1.976 . S
Fe91 O105 1.996 . S
Fe91 O108 1.997 . S
O92 Fe91 2.002 . S
O92 C109 1.295 . S
O93 Fe88 1.997 . S
O93 C109 1.235 . S
O94 Fe88 2.002 . S
O94 C95 1.295 . S
C95 O94 1.295 . S
C95 O97 1.235 . S
C96 O101 1.287 . S
C96 O102 1.255 . S
O97 Fe89 1.997 . S
O97 C95 1.235 . S
C98 O104 1.287 . S
C98 O105 1.255 . S
O99 Fe88 1.976 . S
O99 C106 1.287 . S
O100 Fe89 1.996 . S
O100 C106 1.255 . S
O101 Fe91 1.976 . S
O101 C96 1.287 . S
O102 Fe88 1.996 . S
O102 C96 1.255 . S
C103 O107 1.295 . S
C103 O108 1.235 . S
O104 Fe89 1.976 . S
O104 C98 1.287 . S
O105 Fe91 1.996 . S
O105 C98 1.255 . S
C106 O99 1.287 . S
C106 O100 1.255 . S
O107 Fe89 2.002 . S
O107 C103 1.295 . S
O108 Fe91 1.997 . S
O108 C103 1.235 . S
C109 O92 1.295 . S
C109 O93 1.235 . S
Fe110 O112 1.918 . S
Fe110 O115 1.997 . S
Fe110 O116 2.002 . S
Fe110 O121 1.976 . S
Fe110 O124 1.996 . S
Fe111 O112 1.918 . S
Fe111 O119 1.997 . S
Fe111 O122 1.996 . S
Fe111 O126 1.976 . S
Fe111 O129 2.002 . S
O112 Fe110 1.918 . S
O112 Fe111 1.918 . S
O112 Fe113 1.918 . S
Fe113 O112 1.918 . S
Fe113 O114 2.002 . S
Fe113 O123 1.976 . S
Fe113 O127 1.996 . S
Fe113 O130 1.997 . S
O114 Fe113 2.002 . S
O114 C131 1.295 . S
O115 Fe110 1.997 . S
O115 C131 1.235 . S
O116 Fe110 2.002 . S
O116 C117 1.295 . S
C117 O116 1.295 . S
C117 O119 1.235 . S
C118 O123 1.287 . S
C118 O124 1.255 . S
O119 Fe111 1.997 . S
O119 C117 1.235 . S
C120 O126 1.287 . S
C120 O127 1.255 . S
O121 Fe110 1.976 . S
O121 C128 1.287 . S
O122 Fe111 1.996 . S
O122 C128 1.255 . S
O123 Fe113 1.976 . S
O123 C118 1.287 . S
O124 Fe110 1.996 . S
O124 C118 1.255 . S
C125 O129 1.295 . S
C125 O130 1.235 . S
O126 Fe111 1.976 . S
O126 C120 1.287 . S
O127 Fe113 1.996 . S
O127 C120 1.255 . S
C128 O121 1.287 . S
C128 O122 1.255 . S
O129 Fe111 2.002 . S
O129 C125 1.295 . S
O130 Fe113 1.997 . S
O130 C125 1.235 . S
C131 O114 1.295 . S
C131 O115 1.235 . S
Fe132 O134 1.918 . S
Fe132 O137 1.997 . S
Fe132 O138 2.002 . S
Fe132 O143 1.976 . S
Fe132 O146 1.996 . S
Fe133 O134 1.918 . S
Fe133 O141 1.997 . S
Fe133 O144 1.996 . S
Fe133 O148 1.976 . S
Fe133 O151 2.002 . S
O134 Fe132 1.918 . S
O134 Fe133 1.918 . S
O134 Fe135 1.918 . S
Fe135 O134 1.918 . S
Fe135 O136 2.002 . S
Fe135 O145 1.976 . S
Fe135 O149 1.996 . S
Fe135 O152 1.997 . S
O136 Fe135 2.002 . S
O136 C153 1.295 . S
O137 Fe132 1.997 . S
O137 C153 1.235 . S
O138 Fe132 2.002 . S
O138 C139 1.295 . S
C139 O138 1.295 . S
C139 O141 1.235 . S
C140 O145 1.287 . S
C140 O146 1.255 . S
O141 Fe133 1.997 . S
O141 C139 1.235 . S
C142 O148 1.287 . S
C142 O149 1.255 . S
O143 Fe132 1.976 . S
O143 C150 1.287 . S
O144 Fe133 1.996 . S
O144 C150 1.255 . S
O145 Fe135 1.976 . S
O145 C140 1.287 . S
O146 Fe132 1.996 . S
O146 C140 1.255 . S
C147 O151 1.295 . S
C147 O152 1.235 . S
O148 Fe133 1.976 . S
O148 C142 1.287 . S
O149 Fe135 1.996 . S
O149 C142 1.255 . S
C150 O143 1.287 . S
C150 O144 1.255 . S
O151 Fe133 2.002 . S
O151 C147 1.295 . S
O152 Fe135 1.997 . S
O152 C147 1.235 . S
C153 O136 1.295 . S
C153 O137 1.235 . S
Fe154 O156 1.918 . S
Fe154 O159 1.997 . S
Fe154 O160 2.002 . S
Fe154 O165 1.976 . S
Fe154 O168 1.996 . S
Fe155 O156 1.918 . S
Fe155 O163 1.997 . S
Fe155 O166 1.996 . S
Fe155 O170 1.976 . S
Fe155 O173 2.002 . S
O156 Fe154 1.918 . S
O156 Fe155 1.918 . S
O156 Fe157 1.918 . S
Fe157 O156 1.918 . S
Fe157 O158 2.002 . S
Fe157 O167 1.976 . S
Fe157 O171 1.996 . S
Fe157 O174 1.997 . S
O158 Fe157 2.002 . S
O158 C175 1.295 . S
O159 Fe154 1.997 . S
O159 C175 1.235 . S
O160 Fe154 2.002 . S
O160 C161 1.295 . S
C161 O160 1.295 . S
C161 O163 1.235 . S
C162 O167 1.287 . S
C162 O168 1.255 . S
O163 Fe155 1.997 . S
O163 C161 1.235 . S
C164 O170 1.287 . S
C164 O171 1.255 . S
O165 Fe154 1.976 . S
O165 C172 1.287 . S
O166 Fe155 1.996 . S
O166 C172 1.255 . S
O167 Fe157 1.976 . S
O167 C162 1.287 . S
O168 Fe154 1.996 . S
O168 C162 1.255 . S
C169 O173 1.295 . S
C169 O174 1.235 . S
O170 Fe155 1.976 . S
O170 C164 1.287 . S
O171 Fe157 1.996 . S
O171 C164 1.255 . S
C172 O165 1.287 . S
C172 O166 1.255 . S
O173 Fe155 2.002 . S
O173 C169 1.295 . S
O174 Fe157 1.997 . S
O174 C169 1.235 . S
C175 O158 1.295 . S
C175 O159 1.235 . S
H176 C182 0.930 . S
H177 C186 0.930 . S
H178 C191 0.929 . S
H179 C189 0.929 . S
H180 C184 0.929 . S
H181 C190 0.929 . S
C182 H176 0.930 . S
C182 C183 1.367 . S
C182 C190 1.378 . S
C183 C182 1.367 . S
C183 C191 1.433 . S
C184 H180 0.929 . S
C184 C186 1.378 . S
C184 C188 1.350 . S
C185 C188 1.463 . S
C185 C190 1.350 . S
C185 N193 1.427 . S
C186 H177 0.930 . S
C186 C184 1.378 . S
C186 C187 1.367 . S
C187 C186 1.367 . S
C187 C189 1.433 . S
C188 C184 1.350 . S
C188 C185 1.463 . S
C188 N192 1.427 . S
C189 H179 0.929 . S
C189 C187 1.433 . S
C189 N192 1.384 . S
C190 H181 0.929 . S
C190 C182 1.378 . S
C190 C185 1.350 . S
C191 H178 0.929 . S
C191 C183 1.433 . S
C191 N193 1.384 . S
N192 C188 1.427 . S
N192 C189 1.384 . S
N193 C185 1.427 . S
N193 C191 1.384 . S
H194 C200 0.930 . S
H195 C204 0.930 . S
H196 C209 0.929 . S
H197 C207 0.929 . S
H198 C202 0.929 . S
H199 C208 0.929 . S
C200 H194 0.930 . S
C200 C201 1.367 . S
C200 C208 1.378 . S
C201 C200 1.367 . S
C201 C209 1.433 . S
C202 H198 0.929 . S
C202 C204 1.378 . S
C202 C206 1.350 . S
C203 C206 1.463 . S
C203 C208 1.350 . S
C203 N211 1.427 . S
C204 H195 0.930 . S
C204 C202 1.378 . S
C204 C205 1.367 . S
C205 C204 1.367 . S
C205 C207 1.433 . S
C206 C202 1.350 . S
C206 C203 1.463 . S
C206 N210 1.427 . S
C207 H197 0.929 . S
C207 C205 1.433 . S
C207 N210 1.384 . S
C208 H199 0.929 . S
C208 C200 1.378 . S
C208 C203 1.350 . S
C209 H196 0.929 . S
C209 C201 1.433 . S
C209 N211 1.384 . S
N210 C206 1.427 . S
N210 C207 1.384 . S
N211 C203 1.427 . S
N211 C209 1.384 . S
H212 C218 0.930 . S
H213 C222 0.930 . S
H214 C227 0.929 . S
H215 C225 0.929 . S
H216 C220 0.929 . S
H217 C226 0.929 . S
C218 H212 0.930 . S
C218 C219 1.367 . S
C218 C226 1.378 . S
C219 C218 1.367 . S
C219 C227 1.433 . S
C220 H216 0.929 . S
C220 C222 1.378 . S
C220 C224 1.350 . S
C221 C224 1.463 1_455 S
C221 C226 1.350 . S
C221 N229 1.427 . S
C222 H213 0.930 . S
C222 C220 1.378 . S
C222 C223 1.367 . S
C223 C222 1.367 . S
C223 C225 1.433 . S
C224 C220 1.350 . S
C224 C221 1.463 1_655 S
C224 N228 1.427 . S
C225 H215 0.929 . S
C225 C223 1.433 . S
C225 N228 1.384 . S
C226 H217 0.929 . S
C226 C218 1.378 . S
C226 C221 1.350 . S
C227 H214 0.929 . S
C227 C219 1.433 . S
C227 N229 1.384 . S
N228 C224 1.427 . S
N228 C225 1.384 . S
N229 C221 1.427 . S
N229 C227 1.384 . S
H230 C236 0.930 . S
H231 C240 0.930 . S
H232 C245 0.929 . S
H233 C243 0.929 . S
H234 C238 0.929 . S
H235 C244 0.929 . S
C236 H230 0.930 . S
C236 C237 1.367 . S
C236 C244 1.378 . S
C237 C236 1.367 . S
C237 C245 1.433 . S
C238 H234 0.929 . S
C238 C240 1.378 . S
C238 C242 1.350 . S
C239 C242 1.463 1_455 S
C239 C244 1.350 . S
C239 N247 1.427 . S
C240 H231 0.930 . S
C240 C238 1.378 . S
C240 C241 1.367 . S
C241 C240 1.367 . S
C241 C243 1.433 . S
C242 C238 1.350 . S
C242 C239 1.463 1_655 S
C242 N246 1.427 . S
C243 H233 0.929 . S
C243 C241 1.433 . S
C243 N246 1.384 . S
C244 H235 0.929 . S
C244 C236 1.378 . S
C244 C239 1.350 . S
C245 H232 0.929 . S
C245 C237 1.433 . S
C245 N247 1.384 . S
N246 C242 1.427 . S
N246 C243 1.384 . S
N247 C239 1.427 . S
N247 C245 1.384 . S
H248 C254 0.930 . S
H249 C258 0.930 . S
H250 C263 0.929 . S
H251 C261 0.929 . S
H252 C256 0.929 1_554 S
H253 C262 0.929 1_556 S
C254 H248 0.930 . S
C254 C255 1.367 . S
C254 C262 1.378 . S
C255 C254 1.367 . S
C255 C263 1.433 . S
C256 H252 0.929 1_556 S
C256 C258 1.378 . S
C256 C260 1.350 . S
C257 C260 1.463 1_554 S
C257 C262 1.350 . S
C257 N265 1.427 . S
C258 H249 0.930 . S
C258 C256 1.378 . S
C258 C259 1.367 . S
C259 C258 1.367 . S
C259 C261 1.433 . S
C260 C256 1.350 . S
C260 C257 1.463 1_556 S
C260 N264 1.427 . S
C261 H251 0.929 . S
C261 C259 1.433 . S
C261 N264 1.384 . S
C262 H253 0.929 1_554 S
C262 C254 1.378 . S
C262 C257 1.350 . S
C263 H250 0.929 . S
C263 C255 1.433 . S
C263 N265 1.384 . S
N264 C260 1.427 . S
N264 C261 1.384 . S
N265 C257 1.427 . S
N265 C263 1.384 . S
H266 C272 0.930 . S
H267 C276 0.930 . S
H268 C281 0.929 . S
H269 C279 0.929 . S
H270 C274 0.929 . S
H271 C280 0.929 . S
C272 H266 0.930 . S
C272 C273 1.367 . S
C272 C280 1.378 . S
C273 C272 1.367 . S
C273 C281 1.433 . S
C274 H270 0.929 . S
C274 C276 1.378 . S
C274 C278 1.350 . S
C275 C278 1.463 . S
C275 C280 1.350 . S
C275 N283 1.427 . S
C276 H267 0.930 . S
C276 C274 1.378 . S
C276 C277 1.367 . S
C277 C276 1.367 . S
C277 C279 1.433 . S
C278 C274 1.350 . S
C278 C275 1.463 . S
C278 N282 1.427 . S
C279 H269 0.929 . S
C279 C277 1.433 . S
C279 N282 1.384 . S
C280 H271 0.929 . S
C280 C272 1.378 . S
C280 C275 1.350 . S
C281 H268 0.929 . S
C281 C273 1.433 . S
C281 N283 1.384 . S
N282 C278 1.427 . S
N282 C279 1.384 . S
N283 C275 1.427 . S
N283 C281 1.384 . S
H284 C290 0.930 . S
H285 C294 0.930 . S
H286 C299 0.929 . S
H287 C297 0.929 . S
H288 C292 0.929 . S
H289 C298 0.929 . S
C290 H284 0.930 . S
C290 C291 1.367 . S
C290 C298 1.378 . S
C291 C290 1.367 . S
C291 C299 1.433 . S
C292 H288 0.929 . S
C292 C294 1.378 . S
C292 C296 1.350 . S
C293 C296 1.463 1_554 S
C293 C298 1.350 . S
C293 N301 1.427 1_554 S
C294 H285 0.930 . S
C294 C292 1.378 . S
C294 C295 1.367 . S
C295 C294 1.367 . S
C295 C297 1.433 . S
C296 C292 1.350 . S
C296 C293 1.463 1_556 S
C296 N300 1.427 1_556 S
C297 H287 0.929 . S
C297 C295 1.433 . S
C297 N300 1.384 1_556 S
C298 H289 0.929 . S
C298 C290 1.378 . S
C298 C293 1.350 . S
C299 H286 0.929 . S
C299 C291 1.433 . S
C299 N301 1.384 1_554 S
N300 C296 1.427 1_554 S
N300 C297 1.384 1_554 S
N301 C293 1.427 1_556 S
N301 C299 1.384 1_556 S
H302 C308 0.930 . S
H303 C312 0.930 . S
H304 C317 0.929 . S
H305 C315 0.929 . S
H306 C310 0.929 . S
H307 C316 0.929 . S
C308 H302 0.930 . S
C308 C309 1.367 . S
C308 C316 1.378 . S
C309 C308 1.367 . S
C309 C317 1.433 . S
C310 H306 0.929 . S
C310 C312 1.378 . S
C310 C314 1.350 . S
C311 C314 1.463 . S
C311 C316 1.350 . S
C311 N319 1.427 . S
C312 H303 0.930 . S
C312 C310 1.378 . S
C312 C313 1.367 . S
C313 C312 1.367 . S
C313 C315 1.433 . S
C314 C310 1.350 . S
C314 C311 1.463 . S
C314 N318 1.427 . S
C315 H305 0.929 . S
C315 C313 1.433 . S
C315 N318 1.384 . S
C316 H307 0.929 . S
C316 C308 1.378 . S
C316 C311 1.350 . S
C317 H304 0.929 . S
C317 C309 1.433 . S
C317 N319 1.384 . S
N318 C314 1.427 . S
N318 C315 1.384 . S
N319 C311 1.427 . S
N319 C317 1.384 . S
H320 C326 0.930 1_554 S
H321 C330 0.930 1_556 S
H322 C335 0.929 . S
H323 C333 0.929 . S
H324 C328 0.929 . S
H325 C334 0.929 . S
C326 H320 0.930 1_556 S
C326 C327 1.367 . S
C326 C334 1.378 1_556 S
C327 C326 1.367 . S
C327 C335 1.433 . S
C328 H324 0.929 . S
C328 C330 1.378 1_556 S
C328 C332 1.350 1_556 S
C329 C332 1.463 1_656 S
C329 C334 1.350 1_556 S
C329 N337 1.427 . S
C330 H321 0.930 1_554 S
C330 C328 1.378 1_554 S
C330 C331 1.367 . S
C331 C330 1.367 . S
C331 C333 1.433 . S
C332 C328 1.350 1_554 S
C332 C329 1.463 1_454 S
C332 N336 1.427 . S
C333 H323 0.929 . S
C333 C331 1.433 . S
C333 N336 1.384 . S
C334 H325 0.929 . S
C334 C326 1.378 1_554 S
C334 C329 1.350 1_554 S
C335 H322 0.929 . S
C335 C327 1.433 . S
C335 N337 1.384 . S
N336 C332 1.427 . S
N336 C333 1.384 . S
N337 C329 1.427 . S
N337 C335 1.384 . S
H338 C344 0.930 . S
H339 C348 0.930 . S
H340 C353 0.929 . S
H341 C351 0.929 . S
H342 C346 0.908 1_455 S
H343 C352 0.908 1_655 S
C344 H338 0.930 . S
C344 C345 1.367 . S
C344 C352 1.378 . S
C345 C344 1.367 . S
C345 C353 1.433 . S
C346 H342 0.908 1_655 S
C346 C348 1.378 . S
C346 C350 1.350 . S
C347 C350 1.463 1_455 S
C347 C352 1.350 . S
C347 N355 1.427 . S
C348 H339 0.930 . S
C348 C346 1.378 . S
C348 C349 1.367 . S
C349 C348 1.367 . S
C349 C351 1.433 . S
C350 C346 1.350 . S
C350 C347 1.463 1_655 S
C350 N354 1.427 . S
C351 H341 0.929 . S
C351 C349 1.433 . S
C351 N354 1.384 . S
C352 H343 0.908 1_455 S
C352 C344 1.378 . S
C352 C347 1.350 . S
C353 H340 0.929 . S
C353 C345 1.433 . S
C353 N355 1.384 . S
N354 C350 1.427 . S
N354 C351 1.384 . S
N355 C347 1.427 . S
N355 C353 1.384 . S
H356 C362 0.930 . S
H357 C366 0.930 . S
H358 C371 0.929 . S
H359 C369 0.929 . S
H360 C364 0.929 . S
H361 C370 0.929 . S
C362 H356 0.930 . S
C362 C363 1.367 . S
C362 C370 1.378 . S
C363 C362 1.367 . S
C363 C371 1.433 1_565 S
C364 H360 0.929 . S
C364 C366 1.378 . S
C364 C368 1.350 . S
C365 C368 1.463 1_564 S
C365 C370 1.350 . S
C365 N373 1.427 1_565 S
C366 H357 0.930 . S
C366 C364 1.378 . S
C366 C367 1.367 . S
C367 C366 1.367 . S
C367 C369 1.433 1_545 S
C368 C364 1.350 . S
C368 C365 1.463 1_546 S
C368 N372 1.427 1_545 S
C369 H359 0.929 . S
C369 C367 1.433 1_565 S
C369 N372 1.384 . S
C370 H361 0.929 . S
C370 C362 1.378 . S
C370 C365 1.350 . S
C371 H358 0.929 . S
C371 C363 1.433 1_545 S
C371 N373 1.384 . S
N372 C368 1.427 1_565 S
N372 C369 1.384 . S
N373 C365 1.427 1_545 S
N373 C371 1.384 . S
H374 C380 0.930 . S
H375 C384 0.930 . S
H376 C389 0.929 . S
H377 C387 0.929 . S
H378 C382 0.948 . S
H379 C388 0.948 . S
C380 H374 0.930 . S
C380 C381 1.367 . S
C380 C388 1.366 1_565 S
C381 C380 1.367 . S
C381 C389 1.433 . S
C382 H378 0.948 . S
C382 C384 1.366 1_565 S
C382 C386 1.343 1_565 S
C383 C386 1.463 1_565 S
C383 C388 1.343 1_565 S
C383 N391 1.427 . S
C384 H375 0.930 . S
C384 C382 1.366 1_545 S
C384 C385 1.367 . S
C385 C384 1.367 . S
C385 C387 1.433 . S
C386 C382 1.343 1_545 S
C386 C383 1.463 1_545 S
C386 N390 1.427 . S
C387 H377 0.929 . S
C387 C385 1.433 . S
C387 N390 1.384 . S
C388 H379 0.948 . S
C388 C380 1.366 1_545 S
C388 C383 1.343 1_545 S
C389 H376 0.929 . S
C389 C381 1.433 . S
C389 N391 1.384 . S
N390 C386 1.427 . S
N390 C387 1.384 . S
N391 C383 1.427 . S
N391 C389 1.384 . S
H392 C398 0.930 . S
H393 C402 0.930 . S
H394 C407 0.929 . S
H395 C405 0.929 . S
H396 C400 0.925 1_455 S
H397 C406 0.925 1_655 S
C398 H392 0.930 . S
C398 C399 1.367 . S
C398 C406 1.378 . S
C399 C398 1.367 . S
C399 C407 1.433 . S
C400 H396 0.925 1_655 S
C400 C402 1.378 . S
C400 C404 1.350 . S
C401 C404 1.463 1_455 S
C401 C406 1.350 . S
C401 N409 1.427 . S
C402 H393 0.930 . S
C402 C400 1.378 . S
C402 C403 1.367 . S
C403 C402 1.367 . S
C403 C405 1.433 . S
C404 C400 1.350 . S
C404 C401 1.463 1_655 S
C404 N408 1.427 . S
C405 H395 0.929 . S
C405 C403 1.433 . S
C405 N408 1.384 . S
C406 H397 0.925 1_455 S
C406 C398 1.378 . S
C406 C401 1.350 . S
C407 H394 0.929 . S
C407 C399 1.433 . S
C407 N409 1.384 . S
N408 C404 1.427 . S
N408 C405 1.384 . S
N409 C401 1.427 . S
N409 C407 1.384 . S
H410 C416 0.930 . S
H411 C420 0.930 . S
H412 C425 0.929 . S
H413 C423 0.929 . S
H414 C418 0.929 1_455 S
H415 C424 0.929 1_655 S
C416 H410 0.930 . S
C416 C417 1.367 . S
C416 C424 1.378 . S
C417 C416 1.367 . S
C417 C425 1.433 . S
C418 H414 0.929 1_655 S
C418 C420 1.378 . S
C418 C422 1.350 . S
C419 C422 1.463 1_455 S
C419 C424 1.350 . S
C419 N427 1.427 . S
C420 H411 0.930 . S
C420 C418 1.378 . S
C420 C421 1.367 . S
C421 C420 1.367 . S
C421 C423 1.433 . S
C422 C418 1.350 . S
C422 C419 1.463 1_655 S
C422 N426 1.427 . S
C423 H413 0.929 . S
C423 C421 1.433 . S
C423 N426 1.384 . S
C424 H415 0.929 1_455 S
C424 C416 1.378 . S
C424 C419 1.350 . S
C425 H412 0.929 . S
C425 C417 1.433 . S
C425 N427 1.384 . S
N426 C422 1.427 . S
N426 C423 1.384 . S
N427 C419 1.427 . S
N427 C425 1.384 . S
H428 C434 0.930 . S
H429 C438 0.930 . S
H430 C443 0.929 . S
H431 C441 0.929 . S
H432 C436 0.929 . S
H433 C442 0.929 . S
C434 H428 0.930 . S
C434 C435 1.367 . S
C434 C442 1.378 . S
C435 C434 1.367 . S
C435 C443 1.433 . S
C436 H432 0.929 . S
C436 C438 1.378 . S
C436 C440 1.350 . S
C437 C440 1.463 . S
C437 C442 1.350 . S
C437 N445 1.427 . S
C438 H429 0.930 . S
C438 C436 1.378 . S
C438 C439 1.367 . S
C439 C438 1.367 . S
C439 C441 1.433 . S
C440 C436 1.350 . S
C440 C437 1.463 . S
C440 N444 1.427 . S
C441 H431 0.929 . S
C441 C439 1.433 . S
C441 N444 1.384 . S
C442 H433 0.929 . S
C442 C434 1.378 . S
C442 C437 1.350 . S
C443 H430 0.929 . S
C443 C435 1.433 . S
C443 N445 1.384 . S
N444 C440 1.427 . S
N444 C441 1.384 . S
N445 C437 1.427 . S
N445 C443 1.384 . S
H446 C452 0.930 . S
H447 C456 0.930 . S
H448 C461 0.929 . S
H449 C459 0.929 . S
H450 C454 0.929 . S
H451 C460 0.929 . S
C452 H446 0.930 . S
C452 C453 1.367 . S
C452 C460 1.378 . S
C453 C452 1.367 . S
C453 C461 1.433 . S
C454 H450 0.929 . S
C454 C456 1.378 . S
C454 C458 1.350 . S
C455 C458 1.463 . S
C455 C460 1.350 . S
C455 N463 1.427 . S
C456 H447 0.930 . S
C456 C454 1.378 . S
C456 C457 1.367 . S
C457 C456 1.367 . S
C457 C459 1.433 . S
C458 C454 1.350 . S
C458 C455 1.463 . S
C458 N462 1.427 . S
C459 H449 0.929 . S
C459 C457 1.433 . S
C459 N462 1.384 . S
C460 H451 0.929 . S
C460 C452 1.378 . S
C460 C455 1.350 . S
C461 H448 0.929 . S
C461 C453 1.433 . S
C461 N463 1.384 . S
N462 C458 1.427 . S
N462 C459 1.384 . S
N463 C455 1.427 . S
N463 C461 1.384 . S
H464 C470 0.930 . S
H465 C474 0.930 . S
H466 C479 0.933 . S
H467 C477 0.929 . S
H468 C472 0.929 . S
H469 C478 0.929 . S
C470 H464 0.930 . S
C470 C471 1.367 . S
C470 C478 1.378 . S
C471 C470 1.367 . S
C471 C479 1.433 . S
C472 H468 0.929 . S
C472 C474 1.378 . S
C472 C476 1.350 . S
C473 C476 1.463 . S
C473 C478 1.350 . S
C473 N481 1.427 . S
C474 H465 0.930 . S
C474 C472 1.378 . S
C474 C475 1.367 . S
C475 C474 1.367 . S
C475 C477 1.433 . S
C476 C472 1.350 . S
C476 C473 1.463 . S
C476 N480 1.427 . S
C477 H467 0.929 . S
C477 C475 1.433 . S
C477 N480 1.384 . S
C478 H469 0.929 . S
C478 C470 1.378 . S
C478 C473 1.350 . S
C479 H466 0.933 . S
C479 C471 1.433 . S
C479 N481 1.384 . S
N480 C476 1.427 . S
N480 C477 1.384 . S
N481 C473 1.427 . S
N481 C479 1.384 . S
H482 C488 0.930 . S
H483 C492 0.930 . S
H484 C497 0.929 . S
H485 C495 0.929 . S
H486 C490 0.929 . S
H487 C496 0.929 . S
C488 H482 0.930 . S
C488 C489 1.367 . S
C488 C496 1.378 . S
C489 C488 1.367 . S
C489 C497 1.433 . S
C490 H486 0.929 . S
C490 C492 1.378 . S
C490 C494 1.350 . S
C491 C494 1.463 . S
C491 C496 1.350 . S
C491 N499 1.427 . S
C492 H483 0.930 . S
C492 C490 1.378 . S
C492 C493 1.367 . S
C493 C492 1.367 . S
C493 C495 1.433 . S
C494 C490 1.350 . S
C494 C491 1.463 . S
C494 N498 1.427 . S
C495 H485 0.929 . S
C495 C493 1.433 . S
C495 N498 1.384 . S
C496 H487 0.929 . S
C496 C488 1.378 . S
C496 C491 1.350 . S
C497 H484 0.929 . S
C497 C489 1.433 . S
C497 N499 1.384 . S
N498 C494 1.427 . S
N498 C495 1.384 . S
N499 C491 1.427 . S
N499 C497 1.384 . S
H500 C506 0.930 . S
H501 C510 0.930 . S
H502 C515 0.929 . S
H503 C513 0.929 1_556 S
H504 C508 0.929 . S
H505 C514 0.929 . S
C506 H500 0.930 . S
C506 C507 1.367 . S
C506 C514 1.378 . S
C507 C506 1.367 . S
C507 C515 1.433 . S
C508 H504 0.929 . S
C508 C510 1.378 . S
C508 C512 1.350 . S
C509 C512 1.463 . S
C509 C514 1.350 . S
C509 N517 1.427 . S
C510 H501 0.930 . S
C510 C508 1.378 . S
C510 C511 1.367 . S
C511 C510 1.367 . S
C511 C513 1.433 . S
C512 C508 1.350 . S
C512 C509 1.463 . S
C512 N516 1.427 . S
C513 H503 0.929 1_554 S
C513 C511 1.433 . S
C513 N516 1.384 . S
C514 H505 0.929 . S
C514 C506 1.378 . S
C514 C509 1.350 . S
C515 H502 0.929 . S
C515 C507 1.433 . S
C515 N517 1.384 . S
N516 C512 1.427 . S
N516 C513 1.384 . S
N517 C509 1.427 . S
N517 C515 1.384 . S
H518 C524 0.930 . S
H519 C528 0.930 . S
H520 C533 0.929 . S
H521 C531 0.929 . S
H522 C526 0.929 . S
H523 C532 0.929 . S
C524 H518 0.930 . S
C524 C525 1.367 . S
C524 C532 1.378 . S
C525 C524 1.367 . S
C525 C533 1.433 . S
C526 H522 0.929 . S
C526 C528 1.378 . S
C526 C530 1.350 . S
C527 C530 1.463 . S
C527 C532 1.350 . S
C527 N535 1.427 . S
C528 H519 0.930 . S
C528 C526 1.378 . S
C528 C529 1.367 . S
C529 C528 1.367 . S
C529 C531 1.433 . S
C530 C526 1.350 . S
C530 C527 1.463 . S
C530 N534 1.427 . S
C531 H521 0.929 . S
C531 C529 1.433 . S
C531 N534 1.384 . S
C532 H523 0.929 . S
C532 C524 1.378 . S
C532 C527 1.350 . S
C533 H520 0.929 . S
C533 C525 1.433 . S
C533 N535 1.384 . S
N534 C530 1.427 . S
N534 C531 1.384 . S
N535 C527 1.427 . S
N535 C533 1.384 . S
H536 C542 0.930 1_554 S
H537 C546 0.930 . S
H538 C551 0.929 . S
H539 C549 0.929 . S
H540 C544 0.929 . S
H541 C550 0.948 . S
C542 H536 0.930 1_556 S
C542 C543 1.367 . S
C542 C550 1.378 . S
C543 C542 1.367 . S
C543 C551 1.433 . S
C544 H540 0.929 . S
C544 C546 1.378 1_565 S
C544 C548 1.353 . S
C545 C548 1.476 . S
C545 C550 1.350 . S
C545 N553 1.427 . S
C546 H537 0.930 . S
C546 C544 1.378 1_545 S
C546 C547 1.367 . S
C547 C546 1.367 . S
C547 C549 1.433 . S
C548 C544 1.353 . S
C548 C545 1.476 . S
C548 N552 1.411 1_565 S
C549 H539 0.929 . S
C549 C547 1.433 . S
C549 N552 1.384 . S
C550 H541 0.948 . S
C550 C542 1.378 . S
C550 C545 1.350 . S
C551 H538 0.929 . S
C551 C543 1.433 . S
C551 N553 1.384 . S
N552 C548 1.411 1_545 S
N552 C549 1.384 . S
N553 C545 1.427 . S
N553 C551 1.384 . S
H554 C560 0.930 . S
H555 C564 0.930 . S
H556 C569 0.929 . S
H557 C567 0.929 . S
H558 C562 0.929 1_545 S
H559 C568 0.929 . S
C560 H554 0.930 . S
C560 C561 1.367 . S
C560 C568 1.378 1_545 S
C561 C560 1.367 . S
C561 C569 1.433 . S
C562 H558 0.929 1_565 S
C562 C564 1.378 . S
C562 C566 1.350 . S
C563 C566 1.482 . S
C563 C568 1.361 . S
C563 N571 1.397 1_565 S
C564 H555 0.930 . S
C564 C562 1.378 . S
C564 C565 1.367 . S
C565 C564 1.367 . S
C565 C567 1.433 . S
C566 C562 1.350 . S
C566 C563 1.482 . S
C566 N570 1.427 . S
C567 H557 0.929 . S
C567 C565 1.433 . S
C567 N570 1.384 . S
C568 H559 0.929 . S
C568 C560 1.378 1_565 S
C568 C563 1.361 . S
C569 H556 0.929 . S
C569 C561 1.433 . S
C569 N571 1.384 . S
N570 C566 1.427 . S
N570 C567 1.384 . S
N571 C563 1.397 1_545 S
N571 C569 1.384 . S
H572 C578 0.930 . S
H573 C582 0.930 . S
H574 C587 0.929 . S
H575 C585 0.929 1_556 S
H576 C580 0.929 . S
H577 C586 0.929 . S
C578 H572 0.930 . S
C578 C579 1.367 . S
C578 C586 1.378 . S
C579 C578 1.367 . S
C579 C587 1.433 . S
C580 H576 0.929 . S
C580 C582 1.378 . S
C580 C584 1.350 . S
C581 C584 1.455 1_565 S
C581 C586 1.359 . S
C581 N589 1.425 1_565 S
C582 H573 0.930 . S
C582 C580 1.378 . S
C582 C583 1.367 . S
C583 C582 1.367 . S
C583 C585 1.433 . S
C584 C580 1.350 . S
C584 C581 1.455 1_545 S
C584 N588 1.427 . S
C585 H575 0.929 1_554 S
C585 C583 1.433 . S
C585 N588 1.384 . S
C586 H577 0.929 . S
C586 C578 1.378 . S
C586 C581 1.359 . S
C587 H574 0.929 . S
C587 C579 1.433 . S
C587 N589 1.384 1_565 S
N588 C584 1.427 . S
N588 C585 1.384 . S
N589 C581 1.425 1_545 S
N589 C587 1.384 1_545 S
H590 C596 0.930 . S
H591 C600 0.930 . S
H592 C605 0.929 . S
H593 C603 0.929 . S
H594 C598 0.929 . S
H595 C604 0.929 1_565 S
C596 H590 0.930 . S
C596 C597 1.367 . S
C596 C604 1.378 . S
C597 C596 1.367 . S
C597 C605 1.433 . S
C598 H594 0.929 . S
C598 C600 1.378 1_545 S
C598 C602 1.359 . S
C599 C602 1.480 . S
C599 C604 1.350 . S
C599 N607 1.427 . S
C600 H591 0.930 . S
C600 C598 1.378 1_565 S
C600 C601 1.367 . S
C601 C600 1.367 . S
C601 C603 1.433 . S
C602 C598 1.359 . S
C602 C599 1.480 . S
C602 N606 1.400 1_545 S
C603 H593 0.929 . S
C603 C601 1.433 . S
C603 N606 1.384 . S
C604 H595 0.929 1_545 S
C604 C596 1.378 . S
C604 C599 1.350 . S
C605 H592 0.929 . S
C605 C597 1.433 . S
C605 N607 1.384 . S
N606 C602 1.400 1_565 S
N606 C603 1.384 . S
N607 C599 1.427 . S
N607 C605 1.384 . S
C183 C40 1.359 . S
C187 C8 1.358 . S
C201 C62 1.360 . S
C205 C74 1.360 . S
C219 C128 1.359 . S
C223 C96 1.359 . S
C237 C150 1.352 . S
C241 C162 1.352 . S
C255 C18 1.621 . S
C259 C142 1.621 . S
C273 C32 1.624 . S
C277 C172 1.624 . S
C291 C106 1.626 . S
C295 C54 1.626 . S
C309 C84 1.623 . S
C313 C120 1.623 . S
C327 C65 0.999 . S
C331 C15 0.999 . S
C345 C81 1.010 . S
C349 C43 1.010 . S
C363 C103 0.998 . S
C367 C153 0.998 . S
C381 C131 1.006 . S
C385 C169 1.006 . S
C399 C7 1.555 . S
C403 C37 1.561 . S
C417 C73 1.561 . S
C421 C59 1.555 . S
C435 C125 1.559 . S
C439 C95 1.553 . S
C453 C161 1.553 . S
C457 C147 1.556 . S
C471 C10 1.266 1_556 S
C475 C87 1.308 . S
C489 C30 1.269 . S
C493 C51 1.309 . S
C507 C29 1.311 . S
C511 C52 1.273 1_554 S
C525 C21 1.310 . S
C529 C76 1.270 . S
C543 C98 1.263 1_556 S
C547 C175 1.308 . S
C561 C139 1.305 . S
C565 C118 1.256 . S
C579 C117 1.309 . S
C583 C140 1.268 1_554 S
C597 C164 1.256 . S
C601 C109 1.305 . S
