# Generated by pormake.
# Topology rob, (6)-cn, num edge types: 1
# Building blocks:
#     Node 0, Type 0, BuildingBlock: CIFDUS_clean_sbu_1, # of connection points: 6
#     Node 1, Type 0, BuildingBlock: CIFDUS_clean_sbu_1, # of connection points: 6
#     Node 2, Type 0, BuildingBlock: CIFDUS_clean_sbu_1, # of connection points: 6
#     Node 3, Type 0, BuildingBlock: CIFDUS_clean_sbu_1, # of connection points: 6
#     Edge 4, Type (0, 0), BuildingBlock: MIFKUJ_clean_linker_0, # of connection points: 2
#     Edge 5, Type (0, 0), BuildingBlock: MIFKUJ_clean_linker_0, # of connection points: 2
#     Edge 6, Type (0, 0), BuildingBlock: MIFKUJ_clean_linker_0, # of connection points: 2
#     Edge 7, Type (0, 0), BuildingBlock: MIFKUJ_clean_linker_0, # of connection points: 2
#     Edge 8, Type (0, 0), BuildingBlock: MIFKUJ_clean_linker_0, # of connection points: 2
#     Edge 9, Type (0, 0), BuildingBlock: MIFKUJ_clean_linker_0, # of connection points: 2
#     Edge 10, Type (0, 0), BuildingBlock: MIFKUJ_clean_linker_0, # of connection points: 2
#     Edge 11, Type (0, 0), BuildingBlock: MIFKUJ_clean_linker_0, # of connection points: 2
#     Edge 12, Type (0, 0), BuildingBlock: MIFKUJ_clean_linker_0, # of connection points: 2
#     Edge 13, Type (0, 0), BuildingBlock: MIFKUJ_clean_linker_0, # of connection points: 2
#     Edge 14, Type (0, 0), BuildingBlock: MIFKUJ_clean_linker_0, # of connection points: 2
#     Edge 15, Type (0, 0), BuildingBlock: MIFKUJ_clean_linker_0, # of connection points: 2
# Relax obj value: 0.211
# Max RMSD: 0.229
# Mean RMSD: 0.229
data_MOF--net-rob--node1-CIFDUS_clean_sbu_1--edge1-MIFKUJ_clean_linker_0
_symmetry_space_group_name_H-M    P1
_symmetry_Int_Tables_number       1
_symmetry_cell_setting            triclinic
loop_
_symmetry_equiv_pos_as_xyz
'x, y, z'
_cell_length_a     19.557095
_cell_length_b     34.893709
_cell_length_c     34.092919
_cell_angle_alpha  105.45838
_cell_angle_beta   89.910022
_cell_angle_gamma 89.857363
loop_
_atom_site_label
_atom_site_type_symbol
_atom_site_fract_x
_atom_site_fract_y
_atom_site_fract_z
_atom_type_partial_charge
O0 O 0.17277 0.26181 0.94369 0.0
Mn1 Mn 0.24223 0.24762 0.98217 0.0
O2 O 0.20405 0.21457 0.88801 0.0
Mn3 Mn 0.24731 0.18152 0.91526 0.0
O4 O 0.31304 0.23328 0.02086 0.0
O5 O 0.27018 0.30739 9e-05 0.0
Mn6 Mn 0.24895 0.31738 0.05218 0.0
O7 O 0.16737 0.2503 0.02642 0.0
O8 O 0.30595 0.28672 0.07497 0.0
O9 O 0.31935 0.24579 0.9387 0.0
O10 O 0.34073 0.18283 0.91712 0.0
O11 O 0.28001 0.36445 0.04939 0.0
O12 O 0.15628 0.31361 0.05708 0.0
C13 C 0.19182 0.15066 0.94702 0.0
C14 C 0.17126 0.24621 0.90541 0.0
C15 C 0.33023 0.25266 0.05685 0.0
C16 C 0.28777 0.34513 0.0115 0.0
C17 C 0.13505 0.27855 0.05077 0.0
C18 C 0.35927 0.21782 0.92027 0.0
O19 O 0.20831 0.18819 0.96386 0.0
O20 O 0.21185 0.13394 0.9101 0.0
O21 O 0.67738 0.76426 0.94218 0.0
Mn22 Mn 0.73923 0.74781 -0.01612 0.0
O23 O 0.63455 0.7099 0.90012 0.0
Mn24 Mn 0.70355 0.67966 0.9132 0.0
O25 O 0.80116 0.7391 0.03037 0.0
O26 O 0.76854 0.80607 0.00264 0.0
Mn27 Mn 0.727 0.82525 0.04998 0.0
O28 O 0.65968 0.7509 0.02407 0.0
O29 O 0.78484 0.79877 0.07772 0.0
O30 O 0.81977 0.73928 0.94188 0.0
O31 O 0.78777 0.68543 0.89277 0.0
O32 O 0.7412 0.86706 0.02796 0.0
O33 O 0.63524 0.81328 0.05097 0.0
C34 C 0.68965 0.65138 0.9581 0.0
C35 C 0.63706 0.74732 0.91369 0.0
C36 C 0.81075 0.76343 0.06604 0.0
C37 C 0.76726 0.84142 -0.00292 0.0
C38 C 0.62093 0.77722 0.04571 0.0
C39 C 0.83004 0.71282 0.90802 0.0
O40 O 0.70933 0.68869 0.96648 0.0
O41 O 0.68286 0.63214 0.92011 0.0
O42 O 0.17174 0.73963 0.52756 0.0
Mn43 Mn 0.2432 0.75307 0.48643 0.0
O44 O 0.11782 0.79643 0.55168 0.0
Mn45 Mn 0.19898 0.82101 0.54996 0.0
O46 O 0.31458 0.76503 0.44653 0.0
O47 O 0.27647 0.69276 0.47498 0.0
Mn48 Mn 0.24258 0.68673 0.42504 0.0
O49 O 0.16687 0.74687 0.44147 0.0
O50 O 0.28257 0.71648 0.39357 0.0
O51 O 0.31743 0.76281 0.53143 0.0
O52 O 0.2682 0.80931 0.58103 0.0
O53 O 0.28144 0.64058 0.41766 0.0
O54 O 0.14963 0.68383 0.42502 0.0
C55 C 0.2003 0.85123 0.50807 0.0
C56 C 0.12287 0.75981 0.54853 0.0
C57 C 0.31589 0.74805 0.40855 0.0
C58 C 0.29327 0.65538 0.45619 0.0
C59 C 0.13041 0.71739 0.4231 0.0
C60 C 0.31574 0.7845 0.56808 0.0
O61 O 0.21609 0.81299 0.49785 0.0
O62 O 0.19519 0.87041 0.54626 0.0
O63 O 0.66917 0.23271 0.52007 0.0
Mn64 Mn 0.74277 0.24741 0.48314 0.0
O65 O 0.69035 0.27851 0.57806 0.0
Mn66 Mn 0.73562 0.31434 0.55606 0.0
O67 O 0.81484 0.26158 0.44488 0.0
O68 O 0.76681 0.18825 0.46319 0.0
Mn69 Mn 0.75951 0.17614 0.40991 0.0
O70 O 0.66847 0.24507 0.4388 0.0
O71 O 0.8229 0.20689 0.39203 0.0
O72 O 0.81799 0.25007 0.52766 0.0
O73 O 0.82854 0.3137 0.56051 0.0
O74 O 0.78504 0.12972 0.41965 0.0
O75 O 0.67026 0.18349 0.39749 0.0
C76 C 0.67645 0.33559 0.51531 0.0
C77 C 0.66005 0.24745 0.55808 0.0
C78 C 0.83923 0.24249 0.41034 0.0
C79 C 0.78529 0.15117 0.45707 0.0
C80 C 0.64293 0.21752 0.40997 0.0
C81 C 0.85128 0.27843 0.55173 0.0
O82 O 0.72248 0.30766 0.50291 0.0
O83 O 0.67767 0.35349 0.55387 0.0
H84 H 0.74076 0.58711 0.97721 0.0
H85 H 0.66595 0.53352 -0.01553 0.0
H86 H 0.49414 0.61419 0.00489 0.0
H87 H 0.5696 0.66803 -0.00168 0.0
H88 H 0.47682 0.55973 0.04532 0.0
H89 H 0.52956 0.55539 0.90693 0.0
H90 H 0.59698 0.55153 0.84473 0.0
H91 H 0.69103 0.44325 0.85495 0.0
H92 H 0.62477 0.44681 0.91745 0.0
H93 H 0.23333 0.40784 -0.00844 0.0
H94 H 0.30106 0.46381 -0.01695 0.0
H95 H 0.48336 0.39163 0.96987 0.0
H96 H 0.41517 0.33548 0.97841 0.0
H97 H 0.48887 0.44398 0.92363 0.0
H98 H 0.43372 0.45021 0.06378 0.0
H99 H 0.36054 0.45406 0.12372 0.0
H100 H 0.26539 0.56003 0.10808 0.0
H101 H 0.33759 0.55658 0.04781 0.0
C102 C 0.68796 0.59406 -0.01396 0.0
C103 C 0.6611 0.63178 -0.01257 0.0
C104 C 0.64473 0.56308 -0.0111 0.0
C105 C 0.5739 0.56938 -0.00662 0.0
C106 C 0.54847 0.60839 0.00069 0.0
C107 C 0.59198 0.63948 -0.00204 0.0
C108 C 0.52648 0.535 -0.01223 0.0
C109 C 0.47887 0.53469 0.01845 0.0
C110 C 0.52919 0.50205 0.95279 0.0
C111 C 0.57283 0.5016 0.91708 0.0
C112 C 0.56544 0.53113 0.89626 0.0
C113 C 0.6032 0.5289 0.86085 0.0
C114 C 0.6484 0.49724 0.84596 0.0
C115 C 0.65616 0.46782 0.86654 0.0
C116 C 0.61853 0.46993 0.90193 0.0
C117 C 0.28726 0.40324 -0.01559 0.0
C118 C 0.31897 0.36723 -0.01491 0.0
C119 C 0.32617 0.43555 0.98056 0.0
C120 C 0.39755 0.43234 0.97731 0.0
C121 C 0.42836 0.39493 0.97292 0.0
C122 C 0.38926 0.36254 0.97692 0.0
C123 C 0.44042 0.46836 0.98154 0.0
C124 C 0.48684 0.46908 0.95046 0.0
C125 C 0.43608 0.50181 0.01596 0.0
C126 C 0.39038 0.50279 0.05096 0.0
C127 C 0.39653 0.474 0.07279 0.0
C128 C 0.35543 0.47622 0.10693 0.0
C129 C 0.30819 0.50719 0.11962 0.0
C130 C 0.30186 0.53599 0.09816 0.0
C131 C 0.34286 0.53392 0.06402 0.0
H132 H 0.27664 0.50894 0.14616 0.0
H133 H 0.67727 0.49544 0.81841 0.0
H134 H 0.39904 0.66497 0.5125 0.0
H135 H 0.4643 0.60962 0.5268 0.0
H136 H 0.31959 0.52626 0.45542 0.0
H137 H 0.25256 0.58063 0.44492 0.0
H138 H 0.36294 0.49415 0.50488 0.0
H139 H 0.48417 0.56356 0.4166 0.0
H140 H 0.54091 0.6223 0.40386 0.0
H141 H 0.67657 0.62813 0.50423 0.0
H142 H 0.62041 0.56956 0.51757 0.0
H143 H 0.56887 0.32211 0.46084 0.0
H144 H 0.50214 0.37571 0.44462 0.0
H145 H 0.6538 0.46059 0.50609 0.0
H146 H 0.7235 0.40709 0.51611 0.0
H147 H 0.60469 0.49234 0.4611 0.0
H148 H 0.47733 0.42157 0.54987 0.0
H149 H 0.41408 0.36442 0.56175 0.0
H150 H 0.28618 0.36124 0.45864 0.0
H151 H 0.34878 0.41818 0.44617 0.0
C152 C 0.37991 0.6349 0.50172 0.0
C153 C 0.32138 0.62694 0.47716 0.0
C154 C 0.41789 0.60314 0.50904 0.0
C155 C 0.39874 0.56334 0.49066 0.0
C156 C 0.33645 0.55627 0.46977 0.0
C157 C 0.29796 0.5876 0.46365 0.0
C158 C 0.44464 0.52863 0.48908 0.0
C159 C 0.41598 0.49385 0.49541 0.0
C160 C 0.51385 0.52769 0.47666 0.0
C161 C 0.5479 0.56247 0.4682 0.0
C162 C 0.52607 0.57746 0.43591 0.0
C163 C 0.55809 0.61069 0.42862 0.0
C164 C 0.61223 0.62897 0.45327 0.0
C165 C 0.63463 0.61397 0.48518 0.0
C166 C 0.60282 0.58074 0.49258 0.0
C167 C 0.58939 0.35199 0.46843 0.0
C168 C 0.65124 0.36056 0.48974 0.0
C169 C 0.55014 0.38298 0.46054 0.0
C170 C 0.57035 0.42303 0.47622 0.0
C171 C 0.63566 0.4305 0.49369 0.0
C172 C 0.67616 0.39962 0.49931 0.0
C173 C 0.52374 0.4577 0.4779 0.0
C174 C 0.55204 0.49253 0.4712 0.0
C175 C 0.45399 0.45858 0.48981 0.0
C176 C 0.41808 0.42376 0.49691 0.0
C177 C 0.43596 0.40848 0.52968 0.0
C178 C 0.40017 0.37618 0.53652 0.0
C179 C 0.34625 0.35917 0.51093 0.0
C180 C 0.32798 0.37438 0.47841 0.0
C181 C 0.36354 0.40664 0.47146 0.0
H182 H 0.31854 0.33425 0.51634 0.0
H183 H 0.63689 0.65472 0.4476 0.0
H184 H 0.08336 0.11497 0.9062 0.0
H185 H 0.0107 0.06523 0.92205 0.0
H186 H 0.10528 0.08582 0.04012 0.0
H187 H 0.18165 0.13565 0.02318 0.0
H188 H 0.10349 0.00803 0.00152 0.0
H189 H 0.92965 0.10778 0.03011 0.0
H190 H 0.86556 0.16401 0.01689 0.0
H191 H 0.79565 0.089 0.90289 0.0
H192 H 0.85968 0.03239 0.91525 0.0
H193 H 0.88906 0.85472 0.03184 0.0
H194 H 0.95604 0.91269 0.03278 0.0
H195 H 0.84984 0.92578 0.92603 0.0
H196 H 0.77353 0.87122 0.93019 0.0
H197 H 0.85569 0.99259 0.97092 0.0
H198 H 0.04306 0.8958 0.93808 0.0
H199 H 0.10789 0.83958 0.95091 0.0
H200 H 0.15459 0.90954 0.07182 0.0
H201 H 0.08963 0.96603 0.05979 0.0
C202 C 0.08779 0.10976 0.93605 0.0
C203 C 0.13838 0.12914 0.96341 0.0
C204 C 0.04559 0.08134 0.94523 0.0
C205 C 0.05151 0.0718 -0.01751 0.0
C206 C 0.0995 0.09273 0.01116 0.0
C207 C 0.14263 0.12145 0.00174 0.0
C208 C 0.01242 0.03699 -0.01155 0.0
C209 C 0.04901 0.00492 -0.00435 0.0
C210 C 0.9415 0.03243 0.98002 0.0
C211 C 0.89953 0.06581 0.97363 0.0
C212 C 0.90047 0.10325 0.00226 0.0
C213 C 0.86421 0.13521 -0.0051 0.0
C214 C 0.82659 0.13008 0.95907 0.0
C215 C 0.82467 0.0929 0.93068 0.0
C216 C 0.8607 0.06081 0.93793 0.0
C217 C 0.88218 0.86865 0.00722 0.0
C218 C 0.82664 0.85786 0.98051 0.0
C219 C 0.92097 0.9023 0.00777 0.0
C220 C 0.91021 0.92397 0.97892 0.0
C221 C 0.85958 0.91017 0.94899 0.0
C222 C 0.81712 0.87807 0.95041 0.0
C223 C 0.94735 0.96249 0.98208 0.0
C224 C 0.91014 0.99545 0.9769 0.0
C225 C 0.01793 0.96782 -0.00785 0.0
C226 C 0.06145 0.93502 -0.00195 0.0
C227 C 0.06761 0.89923 0.96727 0.0
C228 C 0.10415 0.86729 0.97447 0.0
C229 C 0.13527 0.87098 0.01217 0.0
C230 C 0.13055 0.90674 0.04262 0.0
C231 C 0.09411 0.93877 0.03559 0.0
H232 H 0.16307 0.84611 0.01778 0.0
H233 H 0.79893 0.15492 0.95329 0.0
H234 H 0.9122 0.16478 0.48876 0.0
H235 H 0.98312 0.10958 0.49719 0.0
H236 H 0.80207 0.03872 0.49497 0.0
H237 H 0.73159 0.09387 0.48677 0.0
H238 H 0.89792 0.01855 0.54121 0.0
H239 H 0.88505 0.03453 0.40662 0.0
H240 H 0.89634 0.06366 0.34848 0.0
H241 H 0.11159 0.08008 0.37133 0.0
H242 H 0.10142 0.0515 0.42989 0.0
H243 H 0.07614 0.83322 0.47495 0.0
H244 H -0.00515 0.88524 0.46978 0.0
H245 H 0.16128 0.9683 0.4812 0.0
H246 H 0.24193 0.91664 0.48716 0.0
H247 H 0.06418 0.97833 0.42754 0.0
H248 H 0.07204 0.96104 0.56437 0.0
H249 H 0.05517 0.93007 0.62079 0.0
H250 H 0.84232 0.91292 0.59075 0.0
H251 H 0.85811 0.94328 0.53381 0.0
C252 C 0.88732 0.1384 0.49288 0.0
C253 C 0.81647 0.13352 0.48716 0.0
C254 C 0.928 0.10644 0.49652 0.0
C255 C 0.89801 0.0695 0.49497 0.0
C256 C 0.82647 0.06672 0.4956 0.0
C257 C 0.786 0.0986 0.4918 0.0
C258 C 0.94061 0.03303 0.48884 0.0
C259 C 0.93381 0.0095 0.51612 0.0
C260 C 0.98724 0.02108 0.45593 0.0
C261 C -0.00777 0.04148 0.42306 0.0
C262 C 0.93452 0.04507 0.39974 0.0
C263 C 0.94081 0.06127 0.36655 0.0
C264 C 0.00458 0.07385 0.35631 0.0
C265 C 0.06216 0.07047 0.37937 0.0
C266 C 0.05615 0.05433 0.41258 0.0
C267 C 0.09576 0.86187 0.47361 0.0
C268 C 0.16556 0.87074 0.48065 0.0
C269 C 0.049 0.89191 0.47199 0.0
C270 C 0.07185 0.93092 0.47638 0.0
C271 C 0.14244 0.93848 0.47819 0.0
C272 C 0.18887 0.90868 0.48046 0.0
C273 C 0.02321 0.96454 0.48063 0.0
C274 C 0.02832 0.98737 0.45267 0.0
C275 C 0.97446 0.97543 0.51259 0.0
C276 C 0.96663 0.95374 0.54429 0.0
C277 C 0.022 0.94987 0.56921 0.0
C278 C 0.0125 0.93266 0.60147 0.0
C279 C 0.9478 0.91937 0.60923 0.0
C280 C 0.89249 0.92304 0.5846 0.0
C281 C 0.90173 0.94017 0.55229 0.0
H282 H 0.94045 0.90639 0.63444 0.0
H283 H 0.00944 0.08608 0.33041 0.0
H284 H 0.64438 0.28163 0.38027 0.0
H285 H 0.59059 0.28496 0.31688 0.0
H286 H 0.47633 0.1784 0.3139 0.0
H287 H 0.53394 0.17366 0.37607 0.0
H288 H 0.54134 0.16965 0.24592 0.0
H289 H 0.40254 0.27382 0.32989 0.0
H290 H 0.38615 0.3361 0.38395 0.0
H291 H 0.49903 0.40021 0.31395 0.0
H292 H 0.51751 0.33819 0.25985 0.0
H293 H 0.31546 0.1872 0.08446 0.0
H294 H 0.37664 0.17634 0.14339 0.0
H295 H 0.51391 0.27241 0.14108 0.0
H296 H 0.45242 0.28346 0.08269 0.0
H297 H 0.43702 0.28593 0.21107 0.0
H298 H 0.57635 0.18304 0.12794 0.0
H299 H 0.59943 0.12083 0.07506 0.0
H300 H 0.48733 0.05488 0.14358 0.0
H301 H 0.4624 0.11683 0.19656 0.0
C302 C 0.60547 0.26 0.36702 0.0
C303 C 0.59244 0.2276 0.38294 0.0
C304 C 0.57505 0.26174 0.33066 0.0
C305 C 0.52936 0.2319 0.31071 0.0
C306 C 0.51172 0.20155 0.32875 0.0
C307 C 0.54363 0.19919 0.36447 0.0
C308 C 0.50552 0.23008 0.26923 0.0
C309 C 0.51727 0.19483 0.23841 0.0
C310 C 0.47643 0.26343 0.25938 0.0
C311 C 0.46182 0.30121 0.29087 0.0
C312 C 0.42399 0.30118 0.32602 0.0
C313 C 0.41444 0.33643 0.35673 0.0
C314 C 0.44166 0.37207 0.35244 0.0
C315 C 0.47803 0.37257 0.31726 0.0
C316 C 0.48802 0.33737 0.28654 0.0
C317 C 0.36088 0.20446 0.09536 0.0
C318 C 0.37979 0.23606 0.07956 0.0
C319 C 0.39545 0.19849 0.12905 0.0
C320 C 0.44899 0.22402 0.14668 0.0
C321 C 0.47236 0.25269 0.12792 0.0
C322 C 0.43773 0.25875 0.09453 0.0
C323 C 0.47254 0.22548 0.18799 0.0
C324 C 0.46067 0.2607 0.21873 0.0
C325 C 0.50134 0.19213 0.19775 0.0
C326 C 0.51682 0.15472 0.16606 0.0
C327 C 0.55601 0.15535 0.13158 0.0
C328 C 0.56953 0.12011 0.1016 0.0
C329 C 0.54467 0.08394 0.10589 0.0
C330 C 0.50644 0.08293 0.14026 0.0
C331 C 0.49262 0.11811 0.17029 0.0
H332 H 0.55518 0.05669 0.08264 0.0
H333 H 0.43454 0.39929 0.37635 0.0
H334 H 0.48472 0.76898 0.06214 0.0
H335 H 0.43865 0.76198 0.12717 0.0
H336 H 0.64449 0.7594 0.17246 0.0
H337 H 0.68912 0.76237 0.10716 0.0
H338 H 0.57241 0.71869 0.20662 0.0
H339 H 0.54609 0.85093 0.18667 0.0
H340 H 0.50643 0.8968 0.14739 0.0
H341 H 0.29937 0.85889 0.15564 0.0
H342 H 0.33793 0.81277 0.19489 0.0
H343 H 0.44975 0.77219 0.4122 0.0
H344 H 0.51559 0.78395 0.35469 0.0
H345 H 0.33057 0.77069 0.28336 0.0
H346 H 0.26569 0.75997 0.34022 0.0
H347 H 0.40867 0.82686 0.26835 0.0
H348 H 0.44011 0.6916 0.28615 0.0
H349 H 0.48375 0.644 0.32231 0.0
H350 H 0.68748 0.68817 0.31751 0.0
H351 H 0.64484 0.73641 0.28185 0.0
C352 C 0.5194 0.76578 0.0858 0.0
C353 C 0.59009 0.76691 0.0804 0.0
C354 C 0.49349 0.76214 0.1229 0.0
C355 C 0.5383 0.76181 0.1552 0.0
C356 C 0.60885 0.75999 0.14831 0.0
C357 C 0.63437 0.76208 0.11106 0.0
C358 C 0.51307 0.7677 0.19724 0.0
C359 C 0.53709 0.74258 0.22027 0.0
C360 C 0.4683 0.79936 0.21537 0.0
C361 C 0.44482 0.82852 0.19367 0.0
C362 C 0.49209 0.85259 0.18025 0.0
C363 C 0.46983 0.87854 0.15794 0.0
C364 C 0.40043 0.88076 0.14904 0.0
C365 C 0.35308 0.85721 0.16265 0.0
C366 C 0.37504 0.83128 0.18505 0.0
C367 C 0.42333 0.77337 0.38464 0.0
C368 C 0.35315 0.76508 0.38013 0.0
C369 C 0.46081 0.77964 0.35185 0.0
C370 C 0.42786 0.77764 0.31472 0.0
C371 C 0.3569 0.77247 0.31175 0.0
C372 C 0.3199 0.76625 0.34414 0.0
C373 C 0.46579 0.77692 0.27718 0.0
C374 C 0.4449 0.80338 0.25495 0.0
C375 C 0.51397 0.74673 0.26007 0.0
C376 C 0.5391 0.71803 0.28196 0.0
C377 C 0.49408 0.69142 0.2932 0.0
C378 C 0.51866 0.66429 0.31352 0.0
C379 C 0.58828 0.66319 0.32237 0.0
C380 C 0.63352 0.68916 0.31081 0.0
C381 C 0.60917 0.71642 0.29059 0.0
H382 H 0.6072 0.64212 0.33806 0.0
H383 H 0.38332 0.90073 0.1316 0.0
H384 H 0.71799 0.77161 0.86295 0.0
H385 H 0.6818 0.78187 0.79858 0.0
H386 H 0.47081 0.78481 0.83759 0.0
H387 H 0.50765 0.77036 0.90083 0.0
H388 H 0.48694 0.72821 0.77525 0.0
H389 H 0.5678 0.86519 0.80795 0.0
H390 H 0.65621 0.91653 0.83114 0.0
H391 H 0.7877 0.85593 0.73306 0.0
H392 H 0.70044 0.80397 0.70962 0.0
H393 H 0.31217 0.8187 0.64908 0.0
H394 H 0.39064 0.80918 0.70025 0.0
H395 H 0.5136 0.73025 0.60841 0.0
H396 H 0.43458 0.73971 0.55532 0.0
H397 H 0.56743 0.8086 0.68461 0.0
H398 H 0.45483 0.68264 0.64463 0.0
H399 H 0.3594 0.63551 0.62659 0.0
H400 H 0.27433 0.68008 0.74626 0.0
H401 H 0.36652 0.72923 0.76434 0.0
C402 C 0.66404 0.77619 0.85832 0.0
C403 C 0.61511 0.76993 0.88602 0.0
C404 C 0.64334 0.78217 0.8215 0.0
C405 C 0.57348 0.78343 0.81286 0.0
C406 C 0.52503 0.78311 0.84342 0.0
C407 C 0.54573 0.77532 0.8796 0.0
C408 C 0.55055 0.77703 0.7704 0.0
C409 C 0.50318 0.74648 0.75572 0.0
C410 C 0.57661 0.7985 0.74391 0.0
C411 C 0.62779 0.83059 0.7572 0.0
C412 C 0.61563 0.86279 0.7914 0.0
C413 C 0.66555 0.89198 0.8046 0.0
C414 C 0.72758 0.88945 0.78363 0.0
C415 C 0.73965 0.85786 0.74928 0.0
C416 C 0.68995 0.82858 0.73598 0.0
C417 C 0.35586 0.79937 0.63919 0.0
C418 C 0.36692 0.77969 0.59796 0.0
C419 C 0.40006 0.79374 0.66871 0.0
C420 C 0.45562 0.76803 0.65801 0.0
C421 C 0.46942 0.74946 0.61696 0.0
C422 C 0.42458 0.75495 0.58688 0.0
C423 C 0.49857 0.76265 0.6912 0.0
C424 C 0.55105 0.79042 0.70421 0.0
C425 C 0.47486 0.73968 0.71693 0.0
C426 C 0.41772 0.71047 0.70558 0.0
C427 C 0.41497 0.68333 0.66681 0.0
C428 C 0.36132 0.65605 0.65661 0.0
C429 C 0.31069 0.65489 0.6852 0.0
C430 C 0.31356 0.68099 0.72409 0.0
C431 C 0.36646 0.70872 0.73425 0.0
H432 H 0.26937 0.63366 0.67728 0.0
H433 H 0.76625 0.912 0.79398 0.0
H434 H 0.66939 0.17989 0.58297 0.0
H435 H 0.60949 0.17027 0.64314 0.0
H436 H 0.48349 0.27287 0.64704 0.0
H437 H 0.54184 0.28185 0.58669 0.0
H438 H 0.57674 0.27554 0.71725 0.0
H439 H 0.39977 0.20119 0.63459 0.0
H440 H 0.35976 0.14854 0.57564 0.0
H441 H 0.44945 0.05969 0.62589 0.0
H442 H 0.49122 0.11199 0.68488 0.0
H443 H 0.36631 0.28271 0.88989 0.0
H444 H 0.41478 0.28369 0.82423 0.0
H445 H 0.50212 0.16727 0.81114 0.0
H446 H 0.45292 0.16573 0.8766 0.0
H447 H 0.42741 0.17061 0.74423 0.0
H448 H 0.60067 0.24831 0.82972 0.0
H449 H 0.64029 0.30309 0.88684 0.0
H450 H 0.55617 0.38841 0.82975 0.0
H451 H 0.51466 0.33407 0.77261 0.0
C452 C 0.62622 0.19879 0.59538 0.0
C453 C 0.6093 0.2313 0.58043 0.0
C454 C 0.59281 0.19369 0.62991 0.0
C455 C 0.54315 0.22135 0.64956 0.0
C456 C 0.522 0.25148 0.63223 0.0
C457 C 0.55462 0.25624 0.5976 0.0
C458 C 0.51984 0.22214 0.69076 0.0
C459 C 0.54347 0.25292 0.7233 0.0
C460 C 0.47749 0.19223 0.6981 0.0
C461 C 0.4492 0.16052 0.66398 0.0
C462 C 0.41125 0.17044 0.63301 0.0
C463 C 0.38826 0.14067 0.59957 0.0
C464 C 0.40225 0.10079 0.59696 0.0
C465 C 0.43876 0.09061 0.62795 0.0
C466 C 0.46204 0.12031 0.66143 0.0
C467 C 0.39775 0.25787 0.87377 0.0
C468 C 0.40556 0.22403 0.88835 0.0
C469 C 0.42488 0.25832 0.83602 0.0
C470 C 0.4613 0.22532 0.8127 0.0
C471 C 0.47341 0.19278 0.82852 0.0
C472 C 0.44608 0.19221 0.86614 0.0
C473 C 0.48446 0.22411 0.77113 0.0
C474 C 0.46084 0.19324 0.73839 0.0
C475 C 0.52649 0.25427 0.76353 0.0
C476 C 0.55396 0.28705 0.79703 0.0
C477 C 0.59029 0.27873 0.8294 0.0
C478 C 0.61304 0.30971 0.86181 0.0
C479 C 0.60056 0.34919 0.86197 0.0
C480 C 0.56567 0.35779 0.82959 0.0
C481 C 0.54254 0.3269 0.79717 0.0
H482 H 0.61805 0.37308 0.88715 0.0
H483 H 0.38468 0.07778 0.57095 0.0
H484 H 0.9065 0.70269 0.05634 0.0
H485 H 0.97438 0.68662 0.11106 0.0
H486 H 0.86881 0.77903 0.20007 0.0
H487 H 0.80188 0.79484 0.14715 0.0
H488 H 0.01428 0.78423 0.2019 0.0
H489 H 0.82542 0.69153 0.19209 0.0
H490 H 0.75412 0.63283 0.16266 0.0
H491 H 0.92986 0.55688 0.15332 0.0
H492 H 0.00259 0.6153 0.18187 0.0
H493 H 0.05054 0.77673 0.40792 0.0
H494 H 0.01014 0.78096 0.34082 0.0
H495 H 0.10813 0.66867 0.28455 0.0
H496 H 0.14454 0.66327 0.35052 0.0
H497 H 0.98741 0.6675 0.25722 0.0
H498 H 0.1737 0.76266 0.27592 0.0
H499 H 0.23951 0.82314 0.30853 0.0
H500 H 0.06325 0.89562 0.30551 0.0
H501 H -0.00372 0.83587 0.27302 0.0
C502 C 0.8977 0.71921 0.08766 0.0
C503 C 0.84985 0.75053 0.0973 0.0
C504 C 0.93629 0.71004 0.11871 0.0
C505 C 0.9268 0.7321 0.15932 0.0
C506 C 0.8774 0.76212 0.16882 0.0
C507 C 0.83936 0.77117 0.13832 0.0
C508 C 0.96919 0.72631 0.19287 0.0
C509 C 0.00915 0.75856 0.21397 0.0
C510 C 0.96282 0.69259 0.20797 0.0
C511 C 0.91982 0.65793 0.18811 0.0
C512 C 0.84925 0.66246 0.18282 0.0
C513 C 0.80845 0.62918 0.16655 0.0
C514 C 0.83752 0.59117 0.15585 0.0
C515 C 0.90748 0.58636 0.16133 0.0
C516 C 0.94853 0.61955 0.17744 0.0
C517 C 0.06198 0.75276 0.38117 0.0
C518 C 0.09851 0.71918 0.38462 0.0
C519 C 0.04021 0.75547 0.34288 0.0
C520 C 0.05685 0.72524 0.30766 0.0
C521 C 0.09425 0.69215 0.31126 0.0
C522 C 0.11424 0.68894 0.34922 0.0
C523 C 0.03128 0.72598 0.26713 0.0
C524 C -0.00536 0.69274 0.24473 0.0
C525 C 0.04005 0.75905 0.2511 0.0
C526 C 0.07982 0.79472 0.27229 0.0
C527 C 0.14878 0.79145 0.2826 0.0
C528 C 0.18636 0.82559 0.30092 0.0
C529 C 0.15557 0.86307 0.30917 0.0
C530 C 0.08707 0.86657 0.29914 0.0
C531 C 0.04932 0.83261 0.28071 0.0
H532 H 0.18486 0.88942 0.32324 0.0
H533 H 0.80575 0.56543 0.14355 0.0
H534 H 0.97474 0.26109 0.4069 0.0
H535 H 0.02879 0.27534 0.34688 0.0
H536 H 0.82952 0.28205 0.29498 0.0
H537 H 0.77594 0.26966 0.35501 0.0
H538 H 0.94227 0.21346 0.25649 0.0
H539 H 0.87981 0.3546 0.30108 0.0
H540 H 0.88067 0.42081 0.35018 0.0
H541 H 0.10016 0.42187 0.34664 0.0
H542 H 0.10051 0.35528 0.29795 0.0
H543 H 0.00541 0.25127 0.0598 0.0
H544 H 0.95476 0.24721 0.12512 0.0
H545 H 0.1475 0.28308 0.1852 0.0
H546 H 0.19727 0.28695 0.12115 0.0
H547 H 0.03836 0.33103 0.2203 0.0
H548 H 0.10471 0.19335 0.17497 0.0
H549 H 0.1089 0.12814 0.12415 0.0
H550 H 0.89017 0.11972 0.12853 0.0
H551 H 0.88465 0.18519 0.17913 0.0
C552 C 0.94298 0.26779 0.38356 0.0
C553 C 0.87171 0.26462 0.38505 0.0
C554 C 0.97355 0.2755 0.34939 0.0
C555 C 0.93259 0.27923 0.31684 0.0
C556 C 0.86142 0.27943 0.32011 0.0
C557 C 0.83108 0.27267 0.35437 0.0
C558 C 0.96285 0.27642 0.27701 0.0
C559 C 0.96298 0.23911 0.2483 0.0
C560 C 0.99026 0.30988 0.26714 0.0
C561 C 0.99019 0.34974 0.29646 0.0
C562 C 0.92825 0.36871 0.31122 0.0
C563 C 0.92851 0.40637 0.33884 0.0
C564 C 0.99045 0.42546 0.35167 0.0
C565 C 0.05224 0.40699 0.33678 0.0
C566 C 0.05223 0.3693 0.30917 0.0
C567 C 0.03657 0.25751 0.087 0.0
C568 C 0.10442 0.26983 0.08617 0.0
C569 C 0.00802 0.25529 0.12397 0.0
C570 C 0.04764 0.26546 0.15964 0.0
C571 C 0.1163 0.27562 0.15797 0.0
C572 C 0.14453 0.27764 0.12147 0.0
C573 C 0.01754 0.26811 0.19955 0.0
C574 C 0.01762 0.30531 0.22836 0.0
C575 C 0.991 0.23444 0.20957 0.0
C576 C -0.0058 0.1943 0.18058 0.0
C577 C 0.05747 0.17764 0.16501 0.0
C578 C 0.06011 0.14064 0.13627 0.0
C579 C -0.00019 0.11984 0.12304 0.0
C580 C 0.93682 0.13588 0.13881 0.0
C581 C 0.93391 0.17291 0.16758 0.0
H582 H 0.00191 0.09129 0.10062 0.0
H583 H 0.99054 0.45464 0.37304 0.0
H584 H 0.98897 0.28421 0.56631 0.0
H585 H 0.04352 0.28273 0.63117 0.0
H586 H 0.84884 0.25524 0.67675 0.0
H587 H 0.79582 0.25422 0.61188 0.0
H588 H 0.92168 0.32537 0.72673 0.0
H589 H 0.94042 0.18722 0.65995 0.0
H590 H 0.97011 0.12914 0.60339 0.0
H591 H 0.18258 0.1604 0.61784 0.0
H592 H 0.15387 0.21943 0.6738 0.0
H593 H 0.0344 0.25762 0.9014 0.0
H594 H 0.97565 0.27263 0.84344 0.0
H595 H 0.1707 0.29339 0.79337 0.0
H596 H 0.22902 0.27799 0.85066 0.0
H597 H 0.09341 0.22743 0.74671 0.0
H598 H 0.06753 0.36722 0.81752 0.0
H599 H 0.03051 0.4216 0.87609 0.0
H600 H 0.82275 0.38138 0.85757 0.0
H601 H 0.85873 0.3264 0.79916 0.0
C602 C 0.95897 0.27646 0.5898 0.0
C603 C 0.88899 0.26869 0.5844 0.0
C604 C 0.98954 0.27614 0.62671 0.0
C605 C 0.94943 0.26946 0.65845 0.0
C606 C 0.88004 0.26066 0.65248 0.0
C607 C 0.85024 0.25963 0.61539 0.0
C608 C 0.97923 0.27232 0.69839 0.0
C609 C 0.95912 0.30398 0.73133 0.0
C610 C 0.02712 0.24401 0.70385 0.0
C611 C 0.04485 0.20821 0.67061 0.0
C612 C -0.00661 0.18207 0.65072 0.0
C613 C 0.01003 0.14891 0.61881 0.0
C614 C 0.07816 0.14119 0.6069 0.0
C615 C 0.12978 0.16653 0.627 0.0
C616 C 0.11334 0.19988 0.65878 0.0
C617 C 0.06401 0.26702 0.87874 0.0
C618 C 0.13557 0.26641 0.87953 0.0
C619 C 0.03074 0.2755 0.84586 0.0
C620 C 0.0694 0.28355 0.81427 0.0
C621 C 0.14055 0.28698 0.81754 0.0
C622 C 0.17359 0.27829 0.85006 0.0
C623 C 0.03781 0.28128 0.77488 0.0
C624 C 0.05675 0.24921 0.74207 0.0
C625 C 0.98795 0.30877 0.76986 0.0
C626 C 0.96591 0.34254 0.80414 0.0
C627 C 0.014 0.36985 0.82605 0.0
C628 C -0.0068 0.4008 0.85921 0.0
C629 C 0.92435 0.40489 0.8706 0.0
C630 C 0.87608 0.37816 0.84871 0.0
C631 C 0.89663 0.34714 0.81553 0.0
H632 H 0.90838 0.42881 0.89634 0.0
H633 H 0.09095 0.11549 0.58219 0.0
H634 H 0.05788 0.80665 0.61394 0.0
H635 H 0.02629 0.79074 0.67568 0.0
H636 H 0.07969 0.66779 0.62294 0.0
H637 H 0.11622 0.6839 0.55972 0.0
H638 H 0.94411 0.68783 0.66486 0.0
H639 H 0.18385 0.71807 0.688 0.0
H640 H 0.29058 0.7561 0.69482 0.0
H641 H 0.19734 0.8525 0.78429 0.0
H642 H 0.08869 0.81592 0.77653 0.0
H643 H 0.89858 0.65253 0.8577 0.0
H644 H 0.95087 0.65537 0.79364 0.0
H645 H 0.93591 0.78338 0.83014 0.0
H646 H 0.88075 0.78068 0.89412 0.0
H647 H 0.0595 0.75313 0.79492 0.0
H648 H 0.82276 0.73929 0.76644 0.0
H649 H 0.70494 0.71323 0.75923 0.0
H650 H 0.77663 0.60238 0.68193 0.0
H651 H 0.89498 0.62747 0.68889 0.0
C652 C 0.06263 0.77589 0.61459 0.0
C653 C 0.08999 0.74644 0.58153 0.0
C654 C 0.04515 0.76711 0.65043 0.0
C655 C 0.05252 0.7285 0.65404 0.0
C656 C 0.07534 0.69805 0.62062 0.0
C657 C 0.09521 0.70713 0.58454 0.0
C658 C 0.03207 0.7209 0.69266 0.0
C659 C 0.9703 0.70094 0.69331 0.0
C660 C 0.06417 0.74074 0.72969 0.0
C661 C 0.12792 0.76412 0.73155 0.0
C662 C 0.18554 0.74768 0.70849 0.0
C663 C 0.2466 0.76904 0.71269 0.0
C664 C 0.2511 0.80658 0.74032 0.0
C665 C 0.19395 0.82335 0.76304 0.0
C666 C 0.1325 0.8024 0.75857 0.0
C667 C 0.90859 0.6814 0.85267 0.0
C668 C 0.88569 0.71644 0.88065 0.0
C669 C 0.93701 0.68284 0.8158 0.0
C670 C 0.94463 0.71939 0.80692 0.0
C671 C 0.92878 0.75483 0.8365 0.0
C672 C 0.899 0.75338 0.87333 0.0
C673 C 0.97161 0.72037 0.76709 0.0
C674 C 0.03411 0.73924 0.76639 0.0
C675 C 0.93838 0.70135 0.73023 0.0
C676 C 0.86813 0.68498 0.72892 0.0
C677 C 0.81372 0.70904 0.74864 0.0
C678 C 0.74673 0.69457 0.74436 0.0
C679 C 0.73341 0.65615 0.72039 0.0
C680 C 0.78706 0.63206 0.70068 0.0
C681 C 0.8541 0.64638 0.70479 0.0
H682 H 0.68147 0.64513 0.71692 0.0
H683 H 0.29871 0.82279 0.74428 0.0
loop_
_geom_bond_atom_site_label_1
_geom_bond_atom_site_label_2
_geom_bond_distance
_geom_bond_site_symmetry_2
_ccdc_geom_bond_type
O0 Mn1 2.147 1_556 S
O0 C14 1.244 . S
Mn1 O0 2.147 1_554 S
Mn1 O4 2.175 . S
Mn1 O5 2.224 . S
Mn1 O7 2.178 . S
Mn1 O9 2.145 1_554 S
Mn1 O19 2.219 1_554 S
O2 Mn3 2.087 . S
O2 C14 1.256 . S
Mn3 O2 2.087 . S
Mn3 O10 2.089 . S
Mn3 O19 2.290 . S
Mn3 O20 2.251 . S
O4 Mn1 2.175 . S
O4 C15 1.239 . S
O5 Mn1 2.224 . S
O5 Mn6 2.290 . S
O5 C16 1.278 . S
Mn6 O5 2.290 . S
Mn6 O8 2.089 . S
Mn6 O11 2.251 . S
Mn6 O12 2.087 . S
O7 Mn1 2.178 . S
O7 C17 1.244 . S
O8 Mn6 2.089 . S
O8 C15 1.256 . S
O9 Mn1 2.145 1_556 S
O9 C18 1.239 . S
O10 Mn3 2.089 . S
O10 C18 1.256 . S
O11 Mn6 2.251 . S
O11 C16 1.241 . S
O12 Mn6 2.087 . S
O12 C17 1.256 . S
C13 O19 1.278 . S
C13 O20 1.241 . S
C14 O0 1.244 . S
C14 O2 1.256 . S
C15 O4 1.239 . S
C15 O8 1.256 . S
C16 O5 1.278 . S
C16 O11 1.241 . S
C17 O7 1.244 . S
C17 O12 1.256 . S
C18 O9 1.239 . S
C18 O10 1.256 . S
O19 Mn1 2.219 1_556 S
O19 Mn3 2.290 . S
O19 C13 1.278 . S
O20 Mn3 2.251 . S
O20 C13 1.241 . S
O21 Mn22 2.147 1_556 S
O21 C35 1.244 . S
Mn22 O21 2.147 1_554 S
Mn22 O25 2.175 . S
Mn22 O26 2.224 . S
Mn22 O28 2.178 . S
Mn22 O30 2.145 1_554 S
Mn22 O40 2.219 1_554 S
O23 Mn24 2.087 . S
O23 C35 1.256 . S
Mn24 O23 2.087 . S
Mn24 O31 2.089 . S
Mn24 O40 2.290 . S
Mn24 O41 2.251 . S
O25 Mn22 2.175 . S
O25 C36 1.239 . S
O26 Mn22 2.224 . S
O26 Mn27 2.290 . S
O26 C37 1.278 . S
Mn27 O26 2.290 . S
Mn27 O29 2.089 . S
Mn27 O32 2.251 . S
Mn27 O33 2.087 . S
O28 Mn22 2.178 . S
O28 C38 1.244 . S
O29 Mn27 2.089 . S
O29 C36 1.256 . S
O30 Mn22 2.145 1_556 S
O30 C39 1.239 . S
O31 Mn24 2.089 . S
O31 C39 1.256 . S
O32 Mn27 2.251 . S
O32 C37 1.241 . S
O33 Mn27 2.087 . S
O33 C38 1.256 . S
C34 O40 1.278 . S
C34 O41 1.241 . S
C35 O21 1.244 . S
C35 O23 1.256 . S
C36 O25 1.239 . S
C36 O29 1.256 . S
C37 O26 1.278 . S
C37 O32 1.241 . S
C38 O28 1.244 . S
C38 O33 1.256 . S
C39 O30 1.239 . S
C39 O31 1.256 . S
O40 Mn22 2.219 1_556 S
O40 Mn24 2.290 . S
O40 C34 1.278 . S
O41 Mn24 2.251 . S
O41 C34 1.241 . S
O42 Mn43 2.163 . S
O42 C56 1.244 . S
Mn43 O42 2.163 . S
Mn43 O46 2.160 . S
Mn43 O47 2.221 . S
Mn43 O49 2.163 . S
Mn43 O51 2.160 . S
Mn43 O61 2.221 . S
O44 Mn45 2.087 . S
O44 C56 1.256 . S
Mn45 O44 2.087 . S
Mn45 O52 2.089 . S
Mn45 O61 2.290 . S
Mn45 O62 2.251 . S
O46 Mn43 2.160 . S
O46 C57 1.239 . S
O47 Mn43 2.221 . S
O47 Mn48 2.290 . S
O47 C58 1.278 . S
Mn48 O47 2.290 . S
Mn48 O50 2.089 . S
Mn48 O53 2.251 . S
Mn48 O54 2.087 . S
O49 Mn43 2.163 . S
O49 C59 1.244 . S
O50 Mn48 2.089 . S
O50 C57 1.256 . S
O51 Mn43 2.160 . S
O51 C60 1.239 . S
O52 Mn45 2.089 . S
O52 C60 1.256 . S
O53 Mn48 2.251 . S
O53 C58 1.241 . S
O54 Mn48 2.087 . S
O54 C59 1.256 . S
C55 O61 1.278 . S
C55 O62 1.241 . S
C56 O42 1.244 . S
C56 O44 1.256 . S
C57 O46 1.239 . S
C57 O50 1.256 . S
C58 O47 1.278 . S
C58 O53 1.241 . S
C59 O49 1.244 . S
C59 O54 1.256 . S
C60 O51 1.239 . S
C60 O52 1.256 . S
O61 Mn43 2.221 . S
O61 Mn45 2.290 . S
O61 C55 1.278 . S
O62 Mn45 2.251 . S
O62 C55 1.241 . S
O63 Mn64 2.163 . S
O63 C77 1.244 . S
Mn64 O63 2.163 . S
Mn64 O67 2.160 . S
Mn64 O68 2.221 . S
Mn64 O70 2.163 . S
Mn64 O72 2.160 . S
Mn64 O82 2.221 . S
O65 Mn66 2.087 . S
O65 C77 1.256 . S
Mn66 O65 2.087 . S
Mn66 O73 2.089 . S
Mn66 O82 2.290 . S
Mn66 O83 2.251 . S
O67 Mn64 2.160 . S
O67 C78 1.239 . S
O68 Mn64 2.221 . S
O68 Mn69 2.290 . S
O68 C79 1.278 . S
Mn69 O68 2.290 . S
Mn69 O71 2.089 . S
Mn69 O74 2.251 . S
Mn69 O75 2.087 . S
O70 Mn64 2.163 . S
O70 C80 1.244 . S
O71 Mn69 2.089 . S
O71 C78 1.256 . S
O72 Mn64 2.160 . S
O72 C81 1.239 . S
O73 Mn66 2.089 . S
O73 C81 1.256 . S
O74 Mn69 2.251 . S
O74 C79 1.241 . S
O75 Mn69 2.087 . S
O75 C80 1.256 . S
C76 O82 1.278 . S
C76 O83 1.241 . S
C77 O63 1.244 . S
C77 O65 1.256 . S
C78 O67 1.239 . S
C78 O71 1.256 . S
C79 O68 1.278 . S
C79 O74 1.241 . S
C80 O70 1.244 . S
C80 O75 1.256 . S
C81 O72 1.239 . S
C81 O73 1.256 . S
O82 Mn64 2.221 . S
O82 Mn66 2.290 . S
O82 C76 1.278 . S
O83 Mn66 2.251 . S
O83 C76 1.241 . S
H84 C102 0.951 . S
H85 C104 0.951 . S
H86 C106 0.950 . S
H87 C107 0.950 . S
H88 C109 0.950 . S
H89 C112 0.950 . S
H90 C113 0.950 . S
H91 C115 0.950 . S
H92 C116 0.950 . S
H93 C117 0.951 . S
H94 C119 0.951 . S
H95 C121 0.950 . S
H96 C122 0.950 . S
H97 C124 0.950 . S
H98 C127 0.950 . S
H99 C128 0.950 . S
H100 C130 0.950 . S
H101 C131 0.950 . S
C102 H84 0.951 . S
C102 C103 1.368 1_556 S
C102 C104 1.388 . S
C103 C102 1.368 1_554 S
C103 C107 1.386 . S
C104 H85 0.951 . S
C104 C102 1.388 . S
C104 C105 1.366 . S
C105 C104 1.366 . S
C105 C106 1.414 1_556 S
C105 C108 1.504 . S
C106 H86 0.950 . S
C106 C105 1.414 1_554 S
C106 C107 1.374 . S
C107 H87 0.950 . S
C107 C103 1.386 . S
C107 C106 1.374 . S
C108 C105 1.504 . S
C108 C109 1.354 1_556 S
C108 C110 1.402 . S
C109 H88 0.950 . S
C109 C108 1.354 1_554 S
C109 C125 1.377 . S
C110 C108 1.402 . S
C110 C111 1.524 . S
C110 C124 1.377 . S
C111 C110 1.524 . S
C111 C112 1.397 . S
C111 C116 1.363 . S
C112 H89 0.950 . S
C112 C111 1.397 . S
C112 C113 1.334 . S
C113 H90 0.950 . S
C113 C112 1.334 . S
C113 C114 1.287 . S
C114 C113 1.287 . S
C114 C115 1.524 . S
C114 H133 0.913 . S
C115 H91 0.950 . S
C115 C114 1.524 . S
C115 C116 1.415 . S
C116 H92 0.950 . S
C116 C111 1.363 . S
C116 C115 1.415 . S
C117 H93 0.951 . S
C117 C118 1.366 . S
C117 C119 1.388 . S
C118 C117 1.366 . S
C118 C122 1.385 1_554 S
C119 H94 0.951 . S
C119 C117 1.388 . S
C119 C120 1.366 . S
C120 C119 1.366 . S
C120 C121 1.414 1_554 S
C120 C123 1.499 . S
C121 H95 0.950 . S
C121 C120 1.414 1_556 S
C121 C122 1.374 . S
C122 H96 0.950 . S
C122 C118 1.385 1_556 S
C122 C121 1.374 . S
C123 C120 1.499 . S
C123 C124 1.373 1_554 S
C123 C125 1.389 . S
C124 H97 0.950 . S
C124 C110 1.377 . S
C124 C123 1.373 1_556 S
C125 C109 1.377 . S
C125 C123 1.389 . S
C125 C126 1.524 . S
C126 C125 1.524 . S
C126 C127 1.397 . S
C126 C131 1.363 . S
C127 H98 0.950 . S
C127 C126 1.397 . S
C127 C128 1.334 . S
C128 H99 0.950 . S
C128 C127 1.334 . S
C128 C129 1.287 . S
C129 C128 1.287 . S
C129 C130 1.524 . S
C129 H132 0.999 . S
C130 H100 0.950 . S
C130 C129 1.524 . S
C130 C131 1.415 . S
C131 H101 0.950 . S
C131 C126 1.363 . S
C131 C130 1.415 . S
H132 C129 0.999 . S
H133 C114 0.913 . S
H134 C152 0.951 . S
H135 C154 0.951 . S
H136 C156 0.950 . S
H137 C157 0.950 . S
H138 C159 0.950 . S
H139 C162 0.950 . S
H140 C163 0.950 . S
H141 C165 0.950 . S
H142 C166 0.950 . S
H143 C167 0.951 . S
H144 C169 0.951 . S
H145 C171 0.950 . S
H146 C172 0.950 . S
H147 C174 0.950 . S
H148 C177 0.950 . S
H149 C178 0.950 . S
H150 C180 0.950 . S
H151 C181 0.950 . S
C152 H134 0.951 . S
C152 C153 1.366 . S
C152 C154 1.388 . S
C153 C152 1.366 . S
C153 C157 1.385 . S
C154 H135 0.951 . S
C154 C152 1.388 . S
C154 C155 1.366 . S
C155 C154 1.366 . S
C155 C156 1.414 . S
C155 C158 1.499 . S
C156 H136 0.950 . S
C156 C155 1.414 . S
C156 C157 1.374 . S
C157 H137 0.950 . S
C157 C153 1.385 . S
C157 C156 1.374 . S
C158 C155 1.499 . S
C158 C159 1.373 . S
C158 C160 1.389 . S
C159 H138 0.950 . S
C159 C158 1.373 . S
C159 C175 1.377 . S
C160 C158 1.389 . S
C160 C161 1.524 . S
C160 C174 1.377 . S
C161 C160 1.524 . S
C161 C162 1.397 . S
C161 C166 1.363 . S
C162 H139 0.950 . S
C162 C161 1.397 . S
C162 C163 1.334 . S
C163 H140 0.950 . S
C163 C162 1.334 . S
C163 C164 1.287 . S
C164 C163 1.287 . S
C164 C165 1.524 . S
C164 H183 0.913 . S
C165 H141 0.950 . S
C165 C164 1.524 . S
C165 C166 1.415 . S
C166 H142 0.950 . S
C166 C161 1.363 . S
C166 C165 1.415 . S
C167 H143 0.951 . S
C167 C168 1.366 . S
C167 C169 1.388 . S
C168 C167 1.366 . S
C168 C172 1.385 . S
C169 H144 0.951 . S
C169 C167 1.388 . S
C169 C170 1.366 . S
C170 C169 1.366 . S
C170 C171 1.414 . S
C170 C173 1.499 . S
C171 H145 0.950 . S
C171 C170 1.414 . S
C171 C172 1.374 . S
C172 H146 0.950 . S
C172 C168 1.385 . S
C172 C171 1.374 . S
C173 C170 1.499 . S
C173 C174 1.373 . S
C173 C175 1.389 . S
C174 H147 0.950 . S
C174 C160 1.377 . S
C174 C173 1.373 . S
C175 C159 1.377 . S
C175 C173 1.389 . S
C175 C176 1.524 . S
C176 C175 1.524 . S
C176 C177 1.397 . S
C176 C181 1.363 . S
C177 H148 0.950 . S
C177 C176 1.397 . S
C177 C178 1.334 . S
C178 H149 0.950 . S
C178 C177 1.334 . S
C178 C179 1.287 . S
C179 C178 1.287 . S
C179 C180 1.524 . S
C179 H182 0.999 . S
C180 H150 0.950 . S
C180 C179 1.524 . S
C180 C181 1.415 . S
C181 H151 0.950 . S
C181 C176 1.363 . S
C181 C180 1.415 . S
H182 C179 0.999 . S
H183 C164 0.913 . S
H184 C202 0.951 . S
H185 C204 0.951 . S
H186 C206 0.950 . S
H187 C207 0.950 . S
H188 C209 0.950 . S
H189 C212 0.950 . S
H190 C213 0.950 . S
H191 C215 0.950 . S
H192 C216 0.950 . S
H193 C217 0.951 . S
H194 C219 0.951 . S
H195 C221 0.950 . S
H196 C222 0.950 . S
H197 C224 0.952 1_565 S
H198 C227 0.950 . S
H199 C228 0.950 . S
H200 C230 0.950 . S
H201 C231 0.950 . S
C202 H184 0.951 . S
C202 C203 1.356 1_556 S
C202 C204 1.388 . S
C203 C202 1.356 1_554 S
C203 C207 1.398 . S
C204 H185 0.951 . S
C204 C202 1.388 . S
C204 C205 1.366 1_556 S
C205 C204 1.366 1_554 S
C205 C206 1.414 . S
C205 C208 1.499 . S
C206 H186 0.950 . S
C206 C205 1.414 . S
C206 C207 1.374 . S
C207 H187 0.950 . S
C207 C203 1.398 . S
C207 C206 1.374 . S
C208 C205 1.499 . S
C208 C209 1.373 . S
C208 C210 1.389 1_454 S
C209 H188 0.950 . S
C209 C208 1.373 . S
C209 C225 1.377 1_545 S
C210 C208 1.389 1_656 S
C210 C211 1.524 . S
C210 C224 1.395 . S
C211 C210 1.524 . S
C211 C212 1.397 1_556 S
C211 C216 1.363 . S
C212 H189 0.950 . S
C212 C211 1.397 1_554 S
C212 C213 1.334 . S
C213 H190 0.950 . S
C213 C212 1.334 . S
C213 C214 1.287 1_554 S
C214 C213 1.287 1_556 S
C214 C215 1.524 . S
C214 H233 0.913 . S
C215 H191 0.950 . S
C215 C214 1.524 . S
C215 C216 1.415 . S
C216 H192 0.950 . S
C216 C211 1.363 . S
C216 C215 1.415 . S
C217 H193 0.951 . S
C217 C218 1.366 . S
C217 C219 1.388 . S
C218 C217 1.366 . S
C218 C222 1.385 1_554 S
C219 H194 0.951 . S
C219 C217 1.388 . S
C219 C220 1.366 . S
C220 C219 1.366 . S
C220 C221 1.414 1_554 S
C220 C223 1.497 1_554 S
C221 H195 0.950 . S
C221 C220 1.414 1_556 S
C221 C222 1.374 . S
C222 H196 0.950 . S
C222 C218 1.385 1_556 S
C222 C221 1.374 . S
C223 C220 1.497 1_556 S
C223 C224 1.357 1_565 S
C223 C225 1.387 1_656 S
C224 H197 0.952 1_545 S
C224 C210 1.395 . S
C224 C223 1.357 1_545 S
C225 C209 1.377 1_565 S
C225 C223 1.387 1_454 S
C225 C226 1.524 . S
C226 C225 1.524 . S
C226 C227 1.397 1_554 S
C226 C231 1.363 . S
C227 H198 0.950 . S
C227 C226 1.397 1_556 S
C227 C228 1.334 . S
C228 H199 0.950 . S
C228 C227 1.334 . S
C228 C229 1.287 1_556 S
C229 C228 1.287 1_554 S
C229 C230 1.524 . S
C229 H232 0.999 . S
C230 H200 0.950 . S
C230 C229 1.524 . S
C230 C231 1.415 . S
C231 H201 0.950 . S
C231 C226 1.363 . S
C231 C230 1.415 . S
H232 C229 0.999 . S
H233 C214 0.913 . S
H234 C252 0.951 . S
H235 C254 0.951 . S
H236 C256 0.950 . S
H237 C257 0.950 . S
H238 C259 0.950 . S
H239 C262 0.950 . S
H240 C263 0.950 . S
H241 C265 0.950 . S
H242 C266 0.950 . S
H243 C267 0.951 . S
H244 C269 0.951 1_655 S
H245 C271 0.950 . S
H246 C272 0.950 . S
H247 C274 0.950 . S
H248 C277 0.950 . S
H249 C278 0.950 . S
H250 C280 0.950 . S
H251 C281 0.950 . S
C252 H234 0.951 . S
C252 C253 1.366 . S
C252 C254 1.388 . S
C253 C252 1.366 . S
C253 C257 1.385 . S
C254 H235 0.951 . S
C254 C252 1.388 . S
C254 C255 1.366 . S
C255 C254 1.366 . S
C255 C256 1.414 . S
C255 C258 1.499 . S
C256 H236 0.950 . S
C256 C255 1.414 . S
C256 C257 1.374 . S
C257 H237 0.950 . S
C257 C253 1.385 . S
C257 C256 1.374 . S
C258 C255 1.499 . S
C258 C259 1.373 . S
C258 C260 1.389 . S
C259 H238 0.950 . S
C259 C258 1.373 . S
C259 C275 1.377 1_545 S
C260 C258 1.389 . S
C260 C261 1.524 1_655 S
C260 C274 1.377 1_645 S
C261 C260 1.524 1_455 S
C261 C262 1.397 1_455 S
C261 C266 1.363 . S
C262 H239 0.950 . S
C262 C261 1.397 1_655 S
C262 C263 1.334 . S
C263 H240 0.950 . S
C263 C262 1.334 . S
C263 C264 1.287 1_655 S
C264 C263 1.287 1_455 S
C264 C265 1.524 . S
C264 H283 0.913 . S
C265 H241 0.950 . S
C265 C264 1.524 . S
C265 C266 1.415 . S
C266 H242 0.950 . S
C266 C261 1.363 . S
C266 C265 1.415 . S
C267 H243 0.951 . S
C267 C268 1.366 . S
C267 C269 1.388 . S
C268 C267 1.366 . S
C268 C272 1.385 . S
C269 H244 0.951 1_455 S
C269 C267 1.388 . S
C269 C270 1.366 . S
C270 C269 1.366 . S
C270 C271 1.414 . S
C270 C273 1.499 . S
C271 H245 0.950 . S
C271 C270 1.414 . S
C271 C272 1.374 . S
C272 H246 0.950 . S
C272 C268 1.385 . S
C272 C271 1.374 . S
C273 C270 1.499 . S
C273 C274 1.373 . S
C273 C275 1.389 1_455 S
C274 H247 0.950 . S
C274 C260 1.377 1_465 S
C274 C273 1.373 . S
C275 C259 1.377 1_565 S
C275 C273 1.389 1_655 S
C275 C276 1.524 . S
C276 C275 1.524 . S
C276 C277 1.397 1_655 S
C276 C281 1.363 . S
C277 H248 0.950 . S
C277 C276 1.397 1_455 S
C277 C278 1.334 . S
C278 H249 0.950 . S
C278 C277 1.334 . S
C278 C279 1.287 1_455 S
C279 C278 1.287 1_655 S
C279 C280 1.524 . S
C279 H282 0.999 . S
C280 H250 0.950 . S
C280 C279 1.524 . S
C280 C281 1.415 . S
C281 H251 0.950 . S
C281 C276 1.363 . S
C281 C280 1.415 . S
H282 C279 0.999 . S
H283 C264 0.913 . S
H284 C302 0.951 . S
H285 C304 0.951 . S
H286 C306 0.950 . S
H287 C307 0.950 . S
H288 C309 0.950 . S
H289 C312 0.950 . S
H290 C313 0.950 . S
H291 C315 0.950 . S
H292 C316 0.950 . S
H293 C317 0.951 . S
H294 C319 0.951 . S
H295 C321 0.950 . S
H296 C322 0.950 . S
H297 C324 0.950 . S
H298 C327 0.950 . S
H299 C328 0.950 . S
H300 C330 0.950 . S
H301 C331 0.950 . S
C302 H284 0.951 . S
C302 C303 1.366 . S
C302 C304 1.388 . S
C303 C302 1.366 . S
C303 C307 1.385 . S
C304 H285 0.951 . S
C304 C302 1.388 . S
C304 C305 1.366 . S
C305 C304 1.366 . S
C305 C306 1.414 . S
C305 C308 1.499 . S
C306 H286 0.950 . S
C306 C305 1.414 . S
C306 C307 1.374 . S
C307 H287 0.950 . S
C307 C303 1.385 . S
C307 C306 1.374 . S
C308 C305 1.499 . S
C308 C309 1.373 . S
C308 C310 1.389 . S
C309 H288 0.950 . S
C309 C308 1.373 . S
C309 C325 1.377 . S
C310 C308 1.389 . S
C310 C311 1.524 . S
C310 C324 1.377 . S
C311 C310 1.524 . S
C311 C312 1.397 . S
C311 C316 1.363 . S
C312 H289 0.950 . S
C312 C311 1.397 . S
C312 C313 1.334 . S
C313 H290 0.950 . S
C313 C312 1.334 . S
C313 C314 1.287 . S
C314 C313 1.287 . S
C314 C315 1.524 . S
C314 H333 0.913 . S
C315 H291 0.950 . S
C315 C314 1.524 . S
C315 C316 1.415 . S
C316 H292 0.950 . S
C316 C311 1.363 . S
C316 C315 1.415 . S
C317 H293 0.951 . S
C317 C318 1.366 . S
C317 C319 1.388 . S
C318 C317 1.366 . S
C318 C322 1.385 . S
C319 H294 0.951 . S
C319 C317 1.388 . S
C319 C320 1.366 . S
C320 C319 1.366 . S
C320 C321 1.414 . S
C320 C323 1.499 . S
C321 H295 0.950 . S
C321 C320 1.414 . S
C321 C322 1.374 . S
C322 H296 0.950 . S
C322 C318 1.385 . S
C322 C321 1.374 . S
C323 C320 1.499 . S
C323 C324 1.373 . S
C323 C325 1.389 . S
C324 H297 0.950 . S
C324 C310 1.377 . S
C324 C323 1.373 . S
C325 C309 1.377 . S
C325 C323 1.389 . S
C325 C326 1.524 . S
C326 C325 1.524 . S
C326 C327 1.397 . S
C326 C331 1.363 . S
C327 H298 0.950 . S
C327 C326 1.397 . S
C327 C328 1.334 . S
C328 H299 0.950 . S
C328 C327 1.334 . S
C328 C329 1.287 . S
C329 C328 1.287 . S
C329 C330 1.524 . S
C329 H332 0.999 . S
C330 H300 0.950 . S
C330 C329 1.524 . S
C330 C331 1.415 . S
C331 H301 0.950 . S
C331 C326 1.363 . S
C331 C330 1.415 . S
H332 C329 0.999 . S
H333 C314 0.913 . S
H334 C352 0.951 . S
H335 C354 0.951 . S
H336 C356 0.950 . S
H337 C357 0.950 . S
H338 C359 0.950 . S
H339 C362 0.950 . S
H340 C363 0.950 . S
H341 C365 0.950 . S
H342 C366 0.950 . S
H343 C367 0.951 . S
H344 C369 0.951 . S
H345 C371 0.950 . S
H346 C372 0.950 . S
H347 C374 0.950 . S
H348 C377 0.950 . S
H349 C378 0.950 . S
H350 C380 0.950 . S
H351 C381 0.950 . S
C352 H334 0.951 . S
C352 C353 1.366 . S
C352 C354 1.388 . S
C353 C352 1.366 . S
C353 C357 1.385 . S
C354 H335 0.951 . S
C354 C352 1.388 . S
C354 C355 1.366 . S
C355 C354 1.366 . S
C355 C356 1.414 . S
C355 C358 1.499 . S
C356 H336 0.950 . S
C356 C355 1.414 . S
C356 C357 1.374 . S
C357 H337 0.950 . S
C357 C353 1.385 . S
C357 C356 1.374 . S
C358 C355 1.499 . S
C358 C359 1.373 . S
C358 C360 1.389 . S
C359 H338 0.950 . S
C359 C358 1.373 . S
C359 C375 1.377 . S
C360 C358 1.389 . S
C360 C361 1.524 . S
C360 C374 1.377 . S
C361 C360 1.524 . S
C361 C362 1.397 . S
C361 C366 1.363 . S
C362 H339 0.950 . S
C362 C361 1.397 . S
C362 C363 1.334 . S
C363 H340 0.950 . S
C363 C362 1.334 . S
C363 C364 1.287 . S
C364 C363 1.287 . S
C364 C365 1.524 . S
C364 H383 0.913 . S
C365 H341 0.950 . S
C365 C364 1.524 . S
C365 C366 1.415 . S
C366 H342 0.950 . S
C366 C361 1.363 . S
C366 C365 1.415 . S
C367 H343 0.951 . S
C367 C368 1.366 . S
C367 C369 1.388 . S
C368 C367 1.366 . S
C368 C372 1.385 . S
C369 H344 0.951 . S
C369 C367 1.388 . S
C369 C370 1.366 . S
C370 C369 1.366 . S
C370 C371 1.414 . S
C370 C373 1.499 . S
C371 H345 0.950 . S
C371 C370 1.414 . S
C371 C372 1.374 . S
C372 H346 0.950 . S
C372 C368 1.385 . S
C372 C371 1.374 . S
C373 C370 1.499 . S
C373 C374 1.373 . S
C373 C375 1.389 . S
C374 H347 0.950 . S
C374 C360 1.377 . S
C374 C373 1.373 . S
C375 C359 1.377 . S
C375 C373 1.389 . S
C375 C376 1.524 . S
C376 C375 1.524 . S
C376 C377 1.397 . S
C376 C381 1.363 . S
C377 H348 0.950 . S
C377 C376 1.397 . S
C377 C378 1.334 . S
C378 H349 0.950 . S
C378 C377 1.334 . S
C378 C379 1.287 . S
C379 C378 1.287 . S
C379 C380 1.524 . S
C379 H382 0.999 . S
C380 H350 0.950 . S
C380 C379 1.524 . S
C380 C381 1.415 . S
C381 H351 0.950 . S
C381 C376 1.363 . S
C381 C380 1.415 . S
H382 C379 0.999 . S
H383 C364 0.913 . S
H384 C402 0.951 . S
H385 C404 0.951 . S
H386 C406 0.950 . S
H387 C407 0.950 . S
H388 C409 0.950 . S
H389 C412 0.950 . S
H390 C413 0.950 . S
H391 C415 0.950 . S
H392 C416 0.950 . S
H393 C417 0.951 . S
H394 C419 0.951 . S
H395 C421 0.950 . S
H396 C422 0.950 . S
H397 C424 0.950 . S
H398 C427 0.950 . S
H399 C428 0.950 . S
H400 C430 0.950 . S
H401 C431 0.950 . S
C402 H384 0.951 . S
C402 C403 1.366 . S
C402 C404 1.388 . S
C403 C402 1.366 . S
C403 C407 1.385 . S
C404 H385 0.951 . S
C404 C402 1.388 . S
C404 C405 1.366 . S
C405 C404 1.366 . S
C405 C406 1.414 . S
C405 C408 1.499 . S
C406 H386 0.950 . S
C406 C405 1.414 . S
C406 C407 1.374 . S
C407 H387 0.950 . S
C407 C403 1.385 . S
C407 C406 1.374 . S
C408 C405 1.499 . S
C408 C409 1.373 . S
C408 C410 1.389 . S
C409 H388 0.950 . S
C409 C408 1.373 . S
C409 C425 1.377 . S
C410 C408 1.389 . S
C410 C411 1.524 . S
C410 C424 1.377 . S
C411 C410 1.524 . S
C411 C412 1.397 . S
C411 C416 1.363 . S
C412 H389 0.950 . S
C412 C411 1.397 . S
C412 C413 1.334 . S
C413 H390 0.950 . S
C413 C412 1.334 . S
C413 C414 1.287 . S
C414 C413 1.287 . S
C414 C415 1.524 . S
C414 H433 0.913 . S
C415 H391 0.950 . S
C415 C414 1.524 . S
C415 C416 1.415 . S
C416 H392 0.950 . S
C416 C411 1.363 . S
C416 C415 1.415 . S
C417 H393 0.951 . S
C417 C418 1.366 . S
C417 C419 1.388 . S
C418 C417 1.366 . S
C418 C422 1.385 . S
C419 H394 0.951 . S
C419 C417 1.388 . S
C419 C420 1.366 . S
C420 C419 1.366 . S
C420 C421 1.414 . S
C420 C423 1.499 . S
C421 H395 0.950 . S
C421 C420 1.414 . S
C421 C422 1.374 . S
C422 H396 0.950 . S
C422 C418 1.385 . S
C422 C421 1.374 . S
C423 C420 1.499 . S
C423 C424 1.373 . S
C423 C425 1.389 . S
C424 H397 0.950 . S
C424 C410 1.377 . S
C424 C423 1.373 . S
C425 C409 1.377 . S
C425 C423 1.389 . S
C425 C426 1.524 . S
C426 C425 1.524 . S
C426 C427 1.397 . S
C426 C431 1.363 . S
C427 H398 0.950 . S
C427 C426 1.397 . S
C427 C428 1.334 . S
C428 H399 0.950 . S
C428 C427 1.334 . S
C428 C429 1.287 . S
C429 C428 1.287 . S
C429 C430 1.524 . S
C429 H432 0.999 . S
C430 H400 0.950 . S
C430 C429 1.524 . S
C430 C431 1.415 . S
C431 H401 0.950 . S
C431 C426 1.363 . S
C431 C430 1.415 . S
H432 C429 0.999 . S
H433 C414 0.913 . S
H434 C452 0.951 . S
H435 C454 0.951 . S
H436 C456 0.950 . S
H437 C457 0.950 . S
H438 C459 0.950 . S
H439 C462 0.950 . S
H440 C463 0.950 . S
H441 C465 0.950 . S
H442 C466 0.950 . S
H443 C467 0.951 . S
H444 C469 0.951 . S
H445 C471 0.950 . S
H446 C472 0.950 . S
H447 C474 0.950 . S
H448 C477 0.950 . S
H449 C478 0.950 . S
H450 C480 0.950 . S
H451 C481 0.950 . S
C452 H434 0.951 . S
C452 C453 1.366 . S
C452 C454 1.388 . S
C453 C452 1.366 . S
C453 C457 1.385 . S
C454 H435 0.951 . S
C454 C452 1.388 . S
C454 C455 1.366 . S
C455 C454 1.366 . S
C455 C456 1.414 . S
C455 C458 1.499 . S
C456 H436 0.950 . S
C456 C455 1.414 . S
C456 C457 1.374 . S
C457 H437 0.950 . S
C457 C453 1.385 . S
C457 C456 1.374 . S
C458 C455 1.499 . S
C458 C459 1.373 . S
C458 C460 1.389 . S
C459 H438 0.950 . S
C459 C458 1.373 . S
C459 C475 1.377 . S
C460 C458 1.389 . S
C460 C461 1.524 . S
C460 C474 1.377 . S
C461 C460 1.524 . S
C461 C462 1.397 . S
C461 C466 1.363 . S
C462 H439 0.950 . S
C462 C461 1.397 . S
C462 C463 1.334 . S
C463 H440 0.950 . S
C463 C462 1.334 . S
C463 C464 1.287 . S
C464 C463 1.287 . S
C464 C465 1.524 . S
C464 H483 0.913 . S
C465 H441 0.950 . S
C465 C464 1.524 . S
C465 C466 1.415 . S
C466 H442 0.950 . S
C466 C461 1.363 . S
C466 C465 1.415 . S
C467 H443 0.951 . S
C467 C468 1.366 . S
C467 C469 1.388 . S
C468 C467 1.366 . S
C468 C472 1.385 . S
C469 H444 0.951 . S
C469 C467 1.388 . S
C469 C470 1.366 . S
C470 C469 1.366 . S
C470 C471 1.414 . S
C470 C473 1.499 . S
C471 H445 0.950 . S
C471 C470 1.414 . S
C471 C472 1.374 . S
C472 H446 0.950 . S
C472 C468 1.385 . S
C472 C471 1.374 . S
C473 C470 1.499 . S
C473 C474 1.373 . S
C473 C475 1.389 . S
C474 H447 0.950 . S
C474 C460 1.377 . S
C474 C473 1.373 . S
C475 C459 1.377 . S
C475 C473 1.389 . S
C475 C476 1.524 . S
C476 C475 1.524 . S
C476 C477 1.397 . S
C476 C481 1.363 . S
C477 H448 0.950 . S
C477 C476 1.397 . S
C477 C478 1.334 . S
C478 H449 0.950 . S
C478 C477 1.334 . S
C478 C479 1.287 . S
C479 C478 1.287 . S
C479 C480 1.524 . S
C479 H482 0.999 . S
C480 H450 0.950 . S
C480 C479 1.524 . S
C480 C481 1.415 . S
C481 H451 0.950 . S
C481 C476 1.363 . S
C481 C480 1.415 . S
H482 C479 0.999 . S
H483 C464 0.913 . S
H484 C502 0.951 . S
H485 C504 0.951 . S
H486 C506 0.950 . S
H487 C507 0.950 . S
H488 C509 0.950 . S
H489 C512 0.950 . S
H490 C513 0.950 . S
H491 C515 0.950 . S
H492 C516 0.950 1_455 S
H493 C517 0.951 . S
H494 C519 0.951 . S
H495 C521 0.950 . S
H496 C522 0.950 . S
H497 C524 0.950 . S
H498 C527 0.950 . S
H499 C528 0.950 . S
H500 C530 0.950 . S
H501 C531 0.950 1_655 S
C502 H484 0.951 . S
C502 C503 1.366 . S
C502 C504 1.388 . S
C503 C502 1.366 . S
C503 C507 1.385 . S
C504 H485 0.951 . S
C504 C502 1.388 . S
C504 C505 1.366 . S
C505 C504 1.366 . S
C505 C506 1.414 . S
C505 C508 1.499 . S
C506 H486 0.950 . S
C506 C505 1.414 . S
C506 C507 1.374 . S
C507 H487 0.950 . S
C507 C503 1.385 . S
C507 C506 1.374 . S
C508 C505 1.499 . S
C508 C509 1.373 1_655 S
C508 C510 1.389 . S
C509 H488 0.950 . S
C509 C508 1.373 1_455 S
C509 C525 1.377 . S
C510 C508 1.389 . S
C510 C511 1.524 . S
C510 C524 1.377 1_655 S
C511 C510 1.524 . S
C511 C512 1.397 . S
C511 C516 1.363 . S
C512 H489 0.950 . S
C512 C511 1.397 . S
C512 C513 1.334 . S
C513 H490 0.950 . S
C513 C512 1.334 . S
C513 C514 1.287 . S
C514 C513 1.287 . S
C514 C515 1.524 . S
C514 H533 0.913 . S
C515 H491 0.950 . S
C515 C514 1.524 . S
C515 C516 1.415 . S
C516 H492 0.950 1_655 S
C516 C511 1.363 . S
C516 C515 1.415 . S
C517 H493 0.951 . S
C517 C518 1.366 . S
C517 C519 1.388 . S
C518 C517 1.366 . S
C518 C522 1.385 . S
C519 H494 0.951 . S
C519 C517 1.388 . S
C519 C520 1.366 . S
C520 C519 1.366 . S
C520 C521 1.414 . S
C520 C523 1.499 . S
C521 H495 0.950 . S
C521 C520 1.414 . S
C521 C522 1.374 . S
C522 H496 0.950 . S
C522 C518 1.385 . S
C522 C521 1.374 . S
C523 C520 1.499 . S
C523 C524 1.373 . S
C523 C525 1.389 . S
C524 H497 0.950 . S
C524 C510 1.377 1_455 S
C524 C523 1.373 . S
C525 C509 1.377 . S
C525 C523 1.389 . S
C525 C526 1.524 . S
C526 C525 1.524 . S
C526 C527 1.397 . S
C526 C531 1.363 . S
C527 H498 0.950 . S
C527 C526 1.397 . S
C527 C528 1.334 . S
C528 H499 0.950 . S
C528 C527 1.334 . S
C528 C529 1.287 . S
C529 C528 1.287 . S
C529 C530 1.524 . S
C529 H532 0.999 . S
C530 H500 0.950 . S
C530 C529 1.524 . S
C530 C531 1.415 . S
C531 H501 0.950 1_455 S
C531 C526 1.363 . S
C531 C530 1.415 . S
H532 C529 0.999 . S
H533 C514 0.913 . S
H534 C552 0.951 . S
H535 C554 0.951 1_455 S
H536 C556 0.950 . S
H537 C557 0.950 . S
H538 C559 0.950 . S
H539 C562 0.950 . S
H540 C563 0.950 . S
H541 C565 0.950 . S
H542 C566 0.950 . S
H543 C567 0.951 . S
H544 C569 0.951 1_655 S
H545 C571 0.950 . S
H546 C572 0.950 . S
H547 C574 0.950 . S
H548 C577 0.950 . S
H549 C578 0.950 . S
H550 C580 0.950 . S
H551 C581 0.950 . S
C552 H534 0.951 . S
C552 C553 1.366 . S
C552 C554 1.388 . S
C553 C552 1.366 . S
C553 C557 1.385 . S
C554 H535 0.951 1_655 S
C554 C552 1.388 . S
C554 C555 1.366 . S
C555 C554 1.366 . S
C555 C556 1.414 . S
C555 C558 1.499 . S
C556 H536 0.950 . S
C556 C555 1.414 . S
C556 C557 1.374 . S
C557 H537 0.950 . S
C557 C553 1.385 . S
C557 C556 1.374 . S
C558 C555 1.499 . S
C558 C559 1.373 . S
C558 C560 1.389 1_655 S
C559 H538 0.950 . S
C559 C558 1.373 . S
C559 C575 1.377 1_655 S
C560 C558 1.389 1_455 S
C560 C561 1.524 . S
C560 C574 1.377 . S
C561 C560 1.524 . S
C561 C562 1.397 1_455 S
C561 C566 1.363 . S
C562 H539 0.950 . S
C562 C561 1.397 1_655 S
C562 C563 1.334 . S
C563 H540 0.950 . S
C563 C562 1.334 . S
C563 C564 1.287 . S
C564 C563 1.287 . S
C564 C565 1.524 1_655 S
C564 H583 0.913 . S
C565 H541 0.950 . S
C565 C564 1.524 1_455 S
C565 C566 1.415 . S
C566 H542 0.950 . S
C566 C561 1.363 . S
C566 C565 1.415 . S
C567 H543 0.951 . S
C567 C568 1.366 . S
C567 C569 1.388 . S
C568 C567 1.366 . S
C568 C572 1.385 . S
C569 H544 0.951 1_455 S
C569 C567 1.388 . S
C569 C570 1.366 . S
C570 C569 1.366 . S
C570 C571 1.414 . S
C570 C573 1.499 . S
C571 H545 0.950 . S
C571 C570 1.414 . S
C571 C572 1.374 . S
C572 H546 0.950 . S
C572 C568 1.385 . S
C572 C571 1.374 . S
C573 C570 1.499 . S
C573 C574 1.373 . S
C573 C575 1.389 . S
C574 H547 0.950 . S
C574 C560 1.377 . S
C574 C573 1.373 . S
C575 C559 1.377 1_455 S
C575 C573 1.389 . S
C575 C576 1.524 . S
C576 C575 1.524 . S
C576 C577 1.397 . S
C576 C581 1.363 1_455 S
C577 H548 0.950 . S
C577 C576 1.397 . S
C577 C578 1.334 . S
C578 H549 0.950 . S
C578 C577 1.334 . S
C578 C579 1.287 . S
C579 C578 1.287 . S
C579 C580 1.524 1_455 S
C579 H582 0.999 . S
C580 H550 0.950 . S
C580 C579 1.524 1_655 S
C580 C581 1.415 . S
C581 H551 0.950 . S
C581 C576 1.363 1_655 S
C581 C580 1.415 . S
H582 C579 0.999 . S
H583 C564 0.913 . S
H584 C602 0.951 . S
H585 C604 0.951 1_455 S
H586 C606 0.950 . S
H587 C607 0.950 . S
H588 C609 0.950 . S
H589 C612 0.950 . S
H590 C613 0.950 1_655 S
H591 C615 0.950 . S
H592 C616 0.950 . S
H593 C617 0.951 . S
H594 C619 0.951 1_655 S
H595 C621 0.950 . S
H596 C622 0.950 . S
H597 C624 0.950 . S
H598 C627 0.950 . S
H599 C628 0.950 . S
H600 C630 0.950 . S
H601 C631 0.950 . S
C602 H584 0.951 . S
C602 C603 1.366 . S
C602 C604 1.388 . S
C603 C602 1.366 . S
C603 C607 1.385 . S
C604 H585 0.951 1_655 S
C604 C602 1.388 . S
C604 C605 1.366 . S
C605 C604 1.366 . S
C605 C606 1.414 . S
C605 C608 1.499 . S
C606 H586 0.950 . S
C606 C605 1.414 . S
C606 C607 1.374 . S
C607 H587 0.950 . S
C607 C603 1.385 . S
C607 C606 1.374 . S
C608 C605 1.499 . S
C608 C609 1.373 . S
C608 C610 1.389 1_655 S
C609 H588 0.950 . S
C609 C608 1.373 . S
C609 C625 1.377 . S
C610 C608 1.389 1_455 S
C610 C611 1.524 . S
C610 C624 1.377 . S
C611 C610 1.524 . S
C611 C612 1.397 1_455 S
C611 C616 1.363 . S
C612 H589 0.950 . S
C612 C611 1.397 1_655 S
C612 C613 1.334 1_655 S
C613 H590 0.950 1_455 S
C613 C612 1.334 1_455 S
C613 C614 1.287 . S
C614 C613 1.287 . S
C614 C615 1.524 . S
C614 H633 0.913 . S
C615 H591 0.950 . S
C615 C614 1.524 . S
C615 C616 1.415 . S
C616 H592 0.950 . S
C616 C611 1.363 . S
C616 C615 1.415 . S
C617 H593 0.951 . S
C617 C618 1.366 . S
C617 C619 1.388 . S
C618 C617 1.366 . S
C618 C622 1.385 . S
C619 H594 0.951 1_455 S
C619 C617 1.388 . S
C619 C620 1.366 . S
C620 C619 1.366 . S
C620 C621 1.414 . S
C620 C623 1.499 . S
C621 H595 0.950 . S
C621 C620 1.414 . S
C621 C622 1.374 . S
C622 H596 0.950 . S
C622 C618 1.385 . S
C622 C621 1.374 . S
C623 C620 1.499 . S
C623 C624 1.373 . S
C623 C625 1.389 1_455 S
C624 H597 0.950 . S
C624 C610 1.377 . S
C624 C623 1.373 . S
C625 C609 1.377 . S
C625 C623 1.389 1_655 S
C625 C626 1.524 . S
C626 C625 1.524 . S
C626 C627 1.397 1_655 S
C626 C631 1.363 . S
C627 H598 0.950 . S
C627 C626 1.397 1_455 S
C627 C628 1.334 . S
C628 H599 0.950 . S
C628 C627 1.334 . S
C628 C629 1.287 1_455 S
C629 C628 1.287 1_655 S
C629 C630 1.524 . S
C629 H632 0.999 . S
C630 H600 0.950 . S
C630 C629 1.524 . S
C630 C631 1.415 . S
C631 H601 0.950 . S
C631 C626 1.363 . S
C631 C630 1.415 . S
H632 C629 0.999 . S
H633 C614 0.913 . S
H634 C652 0.951 . S
H635 C654 0.951 . S
H636 C656 0.950 . S
H637 C657 0.950 . S
H638 C659 0.950 . S
H639 C662 0.950 . S
H640 C663 0.950 . S
H641 C665 0.950 . S
H642 C666 0.950 . S
H643 C667 0.951 . S
H644 C669 0.951 . S
H645 C671 0.950 . S
H646 C672 0.950 . S
H647 C674 0.950 . S
H648 C677 0.950 . S
H649 C678 0.950 . S
H650 C680 0.950 . S
H651 C681 0.950 . S
C652 H634 0.951 . S
C652 C653 1.366 . S
C652 C654 1.388 . S
C653 C652 1.366 . S
C653 C657 1.385 . S
C654 H635 0.951 . S
C654 C652 1.388 . S
C654 C655 1.366 . S
C655 C654 1.366 . S
C655 C656 1.414 . S
C655 C658 1.499 . S
C656 H636 0.950 . S
C656 C655 1.414 . S
C656 C657 1.374 . S
C657 H637 0.950 . S
C657 C653 1.385 . S
C657 C656 1.374 . S
C658 C655 1.499 . S
C658 C659 1.373 1_455 S
C658 C660 1.389 . S
C659 H638 0.950 . S
C659 C658 1.373 1_655 S
C659 C675 1.377 . S
C660 C658 1.389 . S
C660 C661 1.524 . S
C660 C674 1.377 . S
C661 C660 1.524 . S
C661 C662 1.397 . S
C661 C666 1.363 . S
C662 H639 0.950 . S
C662 C661 1.397 . S
C662 C663 1.334 . S
C663 H640 0.950 . S
C663 C662 1.334 . S
C663 C664 1.287 . S
C664 C663 1.287 . S
C664 C665 1.524 . S
C664 H683 0.913 . S
C665 H641 0.950 . S
C665 C664 1.524 . S
C665 C666 1.415 . S
C666 H642 0.950 . S
C666 C661 1.363 . S
C666 C665 1.415 . S
C667 H643 0.951 . S
C667 C668 1.366 . S
C667 C669 1.388 . S
C668 C667 1.366 . S
C668 C672 1.385 . S
C669 H644 0.951 . S
C669 C667 1.388 . S
C669 C670 1.366 . S
C670 C669 1.366 . S
C670 C671 1.414 . S
C670 C673 1.499 . S
C671 H645 0.950 . S
C671 C670 1.414 . S
C671 C672 1.374 . S
C672 H646 0.950 . S
C672 C668 1.385 . S
C672 C671 1.374 . S
C673 C670 1.499 . S
C673 C674 1.373 1_655 S
C673 C675 1.389 . S
C674 H647 0.950 . S
C674 C660 1.377 . S
C674 C673 1.373 1_455 S
C675 C659 1.377 . S
C675 C673 1.389 . S
C675 C676 1.524 . S
C676 C675 1.524 . S
C676 C677 1.397 . S
C676 C681 1.363 . S
C677 H648 0.950 . S
C677 C676 1.397 . S
C677 C678 1.334 . S
C678 H649 0.950 . S
C678 C677 1.334 . S
C678 C679 1.287 . S
C679 C678 1.287 . S
C679 C680 1.524 . S
C679 H682 0.999 . S
C680 H650 0.950 . S
C680 C679 1.524 . S
C680 C681 1.415 . S
C681 H651 0.950 . S
C681 C676 1.363 . S
C681 C680 1.415 . S
H682 C679 0.999 . S
H683 C664 0.913 . S
C103 C34 1.375 1_554 S
C118 C16 1.383 . S
C153 C58 1.383 . S
C168 C76 1.385 . S
C203 C13 1.376 1_554 S
C218 C37 1.382 . S
C253 C79 1.383 . S
C268 C55 1.386 . S
C303 C80 0.824 . S
C318 C15 0.813 . S
C353 C38 0.825 . S
C368 C57 0.815 . S
C403 C35 0.829 . S
C418 C60 0.835 . S
C453 C77 0.829 . S
C468 C18 0.834 . S
C503 C36 0.813 . S
C518 C59 0.825 . S
C553 C78 0.813 . S
C568 C17 0.824 . S
C603 C81 0.834 . S
C618 C14 0.829 . S
C653 C56 0.831 . S
C668 C39 0.836 . S
