# Generated by pormake.
# Topology fcu, (12)-cn, num edge types: 1
# Building blocks:
#     Node 0, Type 0, BuildingBlock: UKIBUN_clean_sbu_0, # of connection points: 12
#     Node 1, Type 0, BuildingBlock: UKIBUN_clean_sbu_0, # of connection points: 12
#     Node 2, Type 0, BuildingBlock: UKIBUN_clean_sbu_0, # of connection points: 12
#     Node 3, Type 0, BuildingBlock: UKIBUN_clean_sbu_0, # of connection points: 12
#     Edge 4, Type (0, 0), BuildingBlock: MIFKUJ_clean_linker_0, # of connection points: 2
#     Edge 5, Type (0, 0), BuildingBlock: MIFKUJ_clean_linker_0, # of connection points: 2
#     Edge 6, Type (0, 0), BuildingBlock: MIFKUJ_clean_linker_0, # of connection points: 2
#     Edge 7, Type (0, 0), BuildingBlock: MIFKUJ_clean_linker_0, # of connection points: 2
#     Edge 8, Type (0, 0), BuildingBlock: MIFKUJ_clean_linker_0, # of connection points: 2
#     Edge 9, Type (0, 0), BuildingBlock: MIFKUJ_clean_linker_0, # of connection points: 2
#     Edge 10, Type (0, 0), BuildingBlock: MIFKUJ_clean_linker_0, # of connection points: 2
#     Edge 11, Type (0, 0), BuildingBlock: MIFKUJ_clean_linker_0, # of connection points: 2
#     Edge 12, Type (0, 0), BuildingBlock: MIFKUJ_clean_linker_0, # of connection points: 2
#     Edge 13, Type (0, 0), BuildingBlock: MIFKUJ_clean_linker_0, # of connection points: 2
#     Edge 14, Type (0, 0), BuildingBlock: MIFKUJ_clean_linker_0, # of connection points: 2
#     Edge 15, Type (0, 0), BuildingBlock: MIFKUJ_clean_linker_0, # of connection points: 2
#     Edge 16, Type (0, 0), BuildingBlock: MIFKUJ_clean_linker_0, # of connection points: 2
#     Edge 17, Type (0, 0), BuildingBlock: MIFKUJ_clean_linker_0, # of connection points: 2
#     Edge 18, Type (0, 0), BuildingBlock: MIFKUJ_clean_linker_0, # of connection points: 2
#     Edge 19, Type (0, 0), BuildingBlock: MIFKUJ_clean_linker_0, # of connection points: 2
#     Edge 20, Type (0, 0), BuildingBlock: MIFKUJ_clean_linker_0, # of connection points: 2
#     Edge 21, Type (0, 0), BuildingBlock: MIFKUJ_clean_linker_0, # of connection points: 2
#     Edge 22, Type (0, 0), BuildingBlock: MIFKUJ_clean_linker_0, # of connection points: 2
#     Edge 23, Type (0, 0), BuildingBlock: MIFKUJ_clean_linker_0, # of connection points: 2
#     Edge 24, Type (0, 0), BuildingBlock: MIFKUJ_clean_linker_0, # of connection points: 2
#     Edge 25, Type (0, 0), BuildingBlock: MIFKUJ_clean_linker_0, # of connection points: 2
#     Edge 26, Type (0, 0), BuildingBlock: MIFKUJ_clean_linker_0, # of connection points: 2
#     Edge 27, Type (0, 0), BuildingBlock: MIFKUJ_clean_linker_0, # of connection points: 2
# Relax obj value: 0.006
# Max RMSD: 0.049
# Mean RMSD: 0.049
data_MOF--net-fcu--node1-UKIBUN_clean_sbu_0--edge1-MIFKUJ_clean_linker_0
_symmetry_space_group_name_H-M    P1
_symmetry_Int_Tables_number       1
_symmetry_cell_setting            triclinic
loop_
_symmetry_equiv_pos_as_xyz
'x, y, z'
_cell_length_a     32.826205
_cell_length_b     32.818787
_cell_length_c     32.81294
_cell_angle_alpha  90.111569
_cell_angle_beta   90.005557
_cell_angle_gamma 89.985374
loop_
_atom_site_label
_atom_site_type_symbol
_atom_site_fract_x
_atom_site_fract_y
_atom_site_fract_z
_atom_type_partial_charge
C0 C 0.00066 0.09431 0.0936 0.0
C1 C 0.90117 0.09321 0.00017 0.0
O2 O 0.03122 0.03311 0.03287 0.0
O3 O 0.96276 0.96391 0.03305 0.0
O4 O 0.03171 0.96434 0.03323 0.0
O5 O 0.96241 0.03276 0.03275 0.0
Hf6 Hf 0.99691 -0.00126 0.07191 0.0
O7 O 0.03136 0.03282 0.96382 0.0
Hf8 Hf 0.99666 0.07159 0.99822 0.0
O9 O 0.03163 0.96407 0.9644 0.0
Hf10 Hf 0.07037 -0.00115 -0.00145 0.0
O11 O 0.96243 0.03254 0.96354 0.0
Hf12 Hf 0.99756 0.92504 -0.00106 0.0
Hf13 Hf 0.92397 0.99793 0.99812 0.0
O14 O 0.96304 0.96335 0.96399 0.0
Hf15 Hf 0.9972 0.99788 0.925 0.0
C16 C 0.90213 0.90256 0.99807 0.0
C17 C 0.09187 0.09444 0.99578 0.0
C18 C 0.09308 0.90354 0.00102 0.0
C19 C 0.09248 -0.00097 0.0941 0.0
O20 O 0.055 0.99784 0.10597 0.0
O21 O 0.93852 0.00121 0.10546 0.0
C22 C 0.90115 -0.00012 0.09323 0.0
O23 O 0.93945 0.9912 0.89083 0.0
O24 O 0.002 0.89065 0.94119 0.0
O25 O 0.99676 0.89144 0.05721 0.0
O26 O 0.0551 0.00064 0.89106 0.0
O27 O 0.99324 0.10528 0.94026 0.0
O28 O -0.00017 0.10604 0.05608 0.0
O29 O 0.88947 0.05575 0.99776 0.0
O30 O 0.89025 0.93998 -0.00112 0.0
C31 C 0.09254 -0.00021 0.90293 0.0
O32 O 0.1048 0.94103 -0.00072 0.0
O33 O 0.10396 0.05708 0.99748 0.0
C34 C 0.90196 0.99093 0.90273 0.0
O35 O 0.99328 0.05584 0.89085 0.0
O36 O 0.99505 0.94099 0.10647 0.0
O37 O -0.00066 0.05691 0.10555 0.0
O38 O 0.00421 0.93978 0.89169 0.0
O39 O 0.89015 0.99454 0.94007 0.0
O40 O 0.1044 -0.00147 0.94042 0.0
C41 C 0.00536 0.90243 0.90384 0.0
O42 O 0.10429 1e-05 0.05661 0.0
O43 O 0.05432 0.10605 0.99534 0.0
O44 O 0.88955 0.99789 0.05575 0.0
O45 O 0.0557 0.89151 0.00161 0.0
O46 O 0.93963 0.8907 0.9975 0.0
O47 O 0.93857 0.10518 0.00136 0.0
C48 C 0.99211 0.09336 0.90279 0.0
C49 C 0.9956 0.90346 0.09467 0.0
C50 C 0.99754 0.59567 0.59311 0.0
C51 C 0.90239 0.59417 0.4988 0.0
O52 O 0.03252 0.53372 0.53259 0.0
O53 O 0.96377 0.4649 0.53361 0.0
O54 O 0.0326 0.46482 0.53342 0.0
O55 O 0.96356 0.53371 0.53294 0.0
Hf56 Hf -0.00175 0.49982 0.57206 0.0
O57 O 0.03201 0.53281 0.46365 0.0
Hf58 Hf 0.99788 0.57213 0.4979 0.0
O59 O 0.03201 0.464 0.46444 0.0
Hf60 Hf 0.07115 0.49884 0.49817 0.0
O61 O 0.96315 0.53295 0.46398 0.0
Hf62 Hf 0.998 0.42543 0.49962 0.0
Hf63 Hf 0.92464 0.49873 0.49892 0.0
O64 O 0.96318 0.46364 0.46464 0.0
Hf65 Hf 0.99729 0.49794 0.42535 0.0
C66 C 0.9025 0.4033 0.50001 0.0
C67 C 0.09331 0.59439 0.49906 0.0
C68 C 0.09347 0.40342 0.49796 0.0
C69 C 0.09385 0.49895 0.59346 0.0
O70 O 0.05655 0.50106 0.60567 0.0
O71 O 0.94031 0.49869 0.60624 0.0
C72 C 0.90283 0.4976 0.59443 0.0
O73 O 0.93905 0.49728 0.39156 0.0
O74 O -0.00076 0.39073 0.4419 0.0
O75 O 0.99796 0.39223 0.5581 0.0
O76 O 0.055 0.49911 0.39087 0.0
O77 O -0.00022 0.6055 0.43951 0.0
O78 O 0.9981 0.60698 0.55548 0.0
O79 O 0.8906 0.5567 0.50006 0.0
O80 O 0.8906 0.44071 0.49805 0.0
C81 C 0.09253 0.50036 0.40247 0.0
O82 O 0.10525 0.44084 0.49556 0.0
O83 O 0.10523 0.5569 0.49921 0.0
C84 C 0.90166 0.49884 0.40364 0.0
O85 O 0.99625 0.55556 0.39068 0.0
O86 O -0.00154 0.44224 0.60687 0.0
O87 O 0.99709 0.55837 0.6055 0.0
O88 O -0.00103 0.43954 0.39208 0.0
O89 O 0.89011 0.49988 0.4412 0.0
O90 O 0.10467 0.50056 0.43987 0.0
C91 C -0.00017 0.40222 0.40431 0.0
O92 O 0.10547 0.49709 0.55595 0.0
O93 O 0.05583 0.60616 0.49844 0.0
O94 O 0.89088 0.49754 0.55699 0.0
O95 O 0.05614 0.39146 0.50086 0.0
O96 O 0.93993 0.39133 0.50137 0.0
O97 O 0.93982 0.60608 0.4973 0.0
C98 C -0.00171 0.59311 0.4022 0.0
C99 C 0.99807 0.40458 0.59546 0.0
C100 C 0.50131 0.09898 0.59031 0.0
C101 C 0.40395 0.09614 0.49567 0.0
O102 O 0.53309 0.0351 0.53207 0.0
O103 O 0.46354 0.96686 0.5342 0.0
O104 O 0.53201 0.96623 0.5342 0.0
O105 O 0.46412 0.03585 0.53186 0.0
Hf106 Hf 0.49816 0.00245 0.57203 0.0
O107 O 0.53331 0.0324 0.46301 0.0
Hf108 Hf 0.49912 0.0729 0.49586 0.0
O109 O 0.53244 0.96358 0.46549 0.0
Hf110 Hf 0.57155 -0.00119 0.499 0.0
O111 O 0.46424 0.03313 0.46283 0.0
Hf112 Hf 0.49748 0.92632 0.50105 0.0
Hf113 Hf 0.42501 0.00039 0.49858 0.0
O114 O 0.46351 0.96431 0.46526 0.0
Hf115 Hf 0.49851 0.99693 0.4253 0.0
C116 C 0.40181 0.9051 0.5032 0.0
C117 C 0.59477 0.09394 0.49816 0.0
C118 C 0.59265 0.9031 0.49923 0.0
C119 C 0.59329 0.99493 0.5945 0.0
O120 O 0.55594 -0.00144 0.60622 0.0
O121 O 0.44001 0.00406 0.60595 0.0
C122 C 0.40258 0.00234 0.594 0.0
O123 O 0.44048 0.99783 0.39117 0.0
O124 O 0.49569 0.89012 0.44406 0.0
O125 O 0.49951 0.89465 0.56035 0.0
O126 O 0.55684 0.99219 0.39192 0.0
O127 O 0.50039 0.10458 0.43651 0.0
O128 O 0.49921 0.10931 0.55246 0.0
O129 O 0.39162 0.05892 0.49861 0.0
O130 O 0.39029 0.94264 0.50075 0.0
C131 C 0.59423 0.99421 0.40396 0.0
O132 O 0.60486 0.94043 0.4981 0.0
O133 O 0.6062 0.05647 0.50132 0.0
C134 C 0.40297 -0.00171 0.403 0.0
O135 O 0.5018 0.05344 0.38892 0.0
O136 O 0.49726 0.94565 0.60808 0.0
O137 O 0.50196 0.062 0.60375 0.0
O138 O 0.49585 0.93786 0.39325 0.0
O139 O 0.39109 -0.00092 0.44049 0.0
O140 O 0.60589 0.99822 0.44127 0.0
C141 C 0.49507 0.90079 0.4062 0.0
O142 O 0.6053 0.99491 0.55707 0.0
O143 O 0.55761 0.10624 0.49458 0.0
O144 O 0.39088 0.00084 0.5565 0.0
O145 O 0.55509 0.89162 0.50073 0.0
O146 O 0.43919 0.89298 0.50395 0.0
O147 O 0.44148 0.10758 0.49331 0.0
C148 C 0.50184 0.09134 0.39947 0.0
C149 C 0.49887 0.9078 0.59744 0.0
C150 C 0.49292 0.59166 0.0954 0.0
C151 C 0.40009 0.59239 0.99836 0.0
O152 O 0.53075 0.53278 0.03311 0.0
O153 O 0.46314 0.46255 0.03107 0.0
O154 O 0.53192 0.46366 0.03128 0.0
O155 O 0.46215 0.53151 0.03276 0.0
Hf156 Hf 0.4969 0.49668 0.07096 0.0
O157 O 0.53104 0.5344 0.96407 0.0
Hf158 Hf 0.4958 0.57183 -0.00066 0.0
O159 O 0.53193 0.46574 0.96255 0.0
Hf160 Hf 0.57024 0.49975 0.998 0.0
O161 O 0.46198 0.53334 0.96381 0.0
Hf162 Hf 0.49823 0.42511 0.99545 0.0
Hf163 Hf 0.42391 0.49737 0.99746 0.0
O164 O 0.46315 0.46422 0.96199 0.0
Hf165 Hf 0.4971 0.50035 0.92428 0.0
C166 C 0.40288 0.40184 0.99488 0.0
C167 C 0.59082 0.59561 -0.0001 0.0
C168 C 0.59399 0.40458 0.99728 0.0
C169 C 0.5922 0.50025 0.09364 0.0
O170 O 0.55471 0.49868 0.10537 0.0
O171 O 0.4389 0.49593 0.10491 0.0
C172 C 0.40149 0.4966 0.09294 0.0
O173 O 0.43916 0.49494 0.89013 0.0
O174 O 0.50351 0.39285 0.93621 0.0
O175 O 0.49863 0.38956 0.05242 0.0
O176 O 0.5552 0.50367 0.89061 0.0
O177 O 0.49454 0.60723 0.94212 0.0
O178 O 0.49322 0.60439 0.05822 0.0
O179 O 0.38878 0.55475 0.99786 0.0
O180 O 0.39073 0.43913 0.99694 0.0
C181 C 0.59261 0.50241 0.90259 0.0
O182 O 0.60529 0.44224 0.99814 0.0
O183 O 0.60321 0.55831 -0.00118 0.0
C184 C 0.40173 0.49462 0.90221 0.0
O185 O 0.49381 0.55899 0.89159 0.0
O186 O 0.49773 0.43754 0.10327 0.0
O187 O 0.49454 0.55395 0.10637 0.0
O188 O 0.50318 0.44384 0.88866 0.0
O189 O 0.38989 0.49662 0.93961 0.0
O190 O 0.60433 0.50046 0.94007 0.0
C191 C 0.50558 0.40612 0.89921 0.0
O192 O 0.60414 0.50054 0.05617 0.0
O193 O 0.55318 0.60693 0.00044 0.0
O194 O 0.38974 0.497 0.05542 0.0
O195 O 0.55674 0.39214 0.99618 0.0
O196 O 0.44048 0.39031 0.99343 0.0
O197 O 0.43733 0.60484 -0.00097 0.0
C198 C 0.49344 0.5962 0.90436 0.0
C199 C 0.49843 0.40038 0.09024 0.0
H200 H 0.00232 0.17739 0.0838 0.0
H201 H 0.00665 0.22928 0.13708 0.0
H202 H 0.01121 0.13534 0.22873 0.0
H203 H 0.00642 0.08326 0.17604 0.0
H204 H 0.95691 0.1922 0.24788 0.0
H205 H 0.09521 0.18923 0.20214 0.0
H206 H 0.15297 0.19354 0.15435 0.0
H207 H 0.12141 0.31732 0.12642 0.0
H208 H 0.06297 0.31357 0.17345 0.0
H209 H 0.00759 0.31975 0.41521 0.0
H210 H 0.01119 0.26719 0.36261 0.0
H211 H 0.00115 0.35912 0.26939 0.0
H212 H 0.99792 0.41202 0.32149 0.0
H213 H 0.05966 0.30287 0.25195 0.0
H214 H 0.92077 0.30485 0.29736 0.0
H215 H 0.86487 0.30096 0.34739 0.0
H216 H 0.89928 0.17842 0.37719 0.0
H217 H 0.95606 0.18187 0.32807 0.0
C218 C 0.00436 0.16768 0.11527 0.0
C219 C 0.00383 0.12606 0.12556 0.0
C220 C 0.00711 0.19742 0.14565 0.0
C221 C 0.00961 0.18609 0.18678 0.0
C222 C 0.00933 0.14468 0.19713 0.0
C223 C 0.00655 0.11495 0.16688 0.0
C224 C 0.01039 0.21733 0.21929 0.0
C225 C 0.97978 0.21604 0.24914 0.0
C226 C 0.03972 0.24895 0.22022 0.0
C227 C 0.07425 0.25089 0.19097 0.0
C228 C 0.10018 0.21719 0.18539 0.0
C229 C 0.13315 0.21958 0.15851 0.0
C230 C 0.14079 0.25565 0.13727 0.0
C231 C 0.11541 0.28937 0.14281 0.0
C232 C 0.08233 0.28711 0.16956 0.0
C233 C 0.00607 0.32889 0.38355 0.0
C234 C 0.0021 0.37016 0.37266 0.0
C235 C 0.00813 0.29877 0.35357 0.0
C236 C 0.00598 0.30935 0.31224 0.0
C237 C 0.00281 0.35044 0.30119 0.0
C238 C 0.00079 0.38059 0.33108 0.0
C239 C 0.00636 0.27755 0.28039 0.0
C240 C 0.03702 0.27885 0.25068 0.0
C241 C 0.97718 0.24586 0.27961 0.0
C242 C 0.943 0.24379 0.30926 0.0
C243 C 0.91669 0.2772 0.31484 0.0
C244 C 0.8848 0.27506 0.34301 0.0
C245 C 0.87852 0.23949 0.36546 0.0
C246 C 0.90419 0.20598 0.35981 0.0
C247 C 0.93627 0.20803 0.33184 0.0
H248 H 0.85374 0.23786 0.38717 0.0
H249 H 0.16647 0.25752 0.11669 0.0
H250 H 0.90633 0.02868 0.17122 0.0
H251 H 0.85318 0.02789 0.22337 0.0
H252 H 0.77043 0.97083 0.13849 0.0
H253 H 0.82302 0.97237 0.08588 0.0
H254 H 0.73252 0.02863 0.18277 0.0
H255 H 0.82335 0.91713 0.20704 0.0
H256 H 0.89151 0.88746 0.21738 0.0
H257 H 0.9039 0.95328 0.32985 0.0
H258 H 0.83684 0.98537 0.31903 0.0
H259 H 0.58836 0.96153 0.32757 0.0
H260 H 0.64114 0.95925 0.27509 0.0
H261 H 0.72504 0.01943 0.3566 0.0
H262 H 0.67281 0.02096 0.4096 0.0
H263 H 0.76182 0.95846 0.31342 0.0
H264 H 0.67012 0.07011 0.28798 0.0
H265 H 0.60161 0.09869 0.27705 0.0
H266 H 0.5903 0.03087 0.16566 0.0
H267 H 0.65773 -0.00018 0.17716 0.0
C268 C 0.8768 0.01602 0.16365 0.0
C269 C 0.86894 0.00032 0.12457 0.0
C270 C 0.84647 0.01566 0.19343 0.0
C271 C 0.80809 -0.00119 0.18489 0.0
C272 C 0.79985 0.98399 0.14565 0.0
C273 C 0.82998 0.98479 0.1157 0.0
C274 C 0.77707 0.9951 0.21735 0.0
C275 C 0.73871 0.0129 0.21116 0.0
C276 C 0.78553 0.97487 0.25449 0.0
C277 C 0.82511 0.95406 0.26199 0.0
C278 C 0.84071 0.92563 0.23382 0.0
C279 C 0.87924 0.90847 0.23969 0.0
C280 C 0.90192 0.9183 0.27434 0.0
C281 C 0.88626 0.94563 0.30304 0.0
C282 C 0.84809 0.96355 0.29692 0.0
C283 C 0.61807 0.97419 0.33436 0.0
C284 C 0.62631 0.9918 0.37256 0.0
C285 C 0.64821 0.97272 0.30442 0.0
C286 C 0.68678 0.9896 0.31188 0.0
C287 C 0.69547 0.00616 0.35033 0.0
C288 C 0.66552 0.00717 0.38048 0.0
C289 C 0.71736 0.99215 0.27891 0.0
C290 C 0.75563 0.97411 0.28499 0.0
C291 C 0.70874 0.01198 0.24158 0.0
C292 C 0.66892 0.03219 0.23372 0.0
C293 C 0.6529 0.06087 0.26137 0.0
C294 C 0.61413 0.07738 0.25518 0.0
C295 C 0.59167 0.06671 0.22064 0.0
C296 C 0.60776 0.03915 0.19241 0.0
C297 C 0.64614 0.02184 0.1989 0.0
H298 H 0.56182 0.07982 0.21573 0.0
H299 H 0.93162 0.90476 0.27894 0.0
H300 H 0.01911 0.82406 0.08695 0.0
H301 H 0.01898 0.77133 0.13927 0.0
H302 H 0.97152 0.8574 0.22667 0.0
H303 H 0.97145 0.91062 0.17442 0.0
H304 H 0.06016 0.7689 0.21167 0.0
H305 H 0.90437 0.79815 0.29114 0.0
H306 H 0.83523 0.82296 0.27554 0.0
H307 H 0.85343 0.79583 0.14879 0.0
H308 H 0.92216 0.76973 0.16375 0.0
H309 H 0.03515 0.66757 0.4048 0.0
H310 H 0.03604 0.71955 0.3512 0.0
H311 H 0.9634 0.64166 0.27411 0.0
H312 H 0.96306 0.58919 0.32711 0.0
H313 H 0.93468 0.72466 0.28329 0.0
H314 H 0.05332 0.64723 0.24909 0.0
H315 H 0.11988 0.61423 0.26007 0.0
H316 H 0.17329 0.73012 0.28908 0.0
H317 H 0.10681 0.76379 0.27893 0.0
C318 C 0.00844 0.83183 0.11722 0.0
C319 C 0.99524 0.87156 0.12648 0.0
C320 C 0.00861 0.80169 0.14713 0.0
C321 C 0.99509 0.81047 0.18671 0.0
C322 C 0.98179 0.85001 0.19617 0.0
C323 C 0.98198 0.88038 0.16634 0.0
C324 C 0.99545 0.77814 0.21806 0.0
C325 C 0.03275 0.7594 0.2275 0.0
C326 C 0.95953 0.76547 0.23829 0.0
C327 C 0.91876 0.78253 0.22854 0.0
C328 C 0.89363 0.79744 0.25993 0.0
C329 C 0.85438 0.81148 0.25124 0.0
C330 C 0.83995 0.81103 0.2112 0.0
C331 C 0.8647 0.79639 0.17977 0.0
C332 C 0.90384 0.78195 0.18835 0.0
C333 C 0.01939 0.66156 0.3764 0.0
C334 C -0.00102 0.62442 0.37006 0.0
C335 C 0.0201 0.69113 0.34585 0.0
C336 C -0.00015 0.68424 0.30885 0.0
C337 C 0.97922 0.64736 0.30253 0.0
C338 C 0.97918 0.61746 0.33272 0.0
C339 C -0.00069 0.71596 0.27705 0.0
C340 C 0.96208 0.73462 0.26771 0.0
C341 C 0.0351 0.7282 0.25656 0.0
C342 C 0.07492 0.70797 0.26373 0.0
C343 C 0.0791 0.66563 0.25836 0.0
C344 C 0.11686 0.64682 0.26426 0.0
C345 C 0.15078 0.67007 0.27521 0.0
C346 C 0.14697 0.71217 0.28053 0.0
C347 C 0.10925 0.73113 0.27472 0.0
H348 H 0.18004 0.65547 0.2795 0.0
H349 H 0.80958 0.82201 0.20459 0.0
H350 H 0.41309 0.00233 0.32013 0.0
H351 H 0.36019 0.0022 0.26789 0.0
H352 H 0.26775 0.99342 0.36085 0.0
H353 H 0.32028 0.99312 0.41344 0.0
H354 H 0.25385 0.94106 0.29738 0.0
H355 H 0.28565 0.08284 0.31609 0.0
H356 H 0.33103 0.14257 0.32025 0.0
H357 H 0.36819 0.12358 0.19621 0.0
H358 H 0.32346 0.06331 0.19149 0.0
H359 H 0.08263 0.99398 0.17697 0.0
H360 H 0.13569 0.99372 0.22904 0.0
H361 H 0.22779 0.00399 0.1359 0.0
H362 H 0.17511 0.00472 0.0835 0.0
H363 H 0.24205 0.05542 0.19933 0.0
H364 H 0.21035 0.91407 0.18019 0.0
H365 H 0.16548 0.85399 0.17573 0.0
H366 H 0.12873 0.8716 0.30009 0.0
H367 H 0.17291 0.93225 0.30511 0.0
C368 C 0.38155 0.00033 0.3296 0.0
C369 C 0.37102 0.99794 0.37111 0.0
C370 C 0.35135 0.00039 0.29964 0.0
C371 C 0.31011 0.99821 0.31059 0.0
C372 C 0.29946 0.99519 0.35184 0.0
C373 C 0.32959 0.9952 0.38184 0.0
C374 C 0.278 -0.00077 0.27899 0.0
C375 C 0.25088 0.96629 0.27626 0.0
C376 C 0.27487 0.03178 0.25095 0.0
C377 C 0.30149 0.06829 0.25357 0.0
C378 C 0.30373 0.0912 0.28979 0.0
C379 C 0.3293 0.12519 0.29224 0.0
C380 C 0.35257 0.1368 0.25855 0.0
C381 C 0.35019 0.11451 0.2223 0.0
C382 C 0.32471 0.08045 0.21971 0.0
C383 C 0.11413 0.99621 0.16743 0.0
C384 C 0.12451 -0.00082 0.12592 0.0
C385 C 0.14442 0.99592 0.19728 0.0
C386 C 0.18563 -0.00159 0.18624 0.0
C387 C 0.19613 0.00198 0.145 0.0
C388 C 0.1659 0.00223 0.1151 0.0
C389 C 0.21785 0.99727 0.21773 0.0
C390 C 0.245 0.03019 0.22045 0.0
C391 C 0.22105 0.96466 0.24571 0.0
C392 C 0.19465 0.928 0.24289 0.0
C393 C 0.19245 0.90536 0.20649 0.0
C394 C 0.16718 0.87116 0.20388 0.0
C395 C 0.14417 0.85905 0.23757 0.0
C396 C 0.14651 0.88106 0.274 0.0
C397 C 0.17169 0.91534 0.27675 0.0
H398 H 0.1246 0.83258 0.23548 0.0
H399 H 0.37238 0.16311 0.26051 0.0
H400 H 0.03597 0.91172 0.8269 0.0
H401 H 0.04175 0.85973 0.77379 0.0
H402 H 0.99416 0.76953 0.85657 0.0
H403 H 0.98905 0.82102 0.91012 0.0
H404 H 0.0546 0.73899 0.80843 0.0
H405 H 0.93462 0.82291 0.79338 0.0
H406 H 0.90114 0.88962 0.7855 0.0
H407 H 0.95943 0.90577 0.66957 0.0
H408 H 0.99523 0.84022 0.67782 0.0
H409 H 0.97726 0.58954 0.67384 0.0
H410 H 0.98145 0.64275 0.72589 0.0
H411 H 0.02437 0.72801 0.63563 0.0
H412 H 0.0195 0.67536 0.58327 0.0
H413 H 0.9703 0.76319 0.68538 0.0
H414 H 0.08719 0.67693 0.69865 0.0
H415 H 0.12357 0.61205 0.70844 0.0
H416 H 0.07275 0.60095 0.82842 0.0
H417 H 0.03403 0.66447 0.81851 0.0
C418 C 0.02684 0.88079 0.83386 0.0
C419 C 0.01116 0.87065 0.87245 0.0
C420 C 0.0304 0.85112 0.80355 0.0
C421 C 0.0176 0.81105 0.81108 0.0
C422 C 0.004 0.80037 0.85015 0.0
C423 C 0.00086 0.8299 0.88062 0.0
C424 C 0.01501 0.78097 0.77759 0.0
C425 C 0.03588 0.74396 0.78171 0.0
C426 C 0.99126 0.78825 0.74231 0.0
C427 C 0.96811 0.82678 0.73649 0.0
C428 C 0.94074 0.84086 0.76641 0.0
C429 C 0.92153 0.87862 0.762 0.0
C430 C 0.92818 0.90193 0.72708 0.0
C431 C 0.95433 0.88769 0.69664 0.0
C432 C 0.97434 0.85035 0.7013 0.0
C433 C 0.98752 0.61963 0.66503 0.0
C434 C -0.00164 0.6281 0.62445 0.0
C435 C 0.98991 0.64998 0.69481 0.0
C436 C 0.00385 0.68912 0.6847 0.0
C437 C 0.0136 0.69798 0.64407 0.0
C438 C 0.01086 0.66779 0.6142 0.0
C439 C 0.00932 0.72062 0.7166 0.0
C440 C 0.98907 0.75804 0.7121 0.0
C441 C 0.03361 0.71365 0.75162 0.0
C442 C 0.05719 0.67538 0.75759 0.0
C443 C 0.08323 0.66042 0.72691 0.0
C444 C 0.10428 0.62382 0.73248 0.0
C445 C 0.10065 0.60252 0.76911 0.0
C446 C 0.07554 0.61749 0.80006 0.0
C447 C 0.0538 0.65366 0.79436 0.0
H448 H 0.11734 0.57447 0.77362 0.0
H449 H 0.91294 0.93096 0.72355 0.0
H450 H 0.08238 0.98934 0.82075 0.0
H451 H 0.13492 0.98894 0.7682 0.0
H452 H 0.22704 0.0097 0.85967 0.0
H453 H 0.17473 0.01069 0.91255 0.0
H454 H 0.23679 0.05842 0.7936 0.0
H455 H 0.2122 0.91614 0.81944 0.0
H456 H 0.16916 0.85492 0.82592 0.0
H457 H 0.13422 0.86512 0.70025 0.0
H458 H 0.1764 0.9269 0.69321 0.0
H459 H 0.41171 0.01167 0.67657 0.0
H460 H 0.3586 0.00991 0.72856 0.0
H461 H 0.26786 0.98896 0.63579 0.0
H462 H 0.32065 0.99023 0.58349 0.0
H463 H 0.25644 0.94006 0.70156 0.0
H464 H 0.28069 0.08113 0.67522 0.0
H465 H 0.32203 0.14324 0.66799 0.0
H466 H 0.35555 0.1368 0.79433 0.0
H467 H 0.31567 0.07359 0.80193 0.0
C468 C 0.11378 0.99394 0.8298 0.0
C469 C 0.12432 -8e-05 0.87097 0.0
C470 C 0.14377 0.99345 0.7997 0.0
C471 C 0.18485 -0.00126 0.81017 0.0
C472 C 0.19547 0.00534 0.85106 0.0
C473 C 0.16553 0.00574 0.88123 0.0
C474 C 0.21679 0.99788 0.77843 0.0
C475 C 0.24165 0.0323 0.77395 0.0
C476 C 0.22192 0.96418 0.75194 0.0
C477 C 0.19715 0.92648 0.75592 0.0
C478 C 0.1951 0.90554 0.79326 0.0
C479 C 0.17085 0.87072 0.79703 0.0
C480 C 0.14882 0.85624 0.76357 0.0
C481 C 0.15118 0.87644 0.72619 0.0
C482 C 0.17525 0.91138 0.7223 0.0
C483 C 0.3805 0.00668 0.6671 0.0
C484 C 0.3705 0.00145 0.62572 0.0
C485 C 0.35018 0.00574 0.6969 0.0
C486 C 0.30932 -0.00028 0.68592 0.0
C487 C 0.29925 0.99373 0.64483 0.0
C488 C 0.3295 0.99474 0.61497 0.0
C489 C 0.27694 0.00039 0.71725 0.0
C490 C 0.25183 0.96604 0.72147 0.0
C491 C 0.27149 0.0342 0.74351 0.0
C492 C 0.29548 0.07232 0.73903 0.0
C493 C 0.29723 0.09266 0.70137 0.0
C494 C 0.3204 0.12813 0.69721 0.0
C495 C 0.3414 0.14404 0.73069 0.0
C496 C 0.33933 0.12442 0.76839 0.0
C497 C 0.31655 0.08868 0.77261 0.0
H498 H 0.35925 0.17156 0.72743 0.0
H499 H 0.13 0.82933 0.76658 0.0
H500 H 0.00277 0.32169 0.58615 0.0
H501 H -0.00036 0.26988 0.63918 0.0
H502 H 0.98754 0.36357 0.73076 0.0
H503 H 0.99114 0.41583 0.67805 0.0
H504 H 0.04088 0.30601 0.75407 0.0
H505 H 0.90628 0.30969 0.69837 0.0
H506 H 0.8535 0.3069 0.64501 0.0
H507 H 0.88796 0.18402 0.61606 0.0
H508 H 0.94183 0.18644 0.66838 0.0
H509 H 0.98021 0.17522 0.91406 0.0
H510 H 0.97861 0.22833 0.86229 0.0
H511 H 0.99628 0.13798 0.76832 0.0
H512 H 0.99765 0.08433 0.81982 0.0
H513 H 0.93842 0.195 0.74771 0.0
H514 H 0.07502 0.19288 0.80131 0.0
H515 H 0.12577 0.19462 0.85665 0.0
H516 H 0.08572 0.31445 0.89082 0.0
H517 H 0.03405 0.31307 0.83619 0.0
C518 C -0.00054 0.33143 0.61753 0.0
C519 C 0.99707 0.37305 0.62772 0.0
C520 C 0.99753 0.30169 0.64781 0.0
C521 C 0.99283 0.31289 0.68883 0.0
C522 C 0.9911 0.35431 0.69924 0.0
C523 C 0.99312 0.38413 0.66901 0.0
C524 C 0.98986 0.28131 0.72087 0.0
C525 C 0.01813 0.28206 0.75297 0.0
C526 C 0.96056 0.24968 0.71899 0.0
C527 C 0.92841 0.24839 0.68712 0.0
C528 C 0.90295 0.28222 0.68034 0.0
C529 C 0.87277 0.28068 0.6503 0.0
C530 C 0.86733 0.24525 0.62727 0.0
C531 C 0.89222 0.21142 0.63397 0.0
C532 C 0.92263 0.21289 0.66376 0.0
C533 C 0.98374 0.16646 0.88241 0.0
C534 C 0.98952 0.12542 0.8712 0.0
C535 C 0.98278 0.19694 0.85288 0.0
C536 C 0.98786 0.18708 0.81161 0.0
C537 C 0.9924 0.14615 0.80009 0.0
C538 C 0.9933 0.11557 0.82961 0.0
C539 C 0.9896 0.21959 0.78052 0.0
C540 C 0.9611 0.21903 0.74871 0.0
C541 C 0.01861 0.25141 0.78267 0.0
C542 C 0.05039 0.25271 0.81488 0.0
C543 C 0.07685 0.21951 0.82077 0.0
C544 C 0.10581 0.22043 0.85202 0.0
C545 C 0.10894 0.2546 0.87729 0.0
C546 C 0.08322 0.28798 0.87126 0.0
C547 C 0.05409 0.28715 0.84015 0.0
H548 H 0.13132 0.25524 0.90152 0.0
H549 H 0.84375 0.2439 0.6043 0.0
H550 H 0.58177 0.99002 0.67703 0.0
H551 H 0.63348 0.98144 0.72963 0.0
H552 H 0.72725 0.97781 0.63767 0.0
H553 H 0.67581 0.98584 0.58453 0.0
H554 H 0.73732 0.91972 0.70137 0.0
H555 H 0.70701 0.06438 0.68487 0.0
H556 H 0.65635 0.11978 0.68191 0.0
H557 H 0.62078 0.09501 0.80531 0.0
H558 H 0.67035 0.0386 0.80859 0.0
H559 H 0.91145 0.97418 0.82109 0.0
H560 H 0.85793 0.96689 0.76976 0.0
H561 H 0.76648 0.98689 0.86203 0.0
H562 H 0.8194 0.99469 0.91337 0.0
H563 H 0.75309 0.03409 0.79913 0.0
H564 H 0.78067 0.89453 0.82063 0.0
H565 H 0.81609 0.82852 0.82516 0.0
H566 H 0.84762 0.83562 0.69839 0.0
H567 H 0.81365 0.9024 0.6934 0.0
C568 C 0.61334 0.98735 0.66781 0.0
C569 C 0.62461 0.98931 0.62647 0.0
C570 C 0.64281 0.98226 0.69797 0.0
C571 C 0.68412 0.97944 0.68746 0.0
C572 C 0.69547 0.97997 0.6463 0.0
C573 C 0.666 0.98495 0.61603 0.0
C574 C 0.7157 0.97881 0.71952 0.0
C575 C 0.74157 0.94497 0.7223 0.0
C576 C 0.71954 0.01107 0.74785 0.0
C577 C 0.69216 0.04705 0.74686 0.0
C578 C 0.68839 0.07075 0.71137 0.0
C579 C 0.65977 0.10224 0.70959 0.0
C580 C 0.63529 0.1108 0.74337 0.0
C581 C 0.6397 0.08825 0.77915 0.0
C582 C 0.66802 0.05649 0.78097 0.0
C583 C 0.87996 0.97701 0.83053 0.0
C584 C 0.86985 0.98552 0.87139 0.0
C585 C 0.8494 0.97242 0.80118 0.0
C586 C 0.80824 0.97618 0.81213 0.0
C587 C 0.79807 0.98394 0.85292 0.0
C588 C 0.82847 0.98844 0.88225 0.0
C589 C 0.77583 0.97515 0.78074 0.0
C590 C 0.7496 0.00886 0.778 0.0
C591 C 0.77131 0.94233 0.75298 0.0
C592 C 0.79485 0.90381 0.75673 0.0
C593 C 0.79584 0.88249 0.79388 0.0
C594 C 0.81549 0.84478 0.79649 0.0
C595 C 0.83388 0.82777 0.76204 0.0
C596 C 0.83311 0.84869 0.725 0.0
C597 C 0.81386 0.88659 0.72233 0.0
H598 H 0.84896 0.79851 0.76409 0.0
H599 H 0.61282 0.13483 0.74185 0.0
H600 H 0.32043 0.4127 0.98913 0.0
H601 H 0.26762 0.36064 0.98949 0.0
H602 H 0.35927 0.26708 0.00042 0.0
H603 H 0.41266 0.31894 -0.00034 0.0
H604 H 0.30292 0.24874 0.94325 0.0
H605 H 0.30388 0.29903 0.08045 0.0
H606 H 0.29934 0.35036 0.13515 0.0
H607 H 0.17597 0.37696 0.10124 0.0
H608 H 0.18018 0.32709 0.04512 0.0
H609 H 0.17467 0.08457 -0.0007 0.0
H610 H 0.22674 0.13744 0.99758 0.0
H611 H 0.13364 0.22955 0.98656 0.0
H612 H 0.08109 0.17701 0.98867 0.0
H613 H 0.18994 0.24918 0.04361 0.0
H614 H 0.18927 0.20278 0.90558 0.0
H615 H 0.19283 0.1532 0.84911 0.0
H616 H 0.314 0.1198 0.88513 0.0
H617 H 0.3109 0.16863 0.94233 0.0
C618 C 0.32954 0.38109 0.99172 0.0
C619 C 0.37091 0.37006 0.99453 0.0
C620 C 0.2992 0.3514 0.99206 0.0
C621 C 0.30955 0.31014 0.99557 0.0
C622 C 0.35073 0.29887 0.99785 0.0
C623 C 0.38117 0.32855 0.99741 0.0
C624 C 0.27742 0.27863 0.99588 0.0
C625 C 0.27855 0.24844 0.96558 0.0
C626 C 0.24497 0.27923 0.02436 0.0
C627 C 0.24258 0.3096 0.05803 0.0
C628 C 0.27595 0.3162 0.08417 0.0
C629 C 0.27341 0.345 0.11555 0.0
C630 C 0.23741 0.36685 0.12169 0.0
C631 C 0.20389 0.36008 0.09637 0.0
C632 C 0.20639 0.33165 0.06466 0.0
C633 C 0.16511 0.11602 0.9964 0.0
C634 C 0.12358 0.12646 0.99418 0.0
C635 C 0.19499 0.14619 0.99525 0.0
C636 C 0.18399 0.1873 0.99161 0.0
C637 C 0.14268 0.19793 0.98941 0.0
C638 C 0.11272 0.1678 0.99057 0.0
C639 C 0.21564 0.21928 0.99117 0.0
C640 C 0.21439 0.24954 0.02139 0.0
C641 C 0.24789 0.21891 0.9626 0.0
C642 C 0.24965 0.18909 0.92854 0.0
C643 C 0.21649 0.18455 0.90176 0.0
C644 C 0.21845 0.15664 0.86958 0.0
C645 C 0.25356 0.13333 0.86366 0.0
C646 C 0.28679 0.13784 0.88986 0.0
C647 C 0.28494 0.16563 0.92216 0.0
H648 H 0.25508 0.11189 0.83869 0.0
H649 H 0.23548 0.38899 0.1461 0.0
H650 H 0.40879 0.67378 0.98334 0.0
H651 H 0.35597 0.72596 0.98428 0.0
H652 H 0.26596 0.63503 0.01415 0.0
H653 H 0.31851 0.58229 0.0127 0.0
H654 H 0.23865 0.68682 0.95644 0.0
H655 H 0.30376 0.69713 0.08698 0.0
H656 H 0.36242 0.70377 0.13353 0.0
H657 H 0.39142 0.82017 0.08167 0.0
H658 H 0.33342 0.81393 0.03423 0.0
H659 H 0.08351 0.82267 0.01848 0.0
H660 H 0.13576 0.7699 0.01899 0.0
H661 H 0.2268 0.859 0.98688 0.0
H662 H 0.17486 0.91232 0.98678 0.0
H663 H 0.25311 0.80766 0.0465 0.0
H664 H 0.18747 0.79633 0.9154 0.0
H665 H 0.12817 0.78913 0.86973 0.0
H666 H 0.09949 0.67369 0.92395 0.0
H667 H 0.15817 0.6805 0.97045 0.0
C668 C 0.3778 0.66478 0.99021 0.0
C669 C 0.36793 0.62387 0.99825 0.0
C670 C 0.34767 0.69468 0.99077 0.0
C671 C 0.30724 0.68437 -0.00013 0.0
C672 C 0.29706 0.64354 0.00715 0.0
C673 C 0.32715 0.6135 0.00636 0.0
C674 C 0.27564 0.71635 0.002 0.0
C675 C 0.2415 0.71298 0.9765 0.0
C676 C 0.2799 0.75076 0.02771 0.0
C677 C 0.31439 0.7549 0.05678 0.0
C678 C 0.32278 0.72403 0.0853 0.0
C679 C 0.3559 0.72772 0.11187 0.0
C680 C 0.38063 0.76233 0.11052 0.0
C681 C 0.37224 0.79336 0.08266 0.0
C682 C 0.33924 0.78978 0.05593 0.0
C683 C 0.11461 0.83116 0.01146 0.0
C684 C 0.12492 0.87173 0.00226 0.0
C685 C 0.14441 0.80091 0.01175 0.0
C686 C 0.18496 0.81053 0.00242 0.0
C687 C 0.19559 0.85104 0.99409 0.0
C688 C 0.16584 0.88141 0.99398 0.0
C689 C 0.2162 0.77817 0.00086 0.0
C690 C 0.25026 0.78147 0.02646 0.0
C691 C 0.21179 0.74362 0.97536 0.0
C692 C 0.17702 0.73912 0.94671 0.0
C693 C 0.16838 0.76952 0.91777 0.0
C694 C 0.13488 0.7655 0.89172 0.0
C695 C 0.11002 0.73104 0.89407 0.0
C696 C 0.11874 0.7004 0.92225 0.0
C697 C 0.15212 0.70432 0.94844 0.0
H698 H 0.08399 0.72802 0.87411 0.0
H699 H 0.40623 0.76513 0.13113 0.0
H700 H 0.58565 0.323 0.98231 0.0
H701 H 0.63839 0.2708 0.98469 0.0
H702 H 0.7277 0.36187 0.01654 0.0
H703 H 0.67525 0.41462 0.01371 0.0
H704 H 0.75607 0.31069 0.95911 0.0
H705 H 0.68849 0.29861 0.08812 0.0
H706 H 0.62947 0.29072 0.13397 0.0
H707 H 0.60282 0.17427 0.0805 0.0
H708 H 0.6612 0.18175 0.03377 0.0
H709 H 0.91078 0.17389 0.01886 0.0
H710 H 0.85855 0.22663 0.02053 0.0
H711 H 0.76741 0.13804 0.98694 0.0
H712 H 0.81934 0.08471 0.98577 0.0
H713 H 0.74068 0.1886 0.04681 0.0
H714 H 0.80683 0.20173 0.91657 0.0
H715 H 0.86616 0.20922 0.87106 0.0
H716 H 0.89562 0.32362 0.92748 0.0
H717 H 0.83688 0.31648 0.97384 0.0
C718 C 0.61647 0.33205 0.98993 0.0
C719 C 0.62615 0.37304 0.99802 0.0
C720 C 0.64655 0.3021 0.99137 0.0
C721 C 0.68678 0.31243 0.00138 0.0
C722 C 0.69676 0.35331 0.00886 0.0
C723 C 0.66672 0.38339 0.00723 0.0
C724 C 0.7185 0.28052 0.00365 0.0
C725 C 0.75301 0.28428 0.97872 0.0
C726 C 0.71395 0.2457 0.02866 0.0
C727 C 0.67904 0.24094 0.05712 0.0
C728 C 0.66987 0.27145 0.08589 0.0
C729 C 0.63655 0.26704 0.11207 0.0
C730 C 0.61237 0.23208 0.11004 0.0
C731 C 0.62155 0.20137 0.08197 0.0
C732 C 0.65476 0.20568 0.05564 0.0
C733 C 0.87966 0.16549 0.01175 0.0
C734 C 0.86934 0.12506 0.00182 0.0
C735 C 0.84986 0.19573 0.01274 0.0
C736 C 0.80928 0.18629 0.00332 0.0
C737 C 0.79863 0.1459 0.99424 0.0
C738 C 0.82839 0.11551 0.99348 0.0
C739 C 0.77809 0.21875 0.00217 0.0
C740 C 0.74372 0.21508 0.0273 0.0
C741 C 0.78274 0.25367 0.97736 0.0
C742 C 0.81763 0.25839 0.94893 0.0
C743 C 0.8261 0.22837 0.91945 0.0
C744 C 0.85962 0.23255 0.89349 0.0
C745 C 0.88468 0.26683 0.89643 0.0
C746 C 0.8762 0.29706 0.92526 0.0
C747 C 0.84279 0.29297 0.95137 0.0
H748 H 0.9106 0.27002 0.8763 0.0
H749 H 0.58654 0.22875 0.13022 0.0
H750 H 0.81973 0.9137 0.99199 0.0
H751 H 0.76676 0.86176 0.99275 0.0
H752 H 0.85812 0.76806 0.00479 0.0
H753 H 0.91164 0.81973 0.00365 0.0
H754 H 0.80045 0.74944 0.94771 0.0
H755 H 0.8049 0.80209 0.08428 0.0
H756 H 0.80234 0.85633 0.13628 0.0
H757 H 0.67829 0.88229 0.10425 0.0
H758 H 0.6806 0.8296 0.05066 0.0
H759 H 0.67351 0.58591 0.00426 0.0
H760 H 0.72546 0.63884 0.00402 0.0
H761 H 0.63224 0.73115 0.99606 0.0
H762 H 0.57974 0.67845 0.99673 0.0
H763 H 0.69022 0.75112 0.05118 0.0
H764 H 0.68547 0.70513 0.91338 0.0
H765 H 0.68651 0.65569 0.85663 0.0
H766 H 0.80814 0.62015 0.88899 0.0
H767 H 0.8075 0.66885 0.94642 0.0
C768 C 0.82873 0.88208 0.99486 0.0
C769 C 0.87005 0.87094 0.99797 0.0
C770 C 0.79833 0.85247 0.99536 0.0
C771 C 0.80859 0.81122 -0.00065 0.0
C772 C 0.84969 0.79984 0.00181 0.0
C773 C 0.88019 0.82943 0.00122 0.0
C774 C 0.77639 0.77987 0.0007 0.0
C775 C 0.77667 0.7494 0.97068 0.0
C776 C 0.74473 0.78087 0.03002 0.0
C777 C 0.74313 0.81211 0.06295 0.0
C778 C 0.7772 0.81963 0.08793 0.0
C779 C 0.77579 0.85011 0.11775 0.0
C780 C 0.74017 0.87265 0.12364 0.0
C781 C 0.7059 0.86485 0.09962 0.0
C782 C 0.7073 0.83478 0.06938 0.0
C783 C 0.66388 0.61742 0.00244 0.0
C784 C 0.62234 0.62783 0.00032 0.0
C785 C 0.6937 0.64763 0.0022 0.0
C786 C 0.68266 0.6888 -0.00046 0.0
C787 C 0.64132 0.69947 0.99808 0.0
C788 C 0.61139 0.66926 -0.00163 0.0
C789 C 0.71441 0.72066 0.99827 0.0
C790 C 0.71406 0.75117 0.02828 0.0
C791 C 0.7458 0.72004 0.96872 0.0
C792 C 0.7462 0.69032 0.9345 0.0
C793 C 0.71223 0.68643 0.90866 0.0
C794 C 0.71279 0.65861 0.87634 0.0
C795 C 0.74732 0.63472 0.86931 0.0
C796 C 0.78137 0.63861 0.89457 0.0
C797 C 0.78092 0.66633 0.92701 0.0
H798 H 0.74776 0.61331 0.84419 0.0
H799 H 0.73913 0.89611 0.14685 0.0
H800 H 0.58263 0.50683 0.81974 0.0
H801 H 0.63552 0.50462 0.76759 0.0
H802 H 0.72765 0.49508 0.86085 0.0
H803 H 0.67523 0.49788 0.91335 0.0
H804 H 0.74843 0.54917 0.80347 0.0
H805 H 0.69551 0.41243 0.80692 0.0
H806 H 0.64165 0.36013 0.80342 0.0
H807 H 0.61445 0.39511 0.6804 0.0
H808 H 0.66752 0.4482 0.68339 0.0
H809 H 0.9132 0.49191 0.67713 0.0
H810 H 0.8604 0.49094 0.72941 0.0
H811 H 0.76772 0.49938 0.63659 0.0
H812 H 0.82008 0.49983 0.58395 0.0
H813 H 0.74733 0.44483 0.69387 0.0
H814 H 0.79762 0.58187 0.68983 0.0
H815 H 0.84971 0.63591 0.69229 0.0
H816 H 0.87975 0.60259 0.81514 0.0
H817 H 0.82845 0.54772 0.81314 0.0
C818 C 0.61412 0.50433 0.82928 0.0
C819 C 0.62459 0.50234 0.87084 0.0
C820 C 0.64428 0.50287 0.79937 0.0
C821 C 0.68537 0.49904 0.81042 0.0
C822 C 0.69603 0.49784 0.85176 0.0
C823 C 0.66596 0.4994 0.88171 0.0
C824 C 0.71742 0.49681 0.7789 0.0
C825 C 0.74855 0.52606 0.77981 0.0
C826 C 0.71678 0.46714 0.74753 0.0
C827 C 0.68523 0.4347 0.74557 0.0
C828 C 0.67782 0.40924 0.77923 0.0
C829 C 0.64744 0.37941 0.77733 0.0
C830 C 0.62455 0.37443 0.74177 0.0
C831 C 0.63213 0.39909 0.70796 0.0
C832 C 0.66236 0.42906 0.70975 0.0
C833 C 0.88162 0.49357 0.66772 0.0
C834 C 0.87097 0.49632 0.62627 0.0
C835 C 0.8515 0.49304 0.69769 0.0
C836 C 0.81025 0.49564 0.68682 0.0
C837 C 0.79943 0.49745 0.64555 0.0
C838 C 0.82948 0.49786 0.61553 0.0
C839 C 0.77833 0.49724 0.7185 0.0
C840 C 0.74724 0.4679 0.71761 0.0
C841 C 0.77881 0.52701 0.74977 0.0
C842 C 0.80955 0.56023 0.75111 0.0
C843 C 0.81562 0.58575 0.71723 0.0
C844 C 0.84499 0.61658 0.71856 0.0
C845 C 0.86817 0.62256 0.75378 0.0
C846 C 0.86189 0.59783 0.78782 0.0
C847 C 0.83269 0.56683 0.78659 0.0
H848 H 0.8909 0.64643 0.75473 0.0
H849 H 0.60097 0.35145 0.74035 0.0
H850 H 0.09007 0.52956 0.67086 0.0
H851 H 0.14339 0.52729 0.723 0.0
H852 H 0.22281 0.46399 0.63962 0.0
H853 H 0.16994 0.46625 0.58711 0.0
H854 H 0.21554 0.42882 0.71995 0.0
H855 H 0.23967 0.557 0.65373 0.0
H856 H 0.22273 0.62557 0.62842 0.0
H857 H 0.19614 0.665 0.75039 0.0
H858 H 0.21158 0.59625 0.77632 0.0
H859 H 0.4057 0.45713 0.82773 0.0
H860 H 0.35169 0.45339 0.77606 0.0
H861 H 0.27175 0.52208 0.85475 0.0
H862 H 0.32506 0.52539 0.90659 0.0
H863 H 0.27935 0.55381 0.77616 0.0
H864 H 0.25359 0.42906 0.84378 0.0
H865 H 0.26321 0.36012 0.87164 0.0
H866 H 0.28694 0.31386 0.75149 0.0
H867 H 0.27896 0.38284 0.72299 0.0
C868 C 0.11888 0.51514 0.66363 0.0
C869 C 0.1259 0.49812 0.62491 0.0
C870 C 0.14927 0.51409 0.69334 0.0
C871 C 0.1869 0.49572 0.68491 0.0
C872 C 0.1939 0.47837 0.64651 0.0
C873 C 0.16377 0.47989 0.61657 0.0
C874 C 0.21883 0.49416 0.71645 0.0
C875 C 0.23017 0.45599 0.73187 0.0
C876 C 0.23645 0.52996 0.73267 0.0
C877 C 0.2263 0.57119 0.71693 0.0
C878 C 0.22958 0.58005 0.67512 0.0
C879 C 0.22033 0.61902 0.66066 0.0
C880 C 0.20831 0.64961 0.68777 0.0
C881 C 0.20552 0.6413 0.72942 0.0
C882 C 0.21435 0.60227 0.74399 0.0
C883 C 0.37656 0.47137 0.83393 0.0
C884 C 0.36959 0.49183 0.87098 0.0
C885 C 0.34572 0.4689 0.80463 0.0
C886 C 0.30784 0.48738 0.8118 0.0
C887 C 0.30081 0.50756 0.84882 0.0
C888 C 0.33126 0.50941 0.87834 0.0
C889 C 0.27639 0.48835 0.7797 0.0
C890 C 0.26506 0.5265 0.76414 0.0
C891 C 0.25843 0.45251 0.76378 0.0
C892 C 0.26631 0.41146 0.78127 0.0
C893 C 0.2618 0.40446 0.82334 0.0
C894 C 0.26671 0.36526 0.83925 0.0
C895 C 0.27558 0.33261 0.81335 0.0
C896 C 0.27991 0.33915 0.77151 0.0
C897 C 0.27545 0.37836 0.7555 0.0
H898 H 0.27923 0.30227 0.82572 0.0
H899 H 0.2012 0.67977 0.67652 0.0
H900 H 0.08186 0.49462 0.31979 0.0
H901 H 0.13427 0.49578 0.26712 0.0
H902 H 0.227 0.51017 0.35917 0.0
H903 H 0.17494 0.5095 0.41218 0.0
H904 H 0.23908 0.56064 0.29507 0.0
H905 H 0.20803 0.42015 0.31714 0.0
H906 H 0.16491 0.35908 0.32182 0.0
H907 H 0.13441 0.36959 0.19503 0.0
H908 H 0.17605 0.43189 0.18994 0.0
H909 H 0.41159 0.50596 0.17534 0.0
H910 H 0.35868 0.50902 0.22747 0.0
H911 H 0.26639 0.49362 0.13512 0.0
H912 H 0.31894 0.49006 0.08271 0.0
H913 H 0.25396 0.44446 0.1993 0.0
H914 H 0.28542 0.58539 0.17751 0.0
H915 H 0.32863 0.64659 0.17345 0.0
H916 H 0.3598 0.63422 0.29991 0.0
H917 H 0.31743 0.57234 0.30457 0.0
C918 C 0.11336 0.49811 0.32896 0.0
C919 C 0.12414 0.50165 0.37034 0.0
C920 C 0.14326 0.49865 0.29876 0.0
C921 C 0.18446 0.50256 0.30936 0.0
C922 C 0.19532 0.50699 0.35045 0.0
C923 C 0.16548 0.5064 0.3807 0.0
C924 C 0.21637 0.50159 0.27763 0.0
C925 C 0.24274 0.53507 0.27439 0.0
C926 C 0.2203 0.46847 0.25021 0.0
C927 C 0.19477 0.43117 0.25332 0.0
C928 C 0.19168 0.40987 0.29037 0.0
C929 C 0.16754 0.37491 0.29307 0.0
C930 C 0.14696 0.36037 0.25873 0.0
C931 C 0.1503 0.38092 0.22164 0.0
C932 C 0.17405 0.41618 0.21887 0.0
C933 C 0.38007 0.50314 0.16601 0.0
C934 C 0.36957 0.4978 0.12474 0.0
C935 C 0.34987 0.50521 0.19587 0.0
C936 C 0.30868 0.5021 0.18502 0.0
C937 C 0.29806 0.4963 0.14402 0.0
C938 C 0.32818 0.49432 0.11412 0.0
C939 C 0.27658 0.50359 0.21655 0.0
C940 C 0.25023 0.47013 0.21984 0.0
C941 C 0.27277 0.53668 0.24405 0.0
C942 C 0.29867 0.57375 0.2412 0.0
C943 C 0.3019 0.59534 0.20434 0.0
C944 C 0.3262 0.63024 0.20195 0.0
C945 C 0.34713 0.64418 0.23634 0.0
C946 C 0.34372 0.62329 0.27324 0.0
C947 C 0.31957 0.58826 0.27575 0.0
H948 H 0.36584 0.67127 0.23443 0.0
H949 H 0.12854 0.33312 0.26085 0.0
H950 H 0.58188 0.51289 0.17564 0.0
H951 H 0.63447 0.51524 0.22824 0.0
H952 H 0.72694 0.49478 0.1371 0.0
H953 H 0.6747 0.492 0.08425 0.0
H954 H 0.73592 0.44497 0.20248 0.0
H955 H 0.71422 0.58791 0.17864 0.0
H956 H 0.67569 0.65218 0.17356 0.0
H957 H 0.63906 0.6412 0.29869 0.0
H958 H 0.67681 0.57647 0.30433 0.0
H959 H 0.91045 0.48798 0.32126 0.0
H960 H 0.85734 0.48964 0.2693 0.0
H961 H 0.767 0.51344 0.3618 0.0
H962 H 0.81988 0.5123 0.41408 0.0
H963 H 0.75645 0.56188 0.2963 0.0
H964 H 0.7752 0.41943 0.32094 0.0
H965 H 0.81289 0.35486 0.32782 0.0
H966 H 0.85299 0.36397 0.2036 0.0
H967 H 0.81582 0.4289 0.19611 0.0
C968 C 0.61338 0.50888 0.16668 0.0
C969 C 0.62399 0.50213 0.12564 0.0
C970 C 0.64342 0.51054 0.1968 0.0
C971 C 0.68458 0.50553 0.18647 0.0
C972 C 0.69531 0.49881 0.14564 0.0
C973 C 0.66537 0.49731 0.11547 0.0
C974 C 0.7164 0.50561 0.21843 0.0
C975 C 0.74079 0.47076 0.22265 0.0
C976 C 0.72178 0.53878 0.24552 0.0
C977 C 0.69806 0.57711 0.24178 0.0
C978 C 0.69753 0.59891 0.20493 0.0
C979 C 0.67588 0.63549 0.20197 0.0
C980 C 0.65487 0.65072 0.23575 0.0
C981 C 0.65531 0.62934 0.27252 0.0
C982 C 0.67684 0.59272 0.27562 0.0
C983 C 0.87933 0.49357 0.33068 0.0
C984 C 0.86949 0.49974 0.37197 0.0
C985 C 0.84897 0.49433 0.3009 0.0
C986 C 0.8082 0.50114 0.31179 0.0
C987 C 0.79829 0.50796 0.35281 0.0
C988 C 0.82859 0.5071 0.38266 0.0
C989 C 0.77591 0.50128 0.2803 0.0
C990 C 0.75146 0.53609 0.27619 0.0
C991 C 0.77015 0.46794 0.25352 0.0
C992 C 0.79304 0.42922 0.25809 0.0
C993 C 0.79239 0.40788 0.29521 0.0
C994 C 0.81359 0.37116 0.29919 0.0
C995 C 0.8354 0.35536 0.26618 0.0
C996 C 0.8361 0.37627 0.22915 0.0
C997 C 0.81493 0.41301 0.225 0.0
H998 H 0.85157 0.3268 0.2692 0.0
H999 H 0.63845 0.67922 0.23354 0.0
H1000 H 0.31889 0.91569 0.50684 0.0
H1001 H 0.26646 0.86295 0.50845 0.0
H1002 H 0.3593 0.76996 0.50612 0.0
H1003 H 0.41197 0.82221 0.50413 0.0
H1004 H 0.30017 0.75521 0.45105 0.0
H1005 H 0.30711 0.79017 0.59305 0.0
H1006 H 0.30516 0.83457 0.65391 0.0
H1007 H 0.18276 0.87012 0.62484 0.0
H1008 H 0.18421 0.82641 0.56354 0.0
H1009 H 0.17634 0.58458 0.49879 0.0
H1010 H 0.22826 0.63776 0.50035 0.0
H1011 H 0.13454 0.72988 0.50236 0.0
H1012 H 0.0823 0.67712 0.50131 0.0
H1013 H 0.19343 0.74554 0.55752 0.0
H1014 H 0.18569 0.70988 0.41634 0.0
H1015 H 0.18644 0.66419 0.35678 0.0
H1016 H 0.30992 0.63018 0.38332 0.0
H1017 H 0.30931 0.67442 0.44423 0.0
C1018 C 0.32827 0.88405 0.50678 0.0
C1019 C 0.36977 0.87332 0.5052 0.0
C1020 C 0.29821 0.85395 0.50795 0.0
C1021 C 0.30903 0.81258 0.5077 0.0
C1022 C 0.35033 0.80173 0.50635 0.0
C1023 C 0.3804 0.83174 0.50526 0.0
C1024 C 0.27733 0.78051 0.50715 0.0
C1025 C 0.27725 0.75261 0.47467 0.0
C1026 C 0.2466 0.77815 0.5373 0.0
C1027 C 0.24603 0.80541 0.57345 0.0
C1028 C 0.28003 0.8079 0.59937 0.0
C1029 C 0.27896 0.83282 0.63397 0.0
C1030 C 0.24393 0.85521 0.64311 0.0
C1031 C 0.20991 0.85281 0.61764 0.0
C1032 C 0.21084 0.82796 0.58298 0.0
C1033 C 0.16665 0.61612 0.49954 0.0
C1034 C 0.12503 0.62647 0.49981 0.0
C1035 C 0.19642 0.64647 0.50028 0.0
C1036 C 0.18518 0.68771 0.50107 0.0
C1037 C 0.14379 0.69819 0.50171 0.0
C1038 C 0.11399 0.66792 0.50098 0.0
C1039 C 0.2166 0.72001 0.50162 0.0
C1040 C 0.21651 0.74802 0.53398 0.0
C1041 C 0.24711 0.72253 0.4713 0.0
C1042 C 0.24737 0.69534 0.43503 0.0
C1043 C 0.21286 0.69232 0.40979 0.0
C1044 C 0.21326 0.66666 0.37575 0.0
C1045 C 0.24823 0.64434 0.36616 0.0
C1046 C 0.28282 0.64744 0.3908 0.0
C1047 C 0.28241 0.67271 0.42518 0.0
H1048 H 0.24854 0.62468 0.33964 0.0
H1049 H 0.24308 0.8742 0.67005 0.0
H1050 H 0.16643 0.40585 0.45841 0.0
H1051 H 0.21916 0.35295 0.45697 0.0
H1052 H 0.14563 0.27724 0.53506 0.0
H1053 H 0.09226 0.32956 0.53585 0.0
H1054 H 0.23238 0.28904 0.55856 0.0
H1055 H 0.14624 0.24951 0.44714 0.0
H1056 H 0.10807 0.25888 0.38314 0.0
H1057 H 0.21914 0.28751 0.32033 0.0
H1058 H 0.25792 0.27918 0.38423 0.0
H1059 H 0.33093 0.09605 0.53509 0.0
H1060 H 0.27939 0.15012 0.53544 0.0
H1061 H 0.35416 0.22224 0.45515 0.0
H1062 H 0.40639 0.16874 0.45547 0.0
H1063 H 0.26781 0.2134 0.43229 0.0
H1064 H 0.35442 0.25138 0.54258 0.0
H1065 H 0.3931 0.24326 0.60641 0.0
H1066 H 0.28216 0.21942 0.67139 0.0
H1067 H 0.24285 0.22622 0.60766 0.0
C1068 C 0.16154 0.37793 0.47528 0.0
C1069 C 0.12531 0.37172 0.49723 0.0
C1070 C 0.19156 0.34778 0.47431 0.0
C1071 C 0.18609 0.31134 0.49586 0.0
C1072 C 0.15024 0.30524 0.51824 0.0
C1073 C 0.1198 0.335 0.51851 0.0
C1074 C 0.21805 0.27968 0.49521 0.0
C1075 C 0.23984 0.27203 0.53116 0.0
C1076 C 0.22825 0.25856 0.45904 0.0
C1077 C 0.20495 0.26422 0.42065 0.0
C1078 C 0.16249 0.25836 0.41983 0.0
C1079 C 0.14075 0.26333 0.38353 0.0
C1080 C 0.16117 0.27374 0.3477 0.0
C1081 C 0.20337 0.27937 0.34812 0.0
C1082 C 0.22525 0.27458 0.38439 0.0
C1083 C 0.33632 0.12341 0.51747 0.0
C1084 C 0.3726 0.12831 0.49529 0.0
C1085 C 0.30699 0.15424 0.51782 0.0
C1086 C 0.31317 0.19006 0.49542 0.0
C1087 C 0.34901 0.19476 0.47265 0.0
C1088 C 0.37878 0.16433 0.47301 0.0
C1089 C 0.282 0.22251 0.49574 0.0
C1090 C 0.26039 0.23037 0.45971 0.0
C1091 C 0.27205 0.24393 0.53184 0.0
C1092 C 0.2957 0.23873 0.57012 0.0
C1093 C 0.33829 0.24371 0.5703 0.0
C1094 C 0.36034 0.23949 0.60651 0.0
C1095 C 0.34011 0.23078 0.64291 0.0
C1096 C 0.29779 0.22615 0.64314 0.0
C1097 C 0.27562 0.23007 0.60696 0.0
H1098 H 0.35722 0.22772 0.67093 0.0
H1099 H 0.1443 0.27745 0.31961 0.0
H1100 H 0.82042 0.58417 0.51075 0.0
H1101 H 0.76787 0.63668 0.51084 0.0
H1102 H 0.85889 0.72847 0.48736 0.0
H1103 H 0.9119 0.67635 0.48778 0.0
H1104 H 0.80644 0.75271 0.5454 0.0
H1105 H 0.79818 0.69362 0.41187 0.0
H1106 H 0.79177 0.63762 0.36204 0.0
H1107 H 0.6739 0.60759 0.40998 0.0
H1108 H 0.6799 0.66291 0.46066 0.0
H1109 H 0.67447 0.91216 0.48591 0.0
H1110 H 0.72652 0.8592 0.4857 0.0
H1111 H 0.63503 0.76848 0.51141 0.0
H1112 H 0.58246 0.8211 0.51114 0.0
H1113 H 0.68747 0.74354 0.45249 0.0
H1114 H 0.69641 0.80445 0.5859 0.0
H1115 H 0.7034 0.86201 0.63389 0.0
H1116 H 0.82114 0.88985 0.58434 0.0
H1117 H 0.81456 0.83301 0.53548 0.0
C1118 C 0.82938 0.61549 0.50552 0.0
C1119 C 0.87044 0.62597 0.49907 0.0
C1120 C 0.79924 0.64544 0.50551 0.0
C1121 C 0.8095 0.68633 0.49862 0.0
C1122 C 0.85041 0.69703 0.49269 0.0
C1123 C 0.88063 0.66714 0.49286 0.0
C1124 C 0.77752 0.71802 0.49767 0.0
C1125 C 0.78066 0.75101 0.52476 0.0
C1126 C 0.74358 0.71521 0.47121 0.0
C1127 C 0.7397 0.68218 0.4404 0.0
C1128 C 0.77103 0.67488 0.41203 0.0
C1129 C 0.76745 0.64327 0.3836 0.0
C1130 C 0.73252 0.61899 0.38296 0.0
C1131 C 0.70099 0.62637 0.4106 0.0
C1132 C 0.70446 0.65785 0.43918 0.0
C1133 C 0.66529 0.88099 0.49159 0.0
C1134 C 0.62423 0.87097 0.49875 0.0
C1135 C 0.69515 0.85078 0.49152 0.0
C1136 C 0.68463 0.81007 0.49905 0.0
C1137 C 0.6437 0.79979 0.50559 0.0
C1138 C 0.61374 0.82995 0.5055 0.0
C1139 C 0.71641 0.7782 0.50021 0.0
C1140 C 0.71322 0.74518 0.47317 0.0
C1141 C 0.75041 0.78108 0.52658 0.0
C1142 C 0.75479 0.81468 0.5567 0.0
C1143 C 0.72369 0.823 0.58504 0.0
C1144 C 0.72757 0.8555 0.61241 0.0
C1145 C 0.76261 0.87965 0.61201 0.0
C1146 C 0.79397 0.87117 0.5845 0.0
C1147 C 0.79018 0.83882 0.55697 0.0
H1148 H 0.76548 0.90495 0.63297 0.0
H1149 H 0.72985 0.59447 0.36103 0.0
H1150 H 0.59717 0.16478 0.45518 0.0
H1151 H 0.65103 0.2166 0.4562 0.0
H1152 H 0.7175 0.14625 0.54498 0.0
H1153 H 0.66438 0.0937 0.54318 0.0
H1154 H 0.70646 0.23333 0.56298 0.0
H1155 H 0.75117 0.14151 0.45962 0.0
H1156 H 0.74695 0.10031 0.39694 0.0
H1157 H 0.73163 0.20893 0.32587 0.0
H1158 H 0.73416 0.25075 0.38831 0.0
H1159 H 0.90526 0.32957 0.53824 0.0
H1160 H 0.85174 0.27746 0.53997 0.0
H1161 H 0.7749 0.35313 0.46523 0.0
H1162 H 0.82786 0.40576 0.46381 0.0
H1163 H 0.79183 0.26276 0.44176 0.0
H1164 H 0.74773 0.35462 0.54697 0.0
H1165 H 0.75176 0.39443 0.61051 0.0
H1166 H 0.76645 0.28428 0.6793 0.0
H1167 H 0.7639 0.24382 0.61603 0.0
C1168 C 0.62331 0.16043 0.47486 0.0
C1169 C 0.62682 0.12529 0.49899 0.0
C1170 C 0.65399 0.18989 0.47533 0.0
C1171 C 0.68814 0.185 0.50054 0.0
C1172 C 0.69135 0.15035 0.52527 0.0
C1173 C 0.66117 0.12039 0.52407 0.0
C1174 C 0.72043 0.21628 0.5012 0.0
C1175 C 0.72557 0.23953 0.53673 0.0
C1176 C 0.74462 0.22447 0.46651 0.0
C1177 C 0.74212 0.19928 0.42888 0.0
C1178 C 0.74608 0.15662 0.43077 0.0
C1179 C 0.7441 0.13313 0.39523 0.0
C1180 C 0.73883 0.15196 0.35747 0.0
C1181 C 0.73554 0.19435 0.35517 0.0
C1182 C 0.73708 0.21796 0.39066 0.0
C1183 C 0.8769 0.33512 0.52227 0.0
C1184 C 0.87059 0.3717 0.50095 0.0
C1185 C 0.84633 0.30555 0.52364 0.0
C1186 C 0.80933 0.31193 0.50335 0.0
C1187 C 0.8032 0.34803 0.48143 0.0
C1188 C 0.83338 0.37798 0.48072 0.0
C1189 C 0.77767 0.28006 0.50344 0.0
C1190 C 0.77275 0.25659 0.46804 0.0
C1191 C 0.75382 0.2716 0.53835 0.0
C1192 C 0.75676 0.29616 0.57641 0.0
C1193 C 0.7529 0.33886 0.57544 0.0
C1194 C 0.75465 0.36158 0.61151 0.0
C1195 C 0.75962 0.34194 0.6489 0.0
C1196 C 0.76277 0.29951 0.65031 0.0
C1197 C 0.7613 0.27668 0.61431 0.0
H1198 H 0.76079 0.35957 0.67679 0.0
H1199 H 0.73748 0.13371 0.32999 0.0
H1200 H 0.50124 0.41971 0.81714 0.0
H1201 H 0.50881 0.37019 0.76226 0.0
H1202 H 0.53212 0.27548 0.85 0.0
H1203 H 0.52471 0.32485 0.90565 0.0
H1204 H 0.58369 0.28162 0.76654 0.0
H1205 H 0.44371 0.273 0.82633 0.0
H1206 H 0.38775 0.31639 0.85181 0.0
H1207 H 0.37763 0.37315 0.73448 0.0
H1208 H 0.43389 0.33035 0.70846 0.0
H1209 H 0.5369 0.09701 0.66558 0.0
H1210 H 0.54328 0.15323 0.71432 0.0
H1211 H 0.47847 0.23243 0.63199 0.0
H1212 H 0.47215 0.1765 0.58297 0.0
H1213 H 0.45021 0.23994 0.7086 0.0
H1214 H 0.57382 0.24335 0.64064 0.0
H1215 H 0.63953 0.22459 0.60982 0.0
H1216 H 0.68897 0.20012 0.72835 0.0
H1217 H 0.6231 0.21731 0.75997 0.0
C1218 C 0.50838 0.38848 0.825 0.0
C1219 C 0.51172 0.37615 0.86597 0.0
C1220 C 0.51299 0.36035 0.79349 0.0
C1221 C 0.52109 0.31943 0.80226 0.0
C1222 C 0.52617 0.30714 0.84283 0.0
C1223 C 0.52138 0.33527 0.87452 0.0
C1224 C 0.51879 0.28877 0.76946 0.0
C1225 C 0.55472 0.27167 0.75415 0.0
C1226 C 0.48091 0.27818 0.75208 0.0
C1227 C 0.44294 0.29858 0.76552 0.0
C1228 C 0.42912 0.29434 0.80584 0.0
C1229 C 0.39759 0.319 0.82044 0.0
C1230 C 0.37954 0.3478 0.79488 0.0
C1231 C 0.39189 0.35098 0.75426 0.0
C1232 C 0.42346 0.32641 0.73953 0.0
C1233 C 0.52387 0.12635 0.65794 0.0
C1234 C 0.50404 0.13238 0.62046 0.0
C1235 C 0.52788 0.1585 0.68562 0.0
C1236 C 0.51177 0.19705 0.67652 0.0
C1237 C 0.49129 0.20295 0.63947 0.0
C1238 C 0.4878 0.17101 0.6115 0.0
C1239 C 0.51539 0.2308 0.70629 0.0
C1240 C 0.4795 0.24902 0.72095 0.0
C1241 C 0.55371 0.24363 0.72173 0.0
C1242 C 0.59294 0.23087 0.70274 0.0
C1243 C 0.5983 0.23305 0.6602 0.0
C1244 C 0.63573 0.2229 0.64254 0.0
C1245 C 0.66838 0.21108 0.66709 0.0
C1246 C 0.66364 0.2093 0.70935 0.0
C1247 C 0.62617 0.21912 0.72715 0.0
H1248 H 0.69738 0.2034 0.65338 0.0
H1249 H 0.35616 0.36785 0.80663 0.0
H1250 H 0.51611 0.82653 0.59034 0.0
H1251 H 0.51592 0.7753 0.64403 0.0
H1252 H 0.48439 0.86736 0.73257 0.0
H1253 H 0.48504 0.91917 0.67914 0.0
H1254 H 0.5419 0.81356 0.76158 0.0
H1255 H 0.4134 0.80825 0.6922 0.0
H1256 H 0.37093 0.80391 0.63057 0.0
H1257 H 0.41699 0.68392 0.60601 0.0
H1258 H 0.46134 0.68829 0.66657 0.0
H1259 H 0.4783 0.67752 0.91601 0.0
H1260 H 0.47762 0.73126 0.86469 0.0
H1261 H 0.50454 0.64278 0.77109 0.0
H1262 H 0.50472 0.58868 0.82199 0.0
H1263 H 0.44773 0.69622 0.74578 0.0
H1264 H 0.57849 0.70177 0.81034 0.0
H1265 H 0.62453 0.70521 0.86944 0.0
H1266 H 0.57607 0.82249 0.90158 0.0
H1267 H 0.52885 0.81926 0.8431 0.0
C1268 C 0.50915 0.83603 0.6212 0.0
C1269 C 0.50007 0.87696 0.63029 0.0
C1270 C 0.50916 0.80667 0.65186 0.0
C1271 C 0.49957 0.81749 0.69212 0.0
C1272 C 0.49178 0.85843 0.70163 0.0
C1273 C 0.492 0.88794 0.671 0.0
C1274 C 0.49593 0.78571 0.72386 0.0
C1275 C 0.52092 0.7882 0.75846 0.0
C1276 C 0.46906 0.75225 0.71923 0.0
C1277 C 0.44101 0.74876 0.68381 0.0
C1278 C 0.41469 0.78101 0.67357 0.0
C1279 C 0.39026 0.77855 0.63877 0.0
C1280 C 0.39106 0.74358 0.61444 0.0
C1281 C 0.41638 0.71099 0.62488 0.0
C1282 C 0.4413 0.71351 0.65938 0.0
C1283 C 0.48407 0.6694 0.88453 0.0
C1284 C 0.49191 0.62876 0.87322 0.0
C1285 C 0.48364 0.70019 0.85523 0.0
C1286 C 0.49152 0.69105 0.81418 0.0
C1287 C 0.49838 0.65046 0.80262 0.0
C1288 C 0.49859 0.6196 0.83183 0.0
C1289 C 0.49387 0.72392 0.78341 0.0
C1290 C 0.46858 0.72167 0.749 0.0
C1291 C 0.52066 0.75742 0.78805 0.0
C1292 C 0.54984 0.76008 0.82255 0.0
C1293 C 0.57746 0.72821 0.83013 0.0
C1294 C 0.6038 0.73012 0.86354 0.0
C1295 C 0.60327 0.76404 0.88932 0.0
C1296 C 0.57643 0.7962 0.88162 0.0
C1297 C 0.54984 0.79433 0.84834 0.0
H1298 H 0.62367 0.76542 0.91521 0.0
H1299 H 0.37212 0.74176 0.5875 0.0
H1300 H 0.4774 0.67325 0.08719 0.0
H1301 H 0.47536 0.72475 0.14082 0.0
H1302 H 0.50069 0.63265 0.23093 0.0
H1303 H 0.50248 0.58068 0.17763 0.0
H1304 H 0.44171 0.68543 0.25606 0.0
H1305 H 0.5742 0.69228 0.19508 0.0
H1306 H 0.62368 0.69956 0.13906 0.0
H1307 H 0.57849 0.81968 0.11404 0.0
H1308 H 0.52813 0.81283 0.16941 0.0
H1309 H 0.50232 0.81813 0.4173 0.0
H1310 H 0.49987 0.7649 0.36516 0.0
H1311 H 0.4805 0.85601 0.27256 0.0
H1312 H 0.48353 0.90939 0.32409 0.0
H1313 H 0.53652 0.8029 0.24891 0.0
H1314 H 0.40341 0.79634 0.30848 0.0
H1315 H 0.35342 0.78954 0.36413 0.0
H1316 H 0.39807 0.66948 0.39036 0.0
H1317 H 0.44904 0.67588 0.3355 0.0
C1318 C 0.48258 0.66382 0.11837 0.0
C1319 C 0.49056 0.62281 0.12799 0.0
C1320 C 0.48134 0.69335 0.14898 0.0
C1321 C 0.48839 0.68253 0.1897 0.0
C1322 C 0.49524 0.64156 0.19962 0.0
C1323 C 0.49638 0.61194 0.16906 0.0
C1324 C 0.48972 0.71411 0.22186 0.0
C1325 C 0.46272 0.71091 0.25483 0.0
C1326 C 0.51667 0.74768 0.21958 0.0
C1327 C 0.54713 0.75189 0.18629 0.0
C1328 C 0.5746 0.72015 0.1775 0.0
C1329 C 0.60284 0.7242 0.14585 0.0
C1330 C 0.60421 0.76004 0.12299 0.0
C1331 C 0.57736 0.79191 0.13175 0.0
C1332 C 0.54896 0.78796 0.16327 0.0
C1333 C 0.49742 0.82689 0.38587 0.0
C1334 C 0.49314 0.86813 0.37498 0.0
C1335 C 0.49589 0.79638 0.35612 0.0
C1336 C 0.48963 0.80648 0.31503 0.0
C1337 C 0.48541 0.84754 0.30409 0.0
C1338 C 0.48711 0.87804 0.33369 0.0
C1339 C 0.4883 0.77447 0.28314 0.0
C1340 C 0.5154 0.77751 0.25019 0.0
C1341 C 0.46133 0.74086 0.28535 0.0
C1342 C 0.43051 0.73687 0.31824 0.0
C1343 C 0.4029 0.76866 0.32639 0.0
C1344 C 0.37435 0.76486 0.35775 0.0
C1345 C 0.37278 0.72921 0.38087 0.0
C1346 C 0.39951 0.69715 0.37253 0.0
C1347 C 0.42826 0.70087 0.34132 0.0
H1348 H 0.35084 0.72644 0.40524 0.0
H1349 H 0.6261 0.76314 0.09852 0.0
H1350 H 0.52268 0.07994 0.3192 0.0
H1351 H 0.52398 0.13113 0.26507 0.0
H1352 H 0.48629 0.22329 0.35101 0.0
H1353 H 0.48465 0.1726 0.4052 0.0
H1354 H 0.44121 0.22458 0.28147 0.0
H1355 H 0.58142 0.2172 0.3199 0.0
H1356 H 0.64939 0.1879 0.33157 0.0
H1357 H 0.65877 0.15685 0.20472 0.0
H1358 H 0.58988 0.18413 0.19264 0.0
H1359 H 0.48152 0.40616 0.17181 0.0
H1360 H 0.4823 0.35144 0.22219 0.0
H1361 H 0.5173 0.26547 0.12899 0.0
H1362 H 0.51699 0.3199 0.07837 0.0
H1363 H 0.56333 0.25872 0.19936 0.0
H1364 H 0.42219 0.2648 0.16166 0.0
H1365 H 0.35567 0.29756 0.14985 0.0
H1366 H 0.35056 0.33427 0.27544 0.0
H1367 H 0.41734 0.3021 0.28789 0.0
C1368 C 0.51465 0.1111 0.32662 0.0
C1369 C 0.50346 0.12213 0.36658 0.0
C1370 C 0.51569 0.14032 0.29568 0.0
C1371 C 0.50545 0.18096 0.30414 0.0
C1372 C 0.49433 0.19204 0.34391 0.0
C1373 C 0.49355 0.16301 0.37488 0.0
C1374 C 0.50484 0.2119 0.27141 0.0
C1375 C 0.46804 0.2323 0.26377 0.0
C1376 C 0.53964 0.22109 0.24764 0.0
C1377 C 0.58014 0.20239 0.25543 0.0
C1378 C 0.59755 0.20341 0.2946 0.0
C1379 C 0.63639 0.18727 0.30128 0.0
C1380 C 0.65853 0.17073 0.26886 0.0
C1381 C 0.64169 0.16989 0.22977 0.0
C1382 C 0.6026 0.18541 0.22307 0.0
C1383 C 0.48948 0.37566 0.16197 0.0
C1384 C 0.49906 0.36744 0.12098 0.0
C1385 C 0.48969 0.3444 0.19077 0.0
C1386 C 0.49952 0.30442 0.17916 0.0
C1387 C 0.50959 0.29615 0.13848 0.0
C1388 C 0.50917 0.3273 0.10958 0.0
C1389 C 0.49987 0.27135 0.20969 0.0
C1390 C 0.53651 0.25057 0.21685 0.0
C1391 C 0.46503 0.26177 0.23309 0.0
C1392 C 0.42496 0.28137 0.22561 0.0
C1393 C 0.40707 0.28018 0.18668 0.0
C1394 C 0.36926 0.29858 0.17989 0.0
C1395 C 0.34893 0.3181 0.21187 0.0
C1396 C 0.36636 0.31919 0.2507 0.0
C1397 C 0.40416 0.30083 0.25765 0.0
H1398 H 0.31963 0.33226 0.20664 0.0
H1399 H 0.68864 0.15836 0.27401 0.0
loop_
_geom_bond_atom_site_label_1
_geom_bond_atom_site_label_2
_geom_bond_distance
_geom_bond_site_symmetry_2
_ccdc_geom_bond_type
C0 O28 1.284 . S
C0 O37 1.284 . S
C1 O29 1.281 . S
C1 O47 1.281 . S
O2 Hf6 2.202 . S
O2 Hf8 2.202 . S
O2 Hf10 2.202 . S
O3 Hf6 2.202 1_665 S
O3 Hf12 2.202 1_655 S
O3 Hf13 2.202 1_565 S
O4 Hf6 2.072 1_565 S
O4 Hf10 2.072 1_565 S
O4 Hf12 2.072 . S
O5 Hf6 2.072 1_655 S
O5 Hf8 2.072 1_655 S
O5 Hf13 2.072 . S
Hf6 O2 2.202 . S
Hf6 O3 2.202 1_445 S
Hf6 O4 2.072 1_545 S
Hf6 O5 2.072 1_455 S
Hf6 O20 2.209 1_545 S
Hf6 O21 2.209 1_455 S
Hf6 O36 2.209 1_545 S
Hf6 O37 2.209 1_455 S
O7 Hf8 2.072 1_556 S
O7 Hf10 2.072 1_556 S
O7 Hf15 2.072 . S
Hf8 O2 2.202 . S
Hf8 O5 2.072 1_455 S
Hf8 O7 2.072 1_554 S
Hf8 O11 2.202 1_454 S
Hf8 O27 2.209 1_554 S
Hf8 O28 2.209 1_455 S
Hf8 O43 2.209 1_554 S
Hf8 O47 2.209 1_455 S
O9 Hf10 2.202 1_566 S
O9 Hf12 2.202 1_556 S
O9 Hf15 2.202 1_565 S
Hf10 O2 2.202 . S
Hf10 O4 2.072 1_545 S
Hf10 O7 2.072 1_554 S
Hf10 O9 2.202 1_544 S
Hf10 O32 2.209 1_545 S
Hf10 O33 2.209 1_554 S
Hf10 O40 2.209 1_554 S
Hf10 O42 2.209 1_545 S
O11 Hf8 2.202 1_656 S
O11 Hf13 2.202 1_556 S
O11 Hf15 2.202 1_655 S
Hf12 O3 2.202 1_455 S
Hf12 O4 2.072 . S
Hf12 O9 2.202 1_554 S
Hf12 O14 2.072 1_454 S
Hf12 O24 2.209 1_454 S
Hf12 O25 2.209 . S
Hf12 O45 2.209 . S
Hf12 O46 2.209 1_454 S
Hf13 O3 2.202 1_545 S
Hf13 O5 2.072 . S
Hf13 O11 2.202 1_554 S
Hf13 O14 2.072 1_544 S
Hf13 O29 2.209 . S
Hf13 O30 2.209 1_544 S
Hf13 O39 2.209 1_544 S
Hf13 O44 2.209 . S
O14 Hf12 2.072 1_656 S
O14 Hf13 2.072 1_566 S
O14 Hf15 2.072 1_665 S
Hf15 O7 2.072 . S
Hf15 O9 2.202 1_545 S
Hf15 O11 2.202 1_455 S
Hf15 O14 2.072 1_445 S
Hf15 O23 2.209 1_445 S
Hf15 O26 2.209 . S
Hf15 O35 2.209 . S
Hf15 O38 2.209 1_445 S
C16 O30 1.284 . S
C16 O46 1.284 . S
C17 O33 1.284 . S
C17 O43 1.284 . S
C18 O32 1.281 . S
C18 O45 1.281 . S
C19 O20 1.284 . S
C19 O42 1.284 . S
O20 Hf6 2.209 1_565 S
O20 C19 1.284 . S
O21 Hf6 2.209 1_655 S
O21 C22 1.281 . S
C22 O21 1.281 . S
C22 O44 1.281 . S
O23 Hf15 2.209 1_665 S
O23 C34 1.284 . S
O24 Hf12 2.209 1_656 S
O24 C41 1.284 . S
O25 Hf12 2.209 . S
O25 C49 1.281 . S
O26 Hf15 2.209 . S
O26 C31 1.281 . S
O27 Hf8 2.209 1_556 S
O27 C48 1.281 . S
O28 C0 1.284 . S
O28 Hf8 2.209 1_655 S
O29 C1 1.281 . S
O29 Hf13 2.209 . S
O30 Hf13 2.209 1_566 S
O30 C16 1.284 . S
C31 O26 1.281 . S
C31 O40 1.281 . S
O32 Hf10 2.209 1_565 S
O32 C18 1.281 . S
O33 Hf10 2.209 1_556 S
O33 C17 1.284 . S
C34 O23 1.284 . S
C34 O39 1.284 . S
O35 Hf15 2.209 . S
O35 C48 1.281 . S
O36 Hf6 2.209 1_565 S
O36 C49 1.281 . S
O37 C0 1.284 . S
O37 Hf6 2.209 1_655 S
O38 Hf15 2.209 1_665 S
O38 C41 1.284 . S
O39 Hf13 2.209 1_566 S
O39 C34 1.284 . S
O40 Hf10 2.209 1_556 S
O40 C31 1.281 . S
C41 O24 1.284 . S
C41 O38 1.284 . S
O42 Hf10 2.209 1_565 S
O42 C19 1.284 . S
O43 Hf8 2.209 1_556 S
O43 C17 1.284 . S
O44 Hf13 2.209 . S
O44 C22 1.281 . S
O45 Hf12 2.209 . S
O45 C18 1.281 . S
O46 Hf12 2.209 1_656 S
O46 C16 1.284 . S
O47 C1 1.281 . S
O47 Hf8 2.209 1_655 S
C48 O27 1.281 . S
C48 O35 1.281 . S
C49 O25 1.281 . S
C49 O36 1.281 . S
C50 O78 1.284 . S
C50 O87 1.284 . S
C51 O79 1.281 . S
C51 O97 1.281 . S
O52 Hf56 2.202 . S
O52 Hf58 2.202 . S
O52 Hf60 2.202 . S
O53 Hf56 2.202 1_655 S
O53 Hf62 2.202 1_655 S
O53 Hf63 2.202 . S
O54 Hf56 2.072 . S
O54 Hf60 2.072 . S
O54 Hf62 2.072 . S
O55 Hf56 2.072 1_655 S
O55 Hf58 2.072 1_655 S
O55 Hf63 2.072 . S
Hf56 O52 2.202 . S
Hf56 O53 2.202 1_455 S
Hf56 O54 2.072 . S
Hf56 O55 2.072 1_455 S
Hf56 O70 2.209 . S
Hf56 O71 2.209 1_455 S
Hf56 O86 2.209 . S
Hf56 O87 2.209 1_455 S
O57 Hf58 2.072 . S
O57 Hf60 2.072 . S
O57 Hf65 2.072 . S
Hf58 O52 2.202 . S
Hf58 O55 2.072 1_455 S
Hf58 O57 2.072 . S
Hf58 O61 2.202 1_455 S
Hf58 O77 2.209 . S
Hf58 O78 2.209 1_455 S
Hf58 O93 2.209 . S
Hf58 O97 2.209 1_455 S
O59 Hf60 2.202 . S
O59 Hf62 2.202 . S
O59 Hf65 2.202 . S
Hf60 O52 2.202 . S
Hf60 O54 2.072 . S
Hf60 O57 2.072 . S
Hf60 O59 2.202 . S
Hf60 O82 2.209 . S
Hf60 O83 2.209 . S
Hf60 O90 2.209 . S
Hf60 O92 2.209 . S
O61 Hf58 2.202 1_655 S
O61 Hf63 2.202 . S
O61 Hf65 2.202 1_655 S
Hf62 O53 2.202 1_455 S
Hf62 O54 2.072 . S
Hf62 O59 2.202 . S
Hf62 O64 2.072 1_455 S
Hf62 O74 2.209 1_455 S
Hf62 O75 2.209 . S
Hf62 O95 2.209 . S
Hf62 O96 2.209 1_455 S
Hf63 O53 2.202 . S
Hf63 O55 2.072 . S
Hf63 O61 2.202 . S
Hf63 O64 2.072 . S
Hf63 O79 2.209 . S
Hf63 O80 2.209 . S
Hf63 O89 2.209 . S
Hf63 O94 2.209 . S
O64 Hf62 2.072 1_655 S
O64 Hf63 2.072 . S
O64 Hf65 2.072 1_655 S
Hf65 O57 2.072 . S
Hf65 O59 2.202 . S
Hf65 O61 2.202 1_455 S
Hf65 O64 2.072 1_455 S
Hf65 O73 2.209 1_455 S
Hf65 O76 2.209 . S
Hf65 O85 2.209 . S
Hf65 O88 2.209 1_455 S
C66 O80 1.281 . S
C66 O96 1.281 . S
C67 O83 1.281 . S
C67 O93 1.281 . S
C68 O82 1.281 . S
C68 O95 1.281 . S
C69 O70 1.281 . S
C69 O92 1.281 . S
O70 Hf56 2.209 . S
O70 C69 1.281 . S
O71 Hf56 2.209 1_655 S
O71 C72 1.281 . S
C72 O71 1.281 . S
C72 O94 1.281 . S
O73 Hf65 2.209 1_655 S
O73 C84 1.281 . S
O74 Hf62 2.209 1_655 S
O74 C91 1.284 . S
O75 Hf62 2.209 . S
O75 C99 1.281 . S
O76 Hf65 2.209 . S
O76 C81 1.281 . S
O77 Hf58 2.209 . S
O77 C98 1.281 . S
O78 C50 1.284 . S
O78 Hf58 2.209 1_655 S
O79 C51 1.281 . S
O79 Hf63 2.209 . S
O80 Hf63 2.209 . S
O80 C66 1.281 . S
C81 O76 1.281 . S
C81 O90 1.281 . S
O82 Hf60 2.209 . S
O82 C68 1.281 . S
O83 Hf60 2.209 . S
O83 C67 1.281 . S
C84 O73 1.281 . S
C84 O89 1.281 . S
O85 Hf65 2.209 . S
O85 C98 1.281 . S
O86 Hf56 2.209 . S
O86 C99 1.281 . S
O87 C50 1.284 . S
O87 Hf56 2.209 1_655 S
O88 Hf65 2.209 1_655 S
O88 C91 1.284 . S
O89 Hf63 2.209 . S
O89 C84 1.281 . S
O90 Hf60 2.209 . S
O90 C81 1.281 . S
C91 O74 1.284 . S
C91 O88 1.284 . S
O92 Hf60 2.209 . S
O92 C69 1.281 . S
O93 Hf58 2.209 . S
O93 C67 1.281 . S
O94 Hf63 2.209 . S
O94 C72 1.281 . S
O95 Hf62 2.209 . S
O95 C68 1.281 . S
O96 Hf62 2.209 1_655 S
O96 C66 1.281 . S
O97 C51 1.281 . S
O97 Hf58 2.209 1_655 S
C98 O77 1.281 . S
C98 O85 1.281 . S
C99 O75 1.281 . S
C99 O86 1.281 . S
C100 O128 1.281 . S
C100 O137 1.281 . S
C101 O129 1.281 . S
C101 O147 1.281 . S
O102 Hf106 2.202 . S
O102 Hf108 2.202 . S
O102 Hf110 2.202 . S
O103 Hf106 2.202 1_565 S
O103 Hf112 2.202 . S
O103 Hf113 2.202 1_565 S
O104 Hf106 2.072 1_565 S
O104 Hf110 2.072 1_565 S
O104 Hf112 2.072 . S
O105 Hf106 2.072 . S
O105 Hf108 2.072 . S
O105 Hf113 2.072 . S
Hf106 O102 2.202 . S
Hf106 O103 2.202 1_545 S
Hf106 O104 2.072 1_545 S
Hf106 O105 2.072 . S
Hf106 O120 2.209 1_545 S
Hf106 O121 2.209 . S
Hf106 O136 2.209 1_545 S
Hf106 O137 2.209 . S
O107 Hf108 2.072 . S
O107 Hf110 2.072 . S
O107 Hf115 2.072 . S
Hf108 O102 2.202 . S
Hf108 O105 2.072 . S
Hf108 O107 2.072 . S
Hf108 O111 2.202 . S
Hf108 O127 2.209 . S
Hf108 O128 2.209 . S
Hf108 O143 2.209 . S
Hf108 O147 2.209 . S
O109 Hf110 2.202 1_565 S
O109 Hf112 2.202 . S
O109 Hf115 2.202 1_565 S
Hf110 O102 2.202 . S
Hf110 O104 2.072 1_545 S
Hf110 O107 2.072 . S
Hf110 O109 2.202 1_545 S
Hf110 O132 2.209 1_545 S
Hf110 O133 2.209 . S
Hf110 O140 2.209 . S
Hf110 O142 2.209 1_545 S
O111 Hf108 2.202 . S
O111 Hf113 2.202 . S
O111 Hf115 2.202 . S
Hf112 O103 2.202 . S
Hf112 O104 2.072 . S
Hf112 O109 2.202 . S
Hf112 O114 2.072 . S
Hf112 O124 2.209 . S
Hf112 O125 2.209 . S
Hf112 O145 2.209 . S
Hf112 O146 2.209 . S
Hf113 O103 2.202 1_545 S
Hf113 O105 2.072 . S
Hf113 O111 2.202 . S
Hf113 O114 2.072 1_545 S
Hf113 O129 2.209 . S
Hf113 O130 2.209 1_545 S
Hf113 O139 2.209 1_545 S
Hf113 O144 2.209 . S
O114 Hf112 2.072 . S
O114 Hf113 2.072 1_565 S
O114 Hf115 2.072 1_565 S
Hf115 O107 2.072 . S
Hf115 O109 2.202 1_545 S
Hf115 O111 2.202 . S
Hf115 O114 2.072 1_545 S
Hf115 O123 2.209 1_545 S
Hf115 O126 2.209 . S
Hf115 O135 2.209 . S
Hf115 O138 2.209 1_545 S
C116 O130 1.281 . S
C116 O146 1.281 . S
C117 O133 1.281 . S
C117 O143 1.281 . S
C118 O132 1.281 . S
C118 O145 1.281 . S
C119 O120 1.284 . S
C119 O142 1.284 . S
O120 Hf106 2.209 1_565 S
O120 C119 1.284 . S
O121 Hf106 2.209 . S
O121 C122 1.281 . S
C122 O121 1.281 . S
C122 O144 1.281 . S
O123 Hf115 2.209 1_565 S
O123 C134 1.284 . S
O124 Hf112 2.209 . S
O124 C141 1.281 . S
O125 Hf112 2.209 . S
O125 C149 1.281 . S
O126 Hf115 2.209 . S
O126 C131 1.281 . S
O127 Hf108 2.209 . S
O127 C148 1.281 . S
O128 C100 1.281 . S
O128 Hf108 2.209 . S
O129 C101 1.281 . S
O129 Hf113 2.209 . S
O130 Hf113 2.209 1_565 S
O130 C116 1.281 . S
C131 O126 1.281 . S
C131 O140 1.281 . S
O132 Hf110 2.209 1_565 S
O132 C118 1.281 . S
O133 Hf110 2.209 . S
O133 C117 1.281 . S
C134 O123 1.284 . S
C134 O139 1.284 . S
O135 Hf115 2.209 . S
O135 C148 1.281 . S
O136 Hf106 2.209 1_565 S
O136 C149 1.281 . S
O137 C100 1.281 . S
O137 Hf106 2.209 . S
O138 Hf115 2.209 1_565 S
O138 C141 1.281 . S
O139 Hf113 2.209 1_565 S
O139 C134 1.284 . S
O140 Hf110 2.209 . S
O140 C131 1.281 . S
C141 O124 1.281 . S
C141 O138 1.281 . S
O142 Hf110 2.209 1_565 S
O142 C119 1.284 . S
O143 Hf108 2.209 . S
O143 C117 1.281 . S
O144 Hf113 2.209 . S
O144 C122 1.281 . S
O145 Hf112 2.209 . S
O145 C118 1.281 . S
O146 Hf112 2.209 . S
O146 C116 1.281 . S
O147 C101 1.281 . S
O147 Hf108 2.209 . S
C148 O127 1.281 . S
C148 O135 1.281 . S
C149 O125 1.281 . S
C149 O136 1.281 . S
C150 O178 1.281 . S
C150 O187 1.281 . S
C151 O179 1.281 . S
C151 O197 1.281 . S
O152 Hf156 2.202 . S
O152 Hf158 2.202 . S
O152 Hf160 2.202 . S
O153 Hf156 2.202 . S
O153 Hf162 2.202 . S
O153 Hf163 2.202 . S
O154 Hf156 2.072 . S
O154 Hf160 2.072 . S
O154 Hf162 2.072 . S
O155 Hf156 2.072 . S
O155 Hf158 2.072 . S
O155 Hf163 2.072 . S
Hf156 O152 2.202 . S
Hf156 O153 2.202 . S
Hf156 O154 2.072 . S
Hf156 O155 2.072 . S
Hf156 O170 2.209 . S
Hf156 O171 2.209 . S
Hf156 O186 2.209 . S
Hf156 O187 2.209 . S
O157 Hf158 2.072 1_556 S
O157 Hf160 2.072 1_556 S
O157 Hf165 2.072 . S
Hf158 O152 2.202 . S
Hf158 O155 2.072 . S
Hf158 O157 2.072 1_554 S
Hf158 O161 2.202 1_554 S
Hf158 O177 2.209 1_554 S
Hf158 O178 2.209 . S
Hf158 O193 2.209 1_554 S
Hf158 O197 2.209 . S
O159 Hf160 2.202 1_556 S
O159 Hf162 2.202 1_556 S
O159 Hf165 2.202 . S
Hf160 O152 2.202 . S
Hf160 O154 2.072 . S
Hf160 O157 2.072 1_554 S
Hf160 O159 2.202 1_554 S
Hf160 O182 2.209 . S
Hf160 O183 2.209 1_554 S
Hf160 O190 2.209 1_554 S
Hf160 O192 2.209 . S
O161 Hf158 2.202 1_556 S
O161 Hf163 2.202 1_556 S
O161 Hf165 2.202 . S
Hf162 O153 2.202 . S
Hf162 O154 2.072 . S
Hf162 O159 2.202 1_554 S
Hf162 O164 2.072 1_554 S
Hf162 O174 2.209 1_554 S
Hf162 O175 2.209 . S
Hf162 O195 2.209 . S
Hf162 O196 2.209 1_554 S
Hf163 O153 2.202 . S
Hf163 O155 2.072 . S
Hf163 O161 2.202 1_554 S
Hf163 O164 2.072 1_554 S
Hf163 O179 2.209 . S
Hf163 O180 2.209 1_554 S
Hf163 O189 2.209 1_554 S
Hf163 O194 2.209 . S
O164 Hf162 2.072 1_556 S
O164 Hf163 2.072 1_556 S
O164 Hf165 2.072 . S
Hf165 O157 2.072 . S
Hf165 O159 2.202 . S
Hf165 O161 2.202 . S
Hf165 O164 2.072 . S
Hf165 O173 2.209 . S
Hf165 O176 2.209 . S
Hf165 O185 2.209 . S
Hf165 O188 2.209 . S
C166 O180 1.284 . S
C166 O196 1.284 . S
C167 O183 1.284 . S
C167 O193 1.284 . S
C168 O182 1.281 . S
C168 O195 1.281 . S
C169 O170 1.281 . S
C169 O192 1.281 . S
O170 Hf156 2.209 . S
O170 C169 1.281 . S
O171 Hf156 2.209 . S
O171 C172 1.281 . S
C172 O171 1.281 . S
C172 O194 1.281 . S
O173 Hf165 2.209 . S
O173 C184 1.281 . S
O174 Hf162 2.209 1_556 S
O174 C191 1.281 . S
O175 Hf162 2.209 . S
O175 C199 1.281 . S
O176 Hf165 2.209 . S
O176 C181 1.281 . S
O177 Hf158 2.209 1_556 S
O177 C198 1.281 . S
O178 C150 1.281 . S
O178 Hf158 2.209 . S
O179 C151 1.281 . S
O179 Hf163 2.209 . S
O180 Hf163 2.209 1_556 S
O180 C166 1.284 . S
C181 O176 1.281 . S
C181 O190 1.281 . S
O182 Hf160 2.209 . S
O182 C168 1.281 . S
O183 Hf160 2.209 1_556 S
O183 C167 1.284 . S
C184 O173 1.281 . S
C184 O189 1.281 . S
O185 Hf165 2.209 . S
O185 C198 1.281 . S
O186 Hf156 2.209 . S
O186 C199 1.281 . S
O187 C150 1.281 . S
O187 Hf156 2.209 . S
O188 Hf165 2.209 . S
O188 C191 1.281 . S
O189 Hf163 2.209 1_556 S
O189 C184 1.281 . S
O190 Hf160 2.209 1_556 S
O190 C181 1.281 . S
C191 O174 1.281 . S
C191 O188 1.281 . S
O192 Hf160 2.209 . S
O192 C169 1.281 . S
O193 Hf158 2.209 1_556 S
O193 C167 1.284 . S
O194 Hf163 2.209 . S
O194 C172 1.281 . S
O195 Hf162 2.209 . S
O195 C168 1.281 . S
O196 Hf162 2.209 1_556 S
O196 C166 1.284 . S
O197 C151 1.281 . S
O197 Hf158 2.209 . S
C198 O177 1.281 . S
C198 O185 1.281 . S
C199 O175 1.281 . S
C199 O186 1.281 . S
H200 C218 0.951 . S
H201 C220 0.951 . S
H202 C222 0.950 . S
H203 C223 0.950 . S
H204 C225 0.950 . S
H205 C228 0.950 . S
H206 C229 0.950 . S
H207 C231 0.950 . S
H208 C232 0.950 . S
H209 C233 0.951 . S
H210 C235 0.951 . S
H211 C237 0.950 . S
H212 C238 0.950 . S
H213 C240 0.950 . S
H214 C243 0.950 . S
H215 C244 0.950 . S
H216 C246 0.950 . S
H217 C247 0.950 . S
C218 H200 0.951 . S
C218 C219 1.366 1_455 S
C218 C220 1.388 . S
C219 C218 1.366 1_655 S
C219 C223 1.385 . S
C220 H201 0.951 . S
C220 C218 1.388 . S
C220 C221 1.366 1_455 S
C221 C220 1.366 1_655 S
C221 C222 1.414 . S
C221 C224 1.499 . S
C222 H202 0.950 . S
C222 C221 1.414 . S
C222 C223 1.374 . S
C223 H203 0.950 . S
C223 C219 1.385 . S
C223 C222 1.374 . S
C224 C221 1.499 . S
C224 C225 1.373 . S
C224 C226 1.389 1_655 S
C225 H204 0.950 . S
C225 C224 1.373 . S
C225 C241 1.377 . S
C226 C224 1.389 1_455 S
C226 C227 1.524 . S
C226 C240 1.377 . S
C227 C226 1.524 . S
C227 C228 1.397 . S
C227 C232 1.363 . S
C228 H205 0.950 . S
C228 C227 1.397 . S
C228 C229 1.334 . S
C229 H206 0.950 . S
C229 C228 1.334 . S
C229 C230 1.287 . S
C230 C229 1.287 . S
C230 C231 1.524 . S
C230 H249 0.913 . S
C231 H207 0.950 . S
C231 C230 1.524 . S
C231 C232 1.415 . S
C232 H208 0.950 . S
C232 C227 1.363 . S
C232 C231 1.415 . S
C233 H209 0.951 . S
C233 C234 1.366 . S
C233 C235 1.388 . S
C234 C233 1.366 . S
C234 C238 1.385 1_655 S
C235 H210 0.951 . S
C235 C233 1.388 . S
C235 C236 1.366 . S
C236 C235 1.366 . S
C236 C237 1.414 1_655 S
C236 C239 1.499 . S
C237 H211 0.950 . S
C237 C236 1.414 1_455 S
C237 C238 1.374 . S
C238 H212 0.950 . S
C238 C234 1.385 1_455 S
C238 C237 1.374 . S
C239 C236 1.499 . S
C239 C240 1.373 1_655 S
C239 C241 1.389 . S
C240 H213 0.950 . S
C240 C226 1.377 . S
C240 C239 1.373 1_455 S
C241 C225 1.377 . S
C241 C239 1.389 . S
C241 C242 1.524 . S
C242 C241 1.524 . S
C242 C243 1.397 . S
C242 C247 1.363 . S
C243 H214 0.950 . S
C243 C242 1.397 . S
C243 C244 1.334 . S
C244 H215 0.950 . S
C244 C243 1.334 . S
C244 C245 1.287 . S
C245 C244 1.287 . S
C245 C246 1.524 . S
C245 H248 0.999 . S
C246 H216 0.950 . S
C246 C245 1.524 . S
C246 C247 1.415 . S
C247 H217 0.950 . S
C247 C242 1.363 . S
C247 C246 1.415 . S
H248 C245 0.999 . S
H249 C230 0.913 . S
H250 C268 0.951 . S
H251 C270 0.951 . S
H252 C272 0.950 . S
H253 C273 0.950 . S
H254 C275 0.950 . S
H255 C278 0.950 . S
H256 C279 0.950 . S
H257 C281 0.950 . S
H258 C282 0.950 1_545 S
H259 C283 0.951 . S
H260 C285 0.951 . S
H261 C287 0.950 . S
H262 C288 0.950 . S
H263 C290 0.950 . S
H264 C293 0.950 . S
H265 C294 0.950 . S
H266 C296 0.950 . S
H267 C297 0.972 . S
C268 H250 0.951 . S
C268 C269 1.366 . S
C268 C270 1.388 . S
C269 C268 1.366 . S
C269 C273 1.385 1_545 S
C270 H251 0.951 . S
C270 C268 1.388 . S
C270 C271 1.366 . S
C271 C270 1.366 . S
C271 C272 1.414 1_545 S
C271 C274 1.499 . S
C272 H252 0.950 . S
C272 C271 1.414 1_565 S
C272 C273 1.374 . S
C273 H253 0.950 . S
C273 C269 1.385 1_565 S
C273 C272 1.374 . S
C274 C271 1.499 . S
C274 C275 1.373 . S
C274 C276 1.389 1_545 S
C275 H254 0.950 . S
C275 C274 1.373 . S
C275 C291 1.377 . S
C276 C274 1.389 1_565 S
C276 C277 1.524 . S
C276 C290 1.377 . S
C277 C276 1.524 . S
C277 C278 1.397 . S
C277 C282 1.363 . S
C278 H255 0.950 . S
C278 C277 1.397 . S
C278 C279 1.334 . S
C279 H256 0.950 . S
C279 C278 1.334 . S
C279 C280 1.287 . S
C280 C279 1.287 . S
C280 C281 1.524 . S
C280 H299 0.913 . S
C281 H257 0.950 . S
C281 C280 1.524 . S
C281 C282 1.415 . S
C282 H258 0.950 1_565 S
C282 C277 1.363 . S
C282 C281 1.415 . S
C283 H259 0.951 . S
C283 C284 1.366 1_565 S
C283 C285 1.388 . S
C284 C283 1.366 1_545 S
C284 C288 1.385 . S
C285 H260 0.951 . S
C285 C283 1.388 . S
C285 C286 1.366 1_565 S
C286 C285 1.366 1_545 S
C286 C287 1.414 . S
C286 C289 1.499 . S
C287 H261 0.950 . S
C287 C286 1.414 . S
C287 C288 1.374 . S
C288 H262 0.950 . S
C288 C284 1.385 . S
C288 C287 1.374 . S
C289 C286 1.499 . S
C289 C290 1.373 1_545 S
C289 C291 1.389 . S
C290 H263 0.950 . S
C290 C276 1.377 . S
C290 C289 1.373 1_565 S
C291 C275 1.377 . S
C291 C289 1.389 . S
C291 C292 1.524 . S
C292 C291 1.524 . S
C292 C293 1.397 . S
C292 C297 1.363 . S
C293 H264 0.950 . S
C293 C292 1.397 . S
C293 C294 1.334 . S
C294 H265 0.950 . S
C294 C293 1.334 . S
C294 C295 1.287 . S
C295 C294 1.287 . S
C295 C296 1.524 . S
C295 H298 0.999 . S
C296 H266 0.950 . S
C296 C295 1.524 . S
C296 C297 1.415 . S
C297 H267 0.972 . S
C297 C292 1.363 . S
C297 C296 1.415 . S
H298 C295 0.999 . S
H299 C280 0.913 . S
H300 C318 0.951 . S
H301 C320 0.951 . S
H302 C322 0.950 . S
H303 C323 0.950 . S
H304 C325 0.950 . S
H305 C328 0.950 . S
H306 C329 0.950 . S
H307 C331 0.950 . S
H308 C332 0.950 . S
H309 C333 0.951 . S
H310 C335 0.951 . S
H311 C337 0.950 . S
H312 C338 0.950 . S
H313 C340 0.950 . S
H314 C343 0.950 . S
H315 C344 0.950 . S
H316 C346 0.950 . S
H317 C347 0.950 . S
C318 H300 0.951 . S
C318 C319 1.366 1_655 S
C318 C320 1.388 . S
C319 C318 1.366 1_455 S
C319 C323 1.385 . S
C320 H301 0.951 . S
C320 C318 1.388 . S
C320 C321 1.366 1_655 S
C321 C320 1.366 1_455 S
C321 C322 1.414 . S
C321 C324 1.499 . S
C322 H302 0.950 . S
C322 C321 1.414 . S
C322 C323 1.374 . S
C323 H303 0.950 . S
C323 C319 1.385 . S
C323 C322 1.374 . S
C324 C321 1.499 . S
C324 C325 1.373 . S
C324 C326 1.389 1_455 S
C325 H304 0.950 . S
C325 C324 1.373 . S
C325 C341 1.377 . S
C326 C324 1.389 1_655 S
C326 C327 1.524 . S
C326 C340 1.377 . S
C327 C326 1.524 . S
C327 C328 1.397 . S
C327 C332 1.363 . S
C328 H305 0.950 . S
C328 C327 1.397 . S
C328 C329 1.334 . S
C329 H306 0.950 . S
C329 C328 1.334 . S
C329 C330 1.287 . S
C330 C329 1.287 . S
C330 C331 1.524 . S
C330 H349 0.913 . S
C331 H307 0.950 . S
C331 C330 1.524 . S
C331 C332 1.415 . S
C332 H308 0.950 . S
C332 C327 1.363 . S
C332 C331 1.415 . S
C333 H309 0.951 . S
C333 C334 1.366 . S
C333 C335 1.388 . S
C334 C333 1.366 . S
C334 C338 1.385 1_455 S
C335 H310 0.951 . S
C335 C333 1.388 . S
C335 C336 1.366 . S
C336 C335 1.366 . S
C336 C337 1.414 1_455 S
C336 C339 1.499 . S
C337 H311 0.950 . S
C337 C336 1.414 1_655 S
C337 C338 1.374 . S
C338 H312 0.950 . S
C338 C334 1.385 1_655 S
C338 C337 1.374 . S
C339 C336 1.499 . S
C339 C340 1.373 1_455 S
C339 C341 1.389 . S
C340 H313 0.950 . S
C340 C326 1.377 . S
C340 C339 1.373 1_655 S
C341 C325 1.377 . S
C341 C339 1.389 . S
C341 C342 1.524 . S
C342 C341 1.524 . S
C342 C343 1.397 . S
C342 C347 1.363 . S
C343 H314 0.950 . S
C343 C342 1.397 . S
C343 C344 1.334 . S
C344 H315 0.950 . S
C344 C343 1.334 . S
C344 C345 1.287 . S
C345 C344 1.287 . S
C345 C346 1.524 . S
C345 H348 0.999 . S
C346 H316 0.950 . S
C346 C345 1.524 . S
C346 C347 1.415 . S
C347 H317 0.950 . S
C347 C342 1.363 . S
C347 C346 1.415 . S
H348 C345 0.999 . S
H349 C330 0.913 . S
H350 C368 0.951 . S
H351 C370 0.951 . S
H352 C372 0.950 . S
H353 C373 0.950 . S
H354 C375 0.950 . S
H355 C378 0.950 . S
H356 C379 0.950 . S
H357 C381 0.950 . S
H358 C382 0.950 . S
H359 C383 0.951 . S
H360 C385 0.951 . S
H361 C387 0.946 1_545 S
H362 C388 0.948 1_545 S
H363 C390 0.950 . S
H364 C393 0.950 . S
H365 C394 0.950 . S
H366 C396 0.950 . S
H367 C397 0.950 . S
C368 H350 0.951 . S
C368 C369 1.366 1_545 S
C368 C370 1.388 . S
C369 C368 1.366 1_565 S
C369 C373 1.385 . S
C370 H351 0.951 . S
C370 C368 1.388 . S
C370 C371 1.366 1_545 S
C371 C370 1.366 1_565 S
C371 C372 1.414 . S
C371 C374 1.499 . S
C372 H352 0.950 . S
C372 C371 1.414 . S
C372 C373 1.374 . S
C373 H353 0.950 . S
C373 C369 1.385 . S
C373 C372 1.374 . S
C374 C371 1.499 . S
C374 C375 1.373 . S
C374 C376 1.389 1_565 S
C375 H354 0.950 . S
C375 C374 1.373 . S
C375 C391 1.377 . S
C376 C374 1.389 1_545 S
C376 C377 1.524 . S
C376 C390 1.377 . S
C377 C376 1.524 . S
C377 C378 1.397 . S
C377 C382 1.363 . S
C378 H355 0.950 . S
C378 C377 1.397 . S
C378 C379 1.334 . S
C379 H356 0.950 . S
C379 C378 1.334 . S
C379 C380 1.287 . S
C380 C379 1.287 . S
C380 C381 1.524 . S
C380 H399 0.913 . S
C381 H357 0.950 . S
C381 C380 1.524 . S
C381 C382 1.415 . S
C382 H358 0.950 . S
C382 C377 1.363 . S
C382 C381 1.415 . S
C383 H359 0.951 . S
C383 C384 1.366 . S
C383 C385 1.388 . S
C384 C383 1.366 . S
C384 C388 1.386 . S
C385 H360 0.951 . S
C385 C383 1.388 . S
C385 C386 1.366 . S
C386 C385 1.366 . S
C386 C387 1.420 . S
C386 C389 1.499 . S
C387 H361 0.946 1_565 S
C387 C386 1.420 . S
C387 C388 1.374 . S
C388 H362 0.948 1_565 S
C388 C384 1.386 . S
C388 C387 1.374 . S
C389 C386 1.499 . S
C389 C390 1.373 1_565 S
C389 C391 1.389 . S
C390 H363 0.950 . S
C390 C376 1.377 . S
C390 C389 1.373 1_545 S
C391 C375 1.377 . S
C391 C389 1.389 . S
C391 C392 1.524 . S
C392 C391 1.524 . S
C392 C393 1.397 . S
C392 C397 1.363 . S
C393 H364 0.950 . S
C393 C392 1.397 . S
C393 C394 1.334 . S
C394 H365 0.950 . S
C394 C393 1.334 . S
C394 C395 1.287 . S
C395 C394 1.287 . S
C395 C396 1.524 . S
C395 H398 0.999 . S
C396 H366 0.950 . S
C396 C395 1.524 . S
C396 C397 1.415 . S
C397 H367 0.950 . S
C397 C392 1.363 . S
C397 C396 1.415 . S
H398 C395 0.999 . S
H399 C380 0.913 . S
H400 C418 0.954 . S
H401 C420 0.951 . S
H402 C422 0.950 . S
H403 C423 0.950 . S
H404 C425 0.950 . S
H405 C428 0.950 . S
H406 C429 0.950 . S
H407 C431 0.950 . S
H408 C432 0.950 . S
H409 C433 0.951 . S
H410 C435 0.951 . S
H411 C437 0.951 . S
H412 C438 0.952 . S
H413 C440 0.950 . S
H414 C443 0.950 . S
H415 C444 0.950 . S
H416 C446 0.950 . S
H417 C447 0.950 . S
C418 H400 0.954 . S
C418 C419 1.366 . S
C418 C420 1.388 . S
C419 C418 1.366 . S
C419 C423 1.385 . S
C420 H401 0.951 . S
C420 C418 1.388 . S
C420 C421 1.366 . S
C421 C420 1.366 . S
C421 C422 1.414 . S
C421 C424 1.499 . S
C422 H402 0.950 . S
C422 C421 1.414 . S
C422 C423 1.374 . S
C423 H403 0.950 . S
C423 C419 1.385 . S
C423 C422 1.374 . S
C424 C421 1.499 . S
C424 C425 1.373 1_655 S
C424 C426 1.389 . S
C425 H404 0.950 . S
C425 C424 1.373 1_455 S
C425 C441 1.377 . S
C426 C424 1.389 . S
C426 C427 1.524 . S
C426 C440 1.377 . S
C427 C426 1.524 . S
C427 C428 1.397 . S
C427 C432 1.363 . S
C428 H405 0.950 . S
C428 C427 1.397 . S
C428 C429 1.334 . S
C429 H406 0.950 . S
C429 C428 1.334 . S
C429 C430 1.287 . S
C430 C429 1.287 . S
C430 C431 1.524 . S
C430 H449 0.913 . S
C431 H407 0.950 . S
C431 C430 1.524 . S
C431 C432 1.415 . S
C432 H408 0.950 . S
C432 C427 1.363 . S
C432 C431 1.415 . S
C433 H409 0.951 . S
C433 C434 1.366 . S
C433 C435 1.388 . S
C434 C433 1.366 . S
C434 C438 1.385 . S
C435 H410 0.951 . S
C435 C433 1.388 . S
C435 C436 1.366 . S
C436 C435 1.366 . S
C436 C437 1.414 . S
C436 C439 1.499 . S
C437 H411 0.951 . S
C437 C436 1.414 . S
C437 C438 1.374 . S
C438 H412 0.952 . S
C438 C434 1.385 . S
C438 C437 1.374 . S
C439 C436 1.499 . S
C439 C440 1.373 . S
C439 C441 1.389 1_655 S
C440 H413 0.950 . S
C440 C426 1.377 . S
C440 C439 1.373 . S
C441 C425 1.377 . S
C441 C439 1.389 1_455 S
C441 C442 1.524 . S
C442 C441 1.524 . S
C442 C443 1.397 . S
C442 C447 1.363 . S
C443 H414 0.950 . S
C443 C442 1.397 . S
C443 C444 1.334 . S
C444 H415 0.950 . S
C444 C443 1.334 . S
C444 C445 1.287 . S
C445 C444 1.287 . S
C445 C446 1.524 . S
C445 H448 0.999 . S
C446 H416 0.950 . S
C446 C445 1.524 . S
C446 C447 1.415 . S
C447 H417 0.950 . S
C447 C442 1.363 . S
C447 C446 1.415 . S
H448 C445 0.999 . S
H449 C430 0.913 . S
H450 C468 0.951 . S
H451 C470 0.951 . S
H452 C472 0.950 . S
H453 C473 0.950 . S
H454 C475 0.950 . S
H455 C478 0.950 . S
H456 C479 0.950 . S
H457 C481 0.950 . S
H458 C482 0.950 . S
H459 C483 0.951 . S
H460 C485 0.951 . S
H461 C487 0.950 . S
H462 C488 0.950 . S
H463 C490 0.950 . S
H464 C493 0.950 . S
H465 C494 0.950 . S
H466 C496 0.950 . S
H467 C497 0.950 . S
C468 H450 0.951 . S
C468 C469 1.366 1_565 S
C468 C470 1.388 . S
C469 C468 1.366 1_545 S
C469 C473 1.385 . S
C470 H451 0.951 . S
C470 C468 1.388 . S
C470 C471 1.366 1_565 S
C471 C470 1.366 1_545 S
C471 C472 1.414 . S
C471 C474 1.499 . S
C472 H452 0.950 . S
C472 C471 1.414 . S
C472 C473 1.374 . S
C473 H453 0.950 . S
C473 C469 1.385 . S
C473 C472 1.374 . S
C474 C471 1.499 . S
C474 C475 1.373 . S
C474 C476 1.389 1_545 S
C475 H454 0.950 . S
C475 C474 1.373 . S
C475 C491 1.377 . S
C476 C474 1.389 1_565 S
C476 C477 1.524 . S
C476 C490 1.377 . S
C477 C476 1.524 . S
C477 C478 1.397 . S
C477 C482 1.363 . S
C478 H455 0.950 . S
C478 C477 1.397 . S
C478 C479 1.334 . S
C479 H456 0.950 . S
C479 C478 1.334 . S
C479 C480 1.287 . S
C480 C479 1.287 . S
C480 C481 1.524 . S
C480 H499 0.913 . S
C481 H457 0.950 . S
C481 C480 1.524 . S
C481 C482 1.415 . S
C482 H458 0.950 . S
C482 C477 1.363 . S
C482 C481 1.415 . S
C483 H459 0.951 . S
C483 C484 1.366 . S
C483 C485 1.388 . S
C484 C483 1.366 . S
C484 C488 1.385 1_545 S
C485 H460 0.951 . S
C485 C483 1.388 . S
C485 C486 1.366 . S
C486 C485 1.366 . S
C486 C487 1.414 1_545 S
C486 C489 1.499 . S
C487 H461 0.950 . S
C487 C486 1.414 1_565 S
C487 C488 1.374 . S
C488 H462 0.950 . S
C488 C484 1.385 1_565 S
C488 C487 1.374 . S
C489 C486 1.499 . S
C489 C490 1.373 1_545 S
C489 C491 1.389 . S
C490 H463 0.950 . S
C490 C476 1.377 . S
C490 C489 1.373 1_565 S
C491 C475 1.377 . S
C491 C489 1.389 . S
C491 C492 1.524 . S
C492 C491 1.524 . S
C492 C493 1.397 . S
C492 C497 1.363 . S
C493 H464 0.950 . S
C493 C492 1.397 . S
C493 C494 1.334 . S
C494 H465 0.950 . S
C494 C493 1.334 . S
C494 C495 1.287 . S
C495 C494 1.287 . S
C495 C496 1.524 . S
C495 H498 0.999 . S
C496 H466 0.950 . S
C496 C495 1.524 . S
C496 C497 1.415 . S
C497 H467 0.950 . S
C497 C492 1.363 . S
C497 C496 1.415 . S
H498 C495 0.999 . S
H499 C480 0.913 . S
H500 C518 0.951 . S
H501 C520 0.951 . S
H502 C522 0.950 1_655 S
H503 C523 0.950 1_655 S
H504 C525 0.950 . S
H505 C528 0.950 . S
H506 C529 0.950 . S
H507 C531 0.950 . S
H508 C532 0.950 . S
H509 C533 0.948 1_655 S
H510 C535 0.953 . S
H511 C537 0.950 . S
H512 C538 0.950 . S
H513 C540 0.950 . S
H514 C543 0.950 . S
H515 C544 0.950 . S
H516 C546 0.950 . S
H517 C547 0.950 . S
C518 H500 0.951 . S
C518 C519 1.366 . S
C518 C520 1.388 . S
C519 C518 1.366 . S
C519 C523 1.385 . S
C520 H501 0.951 . S
C520 C518 1.388 . S
C520 C521 1.366 . S
C521 C520 1.366 . S
C521 C522 1.414 . S
C521 C524 1.499 . S
C522 H502 0.950 1_455 S
C522 C521 1.414 . S
C522 C523 1.374 . S
C523 H503 0.950 1_455 S
C523 C519 1.385 . S
C523 C522 1.374 . S
C524 C521 1.499 . S
C524 C525 1.373 . S
C524 C526 1.389 1_455 S
C525 H504 0.950 . S
C525 C524 1.373 . S
C525 C541 1.377 . S
C526 C524 1.389 1_655 S
C526 C527 1.524 . S
C526 C540 1.377 . S
C527 C526 1.524 . S
C527 C528 1.397 . S
C527 C532 1.363 . S
C528 H505 0.950 . S
C528 C527 1.397 . S
C528 C529 1.334 . S
C529 H506 0.950 . S
C529 C528 1.334 . S
C529 C530 1.287 . S
C530 C529 1.287 . S
C530 C531 1.524 . S
C530 H549 0.913 . S
C531 H507 0.950 . S
C531 C530 1.524 . S
C531 C532 1.415 . S
C532 H508 0.950 . S
C532 C527 1.363 . S
C532 C531 1.415 . S
C533 H509 0.948 1_455 S
C533 C534 1.366 . S
C533 C535 1.388 . S
C534 C533 1.366 . S
C534 C538 1.385 . S
C535 H510 0.953 . S
C535 C533 1.388 . S
C535 C536 1.366 . S
C536 C535 1.366 . S
C536 C537 1.414 . S
C536 C539 1.499 . S
C537 H511 0.950 . S
C537 C536 1.414 . S
C537 C538 1.374 . S
C538 H512 0.950 . S
C538 C534 1.385 . S
C538 C537 1.374 . S
C539 C536 1.499 . S
C539 C540 1.373 1_455 S
C539 C541 1.389 . S
C540 H513 0.950 . S
C540 C526 1.377 . S
C540 C539 1.373 1_655 S
C541 C525 1.377 . S
C541 C539 1.389 . S
C541 C542 1.524 . S
C542 C541 1.524 . S
C542 C543 1.397 . S
C542 C547 1.363 . S
C543 H514 0.950 . S
C543 C542 1.397 . S
C543 C544 1.334 . S
C544 H515 0.950 . S
C544 C543 1.334 . S
C544 C545 1.287 . S
C545 C544 1.287 . S
C545 C546 1.524 . S
C545 H548 0.999 . S
C546 H516 0.950 . S
C546 C545 1.524 . S
C546 C547 1.415 . S
C547 H517 0.950 . S
C547 C542 1.363 . S
C547 C546 1.415 . S
H548 C545 0.999 . S
H549 C530 0.913 . S
H550 C568 0.951 . S
H551 C570 0.951 . S
H552 C572 0.950 . S
H553 C573 0.950 . S
H554 C575 0.950 . S
H555 C578 0.950 . S
H556 C579 0.950 . S
H557 C581 0.950 . S
H558 C582 0.950 . S
H559 C583 0.951 . S
H560 C585 0.951 . S
H561 C587 0.951 . S
H562 C588 0.954 . S
H563 C590 0.950 . S
H564 C593 0.950 . S
H565 C594 0.950 . S
H566 C596 0.950 . S
H567 C597 0.950 . S
C568 H550 0.951 . S
C568 C569 1.366 1_545 S
C568 C570 1.388 . S
C569 C568 1.366 1_565 S
C569 C573 1.385 . S
C570 H551 0.951 . S
C570 C568 1.388 . S
C570 C571 1.366 1_545 S
C571 C570 1.366 1_565 S
C571 C572 1.414 . S
C571 C574 1.499 . S
C572 H552 0.950 . S
C572 C571 1.414 . S
C572 C573 1.374 . S
C573 H553 0.950 . S
C573 C569 1.385 . S
C573 C572 1.374 . S
C574 C571 1.499 . S
C574 C575 1.373 . S
C574 C576 1.389 1_565 S
C575 H554 0.950 . S
C575 C574 1.373 . S
C575 C591 1.377 . S
C576 C574 1.389 1_545 S
C576 C577 1.524 . S
C576 C590 1.377 . S
C577 C576 1.524 . S
C577 C578 1.397 . S
C577 C582 1.363 . S
C578 H555 0.950 . S
C578 C577 1.397 . S
C578 C579 1.334 . S
C579 H556 0.950 . S
C579 C578 1.334 . S
C579 C580 1.287 . S
C580 C579 1.287 . S
C580 C581 1.524 . S
C580 H599 0.913 . S
C581 H557 0.950 . S
C581 C580 1.524 . S
C581 C582 1.415 . S
C582 H558 0.950 . S
C582 C577 1.363 . S
C582 C581 1.415 . S
C583 H559 0.951 . S
C583 C584 1.366 . S
C583 C585 1.388 . S
C584 C583 1.366 . S
C584 C588 1.381 1_565 S
C585 H560 0.951 . S
C585 C583 1.388 . S
C585 C586 1.366 . S
C586 C585 1.366 . S
C586 C587 1.414 1_565 S
C586 C589 1.499 . S
C587 H561 0.951 . S
C587 C586 1.414 1_545 S
C587 C588 1.374 . S
C588 H562 0.954 . S
C588 C584 1.381 1_545 S
C588 C587 1.374 . S
C589 C586 1.499 . S
C589 C590 1.373 1_565 S
C589 C591 1.389 . S
C590 H563 0.950 . S
C590 C576 1.377 . S
C590 C589 1.373 1_545 S
C591 C575 1.377 . S
C591 C589 1.389 . S
C591 C592 1.524 . S
C592 C591 1.524 . S
C592 C593 1.397 . S
C592 C597 1.363 . S
C593 H564 0.950 . S
C593 C592 1.397 . S
C593 C594 1.334 . S
C594 H565 0.950 . S
C594 C593 1.334 . S
C594 C595 1.287 . S
C595 C594 1.287 . S
C595 C596 1.524 . S
C595 H598 0.999 . S
C596 H566 0.950 . S
C596 C595 1.524 . S
C596 C597 1.415 . S
C597 H567 0.950 . S
C597 C592 1.363 . S
C597 C596 1.415 . S
H598 C595 0.999 . S
H599 C580 0.913 . S
H600 C618 0.951 . S
H601 C620 0.951 . S
H602 C622 0.950 . S
H603 C623 0.950 . S
H604 C625 0.950 . S
H605 C628 0.950 . S
H606 C629 0.950 . S
H607 C631 0.950 . S
H608 C632 0.947 1_556 S
H609 C633 0.951 . S
H610 C635 0.951 . S
H611 C637 0.950 . S
H612 C638 0.950 . S
H613 C640 0.950 . S
H614 C643 0.950 . S
H615 C644 0.950 . S
H616 C646 0.950 . S
H617 C647 0.950 . S
C618 H600 0.951 . S
C618 C619 1.366 . S
C618 C620 1.388 . S
C619 C618 1.366 . S
C619 C623 1.385 1_556 S
C620 H601 0.951 . S
C620 C618 1.388 . S
C620 C621 1.366 . S
C621 C620 1.366 . S
C621 C622 1.414 1_556 S
C621 C624 1.499 . S
C622 H602 0.950 . S
C622 C621 1.414 1_554 S
C622 C623 1.374 . S
C623 H603 0.950 . S
C623 C619 1.385 1_554 S
C623 C622 1.374 . S
C624 C621 1.499 . S
C624 C625 1.373 . S
C624 C626 1.389 1_556 S
C625 H604 0.950 . S
C625 C624 1.373 . S
C625 C641 1.377 . S
C626 C624 1.389 1_554 S
C626 C627 1.524 . S
C626 C640 1.377 . S
C627 C626 1.524 . S
C627 C628 1.397 . S
C627 C632 1.363 . S
C628 H605 0.950 . S
C628 C627 1.397 . S
C628 C629 1.334 . S
C629 H606 0.950 . S
C629 C628 1.334 . S
C629 C630 1.287 . S
C630 C629 1.287 . S
C630 C631 1.524 . S
C630 H649 0.913 . S
C631 H607 0.950 . S
C631 C630 1.524 . S
C631 C632 1.415 . S
C632 H608 0.947 1_554 S
C632 C627 1.363 . S
C632 C631 1.415 . S
C633 H609 0.951 . S
C633 C634 1.366 1_554 S
C633 C635 1.388 . S
C634 C633 1.366 1_556 S
C634 C638 1.385 . S
C635 H610 0.951 . S
C635 C633 1.388 . S
C635 C636 1.366 1_554 S
C636 C635 1.366 1_556 S
C636 C637 1.414 . S
C636 C639 1.499 . S
C637 H611 0.950 . S
C637 C636 1.414 . S
C637 C638 1.374 . S
C638 H612 0.950 . S
C638 C634 1.385 . S
C638 C637 1.374 . S
C639 C636 1.499 . S
C639 C640 1.373 1_556 S
C639 C641 1.389 . S
C640 H613 0.950 . S
C640 C626 1.377 . S
C640 C639 1.373 1_554 S
C641 C625 1.377 . S
C641 C639 1.389 . S
C641 C642 1.524 . S
C642 C641 1.524 . S
C642 C643 1.397 . S
C642 C647 1.363 . S
C643 H614 0.950 . S
C643 C642 1.397 . S
C643 C644 1.334 . S
C644 H615 0.950 . S
C644 C643 1.334 . S
C644 C645 1.287 . S
C645 C644 1.287 . S
C645 C646 1.524 . S
C645 H648 0.999 . S
C646 H616 0.950 . S
C646 C645 1.524 . S
C646 C647 1.415 . S
C647 H617 0.950 . S
C647 C642 1.363 . S
C647 C646 1.415 . S
H648 C645 0.999 . S
H649 C630 0.913 . S
H650 C668 0.951 . S
H651 C670 0.951 . S
H652 C672 0.950 . S
H653 C673 0.950 . S
H654 C675 0.950 . S
H655 C678 0.950 . S
H656 C679 0.950 . S
H657 C681 0.950 . S
H658 C682 0.950 . S
H659 C683 0.951 . S
H660 C685 0.951 . S
H661 C687 0.950 . S
H662 C688 0.950 . S
H663 C690 0.951 . S
H664 C693 0.950 . S
H665 C694 0.950 . S
H666 C696 0.950 . S
H667 C697 0.950 . S
C668 H650 0.951 . S
C668 C669 1.366 1_556 S
C668 C670 1.388 . S
C669 C668 1.366 1_554 S
C669 C673 1.385 . S
C670 H651 0.951 . S
C670 C668 1.388 . S
C670 C671 1.366 1_556 S
C671 C670 1.366 1_554 S
C671 C672 1.414 . S
C671 C674 1.499 . S
C672 H652 0.950 . S
C672 C671 1.414 . S
C672 C673 1.374 . S
C673 H653 0.950 . S
C673 C669 1.385 . S
C673 C672 1.374 . S
C674 C671 1.499 . S
C674 C675 1.373 . S
C674 C676 1.389 . S
C675 H654 0.950 . S
C675 C674 1.373 . S
C675 C691 1.377 . S
C676 C674 1.389 . S
C676 C677 1.523 1_554 S
C676 C690 1.376 1_554 S
C677 C676 1.523 1_556 S
C677 C678 1.379 1_556 S
C677 C682 1.380 . S
C678 H655 0.950 . S
C678 C677 1.379 1_554 S
C678 C679 1.334 . S
C679 H656 0.950 . S
C679 C678 1.334 . S
C679 C680 1.287 . S
C680 C679 1.287 . S
C680 C681 1.524 1_554 S
C680 H699 0.913 . S
C681 H657 0.950 . S
C681 C680 1.524 1_556 S
C681 C682 1.415 . S
C682 H658 0.950 . S
C682 C677 1.380 . S
C682 C681 1.415 . S
C683 H659 0.951 . S
C683 C684 1.366 . S
C683 C685 1.388 . S
C684 C683 1.366 . S
C684 C688 1.385 1_554 S
C685 H660 0.951 . S
C685 C683 1.388 . S
C685 C686 1.366 . S
C686 C685 1.366 . S
C686 C687 1.414 1_554 S
C686 C689 1.499 . S
C687 H661 0.950 . S
C687 C686 1.414 1_556 S
C687 C688 1.374 . S
C688 H662 0.950 . S
C688 C684 1.385 1_556 S
C688 C687 1.374 . S
C689 C686 1.499 . S
C689 C690 1.373 1_554 S
C689 C691 1.389 . S
C690 H663 0.951 . S
C690 C676 1.376 1_556 S
C690 C689 1.373 1_556 S
C691 C675 1.377 . S
C691 C689 1.389 . S
C691 C692 1.524 . S
C692 C691 1.524 . S
C692 C693 1.397 1_554 S
C692 C697 1.363 . S
C693 H664 0.950 . S
C693 C692 1.397 1_556 S
C693 C694 1.334 . S
C694 H665 0.950 . S
C694 C693 1.334 . S
C694 C695 1.287 1_556 S
C695 C694 1.287 1_554 S
C695 C696 1.524 . S
C695 H698 0.999 . S
C696 H666 0.950 . S
C696 C695 1.524 . S
C696 C697 1.415 . S
C697 H667 0.950 . S
C697 C692 1.363 . S
C697 C696 1.415 . S
H698 C695 0.999 . S
H699 C680 0.913 . S
H700 C718 0.951 . S
H701 C720 0.951 . S
H702 C722 0.950 . S
H703 C723 0.950 . S
H704 C725 0.950 . S
H705 C728 0.950 . S
H706 C729 0.950 . S
H707 C731 0.950 . S
H708 C732 0.950 . S
H709 C733 0.951 . S
H710 C735 0.951 . S
H711 C737 0.950 . S
H712 C738 0.950 . S
H713 C740 0.950 . S
H714 C743 0.950 . S
H715 C744 0.950 . S
H716 C746 0.950 . S
H717 C747 0.950 . S
C718 H700 0.951 . S
C718 C719 1.366 1_556 S
C718 C720 1.388 . S
C719 C718 1.366 1_554 S
C719 C723 1.385 . S
C720 H701 0.951 . S
C720 C718 1.388 . S
C720 C721 1.366 1_556 S
C721 C720 1.366 1_554 S
C721 C722 1.414 . S
C721 C724 1.499 . S
C722 H702 0.950 . S
C722 C721 1.414 . S
C722 C723 1.374 . S
C723 H703 0.950 . S
C723 C719 1.385 . S
C723 C722 1.374 . S
C724 C721 1.499 . S
C724 C725 1.373 . S
C724 C726 1.389 . S
C725 H704 0.950 . S
C725 C724 1.373 . S
C725 C741 1.377 . S
C726 C724 1.389 . S
C726 C727 1.524 1_554 S
C726 C740 1.377 1_554 S
C727 C726 1.524 1_556 S
C727 C728 1.397 1_556 S
C727 C732 1.363 . S
C728 H705 0.950 . S
C728 C727 1.397 1_554 S
C728 C729 1.334 . S
C729 H706 0.950 . S
C729 C728 1.334 . S
C729 C730 1.287 1_554 S
C730 C729 1.287 1_556 S
C730 C731 1.524 . S
C730 H749 0.913 . S
C731 H707 0.950 . S
C731 C730 1.524 . S
C731 C732 1.415 . S
C732 H708 0.950 . S
C732 C727 1.363 . S
C732 C731 1.415 . S
C733 H709 0.951 . S
C733 C734 1.366 . S
C733 C735 1.388 . S
C734 C733 1.366 . S
C734 C738 1.385 1_554 S
C735 H710 0.951 . S
C735 C733 1.388 . S
C735 C736 1.366 . S
C736 C735 1.366 . S
C736 C737 1.414 1_554 S
C736 C739 1.499 . S
C737 H711 0.950 . S
C737 C736 1.414 1_556 S
C737 C738 1.374 . S
C738 H712 0.950 . S
C738 C734 1.385 1_556 S
C738 C737 1.374 . S
C739 C736 1.499 . S
C739 C740 1.373 1_554 S
C739 C741 1.389 . S
C740 H713 0.950 . S
C740 C726 1.377 1_556 S
C740 C739 1.373 1_556 S
C741 C725 1.377 . S
C741 C739 1.389 . S
C741 C742 1.524 . S
C742 C741 1.524 . S
C742 C743 1.397 1_554 S
C742 C747 1.363 . S
C743 H714 0.950 . S
C743 C742 1.397 1_556 S
C743 C744 1.334 . S
C744 H715 0.950 . S
C744 C743 1.334 . S
C744 C745 1.287 1_556 S
C745 C744 1.287 1_554 S
C745 C746 1.524 . S
C745 H748 0.999 . S
C746 H716 0.950 . S
C746 C745 1.524 . S
C746 C747 1.415 . S
C747 H717 0.950 . S
C747 C742 1.363 . S
C747 C746 1.415 . S
H748 C745 0.999 . S
H749 C730 0.913 . S
H750 C768 0.951 . S
H751 C770 0.951 . S
H752 C772 0.950 . S
H753 C773 0.950 . S
H754 C775 0.950 . S
H755 C778 0.950 . S
H756 C779 0.950 . S
H757 C781 0.950 . S
H758 C782 0.950 . S
H759 C783 0.951 . S
H760 C785 0.951 . S
H761 C787 0.950 . S
H762 C788 0.950 . S
H763 C790 0.950 . S
H764 C793 0.950 . S
H765 C794 0.950 . S
H766 C796 0.950 . S
H767 C797 0.950 . S
C768 H750 0.951 . S
C768 C769 1.366 . S
C768 C770 1.388 . S
C769 C768 1.366 . S
C769 C773 1.385 . S
C770 H751 0.951 . S
C770 C768 1.388 . S
C770 C771 1.366 . S
C771 C770 1.366 . S
C771 C772 1.414 . S
C771 C774 1.499 . S
C772 H752 0.950 . S
C772 C771 1.414 . S
C772 C773 1.374 . S
C773 H753 0.950 . S
C773 C769 1.385 . S
C773 C772 1.374 . S
C774 C771 1.499 . S
C774 C775 1.373 . S
C774 C776 1.389 1_556 S
C775 H754 0.950 . S
C775 C774 1.373 . S
C775 C791 1.377 . S
C776 C774 1.389 1_554 S
C776 C777 1.524 . S
C776 C790 1.377 . S
C777 C776 1.524 . S
C777 C778 1.397 . S
C777 C782 1.363 . S
C778 H755 0.950 . S
C778 C777 1.397 . S
C778 C779 1.334 . S
C779 H756 0.950 . S
C779 C778 1.334 . S
C779 C780 1.287 . S
C780 C779 1.287 . S
C780 C781 1.524 . S
C780 H799 0.913 . S
C781 H757 0.950 . S
C781 C780 1.524 . S
C781 C782 1.415 . S
C782 H758 0.950 . S
C782 C777 1.363 . S
C782 C781 1.415 . S
C783 H759 0.951 . S
C783 C784 1.366 . S
C783 C785 1.388 . S
C784 C783 1.366 . S
C784 C788 1.385 . S
C785 H760 0.951 . S
C785 C783 1.388 . S
C785 C786 1.366 . S
C786 C785 1.366 . S
C786 C787 1.414 . S
C786 C789 1.499 . S
C787 H761 0.950 . S
C787 C786 1.414 . S
C787 C788 1.374 . S
C788 H762 0.950 . S
C788 C784 1.385 . S
C788 C787 1.374 . S
C789 C786 1.499 . S
C789 C790 1.373 1_556 S
C789 C791 1.389 . S
C790 H763 0.950 . S
C790 C776 1.377 . S
C790 C789 1.373 1_554 S
C791 C775 1.377 . S
C791 C789 1.389 . S
C791 C792 1.524 . S
C792 C791 1.524 . S
C792 C793 1.397 . S
C792 C797 1.363 . S
C793 H764 0.950 . S
C793 C792 1.397 . S
C793 C794 1.334 . S
C794 H765 0.950 . S
C794 C793 1.334 . S
C794 C795 1.287 . S
C795 C794 1.287 . S
C795 C796 1.524 . S
C795 H798 0.999 . S
C796 H766 0.950 . S
C796 C795 1.524 . S
C796 C797 1.415 . S
C797 H767 0.950 . S
C797 C792 1.363 . S
C797 C796 1.415 . S
H798 C795 0.999 . S
H799 C780 0.913 . S
H800 C818 0.951 . S
H801 C820 0.951 . S
H802 C822 0.950 . S
H803 C823 0.950 . S
H804 C825 0.950 . S
H805 C828 0.950 . S
H806 C829 0.950 . S
H807 C831 0.950 . S
H808 C832 0.950 . S
H809 C833 0.951 . S
H810 C835 0.951 . S
H811 C837 0.950 . S
H812 C838 0.950 . S
H813 C840 0.950 . S
H814 C843 0.950 . S
H815 C844 0.950 . S
H816 C846 0.950 . S
H817 C847 0.950 . S
C818 H800 0.951 . S
C818 C819 1.366 . S
C818 C820 1.388 . S
C819 C818 1.366 . S
C819 C823 1.385 . S
C820 H801 0.951 . S
C820 C818 1.388 . S
C820 C821 1.366 . S
C821 C820 1.366 . S
C821 C822 1.414 . S
C821 C824 1.499 . S
C822 H802 0.950 . S
C822 C821 1.414 . S
C822 C823 1.374 . S
C823 H803 0.950 . S
C823 C819 1.385 . S
C823 C822 1.374 . S
C824 C821 1.499 . S
C824 C825 1.373 . S
C824 C826 1.389 . S
C825 H804 0.950 . S
C825 C824 1.373 . S
C825 C841 1.377 . S
C826 C824 1.389 . S
C826 C827 1.524 . S
C826 C840 1.377 . S
C827 C826 1.524 . S
C827 C828 1.397 . S
C827 C832 1.363 . S
C828 H805 0.950 . S
C828 C827 1.397 . S
C828 C829 1.334 . S
C829 H806 0.950 . S
C829 C828 1.334 . S
C829 C830 1.287 . S
C830 C829 1.287 . S
C830 C831 1.524 . S
C830 H849 0.913 . S
C831 H807 0.950 . S
C831 C830 1.524 . S
C831 C832 1.415 . S
C832 H808 0.950 . S
C832 C827 1.363 . S
C832 C831 1.415 . S
C833 H809 0.951 . S
C833 C834 1.366 . S
C833 C835 1.388 . S
C834 C833 1.366 . S
C834 C838 1.385 . S
C835 H810 0.951 . S
C835 C833 1.388 . S
C835 C836 1.366 . S
C836 C835 1.366 . S
C836 C837 1.414 . S
C836 C839 1.499 . S
C837 H811 0.950 . S
C837 C836 1.414 . S
C837 C838 1.374 . S
C838 H812 0.950 . S
C838 C834 1.385 . S
C838 C837 1.374 . S
C839 C836 1.499 . S
C839 C840 1.373 . S
C839 C841 1.389 . S
C840 H813 0.950 . S
C840 C826 1.377 . S
C840 C839 1.373 . S
C841 C825 1.377 . S
C841 C839 1.389 . S
C841 C842 1.524 . S
C842 C841 1.524 . S
C842 C843 1.397 . S
C842 C847 1.363 . S
C843 H814 0.950 . S
C843 C842 1.397 . S
C843 C844 1.334 . S
C844 H815 0.950 . S
C844 C843 1.334 . S
C844 C845 1.287 . S
C845 C844 1.287 . S
C845 C846 1.524 . S
C845 H848 0.999 . S
C846 H816 0.950 . S
C846 C845 1.524 . S
C846 C847 1.415 . S
C847 H817 0.950 . S
C847 C842 1.363 . S
C847 C846 1.415 . S
H848 C845 0.999 . S
H849 C830 0.913 . S
H850 C868 0.951 . S
H851 C870 0.951 . S
H852 C872 0.950 . S
H853 C873 0.950 . S
H854 C875 0.950 . S
H855 C878 0.950 . S
H856 C879 0.950 . S
H857 C881 0.950 . S
H858 C882 0.950 . S
H859 C883 0.951 . S
H860 C885 0.951 . S
H861 C887 0.950 . S
H862 C888 0.950 . S
H863 C890 0.950 . S
H864 C893 0.950 . S
H865 C894 0.950 . S
H866 C896 0.950 . S
H867 C897 0.950 . S
C868 H850 0.951 . S
C868 C869 1.366 . S
C868 C870 1.388 . S
C869 C868 1.366 . S
C869 C873 1.385 . S
C870 H851 0.951 . S
C870 C868 1.388 . S
C870 C871 1.366 . S
C871 C870 1.366 . S
C871 C872 1.414 . S
C871 C874 1.499 . S
C872 H852 0.950 . S
C872 C871 1.414 . S
C872 C873 1.374 . S
C873 H853 0.950 . S
C873 C869 1.385 . S
C873 C872 1.374 . S
C874 C871 1.499 . S
C874 C875 1.373 . S
C874 C876 1.389 . S
C875 H854 0.950 . S
C875 C874 1.373 . S
C875 C891 1.377 . S
C876 C874 1.389 . S
C876 C877 1.524 . S
C876 C890 1.377 . S
C877 C876 1.524 . S
C877 C878 1.397 . S
C877 C882 1.363 . S
C878 H855 0.950 . S
C878 C877 1.397 . S
C878 C879 1.334 . S
C879 H856 0.950 . S
C879 C878 1.334 . S
C879 C880 1.287 . S
C880 C879 1.287 . S
C880 C881 1.524 . S
C880 H899 0.913 . S
C881 H857 0.950 . S
C881 C880 1.524 . S
C881 C882 1.415 . S
C882 H858 0.950 . S
C882 C877 1.363 . S
C882 C881 1.415 . S
C883 H859 0.951 . S
C883 C884 1.366 . S
C883 C885 1.388 . S
C884 C883 1.366 . S
C884 C888 1.385 . S
C885 H860 0.951 . S
C885 C883 1.388 . S
C885 C886 1.366 . S
C886 C885 1.366 . S
C886 C887 1.414 . S
C886 C889 1.499 . S
C887 H861 0.950 . S
C887 C886 1.414 . S
C887 C888 1.374 . S
C888 H862 0.950 . S
C888 C884 1.385 . S
C888 C887 1.374 . S
C889 C886 1.499 . S
C889 C890 1.373 . S
C889 C891 1.389 . S
C890 H863 0.950 . S
C890 C876 1.377 . S
C890 C889 1.373 . S
C891 C875 1.377 . S
C891 C889 1.389 . S
C891 C892 1.524 . S
C892 C891 1.524 . S
C892 C893 1.397 . S
C892 C897 1.363 . S
C893 H864 0.950 . S
C893 C892 1.397 . S
C893 C894 1.334 . S
C894 H865 0.950 . S
C894 C893 1.334 . S
C894 C895 1.287 . S
C895 C894 1.287 . S
C895 C896 1.524 . S
C895 H898 0.999 . S
C896 H866 0.950 . S
C896 C895 1.524 . S
C896 C897 1.415 . S
C897 H867 0.950 . S
C897 C892 1.363 . S
C897 C896 1.415 . S
H898 C895 0.999 . S
H899 C880 0.913 . S
H900 C918 0.951 . S
H901 C920 0.951 . S
H902 C922 0.950 . S
H903 C923 0.950 . S
H904 C925 0.950 . S
H905 C928 0.950 . S
H906 C929 0.950 . S
H907 C931 0.950 . S
H908 C932 0.950 . S
H909 C933 0.951 . S
H910 C935 0.951 . S
H911 C937 0.950 . S
H912 C938 0.950 . S
H913 C940 0.950 . S
H914 C943 0.950 . S
H915 C944 0.950 . S
H916 C946 0.950 . S
H917 C947 0.950 . S
C918 H900 0.951 . S
C918 C919 1.366 . S
C918 C920 1.388 . S
C919 C918 1.366 . S
C919 C923 1.385 . S
C920 H901 0.951 . S
C920 C918 1.388 . S
C920 C921 1.366 . S
C921 C920 1.366 . S
C921 C922 1.414 . S
C921 C924 1.499 . S
C922 H902 0.950 . S
C922 C921 1.414 . S
C922 C923 1.374 . S
C923 H903 0.950 . S
C923 C919 1.385 . S
C923 C922 1.374 . S
C924 C921 1.499 . S
C924 C925 1.373 . S
C924 C926 1.389 . S
C925 H904 0.950 . S
C925 C924 1.373 . S
C925 C941 1.377 . S
C926 C924 1.389 . S
C926 C927 1.524 . S
C926 C940 1.377 . S
C927 C926 1.524 . S
C927 C928 1.397 . S
C927 C932 1.363 . S
C928 H905 0.950 . S
C928 C927 1.397 . S
C928 C929 1.334 . S
C929 H906 0.950 . S
C929 C928 1.334 . S
C929 C930 1.287 . S
C930 C929 1.287 . S
C930 C931 1.524 . S
C930 H949 0.913 . S
C931 H907 0.950 . S
C931 C930 1.524 . S
C931 C932 1.415 . S
C932 H908 0.950 . S
C932 C927 1.363 . S
C932 C931 1.415 . S
C933 H909 0.951 . S
C933 C934 1.366 . S
C933 C935 1.388 . S
C934 C933 1.366 . S
C934 C938 1.385 . S
C935 H910 0.951 . S
C935 C933 1.388 . S
C935 C936 1.366 . S
C936 C935 1.366 . S
C936 C937 1.414 . S
C936 C939 1.499 . S
C937 H911 0.950 . S
C937 C936 1.414 . S
C937 C938 1.374 . S
C938 H912 0.950 . S
C938 C934 1.385 . S
C938 C937 1.374 . S
C939 C936 1.499 . S
C939 C940 1.373 . S
C939 C941 1.389 . S
C940 H913 0.950 . S
C940 C926 1.377 . S
C940 C939 1.373 . S
C941 C925 1.377 . S
C941 C939 1.389 . S
C941 C942 1.524 . S
C942 C941 1.524 . S
C942 C943 1.397 . S
C942 C947 1.363 . S
C943 H914 0.950 . S
C943 C942 1.397 . S
C943 C944 1.334 . S
C944 H915 0.950 . S
C944 C943 1.334 . S
C944 C945 1.287 . S
C945 C944 1.287 . S
C945 C946 1.524 . S
C945 H948 0.999 . S
C946 H916 0.950 . S
C946 C945 1.524 . S
C946 C947 1.415 . S
C947 H917 0.950 . S
C947 C942 1.363 . S
C947 C946 1.415 . S
H948 C945 0.999 . S
H949 C930 0.913 . S
H950 C968 0.951 . S
H951 C970 0.951 . S
H952 C972 0.950 . S
H953 C973 0.950 . S
H954 C975 0.950 . S
H955 C978 0.950 . S
H956 C979 0.950 . S
H957 C981 0.950 . S
H958 C982 0.950 . S
H959 C983 0.951 . S
H960 C985 0.951 . S
H961 C987 0.950 . S
H962 C988 0.950 . S
H963 C990 0.950 . S
H964 C993 0.950 . S
H965 C994 0.950 . S
H966 C996 0.950 . S
H967 C997 0.950 . S
C968 H950 0.951 . S
C968 C969 1.366 . S
C968 C970 1.388 . S
C969 C968 1.366 . S
C969 C973 1.385 . S
C970 H951 0.951 . S
C970 C968 1.388 . S
C970 C971 1.366 . S
C971 C970 1.366 . S
C971 C972 1.414 . S
C971 C974 1.499 . S
C972 H952 0.950 . S
C972 C971 1.414 . S
C972 C973 1.374 . S
C973 H953 0.950 . S
C973 C969 1.385 . S
C973 C972 1.374 . S
C974 C971 1.499 . S
C974 C975 1.373 . S
C974 C976 1.389 . S
C975 H954 0.950 . S
C975 C974 1.373 . S
C975 C991 1.377 . S
C976 C974 1.389 . S
C976 C977 1.524 . S
C976 C990 1.377 . S
C977 C976 1.524 . S
C977 C978 1.397 . S
C977 C982 1.363 . S
C978 H955 0.950 . S
C978 C977 1.397 . S
C978 C979 1.334 . S
C979 H956 0.950 . S
C979 C978 1.334 . S
C979 C980 1.287 . S
C980 C979 1.287 . S
C980 C981 1.524 . S
C980 H999 0.913 . S
C981 H957 0.950 . S
C981 C980 1.524 . S
C981 C982 1.415 . S
C982 H958 0.950 . S
C982 C977 1.363 . S
C982 C981 1.415 . S
C983 H959 0.951 . S
C983 C984 1.366 . S
C983 C985 1.388 . S
C984 C983 1.366 . S
C984 C988 1.385 . S
C985 H960 0.951 . S
C985 C983 1.388 . S
C985 C986 1.366 . S
C986 C985 1.366 . S
C986 C987 1.414 . S
C986 C989 1.499 . S
C987 H961 0.950 . S
C987 C986 1.414 . S
C987 C988 1.374 . S
C988 H962 0.950 . S
C988 C984 1.385 . S
C988 C987 1.374 . S
C989 C986 1.499 . S
C989 C990 1.373 . S
C989 C991 1.389 . S
C990 H963 0.950 . S
C990 C976 1.377 . S
C990 C989 1.373 . S
C991 C975 1.377 . S
C991 C989 1.389 . S
C991 C992 1.524 . S
C992 C991 1.524 . S
C992 C993 1.397 . S
C992 C997 1.363 . S
C993 H964 0.950 . S
C993 C992 1.397 . S
C993 C994 1.334 . S
C994 H965 0.950 . S
C994 C993 1.334 . S
C994 C995 1.287 . S
C995 C994 1.287 . S
C995 C996 1.524 . S
C995 H998 0.999 . S
C996 H966 0.950 . S
C996 C995 1.524 . S
C996 C997 1.415 . S
C997 H967 0.950 . S
C997 C992 1.363 . S
C997 C996 1.415 . S
H998 C995 0.999 . S
H999 C980 0.913 . S
H1000 C1018 0.951 . S
H1001 C1020 0.951 . S
H1002 C1022 0.950 . S
H1003 C1023 0.950 . S
H1004 C1025 0.950 . S
H1005 C1028 0.950 . S
H1006 C1029 0.950 . S
H1007 C1031 0.950 . S
H1008 C1032 0.950 . S
H1009 C1033 0.951 . S
H1010 C1035 0.951 . S
H1011 C1037 0.950 . S
H1012 C1038 0.950 . S
H1013 C1040 0.950 . S
H1014 C1043 0.950 . S
H1015 C1044 0.950 . S
H1016 C1046 0.950 . S
H1017 C1047 0.950 . S
C1018 H1000 0.951 . S
C1018 C1019 1.366 . S
C1018 C1020 1.388 . S
C1019 C1018 1.366 . S
C1019 C1023 1.385 . S
C1020 H1001 0.951 . S
C1020 C1018 1.388 . S
C1020 C1021 1.366 . S
C1021 C1020 1.366 . S
C1021 C1022 1.414 . S
C1021 C1024 1.499 . S
C1022 H1002 0.950 . S
C1022 C1021 1.414 . S
C1022 C1023 1.374 . S
C1023 H1003 0.950 . S
C1023 C1019 1.385 . S
C1023 C1022 1.374 . S
C1024 C1021 1.499 . S
C1024 C1025 1.373 . S
C1024 C1026 1.389 . S
C1025 H1004 0.950 . S
C1025 C1024 1.373 . S
C1025 C1041 1.377 . S
C1026 C1024 1.389 . S
C1026 C1027 1.524 . S
C1026 C1040 1.377 . S
C1027 C1026 1.524 . S
C1027 C1028 1.397 . S
C1027 C1032 1.363 . S
C1028 H1005 0.950 . S
C1028 C1027 1.397 . S
C1028 C1029 1.334 . S
C1029 H1006 0.950 . S
C1029 C1028 1.334 . S
C1029 C1030 1.287 . S
C1030 C1029 1.287 . S
C1030 C1031 1.524 . S
C1030 H1049 0.913 . S
C1031 H1007 0.950 . S
C1031 C1030 1.524 . S
C1031 C1032 1.415 . S
C1032 H1008 0.950 . S
C1032 C1027 1.363 . S
C1032 C1031 1.415 . S
C1033 H1009 0.951 . S
C1033 C1034 1.366 . S
C1033 C1035 1.388 . S
C1034 C1033 1.366 . S
C1034 C1038 1.385 . S
C1035 H1010 0.951 . S
C1035 C1033 1.388 . S
C1035 C1036 1.366 . S
C1036 C1035 1.366 . S
C1036 C1037 1.414 . S
C1036 C1039 1.499 . S
C1037 H1011 0.950 . S
C1037 C1036 1.414 . S
C1037 C1038 1.374 . S
C1038 H1012 0.950 . S
C1038 C1034 1.385 . S
C1038 C1037 1.374 . S
C1039 C1036 1.499 . S
C1039 C1040 1.373 . S
C1039 C1041 1.389 . S
C1040 H1013 0.950 . S
C1040 C1026 1.377 . S
C1040 C1039 1.373 . S
C1041 C1025 1.377 . S
C1041 C1039 1.389 . S
C1041 C1042 1.524 . S
C1042 C1041 1.524 . S
C1042 C1043 1.397 . S
C1042 C1047 1.363 . S
C1043 H1014 0.950 . S
C1043 C1042 1.397 . S
C1043 C1044 1.334 . S
C1044 H1015 0.950 . S
C1044 C1043 1.334 . S
C1044 C1045 1.287 . S
C1045 C1044 1.287 . S
C1045 C1046 1.524 . S
C1045 H1048 0.999 . S
C1046 H1016 0.950 . S
C1046 C1045 1.524 . S
C1046 C1047 1.415 . S
C1047 H1017 0.950 . S
C1047 C1042 1.363 . S
C1047 C1046 1.415 . S
H1048 C1045 0.999 . S
H1049 C1030 0.913 . S
H1050 C1068 0.951 . S
H1051 C1070 0.951 . S
H1052 C1072 0.950 . S
H1053 C1073 0.950 . S
H1054 C1075 0.950 . S
H1055 C1078 0.950 . S
H1056 C1079 0.950 . S
H1057 C1081 0.950 . S
H1058 C1082 0.950 . S
H1059 C1083 0.951 . S
H1060 C1085 0.951 . S
H1061 C1087 0.950 . S
H1062 C1088 0.950 . S
H1063 C1090 0.950 . S
H1064 C1093 0.950 . S
H1065 C1094 0.950 . S
H1066 C1096 0.950 . S
H1067 C1097 0.950 . S
C1068 H1050 0.951 . S
C1068 C1069 1.366 . S
C1068 C1070 1.388 . S
C1069 C1068 1.366 . S
C1069 C1073 1.385 . S
C1070 H1051 0.951 . S
C1070 C1068 1.388 . S
C1070 C1071 1.366 . S
C1071 C1070 1.366 . S
C1071 C1072 1.414 . S
C1071 C1074 1.499 . S
C1072 H1052 0.950 . S
C1072 C1071 1.414 . S
C1072 C1073 1.374 . S
C1073 H1053 0.950 . S
C1073 C1069 1.385 . S
C1073 C1072 1.374 . S
C1074 C1071 1.499 . S
C1074 C1075 1.373 . S
C1074 C1076 1.389 . S
C1075 H1054 0.950 . S
C1075 C1074 1.373 . S
C1075 C1091 1.377 . S
C1076 C1074 1.389 . S
C1076 C1077 1.524 . S
C1076 C1090 1.377 . S
C1077 C1076 1.524 . S
C1077 C1078 1.397 . S
C1077 C1082 1.363 . S
C1078 H1055 0.950 . S
C1078 C1077 1.397 . S
C1078 C1079 1.334 . S
C1079 H1056 0.950 . S
C1079 C1078 1.334 . S
C1079 C1080 1.287 . S
C1080 C1079 1.287 . S
C1080 C1081 1.524 . S
C1080 H1099 0.913 . S
C1081 H1057 0.950 . S
C1081 C1080 1.524 . S
C1081 C1082 1.415 . S
C1082 H1058 0.950 . S
C1082 C1077 1.363 . S
C1082 C1081 1.415 . S
C1083 H1059 0.951 . S
C1083 C1084 1.366 . S
C1083 C1085 1.388 . S
C1084 C1083 1.366 . S
C1084 C1088 1.385 . S
C1085 H1060 0.951 . S
C1085 C1083 1.388 . S
C1085 C1086 1.366 . S
C1086 C1085 1.366 . S
C1086 C1087 1.414 . S
C1086 C1089 1.499 . S
C1087 H1061 0.950 . S
C1087 C1086 1.414 . S
C1087 C1088 1.374 . S
C1088 H1062 0.950 . S
C1088 C1084 1.385 . S
C1088 C1087 1.374 . S
C1089 C1086 1.499 . S
C1089 C1090 1.373 . S
C1089 C1091 1.389 . S
C1090 H1063 0.950 . S
C1090 C1076 1.377 . S
C1090 C1089 1.373 . S
C1091 C1075 1.377 . S
C1091 C1089 1.389 . S
C1091 C1092 1.524 . S
C1092 C1091 1.524 . S
C1092 C1093 1.397 . S
C1092 C1097 1.363 . S
C1093 H1064 0.950 . S
C1093 C1092 1.397 . S
C1093 C1094 1.334 . S
C1094 H1065 0.950 . S
C1094 C1093 1.334 . S
C1094 C1095 1.287 . S
C1095 C1094 1.287 . S
C1095 C1096 1.524 . S
C1095 H1098 0.999 . S
C1096 H1066 0.950 . S
C1096 C1095 1.524 . S
C1096 C1097 1.415 . S
C1097 H1067 0.950 . S
C1097 C1092 1.363 . S
C1097 C1096 1.415 . S
H1098 C1095 0.999 . S
H1099 C1080 0.913 . S
H1100 C1118 0.951 . S
H1101 C1120 0.951 . S
H1102 C1122 0.950 . S
H1103 C1123 0.950 . S
H1104 C1125 0.950 . S
H1105 C1128 0.950 . S
H1106 C1129 0.950 . S
H1107 C1131 0.950 . S
H1108 C1132 0.950 . S
H1109 C1133 0.951 . S
H1110 C1135 0.951 . S
H1111 C1137 0.950 . S
H1112 C1138 0.950 . S
H1113 C1140 0.950 . S
H1114 C1143 0.950 . S
H1115 C1144 0.950 . S
H1116 C1146 0.950 . S
H1117 C1147 0.950 . S
C1118 H1100 0.951 . S
C1118 C1119 1.366 . S
C1118 C1120 1.388 . S
C1119 C1118 1.366 . S
C1119 C1123 1.385 . S
C1120 H1101 0.951 . S
C1120 C1118 1.388 . S
C1120 C1121 1.366 . S
C1121 C1120 1.366 . S
C1121 C1122 1.414 . S
C1121 C1124 1.499 . S
C1122 H1102 0.950 . S
C1122 C1121 1.414 . S
C1122 C1123 1.374 . S
C1123 H1103 0.950 . S
C1123 C1119 1.385 . S
C1123 C1122 1.374 . S
C1124 C1121 1.499 . S
C1124 C1125 1.373 . S
C1124 C1126 1.389 . S
C1125 H1104 0.950 . S
C1125 C1124 1.373 . S
C1125 C1141 1.377 . S
C1126 C1124 1.389 . S
C1126 C1127 1.524 . S
C1126 C1140 1.377 . S
C1127 C1126 1.524 . S
C1127 C1128 1.397 . S
C1127 C1132 1.363 . S
C1128 H1105 0.950 . S
C1128 C1127 1.397 . S
C1128 C1129 1.334 . S
C1129 H1106 0.950 . S
C1129 C1128 1.334 . S
C1129 C1130 1.287 . S
C1130 C1129 1.287 . S
C1130 C1131 1.524 . S
C1130 H1149 0.913 . S
C1131 H1107 0.950 . S
C1131 C1130 1.524 . S
C1131 C1132 1.415 . S
C1132 H1108 0.950 . S
C1132 C1127 1.363 . S
C1132 C1131 1.415 . S
C1133 H1109 0.951 . S
C1133 C1134 1.366 . S
C1133 C1135 1.388 . S
C1134 C1133 1.366 . S
C1134 C1138 1.385 . S
C1135 H1110 0.951 . S
C1135 C1133 1.388 . S
C1135 C1136 1.366 . S
C1136 C1135 1.366 . S
C1136 C1137 1.414 . S
C1136 C1139 1.499 . S
C1137 H1111 0.950 . S
C1137 C1136 1.414 . S
C1137 C1138 1.374 . S
C1138 H1112 0.950 . S
C1138 C1134 1.385 . S
C1138 C1137 1.374 . S
C1139 C1136 1.499 . S
C1139 C1140 1.373 . S
C1139 C1141 1.389 . S
C1140 H1113 0.950 . S
C1140 C1126 1.377 . S
C1140 C1139 1.373 . S
C1141 C1125 1.377 . S
C1141 C1139 1.389 . S
C1141 C1142 1.524 . S
C1142 C1141 1.524 . S
C1142 C1143 1.397 . S
C1142 C1147 1.363 . S
C1143 H1114 0.950 . S
C1143 C1142 1.397 . S
C1143 C1144 1.334 . S
C1144 H1115 0.950 . S
C1144 C1143 1.334 . S
C1144 C1145 1.287 . S
C1145 C1144 1.287 . S
C1145 C1146 1.524 . S
C1145 H1148 0.999 . S
C1146 H1116 0.950 . S
C1146 C1145 1.524 . S
C1146 C1147 1.415 . S
C1147 H1117 0.950 . S
C1147 C1142 1.363 . S
C1147 C1146 1.415 . S
H1148 C1145 0.999 . S
H1149 C1130 0.913 . S
H1150 C1168 0.951 . S
H1151 C1170 0.951 . S
H1152 C1172 0.950 . S
H1153 C1173 0.950 . S
H1154 C1175 0.950 . S
H1155 C1178 0.950 . S
H1156 C1179 0.950 . S
H1157 C1181 0.950 . S
H1158 C1182 0.950 . S
H1159 C1183 0.951 . S
H1160 C1185 0.951 . S
H1161 C1187 0.950 . S
H1162 C1188 0.950 . S
H1163 C1190 0.950 . S
H1164 C1193 0.950 . S
H1165 C1194 0.950 . S
H1166 C1196 0.950 . S
H1167 C1197 0.950 . S
C1168 H1150 0.951 . S
C1168 C1169 1.366 . S
C1168 C1170 1.388 . S
C1169 C1168 1.366 . S
C1169 C1173 1.385 . S
C1170 H1151 0.951 . S
C1170 C1168 1.388 . S
C1170 C1171 1.366 . S
C1171 C1170 1.366 . S
C1171 C1172 1.414 . S
C1171 C1174 1.499 . S
C1172 H1152 0.950 . S
C1172 C1171 1.414 . S
C1172 C1173 1.374 . S
C1173 H1153 0.950 . S
C1173 C1169 1.385 . S
C1173 C1172 1.374 . S
C1174 C1171 1.499 . S
C1174 C1175 1.373 . S
C1174 C1176 1.389 . S
C1175 H1154 0.950 . S
C1175 C1174 1.373 . S
C1175 C1191 1.377 . S
C1176 C1174 1.389 . S
C1176 C1177 1.524 . S
C1176 C1190 1.377 . S
C1177 C1176 1.524 . S
C1177 C1178 1.397 . S
C1177 C1182 1.363 . S
C1178 H1155 0.950 . S
C1178 C1177 1.397 . S
C1178 C1179 1.334 . S
C1179 H1156 0.950 . S
C1179 C1178 1.334 . S
C1179 C1180 1.287 . S
C1180 C1179 1.287 . S
C1180 C1181 1.524 . S
C1180 H1199 0.913 . S
C1181 H1157 0.950 . S
C1181 C1180 1.524 . S
C1181 C1182 1.415 . S
C1182 H1158 0.950 . S
C1182 C1177 1.363 . S
C1182 C1181 1.415 . S
C1183 H1159 0.951 . S
C1183 C1184 1.366 . S
C1183 C1185 1.388 . S
C1184 C1183 1.366 . S
C1184 C1188 1.385 . S
C1185 H1160 0.951 . S
C1185 C1183 1.388 . S
C1185 C1186 1.366 . S
C1186 C1185 1.366 . S
C1186 C1187 1.414 . S
C1186 C1189 1.499 . S
C1187 H1161 0.950 . S
C1187 C1186 1.414 . S
C1187 C1188 1.374 . S
C1188 H1162 0.950 . S
C1188 C1184 1.385 . S
C1188 C1187 1.374 . S
C1189 C1186 1.499 . S
C1189 C1190 1.373 . S
C1189 C1191 1.389 . S
C1190 H1163 0.950 . S
C1190 C1176 1.377 . S
C1190 C1189 1.373 . S
C1191 C1175 1.377 . S
C1191 C1189 1.389 . S
C1191 C1192 1.524 . S
C1192 C1191 1.524 . S
C1192 C1193 1.397 . S
C1192 C1197 1.363 . S
C1193 H1164 0.950 . S
C1193 C1192 1.397 . S
C1193 C1194 1.334 . S
C1194 H1165 0.950 . S
C1194 C1193 1.334 . S
C1194 C1195 1.287 . S
C1195 C1194 1.287 . S
C1195 C1196 1.524 . S
C1195 H1198 0.999 . S
C1196 H1166 0.950 . S
C1196 C1195 1.524 . S
C1196 C1197 1.415 . S
C1197 H1167 0.950 . S
C1197 C1192 1.363 . S
C1197 C1196 1.415 . S
H1198 C1195 0.999 . S
H1199 C1180 0.913 . S
H1200 C1218 0.951 . S
H1201 C1220 0.951 . S
H1202 C1222 0.950 . S
H1203 C1223 0.950 . S
H1204 C1225 0.950 . S
H1205 C1228 0.950 . S
H1206 C1229 0.950 . S
H1207 C1231 0.950 . S
H1208 C1232 0.950 . S
H1209 C1233 0.951 . S
H1210 C1235 0.951 . S
H1211 C1237 0.950 . S
H1212 C1238 0.950 . S
H1213 C1240 0.950 . S
H1214 C1243 0.950 . S
H1215 C1244 0.950 . S
H1216 C1246 0.950 . S
H1217 C1247 0.950 . S
C1218 H1200 0.951 . S
C1218 C1219 1.366 . S
C1218 C1220 1.388 . S
C1219 C1218 1.366 . S
C1219 C1223 1.385 . S
C1220 H1201 0.951 . S
C1220 C1218 1.388 . S
C1220 C1221 1.366 . S
C1221 C1220 1.366 . S
C1221 C1222 1.414 . S
C1221 C1224 1.499 . S
C1222 H1202 0.950 . S
C1222 C1221 1.414 . S
C1222 C1223 1.374 . S
C1223 H1203 0.950 . S
C1223 C1219 1.385 . S
C1223 C1222 1.374 . S
C1224 C1221 1.499 . S
C1224 C1225 1.373 . S
C1224 C1226 1.389 . S
C1225 H1204 0.950 . S
C1225 C1224 1.373 . S
C1225 C1241 1.377 . S
C1226 C1224 1.389 . S
C1226 C1227 1.524 . S
C1226 C1240 1.377 . S
C1227 C1226 1.524 . S
C1227 C1228 1.397 . S
C1227 C1232 1.363 . S
C1228 H1205 0.950 . S
C1228 C1227 1.397 . S
C1228 C1229 1.334 . S
C1229 H1206 0.950 . S
C1229 C1228 1.334 . S
C1229 C1230 1.287 . S
C1230 C1229 1.287 . S
C1230 C1231 1.524 . S
C1230 H1249 0.913 . S
C1231 H1207 0.950 . S
C1231 C1230 1.524 . S
C1231 C1232 1.415 . S
C1232 H1208 0.950 . S
C1232 C1227 1.363 . S
C1232 C1231 1.415 . S
C1233 H1209 0.951 . S
C1233 C1234 1.366 . S
C1233 C1235 1.388 . S
C1234 C1233 1.366 . S
C1234 C1238 1.385 . S
C1235 H1210 0.951 . S
C1235 C1233 1.388 . S
C1235 C1236 1.366 . S
C1236 C1235 1.366 . S
C1236 C1237 1.414 . S
C1236 C1239 1.499 . S
C1237 H1211 0.950 . S
C1237 C1236 1.414 . S
C1237 C1238 1.374 . S
C1238 H1212 0.950 . S
C1238 C1234 1.385 . S
C1238 C1237 1.374 . S
C1239 C1236 1.499 . S
C1239 C1240 1.373 . S
C1239 C1241 1.389 . S
C1240 H1213 0.950 . S
C1240 C1226 1.377 . S
C1240 C1239 1.373 . S
C1241 C1225 1.377 . S
C1241 C1239 1.389 . S
C1241 C1242 1.524 . S
C1242 C1241 1.524 . S
C1242 C1243 1.397 . S
C1242 C1247 1.363 . S
C1243 H1214 0.950 . S
C1243 C1242 1.397 . S
C1243 C1244 1.334 . S
C1244 H1215 0.950 . S
C1244 C1243 1.334 . S
C1244 C1245 1.287 . S
C1245 C1244 1.287 . S
C1245 C1246 1.524 . S
C1245 H1248 0.999 . S
C1246 H1216 0.950 . S
C1246 C1245 1.524 . S
C1246 C1247 1.415 . S
C1247 H1217 0.950 . S
C1247 C1242 1.363 . S
C1247 C1246 1.415 . S
H1248 C1245 0.999 . S
H1249 C1230 0.913 . S
H1250 C1268 0.951 . S
H1251 C1270 0.951 . S
H1252 C1272 0.950 . S
H1253 C1273 0.950 . S
H1254 C1275 0.950 . S
H1255 C1278 0.950 . S
H1256 C1279 0.950 . S
H1257 C1281 0.950 . S
H1258 C1282 0.950 . S
H1259 C1283 0.951 . S
H1260 C1285 0.951 . S
H1261 C1287 0.950 . S
H1262 C1288 0.950 . S
H1263 C1290 0.950 . S
H1264 C1293 0.950 . S
H1265 C1294 0.950 . S
H1266 C1296 0.950 . S
H1267 C1297 0.950 . S
C1268 H1250 0.951 . S
C1268 C1269 1.366 . S
C1268 C1270 1.388 . S
C1269 C1268 1.366 . S
C1269 C1273 1.385 . S
C1270 H1251 0.951 . S
C1270 C1268 1.388 . S
C1270 C1271 1.366 . S
C1271 C1270 1.366 . S
C1271 C1272 1.414 . S
C1271 C1274 1.499 . S
C1272 H1252 0.950 . S
C1272 C1271 1.414 . S
C1272 C1273 1.374 . S
C1273 H1253 0.950 . S
C1273 C1269 1.385 . S
C1273 C1272 1.374 . S
C1274 C1271 1.499 . S
C1274 C1275 1.373 . S
C1274 C1276 1.389 . S
C1275 H1254 0.950 . S
C1275 C1274 1.373 . S
C1275 C1291 1.377 . S
C1276 C1274 1.389 . S
C1276 C1277 1.524 . S
C1276 C1290 1.377 . S
C1277 C1276 1.524 . S
C1277 C1278 1.397 . S
C1277 C1282 1.363 . S
C1278 H1255 0.950 . S
C1278 C1277 1.397 . S
C1278 C1279 1.334 . S
C1279 H1256 0.950 . S
C1279 C1278 1.334 . S
C1279 C1280 1.287 . S
C1280 C1279 1.287 . S
C1280 C1281 1.524 . S
C1280 H1299 0.913 . S
C1281 H1257 0.950 . S
C1281 C1280 1.524 . S
C1281 C1282 1.415 . S
C1282 H1258 0.950 . S
C1282 C1277 1.363 . S
C1282 C1281 1.415 . S
C1283 H1259 0.951 . S
C1283 C1284 1.366 . S
C1283 C1285 1.388 . S
C1284 C1283 1.366 . S
C1284 C1288 1.385 . S
C1285 H1260 0.951 . S
C1285 C1283 1.388 . S
C1285 C1286 1.366 . S
C1286 C1285 1.366 . S
C1286 C1287 1.414 . S
C1286 C1289 1.499 . S
C1287 H1261 0.950 . S
C1287 C1286 1.414 . S
C1287 C1288 1.374 . S
C1288 H1262 0.950 . S
C1288 C1284 1.385 . S
C1288 C1287 1.374 . S
C1289 C1286 1.499 . S
C1289 C1290 1.373 . S
C1289 C1291 1.389 . S
C1290 H1263 0.950 . S
C1290 C1276 1.377 . S
C1290 C1289 1.373 . S
C1291 C1275 1.377 . S
C1291 C1289 1.389 . S
C1291 C1292 1.524 . S
C1292 C1291 1.524 . S
C1292 C1293 1.397 . S
C1292 C1297 1.363 . S
C1293 H1264 0.950 . S
C1293 C1292 1.397 . S
C1293 C1294 1.334 . S
C1294 H1265 0.950 . S
C1294 C1293 1.334 . S
C1294 C1295 1.287 . S
C1295 C1294 1.287 . S
C1295 C1296 1.524 . S
C1295 H1298 0.999 . S
C1296 H1266 0.950 . S
C1296 C1295 1.524 . S
C1296 C1297 1.415 . S
C1297 H1267 0.950 . S
C1297 C1292 1.363 . S
C1297 C1296 1.415 . S
H1298 C1295 0.999 . S
H1299 C1280 0.913 . S
H1300 C1318 0.951 . S
H1301 C1320 0.951 . S
H1302 C1322 0.950 . S
H1303 C1323 0.950 . S
H1304 C1325 0.950 . S
H1305 C1328 0.950 . S
H1306 C1329 0.950 . S
H1307 C1331 0.950 . S
H1308 C1332 0.950 . S
H1309 C1333 0.951 . S
H1310 C1335 0.951 . S
H1311 C1337 0.950 . S
H1312 C1338 0.950 . S
H1313 C1340 0.950 . S
H1314 C1343 0.950 . S
H1315 C1344 0.950 . S
H1316 C1346 0.950 . S
H1317 C1347 0.950 . S
C1318 H1300 0.951 . S
C1318 C1319 1.366 . S
C1318 C1320 1.388 . S
C1319 C1318 1.366 . S
C1319 C1323 1.385 . S
C1320 H1301 0.951 . S
C1320 C1318 1.388 . S
C1320 C1321 1.366 . S
C1321 C1320 1.366 . S
C1321 C1322 1.414 . S
C1321 C1324 1.499 . S
C1322 H1302 0.950 . S
C1322 C1321 1.414 . S
C1322 C1323 1.374 . S
C1323 H1303 0.950 . S
C1323 C1319 1.385 . S
C1323 C1322 1.374 . S
C1324 C1321 1.499 . S
C1324 C1325 1.373 . S
C1324 C1326 1.389 . S
C1325 H1304 0.950 . S
C1325 C1324 1.373 . S
C1325 C1341 1.377 . S
C1326 C1324 1.389 . S
C1326 C1327 1.524 . S
C1326 C1340 1.377 . S
C1327 C1326 1.524 . S
C1327 C1328 1.397 . S
C1327 C1332 1.363 . S
C1328 H1305 0.950 . S
C1328 C1327 1.397 . S
C1328 C1329 1.334 . S
C1329 H1306 0.950 . S
C1329 C1328 1.334 . S
C1329 C1330 1.287 . S
C1330 C1329 1.287 . S
C1330 C1331 1.524 . S
C1330 H1349 0.913 . S
C1331 H1307 0.950 . S
C1331 C1330 1.524 . S
C1331 C1332 1.415 . S
C1332 H1308 0.950 . S
C1332 C1327 1.363 . S
C1332 C1331 1.415 . S
C1333 H1309 0.951 . S
C1333 C1334 1.366 . S
C1333 C1335 1.388 . S
C1334 C1333 1.366 . S
C1334 C1338 1.385 . S
C1335 H1310 0.951 . S
C1335 C1333 1.388 . S
C1335 C1336 1.366 . S
C1336 C1335 1.366 . S
C1336 C1337 1.414 . S
C1336 C1339 1.499 . S
C1337 H1311 0.950 . S
C1337 C1336 1.414 . S
C1337 C1338 1.374 . S
C1338 H1312 0.950 . S
C1338 C1334 1.385 . S
C1338 C1337 1.374 . S
C1339 C1336 1.499 . S
C1339 C1340 1.373 . S
C1339 C1341 1.389 . S
C1340 H1313 0.950 . S
C1340 C1326 1.377 . S
C1340 C1339 1.373 . S
C1341 C1325 1.377 . S
C1341 C1339 1.389 . S
C1341 C1342 1.524 . S
C1342 C1341 1.524 . S
C1342 C1343 1.397 . S
C1342 C1347 1.363 . S
C1343 H1314 0.950 . S
C1343 C1342 1.397 . S
C1343 C1344 1.334 . S
C1344 H1315 0.950 . S
C1344 C1343 1.334 . S
C1344 C1345 1.287 . S
C1345 C1344 1.287 . S
C1345 C1346 1.524 . S
C1345 H1348 0.999 . S
C1346 H1316 0.950 . S
C1346 C1345 1.524 . S
C1346 C1347 1.415 . S
C1347 H1317 0.950 . S
C1347 C1342 1.363 . S
C1347 C1346 1.415 . S
H1348 C1345 0.999 . S
H1349 C1330 0.913 . S
H1350 C1368 0.951 . S
H1351 C1370 0.951 . S
H1352 C1372 0.950 . S
H1353 C1373 0.950 . S
H1354 C1375 0.950 . S
H1355 C1378 0.950 . S
H1356 C1379 0.950 . S
H1357 C1381 0.950 . S
H1358 C1382 0.950 . S
H1359 C1383 0.951 . S
H1360 C1385 0.951 . S
H1361 C1387 0.950 . S
H1362 C1388 0.950 . S
H1363 C1390 0.950 . S
H1364 C1393 0.950 . S
H1365 C1394 0.950 . S
H1366 C1396 0.950 . S
H1367 C1397 0.950 . S
C1368 H1350 0.951 . S
C1368 C1369 1.366 . S
C1368 C1370 1.388 . S
C1369 C1368 1.366 . S
C1369 C1373 1.385 . S
C1370 H1351 0.951 . S
C1370 C1368 1.388 . S
C1370 C1371 1.366 . S
C1371 C1370 1.366 . S
C1371 C1372 1.414 . S
C1371 C1374 1.499 . S
C1372 H1352 0.950 . S
C1372 C1371 1.414 . S
C1372 C1373 1.374 . S
C1373 H1353 0.950 . S
C1373 C1369 1.385 . S
C1373 C1372 1.374 . S
C1374 C1371 1.499 . S
C1374 C1375 1.373 . S
C1374 C1376 1.389 . S
C1375 H1354 0.950 . S
C1375 C1374 1.373 . S
C1375 C1391 1.377 . S
C1376 C1374 1.389 . S
C1376 C1377 1.524 . S
C1376 C1390 1.377 . S
C1377 C1376 1.524 . S
C1377 C1378 1.397 . S
C1377 C1382 1.363 . S
C1378 H1355 0.950 . S
C1378 C1377 1.397 . S
C1378 C1379 1.334 . S
C1379 H1356 0.950 . S
C1379 C1378 1.334 . S
C1379 C1380 1.287 . S
C1380 C1379 1.287 . S
C1380 C1381 1.524 . S
C1380 H1399 0.913 . S
C1381 H1357 0.950 . S
C1381 C1380 1.524 . S
C1381 C1382 1.415 . S
C1382 H1358 0.950 . S
C1382 C1377 1.363 . S
C1382 C1381 1.415 . S
C1383 H1359 0.951 . S
C1383 C1384 1.366 . S
C1383 C1385 1.388 . S
C1384 C1383 1.366 . S
C1384 C1388 1.385 . S
C1385 H1360 0.951 . S
C1385 C1383 1.388 . S
C1385 C1386 1.366 . S
C1386 C1385 1.366 . S
C1386 C1387 1.414 . S
C1386 C1389 1.499 . S
C1387 H1361 0.950 . S
C1387 C1386 1.414 . S
C1387 C1388 1.374 . S
C1388 H1362 0.950 . S
C1388 C1384 1.385 . S
C1388 C1387 1.374 . S
C1389 C1386 1.499 . S
C1389 C1390 1.373 . S
C1389 C1391 1.389 . S
C1390 H1363 0.950 . S
C1390 C1376 1.377 . S
C1390 C1389 1.373 . S
C1391 C1375 1.377 . S
C1391 C1389 1.389 . S
C1391 C1392 1.524 . S
C1392 C1391 1.524 . S
C1392 C1393 1.397 . S
C1392 C1397 1.363 . S
C1393 H1364 0.950 . S
C1393 C1392 1.397 . S
C1393 C1394 1.334 . S
C1394 H1365 0.950 . S
C1394 C1393 1.334 . S
C1394 C1395 1.287 . S
C1395 C1394 1.287 . S
C1395 C1396 1.524 . S
C1395 H1398 0.999 . S
C1396 H1366 0.950 . S
C1396 C1395 1.524 . S
C1396 C1397 1.415 . S
C1397 H1367 0.950 . S
C1397 C1392 1.363 . S
C1397 C1396 1.415 . S
H1398 C1395 0.999 . S
H1399 C1380 0.913 . S
C219 C0 1.494 . S
C234 C91 1.490 . S
C269 C22 1.494 . S
C284 C131 1.494 . S
C319 C49 1.494 . S
C334 C98 1.494 . S
C369 C134 1.494 . S
C384 C19 1.490 . S
C419 C41 1.494 . S
C434 C50 1.499 . S
C469 C31 1.494 . S
C484 C122 1.494 . S
C519 C99 1.494 . S
C534 C48 1.494 . S
C569 C119 1.494 . S
C584 C34 1.499 . S
C619 C166 1.494 . S
C634 C17 1.490 . S
C669 C151 1.494 . S
C684 C18 1.494 . S
C719 C168 1.494 . S
C734 C1 1.494 . S
C769 C16 1.494 . S
C784 C167 1.499 . S
C819 C181 1.494 . S
C834 C72 1.499 . S
C869 C69 1.494 . S
C884 C184 1.494 . S
C919 C81 1.494 . S
C934 C172 1.490 . S
C969 C169 1.494 . S
C984 C84 1.494 . S
C1019 C116 1.494 . S
C1034 C67 1.494 . S
C1069 C68 1.494 . S
C1084 C101 1.490 . S
C1119 C51 1.494 . S
C1134 C118 1.499 . S
C1169 C117 1.494 . S
C1184 C66 1.494 . S
C1219 C191 1.494 . S
C1234 C100 1.494 . S
C1269 C149 1.494 . S
C1284 C198 1.499 . S
C1319 C150 1.494 . S
C1334 C141 1.494 . S
C1369 C148 1.494 . S
C1384 C199 1.490 . S
