# Generated by pormake.
# Topology lcs, (4)-cn, num edge types: 1
# Building blocks:
#     Node 0, Type 0, BuildingBlock: ICAMEG_clean_sbu_1, # of connection points: 4
#     Node 1, Type 0, BuildingBlock: ICAMEG_clean_sbu_1, # of connection points: 4
#     Node 2, Type 0, BuildingBlock: ICAMEG_clean_sbu_1, # of connection points: 4
#     Node 3, Type 0, BuildingBlock: ICAMEG_clean_sbu_1, # of connection points: 4
#     Node 4, Type 0, BuildingBlock: ICAMEG_clean_sbu_1, # of connection points: 4
#     Node 5, Type 0, BuildingBlock: ICAMEG_clean_sbu_1, # of connection points: 4
#     Node 6, Type 0, BuildingBlock: ICAMEG_clean_sbu_1, # of connection points: 4
#     Node 7, Type 0, BuildingBlock: ICAMEG_clean_sbu_1, # of connection points: 4
#     Node 8, Type 0, BuildingBlock: ICAMEG_clean_sbu_1, # of connection points: 4
#     Node 9, Type 0, BuildingBlock: ICAMEG_clean_sbu_1, # of connection points: 4
#     Node 10, Type 0, BuildingBlock: ICAMEG_clean_sbu_1, # of connection points: 4
#     Node 11, Type 0, BuildingBlock: ICAMEG_clean_sbu_1, # of connection points: 4
#     Node 12, Type 0, BuildingBlock: ICAMEG_clean_sbu_1, # of connection points: 4
#     Node 13, Type 0, BuildingBlock: ICAMEG_clean_sbu_1, # of connection points: 4
#     Node 14, Type 0, BuildingBlock: ICAMEG_clean_sbu_1, # of connection points: 4
#     Node 15, Type 0, BuildingBlock: ICAMEG_clean_sbu_1, # of connection points: 4
#     Node 16, Type 0, BuildingBlock: ICAMEG_clean_sbu_1, # of connection points: 4
#     Node 17, Type 0, BuildingBlock: ICAMEG_clean_sbu_1, # of connection points: 4
#     Node 18, Type 0, BuildingBlock: ICAMEG_clean_sbu_1, # of connection points: 4
#     Node 19, Type 0, BuildingBlock: ICAMEG_clean_sbu_1, # of connection points: 4
#     Node 20, Type 0, BuildingBlock: ICAMEG_clean_sbu_1, # of connection points: 4
#     Node 21, Type 0, BuildingBlock: ICAMEG_clean_sbu_1, # of connection points: 4
#     Node 22, Type 0, BuildingBlock: ICAMEG_clean_sbu_1, # of connection points: 4
#     Node 23, Type 0, BuildingBlock: ICAMEG_clean_sbu_1, # of connection points: 4
#     Edge 24, Type (0, 0), BuildingBlock: CIFDUS_clean_linker_0, # of connection points: 2
#     Edge 25, Type (0, 0), BuildingBlock: CIFDUS_clean_linker_0, # of connection points: 2
#     Edge 26, Type (0, 0), BuildingBlock: CIFDUS_clean_linker_0, # of connection points: 2
#     Edge 27, Type (0, 0), BuildingBlock: CIFDUS_clean_linker_0, # of connection points: 2
#     Edge 28, Type (0, 0), BuildingBlock: CIFDUS_clean_linker_0, # of connection points: 2
#     Edge 29, Type (0, 0), BuildingBlock: CIFDUS_clean_linker_0, # of connection points: 2
#     Edge 30, Type (0, 0), BuildingBlock: CIFDUS_clean_linker_0, # of connection points: 2
#     Edge 31, Type (0, 0), BuildingBlock: CIFDUS_clean_linker_0, # of connection points: 2
#     Edge 32, Type (0, 0), BuildingBlock: CIFDUS_clean_linker_0, # of connection points: 2
#     Edge 33, Type (0, 0), BuildingBlock: CIFDUS_clean_linker_0, # of connection points: 2
#     Edge 34, Type (0, 0), BuildingBlock: CIFDUS_clean_linker_0, # of connection points: 2
#     Edge 35, Type (0, 0), BuildingBlock: CIFDUS_clean_linker_0, # of connection points: 2
#     Edge 36, Type (0, 0), BuildingBlock: CIFDUS_clean_linker_0, # of connection points: 2
#     Edge 37, Type (0, 0), BuildingBlock: CIFDUS_clean_linker_0, # of connection points: 2
#     Edge 38, Type (0, 0), BuildingBlock: CIFDUS_clean_linker_0, # of connection points: 2
#     Edge 39, Type (0, 0), BuildingBlock: CIFDUS_clean_linker_0, # of connection points: 2
#     Edge 40, Type (0, 0), BuildingBlock: CIFDUS_clean_linker_0, # of connection points: 2
#     Edge 41, Type (0, 0), BuildingBlock: CIFDUS_clean_linker_0, # of connection points: 2
#     Edge 42, Type (0, 0), BuildingBlock: CIFDUS_clean_linker_0, # of connection points: 2
#     Edge 43, Type (0, 0), BuildingBlock: CIFDUS_clean_linker_0, # of connection points: 2
#     Edge 44, Type (0, 0), BuildingBlock: CIFDUS_clean_linker_0, # of connection points: 2
#     Edge 45, Type (0, 0), BuildingBlock: CIFDUS_clean_linker_0, # of connection points: 2
#     Edge 46, Type (0, 0), BuildingBlock: CIFDUS_clean_linker_0, # of connection points: 2
#     Edge 47, Type (0, 0), BuildingBlock: CIFDUS_clean_linker_0, # of connection points: 2
#     Edge 48, Type (0, 0), BuildingBlock: CIFDUS_clean_linker_0, # of connection points: 2
#     Edge 49, Type (0, 0), BuildingBlock: CIFDUS_clean_linker_0, # of connection points: 2
#     Edge 50, Type (0, 0), BuildingBlock: CIFDUS_clean_linker_0, # of connection points: 2
#     Edge 51, Type (0, 0), BuildingBlock: CIFDUS_clean_linker_0, # of connection points: 2
#     Edge 52, Type (0, 0), BuildingBlock: CIFDUS_clean_linker_0, # of connection points: 2
#     Edge 53, Type (0, 0), BuildingBlock: CIFDUS_clean_linker_0, # of connection points: 2
#     Edge 54, Type (0, 0), BuildingBlock: CIFDUS_clean_linker_0, # of connection points: 2
#     Edge 55, Type (0, 0), BuildingBlock: CIFDUS_clean_linker_0, # of connection points: 2
#     Edge 56, Type (0, 0), BuildingBlock: CIFDUS_clean_linker_0, # of connection points: 2
#     Edge 57, Type (0, 0), BuildingBlock: CIFDUS_clean_linker_0, # of connection points: 2
#     Edge 58, Type (0, 0), BuildingBlock: CIFDUS_clean_linker_0, # of connection points: 2
#     Edge 59, Type (0, 0), BuildingBlock: CIFDUS_clean_linker_0, # of connection points: 2
#     Edge 60, Type (0, 0), BuildingBlock: CIFDUS_clean_linker_0, # of connection points: 2
#     Edge 61, Type (0, 0), BuildingBlock: CIFDUS_clean_linker_0, # of connection points: 2
#     Edge 62, Type (0, 0), BuildingBlock: CIFDUS_clean_linker_0, # of connection points: 2
#     Edge 63, Type (0, 0), BuildingBlock: CIFDUS_clean_linker_0, # of connection points: 2
#     Edge 64, Type (0, 0), BuildingBlock: CIFDUS_clean_linker_0, # of connection points: 2
#     Edge 65, Type (0, 0), BuildingBlock: CIFDUS_clean_linker_0, # of connection points: 2
#     Edge 66, Type (0, 0), BuildingBlock: CIFDUS_clean_linker_0, # of connection points: 2
#     Edge 67, Type (0, 0), BuildingBlock: CIFDUS_clean_linker_0, # of connection points: 2
#     Edge 68, Type (0, 0), BuildingBlock: CIFDUS_clean_linker_0, # of connection points: 2
#     Edge 69, Type (0, 0), BuildingBlock: CIFDUS_clean_linker_0, # of connection points: 2
#     Edge 70, Type (0, 0), BuildingBlock: CIFDUS_clean_linker_0, # of connection points: 2
#     Edge 71, Type (0, 0), BuildingBlock: CIFDUS_clean_linker_0, # of connection points: 2
# Relax obj value: 0.039
# Max RMSD: 0.108
# Mean RMSD: 0.107
data_MOF--net-lcs--node1-ICAMEG_clean_sbu_1--edge1-CIFDUS_clean_linker_0
_symmetry_space_group_name_H-M    P1
_symmetry_Int_Tables_number       1
_symmetry_cell_setting            triclinic
loop_
_symmetry_equiv_pos_as_xyz
'x, y, z'
_cell_length_a     45.749797
_cell_length_b     45.7666
_cell_length_c     45.660901
_cell_angle_alpha  93.628656
_cell_angle_beta   93.526749
_cell_angle_gamma 93.510922
loop_
_atom_site_label
_atom_site_type_symbol
_atom_site_fract_x
_atom_site_fract_y
_atom_site_fract_z
_atom_type_partial_charge
Co0 Co 1.0056 0.24469 0.42618 0.0
Co1 Co 0.03922 0.26218 0.36357 0.0
O2 O 0.01605 0.27303 0.39719 0.0
C3 C 0.95341 0.28251 0.42004 0.0
O4 O 0.96519 0.29729 0.39957 0.0
C5 C 0.06061 0.32451 0.384 0.0
O6 O 0.05005 0.32115 0.40967 0.0
O7 O 0.071 0.24998 0.3911 0.0
O8 O 0.04452 0.22662 0.42333 0.0
H9 H 0.10183 0.196 0.3061 0.0
H10 H 1.00393 0.30917 0.44203 0.0
O11 O 0.96635 0.26146 0.43107 0.0
H12 H 0.0689 0.27214 0.51927 0.0
H13 H 0.96181 0.21097 0.51793 0.0
H14 H 1.01192 0.18094 0.42937 0.0
H15 H 0.04561 0.23862 0.47915 0.0
H16 H 0.97587 0.24724 0.48279 0.0
O17 O 0.05892 0.30317 0.36448 0.0
H18 H 0.07196 0.21033 0.34714 0.0
H19 H 0.05662 0.29114 0.3098 0.0
H20 H 0.99852 0.14401 0.46413 0.0
H21 H 0.02596 0.34328 0.48211 0.0
H22 H 0.97327 0.15895 0.50878 0.0
H23 H 0.05897 0.32495 0.5211 0.0
O24 O 0.98709 0.21705 0.39385 0.0
H25 H 0.96434 0.3298 0.32719 0.0
H26 H 1.00712 0.23459 0.30883 0.0
H27 H 0.96709 0.2487 0.27509 0.0
H28 H 0.94547 0.29667 0.28409 0.0
H29 H 1.00409 0.31465 0.3606 0.0
H30 H 0.08651 0.27777 0.26848 0.0
H31 H 0.10928 0.22984 0.26638 0.0
O32 O 0.02036 0.22106 0.36016 0.0
C33 C 0.06879 0.23275 0.41192 0.0
C34 C 0.09197 0.21691 0.30673 0.0
C35 C 0.0834 0.26282 0.28563 0.0
N36 N 0.06241 0.25146 0.33081 0.0
C37 C 0.07498 0.22512 0.32988 0.0
C38 C 0.06656 0.2703 0.30914 0.0
C39 C 0.09616 0.23592 0.28446 0.0
C40 C 0.01779 0.30074 0.45896 0.0
N41 N 0.02343 0.27174 0.45794 0.0
C42 C 0.03045 0.32031 0.48161 0.0
C43 C 0.04901 0.31004 0.50343 0.0
C44 C 0.05464 0.28045 0.50237 0.0
C45 C 0.04158 0.26156 0.47939 0.0
C46 C 0.97285 0.20419 0.49858 0.0
C47 C 1.00111 0.18765 0.44885 0.0
C48 C 0.98079 0.22462 0.47854 0.0
N49 N 0.99492 0.21626 0.45414 0.0
C50 C 0.99349 0.16662 0.46841 0.0
C51 C 0.9793 0.17502 0.49344 0.0
C52 C 0.99788 0.20808 0.37008 0.0
C53 C 0.97361 0.30886 0.323 0.0
C54 C 0.9977 0.2554 0.3131 0.0
C55 C 0.9751 0.26332 0.29381 0.0
C56 C 0.963 0.29025 0.29885 0.0
N57 N 1.00801 0.27377 0.33676 0.0
C58 C 0.99624 0.3002 0.34181 0.0
Co59 Co 0.02814 0.78596 0.59495 0.0
Co60 Co 0.03417 0.75483 0.66106 0.0
O61 O 1.01051 0.76572 0.6267 0.0
C62 C 0.9758 0.81999 0.60808 0.0
O63 O 0.98171 0.81726 0.63621 0.0
C64 C 1.01213 0.69268 0.66458 0.0
O65 O 0.03909 0.68523 0.66147 0.0
O66 O 0.05937 0.73234 0.63463 0.0
O67 O 0.06468 0.76347 0.59906 0.0
H68 H 0.12813 0.7381 0.71866 0.0
H69 H 0.96887 0.75599 0.5846 0.0
O70 O 0.99209 0.80891 0.58915 0.0
H71 H 0.02846 0.70971 0.51044 0.0
H72 H 0.02754 0.83021 0.49671 0.0
H73 H 0.0874 0.81283 0.58672 0.0
H74 H 0.05028 0.74948 0.54548 0.0
H75 H 1.00579 0.80369 0.53631 0.0
O76 O 1.00611 0.71941 0.66314 0.0
H77 H 0.09789 0.75278 0.67614 0.0
H78 H 0.02015 0.73196 0.7189 0.0
H79 H 0.1101 0.8392 0.54754 0.0
H80 H 0.94607 0.71645 0.54978 0.0
H81 H 0.0801 0.84805 0.50214 0.0
H82 H 0.97596 0.69302 0.51239 0.0
O83 O 0.04583 0.81733 0.62391 0.0
H84 H 0.93837 0.7863 0.69672 0.0
H85 H 0.04614 0.79991 0.71138 0.0
H86 H 0.01542 0.82899 0.74302 0.0
H87 H 0.96111 0.82218 0.73589 0.0
H88 H 0.9699 0.75807 0.66516 0.0
H89 H 0.04955 0.71698 0.76183 0.0
H90 H 0.10395 0.72004 0.76191 0.0
O91 O 0.06197 0.79057 0.66031 0.0
C92 C 0.07245 0.74125 0.61258 0.0
C93 C 0.10444 0.73669 0.7189 0.0
C94 C 0.06035 0.72483 0.74313 0.0
N95 N 0.0573 0.74329 0.69504 0.0
C96 C 0.08721 0.74499 0.69489 0.0
C97 C 0.04382 0.73333 0.71874 0.0
C98 C 0.09086 0.72655 0.74316 0.0
C99 C 0.98194 0.74601 0.56826 0.0
N100 N 1.0108 0.75513 0.56697 0.0
C101 C 0.96895 0.72359 0.54866 0.0
C102 C 0.98574 0.71043 0.5277 0.0
C103 C 0.0152 0.71977 0.52661 0.0
C104 C 0.02745 0.74225 0.54656 0.0
C105 C 0.04085 0.82644 0.51636 0.0
C106 C 0.07425 0.81644 0.56695 0.0
C107 C 0.02864 0.8115 0.53889 0.0
N108 N 0.04538 0.80652 0.5637 0.0
C109 C 0.0872 0.83146 0.54488 0.0
C110 C 0.07035 0.83644 0.51942 0.0
C111 C 0.06139 0.81465 0.64762 0.0
C112 C 0.96201 0.7894 0.7001 0.0
C113 C 0.02253 0.797 0.7079 0.0
C114 C 1.00524 0.81343 0.72602 0.0
C115 C 0.97478 0.80957 0.72203 0.0
N116 N 1.00986 0.77725 0.6864 0.0
C117 C 0.97999 0.77335 0.6824 0.0
Co118 Co 0.49587 0.74801 0.93014 0.0
Co119 Co 0.53408 0.75212 0.86855 0.0
O120 O 0.51204 0.77101 0.89931 0.0
C121 C 0.44633 0.78516 0.91349 0.0
O122 O 0.4498 0.77912 0.88547 0.0
C123 C 0.56295 0.81361 0.88092 0.0
O124 O 0.54844 0.8176 0.90456 0.0
O125 O 0.56199 0.73863 0.89959 0.0
O126 O 0.529 0.72122 0.92931 0.0
H127 H 0.58579 0.66872 0.82277 0.0
H128 H 0.50467 0.81252 0.94176 0.0
O129 O 0.46256 0.77423 0.93303 0.0
H130 H 0.56458 0.77097 0.02039 0.0
H131 H 0.44675 0.73371 0.02446 0.0
H132 H 0.48703 0.68437 0.93812 0.0
H133 H 0.53518 0.73857 0.98306 0.0
H134 H 0.46852 0.76263 0.98658 0.0
O135 O 0.56036 0.78899 0.86592 0.0
H136 H 0.55744 0.69344 0.86015 0.0
H137 H 0.55883 0.7705 0.8129 0.0
H138 H 0.46568 0.6546 0.97562 0.0
H139 H 0.53337 0.8458 0.97896 0.0
H140 H 0.44534 0.67928 0.01918 0.0
H141 H 0.56374 0.82505 0.01855 0.0
O142 O 0.47288 0.72186 0.8994 0.0
H143 H 0.47122 0.82533 0.82198 0.0
H144 H 0.50213 0.72401 0.81396 0.0
H145 H 0.46664 0.74002 0.77649 0.0
H146 H 0.45104 0.79108 0.78024 0.0
H147 H 0.50624 0.80828 0.85919 0.0
H148 H 0.58745 0.74671 0.7752 0.0
H149 H 0.60099 0.69541 0.77992 0.0
O150 O 0.50843 0.71458 0.86866 0.0
C151 C 0.55512 0.72349 0.921 0.0
C152 C 0.57996 0.69106 0.82043 0.0
C153 C 0.58093 0.73485 0.79376 0.0
N154 N 0.55633 0.73331 0.83865 0.0
C155 C 0.56386 0.70515 0.8415 0.0
C156 C 0.5648 0.74823 0.81524 0.0
C157 C 0.58851 0.70605 0.79641 0.0
C158 C 0.51776 0.80332 0.95896 0.0
N159 N 0.51855 0.77361 0.95994 0.0
C160 C 0.534 0.82227 0.97995 0.0
C161 C 0.55105 0.81062 1.00214 0.0
C162 C 0.55157 0.7803 1.00315 0.0
C163 C 0.53505 0.76203 0.98179 0.0
C164 C 0.45556 0.7227 1.00559 0.0
C165 C 0.47833 0.69528 0.95706 0.0
C166 C 0.46784 0.73896 0.98401 0.0
N167 N 0.47916 0.72521 0.96019 0.0
C168 C 0.46622 0.6783 0.9782 0.0
C169 C 0.45479 0.69216 1.00262 0.0
C170 C 0.48319 0.70771 0.8778 0.0
C171 C 0.47799 0.80308 0.81998 0.0
C172 C 0.49544 0.74623 0.81586 0.0
C173 C 0.47535 0.75519 0.7945 0.0
C174 C 0.46663 0.78384 0.79661 0.0
N175 N 0.50668 0.76527 0.83864 0.0
C176 C 0.49804 0.79334 0.84092 0.0
Co177 Co 0.5309 0.28363 0.10234 0.0
Co178 Co 0.54101 0.25368 0.16901 0.0
O179 O 0.51514 0.26367 0.13557 0.0
C180 C 0.47772 0.31627 0.11607 0.0
O181 O 0.4829 0.31275 0.14415 0.0
C182 C 0.49299 0.20385 0.16077 0.0
O183 O 0.47879 0.21627 0.13957 0.0
O184 O 0.5654 0.23182 0.1416 0.0
O185 O 0.56827 0.26234 0.10538 0.0
H186 H 0.63919 0.24318 0.22156 0.0
H187 H 0.47179 0.25307 0.09392 0.0
O188 O 0.49435 0.30571 0.09723 0.0
H189 H 0.53015 0.20506 0.01977 0.0
H190 H 0.52514 0.32484 1.00258 0.0
H191 H 0.58884 0.3119 0.09131 0.0
H192 H 0.55226 0.246 0.05317 0.0
H193 H 0.5058 0.29897 0.04377 0.0
O194 O 0.51688 0.21581 0.17327 0.0
H195 H 0.60559 0.2563 0.18085 0.0
H196 H 0.532 0.22852 0.22685 0.0
H197 H 0.60916 0.33768 0.0505 0.0
H198 H 0.44869 0.21236 0.06076 0.0
H199 H 0.57722 0.34429 1.00574 0.0
H200 H 0.47798 0.18801 0.0234 0.0
O201 O 0.54863 0.31616 0.12992 0.0
H202 H 0.44688 0.28487 0.21021 0.0
H203 H 0.55486 0.29731 0.21979 0.0
H204 H 0.52609 0.32542 0.25413 0.0
H205 H 0.47166 0.31917 0.24964 0.0
H206 H 0.47637 0.25778 0.17602 0.0
H207 H 0.56483 0.21485 0.26793 0.0
H208 H 0.61884 0.22229 0.2655 0.0
O209 O 0.56653 0.29083 0.16664 0.0
C210 C 0.57708 0.2405 0.11879 0.0
C211 C 0.6157 0.23992 0.22292 0.0
C212 C 0.57396 0.22398 0.24893 0.0
N213 N 0.56687 0.24341 0.20156 0.0
C214 C 0.59656 0.24739 0.19997 0.0
C215 C 0.55549 0.23169 0.22556 0.0
C216 C 0.60426 0.22817 0.24755 0.0
C217 C 0.48462 0.24266 0.07765 0.0
N218 N 0.51334 0.25184 0.07558 0.0
C219 C 0.47145 0.21958 0.05896 0.0
C220 C 0.4879 0.20591 0.03802 0.0
C221 C 0.51718 0.21545 0.036 0.0
C222 C 0.52961 0.23857 0.05507 0.0
C223 C 0.5393 0.32204 0.02194 0.0
C224 C 0.57485 0.31454 0.07183 0.0
C225 C 0.52845 0.30746 0.04537 0.0
N226 N 0.54625 0.30372 0.06983 0.0
C227 C 0.58646 0.32922 0.04883 0.0
C228 C 0.56852 0.33295 0.02373 0.0
C229 C 0.5647 0.31454 0.15348 0.0
C230 C 0.47059 0.28756 0.2126 0.0
C231 C 0.53119 0.29439 0.21756 0.0
C232 C 0.51501 0.3104 0.23716 0.0
C233 C 0.48449 0.30687 0.23465 0.0
N234 N 0.51745 0.27522 0.19609 0.0
C235 C 0.48751 0.27192 0.1934 0.0
Co236 Co 0.03658 0.73976 0.12333 0.0
Co237 Co 1.0004 0.75968 0.18426 0.0
O238 O 0.02482 0.77002 0.15199 0.0
C239 C 0.08688 0.78701 0.13039 0.0
O240 O 0.07295 0.80291 0.1492 0.0
C241 C 0.97466 0.81295 0.161 0.0
O242 O 0.98036 0.80343 0.13442 0.0
O243 O 0.96973 0.74127 0.15505 0.0
O244 O 0.99787 0.71634 0.12515 0.0
H245 H 0.93473 0.69192 0.23738 0.0
H246 H 0.03611 0.80265 0.10725 0.0
O247 O 0.07584 0.76199 0.11965 0.0
H248 H 0.97401 0.7454 0.0295 0.0
H249 H 0.08369 0.70163 0.03286 0.0
H250 H 0.0318 0.67473 0.11977 0.0
H251 H 0.99727 0.72084 0.07038 0.0
H252 H 0.06772 0.73995 0.06767 0.0
O253 O 0.98109 0.79817 0.18296 0.0
H254 H 0.96644 0.7056 0.19798 0.0
H255 H 0.98099 0.79215 0.23771 0.0
H256 H 0.04717 0.63573 0.08538 0.0
H257 H 0.014 0.82786 0.06648 0.0
H258 H 0.07331 0.64909 0.04155 0.0
H259 H 0.98247 0.79929 0.02716 0.0
O260 O 0.05449 0.71848 0.15606 0.0
H261 H 0.07335 0.84074 0.22523 0.0
H262 H 0.03086 0.74138 0.23932 0.0
H263 H 0.06974 0.7641 0.27479 0.0
H264 H 0.09123 0.81417 0.26791 0.0
H265 H 0.03461 0.81706 0.19011 0.0
H266 H 0.94927 0.77946 0.2774 0.0
H267 H 0.92598 0.72899 0.27746 0.0
O268 O 0.01894 0.72087 0.18749 0.0
C269 C 0.97281 0.72183 0.1344 0.0
C270 C 0.94483 0.71395 0.23764 0.0
C271 C 0.95296 0.7631 0.26009 0.0
N272 N 0.97574 0.74956 0.21567 0.0
C273 C 0.96286 0.72181 0.21544 0.0
C274 C 0.97086 0.77017 0.23752 0.0
C275 C 0.93991 0.73478 0.26011 0.0
C276 C 0.02324 0.78978 0.09006 0.0
N277 N 0.01875 0.76008 0.09115 0.0
C278 C 1.01038 0.80431 0.06707 0.0
C279 C 0.99262 0.78831 0.04508 0.0
C280 C 0.98785 0.75809 0.04639 0.0
C281 C 1.00109 0.74431 0.0697 0.0
C282 C 0.07228 0.69553 0.05186 0.0
C283 C 0.04303 0.68073 0.10067 0.0
C284 C 0.06327 0.71713 0.07171 0.0
N285 N 0.04868 0.70959 0.09566 0.0
C286 C 0.05174 0.65854 0.08131 0.0
C287 C 0.06644 0.66606 0.05674 0.0
C288 C 0.04194 0.70963 0.17838 0.0
C289 C 0.06419 0.8189 0.22846 0.0
C290 C 0.04028 0.76306 0.23599 0.0
C291 C 0.0622 0.77587 0.25624 0.0
C292 C 0.07422 0.80398 0.25238 0.0
N293 N 0.03059 0.77782 0.21253 0.0
C294 C 0.04222 0.8054 0.20866 0.0
Co295 Co 0.52407 0.74406 0.41321 0.0
Co296 Co 0.52643 0.78106 0.35009 0.0
O297 O 0.50522 0.76663 0.38285 0.0
C298 C 0.4658 0.71224 0.39629 0.0
O299 O 0.46959 0.71739 0.36881 0.0
C300 C 0.49422 0.83358 0.37021 0.0
O301 O 0.4995 0.82861 0.39798 0.0
O302 O 0.55685 0.80163 0.37853 0.0
O303 O 0.56216 0.76856 0.41243 0.0
H304 H 0.61686 0.80306 0.29624 0.0
H305 H 0.46824 0.77163 0.42366 0.0
O306 O 0.48614 0.71974 0.41612 0.0
H307 H 0.53833 0.81313 0.50412 0.0
H308 H 0.52816 0.69133 0.50681 0.0
H309 H 0.58197 0.71903 0.42135 0.0
H310 H 0.55347 0.7768 0.46683 0.0
H311 H 0.50517 0.72037 0.46906 0.0
O312 O 0.50372 0.817 0.35001 0.0
H313 H 0.5889 0.78419 0.3363 0.0
H314 H 0.50964 0.80972 0.29494 0.0
H315 H 0.60588 0.69018 0.45872 0.0
H316 H 0.45201 0.80755 0.46075 0.0
H317 H 0.57892 0.67615 0.50184 0.0
H318 H 0.4872 0.82867 0.50129 0.0
O319 O 0.53695 0.71525 0.38237 0.0
H320 H 0.42245 0.75292 0.31217 0.0
H321 H 0.52655 0.74215 0.29478 0.0
H322 H 0.48834 0.71629 0.26063 0.0
H323 H 0.43578 0.72171 0.26915 0.0
H324 H 0.46148 0.77779 0.34614 0.0
H325 H 0.53677 0.82916 0.25461 0.0
H326 H 0.59078 0.82577 0.25502 0.0
O327 O 0.54959 0.74538 0.34778 0.0
C328 C 0.57053 0.79217 0.40089 0.0
C329 C 0.59333 0.80463 0.29578 0.0
C330 C 0.54839 0.81931 0.27244 0.0
N331 N 0.54765 0.79578 0.31795 0.0
C332 C 0.57737 0.79393 0.31838 0.0
C333 C 0.53315 0.80838 0.29542 0.0
C334 C 0.57869 0.81739 0.27268 0.0
C335 C 0.48363 0.78048 0.44137 0.0
N336 N 0.5118 0.77207 0.44304 0.0
C337 C 0.47433 0.80092 0.46226 0.0
C338 C 0.4941 0.81279 0.48497 0.0
C339 C 0.52279 0.80411 0.48655 0.0
C340 C 0.5313 0.78362 0.46527 0.0
C341 C 0.54015 0.69734 0.48814 0.0
C342 C 0.57016 0.71313 0.44012 0.0
C343 C 0.52721 0.71371 0.46664 0.0
N344 N 0.54229 0.72152 0.44309 0.0
C345 C 0.58378 0.69674 0.46118 0.0
C346 C 0.56863 0.68884 0.48535 0.0
C347 C 0.5496 0.7205 0.35888 0.0
C348 C 0.44527 0.75034 0.30823 0.0
C349 C 0.50384 0.74413 0.29898 0.0
C350 C 0.48224 0.72967 0.27939 0.0
C351 C 0.45276 0.73279 0.28414 0.0
N352 N 0.49636 0.76113 0.32269 0.0
C353 C 0.46749 0.76447 0.32733 0.0
Co354 Co 0.53532 0.24073 0.60901 0.0
Co355 Co 0.50584 0.25382 0.67549 0.0
O356 O 0.52636 0.26738 0.64198 0.0
C357 C 0.59299 0.27394 0.62432 0.0
O358 O 0.59164 0.26625 0.65146 0.0
C359 C 0.47415 0.30509 0.6567 0.0
O360 O 0.47603 0.2948 0.62947 0.0
O361 O 0.47321 0.23511 0.64846 0.0
O362 O 0.4977 0.21609 0.6115 0.0
H363 H 0.4506 0.17965 0.73123 0.0
H364 H 0.53709 0.30468 0.60121 0.0
O365 O 0.57267 0.26514 0.6049 0.0
H366 H 0.46313 0.2601 0.52575 0.0
H367 H 0.57337 0.21606 0.50987 0.0
H368 H 0.53132 0.17616 0.59707 0.0
H369 H 0.48964 0.22918 0.55929 0.0
H370 H 0.56063 0.2492 0.5512 0.0
O371 O 0.48461 0.2913 0.67796 0.0
H372 H 0.4771 0.19714 0.68956 0.0
H373 H 0.48978 0.28256 0.73223 0.0
H374 H 0.54354 0.14223 0.55613 0.0
H375 H 0.51144 0.33636 0.56778 0.0
H376 H 0.56472 0.16215 0.51213 0.0
H377 H 0.47404 0.3141 0.5298 0.0
O378 O 0.55609 0.21559 0.63664 0.0
H379 H 0.57942 0.33595 0.7122 0.0
H380 H 0.54208 0.23486 0.72669 0.0
H381 H 0.58343 0.25773 0.75909 0.0
H382 H 0.60233 0.30867 0.75198 0.0
H383 H 0.53825 0.31213 0.68013 0.0
H384 H 0.46319 0.26609 0.77425 0.0
H385 H 0.44351 0.21426 0.77397 0.0
O386 O 0.5269 0.21616 0.67442 0.0
C387 C 0.47426 0.21856 0.62505 0.0
C388 C 0.45915 0.20227 0.73165 0.0
C389 C 0.46618 0.25079 0.75578 0.0
N390 N 0.48516 0.24075 0.70859 0.0
C391 C 0.47424 0.21227 0.70816 0.0
C392 C 0.48116 0.26001 0.7319 0.0
C393 C 0.45516 0.2217 0.75561 0.0
C394 C 0.52112 0.29478 0.58451 0.0
N395 N 0.51492 0.26509 0.58222 0.0
C396 C 0.50655 0.31285 0.56574 0.0
C397 C 0.48553 0.30035 0.54448 0.0
C398 C 0.47937 0.27006 0.54222 0.0
C399 C 0.49436 0.25267 0.56138 0.0
C400 C 0.5641 0.20711 0.5289 0.0
C401 C 0.54038 0.18499 0.57792 0.0
C402 C 0.55689 0.22576 0.5524 0.0
N403 N 0.54502 0.21462 0.57642 0.0
C404 C 0.54733 0.16567 0.55485 0.0
C405 C 0.55923 0.17687 0.53018 0.0
C406 C 0.5479 0.20572 0.6606 0.0
C407 C 0.57132 0.31377 0.71557 0.0
C408 C 0.55023 0.257 0.7234 0.0
C409 C 0.57361 0.26986 0.74186 0.0
C410 C 0.58419 0.29844 0.73786 0.0
N411 N 0.53767 0.27221 0.70163 0.0
C412 C 0.54795 0.30022 0.69755 0.0
Co413 Co 0.026 0.23928 0.92534 0.0
Co414 Co 0.04039 0.27985 0.86709 0.0
O415 O 1.01262 0.26417 0.89421 0.0
C416 C 0.96659 0.21297 0.90226 0.0
O417 O 0.97142 0.22195 0.8762 0.0
C418 C 0.99622 0.32642 0.87524 0.0
O419 O 0.98118 0.31101 0.89312 0.0
O420 O 0.06479 0.2989 0.90113 0.0
O421 O 0.06595 0.26118 0.92992 0.0
H422 H 0.14135 0.30299 0.83366 0.0
H423 H 0.97104 0.26964 0.93173 0.0
O424 O 0.98643 0.21699 0.92318 0.0
H425 H 0.03518 0.30405 0.01937 0.0
H426 H 0.01556 0.18242 0.01549 0.0
H427 H 0.08066 0.20956 0.93804 0.0
H428 H 0.05185 0.26827 0.98243 0.0
H429 H 0.99918 0.21468 0.97733 0.0
O430 O 0.01905 0.31682 0.86425 0.0
H431 H 0.10526 0.28241 0.86598 0.0
H432 H 0.03545 0.31236 0.81247 0.0
H433 H 0.09801 0.17744 0.97595 0.0
H434 H 0.95334 0.30518 0.96828 0.0
H435 H 0.06536 0.16367 0.01503 0.0
H436 H 0.98554 0.32272 1.01247 0.0
O437 O 0.03982 0.21121 0.89473 0.0
H438 H 0.94613 0.25153 0.80577 0.0
H439 H 0.05313 0.24296 0.81392 0.0
H440 H 0.02374 0.21834 0.77145 0.0
H441 H 0.96983 0.22267 0.76701 0.0
H442 H 0.97616 0.27514 0.84815 0.0
H443 H 0.07083 0.33346 0.77969 0.0
H444 H 0.1242 0.32873 0.79014 0.0
O445 O 0.0634 0.24388 0.86853 0.0
C446 C 0.07596 0.28629 0.92281 0.0
C447 C 0.11815 0.3051 0.82882 0.0
C448 C 0.07857 0.32224 0.79855 0.0
N449 N 0.06826 0.29595 0.84101 0.0
C450 C 0.09759 0.29342 0.847 0.0
C451 C 0.05865 0.3103 0.81723 0.0
C452 C 0.10851 0.31957 0.80442 0.0
C453 C 0.98515 0.27705 0.95092 0.0
N454 N 1.01251 0.26694 0.95481 0.0
C455 C 0.97502 0.29723 0.97154 0.0
C456 C 0.9931 0.30707 0.99631 0.0
C457 C 0.02096 0.29663 1.00018 0.0
C458 C 0.03034 0.27646 0.97909 0.0
C459 C 0.03001 0.18829 0.99859 0.0
C460 C 0.06637 0.20377 0.95505 0.0
C461 C 0.02083 0.20649 0.97687 0.0
N462 N 0.03902 0.21414 0.95555 0.0
C463 C 0.0763 0.18553 0.97642 0.0
C464 C 0.05795 0.17779 0.99833 0.0
C465 C 0.05808 0.21769 0.87573 0.0
C466 C 0.96963 0.24964 0.80733 0.0
C467 C 0.02966 0.24487 0.81236 0.0
C468 C 0.01315 0.23092 0.78814 0.0
C469 C 0.98292 0.23339 0.78564 0.0
N470 N 0.01652 0.2609 0.83357 0.0
C471 C 0.98686 0.26327 0.83126 0.0
Co472 Co 0.35611 0.04248 0.26212 0.0
Co473 Co 0.42349 0.01349 0.25439 0.0
O474 O 0.39042 0.02305 0.27789 0.0
C475 C 0.37531 0.07595 0.31886 0.0
O476 O 0.40254 0.07395 0.3119 0.0
C477 C 0.41493 0.96205 0.29315 0.0
O478 O 0.39331 0.97353 0.30646 0.0
O479 O 0.39591 0.99271 0.22335 0.0
O480 O 0.35635 0.01937 0.22314 0.0
H481 H 0.47558 1.00581 0.16077 0.0
H482 H 0.3523 0.01435 0.31871 0.0
O483 O 0.3542 0.06563 0.30096 0.0
H484 H 0.27353 0.96373 0.25224 0.0
H485 H 0.25703 0.0841 0.26737 0.0
H486 H 0.33992 0.06757 0.20555 0.0
H487 H 0.30532 1.00374 0.23516 0.0
H488 H 0.2999 0.05925 0.28638 0.0
O489 O 0.4275 0.97511 0.273 0.0
H490 H 0.4352 0.01828 0.19173 0.0
H491 H 0.48089 0.98701 0.26607 0.0
H492 H 0.29736 0.09229 0.18558 0.0
H493 H 0.32074 0.97471 0.33682 0.0
H494 H 0.25552 0.1007 0.21658 0.0
H495 H 0.28108 0.94901 0.30345 0.0
O496 O 0.38197 0.07456 0.24772 0.0
H497 H 0.4636 0.04096 0.35862 0.0
H498 H 0.47571 0.05563 0.25403 0.0
H499 H 0.50995 0.08209 0.29171 0.0
H500 H 0.50418 0.07468 0.34451 0.0
H501 H 0.42952 0.01562 0.32034 0.0
H502 H 0.52158 0.9739 0.23584 0.0
H503 H 0.51916 0.98344 0.18282 0.0
O504 O 0.42137 0.05125 0.23458 0.0
C505 C 0.37109 0.99907 0.21205 0.0
C506 C 0.47694 1.00165 0.18387 0.0
C507 C 0.50274 0.98369 0.22599 0.0
N508 N 0.45579 1.00365 0.23073 0.0
C509 C 0.4542 1.00876 0.20153 0.0
C510 C 0.47958 0.99109 0.24297 0.0
C511 C 0.50137 0.98907 0.19625 0.0
C512 C 0.33498 1.00343 0.3041 0.0
N513 N 0.33077 1.01133 0.27587 0.0
C514 C 0.31723 0.98092 0.31446 0.0
C515 C 0.295 0.96649 0.29572 0.0
C516 C 0.29078 0.97471 0.26697 0.0
C517 C 0.30897 0.9973 0.25738 0.0
C518 C 0.2751 0.08053 0.25364 0.0
C519 C 0.32173 0.07101 0.21912 0.0
C520 C 0.29948 0.06654 0.26431 0.0
N521 N 0.32231 0.06181 0.24702 0.0
C522 C 0.29772 0.08509 0.20772 0.0
C523 C 0.27427 0.08982 0.22513 0.0
C524 C 0.40608 0.07367 0.23512 0.0
C525 C 0.46651 0.0442 0.33568 0.0
C526 C 0.47283 0.05242 0.27688 0.0
C527 C 0.49242 0.06738 0.29817 0.0
C528 C 0.4892 0.06319 0.32777 0.0
N529 N 0.45066 0.03366 0.28473 0.0
C530 C 0.44737 0.02958 0.31377 0.0
Co531 Co 0.25066 0.16625 0.54362 0.0
Co532 Co 0.28521 0.10405 0.52418 0.0
O533 O 0.26134 0.13661 0.51382 0.0
C534 C 0.199 0.15754 0.49792 0.0
O535 O 0.2125 0.13824 0.48221 0.0
C536 C 0.31132 0.12713 0.47124 0.0
O537 O 0.30717 0.15373 0.48186 0.0
O538 O 0.31656 0.13257 0.54232 0.0
O539 O 0.28994 0.16481 0.5662 0.0
H540 H 0.35027 0.04997 0.59171 0.0
H541 H 0.24917 0.18 0.47988 0.0
O542 O 0.21084 0.16942 0.52223 0.0
H543 H 0.31361 0.2586 0.53293 0.0
H544 H 0.20536 0.25819 0.58018 0.0
H545 H 0.25728 0.172 0.60873 0.0
H546 H 0.29086 0.21911 0.55972 0.0
H547 H 0.21995 0.22198 0.5424 0.0
O548 O 0.30409 0.10499 0.48541 0.0
H549 H 0.3192 0.08985 0.57819 0.0
H550 H 0.30345 0.05028 0.49152 0.0
H551 H 0.2433 0.20779 0.64722 0.0
H552 H 0.27079 0.21934 0.45247 0.0
H553 H 0.21715 0.25126 0.63302 0.0
H554 H 0.30347 0.25907 0.47891 0.0
O555 O 0.23317 0.13468 0.56653 0.0
H556 H 0.21147 0.06368 0.44336 0.0
H557 H 0.25375 0.04996 0.54311 0.0
H558 H 0.21422 0.01509 0.52077 0.0
H559 H 0.19283 0.02179 0.4705 0.0
H560 H 0.25084 0.09824 0.46668 0.0
H561 H 0.33452 1.01009 0.50404 0.0
H562 H 0.35808 1.00971 0.55449 0.0
O563 O 0.26697 0.10145 0.56321 0.0
C564 C 0.31443 0.15404 0.56109 0.0
C565 C 0.34004 0.04983 0.56968 0.0
C566 C 0.33123 0.02747 0.52047 0.0
N567 N 0.30933 0.07226 0.53419 0.0
C568 C 0.32236 0.07231 0.56192 0.0
C569 C 0.3137 0.05031 0.5135 0.0
C570 C 0.34444 0.02727 0.54878 0.0
C571 C 0.26258 0.1974 0.49185 0.0
N572 N 0.26801 0.19734 0.52161 0.0
C573 C 0.27514 0.21957 0.47606 0.0
C574 C 0.29355 0.24179 0.49088 0.0
C575 C 0.29926 0.24152 0.52116 0.0
C576 C 0.28631 0.219 0.53621 0.0
C577 C 0.21679 0.23935 0.58665 0.0
C578 C 0.24605 0.19094 0.60238 0.0
C579 C 0.22503 0.21873 0.56535 0.0
N580 N 0.23963 0.19499 0.57335 0.0
C581 C 0.23812 0.21109 0.62427 0.0
C582 C 0.22342 0.23546 0.61629 0.0
C583 C 0.24485 0.11183 0.5751 0.0
C584 C 0.22058 0.06055 0.4653 0.0
C585 C 0.24436 0.05325 0.52137 0.0
C586 C 0.22208 0.03331 0.50876 0.0
C587 C 0.21011 0.03706 0.48054 0.0
N588 N 0.25444 0.0763 0.50631 0.0
C589 C 0.2429 0.08003 0.4786 0.0
Co590 Co 0.17591 1.00244 0.75614 0.0
Co591 Co 0.10917 0.02887 0.7399 0.0
O592 O 0.14051 0.02034 0.76859 0.0
C593 C 0.15692 0.96845 0.80592 0.0
O594 O 0.12993 0.96871 0.79454 0.0
C595 C 0.11615 0.08396 0.7795 0.0
O596 O 0.14436 0.08614 0.7755 0.0
O597 O 0.13775 0.05373 0.71954 0.0
O598 O 0.17527 0.0244 0.71894 0.0
H599 H 0.06493 0.04188 0.63846 0.0
H600 H 0.17626 0.03341 0.81511 0.0
O601 O 0.17809 0.98048 0.79316 0.0
H602 H 0.25541 0.08428 0.76545 0.0
H603 H 0.27673 0.9654 0.77168 0.0
H604 H 0.19397 0.97626 0.69961 0.0
H605 H 0.2261 0.04196 0.74029 0.0
H606 H 0.23247 0.98893 0.78688 0.0
O607 O 0.09969 0.06322 0.76623 0.0
H608 H 0.10362 0.0299 0.67492 0.0
H609 H 0.04844 0.0485 0.74433 0.0
H610 H 0.23792 0.95285 0.68339 0.0
H611 H 0.2052 0.07551 0.84118 0.0
H612 H 0.2797 0.9473 0.71957 0.0
H613 H 0.24507 0.10128 0.81629 0.0
O614 O 0.15121 0.96905 0.73559 0.0
H615 H 0.06062 0.993 0.82794 0.0
H616 H 0.06379 0.98072 0.72014 0.0
H617 H 0.02931 0.94886 0.74517 0.0
H618 H 0.02747 0.95496 0.79945 0.0
H619 H 0.09521 0.02401 0.80211 0.0
H620 H 1.00923 0.06088 0.70861 0.0
H621 H 0.01731 0.05749 0.65523 0.0
O622 O 0.11684 0.99406 0.71305 0.0
C623 C 0.16184 0.04611 0.70956 0.0
C624 C 0.06111 0.04336 0.66165 0.0
C625 C 0.02986 0.05406 0.70102 0.0
N626 N 0.07824 0.03828 0.71171 0.0
C627 C 0.08292 0.03654 0.6824 0.0
C628 C 0.05218 0.04708 0.72115 0.0
C629 C 0.03441 0.05214 0.67108 0.0
C630 C 0.19374 0.04436 0.80424 0.0
N631 N 0.19959 0.03513 0.77629 0.0
C632 C 0.20998 0.06825 0.81906 0.0
C633 C 0.23232 0.08273 0.80507 0.0
C634 C 0.23812 0.07321 0.77654 0.0
C635 C 0.22141 0.04926 0.76238 0.0
C636 C 0.25869 0.96773 0.75571 0.0
C637 C 0.21213 0.97406 0.71543 0.0
C638 C 0.23354 0.98096 0.7642 0.0
N639 N 0.21076 0.98414 0.74409 0.0
C640 C 0.23693 0.96072 0.70614 0.0
C641 C 0.26035 0.95759 0.72646 0.0
C642 C 0.12985 0.97051 0.71655 0.0
C643 C 0.06116 0.99017 0.80427 0.0
C644 C 0.06336 0.98335 0.7438 0.0
C645 C 0.04366 0.96533 0.75783 0.0
C646 C 0.04261 0.9688 0.78828 0.0
N647 N 0.08157 1.00421 0.75964 0.0
C648 C 0.08059 1.00779 0.78949 0.0
Co649 Co 0.27338 0.86343 0.03301 0.0
Co650 Co 0.23649 0.92432 0.01684 0.0
O651 O 0.26084 0.89199 1.00512 0.0
C652 C 0.32431 0.87193 0.99363 0.0
O653 O 0.31093 0.89115 0.97844 0.0
C654 C 0.21289 0.90225 0.95576 0.0
O655 O 0.22187 0.87621 0.96036 0.0
O656 O 0.20623 0.89554 0.02974 0.0
O657 O 0.2348 0.86431 0.05206 0.0
H658 H 0.17314 0.97863 0.08491 0.0
H659 H 0.27371 0.8484 0.96803 0.0
O660 O 0.31249 0.86068 0.01526 0.0
H661 H 0.21386 0.76814 1.00636 0.0
H662 H 0.32263 0.77406 0.06497 0.0
H663 H 0.26881 0.85928 0.09707 0.0
H664 H 0.23602 0.80896 0.03967 0.0
H665 H 0.30586 0.80865 0.02925 0.0
O666 O 0.21605 0.92275 0.97615 0.0
H667 H 0.2044 0.93911 0.0697 0.0
H668 H 0.21602 0.97715 0.98838 0.0
H669 H 0.28492 0.82502 0.13346 0.0
H670 H 0.25281 0.80768 0.93414 0.0
H671 H 0.31204 0.78205 0.11748 0.0
H672 H 0.22238 0.76715 0.95312 0.0
O673 O 0.29101 0.89614 0.06069 0.0
H674 H 0.30783 0.96389 0.9473 0.0
H675 H 0.26717 0.97986 0.04411 0.0
H676 H 0.30545 0.01504 0.02914 0.0
H677 H 0.32601 1.00723 0.98036 0.0
H678 H 0.26979 0.92905 0.9633 0.0
H679 H 0.18471 0.01695 1.00264 0.0
H680 H 0.16311 0.01793 0.05126 0.0
O681 O 0.25616 0.92825 0.05769 0.0
C682 C 0.20989 0.87483 0.04684 0.0
C683 C 0.18248 0.97848 0.06369 0.0
C684 C 0.18894 0.99997 0.0175 0.0
N685 N 0.21216 0.95587 0.02825 0.0
C686 C 0.20025 0.95619 0.05498 0.0
C687 C 0.2066 0.97732 1.00953 0.0
C688 C 0.17684 1.00051 0.04479 0.0
C689 C 0.2611 0.83076 0.97676 0.0
N690 N 0.25633 0.83126 1.00603 0.0
C691 C 0.24902 0.80778 0.95731 0.0
C692 C 0.23189 0.78509 0.96795 0.0
C693 C 0.22705 0.78568 0.99778 0.0
C694 C 0.2395 0.80902 0.01655 0.0
C695 C 0.31078 0.79267 0.0722 0.0
C696 C 0.28043 0.84052 0.0899 0.0
C697 C 0.3013 0.8124 0.05208 0.0
N698 N 0.28616 0.83587 0.06102 0.0
C699 C 0.28957 0.82125 0.11063 0.0
C700 C 0.30482 0.79716 0.10165 0.0
C701 C 0.27929 0.91914 0.07023 0.0
C702 C 0.29903 0.96755 0.9686 0.0
C703 C 0.27615 0.97612 0.02296 0.0
C704 C 0.29775 0.99622 0.01454 0.0
C705 C 0.30925 0.99184 0.98717 0.0
N706 N 0.26624 0.95231 1.00463 0.0
C707 C 0.2774 0.94792 0.97775 0.0
Co708 Co 0.25449 0.43666 1.0104 0.0
Co709 Co 0.26449 0.37335 0.04477 0.0
O710 O 0.2802 0.4064 0.02346 0.0
C711 C 0.29851 0.43093 0.96294 0.0
O712 O 0.3124 0.41049 0.97582 0.0
C713 C 0.32741 0.38687 0.07 0.0
O714 O 0.33053 0.40968 0.05423 0.0
O715 O 0.25075 0.40176 0.07521 0.0
O716 O 0.23029 0.43273 0.04525 0.0
H717 H 0.18708 0.31968 0.09804 0.0
H718 H 0.31922 0.45161 0.01732 0.0
O719 O 0.27673 0.44228 0.97432 0.0
H720 H 0.27548 0.52452 0.08236 0.0
H721 H 0.23098 0.53159 0.96685 0.0
H722 H 0.18998 0.44134 1.00673 0.0
H723 H 0.24409 0.48664 0.05271 0.0
H724 H 0.26363 0.49464 0.9846 0.0
O725 O 0.30289 0.37181 0.06912 0.0
H726 H 0.20778 0.35997 0.07068 0.0
H727 H 0.28775 0.31798 0.06534 0.0
H728 H 0.15658 0.47782 0.98944 0.0
H729 H 0.35134 0.48933 0.04621 0.0
H730 H 0.17704 0.52334 0.96932 0.0
H731 H 0.32954 0.52615 0.07915 0.0
O732 O 0.22879 0.40586 0.98763 0.0
H733 H 0.33636 0.33362 0.97537 0.0
H734 H 0.23741 0.31943 1.0112 0.0
H735 H 0.25306 0.2847 0.9728 0.0
H736 H 0.30294 0.29156 0.95468 0.0
H737 H 0.31969 0.368 0.01336 0.0
H738 H 0.26801 0.27741 0.09291 0.0
H739 H 0.21727 0.27801 0.10933 0.0
O740 O 0.22547 0.37245 0.0212 0.0
C741 C 0.23374 0.42223 0.07032 0.0
C742 C 0.2092 0.31913 0.09095 0.0
C743 C 0.25463 0.29543 0.08811 0.0
N744 N 0.24887 0.34128 0.06627 0.0
C745 C 0.22102 0.34186 0.07539 0.0
C746 C 0.26572 0.31853 0.07259 0.0
C747 C 0.22616 0.29577 0.0973 0.0
C748 C 0.30944 0.46763 0.03124 0.0
N749 N 0.27972 0.46685 0.03305 0.0
C750 C 0.3278 0.48892 0.04772 0.0
C751 C 0.31557 0.50955 0.06624 0.0
C752 C 0.28526 0.50863 0.06806 0.0
C753 C 0.26759 0.48702 0.05125 0.0
C754 C 0.2218 0.51187 0.97564 0.0
C755 C 0.19909 0.46117 0.99819 0.0
C756 C 0.24017 0.49084 0.98568 0.0
N757 N 0.22875 0.46595 0.99694 0.0
C758 C 0.18005 0.48171 0.98835 0.0
C759 C 0.19154 0.50723 0.97703 0.0
C760 C 0.21646 0.383 0.99723 0.0
C761 C 0.31462 0.33029 0.98318 0.0
C762 C 0.25911 0.32273 1.00342 0.0
C763 C 0.26787 0.30289 0.98168 0.0
C764 C 0.29585 0.30674 0.97154 0.0
N765 N 0.27768 0.34574 0.01491 0.0
C766 C 0.30508 0.34968 1.0049 0.0
Co767 Co 0.76748 0.18579 1.00191 0.0
Co768 Co 0.74393 0.1209 0.02989 0.0
O769 O 0.77527 0.15048 0.0227 0.0
C770 C 0.81846 0.16182 0.9731 0.0
O771 O 0.80627 0.13537 0.97485 0.0
C772 C 0.78744 0.12423 0.08358 0.0
O773 O 0.804 0.14462 0.07255 0.0
O774 O 0.72118 0.15192 0.04898 0.0
O775 O 0.7286 0.18892 0.01989 0.0
H776 H 0.63892 0.08172 0.02983 0.0
H777 H 0.82444 0.18559 0.03647 0.0
O778 O 0.80608 0.18422 0.98306 0.0
H779 H 0.77473 0.26847 0.08082 0.0
H780 H 0.79412 0.28332 0.96201 0.0
H781 H 0.7154 0.20603 0.96916 0.0
H782 H 0.75114 0.23814 0.03833 0.0
H783 H 0.8035 0.23953 0.98909 0.0
O784 O 0.7634 0.11389 0.0699 0.0
H785 H 0.67913 0.11761 0.02041 0.0
H786 H 0.74189 0.06256 0.05588 0.0
H787 H 0.705 0.24957 0.94205 0.0
H788 H 0.84901 0.21559 0.07875 0.0
H789 H 0.74454 0.2886 0.93835 0.0
H790 H 0.82406 0.25731 0.10129 0.0
O791 O 0.74845 0.16105 0.96811 0.0
H792 H 0.83419 0.06688 1.00877 0.0
H793 H 0.72805 0.07142 0.98525 0.0
H794 H 0.75467 0.03294 0.96039 0.0
H795 H 0.80812 0.03031 0.97223 0.0
H796 H 0.80697 0.1053 0.03254 0.0
H797 H 0.70233 0.02621 0.06594 0.0
H798 H 0.65043 0.03563 0.05276 0.0
O799 O 0.72327 0.12606 0.99022 0.0
C800 C 0.71472 0.17662 0.03974 0.0
C801 C 0.66146 0.07732 0.03559 0.0
C802 C 0.69704 0.04619 0.0559 0.0
N803 N 0.71283 0.09211 0.03739 0.0
C804 C 0.68432 0.09753 0.03024 0.0
C805 C 0.71934 0.0669 0.05024 0.0
C806 C 0.66793 0.05148 0.04849 0.0
C807 C 0.81351 0.20378 0.04608 0.0
N808 N 0.78631 0.20993 0.03506 0.0
C809 C 0.8275 0.22065 0.07006 0.0
C810 C 0.81348 0.24404 0.08271 0.0
C811 C 0.78578 0.25028 0.07126 0.0
C812 C 0.77245 0.23291 0.04729 0.0
C813 C 0.7767 0.2665 0.96353 0.0
C814 C 0.73266 0.22301 0.9678 0.0
C815 C 0.78189 0.24163 0.9788 0.0
N816 N 0.75993 0.22038 0.98093 0.0
C817 C 0.72667 0.24757 0.95235 0.0
C818 C 0.74887 0.26945 0.95026 0.0
C819 C 0.72929 0.13957 0.96741 0.0
C820 C 0.81083 0.06759 1.00365 0.0
C821 C 0.75131 0.07055 0.9906 0.0
C822 C 0.76626 0.04862 0.97642 0.0
C823 C 0.79623 0.04714 0.98308 0.0
N824 N 0.76569 0.09043 1.01101 0.0
C825 C 0.79515 0.08921 0.01739 0.0
Co826 Co 0.10377 0.52451 0.28491 0.0
Co827 Co 0.17342 0.54262 0.26599 0.0
O828 O 0.14084 0.51351 0.2694 0.0
C829 C 0.11993 0.47271 0.31716 0.0
O830 O 0.14701 0.48415 0.31953 0.0
C831 C 0.16998 0.50801 0.20783 0.0
O832 O 0.14184 0.5121 0.20453 0.0
O833 O 0.1473 0.56581 0.24118 0.0
O834 O 0.10634 0.5633 0.26578 0.0
H835 H 0.22061 0.64471 0.26638 0.0
H836 H 0.10607 0.46771 0.25061 0.0
O837 O 0.09971 0.48599 0.30411 0.0
H838 H 0.03167 0.52084 0.1966 0.0
H839 H 0.99945 0.50585 0.3117 0.0
H840 H 0.08335 0.57902 0.313 0.0
H841 H 0.05716 0.54306 0.24255 0.0
H842 H 0.04591 0.49257 0.29128 0.0
O843 O 0.18525 0.51949 0.23034 0.0
H844 H 0.18021 0.60759 0.27167 0.0
H845 H 0.23572 0.53925 0.25067 0.0
H846 H 0.0372 0.59333 0.33341 0.0
H847 H 0.08091 0.44454 0.20485 0.0
H848 H 0.99485 0.5566 0.33283 0.0
H849 H 0.04346 0.4712 0.17749 0.0
O850 O 0.12542 0.54259 0.32135 0.0
H851 H 0.21736 0.4503 0.29652 0.0
H852 H 0.21535 0.55702 0.31848 0.0
H853 H 0.24679 0.52836 0.34997 0.0
H854 H 0.24803 0.47461 0.33901 0.0
H855 H 0.18577 0.4797 0.26593 0.0
H856 H 0.27664 0.57564 0.24493 0.0
H857 H 0.26925 0.6288 0.25293 0.0
O858 O 0.16342 0.56614 0.30232 0.0
C859 C 0.12216 0.57473 0.24673 0.0
C860 C 0.22412 0.62161 0.26292 0.0
C861 C 0.25556 0.58285 0.25084 0.0
N862 N 0.20565 0.57129 0.26171 0.0
C863 C 0.20135 0.60049 0.26595 0.0
C864 C 0.23228 0.56234 0.25406 0.0
C865 C 0.2514 0.61267 0.25535 0.0
C866 C 0.08961 0.47932 0.23895 0.0
N867 N 0.08299 0.50662 0.24931 0.0
C868 C 0.07552 0.46614 0.213 0.0
C869 C 0.05454 0.48113 0.19764 0.0
C870 C 0.04792 0.50899 0.20834 0.0
C871 C 0.06248 0.52149 0.23434 0.0
C872 C 0.01773 0.52207 0.31203 0.0
C873 C 0.06495 0.56297 0.31253 0.0
C874 C 0.04411 0.51465 0.30056 0.0
N875 N 0.06722 0.53508 0.30076 0.0
C876 C 0.03891 0.57118 0.32418 0.0
C877 C 0.01516 0.55055 0.32387 0.0
C878 C 0.1477 0.56091 0.3238 0.0
C879 C 0.21706 0.47372 0.30149 0.0
C880 C 0.21551 0.5336 0.31372 0.0
C881 C 0.23349 0.5175 0.33155 0.0
C882 C 0.23421 0.48736 0.32536 0.0
N883 N 0.19865 0.52006 0.2904 0.0
C884 C 0.19933 0.49052 0.28414 0.0
Co885 Co 0.74234 0.92844 0.5069 0.0
Co886 Co 0.7579 0.86999 0.54656 0.0
O887 O 0.77075 0.90147 0.52188 0.0
C888 C 0.78693 0.92316 0.45999 0.0
O889 O 0.8023 0.90497 0.47465 0.0
C890 C 0.82185 0.88684 0.56707 0.0
O891 O 0.82343 0.90767 0.54867 0.0
O892 O 0.74404 0.90029 0.57517 0.0
O893 O 0.71909 0.9255 0.54275 0.0
H894 H 0.686 0.81885 0.60817 0.0
H895 H 0.80625 0.94804 0.513 0.0
O896 O 0.76378 0.93308 0.47002 0.0
H897 H 0.75703 0.0223 0.57131 0.0
H898 H 0.71021 0.01663 0.45581 0.0
H899 H 0.67736 0.92805 0.50395 0.0
H900 H 0.72835 0.98047 0.54479 0.0
H901 H 0.74625 0.98414 0.47615 0.0
O902 O 0.79759 0.87204 0.56947 0.0
H903 H 0.70317 0.85677 0.57602 0.0
H904 H 0.78503 0.81821 0.57126 0.0
H905 H 0.6406 0.96008 0.48412 0.0
H906 H 0.83567 0.98964 0.5388 0.0
H907 H 0.65696 1.00474 0.45984 0.0
H908 H 0.81111 0.02721 0.56834 0.0
O909 O 0.71865 0.89436 0.48681 0.0
H910 H 0.82781 0.82758 0.47638 0.0
H911 H 0.7324 0.81236 0.51947 0.0
H912 H 0.74783 0.77515 0.48338 0.0
H913 H 0.79596 0.7825 0.46163 0.0
H914 H 0.81136 0.86432 0.51211 0.0
H915 H 0.76885 0.78008 0.6036 0.0
H916 H 0.71895 0.78015 0.62217 0.0
O917 O 0.71789 0.86535 0.52442 0.0
C918 C 0.72508 0.91869 0.56901 0.0
C919 C 0.70776 0.81854 0.60016 0.0
C920 C 0.75428 0.79681 0.59764 0.0
N921 N 0.745 0.83965 0.57163 0.0
C922 C 0.71759 0.83992 0.58189 0.0
C923 C 0.76336 0.81854 0.57941 0.0
C924 C 0.72627 0.79685 0.60803 0.0
C925 C 0.79525 0.9643 0.5254 0.0
N926 N 0.7655 0.96175 0.52699 0.0
C927 C 0.8121 0.98784 0.54016 0.0
C928 C 0.79832 1.00888 0.55676 0.0
C929 C 0.768 1.00613 0.55844 0.0
C930 C 0.75188 0.9823 0.54338 0.0
C931 C 0.70281 0.99727 0.46639 0.0
C932 C 0.68468 0.94753 0.49358 0.0
C933 C 0.72311 0.97874 0.4779 0.0
N934 N 0.71394 0.95432 0.49144 0.0
C935 C 0.66375 0.96555 0.48232 0.0
C936 C 0.67294 0.99059 0.46867 0.0
C937 C 0.70798 0.87222 0.49908 0.0
C938 C 0.80686 0.82402 0.48582 0.0
C939 C 0.75333 0.81589 0.51012 0.0
C940 C 0.76198 0.79464 0.48969 0.0
C941 C 0.78897 0.79877 0.47751 0.0
N942 N 0.77107 0.84057 0.5184 0.0
C943 C 0.79746 0.84479 0.50631 0.0
Co944 Co 0.8523 0.02545 0.27404 0.0
Co945 Co 0.91991 0.0186 0.24566 0.0
O946 O 0.88565 1.00241 0.2646 0.0
C947 C 0.86742 0.99797 0.33037 0.0
O948 O 0.89538 1.00449 0.32738 0.0
C949 C 0.90263 0.96092 0.21261 0.0
O950 O 0.87503 0.96622 0.21517 0.0
O951 O 0.89403 0.0327 0.21331 0.0
O952 O 0.85462 0.04612 0.2366 0.0
H953 H 0.97809 0.09608 0.1967 0.0
H954 H 0.84636 0.96068 0.27463 0.0
O955 O 0.84813 1.00511 0.3113 0.0
H956 H 0.76869 0.98584 0.20261 0.0
H957 H 0.75288 0.04105 0.31187 0.0
H958 H 0.83978 0.08791 0.27073 0.0
H959 H 0.80146 0.0246 0.2295 0.0
H960 H 0.79439 1.01199 0.29881 0.0
O961 O 0.92292 0.97998 0.22242 0.0
H962 H 0.93553 0.07535 0.2209 0.0
H963 H 0.97684 0.99544 0.22954 0.0
H964 H 0.7986 0.11775 0.2832 0.0
H965 H 0.8137 0.92118 0.24872 0.0
H966 H 0.75476 0.09431 0.30394 0.0
H967 H 0.77464 0.93365 0.21225 0.0
O968 O 0.87934 0.05656 0.29566 0.0
H969 H 0.95391 0.94502 0.3153 0.0
H970 H 0.97053 0.04574 0.28459 0.0
H971 H 1.00168 0.02914 0.32547 0.0
H972 H 0.99351 0.97841 0.34103 0.0
H973 H 0.92303 0.96263 0.27477 0.0
H974 H 0.01973 0.01521 0.20521 0.0
H975 H 0.02059 0.06593 0.18872 0.0
O976 O 0.91887 0.05729 0.26888 0.0
C977 C 0.86997 0.04545 0.21414 0.0
C978 C 0.97801 0.07398 0.20385 0.0
C979 C 1.00136 0.02858 0.20859 0.0
N980 N 0.95376 0.03428 0.22676 0.0
C981 C 0.954 0.06215 0.21762 0.0
C982 C 0.97697 0.01747 0.22228 0.0
C983 C 1.00183 0.05704 0.19935 0.0
C984 C 0.82926 0.96631 0.25898 0.0
N985 N 0.82605 0.99495 0.25333 0.0
C986 C 0.8109 0.94383 0.24429 0.0
C987 C 0.78903 0.95084 0.2238 0.0
C988 C 0.78573 0.98011 0.21832 0.0
C989 C 0.80452 1.00198 0.23341 0.0
C990 C 0.77184 0.05151 0.30281 0.0
C991 C 0.8207 0.07753 0.27958 0.0
C992 C 0.79546 0.03518 0.29546 0.0
N993 N 0.81942 0.04822 0.28386 0.0
C994 C 0.79749 0.09455 0.28667 0.0
C995 C 0.77291 0.08139 0.29834 0.0
C996 C 0.90412 0.06806 0.28937 0.0
C997 C 0.95775 0.96714 0.30866 0.0
C998 C 0.96673 0.02368 0.2913 0.0
C999 C 0.98451 0.01437 0.31442 0.0
C1000 C 0.97993 0.9859 0.32312 0.0
N1001 N 0.94503 1.00514 0.2772 0.0
C1002 C 0.94042 0.9772 0.28562 0.0
Co1003 Co 0.26847 0.68903 0.50306 0.0
Co1004 Co 0.24441 0.62415 0.53057 0.0
O1005 O 0.276 0.65362 0.52372 0.0
C1006 C 0.32003 0.66554 0.47447 0.0
O1007 O 0.30788 0.63899 0.47571 0.0
C1008 C 0.28807 0.62643 0.58395 0.0
O1009 O 0.3048 0.64675 0.57304 0.0
O1010 O 0.22172 0.65516 0.54985 0.0
O1011 O 0.22923 0.69195 0.52054 0.0
H1012 H 0.13915 0.58556 0.52993 0.0
H1013 H 0.325 0.6888 0.53831 0.0
O1014 O 0.30747 0.68775 0.48467 0.0
H1015 H 0.27456 0.77135 0.58229 0.0
H1016 H 0.29536 0.7869 0.46396 0.0
H1017 H 0.21673 0.70921 0.46971 0.0
H1018 H 0.25155 0.74118 0.53942 0.0
H1019 H 0.30453 0.74302 0.49098 0.0
O1020 O 0.26379 0.61658 0.57044 0.0
H1021 H 0.17961 0.62131 0.52091 0.0
H1022 H 0.24187 0.56553 0.55601 0.0
H1023 H 0.20654 0.75283 0.44265 0.0
H1024 H 0.34899 0.71863 0.581 0.0
H1025 H 0.24603 0.79206 0.43966 0.0
H1026 H 0.32368 0.7602 0.60335 0.0
O1027 O 0.24991 0.66432 0.46903 0.0
H1028 H 0.33425 0.56969 0.50861 0.0
H1029 H 0.22814 0.57503 0.48565 0.0
H1030 H 0.25438 0.5365 0.46041 0.0
H1031 H 0.30781 0.53345 0.47198 0.0
H1032 H 0.30743 0.60818 0.53272 0.0
H1033 H 0.20205 0.5293 0.56565 0.0
H1034 H 0.15026 0.53916 0.55246 0.0
O1035 O 0.22391 0.62982 0.491 0.0
C1036 C 0.21512 0.6797 0.5403 0.0
C1037 C 0.16163 0.58097 0.5357 0.0
C1038 C 0.19693 0.54942 0.5558 0.0
N1039 N 0.21308 0.59545 0.53775 0.0
C1040 C 0.18464 0.6011 0.53058 0.0
C1041 C 0.21938 0.57007 0.55037 0.0
C1042 C 0.16788 0.55496 0.54837 0.0
C1043 C 0.31391 0.70691 0.54785 0.0
N1044 N 0.28683 0.71307 0.53651 0.0
C1045 C 0.32757 0.72369 0.57205 0.0
C1046 C 0.31335 0.74699 0.58459 0.0
C1047 C 0.28577 0.75324 0.57282 0.0
C1048 C 0.27277 0.73595 0.54863 0.0
C1049 C 0.27796 0.76999 0.46517 0.0
C1050 C 0.23397 0.72628 0.46865 0.0
C1051 C 0.28303 0.74507 0.4804 0.0
N1052 N 0.2611 0.7237 0.48214 0.0
C1053 C 0.2281 0.75089 0.45324 0.0
C1054 C 0.25027 0.77287 0.45154 0.0
C1055 C 0.23046 0.64309 0.46821 0.0
C1056 C 0.3109 0.57057 0.50362 0.0
C1057 C 0.25139 0.57398 0.49089 0.0
C1058 C 0.26613 0.55203 0.4765 0.0
C1059 C 0.29608 0.55031 0.483 0.0
N1060 N 0.26595 0.59366 0.51138 0.0
C1061 C 0.29542 0.59223 0.51757 0.0
Co1062 Co 0.35778 0.52583 0.77136 0.0
Co1063 Co 0.42167 0.51278 0.73784 0.0
O1064 O 0.3885 0.49983 0.76033 0.0
C1065 C 0.37507 0.49943 0.8277 0.0
O1066 O 0.40284 0.5036 0.82239 0.0
C1067 C 0.40187 0.45187 0.71213 0.0
O1068 O 0.37533 0.45551 0.72037 0.0
O1069 O 0.3941 0.5262 0.70653 0.0
O1070 O 0.35878 0.54474 0.73283 0.0
H1071 H 0.47822 0.58381 0.67961 0.0
H1072 H 0.34685 0.46175 0.77567 0.0
O1073 O 0.35513 0.50745 0.80983 0.0
H1074 H 0.26752 0.48991 0.70716 0.0
H1075 H 0.26358 0.55062 0.81597 0.0
H1076 H 0.34929 0.58901 0.76647 0.0
H1077 H 0.30479 0.52702 0.72985 0.0
H1078 H 0.30164 0.51788 0.80099 0.0
O1079 O 0.42174 0.47275 0.71629 0.0
H1080 H 0.43732 0.56692 0.7084 0.0
H1081 H 0.476 0.48588 0.71901 0.0
H1082 H 0.31159 0.62248 0.78081 0.0
H1083 H 0.30962 0.42399 0.7541 0.0
H1084 H 0.26836 0.60331 0.80577 0.0
H1085 H 0.2697 0.43793 0.71938 0.0
O1086 O 0.38798 0.55577 0.78993 0.0
H1087 H 0.45765 0.44233 0.81 0.0
H1088 H 0.47593 0.5395 0.77135 0.0
H1089 H 0.50931 0.52396 0.81101 0.0
H1090 H 0.50033 0.47501 0.83054 0.0
H1091 H 0.42458 0.45891 0.77066 0.0
H1092 H 0.51719 0.50181 0.69015 0.0
H1093 H 0.51854 0.55114 0.67031 0.0
O1094 O 0.42394 0.55283 0.75889 0.0
C1095 C 0.37168 0.54136 0.70892 0.0
C1096 C 0.47792 0.56228 0.68819 0.0
C1097 C 0.49976 0.51625 0.69406 0.0
N1098 N 0.45431 0.5255 0.71548 0.0
C1099 C 0.45484 0.55262 0.70455 0.0
C1100 C 0.47632 0.50732 0.71032 0.0
C1101 C 0.50052 0.54394 0.68296 0.0
C1102 C 0.32942 0.46806 0.76077 0.0
N1103 N 0.32828 0.49656 0.75369 0.0
C1104 C 0.30846 0.44654 0.74853 0.0
C1105 C 0.28611 0.45437 0.72902 0.0
C1106 C 0.28492 0.48351 0.72209 0.0
C1107 C 0.30628 0.50441 0.73475 0.0
C1108 C 0.2823 0.55923 0.80508 0.0
C1109 C 0.33045 0.58048 0.77717 0.0
C1110 C 0.30397 0.54081 0.79662 0.0
N1111 N 0.32759 0.55149 0.78272 0.0
C1112 C 0.30922 0.59955 0.78531 0.0
C1113 C 0.28499 0.58878 0.79933 0.0
C1114 C 0.41209 0.56554 0.78044 0.0
C1115 C 0.46187 0.46366 0.80158 0.0
C1116 C 0.47177 0.51822 0.77979 0.0
C1117 C 0.49082 0.5095 0.80221 0.0
C1118 C 0.48578 0.48203 0.81314 0.0
N1119 N 0.4484 0.50006 0.7685 0.0
C1120 C 0.44331 0.47311 0.77916 0.0
Co1121 Co 0.59799 0.02178 0.78701 0.0
Co1122 Co 0.66513 0.04324 0.76374 0.0
O1123 O 0.63445 1.01228 0.76912 0.0
C1124 C 0.61262 0.96315 0.81086 0.0
O1125 O 0.63799 0.96343 0.79898 0.0
C1126 C 0.66124 1.00787 0.70541 0.0
O1127 O 0.63272 1.01007 0.7029 0.0
O1128 O 0.63628 0.06505 0.74004 0.0
O1129 O 0.59815 0.06039 0.7682 0.0
H1130 H 0.70626 0.14736 0.76161 0.0
H1131 H 0.60037 0.96583 0.75081 0.0
O1132 O 0.5955 0.98378 0.80718 0.0
H1133 H 0.52005 0.01679 0.70364 0.0
H1134 H 0.49604 1.00107 0.81979 0.0
H1135 H 0.57837 0.07547 0.81748 0.0
H1136 H 0.54787 0.03911 0.74827 0.0
H1137 H 0.54119 0.98885 0.79617 0.0
O1138 O 0.67649 0.02056 0.7274 0.0
H1139 H 0.66848 0.10825 0.76912 0.0
H1140 H 0.72657 0.04324 0.74498 0.0
H1141 H 0.53351 0.08871 0.84111 0.0
H1142 H 0.57293 0.94257 0.70642 0.0
H1143 H 0.49194 0.05136 0.84236 0.0
H1144 H 0.53245 0.96811 0.68247 0.0
O1145 O 0.62138 0.03998 0.82222 0.0
H1146 H 0.71599 0.95402 0.79256 0.0
H1147 H 0.70942 0.06029 0.81377 0.0
H1148 H 0.74417 0.03375 0.84384 0.0
H1149 H 0.7477 0.98022 0.83327 0.0
H1150 H 0.68116 0.98134 0.76333 0.0
H1151 H 0.76488 0.08165 0.73698 0.0
H1152 H 0.75488 0.13415 0.74543 0.0
O1153 O 0.65596 0.06631 0.80091 0.0
C1154 C 0.6114 0.07274 0.74796 0.0
C1155 C 0.71091 0.12457 0.75792 0.0
C1156 C 0.74379 0.08769 0.74406 0.0
N1157 N 0.69534 0.07349 0.75767 0.0
C1158 C 0.68962 0.10232 0.7622 0.0
C1159 C 0.72197 0.06603 0.74854 0.0
C1160 C 0.73818 0.11714 0.74882 0.0
C1161 C 0.58256 0.97691 0.74081 0.0
N1162 N 0.57552 1.0036 0.75243 0.0
C1163 C 0.56719 0.9637 0.71554 0.0
C1164 C 0.54452 0.97807 0.70208 0.0
C1165 C 0.53756 1.00538 0.71394 0.0
C1166 C 0.55343 0.01792 0.73922 0.0
C1167 C 0.51397 0.01756 0.81933 0.0
C1168 C 0.5603 0.05916 0.81778 0.0
C1169 C 0.53962 1.01075 0.80603 0.0
N1170 N 0.56229 0.03152 0.80521 0.0
C1171 C 0.53499 0.06676 0.83126 0.0
C1172 C 0.51169 0.04578 0.83198 0.0
C1173 C 0.64261 0.05947 0.82356 0.0
C1174 C 0.71462 0.97734 0.79742 0.0
C1175 C 0.71051 0.03694 0.80924 0.0
C1176 C 0.73039 0.02206 0.82624 0.0
C1177 C 0.73239 0.99204 0.82027 0.0
N1178 N 0.69301 0.02235 0.78696 0.0
C1179 C 0.69498 0.99294 0.7809 0.0
Co1180 Co 0.75639 0.66801 0.03519 0.0
Co1181 Co 0.78801 0.60214 0.02912 0.0
O1182 O 0.76745 0.63371 1.01153 0.0
C1183 C 0.69368 0.66973 0.01352 0.0
O1184 O 0.68642 0.66663 0.04058 0.0
C1185 C 0.82011 0.61471 0.97523 0.0
O1186 O 0.81529 0.64256 0.97938 0.0
O1187 O 0.81934 0.63122 0.04666 0.0
O1188 O 0.79266 0.66783 0.06261 0.0
H1189 H 0.84189 0.55529 0.11115 0.0
H1190 H 0.75824 0.67216 0.97063 0.0
O1191 O 0.72051 0.66933 1.00746 0.0
H1192 H 0.82898 0.75051 0.01515 0.0
H1193 H 0.71674 0.76783 0.05047 0.0
H1194 H 0.75526 0.6836 0.09903 0.0
H1195 H 0.80112 0.71852 0.04643 0.0
H1196 H 0.73205 0.72503 0.02105 0.0
O1197 O 0.81092 0.59631 0.99299 0.0
H1198 H 0.81517 0.5942 0.08842 0.0
H1199 H 0.80604 0.54366 1.00672 0.0
H1200 H 0.74031 0.726 0.12931 0.0
H1201 H 0.78519 0.70411 0.93857 0.0
H1202 H 0.72088 0.76851 0.10501 0.0
H1203 H 0.821 0.74352 0.9608 0.0
O1204 O 0.73452 0.64171 0.06081 0.0
H1205 H 0.71817 0.55689 0.9472 0.0
H1206 H 0.75208 0.5525 0.05136 0.0
H1207 H 0.71238 0.51742 0.02966 0.0
H1208 H 0.69523 0.51942 0.97718 0.0
H1209 H 0.75764 0.59175 0.96988 0.0
H1210 H 0.83289 0.50433 0.02848 0.0
H1211 H 0.8509 0.50996 0.0811 0.0
O1212 O 0.76559 0.60612 0.0658 0.0
C1213 C 0.81679 0.65514 0.06193 0.0
C1214 C 0.83407 0.55254 0.08822 0.0
C1215 C 0.82905 0.52396 0.04181 0.0
N1216 N 0.80885 0.5711 0.04636 0.0
C1217 C 0.81887 0.57446 0.07526 0.0
C1218 C 0.81392 0.54633 0.0296 0.0
C1219 C 0.83914 0.52713 0.07134 0.0
C1220 C 0.77348 0.6895 0.98052 0.0
N1221 N 0.77806 0.6934 1.0104 0.0
C1222 C 0.78881 0.70742 0.96222 0.0
C1223 C 0.80895 0.72948 0.97471 0.0
C1224 C 0.81347 0.73338 1.0052 0.0
C1225 C 0.79774 0.71506 0.0228 0.0
C1226 C 0.7252 0.74946 0.06132 0.0
C1227 C 0.7469 0.70205 0.08831 0.0
C1228 C 0.73388 0.72515 0.04477 0.0
N1229 N 0.74463 0.70187 0.05832 0.0
C1230 C 0.73844 0.72598 0.10556 0.0
C1231 C 0.72753 0.74982 0.09192 0.0
C1232 C 0.74335 0.61957 0.07366 0.0
C1233 C 0.7255 0.55575 0.97007 0.0
C1234 C 0.74467 0.55361 0.02854 0.0
C1235 C 0.72222 0.53363 0.01636 0.0
C1236 C 0.71262 0.53475 0.98691 0.0
N1237 N 0.75727 0.57407 1.01184 0.0
C1238 C 0.7479 0.57538 0.983 0.0
Co1239 Co 0.87151 0.53821 0.76031 0.0
Co1240 Co 0.93287 0.49972 0.75636 0.0
O1241 O 0.90224 0.51629 0.77918 0.0
C1242 C 0.88507 0.56718 0.82175 0.0
O1243 O 0.90878 0.55272 0.82484 0.0
C1244 C 0.91551 0.45001 0.79274 0.0
O1245 O 0.88768 0.4528 0.78535 0.0
O1246 O 0.9022 0.47678 0.73042 0.0
O1247 O 0.87107 0.51191 0.72284 0.0
H1248 H 0.97824 0.46801 0.66302 0.0
H1249 H 0.86277 0.51097 0.81708 0.0
O1250 O 0.86953 0.56491 0.79737 0.0
H1251 H 0.77947 0.47109 0.74986 0.0
H1252 H 0.77868 0.5921 0.75572 0.0
H1253 H 0.86235 0.56062 0.70121 0.0
H1254 H 0.81677 0.50621 0.73306 0.0
H1255 H 0.8165 0.56363 0.77936 0.0
O1256 O 0.93528 0.46679 0.78289 0.0
H1257 H 0.94091 0.49003 0.69261 0.0
H1258 H 0.98888 0.47207 0.77135 0.0
H1259 H 0.82485 0.5888 0.67664 0.0
H1260 H 0.82576 0.47631 0.83488 0.0
H1261 H 0.78264 0.60474 0.70395 0.0
H1262 H 0.78372 0.456 0.80117 0.0
O1263 O 0.90239 0.56573 0.74578 0.0
H1264 H 0.98256 0.53705 0.85401 0.0
H1265 H 0.98547 0.53907 0.74643 0.0
H1266 H 0.02305 0.56835 0.77859 0.0
H1267 H 0.02182 0.56741 0.83283 0.0
H1268 H 0.94507 0.50851 0.82101 0.0
H1269 H 0.0266 0.44966 0.74261 0.0
H1270 H 0.02148 0.44763 0.68803 0.0
O1271 O 0.9322 0.53238 0.72919 0.0
C1272 C 0.88059 0.48675 0.71612 0.0
C1273 C 0.98076 0.46883 0.68679 0.0
C1274 C 1.00788 0.4585 0.73146 0.0
N1275 N 0.96278 0.48251 0.73369 0.0
C1276 C 0.95972 0.48133 0.70367 0.0
C1277 C 0.9864 0.47116 0.74762 0.0
C1278 C 1.005 0.45738 0.70084 0.0
C1279 C 0.84436 0.50274 0.80237 0.0
N1280 N 0.84177 0.51115 0.77418 0.0
C1281 C 0.82353 0.48288 0.81253 0.0
C1282 C 0.79999 0.47145 0.7936 0.0
C1283 C 0.7976 0.47989 0.76481 0.0
C1284 C 0.81884 0.49979 0.75542 0.0
C1285 C 0.79696 0.58526 0.74359 0.0
C1286 C 0.84398 0.56736 0.71319 0.0
C1287 C 0.81851 0.56922 0.75689 0.0
N1288 N 0.84156 0.56034 0.74162 0.0
C1289 C 0.82285 0.58337 0.69919 0.0
C1290 C 0.79919 0.59233 0.71453 0.0
C1291 C 0.92355 0.55837 0.73045 0.0
C1292 C 0.98328 0.53773 0.83041 0.0
C1293 C 0.98443 0.53891 0.76998 0.0
C1294 C 1.00595 0.55536 0.7881 0.0
C1295 C 1.00528 0.55477 0.81852 0.0
N1296 N 0.96274 0.52245 0.7818 0.0
C1297 C 0.96212 0.52157 0.8116 0.0
Co1298 Co 0.77921 0.35367 0.53854 0.0
Co1299 Co 0.74735 0.41516 0.51875 0.0
O1300 O 0.76951 0.38125 0.50913 0.0
C1301 C 0.8344 0.3653 0.50903 0.0
O1302 O 0.83084 0.39346 0.51317 0.0
C1303 C 0.70407 0.41312 0.46652 0.0
O1304 O 0.68269 0.4141 0.48443 0.0
O1305 O 0.71489 0.38809 0.53062 0.0
O1306 O 0.74157 0.35926 0.55812 0.0
H1307 H 0.68284 0.47498 0.58061 0.0
H1308 H 0.77928 0.33559 0.47501 0.0
O1309 O 0.8165 0.34666 0.51911 0.0
H1310 H 0.70968 0.26441 0.51518 0.0
H1311 H 0.82028 0.26149 0.57367 0.0
H1312 H 0.77554 0.35327 0.60311 0.0
H1313 H 0.73587 0.30403 0.54748 0.0
H1314 H 0.80623 0.29592 0.53663 0.0
O1315 O 0.73049 0.41189 0.47683 0.0
H1316 H 0.71218 0.43297 0.5683 0.0
H1317 H 0.73348 0.46922 0.48835 0.0
H1318 H 0.78902 0.31934 0.64083 0.0
H1319 H 0.75379 0.29609 0.44197 0.0
H1320 H 0.81156 0.27306 0.62618 0.0
H1321 H 0.71866 0.26019 0.46202 0.0
O1322 O 0.7992 0.38644 0.56448 0.0
H1323 H 0.82524 0.44687 0.45226 0.0
H1324 H 0.77997 0.47008 0.54545 0.0
H1325 H 0.82139 0.50203 0.53137 0.0
H1326 H 0.84425 0.49058 0.4844 0.0
H1327 H 0.78412 0.41521 0.46744 0.0
H1328 H 0.70431 0.51158 0.49974 0.0
H1329 H 0.67876 0.51466 0.54618 0.0
O1330 O 0.76513 0.41943 0.56055 0.0
C1331 C 0.71701 0.36873 0.5495 0.0
C1332 C 0.69388 0.47389 0.56031 0.0
C1333 C 0.70593 0.49444 0.51493 0.0
N1334 N 0.72453 0.44864 0.52767 0.0
C1335 C 0.71052 0.45016 0.55323 0.0
C1336 C 0.72239 0.47039 0.50859 0.0
C1337 C 0.6916 0.49615 0.54098 0.0
C1338 C 0.76419 0.31993 0.48394 0.0
N1339 N 0.75921 0.32204 0.51317 0.0
C1340 C 0.74975 0.29766 0.46511 0.0
C1341 C 0.73002 0.27754 0.47636 0.0
C1342 C 0.72497 0.2799 0.50618 0.0
C1343 C 0.73982 0.30243 0.52435 0.0
C1344 C 0.81043 0.28156 0.58032 0.0
C1345 C 0.7852 0.3331 0.59654 0.0
C1346 C 0.80251 0.30118 0.55946 0.0
N1347 N 0.78989 0.32648 0.56769 0.0
C1348 C 0.79285 0.31401 0.61801 0.0
C1349 C 0.80552 0.28806 0.60978 0.0
C1350 C 0.78806 0.41005 0.57342 0.0
C1351 C 0.81539 0.45216 0.47273 0.0
C1352 C 0.78992 0.46478 0.5251 0.0
C1353 C 0.8133 0.48305 0.51717 0.0
C1354 C 0.82609 0.47664 0.4908 0.0
N1355 N 0.77951 0.44081 0.50725 0.0
C1356 C 0.79197 0.4344 0.48136 0.0
Co1357 Co 0.68258 0.49864 0.25956 0.0
Co1358 Co 0.62132 0.53476 0.24104 0.0
O1359 O 0.65008 0.52204 0.27045 0.0
C1360 C 0.65717 0.4673 0.30824 0.0
O1361 O 0.63116 0.46905 0.29488 0.0
C1362 C 0.62942 0.58288 0.29047 0.0
O1363 O 0.65018 0.56903 0.30361 0.0
O1364 O 0.65375 0.55359 0.21974 0.0
O1365 O 0.68634 0.51904 0.22199 0.0
H1366 H 0.58215 0.54912 0.13809 0.0
H1367 H 0.68773 0.52916 0.31914 0.0
O1368 O 0.68001 0.47776 0.2969 0.0
H1369 H 0.77228 0.56901 0.2689 0.0
H1370 H 0.77536 0.44729 0.27904 0.0
H1371 H 0.6981 0.46758 0.20431 0.0
H1372 H 0.73735 0.53116 0.2436 0.0
H1373 H 0.73508 0.47801 0.29225 0.0
O1374 O 0.61753 0.57306 0.26538 0.0
H1375 H 0.61697 0.53241 0.17591 0.0
H1376 H 0.56569 0.5656 0.24342 0.0
H1377 H 0.73811 0.43693 0.19008 0.0
H1378 H 0.72237 0.56672 0.34541 0.0
H1379 H 0.77711 0.42662 0.22759 0.0
H1380 H 0.76495 0.58701 0.32022 0.0
O1381 O 0.65421 0.46859 0.23906 0.0
H1382 H 0.56761 0.50689 0.32961 0.0
H1383 H 0.56802 0.49624 0.22156 0.0
H1384 H 0.52823 0.47121 0.24624 0.0
H1385 H 0.5277 0.47658 0.30066 0.0
H1386 H 0.60718 0.531 0.30421 0.0
H1387 H 0.53046 0.58288 0.20633 0.0
H1388 H 0.53852 0.57456 0.15323 0.0
O1389 O 0.62299 0.49683 0.21603 0.0
C1390 C 0.67655 0.5418 0.21091 0.0
C1391 C 0.57836 0.55281 0.16115 0.0
C1392 C 0.54937 0.5718 0.19946 0.0
N1393 N 0.5933 0.54787 0.21183 0.0
C1394 C 0.59796 0.54333 0.18267 0.0
C1395 C 0.56946 0.56205 0.22036 0.0
C1396 C 0.5539 0.56711 0.16966 0.0
C1397 C 0.70623 0.53782 0.30803 0.0
N1398 N 0.71025 0.52821 0.27972 0.0
C1399 C 0.72576 0.55912 0.32302 0.0
C1400 C 0.74963 0.57051 0.30887 0.0
C1401 C 0.75373 0.56046 0.28006 0.0
C1402 C 0.73373 0.53915 0.26576 0.0
C1403 C 0.75853 0.45168 0.26248 0.0
C1404 C 0.71509 0.46332 0.22071 0.0
C1405 C 0.73564 0.46901 0.26984 0.0
N1406 N 0.7144 0.47477 0.249 0.0
C1407 C 0.73764 0.44589 0.21254 0.0
C1408 C 0.75951 0.44009 0.23361 0.0
C1409 C 0.63317 0.47187 0.22018 0.0
C1410 C 0.56739 0.50466 0.30585 0.0
C1411 C 0.568 0.49884 0.24525 0.0
C1412 C 0.54536 0.48456 0.2591 0.0
C1413 C 0.54506 0.48758 0.28962 0.0
N1414 N 0.58971 0.51588 0.26125 0.0
C1415 C 0.58967 0.51863 0.29124 0.0
H1416 H 0.07549 0.45651 0.35078 0.0
H1417 H 0.1496 0.4237 0.30842 0.0
H1418 H 0.13782 0.37464 0.3249 0.0
H1419 H 0.10561 0.34071 0.35073 0.0
H1420 H 0.03506 0.37506 0.39789 0.0
H1421 H 0.04624 0.42374 0.38051 0.0
C1422 C 0.08902 0.43856 0.34527 0.0
C1423 C 0.11316 0.4435 0.32819 0.0
C1424 C 0.08278 0.41071 0.35581 0.0
C1425 C 0.13088 0.4203 0.32153 0.0
C1426 C 0.12412 0.39227 0.33091 0.0
C1427 C 0.09293 0.35898 0.35737 0.0
C1428 C 0.06955 0.35434 0.37554 0.0
C1429 C 0.10006 0.38716 0.34799 0.0
C1430 C 0.05333 0.37817 0.38414 0.0
C1431 C 0.0596 0.40597 0.37406 0.0
H1432 H 0.9245 0.82632 0.63496 0.0
H1433 H 0.96892 0.84882 0.55804 0.0
H1434 H 0.92636 0.87382 0.54007 0.0
H1435 H 0.87565 0.88756 0.54495 0.0
H1436 H 0.82915 0.86099 0.61915 0.0
H1437 H 0.87321 0.83962 0.63951 0.0
C1438 C 0.92491 0.83691 0.61438 0.0
C1439 C 0.94996 0.83579 0.59794 0.0
C1440 C 0.89991 0.85057 0.60369 0.0
C1441 C 0.94995 0.84925 0.5711 0.0
C1442 C 0.92561 0.86363 0.56082 0.0
C1443 C 0.87531 0.87752 0.56582 0.0
C1444 C 0.84926 0.8763 0.58076 0.0
C1445 C 0.90037 0.86425 0.57678 0.0
C1446 C 0.84897 0.86246 0.60737 0.0
C1447 C 0.87415 0.85014 0.61896 0.0
H1448 H 0.39658 0.59947 0.82835 0.0
H1449 H 0.46344 0.59272 0.76581 0.0
H1450 H 0.49097 0.63524 0.79049 0.0
H1451 H 0.49696 0.67391 0.82997 0.0
H1452 H 0.43029 0.68243 0.89234 0.0
H1453 H 0.40212 0.63968 0.86768 0.0
C1454 C 0.41711 0.60734 0.82004 0.0
C1455 C 0.42783 0.59254 0.79523 0.0
C1456 C 0.43306 0.63214 0.83437 0.0
C1457 C 0.45452 0.6033 0.78486 0.0
C1458 C 0.47041 0.62774 0.79899 0.0
C1459 C 0.47621 0.66664 0.83822 0.0
C1460 C 0.46585 0.68162 0.86303 0.0
C1461 C 0.46 0.64224 0.82382 0.0
C1462 C 0.4389 0.67149 0.87329 0.0
C1463 C 0.42273 0.64699 0.85917 0.0
H1464 H 0.61129 0.25547 0.07431 0.0
H1465 H 0.60012 0.19043 0.13789 0.0
H1466 H 0.64125 0.1649 0.11923 0.0
H1467 H 0.68061 0.16082 0.08463 0.0
H1468 H 0.69186 0.2269 0.02201 0.0
H1469 H 0.65072 0.25192 0.04057 0.0
C1470 C 0.61775 0.2357 0.08416 0.0
C1471 C 0.60236 0.22497 0.10751 0.0
C1472 C 0.64162 0.22117 0.07347 0.0
C1473 C 0.61139 0.19932 0.11992 0.0
C1474 C 0.63498 0.18464 0.10923 0.0
C1475 C 0.67412 0.18071 0.07504 0.0
C1476 C 0.68958 0.19178 0.05184 0.0
C1477 C 0.6503 0.19533 0.08598 0.0
C1478 C 0.68065 0.21769 0.03985 0.0
C1479 C 0.65699 0.23212 0.05045 0.0
H1480 H 0.07279 0.60412 0.2562 0.0
H1481 H 0.14641 0.60242 0.20147 0.0
H1482 H 0.12833 0.64349 0.17556 0.0
H1483 H 0.09151 0.68018 0.16821 0.0
H1484 H 0.01862 0.68216 0.22396 0.0
H1485 H 0.03658 0.64098 0.2494 0.0
C1486 C 0.08496 0.61263 0.23859 0.0
C1487 C 0.111 0.5999 0.2309 0.0
C1488 C 0.07455 0.63651 0.22383 0.0
C1489 C 0.12634 0.61158 0.20801 0.0
C1490 C 0.11599 0.63515 0.19311 0.0
C1491 C 0.07953 0.67167 0.18595 0.0
C1492 C 0.05363 0.68453 0.19397 0.0
C1493 C 0.09011 0.64785 0.2008 0.0
C1494 C 0.03858 0.67298 0.21712 0.0
C1495 C 0.04884 0.64929 0.23178 0.0
H1496 H 0.60267 0.78219 0.45135 0.0
H1497 H 0.59833 0.84169 0.38172 0.0
H1498 H 0.64034 0.87144 0.40563 0.0
H1499 H 0.67786 0.8812 0.44687 0.0
H1500 H 0.68017 0.8226 0.51742 0.0
H1501 H 0.6393 0.79226 0.49268 0.0
C1502 C 0.61073 0.80169 0.44133 0.0
C1503 C 0.59701 0.80963 0.41474 0.0
C1504 C 0.6346 0.81905 0.45546 0.0
C1505 C 0.60823 0.83495 0.40216 0.0
C1506 C 0.63229 0.85206 0.41587 0.0
C1507 C 0.66948 0.86179 0.45687 0.0
C1508 C 0.68247 0.85422 0.48398 0.0
C1509 C 0.64556 0.84444 0.44264 0.0
C1510 C 0.67098 0.82901 0.49655 0.0
C1511 C 0.64749 0.81157 0.4824 0.0
H1512 H 0.43458 0.31966 0.6964 0.0
H1513 H 0.48671 0.35518 0.63001 0.0
H1514 H 0.46914 0.40393 0.6411 0.0
H1515 H 0.4399 0.4369 0.67089 0.0
H1516 H 0.3835 0.40019 0.73329 0.0
H1517 H 0.4014 0.3516 0.72249 0.0
C1518 C 0.44192 0.33812 0.68434 0.0
C1519 C 0.4621 0.33401 0.66265 0.0
C1520 C 0.43086 0.36586 0.69008 0.0
C1521 C 0.47118 0.3579 0.64682 0.0
C1522 C 0.46119 0.38576 0.65319 0.0
C1523 C 0.43133 0.41814 0.68183 0.0
C1524 C 0.41044 0.42211 0.70287 0.0
C1525 C 0.44114 0.39007 0.6749 0.0
C1526 C 0.39939 0.39764 0.71681 0.0
C1527 C 0.40976 0.36988 0.71079 0.0
H1528 H 0.95045 0.1718 0.93965 0.0
H1529 H 0.9154 0.23346 0.88141 0.0
H1530 H 0.86631 0.22331 0.89832 0.0
H1531 H 0.83379 0.19894 0.93194 0.0
H1532 H 0.86759 0.13361 0.98642 0.0
H1533 H 0.91667 0.14298 0.96881 0.0
C1534 C 0.93193 0.18263 0.93037 0.0
C1535 C 0.9365 0.20337 0.90935 0.0
C1536 C 0.90362 0.17619 0.93974 0.0
C1537 C 0.91237 0.21721 0.8974 0.0
C1538 C 0.88434 0.21158 0.90723 0.0
C1539 C 0.85193 0.18665 0.93971 0.0
C1540 C 0.84734 0.16586 0.96062 0.0
C1541 C 0.87978 0.19147 0.92873 0.0
C1542 C 0.87075 0.14972 0.97031 0.0
C1543 C 0.89877 0.15513 0.9603 0.0
H1544 H 0.35651 0.09558 0.45447 0.0
H1545 H 0.28853 0.14806 0.42116 0.0
H1546 H 0.30217 0.13704 0.37073 0.0
H1547 H 0.33231 0.11057 0.33588 0.0
H1548 H 0.40384 0.06272 0.36969 0.0
H1549 H 0.3903 0.07392 0.42005 0.0
C1550 C 0.34494 0.10476 0.4361 0.0
C1551 C 0.32146 0.12241 0.44132 0.0
C1552 C 0.35358 0.09913 0.4073 0.0
C1553 C 0.30673 0.13448 0.41754 0.0
C1554 C 0.31446 0.1281 0.38875 0.0
C1555 C 0.34509 0.10295 0.35437 0.0
C1556 C 0.36896 0.0858 0.34917 0.0
C1557 C 0.33768 0.11022 0.38332 0.0
C1558 C 0.3855 0.07615 0.37321 0.0
C1559 C 0.37766 0.0824 0.40198 0.0
H1560 H 0.21016 0.03413 0.67948 0.0
H1561 H 0.14126 0.09433 0.68413 0.0
H1562 H 0.16077 0.11999 0.64353 0.0
H1563 H 0.19718 0.12523 0.60612 0.0
H1564 H 0.26545 0.06428 0.6013 0.0
H1565 H 0.24634 0.03929 0.6423 0.0
C1566 C 0.19937 0.0529 0.67174 0.0
C1567 C 0.17419 0.06217 0.68511 0.0
C1568 C 0.21058 0.06752 0.64814 0.0
C1569 C 0.16064 0.08657 0.67448 0.0
C1570 C 0.17179 0.10132 0.65115 0.0
C1571 C 0.20792 0.10648 0.61399 0.0
C1572 C 0.2328 0.09678 0.60034 0.0
C1573 C 0.19671 0.09196 0.63771 0.0
C1574 C 0.24629 0.07238 0.61109 0.0
C1575 C 0.23537 0.05799 0.63466 0.0
H1576 H 0.19894 0.93212 0.82245 0.0
H1577 H 0.12724 0.97887 0.8547 0.0
H1578 H 0.13801 0.96267 0.90413 0.0
H1579 H 0.16911 0.93645 0.93869 0.0
H1580 H 0.23715 0.88513 0.90521 0.0
H1581 H 0.22651 0.9015 0.85587 0.0
C1582 C 0.18563 0.93854 0.84033 0.0
C1583 C 0.16251 0.95683 0.83512 0.0
C1584 C 0.19129 0.92825 0.86846 0.0
C1585 C 0.14513 0.96476 0.85827 0.0
C1586 C 0.15133 0.95557 0.88652 0.0
C1587 C 0.18131 0.92862 0.92046 0.0
C1588 C 0.20389 0.90965 0.92553 0.0
C1589 C 0.17449 0.93747 0.89195 0.0
C1590 C 0.21949 0.89953 0.90176 0.0
C1591 C 0.21354 0.90903 0.87359 0.0
H1592 H 0.33174 0.91194 0.10084 0.0
H1593 H 0.2572 0.96553 0.10021 0.0
H1594 H 0.27904 0.99487 0.1432 0.0
H1595 H 0.31913 1.00576 0.18106 0.0
H1596 H 0.39406 0.95277 0.18208 0.0
H1597 H 0.3723 0.92314 0.13894 0.0
C1598 C 0.3202 0.92997 0.11013 0.0
C1599 C 0.29275 0.93633 0.09709 0.0
C1600 C 0.33301 0.94708 0.13498 0.0
C1601 C 0.27831 0.95996 0.10955 0.0
C1602 C 0.29081 0.97687 0.13423 0.0
C1603 C 0.33081 0.98776 0.17194 0.0
C1604 C 0.35826 0.98161 0.18507 0.0
C1605 C 0.31816 0.9707 0.14711 0.0
C1606 C 0.37294 0.95815 0.17261 0.0
C1607 C 0.36046 0.94109 0.14789 0.0
H1608 H 0.38299 0.38961 0.05244 0.0
H1609 H 0.33021 0.35633 0.11948 0.0
H1610 H 0.37261 0.33318 0.14114 0.0
H1611 H 0.42437 0.32031 0.13948 0.0
H1612 H 0.47506 0.34957 0.06903 0.0
H1613 H 0.43406 0.37631 0.05032 0.0
C1614 C 0.38091 0.37769 0.07207 0.0
C1615 C 0.35362 0.37507 0.08462 0.0
C1616 C 0.40504 0.36346 0.08365 0.0
C1617 C 0.35106 0.35886 0.10958 0.0
C1618 C 0.37528 0.34554 0.1219 0.0
C1619 C 0.42644 0.33276 0.12018 0.0
C1620 C 0.45277 0.33305 0.10574 0.0
C1621 C 0.40233 0.34738 0.10892 0.0
C1622 C 0.45501 0.34891 0.0805 0.0
C1623 C 0.43158 0.36426 0.0698 0.0
H1624 H 0.92774 0.82709 0.19142 0.0
H1625 H 0.99629 0.86438 0.14198 0.0
H1626 H 0.98024 0.91374 0.15341 0.0
H1627 H 0.94766 0.94652 0.17927 0.0
H1628 H 0.87575 0.90867 0.22403 0.0
H1629 H 0.89179 0.85942 0.21251 0.0
C1630 C 0.93893 0.84608 0.18301 0.0
C1631 C 0.96325 0.84228 0.16608 0.0
C1632 C 0.92892 0.87426 0.18883 0.0
C1633 C 0.97747 0.86688 0.15499 0.0
C1634 C 0.96835 0.89507 0.16161 0.0
C1635 C 0.93536 0.92741 0.18617 0.0
C1636 C 0.91062 0.93119 0.20255 0.0
C1637 C 0.94424 0.89907 0.17872 0.0
C1638 C 0.89474 0.9063 0.21122 0.0
C1639 C 0.904 0.87814 0.20479 0.0
H1640 H 0.17854 0.66272 0.58304 0.0
H1641 H 0.19316 0.73046 0.52281 0.0
H1642 H 0.1508 0.75473 0.53941 0.0
H1643 H 0.1093 0.75716 0.5706 0.0
H1644 H 0.09449 0.69064 0.63193 0.0
H1645 H 0.13694 0.66577 0.61531 0.0
C1646 C 0.17256 0.68283 0.57359 0.0
C1647 C 0.18935 0.69455 0.55159 0.0
C1648 C 0.14794 0.69703 0.58338 0.0
C1649 C 0.18097 0.72072 0.53973 0.0
C1650 C 0.15659 0.73473 0.5492 0.0
C1651 C 0.11522 0.7372 0.58041 0.0
C1652 C 0.09838 0.72587 0.6025 0.0
C1653 C 0.13986 0.7231 0.57094 0.0
C1654 C 0.1068 0.69998 0.61488 0.0
C1655 C 0.13118 0.68569 0.60537 0.0
H1656 H 1.01251 0.63329 0.66029 0.0
H1657 H 0.96221 0.70379 0.69249 0.0
H1658 H 0.92926 0.66868 0.71473 0.0
H1659 H 0.91674 0.61784 0.72805 0.0
H1660 H 0.96705 0.54792 0.69383 0.0
H1661 H 0.99753 0.58274 0.66958 0.0
C1662 C 0.99417 0.64097 0.67191 0.0
C1663 C 0.99002 0.67113 0.67481 0.0
C1664 C 0.97527 0.62069 0.68462 0.0
C1665 C 0.96593 0.68066 0.68977 0.0
C1666 C 0.94713 0.66058 0.70268 0.0
C1667 C 0.93418 0.6102 0.71508 0.0
C1668 C 0.9397 0.58019 0.71342 0.0
C1669 C 0.95186 0.63052 0.70072 0.0
C1670 C 0.96232 0.57082 0.69612 0.0
C1671 C 0.97991 0.59076 0.68207 0.0
H1672 H 0.1906 0.17938 0.44458 0.0
H1673 H 0.14735 0.16247 0.52354 0.0
H1674 H 0.10261 0.18264 0.50308 0.0
H1675 H 0.07624 0.20524 0.46298 0.0
H1676 H 0.12131 0.22808 0.38648 0.0
H1677 H 0.16482 0.20504 0.40545 0.0
C1678 C 0.17122 0.17997 0.45711 0.0
C1679 C 0.17191 0.16907 0.48528 0.0
C1680 C 0.14606 0.19269 0.44567 0.0
C1681 C 0.14709 0.17054 0.50173 0.0
C1682 C 0.12161 0.18208 0.49004 0.0
C1683 C 0.09561 0.20565 0.45054 0.0
C1684 C 0.0954 0.21879 0.4234 0.0
C1685 C 0.1209 0.19334 0.46209 0.0
C1686 C 0.12077 0.21841 0.4075 0.0
C1687 C 0.14569 0.20517 0.41833 0.0
H1688 H 0.64322 0.41467 0.2277 0.0
H1689 H 0.59175 0.46929 0.17375 0.0
H1690 H 0.56717 0.4256 0.14734 0.0
H1691 H 0.55873 0.37172 0.1409 0.0
H1692 H 0.60925 0.31765 0.19639 0.0
H1693 H 0.63567 0.36126 0.22061 0.0
C1694 C 0.6268 0.41713 0.21002 0.0
C1695 C 0.61943 0.44538 0.20283 0.0
C1696 C 0.61242 0.39192 0.19517 0.0
C1697 C 0.59792 0.44792 0.17988 0.0
C1698 C 0.58379 0.4229 0.16474 0.0
C1699 C 0.5757 0.36944 0.15811 0.0
C1700 C 0.58187 0.34131 0.16674 0.0
C1701 C 0.59064 0.39476 0.17238 0.0
C1702 C 0.60385 0.33892 0.18927 0.0
C1703 C 0.61904 0.36389 0.2032 0.0
H1704 H 0.34096 0.86564 0.93718 0.0
H1705 H 0.36687 0.84824 0.02655 0.0
H1706 H 0.40754 0.8211 1.00953 0.0
H1707 H 0.43377 0.79983 0.96954 0.0
H1708 H 0.40729 0.81443 0.87955 0.0
H1709 H 0.3688 0.84515 0.89654 0.0
C1710 C 0.35587 0.85636 0.95292 0.0
C1711 C 0.35102 0.85911 0.98313 0.0
C1712 C 0.37883 0.83997 0.94286 0.0
C1713 C 0.37018 0.84649 1.00322 0.0
C1714 C 0.39337 0.83087 0.9935 0.0
C1715 C 0.41971 0.80973 0.9535 0.0
C1716 C 0.42338 0.80458 0.92324 0.0
C1717 C 0.39755 0.82701 0.96338 0.0
C1718 C 0.40491 0.81783 0.90295 0.0
C1719 C 0.38291 0.83545 0.91267 0.0
H1720 H 0.97107 0.44034 0.81146 0.0
H1721 H 0.8813 0.40732 0.81704 0.0
H1722 H 0.89822 0.36749 0.84597 0.0
H1723 H 0.93911 0.34017 0.86671 0.0
H1724 H 0.02841 0.37284 0.85779 0.0
H1725 H 1.011 0.41488 0.83329 0.0
C1726 C 0.95504 0.42456 0.819 0.0
C1727 C 0.92492 0.42672 0.81178 0.0
C1728 C 0.96491 0.40164 0.8351 0.0
C1729 C 0.90462 0.40612 0.82211 0.0
C1730 C 0.9143 0.38333 0.83865 0.0
C1731 C 0.95467 0.35683 0.85987 0.0
C1732 C 0.98501 0.3535 0.86413 0.0
C1733 C 0.94446 0.38063 0.84493 0.0
C1734 C 1.00497 0.37494 0.85474 0.0
C1735 C 0.99504 0.39892 0.84065 0.0
H1736 H 0.37121 0.14242 0.55226 0.0
H1737 H 0.31903 0.19603 0.60705 0.0
H1738 H 0.36359 0.21951 0.63263 0.0
H1739 H 0.41755 0.22628 0.63834 0.0
H1740 H 0.46944 0.17368 0.58226 0.0
H1741 H 0.4249 0.14844 0.5586 0.0
C1742 C 0.36949 0.15911 0.56992 0.0
C1743 C 0.34163 0.16737 0.57758 0.0
C1744 C 0.39525 0.17284 0.58438 0.0
C1745 C 0.34005 0.18918 0.60051 0.0
C1746 C 0.36559 0.20267 0.61522 0.0
C1747 C 0.41916 0.20911 0.62114 0.0
C1748 C 0.44696 0.20199 0.6122 0.0
C1749 C 0.39334 0.19487 0.60719 0.0
C1750 C 0.44846 0.17978 0.58965 0.0
C1751 C 0.42294 0.16528 0.57602 0.0
H1752 H 0.56662 0.66772 0.37813 0.0
H1753 H 0.56906 0.72116 0.30357 0.0
H1754 H 0.59196 0.68326 0.27558 0.0
H1755 H 0.61174 0.6345 0.27153 0.0
H1756 H 0.61594 0.58346 0.34755 0.0
H1757 H 0.59058 0.62053 0.37548 0.0
C1758 C 0.57205 0.67102 0.35575 0.0
C1759 C 0.56492 0.69706 0.34284 0.0
C1760 C 0.58678 0.64948 0.33991 0.0
C1761 C 0.57307 0.70112 0.314 0.0
C1762 C 0.58656 0.67946 0.29787 0.0
C1763 C 0.60718 0.63165 0.29425 0.0
C1764 C 0.61563 0.60636 0.30745 0.0
C1765 C 0.59344 0.65349 0.31048 0.0
C1766 C 0.60983 0.60294 0.33699 0.0
C1767 C 0.5952 0.62406 0.35294 0.0
H1768 H 0.09283 0.84031 0.10807 0.0
H1769 H 0.13873 0.76253 0.12253 0.0
H1770 H 0.18138 0.78347 0.0992 0.0
H1771 H 0.20516 0.82358 0.07435 0.0
H1772 H 0.15717 0.89897 0.05445 0.0
H1773 H 0.11586 0.87947 0.08045 0.0
C1774 C 0.11235 0.82816 0.10633 0.0
C1775 C 0.11301 0.80019 0.11746 0.0
C1776 C 0.13625 0.83985 0.09179 0.0
C1777 C 0.13796 0.78422 0.11438 0.0
C1778 C 0.16226 0.79616 0.101 0.0
C1779 C 0.18562 0.83569 0.0753 0.0
C1780 C 0.18439 0.8627 0.06213 0.0
C1781 C 0.16158 0.82389 0.08947 0.0
C1782 C 0.1588 0.87808 0.06413 0.0
C1783 C 0.13515 0.86696 0.07908 0.0
H1784 H 0.74344 0.93364 0.62653 0.0
H1785 H 0.66928 0.93577 0.56386 0.0
H1786 H 0.64248 0.96238 0.60045 0.0
H1787 H 0.64061 0.98704 0.64984 0.0
H1788 H 0.71598 0.9876 0.71158 0.0
H1789 H 0.74151 0.95828 0.67607 0.0
C1790 C 0.72128 0.9396 0.62107 0.0
C1791 C 0.70837 0.93253 0.59253 0.0
C1792 C 0.70618 0.95575 0.64206 0.0
C1793 C 0.67979 0.94091 0.58565 0.0
C1794 C 0.66441 0.9562 0.60657 0.0
C1795 C 0.66257 0.98066 0.65556 0.0
C1796 C 0.67626 0.98968 0.6834 0.0
C1797 C 0.67748 0.96409 0.63477 0.0
C1798 C 0.70486 0.98124 0.69029 0.0
C1799 C 0.71953 0.96433 0.66999 0.0
H1800 H 0.81152 0.9872 0.3452 0.0
H1801 H 0.90112 0.97266 0.37264 0.0
H1802 H 0.88412 0.94633 0.41418 0.0
H1803 H 0.84351 0.92862 0.44353 0.0
H1804 H 0.75449 0.94559 0.41617 0.0
H1805 H 0.77159 0.96948 0.37361 0.0
C1806 C 0.82745 0.97825 0.36015 0.0
C1807 C 0.85761 0.982 0.35575 0.0
C1808 C 0.81756 0.96342 0.384 0.0
C1809 C 0.8778 0.97025 0.37553 0.0
C1810 C 0.86806 0.95511 0.39926 0.0
C1811 C 0.82787 0.93722 0.42802 0.0
C1812 C 0.79773 0.93519 0.43297 0.0
C1813 C 0.83796 0.95165 0.40379 0.0
C1814 C 0.77778 0.94685 0.41291 0.0
C1815 C 0.78754 0.96059 0.38857 0.0
H1816 H 0.84359 0.11187 0.09833 0.0
H1817 H 0.75593 0.10448 0.12788 0.0
H1818 H 0.77392 0.08056 0.17139 0.0
H1819 H 0.81446 0.06169 0.20074 0.0
H1820 H 0.90129 0.0641 0.16866 0.0
H1821 H 0.88383 0.09019 0.12652 0.0
C1822 C 0.82851 0.10521 0.11445 0.0
C1823 C 0.79853 0.11033 0.11019 0.0
C1824 C 0.83887 0.09048 0.13884 0.0
C1825 C 0.77909 0.10094 0.13082 0.0
C1826 C 0.78939 0.08725 0.15565 0.0
C1827 C 0.82961 0.06759 0.18448 0.0
C1828 C 0.85921 0.06069 0.188 0.0
C1829 C 0.81921 0.08182 0.15984 0.0
C1830 C 0.87839 0.06889 0.16658 0.0
C1831 C 0.86842 0.08391 0.14246 0.0
H1832 H 0.68331 0.10564 0.83539 0.0
H1833 H 0.62609 0.04534 0.87786 0.0
H1834 H 0.64706 0.06524 0.92596 0.0
H1835 H 0.68352 0.09797 0.95609 0.0
H1836 H 0.74045 0.15835 0.91329 0.0
H1837 H 0.71771 0.14013 0.86549 0.0
C1838 C 0.67522 0.09694 0.85513 0.0
C1839 C 0.65322 0.07382 0.8528 0.0
C1840 C 0.68749 0.10836 0.88283 0.0
C1841 C 0.64297 0.06309 0.87879 0.0
C1842 C 0.65505 0.07439 0.90641 0.0
C1843 C 0.69089 0.10728 0.93635 0.0
C1844 C 0.71389 0.12943 0.93851 0.0
C1845 C 0.67764 0.09673 0.9087 0.0
C1846 C 0.72289 0.14127 0.91253 0.0
C1847 C 0.7099 0.13084 0.88505 0.0
H1848 H 0.61485 0.72496 0.91521 0.0
H1849 H 0.54654 0.68704 0.96509 0.0
H1850 H 0.58298 0.66636 0.99707 0.0
H1851 H 0.63434 0.66141 0.01336 0.0
H1852 H 0.70315 0.69731 0.96315 0.0
H1853 H 0.66661 0.71592 0.92896 0.0
C1854 C 0.60791 0.71192 0.93286 0.0
C1855 C 0.57785 0.70817 0.93786 0.0
C1856 C 0.62914 0.69969 0.95136 0.0
C1857 C 0.56943 0.69085 0.96078 0.0
C1858 C 0.5903 0.6789 0.97922 0.0
C1859 C 0.64134 0.67308 0.99479 0.0
C1860 C 0.67144 0.67809 0.991 0.0
C1861 C 0.62022 0.68361 0.9751 0.0
C1862 C 0.68011 0.69303 0.96661 0.0
C1863 C 0.6592 0.70383 0.94707 0.0
H1864 H 0.13852 0.13836 0.80128 0.0
H1865 H 0.06345 0.07688 0.80366 0.0
H1866 H 0.03997 0.11158 0.83579 0.0
H1867 H 0.03938 0.16058 0.86136 0.0
H1868 H 0.11295 0.2232 0.85634 0.0
H1869 H 0.13831 0.18704 0.82758 0.0
C1870 C 0.11712 0.13251 0.80899 0.0
C1871 C 0.1028 0.10509 0.79992 0.0
C1872 C 0.10337 0.15286 0.82711 0.0
C1873 C 0.07496 0.09793 0.81005 0.0
C1874 C 0.06147 0.11775 0.82854 0.0
C1875 C 0.06114 0.16609 0.85433 0.0
C1876 C 0.07428 0.19446 0.86108 0.0
C1877 C 0.07529 0.14542 0.83698 0.0
C1878 C 0.10231 0.20149 0.8514 0.0
C1879 C 0.11684 0.18084 0.83488 0.0
H1880 H 0.93648 0.33859 0.4255 0.0
H1881 H 0.91368 0.25051 0.44863 0.0
H1882 H 0.87484 0.26838 0.47803 0.0
H1883 H 0.84874 0.30902 0.49877 0.0
H1884 H 0.87242 0.39764 0.47766 0.0
H1885 H 0.90971 0.3796 0.44614 0.0
C1886 C 0.92265 0.32329 0.43657 0.0
C1887 C 0.92776 0.29322 0.43466 0.0
C1888 C 0.90085 0.33386 0.45418 0.0
C1889 C 0.91008 0.27372 0.44964 0.0
C1890 C 0.88797 0.28394 0.46657 0.0
C1891 C 0.86205 0.32448 0.48734 0.0
C1892 C 0.85783 0.35469 0.49075 0.0
C1893 C 0.88345 0.31399 0.46934 0.0
C1894 C 0.87531 0.3743 0.47566 0.0
C1895 C 0.89656 0.36398 0.45749 0.0
H1896 H 0.63008 0.90686 0.80815 0.0
H1897 H 0.57281 0.96388 0.85263 0.0
H1898 H 0.55455 0.92341 0.88018 0.0
H1899 H 0.55273 0.87125 0.88993 0.0
H1900 H 0.60676 0.81296 0.84281 0.0
H1901 H 0.6285 0.85432 0.81833 0.0
C1902 C 0.6138 0.91045 0.82406 0.0
C1903 C 0.60287 0.93842 0.82829 0.0
C1904 C 0.60276 0.88677 0.83941 0.0
C1905 C 0.58153 0.94259 0.84879 0.0
C1906 C 0.57108 0.91944 0.86464 0.0
C1907 C 0.5696 0.86765 0.87466 0.0
C1908 C 0.57829 0.83907 0.86844 0.0
C1909 C 0.58127 0.89137 0.85992 0.0
C1910 C 0.59976 0.83475 0.8481 0.0
C1911 C 0.61214 0.8584 0.83402 0.0
H1912 H 0.94559 0.17749 0.37811 0.0
H1913 H 0.0188 0.1787 0.32266 0.0
H1914 H 0.99612 0.13643 0.29292 0.0
H1915 H 0.95573 0.09914 0.28215 0.0
H1916 H 0.88205 0.09725 0.33689 0.0
H1917 H 0.90461 0.13974 0.36702 0.0
C1918 C 0.95667 0.16845 0.35961 0.0
C1919 C 0.98399 0.18147 0.35283 0.0
C1920 C 0.94335 0.14402 0.34224 0.0
C1921 C 0.99781 0.16938 0.32857 0.0
C1922 C 0.98483 0.14511 0.31143 0.0
C1923 C 0.94447 0.10792 0.30064 0.0
C1924 C 0.91714 0.09475 0.30712 0.0
C1925 C 0.95759 0.1323 0.31797 0.0
C1926 C 0.90304 0.10678 0.33122 0.0
C1927 C 0.91599 0.13111 0.34857 0.0
H1928 H 0.6269 0.10303 0.69988 0.0
H1929 H 0.56289 0.09889 0.7655 0.0
H1930 H 0.53826 0.13893 0.7447 0.0
H1931 H 0.53414 0.17539 0.70811 0.0
H1932 H 0.59672 0.17989 0.64131 0.0
H1933 H 0.62222 0.13981 0.66223 0.0
C1934 C 0.6076 0.1109 0.70964 0.0
C1935 C 0.59701 0.09764 0.73438 0.0
C1936 C 0.59305 0.13417 0.69732 0.0
C1937 C 0.57178 0.10831 0.74652 0.0
C1938 C 0.55753 0.13138 0.73462 0.0
C1939 C 0.55336 0.16771 0.69801 0.0
C1940 C 0.56336 0.18092 0.67309 0.0
C1941 C 0.56788 0.14449 0.71003 0.0
C1942 C 0.58834 0.17031 0.66046 0.0
C1943 C 0.60303 0.14731 0.67246 0.0
H1944 H 0.18551 0.33229 1.00831 0.0
H1945 H 0.18762 0.40133 0.94803 0.0
H1946 H 0.14459 0.37767 0.91996 0.0
H1947 H 0.10641 0.33737 0.91221 0.0
H1948 H 0.10509 0.26769 0.97177 0.0
H1949 H 0.14777 0.29163 1.00017 0.0
C1950 C 0.17669 0.34219 0.989 0.0
C1951 C 0.19004 0.36857 0.98035 0.0
C1952 C 0.15199 0.32835 0.97272 0.0
C1953 C 0.17801 0.38102 0.95526 0.0
C1954 C 0.15332 0.3675 0.93914 0.0
C1955 C 0.11538 0.32737 0.93142 0.0
C1956 C 0.10226 0.30079 0.93985 0.0
C1957 C 0.14015 0.34114 0.94762 0.0
C1958 C 0.11447 0.28818 0.96474 0.0
C1959 C 0.13897 0.30186 0.98105 0.0
H1960 H 0.45221 0.67845 0.44131 0.0
H1961 H 0.41307 0.72591 0.37201 0.0
H1962 H 0.36451 0.71624 0.39032 0.0
H1963 H 0.33324 0.69609 0.42756 0.0
H1964 H 0.37136 0.64438 0.49374 0.0
H1965 H 0.42013 0.65376 0.47532 0.0
C1966 C 0.43295 0.68631 0.43004 0.0
C1967 C 0.43624 0.70289 0.40535 0.0
C1968 C 0.40494 0.68007 0.44031 0.0
C1969 C 0.41111 0.71286 0.39087 0.0
C1970 C 0.38335 0.70752 0.40146 0.0
C1971 C 0.35228 0.68678 0.43775 0.0
C1972 C 0.34896 0.66984 0.4621 0.0
C1973 C 0.38002 0.69146 0.42638 0.0
C1974 C 0.37356 0.65753 0.47499 0.0
C1975 C 0.40139 0.66293 0.46448 0.0
H1976 H 0.89124 0.55159 0.87795 0.0
H1977 H 0.85123 0.61447 0.82449 0.0
H1978 H 0.82916 0.6362 0.8677 0.0
H1979 H 0.81962 0.63593 0.92059 0.0
H1980 H 0.85561 0.56934 0.9722 0.0
H1981 H 0.88086 0.55051 0.93001 0.0
C1982 C 0.87803 0.57032 0.87583 0.0
C1983 C 0.87327 0.58171 0.84813 0.0
C1984 C 0.86451 0.5819 0.9005 0.0
C1985 C 0.85542 0.60547 0.84562 0.0
C1986 C 0.84275 0.61783 0.87031 0.0
C1987 C 0.8332 0.61745 0.92259 0.0
C1988 C 0.83592 0.60418 0.94957 0.0
C1989 C 0.84691 0.60606 0.89785 0.0
C1990 C 0.85316 0.57993 0.95171 0.0
C1991 C 0.86763 0.56917 0.92758 0.0
H1992 H 0.66299 0.58853 0.17806 0.0
H1993 H 0.72575 0.52233 0.18723 0.0
H1994 H 0.75143 0.54039 0.14638 0.0
H1995 H 0.75641 0.57438 0.10754 0.0
H1996 H 0.69447 0.64107 0.09759 0.0
H1997 H 0.66849 0.62342 0.13894 0.0
C1998 C 0.68234 0.57811 0.17122 0.0
C1999 C 0.69224 0.55402 0.18607 0.0
C2000 C 0.69729 0.58864 0.14735 0.0
C2001 C 0.7174 0.54088 0.17657 0.0
C2002 C 0.73223 0.55118 0.15304 0.0
C2003 C 0.73723 0.58517 0.1143 0.0
C2004 C 0.7275 0.60905 0.09914 0.0
C2005 C 0.72238 0.57496 0.1382 0.0
C2006 C 0.70257 0.62262 0.10859 0.0
C2007 C 0.68764 0.61252 0.13234 0.0
H2008 H 0.65214 0.42388 0.43693 0.0
H2009 H 0.74419 0.41527 0.4248 0.0
H2010 H 0.73756 0.43034 0.37484 0.0
H2011 H 0.70658 0.44891 0.33543 0.0
H2012 H 0.61438 0.45696 0.34642 0.0
H2013 H 0.62014 0.43909 0.39572 0.0
C2014 C 0.67068 0.42493 0.42325 0.0
C2015 C 0.69868 0.41862 0.43491 0.0
C2016 C 0.66677 0.43376 0.3943 0.0
C2017 C 0.72239 0.42009 0.41668 0.0
C2018 C 0.71867 0.42882 0.38801 0.0
C2019 C 0.68769 0.44664 0.34853 0.0
C2020 C 0.66014 0.45451 0.33729 0.0
C2021 C 0.69112 0.43623 0.37677 0.0
C2022 C 0.63585 0.45108 0.35449 0.0
C2023 C 0.63914 0.44092 0.38275 0.0
H2024 H 0.83243 0.49859 0.68144 0.0
H2025 H 0.89719 0.43454 0.69167 0.0
H2026 H 0.87435 0.4052 0.64891 0.0
H2027 H 0.83608 0.39764 0.60831 0.0
H2028 H 0.77094 0.46146 0.59888 0.0
H2029 H 0.7938 0.49064 0.64156 0.0
C2030 C 0.84158 0.47818 0.67445 0.0
C2031 C 0.86655 0.4689 0.68999 0.0
C2032 C 0.82824 0.46124 0.64986 0.0
C2033 C 0.87799 0.44234 0.68033 0.0
C2034 C 0.86493 0.42548 0.65579 0.0
C2035 C 0.82682 0.41791 0.61556 0.0
C2036 C 0.80183 0.42726 0.60008 0.0
C2037 C 0.84004 0.4347 0.64036 0.0
C2038 C 0.79019 0.45361 0.61008 0.0
C2039 C 0.80326 0.47041 0.63459 0.0
H2040 H 0.46115 0.08508 0.21742 0.0
H2041 H 0.37617 0.12101 0.21867 0.0
H2042 H 0.39487 0.16339 0.19363 0.0
H2043 H 0.43607 0.191 0.17243 0.0
H2044 H 0.52181 0.15673 0.17631 0.0
H2045 H 0.50216 0.11294 0.19834 0.0
C2046 C 0.44664 0.10218 0.21249 0.0
C2047 C 0.41727 0.09976 0.2202 0.0
C2048 C 0.45774 0.1268 0.19884 0.0
C2049 C 0.39891 0.12226 0.21325 0.0
C2050 C 0.40959 0.1465 0.19883 0.0
C2051 C 0.45027 0.17372 0.17783 0.0
C2052 C 0.48025 0.17679 0.17239 0.0
C2053 C 0.43902 0.14908 0.1916 0.0
C2054 C 0.49865 0.15468 0.18012 0.0
C2055 C 0.48743 0.12971 0.19277 0.0
H2056 H 0.06124 0.87136 0.63237 0.0
H2057 H 0.10155 0.81657 0.69486 0.0
H2058 H 0.12814 0.85958 0.72025 0.0
H2059 H 0.1377 0.91323 0.72672 0.0
H2060 H 0.09583 0.96791 0.66519 0.0
H2061 H 0.07247 0.92456 0.63749 0.0
C2062 C 0.07602 0.86873 0.65138 0.0
C2063 C 0.07916 0.84067 0.66168 0.0
C2064 C 0.09102 0.89364 0.66621 0.0
C2065 C 0.09848 0.83785 0.68643 0.0
C2066 C 0.11375 0.86248 0.70103 0.0
C2067 C 0.12382 0.91564 0.707 0.0
C2068 C 0.11854 0.94384 0.69815 0.0
C2069 C 0.10989 0.89055 0.69139 0.0
C2070 C 0.10023 0.94651 0.67266 0.0
C2071 C 0.08678 0.9217 0.65677 0.0
H2072 H 0.48483 0.85108 0.31523 0.0
H2073 H 0.46426 0.87172 0.40486 0.0
H2074 H 0.43562 0.91212 0.38868 0.0
H2075 H 0.41785 0.9426 0.34874 0.0
H2076 H 0.44119 0.92173 0.26002 0.0
H2077 H 0.467 0.88002 0.27619 0.0
C2078 C 0.47408 0.86423 0.33139 0.0
C2079 C 0.47681 0.8583 0.36128 0.0
C2080 C 0.45796 0.88732 0.32199 0.0
C2081 C 0.46268 0.87583 0.38174 0.0
C2082 C 0.44622 0.89888 0.37246 0.0
C2083 C 0.42822 0.92858 0.33297 0.0
C2084 C 0.42748 0.93511 0.30318 0.0
C2085 C 0.44381 0.90492 0.3426 0.0
C2086 C 0.44143 0.91713 0.28302 0.0
C2087 C 0.45627 0.89334 0.29226 0.0
H2088 H 0.87398 0.64125 0.05986 0.0
H2089 H 0.81875 0.70126 0.10337 0.0
H2090 H 0.86174 0.72617 0.13045 0.0
H2091 H 0.91522 0.73222 0.14065 0.0
H2092 H 0.9706 0.67324 0.09592 0.0
H2093 H 0.92742 0.64678 0.0707 0.0
C2094 C 0.87126 0.65964 0.07541 0.0
C2095 C 0.84301 0.66927 0.07945 0.0
C2096 C 0.89619 0.67422 0.09072 0.0
C2097 C 0.84012 0.69331 0.09965 0.0
C2098 C 0.86474 0.70764 0.1152 0.0
C2099 C 0.9179 0.71345 0.12556 0.0
C2100 C 0.94627 0.70485 0.12029 0.0
C2101 C 0.89292 0.69846 0.11075 0.0
C2102 C 0.94914 0.68051 0.10046 0.0
C2103 C 0.92441 0.6653 0.08596 0.0
H2104 H 0.59513 0.30758 0.57736 0.0
H2105 H 0.64782 0.28219 0.65204 0.0
H2106 H 0.69048 0.3104 0.63613 0.0
H2107 H 0.71331 0.34027 0.59981 0.0
H2108 H 0.66031 0.36729 0.52609 0.0
H2109 H 0.61716 0.34072 0.54306 0.0
C2110 C 0.61594 0.30829 0.59021 0.0
C2111 C 0.61837 0.29251 0.6157 0.0
C2112 C 0.64027 0.32488 0.58115 0.0
C2113 C 0.64535 0.29405 0.63234 0.0
C2114 C 0.66977 0.31014 0.62321 0.0
C2115 C 0.69227 0.34058 0.58754 0.0
C2116 C 0.69014 0.35564 0.56155 0.0
C2117 C 0.66755 0.32536 0.59749 0.0
C2118 C 0.66261 0.356 0.54617 0.0
C2119 C 0.63795 0.34065 0.55578 0.0
H2120 H 0.25069 0.43291 0.12858 0.0
H2121 H 0.17861 0.44054 0.06473 0.0
H2122 H 0.1517 0.46637 0.10179 0.0
H2123 H 0.1497 0.48948 0.15171 0.0
H2124 H 0.22318 0.48467 0.21479 0.0
H2125 H 0.24827 0.45532 0.17894 0.0
C2126 C 0.2289 0.43982 0.12301 0.0
C2127 C 0.21662 0.43469 0.09404 0.0
C2128 C 0.21386 0.45556 0.14426 0.0
C2129 C 0.18856 0.44425 0.08692 0.0
C2130 C 0.17316 0.4591 0.10808 0.0
C2131 C 0.17112 0.48188 0.15766 0.0
C2132 C 0.1845 0.48945 0.18589 0.0
C2133 C 0.18577 0.46535 0.13671 0.0
C2134 C 0.21238 0.47943 0.19314 0.0
C2135 C 0.22678 0.46252 0.17266 0.0
H2136 H 0.32057 0.49429 0.84735 0.0
H2137 H 0.40933 0.47139 0.86749 0.0
H2138 H 0.39338 0.44653 0.91039 0.0
H2139 H 0.35387 0.432 0.94271 0.0
H2140 H 0.2659 0.45717 0.92211 0.0
H2141 H 0.28191 0.48013 0.8787 0.0
C2142 C 0.33655 0.48386 0.86101 0.0
C2143 C 0.36614 0.48476 0.85415 0.0
C2144 C 0.32729 0.46984 0.88556 0.0
C2145 C 0.38643 0.47117 0.87231 0.0
C2146 C 0.37729 0.45686 0.8968 0.0
C2147 C 0.33822 0.44225 0.9285 0.0
C2148 C 0.30871 0.44278 0.93562 0.0
C2149 C 0.34773 0.45607 0.90367 0.0
C2150 C 0.28874 0.45649 0.91721 0.0
C2151 C 0.29786 0.46968 0.89237 0.0
H2152 H 0.3427 0.60781 0.59372 0.0
H2153 H 0.25868 0.61077 0.6312 0.0
H2154 H 0.27742 0.58554 0.6736 0.0
H2155 H 0.31771 0.56297 0.69986 0.0
H2156 H 0.40011 0.55485 0.65981 0.0
H2157 H 0.3821 0.5819 0.6186 0.0
C2158 C 0.32862 0.60307 0.61133 0.0
C2159 C 0.29951 0.61157 0.60972 0.0
C2160 C 0.33923 0.58755 0.63503 0.0
C2161 C 0.2812 0.60465 0.63218 0.0
C2162 C 0.29192 0.59021 0.65635 0.0
C2163 C 0.33171 0.56671 0.68204 0.0
C2164 C 0.36029 0.55665 0.68308 0.0
C2165 C 0.32089 0.58152 0.65797 0.0
C2166 C 0.37802 0.56211 0.65967 0.0
C2167 C 0.36774 0.57769 0.63609 0.0
H2168 H 0.18783 0.60716 0.33599 0.0
H2169 H 0.12893 0.54788 0.37768 0.0
H2170 H 0.14845 0.56876 0.42607 0.0
H2171 H 0.1844 0.60187 0.45659 0.0
H2172 H 0.24291 0.66111 0.4142 0.0
H2173 H 0.2213 0.64216 0.36621 0.0
C2174 C 0.17902 0.59891 0.35561 0.0
C2175 C 0.15702 0.57581 0.35307 0.0
C2176 C 0.19044 0.61088 0.38336 0.0
C2177 C 0.14581 0.56565 0.37886 0.0
C2178 C 0.15708 0.57749 0.4066 0.0
C2179 C 0.19233 0.61079 0.43689 0.0
C2180 C 0.21549 0.63279 0.4392 0.0
C2181 C 0.17975 0.5998 0.40913 0.0
C2182 C 0.22523 0.64416 0.41329 0.0
C2183 C 0.2129 0.6333 0.38572 0.0
loop_
_geom_bond_atom_site_label_1
_geom_bond_atom_site_label_2
_geom_bond_distance
_geom_bond_site_symmetry_2
_ccdc_geom_bond_type
Co0 O2 2.143 . S
Co0 O8 2.074 1_655 S
Co0 O11 2.093 . S
Co0 O24 2.097 . S
Co0 N41 2.151 1_655 S
Co0 N49 2.214 . S
Co1 O2 2.160 1_455 S
Co1 O7 2.058 . S
Co1 O17 2.057 . S
Co1 O32 2.037 1_455 S
Co1 N36 2.145 . S
Co1 N57 2.257 1_455 S
O2 Co0 2.143 . S
O2 Co1 2.160 1_655 S
C3 O4 1.278 . S
C3 O11 1.224 . S
O4 C3 1.278 . S
C5 O6 1.245 . S
C5 O17 1.232 . S
O6 C5 1.245 . S
O7 Co1 2.058 . S
O7 C33 1.269 . S
O8 Co0 2.074 1_455 S
O8 C33 1.257 . S
H9 C34 0.930 . S
H10 C40 0.930 . S
O11 Co0 2.093 . S
O11 C3 1.224 . S
H12 C44 0.929 . S
H13 C46 0.930 . S
H14 C47 0.930 . S
H15 C45 0.929 . S
H16 C48 0.928 . S
O17 Co1 2.057 . S
O17 C5 1.232 . S
H18 C37 0.929 . S
H19 C38 0.929 . S
H20 C50 0.931 . S
H21 C42 0.929 . S
H22 C51 0.930 . S
H23 C43 0.931 . S
O24 Co0 2.097 . S
O24 C52 1.214 . S
H25 C53 0.929 . S
H26 C54 0.929 . S
H27 C55 0.930 . S
H28 C56 0.929 . S
H29 C58 0.930 . S
H30 C35 0.930 . S
H31 C39 0.930 . S
O32 Co1 2.037 1_655 S
O32 C52 1.234 . S
C33 O7 1.269 . S
C33 O8 1.257 . S
C34 H9 0.930 . S
C34 C37 1.388 . S
C34 C39 1.418 . S
C35 H30 0.930 . S
C35 C38 1.404 . S
C35 C39 1.353 . S
N36 Co1 2.145 . S
N36 C37 1.397 . S
N36 C38 1.334 . S
C37 H18 0.929 . S
C37 C34 1.388 . S
C37 N36 1.397 . S
C38 H19 0.929 . S
C38 C35 1.404 . S
C38 N36 1.334 . S
C39 H31 0.930 . S
C39 C34 1.418 . S
C39 C35 1.353 . S
C40 H10 0.930 . S
C40 N41 1.330 1_655 S
C40 C42 1.446 1_655 S
N41 Co0 2.151 1_455 S
N41 C40 1.330 1_455 S
N41 C45 1.418 . S
C42 H21 0.929 . S
C42 C40 1.446 1_455 S
C42 C43 1.332 . S
C43 H23 0.931 . S
C43 C42 1.332 . S
C43 C44 1.267 . S
C44 H12 0.929 . S
C44 C43 1.267 . S
C44 C45 1.251 . S
C45 H15 0.929 . S
C45 N41 1.418 . S
C45 C44 1.251 . S
C46 H13 0.930 . S
C46 C48 1.406 . S
C46 C51 1.261 . S
C47 H14 0.930 . S
C47 N49 1.325 . S
C47 C50 1.357 . S
C48 H16 0.928 . S
C48 C46 1.406 . S
C48 N49 1.261 . S
N49 Co0 2.214 . S
N49 C47 1.325 . S
N49 C48 1.261 . S
C50 H20 0.931 . S
C50 C47 1.357 . S
C50 C51 1.312 . S
C51 H22 0.930 . S
C51 C46 1.261 . S
C51 C50 1.312 . S
C52 O24 1.214 . S
C52 O32 1.234 . S
C53 H25 0.929 . S
C53 C56 1.391 . S
C53 C58 1.391 . S
C54 H26 0.929 . S
C54 C55 1.390 . S
C54 N57 1.391 . S
C55 H27 0.930 . S
C55 C54 1.390 . S
C55 C56 1.392 . S
C56 H28 0.929 . S
C56 C53 1.391 . S
C56 C55 1.392 . S
N57 Co1 2.257 1_655 S
N57 C54 1.391 . S
N57 C58 1.388 . S
C58 H29 0.930 . S
C58 C53 1.391 . S
C58 N57 1.388 . S
Co59 O61 2.143 1_455 S
Co59 O67 2.074 . S
Co59 O70 2.093 1_455 S
Co59 O83 2.097 . S
Co59 N100 2.151 1_455 S
Co59 N108 2.214 . S
Co60 O61 2.160 1_455 S
Co60 O66 2.058 . S
Co60 O76 2.057 1_455 S
Co60 O91 2.037 . S
Co60 N95 2.145 . S
Co60 N116 2.257 1_455 S
O61 Co59 2.143 1_655 S
O61 Co60 2.160 1_655 S
C62 O63 1.278 . S
C62 O70 1.224 . S
O63 C62 1.278 . S
C64 O65 1.245 . S
C64 O76 1.232 . S
O65 C64 1.245 . S
O66 Co60 2.058 . S
O66 C92 1.269 . S
O67 Co59 2.074 . S
O67 C92 1.257 . S
H68 C93 0.930 . S
H69 C99 0.930 . S
O70 Co59 2.093 1_655 S
O70 C62 1.224 . S
H71 C103 0.929 . S
H72 C105 0.930 . S
H73 C106 0.930 . S
H74 C104 0.929 . S
H75 C107 0.928 1_655 S
O76 Co60 2.057 1_655 S
O76 C64 1.232 . S
H77 C96 0.929 . S
H78 C97 0.929 . S
H79 C109 0.931 . S
H80 C101 0.929 . S
H81 C110 0.930 . S
H82 C102 0.931 . S
O83 Co59 2.097 . S
O83 C111 1.214 . S
H84 C112 0.929 . S
H85 C113 0.929 . S
H86 C114 0.930 . S
H87 C115 0.929 . S
H88 C117 0.930 . S
H89 C94 0.930 . S
H90 C98 0.930 . S
O91 Co60 2.037 . S
O91 C111 1.234 . S
C92 O66 1.269 . S
C92 O67 1.257 . S
C93 H68 0.930 . S
C93 C96 1.388 . S
C93 C98 1.418 . S
C94 H89 0.930 . S
C94 C97 1.404 . S
C94 C98 1.353 . S
N95 Co60 2.145 . S
N95 C96 1.397 . S
N95 C97 1.334 . S
C96 H77 0.929 . S
C96 C93 1.388 . S
C96 N95 1.397 . S
C97 H78 0.929 . S
C97 C94 1.404 . S
C97 N95 1.334 . S
C98 H90 0.930 . S
C98 C93 1.418 . S
C98 C94 1.353 . S
C99 H69 0.930 . S
C99 N100 1.330 . S
C99 C101 1.446 . S
N100 Co59 2.151 1_655 S
N100 C99 1.330 . S
N100 C104 1.418 1_655 S
C101 H80 0.929 . S
C101 C99 1.446 . S
C101 C102 1.332 . S
C102 H82 0.931 . S
C102 C101 1.332 . S
C102 C103 1.267 1_655 S
C103 H71 0.929 . S
C103 C102 1.267 1_455 S
C103 C104 1.251 . S
C104 H74 0.929 . S
C104 N100 1.418 1_455 S
C104 C103 1.251 . S
C105 H72 0.930 . S
C105 C107 1.406 . S
C105 C110 1.261 . S
C106 H73 0.930 . S
C106 N108 1.325 . S
C106 C109 1.357 . S
C107 H75 0.928 1_455 S
C107 C105 1.406 . S
C107 N108 1.261 . S
N108 Co59 2.214 . S
N108 C106 1.325 . S
N108 C107 1.261 . S
C109 H79 0.931 . S
C109 C106 1.357 . S
C109 C110 1.312 . S
C110 H81 0.930 . S
C110 C105 1.261 . S
C110 C109 1.312 . S
C111 O83 1.214 . S
C111 O91 1.234 . S
C112 H84 0.929 . S
C112 C115 1.391 . S
C112 C117 1.391 . S
C113 H85 0.929 . S
C113 C114 1.390 1_455 S
C113 N116 1.391 1_455 S
C114 H86 0.930 . S
C114 C113 1.390 1_655 S
C114 C115 1.392 . S
C115 H87 0.929 . S
C115 C112 1.391 . S
C115 C114 1.392 . S
N116 Co60 2.257 1_655 S
N116 C113 1.391 1_655 S
N116 C117 1.388 . S
C117 H88 0.930 . S
C117 C112 1.391 . S
C117 N116 1.388 . S
Co118 O120 2.143 . S
Co118 O126 2.074 . S
Co118 O129 2.093 . S
Co118 O142 2.097 . S
Co118 N159 2.151 . S
Co118 N167 2.214 . S
Co119 O120 2.160 . S
Co119 O125 2.058 . S
Co119 O135 2.057 . S
Co119 O150 2.037 . S
Co119 N154 2.145 . S
Co119 N175 2.257 . S
O120 Co118 2.143 . S
O120 Co119 2.160 . S
C121 O122 1.278 . S
C121 O129 1.224 . S
O122 C121 1.278 . S
C123 O124 1.245 . S
C123 O135 1.232 . S
O124 C123 1.245 . S
O125 Co119 2.058 . S
O125 C151 1.269 . S
O126 Co118 2.074 . S
O126 C151 1.257 . S
H127 C152 0.930 . S
H128 C158 0.930 . S
O129 Co118 2.093 . S
O129 C121 1.224 . S
H130 C162 0.929 1_554 S
H131 C164 0.930 1_554 S
H132 C165 0.930 . S
H133 C163 0.929 . S
H134 C166 0.928 . S
O135 Co119 2.057 . S
O135 C123 1.232 . S
H136 C155 0.929 . S
H137 C156 0.929 . S
H138 C168 0.931 . S
H139 C160 0.929 . S
H140 C169 0.930 . S
H141 C161 0.931 . S
O142 Co118 2.097 . S
O142 C170 1.214 . S
H143 C171 0.929 . S
H144 C172 0.929 . S
H145 C173 0.930 . S
H146 C174 0.929 . S
H147 C176 0.930 . S
H148 C153 0.930 . S
H149 C157 0.930 . S
O150 Co119 2.037 . S
O150 C170 1.234 . S
C151 O125 1.269 . S
C151 O126 1.257 . S
C152 H127 0.930 . S
C152 C155 1.388 . S
C152 C157 1.418 . S
C153 H148 0.930 . S
C153 C156 1.404 . S
C153 C157 1.353 . S
N154 Co119 2.145 . S
N154 C155 1.397 . S
N154 C156 1.334 . S
C155 H136 0.929 . S
C155 C152 1.388 . S
C155 N154 1.397 . S
C156 H137 0.929 . S
C156 C153 1.404 . S
C156 N154 1.334 . S
C157 H149 0.930 . S
C157 C152 1.418 . S
C157 C153 1.353 . S
C158 H128 0.930 . S
C158 N159 1.330 . S
C158 C160 1.446 . S
N159 Co118 2.151 . S
N159 C158 1.330 . S
N159 C163 1.418 . S
C160 H139 0.929 . S
C160 C158 1.446 . S
C160 C161 1.332 1_556 S
C161 H141 0.931 . S
C161 C160 1.332 1_554 S
C161 C162 1.267 1_554 S
C162 H130 0.929 1_556 S
C162 C161 1.267 1_556 S
C162 C163 1.251 . S
C163 H133 0.929 . S
C163 N159 1.418 . S
C163 C162 1.251 . S
C164 H131 0.930 1_556 S
C164 C166 1.406 . S
C164 C169 1.261 . S
C165 H132 0.930 . S
C165 N167 1.325 . S
C165 C168 1.357 . S
C166 H134 0.928 . S
C166 C164 1.406 . S
C166 N167 1.261 . S
N167 Co118 2.214 . S
N167 C165 1.325 . S
N167 C166 1.261 . S
C168 H138 0.931 . S
C168 C165 1.357 . S
C168 C169 1.312 . S
C169 H140 0.930 . S
C169 C164 1.261 . S
C169 C168 1.312 . S
C170 O142 1.214 . S
C170 O150 1.234 . S
C171 H143 0.929 . S
C171 C174 1.391 . S
C171 C176 1.391 . S
C172 H144 0.929 . S
C172 C173 1.390 . S
C172 N175 1.391 . S
C173 H145 0.930 . S
C173 C172 1.390 . S
C173 C174 1.392 . S
C174 H146 0.929 . S
C174 C171 1.391 . S
C174 C173 1.392 . S
N175 Co119 2.257 . S
N175 C172 1.391 . S
N175 C176 1.388 . S
C176 H147 0.930 . S
C176 C171 1.391 . S
C176 N175 1.388 . S
Co177 O179 2.143 . S
Co177 O185 2.074 . S
Co177 O188 2.093 . S
Co177 O201 2.097 . S
Co177 N218 2.151 . S
Co177 N226 2.214 . S
Co178 O179 2.160 . S
Co178 O184 2.058 . S
Co178 O194 2.057 . S
Co178 O209 2.037 . S
Co178 N213 2.145 . S
Co178 N234 2.257 . S
O179 Co177 2.143 . S
O179 Co178 2.160 . S
C180 O181 1.278 . S
C180 O188 1.224 . S
O181 C180 1.278 . S
C182 O183 1.245 . S
C182 O194 1.232 . S
O183 C182 1.245 . S
O184 Co178 2.058 . S
O184 C210 1.269 . S
O185 Co177 2.074 . S
O185 C210 1.257 . S
H186 C211 0.930 . S
H187 C217 0.930 . S
O188 Co177 2.093 . S
O188 C180 1.224 . S
H189 C221 0.929 1_556 S
H190 C223 0.930 1_556 S
H191 C224 0.930 . S
H192 C222 0.929 . S
H193 C225 0.928 . S
O194 Co178 2.057 . S
O194 C182 1.232 . S
H195 C214 0.929 . S
H196 C215 0.929 . S
H197 C227 0.931 . S
H198 C219 0.929 . S
H199 C228 0.930 . S
H200 C220 0.931 1_556 S
O201 Co177 2.097 . S
O201 C229 1.214 . S
H202 C230 0.929 . S
H203 C231 0.929 . S
H204 C232 0.930 . S
H205 C233 0.929 . S
H206 C235 0.930 . S
H207 C212 0.930 . S
H208 C216 0.930 . S
O209 Co178 2.037 . S
O209 C229 1.234 . S
C210 O184 1.269 . S
C210 O185 1.257 . S
C211 H186 0.930 . S
C211 C214 1.388 . S
C211 C216 1.418 . S
C212 H207 0.930 . S
C212 C215 1.404 . S
C212 C216 1.353 . S
N213 Co178 2.145 . S
N213 C214 1.397 . S
N213 C215 1.334 . S
C214 H195 0.929 . S
C214 C211 1.388 . S
C214 N213 1.397 . S
C215 H196 0.929 . S
C215 C212 1.404 . S
C215 N213 1.334 . S
C216 H208 0.930 . S
C216 C211 1.418 . S
C216 C212 1.353 . S
C217 H187 0.930 . S
C217 N218 1.330 . S
C217 C219 1.446 . S
N218 Co177 2.151 . S
N218 C217 1.330 . S
N218 C222 1.418 . S
C219 H198 0.929 . S
C219 C217 1.446 . S
C219 C220 1.332 . S
C220 H200 0.931 1_554 S
C220 C219 1.332 . S
C220 C221 1.267 . S
C221 H189 0.929 1_554 S
C221 C220 1.267 . S
C221 C222 1.251 . S
C222 H192 0.929 . S
C222 N218 1.418 . S
C222 C221 1.251 . S
C223 H190 0.930 1_554 S
C223 C225 1.406 . S
C223 C228 1.261 . S
C224 H191 0.930 . S
C224 N226 1.325 . S
C224 C227 1.357 . S
C225 H193 0.928 . S
C225 C223 1.406 . S
C225 N226 1.261 . S
N226 Co177 2.214 . S
N226 C224 1.325 . S
N226 C225 1.261 . S
C227 H197 0.931 . S
C227 C224 1.357 . S
C227 C228 1.312 . S
C228 H199 0.930 . S
C228 C223 1.261 . S
C228 C227 1.312 . S
C229 O201 1.214 . S
C229 O209 1.234 . S
C230 H202 0.929 . S
C230 C233 1.391 . S
C230 C235 1.391 . S
C231 H203 0.929 . S
C231 C232 1.390 . S
C231 N234 1.391 . S
C232 H204 0.930 . S
C232 C231 1.390 . S
C232 C233 1.392 . S
C233 H205 0.929 . S
C233 C230 1.391 . S
C233 C232 1.392 . S
N234 Co178 2.257 . S
N234 C231 1.391 . S
N234 C235 1.388 . S
C235 H206 0.930 . S
C235 C230 1.391 . S
C235 N234 1.388 . S
Co236 O238 2.143 . S
Co236 O244 2.074 1_455 S
Co236 O247 2.093 . S
Co236 O260 2.097 . S
Co236 N277 2.151 . S
Co236 N285 2.214 . S
Co237 O238 2.160 1_655 S
Co237 O243 2.058 . S
Co237 O253 2.057 . S
Co237 O268 2.037 1_655 S
Co237 N272 2.145 . S
Co237 N293 2.257 1_655 S
O238 Co236 2.143 . S
O238 Co237 2.160 1_455 S
C239 O240 1.278 . S
C239 O247 1.224 . S
O240 C239 1.278 . S
C241 O242 1.245 . S
C241 O253 1.232 . S
O242 C241 1.245 . S
O243 Co237 2.058 . S
O243 C269 1.269 . S
O244 Co236 2.074 1_655 S
O244 C269 1.257 . S
H245 C270 0.930 . S
H246 C276 0.930 . S
O247 Co236 2.093 . S
O247 C239 1.224 . S
H248 C280 0.929 . S
H249 C282 0.930 . S
H250 C283 0.930 . S
H251 C281 0.929 . S
H252 C284 0.928 . S
O253 Co237 2.057 . S
O253 C241 1.232 . S
H254 C273 0.929 . S
H255 C274 0.929 . S
H256 C286 0.931 . S
H257 C278 0.929 . S
H258 C287 0.930 . S
H259 C279 0.931 . S
O260 Co236 2.097 . S
O260 C288 1.214 . S
H261 C289 0.929 . S
H262 C290 0.929 . S
H263 C291 0.930 . S
H264 C292 0.929 . S
H265 C294 0.930 . S
H266 C271 0.930 . S
H267 C275 0.930 . S
O268 Co237 2.037 1_455 S
O268 C288 1.234 . S
C269 O243 1.269 . S
C269 O244 1.257 . S
C270 H245 0.930 . S
C270 C273 1.388 . S
C270 C275 1.418 . S
C271 H266 0.930 . S
C271 C274 1.404 . S
C271 C275 1.353 . S
N272 Co237 2.145 . S
N272 C273 1.397 . S
N272 C274 1.334 . S
C273 H254 0.929 . S
C273 C270 1.388 . S
C273 N272 1.397 . S
C274 H255 0.929 . S
C274 C271 1.404 . S
C274 N272 1.334 . S
C275 H267 0.930 . S
C275 C270 1.418 . S
C275 C271 1.353 . S
C276 H246 0.930 . S
C276 N277 1.330 . S
C276 C278 1.446 . S
N277 Co236 2.151 . S
N277 C276 1.330 . S
N277 C281 1.418 1_455 S
C278 H257 0.929 . S
C278 C276 1.446 . S
C278 C279 1.332 1_455 S
C279 H259 0.931 . S
C279 C278 1.332 1_655 S
C279 C280 1.267 . S
C280 H248 0.929 . S
C280 C279 1.267 . S
C280 C281 1.251 . S
C281 H251 0.929 . S
C281 N277 1.418 1_655 S
C281 C280 1.251 . S
C282 H249 0.930 . S
C282 C284 1.406 . S
C282 C287 1.261 . S
C283 H250 0.930 . S
C283 N285 1.325 . S
C283 C286 1.357 . S
C284 H252 0.928 . S
C284 C282 1.406 . S
C284 N285 1.261 . S
N285 Co236 2.214 . S
N285 C283 1.325 . S
N285 C284 1.261 . S
C286 H256 0.931 . S
C286 C283 1.357 . S
C286 C287 1.312 . S
C287 H258 0.930 . S
C287 C282 1.261 . S
C287 C286 1.312 . S
C288 O260 1.214 . S
C288 O268 1.234 . S
C289 H261 0.929 . S
C289 C292 1.391 . S
C289 C294 1.391 . S
C290 H262 0.929 . S
C290 C291 1.390 . S
C290 N293 1.391 . S
C291 H263 0.930 . S
C291 C290 1.390 . S
C291 C292 1.392 . S
C292 H264 0.929 . S
C292 C289 1.391 . S
C292 C291 1.392 . S
N293 Co237 2.257 1_455 S
N293 C290 1.391 . S
N293 C294 1.388 . S
C294 H265 0.930 . S
C294 C289 1.391 . S
C294 N293 1.388 . S
Co295 O297 2.143 . S
Co295 O303 2.074 . S
Co295 O306 2.093 . S
Co295 O319 2.097 . S
Co295 N336 2.151 . S
Co295 N344 2.214 . S
Co296 O297 2.160 . S
Co296 O302 2.058 . S
Co296 O312 2.057 . S
Co296 O327 2.037 . S
Co296 N331 2.145 . S
Co296 N352 2.257 . S
O297 Co295 2.143 . S
O297 Co296 2.160 . S
C298 O299 1.278 . S
C298 O306 1.224 . S
O299 C298 1.278 . S
C300 O301 1.245 . S
C300 O312 1.232 . S
O301 C300 1.245 . S
O302 Co296 2.058 . S
O302 C328 1.269 . S
O303 Co295 2.074 . S
O303 C328 1.257 . S
H304 C329 0.930 . S
H305 C335 0.930 . S
O306 Co295 2.093 . S
O306 C298 1.224 . S
H307 C339 0.929 . S
H308 C341 0.930 . S
H309 C342 0.930 . S
H310 C340 0.929 . S
H311 C343 0.928 . S
O312 Co296 2.057 . S
O312 C300 1.232 . S
H313 C332 0.929 . S
H314 C333 0.929 . S
H315 C345 0.931 . S
H316 C337 0.929 . S
H317 C346 0.930 . S
H318 C338 0.931 . S
O319 Co295 2.097 . S
O319 C347 1.214 . S
H320 C348 0.929 . S
H321 C349 0.929 . S
H322 C350 0.930 . S
H323 C351 0.929 . S
H324 C353 0.930 . S
H325 C330 0.930 . S
H326 C334 0.930 . S
O327 Co296 2.037 . S
O327 C347 1.234 . S
C328 O302 1.269 . S
C328 O303 1.257 . S
C329 H304 0.930 . S
C329 C332 1.388 . S
C329 C334 1.418 . S
C330 H325 0.930 . S
C330 C333 1.404 . S
C330 C334 1.353 . S
N331 Co296 2.145 . S
N331 C332 1.397 . S
N331 C333 1.334 . S
C332 H313 0.929 . S
C332 C329 1.388 . S
C332 N331 1.397 . S
C333 H314 0.929 . S
C333 C330 1.404 . S
C333 N331 1.334 . S
C334 H326 0.930 . S
C334 C329 1.418 . S
C334 C330 1.353 . S
C335 H305 0.930 . S
C335 N336 1.330 . S
C335 C337 1.446 . S
N336 Co295 2.151 . S
N336 C335 1.330 . S
N336 C340 1.418 . S
C337 H316 0.929 . S
C337 C335 1.446 . S
C337 C338 1.332 . S
C338 H318 0.931 . S
C338 C337 1.332 . S
C338 C339 1.267 . S
C339 H307 0.929 . S
C339 C338 1.267 . S
C339 C340 1.251 . S
C340 H310 0.929 . S
C340 N336 1.418 . S
C340 C339 1.251 . S
C341 H308 0.930 . S
C341 C343 1.406 . S
C341 C346 1.261 . S
C342 H309 0.930 . S
C342 N344 1.325 . S
C342 C345 1.357 . S
C343 H311 0.928 . S
C343 C341 1.406 . S
C343 N344 1.261 . S
N344 Co295 2.214 . S
N344 C342 1.325 . S
N344 C343 1.261 . S
C345 H315 0.931 . S
C345 C342 1.357 . S
C345 C346 1.312 . S
C346 H317 0.930 . S
C346 C341 1.261 . S
C346 C345 1.312 . S
C347 O319 1.214 . S
C347 O327 1.234 . S
C348 H320 0.929 . S
C348 C351 1.391 . S
C348 C353 1.391 . S
C349 H321 0.929 . S
C349 C350 1.390 . S
C349 N352 1.391 . S
C350 H322 0.930 . S
C350 C349 1.390 . S
C350 C351 1.392 . S
C351 H323 0.929 . S
C351 C348 1.391 . S
C351 C350 1.392 . S
N352 Co296 2.257 . S
N352 C349 1.391 . S
N352 C353 1.388 . S
C353 H324 0.930 . S
C353 C348 1.391 . S
C353 N352 1.388 . S
Co354 O356 2.143 . S
Co354 O362 2.074 . S
Co354 O365 2.093 . S
Co354 O378 2.097 . S
Co354 N395 2.151 . S
Co354 N403 2.214 . S
Co355 O356 2.160 . S
Co355 O361 2.058 . S
Co355 O371 2.057 . S
Co355 O386 2.037 . S
Co355 N390 2.145 . S
Co355 N411 2.257 . S
O356 Co354 2.143 . S
O356 Co355 2.160 . S
C357 O358 1.278 . S
C357 O365 1.224 . S
O358 C357 1.278 . S
C359 O360 1.245 . S
C359 O371 1.232 . S
O360 C359 1.245 . S
O361 Co355 2.058 . S
O361 C387 1.269 . S
O362 Co354 2.074 . S
O362 C387 1.257 . S
H363 C388 0.930 . S
H364 C394 0.930 . S
O365 Co354 2.093 . S
O365 C357 1.224 . S
H366 C398 0.929 . S
H367 C400 0.930 . S
H368 C401 0.930 . S
H369 C399 0.929 . S
H370 C402 0.928 . S
O371 Co355 2.057 . S
O371 C359 1.232 . S
H372 C391 0.929 . S
H373 C392 0.929 . S
H374 C404 0.931 . S
H375 C396 0.929 . S
H376 C405 0.930 . S
H377 C397 0.931 . S
O378 Co354 2.097 . S
O378 C406 1.214 . S
H379 C407 0.929 . S
H380 C408 0.929 . S
H381 C409 0.930 . S
H382 C410 0.929 . S
H383 C412 0.930 . S
H384 C389 0.930 . S
H385 C393 0.930 . S
O386 Co355 2.037 . S
O386 C406 1.234 . S
C387 O361 1.269 . S
C387 O362 1.257 . S
C388 H363 0.930 . S
C388 C391 1.388 . S
C388 C393 1.418 . S
C389 H384 0.930 . S
C389 C392 1.404 . S
C389 C393 1.353 . S
N390 Co355 2.145 . S
N390 C391 1.397 . S
N390 C392 1.334 . S
C391 H372 0.929 . S
C391 C388 1.388 . S
C391 N390 1.397 . S
C392 H373 0.929 . S
C392 C389 1.404 . S
C392 N390 1.334 . S
C393 H385 0.930 . S
C393 C388 1.418 . S
C393 C389 1.353 . S
C394 H364 0.930 . S
C394 N395 1.330 . S
C394 C396 1.446 . S
N395 Co354 2.151 . S
N395 C394 1.330 . S
N395 C399 1.418 . S
C396 H375 0.929 . S
C396 C394 1.446 . S
C396 C397 1.332 . S
C397 H377 0.931 . S
C397 C396 1.332 . S
C397 C398 1.267 . S
C398 H366 0.929 . S
C398 C397 1.267 . S
C398 C399 1.251 . S
C399 H369 0.929 . S
C399 N395 1.418 . S
C399 C398 1.251 . S
C400 H367 0.930 . S
C400 C402 1.406 . S
C400 C405 1.261 . S
C401 H368 0.930 . S
C401 N403 1.325 . S
C401 C404 1.357 . S
C402 H370 0.928 . S
C402 C400 1.406 . S
C402 N403 1.261 . S
N403 Co354 2.214 . S
N403 C401 1.325 . S
N403 C402 1.261 . S
C404 H374 0.931 . S
C404 C401 1.357 . S
C404 C405 1.312 . S
C405 H376 0.930 . S
C405 C400 1.261 . S
C405 C404 1.312 . S
C406 O378 1.214 . S
C406 O386 1.234 . S
C407 H379 0.929 . S
C407 C410 1.391 . S
C407 C412 1.391 . S
C408 H380 0.929 . S
C408 C409 1.390 . S
C408 N411 1.391 . S
C409 H381 0.930 . S
C409 C408 1.390 . S
C409 C410 1.392 . S
C410 H382 0.929 . S
C410 C407 1.391 . S
C410 C409 1.392 . S
N411 Co355 2.257 . S
N411 C408 1.391 . S
N411 C412 1.388 . S
C412 H383 0.930 . S
C412 C407 1.391 . S
C412 N411 1.388 . S
Co413 O415 2.143 1_455 S
Co413 O421 2.074 . S
Co413 O424 2.093 1_455 S
Co413 O437 2.097 . S
Co413 N454 2.155 . S
Co413 N462 2.214 . S
Co414 O415 2.160 1_455 S
Co414 O420 2.058 . S
Co414 O430 2.057 1_455 S
Co414 O445 2.037 . S
Co414 N449 2.145 . S
Co414 N470 2.257 1_455 S
O415 Co413 2.143 1_655 S
O415 Co414 2.160 1_655 S
C416 O417 1.278 . S
C416 O424 1.224 . S
O417 C416 1.278 . S
C418 O419 1.245 . S
C418 O430 1.232 . S
O419 C418 1.245 . S
O420 Co414 2.058 . S
O420 C446 1.269 . S
O421 Co413 2.074 . S
O421 C446 1.257 . S
H422 C447 0.930 . S
H423 C453 0.930 . S
O424 Co413 2.093 1_655 S
O424 C416 1.224 . S
H425 C457 0.929 1_554 S
H426 C459 0.930 1_554 S
H427 C460 0.930 . S
H428 C458 0.929 . S
H429 C461 0.928 . S
O430 Co414 2.057 1_655 S
O430 C418 1.232 . S
H431 C450 0.929 . S
H432 C451 0.929 . S
H433 C463 0.931 . S
H434 C455 0.929 . S
H435 C464 0.930 . S
H436 C456 0.931 1_554 S
O437 Co413 2.097 . S
O437 C465 1.214 . S
H438 C466 0.929 . S
H439 C467 0.929 1_455 S
H440 C468 0.930 . S
H441 C469 0.929 . S
H442 C471 0.930 . S
H443 C448 0.930 . S
H444 C452 0.930 . S
O445 Co414 2.037 . S
O445 C465 1.234 . S
C446 O420 1.269 . S
C446 O421 1.257 . S
C447 H422 0.930 . S
C447 C450 1.388 . S
C447 C452 1.418 . S
C448 H443 0.930 . S
C448 C451 1.404 . S
C448 C452 1.353 . S
N449 Co414 2.145 . S
N449 C450 1.397 . S
N449 C451 1.334 . S
C450 H431 0.929 . S
C450 C447 1.388 . S
C450 N449 1.397 . S
C451 H432 0.929 . S
C451 C448 1.404 . S
C451 N449 1.334 . S
C452 H444 0.930 . S
C452 C447 1.418 . S
C452 C448 1.353 . S
C453 H423 0.930 . S
C453 N454 1.314 1_655 S
C453 C455 1.446 . S
N454 Co413 2.155 . S
N454 C453 1.314 1_455 S
N454 C458 1.427 . S
C455 H434 0.929 . S
C455 C453 1.446 . S
C455 C456 1.332 . S
C456 H436 0.931 1_556 S
C456 C455 1.332 . S
C456 C457 1.267 1_655 S
C457 H425 0.929 1_556 S
C457 C456 1.267 1_455 S
C457 C458 1.251 . S
C458 H428 0.929 . S
C458 N454 1.427 . S
C458 C457 1.251 . S
C459 H426 0.930 1_556 S
C459 C461 1.406 . S
C459 C464 1.261 . S
C460 H427 0.930 . S
C460 N462 1.325 . S
C460 C463 1.357 . S
C461 H429 0.928 . S
C461 C459 1.406 . S
C461 N462 1.261 . S
N462 Co413 2.214 . S
N462 C460 1.325 . S
N462 C461 1.261 . S
C463 H433 0.931 . S
C463 C460 1.357 . S
C463 C464 1.312 . S
C464 H435 0.930 . S
C464 C459 1.261 . S
C464 C463 1.312 . S
C465 O437 1.214 . S
C465 O445 1.234 . S
C466 H438 0.929 . S
C466 C469 1.391 . S
C466 C471 1.391 . S
C467 H439 0.929 1_655 S
C467 C468 1.390 . S
C467 N470 1.391 . S
C468 H440 0.930 . S
C468 C467 1.390 . S
C468 C469 1.392 . S
C469 H441 0.929 . S
C469 C466 1.391 . S
C469 C468 1.392 . S
N470 Co414 2.257 1_655 S
N470 C467 1.391 . S
N470 C471 1.388 . S
C471 H442 0.930 . S
C471 C466 1.391 . S
C471 N470 1.388 . S
Co472 O474 2.143 1_545 S
Co472 O480 2.066 1_545 S
Co472 O483 2.093 . S
Co472 O496 2.097 . S
Co472 N513 2.151 1_545 S
Co472 N521 2.214 . S
Co473 O474 2.160 . S
Co473 O479 2.058 . S
Co473 O489 2.057 . S
Co473 O504 2.037 1_565 S
Co473 N508 2.145 . S
Co473 N529 2.257 1_565 S
O474 Co472 2.143 1_565 S
O474 Co473 2.160 . S
C475 O476 1.278 . S
C475 O483 1.224 . S
O476 C475 1.278 . S
C477 O478 1.245 . S
C477 O489 1.232 . S
O478 C477 1.245 . S
O479 Co473 2.058 . S
O479 C505 1.269 . S
O480 Co472 2.066 1_565 S
O480 C505 1.271 . S
H481 C506 0.930 . S
H482 C512 0.930 . S
O483 Co472 2.093 . S
O483 C475 1.224 . S
H484 C516 0.929 . S
H485 C518 0.930 . S
H486 C519 0.930 . S
H487 C517 0.929 . S
H488 C520 0.928 . S
O489 Co473 2.057 . S
O489 C477 1.232 . S
H490 C509 0.929 1_545 S
H491 C510 0.929 . S
H492 C522 0.931 . S
H493 C514 0.929 . S
H494 C523 0.930 . S
H495 C515 0.931 . S
O496 Co472 2.097 . S
O496 C524 1.214 . S
H497 C525 0.929 . S
H498 C526 0.929 . S
H499 C527 0.930 . S
H500 C528 0.929 . S
H501 C530 0.930 1_565 S
H502 C507 0.930 . S
H503 C511 0.930 . S
O504 Co473 2.037 1_545 S
O504 C524 1.234 . S
C505 O479 1.269 . S
C505 O480 1.271 . S
C506 H481 0.930 . S
C506 C509 1.388 . S
C506 C511 1.418 . S
C507 H502 0.930 . S
C507 C510 1.404 . S
C507 C511 1.353 . S
N508 Co473 2.145 . S
N508 C509 1.397 . S
N508 C510 1.334 . S
C509 H490 0.929 1_565 S
C509 C506 1.388 . S
C509 N508 1.397 . S
C510 H491 0.929 . S
C510 C507 1.404 . S
C510 N508 1.334 . S
C511 H503 0.930 . S
C511 C506 1.418 . S
C511 C507 1.353 . S
C512 H482 0.930 . S
C512 N513 1.330 . S
C512 C514 1.446 . S
N513 Co472 2.151 1_565 S
N513 C512 1.330 . S
N513 C517 1.418 . S
C514 H493 0.929 . S
C514 C512 1.446 . S
C514 C515 1.332 . S
C515 H495 0.931 . S
C515 C514 1.332 . S
C515 C516 1.267 . S
C516 H484 0.929 . S
C516 C515 1.267 . S
C516 C517 1.251 . S
C517 H487 0.929 . S
C517 N513 1.418 . S
C517 C516 1.251 . S
C518 H485 0.930 . S
C518 C520 1.406 . S
C518 C523 1.261 . S
C519 H486 0.930 . S
C519 N521 1.325 . S
C519 C522 1.357 . S
C520 H488 0.928 . S
C520 C518 1.406 . S
C520 N521 1.261 . S
N521 Co472 2.214 . S
N521 C519 1.325 . S
N521 C520 1.261 . S
C522 H492 0.931 . S
C522 C519 1.357 . S
C522 C523 1.312 . S
C523 H494 0.930 . S
C523 C518 1.261 . S
C523 C522 1.312 . S
C524 O496 1.214 . S
C524 O504 1.234 . S
C525 H497 0.929 . S
C525 C528 1.391 . S
C525 C530 1.391 . S
C526 H498 0.929 . S
C526 C527 1.390 . S
C526 N529 1.391 . S
C527 H499 0.930 . S
C527 C526 1.390 . S
C527 C528 1.392 . S
C528 H500 0.929 . S
C528 C525 1.391 . S
C528 C527 1.392 . S
N529 Co473 2.257 1_545 S
N529 C526 1.391 . S
N529 C530 1.388 . S
C530 H501 0.930 1_545 S
C530 C525 1.391 . S
C530 N529 1.388 . S
Co531 O533 2.143 . S
Co531 O539 2.074 . S
Co531 O542 2.093 . S
Co531 O555 2.097 . S
Co531 N572 2.151 . S
Co531 N580 2.214 . S
Co532 O533 2.160 . S
Co532 O538 2.058 . S
Co532 O548 2.057 . S
Co532 O563 2.037 . S
Co532 N567 2.145 . S
Co532 N588 2.257 . S
O533 Co531 2.143 . S
O533 Co532 2.160 . S
C534 O535 1.278 . S
C534 O542 1.224 . S
O535 C534 1.278 . S
C536 O537 1.245 . S
C536 O548 1.232 . S
O537 C536 1.245 . S
O538 Co532 2.058 . S
O538 C564 1.269 . S
O539 Co531 2.074 . S
O539 C564 1.257 . S
H540 C565 0.930 . S
H541 C571 0.930 . S
O542 Co531 2.093 . S
O542 C534 1.224 . S
H543 C575 0.929 . S
H544 C577 0.930 . S
H545 C578 0.930 . S
H546 C576 0.929 . S
H547 C579 0.928 . S
O548 Co532 2.057 . S
O548 C536 1.232 . S
H549 C568 0.929 . S
H550 C569 0.929 . S
H551 C581 0.931 . S
H552 C573 0.929 . S
H553 C582 0.930 . S
H554 C574 0.931 . S
O555 Co531 2.097 . S
O555 C583 1.214 . S
H556 C584 0.929 . S
H557 C585 0.929 . S
H558 C586 0.930 . S
H559 C587 0.929 . S
H560 C589 0.930 . S
H561 C566 0.930 1_565 S
H562 C570 0.930 1_565 S
O563 Co532 2.037 . S
O563 C583 1.234 . S
C564 O538 1.269 . S
C564 O539 1.257 . S
C565 H540 0.930 . S
C565 C568 1.388 . S
C565 C570 1.418 . S
C566 H561 0.930 1_545 S
C566 C569 1.404 . S
C566 C570 1.353 . S
N567 Co532 2.145 . S
N567 C568 1.397 . S
N567 C569 1.334 . S
C568 H549 0.929 . S
C568 C565 1.388 . S
C568 N567 1.397 . S
C569 H550 0.929 . S
C569 C566 1.404 . S
C569 N567 1.334 . S
C570 H562 0.930 1_545 S
C570 C565 1.418 . S
C570 C566 1.353 . S
C571 H541 0.930 . S
C571 N572 1.330 . S
C571 C573 1.446 . S
N572 Co531 2.151 . S
N572 C571 1.330 . S
N572 C576 1.418 . S
C573 H552 0.929 . S
C573 C571 1.446 . S
C573 C574 1.332 . S
C574 H554 0.931 . S
C574 C573 1.332 . S
C574 C575 1.267 . S
C575 H543 0.929 . S
C575 C574 1.267 . S
C575 C576 1.251 . S
C576 H546 0.929 . S
C576 N572 1.418 . S
C576 C575 1.251 . S
C577 H544 0.930 . S
C577 C579 1.406 . S
C577 C582 1.261 . S
C578 H545 0.930 . S
C578 N580 1.325 . S
C578 C581 1.357 . S
C579 H547 0.928 . S
C579 C577 1.406 . S
C579 N580 1.261 . S
N580 Co531 2.214 . S
N580 C578 1.325 . S
N580 C579 1.261 . S
C581 H551 0.931 . S
C581 C578 1.357 . S
C581 C582 1.312 . S
C582 H553 0.930 . S
C582 C577 1.261 . S
C582 C581 1.312 . S
C583 O555 1.214 . S
C583 O563 1.234 . S
C584 H556 0.929 . S
C584 C587 1.391 . S
C584 C589 1.391 . S
C585 H557 0.929 . S
C585 C586 1.390 . S
C585 N588 1.391 . S
C586 H558 0.930 . S
C586 C585 1.390 . S
C586 C587 1.392 . S
C587 H559 0.929 . S
C587 C584 1.391 . S
C587 C586 1.392 . S
N588 Co532 2.257 . S
N588 C585 1.391 . S
N588 C589 1.388 . S
C589 H560 0.930 . S
C589 C584 1.391 . S
C589 N588 1.388 . S
Co590 O592 2.143 1_565 S
Co590 O598 2.074 1_565 S
Co590 O601 2.093 . S
Co590 O614 2.097 . S
Co590 N631 2.151 1_565 S
Co590 N639 2.214 . S
Co591 O592 2.160 . S
Co591 O597 2.058 . S
Co591 O607 2.057 . S
Co591 O622 2.037 1_545 S
Co591 N626 2.145 . S
Co591 N647 2.263 . S
O592 Co590 2.143 1_545 S
O592 Co591 2.160 . S
C593 O594 1.278 . S
C593 O601 1.224 . S
O594 C593 1.278 . S
C595 O596 1.245 . S
C595 O607 1.232 . S
O596 C595 1.245 . S
O597 Co591 2.058 . S
O597 C623 1.269 . S
O598 Co590 2.074 1_545 S
O598 C623 1.257 . S
H599 C624 0.930 . S
H600 C630 0.930 . S
O601 Co590 2.093 . S
O601 C593 1.224 . S
H602 C634 0.929 . S
H603 C636 0.930 . S
H604 C637 0.930 . S
H605 C635 0.929 . S
H606 C638 0.928 . S
O607 Co591 2.057 . S
O607 C595 1.232 . S
H608 C627 0.914 1_565 S
H609 C628 0.929 . S
H610 C640 0.931 . S
H611 C632 0.929 . S
H612 C641 0.930 . S
H613 C633 0.931 . S
O614 Co590 2.097 . S
O614 C642 1.214 . S
H615 C643 0.929 . S
H616 C644 0.929 . S
H617 C645 0.930 . S
H618 C646 0.929 . S
H619 C648 0.930 . S
H620 C625 0.930 . S
H621 C629 0.927 1_655 S
O622 Co591 2.037 1_565 S
O622 C642 1.234 . S
C623 O597 1.269 . S
C623 O598 1.257 . S
C624 H599 0.930 . S
C624 C627 1.388 . S
C624 C629 1.418 . S
C625 H620 0.930 . S
C625 C628 1.404 . S
C625 C629 1.353 . S
N626 Co591 2.145 . S
N626 C627 1.397 . S
N626 C628 1.334 . S
C627 H608 0.914 1_545 S
C627 C624 1.388 . S
C627 N626 1.397 . S
C628 H609 0.929 . S
C628 C625 1.404 . S
C628 N626 1.334 . S
C629 H621 0.927 1_455 S
C629 C624 1.418 . S
C629 C625 1.353 . S
C630 H600 0.930 . S
C630 N631 1.330 . S
C630 C632 1.446 . S
N631 Co590 2.151 1_545 S
N631 C630 1.330 . S
N631 C635 1.418 . S
C632 H611 0.929 . S
C632 C630 1.446 . S
C632 C633 1.332 . S
C633 H613 0.931 . S
C633 C632 1.332 . S
C633 C634 1.267 . S
C634 H602 0.929 . S
C634 C633 1.267 . S
C634 C635 1.251 . S
C635 H605 0.929 . S
C635 N631 1.418 . S
C635 C634 1.251 . S
C636 H603 0.930 . S
C636 C638 1.406 . S
C636 C641 1.261 . S
C637 H604 0.930 . S
C637 N639 1.325 . S
C637 C640 1.357 . S
C638 H606 0.928 . S
C638 C636 1.406 . S
C638 N639 1.261 . S
N639 Co590 2.214 . S
N639 C637 1.325 . S
N639 C638 1.261 . S
C640 H610 0.931 . S
C640 C637 1.357 . S
C640 C641 1.312 . S
C641 H612 0.930 . S
C641 C636 1.261 . S
C641 C640 1.312 . S
C642 O614 1.214 . S
C642 O622 1.234 . S
C643 H615 0.929 . S
C643 C646 1.391 . S
C643 C648 1.391 1_565 S
C644 H616 0.929 . S
C644 C645 1.390 . S
C644 N647 1.381 1_565 S
C645 H617 0.930 . S
C645 C644 1.390 . S
C645 C646 1.392 . S
C646 H618 0.929 . S
C646 C643 1.391 . S
C646 C645 1.392 . S
N647 Co591 2.263 . S
N647 C644 1.381 1_545 S
N647 C648 1.391 . S
C648 H619 0.930 . S
C648 C643 1.391 1_545 S
C648 N647 1.391 . S
Co649 O651 2.143 1_554 S
Co649 O657 2.074 . S
Co649 O660 2.093 . S
Co649 O673 2.097 . S
Co649 N690 2.151 1_554 S
Co649 N698 2.214 . S
Co650 O651 2.160 1_554 S
Co650 O656 2.058 . S
Co650 O666 2.057 1_554 S
Co650 O681 2.037 . S
Co650 N685 2.145 . S
Co650 N706 2.257 1_554 S
O651 Co649 2.143 1_556 S
O651 Co650 2.160 1_556 S
C652 O653 1.278 . S
C652 O660 1.224 1_556 S
O653 C652 1.278 . S
C654 O655 1.245 . S
C654 O666 1.232 . S
O655 C654 1.245 . S
O656 Co650 2.058 . S
O656 C682 1.269 . S
O657 Co649 2.074 . S
O657 C682 1.257 . S
H658 C683 0.930 . S
H659 C689 0.930 . S
O660 Co649 2.093 . S
O660 C652 1.224 1_554 S
H661 C693 0.929 . S
H662 C695 0.930 . S
H663 C696 0.930 . S
H664 C694 0.918 1_554 S
H665 C697 0.928 . S
O666 Co650 2.057 1_556 S
O666 C654 1.232 . S
H667 C686 0.929 . S
H668 C687 0.929 1_556 S
H669 C699 0.931 . S
H670 C691 0.929 . S
H671 C700 0.930 . S
H672 C692 0.931 . S
O673 Co649 2.097 . S
O673 C701 1.214 . S
H674 C702 0.929 . S
H675 C703 0.929 . S
H676 C704 0.930 . S
H677 C705 0.929 . S
H678 C707 0.930 . S
H679 C684 0.916 1_545 S
H680 C688 0.930 1_545 S
O681 Co650 2.037 . S
O681 C701 1.234 . S
C682 O656 1.269 . S
C682 O657 1.257 . S
C683 H658 0.930 . S
C683 C686 1.388 . S
C683 C688 1.418 . S
C684 H679 0.916 1_565 S
C684 C687 1.404 . S
C684 C688 1.353 . S
N685 Co650 2.145 . S
N685 C686 1.397 . S
N685 C687 1.334 . S
C686 H667 0.929 . S
C686 C683 1.388 . S
C686 N685 1.397 . S
C687 H668 0.929 1_554 S
C687 C684 1.404 . S
C687 N685 1.334 . S
C688 H680 0.930 1_565 S
C688 C683 1.418 . S
C688 C684 1.353 . S
C689 H659 0.930 . S
C689 N690 1.330 . S
C689 C691 1.446 . S
N690 Co649 2.151 1_556 S
N690 C689 1.330 . S
N690 C694 1.422 . S
C691 H670 0.929 . S
C691 C689 1.446 . S
C691 C692 1.332 . S
C692 H672 0.931 . S
C692 C691 1.332 . S
C692 C693 1.267 . S
C693 H661 0.929 . S
C693 C692 1.267 . S
C693 C694 1.257 . S
C694 H664 0.918 1_556 S
C694 N690 1.422 . S
C694 C693 1.257 . S
C695 H662 0.930 . S
C695 C697 1.406 . S
C695 C700 1.261 . S
C696 H663 0.930 . S
C696 N698 1.325 . S
C696 C699 1.357 . S
C697 H665 0.928 . S
C697 C695 1.406 . S
C697 N698 1.261 . S
N698 Co649 2.214 . S
N698 C696 1.325 . S
N698 C697 1.261 . S
C699 H669 0.931 . S
C699 C696 1.357 . S
C699 C700 1.312 . S
C700 H671 0.930 . S
C700 C695 1.261 . S
C700 C699 1.312 . S
C701 O673 1.214 . S
C701 O681 1.234 . S
C702 H674 0.929 . S
C702 C705 1.391 . S
C702 C707 1.391 . S
C703 H675 0.929 . S
C703 C704 1.390 . S
C703 N706 1.391 1_554 S
C704 H676 0.930 . S
C704 C703 1.390 . S
C704 C705 1.392 1_554 S
C705 H677 0.929 . S
C705 C702 1.391 . S
C705 C704 1.392 1_556 S
N706 Co650 2.257 1_556 S
N706 C703 1.391 1_556 S
N706 C707 1.388 . S
C707 H678 0.930 . S
C707 C702 1.391 . S
C707 N706 1.388 . S
Co708 O710 2.143 . S
Co708 O716 2.074 1_556 S
Co708 O719 2.093 . S
Co708 O732 2.097 . S
Co708 N749 2.151 1_556 S
Co708 N757 2.214 . S
Co709 O710 2.160 1_554 S
Co709 O715 2.058 . S
Co709 O725 2.057 . S
Co709 O740 2.037 1_554 S
Co709 N744 2.145 . S
Co709 N765 2.257 1_554 S
O710 Co708 2.143 . S
O710 Co709 2.160 1_556 S
C711 O712 1.278 . S
C711 O719 1.224 . S
O712 C711 1.278 . S
C713 O714 1.245 . S
C713 O725 1.232 . S
O714 C713 1.245 . S
O715 Co709 2.058 . S
O715 C741 1.269 . S
O716 Co708 2.074 1_554 S
O716 C741 1.257 . S
H717 C742 0.930 . S
H718 C748 0.930 . S
O719 Co708 2.093 . S
O719 C711 1.224 . S
H720 C752 0.929 . S
H721 C754 0.930 . S
H722 C755 0.930 . S
H723 C753 0.929 . S
H724 C756 0.928 . S
O725 Co709 2.057 . S
O725 C713 1.232 . S
H726 C745 0.929 . S
H727 C746 0.929 . S
H728 C758 0.931 . S
H729 C750 0.929 . S
H730 C759 0.930 . S
H731 C751 0.931 . S
O732 Co708 2.097 . S
O732 C760 1.214 . S
H733 C761 0.929 . S
H734 C762 0.929 . S
H735 C763 0.930 . S
H736 C764 0.929 . S
H737 C766 0.930 . S
H738 C743 0.930 . S
H739 C747 0.930 . S
O740 Co709 2.037 1_556 S
O740 C760 1.234 . S
C741 O715 1.269 . S
C741 O716 1.257 . S
C742 H717 0.930 . S
C742 C745 1.388 . S
C742 C747 1.418 . S
C743 H738 0.930 . S
C743 C746 1.404 . S
C743 C747 1.353 . S
N744 Co709 2.145 . S
N744 C745 1.397 . S
N744 C746 1.334 . S
C745 H726 0.929 . S
C745 C742 1.388 . S
C745 N744 1.397 . S
C746 H727 0.929 . S
C746 C743 1.404 . S
C746 N744 1.334 . S
C747 H739 0.930 . S
C747 C742 1.418 . S
C747 C743 1.353 . S
C748 H718 0.930 . S
C748 N749 1.330 1_556 S
C748 C750 1.446 1_556 S
N749 Co708 2.151 1_554 S
N749 C748 1.330 1_554 S
N749 C753 1.418 . S
C750 H729 0.929 . S
C750 C748 1.446 1_554 S
C750 C751 1.332 . S
C751 H731 0.931 . S
C751 C750 1.332 . S
C751 C752 1.267 . S
C752 H720 0.929 . S
C752 C751 1.267 . S
C752 C753 1.251 . S
C753 H723 0.929 . S
C753 N749 1.418 . S
C753 C752 1.251 . S
C754 H721 0.930 . S
C754 C756 1.406 . S
C754 C759 1.261 . S
C755 H722 0.930 . S
C755 N757 1.325 . S
C755 C758 1.357 . S
C756 H724 0.928 . S
C756 C754 1.406 . S
C756 N757 1.261 . S
N757 Co708 2.214 . S
N757 C755 1.325 . S
N757 C756 1.261 . S
C758 H728 0.931 . S
C758 C755 1.357 . S
C758 C759 1.312 . S
C759 H730 0.930 . S
C759 C754 1.261 . S
C759 C758 1.312 . S
C760 O732 1.214 . S
C760 O740 1.234 . S
C761 H733 0.929 . S
C761 C764 1.391 . S
C761 C766 1.391 . S
C762 H734 0.929 . S
C762 C763 1.390 . S
C762 N765 1.391 . S
C763 H735 0.930 . S
C763 C762 1.390 . S
C763 C764 1.392 . S
C764 H736 0.929 . S
C764 C761 1.391 . S
C764 C763 1.392 . S
N765 Co709 2.257 1_556 S
N765 C762 1.391 . S
N765 C766 1.388 . S
C766 H737 0.930 . S
C766 C761 1.391 . S
C766 N765 1.388 . S
Co767 O769 2.143 1_556 S
Co767 O775 2.074 1_556 S
Co767 O778 2.093 . S
Co767 O791 2.097 . S
Co767 N808 2.151 1_556 S
Co767 N816 2.214 . S
Co768 O769 2.160 . S
Co768 O774 2.058 . S
Co768 O784 2.057 . S
Co768 O799 2.037 1_554 S
Co768 N803 2.145 . S
Co768 N824 2.267 . S
O769 Co767 2.143 1_554 S
O769 Co768 2.160 . S
C770 O771 1.278 . S
C770 O778 1.224 . S
O771 C770 1.278 . S
C772 O773 1.245 . S
C772 O784 1.232 . S
O773 C772 1.245 . S
O774 Co768 2.058 . S
O774 C800 1.269 . S
O775 Co767 2.074 1_554 S
O775 C800 1.257 . S
H776 C801 0.930 . S
H777 C807 0.930 . S
O778 Co767 2.093 . S
O778 C770 1.224 . S
H779 C811 0.929 . S
H780 C813 0.930 . S
H781 C814 0.930 . S
H782 C812 0.929 . S
H783 C815 0.928 . S
O784 Co768 2.057 . S
O784 C772 1.232 . S
H785 C804 0.917 1_556 S
H786 C805 0.929 . S
H787 C817 0.931 . S
H788 C809 0.929 . S
H789 C818 0.930 . S
H790 C810 0.931 . S
O791 Co767 2.097 . S
O791 C819 1.214 . S
H792 C820 0.936 . S
H793 C821 0.929 . S
H794 C822 0.930 . S
H795 C823 0.929 . S
H796 C825 0.930 . S
H797 C802 0.930 . S
H798 C806 0.935 . S
O799 Co768 2.037 1_556 S
O799 C819 1.234 . S
C800 O774 1.269 . S
C800 O775 1.257 . S
C801 H776 0.930 . S
C801 C804 1.388 . S
C801 C806 1.418 . S
C802 H797 0.930 . S
C802 C805 1.404 . S
C802 C806 1.353 . S
N803 Co768 2.145 . S
N803 C804 1.397 . S
N803 C805 1.334 . S
C804 H785 0.917 1_554 S
C804 C801 1.388 . S
C804 N803 1.397 . S
C805 H786 0.929 . S
C805 C802 1.404 . S
C805 N803 1.334 . S
C806 H798 0.935 . S
C806 C801 1.418 . S
C806 C802 1.353 . S
C807 H777 0.930 . S
C807 N808 1.330 . S
C807 C809 1.446 . S
N808 Co767 2.151 1_554 S
N808 C807 1.330 . S
N808 C812 1.418 . S
C809 H788 0.929 . S
C809 C807 1.446 . S
C809 C810 1.332 . S
C810 H790 0.931 . S
C810 C809 1.332 . S
C810 C811 1.267 . S
C811 H779 0.929 . S
C811 C810 1.267 . S
C811 C812 1.251 . S
C812 H782 0.929 . S
C812 N808 1.418 . S
C812 C811 1.251 . S
C813 H780 0.930 . S
C813 C815 1.406 . S
C813 C818 1.261 . S
C814 H781 0.930 . S
C814 N816 1.325 . S
C814 C817 1.357 . S
C815 H783 0.928 . S
C815 C813 1.406 . S
C815 N816 1.261 . S
N816 Co767 2.214 . S
N816 C814 1.325 . S
N816 C815 1.261 . S
C817 H787 0.931 . S
C817 C814 1.357 . S
C817 C818 1.312 . S
C818 H789 0.930 . S
C818 C813 1.261 . S
C818 C817 1.312 . S
C819 O791 1.214 . S
C819 O799 1.234 . S
C820 H792 0.936 . S
C820 C823 1.391 . S
C820 C825 1.391 1_556 S
C821 H793 0.929 . S
C821 C822 1.390 . S
C821 N824 1.376 1_556 S
C822 H794 0.930 . S
C822 C821 1.390 . S
C822 C823 1.392 . S
C823 H795 0.929 . S
C823 C820 1.391 . S
C823 C822 1.392 . S
N824 Co768 2.267 . S
N824 C821 1.376 1_554 S
N824 C825 1.393 . S
C825 H796 0.930 . S
C825 C820 1.391 1_554 S
C825 N824 1.393 . S
Co826 O828 2.143 . S
Co826 O834 2.074 . S
Co826 O837 2.093 . S
Co826 O850 2.097 . S
Co826 N867 2.151 . S
Co826 N875 2.214 . S
Co827 O828 2.160 . S
Co827 O833 2.058 . S
Co827 O843 2.057 . S
Co827 O858 2.037 . S
Co827 N862 2.145 . S
Co827 N883 2.257 . S
O828 Co826 2.143 . S
O828 Co827 2.160 . S
C829 O830 1.278 . S
C829 O837 1.224 . S
O830 C829 1.278 . S
C831 O832 1.245 . S
C831 O843 1.232 . S
O832 C831 1.245 . S
O833 Co827 2.058 . S
O833 C859 1.269 . S
O834 Co826 2.074 . S
O834 C859 1.257 . S
H835 C860 0.930 . S
H836 C866 0.930 . S
O837 Co826 2.093 . S
O837 C829 1.224 . S
H838 C870 0.929 1_655 S
H839 C872 0.930 1_655 S
H840 C873 0.930 . S
H841 C871 0.929 . S
H842 C874 0.928 . S
O843 Co827 2.057 . S
O843 C831 1.232 . S
H844 C863 0.929 . S
H845 C864 0.929 . S
H846 C876 0.931 . S
H847 C868 0.929 . S
H848 C877 0.930 . S
H849 C869 0.931 1_655 S
O850 Co826 2.097 . S
O850 C878 1.214 . S
H851 C879 0.929 . S
H852 C880 0.929 . S
H853 C881 0.930 . S
H854 C882 0.929 . S
H855 C884 0.930 . S
H856 C861 0.930 . S
H857 C865 0.930 . S
O858 Co827 2.037 . S
O858 C878 1.234 . S
C859 O833 1.269 . S
C859 O834 1.257 . S
C860 H835 0.930 . S
C860 C863 1.388 . S
C860 C865 1.418 . S
C861 H856 0.930 . S
C861 C864 1.404 . S
C861 C865 1.353 . S
N862 Co827 2.145 . S
N862 C863 1.397 . S
N862 C864 1.334 . S
C863 H844 0.929 . S
C863 C860 1.388 . S
C863 N862 1.397 . S
C864 H845 0.929 . S
C864 C861 1.404 . S
C864 N862 1.334 . S
C865 H857 0.930 . S
C865 C860 1.418 . S
C865 C861 1.353 . S
C866 H836 0.930 . S
C866 N867 1.330 . S
C866 C868 1.446 . S
N867 Co826 2.151 . S
N867 C866 1.330 . S
N867 C871 1.418 . S
C868 H847 0.929 . S
C868 C866 1.446 . S
C868 C869 1.332 . S
C869 H849 0.931 1_455 S
C869 C868 1.332 . S
C869 C870 1.267 . S
C870 H838 0.929 1_455 S
C870 C869 1.267 . S
C870 C871 1.251 . S
C871 H841 0.929 . S
C871 N867 1.418 . S
C871 C870 1.251 . S
C872 H839 0.930 1_455 S
C872 C874 1.406 . S
C872 C877 1.261 . S
C873 H840 0.930 . S
C873 N875 1.325 . S
C873 C876 1.357 . S
C874 H842 0.928 . S
C874 C872 1.406 . S
C874 N875 1.261 . S
N875 Co826 2.214 . S
N875 C873 1.325 . S
N875 C874 1.261 . S
C876 H846 0.931 . S
C876 C873 1.357 . S
C876 C877 1.312 . S
C877 H848 0.930 . S
C877 C872 1.261 . S
C877 C876 1.312 . S
C878 O850 1.214 . S
C878 O858 1.234 . S
C879 H851 0.929 . S
C879 C882 1.391 . S
C879 C884 1.391 . S
C880 H852 0.929 . S
C880 C881 1.390 . S
C880 N883 1.391 . S
C881 H853 0.930 . S
C881 C880 1.390 . S
C881 C882 1.392 . S
C882 H854 0.929 . S
C882 C879 1.391 . S
C882 C881 1.392 . S
N883 Co827 2.257 . S
N883 C880 1.391 . S
N883 C884 1.388 . S
C884 H855 0.930 . S
C884 C879 1.391 . S
C884 N883 1.388 . S
Co885 O887 2.143 . S
Co885 O893 2.074 . S
Co885 O896 2.093 . S
Co885 O909 2.097 . S
Co885 N926 2.151 . S
Co885 N934 2.214 . S
Co886 O887 2.160 . S
Co886 O892 2.058 . S
Co886 O902 2.057 . S
Co886 O917 2.037 . S
Co886 N921 2.145 . S
Co886 N942 2.257 . S
O887 Co885 2.143 . S
O887 Co886 2.160 . S
C888 O889 1.278 . S
C888 O896 1.224 . S
O889 C888 1.278 . S
C890 O891 1.245 . S
C890 O902 1.232 . S
O891 C890 1.245 . S
O892 Co886 2.058 . S
O892 C918 1.269 . S
O893 Co885 2.074 . S
O893 C918 1.257 . S
H894 C919 0.930 . S
H895 C925 0.930 . S
O896 Co885 2.093 . S
O896 C888 1.224 . S
H897 C929 0.929 1_545 S
H898 C931 0.930 1_545 S
H899 C932 0.930 . S
H900 C930 0.929 . S
H901 C933 0.928 . S
O902 Co886 2.057 . S
O902 C890 1.232 . S
H903 C922 0.929 . S
H904 C923 0.929 . S
H905 C935 0.931 . S
H906 C927 0.929 . S
H907 C936 0.930 . S
H908 C928 0.953 . S
O909 Co885 2.097 . S
O909 C937 1.214 . S
H910 C938 0.929 . S
H911 C939 0.929 . S
H912 C940 0.930 . S
H913 C941 0.929 . S
H914 C943 0.930 . S
H915 C920 0.930 . S
H916 C924 0.930 . S
O917 Co886 2.037 . S
O917 C937 1.234 . S
C918 O892 1.269 . S
C918 O893 1.257 . S
C919 H894 0.930 . S
C919 C922 1.388 . S
C919 C924 1.418 . S
C920 H915 0.930 . S
C920 C923 1.404 . S
C920 C924 1.353 . S
N921 Co886 2.145 . S
N921 C922 1.397 . S
N921 C923 1.334 . S
C922 H903 0.929 . S
C922 C919 1.388 . S
C922 N921 1.397 . S
C923 H904 0.929 . S
C923 C920 1.404 . S
C923 N921 1.334 . S
C924 H916 0.930 . S
C924 C919 1.418 . S
C924 C920 1.353 . S
C925 H895 0.930 . S
C925 N926 1.330 . S
C925 C927 1.446 . S
N926 Co885 2.151 . S
N926 C925 1.330 . S
N926 C930 1.418 . S
C927 H906 0.929 . S
C927 C925 1.446 . S
C927 C928 1.314 1_565 S
C928 H908 0.953 . S
C928 C927 1.314 1_545 S
C928 C929 1.264 1_545 S
C929 H897 0.929 1_565 S
C929 C928 1.264 1_565 S
C929 C930 1.251 . S
C930 H900 0.929 . S
C930 N926 1.418 . S
C930 C929 1.251 . S
C931 H898 0.930 1_565 S
C931 C933 1.406 . S
C931 C936 1.261 . S
C932 H899 0.930 . S
C932 N934 1.325 . S
C932 C935 1.357 . S
C933 H901 0.928 . S
C933 C931 1.406 . S
C933 N934 1.261 . S
N934 Co885 2.214 . S
N934 C932 1.325 . S
N934 C933 1.261 . S
C935 H905 0.931 . S
C935 C932 1.357 . S
C935 C936 1.312 . S
C936 H907 0.930 . S
C936 C931 1.261 . S
C936 C935 1.312 . S
C937 O909 1.214 . S
C937 O917 1.234 . S
C938 H910 0.929 . S
C938 C941 1.391 . S
C938 C943 1.391 . S
C939 H911 0.929 . S
C939 C940 1.390 . S
C939 N942 1.391 . S
C940 H912 0.930 . S
C940 C939 1.390 . S
C940 C941 1.392 . S
C941 H913 0.929 . S
C941 C938 1.391 . S
C941 C940 1.392 . S
N942 Co886 2.257 . S
N942 C939 1.391 . S
N942 C943 1.388 . S
C943 H914 0.930 . S
C943 C938 1.391 . S
C943 N942 1.388 . S
Co944 O946 2.143 1_545 S
Co944 O952 2.074 . S
Co944 O955 2.097 . S
Co944 O968 2.097 . S
Co944 N985 2.151 1_545 S
Co944 N993 2.214 . S
Co945 O946 2.160 1_545 S
Co945 O951 2.058 . S
Co945 O961 2.057 1_545 S
Co945 O976 2.037 . S
Co945 N980 2.145 . S
Co945 N1001 2.257 1_545 S
O946 Co944 2.143 1_565 S
O946 Co945 2.160 1_565 S
C947 O948 1.278 . S
C947 O955 1.218 1_565 S
O948 C947 1.278 . S
C949 O950 1.245 . S
C949 O961 1.232 . S
O950 C949 1.245 . S
O951 Co945 2.058 . S
O951 C977 1.269 . S
O952 Co944 2.074 . S
O952 C977 1.257 . S
H953 C978 0.930 . S
H954 C984 0.930 . S
O955 Co944 2.097 . S
O955 C947 1.218 1_545 S
H956 C988 0.929 . S
H957 C990 0.930 . S
H958 C991 0.930 . S
H959 C989 0.926 1_545 S
H960 C992 0.928 . S
O961 Co945 2.057 1_565 S
O961 C949 1.232 . S
H962 C981 0.929 . S
H963 C982 0.929 1_565 S
H964 C994 0.931 . S
H965 C986 0.929 . S
H966 C995 0.930 . S
H967 C987 0.931 . S
O968 Co944 2.097 . S
O968 C996 1.214 . S
H969 C997 0.929 . S
H970 C998 0.929 . S
H971 C999 0.930 . S
H972 C1000 0.929 . S
H973 C1002 0.930 . S
H974 C979 0.909 1_455 S
H975 C983 0.930 1_455 S
O976 Co945 2.037 . S
O976 C996 1.234 . S
C977 O951 1.269 . S
C977 O952 1.257 . S
C978 H953 0.930 . S
C978 C981 1.388 . S
C978 C983 1.418 . S
C979 H974 0.909 1_655 S
C979 C982 1.404 . S
C979 C983 1.353 . S
N980 Co945 2.145 . S
N980 C981 1.397 . S
N980 C982 1.334 . S
C981 H962 0.929 . S
C981 C978 1.388 . S
C981 N980 1.397 . S
C982 H963 0.929 1_545 S
C982 C979 1.404 . S
C982 N980 1.334 . S
C983 H975 0.930 1_655 S
C983 C978 1.418 . S
C983 C979 1.353 . S
C984 H954 0.930 . S
C984 N985 1.330 . S
C984 C986 1.446 . S
N985 Co944 2.151 1_565 S
N985 C984 1.330 . S
N985 C989 1.419 . S
C986 H965 0.929 . S
C986 C984 1.446 . S
C986 C987 1.332 . S
C987 H967 0.931 . S
C987 C986 1.332 . S
C987 C988 1.267 . S
C988 H956 0.929 . S
C988 C987 1.267 . S
C988 C989 1.253 . S
C989 H959 0.926 1_565 S
C989 N985 1.419 . S
C989 C988 1.253 . S
C990 H957 0.930 . S
C990 C992 1.406 . S
C990 C995 1.261 . S
C991 H958 0.930 . S
C991 N993 1.325 . S
C991 C994 1.357 . S
C992 H960 0.928 . S
C992 C990 1.406 . S
C992 N993 1.261 . S
N993 Co944 2.214 . S
N993 C991 1.325 . S
N993 C992 1.261 . S
C994 H964 0.931 . S
C994 C991 1.357 . S
C994 C995 1.312 . S
C995 H966 0.930 . S
C995 C990 1.261 . S
C995 C994 1.312 . S
C996 O968 1.214 . S
C996 O976 1.234 . S
C997 H969 0.929 . S
C997 C1000 1.391 . S
C997 C1002 1.391 . S
C998 H970 0.929 . S
C998 C999 1.390 . S
C998 N1001 1.391 1_545 S
C999 H971 0.930 . S
C999 C998 1.390 . S
C999 C1000 1.392 1_545 S
C1000 H972 0.929 . S
C1000 C997 1.391 . S
C1000 C999 1.392 1_565 S
N1001 Co945 2.257 1_565 S
N1001 C998 1.391 1_565 S
N1001 C1002 1.388 . S
C1002 H973 0.930 . S
C1002 C997 1.391 . S
C1002 N1001 1.388 . S
Co1003 O1005 2.143 . S
Co1003 O1011 2.074 . S
Co1003 O1014 2.093 . S
Co1003 O1027 2.097 . S
Co1003 N1044 2.151 . S
Co1003 N1052 2.214 . S
Co1004 O1005 2.160 . S
Co1004 O1010 2.058 . S
Co1004 O1020 2.057 . S
Co1004 O1035 2.037 . S
Co1004 N1039 2.145 . S
Co1004 N1060 2.257 . S
O1005 Co1003 2.143 . S
O1005 Co1004 2.160 . S
C1006 O1007 1.278 . S
C1006 O1014 1.224 . S
O1007 C1006 1.278 . S
C1008 O1009 1.245 . S
C1008 O1020 1.232 . S
O1009 C1008 1.245 . S
O1010 Co1004 2.058 . S
O1010 C1036 1.269 . S
O1011 Co1003 2.074 . S
O1011 C1036 1.257 . S
H1012 C1037 0.930 . S
H1013 C1043 0.930 . S
O1014 Co1003 2.093 . S
O1014 C1006 1.224 . S
H1015 C1047 0.929 . S
H1016 C1049 0.930 . S
H1017 C1050 0.930 . S
H1018 C1048 0.929 . S
H1019 C1051 0.928 . S
O1020 Co1004 2.057 . S
O1020 C1008 1.232 . S
H1021 C1040 0.929 . S
H1022 C1041 0.929 . S
H1023 C1053 0.931 . S
H1024 C1045 0.929 . S
H1025 C1054 0.930 . S
H1026 C1046 0.931 . S
O1027 Co1003 2.097 . S
O1027 C1055 1.214 . S
H1028 C1056 0.929 . S
H1029 C1057 0.929 . S
H1030 C1058 0.930 . S
H1031 C1059 0.929 . S
H1032 C1061 0.930 . S
H1033 C1038 0.930 . S
H1034 C1042 0.930 . S
O1035 Co1004 2.037 . S
O1035 C1055 1.234 . S
C1036 O1010 1.269 . S
C1036 O1011 1.257 . S
C1037 H1012 0.930 . S
C1037 C1040 1.388 . S
C1037 C1042 1.418 . S
C1038 H1033 0.930 . S
C1038 C1041 1.404 . S
C1038 C1042 1.353 . S
N1039 Co1004 2.145 . S
N1039 C1040 1.397 . S
N1039 C1041 1.334 . S
C1040 H1021 0.929 . S
C1040 C1037 1.388 . S
C1040 N1039 1.397 . S
C1041 H1022 0.929 . S
C1041 C1038 1.404 . S
C1041 N1039 1.334 . S
C1042 H1034 0.930 . S
C1042 C1037 1.418 . S
C1042 C1038 1.353 . S
C1043 H1013 0.930 . S
C1043 N1044 1.330 . S
C1043 C1045 1.446 . S
N1044 Co1003 2.151 . S
N1044 C1043 1.330 . S
N1044 C1048 1.418 . S
C1045 H1024 0.929 . S
C1045 C1043 1.446 . S
C1045 C1046 1.332 . S
C1046 H1026 0.931 . S
C1046 C1045 1.332 . S
C1046 C1047 1.267 . S
C1047 H1015 0.929 . S
C1047 C1046 1.267 . S
C1047 C1048 1.251 . S
C1048 H1018 0.929 . S
C1048 N1044 1.418 . S
C1048 C1047 1.251 . S
C1049 H1016 0.930 . S
C1049 C1051 1.406 . S
C1049 C1054 1.261 . S
C1050 H1017 0.930 . S
C1050 N1052 1.325 . S
C1050 C1053 1.357 . S
C1051 H1019 0.928 . S
C1051 C1049 1.406 . S
C1051 N1052 1.261 . S
N1052 Co1003 2.214 . S
N1052 C1050 1.325 . S
N1052 C1051 1.261 . S
C1053 H1023 0.931 . S
C1053 C1050 1.357 . S
C1053 C1054 1.312 . S
C1054 H1025 0.930 . S
C1054 C1049 1.261 . S
C1054 C1053 1.312 . S
C1055 O1027 1.214 . S
C1055 O1035 1.234 . S
C1056 H1028 0.929 . S
C1056 C1059 1.391 . S
C1056 C1061 1.391 . S
C1057 H1029 0.929 . S
C1057 C1058 1.390 . S
C1057 N1060 1.391 . S
C1058 H1030 0.930 . S
C1058 C1057 1.390 . S
C1058 C1059 1.392 . S
C1059 H1031 0.929 . S
C1059 C1056 1.391 . S
C1059 C1058 1.392 . S
N1060 Co1004 2.257 . S
N1060 C1057 1.391 . S
N1060 C1061 1.388 . S
C1061 H1032 0.930 . S
C1061 C1056 1.391 . S
C1061 N1060 1.388 . S
Co1062 O1064 2.143 . S
Co1062 O1070 2.074 . S
Co1062 O1073 2.093 . S
Co1062 O1086 2.097 . S
Co1062 N1103 2.151 . S
Co1062 N1111 2.214 . S
Co1063 O1064 2.160 . S
Co1063 O1069 2.058 . S
Co1063 O1079 2.057 . S
Co1063 O1094 2.037 . S
Co1063 N1098 2.145 . S
Co1063 N1119 2.257 . S
O1064 Co1062 2.143 . S
O1064 Co1063 2.160 . S
C1065 O1066 1.278 . S
C1065 O1073 1.224 . S
O1066 C1065 1.278 . S
C1067 O1068 1.245 . S
C1067 O1079 1.232 . S
O1068 C1067 1.245 . S
O1069 Co1063 2.058 . S
O1069 C1095 1.269 . S
O1070 Co1062 2.074 . S
O1070 C1095 1.257 . S
H1071 C1096 0.930 . S
H1072 C1102 0.930 . S
O1073 Co1062 2.093 . S
O1073 C1065 1.224 . S
H1074 C1106 0.929 . S
H1075 C1108 0.930 . S
H1076 C1109 0.930 . S
H1077 C1107 0.929 . S
H1078 C1110 0.928 . S
O1079 Co1063 2.057 . S
O1079 C1067 1.232 . S
H1080 C1099 0.929 . S
H1081 C1100 0.929 . S
H1082 C1112 0.931 . S
H1083 C1104 0.929 . S
H1084 C1113 0.930 . S
H1085 C1105 0.931 . S
O1086 Co1062 2.097 . S
O1086 C1114 1.214 . S
H1087 C1115 0.929 . S
H1088 C1116 0.929 . S
H1089 C1117 0.930 . S
H1090 C1118 0.929 . S
H1091 C1120 0.930 . S
H1092 C1097 0.930 . S
H1093 C1101 0.930 . S
O1094 Co1063 2.037 . S
O1094 C1114 1.234 . S
C1095 O1069 1.269 . S
C1095 O1070 1.257 . S
C1096 H1071 0.930 . S
C1096 C1099 1.388 . S
C1096 C1101 1.418 . S
C1097 H1092 0.930 . S
C1097 C1100 1.404 . S
C1097 C1101 1.353 . S
N1098 Co1063 2.145 . S
N1098 C1099 1.397 . S
N1098 C1100 1.334 . S
C1099 H1080 0.929 . S
C1099 C1096 1.388 . S
C1099 N1098 1.397 . S
C1100 H1081 0.929 . S
C1100 C1097 1.404 . S
C1100 N1098 1.334 . S
C1101 H1093 0.930 . S
C1101 C1096 1.418 . S
C1101 C1097 1.353 . S
C1102 H1072 0.930 . S
C1102 N1103 1.330 . S
C1102 C1104 1.446 . S
N1103 Co1062 2.151 . S
N1103 C1102 1.330 . S
N1103 C1107 1.418 . S
C1104 H1083 0.929 . S
C1104 C1102 1.446 . S
C1104 C1105 1.332 . S
C1105 H1085 0.931 . S
C1105 C1104 1.332 . S
C1105 C1106 1.267 . S
C1106 H1074 0.929 . S
C1106 C1105 1.267 . S
C1106 C1107 1.251 . S
C1107 H1077 0.929 . S
C1107 N1103 1.418 . S
C1107 C1106 1.251 . S
C1108 H1075 0.930 . S
C1108 C1110 1.406 . S
C1108 C1113 1.261 . S
C1109 H1076 0.930 . S
C1109 N1111 1.325 . S
C1109 C1112 1.357 . S
C1110 H1078 0.928 . S
C1110 C1108 1.406 . S
C1110 N1111 1.261 . S
N1111 Co1062 2.214 . S
N1111 C1109 1.325 . S
N1111 C1110 1.261 . S
C1112 H1082 0.931 . S
C1112 C1109 1.357 . S
C1112 C1113 1.312 . S
C1113 H1084 0.930 . S
C1113 C1108 1.261 . S
C1113 C1112 1.312 . S
C1114 O1086 1.214 . S
C1114 O1094 1.234 . S
C1115 H1087 0.929 . S
C1115 C1118 1.391 . S
C1115 C1120 1.391 . S
C1116 H1088 0.929 . S
C1116 C1117 1.390 . S
C1116 N1119 1.391 . S
C1117 H1089 0.930 . S
C1117 C1116 1.390 . S
C1117 C1118 1.392 . S
C1118 H1090 0.929 . S
C1118 C1115 1.391 . S
C1118 C1117 1.392 . S
N1119 Co1063 2.257 . S
N1119 C1116 1.391 . S
N1119 C1120 1.388 . S
C1120 H1091 0.930 . S
C1120 C1115 1.391 . S
C1120 N1119 1.388 . S
Co1121 O1123 2.143 1_545 S
Co1121 O1129 2.074 . S
Co1121 O1132 2.093 1_545 S
Co1121 O1145 2.097 . S
Co1121 N1162 2.151 1_545 S
Co1121 N1170 2.214 . S
Co1122 O1123 2.160 1_545 S
Co1122 O1128 2.058 . S
Co1122 O1138 2.057 1_545 S
Co1122 O1153 2.037 . S
Co1122 N1157 2.145 . S
Co1122 N1178 2.257 1_545 S
O1123 Co1121 2.143 1_565 S
O1123 Co1122 2.160 1_565 S
C1124 O1125 1.278 . S
C1124 O1132 1.224 . S
O1125 C1124 1.278 . S
C1126 O1127 1.245 . S
C1126 O1138 1.232 . S
O1127 C1126 1.245 . S
O1128 Co1122 2.058 . S
O1128 C1154 1.269 . S
O1129 Co1121 2.074 . S
O1129 C1154 1.257 . S
H1130 C1155 0.930 . S
H1131 C1161 0.930 . S
O1132 Co1121 2.093 1_565 S
O1132 C1124 1.224 . S
H1133 C1165 0.929 . S
H1134 C1167 0.930 . S
H1135 C1168 0.930 . S
H1136 C1166 0.929 . S
H1137 C1169 0.928 1_565 S
O1138 Co1122 2.057 1_565 S
O1138 C1126 1.232 . S
H1139 C1158 0.929 . S
H1140 C1159 0.929 . S
H1141 C1171 0.931 . S
H1142 C1163 0.929 . S
H1143 C1172 0.930 . S
H1144 C1164 0.931 . S
O1145 Co1121 2.097 . S
O1145 C1173 1.214 . S
H1146 C1174 0.929 . S
H1147 C1175 0.929 . S
H1148 C1176 0.930 . S
H1149 C1177 0.929 . S
H1150 C1179 0.930 . S
H1151 C1156 0.930 . S
H1152 C1160 0.930 . S
O1153 Co1122 2.037 . S
O1153 C1173 1.234 . S
C1154 O1128 1.269 . S
C1154 O1129 1.257 . S
C1155 H1130 0.930 . S
C1155 C1158 1.388 . S
C1155 C1160 1.418 . S
C1156 H1151 0.930 . S
C1156 C1159 1.404 . S
C1156 C1160 1.353 . S
N1157 Co1122 2.145 . S
N1157 C1158 1.397 . S
N1157 C1159 1.334 . S
C1158 H1139 0.929 . S
C1158 C1155 1.388 . S
C1158 N1157 1.397 . S
C1159 H1140 0.929 . S
C1159 C1156 1.404 . S
C1159 N1157 1.334 . S
C1160 H1152 0.930 . S
C1160 C1155 1.418 . S
C1160 C1156 1.353 . S
C1161 H1131 0.930 . S
C1161 N1162 1.330 . S
C1161 C1163 1.446 . S
N1162 Co1121 2.151 1_565 S
N1162 C1161 1.330 . S
N1162 C1166 1.418 1_565 S
C1163 H1142 0.929 . S
C1163 C1161 1.446 . S
C1163 C1164 1.332 . S
C1164 H1144 0.931 . S
C1164 C1163 1.332 . S
C1164 C1165 1.267 1_565 S
C1165 H1133 0.929 . S
C1165 C1164 1.267 1_545 S
C1165 C1166 1.251 . S
C1166 H1136 0.929 . S
C1166 N1162 1.418 1_545 S
C1166 C1165 1.251 . S
C1167 H1134 0.930 . S
C1167 C1169 1.406 . S
C1167 C1172 1.261 . S
C1168 H1135 0.930 . S
C1168 N1170 1.325 . S
C1168 C1171 1.357 . S
C1169 H1137 0.928 1_545 S
C1169 C1167 1.406 . S
C1169 N1170 1.261 . S
N1170 Co1121 2.214 . S
N1170 C1168 1.325 . S
N1170 C1169 1.261 . S
C1171 H1141 0.931 . S
C1171 C1168 1.357 . S
C1171 C1172 1.312 . S
C1172 H1143 0.930 . S
C1172 C1167 1.261 . S
C1172 C1171 1.312 . S
C1173 O1145 1.214 . S
C1173 O1153 1.234 . S
C1174 H1146 0.929 . S
C1174 C1177 1.391 . S
C1174 C1179 1.391 . S
C1175 H1147 0.929 . S
C1175 C1176 1.390 1_545 S
C1175 N1178 1.391 1_545 S
C1176 H1148 0.930 . S
C1176 C1175 1.390 1_565 S
C1176 C1177 1.392 . S
C1177 H1149 0.929 . S
C1177 C1174 1.391 . S
C1177 C1176 1.392 . S
N1178 Co1122 2.257 1_565 S
N1178 C1175 1.391 1_565 S
N1178 C1179 1.388 . S
C1179 H1150 0.930 . S
C1179 C1174 1.391 . S
C1179 N1178 1.388 . S
Co1180 O1182 2.143 1_554 S
Co1180 O1188 2.074 . S
Co1180 O1191 2.093 . S
Co1180 O1204 2.097 . S
Co1180 N1221 2.135 1_554 S
Co1180 N1229 2.214 . S
Co1181 O1182 2.160 1_554 S
Co1181 O1187 2.058 . S
Co1181 O1197 2.057 1_554 S
Co1181 O1212 2.037 . S
Co1181 N1216 2.145 . S
Co1181 N1237 2.257 1_554 S
O1182 Co1180 2.143 1_556 S
O1182 Co1181 2.160 1_556 S
C1183 O1184 1.278 . S
C1183 O1191 1.224 1_556 S
O1184 C1183 1.278 . S
C1185 O1186 1.245 . S
C1185 O1197 1.232 . S
O1186 C1185 1.245 . S
O1187 Co1181 2.058 . S
O1187 C1213 1.269 . S
O1188 Co1180 2.074 . S
O1188 C1213 1.257 . S
H1189 C1214 0.930 . S
H1190 C1220 0.930 . S
O1191 Co1180 2.093 . S
O1191 C1183 1.224 1_554 S
H1192 C1224 0.929 1_554 S
H1193 C1226 0.930 . S
H1194 C1227 0.930 . S
H1195 C1225 0.929 . S
H1196 C1228 0.928 . S
O1197 Co1181 2.057 1_556 S
O1197 C1185 1.232 . S
H1198 C1217 0.929 . S
H1199 C1218 0.929 1_556 S
H1200 C1230 0.931 . S
H1201 C1222 0.929 . S
H1202 C1231 0.930 . S
H1203 C1223 0.931 . S
O1204 Co1180 2.097 . S
O1204 C1232 1.214 . S
H1205 C1233 0.929 . S
H1206 C1234 0.929 . S
H1207 C1235 0.930 . S
H1208 C1236 0.929 . S
H1209 C1238 0.930 . S
H1210 C1215 0.930 1_556 S
H1211 C1219 0.930 . S
O1212 Co1181 2.037 . S
O1212 C1232 1.234 . S
C1213 O1187 1.269 . S
C1213 O1188 1.257 . S
C1214 H1189 0.930 . S
C1214 C1217 1.388 . S
C1214 C1219 1.418 . S
C1215 H1210 0.930 1_554 S
C1215 C1218 1.404 . S
C1215 C1219 1.353 . S
N1216 Co1181 2.145 . S
N1216 C1217 1.397 . S
N1216 C1218 1.334 . S
C1217 H1198 0.929 . S
C1217 C1214 1.388 . S
C1217 N1216 1.397 . S
C1218 H1199 0.929 1_554 S
C1218 C1215 1.404 . S
C1218 N1216 1.334 . S
C1219 H1211 0.930 . S
C1219 C1214 1.418 . S
C1219 C1215 1.353 . S
C1220 H1190 0.930 . S
C1220 N1221 1.354 . S
C1220 C1222 1.446 . S
N1221 Co1180 2.135 1_556 S
N1221 C1220 1.354 . S
N1221 C1225 1.409 1_556 S
C1222 H1201 0.929 . S
C1222 C1220 1.446 . S
C1222 C1223 1.332 . S
C1223 H1203 0.931 . S
C1223 C1222 1.332 . S
C1223 C1224 1.267 . S
C1224 H1192 0.929 1_556 S
C1224 C1223 1.267 . S
C1224 C1225 1.251 1_556 S
C1225 H1195 0.929 . S
C1225 N1221 1.409 1_554 S
C1225 C1224 1.251 1_554 S
C1226 H1193 0.930 . S
C1226 C1228 1.406 . S
C1226 C1231 1.261 . S
C1227 H1194 0.930 . S
C1227 N1229 1.325 . S
C1227 C1230 1.357 . S
C1228 H1196 0.928 . S
C1228 C1226 1.406 . S
C1228 N1229 1.261 . S
N1229 Co1180 2.214 . S
N1229 C1227 1.325 . S
N1229 C1228 1.261 . S
C1230 H1200 0.931 . S
C1230 C1227 1.357 . S
C1230 C1231 1.312 . S
C1231 H1202 0.930 . S
C1231 C1226 1.261 . S
C1231 C1230 1.312 . S
C1232 O1204 1.214 . S
C1232 O1212 1.234 . S
C1233 H1205 0.929 . S
C1233 C1236 1.391 . S
C1233 C1238 1.391 . S
C1234 H1206 0.929 . S
C1234 C1235 1.390 . S
C1234 N1237 1.391 1_554 S
C1235 H1207 0.930 . S
C1235 C1234 1.390 . S
C1235 C1236 1.392 1_554 S
C1236 H1208 0.929 . S
C1236 C1233 1.391 . S
C1236 C1235 1.392 1_556 S
N1237 Co1181 2.257 1_556 S
N1237 C1234 1.391 1_556 S
N1237 C1238 1.388 . S
C1238 H1209 0.930 . S
C1238 C1233 1.391 . S
C1238 N1237 1.388 . S
Co1239 O1241 2.143 . S
Co1239 O1247 2.074 . S
Co1239 O1250 2.093 . S
Co1239 O1263 2.097 . S
Co1239 N1280 2.151 . S
Co1239 N1288 2.214 . S
Co1240 O1241 2.160 . S
Co1240 O1246 2.058 . S
Co1240 O1256 2.057 . S
Co1240 O1271 2.037 . S
Co1240 N1275 2.145 . S
Co1240 N1296 2.257 . S
O1241 Co1239 2.143 . S
O1241 Co1240 2.160 . S
C1242 O1243 1.278 . S
C1242 O1250 1.224 . S
O1243 C1242 1.278 . S
C1244 O1245 1.245 . S
C1244 O1256 1.232 . S
O1245 C1244 1.245 . S
O1246 Co1240 2.058 . S
O1246 C1272 1.269 . S
O1247 Co1239 2.074 . S
O1247 C1272 1.257 . S
H1248 C1273 0.930 . S
H1249 C1279 0.930 . S
O1250 Co1239 2.093 . S
O1250 C1242 1.224 . S
H1251 C1283 0.929 . S
H1252 C1285 0.930 . S
H1253 C1286 0.930 . S
H1254 C1284 0.929 . S
H1255 C1287 0.928 . S
O1256 Co1240 2.057 . S
O1256 C1244 1.232 . S
H1257 C1276 0.929 . S
H1258 C1277 0.929 . S
H1259 C1289 0.931 . S
H1260 C1281 0.929 . S
H1261 C1290 0.930 . S
H1262 C1282 0.931 . S
O1263 Co1239 2.097 . S
O1263 C1291 1.214 . S
H1264 C1292 0.929 . S
H1265 C1293 0.929 . S
H1266 C1294 0.930 . S
H1267 C1295 0.929 . S
H1268 C1297 0.930 . S
H1269 C1274 0.930 1_455 S
H1270 C1278 0.941 . S
O1271 Co1240 2.037 . S
O1271 C1291 1.234 . S
C1272 O1246 1.269 . S
C1272 O1247 1.257 . S
C1273 H1248 0.930 . S
C1273 C1276 1.388 . S
C1273 C1278 1.409 1_655 S
C1274 H1269 0.930 1_655 S
C1274 C1277 1.404 . S
C1274 C1278 1.350 1_655 S
N1275 Co1240 2.145 . S
N1275 C1276 1.397 . S
N1275 C1277 1.334 . S
C1276 H1257 0.929 . S
C1276 C1273 1.388 . S
C1276 N1275 1.397 . S
C1277 H1258 0.929 . S
C1277 C1274 1.404 . S
C1277 N1275 1.334 . S
C1278 H1270 0.941 . S
C1278 C1273 1.409 1_455 S
C1278 C1274 1.350 1_455 S
C1279 H1249 0.930 . S
C1279 N1280 1.330 . S
C1279 C1281 1.446 . S
N1280 Co1239 2.151 . S
N1280 C1279 1.330 . S
N1280 C1284 1.418 . S
C1281 H1260 0.929 . S
C1281 C1279 1.446 . S
C1281 C1282 1.332 . S
C1282 H1262 0.931 . S
C1282 C1281 1.332 . S
C1282 C1283 1.267 . S
C1283 H1251 0.929 . S
C1283 C1282 1.267 . S
C1283 C1284 1.251 . S
C1284 H1254 0.929 . S
C1284 N1280 1.418 . S
C1284 C1283 1.251 . S
C1285 H1252 0.930 . S
C1285 C1287 1.406 . S
C1285 C1290 1.261 . S
C1286 H1253 0.930 . S
C1286 N1288 1.325 . S
C1286 C1289 1.357 . S
C1287 H1255 0.928 . S
C1287 C1285 1.406 . S
C1287 N1288 1.261 . S
N1288 Co1239 2.214 . S
N1288 C1286 1.325 . S
N1288 C1287 1.261 . S
C1289 H1259 0.931 . S
C1289 C1286 1.357 . S
C1289 C1290 1.312 . S
C1290 H1261 0.930 . S
C1290 C1285 1.261 . S
C1290 C1289 1.312 . S
C1291 O1263 1.214 . S
C1291 O1271 1.234 . S
C1292 H1264 0.929 . S
C1292 C1295 1.391 . S
C1292 C1297 1.391 . S
C1293 H1265 0.929 . S
C1293 C1294 1.390 . S
C1293 N1296 1.391 . S
C1294 H1266 0.930 . S
C1294 C1293 1.390 . S
C1294 C1295 1.392 . S
C1295 H1267 0.929 . S
C1295 C1292 1.391 . S
C1295 C1294 1.392 . S
N1296 Co1240 2.257 . S
N1296 C1293 1.391 . S
N1296 C1297 1.388 . S
C1297 H1268 0.930 . S
C1297 C1292 1.391 . S
C1297 N1296 1.388 . S
Co1298 O1300 2.143 . S
Co1298 O1306 2.074 . S
Co1298 O1309 2.093 . S
Co1298 O1322 2.097 . S
Co1298 N1339 2.151 . S
Co1298 N1347 2.214 . S
Co1299 O1300 2.160 . S
Co1299 O1305 2.058 . S
Co1299 O1315 2.057 . S
Co1299 O1330 2.037 . S
Co1299 N1334 2.145 . S
Co1299 N1355 2.257 . S
O1300 Co1298 2.143 . S
O1300 Co1299 2.160 . S
C1301 O1302 1.278 . S
C1301 O1309 1.224 . S
O1302 C1301 1.278 . S
C1303 O1304 1.245 . S
C1303 O1315 1.232 . S
O1304 C1303 1.245 . S
O1305 Co1299 2.058 . S
O1305 C1331 1.269 . S
O1306 Co1298 2.074 . S
O1306 C1331 1.257 . S
H1307 C1332 0.930 . S
H1308 C1338 0.930 . S
O1309 Co1298 2.093 . S
O1309 C1301 1.224 . S
H1310 C1342 0.929 . S
H1311 C1344 0.930 . S
H1312 C1345 0.930 . S
H1313 C1343 0.929 . S
H1314 C1346 0.928 . S
O1315 Co1299 2.057 . S
O1315 C1303 1.232 . S
H1316 C1335 0.929 . S
H1317 C1336 0.929 . S
H1318 C1348 0.931 . S
H1319 C1340 0.929 . S
H1320 C1349 0.930 . S
H1321 C1341 0.931 . S
O1322 Co1298 2.097 . S
O1322 C1350 1.214 . S
H1323 C1351 0.929 . S
H1324 C1352 0.929 . S
H1325 C1353 0.930 . S
H1326 C1354 0.929 . S
H1327 C1356 0.930 . S
H1328 C1333 0.930 . S
H1329 C1337 0.930 . S
O1330 Co1299 2.037 . S
O1330 C1350 1.234 . S
C1331 O1305 1.269 . S
C1331 O1306 1.257 . S
C1332 H1307 0.930 . S
C1332 C1335 1.388 . S
C1332 C1337 1.418 . S
C1333 H1328 0.930 . S
C1333 C1336 1.404 . S
C1333 C1337 1.353 . S
N1334 Co1299 2.145 . S
N1334 C1335 1.397 . S
N1334 C1336 1.334 . S
C1335 H1316 0.929 . S
C1335 C1332 1.388 . S
C1335 N1334 1.397 . S
C1336 H1317 0.929 . S
C1336 C1333 1.404 . S
C1336 N1334 1.334 . S
C1337 H1329 0.930 . S
C1337 C1332 1.418 . S
C1337 C1333 1.353 . S
C1338 H1308 0.930 . S
C1338 N1339 1.330 . S
C1338 C1340 1.446 . S
N1339 Co1298 2.151 . S
N1339 C1338 1.330 . S
N1339 C1343 1.418 . S
C1340 H1319 0.929 . S
C1340 C1338 1.446 . S
C1340 C1341 1.332 . S
C1341 H1321 0.931 . S
C1341 C1340 1.332 . S
C1341 C1342 1.267 . S
C1342 H1310 0.929 . S
C1342 C1341 1.267 . S
C1342 C1343 1.251 . S
C1343 H1313 0.929 . S
C1343 N1339 1.418 . S
C1343 C1342 1.251 . S
C1344 H1311 0.930 . S
C1344 C1346 1.406 . S
C1344 C1349 1.261 . S
C1345 H1312 0.930 . S
C1345 N1347 1.325 . S
C1345 C1348 1.357 . S
C1346 H1314 0.928 . S
C1346 C1344 1.406 . S
C1346 N1347 1.261 . S
N1347 Co1298 2.214 . S
N1347 C1345 1.325 . S
N1347 C1346 1.261 . S
C1348 H1318 0.931 . S
C1348 C1345 1.357 . S
C1348 C1349 1.312 . S
C1349 H1320 0.930 . S
C1349 C1344 1.261 . S
C1349 C1348 1.312 . S
C1350 O1322 1.214 . S
C1350 O1330 1.234 . S
C1351 H1323 0.929 . S
C1351 C1354 1.391 . S
C1351 C1356 1.391 . S
C1352 H1324 0.929 . S
C1352 C1353 1.390 . S
C1352 N1355 1.391 . S
C1353 H1325 0.930 . S
C1353 C1352 1.390 . S
C1353 C1354 1.392 . S
C1354 H1326 0.929 . S
C1354 C1351 1.391 . S
C1354 C1353 1.392 . S
N1355 Co1299 2.257 . S
N1355 C1352 1.391 . S
N1355 C1356 1.388 . S
C1356 H1327 0.930 . S
C1356 C1351 1.391 . S
C1356 N1355 1.388 . S
Co1357 O1359 2.143 . S
Co1357 O1365 2.074 . S
Co1357 O1368 2.093 . S
Co1357 O1381 2.097 . S
Co1357 N1398 2.151 . S
Co1357 N1406 2.214 . S
Co1358 O1359 2.160 . S
Co1358 O1364 2.058 . S
Co1358 O1374 2.057 . S
Co1358 O1389 2.037 . S
Co1358 N1393 2.145 . S
Co1358 N1414 2.257 . S
O1359 Co1357 2.143 . S
O1359 Co1358 2.160 . S
C1360 O1361 1.278 . S
C1360 O1368 1.224 . S
O1361 C1360 1.278 . S
C1362 O1363 1.245 . S
C1362 O1374 1.232 . S
O1363 C1362 1.245 . S
O1364 Co1358 2.058 . S
O1364 C1390 1.269 . S
O1365 Co1357 2.074 . S
O1365 C1390 1.257 . S
H1366 C1391 0.930 . S
H1367 C1397 0.930 . S
O1368 Co1357 2.093 . S
O1368 C1360 1.224 . S
H1369 C1401 0.929 . S
H1370 C1403 0.930 . S
H1371 C1404 0.930 . S
H1372 C1402 0.929 . S
H1373 C1405 0.928 . S
O1374 Co1358 2.057 . S
O1374 C1362 1.232 . S
H1375 C1394 0.929 . S
H1376 C1395 0.929 . S
H1377 C1407 0.931 . S
H1378 C1399 0.929 . S
H1379 C1408 0.930 . S
H1380 C1400 0.931 . S
O1381 Co1357 2.097 . S
O1381 C1409 1.214 . S
H1382 C1410 0.929 . S
H1383 C1411 0.929 . S
H1384 C1412 0.930 . S
H1385 C1413 0.929 . S
H1386 C1415 0.930 . S
H1387 C1392 0.930 . S
H1388 C1396 0.930 . S
O1389 Co1358 2.037 . S
O1389 C1409 1.234 . S
C1390 O1364 1.269 . S
C1390 O1365 1.257 . S
C1391 H1366 0.930 . S
C1391 C1394 1.388 . S
C1391 C1396 1.418 . S
C1392 H1387 0.930 . S
C1392 C1395 1.404 . S
C1392 C1396 1.353 . S
N1393 Co1358 2.145 . S
N1393 C1394 1.397 . S
N1393 C1395 1.334 . S
C1394 H1375 0.929 . S
C1394 C1391 1.388 . S
C1394 N1393 1.397 . S
C1395 H1376 0.929 . S
C1395 C1392 1.404 . S
C1395 N1393 1.334 . S
C1396 H1388 0.930 . S
C1396 C1391 1.418 . S
C1396 C1392 1.353 . S
C1397 H1367 0.930 . S
C1397 N1398 1.330 . S
C1397 C1399 1.446 . S
N1398 Co1357 2.151 . S
N1398 C1397 1.330 . S
N1398 C1402 1.418 . S
C1399 H1378 0.929 . S
C1399 C1397 1.446 . S
C1399 C1400 1.332 . S
C1400 H1380 0.931 . S
C1400 C1399 1.332 . S
C1400 C1401 1.267 . S
C1401 H1369 0.929 . S
C1401 C1400 1.267 . S
C1401 C1402 1.251 . S
C1402 H1372 0.929 . S
C1402 N1398 1.418 . S
C1402 C1401 1.251 . S
C1403 H1370 0.930 . S
C1403 C1405 1.406 . S
C1403 C1408 1.261 . S
C1404 H1371 0.930 . S
C1404 N1406 1.325 . S
C1404 C1407 1.357 . S
C1405 H1373 0.928 . S
C1405 C1403 1.406 . S
C1405 N1406 1.261 . S
N1406 Co1357 2.214 . S
N1406 C1404 1.325 . S
N1406 C1405 1.261 . S
C1407 H1377 0.931 . S
C1407 C1404 1.357 . S
C1407 C1408 1.312 . S
C1408 H1379 0.930 . S
C1408 C1403 1.261 . S
C1408 C1407 1.312 . S
C1409 O1381 1.214 . S
C1409 O1389 1.234 . S
C1410 H1382 0.929 . S
C1410 C1413 1.391 . S
C1410 C1415 1.391 . S
C1411 H1383 0.929 . S
C1411 C1412 1.390 . S
C1411 N1414 1.391 . S
C1412 H1384 0.930 . S
C1412 C1411 1.390 . S
C1412 C1413 1.392 . S
C1413 H1385 0.929 . S
C1413 C1410 1.391 . S
C1413 C1412 1.392 . S
N1414 Co1358 2.257 . S
N1414 C1411 1.391 . S
N1414 C1415 1.388 . S
C1415 H1386 0.930 . S
C1415 C1410 1.391 . S
C1415 N1414 1.388 . S
H1416 C1422 0.930 . S
H1417 C1425 0.930 . S
H1418 C1426 0.930 . S
H1419 C1427 0.930 . S
H1420 C1430 0.930 . S
H1421 C1431 0.930 . S
C1422 H1416 0.930 . S
C1422 C1423 1.355 . S
C1422 C1424 1.415 . S
C1423 C1422 1.355 . S
C1423 C1425 1.419 . S
C1424 C1422 1.415 . S
C1424 C1429 1.425 . S
C1424 C1431 1.409 . S
C1425 H1417 0.930 . S
C1425 C1423 1.419 . S
C1425 C1426 1.362 . S
C1426 H1418 0.930 . S
C1426 C1425 1.362 . S
C1426 C1429 1.409 . S
C1427 H1419 0.930 . S
C1427 C1428 1.355 . S
C1427 C1429 1.415 . S
C1428 C1427 1.355 . S
C1428 C1430 1.419 . S
C1429 C1424 1.425 . S
C1429 C1426 1.409 . S
C1429 C1427 1.415 . S
C1430 H1420 0.930 . S
C1430 C1428 1.419 . S
C1430 C1431 1.362 . S
C1431 H1421 0.930 . S
C1431 C1424 1.409 . S
C1431 C1430 1.362 . S
H1432 C1438 0.930 . S
H1433 C1441 0.930 . S
H1434 C1442 0.930 . S
H1435 C1443 0.930 . S
H1436 C1446 0.930 . S
H1437 C1447 0.930 . S
C1438 H1432 0.930 . S
C1438 C1439 1.355 . S
C1438 C1440 1.415 . S
C1439 C1438 1.355 . S
C1439 C1441 1.419 . S
C1440 C1438 1.415 . S
C1440 C1445 1.425 . S
C1440 C1447 1.409 . S
C1441 H1433 0.930 . S
C1441 C1439 1.419 . S
C1441 C1442 1.362 . S
C1442 H1434 0.930 . S
C1442 C1441 1.362 . S
C1442 C1445 1.409 . S
C1443 H1435 0.930 . S
C1443 C1444 1.355 . S
C1443 C1445 1.415 . S
C1444 C1443 1.355 . S
C1444 C1446 1.419 . S
C1445 C1440 1.425 . S
C1445 C1442 1.409 . S
C1445 C1443 1.415 . S
C1446 H1436 0.930 . S
C1446 C1444 1.419 . S
C1446 C1447 1.362 . S
C1447 H1437 0.930 . S
C1447 C1440 1.409 . S
C1447 C1446 1.362 . S
H1448 C1454 0.930 . S
H1449 C1457 0.930 . S
H1450 C1458 0.930 . S
H1451 C1459 0.930 . S
H1452 C1462 0.930 . S
H1453 C1463 0.930 . S
C1454 H1448 0.930 . S
C1454 C1455 1.355 . S
C1454 C1456 1.415 . S
C1455 C1454 1.355 . S
C1455 C1457 1.419 . S
C1456 C1454 1.415 . S
C1456 C1461 1.425 . S
C1456 C1463 1.409 . S
C1457 H1449 0.930 . S
C1457 C1455 1.419 . S
C1457 C1458 1.362 . S
C1458 H1450 0.930 . S
C1458 C1457 1.362 . S
C1458 C1461 1.409 . S
C1459 H1451 0.930 . S
C1459 C1460 1.355 . S
C1459 C1461 1.415 . S
C1460 C1459 1.355 . S
C1460 C1462 1.419 . S
C1461 C1456 1.425 . S
C1461 C1458 1.409 . S
C1461 C1459 1.415 . S
C1462 H1452 0.930 . S
C1462 C1460 1.419 . S
C1462 C1463 1.362 . S
C1463 H1453 0.930 . S
C1463 C1456 1.409 . S
C1463 C1462 1.362 . S
H1464 C1470 0.930 . S
H1465 C1473 0.930 . S
H1466 C1474 0.930 . S
H1467 C1475 0.930 . S
H1468 C1478 0.930 . S
H1469 C1479 0.930 . S
C1470 H1464 0.930 . S
C1470 C1471 1.355 . S
C1470 C1472 1.415 . S
C1471 C1470 1.355 . S
C1471 C1473 1.419 . S
C1472 C1470 1.415 . S
C1472 C1477 1.425 . S
C1472 C1479 1.409 . S
C1473 H1465 0.930 . S
C1473 C1471 1.419 . S
C1473 C1474 1.362 . S
C1474 H1466 0.930 . S
C1474 C1473 1.362 . S
C1474 C1477 1.409 . S
C1475 H1467 0.930 . S
C1475 C1476 1.355 . S
C1475 C1477 1.415 . S
C1476 C1475 1.355 . S
C1476 C1478 1.419 . S
C1477 C1472 1.425 . S
C1477 C1474 1.409 . S
C1477 C1475 1.415 . S
C1478 H1468 0.930 . S
C1478 C1476 1.419 . S
C1478 C1479 1.362 . S
C1479 H1469 0.930 . S
C1479 C1472 1.409 . S
C1479 C1478 1.362 . S
H1480 C1486 0.930 . S
H1481 C1489 0.930 . S
H1482 C1490 0.930 . S
H1483 C1491 0.930 . S
H1484 C1494 0.930 . S
H1485 C1495 0.930 . S
C1486 H1480 0.930 . S
C1486 C1487 1.355 . S
C1486 C1488 1.415 . S
C1487 C1486 1.355 . S
C1487 C1489 1.419 . S
C1488 C1486 1.415 . S
C1488 C1493 1.425 . S
C1488 C1495 1.409 . S
C1489 H1481 0.930 . S
C1489 C1487 1.419 . S
C1489 C1490 1.362 . S
C1490 H1482 0.930 . S
C1490 C1489 1.362 . S
C1490 C1493 1.409 . S
C1491 H1483 0.930 . S
C1491 C1492 1.355 . S
C1491 C1493 1.415 . S
C1492 C1491 1.355 . S
C1492 C1494 1.419 . S
C1493 C1488 1.425 . S
C1493 C1490 1.409 . S
C1493 C1491 1.415 . S
C1494 H1484 0.930 . S
C1494 C1492 1.419 . S
C1494 C1495 1.362 . S
C1495 H1485 0.930 . S
C1495 C1488 1.409 . S
C1495 C1494 1.362 . S
H1496 C1502 0.930 . S
H1497 C1505 0.930 . S
H1498 C1506 0.930 . S
H1499 C1507 0.930 . S
H1500 C1510 0.930 . S
H1501 C1511 0.930 . S
C1502 H1496 0.930 . S
C1502 C1503 1.355 . S
C1502 C1504 1.415 . S
C1503 C1502 1.355 . S
C1503 C1505 1.419 . S
C1504 C1502 1.415 . S
C1504 C1509 1.425 . S
C1504 C1511 1.409 . S
C1505 H1497 0.930 . S
C1505 C1503 1.419 . S
C1505 C1506 1.362 . S
C1506 H1498 0.930 . S
C1506 C1505 1.362 . S
C1506 C1509 1.409 . S
C1507 H1499 0.930 . S
C1507 C1508 1.355 . S
C1507 C1509 1.415 . S
C1508 C1507 1.355 . S
C1508 C1510 1.419 . S
C1509 C1504 1.425 . S
C1509 C1506 1.409 . S
C1509 C1507 1.415 . S
C1510 H1500 0.930 . S
C1510 C1508 1.419 . S
C1510 C1511 1.362 . S
C1511 H1501 0.930 . S
C1511 C1504 1.409 . S
C1511 C1510 1.362 . S
H1512 C1518 0.930 . S
H1513 C1521 0.930 . S
H1514 C1522 0.930 . S
H1515 C1523 0.930 . S
H1516 C1526 0.930 . S
H1517 C1527 0.930 . S
C1518 H1512 0.930 . S
C1518 C1519 1.355 . S
C1518 C1520 1.415 . S
C1519 C1518 1.355 . S
C1519 C1521 1.419 . S
C1520 C1518 1.415 . S
C1520 C1525 1.425 . S
C1520 C1527 1.409 . S
C1521 H1513 0.930 . S
C1521 C1519 1.419 . S
C1521 C1522 1.362 . S
C1522 H1514 0.930 . S
C1522 C1521 1.362 . S
C1522 C1525 1.409 . S
C1523 H1515 0.930 . S
C1523 C1524 1.355 . S
C1523 C1525 1.415 . S
C1524 C1523 1.355 . S
C1524 C1526 1.419 . S
C1525 C1520 1.425 . S
C1525 C1522 1.409 . S
C1525 C1523 1.415 . S
C1526 H1516 0.930 . S
C1526 C1524 1.419 . S
C1526 C1527 1.362 . S
C1527 H1517 0.930 . S
C1527 C1520 1.409 . S
C1527 C1526 1.362 . S
H1528 C1534 0.930 . S
H1529 C1537 0.930 . S
H1530 C1538 0.930 . S
H1531 C1539 0.930 . S
H1532 C1542 0.930 1_554 S
H1533 C1543 0.930 . S
C1534 H1528 0.930 . S
C1534 C1535 1.355 . S
C1534 C1536 1.415 . S
C1535 C1534 1.355 . S
C1535 C1537 1.419 . S
C1536 C1534 1.415 . S
C1536 C1541 1.425 . S
C1536 C1543 1.409 . S
C1537 H1529 0.930 . S
C1537 C1535 1.419 . S
C1537 C1538 1.362 . S
C1538 H1530 0.930 . S
C1538 C1537 1.362 . S
C1538 C1541 1.409 . S
C1539 H1531 0.930 . S
C1539 C1540 1.355 . S
C1539 C1541 1.415 . S
C1540 C1539 1.355 . S
C1540 C1542 1.419 . S
C1541 C1536 1.425 . S
C1541 C1538 1.409 . S
C1541 C1539 1.415 . S
C1542 H1532 0.930 1_556 S
C1542 C1540 1.419 . S
C1542 C1543 1.362 . S
C1543 H1533 0.930 . S
C1543 C1536 1.409 . S
C1543 C1542 1.362 . S
H1544 C1550 0.930 . S
H1545 C1553 0.930 . S
H1546 C1554 0.930 . S
H1547 C1555 0.930 . S
H1548 C1558 0.930 . S
H1549 C1559 0.930 . S
C1550 H1544 0.930 . S
C1550 C1551 1.355 . S
C1550 C1552 1.415 . S
C1551 C1550 1.355 . S
C1551 C1553 1.419 . S
C1552 C1550 1.415 . S
C1552 C1557 1.425 . S
C1552 C1559 1.409 . S
C1553 H1545 0.930 . S
C1553 C1551 1.419 . S
C1553 C1554 1.362 . S
C1554 H1546 0.930 . S
C1554 C1553 1.362 . S
C1554 C1557 1.409 . S
C1555 H1547 0.930 . S
C1555 C1556 1.355 . S
C1555 C1557 1.415 . S
C1556 C1555 1.355 . S
C1556 C1558 1.419 . S
C1557 C1552 1.425 . S
C1557 C1554 1.409 . S
C1557 C1555 1.415 . S
C1558 H1548 0.930 . S
C1558 C1556 1.419 . S
C1558 C1559 1.362 . S
C1559 H1549 0.930 . S
C1559 C1552 1.409 . S
C1559 C1558 1.362 . S
H1560 C1566 0.930 . S
H1561 C1569 0.930 . S
H1562 C1570 0.930 . S
H1563 C1571 0.930 . S
H1564 C1574 0.930 . S
H1565 C1575 0.930 . S
C1566 H1560 0.930 . S
C1566 C1567 1.355 . S
C1566 C1568 1.415 . S
C1567 C1566 1.355 . S
C1567 C1569 1.419 . S
C1568 C1566 1.415 . S
C1568 C1573 1.425 . S
C1568 C1575 1.409 . S
C1569 H1561 0.930 . S
C1569 C1567 1.419 . S
C1569 C1570 1.362 . S
C1570 H1562 0.930 . S
C1570 C1569 1.362 . S
C1570 C1573 1.409 . S
C1571 H1563 0.930 . S
C1571 C1572 1.355 . S
C1571 C1573 1.415 . S
C1572 C1571 1.355 . S
C1572 C1574 1.419 . S
C1573 C1568 1.425 . S
C1573 C1570 1.409 . S
C1573 C1571 1.415 . S
C1574 H1564 0.930 . S
C1574 C1572 1.419 . S
C1574 C1575 1.362 . S
C1575 H1565 0.930 . S
C1575 C1568 1.409 . S
C1575 C1574 1.362 . S
H1576 C1582 0.930 . S
H1577 C1585 0.930 . S
H1578 C1586 0.930 . S
H1579 C1587 0.930 . S
H1580 C1590 0.930 . S
H1581 C1591 0.930 . S
C1582 H1576 0.930 . S
C1582 C1583 1.355 . S
C1582 C1584 1.415 . S
C1583 C1582 1.355 . S
C1583 C1585 1.419 . S
C1584 C1582 1.415 . S
C1584 C1589 1.425 . S
C1584 C1591 1.409 . S
C1585 H1577 0.930 . S
C1585 C1583 1.419 . S
C1585 C1586 1.362 . S
C1586 H1578 0.930 . S
C1586 C1585 1.362 . S
C1586 C1589 1.409 . S
C1587 H1579 0.930 . S
C1587 C1588 1.355 . S
C1587 C1589 1.415 . S
C1588 C1587 1.355 . S
C1588 C1590 1.419 . S
C1589 C1584 1.425 . S
C1589 C1586 1.409 . S
C1589 C1587 1.415 . S
C1590 H1580 0.930 . S
C1590 C1588 1.419 . S
C1590 C1591 1.362 . S
C1591 H1581 0.930 . S
C1591 C1584 1.409 . S
C1591 C1590 1.362 . S
H1592 C1598 0.930 . S
H1593 C1601 0.930 . S
H1594 C1602 0.930 . S
H1595 C1603 0.930 . S
H1596 C1606 0.930 . S
H1597 C1607 0.930 . S
C1598 H1592 0.930 . S
C1598 C1599 1.355 . S
C1598 C1600 1.415 . S
C1599 C1598 1.355 . S
C1599 C1601 1.419 . S
C1600 C1598 1.415 . S
C1600 C1605 1.425 . S
C1600 C1607 1.409 . S
C1601 H1593 0.930 . S
C1601 C1599 1.419 . S
C1601 C1602 1.362 . S
C1602 H1594 0.930 . S
C1602 C1601 1.362 . S
C1602 C1605 1.409 . S
C1603 H1595 0.930 . S
C1603 C1604 1.355 . S
C1603 C1605 1.415 . S
C1604 C1603 1.355 . S
C1604 C1606 1.419 . S
C1605 C1600 1.425 . S
C1605 C1602 1.409 . S
C1605 C1603 1.415 . S
C1606 H1596 0.930 . S
C1606 C1604 1.419 . S
C1606 C1607 1.362 . S
C1607 H1597 0.930 . S
C1607 C1600 1.409 . S
C1607 C1606 1.362 . S
H1608 C1614 0.930 . S
H1609 C1617 0.930 . S
H1610 C1618 0.930 . S
H1611 C1619 0.930 . S
H1612 C1622 0.930 . S
H1613 C1623 0.930 . S
C1614 H1608 0.930 . S
C1614 C1615 1.355 . S
C1614 C1616 1.415 . S
C1615 C1614 1.355 . S
C1615 C1617 1.419 . S
C1616 C1614 1.415 . S
C1616 C1621 1.425 . S
C1616 C1623 1.409 . S
C1617 H1609 0.930 . S
C1617 C1615 1.419 . S
C1617 C1618 1.362 . S
C1618 H1610 0.930 . S
C1618 C1617 1.362 . S
C1618 C1621 1.409 . S
C1619 H1611 0.930 . S
C1619 C1620 1.355 . S
C1619 C1621 1.415 . S
C1620 C1619 1.355 . S
C1620 C1622 1.419 . S
C1621 C1616 1.425 . S
C1621 C1618 1.409 . S
C1621 C1619 1.415 . S
C1622 H1612 0.930 . S
C1622 C1620 1.419 . S
C1622 C1623 1.362 . S
C1623 H1613 0.930 . S
C1623 C1616 1.409 . S
C1623 C1622 1.362 . S
H1624 C1630 0.930 . S
H1625 C1633 0.930 . S
H1626 C1634 0.930 . S
H1627 C1635 0.930 . S
H1628 C1638 0.930 . S
H1629 C1639 0.930 . S
C1630 H1624 0.930 . S
C1630 C1631 1.355 . S
C1630 C1632 1.415 . S
C1631 C1630 1.355 . S
C1631 C1633 1.419 . S
C1632 C1630 1.415 . S
C1632 C1637 1.425 . S
C1632 C1639 1.409 . S
C1633 H1625 0.930 . S
C1633 C1631 1.419 . S
C1633 C1634 1.362 . S
C1634 H1626 0.930 . S
C1634 C1633 1.362 . S
C1634 C1637 1.409 . S
C1635 H1627 0.930 . S
C1635 C1636 1.355 . S
C1635 C1637 1.415 . S
C1636 C1635 1.355 . S
C1636 C1638 1.419 . S
C1637 C1632 1.425 . S
C1637 C1634 1.409 . S
C1637 C1635 1.415 . S
C1638 H1628 0.930 . S
C1638 C1636 1.419 . S
C1638 C1639 1.362 . S
C1639 H1629 0.930 . S
C1639 C1632 1.409 . S
C1639 C1638 1.362 . S
H1640 C1646 0.930 . S
H1641 C1649 0.930 . S
H1642 C1650 0.930 . S
H1643 C1651 0.930 . S
H1644 C1654 0.930 . S
H1645 C1655 0.930 . S
C1646 H1640 0.930 . S
C1646 C1647 1.355 . S
C1646 C1648 1.415 . S
C1647 C1646 1.355 . S
C1647 C1649 1.419 . S
C1648 C1646 1.415 . S
C1648 C1653 1.425 . S
C1648 C1655 1.409 . S
C1649 H1641 0.930 . S
C1649 C1647 1.419 . S
C1649 C1650 1.362 . S
C1650 H1642 0.930 . S
C1650 C1649 1.362 . S
C1650 C1653 1.409 . S
C1651 H1643 0.930 . S
C1651 C1652 1.355 . S
C1651 C1653 1.415 . S
C1652 C1651 1.355 . S
C1652 C1654 1.419 . S
C1653 C1648 1.425 . S
C1653 C1650 1.409 . S
C1653 C1651 1.415 . S
C1654 H1644 0.930 . S
C1654 C1652 1.419 . S
C1654 C1655 1.362 . S
C1655 H1645 0.930 . S
C1655 C1648 1.409 . S
C1655 C1654 1.362 . S
H1656 C1662 0.930 . S
H1657 C1665 0.930 . S
H1658 C1666 0.930 . S
H1659 C1667 0.930 . S
H1660 C1670 0.930 . S
H1661 C1671 0.930 . S
C1662 H1656 0.930 . S
C1662 C1663 1.355 . S
C1662 C1664 1.415 . S
C1663 C1662 1.355 . S
C1663 C1665 1.419 . S
C1664 C1662 1.415 . S
C1664 C1669 1.425 . S
C1664 C1671 1.409 . S
C1665 H1657 0.930 . S
C1665 C1663 1.419 . S
C1665 C1666 1.362 . S
C1666 H1658 0.930 . S
C1666 C1665 1.362 . S
C1666 C1669 1.409 . S
C1667 H1659 0.930 . S
C1667 C1668 1.355 . S
C1667 C1669 1.415 . S
C1668 C1667 1.355 . S
C1668 C1670 1.419 . S
C1669 C1664 1.425 . S
C1669 C1666 1.409 . S
C1669 C1667 1.415 . S
C1670 H1660 0.930 . S
C1670 C1668 1.419 . S
C1670 C1671 1.362 . S
C1671 H1661 0.930 . S
C1671 C1664 1.409 . S
C1671 C1670 1.362 . S
H1672 C1678 0.930 . S
H1673 C1681 0.930 . S
H1674 C1682 0.930 . S
H1675 C1683 0.930 . S
H1676 C1686 0.930 . S
H1677 C1687 0.930 . S
C1678 H1672 0.930 . S
C1678 C1679 1.355 . S
C1678 C1680 1.415 . S
C1679 C1678 1.355 . S
C1679 C1681 1.419 . S
C1680 C1678 1.415 . S
C1680 C1685 1.425 . S
C1680 C1687 1.409 . S
C1681 H1673 0.930 . S
C1681 C1679 1.419 . S
C1681 C1682 1.362 . S
C1682 H1674 0.930 . S
C1682 C1681 1.362 . S
C1682 C1685 1.409 . S
C1683 H1675 0.930 . S
C1683 C1684 1.355 . S
C1683 C1685 1.415 . S
C1684 C1683 1.355 . S
C1684 C1686 1.419 . S
C1685 C1680 1.425 . S
C1685 C1682 1.409 . S
C1685 C1683 1.415 . S
C1686 H1676 0.930 . S
C1686 C1684 1.419 . S
C1686 C1687 1.362 . S
C1687 H1677 0.930 . S
C1687 C1680 1.409 . S
C1687 C1686 1.362 . S
H1688 C1694 0.930 . S
H1689 C1697 0.930 . S
H1690 C1698 0.930 . S
H1691 C1699 0.930 . S
H1692 C1702 0.930 . S
H1693 C1703 0.930 . S
C1694 H1688 0.930 . S
C1694 C1695 1.355 . S
C1694 C1696 1.415 . S
C1695 C1694 1.355 . S
C1695 C1697 1.419 . S
C1696 C1694 1.415 . S
C1696 C1701 1.425 . S
C1696 C1703 1.409 . S
C1697 H1689 0.930 . S
C1697 C1695 1.419 . S
C1697 C1698 1.362 . S
C1698 H1690 0.930 . S
C1698 C1697 1.362 . S
C1698 C1701 1.409 . S
C1699 H1691 0.930 . S
C1699 C1700 1.355 . S
C1699 C1701 1.415 . S
C1700 C1699 1.355 . S
C1700 C1702 1.419 . S
C1701 C1696 1.425 . S
C1701 C1698 1.409 . S
C1701 C1699 1.415 . S
C1702 H1692 0.930 . S
C1702 C1700 1.419 . S
C1702 C1703 1.362 . S
C1703 H1693 0.930 . S
C1703 C1696 1.409 . S
C1703 C1702 1.362 . S
H1704 C1710 0.930 . S
H1705 C1713 0.930 1_554 S
H1706 C1714 0.930 . S
H1707 C1715 0.930 . S
H1708 C1718 0.930 . S
H1709 C1719 0.930 . S
C1710 H1704 0.930 . S
C1710 C1711 1.355 . S
C1710 C1712 1.415 . S
C1711 C1710 1.355 . S
C1711 C1713 1.419 . S
C1712 C1710 1.415 . S
C1712 C1717 1.425 . S
C1712 C1719 1.409 . S
C1713 H1705 0.930 1_556 S
C1713 C1711 1.419 . S
C1713 C1714 1.362 . S
C1714 H1706 0.930 . S
C1714 C1713 1.362 . S
C1714 C1717 1.409 . S
C1715 H1707 0.930 . S
C1715 C1716 1.355 . S
C1715 C1717 1.415 . S
C1716 C1715 1.355 . S
C1716 C1718 1.419 . S
C1717 C1712 1.425 . S
C1717 C1714 1.409 . S
C1717 C1715 1.415 . S
C1718 H1708 0.930 . S
C1718 C1716 1.419 . S
C1718 C1719 1.362 . S
C1719 H1709 0.930 . S
C1719 C1712 1.409 . S
C1719 C1718 1.362 . S
H1720 C1726 0.930 . S
H1721 C1729 0.930 . S
H1722 C1730 0.930 . S
H1723 C1731 0.930 . S
H1724 C1734 0.930 . S
H1725 C1735 0.930 . S
C1726 H1720 0.930 . S
C1726 C1727 1.355 . S
C1726 C1728 1.415 . S
C1727 C1726 1.355 . S
C1727 C1729 1.419 . S
C1728 C1726 1.415 . S
C1728 C1733 1.425 . S
C1728 C1735 1.409 . S
C1729 H1721 0.930 . S
C1729 C1727 1.419 . S
C1729 C1730 1.362 . S
C1730 H1722 0.930 . S
C1730 C1729 1.362 . S
C1730 C1733 1.409 . S
C1731 H1723 0.930 . S
C1731 C1732 1.355 . S
C1731 C1733 1.415 . S
C1732 C1731 1.355 . S
C1732 C1734 1.419 . S
C1733 C1728 1.425 . S
C1733 C1730 1.409 . S
C1733 C1731 1.415 . S
C1734 H1724 0.930 . S
C1734 C1732 1.419 . S
C1734 C1735 1.362 . S
C1735 H1725 0.930 . S
C1735 C1728 1.409 . S
C1735 C1734 1.362 . S
H1736 C1742 0.930 . S
H1737 C1745 0.930 . S
H1738 C1746 0.930 . S
H1739 C1747 0.930 . S
H1740 C1750 0.930 . S
H1741 C1751 0.930 . S
C1742 H1736 0.930 . S
C1742 C1743 1.355 . S
C1742 C1744 1.415 . S
C1743 C1742 1.355 . S
C1743 C1745 1.419 . S
C1744 C1742 1.415 . S
C1744 C1749 1.425 . S
C1744 C1751 1.409 . S
C1745 H1737 0.930 . S
C1745 C1743 1.419 . S
C1745 C1746 1.362 . S
C1746 H1738 0.930 . S
C1746 C1745 1.362 . S
C1746 C1749 1.409 . S
C1747 H1739 0.930 . S
C1747 C1748 1.355 . S
C1747 C1749 1.415 . S
C1748 C1747 1.355 . S
C1748 C1750 1.419 . S
C1749 C1744 1.425 . S
C1749 C1746 1.409 . S
C1749 C1747 1.415 . S
C1750 H1740 0.930 . S
C1750 C1748 1.419 . S
C1750 C1751 1.362 . S
C1751 H1741 0.930 . S
C1751 C1744 1.409 . S
C1751 C1750 1.362 . S
H1752 C1758 0.930 . S
H1753 C1761 0.930 . S
H1754 C1762 0.930 . S
H1755 C1763 0.930 . S
H1756 C1766 0.930 . S
H1757 C1767 0.930 . S
C1758 H1752 0.930 . S
C1758 C1759 1.355 . S
C1758 C1760 1.415 . S
C1759 C1758 1.355 . S
C1759 C1761 1.419 . S
C1760 C1758 1.415 . S
C1760 C1765 1.425 . S
C1760 C1767 1.409 . S
C1761 H1753 0.930 . S
C1761 C1759 1.419 . S
C1761 C1762 1.362 . S
C1762 H1754 0.930 . S
C1762 C1761 1.362 . S
C1762 C1765 1.409 . S
C1763 H1755 0.930 . S
C1763 C1764 1.355 . S
C1763 C1765 1.415 . S
C1764 C1763 1.355 . S
C1764 C1766 1.419 . S
C1765 C1760 1.425 . S
C1765 C1762 1.409 . S
C1765 C1763 1.415 . S
C1766 H1756 0.930 . S
C1766 C1764 1.419 . S
C1766 C1767 1.362 . S
C1767 H1757 0.930 . S
C1767 C1760 1.409 . S
C1767 C1766 1.362 . S
H1768 C1774 0.930 . S
H1769 C1777 0.930 . S
H1770 C1778 0.930 . S
H1771 C1779 0.930 . S
H1772 C1782 0.930 . S
H1773 C1783 0.930 . S
C1774 H1768 0.930 . S
C1774 C1775 1.355 . S
C1774 C1776 1.415 . S
C1775 C1774 1.355 . S
C1775 C1777 1.419 . S
C1776 C1774 1.415 . S
C1776 C1781 1.425 . S
C1776 C1783 1.409 . S
C1777 H1769 0.930 . S
C1777 C1775 1.419 . S
C1777 C1778 1.362 . S
C1778 H1770 0.930 . S
C1778 C1777 1.362 . S
C1778 C1781 1.409 . S
C1779 H1771 0.930 . S
C1779 C1780 1.355 . S
C1779 C1781 1.415 . S
C1780 C1779 1.355 . S
C1780 C1782 1.419 . S
C1781 C1776 1.425 . S
C1781 C1778 1.409 . S
C1781 C1779 1.415 . S
C1782 H1772 0.930 . S
C1782 C1780 1.419 . S
C1782 C1783 1.362 . S
C1783 H1773 0.930 . S
C1783 C1776 1.409 . S
C1783 C1782 1.362 . S
H1784 C1790 0.930 . S
H1785 C1793 0.930 . S
H1786 C1794 0.930 . S
H1787 C1795 0.930 . S
H1788 C1798 0.930 . S
H1789 C1799 0.930 . S
C1790 H1784 0.930 . S
C1790 C1791 1.355 . S
C1790 C1792 1.415 . S
C1791 C1790 1.355 . S
C1791 C1793 1.419 . S
C1792 C1790 1.415 . S
C1792 C1797 1.425 . S
C1792 C1799 1.409 . S
C1793 H1785 0.930 . S
C1793 C1791 1.419 . S
C1793 C1794 1.362 . S
C1794 H1786 0.930 . S
C1794 C1793 1.362 . S
C1794 C1797 1.409 . S
C1795 H1787 0.930 . S
C1795 C1796 1.355 . S
C1795 C1797 1.415 . S
C1796 C1795 1.355 . S
C1796 C1798 1.419 . S
C1797 C1792 1.425 . S
C1797 C1794 1.409 . S
C1797 C1795 1.415 . S
C1798 H1788 0.930 . S
C1798 C1796 1.419 . S
C1798 C1799 1.362 . S
C1799 H1789 0.930 . S
C1799 C1792 1.409 . S
C1799 C1798 1.362 . S
H1800 C1806 0.930 . S
H1801 C1809 0.930 . S
H1802 C1810 0.930 . S
H1803 C1811 0.930 . S
H1804 C1814 0.930 . S
H1805 C1815 0.930 . S
C1806 H1800 0.930 . S
C1806 C1807 1.355 . S
C1806 C1808 1.415 . S
C1807 C1806 1.355 . S
C1807 C1809 1.419 . S
C1808 C1806 1.415 . S
C1808 C1813 1.425 . S
C1808 C1815 1.409 . S
C1809 H1801 0.930 . S
C1809 C1807 1.419 . S
C1809 C1810 1.362 . S
C1810 H1802 0.930 . S
C1810 C1809 1.362 . S
C1810 C1813 1.409 . S
C1811 H1803 0.930 . S
C1811 C1812 1.355 . S
C1811 C1813 1.415 . S
C1812 C1811 1.355 . S
C1812 C1814 1.419 . S
C1813 C1808 1.425 . S
C1813 C1810 1.409 . S
C1813 C1811 1.415 . S
C1814 H1804 0.930 . S
C1814 C1812 1.419 . S
C1814 C1815 1.362 . S
C1815 H1805 0.930 . S
C1815 C1808 1.409 . S
C1815 C1814 1.362 . S
H1816 C1822 0.930 . S
H1817 C1825 0.930 . S
H1818 C1826 0.930 . S
H1819 C1827 0.930 . S
H1820 C1830 0.930 . S
H1821 C1831 0.930 . S
C1822 H1816 0.930 . S
C1822 C1823 1.355 . S
C1822 C1824 1.415 . S
C1823 C1822 1.355 . S
C1823 C1825 1.419 . S
C1824 C1822 1.415 . S
C1824 C1829 1.425 . S
C1824 C1831 1.409 . S
C1825 H1817 0.930 . S
C1825 C1823 1.419 . S
C1825 C1826 1.362 . S
C1826 H1818 0.930 . S
C1826 C1825 1.362 . S
C1826 C1829 1.409 . S
C1827 H1819 0.930 . S
C1827 C1828 1.355 . S
C1827 C1829 1.415 . S
C1828 C1827 1.355 . S
C1828 C1830 1.419 . S
C1829 C1824 1.425 . S
C1829 C1826 1.409 . S
C1829 C1827 1.415 . S
C1830 H1820 0.930 . S
C1830 C1828 1.419 . S
C1830 C1831 1.362 . S
C1831 H1821 0.930 . S
C1831 C1824 1.409 . S
C1831 C1830 1.362 . S
H1832 C1838 0.930 . S
H1833 C1841 0.930 . S
H1834 C1842 0.930 . S
H1835 C1843 0.930 . S
H1836 C1846 0.930 . S
H1837 C1847 0.930 . S
C1838 H1832 0.930 . S
C1838 C1839 1.355 . S
C1838 C1840 1.415 . S
C1839 C1838 1.355 . S
C1839 C1841 1.419 . S
C1840 C1838 1.415 . S
C1840 C1845 1.425 . S
C1840 C1847 1.409 . S
C1841 H1833 0.930 . S
C1841 C1839 1.419 . S
C1841 C1842 1.362 . S
C1842 H1834 0.930 . S
C1842 C1841 1.362 . S
C1842 C1845 1.409 . S
C1843 H1835 0.930 . S
C1843 C1844 1.355 . S
C1843 C1845 1.415 . S
C1844 C1843 1.355 . S
C1844 C1846 1.419 . S
C1845 C1840 1.425 . S
C1845 C1842 1.409 . S
C1845 C1843 1.415 . S
C1846 H1836 0.930 . S
C1846 C1844 1.419 . S
C1846 C1847 1.362 . S
C1847 H1837 0.930 . S
C1847 C1840 1.409 . S
C1847 C1846 1.362 . S
H1848 C1854 0.930 . S
H1849 C1857 0.930 . S
H1850 C1858 0.930 . S
H1851 C1859 0.930 . S
H1852 C1862 0.930 . S
H1853 C1863 0.930 . S
C1854 H1848 0.930 . S
C1854 C1855 1.355 . S
C1854 C1856 1.415 . S
C1855 C1854 1.355 . S
C1855 C1857 1.419 . S
C1856 C1854 1.415 . S
C1856 C1861 1.425 . S
C1856 C1863 1.409 . S
C1857 H1849 0.930 . S
C1857 C1855 1.419 . S
C1857 C1858 1.362 . S
C1858 H1850 0.930 . S
C1858 C1857 1.362 . S
C1858 C1861 1.409 . S
C1859 H1851 0.930 . S
C1859 C1860 1.355 . S
C1859 C1861 1.415 . S
C1860 C1859 1.355 . S
C1860 C1862 1.419 . S
C1861 C1856 1.425 . S
C1861 C1858 1.409 . S
C1861 C1859 1.415 . S
C1862 H1852 0.930 . S
C1862 C1860 1.419 . S
C1862 C1863 1.362 . S
C1863 H1853 0.930 . S
C1863 C1856 1.409 . S
C1863 C1862 1.362 . S
H1864 C1870 0.930 . S
H1865 C1873 0.930 . S
H1866 C1874 0.930 . S
H1867 C1875 0.930 . S
H1868 C1878 0.930 . S
H1869 C1879 0.930 . S
C1870 H1864 0.930 . S
C1870 C1871 1.355 . S
C1870 C1872 1.415 . S
C1871 C1870 1.355 . S
C1871 C1873 1.419 . S
C1872 C1870 1.415 . S
C1872 C1877 1.425 . S
C1872 C1879 1.409 . S
C1873 H1865 0.930 . S
C1873 C1871 1.419 . S
C1873 C1874 1.362 . S
C1874 H1866 0.930 . S
C1874 C1873 1.362 . S
C1874 C1877 1.409 . S
C1875 H1867 0.930 . S
C1875 C1876 1.355 . S
C1875 C1877 1.415 . S
C1876 C1875 1.355 . S
C1876 C1878 1.419 . S
C1877 C1872 1.425 . S
C1877 C1874 1.409 . S
C1877 C1875 1.415 . S
C1878 H1868 0.930 . S
C1878 C1876 1.419 . S
C1878 C1879 1.362 . S
C1879 H1869 0.930 . S
C1879 C1872 1.409 . S
C1879 C1878 1.362 . S
H1880 C1886 0.930 . S
H1881 C1889 0.930 . S
H1882 C1890 0.930 . S
H1883 C1891 0.930 . S
H1884 C1894 0.930 . S
H1885 C1895 0.930 . S
C1886 H1880 0.930 . S
C1886 C1887 1.355 . S
C1886 C1888 1.415 . S
C1887 C1886 1.355 . S
C1887 C1889 1.419 . S
C1888 C1886 1.415 . S
C1888 C1893 1.425 . S
C1888 C1895 1.409 . S
C1889 H1881 0.930 . S
C1889 C1887 1.419 . S
C1889 C1890 1.362 . S
C1890 H1882 0.930 . S
C1890 C1889 1.362 . S
C1890 C1893 1.409 . S
C1891 H1883 0.930 . S
C1891 C1892 1.355 . S
C1891 C1893 1.415 . S
C1892 C1891 1.355 . S
C1892 C1894 1.419 . S
C1893 C1888 1.425 . S
C1893 C1890 1.409 . S
C1893 C1891 1.415 . S
C1894 H1884 0.930 . S
C1894 C1892 1.419 . S
C1894 C1895 1.362 . S
C1895 H1885 0.930 . S
C1895 C1888 1.409 . S
C1895 C1894 1.362 . S
H1896 C1902 0.930 . S
H1897 C1905 0.930 . S
H1898 C1906 0.930 . S
H1899 C1907 0.930 . S
H1900 C1910 0.930 . S
H1901 C1911 0.930 . S
C1902 H1896 0.930 . S
C1902 C1903 1.355 . S
C1902 C1904 1.415 . S
C1903 C1902 1.355 . S
C1903 C1905 1.419 . S
C1904 C1902 1.415 . S
C1904 C1909 1.425 . S
C1904 C1911 1.409 . S
C1905 H1897 0.930 . S
C1905 C1903 1.419 . S
C1905 C1906 1.362 . S
C1906 H1898 0.930 . S
C1906 C1905 1.362 . S
C1906 C1909 1.409 . S
C1907 H1899 0.930 . S
C1907 C1908 1.355 . S
C1907 C1909 1.415 . S
C1908 C1907 1.355 . S
C1908 C1910 1.419 . S
C1909 C1904 1.425 . S
C1909 C1906 1.409 . S
C1909 C1907 1.415 . S
C1910 H1900 0.930 . S
C1910 C1908 1.419 . S
C1910 C1911 1.362 . S
C1911 H1901 0.930 . S
C1911 C1904 1.409 . S
C1911 C1910 1.362 . S
H1912 C1918 0.930 . S
H1913 C1921 0.930 1_455 S
H1914 C1922 0.930 . S
H1915 C1923 0.930 . S
H1916 C1926 0.930 . S
H1917 C1927 0.930 . S
C1918 H1912 0.930 . S
C1918 C1919 1.355 . S
C1918 C1920 1.415 . S
C1919 C1918 1.355 . S
C1919 C1921 1.419 . S
C1920 C1918 1.415 . S
C1920 C1925 1.425 . S
C1920 C1927 1.409 . S
C1921 H1913 0.930 1_655 S
C1921 C1919 1.419 . S
C1921 C1922 1.362 . S
C1922 H1914 0.930 . S
C1922 C1921 1.362 . S
C1922 C1925 1.409 . S
C1923 H1915 0.930 . S
C1923 C1924 1.355 . S
C1923 C1925 1.415 . S
C1924 C1923 1.355 . S
C1924 C1926 1.419 . S
C1925 C1920 1.425 . S
C1925 C1922 1.409 . S
C1925 C1923 1.415 . S
C1926 H1916 0.930 . S
C1926 C1924 1.419 . S
C1926 C1927 1.362 . S
C1927 H1917 0.930 . S
C1927 C1920 1.409 . S
C1927 C1926 1.362 . S
H1928 C1934 0.930 . S
H1929 C1937 0.930 . S
H1930 C1938 0.930 . S
H1931 C1939 0.930 . S
H1932 C1942 0.930 . S
H1933 C1943 0.930 . S
C1934 H1928 0.930 . S
C1934 C1935 1.355 . S
C1934 C1936 1.415 . S
C1935 C1934 1.355 . S
C1935 C1937 1.419 . S
C1936 C1934 1.415 . S
C1936 C1941 1.425 . S
C1936 C1943 1.409 . S
C1937 H1929 0.930 . S
C1937 C1935 1.419 . S
C1937 C1938 1.362 . S
C1938 H1930 0.930 . S
C1938 C1937 1.362 . S
C1938 C1941 1.409 . S
C1939 H1931 0.930 . S
C1939 C1940 1.355 . S
C1939 C1941 1.415 . S
C1940 C1939 1.355 . S
C1940 C1942 1.419 . S
C1941 C1936 1.425 . S
C1941 C1938 1.409 . S
C1941 C1939 1.415 . S
C1942 H1932 0.930 . S
C1942 C1940 1.419 . S
C1942 C1943 1.362 . S
C1943 H1933 0.930 . S
C1943 C1936 1.409 . S
C1943 C1942 1.362 . S
H1944 C1950 0.930 . S
H1945 C1953 0.930 . S
H1946 C1954 0.930 . S
H1947 C1955 0.930 . S
H1948 C1958 0.930 . S
H1949 C1959 0.930 . S
C1950 H1944 0.930 . S
C1950 C1951 1.355 . S
C1950 C1952 1.415 . S
C1951 C1950 1.355 . S
C1951 C1953 1.419 . S
C1952 C1950 1.415 . S
C1952 C1957 1.425 . S
C1952 C1959 1.409 . S
C1953 H1945 0.930 . S
C1953 C1951 1.419 . S
C1953 C1954 1.362 . S
C1954 H1946 0.930 . S
C1954 C1953 1.362 . S
C1954 C1957 1.409 . S
C1955 H1947 0.930 . S
C1955 C1956 1.355 . S
C1955 C1957 1.415 . S
C1956 C1955 1.355 . S
C1956 C1958 1.419 . S
C1957 C1952 1.425 . S
C1957 C1954 1.409 . S
C1957 C1955 1.415 . S
C1958 H1948 0.930 . S
C1958 C1956 1.419 . S
C1958 C1959 1.362 . S
C1959 H1949 0.930 . S
C1959 C1952 1.409 . S
C1959 C1958 1.362 . S
H1960 C1966 0.930 . S
H1961 C1969 0.930 . S
H1962 C1970 0.930 . S
H1963 C1971 0.930 . S
H1964 C1974 0.930 . S
H1965 C1975 0.930 . S
C1966 H1960 0.930 . S
C1966 C1967 1.355 . S
C1966 C1968 1.415 . S
C1967 C1966 1.355 . S
C1967 C1969 1.419 . S
C1968 C1966 1.415 . S
C1968 C1973 1.425 . S
C1968 C1975 1.409 . S
C1969 H1961 0.930 . S
C1969 C1967 1.419 . S
C1969 C1970 1.362 . S
C1970 H1962 0.930 . S
C1970 C1969 1.362 . S
C1970 C1973 1.409 . S
C1971 H1963 0.930 . S
C1971 C1972 1.355 . S
C1971 C1973 1.415 . S
C1972 C1971 1.355 . S
C1972 C1974 1.419 . S
C1973 C1968 1.425 . S
C1973 C1970 1.409 . S
C1973 C1971 1.415 . S
C1974 H1964 0.930 . S
C1974 C1972 1.419 . S
C1974 C1975 1.362 . S
C1975 H1965 0.930 . S
C1975 C1968 1.409 . S
C1975 C1974 1.362 . S
H1976 C1982 0.930 . S
H1977 C1985 0.930 . S
H1978 C1986 0.930 . S
H1979 C1987 0.930 . S
H1980 C1990 0.930 . S
H1981 C1991 0.930 . S
C1982 H1976 0.930 . S
C1982 C1983 1.355 . S
C1982 C1984 1.415 . S
C1983 C1982 1.355 . S
C1983 C1985 1.419 . S
C1984 C1982 1.415 . S
C1984 C1989 1.425 . S
C1984 C1991 1.409 . S
C1985 H1977 0.930 . S
C1985 C1983 1.419 . S
C1985 C1986 1.362 . S
C1986 H1978 0.930 . S
C1986 C1985 1.362 . S
C1986 C1989 1.409 . S
C1987 H1979 0.930 . S
C1987 C1988 1.355 . S
C1987 C1989 1.415 . S
C1988 C1987 1.355 . S
C1988 C1990 1.419 . S
C1989 C1984 1.425 . S
C1989 C1986 1.409 . S
C1989 C1987 1.415 . S
C1990 H1980 0.930 . S
C1990 C1988 1.419 . S
C1990 C1991 1.362 . S
C1991 H1981 0.930 . S
C1991 C1984 1.409 . S
C1991 C1990 1.362 . S
H1992 C1998 0.930 . S
H1993 C2001 0.930 . S
H1994 C2002 0.930 . S
H1995 C2003 0.930 . S
H1996 C2006 0.930 . S
H1997 C2007 0.930 . S
C1998 H1992 0.930 . S
C1998 C1999 1.355 . S
C1998 C2000 1.415 . S
C1999 C1998 1.355 . S
C1999 C2001 1.419 . S
C2000 C1998 1.415 . S
C2000 C2005 1.425 . S
C2000 C2007 1.409 . S
C2001 H1993 0.930 . S
C2001 C1999 1.419 . S
C2001 C2002 1.362 . S
C2002 H1994 0.930 . S
C2002 C2001 1.362 . S
C2002 C2005 1.409 . S
C2003 H1995 0.930 . S
C2003 C2004 1.355 . S
C2003 C2005 1.415 . S
C2004 C2003 1.355 . S
C2004 C2006 1.419 . S
C2005 C2000 1.425 . S
C2005 C2002 1.409 . S
C2005 C2003 1.415 . S
C2006 H1996 0.930 . S
C2006 C2004 1.419 . S
C2006 C2007 1.362 . S
C2007 H1997 0.930 . S
C2007 C2000 1.409 . S
C2007 C2006 1.362 . S
H2008 C2014 0.930 . S
H2009 C2017 0.930 . S
H2010 C2018 0.930 . S
H2011 C2019 0.930 . S
H2012 C2022 0.930 . S
H2013 C2023 0.930 . S
C2014 H2008 0.930 . S
C2014 C2015 1.355 . S
C2014 C2016 1.415 . S
C2015 C2014 1.355 . S
C2015 C2017 1.419 . S
C2016 C2014 1.415 . S
C2016 C2021 1.425 . S
C2016 C2023 1.409 . S
C2017 H2009 0.930 . S
C2017 C2015 1.419 . S
C2017 C2018 1.362 . S
C2018 H2010 0.930 . S
C2018 C2017 1.362 . S
C2018 C2021 1.409 . S
C2019 H2011 0.930 . S
C2019 C2020 1.355 . S
C2019 C2021 1.415 . S
C2020 C2019 1.355 . S
C2020 C2022 1.419 . S
C2021 C2016 1.425 . S
C2021 C2018 1.409 . S
C2021 C2019 1.415 . S
C2022 H2012 0.930 . S
C2022 C2020 1.419 . S
C2022 C2023 1.362 . S
C2023 H2013 0.930 . S
C2023 C2016 1.409 . S
C2023 C2022 1.362 . S
H2024 C2030 0.930 . S
H2025 C2033 0.930 . S
H2026 C2034 0.930 . S
H2027 C2035 0.930 . S
H2028 C2038 0.930 . S
H2029 C2039 0.930 . S
C2030 H2024 0.930 . S
C2030 C2031 1.355 . S
C2030 C2032 1.415 . S
C2031 C2030 1.355 . S
C2031 C2033 1.419 . S
C2032 C2030 1.415 . S
C2032 C2037 1.425 . S
C2032 C2039 1.409 . S
C2033 H2025 0.930 . S
C2033 C2031 1.419 . S
C2033 C2034 1.362 . S
C2034 H2026 0.930 . S
C2034 C2033 1.362 . S
C2034 C2037 1.409 . S
C2035 H2027 0.930 . S
C2035 C2036 1.355 . S
C2035 C2037 1.415 . S
C2036 C2035 1.355 . S
C2036 C2038 1.419 . S
C2037 C2032 1.425 . S
C2037 C2034 1.409 . S
C2037 C2035 1.415 . S
C2038 H2028 0.930 . S
C2038 C2036 1.419 . S
C2038 C2039 1.362 . S
C2039 H2029 0.930 . S
C2039 C2032 1.409 . S
C2039 C2038 1.362 . S
H2040 C2046 0.930 . S
H2041 C2049 0.930 . S
H2042 C2050 0.930 . S
H2043 C2051 0.930 . S
H2044 C2054 0.930 . S
H2045 C2055 0.930 . S
C2046 H2040 0.930 . S
C2046 C2047 1.355 . S
C2046 C2048 1.415 . S
C2047 C2046 1.355 . S
C2047 C2049 1.419 . S
C2048 C2046 1.415 . S
C2048 C2053 1.425 . S
C2048 C2055 1.409 . S
C2049 H2041 0.930 . S
C2049 C2047 1.419 . S
C2049 C2050 1.362 . S
C2050 H2042 0.930 . S
C2050 C2049 1.362 . S
C2050 C2053 1.409 . S
C2051 H2043 0.930 . S
C2051 C2052 1.355 . S
C2051 C2053 1.415 . S
C2052 C2051 1.355 . S
C2052 C2054 1.419 . S
C2053 C2048 1.425 . S
C2053 C2050 1.409 . S
C2053 C2051 1.415 . S
C2054 H2044 0.930 . S
C2054 C2052 1.419 . S
C2054 C2055 1.362 . S
C2055 H2045 0.930 . S
C2055 C2048 1.409 . S
C2055 C2054 1.362 . S
H2056 C2062 0.930 . S
H2057 C2065 0.930 . S
H2058 C2066 0.930 . S
H2059 C2067 0.930 . S
H2060 C2070 0.930 . S
H2061 C2071 0.930 . S
C2062 H2056 0.930 . S
C2062 C2063 1.355 . S
C2062 C2064 1.415 . S
C2063 C2062 1.355 . S
C2063 C2065 1.419 . S
C2064 C2062 1.415 . S
C2064 C2069 1.425 . S
C2064 C2071 1.409 . S
C2065 H2057 0.930 . S
C2065 C2063 1.419 . S
C2065 C2066 1.362 . S
C2066 H2058 0.930 . S
C2066 C2065 1.362 . S
C2066 C2069 1.409 . S
C2067 H2059 0.930 . S
C2067 C2068 1.355 . S
C2067 C2069 1.415 . S
C2068 C2067 1.355 . S
C2068 C2070 1.419 . S
C2069 C2064 1.425 . S
C2069 C2066 1.409 . S
C2069 C2067 1.415 . S
C2070 H2060 0.930 . S
C2070 C2068 1.419 . S
C2070 C2071 1.362 . S
C2071 H2061 0.930 . S
C2071 C2064 1.409 . S
C2071 C2070 1.362 . S
H2072 C2078 0.930 . S
H2073 C2081 0.930 . S
H2074 C2082 0.930 . S
H2075 C2083 0.930 . S
H2076 C2086 0.930 . S
H2077 C2087 0.930 . S
C2078 H2072 0.930 . S
C2078 C2079 1.355 . S
C2078 C2080 1.415 . S
C2079 C2078 1.355 . S
C2079 C2081 1.419 . S
C2080 C2078 1.415 . S
C2080 C2085 1.425 . S
C2080 C2087 1.409 . S
C2081 H2073 0.930 . S
C2081 C2079 1.419 . S
C2081 C2082 1.362 . S
C2082 H2074 0.930 . S
C2082 C2081 1.362 . S
C2082 C2085 1.409 . S
C2083 H2075 0.930 . S
C2083 C2084 1.355 . S
C2083 C2085 1.415 . S
C2084 C2083 1.355 . S
C2084 C2086 1.419 . S
C2085 C2080 1.425 . S
C2085 C2082 1.409 . S
C2085 C2083 1.415 . S
C2086 H2076 0.930 . S
C2086 C2084 1.419 . S
C2086 C2087 1.362 . S
C2087 H2077 0.930 . S
C2087 C2080 1.409 . S
C2087 C2086 1.362 . S
H2088 C2094 0.930 . S
H2089 C2097 0.930 . S
H2090 C2098 0.930 . S
H2091 C2099 0.930 . S
H2092 C2102 0.930 . S
H2093 C2103 0.930 . S
C2094 H2088 0.930 . S
C2094 C2095 1.355 . S
C2094 C2096 1.415 . S
C2095 C2094 1.355 . S
C2095 C2097 1.419 . S
C2096 C2094 1.415 . S
C2096 C2101 1.425 . S
C2096 C2103 1.409 . S
C2097 H2089 0.930 . S
C2097 C2095 1.419 . S
C2097 C2098 1.362 . S
C2098 H2090 0.930 . S
C2098 C2097 1.362 . S
C2098 C2101 1.409 . S
C2099 H2091 0.930 . S
C2099 C2100 1.355 . S
C2099 C2101 1.415 . S
C2100 C2099 1.355 . S
C2100 C2102 1.419 . S
C2101 C2096 1.425 . S
C2101 C2098 1.409 . S
C2101 C2099 1.415 . S
C2102 H2092 0.930 . S
C2102 C2100 1.419 . S
C2102 C2103 1.362 . S
C2103 H2093 0.930 . S
C2103 C2096 1.409 . S
C2103 C2102 1.362 . S
H2104 C2110 0.930 . S
H2105 C2113 0.930 . S
H2106 C2114 0.930 . S
H2107 C2115 0.930 . S
H2108 C2118 0.930 . S
H2109 C2119 0.930 . S
C2110 H2104 0.930 . S
C2110 C2111 1.355 . S
C2110 C2112 1.415 . S
C2111 C2110 1.355 . S
C2111 C2113 1.419 . S
C2112 C2110 1.415 . S
C2112 C2117 1.425 . S
C2112 C2119 1.409 . S
C2113 H2105 0.930 . S
C2113 C2111 1.419 . S
C2113 C2114 1.362 . S
C2114 H2106 0.930 . S
C2114 C2113 1.362 . S
C2114 C2117 1.409 . S
C2115 H2107 0.930 . S
C2115 C2116 1.355 . S
C2115 C2117 1.415 . S
C2116 C2115 1.355 . S
C2116 C2118 1.419 . S
C2117 C2112 1.425 . S
C2117 C2114 1.409 . S
C2117 C2115 1.415 . S
C2118 H2108 0.930 . S
C2118 C2116 1.419 . S
C2118 C2119 1.362 . S
C2119 H2109 0.930 . S
C2119 C2112 1.409 . S
C2119 C2118 1.362 . S
H2120 C2126 0.930 . S
H2121 C2129 0.930 . S
H2122 C2130 0.930 . S
H2123 C2131 0.930 . S
H2124 C2134 0.930 . S
H2125 C2135 0.930 . S
C2126 H2120 0.930 . S
C2126 C2127 1.355 . S
C2126 C2128 1.415 . S
C2127 C2126 1.355 . S
C2127 C2129 1.419 . S
C2128 C2126 1.415 . S
C2128 C2133 1.425 . S
C2128 C2135 1.409 . S
C2129 H2121 0.930 . S
C2129 C2127 1.419 . S
C2129 C2130 1.362 . S
C2130 H2122 0.930 . S
C2130 C2129 1.362 . S
C2130 C2133 1.409 . S
C2131 H2123 0.930 . S
C2131 C2132 1.355 . S
C2131 C2133 1.415 . S
C2132 C2131 1.355 . S
C2132 C2134 1.419 . S
C2133 C2128 1.425 . S
C2133 C2130 1.409 . S
C2133 C2131 1.415 . S
C2134 H2124 0.930 . S
C2134 C2132 1.419 . S
C2134 C2135 1.362 . S
C2135 H2125 0.930 . S
C2135 C2128 1.409 . S
C2135 C2134 1.362 . S
H2136 C2142 0.930 . S
H2137 C2145 0.930 . S
H2138 C2146 0.930 . S
H2139 C2147 0.930 . S
H2140 C2150 0.930 . S
H2141 C2151 0.930 . S
C2142 H2136 0.930 . S
C2142 C2143 1.355 . S
C2142 C2144 1.415 . S
C2143 C2142 1.355 . S
C2143 C2145 1.419 . S
C2144 C2142 1.415 . S
C2144 C2149 1.425 . S
C2144 C2151 1.409 . S
C2145 H2137 0.930 . S
C2145 C2143 1.419 . S
C2145 C2146 1.362 . S
C2146 H2138 0.930 . S
C2146 C2145 1.362 . S
C2146 C2149 1.409 . S
C2147 H2139 0.930 . S
C2147 C2148 1.355 . S
C2147 C2149 1.415 . S
C2148 C2147 1.355 . S
C2148 C2150 1.419 . S
C2149 C2144 1.425 . S
C2149 C2146 1.409 . S
C2149 C2147 1.415 . S
C2150 H2140 0.930 . S
C2150 C2148 1.419 . S
C2150 C2151 1.362 . S
C2151 H2141 0.930 . S
C2151 C2144 1.409 . S
C2151 C2150 1.362 . S
H2152 C2158 0.930 . S
H2153 C2161 0.930 . S
H2154 C2162 0.930 . S
H2155 C2163 0.930 . S
H2156 C2166 0.930 . S
H2157 C2167 0.930 . S
C2158 H2152 0.930 . S
C2158 C2159 1.355 . S
C2158 C2160 1.415 . S
C2159 C2158 1.355 . S
C2159 C2161 1.419 . S
C2160 C2158 1.415 . S
C2160 C2165 1.425 . S
C2160 C2167 1.409 . S
C2161 H2153 0.930 . S
C2161 C2159 1.419 . S
C2161 C2162 1.362 . S
C2162 H2154 0.930 . S
C2162 C2161 1.362 . S
C2162 C2165 1.409 . S
C2163 H2155 0.930 . S
C2163 C2164 1.355 . S
C2163 C2165 1.415 . S
C2164 C2163 1.355 . S
C2164 C2166 1.419 . S
C2165 C2160 1.425 . S
C2165 C2162 1.409 . S
C2165 C2163 1.415 . S
C2166 H2156 0.930 . S
C2166 C2164 1.419 . S
C2166 C2167 1.362 . S
C2167 H2157 0.930 . S
C2167 C2160 1.409 . S
C2167 C2166 1.362 . S
H2168 C2174 0.930 . S
H2169 C2177 0.930 . S
H2170 C2178 0.930 . S
H2171 C2179 0.930 . S
H2172 C2182 0.930 . S
H2173 C2183 0.930 . S
C2174 H2168 0.930 . S
C2174 C2175 1.355 . S
C2174 C2176 1.415 . S
C2175 C2174 1.355 . S
C2175 C2177 1.419 . S
C2176 C2174 1.415 . S
C2176 C2181 1.425 . S
C2176 C2183 1.409 . S
C2177 H2169 0.930 . S
C2177 C2175 1.419 . S
C2177 C2178 1.362 . S
C2178 H2170 0.930 . S
C2178 C2177 1.362 . S
C2178 C2181 1.409 . S
C2179 H2171 0.930 . S
C2179 C2180 1.355 . S
C2179 C2181 1.415 . S
C2180 C2179 1.355 . S
C2180 C2182 1.419 . S
C2181 C2176 1.425 . S
C2181 C2178 1.409 . S
C2181 C2179 1.415 . S
C2182 H2172 0.930 . S
C2182 C2180 1.419 . S
C2182 C2183 1.362 . S
C2183 H2173 0.930 . S
C2183 C2176 1.409 . S
C2183 C2182 1.362 . S
C1423 C829 1.375 . S
C1428 C5 1.395 . S
C1439 C62 1.362 . S
C1444 C890 1.390 . S
C1455 C1114 1.535 . S
C1460 C170 1.536 . S
C1471 C210 1.832 . S
C1476 C800 1.832 . S
C1487 C859 1.837 . S
C1492 C288 1.826 . S
C1503 C328 1.550 . S
C1508 C937 1.534 . S
C1519 C359 1.399 . S
C1524 C1067 1.400 . S
C1535 C416 1.404 . S
C1540 C770 1.407 . S
C1551 C536 1.386 . S
C1556 C475 1.397 . S
C1567 C623 1.841 . S
C1572 C583 1.835 . S
C1583 C593 1.385 . S
C1588 C654 1.397 . S
C1599 C701 1.539 . S
C1604 C505 1.554 . S
C1615 C713 1.390 . S
C1620 C180 1.362 . S
C1631 C241 1.397 . S
C1636 C949 1.398 . S
C1647 C1036 1.832 . S
C1652 C92 1.832 . S
C1663 C64 1.720 . S
C1668 C1291 1.722 . S
C1679 C534 1.718 . S
C1684 C33 1.729 . S
C1695 C1409 1.843 . S
C1700 C229 1.844 . S
C1711 C652 1.282 . S
C1716 C121 1.303 . S
C1727 C1244 1.291 . S
C1732 C418 1.287 . S
C1743 C564 1.852 . S
C1748 C387 1.847 . S
C1759 C347 1.721 . S
C1764 C1362 1.721 . S
C1775 C239 1.718 . S
C1780 C682 1.733 . S
C1791 C918 1.717 . S
C1796 C1126 1.721 . S
C1807 C947 1.295 . S
C1812 C888 1.281 . S
C1823 C772 1.724 . S
C1828 C977 1.727 . S
C1839 C1173 1.834 . S
C1844 C819 1.853 . S
C1855 C151 1.722 . S
C1860 C1183 1.727 . S
C1871 C595 1.722 . S
C1876 C465 1.721 . S
C1887 C3 1.285 . S
C1892 C1301 1.305 . S
C1903 C1124 1.405 . S
C1908 C123 1.409 . S
C1919 C52 1.563 . S
C1924 C996 1.564 . S
C1935 C1154 1.847 . S
C1940 C406 1.844 . S
C1951 C760 1.558 . S
C1956 C446 1.561 . S
C1967 C298 1.406 . S
C1972 C1006 1.389 . S
C1983 C1242 1.384 . S
C1988 C1185 1.391 . S
C1999 C1390 1.833 . S
C2004 C1232 1.820 . S
C2015 C1303 1.395 . S
C2020 C1360 1.380 . S
C2031 C1272 1.567 . S
C2036 C1350 1.561 . S
C2047 C524 1.731 . S
C2052 C182 1.728 . S
C2063 C111 1.844 . S
C2068 C642 1.843 . S
C2079 C300 1.295 . S
C2084 C477 1.294 . S
C2095 C1213 1.853 . S
C2100 C269 1.845 . S
C2111 C357 1.728 . S
C2116 C1331 1.731 . S
C2127 C741 1.721 . S
C2132 C831 1.720 . S
C2143 C1065 1.293 . S
C2148 C711 1.282 . S
C2159 C1008 1.722 . S
C2164 C1095 1.725 . S
C2175 C878 1.850 . S
C2180 C1055 1.832 . S
