# Generated by pormake.
# Topology sxg, (6)-cn, num edge types: 1
# Building blocks:
#     Node 0, Type 0, BuildingBlock: OJICUG_clean_sbu_0, # of connection points: 6
#     Node 1, Type 0, BuildingBlock: OJICUG_clean_sbu_0, # of connection points: 6
#     Node 2, Type 0, BuildingBlock: OJICUG_clean_sbu_0, # of connection points: 6
#     Node 3, Type 0, BuildingBlock: OJICUG_clean_sbu_0, # of connection points: 6
#     Node 4, Type 0, BuildingBlock: OJICUG_clean_sbu_0, # of connection points: 6
#     Node 5, Type 0, BuildingBlock: OJICUG_clean_sbu_0, # of connection points: 6
#     Node 6, Type 0, BuildingBlock: OJICUG_clean_sbu_0, # of connection points: 6
#     Node 7, Type 0, BuildingBlock: OJICUG_clean_sbu_0, # of connection points: 6
#     Node 8, Type 0, BuildingBlock: OJICUG_clean_sbu_0, # of connection points: 6
#     Node 9, Type 0, BuildingBlock: OJICUG_clean_sbu_0, # of connection points: 6
#     Node 10, Type 0, BuildingBlock: OJICUG_clean_sbu_0, # of connection points: 6
#     Node 11, Type 0, BuildingBlock: OJICUG_clean_sbu_0, # of connection points: 6
#     Node 12, Type 0, BuildingBlock: OJICUG_clean_sbu_0, # of connection points: 6
#     Node 13, Type 0, BuildingBlock: OJICUG_clean_sbu_0, # of connection points: 6
#     Node 14, Type 0, BuildingBlock: OJICUG_clean_sbu_0, # of connection points: 6
#     Node 15, Type 0, BuildingBlock: OJICUG_clean_sbu_0, # of connection points: 6
#     Node 16, Type 0, BuildingBlock: OJICUG_clean_sbu_0, # of connection points: 6
#     Node 17, Type 0, BuildingBlock: OJICUG_clean_sbu_0, # of connection points: 6
#     Node 18, Type 0, BuildingBlock: OJICUG_clean_sbu_0, # of connection points: 6
#     Node 19, Type 0, BuildingBlock: OJICUG_clean_sbu_0, # of connection points: 6
#     Node 20, Type 0, BuildingBlock: OJICUG_clean_sbu_0, # of connection points: 6
#     Node 21, Type 0, BuildingBlock: OJICUG_clean_sbu_0, # of connection points: 6
#     Node 22, Type 0, BuildingBlock: OJICUG_clean_sbu_0, # of connection points: 6
#     Node 23, Type 0, BuildingBlock: OJICUG_clean_sbu_0, # of connection points: 6
#     Edge 24, Type (0, 0), BuildingBlock: AJUNOK_clean_linker_0, # of connection points: 2
#     Edge 25, Type (0, 0), BuildingBlock: AJUNOK_clean_linker_0, # of connection points: 2
#     Edge 26, Type (0, 0), BuildingBlock: AJUNOK_clean_linker_0, # of connection points: 2
#     Edge 27, Type (0, 0), BuildingBlock: AJUNOK_clean_linker_0, # of connection points: 2
#     Edge 28, Type (0, 0), BuildingBlock: AJUNOK_clean_linker_0, # of connection points: 2
#     Edge 29, Type (0, 0), BuildingBlock: AJUNOK_clean_linker_0, # of connection points: 2
#     Edge 30, Type (0, 0), BuildingBlock: AJUNOK_clean_linker_0, # of connection points: 2
#     Edge 31, Type (0, 0), BuildingBlock: AJUNOK_clean_linker_0, # of connection points: 2
#     Edge 32, Type (0, 0), BuildingBlock: AJUNOK_clean_linker_0, # of connection points: 2
#     Edge 33, Type (0, 0), BuildingBlock: AJUNOK_clean_linker_0, # of connection points: 2
#     Edge 34, Type (0, 0), BuildingBlock: AJUNOK_clean_linker_0, # of connection points: 2
#     Edge 35, Type (0, 0), BuildingBlock: AJUNOK_clean_linker_0, # of connection points: 2
#     Edge 36, Type (0, 0), BuildingBlock: AJUNOK_clean_linker_0, # of connection points: 2
#     Edge 37, Type (0, 0), BuildingBlock: AJUNOK_clean_linker_0, # of connection points: 2
#     Edge 38, Type (0, 0), BuildingBlock: AJUNOK_clean_linker_0, # of connection points: 2
#     Edge 39, Type (0, 0), BuildingBlock: AJUNOK_clean_linker_0, # of connection points: 2
#     Edge 40, Type (0, 0), BuildingBlock: AJUNOK_clean_linker_0, # of connection points: 2
#     Edge 41, Type (0, 0), BuildingBlock: AJUNOK_clean_linker_0, # of connection points: 2
#     Edge 42, Type (0, 0), BuildingBlock: AJUNOK_clean_linker_0, # of connection points: 2
#     Edge 43, Type (0, 0), BuildingBlock: AJUNOK_clean_linker_0, # of connection points: 2
#     Edge 44, Type (0, 0), BuildingBlock: AJUNOK_clean_linker_0, # of connection points: 2
#     Edge 45, Type (0, 0), BuildingBlock: AJUNOK_clean_linker_0, # of connection points: 2
#     Edge 46, Type (0, 0), BuildingBlock: AJUNOK_clean_linker_0, # of connection points: 2
#     Edge 47, Type (0, 0), BuildingBlock: AJUNOK_clean_linker_0, # of connection points: 2
#     Edge 48, Type (0, 0), BuildingBlock: AJUNOK_clean_linker_0, # of connection points: 2
#     Edge 49, Type (0, 0), BuildingBlock: AJUNOK_clean_linker_0, # of connection points: 2
#     Edge 50, Type (0, 0), BuildingBlock: AJUNOK_clean_linker_0, # of connection points: 2
#     Edge 51, Type (0, 0), BuildingBlock: AJUNOK_clean_linker_0, # of connection points: 2
#     Edge 52, Type (0, 0), BuildingBlock: AJUNOK_clean_linker_0, # of connection points: 2
#     Edge 53, Type (0, 0), BuildingBlock: AJUNOK_clean_linker_0, # of connection points: 2
#     Edge 54, Type (0, 0), BuildingBlock: AJUNOK_clean_linker_0, # of connection points: 2
#     Edge 55, Type (0, 0), BuildingBlock: AJUNOK_clean_linker_0, # of connection points: 2
#     Edge 56, Type (0, 0), BuildingBlock: AJUNOK_clean_linker_0, # of connection points: 2
#     Edge 57, Type (0, 0), BuildingBlock: AJUNOK_clean_linker_0, # of connection points: 2
#     Edge 58, Type (0, 0), BuildingBlock: AJUNOK_clean_linker_0, # of connection points: 2
#     Edge 59, Type (0, 0), BuildingBlock: AJUNOK_clean_linker_0, # of connection points: 2
#     Edge 60, Type (0, 0), BuildingBlock: AJUNOK_clean_linker_0, # of connection points: 2
#     Edge 61, Type (0, 0), BuildingBlock: AJUNOK_clean_linker_0, # of connection points: 2
#     Edge 62, Type (0, 0), BuildingBlock: AJUNOK_clean_linker_0, # of connection points: 2
#     Edge 63, Type (0, 0), BuildingBlock: AJUNOK_clean_linker_0, # of connection points: 2
#     Edge 64, Type (0, 0), BuildingBlock: AJUNOK_clean_linker_0, # of connection points: 2
#     Edge 65, Type (0, 0), BuildingBlock: AJUNOK_clean_linker_0, # of connection points: 2
#     Edge 66, Type (0, 0), BuildingBlock: AJUNOK_clean_linker_0, # of connection points: 2
#     Edge 67, Type (0, 0), BuildingBlock: AJUNOK_clean_linker_0, # of connection points: 2
#     Edge 68, Type (0, 0), BuildingBlock: AJUNOK_clean_linker_0, # of connection points: 2
#     Edge 69, Type (0, 0), BuildingBlock: AJUNOK_clean_linker_0, # of connection points: 2
#     Edge 70, Type (0, 0), BuildingBlock: AJUNOK_clean_linker_0, # of connection points: 2
#     Edge 71, Type (0, 0), BuildingBlock: AJUNOK_clean_linker_0, # of connection points: 2
#     Edge 72, Type (0, 0), BuildingBlock: AJUNOK_clean_linker_0, # of connection points: 2
#     Edge 73, Type (0, 0), BuildingBlock: AJUNOK_clean_linker_0, # of connection points: 2
#     Edge 74, Type (0, 0), BuildingBlock: AJUNOK_clean_linker_0, # of connection points: 2
#     Edge 75, Type (0, 0), BuildingBlock: AJUNOK_clean_linker_0, # of connection points: 2
#     Edge 76, Type (0, 0), BuildingBlock: AJUNOK_clean_linker_0, # of connection points: 2
#     Edge 77, Type (0, 0), BuildingBlock: AJUNOK_clean_linker_0, # of connection points: 2
#     Edge 78, Type (0, 0), BuildingBlock: AJUNOK_clean_linker_0, # of connection points: 2
#     Edge 79, Type (0, 0), BuildingBlock: AJUNOK_clean_linker_0, # of connection points: 2
#     Edge 80, Type (0, 0), BuildingBlock: AJUNOK_clean_linker_0, # of connection points: 2
#     Edge 81, Type (0, 0), BuildingBlock: AJUNOK_clean_linker_0, # of connection points: 2
#     Edge 82, Type (0, 0), BuildingBlock: AJUNOK_clean_linker_0, # of connection points: 2
#     Edge 83, Type (0, 0), BuildingBlock: AJUNOK_clean_linker_0, # of connection points: 2
#     Edge 84, Type (0, 0), BuildingBlock: AJUNOK_clean_linker_0, # of connection points: 2
#     Edge 85, Type (0, 0), BuildingBlock: AJUNOK_clean_linker_0, # of connection points: 2
#     Edge 86, Type (0, 0), BuildingBlock: AJUNOK_clean_linker_0, # of connection points: 2
#     Edge 87, Type (0, 0), BuildingBlock: AJUNOK_clean_linker_0, # of connection points: 2
#     Edge 88, Type (0, 0), BuildingBlock: AJUNOK_clean_linker_0, # of connection points: 2
#     Edge 89, Type (0, 0), BuildingBlock: AJUNOK_clean_linker_0, # of connection points: 2
#     Edge 90, Type (0, 0), BuildingBlock: AJUNOK_clean_linker_0, # of connection points: 2
#     Edge 91, Type (0, 0), BuildingBlock: AJUNOK_clean_linker_0, # of connection points: 2
#     Edge 92, Type (0, 0), BuildingBlock: AJUNOK_clean_linker_0, # of connection points: 2
#     Edge 93, Type (0, 0), BuildingBlock: AJUNOK_clean_linker_0, # of connection points: 2
#     Edge 94, Type (0, 0), BuildingBlock: AJUNOK_clean_linker_0, # of connection points: 2
#     Edge 95, Type (0, 0), BuildingBlock: AJUNOK_clean_linker_0, # of connection points: 2
# Relax obj value: 0.142
# Max RMSD: 0.235
# Mean RMSD: 0.235
data_MOF--net-sxg--node1-OJICUG_clean_sbu_0--edge1-AJUNOK_clean_linker_0
_symmetry_space_group_name_H-M    P1
_symmetry_Int_Tables_number       1
_symmetry_cell_setting            triclinic
loop_
_symmetry_equiv_pos_as_xyz
'x, y, z'
_cell_length_a     35.09492
_cell_length_b     35.112326
_cell_length_c     35.098236
_cell_angle_alpha  89.993241
_cell_angle_beta   89.94513
_cell_angle_gamma 90.0638
loop_
_atom_site_label
_atom_site_type_symbol
_atom_site_fract_x
_atom_site_fract_y
_atom_site_fract_z
_atom_type_partial_charge
Sc0 Sc 0.0935 0.3951 0.16082 0.0
Sc1 Sc 0.06226 0.37242 0.25299 0.0
Sc2 Sc 0.07603 0.3015 0.18636 0.0
O3 O 0.07655 0.35678 0.19983 0.0
C4 C 0.0389 0.33642 0.11453 0.0
C5 C 0.02597 0.43849 0.20022 0.0
C6 C 0.00683 0.30645 0.24723 0.0
C7 C 0.13585 0.42235 0.23702 0.0
C8 C 0.14984 0.33001 0.14256 0.0
C9 C 0.11046 0.29544 0.26525 0.0
O10 O 0.06113 0.36541 0.11625 0.0
O11 O 0.03192 0.42329 0.23284 0.0
O12 O 0.03006 0.28771 0.22646 0.0
O13 O 0.12795 0.4269 0.20177 0.0
O14 O 0.12402 0.30506 0.14763 0.0
O15 O 0.0886 0.3214 0.27857 0.0
O16 O 0.1446 0.36494 0.149 0.0
O17 O 0.11544 0.40206 0.25908 0.0
O18 O 0.11623 0.29157 0.22987 0.0
O19 O 0.04435 0.42892 0.17066 0.0
O20 O 0.03676 0.31176 0.14109 0.0
O21 O 0.00927 0.3424 0.25025 0.0
Sc22 Sc 0.41675 0.61296 0.6621 0.0
Sc23 Sc 0.4465 0.63647 0.75436 0.0
Sc24 Sc 0.43265 0.70678 0.68753 0.0
O25 O 0.43318 0.6516 0.70082 0.0
C26 C 0.46987 0.67305 0.615 0.0
C27 C 0.48347 0.57022 0.70247 0.0
C28 C 0.50302 0.70127 0.74748 0.0
C29 C 0.37334 0.58647 0.73831 0.0
C30 C 0.35922 0.67715 0.64397 0.0
C31 C 0.40122 0.71476 0.76585 0.0
O32 O 0.44854 0.64336 0.61728 0.0
O33 O 0.47533 0.58452 0.73502 0.0
O34 O 0.47934 0.72031 0.7274 0.0
O35 O 0.38282 0.58067 0.70355 0.0
O36 O 0.3845 0.7026 0.6492 0.0
O37 O 0.42287 0.68901 0.77963 0.0
O38 O 0.36513 0.64227 0.65024 0.0
O39 O 0.39241 0.60825 0.76018 0.0
O40 O 0.39179 0.71449 0.73121 0.0
O41 O 0.46661 0.5801 0.6721 0.0
O42 O 0.47175 0.69777 0.64156 0.0
O43 O 0.50013 0.66535 0.75094 0.0
Sc44 Sc 0.58113 0.20706 0.82033 0.0
Sc45 Sc 0.56318 0.1351 0.75614 0.0
Sc46 Sc 0.59266 0.11362 0.84931 0.0
O47 O 0.57789 0.15148 0.80909 0.0
C48 C 0.65329 0.17614 0.8654 0.0
C49 C 0.613 0.21033 0.74132 0.0
C50 C 0.63467 0.08287 0.77382 0.0
C51 C 0.51031 0.20296 0.7608 0.0
C52 C 0.54115 0.17688 0.89352 0.0
C53 C 0.52468 0.07109 0.81019 0.0
O54 O 0.62984 0.20272 0.85808 0.0
O55 O 0.58966 0.18539 0.7287 0.0
O56 O 0.62609 0.07956 0.80911 0.0
O57 O 0.5349 0.22136 0.78042 0.0
O58 O 0.56074 0.14598 0.89265 0.0
O59 O 0.53176 0.08516 0.77728 0.0
O60 O 0.54193 0.20123 0.86661 0.0
O61 O 0.51121 0.16683 0.7587 0.0
O62 O 0.5423 0.08142 0.83992 0.0
O63 O 0.62161 0.21156 0.77618 0.0
O64 O 0.64524 0.14139 0.86127 0.0
O65 O 0.61569 0.10387 0.75108 0.0
Sc66 Sc 0.92917 0.80002 0.3206 0.0
Sc67 Sc 0.94712 0.87177 0.2566 0.0
Sc68 Sc 0.91663 0.89283 0.34958 0.0
O69 O 0.93258 0.85548 0.30962 0.0
C70 C 0.85692 0.82935 0.36531 0.0
C71 C 0.89857 0.79591 0.24273 0.0
C72 C 0.87509 0.92309 0.27361 0.0
C73 C 1.00024 0.80464 0.26125 0.0
C74 C 0.96864 0.82952 0.39367 0.0
C75 C 0.98429 0.93647 0.31082 0.0
O76 O 0.88181 0.80374 0.35973 0.0
O77 O 0.92199 0.82047 0.22953 0.0
O78 O 0.88353 0.92676 0.30892 0.0
O79 O 0.97518 0.78614 0.28018 0.0
O80 O 0.9484 0.8601 0.39306 0.0
O81 O 0.97735 0.92246 0.27783 0.0
O82 O 0.96869 0.80557 0.36637 0.0
O83 O 0.99954 0.84082 0.25979 0.0
O84 O 0.96693 0.92563 0.34063 0.0
O85 O 0.88774 0.79778 0.27687 0.0
O86 O 0.86388 0.86428 0.36036 0.0
O87 O 0.89419 0.90196 0.2511 0.0
Sc88 Sc 0.16093 0.09199 0.39534 0.0
Sc89 Sc 0.25326 0.06196 0.37202 0.0
Sc90 Sc 0.18657 0.07535 0.30124 0.0
O91 O 0.2 0.07581 0.35659 0.0
C92 C 0.11439 0.03788 0.33595 0.0
C93 C 0.20088 0.02399 0.43756 0.0
C94 C 0.24688 0.0059 0.3063 0.0
C95 C 0.23724 0.13483 0.42282 0.0
C96 C 0.14279 0.14901 0.3304 0.0
C97 C 0.26561 0.11011 0.29497 0.0
O98 O 0.11623 0.05964 0.36531 0.0
O99 O 0.23333 0.03133 0.42262 0.0
O100 O 0.22646 0.0292 0.28727 0.0
O101 O 0.202 0.12658 0.42751 0.0
O102 O 0.14816 0.12349 0.30522 0.0
O103 O 0.27892 0.08847 0.32108 0.0
O104 O 0.14884 0.14337 0.36541 0.0
O105 O 0.25915 0.11492 0.40193 0.0
O106 O 0.2302 0.11551 0.2909 0.0
O107 O 0.17093 0.04222 0.42884 0.0
O108 O 0.14107 0.03607 0.31137 0.0
O109 O 0.25062 0.00901 0.34211 0.0
Sc110 Sc 0.32246 0.93484 0.80062 0.0
Sc111 Sc 0.25403 0.94684 0.86997 0.0
Sc112 Sc 0.34597 0.91726 0.89441 0.0
O113 O 0.30762 0.9337 0.85551 0.0
C114 C 0.3684 0.86264 0.82957 0.0
C115 C 0.24501 0.89797 0.79282 0.0
C116 C 0.26966 0.87415 0.92113 0.0
C117 C 0.25967 1.00192 0.80388 0.0
C118 C 0.39249 0.97307 0.83633 0.0
C119 C 0.30495 0.9847 0.93664 0.0
O120 O 0.36395 0.88935 0.80549 0.0
O121 O 0.23055 0.91954 0.81846 0.0
O122 O 0.30484 0.88238 0.926 0.0
O123 O 0.28091 0.97891 0.78549 0.0
O124 O 0.39083 0.95014 0.86486 0.0
O125 O 0.27277 0.97773 0.92095 0.0
O126 O 0.36561 0.97593 0.81214 0.0
O127 O 0.2565 0.99975 0.83983 0.0
O128 O 0.33504 0.96654 0.92817 0.0
O129 O 0.28063 0.8929 0.78992 0.0
O130 O 0.35856 0.86623 0.864 0.0
O131 O 0.24795 0.89397 0.90001 0.0
Sc132 Sc 0.68637 0.43184 0.70762 0.0
Sc133 Sc 0.75155 0.44621 0.63615 0.0
Sc134 Sc 0.65851 0.41722 0.61414 0.0
O135 O 0.69846 0.43253 0.65212 0.0
C136 C 0.64011 0.35981 0.67848 0.0
C137 C 0.76418 0.39592 0.71161 0.0
C138 C 0.73406 0.37384 0.5855 0.0
C139 C 0.74698 0.50115 0.70239 0.0
C140 C 0.61467 0.47131 0.67574 0.0
C141 C 0.69888 0.48479 0.5715 0.0
O142 O 0.64599 0.38523 0.70364 0.0
O143 O 0.77743 0.41892 0.68659 0.0
O144 O 0.69885 0.3824 0.58108 0.0
O145 O 0.72773 0.47694 0.72163 0.0
O146 O 0.61498 0.44999 0.64589 0.0
O147 O 0.73144 0.4771 0.5859 0.0
O148 O 0.64223 0.47234 0.69923 0.0
O149 O 0.74939 0.49889 0.66642 0.0
O150 O 0.66876 0.46709 0.58089 0.0
O151 O 0.72882 0.39009 0.71519 0.0
O152 O 0.6462 0.36554 0.6435 0.0
O153 O 0.75641 0.39358 0.60603 0.0
Sc154 Sc 0.84851 0.59131 0.11454 0.0
Sc155 Sc 0.75601 0.56042 0.13574 0.0
Sc156 Sc 0.8222 0.57367 0.20685 0.0
O157 O 0.8093 0.57374 0.15173 0.0
C158 C 0.89383 0.53624 0.17413 0.0
C159 C 0.80962 0.52413 0.07007 0.0
C160 C 0.76043 0.50514 0.20138 0.0
C161 C 0.77264 0.63347 0.08557 0.0
C162 C 0.86838 0.64629 0.1799 0.0
C163 C 0.74507 0.6069 0.21367 0.0
O164 O 0.8926 0.55914 0.14556 0.0
O165 O 0.77657 0.53086 0.08419 0.0
O166 O 0.78044 0.52886 0.22037 0.0
O167 O 0.80787 0.62508 0.08173 0.0
O168 O 0.86374 0.61918 0.20344 0.0
O169 O 0.73076 0.58521 0.18808 0.0
O170 O 0.85944 0.64278 0.14522 0.0
O171 O 0.75024 0.61409 0.10659 0.0
O172 O 0.77983 0.61608 0.21282 0.0
O173 O 0.83921 0.54191 0.08078 0.0
O174 O 0.86643 0.53304 0.19782 0.0
O175 O 0.7586 0.50708 0.16527 0.0
Sc176 Sc 0.39384 0.1597 0.08914 0.0
Sc177 Sc 0.37203 0.25299 0.06097 0.0
Sc178 Sc 0.30034 0.18785 0.07642 0.0
O179 O 0.35588 0.19981 0.07449 0.0
C180 C 0.33119 0.11577 0.03638 0.0
C181 C 0.43632 0.20021 0.02146 0.0
C182 C 0.30433 0.24916 0.0076 0.0
C183 C 0.42418 0.23477 0.13216 0.0
C184 C 0.33024 0.14244 0.14821 0.0
C185 C 0.29701 0.26591 0.11164 0.0
O186 O 0.36151 0.1163 0.05696 0.0
O187 O 0.422 0.23274 0.02944 0.0
O188 O 0.28591 0.22891 0.03157 0.0
O189 O 0.42776 0.19963 0.12318 0.0
O190 O 0.30464 0.14805 0.12324 0.0
O191 O 0.32205 0.27903 0.08863 0.0
O192 O 0.3652 0.14779 0.14155 0.0
O193 O 0.4031 0.25749 0.11338 0.0
O194 O 0.294 0.23063 0.11814 0.0
O195 O 0.42651 0.16996 0.03874 0.0
O196 O 0.3075 0.1432 0.03595 0.0
O197 O 0.34044 0.25159 0.00883 0.0
Sc198 Sc 0.80015 0.31895 0.93359 0.0
Sc199 Sc 0.87373 0.25526 0.94973 0.0
Sc200 Sc 0.89346 0.3471 0.91564 0.0
O201 O 0.85609 0.30733 0.93353 0.0
C202 C 0.82773 0.36136 0.85813 0.0
C203 C 0.79792 0.23789 0.90192 0.0
C204 C 0.92312 0.27057 0.87534 0.0
C205 C 0.80725 0.26161 0.00547 0.0
C206 C 0.83338 0.39358 0.96865 0.0
C207 C 0.93814 0.3109 0.98435 0.0
O208 O 0.80243 0.35455 0.88322 0.0
O209 O 0.82432 0.22666 0.92424 0.0
O210 O 0.92607 0.30628 0.88175 0.0
O211 O 0.78786 0.28109 0.9817 0.0
O212 O 0.86298 0.39149 0.9473 0.0
O213 O 0.92366 0.27786 0.97944 0.0
O214 O 0.80868 0.36698 0.97051 0.0
O215 O 0.8432 0.25851 1.00252 0.0
O216 O 0.92802 0.3395 0.96485 0.0
O217 O 0.79082 0.27274 0.89603 0.0
O218 O 0.86292 0.35753 0.86437 0.0
O219 O 0.90398 0.24847 0.89684 0.0
Sc220 Sc 0.70546 0.68754 0.43316 0.0
Sc221 Sc 0.63299 0.75258 0.44491 0.0
Sc222 Sc 0.61317 0.65903 0.41572 0.0
O223 O 0.64998 0.69957 0.43201 0.0
C224 C 0.67948 0.63906 0.36155 0.0
C225 C 0.70967 0.76493 0.39573 0.0
C226 C 0.58274 0.73368 0.37206 0.0
C227 C 0.69952 0.75052 0.49985 0.0
C228 C 0.67307 0.61637 0.47252 0.0
C229 C 0.56824 0.69876 0.48257 0.0
O230 O 0.70304 0.64538 0.38828 0.0
O231 O 0.68342 0.77836 0.41727 0.0
O232 O 0.58027 0.69821 0.38 0.0
O233 O 0.71851 0.72986 0.47685 0.0
O234 O 0.64436 0.61606 0.44973 0.0
O235 O 0.58295 0.73157 0.47627 0.0
O236 O 0.6959 0.64447 0.47464 0.0
O237 O 0.66347 0.75253 0.49777 0.0
O238 O 0.5783 0.66915 0.46445 0.0
O239 O 0.71405 0.72945 0.39081 0.0
O240 O 0.64452 0.6469 0.36491 0.0
O241 O 0.60242 0.75667 0.39205 0.0
Sc242 Sc 0.11468 0.84583 0.58994 0.0
Sc243 Sc 0.13677 0.75292 0.56055 0.0
Sc244 Sc 0.2082 0.81882 0.57311 0.0
O245 O 0.15272 0.8062 0.57375 0.0
C246 C 0.17459 0.89053 0.53441 0.0
C247 C 0.0707 0.80484 0.52332 0.0
C248 C 0.20219 0.75796 0.50423 0.0
C249 C 0.08774 0.77016 0.6345 0.0
C250 C 0.18049 0.86447 0.64592 0.0
C251 C 0.21322 0.74073 0.60916 0.0
O252 O 0.14494 0.88968 0.55602 0.0
O253 O 0.08595 0.77257 0.53039 0.0
O254 O 0.22154 0.77799 0.52762 0.0
O255 O 0.08324 0.80544 0.6263 0.0
O256 O 0.20531 0.85843 0.62024 0.0
O257 O 0.18756 0.72731 0.58707 0.0
O258 O 0.14537 0.85876 0.64067 0.0
O259 O 0.10752 0.74798 0.61383 0.0
O260 O 0.21742 0.77613 0.61426 0.0
O261 O 0.07991 0.83498 0.54108 0.0
O262 O 0.19852 0.86335 0.53315 0.0
O263 O 0.16631 0.75481 0.50732 0.0
Sc264 Sc 0.93147 0.70903 0.81762 0.0
Sc265 Sc 0.9464 0.63602 0.75311 0.0
Sc266 Sc 0.91544 0.61474 0.84549 0.0
O267 O 0.93155 0.65308 0.80572 0.0
C268 C 0.96728 0.6754 0.89232 0.0
C269 C 0.00395 0.70138 0.76064 0.0
C270 C 0.98329 0.57118 0.80654 0.0
C271 C 0.89997 0.7129 0.73641 0.0
C272 C 0.85651 0.67955 0.86059 0.0
C273 C 0.87301 0.58618 0.76957 0.0
O274 O 0.96812 0.70046 0.86602 0.0
O275 O 0.99955 0.6657 0.75641 0.0
O276 O 0.96544 0.58104 0.8364 0.0
O277 O 0.89393 0.71974 0.77127 0.0
O278 O 0.86388 0.64446 0.85762 0.0
O279 O 0.89297 0.60662 0.74719 0.0
O280 O 0.88046 0.70561 0.85249 0.0
O281 O 0.92181 0.68612 0.72529 0.0
O282 O 0.88131 0.58199 0.80481 0.0
O283 O 0.98058 0.72123 0.78035 0.0
O284 O 0.94711 0.64507 0.88982 0.0
O285 O 0.97585 0.58537 0.77391 0.0
Sc286 Sc 0.57704 0.30032 0.31923 0.0
Sc287 Sc 0.56114 0.37098 0.25358 0.0
Sc288 Sc 0.58953 0.39372 0.34652 0.0
O289 O 0.57436 0.35555 0.30709 0.0
C290 C 0.53726 0.33108 0.39157 0.0
C291 C 0.50691 0.30463 0.259 0.0
C292 C 0.52272 0.43626 0.30594 0.0
C293 C 0.60876 0.29436 0.24177 0.0
C294 C 0.64889 0.33074 0.36383 0.0
C295 C 0.6328 0.42242 0.27071 0.0
O296 O 0.537 0.30687 0.36452 0.0
O297 O 0.50827 0.34075 0.25678 0.0
O298 O 0.53904 0.42575 0.33641 0.0
O299 O 0.61898 0.29649 0.27606 0.0
O300 O 0.64209 0.36557 0.35816 0.0
O301 O 0.61456 0.40039 0.24835 0.0
O302 O 0.62401 0.30496 0.35866 0.0
O303 O 0.58591 0.31898 0.22785 0.0
O304 O 0.62305 0.42721 0.30558 0.0
O305 O 0.53137 0.28608 0.27859 0.0
O306 O 0.55764 0.36159 0.39048 0.0
O307 O 0.53141 0.42241 0.27331 0.0
Sc308 Sc 0.4301 0.80044 0.18576 0.0
Sc309 Sc 0.44577 0.8721 0.25138 0.0
Sc310 Sc 0.41351 0.894 0.15933 0.0
O311 O 0.43054 0.85595 0.19859 0.0
C312 C 0.46754 0.8343 0.11325 0.0
C313 C 0.49978 0.80471 0.24604 0.0
C314 C 0.48238 0.93705 0.19727 0.0
C315 C 0.39596 0.79647 0.26522 0.0
C316 C 0.35619 0.82906 0.14244 0.0
C317 C 0.37245 0.92289 0.23584 0.0
O318 O 0.46915 0.80962 0.13983 0.0
O319 O 0.49804 0.84073 0.24889 0.0
O320 O 0.46294 0.92787 0.16828 0.0
O321 O 0.39022 0.79172 0.22993 0.0
O322 O 0.362 0.86403 0.14821 0.0
O323 O 0.39341 0.90312 0.25778 0.0
O324 O 0.38174 0.80394 0.1476 0.0
O325 O 0.41837 0.82225 0.27795 0.0
O326 O 0.37934 0.92639 0.20023 0.0
O327 O 0.47615 0.78629 0.22547 0.0
O328 O 0.44572 0.86361 0.11494 0.0
O329 O 0.47708 0.92187 0.23001 0.0
Sc330 Sc 0.07542 0.20811 0.68824 0.0
Sc331 Sc 0.06108 0.13519 0.75225 0.0
Sc332 Sc 0.09038 0.11535 0.65875 0.0
O333 O 0.07473 0.15239 0.6994 0.0
C334 C 0.03631 0.17713 0.61551 0.0
C335 C 0.0059 0.2015 0.74864 0.0
C336 C 0.02355 0.07077 0.69806 0.0
C337 C 0.11046 0.21107 0.76658 0.0
C338 C 0.14826 0.18023 0.64273 0.0
C339 C 0.13328 0.08451 0.73365 0.0
O340 O 0.03543 0.20056 0.64318 0.0
O341 O 0.00831 0.1655 0.75079 0.0
O342 O 0.04086 0.08158 0.66823 0.0
O343 O 0.11664 0.21494 0.73133 0.0
O344 O 0.1421 0.14513 0.64742 0.0
O345 O 0.11398 0.10491 0.75661 0.0
O346 O 0.12294 0.20538 0.64888 0.0
O347 O 0.08782 0.18547 0.77936 0.0
O348 O 0.12481 0.08153 0.69832 0.0
O349 O 0.02979 0.22098 0.72924 0.0
O350 O 0.05765 0.14738 0.61564 0.0
O351 O 0.03038 0.08493 0.73098 0.0
Sc352 Sc 0.84679 0.91748 0.6117 0.0
Sc353 Sc 0.75517 0.94757 0.63587 0.0
Sc354 Sc 0.82207 0.9307 0.70582 0.0
O355 O 0.80831 0.93299 0.65067 0.0
C356 C 0.86495 0.85833 0.674 0.0
C357 C 0.77032 0.87677 0.5825 0.0
C358 C 0.74358 0.89649 0.71104 0.0
C359 C 0.80764 0.98591 0.57048 0.0
C360 C 0.89373 0.96933 0.6728 0.0
C361 C 0.76134 1.00016 0.70361 0.0
O362 O 0.85676 0.86478 0.63967 0.0
O363 O 0.74844 0.89543 0.60458 0.0
O364 O 0.77887 0.88947 0.71301 0.0
O365 O 0.8376 0.96814 0.57997 0.0
O366 O 0.86698 0.97091 0.69733 0.0
O367 O 0.75899 0.99941 0.66752 0.0
O368 O 0.89187 0.94798 0.64311 0.0
O369 O 0.77505 0.97911 0.58548 0.0
O370 O 0.78144 0.97577 0.72163 0.0
O371 O 0.80545 0.88536 0.57812 0.0
O372 O 0.8618 0.88343 0.69993 0.0
O373 O 0.73012 0.91988 0.68654 0.0
Sc374 Sc 0.6855 0.07196 0.20682 0.0
Sc375 Sc 0.75353 0.06086 0.13679 0.0
Sc376 Sc 0.66139 0.09106 0.1134 0.0
O377 O 0.70002 0.07392 0.15183 0.0
C378 C 0.6152 0.03433 0.17073 0.0
C379 C 0.7486 0.00517 0.20257 0.0
C380 C 0.70199 0.02383 0.06997 0.0
C381 C 0.76321 0.10915 0.21418 0.0
C382 C 0.63949 0.14475 0.17947 0.0
C383 C 0.73749 0.13465 0.08709 0.0
O384 O 0.64211 0.03119 0.19486 0.0
O385 O 0.75181 0.00769 0.16664 0.0
O386 O 0.67212 0.04234 0.07855 0.0
O387 O 0.72757 0.11351 0.21816 0.0
O388 O 0.64875 0.14153 0.14483 0.0
O389 O 0.75937 0.11404 0.10724 0.0
O390 O 0.64414 0.11762 0.20302 0.0
O391 O 0.77746 0.088 0.18808 0.0
O392 O 0.70222 0.12676 0.08243 0.0
O393 O 0.72703 0.02772 0.22112 0.0
O394 O 0.61677 0.05761 0.1425 0.0
O395 O 0.7342 0.03027 0.08583 0.0
Sc396 Sc 0.31998 0.57679 0.29909 0.0
Sc397 Sc 0.25589 0.55876 0.37083 0.0
Sc398 Sc 0.34814 0.59065 0.39241 0.0
O399 O 0.30866 0.5742 0.35463 0.0
C400 C 0.39374 0.53912 0.32988 0.0
C401 C 0.26318 0.50401 0.30527 0.0
C402 C 0.30962 0.52324 0.43648 0.0
C403 C 0.24094 0.60544 0.29374 0.0
C404 C 0.36375 0.65005 0.32862 0.0
C405 C 0.27131 0.63223 0.42042 0.0
O406 O 0.36681 0.53879 0.30558 0.0
O407 O 0.26093 0.50581 0.34134 0.0
O408 O 0.33932 0.54067 0.42558 0.0
O409 O 0.27504 0.61663 0.29431 0.0
O410 O 0.35938 0.64287 0.36357 0.0
O411 O 0.2493 0.61221 0.39965 0.0
O412 O 0.35719 0.62568 0.30269 0.0
O413 O 0.22861 0.58215 0.31888 0.0
O414 O 0.30658 0.62406 0.42522 0.0
O415 O 0.28125 0.52919 0.28611 0.0
O416 O 0.39235 0.55898 0.36068 0.0
O417 O 0.27668 0.52992 0.42237 0.0
Sc418 Sc 0.15845 0.41741 0.89323 0.0
Sc419 Sc 0.25182 0.44582 0.87168 0.0
Sc420 Sc 0.1869 0.43164 0.79965 0.0
O421 O 0.19873 0.43234 0.85525 0.0
C422 C 0.14184 0.35875 0.82922 0.0
C423 C 0.23365 0.37432 0.92327 0.0
C424 C 0.26563 0.39712 0.79533 0.0
C425 C 0.19862 0.48479 0.93578 0.0
C426 C 0.1141 0.47055 0.83158 0.0
C427 C 0.24706 0.50147 0.8056 0.0
O428 O 0.14653 0.36542 0.86425 0.0
O429 O 0.25636 0.39294 0.90194 0.0
O430 O 0.23036 0.39096 0.79153 0.0
O431 O 0.16839 0.46761 0.92587 0.0
O432 O 0.14148 0.47125 0.80777 0.0
O433 O 0.25 0.49861 0.84151 0.0
O434 O 0.11471 0.4496 0.8616 0.0
O435 O 0.23132 0.47651 0.92198 0.0
O436 O 0.22735 0.47776 0.7862 0.0
O437 O 0.19852 0.38338 0.92701 0.0
O438 O 0.14825 0.38355 0.80352 0.0
O439 O 0.27848 0.41932 0.8212 0.0
Sc440 Sc 0.61498 0.84787 0.91596 0.0
Sc441 Sc 0.63525 0.75506 0.94757 0.0
Sc442 Sc 0.70799 0.81954 0.9323 0.0
O443 O 0.65228 0.80774 0.93265 0.0
C444 C 0.68034 0.86452 0.85892 0.0
C445 C 0.58533 0.77184 0.8739 0.0
C446 C 0.71057 0.74039 0.89741 0.0
C447 C 0.57062 0.8097 0.98411 0.0
C448 C 0.67603 0.89261 0.96998 0.0
C449 C 0.70234 0.75928 1.00194 0.0
O450 O 0.64523 0.8594 0.86467 0.0
O451 O 0.60455 0.74953 0.89498 0.0
O452 O 0.71625 0.7756 0.89223 0.0
O453 O 0.58065 0.83872 0.96511 0.0
O454 O 0.69959 0.86513 0.97143 0.0
O455 O 0.66629 0.75676 1.00008 0.0
O456 O 0.64616 0.8918 0.94875 0.0
O457 O 0.58533 0.77679 0.97861 0.0
O458 O 0.7211 0.77952 0.97826 0.0
O459 O 0.58225 0.80749 0.88099 0.0
O460 O 0.70537 0.85814 0.88428 0.0
O461 O 0.68499 0.72784 0.92023 0.0
Sc462 Sc 0.20499 0.68769 0.07414 0.0
Sc463 Sc 0.13289 0.75286 0.06121 0.0
Sc464 Sc 0.11223 0.65961 0.09032 0.0
O465 O 0.1495 0.69983 0.07442 0.0
C466 C 0.17282 0.61644 0.03456 0.0
C467 C 0.19946 0.7494 0.00609 0.0
C468 C 0.06792 0.69964 0.02333 0.0
C469 C 0.20898 0.76507 0.11099 0.0
C470 C 0.17752 0.63928 0.14566 0.0
C471 C 0.08222 0.73456 0.13382 0.0
O472 O 0.19604 0.64425 0.03291 0.0
O473 O 0.16346 0.75173 0.00844 0.0
O474 O 0.07805 0.6699 0.04119 0.0
O475 O 0.21271 0.72965 0.11643 0.0
O476 O 0.14266 0.64714 0.14154 0.0
O477 O 0.1023 0.75743 0.11406 0.0
O478 O 0.20184 0.64594 0.11961 0.0
O479 O 0.18341 0.77851 0.08872 0.0
O480 O 0.07932 0.69917 0.12564 0.0
O481 O 0.21868 0.72975 0.02986 0.0
O482 O 0.14358 0.61646 0.05673 0.0
O483 O 0.08259 0.73239 0.02995 0.0
Sc484 Sc 0.30246 0.32146 0.57574 0.0
Sc485 Sc 0.37347 0.25467 0.56368 0.0
Sc486 Sc 0.39633 0.34775 0.59135 0.0
O487 O 0.35782 0.30819 0.57613 0.0
C488 C 0.33623 0.39318 0.53723 0.0
C489 C 0.30751 0.25967 0.50747 0.0
C490 C 0.43847 0.30664 0.52404 0.0
C491 C 0.29633 0.24344 0.61207 0.0
C492 C 0.33173 0.366 0.64871 0.0
C493 C 0.4255 0.27273 0.63513 0.0
O494 O 0.31209 0.36611 0.5354 0.0
O495 O 0.34331 0.25575 0.51075 0.0
O496 O 0.42919 0.33707 0.54124 0.0
O497 O 0.29276 0.27891 0.6171 0.0
O498 O 0.36675 0.35984 0.64308 0.0
O499 O 0.4038 0.25018 0.61677 0.0
O500 O 0.30666 0.36102 0.623 0.0
O501 O 0.32245 0.22959 0.59073 0.0
O502 O 0.42962 0.30767 0.62567 0.0
O503 O 0.28845 0.28053 0.53041 0.0
O504 O 0.36552 0.39185 0.55909 0.0
O505 O 0.42404 0.2742 0.53244 0.0
Sc506 Sc 0.89378 0.16194 0.41697 0.0
Sc507 Sc 0.87147 0.25484 0.44557 0.0
Sc508 Sc 0.80002 0.18846 0.43264 0.0
O509 O 0.85549 0.20154 0.4325 0.0
C510 C 0.82915 0.14398 0.35974 0.0
C511 C 0.92346 0.23704 0.37392 0.0
C512 C 0.79525 0.26691 0.39641 0.0
C513 C 0.93608 0.2023 0.48467 0.0
C514 C 0.83335 0.11655 0.47074 0.0
C515 C 0.80476 0.24962 0.50116 0.0
O516 O 0.86417 0.15014 0.36527 0.0
O517 O 0.90228 0.25962 0.3928 0.0
O518 O 0.79068 0.23147 0.39166 0.0
O519 O 0.92689 0.17212 0.46697 0.0
O520 O 0.80928 0.14361 0.47273 0.0
O521 O 0.84061 0.25364 0.49822 0.0
O522 O 0.86271 0.11795 0.44897 0.0
O523 O 0.9215 0.23478 0.47695 0.0
O524 O 0.7859 0.22897 0.47797 0.0
O525 O 0.92717 0.20196 0.38284 0.0
O526 O 0.80409 0.14906 0.38542 0.0
O527 O 0.82127 0.28038 0.41806 0.0
C528 C 0.18887 0.47082 0.23388 0.0
C529 C 0.17078 0.44057 0.2531 0.0
C530 C 0.22068 0.48942 0.24959 0.0
C531 C 0.23579 0.47855 0.2852 0.0
H532 H 0.17767 0.48111 0.20704 0.0
H533 H 0.2322 0.51376 0.23454 0.0
S534 S 0.20308 0.39713 0.34423 0.0
N535 N 0.17351 0.39771 0.3077 0.0
N536 N 0.23286 0.43283 0.33706 0.0
C537 C 0.21948 0.44688 0.30355 0.0
C538 C 0.18712 0.42793 0.28762 0.0
C539 C 0.28914 0.5179 0.74985 0.0
C540 C 0.27412 0.52764 0.78583 0.0
C541 C 0.32061 0.53743 0.73432 0.0
C542 C 0.33852 0.56744 0.75414 0.0
H543 H 0.27787 0.49369 0.73439 0.0
H544 H 0.33174 0.52798 0.70713 0.0
S545 S 0.30638 0.60772 0.84688 0.0
N546 N 0.27696 0.57192 0.83891 0.0
N547 N 0.33564 0.60859 0.81005 0.0
C548 C 0.32223 0.57885 0.78916 0.0
C549 C 0.29023 0.55902 0.80486 0.0
C550 C 0.68111 0.07066 0.72073 0.0
C551 C 0.6689 0.06269 0.7582 0.0
C552 C 0.71248 0.05213 0.70443 0.0
C553 C 0.73338 0.02451 0.72462 0.0
H554 H 0.66605 0.0912 0.70334 0.0
H555 H 0.71963 0.05881 0.67515 0.0
S556 S 0.71532 0.99467 0.8247 0.0
N557 N 0.68195 0.02659 0.81595 0.0
N558 N 0.74066 0.99145 0.78518 0.0
C559 C 0.72258 0.01723 0.7627 0.0
C560 C 0.69046 0.03628 0.77943 0.0
C561 C 0.82974 0.93572 0.21972 0.0
C562 C 0.84102 0.94315 0.25759 0.0
C563 C 0.79851 0.95417 0.20309 0.0
C564 C 0.77677 0.98101 0.22341 0.0
H565 H 0.84545 0.91572 0.20226 0.0
H566 H 0.79203 0.94799 0.17355 0.0
S567 S 0.79265 0.00974 0.32418 0.0
N568 N 0.82652 0.9783 0.31558 0.0
N569 N 0.76799 0.01315 0.28431 0.0
C570 C 0.78676 0.98786 0.26179 0.0
C571 C 0.81877 0.969 0.2788 0.0
C572 C 0.25071 0.2189 0.49117 0.0
C573 C 0.28716 0.23288 0.48149 0.0
C574 C 0.23434 0.18783 0.4717 0.0
C575 C 0.25379 0.16932 0.44182 0.0
H576 H 0.23547 0.23069 0.51529 0.0
H577 H 0.20682 0.17746 0.48109 0.0
S578 S 0.34758 0.19878 0.40168 0.0
N579 N 0.34032 0.22843 0.43741 0.0
N580 N 0.30994 0.17059 0.4008 0.0
C581 C 0.28933 0.1846 0.43047 0.0
C582 C 0.30586 0.21616 0.45026 0.0
C583 C 0.27231 0.82165 0.9704 0.0
C584 C 0.25301 0.83985 0.94029 0.0
C585 C 0.25591 0.7907 0.99002 0.0
C586 C 0.21955 0.77657 0.98029 0.0
H587 H 0.29977 0.83212 0.97981 0.0
H588 H 0.27111 0.77907 0.01421 0.0
S589 S 0.15957 0.80992 0.89994 0.0
N590 N 0.19713 0.83821 0.89903 0.0
N591 N 0.16665 0.78055 0.93593 0.0
C592 C 0.20097 0.79302 0.94888 0.0
C593 C 0.21756 0.82446 0.92893 0.0
C594 C 0.74802 0.29054 0.51657 0.0
C595 C 0.78404 0.2761 0.52701 0.0
C596 C 0.73145 0.32145 0.53605 0.0
C597 C 0.7503 0.33923 0.56669 0.0
H598 H 0.73338 0.2793 0.49183 0.0
H599 H 0.70438 0.33234 0.52607 0.0
S600 S 0.84239 0.30797 0.60909 0.0
N601 N 0.8359 0.27909 0.57259 0.0
N602 N 0.80508 0.33652 0.60941 0.0
C603 C 0.78525 0.32332 0.57886 0.0
C604 C 0.802 0.29199 0.55901 0.0
C605 C 0.71901 0.67923 0.07297 0.0
C606 C 0.75676 0.66759 0.06552 0.0
C607 C 0.70256 0.71035 0.05408 0.0
C608 C 0.72299 0.73155 0.02679 0.0
H609 H 0.70153 0.66384 0.09324 0.0
H610 H 0.67307 0.71707 0.0602 0.0
S611 S 0.82366 0.71468 0.99813 0.0
N612 N 0.81479 0.68125 0.02999 0.0
N613 N 0.78398 0.7396 0.99454 0.0
C614 C 0.76132 0.72127 0.02008 0.0
C615 C 0.77809 0.68938 0.03931 0.0
C616 C 0.43756 0.28846 0.17753 0.0
C617 C 0.44419 0.2504 0.16646 0.0
C618 C 0.45602 0.30478 0.20893 0.0
C619 C 0.48219 0.28398 0.23105 0.0
H620 H 0.41824 0.30635 0.16148 0.0
H621 H 0.45051 0.3345 0.21509 0.0
S622 S 0.50754 0.18214 0.21663 0.0
N623 N 0.47717 0.19149 0.182 0.0
N624 N 0.51182 0.22208 0.24106 0.0
C625 C 0.48787 0.24531 0.2215 0.0
C626 C 0.46903 0.22863 0.18926 0.0
C627 C 0.97052 0.274 0.82119 0.0
C628 C 0.94173 0.25395 0.84077 0.0
C629 C 0.98946 0.25794 0.78969 0.0
C630 C 0.98024 0.22121 0.77624 0.0
H631 H 0.97948 0.30185 0.83102 0.0
H632 H 0.0128 0.27375 0.77707 0.0
S633 S 0.90263 0.15937 0.81308 0.0
N634 N 0.90188 0.19704 0.84117 0.0
N635 N 0.93731 0.1672 0.78228 0.0
C636 C 0.94989 0.20191 0.79401 0.0
C637 C 0.93074 0.21812 0.82613 0.0
C638 C 0.55116 0.80421 0.29565 0.0
C639 C 0.52456 0.78376 0.27369 0.0
C640 C 0.56979 0.78756 0.32678 0.0
C641 C 0.56294 0.74948 0.33769 0.0
H642 H 0.55687 0.83393 0.28959 0.0
H643 H 0.58942 0.80521 0.34276 0.0
S644 S 0.49786 0.6822 0.28819 0.0
N645 N 0.4937 0.72232 0.26403 0.0
N646 N 0.52907 0.69098 0.32226 0.0
C647 C 0.53765 0.72802 0.31501 0.0
C648 C 0.5185 0.7451 0.28315 0.0
C649 C 0.0456 0.77556 0.69307 0.0
C650 C 0.07 0.7537 0.66982 0.0
C651 C 0.02725 0.75958 0.72508 0.0
C652 C 0.03176 0.72082 0.73471 0.0
H653 H 0.03978 0.80501 0.68601 0.0
H654 H 0.00784 0.77734 0.74115 0.0
S655 S 0.09912 0.6534 0.68875 0.0
N656 N 0.10266 0.69268 0.66323 0.0
N657 N 0.06765 0.66297 0.7223 0.0
C658 C 0.05868 0.69968 0.7138 0.0
C659 C 0.07766 0.71592 0.68157 0.0
C660 C 0.82078 0.53668 0.77345 0.0
C661 C 0.8383 0.56706 0.75383 0.0
C662 C 0.7894 0.51709 0.75792 0.0
C663 C 0.77411 0.52717 0.72217 0.0
H664 H 0.83218 0.52701 0.80043 0.0
H665 H 0.7784 0.49261 0.77317 0.0
S666 S 0.80507 0.6086 0.66215 0.0
N667 N 0.83463 0.60912 0.69869 0.0
N668 N 0.77611 0.57233 0.66976 0.0
C669 C 0.78978 0.55897 0.70344 0.0
C670 C 0.8217 0.57885 0.71915 0.0
C671 C 0.67766 0.43671 0.21662 0.0
C672 C 0.66713 0.44247 0.25501 0.0
C673 C 0.70915 0.45524 0.20037 0.0
C674 C 0.73194 0.48054 0.22158 0.0
H675 H 0.66109 0.41807 0.19845 0.0
H676 H 0.71491 0.45042 0.17043 0.0
S677 S 0.71895 0.50352 0.32426 0.0
N678 N 0.6838 0.47383 0.31454 0.0
N679 N 0.74299 0.50851 0.28412 0.0
C680 C 0.72283 0.48542 0.2605 0.0
C681 C 0.69049 0.46657 0.27709 0.0
C682 C 0.31886 0.97091 0.23305 0.0
C683 C 0.33798 0.94155 0.25261 0.0
C684 C 0.28753 0.98989 0.24942 0.0
C685 C 0.27385 0.98016 0.28596 0.0
H686 H 0.32893 0.98028 0.20542 0.0
H687 H 0.27529 0.0137 0.2341 0.0
S688 S 0.30958 0.90134 0.34662 0.0
N689 N 0.3377 0.90083 0.30891 0.0
N690 N 0.27923 0.93644 0.33931 0.0
C691 C 0.29118 0.94935 0.30477 0.0
C692 C 0.32307 0.93012 0.28825 0.0
C693 C 0.21043 0.05345 0.80339 0.0
C694 C 0.23177 0.02633 0.78302 0.0
C695 C 0.17921 0.07203 0.78697 0.0
C696 C 0.16756 0.06453 0.74923 0.0
H697 H 0.21715 0.05969 0.83286 0.0
H698 H 0.16377 0.09218 0.8045 0.0
S699 S 0.21518 0.99769 0.68236 0.0
N700 N 0.24006 0.99412 0.7221 0.0
N701 N 0.18151 0.02931 0.69115 0.0
C702 C 0.18954 0.03857 0.72787 0.0
C703 C 0.22155 0.01952 0.7447 0.0
C704 C 0.71563 0.8328 0.56833 0.0
C705 C 0.75404 0.84301 0.56222 0.0
C706 C 0.69901 0.8016 0.54978 0.0
C707 C 0.71989 0.77891 0.52414 0.0
H708 H 0.69781 0.84931 0.58734 0.0
H709 H 0.66909 0.79591 0.5549 0.0
S710 S 0.82222 0.79176 0.49943 0.0
N711 N 0.81312 0.82645 0.52982 0.0
N712 N 0.78188 0.76802 0.49479 0.0
C713 C 0.75876 0.78788 0.51869 0.0
C714 C 0.77575 0.81982 0.53764 0.0
C715 C 0.75047 0.2209 0.02164 0.0
C716 C 0.78708 0.23448 0.03128 0.0
C717 C 0.73432 0.18915 0.0401 0.0
C718 C 0.75401 0.16966 0.06911 0.0
H719 H 0.73491 0.23355 0.9982 0.0
H720 H 0.70671 0.17912 0.03063 0.0
S721 S 0.84801 0.19783 0.10944 0.0
N722 N 0.84054 0.22864 0.07475 0.0
N723 N 0.81038 0.16961 0.10973 0.0
C724 C 0.78959 0.18459 0.08069 0.0
C725 C 0.806 0.21679 0.06181 0.0
C726 C 0.25856 0.71683 0.48799 0.0
C727 C 0.22216 0.73084 0.47838 0.0
C728 C 0.27462 0.68552 0.46877 0.0
C729 C 0.25492 0.66681 0.43921 0.0
H730 H 0.274 0.72879 0.51188 0.0
H731 H 0.30214 0.67517 0.47808 0.0
S732 S 0.16118 0.69624 0.39928 0.0
N733 N 0.16878 0.72623 0.43465 0.0
N734 N 0.19863 0.66787 0.39848 0.0
C735 C 0.21944 0.6821 0.42789 0.0
C736 C 0.20321 0.71393 0.44743 0.0
C737 C 0.30377 0.29796 0.95551 0.0
C738 C 0.28342 0.27678 0.98283 0.0
C739 C 0.28721 0.32885 0.93647 0.0
C740 C 0.24935 0.34031 0.94367 0.0
H741 H 0.33332 0.29141 0.94945 0.0
H742 H 0.30476 0.34421 0.91623 0.0
S743 S 0.18241 0.29287 0.01072 0.0
N744 N 0.22232 0.26837 0.0148 0.0
N745 N 0.19115 0.32626 0.97875 0.0
C746 C 0.22801 0.31845 0.9698 0.0
C747 C 0.24497 0.2868 0.98932 0.0
C748 C 0.51831 0.75804 0.78878 0.0
C749 C 0.52848 0.72173 0.77479 0.0
C750 C 0.53712 0.77446 0.82025 0.0
C751 C 0.56685 0.75526 0.83915 0.0
H752 H 0.4944 0.77318 0.7766 0.0
H753 H 0.52738 0.80186 0.83055 0.0
S754 S 0.6083 0.66211 0.80995 0.0
N755 N 0.57295 0.66906 0.77979 0.0
N756 N 0.6084 0.69962 0.83828 0.0
C757 C 0.57872 0.71992 0.82391 0.0
C758 C 0.55958 0.7033 0.79197 0.0
C759 C 0.05065 0.80491 0.21048 0.0
C760 C 0.02484 0.78405 0.23309 0.0
C761 C 0.06895 0.78851 0.17899 0.0
C762 C 0.06254 0.75029 0.16832 0.0
H763 H 0.05597 0.83474 0.21631 0.0
H764 H 0.08797 0.80644 0.16255 0.0
S765 S 1.00023 0.68181 0.2198 0.0
N766 N 0.99586 0.7219 0.24395 0.0
N767 N 0.03018 0.6912 0.18474 0.0
C768 C 0.03809 0.72847 0.1916 0.0
C769 C 0.0194 0.74523 0.22391 0.0
C770 C 0.4578 0.20329 0.71233 0.0
C771 C 0.48535 0.22373 0.73315 0.0
C772 C 0.43867 0.21956 0.68127 0.0
C773 C 0.44598 0.25723 0.66928 0.0
H774 H 0.45164 0.17386 0.71927 0.0
H775 H 0.41829 0.20196 0.66621 0.0
S776 S 0.51352 0.32439 0.71563 0.0
N777 N 0.51756 0.28476 0.7406 0.0
N778 N 0.48139 0.31539 0.68249 0.0
C779 C 0.47233 0.27867 0.69078 0.0
C780 C 0.49194 0.262 0.72258 0.0
C781 C 0.93667 0.29047 0.32815 0.0
C782 C 0.94355 0.25259 0.3396 0.0
C783 C 0.95536 0.30667 0.29676 0.0
C784 C 0.98197 0.28591 0.2751 0.0
H785 H 0.917 0.30828 0.34387 0.0
H786 H 0.94966 0.33628 0.29022 0.0
S787 S 0.00871 0.18468 0.29107 0.0
N788 N 0.9775 0.19392 0.32504 0.0
N789 N 0.01289 0.22445 0.26632 0.0
C790 C 0.98808 0.24745 0.28515 0.0
C791 C 0.96893 0.23085 0.31727 0.0
C792 C 0.15796 0.20278 0.28786 0.0
C793 C 0.1356 0.18822 0.31759 0.0
C794 C 0.1524 0.23963 0.27426 0.0
C795 C 0.12339 0.26314 0.28902 0.0
H796 H 0.17981 0.18538 0.27469 0.0
H797 H 0.16957 0.24892 0.25031 0.0
S798 S 0.06005 0.23961 0.37045 0.0
N799 N 0.0865 0.20111 0.36469 0.0
N800 N 0.07431 0.27022 0.3376 0.0
C801 C 0.10237 0.24979 0.32051 0.0
C802 C 0.10878 0.21226 0.33505 0.0
C803 C 0.374 0.79163 0.83677 0.0
C804 C 0.3825 0.82522 0.81619 0.0
C805 C 0.38169 0.75542 0.82148 0.0
C806 C 0.39781 0.75187 0.78511 0.0
H807 H 0.35968 0.79322 0.86408 0.0
H808 H 0.37332 0.73025 0.83728 0.0
S809 S 0.43138 0.83051 0.7226 0.0
N810 N 0.41265 0.85213 0.75988 0.0
N811 N 0.42621 0.78456 0.73088 0.0
C812 C 0.40866 0.78515 0.76546 0.0
C813 C 0.40125 0.82172 0.78106 0.0
C814 C 0.65461 0.307 0.72207 0.0
C815 C 0.63319 0.32051 0.69132 0.0
C816 C 0.65025 0.26991 0.73523 0.0
C817 C 0.62354 0.24467 0.71898 0.0
H818 H 0.67502 0.32531 0.73628 0.0
H819 H 0.66667 0.26181 0.75993 0.0
S820 S 0.56244 0.26562 0.6353 0.0
N821 N 0.5867 0.3054 0.64229 0.0
N822 N 0.57683 0.23551 0.66851 0.0
C823 C 0.60303 0.25726 0.68688 0.0
C824 C 0.6082 0.29523 0.67278 0.0
C825 C 0.87833 0.7169 0.17138 0.0
C826 C 0.88164 0.68385 0.19419 0.0
C827 C 0.88533 0.75341 0.18642 0.0
C828 C 0.89538 0.75795 0.22481 0.0
H829 H 0.86882 0.71476 0.1421 0.0
H830 H 0.88122 0.77816 0.16847 0.0
S831 S 0.91395 0.68065 0.29487 0.0
N832 N 0.90051 0.65832 0.25582 0.0
N833 N 0.91273 0.72632 0.2841 0.0
C834 C 0.901 0.72505 0.24717 0.0
C835 C 0.89439 0.68817 0.23187 0.0
C836 C 0.27487 0.15244 0.23941 0.0
C837 C 0.28954 0.12334 0.26282 0.0
C838 C 0.28845 0.15809 0.20251 0.0
C839 C 0.31804 0.13569 0.18777 0.0
H840 H 0.25094 0.16954 0.24877 0.0
H841 H 0.27524 0.17991 0.18515 0.0
S842 S 0.3708 0.06006 0.23898 0.0
N843 N 0.3381 0.07432 0.26974 0.0
N844 N 0.36503 0.08657 0.20049 0.0
C845 C 0.33551 0.10888 0.21178 0.0
C846 C 0.32104 0.10242 0.24938 0.0
C847 C 0.23845 0.85727 0.73562 0.0
C848 C 0.22226 0.88491 0.75982 0.0
C849 C 0.22482 0.85148 0.69881 0.0
C850 C 0.19374 0.87229 0.68489 0.0
H851 H 0.2633 0.84123 0.74444 0.0
H852 H 0.23892 0.83056 0.681 0.0
S853 S 0.1376 0.94429 0.73787 0.0
N854 N 0.17132 0.93128 0.76801 0.0
N855 N 0.1444 0.91873 0.69892 0.0
C856 C 0.17522 0.89787 0.70948 0.0
C857 C 0.18969 0.90448 0.74699 0.0
C858 C 0.77276 0.35272 0.76661 0.0
C859 C 0.78773 0.38218 0.74373 0.0
C860 C 0.78591 0.34658 0.80357 0.0
C861 C 0.81537 0.36881 0.8188 0.0
H862 H 0.74893 0.3357 0.75679 0.0
H863 H 0.77256 0.32445 0.82051 0.0
S864 S 0.86893 0.44505 0.76899 0.0
N865 N 0.83651 0.4312 0.73779 0.0
N866 N 0.86261 0.4181 0.80709 0.0
C867 C 0.83313 0.39597 0.79529 0.0
C868 C 0.81911 0.4029 0.75768 0.0
C869 C 0.68819 0.62245 0.25463 0.0
C870 C 0.72623 0.61078 0.25111 0.0
C871 C 0.6724 0.62979 0.29077 0.0
C872 C 0.69411 0.62525 0.32438 0.0
H873 H 0.67117 0.62753 0.22941 0.0
H874 H 0.64355 0.64064 0.29219 0.0
S875 S 0.79298 0.58826 0.33022 0.0
N876 N 0.78368 0.59034 0.28424 0.0
N877 N 0.75395 0.60335 0.35156 0.0
C878 C 0.73126 0.61084 0.32106 0.0
C879 C 0.74733 0.60382 0.28457 0.0
C880 C 0.24034 0.27409 0.15271 0.0
C881 C 0.26422 0.28919 0.12412 0.0
C882 C 0.20329 0.28732 0.1578 0.0
C883 C 0.18894 0.31705 0.13542 0.0
H884 H 0.24953 0.25019 0.16994 0.0
H885 H 0.18564 0.27399 0.17938 0.0
S886 S 0.24113 0.37075 0.06094 0.0
N887 N 0.27174 0.33808 0.07541 0.0
N888 N 0.20225 0.36451 0.08682 0.0
C889 C 0.21326 0.33481 0.10903 0.0
C890 C 0.25097 0.32064 0.10305 0.0
C891 C 0.74758 0.19031 0.91597 0.0
C892 C 0.76826 0.21152 0.88888 0.0
C893 C 0.71042 0.17763 0.90802 0.0
C894 C 0.69317 0.18619 0.87295 0.0
H895 H 0.75885 0.1863 0.9444 0.0
H896 H 0.69444 0.16297 0.93002 0.0
S897 S 0.73873 0.23324 0.7901 0.0
N898 N 0.77125 0.23502 0.824 0.0
N899 N 0.70164 0.21113 0.80896 0.0
C900 C 0.71495 0.20407 0.8446 0.0
C901 C 0.75258 0.21665 0.85256 0.0
C902 C 0.7658 0.77409 0.35408 0.0
C903 C 0.74197 0.78884 0.38283 0.0
C904 C 0.80279 0.78763 0.34892 0.0
C905 C 0.81722 0.81726 0.37149 0.0
H906 H 0.75668 0.75009 0.33693 0.0
H907 H 0.82046 0.77435 0.32735 0.0
S908 S 0.765 0.87013 0.44645 0.0
N909 N 0.73443 0.83743 0.4318 0.0
N910 N 0.80385 0.8643 0.42044 0.0
C911 C 0.79285 0.83478 0.39798 0.0
C912 C 0.75516 0.82034 0.40394 0.0
C913 C 0.30472 0.71873 0.65873 0.0
C914 C 0.31998 0.68938 0.63643 0.0
C915 C 0.2678 0.73187 0.65258 0.0
C916 C 0.24504 0.717 0.62304 0.0
H917 H 0.32164 0.73201 0.68088 0.0
H918 H 0.25794 0.75568 0.66958 0.0
S919 S 0.27053 0.63618 0.55988 0.0
N920 N 0.30851 0.64233 0.587 0.0
N921 N 0.23926 0.66851 0.57376 0.0
C922 C 0.25902 0.68572 0.60222 0.0
C923 C 0.29659 0.67168 0.6092 0.0
C924 C 0.91197 0.80877 0.69251 0.0
C925 C 0.87429 0.81912 0.68462 0.0
C926 C 0.92048 0.77187 0.705 0.0
C927 C 0.89161 0.74467 0.71071 0.0
H928 H 0.93472 0.82951 0.69004 0.0
H929 H 0.94944 0.7653 0.71281 0.0
S930 S 0.78913 0.75686 0.68944 0.0
N931 N 0.80839 0.79857 0.67907 0.0
N932 N 0.82443 0.72959 0.70451 0.0
C933 C 0.85413 0.75417 0.701 0.0
C934 C 0.8455 0.79143 0.68742 0.0
C935 C 0.62971 0.21527 0.17086 0.0
C936 C 0.62608 0.18224 0.19368 0.0
C937 C 0.62266 0.25177 0.18579 0.0
C938 C 0.61225 0.25636 0.22408 0.0
H939 H 0.63951 0.21313 0.14167 0.0
H940 H 0.62698 0.2765 0.16783 0.0
S941 S 0.59249 0.17917 0.29399 0.0
N942 N 0.60641 0.15677 0.25512 0.0
N943 N 0.59402 0.22485 0.28321 0.0
C944 C 0.60627 0.22351 0.24644 0.0
C945 C 0.61295 0.18659 0.23124 0.0
C946 C 0.35235 0.74237 0.27592 0.0
C947 C 0.38255 0.76495 0.28966 0.0
C948 C 0.34676 0.70532 0.28895 0.0
C949 C 0.37033 0.68973 0.31713 0.0
H950 H 0.33447 0.75242 0.25285 0.0
H951 H 0.32414 0.68848 0.27635 0.0
S952 S 0.44867 0.73897 0.36789 0.0
N953 N 0.4336 0.77045 0.33632 0.0
N954 N 0.42142 0.70094 0.36244 0.0
C955 C 0.39812 0.71304 0.33404 0.0
C956 C 0.40452 0.75076 0.32005 0.0
C957 C 0.15274 0.26668 0.77567 0.0
C958 C 0.12341 0.24343 0.79036 0.0
C959 C 0.15797 0.3039 0.78842 0.0
C960 C 0.13501 0.31912 0.81733 0.0
H961 H 0.17032 0.25692 0.75223 0.0
H962 H 0.18001 0.32106 0.77519 0.0
S963 S 0.05915 0.26839 0.87057 0.0
N964 N 0.07385 0.23713 0.83857 0.0
N965 N 0.08545 0.30695 0.86417 0.0
C966 C 0.10809 0.29528 0.83502 0.0
C967 C 0.10198 0.25737 0.82129 0.0
C968 C 0.7238 0.85077 0.80549 0.0
C969 C 0.69319 0.87202 0.81973 0.0
C970 C 0.7369 0.85604 0.7684 0.0
C971 C 0.72089 0.88391 0.74434 0.0
H972 H 0.73795 0.82991 0.82327 0.0
H973 H 0.76134 0.83951 0.75932 0.0
S974 S 0.6372 0.94437 0.76715 0.0
N975 N 0.64419 0.91893 0.80614 0.0
N976 N 0.67043 0.93088 0.73663 0.0
C977 C 0.68876 0.90399 0.75753 0.0
C978 C 0.67465 0.8977 0.79527 0.0
C979 C 0.77107 0.15117 0.27017 0.0
C980 C 0.78666 0.12289 0.24636 0.0
C981 C 0.78517 0.15743 0.30673 0.0
C982 C 0.8161 0.13643 0.32068 0.0
H983 H 0.74623 0.16722 0.26135 0.0
H984 H 0.7714 0.17868 0.3244 0.0
S985 S 0.87087 0.06292 0.26842 0.0
N986 N 0.83702 0.07584 0.23839 0.0
N987 N 0.86479 0.08923 0.30699 0.0
C988 C 0.83416 0.11031 0.29634 0.0
C989 C 0.81923 0.10325 0.25911 0.0
C990 C 0.16966 0.63145 0.21657 0.0
C991 C 0.19097 0.62477 0.183 0.0
C992 C 0.18482 0.62336 0.25282 0.0
C993 C 0.22174 0.60858 0.25646 0.0
H994 H 0.14186 0.64471 0.21499 0.0
H995 H 0.16843 0.63048 0.278 0.0
S996 S 0.28649 0.57997 0.17764 0.0
N997 N 0.24876 0.59775 0.15606 0.0
N998 N 0.27741 0.58343 0.22361 0.0
C999 C 0.24217 0.5995 0.22309 0.0
C1000 C 0.22675 0.60736 0.18649 0.0
C1001 C 0.27489 0.35579 0.73898 0.0
C1002 C 0.28959 0.38448 0.76294 0.0
C1003 C 0.28876 0.35052 0.70214 0.0
C1004 C 0.31873 0.37284 0.688 0.0
H1005 H 0.25079 0.33863 0.7479 0.0
H1006 H 0.27559 0.32894 0.68441 0.0
S1007 S 0.37158 0.44755 0.7406 0.0
N1008 N 0.33845 0.43315 0.77087 0.0
N1009 N 0.36597 0.42153 0.70176 0.0
C1010 C 0.33612 0.39931 0.71248 0.0
C1011 C 0.32133 0.40543 0.75001 0.0
C1012 C 0.79673 0.67718 0.89993 0.0
C1013 C 0.81673 0.69058 0.86784 0.0
C1014 C 0.75949 0.68991 0.90763 0.0
C1015 C 0.74113 0.71558 0.88287 0.0
H1016 H 0.81068 0.65854 0.92017 0.0
H1017 H 0.74633 0.68206 0.93445 0.0
S1018 S 0.77875 0.7523 0.79126 0.0
N1019 N 0.81381 0.72639 0.80877 0.0
N1020 N 0.74359 0.74898 0.82233 0.0
C1021 C 0.75962 0.72575 0.84883 0.0
C1022 C 0.79758 0.71374 0.8416 0.0
C1023 C 0.26528 0.77331 0.15252 0.0
C1024 C 0.24151 0.78856 0.12399 0.0
C1025 C 0.30235 0.78655 0.15776 0.0
C1026 C 0.31686 0.8164 0.13555 0.0
H1027 H 0.25602 0.74922 0.1695 0.0
H1028 H 0.31994 0.77304 0.17923 0.0
S1029 S 0.26489 0.87057 0.06142 0.0
N1030 N 0.23416 0.83784 0.07571 0.0
N1031 N 0.30372 0.86415 0.08724 0.0
C1032 C 0.29259 0.83434 0.10929 0.0
C1033 C 0.25484 0.82021 0.10323 0.0
C1034 C 0.23936 0.23583 0.65298 0.0
C1035 C 0.26341 0.22026 0.62482 0.0
C1036 C 0.20216 0.22278 0.65799 0.0
C1037 C 0.18772 0.19281 0.63591 0.0
H1038 H 0.24855 0.25997 0.66989 0.0
H1039 H 0.18445 0.23651 0.67924 0.0
S1040 S 0.24028 0.13803 0.56252 0.0
N1041 N 0.27101 0.17071 0.57688 0.0
N1042 N 0.20122 0.14475 0.58797 0.0
C1043 C 0.21222 0.17463 0.60995 0.0
C1044 C 0.25012 0.18857 0.60413 0.0
C1045 C 0.7033 0.28941 0.34794 0.0
C1046 C 0.68848 0.31892 0.37038 0.0
C1047 C 0.74023 0.27606 0.35358 0.0
C1048 C 0.76349 0.29088 0.38272 0.0
H1049 H 0.68595 0.27604 0.32616 0.0
H1050 H 0.74967 0.25208 0.33658 0.0
S1051 S 0.73944 0.3722 0.44585 0.0
N1052 N 0.70099 0.36614 0.41937 0.0
N1053 N 0.77031 0.33963 0.43163 0.0
C1054 C 0.75001 0.32241 0.40355 0.0
C1055 C 0.7124 0.33664 0.3971 0.0
C1056 C 0.99644 0.29511 0.07441 0.0
C1057 C 0.01484 0.33041 0.08008 0.0
C1058 C 0.97277 0.28865 0.04289 0.0
C1059 C 0.96623 0.31724 0.01561 0.0
H1060 H 1.00009 0.2721 0.09464 0.0
H1061 H 0.95887 0.2612 0.04045 0.0
S1062 S 0.00843 0.41463 0.01637 0.0
N1063 N 0.02544 0.39417 0.05508 0.0
N1064 N 0.98129 0.3822 0.99586 0.0
C1065 C 0.98508 0.35253 0.02048 0.0
C1066 C 0.00924 0.35906 0.05262 0.0
C1067 C 0.53891 0.71957 0.54461 0.0
C1068 C 0.54017 0.69362 0.51412 0.0
C1069 C 0.51601 0.71274 0.57676 0.0
C1070 C 0.49314 0.67972 0.57988 0.0
H1071 H 0.55666 0.74482 0.54427 0.0
H1072 H 0.51674 0.73347 0.59959 0.0
S1073 S 0.48359 0.60428 0.50621 0.0
N1074 N 0.51453 0.63466 0.48797 0.0
N1075 N 0.47179 0.62186 0.54817 0.0
C1076 C 0.49319 0.65415 0.54895 0.0
C1077 C 0.51655 0.66109 0.51623 0.0
C1078 C 0.48481 0.16198 0.98528 0.0
C1079 C 0.46476 0.19649 0.98999 0.0
C1080 C 0.50979 0.15621 0.9546 0.0
C1081 C 0.51586 0.18461 0.92695 0.0
H1082 H 0.48097 0.1388 0.00529 0.0
H1083 H 0.52391 0.1289 0.9523 0.0
S1084 S 0.47156 0.28094 0.92663 0.0
N1085 N 0.45364 0.26 0.96474 0.0
N1086 N 0.50051 0.24942 0.90721 0.0
C1087 C 0.49662 0.21967 0.93171 0.0
C1088 C 0.47121 0.22555 0.96312 0.0
C1089 C 0.02003 0.84164 0.48872 0.0
C1090 C 0.0426 0.80854 0.49165 0.0
C1091 C 0.99591 0.84787 0.45745 0.0
C1092 C 0.99332 0.82139 0.42745 0.0
H1093 H 0.02129 0.86337 0.51059 0.0
H1094 H 0.97964 0.87405 0.45663 0.0
S1095 S 0.04591 0.72944 0.42151 0.0
N1096 N 0.06023 0.74853 0.46199 0.0
N1097 N 0.0151 0.75991 0.40339 0.0
C1098 C 0.01522 0.78769 0.43038 0.0
C1099 C 0.03969 0.78134 0.46237 0.0
C1100 C 0.07777 0.98991 0.29705 0.0
C1101 C 0.07979 0.01381 0.32941 0.0
C1102 C 0.04622 0.96619 0.29033 0.0
C1103 C 0.0153 0.96508 0.31576 0.0
H1104 H 0.10103 0.98899 0.27677 0.0
H1105 H 0.04669 0.9477 0.26563 0.0
S1106 S 0.0043 0.02423 0.403 0.0
N1107 N 0.04642 0.03634 0.3859 0.0
N1108 N 0.98737 0.99193 0.37333 0.0
C1109 C 0.01626 0.98967 0.34758 0.0
C1110 C 0.04835 0.01392 0.35439 0.0
C1111 C 0.46184 0.04326 0.79034 0.0
C1112 C 0.49308 0.04326 0.8153 0.0
C1113 C 0.4297 0.02052 0.79746 0.0
C1114 C 0.42741 0.99654 0.82975 0.0
H1115 H 0.46162 0.0619 0.76574 0.0
H1116 H 0.40626 0.02219 0.77748 0.0
S1117 S 0.50335 0.98358 0.90227 0.0
N1118 N 0.52092 0.0154 0.87242 0.0
N1119 N 0.46067 0.97282 0.88574 0.0
C1120 C 0.45909 0.99538 0.8543 0.0
C1121 C 0.4918 0.01862 0.84708 0.0
C1122 C 0.54976 0.4965 0.65876 0.0
C1123 C 0.58066 0.49546 0.68423 0.0
C1124 C 0.51795 0.51964 0.66571 0.0
C1125 C 0.51541 0.54266 0.69857 0.0
H1126 H 0.55024 0.47972 0.63287 0.0
H1127 H 0.49533 0.51985 0.64473 0.0
S1128 S 0.58786 0.54996 0.77511 0.0
N1129 N 0.60602 0.51921 0.74455 0.0
N1130 N 0.54629 0.56248 0.75721 0.0
C1131 C 0.54556 0.54127 0.72481 0.0
C1132 C 0.57813 0.51785 0.71771 0.0
C1133 C 0.96403 0.46778 0.22106 0.0
C1134 C 0.99453 0.46651 0.19511 0.0
C1135 C 0.93188 0.4905 0.21409 0.0
C1136 C 0.92884 0.51311 0.18094 0.0
H1137 H 0.96435 0.45016 0.24639 0.0
H1138 H 0.90902 0.48987 0.23483 0.0
S1139 S 1.00238 0.52224 0.10521 0.0
N1140 N 0.0207 0.49176 0.13589 0.0
N1141 N 0.96042 0.53404 0.12279 0.0
C1142 C 0.95975 0.51303 0.15533 0.0
C1143 C 0.99248 0.4899 0.16242 0.0
C1144 C 0.34935 0.05197 0.00932 0.0
C1145 C 0.32273 0.08175 0.01219 0.0
C1146 C 0.34262 0.02029 0.98593 0.0
C1147 C 0.30889 0.01671 0.96432 0.0
H1148 H 0.37599 0.05327 0.02481 0.0
H1149 H 0.36454 0.99864 0.98441 0.0
S1150 S 0.22888 0.08576 0.96279 0.0
N1151 N 0.26022 0.10475 0.99222 0.0
N1152 N 0.24794 0.04533 0.94833 0.0
C1153 C 0.28149 0.04571 0.96766 0.0
C1154 C 0.28834 0.07814 0.99145 0.0
C1155 C 0.79205 0.43445 0.01092 0.0
C1156 C 0.82736 0.42827 0.99259 0.0
C1157 C 0.786 0.46608 0.03476 0.0
C1158 C 0.81502 0.49292 0.04154 0.0
H1159 H 0.76882 0.41449 0.00716 0.0
H1160 H 0.7586 0.4689 0.04871 0.0
S1161 S 0.91255 0.49086 0.99941 0.0
N1162 N 0.89153 0.45248 0.98231 0.0
N1163 N 0.88031 0.51175 0.02645 0.0
C1164 C 0.85025 0.48756 0.0226 0.0
C1165 C 0.85636 0.45538 0.99837 0.0
C1166 C 0.6551 0.55195 0.49843 0.0
C1167 C 0.68111 0.58243 0.49691 0.0
C1168 C 0.66173 0.52012 0.52168 0.0
C1169 C 0.6948 0.51711 0.54431 0.0
H1170 H 0.62905 0.55278 0.48194 0.0
H1171 H 0.64038 0.49781 0.52218 0.0
S1172 S 0.77273 0.58842 0.55021 0.0
N1173 N 0.74212 0.60692 0.51976 0.0
N1174 N 0.75421 0.54723 0.56325 0.0
C1175 C 0.7215 0.54693 0.54251 0.0
C1176 C 0.71473 0.5795 0.51898 0.0
C1177 C 0.15677 0.95553 0.5096 0.0
C1178 C 0.18255 0.92487 0.51038 0.0
C1179 C 0.16359 0.98785 0.48699 0.0
C1180 C 0.19663 0.99119 0.46426 0.0
H1181 H 0.13081 0.95453 0.52629 0.0
H1182 H 0.14242 0.01027 0.48706 0.0
S1183 S 0.27381 0.91943 0.45617 0.0
N1184 N 0.24318 0.90048 0.48642 0.0
N1185 N 0.25563 0.96104 0.44424 0.0
C1186 C 0.22305 0.96114 0.46524 0.0
C1187 C 0.21608 0.92809 0.48809 0.0
C1188 C 0.0135 0.71515 0.93052 0.0
C1189 C 0.991 0.68192 0.92717 0.0
C1190 C 0.03711 0.72148 0.96226 0.0
C1191 C 0.03945 0.69481 0.99208 0.0
H1192 H 0.01342 0.73639 0.90814 0.0
H1193 H 0.05453 0.74697 0.9628 0.0
S1194 S 0.9843 0.60446 0.99916 0.0
N1195 N 0.97126 0.62295 0.95799 0.0
N1196 N 0.01522 0.63484 0.01735 0.0
C1197 C 0.0162 0.66202 0.98974 0.0
C1198 C 0.99217 0.65559 0.95746 0.0
C1199 C 0.51157 0.34948 0.45601 0.0
C1200 C 0.51309 0.32312 0.42583 0.0
C1201 C 0.48837 0.34322 0.488 0.0
C1202 C 0.46568 0.3102 0.49154 0.0
H1203 H 0.52806 0.37554 0.45483 0.0
H1204 H 0.48793 0.36485 0.51001 0.0
S1205 S 0.45951 0.23155 0.42115 0.0
N1206 N 0.49001 0.26191 0.40216 0.0
N1207 N 0.44661 0.25049 0.4622 0.0
C1208 C 0.46745 0.28315 0.46206 0.0
C1209 C 0.49098 0.28954 0.4293 0.0
C1210 C 0.53543 0.78699 0.04251 0.0
C1211 C 0.54201 0.81554 0.01516 0.0
C1212 C 0.51111 0.79324 0.07372 0.0
C1213 C 0.49209 0.82828 0.07898 0.0
H1214 H 0.5498 0.75979 0.04037 0.0
H1215 H 0.50751 0.77031 0.09405 0.0
S1216 S 0.49811 0.91216 0.01474 0.0
N1217 N 0.52607 0.88009 0.99482 0.0
N1218 N 0.48091 0.89165 0.05338 0.0
C1219 C 0.4977 0.85682 0.05139 0.0
C1220 C 0.52246 0.85051 0.01961 0.0
C1221 C 0.98661 0.16572 0.51954 0.0
C1222 C 0.96346 0.19843 0.51686 0.0
C1223 C 0.01023 0.15931 0.55113 0.0
C1224 C 0.01168 0.18519 0.58171 0.0
H1225 H 0.98627 0.14449 0.49714 0.0
H1226 H 0.02711 0.13351 0.55167 0.0
S1227 S 0.95679 0.27573 0.58868 0.0
N1228 N 0.94377 0.25728 0.54747 0.0
N1229 N 0.98794 0.24557 0.60675 0.0
C1230 C 0.98903 0.21843 0.57913 0.0
C1231 C 0.9651 0.22498 0.54679 0.0
C1232 C 0.93027 0.01711 0.71195 0.0
C1233 C 0.92835 0.99322 0.67959 0.0
C1234 C 0.96176 0.04089 0.71866 0.0
C1235 C 0.99268 0.04204 0.69322 0.0
H1236 H 0.90697 0.01802 0.73217 0.0
H1237 H 0.96122 0.05944 0.74332 0.0
S1238 S 0.00388 0.98288 0.60604 0.0
N1239 N 0.96178 0.9707 0.62313 0.0
N1240 N 0.02074 0.01519 0.63572 0.0
C1241 C 0.99183 0.01741 0.66145 0.0
C1242 C 0.9598 0.99313 0.65464 0.0
C1243 C 0.57646 0.9893 0.21083 0.0
C1244 C 0.58025 0.01091 0.17709 0.0
C1245 C 0.54419 0.96672 0.21786 0.0
C1246 C 0.51425 0.96454 0.19139 0.0
H1247 H 0.59875 0.98949 0.23215 0.0
H1248 H 0.54329 0.95007 0.24383 0.0
S1249 S 0.50874 0.01703 0.09937 0.0
N1250 N 0.55022 0.02964 0.11752 0.0
N1251 N 0.48964 0.98755 0.13064 0.0
C1252 C 0.51715 0.98675 0.1579 0.0
C1253 C 0.55004 0.00977 0.15077 0.0
C1254 C 0.48584 0.48373 0.34472 0.0
C1255 C 0.4914 0.46477 0.30966 0.0
C1256 C 0.45486 0.50821 0.35071 0.0
C1257 C 0.42777 0.51483 0.32199 0.0
H1258 H 0.50532 0.47926 0.36822 0.0
H1259 H 0.45177 0.52135 0.37846 0.0
S1260 S 0.43021 0.4742 0.22398 0.0
N1261 N 0.46788 0.45579 0.24517 0.0
N1262 N 0.40982 0.5018 0.2561 0.0
C1263 C 0.43356 0.49698 0.2863 0.0
C1264 C 0.46527 0.47206 0.28021 0.0
C1265 C 0.05096 0.49874 0.85102 0.0
C1266 C 0.08014 0.49507 0.82371 0.0
C1267 C 0.01943 0.52253 0.84476 0.0
C1268 C 0.01539 0.54362 0.81077 0.0
H1269 H 0.05265 0.48356 0.87783 0.0
H1270 H 0.99821 0.52466 0.86708 0.0
S1271 S 0.08308 0.54362 0.72935 0.0
N1272 N 0.10223 0.51422 0.76059 0.0
N1273 N 0.0432 0.55871 0.7491 0.0
C1274 C 0.04391 0.53967 0.78283 0.0
C1275 C 0.07615 0.51557 0.78924 0.0
C1276 C 0.65642 0.95533 0.99882 0.0
C1277 C 0.6842 0.92692 0.99392 0.0
C1278 C 0.663 0.98698 0.02238 0.0
C1279 C 0.69776 0.9919 0.0421 0.0
H1280 H 0.62898 0.95286 0.98494 0.0
H1281 H 0.64018 0.00747 0.02559 0.0
S1282 S 0.78109 0.92698 0.03727 0.0
N1283 N 0.74892 0.90689 0.00951 0.0
N1284 N 0.76095 0.9661 0.0537 0.0
C1285 C 0.72627 0.9643 0.03657 0.0
C1286 C 0.71957 0.93196 0.01263 0.0
C1287 C 0.16106 0.52052 0.98501 0.0
C1288 C 0.19453 0.51709 0.96296 0.0
C1289 C 0.15445 0.55237 0.00821 0.0
C1290 C 0.18089 0.58244 0.01028 0.0
H1291 H 0.13939 0.49854 0.98407 0.0
H1292 H 0.12808 0.55355 0.02423 0.0
S1293 S 0.27365 0.58717 0.9587 0.0
N1294 N 0.25477 0.54632 0.94519 0.0
N1295 N 0.24272 0.60606 0.98864 0.0
C1296 C 0.2149 0.57906 0.98883 0.0
C1297 C 0.22165 0.54647 0.96533 0.0
C1298 C 0.297 0.4293 0.48919 0.0
C1299 C 0.32923 0.42773 0.51329 0.0
C1300 C 0.28986 0.4609 0.46571 0.0
C1301 C 0.31471 0.49229 0.46507 0.0
H1302 H 0.2772 0.40566 0.48793 0.0
H1303 H 0.26535 0.46008 0.44698 0.0
S1304 S 0.40131 0.5045 0.52483 0.0
N1305 N 0.38493 0.46199 0.53648 0.0
N1306 N 0.37154 0.5211 0.4925 0.0
C1307 C 0.34635 0.49176 0.48985 0.0
C1308 C 0.3536 0.45963 0.51384 0.0
C1309 C 0.79538 0.08102 0.52023 0.0
C1310 C 0.8263 0.08192 0.49441 0.0
C1311 C 0.78838 0.04927 0.54355 0.0
C1312 C 0.81211 0.01712 0.54222 0.0
H1313 H 0.7766 0.10532 0.52303 0.0
H1314 H 0.76501 0.05052 0.5637 0.0
S1315 S 0.89455 1.00289 0.47715 0.0
N1316 N 0.87919 0.04617 0.46726 0.0
N1317 N 0.86608 0.98677 0.51096 0.0
C1318 C 0.84229 0.01697 0.51564 0.0
C1319 C 0.84938 0.04923 0.49184 0.0
loop_
_geom_bond_atom_site_label_1
_geom_bond_atom_site_label_2
_geom_bond_distance
_geom_bond_site_symmetry_2
_ccdc_geom_bond_type
Sc0 O3 2.025 . S
Sc0 O10 2.105 . S
Sc0 O13 2.105 . S
Sc0 O16 2.105 . S
Sc0 O19 2.105 . S
Sc1 O3 2.025 . S
Sc1 O11 2.105 . S
Sc1 O15 2.105 . S
Sc1 O17 2.105 . S
Sc1 O21 2.105 1_455 S
Sc2 O3 2.025 . S
Sc2 O12 2.105 1_455 S
Sc2 O14 2.105 . S
Sc2 O18 2.105 . S
Sc2 O20 2.105 1_455 S
O3 Sc0 2.025 . S
O3 Sc1 2.025 . S
O3 Sc2 2.025 . S
C4 O10 1.268 1_655 S
C4 O20 1.268 . S
C5 O11 1.268 1_655 S
C5 O19 1.268 1_655 S
C6 O12 1.268 . S
C6 O21 1.268 . S
C7 O13 1.268 . S
C7 O17 1.268 . S
C8 O14 1.268 . S
C8 O16 1.268 . S
C9 O15 1.268 . S
C9 O18 1.268 . S
O10 Sc0 2.105 . S
O10 C4 1.268 1_455 S
O11 Sc1 2.105 . S
O11 C5 1.268 1_455 S
O12 Sc2 2.105 1_655 S
O12 C6 1.268 . S
O13 Sc0 2.105 . S
O13 C7 1.268 . S
O14 Sc2 2.105 . S
O14 C8 1.268 . S
O15 Sc1 2.105 . S
O15 C9 1.268 . S
O16 Sc0 2.105 . S
O16 C8 1.268 . S
O17 Sc1 2.105 . S
O17 C7 1.268 . S
O18 Sc2 2.105 . S
O18 C9 1.268 . S
O19 Sc0 2.105 . S
O19 C5 1.268 1_455 S
O20 Sc2 2.105 1_655 S
O20 C4 1.268 . S
O21 Sc1 2.105 1_655 S
O21 C6 1.268 . S
Sc22 O25 2.025 . S
Sc22 O32 2.105 . S
Sc22 O35 2.105 . S
Sc22 O38 2.105 . S
Sc22 O41 2.105 . S
Sc23 O25 2.025 . S
Sc23 O33 2.105 . S
Sc23 O37 2.105 . S
Sc23 O39 2.105 . S
Sc23 O43 2.105 . S
Sc24 O25 2.025 . S
Sc24 O34 2.105 . S
Sc24 O36 2.105 . S
Sc24 O40 2.105 . S
Sc24 O42 2.105 . S
O25 Sc22 2.025 . S
O25 Sc23 2.025 . S
O25 Sc24 2.025 . S
C26 O32 1.268 . S
C26 O42 1.268 . S
C27 O33 1.268 . S
C27 O41 1.268 . S
C28 O34 1.268 . S
C28 O43 1.268 . S
C29 O35 1.268 . S
C29 O39 1.268 . S
C30 O36 1.268 . S
C30 O38 1.268 . S
C31 O37 1.268 . S
C31 O40 1.268 . S
O32 Sc22 2.105 . S
O32 C26 1.268 . S
O33 Sc23 2.105 . S
O33 C27 1.268 . S
O34 Sc24 2.105 . S
O34 C28 1.268 . S
O35 Sc22 2.105 . S
O35 C29 1.268 . S
O36 Sc24 2.105 . S
O36 C30 1.268 . S
O37 Sc23 2.105 . S
O37 C31 1.268 . S
O38 Sc22 2.105 . S
O38 C30 1.268 . S
O39 Sc23 2.105 . S
O39 C29 1.268 . S
O40 Sc24 2.105 . S
O40 C31 1.268 . S
O41 Sc22 2.105 . S
O41 C27 1.268 . S
O42 Sc24 2.105 . S
O42 C26 1.268 . S
O43 Sc23 2.105 . S
O43 C28 1.268 . S
Sc44 O47 2.025 . S
Sc44 O54 2.105 . S
Sc44 O57 2.105 . S
Sc44 O60 2.105 . S
Sc44 O63 2.105 . S
Sc45 O47 2.025 . S
Sc45 O55 2.105 . S
Sc45 O59 2.105 . S
Sc45 O61 2.105 . S
Sc45 O65 2.105 . S
Sc46 O47 2.025 . S
Sc46 O56 2.105 . S
Sc46 O58 2.105 . S
Sc46 O62 2.105 . S
Sc46 O64 2.105 . S
O47 Sc44 2.025 . S
O47 Sc45 2.025 . S
O47 Sc46 2.025 . S
C48 O54 1.268 . S
C48 O64 1.268 . S
C49 O55 1.268 . S
C49 O63 1.268 . S
C50 O56 1.268 . S
C50 O65 1.268 . S
C51 O57 1.268 . S
C51 O61 1.268 . S
C52 O58 1.268 . S
C52 O60 1.268 . S
C53 O59 1.268 . S
C53 O62 1.268 . S
O54 Sc44 2.105 . S
O54 C48 1.268 . S
O55 Sc45 2.105 . S
O55 C49 1.268 . S
O56 Sc46 2.105 . S
O56 C50 1.268 . S
O57 Sc44 2.105 . S
O57 C51 1.268 . S
O58 Sc46 2.105 . S
O58 C52 1.268 . S
O59 Sc45 2.105 . S
O59 C53 1.268 . S
O60 Sc44 2.105 . S
O60 C52 1.268 . S
O61 Sc45 2.105 . S
O61 C51 1.268 . S
O62 Sc46 2.105 . S
O62 C53 1.268 . S
O63 Sc44 2.105 . S
O63 C49 1.268 . S
O64 Sc46 2.105 . S
O64 C48 1.268 . S
O65 Sc45 2.105 . S
O65 C50 1.268 . S
Sc66 O69 2.025 . S
Sc66 O76 2.105 . S
Sc66 O79 2.105 1_655 S
Sc66 O82 2.105 1_655 S
Sc66 O85 2.105 . S
Sc67 O69 2.025 . S
Sc67 O77 2.105 . S
Sc67 O81 2.105 . S
Sc67 O83 2.105 1_655 S
Sc67 O87 2.105 . S
Sc68 O69 2.025 . S
Sc68 O78 2.105 . S
Sc68 O80 2.105 . S
Sc68 O84 2.105 . S
Sc68 O86 2.105 . S
O69 Sc66 2.025 . S
O69 Sc67 2.025 . S
O69 Sc68 2.025 . S
C70 O76 1.268 . S
C70 O86 1.268 . S
C71 O77 1.268 . S
C71 O85 1.268 . S
C72 O78 1.268 . S
C72 O87 1.268 . S
C73 O79 1.268 . S
C73 O83 1.268 . S
C74 O80 1.268 1_455 S
C74 O82 1.268 . S
C75 O81 1.268 1_455 S
C75 O84 1.268 1_455 S
O76 Sc66 2.105 . S
O76 C70 1.268 . S
O77 Sc67 2.105 . S
O77 C71 1.268 . S
O78 Sc68 2.105 . S
O78 C72 1.268 . S
O79 Sc66 2.105 1_455 S
O79 C73 1.268 . S
O80 Sc68 2.105 . S
O80 C74 1.268 1_655 S
O81 Sc67 2.105 . S
O81 C75 1.268 1_655 S
O82 Sc66 2.105 1_455 S
O82 C74 1.268 . S
O83 Sc67 2.105 1_455 S
O83 C73 1.268 . S
O84 Sc68 2.105 . S
O84 C75 1.268 1_655 S
O85 Sc66 2.105 . S
O85 C71 1.268 . S
O86 Sc68 2.105 . S
O86 C70 1.268 . S
O87 Sc67 2.105 . S
O87 C72 1.268 . S
Sc88 O91 2.025 . S
Sc88 O98 2.105 . S
Sc88 O101 2.105 . S
Sc88 O104 2.105 . S
Sc88 O107 2.105 . S
Sc89 O91 2.025 . S
Sc89 O99 2.105 . S
Sc89 O103 2.105 . S
Sc89 O105 2.105 . S
Sc89 O109 2.105 1_545 S
Sc90 O91 2.025 . S
Sc90 O100 2.105 1_545 S
Sc90 O102 2.105 . S
Sc90 O106 2.105 . S
Sc90 O108 2.105 1_545 S
O91 Sc88 2.025 . S
O91 Sc89 2.025 . S
O91 Sc90 2.025 . S
C92 O98 1.268 1_565 S
C92 O108 1.268 . S
C93 O99 1.268 1_565 S
C93 O107 1.268 1_565 S
C94 O100 1.268 . S
C94 O109 1.268 . S
C95 O101 1.268 . S
C95 O105 1.268 . S
C96 O102 1.268 . S
C96 O104 1.268 . S
C97 O103 1.268 . S
C97 O106 1.268 . S
O98 Sc88 2.105 . S
O98 C92 1.268 1_545 S
O99 Sc89 2.105 . S
O99 C93 1.268 1_545 S
O100 Sc90 2.105 1_565 S
O100 C94 1.268 . S
O101 Sc88 2.105 . S
O101 C95 1.268 . S
O102 Sc90 2.105 . S
O102 C96 1.268 . S
O103 Sc89 2.105 . S
O103 C97 1.268 . S
O104 Sc88 2.105 . S
O104 C96 1.268 . S
O105 Sc89 2.105 . S
O105 C95 1.268 . S
O106 Sc90 2.105 . S
O106 C97 1.268 . S
O107 Sc88 2.105 . S
O107 C93 1.268 1_545 S
O108 Sc90 2.105 1_565 S
O108 C92 1.268 . S
O109 Sc89 2.105 1_565 S
O109 C94 1.268 . S
Sc110 O113 2.025 . S
Sc110 O120 2.105 . S
Sc110 O123 2.105 1_565 S
Sc110 O126 2.105 1_565 S
Sc110 O129 2.105 . S
Sc111 O113 2.025 . S
Sc111 O121 2.105 . S
Sc111 O125 2.105 . S
Sc111 O127 2.105 1_565 S
Sc111 O131 2.105 . S
Sc112 O113 2.025 . S
Sc112 O122 2.105 . S
Sc112 O124 2.105 . S
Sc112 O128 2.105 . S
Sc112 O130 2.105 . S
O113 Sc110 2.025 . S
O113 Sc111 2.025 . S
O113 Sc112 2.025 . S
C114 O120 1.268 . S
C114 O130 1.268 . S
C115 O121 1.268 . S
C115 O129 1.268 . S
C116 O122 1.268 . S
C116 O131 1.268 . S
C117 O123 1.268 . S
C117 O127 1.268 . S
C118 O124 1.268 1_545 S
C118 O126 1.268 . S
C119 O125 1.268 1_545 S
C119 O128 1.268 1_545 S
O120 Sc110 2.105 . S
O120 C114 1.268 . S
O121 Sc111 2.105 . S
O121 C115 1.268 . S
O122 Sc112 2.105 . S
O122 C116 1.268 . S
O123 Sc110 2.105 1_545 S
O123 C117 1.268 . S
O124 Sc112 2.105 . S
O124 C118 1.268 1_565 S
O125 Sc111 2.105 . S
O125 C119 1.268 1_565 S
O126 Sc110 2.105 1_545 S
O126 C118 1.268 . S
O127 Sc111 2.105 1_545 S
O127 C117 1.268 . S
O128 Sc112 2.105 . S
O128 C119 1.268 1_565 S
O129 Sc110 2.105 . S
O129 C115 1.268 . S
O130 Sc112 2.105 . S
O130 C114 1.268 . S
O131 Sc111 2.105 . S
O131 C116 1.268 . S
Sc132 O135 2.025 . S
Sc132 O142 2.105 . S
Sc132 O145 2.105 . S
Sc132 O148 2.105 . S
Sc132 O151 2.105 . S
Sc133 O135 2.025 . S
Sc133 O143 2.105 . S
Sc133 O147 2.105 . S
Sc133 O149 2.105 . S
Sc133 O153 2.105 . S
Sc134 O135 2.025 . S
Sc134 O144 2.105 . S
Sc134 O146 2.105 . S
Sc134 O150 2.105 . S
Sc134 O152 2.105 . S
O135 Sc132 2.025 . S
O135 Sc133 2.025 . S
O135 Sc134 2.025 . S
C136 O142 1.268 . S
C136 O152 1.268 . S
C137 O143 1.268 . S
C137 O151 1.268 . S
C138 O144 1.268 . S
C138 O153 1.268 . S
C139 O145 1.268 . S
C139 O149 1.268 . S
C140 O146 1.268 . S
C140 O148 1.268 . S
C141 O147 1.268 . S
C141 O150 1.268 . S
O142 Sc132 2.105 . S
O142 C136 1.268 . S
O143 Sc133 2.105 . S
O143 C137 1.268 . S
O144 Sc134 2.105 . S
O144 C138 1.268 . S
O145 Sc132 2.105 . S
O145 C139 1.268 . S
O146 Sc134 2.105 . S
O146 C140 1.268 . S
O147 Sc133 2.105 . S
O147 C141 1.268 . S
O148 Sc132 2.105 . S
O148 C140 1.268 . S
O149 Sc133 2.105 . S
O149 C139 1.268 . S
O150 Sc134 2.105 . S
O150 C141 1.268 . S
O151 Sc132 2.105 . S
O151 C137 1.268 . S
O152 Sc134 2.105 . S
O152 C136 1.268 . S
O153 Sc133 2.105 . S
O153 C138 1.268 . S
Sc154 O157 2.025 . S
Sc154 O164 2.105 . S
Sc154 O167 2.105 . S
Sc154 O170 2.105 . S
Sc154 O173 2.105 . S
Sc155 O157 2.025 . S
Sc155 O165 2.105 . S
Sc155 O169 2.105 . S
Sc155 O171 2.105 . S
Sc155 O175 2.105 . S
Sc156 O157 2.025 . S
Sc156 O166 2.105 . S
Sc156 O168 2.105 . S
Sc156 O172 2.105 . S
Sc156 O174 2.105 . S
O157 Sc154 2.025 . S
O157 Sc155 2.025 . S
O157 Sc156 2.025 . S
C158 O164 1.268 . S
C158 O174 1.268 . S
C159 O165 1.268 . S
C159 O173 1.268 . S
C160 O166 1.268 . S
C160 O175 1.268 . S
C161 O167 1.268 . S
C161 O171 1.268 . S
C162 O168 1.268 . S
C162 O170 1.268 . S
C163 O169 1.268 . S
C163 O172 1.268 . S
O164 Sc154 2.105 . S
O164 C158 1.268 . S
O165 Sc155 2.105 . S
O165 C159 1.268 . S
O166 Sc156 2.105 . S
O166 C160 1.268 . S
O167 Sc154 2.105 . S
O167 C161 1.268 . S
O168 Sc156 2.105 . S
O168 C162 1.268 . S
O169 Sc155 2.105 . S
O169 C163 1.268 . S
O170 Sc154 2.105 . S
O170 C162 1.268 . S
O171 Sc155 2.105 . S
O171 C161 1.268 . S
O172 Sc156 2.105 . S
O172 C163 1.268 . S
O173 Sc154 2.105 . S
O173 C159 1.268 . S
O174 Sc156 2.105 . S
O174 C158 1.268 . S
O175 Sc155 2.105 . S
O175 C160 1.268 . S
Sc176 O179 2.025 . S
Sc176 O186 2.105 . S
Sc176 O189 2.105 . S
Sc176 O192 2.105 . S
Sc176 O195 2.105 . S
Sc177 O179 2.025 . S
Sc177 O187 2.105 . S
Sc177 O191 2.105 . S
Sc177 O193 2.105 . S
Sc177 O197 2.105 1_554 S
Sc178 O179 2.025 . S
Sc178 O188 2.105 1_554 S
Sc178 O190 2.105 . S
Sc178 O194 2.105 . S
Sc178 O196 2.105 1_554 S
O179 Sc176 2.025 . S
O179 Sc177 2.025 . S
O179 Sc178 2.025 . S
C180 O186 1.268 1_556 S
C180 O196 1.268 . S
C181 O187 1.268 1_556 S
C181 O195 1.268 1_556 S
C182 O188 1.268 . S
C182 O197 1.268 . S
C183 O189 1.268 . S
C183 O193 1.268 . S
C184 O190 1.268 . S
C184 O192 1.268 . S
C185 O191 1.268 . S
C185 O194 1.268 . S
O186 Sc176 2.105 . S
O186 C180 1.268 1_554 S
O187 Sc177 2.105 . S
O187 C181 1.268 1_554 S
O188 Sc178 2.105 1_556 S
O188 C182 1.268 . S
O189 Sc176 2.105 . S
O189 C183 1.268 . S
O190 Sc178 2.105 . S
O190 C184 1.268 . S
O191 Sc177 2.105 . S
O191 C185 1.268 . S
O192 Sc176 2.105 . S
O192 C184 1.268 . S
O193 Sc177 2.105 . S
O193 C183 1.268 . S
O194 Sc178 2.105 . S
O194 C185 1.268 . S
O195 Sc176 2.105 . S
O195 C181 1.268 1_554 S
O196 Sc178 2.105 1_556 S
O196 C180 1.268 . S
O197 Sc177 2.105 1_556 S
O197 C182 1.268 . S
Sc198 O201 2.025 . S
Sc198 O208 2.105 . S
Sc198 O211 2.105 1_556 S
Sc198 O214 2.105 1_556 S
Sc198 O217 2.105 . S
Sc199 O201 2.025 . S
Sc199 O209 2.105 . S
Sc199 O213 2.105 . S
Sc199 O215 2.105 1_556 S
Sc199 O219 2.105 . S
Sc200 O201 2.025 . S
Sc200 O210 2.105 . S
Sc200 O212 2.105 . S
Sc200 O216 2.105 . S
Sc200 O218 2.105 . S
O201 Sc198 2.025 . S
O201 Sc199 2.025 . S
O201 Sc200 2.025 . S
C202 O208 1.268 . S
C202 O218 1.268 . S
C203 O209 1.268 . S
C203 O217 1.268 . S
C204 O210 1.268 . S
C204 O219 1.268 . S
C205 O211 1.268 . S
C205 O215 1.268 . S
C206 O212 1.268 1_554 S
C206 O214 1.268 . S
C207 O213 1.268 1_554 S
C207 O216 1.268 1_554 S
O208 Sc198 2.105 . S
O208 C202 1.268 . S
O209 Sc199 2.105 . S
O209 C203 1.268 . S
O210 Sc200 2.105 . S
O210 C204 1.268 . S
O211 Sc198 2.105 1_554 S
O211 C205 1.268 . S
O212 Sc200 2.105 . S
O212 C206 1.268 1_556 S
O213 Sc199 2.105 . S
O213 C207 1.268 1_556 S
O214 Sc198 2.105 1_554 S
O214 C206 1.268 . S
O215 Sc199 2.105 1_554 S
O215 C205 1.268 . S
O216 Sc200 2.105 . S
O216 C207 1.268 1_556 S
O217 Sc198 2.105 . S
O217 C203 1.268 . S
O218 Sc200 2.105 . S
O218 C202 1.268 . S
O219 Sc199 2.105 . S
O219 C204 1.268 . S
Sc220 O223 2.025 . S
Sc220 O230 2.105 . S
Sc220 O233 2.105 . S
Sc220 O236 2.105 . S
Sc220 O239 2.105 . S
Sc221 O223 2.025 . S
Sc221 O231 2.105 . S
Sc221 O235 2.105 . S
Sc221 O237 2.105 . S
Sc221 O241 2.105 . S
Sc222 O223 2.025 . S
Sc222 O232 2.105 . S
Sc222 O234 2.105 . S
Sc222 O238 2.105 . S
Sc222 O240 2.105 . S
O223 Sc220 2.025 . S
O223 Sc221 2.025 . S
O223 Sc222 2.025 . S
C224 O230 1.268 . S
C224 O240 1.268 . S
C225 O231 1.268 . S
C225 O239 1.268 . S
C226 O232 1.268 . S
C226 O241 1.268 . S
C227 O233 1.268 . S
C227 O237 1.268 . S
C228 O234 1.268 . S
C228 O236 1.268 . S
C229 O235 1.268 . S
C229 O238 1.268 . S
O230 Sc220 2.105 . S
O230 C224 1.268 . S
O231 Sc221 2.105 . S
O231 C225 1.268 . S
O232 Sc222 2.105 . S
O232 C226 1.268 . S
O233 Sc220 2.105 . S
O233 C227 1.268 . S
O234 Sc222 2.105 . S
O234 C228 1.268 . S
O235 Sc221 2.105 . S
O235 C229 1.268 . S
O236 Sc220 2.105 . S
O236 C228 1.268 . S
O237 Sc221 2.105 . S
O237 C227 1.268 . S
O238 Sc222 2.105 . S
O238 C229 1.268 . S
O239 Sc220 2.105 . S
O239 C225 1.268 . S
O240 Sc222 2.105 . S
O240 C224 1.268 . S
O241 Sc221 2.105 . S
O241 C226 1.268 . S
Sc242 O245 2.025 . S
Sc242 O252 2.105 . S
Sc242 O255 2.105 . S
Sc242 O258 2.105 . S
Sc242 O261 2.105 . S
Sc243 O245 2.025 . S
Sc243 O253 2.105 . S
Sc243 O257 2.105 . S
Sc243 O259 2.105 . S
Sc243 O263 2.105 . S
Sc244 O245 2.025 . S
Sc244 O254 2.105 . S
Sc244 O256 2.105 . S
Sc244 O260 2.105 . S
Sc244 O262 2.105 . S
O245 Sc242 2.025 . S
O245 Sc243 2.025 . S
O245 Sc244 2.025 . S
C246 O252 1.268 . S
C246 O262 1.268 . S
C247 O253 1.268 . S
C247 O261 1.268 . S
C248 O254 1.268 . S
C248 O263 1.268 . S
C249 O255 1.268 . S
C249 O259 1.268 . S
C250 O256 1.268 . S
C250 O258 1.268 . S
C251 O257 1.268 . S
C251 O260 1.268 . S
O252 Sc242 2.105 . S
O252 C246 1.268 . S
O253 Sc243 2.105 . S
O253 C247 1.268 . S
O254 Sc244 2.105 . S
O254 C248 1.268 . S
O255 Sc242 2.105 . S
O255 C249 1.268 . S
O256 Sc244 2.105 . S
O256 C250 1.268 . S
O257 Sc243 2.105 . S
O257 C251 1.268 . S
O258 Sc242 2.105 . S
O258 C250 1.268 . S
O259 Sc243 2.105 . S
O259 C249 1.268 . S
O260 Sc244 2.105 . S
O260 C251 1.268 . S
O261 Sc242 2.105 . S
O261 C247 1.268 . S
O262 Sc244 2.105 . S
O262 C246 1.268 . S
O263 Sc243 2.105 . S
O263 C248 1.268 . S
Sc264 O267 2.025 . S
Sc264 O274 2.105 1_655 S
Sc264 O277 2.105 . S
Sc264 O280 2.105 . S
Sc264 O283 2.105 1_655 S
Sc265 O267 2.025 . S
Sc265 O275 2.105 1_655 S
Sc265 O279 2.105 . S
Sc265 O281 2.105 . S
Sc265 O285 2.105 . S
Sc266 O267 2.025 . S
Sc266 O276 2.105 . S
Sc266 O278 2.105 . S
Sc266 O282 2.105 . S
Sc266 O284 2.105 . S
O267 Sc264 2.025 . S
O267 Sc265 2.025 . S
O267 Sc266 2.025 . S
C268 O274 1.268 . S
C268 O284 1.268 1_455 S
C269 O275 1.268 . S
C269 O283 1.268 . S
C270 O276 1.268 1_455 S
C270 O285 1.268 1_455 S
C271 O277 1.268 . S
C271 O281 1.268 . S
C272 O278 1.268 . S
C272 O280 1.268 . S
C273 O279 1.268 . S
C273 O282 1.268 . S
O274 Sc264 2.105 1_455 S
O274 C268 1.268 . S
O275 Sc265 2.105 1_455 S
O275 C269 1.268 . S
O276 Sc266 2.105 . S
O276 C270 1.268 1_655 S
O277 Sc264 2.105 . S
O277 C271 1.268 . S
O278 Sc266 2.105 . S
O278 C272 1.268 . S
O279 Sc265 2.105 . S
O279 C273 1.268 . S
O280 Sc264 2.105 . S
O280 C272 1.268 . S
O281 Sc265 2.105 . S
O281 C271 1.268 . S
O282 Sc266 2.105 . S
O282 C273 1.268 . S
O283 Sc264 2.105 1_455 S
O283 C269 1.268 . S
O284 Sc266 2.105 . S
O284 C268 1.268 1_655 S
O285 Sc265 2.105 . S
O285 C270 1.268 1_655 S
Sc286 O289 2.025 . S
Sc286 O296 2.105 . S
Sc286 O299 2.105 . S
Sc286 O302 2.105 . S
Sc286 O305 2.105 . S
Sc287 O289 2.025 . S
Sc287 O297 2.105 . S
Sc287 O301 2.105 . S
Sc287 O303 2.105 . S
Sc287 O307 2.105 . S
Sc288 O289 2.025 . S
Sc288 O298 2.105 . S
Sc288 O300 2.105 . S
Sc288 O304 2.105 . S
Sc288 O306 2.105 . S
O289 Sc286 2.025 . S
O289 Sc287 2.025 . S
O289 Sc288 2.025 . S
C290 O296 1.268 . S
C290 O306 1.268 . S
C291 O297 1.268 . S
C291 O305 1.268 . S
C292 O298 1.268 . S
C292 O307 1.268 . S
C293 O299 1.268 . S
C293 O303 1.268 . S
C294 O300 1.268 . S
C294 O302 1.268 . S
C295 O301 1.268 . S
C295 O304 1.268 . S
O296 Sc286 2.105 . S
O296 C290 1.268 . S
O297 Sc287 2.105 . S
O297 C291 1.268 . S
O298 Sc288 2.105 . S
O298 C292 1.268 . S
O299 Sc286 2.105 . S
O299 C293 1.268 . S
O300 Sc288 2.105 . S
O300 C294 1.268 . S
O301 Sc287 2.105 . S
O301 C295 1.268 . S
O302 Sc286 2.105 . S
O302 C294 1.268 . S
O303 Sc287 2.105 . S
O303 C293 1.268 . S
O304 Sc288 2.105 . S
O304 C295 1.268 . S
O305 Sc286 2.105 . S
O305 C291 1.268 . S
O306 Sc288 2.105 . S
O306 C290 1.268 . S
O307 Sc287 2.105 . S
O307 C292 1.268 . S
Sc308 O311 2.025 . S
Sc308 O318 2.105 . S
Sc308 O321 2.105 . S
Sc308 O324 2.105 . S
Sc308 O327 2.105 . S
Sc309 O311 2.025 . S
Sc309 O319 2.105 . S
Sc309 O323 2.105 . S
Sc309 O325 2.105 . S
Sc309 O329 2.105 . S
Sc310 O311 2.025 . S
Sc310 O320 2.105 . S
Sc310 O322 2.105 . S
Sc310 O326 2.105 . S
Sc310 O328 2.105 . S
O311 Sc308 2.025 . S
O311 Sc309 2.025 . S
O311 Sc310 2.025 . S
C312 O318 1.268 . S
C312 O328 1.268 . S
C313 O319 1.268 . S
C313 O327 1.268 . S
C314 O320 1.268 . S
C314 O329 1.268 . S
C315 O321 1.268 . S
C315 O325 1.268 . S
C316 O322 1.268 . S
C316 O324 1.268 . S
C317 O323 1.268 . S
C317 O326 1.268 . S
O318 Sc308 2.105 . S
O318 C312 1.268 . S
O319 Sc309 2.105 . S
O319 C313 1.268 . S
O320 Sc310 2.105 . S
O320 C314 1.268 . S
O321 Sc308 2.105 . S
O321 C315 1.268 . S
O322 Sc310 2.105 . S
O322 C316 1.268 . S
O323 Sc309 2.105 . S
O323 C317 1.268 . S
O324 Sc308 2.105 . S
O324 C316 1.268 . S
O325 Sc309 2.105 . S
O325 C315 1.268 . S
O326 Sc310 2.105 . S
O326 C317 1.268 . S
O327 Sc308 2.105 . S
O327 C313 1.268 . S
O328 Sc310 2.105 . S
O328 C312 1.268 . S
O329 Sc309 2.105 . S
O329 C314 1.268 . S
Sc330 O333 2.025 . S
Sc330 O340 2.105 1_455 S
Sc330 O343 2.105 . S
Sc330 O346 2.105 . S
Sc330 O349 2.105 1_455 S
Sc331 O333 2.025 . S
Sc331 O341 2.105 1_455 S
Sc331 O345 2.105 . S
Sc331 O347 2.105 . S
Sc331 O351 2.105 . S
Sc332 O333 2.025 . S
Sc332 O342 2.105 . S
Sc332 O344 2.105 . S
Sc332 O348 2.105 . S
Sc332 O350 2.105 . S
O333 Sc330 2.025 . S
O333 Sc331 2.025 . S
O333 Sc332 2.025 . S
C334 O340 1.268 . S
C334 O350 1.268 1_655 S
C335 O341 1.268 . S
C335 O349 1.268 . S
C336 O342 1.268 1_655 S
C336 O351 1.268 1_655 S
C337 O343 1.268 . S
C337 O347 1.268 . S
C338 O344 1.268 . S
C338 O346 1.268 . S
C339 O345 1.268 . S
C339 O348 1.268 . S
O340 Sc330 2.105 1_655 S
O340 C334 1.268 . S
O341 Sc331 2.105 1_655 S
O341 C335 1.268 . S
O342 Sc332 2.105 . S
O342 C336 1.268 1_455 S
O343 Sc330 2.105 . S
O343 C337 1.268 . S
O344 Sc332 2.105 . S
O344 C338 1.268 . S
O345 Sc331 2.105 . S
O345 C339 1.268 . S
O346 Sc330 2.105 . S
O346 C338 1.268 . S
O347 Sc331 2.105 . S
O347 C337 1.268 . S
O348 Sc332 2.105 . S
O348 C339 1.268 . S
O349 Sc330 2.105 1_655 S
O349 C335 1.268 . S
O350 Sc332 2.105 . S
O350 C334 1.268 1_455 S
O351 Sc331 2.105 . S
O351 C336 1.268 1_455 S
Sc352 O355 2.025 . S
Sc352 O362 2.105 . S
Sc352 O365 2.105 . S
Sc352 O368 2.105 . S
Sc352 O371 2.105 . S
Sc353 O355 2.025 . S
Sc353 O363 2.105 . S
Sc353 O367 2.105 1_565 S
Sc353 O369 2.105 . S
Sc353 O373 2.105 . S
Sc354 O355 2.025 . S
Sc354 O364 2.105 . S
Sc354 O366 2.105 1_565 S
Sc354 O370 2.105 1_565 S
Sc354 O372 2.105 . S
O355 Sc352 2.025 . S
O355 Sc353 2.025 . S
O355 Sc354 2.025 . S
C356 O362 1.268 . S
C356 O372 1.268 . S
C357 O363 1.268 . S
C357 O371 1.268 . S
C358 O364 1.268 . S
C358 O373 1.268 . S
C359 O365 1.268 1_545 S
C359 O369 1.268 1_545 S
C360 O366 1.268 . S
C360 O368 1.268 1_545 S
C361 O367 1.268 . S
C361 O370 1.268 . S
O362 Sc352 2.105 . S
O362 C356 1.268 . S
O363 Sc353 2.105 . S
O363 C357 1.268 . S
O364 Sc354 2.105 . S
O364 C358 1.268 . S
O365 Sc352 2.105 . S
O365 C359 1.268 1_565 S
O366 Sc354 2.105 1_545 S
O366 C360 1.268 . S
O367 Sc353 2.105 1_545 S
O367 C361 1.268 . S
O368 Sc352 2.105 . S
O368 C360 1.268 1_565 S
O369 Sc353 2.105 . S
O369 C359 1.268 1_565 S
O370 Sc354 2.105 1_545 S
O370 C361 1.268 . S
O371 Sc352 2.105 . S
O371 C357 1.268 . S
O372 Sc354 2.105 . S
O372 C356 1.268 . S
O373 Sc353 2.105 . S
O373 C358 1.268 . S
Sc374 O377 2.025 . S
Sc374 O384 2.105 1_545 S
Sc374 O387 2.105 . S
Sc374 O390 2.105 . S
Sc374 O393 2.105 1_545 S
Sc375 O377 2.025 . S
Sc375 O385 2.105 1_545 S
Sc375 O389 2.105 . S
Sc375 O391 2.105 . S
Sc375 O395 2.105 . S
Sc376 O377 2.025 . S
Sc376 O386 2.105 . S
Sc376 O388 2.105 . S
Sc376 O392 2.105 . S
Sc376 O394 2.105 . S
O377 Sc374 2.025 . S
O377 Sc375 2.025 . S
O377 Sc376 2.025 . S
C378 O384 1.268 . S
C378 O394 1.268 1_565 S
C379 O385 1.268 . S
C379 O393 1.268 . S
C380 O386 1.268 1_565 S
C380 O395 1.268 1_565 S
C381 O387 1.268 . S
C381 O391 1.268 . S
C382 O388 1.268 . S
C382 O390 1.268 . S
C383 O389 1.268 . S
C383 O392 1.268 . S
O384 Sc374 2.105 1_565 S
O384 C378 1.268 . S
O385 Sc375 2.105 1_565 S
O385 C379 1.268 . S
O386 Sc376 2.105 . S
O386 C380 1.268 1_545 S
O387 Sc374 2.105 . S
O387 C381 1.268 . S
O388 Sc376 2.105 . S
O388 C382 1.268 . S
O389 Sc375 2.105 . S
O389 C383 1.268 . S
O390 Sc374 2.105 . S
O390 C382 1.268 . S
O391 Sc375 2.105 . S
O391 C381 1.268 . S
O392 Sc376 2.105 . S
O392 C383 1.268 . S
O393 Sc374 2.105 1_565 S
O393 C379 1.268 . S
O394 Sc376 2.105 . S
O394 C378 1.268 1_545 S
O395 Sc375 2.105 . S
O395 C380 1.268 1_545 S
Sc396 O399 2.025 . S
Sc396 O406 2.105 . S
Sc396 O409 2.105 . S
Sc396 O412 2.105 . S
Sc396 O415 2.105 . S
Sc397 O399 2.025 . S
Sc397 O407 2.105 . S
Sc397 O411 2.105 . S
Sc397 O413 2.105 . S
Sc397 O417 2.105 . S
Sc398 O399 2.025 . S
Sc398 O408 2.105 . S
Sc398 O410 2.105 . S
Sc398 O414 2.105 . S
Sc398 O416 2.105 . S
O399 Sc396 2.025 . S
O399 Sc397 2.025 . S
O399 Sc398 2.025 . S
C400 O406 1.268 . S
C400 O416 1.268 . S
C401 O407 1.268 . S
C401 O415 1.268 . S
C402 O408 1.268 . S
C402 O417 1.268 . S
C403 O409 1.268 . S
C403 O413 1.268 . S
C404 O410 1.268 . S
C404 O412 1.268 . S
C405 O411 1.268 . S
C405 O414 1.268 . S
O406 Sc396 2.105 . S
O406 C400 1.268 . S
O407 Sc397 2.105 . S
O407 C401 1.268 . S
O408 Sc398 2.105 . S
O408 C402 1.268 . S
O409 Sc396 2.105 . S
O409 C403 1.268 . S
O410 Sc398 2.105 . S
O410 C404 1.268 . S
O411 Sc397 2.105 . S
O411 C405 1.268 . S
O412 Sc396 2.105 . S
O412 C404 1.268 . S
O413 Sc397 2.105 . S
O413 C403 1.268 . S
O414 Sc398 2.105 . S
O414 C405 1.268 . S
O415 Sc396 2.105 . S
O415 C401 1.268 . S
O416 Sc398 2.105 . S
O416 C400 1.268 . S
O417 Sc397 2.105 . S
O417 C402 1.268 . S
Sc418 O421 2.025 . S
Sc418 O428 2.105 . S
Sc418 O431 2.105 . S
Sc418 O434 2.105 . S
Sc418 O437 2.105 . S
Sc419 O421 2.025 . S
Sc419 O429 2.105 . S
Sc419 O433 2.105 . S
Sc419 O435 2.105 . S
Sc419 O439 2.105 . S
Sc420 O421 2.025 . S
Sc420 O430 2.105 . S
Sc420 O432 2.105 . S
Sc420 O436 2.105 . S
Sc420 O438 2.105 . S
O421 Sc418 2.025 . S
O421 Sc419 2.025 . S
O421 Sc420 2.025 . S
C422 O428 1.268 . S
C422 O438 1.268 . S
C423 O429 1.268 . S
C423 O437 1.268 . S
C424 O430 1.268 . S
C424 O439 1.268 . S
C425 O431 1.268 . S
C425 O435 1.268 . S
C426 O432 1.268 . S
C426 O434 1.268 . S
C427 O433 1.268 . S
C427 O436 1.268 . S
O428 Sc418 2.105 . S
O428 C422 1.268 . S
O429 Sc419 2.105 . S
O429 C423 1.268 . S
O430 Sc420 2.105 . S
O430 C424 1.268 . S
O431 Sc418 2.105 . S
O431 C425 1.268 . S
O432 Sc420 2.105 . S
O432 C426 1.268 . S
O433 Sc419 2.105 . S
O433 C427 1.268 . S
O434 Sc418 2.105 . S
O434 C426 1.268 . S
O435 Sc419 2.105 . S
O435 C425 1.268 . S
O436 Sc420 2.105 . S
O436 C427 1.268 . S
O437 Sc418 2.105 . S
O437 C423 1.268 . S
O438 Sc420 2.105 . S
O438 C422 1.268 . S
O439 Sc419 2.105 . S
O439 C424 1.268 . S
Sc440 O443 2.025 . S
Sc440 O450 2.105 . S
Sc440 O453 2.105 . S
Sc440 O456 2.105 . S
Sc440 O459 2.105 . S
Sc441 O443 2.025 . S
Sc441 O451 2.105 . S
Sc441 O455 2.105 1_556 S
Sc441 O457 2.105 . S
Sc441 O461 2.105 . S
Sc442 O443 2.025 . S
Sc442 O452 2.105 . S
Sc442 O454 2.105 1_556 S
Sc442 O458 2.105 1_556 S
Sc442 O460 2.105 . S
O443 Sc440 2.025 . S
O443 Sc441 2.025 . S
O443 Sc442 2.025 . S
C444 O450 1.268 . S
C444 O460 1.268 . S
C445 O451 1.268 . S
C445 O459 1.268 . S
C446 O452 1.268 . S
C446 O461 1.268 . S
C447 O453 1.268 1_554 S
C447 O457 1.268 1_554 S
C448 O454 1.268 . S
C448 O456 1.268 1_554 S
C449 O455 1.268 . S
C449 O458 1.268 . S
O450 Sc440 2.105 . S
O450 C444 1.268 . S
O451 Sc441 2.105 . S
O451 C445 1.268 . S
O452 Sc442 2.105 . S
O452 C446 1.268 . S
O453 Sc440 2.105 . S
O453 C447 1.268 1_556 S
O454 Sc442 2.105 1_554 S
O454 C448 1.268 . S
O455 Sc441 2.105 1_554 S
O455 C449 1.268 . S
O456 Sc440 2.105 . S
O456 C448 1.268 1_556 S
O457 Sc441 2.105 . S
O457 C447 1.268 1_556 S
O458 Sc442 2.105 1_554 S
O458 C449 1.268 . S
O459 Sc440 2.105 . S
O459 C445 1.268 . S
O460 Sc442 2.105 . S
O460 C444 1.268 . S
O461 Sc441 2.105 . S
O461 C446 1.268 . S
Sc462 O465 2.025 . S
Sc462 O472 2.105 1_554 S
Sc462 O475 2.105 . S
Sc462 O478 2.105 . S
Sc462 O481 2.105 1_554 S
Sc463 O465 2.025 . S
Sc463 O473 2.105 1_554 S
Sc463 O477 2.105 . S
Sc463 O479 2.105 . S
Sc463 O483 2.105 . S
Sc464 O465 2.025 . S
Sc464 O474 2.105 . S
Sc464 O476 2.105 . S
Sc464 O480 2.105 . S
Sc464 O482 2.105 . S
O465 Sc462 2.025 . S
O465 Sc463 2.025 . S
O465 Sc464 2.025 . S
C466 O472 1.268 . S
C466 O482 1.268 1_556 S
C467 O473 1.268 . S
C467 O481 1.268 . S
C468 O474 1.268 1_556 S
C468 O483 1.268 1_556 S
C469 O475 1.268 . S
C469 O479 1.268 . S
C470 O476 1.268 . S
C470 O478 1.268 . S
C471 O477 1.268 . S
C471 O480 1.268 . S
O472 Sc462 2.105 1_556 S
O472 C466 1.268 . S
O473 Sc463 2.105 1_556 S
O473 C467 1.268 . S
O474 Sc464 2.105 . S
O474 C468 1.268 1_554 S
O475 Sc462 2.105 . S
O475 C469 1.268 . S
O476 Sc464 2.105 . S
O476 C470 1.268 . S
O477 Sc463 2.105 . S
O477 C471 1.268 . S
O478 Sc462 2.105 . S
O478 C470 1.268 . S
O479 Sc463 2.105 . S
O479 C469 1.268 . S
O480 Sc464 2.105 . S
O480 C471 1.268 . S
O481 Sc462 2.105 1_556 S
O481 C467 1.268 . S
O482 Sc464 2.105 . S
O482 C466 1.268 1_554 S
O483 Sc463 2.105 . S
O483 C468 1.268 1_554 S
Sc484 O487 2.025 . S
Sc484 O494 2.105 . S
Sc484 O497 2.105 . S
Sc484 O500 2.105 . S
Sc484 O503 2.105 . S
Sc485 O487 2.025 . S
Sc485 O495 2.105 . S
Sc485 O499 2.105 . S
Sc485 O501 2.105 . S
Sc485 O505 2.105 . S
Sc486 O487 2.025 . S
Sc486 O496 2.105 . S
Sc486 O498 2.105 . S
Sc486 O502 2.105 . S
Sc486 O504 2.105 . S
O487 Sc484 2.025 . S
O487 Sc485 2.025 . S
O487 Sc486 2.025 . S
C488 O494 1.268 . S
C488 O504 1.268 . S
C489 O495 1.268 . S
C489 O503 1.268 . S
C490 O496 1.268 . S
C490 O505 1.268 . S
C491 O497 1.268 . S
C491 O501 1.268 . S
C492 O498 1.268 . S
C492 O500 1.268 . S
C493 O499 1.268 . S
C493 O502 1.268 . S
O494 Sc484 2.105 . S
O494 C488 1.268 . S
O495 Sc485 2.105 . S
O495 C489 1.268 . S
O496 Sc486 2.105 . S
O496 C490 1.268 . S
O497 Sc484 2.105 . S
O497 C491 1.268 . S
O498 Sc486 2.105 . S
O498 C492 1.268 . S
O499 Sc485 2.105 . S
O499 C493 1.268 . S
O500 Sc484 2.105 . S
O500 C492 1.268 . S
O501 Sc485 2.105 . S
O501 C491 1.268 . S
O502 Sc486 2.105 . S
O502 C493 1.268 . S
O503 Sc484 2.105 . S
O503 C489 1.268 . S
O504 Sc486 2.105 . S
O504 C488 1.268 . S
O505 Sc485 2.105 . S
O505 C490 1.268 . S
Sc506 O509 2.025 . S
Sc506 O516 2.105 . S
Sc506 O519 2.105 . S
Sc506 O522 2.105 . S
Sc506 O525 2.105 . S
Sc507 O509 2.025 . S
Sc507 O517 2.105 . S
Sc507 O521 2.105 . S
Sc507 O523 2.105 . S
Sc507 O527 2.105 . S
Sc508 O509 2.025 . S
Sc508 O518 2.105 . S
Sc508 O520 2.105 . S
Sc508 O524 2.105 . S
Sc508 O526 2.105 . S
O509 Sc506 2.025 . S
O509 Sc507 2.025 . S
O509 Sc508 2.025 . S
C510 O516 1.268 . S
C510 O526 1.268 . S
C511 O517 1.268 . S
C511 O525 1.268 . S
C512 O518 1.268 . S
C512 O527 1.268 . S
C513 O519 1.268 . S
C513 O523 1.268 . S
C514 O520 1.268 . S
C514 O522 1.268 . S
C515 O521 1.268 . S
C515 O524 1.268 . S
O516 Sc506 2.105 . S
O516 C510 1.268 . S
O517 Sc507 2.105 . S
O517 C511 1.268 . S
O518 Sc508 2.105 . S
O518 C512 1.268 . S
O519 Sc506 2.105 . S
O519 C513 1.268 . S
O520 Sc508 2.105 . S
O520 C514 1.268 . S
O521 Sc507 2.105 . S
O521 C515 1.268 . S
O522 Sc506 2.105 . S
O522 C514 1.268 . S
O523 Sc507 2.105 . S
O523 C513 1.268 . S
O524 Sc508 2.105 . S
O524 C515 1.268 . S
O525 Sc506 2.105 . S
O525 C511 1.268 . S
O526 Sc508 2.105 . S
O526 C510 1.268 . S
O527 Sc507 2.105 . S
O527 C512 1.268 . S
C528 C529 1.369 . S
C528 C530 1.419 . S
C528 H532 0.930 . S
C529 C528 1.369 . S
C529 C538 1.429 . S
C530 C528 1.419 . S
C530 C531 1.363 . S
C530 H533 0.929 . S
C531 C530 1.363 . S
C531 C537 1.428 . S
H532 C528 0.930 . S
H533 C530 0.929 . S
S534 N535 1.613 . S
S534 N536 1.610 . S
N535 S534 1.613 . S
N535 C538 1.350 . S
N536 S534 1.610 . S
N536 C537 1.351 . S
C537 C531 1.428 . S
C537 N536 1.351 . S
C537 C538 1.434 . S
C538 C529 1.429 . S
C538 N535 1.350 . S
C538 C537 1.434 . S
C539 C540 1.369 . S
C539 C541 1.419 . S
C539 H543 0.930 . S
C540 C539 1.369 . S
C540 C549 1.429 . S
C541 C539 1.419 . S
C541 C542 1.363 . S
C541 H544 0.929 . S
C542 C541 1.363 . S
C542 C548 1.428 . S
H543 C539 0.930 . S
H544 C541 0.929 . S
S545 N546 1.613 . S
S545 N547 1.610 . S
N546 S545 1.613 . S
N546 C549 1.350 . S
N547 S545 1.610 . S
N547 C548 1.351 . S
C548 C542 1.428 . S
C548 N547 1.351 . S
C548 C549 1.434 . S
C549 C540 1.429 . S
C549 N546 1.350 . S
C549 C548 1.434 . S
C550 C551 1.369 . S
C550 C552 1.419 . S
C550 H554 0.930 . S
C551 C550 1.369 . S
C551 C560 1.429 . S
C552 C550 1.419 . S
C552 C553 1.363 . S
C552 H555 0.929 . S
C553 C552 1.363 . S
C553 C559 1.428 . S
H554 C550 0.930 . S
H555 C552 0.929 . S
S556 N557 1.613 . S
S556 N558 1.610 . S
N557 S556 1.613 . S
N557 C560 1.350 . S
N558 S556 1.610 . S
N558 C559 1.351 . S
C559 C553 1.428 . S
C559 N558 1.351 . S
C559 C560 1.434 . S
C560 C551 1.429 . S
C560 N557 1.350 . S
C560 C559 1.434 . S
C561 C562 1.369 . S
C561 C563 1.419 . S
C561 H565 0.930 . S
C562 C561 1.369 . S
C562 C571 1.429 . S
C563 C561 1.419 . S
C563 C564 1.363 . S
C563 H566 0.929 . S
C564 C563 1.363 . S
C564 C570 1.428 . S
H565 C561 0.930 . S
H566 C563 0.929 . S
S567 N568 1.613 . S
S567 N569 1.610 . S
N568 S567 1.613 . S
N568 C571 1.350 . S
N569 S567 1.610 . S
N569 C570 1.351 . S
C570 C564 1.428 . S
C570 N569 1.351 . S
C570 C571 1.434 . S
C571 C562 1.429 . S
C571 N568 1.350 . S
C571 C570 1.434 . S
C572 C573 1.369 . S
C572 C574 1.419 . S
C572 H576 0.930 . S
C573 C572 1.369 . S
C573 C582 1.429 . S
C574 C572 1.419 . S
C574 C575 1.363 . S
C574 H577 0.929 . S
C575 C574 1.363 . S
C575 C581 1.428 . S
H576 C572 0.930 . S
H577 C574 0.929 . S
S578 N579 1.613 . S
S578 N580 1.610 . S
N579 S578 1.613 . S
N579 C582 1.350 . S
N580 S578 1.610 . S
N580 C581 1.351 . S
C581 C575 1.428 . S
C581 N580 1.351 . S
C581 C582 1.434 . S
C582 C573 1.429 . S
C582 N579 1.350 . S
C582 C581 1.434 . S
C583 C584 1.369 . S
C583 C585 1.419 . S
C583 H587 0.930 . S
C584 C583 1.369 . S
C584 C593 1.429 . S
C585 C583 1.419 . S
C585 C586 1.363 . S
C585 H588 0.929 . S
C586 C585 1.363 . S
C586 C592 1.428 . S
H587 C583 0.930 . S
H588 C585 0.929 . S
S589 N590 1.613 . S
S589 N591 1.610 . S
N590 S589 1.613 . S
N590 C593 1.350 . S
N591 S589 1.610 . S
N591 C592 1.351 . S
C592 C586 1.428 . S
C592 N591 1.351 . S
C592 C593 1.434 . S
C593 C584 1.429 . S
C593 N590 1.350 . S
C593 C592 1.434 . S
C594 C595 1.369 . S
C594 C596 1.419 . S
C594 H598 0.930 . S
C595 C594 1.369 . S
C595 C604 1.429 . S
C596 C594 1.419 . S
C596 C597 1.363 . S
C596 H599 0.929 . S
C597 C596 1.363 . S
C597 C603 1.428 . S
H598 C594 0.930 . S
H599 C596 0.929 . S
S600 N601 1.613 . S
S600 N602 1.610 . S
N601 S600 1.613 . S
N601 C604 1.350 . S
N602 S600 1.610 . S
N602 C603 1.351 . S
C603 C597 1.428 . S
C603 N602 1.351 . S
C603 C604 1.434 . S
C604 C595 1.429 . S
C604 N601 1.350 . S
C604 C603 1.434 . S
C605 C606 1.369 . S
C605 C607 1.419 . S
C605 H609 0.930 . S
C606 C605 1.369 . S
C606 C615 1.429 . S
C607 C605 1.419 . S
C607 C608 1.363 . S
C607 H610 0.929 . S
C608 C607 1.363 . S
C608 C614 1.428 . S
H609 C605 0.930 . S
H610 C607 0.929 . S
S611 N612 1.613 . S
S611 N613 1.610 . S
N612 S611 1.613 . S
N612 C615 1.350 . S
N613 S611 1.610 . S
N613 C614 1.351 . S
C614 C608 1.428 . S
C614 N613 1.351 . S
C614 C615 1.434 . S
C615 C606 1.429 . S
C615 N612 1.350 . S
C615 C614 1.434 . S
C616 C617 1.369 . S
C616 C618 1.419 . S
C616 H620 0.930 . S
C617 C616 1.369 . S
C617 C626 1.429 . S
C618 C616 1.419 . S
C618 C619 1.363 . S
C618 H621 0.929 . S
C619 C618 1.363 . S
C619 C625 1.428 . S
H620 C616 0.930 . S
H621 C618 0.929 . S
S622 N623 1.613 . S
S622 N624 1.610 . S
N623 S622 1.613 . S
N623 C626 1.350 . S
N624 S622 1.610 . S
N624 C625 1.351 . S
C625 C619 1.428 . S
C625 N624 1.351 . S
C625 C626 1.434 . S
C626 C617 1.429 . S
C626 N623 1.350 . S
C626 C625 1.434 . S
C627 C628 1.369 . S
C627 C629 1.419 . S
C627 H631 0.930 . S
C628 C627 1.369 . S
C628 C637 1.429 . S
C629 C627 1.419 . S
C629 C630 1.363 . S
C629 H632 0.929 . S
C630 C629 1.363 . S
C630 C636 1.428 . S
H631 C627 0.930 . S
H632 C629 0.929 . S
S633 N634 1.613 . S
S633 N635 1.610 . S
N634 S633 1.613 . S
N634 C637 1.350 . S
N635 S633 1.610 . S
N635 C636 1.351 . S
C636 C630 1.428 . S
C636 N635 1.351 . S
C636 C637 1.434 . S
C637 C628 1.429 . S
C637 N634 1.350 . S
C637 C636 1.434 . S
C638 C639 1.369 . S
C638 C640 1.419 . S
C638 H642 0.930 . S
C639 C638 1.369 . S
C639 C648 1.429 . S
C640 C638 1.419 . S
C640 C641 1.363 . S
C640 H643 0.929 . S
C641 C640 1.363 . S
C641 C647 1.428 . S
H642 C638 0.930 . S
H643 C640 0.929 . S
S644 N645 1.613 . S
S644 N646 1.610 . S
N645 S644 1.613 . S
N645 C648 1.350 . S
N646 S644 1.610 . S
N646 C647 1.351 . S
C647 C641 1.428 . S
C647 N646 1.351 . S
C647 C648 1.434 . S
C648 C639 1.429 . S
C648 N645 1.350 . S
C648 C647 1.434 . S
C649 C650 1.369 . S
C649 C651 1.419 . S
C649 H653 0.930 . S
C650 C649 1.369 . S
C650 C659 1.429 . S
C651 C649 1.419 . S
C651 C652 1.363 . S
C651 H654 0.929 . S
C652 C651 1.363 . S
C652 C658 1.428 . S
H653 C649 0.930 . S
H654 C651 0.929 . S
S655 N656 1.613 . S
S655 N657 1.610 . S
N656 S655 1.613 . S
N656 C659 1.350 . S
N657 S655 1.610 . S
N657 C658 1.351 . S
C658 C652 1.428 . S
C658 N657 1.351 . S
C658 C659 1.434 . S
C659 C650 1.429 . S
C659 N656 1.350 . S
C659 C658 1.434 . S
C660 C661 1.369 . S
C660 C662 1.419 . S
C660 H664 0.930 . S
C661 C660 1.369 . S
C661 C670 1.429 . S
C662 C660 1.419 . S
C662 C663 1.363 . S
C662 H665 0.929 . S
C663 C662 1.363 . S
C663 C669 1.428 . S
H664 C660 0.930 . S
H665 C662 0.929 . S
S666 N667 1.613 . S
S666 N668 1.610 . S
N667 S666 1.613 . S
N667 C670 1.350 . S
N668 S666 1.610 . S
N668 C669 1.351 . S
C669 C663 1.428 . S
C669 N668 1.351 . S
C669 C670 1.434 . S
C670 C661 1.429 . S
C670 N667 1.350 . S
C670 C669 1.434 . S
C671 C672 1.369 . S
C671 C673 1.419 . S
C671 H675 0.930 . S
C672 C671 1.369 . S
C672 C681 1.429 . S
C673 C671 1.419 . S
C673 C674 1.363 . S
C673 H676 0.929 . S
C674 C673 1.363 . S
C674 C680 1.428 . S
H675 C671 0.930 . S
H676 C673 0.929 . S
S677 N678 1.613 . S
S677 N679 1.610 . S
N678 S677 1.613 . S
N678 C681 1.350 . S
N679 S677 1.610 . S
N679 C680 1.351 . S
C680 C674 1.428 . S
C680 N679 1.351 . S
C680 C681 1.434 . S
C681 C672 1.429 . S
C681 N678 1.350 . S
C681 C680 1.434 . S
C682 C683 1.369 . S
C682 C684 1.419 . S
C682 H686 0.930 . S
C683 C682 1.369 . S
C683 C692 1.429 . S
C684 C682 1.419 . S
C684 C685 1.363 . S
C684 H687 0.929 . S
C685 C684 1.363 . S
C685 C691 1.428 . S
H686 C682 0.930 . S
H687 C684 0.929 . S
S688 N689 1.613 . S
S688 N690 1.610 . S
N689 S688 1.613 . S
N689 C692 1.350 . S
N690 S688 1.610 . S
N690 C691 1.351 . S
C691 C685 1.428 . S
C691 N690 1.351 . S
C691 C692 1.434 . S
C692 C683 1.429 . S
C692 N689 1.350 . S
C692 C691 1.434 . S
C693 C694 1.369 . S
C693 C695 1.419 . S
C693 H697 0.930 . S
C694 C693 1.369 . S
C694 C703 1.429 . S
C695 C693 1.419 . S
C695 C696 1.363 . S
C695 H698 0.929 . S
C696 C695 1.363 . S
C696 C702 1.428 . S
H697 C693 0.930 . S
H698 C695 0.929 . S
S699 N700 1.613 . S
S699 N701 1.610 . S
N700 S699 1.613 . S
N700 C703 1.350 . S
N701 S699 1.610 . S
N701 C702 1.351 . S
C702 C696 1.428 . S
C702 N701 1.351 . S
C702 C703 1.434 . S
C703 C694 1.429 . S
C703 N700 1.350 . S
C703 C702 1.434 . S
C704 C705 1.369 . S
C704 C706 1.419 . S
C704 H708 0.930 . S
C705 C704 1.369 . S
C705 C714 1.429 . S
C706 C704 1.419 . S
C706 C707 1.363 . S
C706 H709 0.929 . S
C707 C706 1.363 . S
C707 C713 1.428 . S
H708 C704 0.930 . S
H709 C706 0.929 . S
S710 N711 1.613 . S
S710 N712 1.610 . S
N711 S710 1.613 . S
N711 C714 1.350 . S
N712 S710 1.610 . S
N712 C713 1.351 . S
C713 C707 1.428 . S
C713 N712 1.351 . S
C713 C714 1.434 . S
C714 C705 1.429 . S
C714 N711 1.350 . S
C714 C713 1.434 . S
C715 C716 1.369 . S
C715 C717 1.419 . S
C715 H719 0.930 . S
C716 C715 1.369 . S
C716 C725 1.429 . S
C717 C715 1.419 . S
C717 C718 1.363 . S
C717 H720 0.929 . S
C718 C717 1.363 . S
C718 C724 1.428 . S
H719 C715 0.930 . S
H720 C717 0.929 . S
S721 N722 1.613 . S
S721 N723 1.610 . S
N722 S721 1.613 . S
N722 C725 1.350 . S
N723 S721 1.610 . S
N723 C724 1.351 . S
C724 C718 1.428 . S
C724 N723 1.351 . S
C724 C725 1.434 . S
C725 C716 1.429 . S
C725 N722 1.350 . S
C725 C724 1.434 . S
C726 C727 1.369 . S
C726 C728 1.419 . S
C726 H730 0.930 . S
C727 C726 1.369 . S
C727 C736 1.429 . S
C728 C726 1.419 . S
C728 C729 1.363 . S
C728 H731 0.929 . S
C729 C728 1.363 . S
C729 C735 1.428 . S
H730 C726 0.930 . S
H731 C728 0.929 . S
S732 N733 1.613 . S
S732 N734 1.610 . S
N733 S732 1.613 . S
N733 C736 1.350 . S
N734 S732 1.610 . S
N734 C735 1.351 . S
C735 C729 1.428 . S
C735 N734 1.351 . S
C735 C736 1.434 . S
C736 C727 1.429 . S
C736 N733 1.350 . S
C736 C735 1.434 . S
C737 C738 1.369 . S
C737 C739 1.419 . S
C737 H741 0.930 . S
C738 C737 1.369 . S
C738 C747 1.429 . S
C739 C737 1.419 . S
C739 C740 1.363 . S
C739 H742 0.929 . S
C740 C739 1.363 . S
C740 C746 1.428 . S
H741 C737 0.930 . S
H742 C739 0.929 . S
S743 N744 1.613 . S
S743 N745 1.610 . S
N744 S743 1.613 . S
N744 C747 1.350 . S
N745 S743 1.610 . S
N745 C746 1.351 . S
C746 C740 1.428 . S
C746 N745 1.351 . S
C746 C747 1.434 . S
C747 C738 1.429 . S
C747 N744 1.350 . S
C747 C746 1.434 . S
C748 C749 1.369 . S
C748 C750 1.419 . S
C748 H752 0.930 . S
C749 C748 1.369 . S
C749 C758 1.429 . S
C750 C748 1.419 . S
C750 C751 1.363 . S
C750 H753 0.929 . S
C751 C750 1.363 . S
C751 C757 1.428 . S
H752 C748 0.930 . S
H753 C750 0.929 . S
S754 N755 1.613 . S
S754 N756 1.610 . S
N755 S754 1.613 . S
N755 C758 1.350 . S
N756 S754 1.610 . S
N756 C757 1.351 . S
C757 C751 1.428 . S
C757 N756 1.351 . S
C757 C758 1.434 . S
C758 C749 1.429 . S
C758 N755 1.350 . S
C758 C757 1.434 . S
C759 C760 1.369 . S
C759 C761 1.419 . S
C759 H763 0.930 . S
C760 C759 1.369 . S
C760 C769 1.429 . S
C761 C759 1.419 . S
C761 C762 1.363 . S
C761 H764 0.929 . S
C762 C761 1.363 . S
C762 C768 1.428 . S
H763 C759 0.930 . S
H764 C761 0.929 . S
S765 N766 1.613 . S
S765 N767 1.610 . S
N766 S765 1.613 . S
N766 C769 1.350 . S
N767 S765 1.610 . S
N767 C768 1.351 . S
C768 C762 1.428 . S
C768 N767 1.351 . S
C768 C769 1.434 . S
C769 C760 1.429 . S
C769 N766 1.350 . S
C769 C768 1.434 . S
C770 C771 1.369 . S
C770 C772 1.419 . S
C770 H774 0.930 . S
C771 C770 1.369 . S
C771 C780 1.429 . S
C772 C770 1.419 . S
C772 C773 1.363 . S
C772 H775 0.929 . S
C773 C772 1.363 . S
C773 C779 1.428 . S
H774 C770 0.930 . S
H775 C772 0.929 . S
S776 N777 1.613 . S
S776 N778 1.610 . S
N777 S776 1.613 . S
N777 C780 1.350 . S
N778 S776 1.610 . S
N778 C779 1.351 . S
C779 C773 1.428 . S
C779 N778 1.351 . S
C779 C780 1.434 . S
C780 C771 1.429 . S
C780 N777 1.350 . S
C780 C779 1.434 . S
C781 C782 1.369 . S
C781 C783 1.419 . S
C781 H785 0.930 . S
C782 C781 1.369 . S
C782 C791 1.429 . S
C783 C781 1.419 . S
C783 C784 1.363 . S
C783 H786 0.929 . S
C784 C783 1.363 . S
C784 C790 1.428 . S
H785 C781 0.930 . S
H786 C783 0.929 . S
S787 N788 1.613 . S
S787 N789 1.610 . S
N788 S787 1.613 . S
N788 C791 1.350 . S
N789 S787 1.610 . S
N789 C790 1.351 . S
C790 C784 1.428 . S
C790 N789 1.351 . S
C790 C791 1.434 . S
C791 C782 1.429 . S
C791 N788 1.350 . S
C791 C790 1.434 . S
C792 C793 1.369 . S
C792 C794 1.419 . S
C792 H796 0.930 . S
C793 C792 1.369 . S
C793 C802 1.429 . S
C794 C792 1.419 . S
C794 C795 1.363 . S
C794 H797 0.929 . S
C795 C794 1.363 . S
C795 C801 1.428 . S
H796 C792 0.930 . S
H797 C794 0.929 . S
S798 N799 1.613 . S
S798 N800 1.610 . S
N799 S798 1.613 . S
N799 C802 1.350 . S
N800 S798 1.610 . S
N800 C801 1.351 . S
C801 C795 1.428 . S
C801 N800 1.351 . S
C801 C802 1.434 . S
C802 C793 1.429 . S
C802 N799 1.350 . S
C802 C801 1.434 . S
C803 C804 1.369 . S
C803 C805 1.419 . S
C803 H807 0.930 . S
C804 C803 1.369 . S
C804 C813 1.429 . S
C805 C803 1.419 . S
C805 C806 1.363 . S
C805 H808 0.929 . S
C806 C805 1.363 . S
C806 C812 1.428 . S
H807 C803 0.930 . S
H808 C805 0.929 . S
S809 N810 1.613 . S
S809 N811 1.610 . S
N810 S809 1.613 . S
N810 C813 1.350 . S
N811 S809 1.610 . S
N811 C812 1.351 . S
C812 C806 1.428 . S
C812 N811 1.351 . S
C812 C813 1.434 . S
C813 C804 1.429 . S
C813 N810 1.350 . S
C813 C812 1.434 . S
C814 C815 1.369 . S
C814 C816 1.419 . S
C814 H818 0.930 . S
C815 C814 1.369 . S
C815 C824 1.429 . S
C816 C814 1.419 . S
C816 C817 1.363 . S
C816 H819 0.929 . S
C817 C816 1.363 . S
C817 C823 1.428 . S
H818 C814 0.930 . S
H819 C816 0.929 . S
S820 N821 1.613 . S
S820 N822 1.610 . S
N821 S820 1.613 . S
N821 C824 1.350 . S
N822 S820 1.610 . S
N822 C823 1.351 . S
C823 C817 1.428 . S
C823 N822 1.351 . S
C823 C824 1.434 . S
C824 C815 1.429 . S
C824 N821 1.350 . S
C824 C823 1.434 . S
C825 C826 1.369 . S
C825 C827 1.419 . S
C825 H829 0.930 . S
C826 C825 1.369 . S
C826 C835 1.429 . S
C827 C825 1.419 . S
C827 C828 1.363 . S
C827 H830 0.929 . S
C828 C827 1.363 . S
C828 C834 1.428 . S
H829 C825 0.930 . S
H830 C827 0.929 . S
S831 N832 1.613 . S
S831 N833 1.610 . S
N832 S831 1.613 . S
N832 C835 1.350 . S
N833 S831 1.610 . S
N833 C834 1.351 . S
C834 C828 1.428 . S
C834 N833 1.351 . S
C834 C835 1.434 . S
C835 C826 1.429 . S
C835 N832 1.350 . S
C835 C834 1.434 . S
C836 C837 1.369 . S
C836 C838 1.419 . S
C836 H840 0.930 . S
C837 C836 1.369 . S
C837 C846 1.429 . S
C838 C836 1.419 . S
C838 C839 1.363 . S
C838 H841 0.929 . S
C839 C838 1.363 . S
C839 C845 1.428 . S
H840 C836 0.930 . S
H841 C838 0.929 . S
S842 N843 1.613 . S
S842 N844 1.610 . S
N843 S842 1.613 . S
N843 C846 1.350 . S
N844 S842 1.610 . S
N844 C845 1.351 . S
C845 C839 1.428 . S
C845 N844 1.351 . S
C845 C846 1.434 . S
C846 C837 1.429 . S
C846 N843 1.350 . S
C846 C845 1.434 . S
C847 C848 1.369 . S
C847 C849 1.419 . S
C847 H851 0.930 . S
C848 C847 1.369 . S
C848 C857 1.429 . S
C849 C847 1.419 . S
C849 C850 1.363 . S
C849 H852 0.929 . S
C850 C849 1.363 . S
C850 C856 1.428 . S
H851 C847 0.930 . S
H852 C849 0.929 . S
S853 N854 1.613 . S
S853 N855 1.610 . S
N854 S853 1.613 . S
N854 C857 1.350 . S
N855 S853 1.610 . S
N855 C856 1.351 . S
C856 C850 1.428 . S
C856 N855 1.351 . S
C856 C857 1.434 . S
C857 C848 1.429 . S
C857 N854 1.350 . S
C857 C856 1.434 . S
C858 C859 1.369 . S
C858 C860 1.419 . S
C858 H862 0.930 . S
C859 C858 1.369 . S
C859 C868 1.429 . S
C860 C858 1.419 . S
C860 C861 1.363 . S
C860 H863 0.929 . S
C861 C860 1.363 . S
C861 C867 1.428 . S
H862 C858 0.930 . S
H863 C860 0.929 . S
S864 N865 1.613 . S
S864 N866 1.610 . S
N865 S864 1.613 . S
N865 C868 1.350 . S
N866 S864 1.610 . S
N866 C867 1.351 . S
C867 C861 1.428 . S
C867 N866 1.351 . S
C867 C868 1.434 . S
C868 C859 1.429 . S
C868 N865 1.350 . S
C868 C867 1.434 . S
C869 C870 1.369 . S
C869 C871 1.419 . S
C869 H873 0.930 . S
C870 C869 1.369 . S
C870 C879 1.429 . S
C871 C869 1.419 . S
C871 C872 1.363 . S
C871 H874 0.929 . S
C872 C871 1.363 . S
C872 C878 1.428 . S
H873 C869 0.930 . S
H874 C871 0.929 . S
S875 N876 1.613 . S
S875 N877 1.610 . S
N876 S875 1.613 . S
N876 C879 1.350 . S
N877 S875 1.610 . S
N877 C878 1.351 . S
C878 C872 1.428 . S
C878 N877 1.351 . S
C878 C879 1.434 . S
C879 C870 1.429 . S
C879 N876 1.350 . S
C879 C878 1.434 . S
C880 C881 1.369 . S
C880 C882 1.419 . S
C880 H884 0.930 . S
C881 C880 1.369 . S
C881 C890 1.429 . S
C882 C880 1.419 . S
C882 C883 1.363 . S
C882 H885 0.929 . S
C883 C882 1.363 . S
C883 C889 1.428 . S
H884 C880 0.930 . S
H885 C882 0.929 . S
S886 N887 1.613 . S
S886 N888 1.610 . S
N887 S886 1.613 . S
N887 C890 1.350 . S
N888 S886 1.610 . S
N888 C889 1.351 . S
C889 C883 1.428 . S
C889 N888 1.351 . S
C889 C890 1.434 . S
C890 C881 1.429 . S
C890 N887 1.350 . S
C890 C889 1.434 . S
C891 C892 1.369 . S
C891 C893 1.419 . S
C891 H895 0.930 . S
C892 C891 1.369 . S
C892 C901 1.429 . S
C893 C891 1.419 . S
C893 C894 1.363 . S
C893 H896 0.929 . S
C894 C893 1.363 . S
C894 C900 1.428 . S
H895 C891 0.930 . S
H896 C893 0.929 . S
S897 N898 1.613 . S
S897 N899 1.610 . S
N898 S897 1.613 . S
N898 C901 1.350 . S
N899 S897 1.610 . S
N899 C900 1.351 . S
C900 C894 1.428 . S
C900 N899 1.351 . S
C900 C901 1.434 . S
C901 C892 1.429 . S
C901 N898 1.350 . S
C901 C900 1.434 . S
C902 C903 1.369 . S
C902 C904 1.419 . S
C902 H906 0.930 . S
C903 C902 1.369 . S
C903 C912 1.429 . S
C904 C902 1.419 . S
C904 C905 1.363 . S
C904 H907 0.929 . S
C905 C904 1.363 . S
C905 C911 1.428 . S
H906 C902 0.930 . S
H907 C904 0.929 . S
S908 N909 1.613 . S
S908 N910 1.610 . S
N909 S908 1.613 . S
N909 C912 1.350 . S
N910 S908 1.610 . S
N910 C911 1.351 . S
C911 C905 1.428 . S
C911 N910 1.351 . S
C911 C912 1.434 . S
C912 C903 1.429 . S
C912 N909 1.350 . S
C912 C911 1.434 . S
C913 C914 1.369 . S
C913 C915 1.419 . S
C913 H917 0.930 . S
C914 C913 1.369 . S
C914 C923 1.429 . S
C915 C913 1.419 . S
C915 C916 1.363 . S
C915 H918 0.929 . S
C916 C915 1.363 . S
C916 C922 1.428 . S
H917 C913 0.930 . S
H918 C915 0.929 . S
S919 N920 1.613 . S
S919 N921 1.610 . S
N920 S919 1.613 . S
N920 C923 1.350 . S
N921 S919 1.610 . S
N921 C922 1.351 . S
C922 C916 1.428 . S
C922 N921 1.351 . S
C922 C923 1.434 . S
C923 C914 1.429 . S
C923 N920 1.350 . S
C923 C922 1.434 . S
C924 C925 1.369 . S
C924 C926 1.419 . S
C924 H928 0.930 . S
C925 C924 1.369 . S
C925 C934 1.429 . S
C926 C924 1.419 . S
C926 C927 1.363 . S
C926 H929 0.929 . S
C927 C926 1.363 . S
C927 C933 1.428 . S
H928 C924 0.930 . S
H929 C926 0.929 . S
S930 N931 1.613 . S
S930 N932 1.610 . S
N931 S930 1.613 . S
N931 C934 1.350 . S
N932 S930 1.610 . S
N932 C933 1.351 . S
C933 C927 1.428 . S
C933 N932 1.351 . S
C933 C934 1.434 . S
C934 C925 1.429 . S
C934 N931 1.350 . S
C934 C933 1.434 . S
C935 C936 1.369 . S
C935 C937 1.419 . S
C935 H939 0.930 . S
C936 C935 1.369 . S
C936 C945 1.429 . S
C937 C935 1.419 . S
C937 C938 1.363 . S
C937 H940 0.929 . S
C938 C937 1.363 . S
C938 C944 1.428 . S
H939 C935 0.930 . S
H940 C937 0.929 . S
S941 N942 1.613 . S
S941 N943 1.610 . S
N942 S941 1.613 . S
N942 C945 1.350 . S
N943 S941 1.610 . S
N943 C944 1.351 . S
C944 C938 1.428 . S
C944 N943 1.351 . S
C944 C945 1.434 . S
C945 C936 1.429 . S
C945 N942 1.350 . S
C945 C944 1.434 . S
C946 C947 1.369 . S
C946 C948 1.419 . S
C946 H950 0.930 . S
C947 C946 1.369 . S
C947 C956 1.429 . S
C948 C946 1.419 . S
C948 C949 1.363 . S
C948 H951 0.929 . S
C949 C948 1.363 . S
C949 C955 1.428 . S
H950 C946 0.930 . S
H951 C948 0.929 . S
S952 N953 1.613 . S
S952 N954 1.610 . S
N953 S952 1.613 . S
N953 C956 1.350 . S
N954 S952 1.610 . S
N954 C955 1.351 . S
C955 C949 1.428 . S
C955 N954 1.351 . S
C955 C956 1.434 . S
C956 C947 1.429 . S
C956 N953 1.350 . S
C956 C955 1.434 . S
C957 C958 1.369 . S
C957 C959 1.419 . S
C957 H961 0.930 . S
C958 C957 1.369 . S
C958 C967 1.429 . S
C959 C957 1.419 . S
C959 C960 1.363 . S
C959 H962 0.929 . S
C960 C959 1.363 . S
C960 C966 1.428 . S
H961 C957 0.930 . S
H962 C959 0.929 . S
S963 N964 1.613 . S
S963 N965 1.610 . S
N964 S963 1.613 . S
N964 C967 1.350 . S
N965 S963 1.610 . S
N965 C966 1.351 . S
C966 C960 1.428 . S
C966 N965 1.351 . S
C966 C967 1.434 . S
C967 C958 1.429 . S
C967 N964 1.350 . S
C967 C966 1.434 . S
C968 C969 1.369 . S
C968 C970 1.419 . S
C968 H972 0.930 . S
C969 C968 1.369 . S
C969 C978 1.429 . S
C970 C968 1.419 . S
C970 C971 1.363 . S
C970 H973 0.929 . S
C971 C970 1.363 . S
C971 C977 1.428 . S
H972 C968 0.930 . S
H973 C970 0.929 . S
S974 N975 1.613 . S
S974 N976 1.610 . S
N975 S974 1.613 . S
N975 C978 1.350 . S
N976 S974 1.610 . S
N976 C977 1.351 . S
C977 C971 1.428 . S
C977 N976 1.351 . S
C977 C978 1.434 . S
C978 C969 1.429 . S
C978 N975 1.350 . S
C978 C977 1.434 . S
C979 C980 1.369 . S
C979 C981 1.419 . S
C979 H983 0.930 . S
C980 C979 1.369 . S
C980 C989 1.429 . S
C981 C979 1.419 . S
C981 C982 1.363 . S
C981 H984 0.929 . S
C982 C981 1.363 . S
C982 C988 1.428 . S
H983 C979 0.930 . S
H984 C981 0.929 . S
S985 N986 1.613 . S
S985 N987 1.610 . S
N986 S985 1.613 . S
N986 C989 1.350 . S
N987 S985 1.610 . S
N987 C988 1.351 . S
C988 C982 1.428 . S
C988 N987 1.351 . S
C988 C989 1.434 . S
C989 C980 1.429 . S
C989 N986 1.350 . S
C989 C988 1.434 . S
C990 C991 1.369 . S
C990 C992 1.419 . S
C990 H994 0.930 . S
C991 C990 1.369 . S
C991 C1000 1.429 . S
C992 C990 1.419 . S
C992 C993 1.363 . S
C992 H995 0.929 . S
C993 C992 1.363 . S
C993 C999 1.428 . S
H994 C990 0.930 . S
H995 C992 0.929 . S
S996 N997 1.613 . S
S996 N998 1.610 . S
N997 S996 1.613 . S
N997 C1000 1.350 . S
N998 S996 1.610 . S
N998 C999 1.351 . S
C999 C993 1.428 . S
C999 N998 1.351 . S
C999 C1000 1.434 . S
C1000 C991 1.429 . S
C1000 N997 1.350 . S
C1000 C999 1.434 . S
C1001 C1002 1.369 . S
C1001 C1003 1.419 . S
C1001 H1005 0.930 . S
C1002 C1001 1.369 . S
C1002 C1011 1.429 . S
C1003 C1001 1.419 . S
C1003 C1004 1.363 . S
C1003 H1006 0.929 . S
C1004 C1003 1.363 . S
C1004 C1010 1.428 . S
H1005 C1001 0.930 . S
H1006 C1003 0.929 . S
S1007 N1008 1.613 . S
S1007 N1009 1.610 . S
N1008 S1007 1.613 . S
N1008 C1011 1.350 . S
N1009 S1007 1.610 . S
N1009 C1010 1.351 . S
C1010 C1004 1.428 . S
C1010 N1009 1.351 . S
C1010 C1011 1.434 . S
C1011 C1002 1.429 . S
C1011 N1008 1.350 . S
C1011 C1010 1.434 . S
C1012 C1013 1.369 . S
C1012 C1014 1.419 . S
C1012 H1016 0.930 . S
C1013 C1012 1.369 . S
C1013 C1022 1.429 . S
C1014 C1012 1.419 . S
C1014 C1015 1.363 . S
C1014 H1017 0.929 . S
C1015 C1014 1.363 . S
C1015 C1021 1.428 . S
H1016 C1012 0.930 . S
H1017 C1014 0.929 . S
S1018 N1019 1.613 . S
S1018 N1020 1.610 . S
N1019 S1018 1.613 . S
N1019 C1022 1.350 . S
N1020 S1018 1.610 . S
N1020 C1021 1.351 . S
C1021 C1015 1.428 . S
C1021 N1020 1.351 . S
C1021 C1022 1.434 . S
C1022 C1013 1.429 . S
C1022 N1019 1.350 . S
C1022 C1021 1.434 . S
C1023 C1024 1.369 . S
C1023 C1025 1.419 . S
C1023 H1027 0.930 . S
C1024 C1023 1.369 . S
C1024 C1033 1.429 . S
C1025 C1023 1.419 . S
C1025 C1026 1.363 . S
C1025 H1028 0.929 . S
C1026 C1025 1.363 . S
C1026 C1032 1.428 . S
H1027 C1023 0.930 . S
H1028 C1025 0.929 . S
S1029 N1030 1.613 . S
S1029 N1031 1.610 . S
N1030 S1029 1.613 . S
N1030 C1033 1.350 . S
N1031 S1029 1.610 . S
N1031 C1032 1.351 . S
C1032 C1026 1.428 . S
C1032 N1031 1.351 . S
C1032 C1033 1.434 . S
C1033 C1024 1.429 . S
C1033 N1030 1.350 . S
C1033 C1032 1.434 . S
C1034 C1035 1.369 . S
C1034 C1036 1.419 . S
C1034 H1038 0.930 . S
C1035 C1034 1.369 . S
C1035 C1044 1.429 . S
C1036 C1034 1.419 . S
C1036 C1037 1.363 . S
C1036 H1039 0.929 . S
C1037 C1036 1.363 . S
C1037 C1043 1.428 . S
H1038 C1034 0.930 . S
H1039 C1036 0.929 . S
S1040 N1041 1.613 . S
S1040 N1042 1.610 . S
N1041 S1040 1.613 . S
N1041 C1044 1.350 . S
N1042 S1040 1.610 . S
N1042 C1043 1.351 . S
C1043 C1037 1.428 . S
C1043 N1042 1.351 . S
C1043 C1044 1.434 . S
C1044 C1035 1.429 . S
C1044 N1041 1.350 . S
C1044 C1043 1.434 . S
C1045 C1046 1.369 . S
C1045 C1047 1.419 . S
C1045 H1049 0.930 . S
C1046 C1045 1.369 . S
C1046 C1055 1.429 . S
C1047 C1045 1.419 . S
C1047 C1048 1.363 . S
C1047 H1050 0.929 . S
C1048 C1047 1.363 . S
C1048 C1054 1.428 . S
H1049 C1045 0.930 . S
H1050 C1047 0.929 . S
S1051 N1052 1.613 . S
S1051 N1053 1.610 . S
N1052 S1051 1.613 . S
N1052 C1055 1.350 . S
N1053 S1051 1.610 . S
N1053 C1054 1.351 . S
C1054 C1048 1.428 . S
C1054 N1053 1.351 . S
C1054 C1055 1.434 . S
C1055 C1046 1.429 . S
C1055 N1052 1.350 . S
C1055 C1054 1.434 . S
C1056 C1057 1.369 . S
C1056 C1058 1.419 . S
C1056 H1060 0.930 . S
C1057 C1056 1.369 . S
C1057 C1066 1.429 . S
C1058 C1056 1.419 . S
C1058 C1059 1.363 . S
C1058 H1061 0.929 . S
C1059 C1058 1.363 . S
C1059 C1065 1.428 . S
H1060 C1056 0.930 . S
H1061 C1058 0.929 . S
S1062 N1063 1.613 . S
S1062 N1064 1.610 . S
N1063 S1062 1.613 . S
N1063 C1066 1.350 . S
N1064 S1062 1.610 . S
N1064 C1065 1.351 . S
C1065 C1059 1.428 . S
C1065 N1064 1.351 . S
C1065 C1066 1.434 . S
C1066 C1057 1.429 . S
C1066 N1063 1.350 . S
C1066 C1065 1.434 . S
C1067 C1068 1.369 . S
C1067 C1069 1.419 . S
C1067 H1071 0.930 . S
C1068 C1067 1.369 . S
C1068 C1077 1.429 . S
C1069 C1067 1.419 . S
C1069 C1070 1.363 . S
C1069 H1072 0.929 . S
C1070 C1069 1.363 . S
C1070 C1076 1.428 . S
H1071 C1067 0.930 . S
H1072 C1069 0.929 . S
S1073 N1074 1.613 . S
S1073 N1075 1.610 . S
N1074 S1073 1.613 . S
N1074 C1077 1.350 . S
N1075 S1073 1.610 . S
N1075 C1076 1.351 . S
C1076 C1070 1.428 . S
C1076 N1075 1.351 . S
C1076 C1077 1.434 . S
C1077 C1068 1.429 . S
C1077 N1074 1.350 . S
C1077 C1076 1.434 . S
C1078 C1079 1.369 . S
C1078 C1080 1.419 . S
C1078 H1082 0.930 . S
C1079 C1078 1.369 . S
C1079 C1088 1.429 . S
C1080 C1078 1.419 . S
C1080 C1081 1.363 . S
C1080 H1083 0.929 . S
C1081 C1080 1.363 . S
C1081 C1087 1.428 . S
H1082 C1078 0.930 . S
H1083 C1080 0.929 . S
S1084 N1085 1.613 . S
S1084 N1086 1.610 . S
N1085 S1084 1.613 . S
N1085 C1088 1.350 . S
N1086 S1084 1.610 . S
N1086 C1087 1.351 . S
C1087 C1081 1.428 . S
C1087 N1086 1.351 . S
C1087 C1088 1.434 . S
C1088 C1079 1.429 . S
C1088 N1085 1.350 . S
C1088 C1087 1.434 . S
C1089 C1090 1.369 . S
C1089 C1091 1.419 . S
C1089 H1093 0.930 . S
C1090 C1089 1.369 . S
C1090 C1099 1.429 . S
C1091 C1089 1.419 . S
C1091 C1092 1.363 . S
C1091 H1094 0.929 . S
C1092 C1091 1.363 . S
C1092 C1098 1.428 . S
H1093 C1089 0.930 . S
H1094 C1091 0.929 . S
S1095 N1096 1.613 . S
S1095 N1097 1.610 . S
N1096 S1095 1.613 . S
N1096 C1099 1.350 . S
N1097 S1095 1.610 . S
N1097 C1098 1.351 . S
C1098 C1092 1.428 . S
C1098 N1097 1.351 . S
C1098 C1099 1.434 . S
C1099 C1090 1.429 . S
C1099 N1096 1.350 . S
C1099 C1098 1.434 . S
C1100 C1101 1.369 . S
C1100 C1102 1.419 . S
C1100 H1104 0.930 . S
C1101 C1100 1.369 . S
C1101 C1110 1.429 . S
C1102 C1100 1.419 . S
C1102 C1103 1.363 . S
C1102 H1105 0.929 . S
C1103 C1102 1.363 . S
C1103 C1109 1.428 . S
H1104 C1100 0.930 . S
H1105 C1102 0.929 . S
S1106 N1107 1.613 . S
S1106 N1108 1.610 . S
N1107 S1106 1.613 . S
N1107 C1110 1.350 . S
N1108 S1106 1.610 . S
N1108 C1109 1.351 . S
C1109 C1103 1.428 . S
C1109 N1108 1.351 . S
C1109 C1110 1.434 . S
C1110 C1101 1.429 . S
C1110 N1107 1.350 . S
C1110 C1109 1.434 . S
C1111 C1112 1.369 . S
C1111 C1113 1.419 . S
C1111 H1115 0.930 . S
C1112 C1111 1.369 . S
C1112 C1121 1.429 . S
C1113 C1111 1.419 . S
C1113 C1114 1.363 . S
C1113 H1116 0.929 . S
C1114 C1113 1.363 . S
C1114 C1120 1.428 . S
H1115 C1111 0.930 . S
H1116 C1113 0.929 . S
S1117 N1118 1.613 1_565 S
S1117 N1119 1.610 . S
N1118 S1117 1.613 1_545 S
N1118 C1121 1.350 . S
N1119 S1117 1.610 . S
N1119 C1120 1.351 1_565 S
C1120 C1114 1.428 . S
C1120 N1119 1.351 1_545 S
C1120 C1121 1.434 . S
C1121 C1112 1.429 . S
C1121 N1118 1.350 . S
C1121 C1120 1.434 . S
C1122 C1123 1.369 . S
C1122 C1124 1.419 . S
C1122 H1126 0.930 . S
C1123 C1122 1.369 . S
C1123 C1132 1.429 . S
C1124 C1122 1.419 . S
C1124 C1125 1.363 . S
C1124 H1127 0.929 . S
C1125 C1124 1.363 . S
C1125 C1131 1.428 . S
H1126 C1122 0.930 . S
H1127 C1124 0.929 . S
S1128 N1129 1.613 . S
S1128 N1130 1.610 . S
N1129 S1128 1.613 . S
N1129 C1132 1.350 . S
N1130 S1128 1.610 . S
N1130 C1131 1.351 . S
C1131 C1125 1.428 . S
C1131 N1130 1.351 . S
C1131 C1132 1.434 . S
C1132 C1123 1.429 . S
C1132 N1129 1.350 . S
C1132 C1131 1.434 . S
C1133 C1134 1.369 . S
C1133 C1135 1.419 . S
C1133 H1137 0.930 . S
C1134 C1133 1.369 . S
C1134 C1143 1.429 . S
C1135 C1133 1.419 . S
C1135 C1136 1.363 . S
C1135 H1138 0.929 . S
C1136 C1135 1.363 . S
C1136 C1142 1.428 . S
H1137 C1133 0.930 . S
H1138 C1135 0.929 . S
S1139 N1140 1.613 . S
S1139 N1141 1.610 . S
N1140 S1139 1.613 . S
N1140 C1143 1.350 . S
N1141 S1139 1.610 . S
N1141 C1142 1.351 . S
C1142 C1136 1.428 . S
C1142 N1141 1.351 . S
C1142 C1143 1.434 . S
C1143 C1134 1.429 . S
C1143 N1140 1.350 . S
C1143 C1142 1.434 . S
C1144 C1145 1.369 . S
C1144 C1146 1.419 . S
C1144 H1148 0.930 . S
C1145 C1144 1.369 . S
C1145 C1154 1.429 . S
C1146 C1144 1.419 . S
C1146 C1147 1.363 . S
C1146 H1149 0.929 . S
C1147 C1146 1.363 . S
C1147 C1153 1.428 . S
H1148 C1144 0.930 . S
H1149 C1146 0.929 . S
S1150 N1151 1.613 . S
S1150 N1152 1.610 . S
N1151 S1150 1.613 . S
N1151 C1154 1.350 . S
N1152 S1150 1.610 . S
N1152 C1153 1.351 . S
C1153 C1147 1.428 . S
C1153 N1152 1.351 . S
C1153 C1154 1.434 . S
C1154 C1145 1.429 . S
C1154 N1151 1.350 . S
C1154 C1153 1.434 . S
C1155 C1156 1.369 . S
C1155 C1157 1.419 . S
C1155 H1159 0.930 . S
C1156 C1155 1.369 . S
C1156 C1165 1.429 . S
C1157 C1155 1.419 . S
C1157 C1158 1.363 . S
C1157 H1160 0.929 . S
C1158 C1157 1.363 . S
C1158 C1164 1.428 . S
H1159 C1155 0.930 . S
H1160 C1157 0.929 . S
S1161 N1162 1.613 . S
S1161 N1163 1.610 . S
N1162 S1161 1.613 . S
N1162 C1165 1.350 . S
N1163 S1161 1.610 . S
N1163 C1164 1.351 . S
C1164 C1158 1.428 . S
C1164 N1163 1.351 . S
C1164 C1165 1.434 . S
C1165 C1156 1.429 . S
C1165 N1162 1.350 . S
C1165 C1164 1.434 . S
C1166 C1167 1.369 . S
C1166 C1168 1.419 . S
C1166 H1170 0.930 . S
C1167 C1166 1.369 . S
C1167 C1176 1.429 . S
C1168 C1166 1.419 . S
C1168 C1169 1.363 . S
C1168 H1171 0.929 . S
C1169 C1168 1.363 . S
C1169 C1175 1.428 . S
H1170 C1166 0.930 . S
H1171 C1168 0.929 . S
S1172 N1173 1.613 . S
S1172 N1174 1.610 . S
N1173 S1172 1.613 . S
N1173 C1176 1.350 . S
N1174 S1172 1.610 . S
N1174 C1175 1.351 . S
C1175 C1169 1.428 . S
C1175 N1174 1.351 . S
C1175 C1176 1.434 . S
C1176 C1167 1.429 . S
C1176 N1173 1.350 . S
C1176 C1175 1.434 . S
C1177 C1178 1.369 . S
C1177 C1179 1.419 . S
C1177 H1181 0.930 . S
C1178 C1177 1.369 . S
C1178 C1187 1.429 . S
C1179 C1177 1.419 . S
C1179 C1180 1.363 . S
C1179 H1182 0.929 . S
C1180 C1179 1.363 . S
C1180 C1186 1.428 . S
H1181 C1177 0.930 . S
H1182 C1179 0.929 . S
S1183 N1184 1.613 . S
S1183 N1185 1.610 . S
N1184 S1183 1.613 . S
N1184 C1187 1.350 . S
N1185 S1183 1.610 . S
N1185 C1186 1.351 . S
C1186 C1180 1.428 . S
C1186 N1185 1.351 . S
C1186 C1187 1.434 . S
C1187 C1178 1.429 . S
C1187 N1184 1.350 . S
C1187 C1186 1.434 . S
C1188 C1189 1.369 . S
C1188 C1190 1.419 . S
C1188 H1192 0.930 . S
C1189 C1188 1.369 . S
C1189 C1198 1.429 . S
C1190 C1188 1.419 . S
C1190 C1191 1.363 . S
C1190 H1193 0.929 . S
C1191 C1190 1.363 . S
C1191 C1197 1.428 . S
H1192 C1188 0.930 . S
H1193 C1190 0.929 . S
S1194 N1195 1.613 . S
S1194 N1196 1.610 . S
N1195 S1194 1.613 . S
N1195 C1198 1.350 . S
N1196 S1194 1.610 . S
N1196 C1197 1.351 . S
C1197 C1191 1.428 . S
C1197 N1196 1.351 . S
C1197 C1198 1.434 . S
C1198 C1189 1.429 . S
C1198 N1195 1.350 . S
C1198 C1197 1.434 . S
C1199 C1200 1.369 . S
C1199 C1201 1.419 . S
C1199 H1203 0.930 . S
C1200 C1199 1.369 . S
C1200 C1209 1.429 . S
C1201 C1199 1.419 . S
C1201 C1202 1.363 . S
C1201 H1204 0.929 . S
C1202 C1201 1.363 . S
C1202 C1208 1.428 . S
H1203 C1199 0.930 . S
H1204 C1201 0.929 . S
S1205 N1206 1.613 . S
S1205 N1207 1.610 . S
N1206 S1205 1.613 . S
N1206 C1209 1.350 . S
N1207 S1205 1.610 . S
N1207 C1208 1.351 . S
C1208 C1202 1.428 . S
C1208 N1207 1.351 . S
C1208 C1209 1.434 . S
C1209 C1200 1.429 . S
C1209 N1206 1.350 . S
C1209 C1208 1.434 . S
C1210 C1211 1.369 . S
C1210 C1212 1.419 . S
C1210 H1214 0.930 . S
C1211 C1210 1.369 . S
C1211 C1220 1.429 . S
C1212 C1210 1.419 . S
C1212 C1213 1.363 . S
C1212 H1215 0.929 . S
C1213 C1212 1.363 . S
C1213 C1219 1.428 . S
H1214 C1210 0.930 . S
H1215 C1212 0.929 . S
S1216 N1217 1.613 . S
S1216 N1218 1.610 . S
N1217 S1216 1.613 . S
N1217 C1220 1.350 . S
N1218 S1216 1.610 . S
N1218 C1219 1.351 . S
C1219 C1213 1.428 . S
C1219 N1218 1.351 . S
C1219 C1220 1.434 . S
C1220 C1211 1.429 . S
C1220 N1217 1.350 . S
C1220 C1219 1.434 . S
C1221 C1222 1.369 . S
C1221 C1223 1.419 . S
C1221 H1225 0.930 . S
C1222 C1221 1.369 . S
C1222 C1231 1.429 . S
C1223 C1221 1.419 . S
C1223 C1224 1.363 . S
C1223 H1226 0.929 . S
C1224 C1223 1.363 . S
C1224 C1230 1.428 . S
H1225 C1221 0.930 . S
H1226 C1223 0.929 . S
S1227 N1228 1.613 . S
S1227 N1229 1.610 . S
N1228 S1227 1.613 . S
N1228 C1231 1.350 . S
N1229 S1227 1.610 . S
N1229 C1230 1.351 . S
C1230 C1224 1.428 . S
C1230 N1229 1.351 . S
C1230 C1231 1.434 . S
C1231 C1222 1.429 . S
C1231 N1228 1.350 . S
C1231 C1230 1.434 . S
C1232 C1233 1.369 . S
C1232 C1234 1.419 . S
C1232 H1236 0.930 . S
C1233 C1232 1.369 . S
C1233 C1242 1.429 . S
C1234 C1232 1.419 . S
C1234 C1235 1.363 . S
C1234 H1237 0.929 . S
C1235 C1234 1.363 . S
C1235 C1241 1.428 . S
H1236 C1232 0.930 . S
H1237 C1234 0.929 . S
S1238 N1239 1.613 . S
S1238 N1240 1.610 . S
N1239 S1238 1.613 . S
N1239 C1242 1.350 . S
N1240 S1238 1.610 . S
N1240 C1241 1.351 . S
C1241 C1235 1.428 . S
C1241 N1240 1.351 . S
C1241 C1242 1.434 . S
C1242 C1233 1.429 . S
C1242 N1239 1.350 . S
C1242 C1241 1.434 . S
C1243 C1244 1.369 . S
C1243 C1245 1.419 . S
C1243 H1247 0.930 . S
C1244 C1243 1.369 . S
C1244 C1253 1.429 . S
C1245 C1243 1.419 . S
C1245 C1246 1.363 . S
C1245 H1248 0.929 . S
C1246 C1245 1.363 . S
C1246 C1252 1.428 . S
H1247 C1243 0.930 . S
H1248 C1245 0.929 . S
S1249 N1250 1.613 . S
S1249 N1251 1.610 . S
N1250 S1249 1.613 . S
N1250 C1253 1.350 . S
N1251 S1249 1.610 . S
N1251 C1252 1.351 . S
C1252 C1246 1.428 . S
C1252 N1251 1.351 . S
C1252 C1253 1.434 . S
C1253 C1244 1.429 . S
C1253 N1250 1.350 . S
C1253 C1252 1.434 . S
C1254 C1255 1.369 . S
C1254 C1256 1.419 . S
C1254 H1258 0.930 . S
C1255 C1254 1.369 . S
C1255 C1264 1.429 . S
C1256 C1254 1.419 . S
C1256 C1257 1.363 . S
C1256 H1259 0.929 . S
C1257 C1256 1.363 . S
C1257 C1263 1.428 . S
H1258 C1254 0.930 . S
H1259 C1256 0.929 . S
S1260 N1261 1.613 . S
S1260 N1262 1.610 . S
N1261 S1260 1.613 . S
N1261 C1264 1.350 . S
N1262 S1260 1.610 . S
N1262 C1263 1.351 . S
C1263 C1257 1.428 . S
C1263 N1262 1.351 . S
C1263 C1264 1.434 . S
C1264 C1255 1.429 . S
C1264 N1261 1.350 . S
C1264 C1263 1.434 . S
C1265 C1266 1.369 . S
C1265 C1267 1.419 . S
C1265 H1269 0.930 . S
C1266 C1265 1.369 . S
C1266 C1275 1.429 . S
C1267 C1265 1.419 . S
C1267 C1268 1.363 . S
C1267 H1270 0.929 . S
C1268 C1267 1.363 . S
C1268 C1274 1.428 . S
H1269 C1265 0.930 . S
H1270 C1267 0.929 . S
S1271 N1272 1.613 . S
S1271 N1273 1.610 . S
N1272 S1271 1.613 . S
N1272 C1275 1.350 . S
N1273 S1271 1.610 . S
N1273 C1274 1.351 . S
C1274 C1268 1.428 . S
C1274 N1273 1.351 . S
C1274 C1275 1.434 . S
C1275 C1266 1.429 . S
C1275 N1272 1.350 . S
C1275 C1274 1.434 . S
C1276 C1277 1.369 . S
C1276 C1278 1.419 . S
C1276 H1280 0.930 . S
C1277 C1276 1.369 . S
C1277 C1286 1.429 . S
C1278 C1276 1.419 . S
C1278 C1279 1.363 . S
C1278 H1281 0.929 . S
C1279 C1278 1.363 . S
C1279 C1285 1.428 . S
H1280 C1276 0.930 . S
H1281 C1278 0.929 . S
S1282 N1283 1.613 . S
S1282 N1284 1.610 . S
N1283 S1282 1.613 . S
N1283 C1286 1.350 . S
N1284 S1282 1.610 . S
N1284 C1285 1.351 . S
C1285 C1279 1.428 . S
C1285 N1284 1.351 . S
C1285 C1286 1.434 . S
C1286 C1277 1.429 . S
C1286 N1283 1.350 . S
C1286 C1285 1.434 . S
C1287 C1288 1.369 . S
C1287 C1289 1.419 . S
C1287 H1291 0.930 . S
C1288 C1287 1.369 . S
C1288 C1297 1.429 . S
C1289 C1287 1.419 . S
C1289 C1290 1.363 . S
C1289 H1292 0.929 . S
C1290 C1289 1.363 . S
C1290 C1296 1.428 . S
H1291 C1287 0.930 . S
H1292 C1289 0.929 . S
S1293 N1294 1.613 . S
S1293 N1295 1.610 . S
N1294 S1293 1.613 . S
N1294 C1297 1.350 . S
N1295 S1293 1.610 . S
N1295 C1296 1.351 . S
C1296 C1290 1.428 . S
C1296 N1295 1.351 . S
C1296 C1297 1.434 . S
C1297 C1288 1.429 . S
C1297 N1294 1.350 . S
C1297 C1296 1.434 . S
C1298 C1299 1.369 . S
C1298 C1300 1.419 . S
C1298 H1302 0.930 . S
C1299 C1298 1.369 . S
C1299 C1308 1.429 . S
C1300 C1298 1.419 . S
C1300 C1301 1.363 . S
C1300 H1303 0.929 . S
C1301 C1300 1.363 . S
C1301 C1307 1.428 . S
H1302 C1298 0.930 . S
H1303 C1300 0.929 . S
S1304 N1305 1.613 . S
S1304 N1306 1.610 . S
N1305 S1304 1.613 . S
N1305 C1308 1.350 . S
N1306 S1304 1.610 . S
N1306 C1307 1.351 . S
C1307 C1301 1.428 . S
C1307 N1306 1.351 . S
C1307 C1308 1.434 . S
C1308 C1299 1.429 . S
C1308 N1305 1.350 . S
C1308 C1307 1.434 . S
C1309 C1310 1.369 . S
C1309 C1311 1.419 . S
C1309 H1313 0.930 . S
C1310 C1309 1.369 . S
C1310 C1319 1.429 . S
C1311 C1309 1.419 . S
C1311 C1312 1.363 . S
C1311 H1314 0.929 . S
C1312 C1311 1.363 . S
C1312 C1318 1.428 . S
H1313 C1309 0.930 . S
H1314 C1311 0.929 . S
S1315 N1316 1.613 . S
S1315 N1317 1.610 . S
N1316 S1315 1.613 . S
N1316 C1319 1.350 . S
N1317 S1315 1.610 . S
N1317 C1318 1.351 . S
C1318 C1312 1.428 . S
C1318 N1317 1.351 . S
C1318 C1319 1.434 . S
C1319 C1310 1.429 . S
C1319 N1316 1.350 . S
C1319 C1318 1.434 . S
C529 C7 1.756 . S
C531 C401 1.681 . S
C540 C427 1.686 . S
C542 C29 1.757 . S
C551 C50 1.756 . S
C553 C361 1.681 . S
C562 C72 1.755 . S
C564 C379 1.679 . S
C573 C489 1.685 . S
C575 C95 1.757 . S
C584 C116 1.754 . S
C586 C467 1.678 . S
C595 C515 1.681 . S
C597 C138 1.756 . S
C606 C161 1.755 . S
C608 C449 1.680 . S
C617 C183 1.755 . S
C619 C291 1.679 . S
C628 C204 1.755 . S
C630 C335 1.678 . S
C639 C313 1.684 . S
C641 C226 1.757 . S
C650 C249 1.757 . S
C652 C269 1.683 . S
C661 C273 1.757 . S
C663 C139 1.682 . S
C672 C295 1.754 . S
C674 C160 1.678 . S
C683 C317 1.757 . S
C685 C94 1.681 . S
C694 C117 1.683 . S
C696 C339 1.757 . S
C705 C357 1.757 . S
C707 C227 1.684 . S
C716 C205 1.676 . S
C718 C383 1.755 . S
C727 C248 1.677 . S
C729 C405 1.755 . S
C738 C182 1.685 . S
C740 C423 1.757 . S
C749 C28 1.683 . S
C751 C445 1.757 . S
C760 C73 1.680 . S
C762 C471 1.756 . S
C771 C51 1.678 . S
C773 C493 1.755 . S
C782 C511 1.757 . S
C784 C6 1.684 . S
C793 C96 1.429 . S
C795 C9 1.312 . S
C804 C114 1.435 . S
C806 C31 1.301 . S
C815 C136 1.429 . S
C817 C49 1.311 . S
C826 C162 1.435 . S
C828 C71 1.302 . S
C837 C97 1.301 . S
C839 C184 1.434 . S
C848 C115 1.301 . S
C850 C250 1.433 . S
C859 C137 1.302 . S
C861 C202 1.433 . S
C870 C163 1.303 . S
C872 C224 1.433 . S
C881 C185 1.303 . S
C883 C8 1.433 . S
C892 C203 1.300 . S
C894 C48 1.434 . S
C903 C225 1.303 . S
C905 C70 1.433 . S
C914 C30 1.434 . S
C916 C251 1.302 . S
C925 C356 1.432 . S
C927 C271 1.309 . S
C936 C382 1.435 . S
C938 C293 1.301 . S
C947 C315 1.307 . S
C949 C404 1.431 . S
C958 C337 1.302 . S
C960 C422 1.433 . S
C969 C444 1.428 . S
C971 C358 1.313 . S
C980 C381 1.312 . S
C982 C510 1.430 . S
C991 C470 1.435 . S
C993 C403 1.302 . S
C1002 C424 1.305 . S
C1004 C492 1.431 . S
C1013 C272 1.434 . S
C1015 C446 1.304 . S
C1024 C469 1.300 . S
C1026 C316 1.433 . S
C1035 C491 1.306 . S
C1037 C338 1.431 . S
C1046 C294 1.434 . S
C1048 C512 1.302 . S
C1057 C4 1.366 . S
C1059 C207 1.383 . S
C1068 C229 1.383 . S
C1070 C26 1.366 . S
C1079 C181 1.386 . S
C1081 C52 1.363 . S
C1090 C247 1.386 . S
C1092 C74 1.365 . S
C1101 C92 1.363 . S
C1103 C75 1.383 . S
C1112 C53 1.386 . S
C1114 C118 1.361 . S
C1123 C140 1.368 . S
C1125 C27 1.384 . S
C1134 C5 1.385 . S
C1136 C158 1.361 . S
C1145 C180 1.361 . S
C1147 C119 1.385 . S
C1156 C206 1.367 . S
C1158 C159 1.383 . S
C1167 C228 1.366 . S
C1169 C141 1.385 . S
C1178 C246 1.365 . S
C1180 C93 1.385 . S
C1189 C268 1.367 . S
C1191 C468 1.383 . S
C1200 C290 1.367 . S
C1202 C490 1.383 . S
C1211 C447 1.383 . S
C1213 C312 1.366 . S
C1222 C513 1.386 . S
C1224 C334 1.362 . S
C1233 C360 1.361 . S
C1235 C336 1.383 . S
C1244 C378 1.364 . S
C1246 C314 1.383 . S
C1255 C292 1.385 . S
C1257 C400 1.361 . S
C1266 C426 1.367 . S
C1268 C270 1.383 . S
C1277 C448 1.364 . S
C1279 C380 1.386 . S
C1288 C425 1.386 . S
C1290 C466 1.362 . S
C1299 C488 1.360 . S
C1301 C402 1.384 . S
C1310 C514 1.360 . S
C1312 C359 1.385 . S
