# Generated by pormake.
# Topology ume, (4)-cn, num edge types: 1
# Building blocks:
#     Node 0, Type 0, BuildingBlock: QUQFOY_clean_sbu_3, # of connection points: 4
#     Node 1, Type 0, BuildingBlock: QUQFOY_clean_sbu_3, # of connection points: 4
#     Node 2, Type 0, BuildingBlock: QUQFOY_clean_sbu_3, # of connection points: 4
#     Node 3, Type 0, BuildingBlock: QUQFOY_clean_sbu_3, # of connection points: 4
#     Node 4, Type 0, BuildingBlock: QUQFOY_clean_sbu_3, # of connection points: 4
#     Node 5, Type 0, BuildingBlock: QUQFOY_clean_sbu_3, # of connection points: 4
#     Node 6, Type 0, BuildingBlock: QUQFOY_clean_sbu_3, # of connection points: 4
#     Node 7, Type 0, BuildingBlock: QUQFOY_clean_sbu_3, # of connection points: 4
#     Node 8, Type 0, BuildingBlock: QUQFOY_clean_sbu_3, # of connection points: 4
#     Node 9, Type 0, BuildingBlock: QUQFOY_clean_sbu_3, # of connection points: 4
#     Node 10, Type 0, BuildingBlock: QUQFOY_clean_sbu_3, # of connection points: 4
#     Node 11, Type 0, BuildingBlock: QUQFOY_clean_sbu_3, # of connection points: 4
#     Node 12, Type 0, BuildingBlock: QUQFOY_clean_sbu_3, # of connection points: 4
#     Node 13, Type 0, BuildingBlock: QUQFOY_clean_sbu_3, # of connection points: 4
#     Node 14, Type 0, BuildingBlock: QUQFOY_clean_sbu_3, # of connection points: 4
#     Node 15, Type 0, BuildingBlock: QUQFOY_clean_sbu_3, # of connection points: 4
#     Edge 16, Type (0, 0), BuildingBlock: ZUJKAS_clean_linker_0, # of connection points: 2
#     Edge 17, Type (0, 0), BuildingBlock: ZUJKAS_clean_linker_0, # of connection points: 2
#     Edge 18, Type (0, 0), BuildingBlock: ZUJKAS_clean_linker_0, # of connection points: 2
#     Edge 19, Type (0, 0), BuildingBlock: ZUJKAS_clean_linker_0, # of connection points: 2
#     Edge 20, Type (0, 0), BuildingBlock: ZUJKAS_clean_linker_0, # of connection points: 2
#     Edge 21, Type (0, 0), BuildingBlock: ZUJKAS_clean_linker_0, # of connection points: 2
#     Edge 22, Type (0, 0), BuildingBlock: ZUJKAS_clean_linker_0, # of connection points: 2
#     Edge 23, Type (0, 0), BuildingBlock: ZUJKAS_clean_linker_0, # of connection points: 2
#     Edge 24, Type (0, 0), BuildingBlock: ZUJKAS_clean_linker_0, # of connection points: 2
#     Edge 25, Type (0, 0), BuildingBlock: ZUJKAS_clean_linker_0, # of connection points: 2
#     Edge 26, Type (0, 0), BuildingBlock: ZUJKAS_clean_linker_0, # of connection points: 2
#     Edge 27, Type (0, 0), BuildingBlock: ZUJKAS_clean_linker_0, # of connection points: 2
#     Edge 28, Type (0, 0), BuildingBlock: ZUJKAS_clean_linker_0, # of connection points: 2
#     Edge 29, Type (0, 0), BuildingBlock: ZUJKAS_clean_linker_0, # of connection points: 2
#     Edge 30, Type (0, 0), BuildingBlock: ZUJKAS_clean_linker_0, # of connection points: 2
#     Edge 31, Type (0, 0), BuildingBlock: ZUJKAS_clean_linker_0, # of connection points: 2
#     Edge 32, Type (0, 0), BuildingBlock: ZUJKAS_clean_linker_0, # of connection points: 2
#     Edge 33, Type (0, 0), BuildingBlock: ZUJKAS_clean_linker_0, # of connection points: 2
#     Edge 34, Type (0, 0), BuildingBlock: ZUJKAS_clean_linker_0, # of connection points: 2
#     Edge 35, Type (0, 0), BuildingBlock: ZUJKAS_clean_linker_0, # of connection points: 2
#     Edge 36, Type (0, 0), BuildingBlock: ZUJKAS_clean_linker_0, # of connection points: 2
#     Edge 37, Type (0, 0), BuildingBlock: ZUJKAS_clean_linker_0, # of connection points: 2
#     Edge 38, Type (0, 0), BuildingBlock: ZUJKAS_clean_linker_0, # of connection points: 2
#     Edge 39, Type (0, 0), BuildingBlock: ZUJKAS_clean_linker_0, # of connection points: 2
#     Edge 40, Type (0, 0), BuildingBlock: ZUJKAS_clean_linker_0, # of connection points: 2
#     Edge 41, Type (0, 0), BuildingBlock: ZUJKAS_clean_linker_0, # of connection points: 2
#     Edge 42, Type (0, 0), BuildingBlock: ZUJKAS_clean_linker_0, # of connection points: 2
#     Edge 43, Type (0, 0), BuildingBlock: ZUJKAS_clean_linker_0, # of connection points: 2
#     Edge 44, Type (0, 0), BuildingBlock: ZUJKAS_clean_linker_0, # of connection points: 2
#     Edge 45, Type (0, 0), BuildingBlock: ZUJKAS_clean_linker_0, # of connection points: 2
#     Edge 46, Type (0, 0), BuildingBlock: ZUJKAS_clean_linker_0, # of connection points: 2
#     Edge 47, Type (0, 0), BuildingBlock: ZUJKAS_clean_linker_0, # of connection points: 2
# Relax obj value: 0.095
# Max RMSD: 0.142
# Mean RMSD: 0.142
data_MOF--net-ume--node1-QUQFOY_clean_sbu_3--edge1-ZUJKAS_clean_linker_0
_symmetry_space_group_name_H-M    P1
_symmetry_Int_Tables_number       1
_symmetry_cell_setting            triclinic
loop_
_symmetry_equiv_pos_as_xyz
'x, y, z'
_cell_length_a     35.872346
_cell_length_b     35.86597
_cell_length_c     147.52556
_cell_angle_alpha  89.968961
_cell_angle_beta   89.961298
_cell_angle_gamma 90.011146
loop_
_atom_site_label
_atom_site_type_symbol
_atom_site_fract_x
_atom_site_fract_y
_atom_site_fract_z
_atom_type_partial_charge
C0 C 0.26842 0.20282 0.2841 0.0
O1 O 0.28837 0.2176 0.29024 0.0
Cd2 Cd 0.29889 0.18951 0.30475 0.0
O3 O 0.2526 0.17144 0.28538 0.0
Cd4 Cd 0.24361 0.12295 0.29697 0.0
C5 C 0.33676 0.10478 0.29818 0.0
O6 O 0.23832 0.16877 0.30874 0.0
O7 O 0.23748 0.11191 0.31338 0.0
O8 O 0.1801 0.12067 0.29133 0.0
C9 C 0.23556 0.1463 0.3153 0.0
O10 O 0.3399 0.13605 0.30221 0.0
C11 C 0.17754 0.0854 0.29117 0.0
O12 O 0.30549 0.09401 0.295 0.0
O13 O 0.20649 0.06713 0.2934 0.0
C14 C 0.78371 0.7525 0.53411 0.0
O15 O 0.76967 0.7733 0.54019 0.0
Cd16 Cd 0.79932 0.78372 0.55457 0.0
O17 O 0.81467 0.73603 0.53543 0.0
Cd18 Cd 0.86313 0.72759 0.54692 0.0
C19 C 0.88297 0.82043 0.54727 0.0
O20 O 0.81953 0.72366 0.55941 0.0
O21 O 0.87768 0.72484 0.56308 0.0
O22 O 0.8652 0.66281 0.54216 0.0
C23 C 0.84396 0.72226 0.56558 0.0
O24 O 0.85249 0.82455 0.55159 0.0
C25 C 0.90036 0.66118 0.54131 0.0
O26 O 0.8926 0.78862 0.54419 0.0
O27 O 0.91844 0.69104 0.5428 0.0
C28 C 0.24256 0.2901 0.78195 0.0
O29 O 0.21764 0.2734 0.78653 0.0
Cd30 Cd 0.19568 0.29765 0.80078 0.0
O31 O 0.25589 0.32105 0.78463 0.0
Cd32 Cd 0.25217 0.36628 0.79699 0.0
C33 C 0.15969 0.38293 0.79433 0.0
O34 O 0.24962 0.31881 0.80874 0.0
O35 O 0.24088 0.37566 0.81306 0.0
O36 O 0.31918 0.37061 0.79511 0.0
C37 C 0.24415 0.34155 0.81517 0.0
O38 O 0.15484 0.35065 0.79775 0.0
C39 C 0.32076 0.40585 0.79457 0.0
O40 O 0.19233 0.39489 0.79248 0.0
O41 O 0.29 0.42335 0.7951 0.0
C42 C 0.70574 0.73388 0.03372 0.0
O43 O 0.72273 0.71447 0.03962 0.0
Cd44 Cd 0.69649 0.70118 0.05419 0.0
O45 O 0.67388 0.74789 0.03543 0.0
Cd46 Cd 0.62755 0.75416 0.04762 0.0
C47 C 0.61274 0.66026 0.04814 0.0
O48 O 0.67448 0.76035 0.05927 0.0
O49 O 0.61759 0.75837 0.06398 0.0
O50 O 0.62202 0.81834 0.04256 0.0
C51 C 0.65191 0.76173 0.06585 0.0
O52 O 0.64541 0.65751 0.05146 0.0
C53 C 0.5867 0.81884 0.0422 0.0
O54 O 0.59964 0.6919 0.04582 0.0
O55 O 0.56996 0.78864 0.04416 0.0
C56 C 0.26181 0.29965 0.94104 0.0
O57 O 0.28377 0.28104 0.93604 0.0
Cd58 Cd 0.29975 0.30376 0.92122 0.0
O59 O 0.24855 0.33061 0.93835 0.0
Cd60 Cd 0.24764 0.3737 0.92551 0.0
C61 C 0.34092 0.388 0.92641 0.0
O62 O 0.24169 0.32309 0.9145 0.0
O63 O 0.24727 0.37895 0.90919 0.0
O64 O 0.18564 0.38265 0.93181 0.0
C65 C 0.24194 0.34461 0.90768 0.0
O66 O 0.34415 0.35464 0.92355 0.0
C67 C 0.18317 0.41693 0.9298 0.0
O68 O 0.30893 0.4017 0.92812 0.0
O69 O 0.21106 0.43163 0.92587 0.0
C70 C 0.70783 0.76629 0.19155 0.0
O71 O 0.72474 0.78756 0.18602 0.0
Cd72 Cd 0.69851 0.80437 0.17166 0.0
O73 O 0.67614 0.75256 0.18956 0.0
Cd74 Cd 0.63013 0.74963 0.17729 0.0
C75 C 0.61447 0.84308 0.17827 0.0
O76 O 0.6775 0.74628 0.16555 0.0
O77 O 0.62046 0.74896 0.16096 0.0
O78 O 0.62455 0.6851 0.18215 0.0
C79 C 0.65475 0.74613 0.159 0.0
O80 O 0.64712 0.84698 0.175 0.0
C81 C 0.58925 0.68375 0.18176 0.0
O82 O 0.60163 0.8108 0.1801 0.0
O83 O 0.57255 0.71357 0.17948 0.0
C84 C 0.24386 0.21227 0.43939 0.0
O85 O 0.22428 0.2288 0.43345 0.0
Cd86 Cd 0.21245 0.20186 0.41884 0.0
O87 O 0.25803 0.18038 0.43779 0.0
Cd88 Cd 0.26479 0.13233 0.42608 0.0
C89 C 0.17092 0.11826 0.42496 0.0
O90 O 0.27254 0.1794 0.41452 0.0
O91 O 0.27453 0.12251 0.40989 0.0
O92 O 0.32457 0.12555 0.43369 0.0
C93 C 0.27625 0.1569 0.40798 0.0
O94 O 0.16852 0.15074 0.42151 0.0
C95 C 0.32706 0.09062 0.43249 0.0
O96 O 0.20226 0.10527 0.42754 0.0
O97 O 0.29997 0.0747 0.42852 0.0
C98 C 0.79631 0.75151 0.69063 0.0
O99 O 0.7811 0.73068 0.68473 0.0
Cd100 Cd 0.80977 0.71584 0.67054 0.0
O101 O 0.82783 0.76671 0.68912 0.0
Cd102 Cd 0.87582 0.7738 0.67729 0.0
C103 C 0.89456 0.68058 0.67793 0.0
O104 O 0.83058 0.77497 0.66525 0.0
O105 O 0.88793 0.77592 0.66094 0.0
O106 O 0.87762 0.83873 0.68192 0.0
C107 C 0.85372 0.77627 0.6588 0.0
O108 O 0.86258 0.67562 0.67438 0.0
C109 C 0.91286 0.84109 0.68238 0.0
O110 O 0.90595 0.71322 0.67997 0.0
O111 O 0.93125 0.8116 0.68068 0.0
C112 C 0.75438 0.7097 0.78209 0.0
O113 O 0.77823 0.7263 0.787 0.0
Cd114 Cd 0.79795 0.70206 0.80141 0.0
O115 O 0.74052 0.67864 0.78454 0.0
Cd116 Cd 0.74237 0.63351 0.79699 0.0
C117 C 0.83531 0.61752 0.79494 0.0
O118 O 0.74247 0.68099 0.80871 0.0
O119 O 0.75163 0.62443 0.81318 0.0
O120 O 0.67568 0.62782 0.79457 0.0
C121 C 0.74715 0.65847 0.81522 0.0
O122 O 0.8397 0.64951 0.79854 0.0
C123 C 0.6749 0.59251 0.79421 0.0
O124 O 0.80292 0.60564 0.79284 0.0
O125 O 0.70594 0.57573 0.79503 0.0
C126 C 0.28881 0.26191 0.03425 0.0
O127 O 0.27237 0.28219 0.04006 0.0
Cd128 Cd 0.2986 0.29408 0.05471 0.0
O129 O 0.31984 0.24647 0.03609 0.0
Cd130 Cd 0.36506 0.23837 0.04842 0.0
C131 C 0.38421 0.33129 0.04873 0.0
O132 O 0.31759 0.2342 0.06012 0.0
O133 O 0.37473 0.23585 0.0647 0.0
O134 O 0.36724 0.17386 0.04351 0.0
C135 C 0.34044 0.23272 0.06665 0.0
O136 O 0.35169 0.33548 0.05206 0.0
C137 C 0.40248 0.17132 0.04323 0.0
O138 O 0.39588 0.29909 0.04641 0.0
O139 O 0.42085 0.20053 0.0452 0.0
C140 C 0.74235 0.78572 0.28434 0.0
O141 O 0.71904 0.76886 0.28937 0.0
Cd142 Cd 0.70416 0.79161 0.30431 0.0
O143 O 0.75739 0.81603 0.28691 0.0
Cd144 Cd 0.75962 0.86014 0.29946 0.0
C145 C 0.66588 0.87684 0.29913 0.0
O146 O 0.76261 0.81055 0.31062 0.0
O147 O 0.7608 0.86656 0.31594 0.0
O148 O 0.82457 0.86604 0.29509 0.0
C149 C 0.76313 0.83183 0.31745 0.0
O150 O 0.66186 0.84431 0.30245 0.0
C151 C 0.82525 0.90139 0.29493 0.0
O152 O 0.69798 0.88878 0.29679 0.0
O153 O 0.79497 0.91807 0.29683 0.0
C154 C 0.20236 0.23087 0.53127 0.0
O155 O 0.21973 0.20776 0.53623 0.0
Cd156 Cd 0.19401 0.18936 0.55064 0.0
O157 O 0.17073 0.24343 0.53366 0.0
Cd158 Cd 0.12464 0.24096 0.54578 0.0
C159 C 0.11161 0.14771 0.54427 0.0
O160 O 0.17118 0.24514 0.5577 0.0
O161 O 0.11452 0.23446 0.56198 0.0
O162 O 0.11892 0.30653 0.54229 0.0
C163 C 0.14804 0.24137 0.56412 0.0
O164 O 0.14364 0.14492 0.54793 0.0
C165 C 0.08364 0.30739 0.54188 0.0
O166 O 0.09865 0.17943 0.54197 0.0
O167 O 0.06665 0.27677 0.54324 0.0
C168 C 0.7637 0.80614 0.44154 0.0
O169 O 0.78561 0.78672 0.4367 0.0
Cd170 Cd 0.79979 0.80555 0.42144 0.0
O171 O 0.7497 0.8362 0.43849 0.0
Cd172 Cd 0.74618 0.8772 0.42529 0.0
C173 C 0.83998 0.89198 0.42487 0.0
O174 O 0.73996 0.82306 0.41551 0.0
O175 O 0.7376 0.87669 0.40892 0.0
O176 O 0.68724 0.88712 0.433 0.0
C177 C 0.73636 0.8415 0.40825 0.0
O178 O 0.84325 0.85779 0.42268 0.0
C179 C 0.68293 0.92053 0.43041 0.0
O180 O 0.80804 0.906 0.42652 0.0
O181 O 0.70836 0.93434 0.42544 0.0
C182 C 0.2183 0.27224 0.69062 0.0
O183 O 0.23549 0.2931 0.68506 0.0
Cd184 Cd 0.20682 0.31388 0.6713 0.0
O185 O 0.18556 0.26062 0.68886 0.0
Cd186 Cd 0.13789 0.26113 0.67692 0.0
C187 C 0.12505 0.35426 0.67906 0.0
O188 O 0.18153 0.25928 0.66434 0.0
O189 O 0.12392 0.27003 0.66096 0.0
O190 O 0.13195 0.19457 0.67946 0.0
C191 C 0.15702 0.26437 0.65829 0.0
O192 O 0.15736 0.35761 0.67555 0.0
C193 C 0.097 0.19449 0.68074 0.0
O194 O 0.11143 0.32215 0.68074 0.0
O195 O 0.08055 0.22584 0.68033 0.0
C196 C 0.74677 0.70973 0.94122 0.0
O197 O 0.72391 0.72746 0.93627 0.0
Cd198 Cd 0.70654 0.70353 0.92166 0.0
O199 O 0.76038 0.67881 0.93861 0.0
Cd200 Cd 0.76094 0.63464 0.92599 0.0
C201 C 0.66794 0.61858 0.92742 0.0
O202 O 0.76404 0.68434 0.91467 0.0
O203 O 0.75982 0.62786 0.90972 0.0
O204 O 0.82391 0.62731 0.93182 0.0
C205 C 0.76341 0.66224 0.90798 0.0
O206 O 0.66369 0.65169 0.92446 0.0
C207 C 0.8265 0.5928 0.93008 0.0
O208 O 0.70038 0.60572 0.92903 0.0
O209 O 0.7983 0.57726 0.92651 0.0
C210 C 0.29176 0.25161 0.19296 0.0
O211 O 0.2739 0.22779 0.18831 0.0
Cd212 Cd 0.29766 0.20511 0.17413 0.0
O213 O 0.32295 0.26416 0.19022 0.0
Cd214 Cd 0.36712 0.26132 0.17759 0.0
C215 C 0.38284 0.16873 0.18067 0.0
O216 O 0.31901 0.25893 0.166 0.0
O217 O 0.37585 0.25143 0.16151 0.0
O218 O 0.37206 0.32774 0.18034 0.0
C219 C 0.3416 0.25395 0.1595 0.0
O220 O 0.34973 0.16371 0.17779 0.0
C221 C 0.40738 0.32909 0.1803 0.0
O222 O 0.39582 0.20155 0.18174 0.0
O223 O 0.42454 0.29855 0.17899 0.0
H224 H 0.83537 0.97694 0.29359 0.0
H225 H 0.89398 0.01022 0.29081 0.0
H226 H 0.95231 0.90529 0.28915 0.0
H227 H 0.89401 0.87194 0.29171 0.0
H228 H 0.95574 0.00882 0.30136 0.0
H229 H 0.9921 0.95836 0.26702 0.0
H230 H 0.94621 0.95246 0.27184 0.0
H231 H 0.98331 0.92094 0.2748 0.0
C232 C 0.86062 0.96099 0.29251 0.0
C233 C 0.86005 0.92182 0.29285 0.0
C234 C 0.89406 0.98002 0.29093 0.0
C235 C 0.92741 0.96022 0.28961 0.0
C236 C 0.9268 0.92114 0.28989 0.0
H237 H 0.16208 0.01057 0.29122 0.0
H238 H 0.10058 0.98114 0.28998 0.0
C239 C 0.89344 0.90212 0.29144 0.0
C240 C 0.96334 0.98031 0.28865 0.0
H241 H 0.04143 0.98726 0.27547 0.0
C242 C 0.97424 0.00449 0.29564 0.0
C243 C 0.98751 0.97452 0.28119 0.0
C244 C 0.97655 0.95044 0.27324 0.0
C245 C 0.00913 0.02212 0.29552 0.0
C246 C 0.03358 0.01566 0.28817 0.0
C247 C 0.02258 0.99196 0.2811 0.0
C248 C 0.07097 0.03294 0.28785 0.0
C249 C 0.02007 0.04674 0.30337 0.0
C250 C 0.07463 0.07159 0.28679 0.0
C251 C 0.1096 0.08844 0.28747 0.0
C252 C 0.14155 0.06689 0.28925 0.0
C253 C 0.138 0.02792 0.28988 0.0
C254 C 0.10294 0.01108 0.28916 0.0
H255 H 1.00092 0.0435 0.30924 0.0
H256 H 0.04891 0.04035 0.30562 0.0
H257 H 0.01936 0.07634 0.30118 0.0
H258 H 0.05025 0.08883 0.28568 0.0
H259 H 0.11139 0.1185 0.28691 0.0
H260 H 0.86842 0.5927 0.53923 0.0
H261 H 0.90002 0.53264 0.53784 0.0
H262 H 0.00647 0.58854 0.53746 0.0
H263 H 0.97509 0.64882 0.53904 0.0
H264 H 0.94933 0.5025 0.52522 0.0
H265 H 0.01563 0.51778 0.55904 0.0
H266 H 0.97876 0.5481 0.55519 0.0
H267 H 0.02576 0.55511 0.55131 0.0
C268 C 0.89855 0.59229 0.53877 0.0
C269 C 0.91931 0.62548 0.53936 0.0
C270 C 0.91654 0.55792 0.53796 0.0
C271 C 0.95557 0.55612 0.53773 0.0
C272 C 0.97632 0.58931 0.53783 0.0
H273 H 0.11442 0.37561 0.53887 0.0
H274 H 0.08239 0.43515 0.53709 0.0
C275 C 0.95836 0.62373 0.53868 0.0
C276 C 0.97445 0.51941 0.53782 0.0
H277 H 0.03321 0.46522 0.55037 0.0
C278 C 0.96765 0.49428 0.53072 0.0
C279 C 0.99805 0.50869 0.54505 0.0
C280 C 0.00478 0.53364 0.55313 0.0
C281 C 0.98446 0.4589 0.53056 0.0
C282 C 0.00828 0.44842 0.53775 0.0
C283 C 0.015 0.4735 0.54485 0.0
C284 C 0.027 0.4117 0.53806 0.0
C285 C 0.97718 0.43324 0.52267 0.0
C286 C 0.00636 0.37874 0.53916 0.0
C287 C 0.02462 0.34451 0.54021 0.0
C288 C 0.06378 0.34285 0.54021 0.0
C289 C 0.08423 0.3759 0.53892 0.0
C290 C 0.06601 0.40998 0.53789 0.0
H291 H 0.96458 0.44825 0.51683 0.0
H292 H 0.00341 0.41971 0.52039 0.0
H293 H 0.95761 0.41096 0.52481 0.0
H294 H 0.9762 0.37963 0.53945 0.0
H295 H 0.00813 0.31955 0.54121 0.0
H296 H 0.60526 0.62228 0.79274 0.0
H297 H 0.54586 0.58918 0.79197 0.0
H298 H 0.60403 0.48398 0.79244 0.0
H299 H 0.66377 0.51695 0.79338 0.0
H300 H 0.51842 0.53811 0.7794 0.0
H301 H 0.53097 0.47475 0.81364 0.0
H302 H 0.56087 0.51209 0.80984 0.0
H303 H 0.56927 0.46506 0.80616 0.0
C304 C 0.6055 0.59209 0.79266 0.0
C305 C 0.63923 0.57221 0.7932 0.0
C306 C 0.5715 0.57323 0.7922 0.0
C307 C 0.57051 0.53416 0.7923 0.0
C308 C 0.60416 0.51417 0.79255 0.0
H309 H 0.38963 0.37424 0.79337 0.0
H310 H 0.44982 0.40567 0.79223 0.0
C311 C 0.63826 0.53303 0.79303 0.0
C312 C 0.53414 0.51456 0.79227 0.0
H313 H 0.47914 0.45644 0.80482 0.0
C314 C 0.50978 0.52026 0.78495 0.0
C315 C 0.52292 0.49143 0.79955 0.0
C316 C 0.54717 0.48564 0.80779 0.0
C317 C 0.47463 0.50302 0.78466 0.0
C318 C 0.46345 0.47994 0.79194 0.0
C319 C 0.48786 0.47413 0.79924 0.0
C320 C 0.4266 0.46131 0.79215 0.0
C321 C 0.45002 0.50911 0.77651 0.0
C322 C 0.39354 0.48224 0.79251 0.0
C323 C 0.35896 0.46433 0.79317 0.0
C324 C 0.35696 0.42521 0.79353 0.0
C325 C 0.39016 0.40441 0.79311 0.0
C326 C 0.42461 0.4223 0.79246 0.0
H327 H 0.46602 0.52002 0.77062 0.0
H328 H 0.43604 0.48278 0.77448 0.0
H329 H 0.42811 0.52976 0.77823 0.0
H330 H 0.39453 0.51242 0.79245 0.0
H331 H 0.3339 0.48111 0.79352 0.0
H332 H 0.36913 0.10498 0.03929 0.0
H333 H 0.39896 0.04429 0.03729 0.0
H334 H 0.50698 0.0951 0.04066 0.0
H335 H 0.47737 0.1562 0.04266 0.0
H336 H 0.49871 0.03903 0.0257 0.0
H337 H 0.44927 0.99048 0.05947 0.0
H338 H 0.41453 0.00998 0.05208 0.0
H339 H 0.451 0.03921 0.05642 0.0
C340 C 0.39926 0.10339 0.03953 0.0
C341 C 0.4209 0.13537 0.04121 0.0
C342 C 0.41621 0.06867 0.0384 0.0
C343 C 0.45506 0.06526 0.03894 0.0
C344 C 0.4769 0.09726 0.04025 0.0
H345 H 0.61615 0.88758 0.03889 0.0
H346 H 0.58279 0.94635 0.03709 0.0
C347 C 0.45996 0.13208 0.0414 0.0
C348 C 0.47268 0.02804 0.03857 0.0
H349 H 0.48175 0.94706 0.0505 0.0
C350 C 0.49504 0.01883 0.0311 0.0
C351 C 0.46758 0.00181 0.04562 0.0
C352 C 0.44453 0.01076 0.0539 0.0
C353 C 0.51238 0.9838 0.03047 0.0
C354 C 0.50783 0.95777 0.0376 0.0
C355 C 0.48508 0.96695 0.04502 0.0
C356 C 0.52783 0.9216 0.0378 0.0
C357 C 0.53498 0.97486 0.02212 0.0
C358 C 0.50805 0.88809 0.03891 0.0
C359 C 0.5271 0.85438 0.04006 0.0
C360 C 0.56627 0.85366 0.04014 0.0
C361 C 0.58596 0.88713 0.03881 0.0
C362 C 0.56692 0.92078 0.0377 0.0
H363 H 0.52604 0.99199 0.01623 0.0
H364 H 0.56475 0.98116 0.02346 0.0
H365 H 0.53258 0.94493 0.02028 0.0
H366 H 0.47786 0.88815 0.03907 0.0
H367 H 0.51115 0.82909 0.04108 0.0
H368 H 0.15636 0.47663 0.92045 0.0
H369 H 0.09585 0.50688 0.92235 0.0
H370 H 0.07219 0.4356 0.94525 0.0
H371 H 0.13173 0.40371 0.94297 0.0
H372 H 0.01509 0.43712 0.93524 0.0
H373 H 0.0593 0.58338 0.93924 0.0
H374 H 0.07692 0.56523 0.92878 0.0
H375 H 0.09224 0.54544 0.9394 0.0
C376 C 0.13843 0.46784 0.92597 0.0
C377 C 0.14866 0.43795 0.93158 0.0
C378 C 0.10394 0.48534 0.9271 0.0
C379 C 0.07963 0.47413 0.93407 0.0
C380 C 0.09041 0.44486 0.93983 0.0
H381 H 0.87929 0.60824 0.94277 0.0
H382 H 0.93915 0.57688 0.94496 0.0
C383 C 0.12445 0.42671 0.93855 0.0
C384 C 0.04191 0.49095 0.93491 0.0
H385 H 0.9954 0.57387 0.93468 0.0
C386 C 0.01087 0.46707 0.93527 0.0
C387 C 0.03616 0.52999 0.93515 0.0
C388 C 0.06801 0.55739 0.93573 0.0
C389 C 0.97437 0.48106 0.93553 0.0
C390 C 0.96859 0.52004 0.93497 0.0
C391 C 0.99964 0.54395 0.93495 0.0
C392 C 0.9308 0.53674 0.93418 0.0
C393 C 0.94259 0.45377 0.93652 0.0
C394 C 0.90588 0.52449 0.92746 0.0
C395 C 0.87122 0.5417 0.92638 0.0
C396 C 0.8614 0.57232 0.93179 0.0
C397 C 0.88625 0.58466 0.9385 0.0
C398 C 0.92047 0.56681 0.93974 0.0
H399 H 0.9516 0.42831 0.94021 0.0
H400 H 0.91866 0.46625 0.9402 0.0
H401 H 0.93309 0.44493 0.92969 0.0
H402 H 0.91359 0.50229 0.92286 0.0
H403 H 0.85278 0.53204 0.92106 0.0
H404 H 0.37773 0.39544 0.18564 0.0
H405 H 0.40958 0.45546 0.18706 0.0
H406 H 0.51328 0.40404 0.17922 0.0
H407 H 0.48171 0.34355 0.17784 0.0
H408 H 0.48333 0.47147 0.1981 0.0
H409 H 0.48541 0.49533 0.16076 0.0
H410 H 0.45151 0.46518 0.16609 0.0
H411 H 0.49895 0.45017 0.165 0.0
C412 C 0.40737 0.39679 0.18427 0.0
C413 C 0.42721 0.36482 0.18158 0.0
C414 C 0.42548 0.43106 0.18511 0.0
C415 C 0.46361 0.434 0.18322 0.0
C416 C 0.48375 0.40213 0.1807 0.0
H417 H 0.61725 0.61863 0.18847 0.0
H418 H 0.5855 0.55843 0.18959 0.0
C419 C 0.4657 0.36769 0.17992 0.0
C420 C 0.48186 0.47085 0.18352 0.0
H421 H 0.51269 0.54148 0.16996 0.0
C422 C 0.48992 0.48682 0.19197 0.0
C423 C 0.4899 0.49072 0.17549 0.0
C424 C 0.48094 0.47477 0.16629 0.0
C425 C 0.50628 0.52231 0.19258 0.0
C426 C 0.5146 0.54205 0.18454 0.0
C427 C 0.50621 0.52616 0.1761 0.0
C428 C 0.5326 0.5791 0.18469 0.0
C429 C 0.51415 0.53873 0.20179 0.0
C430 C 0.51319 0.61059 0.1816 0.0
C431 C 0.53118 0.64508 0.18099 0.0
C432 C 0.56901 0.64843 0.18333 0.0
C433 C 0.58808 0.61694 0.18661 0.0
C434 C 0.56999 0.58256 0.1873 0.0
H435 H 0.49989 0.52308 0.2073 0.0
H436 H 0.54461 0.53792 0.20309 0.0
H437 H 0.50515 0.56834 0.20205 0.0
H438 H 0.48433 0.6083 0.17952 0.0
H439 H 0.51579 0.66879 0.1784 0.0
H440 H 0.35288 0.02617 0.4251 0.0
H441 H 0.41369 0.99747 0.42751 0.0
H442 H 0.43907 0.0798 0.44794 0.0
H443 H 0.37897 0.10993 0.44513 0.0
H444 H 0.49435 0.07491 0.43731 0.0
H445 H 0.4559 0.93066 0.446 0.0
H446 H 0.43507 0.94283 0.43538 0.0
H447 H 0.42175 0.96751 0.44555 0.0
C448 C 0.37115 0.03769 0.43023 0.0
C449 C 0.36127 0.07022 0.43494 0.0
C450 C 0.40585 0.02109 0.43166 0.0
C451 C 0.43084 0.03597 0.43804 0.0
C452 C 0.4203 0.0677 0.443 0.0
H453 H 0.63771 0.90983 0.44499 0.0
H454 H 0.57877 0.94125 0.44832 0.0
C455 C 0.38594 0.08485 0.44141 0.0
C456 C 0.46916 0.02064 0.43886 0.0
H457 H 0.51786 0.93909 0.43969 0.0
C458 C 0.49947 0.04524 0.43801 0.0
C459 C 0.47615 0.98207 0.43998 0.0
C460 C 0.44542 0.95441 0.44189 0.0
C461 C 0.53631 0.0322 0.43779 0.0
C462 C 0.54301 0.99332 0.43801 0.0
C463 C 0.51285 0.96888 0.43933 0.0
C464 C 0.58065 0.97717 0.43652 0.0
C465 C 0.56751 0.06038 0.43736 0.0
C466 C 0.60166 0.98711 0.42883 0.0
C467 C 0.63581 0.96987 0.42706 0.0
C468 C 0.64897 0.9415 0.43277 0.0
C469 C 0.62812 0.93163 0.44047 0.0
C470 C 0.59443 0.94951 0.44237 0.0
H471 H 0.55933 0.08688 0.44072 0.0
H472 H 0.59326 0.04979 0.44065 0.0
H473 H 0.57374 0.06691 0.43017 0.0
H474 H 0.59114 0.00736 0.42403 0.0
H475 H 0.65111 0.97761 0.42101 0.0
H476 H 0.12575 0.1242 0.6812 0.0
H477 H 0.09208 0.06551 0.68302 0.0
H478 H 0.98884 0.12592 0.68595 0.0
H479 H 0.0223 0.18497 0.68396 0.0
H480 H 0.04775 0.03862 0.69706 0.0
H481 H 0.96674 0.054 0.66517 0.0
H482 H 0.00632 0.08308 0.66779 0.0
H483 H 0.96191 0.09197 0.67301 0.0
C484 C 0.09587 0.12508 0.68225 0.0
C485 C 0.07661 0.15924 0.68236 0.0
C486 C 0.07671 0.09149 0.68331 0.0
C487 C 0.03793 0.09134 0.68449 0.0
C488 C 0.0187 0.12541 0.68488 0.0
H489 H 0.87975 0.90779 0.6861 0.0
H490 H 0.90979 0.96858 0.68769 0.0
C491 C 0.03786 0.15911 0.68378 0.0
C492 C 0.01778 0.05536 0.68509 0.0
H493 H 0.95347 0.00141 0.67421 0.0
C494 C 0.02705 0.03048 0.69209 0.0
C495 C 0.99089 0.04481 0.67856 0.0
C496 C 0.98102 0.06966 0.67066 0.0
C497 C 0.01002 0.99532 0.69275 0.0
C498 C 0.98343 0.98469 0.68618 0.0
C499 C 0.9738 0.00975 0.67926 0.0
C500 C 0.96586 0.94733 0.68615 0.0
C501 C 0.02039 0.96997 0.70051 0.0
C502 C 0.9875 0.91517 0.68483 0.0
C503 C 0.97041 0.88032 0.68391 0.0
C504 C 0.93137 0.87712 0.68424 0.0
C505 C 0.90988 0.90929 0.6858 0.0
C506 C 0.92697 0.94406 0.68671 0.0
H507 H 0.03334 0.98568 0.70619 0.0
H508 H 0.99557 0.95486 0.70312 0.0
H509 H 0.04086 0.94901 0.6981 0.0
H510 H 0.01751 0.91719 0.6842 0.0
H511 H 0.98771 0.85609 0.68267 0.0
H512 H 0.60095 0.87313 0.30862 0.0
H513 H 0.54568 0.91199 0.30691 0.0
H514 H 0.59926 0.97258 0.28523 0.0
H515 H 0.65564 0.93483 0.28726 0.0
H516 H 0.56493 0.01912 0.29546 0.0
H517 H 0.46571 0.90525 0.2886 0.0
H518 H 0.48834 0.89747 0.29925 0.0
H519 H 0.51536 0.89759 0.28892 0.0
C520 C 0.60094 0.89464 0.30346 0.0
C521 C 0.63256 0.90076 0.29803 0.0
C522 C 0.56912 0.91663 0.30242 0.0
C523 C 0.5677 0.94452 0.29575 0.0
C524 C 0.59946 0.951 0.29038 0.0
H525 H 0.35095 0.05107 0.2854 0.0
H526 H 0.40779 0.01368 0.28374 0.0
C527 C 0.63169 0.92947 0.29154 0.0
C528 C 0.53367 0.9679 0.2947 0.0
H529 H 0.43866 0.96333 0.29361 0.0
C530 C 0.53738 0.00687 0.29493 0.0
C531 C 0.49762 0.95217 0.29376 0.0
C532 C 0.49159 0.91084 0.29251 0.0
C533 C 0.5061 0.03038 0.29466 0.0
C534 C 0.46991 0.0145 0.29455 0.0
C535 C 0.46627 0.97561 0.29389 0.0
C536 C 0.43558 0.03756 0.29541 0.0
C537 C 0.51239 0.07198 0.2944 0.0
C538 C 0.43184 0.06291 0.3026 0.0
C539 C 0.39981 0.08474 0.30345 0.0
C540 C 0.37023 0.08091 0.29728 0.0
C541 C 0.37331 0.05463 0.29025 0.0
C542 C 0.4058 0.0333 0.2893 0.0
H543 H 0.5395 0.07885 0.29116 0.0
H544 H 0.48989 0.08655 0.29065 0.0
H545 H 0.51326 0.08288 0.30144 0.0
H546 H 0.45363 0.06572 0.30763 0.0
H547 H 0.39803 0.1043 0.30902 0.0
H548 H 0.88641 0.88325 0.55755 0.0
H549 H 0.9254 0.93807 0.55519 0.0
H550 H 0.97203 0.88782 0.53114 0.0
H551 H 0.9343 0.83183 0.53377 0.0
H552 H 0.02466 0.91948 0.5401 0.0
H553 H 0.91004 0.02142 0.53806 0.0
H554 H 0.90766 0.99688 0.54862 0.0
H555 H 0.90165 0.97186 0.53811 0.0
C556 C 0.90489 0.8839 0.55174 0.0
C557 C 0.90711 0.85334 0.54581 0.0
C558 C 0.92693 0.91546 0.55034 0.0
C559 C 0.95085 0.91772 0.54282 0.0
C560 C 0.95352 0.88696 0.53695 0.0
H561 H 0.05366 0.13627 0.53246 0.0
H562 H 0.01615 0.07955 0.53071 0.0
C563 C 0.932 0.85496 0.53845 0.0
C564 C 0.97412 0.95155 0.54136 0.0
H565 H 0.97082 0.04669 0.54151 0.0
C566 C 0.01278 0.94728 0.54027 0.0
C567 C 0.95871 0.98794 0.54132 0.0
C568 C 0.91719 0.99475 0.54148 0.0
C569 C 0.03654 0.97828 0.53961 0.0
C570 C 0.02145 0.01463 0.54044 0.0
C571 C 0.98262 0.01891 0.54105 0.0
C572 C 0.04539 0.04842 0.5411 0.0
C573 C 0.07752 0.97153 0.53797 0.0
C574 C 0.07407 0.05006 0.54756 0.0
C575 C 0.09593 0.08205 0.54842 0.0
C576 C 0.08891 0.11362 0.54304 0.0
C577 C 0.05975 0.11235 0.53669 0.0
C578 C 0.03832 0.07995 0.53569 0.0
H579 H 0.08204 0.94526 0.53414 0.0
H580 H 0.09052 0.99482 0.53415 0.0
H581 H 0.09197 0.96859 0.54458 0.0
H582 H 0.07923 0.0268 0.55206 0.0
H583 H 0.11778 0.08234 0.55349 0.0
H584 H 0.14998 0.43902 0.78186 0.0
H585 H 0.09478 0.47863 0.77991 0.0
H586 H 0.04128 0.42246 0.80231 0.0
H587 H 0.09508 0.3816 0.80388 0.0
H588 H 0.99314 0.43206 0.78984 0.0
H589 H 0.06657 0.56683 0.79435 0.0
H590 H 0.08347 0.54072 0.78484 0.0
H591 H 0.08936 0.52272 0.79616 0.0
C592 C 0.12634 0.43521 0.78634 0.0
C593 C 0.12683 0.40727 0.79302 0.0
C594 C 0.09492 0.45805 0.78528 0.0
C595 C 0.064 0.45418 0.79108 0.0
C596 C 0.06462 0.4261 0.79772 0.0
H597 H 0.89918 0.61749 0.80479 0.0
H598 H 0.95341 0.57723 0.80301 0.0
C599 C 0.09547 0.40275 0.79863 0.0
C600 C 0.03072 0.47887 0.79033 0.0
H601 H 0.00265 0.56985 0.79066 0.0
C602 C 0.99525 0.46222 0.79003 0.0
C603 C 0.03333 0.51826 0.79065 0.0
C604 C 0.07019 0.5382 0.79161 0.0
C605 C 0.96246 0.48359 0.79034 0.0
C606 C 0.96507 0.523 0.7905 0.0
C607 C 1.00054 0.53968 0.7905 0.0
C608 C 0.93168 0.54747 0.79137 0.0
C609 C 0.92558 0.46345 0.79098 0.0
C610 C 0.90122 0.54452 0.78541 0.0
C611 C 0.86957 0.56692 0.7866 0.0
C612 C 0.8684 0.59357 0.79357 0.0
C613 C 0.89932 0.59729 0.79934 0.0
C614 C 0.93041 0.5743 0.7983 0.0
H615 H 0.92908 0.43438 0.79345 0.0
H616 H 0.90609 0.47809 0.79562 0.0
H617 H 0.91272 0.46208 0.78415 0.0
H618 H 0.90188 0.52498 0.77983 0.0
H619 H 0.84631 0.56381 0.78198 0.0
H620 H 0.6354 0.58794 0.04996 0.0
H621 H 0.59762 0.53158 0.04885 0.0
H622 H 0.50028 0.59838 0.04332 0.0
H623 H 0.53814 0.65504 0.04419 0.0
H624 H 0.53983 0.5111 0.05927 0.0
H625 H 0.49323 0.52108 0.02353 0.0
H626 H 0.53024 0.54967 0.02803 0.0
H627 H 0.48228 0.56182 0.03006 0.0
C628 C 0.60601 0.59073 0.04842 0.0
C629 C 0.58982 0.62608 0.04714 0.0
C630 C 0.58444 0.55842 0.0478 0.0
C631 C 0.54621 0.56066 0.04588 0.0
C632 C 0.5299 0.59587 0.04459 0.0
H633 H 0.36512 0.40451 0.05088 0.0
H634 H 0.40561 0.45913 0.04978 0.0
C635 C 0.55155 0.62828 0.04514 0.0
C636 C 0.52325 0.5262 0.04572 0.0
H637 H 0.46263 0.47561 0.03275 0.0
C638 C 0.52323 0.50321 0.05344 0.0
C639 C 0.50166 0.51582 0.03809 0.0
C640 C 0.50206 0.53818 0.02943 0.0
C641 C 0.50164 0.47061 0.0538 0.0
C642 C 0.47953 0.46079 0.04626 0.0
C643 C 0.47967 0.48343 0.03851 0.0
C644 C 0.45511 0.42764 0.04648 0.0
C645 C 0.50195 0.44707 0.06227 0.0
C646 C 0.46967 0.39194 0.0449 0.0
C647 C 0.44659 0.36054 0.04548 0.0
C648 C 0.40863 0.36441 0.04771 0.0
C649 C 0.39421 0.40043 0.04918 0.0
C650 C 0.41723 0.43172 0.04854 0.0
H651 H 0.51926 0.45952 0.06773 0.0
H652 H 0.47305 0.44344 0.06483 0.0
H653 H 0.51304 0.41895 0.06066 0.0
H654 H 0.49894 0.38839 0.0433 0.0
H655 H 0.4586 0.33326 0.04431 0.0
H656 H 0.34517 0.46344 0.92921 0.0
H657 H 0.40152 0.50175 0.93017 0.0
H658 H 0.4695 0.40326 0.92736 0.0
H659 H 0.4135 0.36493 0.92616 0.0
H660 H 0.46006 0.50156 0.94199 0.0
H661 H 0.50987 0.4685 0.90731 0.0
H662 H 0.46358 0.4568 0.91116 0.0
H663 H 0.50262 0.42785 0.91418 0.0
C664 C 0.37211 0.44992 0.92881 0.0
C665 C 0.37482 0.41117 0.92751 0.0
C666 C 0.40428 0.47186 0.92936 0.0
C667 C 0.4397 0.45546 0.92864 0.0
C668 C 0.44247 0.41665 0.92767 0.0
H669 H 0.6659 0.54306 0.93023 0.0
H670 H 0.6106 0.50313 0.93122 0.0
C671 C 0.41038 0.39475 0.92704 0.0
C672 C 0.47373 0.47893 0.92888 0.0
H673 H 0.55179 0.50168 0.9168 0.0
C674 C 0.48005 0.50168 0.93647 0.0
C675 C 0.49974 0.47915 0.92165 0.0
C676 C 0.49351 0.45706 0.91307 0.0
C677 C 0.51193 0.52428 0.93707 0.0
C678 C 0.53799 0.52413 0.92989 0.0
C679 C 0.53181 0.50137 0.92232 0.0
C680 C 0.57124 0.54848 0.92993 0.0
C681 C 0.5178 0.54794 0.9454 0.0
C682 C 0.56726 0.5871 0.92887 0.0
C683 C 0.59869 0.60993 0.92823 0.0
C684 C 0.63474 0.59454 0.92866 0.0
C685 C 0.63858 0.55583 0.92991 0.0
C686 C 0.60706 0.53297 0.93046 0.0
H687 H 0.49896 0.53969 0.95104 0.0
H688 H 0.54713 0.54589 0.94776 0.0
H689 H 0.5122 0.57756 0.9437 0.0
H690 H 0.5398 0.59948 0.92833 0.0
H691 H 0.59471 0.63962 0.92728 0.0
H692 H 0.53948 0.8464 0.18189 0.0
H693 H 0.50078 0.90238 0.18332 0.0
H694 H 0.59807 0.97144 0.17966 0.0
H695 H 0.63669 0.91589 0.17799 0.0
H696 H 0.50217 0.96122 0.19517 0.0
H697 H 0.52951 0.01102 0.1602 0.0
H698 H 0.54208 0.96482 0.16394 0.0
H699 H 0.57129 0.00406 0.16665 0.0
C700 C 0.55264 0.87351 0.1814 0.0
C701 C 0.59111 0.87665 0.17972 0.0
C702 C 0.53049 0.90547 0.18223 0.0
C703 C 0.54642 0.94108 0.1814 0.0
C704 C 0.58501 0.94426 0.18007 0.0
H705 H 0.45866 0.16718 0.183 0.0
H706 H 0.49876 0.11203 0.18405 0.0
C707 C 0.60708 0.91242 0.17916 0.0
C708 C 0.52271 0.97495 0.18186 0.0
H709 H 0.498 0.05299 0.17001 0.0
C710 C 0.50115 0.98122 0.18966 0.0
C711 C 0.52129 1.00097 0.17464 0.0
C712 C 0.54198 0.99477 0.16585 0.0
C713 C 0.47865 0.01311 0.19049 0.0
C714 C 0.47767 0.03923 0.18332 0.0
C715 C 0.4992 0.03303 0.17553 0.0
C716 C 0.45329 0.07249 0.18356 0.0
C717 C 0.45637 0.01895 0.19904 0.0
C718 C 0.41451 0.06839 0.18299 0.0
C719 C 0.39157 0.09974 0.18232 0.0
C720 C 0.407 0.13583 0.18224 0.0
C721 C 0.44586 0.13984 0.18309 0.0
C722 C 0.46882 0.10839 0.18367 0.0
H723 H 0.46585 1.00041 0.20462 0.0
H724 H 0.45838 0.04838 0.20132 0.0
H725 H 0.42658 0.01283 0.19766 0.0
H726 H 0.40207 0.04088 0.18277 0.0
H727 H 0.36177 0.09562 0.18169 0.0
H728 H 0.84417 0.96812 0.42638 0.0
H729 H 0.90052 0.00668 0.42669 0.0
H730 H 0.96854 0.90774 0.42518 0.0
H731 H 0.9126 0.86915 0.42463 0.0
H732 H 0.95846 0.00907 0.43855 0.0
H733 H 0.01017 0.96859 0.40454 0.0
H734 H 0.96369 0.95764 0.40838 0.0
H735 H 0.00258 0.92929 0.41183 0.0
C736 C 0.87113 0.95458 0.4261 0.0
C737 C 0.87385 0.91556 0.42539 0.0
C738 C 0.90329 0.97665 0.42628 0.0
C739 C 0.93873 0.96014 0.42577 0.0
C740 C 0.94151 0.92117 0.42532 0.0
H741 H 0.16587 0.0436 0.42881 0.0
H742 H 0.10926 0.00537 0.42944 0.0
C743 C 0.90944 0.89912 0.42506 0.0
C744 C 0.97283 0.98357 0.4258 0.0
H745 H 0.05234 0.00252 0.41388 0.0
C746 C 0.97887 0.00779 0.43314 0.0
C747 C 0.99941 0.98196 0.41871 0.0
C748 C 0.99352 0.95826 0.41038 0.0
C749 C 0.01109 0.02995 0.43363 0.0
C750 C 0.03782 0.02779 0.42662 0.0
C751 C 0.03183 0.00373 0.41929 0.0
C752 C 0.07177 0.05114 0.42664 0.0
C753 C 0.01668 0.05524 0.44168 0.0
C754 C 0.06924 0.0894 0.42483 0.0
C755 C 0.10144 0.11124 0.42439 0.0
C756 C 0.13678 0.0952 0.42579 0.0
C757 C 0.13911 0.05685 0.42773 0.0
C758 C 0.10686 0.03496 0.42808 0.0
H759 H 0.99638 0.04943 0.4472 0.0
H760 H 0.04538 0.05211 0.4444 0.0
H761 H 0.01323 0.08466 0.43951 0.0
H762 H 0.04236 0.10225 0.42362 0.0
H763 H 0.0986 0.14067 0.42289 0.0
H764 H 0.04981 0.35901 0.68212 0.0
H765 H 0.01202 0.41572 0.68311 0.0
H766 H 0.11138 0.48282 0.68085 0.0
H767 H 0.14917 0.42645 0.67959 0.0
H768 H 0.01057 0.47496 0.69466 0.0
H769 H 0.04962 0.52247 0.66014 0.0
H770 H 0.0604 0.47637 0.66426 0.0
H771 H 0.08906 0.51546 0.66741 0.0
C772 C 0.06364 0.38584 0.68189 0.0
C773 C 0.10245 0.38821 0.68066 0.0
C774 C 0.042 0.41822 0.68245 0.0
C775 C 0.05879 0.45351 0.68182 0.0
C776 C 0.09771 0.45592 0.68107 0.0
H777 H 0.96936 0.6798 0.68182 0.0
H778 H 0.00977 0.62507 0.68351 0.0
C779 C 0.11929 0.42363 0.68041 0.0
C780 C 0.03555 0.48775 0.68174 0.0
H781 H 0.01486 0.56492 0.66911 0.0
C782 C 0.01147 0.49459 0.68907 0.0
C783 C 0.03657 0.51327 0.67441 0.0
C784 C 0.06001 0.50641 0.66607 0.0
C785 C 0.98872 0.52647 0.68929 0.0
C786 C 0.99012 0.55202 0.68201 0.0
C787 C 0.01425 0.54537 0.67472 0.0
C788 C 0.96543 0.585 0.6816 0.0
C789 C 0.96342 0.53281 0.69731 0.0
C790 C 0.92724 0.58042 0.67995 0.0
C791 C 0.9042 0.6115 0.6789 0.0
C792 C 0.9189 0.6478 0.67951 0.0
C793 C 0.95713 0.65226 0.68134 0.0
C794 C 0.98026 0.62108 0.6823 0.0
H795 H 0.97046 0.51424 0.7031 0.0
H796 H 0.96509 0.56226 0.6996 0.0
H797 H 0.93417 0.52721 0.69528 0.0
H798 H 0.91541 0.55276 0.67928 0.0
H799 H 0.87488 0.60703 0.67751 0.0
H800 H 0.22106 0.10598 0.33053 0.0
H801 H 0.22612 0.12705 0.34625 0.0
H802 H 0.25637 0.23716 0.33707 0.0
H803 H 0.25093 0.21649 0.3213 0.0
H804 H 0.30748 0.198 0.35002 0.0
H805 H 0.15978 0.20384 0.36115 0.0
H806 H 0.17171 0.16324 0.35461 0.0
H807 H 0.1737 0.20852 0.34942 0.0
C808 C 0.22829 0.13478 0.33186 0.0
C809 C 0.23571 0.15957 0.32472 0.0
C810 C 0.23094 0.14682 0.34082 0.0
C811 C 0.24124 0.18368 0.34275 0.0
C812 C 0.24805 0.20872 0.33566 0.0
H813 H 0.25582 0.22494 0.40134 0.0
H814 H 0.251 0.24295 0.38533 0.0
C815 C 0.24495 0.19683 0.32669 0.0
C816 C 0.24818 0.19455 0.3522 0.0
H817 H 0.20586 0.19648 0.37285 0.0
C818 C 0.28527 0.19873 0.35501 0.0
C819 C 0.21905 0.19586 0.35862 0.0
C820 C 0.17874 0.19297 0.35581 0.0
C821 C 0.29419 0.20087 0.36423 0.0
C822 C 0.26524 0.19873 0.37069 0.0
C823 C 0.22797 0.19796 0.36784 0.0
C824 C 0.27303 0.19082 0.38028 0.0
C825 C 0.33453 0.20324 0.36704 0.0
C826 C 0.28716 0.15571 0.38264 0.0
C827 C 0.28938 0.14518 0.3917 0.0
C828 C 0.27773 0.16974 0.39854 0.0
C829 C 0.26512 0.20558 0.39619 0.0
C830 C 0.26237 0.21591 0.38708 0.0
H831 H 0.35212 0.21507 0.36154 0.0
H832 H 0.33775 0.22059 0.37322 0.0
H833 H 0.34493 0.1748 0.36859 0.0
H834 H 0.29493 0.13582 0.37745 0.0
H835 H 0.2993 0.11745 0.39335 0.0
H836 H 0.88877 0.70742 0.57997 0.0
H837 H 0.87321 0.71346 0.59603 0.0
H838 H 0.76086 0.74509 0.58905 0.0
H839 H 0.77603 0.73861 0.5729 0.0
H840 H 0.806 0.79642 0.60089 0.0
H841 H 0.8006 0.64964 0.6128 0.0
H842 H 0.83879 0.66024 0.60532 0.0
H843 H 0.79182 0.66288 0.60116 0.0
C844 C 0.86062 0.71512 0.58185 0.0
C845 C 0.83364 0.72267 0.57522 0.0
C846 C 0.85172 0.71833 0.59101 0.0
C847 C 0.81585 0.72935 0.59366 0.0
C848 C 0.78857 0.7362 0.58708 0.0
H849 H 0.78506 0.75645 0.65247 0.0
H850 H 0.76669 0.74748 0.63661 0.0
C851 C 0.79731 0.7325 0.5779 0.0
C852 C 0.80855 0.7372 0.60327 0.0
H853 H 0.81229 0.69641 0.6241 0.0
C854 C 0.80636 0.77459 0.60599 0.0
C855 C 0.80882 0.70856 0.60983 0.0
C856 C 0.80981 0.668 0.60716 0.0
C857 C 0.80745 0.78419 0.61518 0.0
C858 C 0.81076 0.75564 0.62171 0.0
C859 C 0.80994 0.71817 0.61902 0.0
C860 C 0.82017 0.76408 0.63118 0.0
C861 C 0.807 0.82476 0.61786 0.0
C862 C 0.85625 0.77632 0.63327 0.0
C863 C 0.86697 0.78099 0.64227 0.0
C864 C 0.84161 0.7737 0.6493 0.0
C865 C 0.8051 0.7624 0.64717 0.0
C866 C 0.79455 0.75726 0.63815 0.0
H867 H 0.79582 0.84267 0.61235 0.0
H868 H 0.78997 0.82895 0.62407 0.0
H869 H 0.83589 0.83391 0.61937 0.0
H870 H 0.87643 0.78127 0.62793 0.0
H871 H 0.89522 0.7898 0.64373 0.0
H872 H 0.25274 0.27086 0.82184 0.0
H873 H 0.24361 0.25012 0.83755 0.0
H874 H 0.2138 0.36225 0.84523 0.0
H875 H 0.22279 0.38313 0.82966 0.0
H876 H 0.2823 0.27879 0.85282 0.0
H877 H 0.13036 0.2982 0.85648 0.0
H878 H 0.15287 0.29355 0.84557 0.0
H879 H 0.15188 0.33795 0.85126 0.0
C880 C 0.24397 0.29098 0.82688 0.0
C881 C 0.23846 0.32862 0.82454 0.0
C882 C 0.23866 0.27905 0.83581 0.0
C883 C 0.22725 0.30451 0.84246 0.0
C884 C 0.22168 0.34201 0.84012 0.0
H885 H 0.23367 0.38584 0.89241 0.0
H886 H 0.22647 0.36347 0.87692 0.0
C887 C 0.2272 0.35397 0.83125 0.0
C888 C 0.22417 0.29343 0.85205 0.0
H889 H 0.16731 0.30647 0.87026 0.0
C890 C 0.25688 0.2834 0.85664 0.0
C891 C 0.19084 0.29907 0.85696 0.0
C892 C 0.15441 0.30739 0.85229 0.0
C893 C 0.25807 0.28317 0.86614 0.0
C894 C 0.22573 0.29305 0.87104 0.0
C895 C 0.19211 0.29915 0.86644 0.0
C896 C 0.22823 0.30504 0.88054 0.0
C897 C 0.29462 0.27602 0.87088 0.0
C898 C 0.23138 0.27937 0.88766 0.0
C899 C 0.23548 0.2921 0.89657 0.0
C900 C 0.23665 0.3306 0.8984 0.0
C901 C 0.23304 0.35604 0.89122 0.0
C902 C 0.22877 0.34334 0.88238 0.0
H903 H 0.31699 0.26762 0.86609 0.0
H904 H 0.30363 0.30162 0.8745 0.0
H905 H 0.29104 0.25367 0.87601 0.0
H906 H 0.23099 0.24969 0.88631 0.0
H907 H 0.23818 0.27191 0.90199 0.0
H908 H 0.61112 0.77948 0.08075 0.0
H909 H 0.63187 0.77951 0.09652 0.0
H910 H 0.7426 0.7482 0.08806 0.0
H911 H 0.72221 0.74868 0.07217 0.0
H912 H 0.70116 0.70066 0.10212 0.0
H913 H 0.70965 0.85176 0.10998 0.0
H914 H 0.66976 0.83823 0.10337 0.0
H915 H 0.71569 0.83336 0.09866 0.0
C916 C 0.63998 0.77303 0.08223 0.0
C917 C 0.66505 0.76399 0.07527 0.0
C918 C 0.65182 0.77329 0.09122 0.0
C919 C 0.68877 0.76424 0.09337 0.0
C920 C 0.71408 0.75563 0.08646 0.0
H921 H 0.72469 0.76048 0.15253 0.0
H922 H 0.74422 0.76236 0.13656 0.0
C923 C 0.70238 0.75589 0.07743 0.0
C924 C 0.69931 0.7606 0.10295 0.0
H925 H 0.69947 0.81036 0.1226 0.0
C926 C 0.70202 0.72461 0.1066 0.0
C927 C 0.70063 0.79196 0.10871 0.0
C928 C 0.69911 0.83109 0.105 0.0
C929 C 0.70245 0.71913 0.116 0.0
C930 C 0.7002 0.75041 0.12177 0.0
C931 C 0.70107 0.78648 0.11811 0.0
C932 C 0.69023 0.74628 0.13137 0.0
C933 C 0.70275 0.67998 0.11973 0.0
C934 C 0.65348 0.73675 0.13361 0.0
C935 C 0.64213 0.73621 0.14263 0.0
C936 C 0.6675 0.74491 0.14954 0.0
C937 C 0.70464 0.75353 0.1473 0.0
C938 C 0.71586 0.7546 0.13823 0.0
H939 H 0.71338 0.65966 0.11466 0.0
H940 H 0.72017 0.67836 0.12594 0.0
H941 H 0.67388 0.67184 0.12158 0.0
H942 H 0.63332 0.73068 0.12834 0.0
H943 H 0.61346 0.72936 0.14417 0.0
H944 H 0.73476 0.72878 0.82173 0.0
H945 H 0.74283 0.75058 0.83738 0.0
H946 H 0.77732 0.6402 0.84539 0.0
H947 H 0.76921 0.61818 0.82988 0.0
H948 H 0.70602 0.7183 0.85333 0.0
H949 H 0.85986 0.71171 0.85533 0.0
H950 H 0.83503 0.71546 0.8447 0.0
H951 H 0.83993 0.67092 0.8502 0.0
C952 C 0.74418 0.70924 0.82684 0.0
C953 C 0.75144 0.67179 0.8246 0.0
C954 C 0.74884 0.72177 0.83573 0.0
C955 C 0.76135 0.69712 0.84244 0.0
C956 C 0.76839 0.65976 0.84023 0.0
H957 H 0.7705 0.62015 0.89282 0.0
H958 H 0.77218 0.6414 0.87714 0.0
C959 C 0.76346 0.64717 0.83139 0.0
C960 C 0.76505 0.70905 0.85194 0.0
H961 H 0.8263 0.70296 0.8695 0.0
C962 C 0.73245 0.7164 0.85687 0.0
C963 C 0.79965 0.70686 0.85647 0.0
C964 C 0.83568 0.70118 0.85138 0.0
C965 C 0.73308 0.71744 0.86637 0.0
C966 C 0.76712 0.71112 0.87091 0.0
C967 C 0.80024 0.70764 0.86595 0.0
C968 C 0.7676 0.69993 0.88049 0.0
C969 C 0.69699 0.72162 0.87152 0.0
C970 C 0.76471 0.72606 0.88751 0.0
C971 C 0.76383 0.71398 0.89653 0.0
C972 C 0.76562 0.67567 0.89856 0.0
C973 C 0.76893 0.6498 0.89147 0.0
C974 C 0.77001 0.66187 0.88252 0.0
H975 H 0.67316 0.72815 0.86698 0.0
H976 H 0.69079 0.69537 0.87522 0.0
H977 H 0.69969 0.74418 0.87663 0.0
H978 H 0.76284 0.75557 0.88601 0.0
H979 H 0.76124 0.73448 0.90188 0.0
H980 H 0.27081 0.26228 0.15284 0.0
H981 H 0.24999 0.25171 0.13718 0.0
H982 H 0.36209 0.22136 0.1296 0.0
H983 H 0.38308 0.23193 0.14508 0.0
H984 H 0.28106 0.28868 0.12123 0.0
H985 H 0.29561 0.13538 0.11966 0.0
H986 H 0.29021 0.16044 0.13022 0.0
H987 H 0.33519 0.15732 0.12485 0.0
C988 C 0.29091 0.25319 0.14782 0.0
C989 C 0.32856 0.24789 0.15016 0.0
C990 C 0.27895 0.24708 0.13893 0.0
C991 C 0.30441 0.23505 0.13234 0.0
C992 C 0.34192 0.22984 0.13467 0.0
H993 H 0.38337 0.22375 0.08165 0.0
H994 H 0.36279 0.22132 0.0974 0.0
C995 C 0.35391 0.23621 0.14349 0.0
C996 C 0.29326 0.23028 0.12281 0.0
H997 H 0.30428 0.1688 0.10544 0.0
C998 C 0.28471 0.26227 0.11776 0.0
C999 C 0.2978 0.19569 0.11838 0.0
C1000 C 0.30483 0.16017 0.12358 0.0
C1001 C 0.2847 0.26129 0.10826 0.0
C1002 C 0.29321 0.22744 0.10384 0.0
C1003 C 0.29803 0.19474 0.1089 0.0
C1004 C 0.30417 0.22693 0.09423 0.0
C1005 C 0.27905 0.29696 0.10302 0.0
C1006 C 0.27781 0.23056 0.08729 0.0
C1007 C 0.28951 0.23192 0.07826 0.0
C1008 C 0.32769 0.22982 0.0761 0.0
C1009 C 0.35383 0.22559 0.0831 0.0
C1010 C 0.34212 0.22406 0.09209 0.0
H1011 H 0.27308 0.32106 0.10752 0.0
H1012 H 0.30438 0.30327 0.09897 0.0
H1013 H 0.25547 0.29357 0.09823 0.0
H1014 H 0.24839 0.23269 0.08887 0.0
H1015 H 0.26876 0.23515 0.07298 0.0
H1016 H 0.77968 0.86935 0.33291 0.0
H1017 H 0.77687 0.84582 0.34843 0.0
H1018 H 0.74422 0.73747 0.33856 0.0
H1019 H 0.74754 0.76072 0.32291 0.0
H1020 H 0.69567 0.77463 0.3524 0.0
H1021 H 0.8445 0.76716 0.36218 0.0
H1022 H 0.83296 0.80847 0.35587 0.0
H1023 H 0.82887 0.76355 0.35055 0.0
C1024 C 0.77237 0.84041 0.33403 0.0
C1025 C 0.76375 0.81687 0.32673 0.0
C1026 C 0.77104 0.82694 0.34287 0.0
C1027 C 0.76082 0.78985 0.34457 0.0
C1028 C 0.7526 0.76605 0.33732 0.0
H1029 H 0.75661 0.77035 0.40382 0.0
H1030 H 0.75839 0.74299 0.38856 0.0
C1031 C 0.75447 0.77938 0.32843 0.0
C1032 C 0.75527 0.7779 0.35402 0.0
H1033 H 0.80049 0.77982 0.37428 0.0
C1034 C 0.71859 0.77438 0.35719 0.0
C1035 C 0.78527 0.77704 0.3602 0.0
C1036 C 0.82518 0.77889 0.35703 0.0
C1037 C 0.71097 0.77445 0.3665 0.0
C1038 C 0.74079 0.77825 0.37267 0.0
C1039 C 0.77764 0.77723 0.36951 0.0
C1040 C 0.73449 0.79135 0.38201 0.0
C1041 C 0.67101 0.77336 0.36966 0.0
C1042 C 0.72044 0.82744 0.3833 0.0
C1043 C 0.72004 0.84328 0.3919 0.0
C1044 C 0.73343 0.82316 0.39937 0.0
C1045 C 0.746 0.78636 0.39815 0.0
C1046 C 0.74696 0.77068 0.38948 0.0
H1047 H 0.65304 0.75852 0.3647 0.0
H1048 H 0.66859 0.75949 0.37637 0.0
H1049 H 0.66043 0.80231 0.37032 0.0
H1050 H 0.71142 0.84406 0.37757 0.0
H1051 H 0.7101 0.87163 0.39267 0.0
H1052 H 0.22406 0.24749 0.6505 0.0
H1053 H 0.23938 0.24807 0.63429 0.0
H1054 H 0.12776 0.28484 0.62814 0.0
H1055 H 0.11217 0.28428 0.64424 0.0
H1056 H 0.20013 0.20506 0.62097 0.0
H1057 H 0.1958 0.35624 0.61339 0.0
H1058 H 0.20234 0.33816 0.62473 0.0
H1059 H 0.15639 0.34067 0.61989 0.0
C1060 C 0.20292 0.25602 0.64568 0.0
C1061 C 0.16689 0.26578 0.64861 0.0
C1062 C 0.21177 0.25643 0.63646 0.0
C1063 C 0.18487 0.26714 0.63009 0.0
C1064 C 0.14909 0.27729 0.633 0.0
H1065 H 0.10735 0.22332 0.57905 0.0
H1066 H 0.12611 0.22888 0.59491 0.0
C1067 C 0.14014 0.27662 0.64219 0.0
C1068 C 0.19255 0.2646 0.62031 0.0
H1069 H 0.18446 0.31464 0.60076 0.0
C1070 C 0.19777 0.2291 0.61654 0.0
C1071 C 0.18982 0.2961 0.61459 0.0
C1072 C 0.18615 0.33501 0.61836 0.0
C1073 C 0.19702 0.22393 0.60714 0.0
C1074 C 0.19087 0.25501 0.60147 0.0
C1075 C 0.18887 0.29088 0.60519 0.0
C1076 C 0.18113 0.2502 0.59187 0.0
C1077 C 0.20066 0.18511 0.60332 0.0
C1078 C 0.20598 0.26061 0.585 0.0
C1079 C 0.19545 0.25725 0.57593 0.0
C1080 C 0.15973 0.24399 0.57366 0.0
C1081 C 0.13499 0.23365 0.5806 0.0
C1082 C 0.14569 0.23665 0.58964 0.0
H1083 H 0.21337 0.1656 0.60828 0.0
H1084 H 0.17257 0.17446 0.60152 0.0
H1085 H 0.21785 0.18536 0.59705 0.0
H1086 H 0.23335 0.27139 0.58667 0.0
H1087 H 0.21501 0.26551 0.5707 0.0
H1088 H 0.23202 0.17678 0.26919 0.0
H1089 H 0.22764 0.20606 0.25433 0.0
H1090 H 0.28789 0.30178 0.26425 0.0
H1091 H 0.29317 0.27231 0.27918 0.0
H1092 H 0.19952 0.27562 0.24797 0.0
H1093 H 0.35343 0.26125 0.24368 0.0
H1094 H 0.32867 0.23827 0.25274 0.0
H1095 H 0.33721 0.28755 0.25327 0.0
C1096 C 0.24417 0.20417 0.26826 0.0
C1097 C 0.26353 0.22194 0.27532 0.0
C1098 C 0.24136 0.22097 0.25978 0.0
C1099 C 0.25775 0.25584 0.25821 0.0
C1100 C 0.27549 0.2746 0.26534 0.0
H1101 H 0.31339 0.3124 0.20268 0.0
H1102 H 0.29847 0.32622 0.21846 0.0
C1103 C 0.27853 0.25769 0.27384 0.0
C1104 C 0.25923 0.27019 0.24885 0.0
H1105 H 0.31879 0.27755 0.23097 0.0
C1106 C 0.22561 0.27687 0.24426 0.0
C1107 C 0.29337 0.27194 0.24408 0.0
C1108 C 0.33028 0.2642 0.24864 0.0
C1109 C 0.22511 0.28322 0.23489 0.0
C1110 C 0.25903 0.28224 0.23002 0.0
C1111 C 0.29279 0.27829 0.23473 0.0
C1112 C 0.26042 0.27985 0.22004 0.0
C1113 C 0.18824 0.28974 0.23025 0.0
C1114 C 0.24302 0.24987 0.21561 0.0
C1115 C 0.25137 0.24196 0.20657 0.0
C1116 C 0.27776 0.26354 0.20189 0.0
C1117 C 0.29329 0.29496 0.20616 0.0
C1118 C 0.28463 0.30307 0.21515 0.0
H1119 H 0.16816 0.30357 0.23489 0.0
H1120 H 0.19152 0.30713 0.22407 0.0
H1121 H 0.1761 0.26249 0.22826 0.0
H1122 H 0.22498 0.231 0.2193 0.0
H1123 H 0.23899 0.21758 0.20346 0.0
H1124 H 0.7068 0.83204 0.45198 0.0
H1125 H 0.69322 0.81635 0.46773 0.0
H1126 H 0.78459 0.73821 0.46787 0.0
H1127 H 0.79807 0.75318 0.45199 0.0
H1128 H 0.718 0.71366 0.47734 0.0
H1129 H 0.76484 0.85599 0.4873 0.0
H1130 H 0.72814 0.85392 0.47904 0.0
H1131 H 0.77377 0.8369 0.47621 0.0
C1132 C 0.7239 0.81129 0.45533 0.0
C1133 C 0.75396 0.79428 0.45081 0.0
C1134 C 0.71599 0.80234 0.46432 0.0
C1135 C 0.73827 0.77661 0.46896 0.0
C1136 C 0.76715 0.75821 0.46436 0.0
H1137 H 0.80401 0.70707 0.52017 0.0
H1138 H 0.78173 0.70932 0.50464 0.0
C1139 C 0.77492 0.7669 0.45533 0.0
C1140 C 0.73366 0.77133 0.47879 0.0
H1141 H 0.7472 0.81549 0.49895 0.0
C1142 C 0.72394 0.73596 0.48209 0.0
C1143 C 0.74119 0.80065 0.48493 0.0
C1144 C 0.75284 0.83896 0.48173 0.0
C1145 C 0.72266 0.72883 0.49144 0.0
C1146 C 0.73192 0.7577 0.49755 0.0
C1147 C 0.73984 0.79349 0.49424 0.0
C1148 C 0.73909 0.75065 0.50725 0.0
C1149 C 0.71211 0.69034 0.49466 0.0
C1150 C 0.72227 0.77295 0.51391 0.0
C1151 C 0.73535 0.77214 0.52283 0.0
C1152 C 0.76566 0.74924 0.52516 0.0
C1153 C 0.78079 0.72525 0.51859 0.0
C1154 C 0.76774 0.7261 0.50971 0.0
H1155 H 0.69315 0.67642 0.48977 0.0
H1156 H 0.73766 0.67305 0.49522 0.0
H1157 H 0.69834 0.69127 0.5014 0.0
H1158 H 0.70032 0.79233 0.51211 0.0
H1159 H 0.72299 0.79082 0.52775 0.0
H1160 H 0.18654 0.23374 0.70455 0.0
H1161 H 0.21139 0.22489 0.71974 0.0
H1162 H 0.31403 0.27839 0.71179 0.0
H1163 H 0.28898 0.28835 0.69654 0.0
H1164 H 0.27536 0.19242 0.72767 0.0
H1165 H 0.27162 0.34723 0.73132 0.0
H1166 H 0.25056 0.32383 0.72181 0.0
H1167 H 0.30034 0.32876 0.72241 0.0
C1168 C 0.21459 0.24328 0.70597 0.0
C1169 C 0.23548 0.26255 0.6994 0.0
C1170 C 0.22885 0.2379 0.71465 0.0
C1171 C 0.26426 0.2515 0.7169 0.0
C1172 C 0.28637 0.26826 0.71019 0.0
H1173 H 0.30714 0.30629 0.77314 0.0
H1174 H 0.3241 0.28902 0.75768 0.0
C1175 C 0.27199 0.27396 0.7015 0.0
C1176 C 0.27531 0.25232 0.72653 0.0
H1177 H 0.28109 0.31225 0.74435 0.0
C1178 C 0.27745 0.21857 0.73133 0.0
C1179 C 0.27803 0.28653 0.73124 0.0
C1180 C 0.27481 0.32371 0.72648 0.0
C1181 C 0.28033 0.21817 0.74081 0.0
C1182 C 0.28052 0.25239 0.74555 0.0
C1183 C 0.28098 0.28603 0.74069 0.0
C1184 C 0.27533 0.25472 0.75547 0.0
C1185 C 0.28206 0.18121 0.74566 0.0
C1186 C 0.24283 0.24017 0.75945 0.0
C1187 C 0.23314 0.24983 0.76831 0.0
C1188 C 0.25546 0.27476 0.77324 0.0
C1189 C 0.28912 0.28742 0.76944 0.0
C1190 C 0.29901 0.27738 0.76064 0.0
H1191 H 0.29547 0.15964 0.74135 0.0
H1192 H 0.29767 0.18341 0.75214 0.0
H1193 H 0.2533 0.17166 0.74718 0.0
H1194 H 0.22364 0.22341 0.75551 0.0
H1195 H 0.20705 0.23969 0.77107 0.0
H1196 H 0.70943 0.76104 0.95149 0.0
H1197 H 0.72048 0.7755 0.96745 0.0
H1198 H 0.81783 0.70484 0.96733 0.0
H1199 H 0.80644 0.6895 0.95146 0.0
H1200 H 0.76802 0.68385 0.9797 0.0
H1201 H 0.79133 0.8355 0.98298 0.0
H1202 H 0.75078 0.82549 0.97631 0.0
H1203 H 0.79603 0.81125 0.97231 0.0
C1204 C 0.7337 0.74935 0.95481 0.0
C1205 C 0.75671 0.7237 0.95029 0.0
C1206 C 0.74023 0.75793 0.9639 0.0
C1207 C 0.77021 0.74151 0.96854 0.0
C1208 C 0.79464 0.7179 0.96385 0.0
H1209 H 0.77431 0.71097 0.02768 0.0
H1210 H 0.7992 0.71661 0.01228 0.0
C1211 C 0.78793 0.70901 0.95481 0.0
C1212 C 0.77201 0.74359 0.97853 0.0
H1213 H 0.76699 0.80398 -0.00367 0.0
C1214 C 0.76878 0.71006 0.98337 0.0
C1215 C 0.77291 0.77782 0.98325 0.0
C1216 C 0.77834 0.81451 0.97844 0.0
C1217 C 0.76377 0.70989 -0.00724 0.0
C1218 C 0.76263 0.74424 -0.00255 0.0
C1219 C 0.76791 0.77773 -0.00731 0.0
C1220 C 0.7511 0.7459 0.00703 0.0
C1221 C 0.75714 0.67312 -0.0025 0.0
C1222 C 0.7166 0.76184 0.0092 0.0
C1223 C 0.70239 0.75883 0.01795 0.0
C1224 C 0.72247 0.73973 0.02469 0.0
C1225 C 0.75796 0.72541 0.0226 0.0
C1226 C 0.77224 0.72863 0.01383 0.0
H1227 H 0.75279 0.64987 -0.00736 0.0
H1228 H 0.78168 0.66623 0.00176 0.0
H1229 H 0.73239 0.67489 0.00201 0.0
H1230 H 0.6999 0.77524 0.00402 0.0
H1231 H 0.67513 0.77049 0.01935 0.0
H1232 H 0.22635 0.29501 0.0272 0.0
H1233 H 0.20461 0.29221 0.0115 0.0
H1234 H 0.29364 0.21596 0.00497 0.0
H1235 H 0.3152 0.21807 0.02059 0.0
H1236 H 0.24961 0.31642 -0.00216 0.0
H1237 H 0.20704 0.17095 -0.00896 0.0
H1238 H 0.21104 0.18951 0.00239 0.0
H1239 H 0.2518 0.17348 -0.00358 0.0
C1240 C 0.24081 0.27703 0.02247 0.0
C1241 C 0.27275 0.2571 0.02511 0.0
C1242 C 0.22824 0.27534 0.01352 0.0
C1243 C 0.24721 0.25347 0.00712 0.0
C1244 C 0.27803 0.23226 0.00985 0.0
H1245 H 0.29911 0.24857 0.95141 0.0
H1246 H 0.28788 0.23438 0.96743 0.0
C1247 C 0.29061 0.23392 0.01877 0.0
C1248 C 0.23898 0.25738 -0.00262 0.0
H1249 H 0.22577 0.20742 0.97796 0.0
C1250 C 0.24348 0.29278 -0.0065 0.0
C1251 C 0.23137 0.22635 -0.00823 0.0
C1252 C 0.22467 0.188 -0.00437 0.0
C1253 C 0.24283 0.29771 0.9841 0.0
C1254 C 0.23665 0.26645 0.97846 0.0
C1255 C 0.23055 0.23125 0.98234 0.0
C1256 C 0.23919 0.26974 0.96852 0.0
C1257 C 0.25095 0.33598 0.98029 0.0
C1258 C 0.21464 0.2931 0.96381 0.0
C1259 C 0.22129 0.30167 0.95475 0.0
C1260 C 0.25228 0.28651 0.95022 0.0
C1261 C 0.27517 0.26081 0.95476 0.0
C1262 C 0.26872 0.25259 0.96388 0.0
H1263 H 0.26273 0.35507 0.98548 0.0
H1264 H 0.27087 0.3342 0.97454 0.0
H1265 H 0.2247 0.3485 0.97774 0.0
H1266 H 0.19132 0.30601 0.96727 0.0
H1267 H 0.20277 0.32105 0.95136 0.0
H1268 H 0.80443 0.80025 0.27441 0.0
H1269 H 0.81488 0.78554 0.25845 0.0
H1270 H 0.71075 0.72551 0.25766 0.0
H1271 H 0.70045 0.73932 0.27373 0.0
H1272 H 0.77007 0.69382 0.24667 0.0
H1273 H 0.74833 0.84593 0.24105 0.0
H1274 H 0.78552 0.83366 0.24863 0.0
H1275 H 0.7381 0.82369 0.25173 0.0
C1276 C 0.78406 0.78333 0.27088 0.0
C1277 C 0.75122 0.77155 0.27523 0.0
C1278 C 0.79015 0.77491 0.26179 0.0
C1279 C 0.76322 0.75515 0.25688 0.0
C1280 C 0.73177 0.7409 0.26136 0.0
H1281 H 0.67908 0.72178 0.2048 0.0
H1282 H 0.70201 0.71409 0.2202 0.0
C1283 C 0.72587 0.74891 0.27052 0.0
C1284 C 0.76523 0.75365 0.24691 0.0
H1285 H 0.75626 0.80871 0.22822 0.0
C1286 C 0.76753 0.71889 0.2426 0.0
C1287 C 0.76198 0.78654 0.24167 0.0
C1288 C 0.75805 0.82458 0.24597 0.0
C1289 C 0.76568 0.7161 0.23313 0.0
C1290 C 0.76083 0.74887 0.22793 0.0
C1291 C 0.76025 0.78368 0.23224 0.0
C1292 C 0.75134 0.7479 0.2182 0.0
C1293 C 0.76831 0.67813 0.22879 0.0
C1294 C 0.77144 0.76959 0.21197 0.0
C1295 C 0.75807 0.77457 0.20316 0.0
C1296 C 0.72425 0.75811 0.2005 0.0
C1297 C 0.70514 0.735 0.20665 0.0
C1298 C 0.71848 0.73011 0.21543 0.0
H1299 H 0.78484 0.65866 0.23305 0.0
H1300 H 0.73987 0.6663 0.22809 0.0
H1301 H 0.78118 0.67973 0.22195 0.0
H1302 H 0.79668 0.78385 0.21403 0.0
H1303 H 0.77354 0.79236 0.19857 0.0
H1304 H 0.21381 0.27713 0.44599 0.0
H1305 H 0.21799 0.30065 0.46153 0.0
H1306 H 0.29028 0.20902 0.46859 0.0
H1307 H 0.28691 0.18581 0.45316 0.0
H1308 H 0.19144 0.25916 0.47524 0.0
H1309 H 0.33843 0.29308 0.48249 0.0
H1310 H 0.32065 0.28914 0.47107 0.0
H1311 H 0.33451 0.24812 0.47727 0.0
C1312 C 0.23127 0.2625 0.45081 0.0
C1313 C 0.24961 0.22933 0.44838 0.0
C1314 C 0.2338 0.2761 0.45966 0.0
C1315 C 0.2549 0.2569 0.46617 0.0
C1316 C 0.27468 0.22487 0.46363 0.0
H1317 H 0.25285 0.19427 0.5206 0.0
H1318 H 0.26968 0.20997 0.50495 0.0
C1319 C 0.27222 0.21131 0.45481 0.0
C1320 C 0.25103 0.26584 0.47588 0.0
H1321 H 0.30096 0.27338 0.49548 0.0
C1322 C 0.21525 0.26338 0.47966 0.0
C1323 C 0.28221 0.27103 0.4816 0.0
C1324 C 0.32105 0.27587 0.47787 0.0
C1325 C 0.21 0.26308 0.48905 0.0
C1326 C 0.24141 0.2662 0.49479 0.0
C1327 C 0.27702 0.27085 0.49103 0.0
C1328 C 0.2377 0.26115 0.50466 0.0
C1329 C 0.17115 0.25684 0.49272 0.0
C1330 C 0.21555 0.28558 0.50974 0.0
C1331 C 0.20538 0.27636 0.51857 0.0
C1332 C 0.21783 0.24289 0.5225 0.0
C1333 C 0.24271 0.22008 0.51769 0.0
C1334 C 0.25244 0.2291 0.50879 0.0
H1335 H 0.15135 0.24782 0.48736 0.0
H1336 H 0.17136 0.2354 0.49815 0.0
H1337 H 0.16052 0.28323 0.49567 0.0
H1338 H 0.2045 0.31077 0.5067 0.0
H1339 H 0.18674 0.29483 0.5222 0.0
H1340 H 0.82458 0.78752 0.70537 0.0
H1341 H 0.7981 0.79004 0.72056 0.0
H1342 H 0.70017 0.73188 0.71121 0.0
H1343 H 0.72685 0.72837 0.69595 0.0
H1344 H 0.73072 0.81612 0.72843 0.0
H1345 H 0.74561 0.66144 0.73007 0.0
H1346 H 0.76611 0.68864 0.72108 0.0
H1347 H 0.71684 0.67966 0.72115 0.0
C1348 C 0.79721 0.7756 0.70649 0.0
C1349 C 0.77815 0.75703 0.6995 0.0
C1350 C 0.78202 0.77732 0.71517 0.0
C1351 C 0.74749 0.76068 0.717 0.0
C1352 C 0.72716 0.74436 0.70992 0.0
H1353 H 0.69418 0.69087 0.77183 0.0
H1354 H 0.68131 0.70978 0.75625 0.0
C1355 C 0.74248 0.74235 0.70123 0.0
C1356 C 0.73541 0.75675 0.72651 0.0
H1357 H 0.7301 0.69231 0.74341 0.0
C1358 C 0.72985 0.78905 0.7317 0.0
C1359 C 0.73431 0.72135 0.73072 0.0
C1360 C 0.74125 0.68574 0.72552 0.0
C1361 C 0.72479 0.78692 0.74112 0.0
C1362 C 0.7259 0.75166 0.74539 0.0
C1363 C 0.72918 0.71932 0.7401 0.0
C1364 C 0.72839 0.7473 0.75532 0.0
C1365 C 0.71922 0.82243 0.74642 0.0
C1366 C 0.75858 0.76294 0.76003 0.0
C1367 C 0.76596 0.75229 0.76895 0.0
C1368 C 0.74361 0.72534 0.77323 0.0
C1369 C 0.71219 0.71134 0.76867 0.0
C1370 C 0.70462 0.72229 0.75979 0.0
H1371 H 0.7057 0.84419 0.74219 0.0
H1372 H 0.70195 0.81762 0.75256 0.0
H1373 H 0.74679 0.83331 0.74857 0.0
H1374 H 0.77784 0.78156 0.75664 0.0
H1375 H 0.79036 0.76353 0.7723 0.0
loop_
_geom_bond_atom_site_label_1
_geom_bond_atom_site_label_2
_geom_bond_distance
_geom_bond_site_symmetry_2
_ccdc_geom_bond_type
C0 O1 1.306 . S
C0 O3 1.160 . S
O1 C0 1.306 . S
O1 Cd2 2.228 . S
Cd2 O1 2.228 . S
Cd2 O6 2.273 . S
Cd2 O10 2.277 . S
O3 C0 1.160 . S
O3 Cd4 2.203 . S
Cd4 O3 2.203 . S
Cd4 O6 2.411 . S
Cd4 O7 2.333 . S
Cd4 O8 2.352 . S
Cd4 O12 2.277 . S
Cd4 O13 2.356 . S
C5 O10 1.209 . S
C5 O12 1.226 . S
O6 Cd2 2.273 . S
O6 Cd4 2.411 . S
O6 C9 1.320 . S
O7 Cd4 2.333 . S
O7 C9 1.214 . S
O8 Cd4 2.352 . S
O8 C11 1.258 . S
C9 O6 1.320 . S
C9 O7 1.214 . S
O10 Cd2 2.277 . S
O10 C5 1.209 . S
C11 O8 1.258 . S
C11 O13 1.282 . S
O12 Cd4 2.277 . S
O12 C5 1.226 . S
O13 Cd4 2.356 . S
O13 C11 1.282 . S
C14 O15 1.306 . S
C14 O17 1.160 . S
O15 C14 1.306 . S
O15 Cd16 2.228 . S
Cd16 O15 2.228 . S
Cd16 O20 2.273 . S
Cd16 O24 2.277 . S
O17 C14 1.160 . S
O17 Cd18 2.203 . S
Cd18 O17 2.203 . S
Cd18 O20 2.411 . S
Cd18 O21 2.333 . S
Cd18 O22 2.352 . S
Cd18 O26 2.277 . S
Cd18 O27 2.356 . S
C19 O24 1.209 . S
C19 O26 1.226 . S
O20 Cd16 2.273 . S
O20 Cd18 2.411 . S
O20 C23 1.320 . S
O21 Cd18 2.333 . S
O21 C23 1.214 . S
O22 Cd18 2.352 . S
O22 C25 1.258 . S
C23 O20 1.320 . S
C23 O21 1.214 . S
O24 Cd16 2.277 . S
O24 C19 1.209 . S
C25 O22 1.258 . S
C25 O27 1.282 . S
O26 Cd18 2.277 . S
O26 C19 1.226 . S
O27 Cd18 2.356 . S
O27 C25 1.282 . S
C28 O29 1.306 . S
C28 O31 1.160 . S
O29 C28 1.306 . S
O29 Cd30 2.228 . S
Cd30 O29 2.228 . S
Cd30 O34 2.273 . S
Cd30 O38 2.277 . S
O31 C28 1.160 . S
O31 Cd32 2.203 . S
Cd32 O31 2.203 . S
Cd32 O34 2.411 . S
Cd32 O35 2.333 . S
Cd32 O36 2.352 . S
Cd32 O40 2.277 . S
Cd32 O41 2.356 . S
C33 O38 1.209 . S
C33 O40 1.226 . S
O34 Cd30 2.273 . S
O34 Cd32 2.411 . S
O34 C37 1.320 . S
O35 Cd32 2.333 . S
O35 C37 1.214 . S
O36 Cd32 2.352 . S
O36 C39 1.258 . S
C37 O34 1.320 . S
C37 O35 1.214 . S
O38 Cd30 2.277 . S
O38 C33 1.209 . S
C39 O36 1.258 . S
C39 O41 1.282 . S
O40 Cd32 2.277 . S
O40 C33 1.226 . S
O41 Cd32 2.356 . S
O41 C39 1.282 . S
C42 O43 1.306 . S
C42 O45 1.160 . S
O43 C42 1.306 . S
O43 Cd44 2.228 . S
Cd44 O43 2.228 . S
Cd44 O48 2.273 . S
Cd44 O52 2.277 . S
O45 C42 1.160 . S
O45 Cd46 2.203 . S
Cd46 O45 2.203 . S
Cd46 O48 2.411 . S
Cd46 O49 2.333 . S
Cd46 O50 2.352 . S
Cd46 O54 2.277 . S
Cd46 O55 2.356 . S
C47 O52 1.209 . S
C47 O54 1.226 . S
O48 Cd44 2.273 . S
O48 Cd46 2.411 . S
O48 C51 1.320 . S
O49 Cd46 2.333 . S
O49 C51 1.214 . S
O50 Cd46 2.352 . S
O50 C53 1.258 . S
C51 O48 1.320 . S
C51 O49 1.214 . S
O52 Cd44 2.277 . S
O52 C47 1.209 . S
C53 O50 1.258 . S
C53 O55 1.282 . S
O54 Cd46 2.277 . S
O54 C47 1.226 . S
O55 Cd46 2.356 . S
O55 C53 1.282 . S
C56 O57 1.306 . S
C56 O59 1.160 . S
O57 C56 1.306 . S
O57 Cd58 2.228 . S
Cd58 O57 2.228 . S
Cd58 O62 2.273 . S
Cd58 O66 2.277 . S
O59 C56 1.160 . S
O59 Cd60 2.203 . S
Cd60 O59 2.203 . S
Cd60 O62 2.411 . S
Cd60 O63 2.333 . S
Cd60 O64 2.352 . S
Cd60 O68 2.277 . S
Cd60 O69 2.356 . S
C61 O66 1.209 . S
C61 O68 1.226 . S
O62 Cd58 2.273 . S
O62 Cd60 2.411 . S
O62 C65 1.320 . S
O63 Cd60 2.333 . S
O63 C65 1.214 . S
O64 Cd60 2.352 . S
O64 C67 1.258 . S
C65 O62 1.320 . S
C65 O63 1.214 . S
O66 Cd58 2.277 . S
O66 C61 1.209 . S
C67 O64 1.258 . S
C67 O69 1.282 . S
O68 Cd60 2.277 . S
O68 C61 1.226 . S
O69 Cd60 2.356 . S
O69 C67 1.282 . S
C70 O71 1.306 . S
C70 O73 1.160 . S
O71 C70 1.306 . S
O71 Cd72 2.228 . S
Cd72 O71 2.228 . S
Cd72 O76 2.273 . S
Cd72 O80 2.277 . S
O73 C70 1.160 . S
O73 Cd74 2.203 . S
Cd74 O73 2.203 . S
Cd74 O76 2.411 . S
Cd74 O77 2.333 . S
Cd74 O78 2.352 . S
Cd74 O82 2.277 . S
Cd74 O83 2.356 . S
C75 O80 1.209 . S
C75 O82 1.226 . S
O76 Cd72 2.273 . S
O76 Cd74 2.411 . S
O76 C79 1.320 . S
O77 Cd74 2.333 . S
O77 C79 1.214 . S
O78 Cd74 2.352 . S
O78 C81 1.258 . S
C79 O76 1.320 . S
C79 O77 1.214 . S
O80 Cd72 2.277 . S
O80 C75 1.209 . S
C81 O78 1.258 . S
C81 O83 1.282 . S
O82 Cd74 2.277 . S
O82 C75 1.226 . S
O83 Cd74 2.356 . S
O83 C81 1.282 . S
C84 O85 1.306 . S
C84 O87 1.160 . S
O85 C84 1.306 . S
O85 Cd86 2.228 . S
Cd86 O85 2.228 . S
Cd86 O90 2.273 . S
Cd86 O94 2.277 . S
O87 C84 1.160 . S
O87 Cd88 2.203 . S
Cd88 O87 2.203 . S
Cd88 O90 2.411 . S
Cd88 O91 2.333 . S
Cd88 O92 2.352 . S
Cd88 O96 2.277 . S
Cd88 O97 2.356 . S
C89 O94 1.209 . S
C89 O96 1.226 . S
O90 Cd86 2.273 . S
O90 Cd88 2.411 . S
O90 C93 1.320 . S
O91 Cd88 2.333 . S
O91 C93 1.214 . S
O92 Cd88 2.352 . S
O92 C95 1.258 . S
C93 O90 1.320 . S
C93 O91 1.214 . S
O94 Cd86 2.277 . S
O94 C89 1.209 . S
C95 O92 1.258 . S
C95 O97 1.282 . S
O96 Cd88 2.277 . S
O96 C89 1.226 . S
O97 Cd88 2.356 . S
O97 C95 1.282 . S
C98 O99 1.306 . S
C98 O101 1.160 . S
O99 C98 1.306 . S
O99 Cd100 2.228 . S
Cd100 O99 2.228 . S
Cd100 O104 2.273 . S
Cd100 O108 2.277 . S
O101 C98 1.160 . S
O101 Cd102 2.203 . S
Cd102 O101 2.203 . S
Cd102 O104 2.411 . S
Cd102 O105 2.333 . S
Cd102 O106 2.352 . S
Cd102 O110 2.277 . S
Cd102 O111 2.356 . S
C103 O108 1.209 . S
C103 O110 1.226 . S
O104 Cd100 2.273 . S
O104 Cd102 2.411 . S
O104 C107 1.320 . S
O105 Cd102 2.333 . S
O105 C107 1.214 . S
O106 Cd102 2.352 . S
O106 C109 1.258 . S
C107 O104 1.320 . S
C107 O105 1.214 . S
O108 Cd100 2.277 . S
O108 C103 1.209 . S
C109 O106 1.258 . S
C109 O111 1.282 . S
O110 Cd102 2.277 . S
O110 C103 1.226 . S
O111 Cd102 2.356 . S
O111 C109 1.282 . S
C112 O113 1.306 . S
C112 O115 1.160 . S
O113 C112 1.306 . S
O113 Cd114 2.228 . S
Cd114 O113 2.228 . S
Cd114 O118 2.273 . S
Cd114 O122 2.277 . S
O115 C112 1.160 . S
O115 Cd116 2.203 . S
Cd116 O115 2.203 . S
Cd116 O118 2.411 . S
Cd116 O119 2.333 . S
Cd116 O120 2.352 . S
Cd116 O124 2.277 . S
Cd116 O125 2.356 . S
C117 O122 1.209 . S
C117 O124 1.226 . S
O118 Cd114 2.273 . S
O118 Cd116 2.411 . S
O118 C121 1.320 . S
O119 Cd116 2.333 . S
O119 C121 1.214 . S
O120 Cd116 2.352 . S
O120 C123 1.258 . S
C121 O118 1.320 . S
C121 O119 1.214 . S
O122 Cd114 2.277 . S
O122 C117 1.209 . S
C123 O120 1.258 . S
C123 O125 1.282 . S
O124 Cd116 2.277 . S
O124 C117 1.226 . S
O125 Cd116 2.356 . S
O125 C123 1.282 . S
C126 O127 1.306 . S
C126 O129 1.160 . S
O127 C126 1.306 . S
O127 Cd128 2.228 . S
Cd128 O127 2.228 . S
Cd128 O132 2.273 . S
Cd128 O136 2.277 . S
O129 C126 1.160 . S
O129 Cd130 2.203 . S
Cd130 O129 2.203 . S
Cd130 O132 2.411 . S
Cd130 O133 2.333 . S
Cd130 O134 2.352 . S
Cd130 O138 2.277 . S
Cd130 O139 2.356 . S
C131 O136 1.209 . S
C131 O138 1.226 . S
O132 Cd128 2.273 . S
O132 Cd130 2.411 . S
O132 C135 1.320 . S
O133 Cd130 2.333 . S
O133 C135 1.214 . S
O134 Cd130 2.352 . S
O134 C137 1.258 . S
C135 O132 1.320 . S
C135 O133 1.214 . S
O136 Cd128 2.277 . S
O136 C131 1.209 . S
C137 O134 1.258 . S
C137 O139 1.282 . S
O138 Cd130 2.277 . S
O138 C131 1.226 . S
O139 Cd130 2.356 . S
O139 C137 1.282 . S
C140 O141 1.306 . S
C140 O143 1.160 . S
O141 C140 1.306 . S
O141 Cd142 2.228 . S
Cd142 O141 2.228 . S
Cd142 O146 2.273 . S
Cd142 O150 2.277 . S
O143 C140 1.160 . S
O143 Cd144 2.203 . S
Cd144 O143 2.203 . S
Cd144 O146 2.411 . S
Cd144 O147 2.333 . S
Cd144 O148 2.352 . S
Cd144 O152 2.277 . S
Cd144 O153 2.356 . S
C145 O150 1.209 . S
C145 O152 1.226 . S
O146 Cd142 2.273 . S
O146 Cd144 2.411 . S
O146 C149 1.320 . S
O147 Cd144 2.333 . S
O147 C149 1.214 . S
O148 Cd144 2.352 . S
O148 C151 1.258 . S
C149 O146 1.320 . S
C149 O147 1.214 . S
O150 Cd142 2.277 . S
O150 C145 1.209 . S
C151 O148 1.258 . S
C151 O153 1.282 . S
O152 Cd144 2.277 . S
O152 C145 1.226 . S
O153 Cd144 2.356 . S
O153 C151 1.282 . S
C154 O155 1.306 . S
C154 O157 1.160 . S
O155 C154 1.306 . S
O155 Cd156 2.228 . S
Cd156 O155 2.228 . S
Cd156 O160 2.273 . S
Cd156 O164 2.277 . S
O157 C154 1.160 . S
O157 Cd158 2.203 . S
Cd158 O157 2.203 . S
Cd158 O160 2.411 . S
Cd158 O161 2.333 . S
Cd158 O162 2.352 . S
Cd158 O166 2.277 . S
Cd158 O167 2.356 . S
C159 O164 1.209 . S
C159 O166 1.226 . S
O160 Cd156 2.273 . S
O160 Cd158 2.411 . S
O160 C163 1.320 . S
O161 Cd158 2.333 . S
O161 C163 1.214 . S
O162 Cd158 2.352 . S
O162 C165 1.258 . S
C163 O160 1.320 . S
C163 O161 1.214 . S
O164 Cd156 2.277 . S
O164 C159 1.209 . S
C165 O162 1.258 . S
C165 O167 1.282 . S
O166 Cd158 2.277 . S
O166 C159 1.226 . S
O167 Cd158 2.356 . S
O167 C165 1.282 . S
C168 O169 1.306 . S
C168 O171 1.160 . S
O169 C168 1.306 . S
O169 Cd170 2.228 . S
Cd170 O169 2.228 . S
Cd170 O174 2.273 . S
Cd170 O178 2.277 . S
O171 C168 1.160 . S
O171 Cd172 2.203 . S
Cd172 O171 2.203 . S
Cd172 O174 2.411 . S
Cd172 O175 2.333 . S
Cd172 O176 2.352 . S
Cd172 O180 2.277 . S
Cd172 O181 2.356 . S
C173 O178 1.209 . S
C173 O180 1.226 . S
O174 Cd170 2.273 . S
O174 Cd172 2.411 . S
O174 C177 1.320 . S
O175 Cd172 2.333 . S
O175 C177 1.214 . S
O176 Cd172 2.352 . S
O176 C179 1.258 . S
C177 O174 1.320 . S
C177 O175 1.214 . S
O178 Cd170 2.277 . S
O178 C173 1.209 . S
C179 O176 1.258 . S
C179 O181 1.282 . S
O180 Cd172 2.277 . S
O180 C173 1.226 . S
O181 Cd172 2.356 . S
O181 C179 1.282 . S
C182 O183 1.306 . S
C182 O185 1.160 . S
O183 C182 1.306 . S
O183 Cd184 2.228 . S
Cd184 O183 2.228 . S
Cd184 O188 2.273 . S
Cd184 O192 2.277 . S
O185 C182 1.160 . S
O185 Cd186 2.203 . S
Cd186 O185 2.203 . S
Cd186 O188 2.411 . S
Cd186 O189 2.333 . S
Cd186 O190 2.352 . S
Cd186 O194 2.277 . S
Cd186 O195 2.356 . S
C187 O192 1.209 . S
C187 O194 1.226 . S
O188 Cd184 2.273 . S
O188 Cd186 2.411 . S
O188 C191 1.320 . S
O189 Cd186 2.333 . S
O189 C191 1.214 . S
O190 Cd186 2.352 . S
O190 C193 1.258 . S
C191 O188 1.320 . S
C191 O189 1.214 . S
O192 Cd184 2.277 . S
O192 C187 1.209 . S
C193 O190 1.258 . S
C193 O195 1.282 . S
O194 Cd186 2.277 . S
O194 C187 1.226 . S
O195 Cd186 2.356 . S
O195 C193 1.282 . S
C196 O197 1.306 . S
C196 O199 1.160 . S
O197 C196 1.306 . S
O197 Cd198 2.228 . S
Cd198 O197 2.228 . S
Cd198 O202 2.273 . S
Cd198 O206 2.277 . S
O199 C196 1.160 . S
O199 Cd200 2.203 . S
Cd200 O199 2.203 . S
Cd200 O202 2.411 . S
Cd200 O203 2.333 . S
Cd200 O204 2.352 . S
Cd200 O208 2.277 . S
Cd200 O209 2.356 . S
C201 O206 1.209 . S
C201 O208 1.226 . S
O202 Cd198 2.273 . S
O202 Cd200 2.411 . S
O202 C205 1.320 . S
O203 Cd200 2.333 . S
O203 C205 1.214 . S
O204 Cd200 2.352 . S
O204 C207 1.258 . S
C205 O202 1.320 . S
C205 O203 1.214 . S
O206 Cd198 2.277 . S
O206 C201 1.209 . S
C207 O204 1.258 . S
C207 O209 1.282 . S
O208 Cd200 2.277 . S
O208 C201 1.226 . S
O209 Cd200 2.356 . S
O209 C207 1.282 . S
C210 O211 1.306 . S
C210 O213 1.160 . S
O211 C210 1.306 . S
O211 Cd212 2.228 . S
Cd212 O211 2.228 . S
Cd212 O216 2.273 . S
Cd212 O220 2.277 . S
O213 C210 1.160 . S
O213 Cd214 2.203 . S
Cd214 O213 2.203 . S
Cd214 O216 2.411 . S
Cd214 O217 2.333 . S
Cd214 O218 2.352 . S
Cd214 O222 2.277 . S
Cd214 O223 2.356 . S
C215 O220 1.209 . S
C215 O222 1.226 . S
O216 Cd212 2.273 . S
O216 Cd214 2.411 . S
O216 C219 1.320 . S
O217 Cd214 2.333 . S
O217 C219 1.214 . S
O218 Cd214 2.352 . S
O218 C221 1.258 . S
C219 O216 1.320 . S
C219 O217 1.214 . S
O220 Cd212 2.277 . S
O220 C215 1.209 . S
C221 O218 1.258 . S
C221 O223 1.282 . S
O222 Cd214 2.277 . S
O222 C215 1.226 . S
O223 Cd214 2.356 . S
O223 C221 1.282 . S
H224 C232 0.929 . S
H225 C234 0.930 1_545 S
H226 C236 0.930 . S
H227 C239 0.929 . S
H228 C242 0.930 . S
H229 C244 0.960 1_455 S
H230 C244 0.960 . S
H231 C244 0.960 . S
C232 H224 0.929 . S
C232 C233 1.377 . S
C232 C234 1.384 . S
C233 C232 1.377 . S
C233 C239 1.390 . S
C234 H225 0.930 1_565 S
C234 C232 1.384 . S
C234 C235 1.372 . S
C235 C234 1.372 . S
C235 C236 1.400 . S
C235 C240 1.490 . S
C236 H226 0.930 . S
C236 C235 1.400 . S
C236 C239 1.386 . S
H237 C253 0.930 . S
H238 C254 0.908 1_565 S
C239 H227 0.929 . S
C239 C233 1.390 . S
C239 C236 1.386 . S
C240 C235 1.490 . S
C240 C242 1.395 1_565 S
C240 C243 1.403 . S
H241 C247 0.930 . S
C242 H228 0.930 . S
C242 C240 1.395 1_545 S
C242 C245 1.403 1_655 S
C243 C240 1.403 . S
C243 C244 1.524 . S
C243 C247 1.400 1_655 S
C244 H229 0.960 1_655 S
C244 H230 0.960 . S
C244 H231 0.960 . S
C244 C243 1.524 . S
C245 C242 1.403 1_455 S
C245 C246 1.392 . S
C245 C249 1.495 . S
C246 C245 1.392 . S
C246 C247 1.385 1_545 S
C246 C248 1.478 . S
C247 H241 0.930 . S
C247 C243 1.400 1_455 S
C247 C246 1.385 1_565 S
C248 C246 1.478 . S
C248 C250 1.381 . S
C248 C254 1.383 . S
C249 C245 1.495 . S
C249 H255 0.959 1_455 S
C249 H256 0.961 . S
C249 H257 0.960 . S
C250 C248 1.381 . S
C250 C251 1.394 . S
C250 H258 0.930 . S
C251 C250 1.394 . S
C251 C252 1.383 . S
C251 H259 0.929 . S
C252 C251 1.383 . S
C252 C253 1.377 . S
C253 H237 0.930 . S
C253 C252 1.377 . S
C253 C254 1.379 . S
C254 H238 0.908 1_545 S
C254 C248 1.383 . S
C254 C253 1.379 . S
H255 C249 0.959 1_655 S
H256 C249 0.961 . S
H257 C249 0.960 . S
H258 C250 0.930 . S
H259 C251 0.929 . S
H260 C268 0.929 . S
H261 C270 0.930 . S
H262 C272 0.930 . S
H263 C275 0.929 . S
H264 C278 0.930 . S
H265 C280 0.960 . S
H266 C280 0.960 . S
H267 C280 0.960 . S
C268 H260 0.929 . S
C268 C269 1.377 . S
C268 C270 1.384 . S
C269 C268 1.377 . S
C269 C275 1.390 . S
C270 H261 0.930 . S
C270 C268 1.384 . S
C270 C271 1.372 . S
C271 C270 1.372 . S
C271 C272 1.400 . S
C271 C276 1.490 . S
C272 H262 0.930 . S
C272 C271 1.400 . S
C272 C275 1.386 . S
H273 C289 0.930 . S
H274 C290 0.931 . S
C275 H263 0.929 . S
C275 C269 1.390 . S
C275 C272 1.386 . S
C276 C271 1.490 . S
C276 C278 1.395 . S
C276 C279 1.403 1_655 S
H277 C283 0.930 . S
C278 H264 0.930 . S
C278 C276 1.395 . S
C278 C281 1.403 . S
C279 C276 1.403 1_455 S
C279 C280 1.524 . S
C279 C283 1.400 . S
C280 H265 0.960 . S
C280 H266 0.960 . S
C280 H267 0.960 . S
C280 C279 1.524 . S
C281 C278 1.403 . S
C281 C282 1.392 1_655 S
C281 C285 1.495 . S
C282 C281 1.392 1_455 S
C282 C283 1.385 . S
C282 C284 1.478 . S
C283 H277 0.930 . S
C283 C279 1.400 . S
C283 C282 1.385 . S
C284 C282 1.478 . S
C284 C286 1.381 . S
C284 C290 1.383 . S
C285 C281 1.495 . S
C285 H291 0.959 . S
C285 H292 0.961 . S
C285 H293 0.960 . S
C286 C284 1.381 . S
C286 C287 1.394 . S
C286 H294 0.930 . S
C287 C286 1.394 . S
C287 C288 1.383 . S
C287 H295 0.929 . S
C288 C287 1.383 . S
C288 C289 1.377 . S
C289 H273 0.930 . S
C289 C288 1.377 . S
C289 C290 1.379 . S
C290 H274 0.931 . S
C290 C284 1.383 . S
C290 C289 1.379 . S
H291 C285 0.959 . S
H292 C285 0.961 . S
H293 C285 0.960 . S
H294 C286 0.930 . S
H295 C287 0.929 . S
H296 C304 0.929 . S
H297 C306 0.930 . S
H298 C308 0.930 . S
H299 C311 0.929 . S
H300 C314 0.930 . S
H301 C316 0.960 . S
H302 C316 0.960 . S
H303 C316 0.960 . S
C304 H296 0.929 . S
C304 C305 1.377 . S
C304 C306 1.384 . S
C305 C304 1.377 . S
C305 C311 1.390 . S
C306 H297 0.930 . S
C306 C304 1.384 . S
C306 C307 1.372 . S
C307 C306 1.372 . S
C307 C308 1.400 . S
C307 C312 1.490 . S
C308 H298 0.930 . S
C308 C307 1.400 . S
C308 C311 1.386 . S
H309 C325 0.930 . S
H310 C326 0.931 . S
C311 H299 0.929 . S
C311 C305 1.390 . S
C311 C308 1.386 . S
C312 C307 1.490 . S
C312 C314 1.395 . S
C312 C315 1.403 . S
H313 C319 0.930 . S
C314 H300 0.930 . S
C314 C312 1.395 . S
C314 C317 1.403 . S
C315 C312 1.403 . S
C315 C316 1.524 . S
C315 C319 1.400 . S
C316 H301 0.960 . S
C316 H302 0.960 . S
C316 H303 0.960 . S
C316 C315 1.524 . S
C317 C314 1.403 . S
C317 C318 1.392 . S
C317 C321 1.495 . S
C318 C317 1.392 . S
C318 C319 1.385 . S
C318 C320 1.478 . S
C319 H313 0.930 . S
C319 C315 1.400 . S
C319 C318 1.385 . S
C320 C318 1.478 . S
C320 C322 1.381 . S
C320 C326 1.383 . S
C321 C317 1.495 . S
C321 H327 0.959 . S
C321 H328 0.961 . S
C321 H329 0.960 . S
C322 C320 1.381 . S
C322 C323 1.394 . S
C322 H330 0.930 . S
C323 C322 1.394 . S
C323 C324 1.383 . S
C323 H331 0.929 . S
C324 C323 1.383 . S
C324 C325 1.377 . S
C325 H309 0.930 . S
C325 C324 1.377 . S
C325 C326 1.379 . S
C326 H310 0.931 . S
C326 C320 1.383 . S
C326 C325 1.379 . S
H327 C321 0.959 . S
H328 C321 0.961 . S
H329 C321 0.960 . S
H330 C322 0.930 . S
H331 C323 0.929 . S
H332 C340 0.929 . S
H333 C342 0.930 . S
H334 C344 0.930 . S
H335 C347 0.929 . S
H336 C350 0.930 . S
H337 C352 0.960 1_565 S
H338 C352 0.960 . S
H339 C352 0.960 . S
C340 H332 0.929 . S
C340 C341 1.377 . S
C340 C342 1.384 . S
C341 C340 1.377 . S
C341 C347 1.390 . S
C342 H333 0.930 . S
C342 C340 1.384 . S
C342 C343 1.372 . S
C343 C342 1.372 . S
C343 C344 1.400 . S
C343 C348 1.490 . S
C344 H334 0.930 . S
C344 C343 1.400 . S
C344 C347 1.386 . S
H345 C361 0.930 . S
H346 C362 0.931 . S
C347 H335 0.929 . S
C347 C341 1.390 . S
C347 C344 1.386 . S
C348 C343 1.490 . S
C348 C350 1.395 . S
C348 C351 1.403 . S
H349 C355 0.930 . S
C350 H336 0.930 . S
C350 C348 1.395 . S
C350 C353 1.403 1_545 S
C351 C348 1.403 . S
C351 C352 1.524 . S
C351 C355 1.400 1_545 S
C352 H337 0.960 1_545 S
C352 H338 0.960 . S
C352 H339 0.960 . S
C352 C351 1.524 . S
C353 C350 1.403 1_565 S
C353 C354 1.392 . S
C353 C357 1.495 . S
C354 C353 1.392 . S
C354 C355 1.385 . S
C354 C356 1.478 . S
C355 H349 0.930 . S
C355 C351 1.400 1_565 S
C355 C354 1.385 . S
C356 C354 1.478 . S
C356 C358 1.381 . S
C356 C362 1.383 . S
C357 C353 1.495 . S
C357 H363 0.959 1_565 S
C357 H364 0.961 . S
C357 H365 0.960 . S
C358 C356 1.381 . S
C358 C359 1.394 . S
C358 H366 0.930 . S
C359 C358 1.394 . S
C359 C360 1.383 . S
C359 H367 0.929 . S
C360 C359 1.383 . S
C360 C361 1.377 . S
C361 H345 0.930 . S
C361 C360 1.377 . S
C361 C362 1.379 . S
C362 H346 0.931 . S
C362 C356 1.383 . S
C362 C361 1.379 . S
H363 C357 0.959 1_545 S
H364 C357 0.961 . S
H365 C357 0.960 . S
H366 C358 0.930 . S
H367 C359 0.929 . S
H368 C376 0.929 . S
H369 C378 0.930 . S
H370 C380 0.930 . S
H371 C383 0.929 . S
H372 C386 0.930 . S
H373 C388 0.960 . S
H374 C388 0.960 . S
H375 C388 0.960 . S
C376 H368 0.929 . S
C376 C377 1.377 . S
C376 C378 1.384 . S
C377 C376 1.377 . S
C377 C383 1.390 . S
C378 H369 0.930 . S
C378 C376 1.384 . S
C378 C379 1.372 . S
C379 C378 1.372 . S
C379 C380 1.400 . S
C379 C384 1.490 . S
C380 H370 0.930 . S
C380 C379 1.400 . S
C380 C383 1.386 . S
H381 C397 0.930 . S
H382 C398 0.931 . S
C383 H371 0.929 . S
C383 C377 1.390 . S
C383 C380 1.386 . S
C384 C379 1.490 . S
C384 C386 1.395 . S
C384 C387 1.403 . S
H385 C391 0.930 . S
C386 H372 0.930 . S
C386 C384 1.395 . S
C386 C389 1.403 1_455 S
C387 C384 1.403 . S
C387 C388 1.524 . S
C387 C391 1.400 1_455 S
C388 H373 0.960 . S
C388 H374 0.960 . S
C388 H375 0.960 . S
C388 C387 1.524 . S
C389 C386 1.403 1_655 S
C389 C390 1.392 . S
C389 C393 1.495 . S
C390 C389 1.392 . S
C390 C391 1.385 . S
C390 C392 1.478 . S
C391 H385 0.930 . S
C391 C387 1.400 1_655 S
C391 C390 1.385 . S
C392 C390 1.478 . S
C392 C394 1.381 . S
C392 C398 1.383 . S
C393 C389 1.495 . S
C393 H399 0.959 . S
C393 H400 0.961 . S
C393 H401 0.960 . S
C394 C392 1.381 . S
C394 C395 1.394 . S
C394 H402 0.930 . S
C395 C394 1.394 . S
C395 C396 1.383 . S
C395 H403 0.929 . S
C396 C395 1.383 . S
C396 C397 1.377 . S
C397 H381 0.930 . S
C397 C396 1.377 . S
C397 C398 1.379 . S
C398 H382 0.931 . S
C398 C392 1.383 . S
C398 C397 1.379 . S
H399 C393 0.959 . S
H400 C393 0.961 . S
H401 C393 0.960 . S
H402 C394 0.930 . S
H403 C395 0.929 . S
H404 C412 0.929 . S
H405 C414 0.930 . S
H406 C416 0.930 . S
H407 C419 0.929 . S
H408 C422 0.930 . S
H409 C424 0.960 . S
H410 C424 0.960 . S
H411 C424 0.960 . S
C412 H404 0.929 . S
C412 C413 1.377 . S
C412 C414 1.384 . S
C413 C412 1.377 . S
C413 C419 1.390 . S
C414 H405 0.930 . S
C414 C412 1.384 . S
C414 C415 1.372 . S
C415 C414 1.372 . S
C415 C416 1.400 . S
C415 C420 1.490 . S
C416 H406 0.930 . S
C416 C415 1.400 . S
C416 C419 1.386 . S
H417 C433 0.930 . S
H418 C434 0.931 . S
C419 H407 0.929 . S
C419 C413 1.390 . S
C419 C416 1.386 . S
C420 C415 1.490 . S
C420 C422 1.395 . S
C420 C423 1.403 . S
H421 C427 0.930 . S
C422 H408 0.930 . S
C422 C420 1.395 . S
C422 C425 1.403 . S
C423 C420 1.403 . S
C423 C424 1.524 . S
C423 C427 1.400 . S
C424 H409 0.960 . S
C424 H410 0.960 . S
C424 H411 0.960 . S
C424 C423 1.524 . S
C425 C422 1.403 . S
C425 C426 1.392 . S
C425 C429 1.495 . S
C426 C425 1.392 . S
C426 C427 1.385 . S
C426 C428 1.478 . S
C427 H421 0.930 . S
C427 C423 1.400 . S
C427 C426 1.385 . S
C428 C426 1.478 . S
C428 C430 1.381 . S
C428 C434 1.383 . S
C429 C425 1.495 . S
C429 H435 0.959 . S
C429 H436 0.961 . S
C429 H437 0.960 . S
C430 C428 1.381 . S
C430 C431 1.394 . S
C430 H438 0.930 . S
C431 C430 1.394 . S
C431 C432 1.383 . S
C431 H439 0.929 . S
C432 C431 1.383 . S
C432 C433 1.377 . S
C433 H417 0.930 . S
C433 C432 1.377 . S
C433 C434 1.379 . S
C434 H418 0.931 . S
C434 C428 1.383 . S
C434 C433 1.379 . S
H435 C429 0.959 . S
H436 C429 0.961 . S
H437 C429 0.960 . S
H438 C430 0.930 . S
H439 C431 0.929 . S
H440 C448 0.929 . S
H441 C450 0.930 . S
H442 C452 0.930 . S
H443 C455 0.929 . S
H444 C458 0.930 . S
H445 C460 0.960 . S
H446 C460 0.960 . S
H447 C460 0.960 . S
C448 H440 0.929 . S
C448 C449 1.377 . S
C448 C450 1.384 . S
C449 C448 1.377 . S
C449 C455 1.390 . S
C450 H441 0.930 . S
C450 C448 1.384 . S
C450 C451 1.372 . S
C451 C450 1.372 . S
C451 C452 1.400 . S
C451 C456 1.490 . S
C452 H442 0.930 . S
C452 C451 1.400 . S
C452 C455 1.386 . S
H453 C469 0.930 . S
H454 C470 0.931 . S
C455 H443 0.929 . S
C455 C449 1.390 . S
C455 C452 1.386 . S
C456 C451 1.490 . S
C456 C458 1.395 . S
C456 C459 1.403 1_545 S
H457 C463 0.930 . S
C458 H444 0.930 . S
C458 C456 1.395 . S
C458 C461 1.403 . S
C459 C456 1.403 1_565 S
C459 C460 1.524 . S
C459 C463 1.400 . S
C460 H445 0.960 . S
C460 H446 0.960 . S
C460 H447 0.960 . S
C460 C459 1.524 . S
C461 C458 1.403 . S
C461 C462 1.392 1_545 S
C461 C465 1.495 . S
C462 C461 1.392 1_565 S
C462 C463 1.385 . S
C462 C464 1.478 . S
C463 H457 0.930 . S
C463 C459 1.400 . S
C463 C462 1.385 . S
C464 C462 1.478 . S
C464 C466 1.381 . S
C464 C470 1.383 . S
C465 C461 1.495 . S
C465 H471 0.959 . S
C465 H472 0.961 . S
C465 H473 0.960 . S
C466 C464 1.381 . S
C466 C467 1.394 . S
C466 H474 0.930 . S
C467 C466 1.394 . S
C467 C468 1.383 . S
C467 H475 0.929 . S
C468 C467 1.383 . S
C468 C469 1.377 . S
C469 H453 0.930 . S
C469 C468 1.377 . S
C469 C470 1.379 . S
C470 H454 0.931 . S
C470 C464 1.383 . S
C470 C469 1.379 . S
H471 C465 0.959 . S
H472 C465 0.961 . S
H473 C465 0.960 . S
H474 C466 0.930 . S
H475 C467 0.929 . S
H476 C484 0.929 . S
H477 C486 0.930 . S
H478 C488 0.930 . S
H479 C491 0.929 . S
H480 C494 0.931 . S
H481 C496 0.960 . S
H482 C496 0.960 . S
H483 C496 0.960 . S
C484 H476 0.929 . S
C484 C485 1.377 . S
C484 C486 1.384 . S
C485 C484 1.377 . S
C485 C491 1.390 . S
C486 H477 0.930 . S
C486 C484 1.384 . S
C486 C487 1.372 . S
C487 C486 1.372 . S
C487 C488 1.400 . S
C487 C492 1.490 . S
C488 H478 0.930 . S
C488 C487 1.400 . S
C488 C491 1.386 . S
H489 C505 0.930 . S
H490 C506 0.931 . S
C491 H479 0.929 . S
C491 C485 1.390 . S
C491 C488 1.386 . S
C492 C487 1.490 . S
C492 C494 1.403 . S
C492 C495 1.403 1_455 S
H493 C499 0.930 . S
C494 H480 0.931 . S
C494 C492 1.403 . S
C494 C497 1.394 1_545 S
C495 C492 1.403 1_655 S
C495 C496 1.524 . S
C495 C499 1.400 1_545 S
C496 H481 0.960 . S
C496 H482 0.960 . S
C496 H483 0.960 . S
C496 C495 1.524 . S
C497 C494 1.394 1_565 S
C497 C498 1.392 1_455 S
C497 C501 1.495 . S
C498 C497 1.392 1_655 S
C498 C499 1.385 . S
C498 C500 1.478 . S
C499 H493 0.930 . S
C499 C495 1.400 1_565 S
C499 C498 1.385 . S
C500 C498 1.478 . S
C500 C502 1.381 . S
C500 C506 1.383 . S
C501 C497 1.495 . S
C501 H507 0.959 . S
C501 H508 0.961 . S
C501 H509 0.960 . S
C502 C500 1.381 . S
C502 C503 1.394 . S
C502 H510 0.930 . S
C503 C502 1.394 . S
C503 C504 1.383 . S
C503 H511 0.929 . S
C504 C503 1.383 . S
C504 C505 1.377 . S
C505 H489 0.930 . S
C505 C504 1.377 . S
C505 C506 1.379 . S
C506 H490 0.931 . S
C506 C500 1.383 . S
C506 C505 1.379 . S
H507 C501 0.959 . S
H508 C501 0.961 . S
H509 C501 0.960 . S
H510 C502 0.930 . S
H511 C503 0.929 . S
H512 C520 0.929 . S
H513 C522 0.930 . S
H514 C524 0.930 . S
H515 C527 0.929 . S
H516 C530 0.930 . S
H517 C532 0.960 . S
H518 C532 0.960 . S
H519 C532 0.960 . S
C520 H512 0.929 . S
C520 C521 1.377 . S
C520 C522 1.384 . S
C521 C520 1.377 . S
C521 C527 1.390 . S
C522 H513 0.930 . S
C522 C520 1.384 . S
C522 C523 1.372 . S
C523 C522 1.372 . S
C523 C524 1.400 . S
C523 C528 1.490 . S
C524 H514 0.930 . S
C524 C523 1.400 . S
C524 C527 1.386 . S
H525 C541 0.930 . S
H526 C542 0.931 . S
C527 H515 0.929 . S
C527 C521 1.390 . S
C527 C524 1.386 . S
C528 C523 1.490 . S
C528 C530 1.395 1_565 S
C528 C531 1.403 . S
H529 C535 0.930 . S
C530 H516 0.930 . S
C530 C528 1.395 1_545 S
C530 C533 1.403 . S
C531 C528 1.403 . S
C531 C532 1.524 . S
C531 C535 1.400 . S
C532 H517 0.960 . S
C532 H518 0.960 . S
C532 H519 0.960 . S
C532 C531 1.524 . S
C533 C530 1.403 . S
C533 C534 1.392 . S
C533 C537 1.495 . S
C534 C533 1.392 . S
C534 C535 1.385 1_545 S
C534 C536 1.478 . S
C535 H529 0.930 . S
C535 C531 1.400 . S
C535 C534 1.385 1_565 S
C536 C534 1.478 . S
C536 C538 1.381 . S
C536 C542 1.383 . S
C537 C533 1.495 . S
C537 H543 0.959 . S
C537 H544 0.961 . S
C537 H545 0.960 . S
C538 C536 1.381 . S
C538 C539 1.394 . S
C538 H546 0.930 . S
C539 C538 1.394 . S
C539 C540 1.383 . S
C539 H547 0.929 . S
C540 C539 1.383 . S
C540 C541 1.377 . S
C541 H525 0.930 . S
C541 C540 1.377 . S
C541 C542 1.379 . S
C542 H526 0.931 . S
C542 C536 1.383 . S
C542 C541 1.379 . S
H543 C537 0.959 . S
H544 C537 0.961 . S
H545 C537 0.960 . S
H546 C538 0.930 . S
H547 C539 0.929 . S
H548 C556 0.929 . S
H549 C558 0.930 . S
H550 C560 0.930 . S
H551 C563 0.929 . S
H552 C566 0.930 . S
H553 C568 0.960 . S
H554 C568 0.960 1_565 S
H555 C568 0.960 1_565 S
C556 H548 0.929 . S
C556 C557 1.377 . S
C556 C558 1.384 . S
C557 C556 1.377 . S
C557 C563 1.390 . S
C558 H549 0.930 . S
C558 C556 1.384 . S
C558 C559 1.372 . S
C559 C558 1.372 . S
C559 C560 1.400 . S
C559 C564 1.490 . S
C560 H550 0.930 . S
C560 C559 1.400 . S
C560 C563 1.386 . S
H561 C577 0.930 . S
H562 C578 0.931 . S
C563 H551 0.929 . S
C563 C557 1.390 . S
C563 C560 1.386 . S
C564 C559 1.490 . S
C564 C566 1.395 1_655 S
C564 C567 1.425 . S
H565 C571 0.930 . S
C566 H552 0.930 . S
C566 C564 1.395 1_455 S
C566 C569 1.403 . S
C567 C564 1.425 . S
C567 C568 1.522 1_565 S
C567 C571 1.379 1_565 S
C568 H553 0.960 . S
C568 H554 0.960 1_545 S
C568 H555 0.960 1_545 S
C568 C567 1.522 1_545 S
C569 C566 1.403 . S
C569 C570 1.392 1_565 S
C569 C573 1.495 . S
C570 C569 1.392 1_545 S
C570 C571 1.385 1_455 S
C570 C572 1.478 . S
C571 H565 0.930 . S
C571 C567 1.379 1_545 S
C571 C570 1.385 1_655 S
C572 C570 1.478 . S
C572 C574 1.381 . S
C572 C578 1.383 . S
C573 C569 1.495 . S
C573 H579 0.959 . S
C573 H580 0.961 1_565 S
C573 H581 0.960 1_565 S
C574 C572 1.381 . S
C574 C575 1.394 . S
C574 H582 0.930 . S
C575 C574 1.394 . S
C575 C576 1.383 . S
C575 H583 0.929 . S
C576 C575 1.383 . S
C576 C577 1.377 . S
C577 H561 0.930 . S
C577 C576 1.377 . S
C577 C578 1.379 . S
C578 H562 0.931 . S
C578 C572 1.383 . S
C578 C577 1.379 . S
H579 C573 0.959 . S
H580 C573 0.961 1_545 S
H581 C573 0.960 1_545 S
H582 C574 0.930 . S
H583 C575 0.929 . S
H584 C592 0.929 . S
H585 C594 0.930 . S
H586 C596 0.930 . S
H587 C599 0.929 . S
H588 C602 0.930 . S
H589 C604 0.960 . S
H590 C604 0.960 . S
H591 C604 0.960 . S
C592 H584 0.929 . S
C592 C593 1.377 . S
C592 C594 1.384 . S
C593 C592 1.377 . S
C593 C599 1.390 . S
C594 H585 0.930 . S
C594 C592 1.384 . S
C594 C595 1.372 . S
C595 C594 1.372 . S
C595 C596 1.400 . S
C595 C600 1.490 . S
C596 H586 0.930 . S
C596 C595 1.400 . S
C596 C599 1.386 . S
H597 C613 0.930 . S
H598 C614 0.931 . S
C599 H587 0.929 . S
C599 C593 1.390 . S
C599 C596 1.386 . S
C600 C595 1.490 . S
C600 C602 1.395 . S
C600 C603 1.403 . S
H601 C607 0.930 . S
C602 H588 0.930 . S
C602 C600 1.395 . S
C602 C605 1.403 1_455 S
C603 C600 1.403 . S
C603 C604 1.524 . S
C603 C607 1.400 1_455 S
C604 H589 0.960 . S
C604 H590 0.960 . S
C604 H591 0.960 . S
C604 C603 1.524 . S
C605 C602 1.403 1_655 S
C605 C606 1.392 . S
C605 C609 1.495 . S
C606 C605 1.392 . S
C606 C607 1.385 . S
C606 C608 1.478 . S
C607 H601 0.930 . S
C607 C603 1.400 1_655 S
C607 C606 1.385 . S
C608 C606 1.478 . S
C608 C610 1.381 . S
C608 C614 1.383 . S
C609 C605 1.495 . S
C609 H615 0.959 . S
C609 H616 0.961 . S
C609 H617 0.960 . S
C610 C608 1.381 . S
C610 C611 1.394 . S
C610 H618 0.930 . S
C611 C610 1.394 . S
C611 C612 1.383 . S
C611 H619 0.929 . S
C612 C611 1.383 . S
C612 C613 1.377 . S
C613 H597 0.930 . S
C613 C612 1.377 . S
C613 C614 1.379 . S
C614 H598 0.931 . S
C614 C608 1.383 . S
C614 C613 1.379 . S
H615 C609 0.959 . S
H616 C609 0.961 . S
H617 C609 0.960 . S
H618 C610 0.930 . S
H619 C611 0.929 . S
H620 C628 0.929 . S
H621 C630 0.930 . S
H622 C632 0.930 . S
H623 C635 0.929 . S
H624 C638 0.930 . S
H625 C640 0.960 . S
H626 C640 0.960 . S
H627 C640 0.960 . S
C628 H620 0.929 . S
C628 C629 1.377 . S
C628 C630 1.384 . S
C629 C628 1.377 . S
C629 C635 1.390 . S
C630 H621 0.930 . S
C630 C628 1.384 . S
C630 C631 1.372 . S
C631 C630 1.372 . S
C631 C632 1.400 . S
C631 C636 1.490 . S
C632 H622 0.930 . S
C632 C631 1.400 . S
C632 C635 1.386 . S
H633 C649 0.930 . S
H634 C650 0.931 . S
C635 H623 0.929 . S
C635 C629 1.390 . S
C635 C632 1.386 . S
C636 C631 1.490 . S
C636 C638 1.395 . S
C636 C639 1.403 . S
H637 C643 0.930 . S
C638 H624 0.930 . S
C638 C636 1.395 . S
C638 C641 1.403 . S
C639 C636 1.403 . S
C639 C640 1.524 . S
C639 C643 1.400 . S
C640 H625 0.960 . S
C640 H626 0.960 . S
C640 H627 0.960 . S
C640 C639 1.524 . S
C641 C638 1.403 . S
C641 C642 1.392 . S
C641 C645 1.495 . S
C642 C641 1.392 . S
C642 C643 1.385 . S
C642 C644 1.478 . S
C643 H637 0.930 . S
C643 C639 1.400 . S
C643 C642 1.385 . S
C644 C642 1.478 . S
C644 C646 1.381 . S
C644 C650 1.383 . S
C645 C641 1.495 . S
C645 H651 0.959 . S
C645 H652 0.961 . S
C645 H653 0.960 . S
C646 C644 1.381 . S
C646 C647 1.394 . S
C646 H654 0.930 . S
C647 C646 1.394 . S
C647 C648 1.383 . S
C647 H655 0.929 . S
C648 C647 1.383 . S
C648 C649 1.377 . S
C649 H633 0.930 . S
C649 C648 1.377 . S
C649 C650 1.379 . S
C650 H634 0.931 . S
C650 C644 1.383 . S
C650 C649 1.379 . S
H651 C645 0.959 . S
H652 C645 0.961 . S
H653 C645 0.960 . S
H654 C646 0.930 . S
H655 C647 0.929 . S
H656 C664 0.929 . S
H657 C666 0.930 . S
H658 C668 0.930 . S
H659 C671 0.929 . S
H660 C674 0.930 . S
H661 C676 0.960 . S
H662 C676 0.960 . S
H663 C676 0.960 . S
C664 H656 0.929 . S
C664 C665 1.377 . S
C664 C666 1.384 . S
C665 C664 1.377 . S
C665 C671 1.390 . S
C666 H657 0.930 . S
C666 C664 1.384 . S
C666 C667 1.372 . S
C667 C666 1.372 . S
C667 C668 1.400 . S
C667 C672 1.490 . S
C668 H658 0.930 . S
C668 C667 1.400 . S
C668 C671 1.386 . S
H669 C685 0.930 . S
H670 C686 0.931 . S
C671 H659 0.929 . S
C671 C665 1.390 . S
C671 C668 1.386 . S
C672 C667 1.490 . S
C672 C674 1.395 . S
C672 C675 1.403 . S
H673 C679 0.930 . S
C674 H660 0.930 . S
C674 C672 1.395 . S
C674 C677 1.403 . S
C675 C672 1.403 . S
C675 C676 1.524 . S
C675 C679 1.400 . S
C676 H661 0.960 . S
C676 H662 0.960 . S
C676 H663 0.960 . S
C676 C675 1.524 . S
C677 C674 1.403 . S
C677 C678 1.392 . S
C677 C681 1.495 . S
C678 C677 1.392 . S
C678 C679 1.385 . S
C678 C680 1.478 . S
C679 H673 0.930 . S
C679 C675 1.400 . S
C679 C678 1.385 . S
C680 C678 1.478 . S
C680 C682 1.381 . S
C680 C686 1.383 . S
C681 C677 1.495 . S
C681 H687 0.959 . S
C681 H688 0.961 . S
C681 H689 0.960 . S
C682 C680 1.381 . S
C682 C683 1.394 . S
C682 H690 0.930 . S
C683 C682 1.394 . S
C683 C684 1.383 . S
C683 H691 0.929 . S
C684 C683 1.383 . S
C684 C685 1.377 . S
C685 H669 0.930 . S
C685 C684 1.377 . S
C685 C686 1.379 . S
C686 H670 0.931 . S
C686 C680 1.383 . S
C686 C685 1.379 . S
H687 C681 0.959 . S
H688 C681 0.961 . S
H689 C681 0.960 . S
H690 C682 0.930 . S
H691 C683 0.929 . S
H692 C700 0.929 . S
H693 C702 0.930 . S
H694 C704 0.930 . S
H695 C707 0.929 . S
H696 C710 0.930 . S
H697 C712 0.982 . S
H698 C712 0.948 1_565 S
H699 C712 0.952 1_565 S
C700 H692 0.929 . S
C700 C701 1.377 . S
C700 C702 1.384 . S
C701 C700 1.377 . S
C701 C707 1.390 . S
C702 H693 0.930 . S
C702 C700 1.384 . S
C702 C703 1.372 . S
C703 C702 1.372 . S
C703 C704 1.400 . S
C703 C708 1.490 . S
C704 H694 0.930 . S
C704 C703 1.400 . S
C704 C707 1.386 . S
H705 C721 0.930 . S
H706 C722 0.931 . S
C707 H695 0.929 . S
C707 C701 1.390 . S
C707 C704 1.386 . S
C708 C703 1.490 . S
C708 C710 1.395 . S
C708 C711 1.403 . S
H709 C715 0.930 . S
C710 H696 0.930 . S
C710 C708 1.395 . S
C710 C713 1.403 . S
C711 C708 1.403 . S
C711 C712 1.523 1_565 S
C711 C715 1.400 1_565 S
C712 H697 0.982 . S
C712 H698 0.948 1_545 S
C712 H699 0.952 1_545 S
C712 C711 1.523 1_545 S
C713 C710 1.403 . S
C713 C714 1.392 1_565 S
C713 C717 1.495 . S
C714 C713 1.392 1_545 S
C714 C715 1.385 . S
C714 C716 1.478 . S
C715 H709 0.930 . S
C715 C711 1.400 1_545 S
C715 C714 1.385 . S
C716 C714 1.478 . S
C716 C718 1.381 . S
C716 C722 1.383 . S
C717 C713 1.495 . S
C717 H723 0.959 . S
C717 H724 0.961 1_565 S
C717 H725 0.960 1_565 S
C718 C716 1.381 . S
C718 C719 1.394 . S
C718 H726 0.930 . S
C719 C718 1.394 . S
C719 C720 1.383 . S
C719 H727 0.929 . S
C720 C719 1.383 . S
C720 C721 1.377 . S
C721 H705 0.930 . S
C721 C720 1.377 . S
C721 C722 1.379 . S
C722 H706 0.931 . S
C722 C716 1.383 . S
C722 C721 1.379 . S
H723 C717 0.959 . S
H724 C717 0.961 1_545 S
H725 C717 0.960 1_545 S
H726 C718 0.930 . S
H727 C719 0.929 . S
H728 C736 0.929 . S
H729 C738 0.930 . S
H730 C740 0.930 . S
H731 C743 0.929 . S
H732 C746 0.930 . S
H733 C748 0.960 . S
H734 C748 0.960 1_655 S
H735 C748 0.960 1_655 S
C736 H728 0.929 . S
C736 C737 1.377 . S
C736 C738 1.384 . S
C737 C736 1.377 . S
C737 C743 1.390 . S
C738 H729 0.930 . S
C738 C736 1.384 . S
C738 C739 1.372 . S
C739 C738 1.372 . S
C739 C740 1.400 . S
C739 C744 1.490 . S
C740 H730 0.930 . S
C740 C739 1.400 . S
C740 C743 1.386 . S
H741 C757 0.930 . S
H742 C758 0.931 . S
C743 H731 0.929 . S
C743 C737 1.390 . S
C743 C740 1.386 . S
C744 C739 1.490 . S
C744 C746 1.395 1_565 S
C744 C747 1.427 . S
H745 C751 0.930 . S
C746 H732 0.930 . S
C746 C744 1.395 1_545 S
C746 C749 1.403 . S
C747 C744 1.427 . S
C747 C748 1.522 1_655 S
C747 C751 1.377 1_655 S
C748 H733 0.960 . S
C748 H734 0.960 1_455 S
C748 H735 0.960 1_455 S
C748 C747 1.522 1_455 S
C749 C746 1.403 . S
C749 C750 1.392 1_655 S
C749 C753 1.495 . S
C750 C749 1.392 1_455 S
C750 C751 1.385 1_545 S
C750 C752 1.478 . S
C751 H745 0.930 . S
C751 C747 1.377 1_455 S
C751 C750 1.385 1_565 S
C752 C750 1.478 . S
C752 C754 1.381 . S
C752 C758 1.383 . S
C753 C749 1.495 . S
C753 H759 0.959 . S
C753 H760 0.961 1_655 S
C753 H761 0.960 1_655 S
C754 C752 1.381 . S
C754 C755 1.394 . S
C754 H762 0.930 . S
C755 C754 1.394 . S
C755 C756 1.383 . S
C755 H763 0.929 . S
C756 C755 1.383 . S
C756 C757 1.377 . S
C757 H741 0.930 . S
C757 C756 1.377 . S
C757 C758 1.379 . S
C758 H742 0.931 . S
C758 C752 1.383 . S
C758 C757 1.379 . S
H759 C753 0.959 . S
H760 C753 0.961 1_455 S
H761 C753 0.960 1_455 S
H762 C754 0.930 . S
H763 C755 0.929 . S
H764 C772 0.929 . S
H765 C774 0.930 . S
H766 C776 0.930 . S
H767 C779 0.929 . S
H768 C782 0.930 . S
H769 C784 0.960 . S
H770 C784 0.960 . S
H771 C784 0.960 . S
C772 H764 0.929 . S
C772 C773 1.377 . S
C772 C774 1.384 . S
C773 C772 1.377 . S
C773 C779 1.390 . S
C774 H765 0.930 . S
C774 C772 1.384 . S
C774 C775 1.372 . S
C775 C774 1.372 . S
C775 C776 1.400 . S
C775 C780 1.490 . S
C776 H766 0.930 . S
C776 C775 1.400 . S
C776 C779 1.386 . S
H777 C793 0.930 . S
H778 C794 0.931 . S
C779 H767 0.929 . S
C779 C773 1.390 . S
C779 C776 1.386 . S
C780 C775 1.490 . S
C780 C782 1.395 1_455 S
C780 C783 1.403 . S
H781 C787 0.930 . S
C782 H768 0.930 . S
C782 C780 1.395 1_655 S
C782 C785 1.403 . S
C783 C780 1.403 . S
C783 C784 1.524 . S
C783 C787 1.400 . S
C784 H769 0.960 . S
C784 H770 0.960 . S
C784 H771 0.960 . S
C784 C783 1.524 . S
C785 C782 1.403 . S
C785 C786 1.392 . S
C785 C789 1.495 . S
C786 C785 1.392 . S
C786 C787 1.385 1_655 S
C786 C788 1.478 . S
C787 H781 0.930 . S
C787 C783 1.400 . S
C787 C786 1.385 1_455 S
C788 C786 1.478 . S
C788 C790 1.381 . S
C788 C794 1.383 . S
C789 C785 1.495 . S
C789 H795 0.959 . S
C789 H796 0.961 . S
C789 H797 0.960 . S
C790 C788 1.381 . S
C790 C791 1.394 . S
C790 H798 0.930 . S
C791 C790 1.394 . S
C791 C792 1.383 . S
C791 H799 0.929 . S
C792 C791 1.383 . S
C792 C793 1.377 . S
C793 H777 0.930 . S
C793 C792 1.377 . S
C793 C794 1.379 . S
C794 H778 0.931 . S
C794 C788 1.383 . S
C794 C793 1.379 . S
H795 C789 0.959 . S
H796 C789 0.961 . S
H797 C789 0.960 . S
H798 C790 0.930 . S
H799 C791 0.929 . S
H800 C808 0.929 . S
H801 C810 0.930 . S
H802 C812 0.930 . S
H803 C815 0.929 . S
H804 C818 0.930 . S
H805 C820 0.960 . S
H806 C820 0.960 . S
H807 C820 0.960 . S
C808 H800 0.929 . S
C808 C809 1.377 . S
C808 C810 1.384 . S
C809 C808 1.377 . S
C809 C815 1.390 . S
C810 H801 0.930 . S
C810 C808 1.384 . S
C810 C811 1.372 . S
C811 C810 1.372 . S
C811 C812 1.400 . S
C811 C816 1.490 . S
C812 H802 0.930 . S
C812 C811 1.400 . S
C812 C815 1.386 . S
H813 C829 0.930 . S
H814 C830 0.931 . S
C815 H803 0.929 . S
C815 C809 1.390 . S
C815 C812 1.386 . S
C816 C811 1.490 . S
C816 C818 1.395 . S
C816 C819 1.403 . S
H817 C823 0.930 . S
C818 H804 0.930 . S
C818 C816 1.395 . S
C818 C821 1.403 . S
C819 C816 1.403 . S
C819 C820 1.524 . S
C819 C823 1.400 . S
C820 H805 0.960 . S
C820 H806 0.960 . S
C820 H807 0.960 . S
C820 C819 1.524 . S
C821 C818 1.403 . S
C821 C822 1.392 . S
C821 C825 1.495 . S
C822 C821 1.392 . S
C822 C823 1.385 . S
C822 C824 1.478 . S
C823 H817 0.930 . S
C823 C819 1.400 . S
C823 C822 1.385 . S
C824 C822 1.478 . S
C824 C826 1.381 . S
C824 C830 1.383 . S
C825 C821 1.495 . S
C825 H831 0.959 . S
C825 H832 0.961 . S
C825 H833 0.960 . S
C826 C824 1.381 . S
C826 C827 1.394 . S
C826 H834 0.930 . S
C827 C826 1.394 . S
C827 C828 1.383 . S
C827 H835 0.929 . S
C828 C827 1.383 . S
C828 C829 1.377 . S
C829 H813 0.930 . S
C829 C828 1.377 . S
C829 C830 1.379 . S
C830 H814 0.931 . S
C830 C824 1.383 . S
C830 C829 1.379 . S
H831 C825 0.959 . S
H832 C825 0.961 . S
H833 C825 0.960 . S
H834 C826 0.930 . S
H835 C827 0.929 . S
H836 C844 0.929 . S
H837 C846 0.930 . S
H838 C848 0.930 . S
H839 C851 0.929 . S
H840 C854 0.930 . S
H841 C856 0.960 . S
H842 C856 0.960 . S
H843 C856 0.960 . S
C844 H836 0.929 . S
C844 C845 1.377 . S
C844 C846 1.384 . S
C845 C844 1.377 . S
C845 C851 1.390 . S
C846 H837 0.930 . S
C846 C844 1.384 . S
C846 C847 1.372 . S
C847 C846 1.372 . S
C847 C848 1.400 . S
C847 C852 1.490 . S
C848 H838 0.930 . S
C848 C847 1.400 . S
C848 C851 1.386 . S
H849 C865 0.930 . S
H850 C866 0.931 . S
C851 H839 0.929 . S
C851 C845 1.390 . S
C851 C848 1.386 . S
C852 C847 1.490 . S
C852 C854 1.395 . S
C852 C855 1.403 . S
H853 C859 0.930 . S
C854 H840 0.930 . S
C854 C852 1.395 . S
C854 C857 1.403 . S
C855 C852 1.403 . S
C855 C856 1.524 . S
C855 C859 1.400 . S
C856 H841 0.960 . S
C856 H842 0.960 . S
C856 H843 0.960 . S
C856 C855 1.524 . S
C857 C854 1.403 . S
C857 C858 1.392 . S
C857 C861 1.495 . S
C858 C857 1.392 . S
C858 C859 1.385 . S
C858 C860 1.478 . S
C859 H853 0.930 . S
C859 C855 1.400 . S
C859 C858 1.385 . S
C860 C858 1.478 . S
C860 C862 1.381 . S
C860 C866 1.383 . S
C861 C857 1.495 . S
C861 H867 0.959 . S
C861 H868 0.961 . S
C861 H869 0.960 . S
C862 C860 1.381 . S
C862 C863 1.394 . S
C862 H870 0.930 . S
C863 C862 1.394 . S
C863 C864 1.383 . S
C863 H871 0.929 . S
C864 C863 1.383 . S
C864 C865 1.377 . S
C865 H849 0.930 . S
C865 C864 1.377 . S
C865 C866 1.379 . S
C866 H850 0.931 . S
C866 C860 1.383 . S
C866 C865 1.379 . S
H867 C861 0.959 . S
H868 C861 0.961 . S
H869 C861 0.960 . S
H870 C862 0.930 . S
H871 C863 0.929 . S
H872 C880 0.929 . S
H873 C882 0.930 . S
H874 C884 0.930 . S
H875 C887 0.929 . S
H876 C890 0.930 . S
H877 C892 0.960 . S
H878 C892 0.960 . S
H879 C892 0.960 . S
C880 H872 0.929 . S
C880 C881 1.377 . S
C880 C882 1.384 . S
C881 C880 1.377 . S
C881 C887 1.390 . S
C882 H873 0.930 . S
C882 C880 1.384 . S
C882 C883 1.372 . S
C883 C882 1.372 . S
C883 C884 1.400 . S
C883 C888 1.490 . S
C884 H874 0.930 . S
C884 C883 1.400 . S
C884 C887 1.386 . S
H885 C901 0.930 . S
H886 C902 0.931 . S
C887 H875 0.929 . S
C887 C881 1.390 . S
C887 C884 1.386 . S
C888 C883 1.490 . S
C888 C890 1.395 . S
C888 C891 1.403 . S
H889 C895 0.930 . S
C890 H876 0.930 . S
C890 C888 1.395 . S
C890 C893 1.403 . S
C891 C888 1.403 . S
C891 C892 1.524 . S
C891 C895 1.400 . S
C892 H877 0.960 . S
C892 H878 0.960 . S
C892 H879 0.960 . S
C892 C891 1.524 . S
C893 C890 1.403 . S
C893 C894 1.392 . S
C893 C897 1.495 . S
C894 C893 1.392 . S
C894 C895 1.385 . S
C894 C896 1.478 . S
C895 H889 0.930 . S
C895 C891 1.400 . S
C895 C894 1.385 . S
C896 C894 1.478 . S
C896 C898 1.381 . S
C896 C902 1.383 . S
C897 C893 1.495 . S
C897 H903 0.959 . S
C897 H904 0.961 . S
C897 H905 0.960 . S
C898 C896 1.381 . S
C898 C899 1.394 . S
C898 H906 0.930 . S
C899 C898 1.394 . S
C899 C900 1.383 . S
C899 H907 0.929 . S
C900 C899 1.383 . S
C900 C901 1.377 . S
C901 H885 0.930 . S
C901 C900 1.377 . S
C901 C902 1.379 . S
C902 H886 0.931 . S
C902 C896 1.383 . S
C902 C901 1.379 . S
H903 C897 0.959 . S
H904 C897 0.961 . S
H905 C897 0.960 . S
H906 C898 0.930 . S
H907 C899 0.929 . S
H908 C916 0.929 . S
H909 C918 0.930 . S
H910 C920 0.930 . S
H911 C923 0.929 . S
H912 C926 0.930 . S
H913 C928 0.960 . S
H914 C928 0.960 . S
H915 C928 0.960 . S
C916 H908 0.929 . S
C916 C917 1.377 . S
C916 C918 1.384 . S
C917 C916 1.377 . S
C917 C923 1.390 . S
C918 H909 0.930 . S
C918 C916 1.384 . S
C918 C919 1.372 . S
C919 C918 1.372 . S
C919 C920 1.400 . S
C919 C924 1.490 . S
C920 H910 0.930 . S
C920 C919 1.400 . S
C920 C923 1.386 . S
H921 C937 0.930 . S
H922 C938 0.931 . S
C923 H911 0.929 . S
C923 C917 1.390 . S
C923 C920 1.386 . S
C924 C919 1.490 . S
C924 C926 1.395 . S
C924 C927 1.403 . S
H925 C931 0.930 . S
C926 H912 0.930 . S
C926 C924 1.395 . S
C926 C929 1.403 . S
C927 C924 1.403 . S
C927 C928 1.524 . S
C927 C931 1.400 . S
C928 H913 0.960 . S
C928 H914 0.960 . S
C928 H915 0.960 . S
C928 C927 1.524 . S
C929 C926 1.403 . S
C929 C930 1.392 . S
C929 C933 1.495 . S
C930 C929 1.392 . S
C930 C931 1.385 . S
C930 C932 1.478 . S
C931 H925 0.930 . S
C931 C927 1.400 . S
C931 C930 1.385 . S
C932 C930 1.478 . S
C932 C934 1.381 . S
C932 C938 1.383 . S
C933 C929 1.495 . S
C933 H939 0.959 . S
C933 H940 0.961 . S
C933 H941 0.960 . S
C934 C932 1.381 . S
C934 C935 1.394 . S
C934 H942 0.930 . S
C935 C934 1.394 . S
C935 C936 1.383 . S
C935 H943 0.929 . S
C936 C935 1.383 . S
C936 C937 1.377 . S
C937 H921 0.930 . S
C937 C936 1.377 . S
C937 C938 1.379 . S
C938 H922 0.931 . S
C938 C932 1.383 . S
C938 C937 1.379 . S
H939 C933 0.959 . S
H940 C933 0.961 . S
H941 C933 0.960 . S
H942 C934 0.930 . S
H943 C935 0.929 . S
H944 C952 0.929 . S
H945 C954 0.930 . S
H946 C956 0.930 . S
H947 C959 0.929 . S
H948 C962 0.930 . S
H949 C964 0.960 . S
H950 C964 0.960 . S
H951 C964 0.960 . S
C952 H944 0.929 . S
C952 C953 1.377 . S
C952 C954 1.384 . S
C953 C952 1.377 . S
C953 C959 1.390 . S
C954 H945 0.930 . S
C954 C952 1.384 . S
C954 C955 1.372 . S
C955 C954 1.372 . S
C955 C956 1.400 . S
C955 C960 1.490 . S
C956 H946 0.930 . S
C956 C955 1.400 . S
C956 C959 1.386 . S
H957 C973 0.930 . S
H958 C974 0.931 . S
C959 H947 0.929 . S
C959 C953 1.390 . S
C959 C956 1.386 . S
C960 C955 1.490 . S
C960 C962 1.395 . S
C960 C963 1.403 . S
H961 C967 0.930 . S
C962 H948 0.930 . S
C962 C960 1.395 . S
C962 C965 1.403 . S
C963 C960 1.403 . S
C963 C964 1.524 . S
C963 C967 1.400 . S
C964 H949 0.960 . S
C964 H950 0.960 . S
C964 H951 0.960 . S
C964 C963 1.524 . S
C965 C962 1.403 . S
C965 C966 1.392 . S
C965 C969 1.495 . S
C966 C965 1.392 . S
C966 C967 1.385 . S
C966 C968 1.478 . S
C967 H961 0.930 . S
C967 C963 1.400 . S
C967 C966 1.385 . S
C968 C966 1.478 . S
C968 C970 1.381 . S
C968 C974 1.383 . S
C969 C965 1.495 . S
C969 H975 0.959 . S
C969 H976 0.961 . S
C969 H977 0.960 . S
C970 C968 1.381 . S
C970 C971 1.394 . S
C970 H978 0.930 . S
C971 C970 1.394 . S
C971 C972 1.383 . S
C971 H979 0.929 . S
C972 C971 1.383 . S
C972 C973 1.377 . S
C973 H957 0.930 . S
C973 C972 1.377 . S
C973 C974 1.379 . S
C974 H958 0.931 . S
C974 C968 1.383 . S
C974 C973 1.379 . S
H975 C969 0.959 . S
H976 C969 0.961 . S
H977 C969 0.960 . S
H978 C970 0.930 . S
H979 C971 0.929 . S
H980 C988 0.929 . S
H981 C990 0.930 . S
H982 C992 0.930 . S
H983 C995 0.929 . S
H984 C998 0.930 . S
H985 C1000 0.960 . S
H986 C1000 0.960 . S
H987 C1000 0.960 . S
C988 H980 0.929 . S
C988 C989 1.377 . S
C988 C990 1.384 . S
C989 C988 1.377 . S
C989 C995 1.390 . S
C990 H981 0.930 . S
C990 C988 1.384 . S
C990 C991 1.372 . S
C991 C990 1.372 . S
C991 C992 1.400 . S
C991 C996 1.490 . S
C992 H982 0.930 . S
C992 C991 1.400 . S
C992 C995 1.386 . S
H993 C1009 0.930 . S
H994 C1010 0.931 . S
C995 H983 0.929 . S
C995 C989 1.390 . S
C995 C992 1.386 . S
C996 C991 1.490 . S
C996 C998 1.395 . S
C996 C999 1.403 . S
H997 C1003 0.930 . S
C998 H984 0.930 . S
C998 C996 1.395 . S
C998 C1001 1.403 . S
C999 C996 1.403 . S
C999 C1000 1.524 . S
C999 C1003 1.400 . S
C1000 H985 0.960 . S
C1000 H986 0.960 . S
C1000 H987 0.960 . S
C1000 C999 1.524 . S
C1001 C998 1.403 . S
C1001 C1002 1.392 . S
C1001 C1005 1.495 . S
C1002 C1001 1.392 . S
C1002 C1003 1.385 . S
C1002 C1004 1.478 . S
C1003 H997 0.930 . S
C1003 C999 1.400 . S
C1003 C1002 1.385 . S
C1004 C1002 1.478 . S
C1004 C1006 1.381 . S
C1004 C1010 1.383 . S
C1005 C1001 1.495 . S
C1005 H1011 0.959 . S
C1005 H1012 0.961 . S
C1005 H1013 0.960 . S
C1006 C1004 1.381 . S
C1006 C1007 1.394 . S
C1006 H1014 0.930 . S
C1007 C1006 1.394 . S
C1007 C1008 1.383 . S
C1007 H1015 0.929 . S
C1008 C1007 1.383 . S
C1008 C1009 1.377 . S
C1009 H993 0.930 . S
C1009 C1008 1.377 . S
C1009 C1010 1.379 . S
C1010 H994 0.931 . S
C1010 C1004 1.383 . S
C1010 C1009 1.379 . S
H1011 C1005 0.959 . S
H1012 C1005 0.961 . S
H1013 C1005 0.960 . S
H1014 C1006 0.930 . S
H1015 C1007 0.929 . S
H1016 C1024 0.929 . S
H1017 C1026 0.930 . S
H1018 C1028 0.930 . S
H1019 C1031 0.929 . S
H1020 C1034 0.930 . S
H1021 C1036 0.960 . S
H1022 C1036 0.960 . S
H1023 C1036 0.960 . S
C1024 H1016 0.929 . S
C1024 C1025 1.377 . S
C1024 C1026 1.384 . S
C1025 C1024 1.377 . S
C1025 C1031 1.390 . S
C1026 H1017 0.930 . S
C1026 C1024 1.384 . S
C1026 C1027 1.372 . S
C1027 C1026 1.372 . S
C1027 C1028 1.400 . S
C1027 C1032 1.490 . S
C1028 H1018 0.930 . S
C1028 C1027 1.400 . S
C1028 C1031 1.386 . S
H1029 C1045 0.930 . S
H1030 C1046 0.931 . S
C1031 H1019 0.929 . S
C1031 C1025 1.390 . S
C1031 C1028 1.386 . S
C1032 C1027 1.490 . S
C1032 C1034 1.395 . S
C1032 C1035 1.403 . S
H1033 C1039 0.930 . S
C1034 H1020 0.930 . S
C1034 C1032 1.395 . S
C1034 C1037 1.403 . S
C1035 C1032 1.403 . S
C1035 C1036 1.524 . S
C1035 C1039 1.400 . S
C1036 H1021 0.960 . S
C1036 H1022 0.960 . S
C1036 H1023 0.960 . S
C1036 C1035 1.524 . S
C1037 C1034 1.403 . S
C1037 C1038 1.392 . S
C1037 C1041 1.495 . S
C1038 C1037 1.392 . S
C1038 C1039 1.385 . S
C1038 C1040 1.478 . S
C1039 H1033 0.930 . S
C1039 C1035 1.400 . S
C1039 C1038 1.385 . S
C1040 C1038 1.478 . S
C1040 C1042 1.381 . S
C1040 C1046 1.383 . S
C1041 C1037 1.495 . S
C1041 H1047 0.959 . S
C1041 H1048 0.961 . S
C1041 H1049 0.960 . S
C1042 C1040 1.381 . S
C1042 C1043 1.394 . S
C1042 H1050 0.930 . S
C1043 C1042 1.394 . S
C1043 C1044 1.383 . S
C1043 H1051 0.929 . S
C1044 C1043 1.383 . S
C1044 C1045 1.377 . S
C1045 H1029 0.930 . S
C1045 C1044 1.377 . S
C1045 C1046 1.379 . S
C1046 H1030 0.931 . S
C1046 C1040 1.383 . S
C1046 C1045 1.379 . S
H1047 C1041 0.959 . S
H1048 C1041 0.961 . S
H1049 C1041 0.960 . S
H1050 C1042 0.930 . S
H1051 C1043 0.929 . S
H1052 C1060 0.929 . S
H1053 C1062 0.930 . S
H1054 C1064 0.930 . S
H1055 C1067 0.929 . S
H1056 C1070 0.930 . S
H1057 C1072 0.960 . S
H1058 C1072 0.960 . S
H1059 C1072 0.960 . S
C1060 H1052 0.929 . S
C1060 C1061 1.377 . S
C1060 C1062 1.384 . S
C1061 C1060 1.377 . S
C1061 C1067 1.390 . S
C1062 H1053 0.930 . S
C1062 C1060 1.384 . S
C1062 C1063 1.372 . S
C1063 C1062 1.372 . S
C1063 C1064 1.400 . S
C1063 C1068 1.490 . S
C1064 H1054 0.930 . S
C1064 C1063 1.400 . S
C1064 C1067 1.386 . S
H1065 C1081 0.930 . S
H1066 C1082 0.931 . S
C1067 H1055 0.929 . S
C1067 C1061 1.390 . S
C1067 C1064 1.386 . S
C1068 C1063 1.490 . S
C1068 C1070 1.395 . S
C1068 C1071 1.403 . S
H1069 C1075 0.930 . S
C1070 H1056 0.930 . S
C1070 C1068 1.395 . S
C1070 C1073 1.403 . S
C1071 C1068 1.403 . S
C1071 C1072 1.524 . S
C1071 C1075 1.400 . S
C1072 H1057 0.960 . S
C1072 H1058 0.960 . S
C1072 H1059 0.960 . S
C1072 C1071 1.524 . S
C1073 C1070 1.403 . S
C1073 C1074 1.392 . S
C1073 C1077 1.495 . S
C1074 C1073 1.392 . S
C1074 C1075 1.385 . S
C1074 C1076 1.478 . S
C1075 H1069 0.930 . S
C1075 C1071 1.400 . S
C1075 C1074 1.385 . S
C1076 C1074 1.478 . S
C1076 C1078 1.381 . S
C1076 C1082 1.383 . S
C1077 C1073 1.495 . S
C1077 H1083 0.959 . S
C1077 H1084 0.961 . S
C1077 H1085 0.960 . S
C1078 C1076 1.381 . S
C1078 C1079 1.394 . S
C1078 H1086 0.930 . S
C1079 C1078 1.394 . S
C1079 C1080 1.383 . S
C1079 H1087 0.929 . S
C1080 C1079 1.383 . S
C1080 C1081 1.377 . S
C1081 H1065 0.930 . S
C1081 C1080 1.377 . S
C1081 C1082 1.379 . S
C1082 H1066 0.931 . S
C1082 C1076 1.383 . S
C1082 C1081 1.379 . S
H1083 C1077 0.959 . S
H1084 C1077 0.961 . S
H1085 C1077 0.960 . S
H1086 C1078 0.930 . S
H1087 C1079 0.929 . S
H1088 C1096 0.929 . S
H1089 C1098 0.930 . S
H1090 C1100 0.930 . S
H1091 C1103 0.929 . S
H1092 C1106 0.930 . S
H1093 C1108 0.960 . S
H1094 C1108 0.960 . S
H1095 C1108 0.960 . S
C1096 H1088 0.929 . S
C1096 C1097 1.377 . S
C1096 C1098 1.384 . S
C1097 C1096 1.377 . S
C1097 C1103 1.390 . S
C1098 H1089 0.930 . S
C1098 C1096 1.384 . S
C1098 C1099 1.372 . S
C1099 C1098 1.372 . S
C1099 C1100 1.400 . S
C1099 C1104 1.490 . S
C1100 H1090 0.930 . S
C1100 C1099 1.400 . S
C1100 C1103 1.386 . S
H1101 C1117 0.930 . S
H1102 C1118 0.931 . S
C1103 H1091 0.929 . S
C1103 C1097 1.390 . S
C1103 C1100 1.386 . S
C1104 C1099 1.490 . S
C1104 C1106 1.395 . S
C1104 C1107 1.403 . S
H1105 C1111 0.930 . S
C1106 H1092 0.930 . S
C1106 C1104 1.395 . S
C1106 C1109 1.403 . S
C1107 C1104 1.403 . S
C1107 C1108 1.524 . S
C1107 C1111 1.400 . S
C1108 H1093 0.960 . S
C1108 H1094 0.960 . S
C1108 H1095 0.960 . S
C1108 C1107 1.524 . S
C1109 C1106 1.403 . S
C1109 C1110 1.392 . S
C1109 C1113 1.495 . S
C1110 C1109 1.392 . S
C1110 C1111 1.385 . S
C1110 C1112 1.478 . S
C1111 H1105 0.930 . S
C1111 C1107 1.400 . S
C1111 C1110 1.385 . S
C1112 C1110 1.478 . S
C1112 C1114 1.381 . S
C1112 C1118 1.383 . S
C1113 C1109 1.495 . S
C1113 H1119 0.959 . S
C1113 H1120 0.961 . S
C1113 H1121 0.960 . S
C1114 C1112 1.381 . S
C1114 C1115 1.394 . S
C1114 H1122 0.930 . S
C1115 C1114 1.394 . S
C1115 C1116 1.383 . S
C1115 H1123 0.929 . S
C1116 C1115 1.383 . S
C1116 C1117 1.377 . S
C1117 H1101 0.930 . S
C1117 C1116 1.377 . S
C1117 C1118 1.379 . S
C1118 H1102 0.931 . S
C1118 C1112 1.383 . S
C1118 C1117 1.379 . S
H1119 C1113 0.959 . S
H1120 C1113 0.961 . S
H1121 C1113 0.960 . S
H1122 C1114 0.930 . S
H1123 C1115 0.929 . S
H1124 C1132 0.929 . S
H1125 C1134 0.930 . S
H1126 C1136 0.930 . S
H1127 C1139 0.929 . S
H1128 C1142 0.930 . S
H1129 C1144 0.960 . S
H1130 C1144 0.960 . S
H1131 C1144 0.960 . S
C1132 H1124 0.929 . S
C1132 C1133 1.377 . S
C1132 C1134 1.384 . S
C1133 C1132 1.377 . S
C1133 C1139 1.390 . S
C1134 H1125 0.930 . S
C1134 C1132 1.384 . S
C1134 C1135 1.372 . S
C1135 C1134 1.372 . S
C1135 C1136 1.400 . S
C1135 C1140 1.490 . S
C1136 H1126 0.930 . S
C1136 C1135 1.400 . S
C1136 C1139 1.386 . S
H1137 C1153 0.930 . S
H1138 C1154 0.931 . S
C1139 H1127 0.929 . S
C1139 C1133 1.390 . S
C1139 C1136 1.386 . S
C1140 C1135 1.490 . S
C1140 C1142 1.395 . S
C1140 C1143 1.403 . S
H1141 C1147 0.930 . S
C1142 H1128 0.930 . S
C1142 C1140 1.395 . S
C1142 C1145 1.403 . S
C1143 C1140 1.403 . S
C1143 C1144 1.524 . S
C1143 C1147 1.400 . S
C1144 H1129 0.960 . S
C1144 H1130 0.960 . S
C1144 H1131 0.960 . S
C1144 C1143 1.524 . S
C1145 C1142 1.403 . S
C1145 C1146 1.392 . S
C1145 C1149 1.495 . S
C1146 C1145 1.392 . S
C1146 C1147 1.385 . S
C1146 C1148 1.478 . S
C1147 H1141 0.930 . S
C1147 C1143 1.400 . S
C1147 C1146 1.385 . S
C1148 C1146 1.478 . S
C1148 C1150 1.381 . S
C1148 C1154 1.383 . S
C1149 C1145 1.495 . S
C1149 H1155 0.959 . S
C1149 H1156 0.961 . S
C1149 H1157 0.960 . S
C1150 C1148 1.381 . S
C1150 C1151 1.394 . S
C1150 H1158 0.930 . S
C1151 C1150 1.394 . S
C1151 C1152 1.383 . S
C1151 H1159 0.929 . S
C1152 C1151 1.383 . S
C1152 C1153 1.377 . S
C1153 H1137 0.930 . S
C1153 C1152 1.377 . S
C1153 C1154 1.379 . S
C1154 H1138 0.931 . S
C1154 C1148 1.383 . S
C1154 C1153 1.379 . S
H1155 C1149 0.959 . S
H1156 C1149 0.961 . S
H1157 C1149 0.960 . S
H1158 C1150 0.930 . S
H1159 C1151 0.929 . S
H1160 C1168 0.929 . S
H1161 C1170 0.930 . S
H1162 C1172 0.930 . S
H1163 C1175 0.929 . S
H1164 C1178 0.930 . S
H1165 C1180 0.960 . S
H1166 C1180 0.960 . S
H1167 C1180 0.960 . S
C1168 H1160 0.929 . S
C1168 C1169 1.377 . S
C1168 C1170 1.384 . S
C1169 C1168 1.377 . S
C1169 C1175 1.390 . S
C1170 H1161 0.930 . S
C1170 C1168 1.384 . S
C1170 C1171 1.372 . S
C1171 C1170 1.372 . S
C1171 C1172 1.400 . S
C1171 C1176 1.490 . S
C1172 H1162 0.930 . S
C1172 C1171 1.400 . S
C1172 C1175 1.386 . S
H1173 C1189 0.930 . S
H1174 C1190 0.931 . S
C1175 H1163 0.929 . S
C1175 C1169 1.390 . S
C1175 C1172 1.386 . S
C1176 C1171 1.490 . S
C1176 C1178 1.395 . S
C1176 C1179 1.403 . S
H1177 C1183 0.930 . S
C1178 H1164 0.930 . S
C1178 C1176 1.395 . S
C1178 C1181 1.403 . S
C1179 C1176 1.403 . S
C1179 C1180 1.524 . S
C1179 C1183 1.400 . S
C1180 H1165 0.960 . S
C1180 H1166 0.960 . S
C1180 H1167 0.960 . S
C1180 C1179 1.524 . S
C1181 C1178 1.403 . S
C1181 C1182 1.392 . S
C1181 C1185 1.495 . S
C1182 C1181 1.392 . S
C1182 C1183 1.385 . S
C1182 C1184 1.478 . S
C1183 H1177 0.930 . S
C1183 C1179 1.400 . S
C1183 C1182 1.385 . S
C1184 C1182 1.478 . S
C1184 C1186 1.381 . S
C1184 C1190 1.383 . S
C1185 C1181 1.495 . S
C1185 H1191 0.959 . S
C1185 H1192 0.961 . S
C1185 H1193 0.960 . S
C1186 C1184 1.381 . S
C1186 C1187 1.394 . S
C1186 H1194 0.930 . S
C1187 C1186 1.394 . S
C1187 C1188 1.383 . S
C1187 H1195 0.929 . S
C1188 C1187 1.383 . S
C1188 C1189 1.377 . S
C1189 H1173 0.930 . S
C1189 C1188 1.377 . S
C1189 C1190 1.379 . S
C1190 H1174 0.931 . S
C1190 C1184 1.383 . S
C1190 C1189 1.379 . S
H1191 C1185 0.959 . S
H1192 C1185 0.961 . S
H1193 C1185 0.960 . S
H1194 C1186 0.930 . S
H1195 C1187 0.929 . S
H1196 C1204 0.929 . S
H1197 C1206 0.930 . S
H1198 C1208 0.930 . S
H1199 C1211 0.929 . S
H1200 C1214 0.930 . S
H1201 C1216 0.960 . S
H1202 C1216 0.960 . S
H1203 C1216 0.960 . S
C1204 H1196 0.929 . S
C1204 C1205 1.377 . S
C1204 C1206 1.384 . S
C1205 C1204 1.377 . S
C1205 C1211 1.390 . S
C1206 H1197 0.930 . S
C1206 C1204 1.384 . S
C1206 C1207 1.372 . S
C1207 C1206 1.372 . S
C1207 C1208 1.400 . S
C1207 C1212 1.490 . S
C1208 H1198 0.930 . S
C1208 C1207 1.400 . S
C1208 C1211 1.386 . S
H1209 C1225 0.930 . S
H1210 C1226 0.931 . S
C1211 H1199 0.929 . S
C1211 C1205 1.390 . S
C1211 C1208 1.386 . S
C1212 C1207 1.490 . S
C1212 C1214 1.395 . S
C1212 C1215 1.403 . S
H1213 C1219 0.930 . S
C1214 H1200 0.930 . S
C1214 C1212 1.395 . S
C1214 C1217 1.403 1_556 S
C1215 C1212 1.403 . S
C1215 C1216 1.524 . S
C1215 C1219 1.400 1_556 S
C1216 H1201 0.960 . S
C1216 H1202 0.960 . S
C1216 H1203 0.960 . S
C1216 C1215 1.524 . S
C1217 C1214 1.403 1_554 S
C1217 C1218 1.392 . S
C1217 C1221 1.495 . S
C1218 C1217 1.392 . S
C1218 C1219 1.385 . S
C1218 C1220 1.478 . S
C1219 H1213 0.930 . S
C1219 C1215 1.400 1_554 S
C1219 C1218 1.385 . S
C1220 C1218 1.478 . S
C1220 C1222 1.381 . S
C1220 C1226 1.383 . S
C1221 C1217 1.495 . S
C1221 H1227 0.959 . S
C1221 H1228 0.961 . S
C1221 H1229 0.960 . S
C1222 C1220 1.381 . S
C1222 C1223 1.394 . S
C1222 H1230 0.930 . S
C1223 C1222 1.394 . S
C1223 C1224 1.383 . S
C1223 H1231 0.929 . S
C1224 C1223 1.383 . S
C1224 C1225 1.377 . S
C1225 H1209 0.930 . S
C1225 C1224 1.377 . S
C1225 C1226 1.379 . S
C1226 H1210 0.931 . S
C1226 C1220 1.383 . S
C1226 C1225 1.379 . S
H1227 C1221 0.959 . S
H1228 C1221 0.961 . S
H1229 C1221 0.960 . S
H1230 C1222 0.930 . S
H1231 C1223 0.929 . S
H1232 C1240 0.929 . S
H1233 C1242 0.930 . S
H1234 C1244 0.930 . S
H1235 C1247 0.929 . S
H1236 C1250 0.930 . S
H1237 C1252 0.960 . S
H1238 C1252 0.960 . S
H1239 C1252 0.960 . S
C1240 H1232 0.929 . S
C1240 C1241 1.377 . S
C1240 C1242 1.384 . S
C1241 C1240 1.377 . S
C1241 C1247 1.390 . S
C1242 H1233 0.930 . S
C1242 C1240 1.384 . S
C1242 C1243 1.372 . S
C1243 C1242 1.372 . S
C1243 C1244 1.400 . S
C1243 C1248 1.490 . S
C1244 H1234 0.930 . S
C1244 C1243 1.400 . S
C1244 C1247 1.386 . S
H1245 C1261 0.930 . S
H1246 C1262 0.931 . S
C1247 H1235 0.929 . S
C1247 C1241 1.390 . S
C1247 C1244 1.386 . S
C1248 C1243 1.490 . S
C1248 C1250 1.395 . S
C1248 C1251 1.403 . S
H1249 C1255 0.930 . S
C1250 H1236 0.930 . S
C1250 C1248 1.395 . S
C1250 C1253 1.403 1_554 S
C1251 C1248 1.403 . S
C1251 C1252 1.524 . S
C1251 C1255 1.400 1_554 S
C1252 H1237 0.960 . S
C1252 H1238 0.960 . S
C1252 H1239 0.960 . S
C1252 C1251 1.524 . S
C1253 C1250 1.403 1_556 S
C1253 C1254 1.392 . S
C1253 C1257 1.495 . S
C1254 C1253 1.392 . S
C1254 C1255 1.385 . S
C1254 C1256 1.478 . S
C1255 H1249 0.930 . S
C1255 C1251 1.400 1_556 S
C1255 C1254 1.385 . S
C1256 C1254 1.478 . S
C1256 C1258 1.381 . S
C1256 C1262 1.383 . S
C1257 C1253 1.495 . S
C1257 H1263 0.959 . S
C1257 H1264 0.961 . S
C1257 H1265 0.960 . S
C1258 C1256 1.381 . S
C1258 C1259 1.394 . S
C1258 H1266 0.930 . S
C1259 C1258 1.394 . S
C1259 C1260 1.383 . S
C1259 H1267 0.929 . S
C1260 C1259 1.383 . S
C1260 C1261 1.377 . S
C1261 H1245 0.930 . S
C1261 C1260 1.377 . S
C1261 C1262 1.379 . S
C1262 H1246 0.931 . S
C1262 C1256 1.383 . S
C1262 C1261 1.379 . S
H1263 C1257 0.959 . S
H1264 C1257 0.961 . S
H1265 C1257 0.960 . S
H1266 C1258 0.930 . S
H1267 C1259 0.929 . S
H1268 C1276 0.929 . S
H1269 C1278 0.930 . S
H1270 C1280 0.930 . S
H1271 C1283 0.929 . S
H1272 C1286 0.930 . S
H1273 C1288 0.960 . S
H1274 C1288 0.960 . S
H1275 C1288 0.960 . S
C1276 H1268 0.929 . S
C1276 C1277 1.377 . S
C1276 C1278 1.384 . S
C1277 C1276 1.377 . S
C1277 C1283 1.390 . S
C1278 H1269 0.930 . S
C1278 C1276 1.384 . S
C1278 C1279 1.372 . S
C1279 C1278 1.372 . S
C1279 C1280 1.400 . S
C1279 C1284 1.490 . S
C1280 H1270 0.930 . S
C1280 C1279 1.400 . S
C1280 C1283 1.386 . S
H1281 C1297 0.930 . S
H1282 C1298 0.931 . S
C1283 H1271 0.929 . S
C1283 C1277 1.390 . S
C1283 C1280 1.386 . S
C1284 C1279 1.490 . S
C1284 C1286 1.395 . S
C1284 C1287 1.403 . S
H1285 C1291 0.930 . S
C1286 H1272 0.930 . S
C1286 C1284 1.395 . S
C1286 C1289 1.403 . S
C1287 C1284 1.403 . S
C1287 C1288 1.524 . S
C1287 C1291 1.400 . S
C1288 H1273 0.960 . S
C1288 H1274 0.960 . S
C1288 H1275 0.960 . S
C1288 C1287 1.524 . S
C1289 C1286 1.403 . S
C1289 C1290 1.392 . S
C1289 C1293 1.495 . S
C1290 C1289 1.392 . S
C1290 C1291 1.385 . S
C1290 C1292 1.478 . S
C1291 H1285 0.930 . S
C1291 C1287 1.400 . S
C1291 C1290 1.385 . S
C1292 C1290 1.478 . S
C1292 C1294 1.381 . S
C1292 C1298 1.383 . S
C1293 C1289 1.495 . S
C1293 H1299 0.959 . S
C1293 H1300 0.961 . S
C1293 H1301 0.960 . S
C1294 C1292 1.381 . S
C1294 C1295 1.394 . S
C1294 H1302 0.930 . S
C1295 C1294 1.394 . S
C1295 C1296 1.383 . S
C1295 H1303 0.929 . S
C1296 C1295 1.383 . S
C1296 C1297 1.377 . S
C1297 H1281 0.930 . S
C1297 C1296 1.377 . S
C1297 C1298 1.379 . S
C1298 H1282 0.931 . S
C1298 C1292 1.383 . S
C1298 C1297 1.379 . S
H1299 C1293 0.959 . S
H1300 C1293 0.961 . S
H1301 C1293 0.960 . S
H1302 C1294 0.930 . S
H1303 C1295 0.929 . S
H1304 C1312 0.929 . S
H1305 C1314 0.930 . S
H1306 C1316 0.930 . S
H1307 C1319 0.929 . S
H1308 C1322 0.930 . S
H1309 C1324 0.960 . S
H1310 C1324 0.960 . S
H1311 C1324 0.960 . S
C1312 H1304 0.929 . S
C1312 C1313 1.377 . S
C1312 C1314 1.384 . S
C1313 C1312 1.377 . S
C1313 C1319 1.390 . S
C1314 H1305 0.930 . S
C1314 C1312 1.384 . S
C1314 C1315 1.372 . S
C1315 C1314 1.372 . S
C1315 C1316 1.400 . S
C1315 C1320 1.490 . S
C1316 H1306 0.930 . S
C1316 C1315 1.400 . S
C1316 C1319 1.386 . S
H1317 C1333 0.930 . S
H1318 C1334 0.931 . S
C1319 H1307 0.929 . S
C1319 C1313 1.390 . S
C1319 C1316 1.386 . S
C1320 C1315 1.490 . S
C1320 C1322 1.395 . S
C1320 C1323 1.403 . S
H1321 C1327 0.930 . S
C1322 H1308 0.930 . S
C1322 C1320 1.395 . S
C1322 C1325 1.403 . S
C1323 C1320 1.403 . S
C1323 C1324 1.524 . S
C1323 C1327 1.400 . S
C1324 H1309 0.960 . S
C1324 H1310 0.960 . S
C1324 H1311 0.960 . S
C1324 C1323 1.524 . S
C1325 C1322 1.403 . S
C1325 C1326 1.392 . S
C1325 C1329 1.495 . S
C1326 C1325 1.392 . S
C1326 C1327 1.385 . S
C1326 C1328 1.478 . S
C1327 H1321 0.930 . S
C1327 C1323 1.400 . S
C1327 C1326 1.385 . S
C1328 C1326 1.478 . S
C1328 C1330 1.381 . S
C1328 C1334 1.383 . S
C1329 C1325 1.495 . S
C1329 H1335 0.959 . S
C1329 H1336 0.961 . S
C1329 H1337 0.960 . S
C1330 C1328 1.381 . S
C1330 C1331 1.394 . S
C1330 H1338 0.930 . S
C1331 C1330 1.394 . S
C1331 C1332 1.383 . S
C1331 H1339 0.929 . S
C1332 C1331 1.383 . S
C1332 C1333 1.377 . S
C1333 H1317 0.930 . S
C1333 C1332 1.377 . S
C1333 C1334 1.379 . S
C1334 H1318 0.931 . S
C1334 C1328 1.383 . S
C1334 C1333 1.379 . S
H1335 C1329 0.959 . S
H1336 C1329 0.961 . S
H1337 C1329 0.960 . S
H1338 C1330 0.930 . S
H1339 C1331 0.929 . S
H1340 C1348 0.929 . S
H1341 C1350 0.930 . S
H1342 C1352 0.930 . S
H1343 C1355 0.929 . S
H1344 C1358 0.930 . S
H1345 C1360 0.960 . S
H1346 C1360 0.960 . S
H1347 C1360 0.960 . S
C1348 H1340 0.929 . S
C1348 C1349 1.377 . S
C1348 C1350 1.384 . S
C1349 C1348 1.377 . S
C1349 C1355 1.390 . S
C1350 H1341 0.930 . S
C1350 C1348 1.384 . S
C1350 C1351 1.372 . S
C1351 C1350 1.372 . S
C1351 C1352 1.400 . S
C1351 C1356 1.490 . S
C1352 H1342 0.930 . S
C1352 C1351 1.400 . S
C1352 C1355 1.386 . S
H1353 C1369 0.930 . S
H1354 C1370 0.931 . S
C1355 H1343 0.929 . S
C1355 C1349 1.390 . S
C1355 C1352 1.386 . S
C1356 C1351 1.490 . S
C1356 C1358 1.395 . S
C1356 C1359 1.403 . S
H1357 C1363 0.930 . S
C1358 H1344 0.930 . S
C1358 C1356 1.395 . S
C1358 C1361 1.403 . S
C1359 C1356 1.403 . S
C1359 C1360 1.524 . S
C1359 C1363 1.400 . S
C1360 H1345 0.960 . S
C1360 H1346 0.960 . S
C1360 H1347 0.960 . S
C1360 C1359 1.524 . S
C1361 C1358 1.403 . S
C1361 C1362 1.392 . S
C1361 C1365 1.495 . S
C1362 C1361 1.392 . S
C1362 C1363 1.385 . S
C1362 C1364 1.478 . S
C1363 H1357 0.930 . S
C1363 C1359 1.400 . S
C1363 C1362 1.385 . S
C1364 C1362 1.478 . S
C1364 C1366 1.381 . S
C1364 C1370 1.383 . S
C1365 C1361 1.495 . S
C1365 H1371 0.959 . S
C1365 H1372 0.961 . S
C1365 H1373 0.960 . S
C1366 C1364 1.381 . S
C1366 C1367 1.394 . S
C1366 H1374 0.930 . S
C1367 C1366 1.394 . S
C1367 C1368 1.383 . S
C1367 H1375 0.929 . S
C1368 C1367 1.383 . S
C1368 C1369 1.377 . S
C1369 H1353 0.930 . S
C1369 C1368 1.377 . S
C1369 C1370 1.379 . S
C1370 H1354 0.931 . S
C1370 C1364 1.383 . S
C1370 C1369 1.379 . S
H1371 C1365 0.959 . S
H1372 C1365 0.961 . S
H1373 C1365 0.960 . S
H1374 C1366 0.930 . S
H1375 C1367 0.929 . S
C233 C151 1.525 . S
C252 C11 1.522 . S
C269 C25 1.523 . S
C288 C165 1.515 . S
C305 C123 1.523 . S
C324 C39 1.514 . S
C341 C137 1.527 . S
C360 C53 1.533 . S
C377 C67 1.522 . S
C396 C207 1.510 . S
C413 C221 1.528 . S
C432 C81 1.534 . S
C449 C95 1.522 . S
C468 C179 1.510 . S
C485 C193 1.523 . S
C504 C109 1.511 . S
C521 C145 1.564 . S
C540 C5 1.560 . S
C557 C19 1.564 . S
C576 C159 1.560 . S
C593 C33 1.564 . S
C612 C117 1.561 . S
C629 C47 1.564 . S
C648 C131 1.561 . S
C665 C61 1.564 . S
C684 C201 1.561 . S
C701 C75 1.564 . S
C720 C215 1.561 . S
C737 C173 1.564 . S
C756 C89 1.560 . S
C773 C187 1.564 . S
C792 C103 1.561 . S
C809 C9 1.130 . S
C828 C93 1.103 . S
C845 C23 1.127 . S
C864 C107 1.150 . S
C881 C37 1.131 . S
C900 C65 1.160 . S
C917 C51 1.126 . S
C936 C79 1.128 . S
C953 C121 1.138 . S
C972 C205 1.119 . S
C989 C219 1.139 . S
C1008 C135 1.129 . S
C1025 C149 1.126 . S
C1044 C177 1.136 . S
C1061 C191 1.133 . S
C1080 C163 1.160 . S
C1097 C0 1.102 . S
C1116 C210 1.128 . S
C1133 C168 1.103 . S
C1152 C14 1.129 . S
C1169 C182 1.103 . S
C1188 C28 1.106 . S
C1205 C196 1.108 . S
C1224 C42 1.083 . S
C1241 C126 1.108 . S
C1260 C56 1.083 . S
C1277 C140 1.107 . S
C1296 C70 1.118 . S
C1313 C84 1.112 . S
C1332 C154 1.084 . S
C1349 C98 1.103 . S
C1368 C112 1.110 . S
