# Generated by pormake.
# Topology gis, (4)-cn, num edge types: 1
# Building blocks:
#     Node 0, Type 0, BuildingBlock: NAHDIM_clean_sbu_0, # of connection points: 4
#     Node 1, Type 0, BuildingBlock: NAHDIM_clean_sbu_0, # of connection points: 4
#     Node 2, Type 0, BuildingBlock: NAHDIM_clean_sbu_0, # of connection points: 4
#     Node 3, Type 0, BuildingBlock: NAHDIM_clean_sbu_0, # of connection points: 4
#     Node 4, Type 0, BuildingBlock: NAHDIM_clean_sbu_0, # of connection points: 4
#     Node 5, Type 0, BuildingBlock: NAHDIM_clean_sbu_0, # of connection points: 4
#     Node 6, Type 0, BuildingBlock: NAHDIM_clean_sbu_0, # of connection points: 4
#     Node 7, Type 0, BuildingBlock: NAHDIM_clean_sbu_0, # of connection points: 4
#     Node 8, Type 0, BuildingBlock: NAHDIM_clean_sbu_0, # of connection points: 4
#     Node 9, Type 0, BuildingBlock: NAHDIM_clean_sbu_0, # of connection points: 4
#     Node 10, Type 0, BuildingBlock: NAHDIM_clean_sbu_0, # of connection points: 4
#     Node 11, Type 0, BuildingBlock: NAHDIM_clean_sbu_0, # of connection points: 4
#     Node 12, Type 0, BuildingBlock: NAHDIM_clean_sbu_0, # of connection points: 4
#     Node 13, Type 0, BuildingBlock: NAHDIM_clean_sbu_0, # of connection points: 4
#     Node 14, Type 0, BuildingBlock: NAHDIM_clean_sbu_0, # of connection points: 4
#     Node 15, Type 0, BuildingBlock: NAHDIM_clean_sbu_0, # of connection points: 4
#     Edge 16, Type (0, 0), BuildingBlock: MIFKUJ_clean_linker_0, # of connection points: 2
#     Edge 17, Type (0, 0), BuildingBlock: MIFKUJ_clean_linker_0, # of connection points: 2
#     Edge 18, Type (0, 0), BuildingBlock: MIFKUJ_clean_linker_0, # of connection points: 2
#     Edge 19, Type (0, 0), BuildingBlock: MIFKUJ_clean_linker_0, # of connection points: 2
#     Edge 20, Type (0, 0), BuildingBlock: MIFKUJ_clean_linker_0, # of connection points: 2
#     Edge 21, Type (0, 0), BuildingBlock: MIFKUJ_clean_linker_0, # of connection points: 2
#     Edge 22, Type (0, 0), BuildingBlock: MIFKUJ_clean_linker_0, # of connection points: 2
#     Edge 23, Type (0, 0), BuildingBlock: MIFKUJ_clean_linker_0, # of connection points: 2
#     Edge 24, Type (0, 0), BuildingBlock: MIFKUJ_clean_linker_0, # of connection points: 2
#     Edge 25, Type (0, 0), BuildingBlock: MIFKUJ_clean_linker_0, # of connection points: 2
#     Edge 26, Type (0, 0), BuildingBlock: MIFKUJ_clean_linker_0, # of connection points: 2
#     Edge 27, Type (0, 0), BuildingBlock: MIFKUJ_clean_linker_0, # of connection points: 2
#     Edge 28, Type (0, 0), BuildingBlock: MIFKUJ_clean_linker_0, # of connection points: 2
#     Edge 29, Type (0, 0), BuildingBlock: MIFKUJ_clean_linker_0, # of connection points: 2
#     Edge 30, Type (0, 0), BuildingBlock: MIFKUJ_clean_linker_0, # of connection points: 2
#     Edge 31, Type (0, 0), BuildingBlock: MIFKUJ_clean_linker_0, # of connection points: 2
#     Edge 32, Type (0, 0), BuildingBlock: MIFKUJ_clean_linker_0, # of connection points: 2
#     Edge 33, Type (0, 0), BuildingBlock: MIFKUJ_clean_linker_0, # of connection points: 2
#     Edge 34, Type (0, 0), BuildingBlock: MIFKUJ_clean_linker_0, # of connection points: 2
#     Edge 35, Type (0, 0), BuildingBlock: MIFKUJ_clean_linker_0, # of connection points: 2
#     Edge 36, Type (0, 0), BuildingBlock: MIFKUJ_clean_linker_0, # of connection points: 2
#     Edge 37, Type (0, 0), BuildingBlock: MIFKUJ_clean_linker_0, # of connection points: 2
#     Edge 38, Type (0, 0), BuildingBlock: MIFKUJ_clean_linker_0, # of connection points: 2
#     Edge 39, Type (0, 0), BuildingBlock: MIFKUJ_clean_linker_0, # of connection points: 2
#     Edge 40, Type (0, 0), BuildingBlock: MIFKUJ_clean_linker_0, # of connection points: 2
#     Edge 41, Type (0, 0), BuildingBlock: MIFKUJ_clean_linker_0, # of connection points: 2
#     Edge 42, Type (0, 0), BuildingBlock: MIFKUJ_clean_linker_0, # of connection points: 2
#     Edge 43, Type (0, 0), BuildingBlock: MIFKUJ_clean_linker_0, # of connection points: 2
#     Edge 44, Type (0, 0), BuildingBlock: MIFKUJ_clean_linker_0, # of connection points: 2
#     Edge 45, Type (0, 0), BuildingBlock: MIFKUJ_clean_linker_0, # of connection points: 2
#     Edge 46, Type (0, 0), BuildingBlock: MIFKUJ_clean_linker_0, # of connection points: 2
#     Edge 47, Type (0, 0), BuildingBlock: MIFKUJ_clean_linker_0, # of connection points: 2
# Relax obj value: 0.161
# Max RMSD: 0.165
# Mean RMSD: 0.148
data_MOF--net-gis--node1-NAHDIM_clean_sbu_0--edge1-MIFKUJ_clean_linker_0
_symmetry_space_group_name_H-M    P1
_symmetry_Int_Tables_number       1
_symmetry_cell_setting            triclinic
loop_
_symmetry_equiv_pos_as_xyz
'x, y, z'
_cell_length_a     63.070903
_cell_length_b     58.716607
_cell_length_c     60.598825
_cell_angle_alpha  91.378956
_cell_angle_beta   90.914215
_cell_angle_gamma 90.09067
loop_
_atom_site_label
_atom_site_type_symbol
_atom_site_fract_x
_atom_site_fract_y
_atom_site_fract_z
_atom_type_partial_charge
C0 C 0.19347 0.53232 0.16398 0.0
O1 O 0.20153 0.52716 0.14464 0.0
O2 O 0.16876 0.52895 0.1113 0.0
Zn3 Zn 0.15778 0.54661 0.13759 0.0
O4 O 0.1604 0.58021 0.13262 0.0
C5 C 0.11574 0.5289 0.12781 0.0
O6 O 0.12495 0.51956 0.11055 0.0
O7 O 0.17466 0.53994 0.16492 0.0
C8 C 0.14729 0.59077 0.12046 0.0
O9 O 0.1317 0.57942 0.11063 0.0
C10 C 0.17998 0.5384 0.09687 0.0
O11 O 0.185 0.56003 0.09939 0.0
O12 O 0.1269 0.54015 0.14192 0.0
C13 C 0.67338 0.93511 0.34045 0.0
O14 O 0.67811 0.94487 0.35963 0.0
O15 O 0.65679 0.92435 0.39294 0.0
Zn16 Zn 0.64509 0.9079 0.36616 0.0
O17 O 0.65024 0.87416 0.36757 0.0
C18 C 0.6033 0.91902 0.381 0.0
O19 O 0.61277 0.91822 0.40043 0.0
O20 O 0.65957 0.91932 0.33937 0.0
C21 C 0.63648 0.86019 0.37423 0.0
O22 O 0.61815 0.86789 0.38113 0.0
C23 C 0.66401 0.91547 0.41039 0.0
O24 O 0.6645 0.89319 0.41188 0.0
O25 O 0.61393 0.9148 0.36373 0.0
C26 C 0.33684 0.43625 0.5933 0.0
O27 O 0.33654 0.44687 0.61261 0.0
O28 O 0.33192 0.41071 0.64479 0.0
Zn29 Zn 0.35073 0.39989 0.6203 0.0
O30 O 0.38108 0.40683 0.62799 0.0
C31 C 0.33213 0.35482 0.6226 0.0
O32 O 0.31588 0.3659 0.63086 0.0
O33 O 0.34246 0.41547 0.59227 0.0
C34 C 0.38953 0.3972 0.64449 0.0
O35 O 0.37793 0.38356 0.65626 0.0
C36 C 0.33704 0.42645 0.65863 0.0
O37 O 0.3557 0.43626 0.65741 0.0
O38 O 0.34821 0.36592 0.61647 0.0
C39 C 0.80443 0.09165 0.926 0.0
O40 O 0.79017 0.09081 0.90997 0.0
O41 O 0.81505 0.1045 0.86904 0.0
Zn42 Zn 0.83145 0.11626 0.89545 0.0
O43 O 0.86166 0.10729 0.89097 0.0
C44 C 0.81643 0.16193 0.88731 0.0
O45 O 0.80224 0.15128 0.87474 0.0
O46 O 0.82189 0.10193 0.92324 0.0
C47 C 0.87144 0.11423 0.87425 0.0
O48 O 0.86157 0.1276 0.86038 0.0
C49 C 0.81318 0.08329 0.86483 0.0
O50 O 0.82143 0.0686 0.87854 0.0
O51 O 0.83 0.15038 0.89796 0.0
C52 C 0.18569 0.44272 0.82513 0.0
O53 O 0.18418 0.45642 0.8425 0.0
O54 O 0.17464 0.42673 0.87861 0.0
Zn55 Zn 0.16009 0.41402 0.8513 0.0
O56 O 0.15891 0.37988 0.85235 0.0
C57 C 0.1222 0.43826 0.8646 0.0
O58 O 0.13375 0.44376 0.88216 0.0
O59 O 0.17634 0.42352 0.82502 0.0
C60 C 0.14579 0.37062 0.86509 0.0
O61 O 0.13329 0.38366 0.87705 0.0
C62 C 0.18293 0.41508 0.89388 0.0
O63 O 0.18274 0.39274 0.89225 0.0
O64 O 0.13028 0.42608 0.84928 0.0
C65 C 0.81974 0.93507 0.16458 0.0
O66 O 0.81501 0.92435 0.14588 0.0
O67 O 0.8517 0.94791 0.1174 0.0
Zn68 Zn 0.85935 0.93145 0.14505 0.0
O69 O 0.85697 0.89769 0.13999 0.0
C70 C 0.90134 0.95129 0.14358 0.0
O71 O 0.89315 0.96288 0.12727 0.0
O72 O 0.83893 0.94058 0.16863 0.0
C73 C 0.86974 0.88701 0.12749 0.0
O74 O 0.88438 0.89844 0.11722 0.0
C75 C 0.84031 0.93956 0.10171 0.0
O76 O 0.83312 0.91862 0.10289 0.0
O77 O 0.88953 0.93797 0.15415 0.0
C78 C 0.33521 0.57644 0.40561 0.0
O79 O 0.33926 0.56779 0.38594 0.0
O80 O 0.32917 0.60673 0.35686 0.0
Zn81 Zn 0.34777 0.61496 0.38311 0.0
O82 O 0.37776 0.60521 0.37756 0.0
C83 C 0.33025 0.66016 0.39036 0.0
O84 O 0.31195 0.64943 0.38963 0.0
O85 O 0.33746 0.59776 0.40903 0.0
C86 C 0.39061 0.61794 0.36765 0.0
O87 O 0.38417 0.63794 0.36097 0.0
C88 C 0.33581 0.59475 0.34065 0.0
O89 O 0.35567 0.58807 0.34051 0.0
O90 O 0.34727 0.64877 0.38859 0.0
C91 C 0.68669 0.06425 0.67258 0.0
O92 O 0.69273 0.0772 0.65643 0.0
O93 O 0.65862 0.0512 0.62001 0.0
Zn94 Zn 0.64905 0.06716 0.64777 0.0
O95 O 0.65203 0.10115 0.64515 0.0
C96 C 0.61054 0.04079 0.64513 0.0
O97 O 0.62256 0.02657 0.63391 0.0
O98 O 0.66767 0.05715 0.67271 0.0
C99 C 0.6373 0.11346 0.63734 0.0
O100 O 0.6194 0.10383 0.63073 0.0
C101 C 0.65918 0.06058 0.60137 0.0
O102 O 0.65379 0.08208 0.5998 0.0
O103 O 0.6186 0.05911 0.65313 0.0
C104 C 0.82413 0.4705 0.82326 0.0
O105 O 0.81959 0.4816 0.84165 0.0
O106 O 0.8436 0.46289 0.87747 0.0
Zn107 Zn 0.85383 0.44561 0.85082 0.0
O108 O 0.84739 0.41252 0.85464 0.0
C109 C 0.89631 0.45808 0.86423 0.0
O110 O 0.88667 0.46433 0.88244 0.0
O111 O 0.83854 0.45541 0.82341 0.0
C112 C 0.85549 0.40149 0.87044 0.0
O113 O 0.86865 0.41192 0.88436 0.0
C114 C 0.82689 0.45796 0.88778 0.0
O115 O 0.81473 0.44118 0.88036 0.0
O116 O 0.88543 0.44974 0.84813 0.0
C117 C 0.30829 0.05222 0.66606 0.0
O118 O 0.29983 0.05938 0.64753 0.0
O119 O 0.33449 0.05279 0.61545 0.0
Zn120 Zn 0.34543 0.06575 0.64441 0.0
O121 O 0.34178 0.09981 0.64462 0.0
C122 C 0.38452 0.04044 0.63981 0.0
O123 O 0.3727 0.02661 0.62747 0.0
O124 O 0.32829 0.05304 0.66871 0.0
C125 C 0.35688 0.113 0.63965 0.0
O126 O 0.3754 0.10423 0.63467 0.0
C127 C 0.33785 0.06283 0.5975 0.0
O128 O 0.34906 0.0817 0.59791 0.0
O129 O 0.37614 0.05791 0.64883 0.0
C130 C 0.69152 0.56098 0.32434 0.0
O131 O 0.69906 0.57146 0.34221 0.0
O132 O 0.66214 0.55681 0.37448 0.0
Zn133 Zn 0.6549 0.5728 0.34652 0.0
O134 O 0.66173 0.6062 0.34949 0.0
C135 C 0.61274 0.58023 0.35623 0.0
O136 O 0.62287 0.59119 0.37237 0.0
O137 O 0.67157 0.55895 0.32186 0.0
C138 C 0.65409 0.61944 0.33514 0.0
O139 O 0.64294 0.61069 0.31849 0.0
C140 C 0.66695 0.56714 0.39254 0.0
O141 O 0.66806 0.58949 0.39315 0.0
O142 O 0.62347 0.56986 0.34155 0.0
C143 C 0.18221 0.90957 0.07734 0.0
O144 O 0.19338 0.91198 0.09572 0.0
O145 O 0.17388 0.88931 0.12987 0.0
Zn146 Zn 0.15657 0.87938 0.10318 0.0
O147 O 0.12642 0.88866 0.108 0.0
C148 C 0.17158 0.83309 0.10755 0.0
O149 O 0.18664 0.84291 0.11962 0.0
O150 O 0.1666 0.89581 0.07653 0.0
C151 C 0.11592 0.88113 0.12399 0.0
O152 O 0.12486 0.86649 0.13728 0.0
C153 C 0.1693 0.90763 0.14033 0.0
O154 O 0.15287 0.91961 0.13384 0.0
O155 O 0.15748 0.84537 0.09854 0.0
C156 C 0.83231 0.56476 0.15025 0.0
O157 O 0.83706 0.55141 0.13334 0.0
O158 O 0.84357 0.58552 0.09674 0.0
Zn159 Zn 0.8543 0.59852 0.12562 0.0
O160 O 0.8518 0.63266 0.12584 0.0
C161 C 0.89732 0.59108 0.11293 0.0
O162 O 0.88999 0.59868 0.0941 0.0
O163 O 0.83804 0.58553 0.15048 0.0
C164 C 0.85432 0.64349 0.10816 0.0
O165 O 0.85801 0.63211 0.0897 0.0
C166 C 0.82438 0.58083 0.09179 0.0
O167 O 0.80949 0.58473 0.10631 0.0
O168 O 0.88489 0.58963 0.12913 0.0
C169 C 0.171 0.05798 0.84663 0.0
O170 O 0.17755 0.05719 0.86727 0.0
O171 O 0.142 0.06499 0.89453 0.0
Zn172 Zn 0.13607 0.08149 0.86647 0.0
O173 O 0.14346 0.11464 0.86969 0.0
C174 C 0.09271 0.06513 0.86711 0.0
O175 O 0.10047 0.05024 0.88089 0.0
O176 O 0.15339 0.06747 0.84217 0.0
C177 C 0.13222 0.12761 0.88181 0.0
O178 O 0.11655 0.11876 0.89281 0.0
C179 C 0.15416 0.07221 0.91009 0.0
O180 O 0.16321 0.09228 0.9087 0.0
O181 O 0.10508 0.07947 0.85861 0.0
C182 C 0.65867 0.43847 0.59008 0.0
O183 O 0.65726 0.44911 0.60932 0.0
O184 O 0.67268 0.4115 0.64032 0.0
Zn185 Zn 0.65154 0.40068 0.61722 0.0
O186 O 0.62194 0.40737 0.62687 0.0
C187 C 0.66824 0.35474 0.62083 0.0
O188 O 0.68364 0.36482 0.63221 0.0
O189 O 0.65678 0.41692 0.5891 0.0
C190 C 0.61419 0.39673 0.64289 0.0
O191 O 0.62608 0.38201 0.65337 0.0
C192 C 0.66841 0.42625 0.65527 0.0
O193 O 0.64924 0.4349 0.65616 0.0
O194 O 0.65356 0.36674 0.61247 0.0
C195 C 0.3087 0.96577 0.32035 0.0
O196 O 0.30364 0.9795 0.33687 0.0
O197 O 0.3254 0.966 0.37617 0.0
Zn198 Zn 0.33828 0.94682 0.35209 0.0
O199 O 0.33533 0.91379 0.35987 0.0
C200 C 0.37932 0.9558 0.36914 0.0
O201 O 0.36879 0.95334 0.38747 0.0
O202 O 0.32339 0.95127 0.32302 0.0
C203 C 0.35014 0.89943 0.35695 0.0
O204 O 0.36804 0.9061 0.34836 0.0
C205 C 0.3106 0.95853 0.38802 0.0
O206 O 0.30264 0.93821 0.38359 0.0
O207 O 0.3693 0.9544 0.35078 0.0
H208 H 0.19733 0.80178 0.12713 0.0
H209 H 0.19328 0.7604 0.12626 0.0
H210 H 0.13857 0.76607 0.0831 0.0
H211 H 0.14228 0.80752 0.08417 0.0
H212 H 0.13058 0.73844 0.11611 0.0
H213 H 0.18579 0.74588 0.06368 0.0
H214 H 0.22006 0.75897 0.04958 0.0
H215 H 0.25297 0.72375 0.10107 0.0
H216 H 0.21886 0.7107 0.11567 0.0
H217 H 0.1223 0.61866 0.09555 0.0
H218 H 0.12641 0.65965 0.09072 0.0
H219 H 0.18148 0.65994 0.1339 0.0
H220 H 0.17772 0.61897 0.13851 0.0
H221 H 0.18854 0.68442 0.09817 0.0
H222 H 0.13292 0.67877 0.15157 0.0
H223 H 0.09846 0.66625 0.16574 0.0
H224 H 0.0662 0.69834 0.11191 0.0
H225 H 0.10048 0.71078 0.09723 0.0
C226 C 0.18454 0.79423 0.11729 0.0
C227 C 0.17011 0.80796 0.10575 0.0
C228 C 0.1823 0.77055 0.11673 0.0
C229 C 0.16572 0.76013 0.10447 0.0
C230 C 0.15148 0.77376 0.09267 0.0
C231 C 0.15367 0.79745 0.09326 0.0
C232 C 0.16267 0.73508 0.10481 0.0
C233 C 0.14313 0.72661 0.11181 0.0
C234 C 0.17919 0.71968 0.09963 0.0
C235 C 0.19974 0.72747 0.09088 0.0
C236 C 0.20032 0.74107 0.0721 0.0
C237 C 0.21972 0.74846 0.064 0.0
C238 C 0.23868 0.74224 0.07445 0.0
C239 C 0.23827 0.72857 0.093 0.0
C240 C 0.21891 0.72115 0.10118 0.0
C241 C 0.13529 0.62744 0.104 0.0
C242 C 0.14966 0.61556 0.11744 0.0
C243 C 0.13758 0.65089 0.10128 0.0
C244 C 0.15415 0.66288 0.11211 0.0
C245 C 0.1686 0.65101 0.12537 0.0
C246 C 0.16637 0.6276 0.12805 0.0
C247 C 0.15654 0.68782 0.10969 0.0
C248 C 0.17594 0.69627 0.1023 0.0
C249 C 0.13988 0.7032 0.11447 0.0
C250 C 0.11928 0.69553 0.12319 0.0
C251 C 0.11849 0.68299 0.14265 0.0
C252 C 0.09899 0.67595 0.1508 0.0
C253 C 0.08016 0.68152 0.13974 0.0
C254 C 0.0808 0.69406 0.12046 0.0
C255 C 0.10025 0.70111 0.11222 0.0
H256 H 0.06508 0.67615 0.14612 0.0
H257 H 0.25368 0.74797 0.06815 0.0
H258 H 0.40631 0.95766 0.33429 0.0
H259 H 0.44502 0.95542 0.33561 0.0
H260 H 0.44391 0.95449 0.40674 0.0
H261 H 0.40528 0.95708 0.40562 0.0
H262 H 0.47704 0.97965 0.39233 0.0
H263 H 0.44664 0.90559 0.37781 0.0
H264 H 0.42384 0.87758 0.35781 0.0
H265 H 0.45859 0.88789 0.2985 0.0
H266 H 0.48137 0.91628 0.31807 0.0
H267 H 0.57574 0.92674 0.41467 0.0
H268 H 0.5381 0.93603 0.41179 0.0
H269 H 0.54183 0.93412 0.34073 0.0
H270 H 0.57939 0.92426 0.34344 0.0
H271 H 0.50762 0.91192 0.35405 0.0
H272 H 0.53977 0.98491 0.37038 0.0
H273 H 0.56277 0.01159 0.39182 0.0
H274 H 0.52504 0.00209 0.44923 0.0
H275 H 0.50198 0.97508 0.42822 0.0
C276 C 0.41431 0.95733 0.35023 0.0
C277 C 0.40271 0.95727 0.36985 0.0
C278 C 0.43642 0.95599 0.35094 0.0
C279 C 0.44727 0.95442 0.37126 0.0
C280 C 0.43582 0.95563 0.39089 0.0
C281 C 0.41373 0.95701 0.3902 0.0
C282 C 0.47034 0.9498 0.37203 0.0
C283 C 0.48374 0.96479 0.38408 0.0
C284 C 0.47906 0.93051 0.36108 0.0
C285 C 0.46556 0.91324 0.34934 0.0
C286 C 0.44931 0.90201 0.36046 0.0
C287 C 0.43641 0.88605 0.34921 0.0
C288 C 0.43973 0.881 0.32688 0.0
C289 C 0.45601 0.89185 0.31578 0.0
C290 C 0.46893 0.90787 0.32694 0.0
C291 C 0.56857 0.92829 0.39842 0.0
C292 C 0.58055 0.92477 0.37927 0.0
C293 C 0.54707 0.93374 0.3968 0.0
C294 C 0.53724 0.93609 0.37604 0.0
C295 C 0.54913 0.93245 0.35691 0.0
C296 C 0.5706 0.92686 0.3585 0.0
C297 C 0.51442 0.94183 0.37425 0.0
C298 C 0.50101 0.92695 0.36209 0.0
C299 C 0.50572 0.96112 0.38525 0.0
C300 C 0.51923 0.97784 0.39775 0.0
C301 C 0.53642 0.98843 0.3876 0.0
C302 C 0.54947 0.00362 0.39968 0.0
C303 C 0.54539 0.0085 0.42188 0.0
C304 C 0.52818 0.99828 0.43203 0.0
C305 C 0.5151 0.98306 0.42004 0.0
H306 H 0.55555 0.02021 0.43122 0.0
H307 H 0.42972 0.86864 0.3182 0.0
H308 H 0.30136 0.32558 0.63619 0.0
H309 H 0.3034 0.28406 0.63792 0.0
H310 H 0.36597 0.28563 0.61024 0.0
H311 H 0.36397 0.32703 0.60814 0.0
H312 H 0.34283 0.25113 0.59243 0.0
H313 H 0.35945 0.28092 0.66542 0.0
H314 H 0.3531 0.30356 0.69947 0.0
H315 H 0.29654 0.26505 0.71078 0.0
H316 H 0.30241 0.24237 0.67661 0.0
H317 H 0.38429 0.14517 0.62504 0.0
H318 H 0.3778 0.18591 0.62123 0.0
H319 H 0.31489 0.17772 0.64683 0.0
H320 H 0.32125 0.13691 0.6508 0.0
H321 H 0.33569 0.21499 0.66515 0.0
H322 H 0.32063 0.18352 0.59297 0.0
H323 H 0.32777 0.16068 0.55925 0.0
H324 H 0.38212 0.20224 0.5466 0.0
H325 H 0.37548 0.22513 0.58046 0.0
C326 C 0.31548 0.31708 0.63029 0.0
C327 C 0.33256 0.32962 0.62216 0.0
C328 C 0.31665 0.29336 0.63138 0.0
C329 C 0.33496 0.28181 0.62449 0.0
C330 C 0.35171 0.29422 0.61567 0.0
C331 C 0.35055 0.3179 0.61455 0.0
C332 C 0.33702 0.25687 0.62705 0.0
C333 C 0.34146 0.24325 0.60836 0.0
C334 C 0.33476 0.24655 0.64776 0.0
C335 C 0.33124 0.26012 0.66833 0.0
C336 C 0.34557 0.2774 0.67507 0.0
C337 C 0.34207 0.29022 0.69441 0.0
C338 C 0.32439 0.28579 0.70724 0.0
C339 C 0.3102 0.26849 0.7008 0.0
C340 C 0.31361 0.25564 0.68146 0.0
C341 C 0.36909 0.15202 0.62994 0.0
C342 C 0.35325 0.13779 0.63814 0.0
C343 C 0.36538 0.17528 0.62765 0.0
C344 C 0.34577 0.18474 0.6335 0.0
C345 C 0.3301 0.1707 0.64216 0.0
C346 C 0.33376 0.1474 0.64436 0.0
C347 C 0.34171 0.20931 0.63058 0.0
C348 C 0.3369 0.22286 0.6492 0.0
C349 C 0.3437 0.21957 0.60982 0.0
C350 C 0.34766 0.20592 0.58937 0.0
C351 C 0.3342 0.18768 0.5831 0.0
C352 C 0.33814 0.17474 0.56394 0.0
C353 C 0.35541 0.17997 0.55082 0.0
C354 C 0.36875 0.19819 0.5568 0.0
C355 C 0.3649 0.21117 0.57596 0.0
H356 H 0.35844 0.16993 0.53599 0.0
H357 H 0.32172 0.29573 0.72221 0.0
H358 H 0.06127 0.04168 0.8873 0.0
H359 H 0.0231 0.04783 0.88397 0.0
H360 H 0.03357 0.09855 0.83492 0.0
H361 H 0.0718 0.09285 0.8385 0.0
H362 H 0.00834 0.11455 0.86563 0.0
H363 H 0.01084 0.04648 0.82123 0.0
H364 H 0.02005 0.00669 0.81173 0.0
H365 H 0.98399 0.98354 0.86639 0.0
H366 H 0.97481 0.02323 0.87642 0.0
H367 H 0.89843 0.1299 0.84316 0.0
H368 H 0.93558 0.11942 0.838 0.0
H369 H 0.93184 0.07281 0.89174 0.0
H370 H 0.8947 0.08312 0.89703 0.0
H371 H 0.95324 0.05465 0.85546 0.0
H372 H 0.95344 0.12318 0.90114 0.0
H373 H 0.94424 0.16305 0.91037 0.0
H374 H 0.97547 0.18519 0.85218 0.0
H375 H 0.98462 0.14539 0.84245 0.0
C376 C 0.05545 0.05391 0.87557 0.0
C377 C 0.06957 0.06687 0.86326 0.0
C378 C 0.0336 0.05733 0.8736 0.0
C379 C 0.02546 0.07357 0.85909 0.0
C380 C 0.03951 0.08596 0.84624 0.0
C381 C 0.06135 0.08265 0.84828 0.0
C382 C 0.0025 0.07889 0.85864 0.0
C383 C 0.99631 0.1015 0.86295 0.0
C384 C 0.9868 0.06179 0.85565 0.0
C385 C 0.99228 0.03787 0.84969 0.0
C386 C 0.00502 0.03293 0.83134 0.0
C387 C 0.0102 0.01038 0.82583 0.0
C388 C 0.00265 0.9926 0.83847 0.0
C389 C 0.98985 0.99733 0.85662 0.0
C390 C 0.98463 0.01985 0.86221 0.0
C391 C 0.90547 0.11734 0.85382 0.0
C392 C 0.89368 0.10746 0.87061 0.0
C393 C 0.92669 0.1114 0.85085 0.0
C394 C 0.93643 0.09546 0.86459 0.0
C395 C 0.92456 0.08513 0.88097 0.0
C396 C 0.90339 0.09115 0.88404 0.0
C397 C 0.95925 0.09021 0.86251 0.0
C398 C 0.96535 0.06766 0.85784 0.0
C399 C 0.97492 0.10735 0.86507 0.0
C400 C 0.9695 0.13129 0.87094 0.0
C401 C 0.95819 0.13653 0.89022 0.0
C402 C 0.95301 0.15912 0.89556 0.0
C403 C 0.95921 0.17664 0.88183 0.0
C404 C 0.97065 0.1716 0.86277 0.0
C405 C 0.97584 0.14904 0.85735 0.0
H406 H 0.95519 0.19411 0.886 0.0
H407 H 0.00668 0.97516 0.83418 0.0
H408 H 0.12037 0.34572 0.89153 0.0
H409 H 0.11974 0.3044 0.89524 0.0
H410 H 0.16929 0.29756 0.84728 0.0
H411 H 0.16987 0.33889 0.84325 0.0
H412 H 0.13801 0.267 0.83945 0.0
H413 H 0.18039 0.29203 0.90166 0.0
H414 H 0.18887 0.31486 0.93534 0.0
H415 H 0.13516 0.28638 0.96757 0.0
H416 H 0.12617 0.26362 0.93396 0.0
H417 H 0.16151 0.15146 0.85885 0.0
H418 H 0.16529 0.19279 0.85716 0.0
H419 H 0.11449 0.20154 0.9034 0.0
H420 H 0.11067 0.16018 0.90535 0.0
H421 H 0.14751 0.23105 0.91223 0.0
H422 H 0.10458 0.20707 0.84954 0.0
H423 H 0.09605 0.1844 0.81577 0.0
H424 H 0.15104 0.21112 0.78442 0.0
H425 H 0.16007 0.23371 0.81814 0.0
C426 C 0.13114 0.33545 0.88175 0.0
C427 C 0.1452 0.3456 0.86713 0.0
C428 C 0.13082 0.31184 0.88398 0.0
C429 C 0.14465 0.29795 0.87174 0.0
C430 C 0.15853 0.30799 0.85693 0.0
C431 C 0.15885 0.33161 0.85468 0.0
C432 C 0.14439 0.27291 0.87414 0.0
C433 C 0.14042 0.25912 0.85531 0.0
C434 C 0.14708 0.26269 0.89492 0.0
C435 C 0.1525 0.27628 0.91521 0.0
C436 C 0.17029 0.29077 0.91587 0.0
C437 C 0.1752 0.30367 0.93496 0.0
C438 C 0.16253 0.30211 0.95357 0.0
C439 C 0.14495 0.28759 0.95314 0.0
C440 C 0.13995 0.27467 0.93408 0.0
C441 C 0.15124 0.16215 0.86881 0.0
C442 C 0.13567 0.15253 0.88211 0.0
C443 C 0.15339 0.18576 0.86777 0.0
C444 C 0.13997 0.20019 0.87992 0.0
C445 C 0.12495 0.19067 0.89385 0.0
C446 C 0.12277 0.16704 0.89489 0.0
C447 C 0.14111 0.2252 0.87754 0.0
C448 C 0.14521 0.23896 0.89637 0.0
C449 C 0.13856 0.23541 0.85675 0.0
C450 C 0.13312 0.22189 0.83644 0.0
C451 C 0.11495 0.20797 0.83551 0.0
C452 C 0.11001 0.19516 0.81637 0.0
C453 C 0.12303 0.19627 0.79798 0.0
C454 C 0.14099 0.21024 0.79868 0.0
C455 C 0.14602 0.22307 0.8178 0.0
H456 H 0.11917 0.18634 0.78317 0.0
H457 H 0.16636 0.31212 0.96833 0.0
H458 H 0.93193 0.97127 0.11899 0.0
H459 H 0.96987 0.96277 0.11971 0.0
H460 H 0.9613 0.92042 0.17606 0.0
H461 H 0.92337 0.92856 0.17534 0.0
H462 H 0.00423 0.965 0.14965 0.0
H463 H 0.98597 0.87089 0.16556 0.0
H464 H 0.95572 0.84439 0.1615 0.0
H465 H 0.93175 0.88186 0.10649 0.0
H466 H 0.962 0.90846 0.11011 0.0
H467 H 0.08847 0.86787 0.15579 0.0
H468 H 0.05289 0.88271 0.16281 0.0
H469 H 0.05878 0.92815 0.10835 0.0
H470 H 0.09432 0.91361 0.10132 0.0
H471 H 0.01752 0.88255 0.13599 0.0
H472 H 0.03354 0.97796 0.12116 0.0
H473 H 0.06309 0.00545 0.12462 0.0
H474 H 0.09173 0.96584 0.17571 0.0
H475 H 0.06221 0.9383 0.17279 0.0
C476 C 0.93818 0.96056 0.13185 0.0
C477 C 0.92459 0.95022 0.14684 0.0
C478 C 0.95988 0.95579 0.13228 0.0
C479 C 0.96825 0.94064 0.14766 0.0
C480 C 0.95504 0.9319 0.16384 0.0
C481 C 0.93337 0.93658 0.1634 0.0
C482 C 0.99005 0.93182 0.14517 0.0
C483 C 0.00719 0.94702 0.14652 0.0
C484 C 0.9938 0.90832 0.14128 0.0
C485 C 0.97614 0.89175 0.13825 0.0
C486 C 0.97433 0.87335 0.1525 0.0
C487 C 0.95715 0.85834 0.15029 0.0
C488 C 0.94177 0.86146 0.13377 0.0
C489 C 0.94363 0.8795 0.11931 0.0
C490 C 0.96078 0.89455 0.12145 0.0
C491 C 0.0822 0.88103 0.14532 0.0
C492 C 0.09424 0.8896 0.12804 0.0
C493 C 0.06187 0.88946 0.14934 0.0
C494 C 0.05334 0.90671 0.13628 0.0
C495 C 0.06522 0.9151 0.11885 0.0
C496 C 0.08549 0.90666 0.11479 0.0
C497 C 0.03185 0.91571 0.14054 0.0
C498 C 0.01467 0.90051 0.13936 0.0
C499 C 0.02811 0.93925 0.14437 0.0
C500 C 0.04574 0.95596 0.14659 0.0
C501 C 0.04609 0.97518 0.13321 0.0
C502 C 0.06284 0.99076 0.13506 0.0
C503 C 0.07931 0.98736 0.15033 0.0
C504 C 0.07901 0.96842 0.16384 0.0
C505 C 0.06228 0.9528 0.16207 0.0
H506 H 0.09228 -0.00057 0.15171 0.0
H507 H 0.9284 0.84994 0.13216 0.0
H508 H 0.36531 0.68714 0.38754 0.0
H509 H 0.36668 0.7285 0.38595 0.0
H510 H 0.29887 0.73181 0.3938 0.0
H511 H 0.29727 0.69018 0.39487 0.0
H512 H 0.31048 0.7577 0.3613 0.0
H513 H 0.33357 0.74931 0.43579 0.0
H514 H 0.35467 0.73396 0.46661 0.0
H515 H 0.41169 0.75965 0.43838 0.0
H516 H 0.39096 0.77489 0.40721 0.0
H517 H 0.31387 0.87903 0.3709 0.0
H518 H 0.30893 0.83908 0.38017 0.0
H519 H 0.37462 0.82561 0.36614 0.0
H520 H 0.37975 0.86552 0.35686 0.0
H521 H 0.36132 0.80592 0.4049 0.0
H522 H 0.33773 0.81115 0.32885 0.0
H523 H 0.31619 0.82667 0.29843 0.0
H524 H 0.25919 0.8071 0.33091 0.0
H525 H 0.28042 0.79172 0.36169 0.0
C526 C 0.35068 0.69663 0.38918 0.0
C527 C 0.33116 0.68534 0.39131 0.0
C528 C 0.35151 0.72033 0.38839 0.0
C529 C 0.33291 0.73331 0.39003 0.0
C530 C 0.31343 0.72213 0.39255 0.0
C531 C 0.31255 0.69835 0.39321 0.0
C532 C 0.33379 0.7584 0.38773 0.0
C533 C 0.32128 0.7683 0.37117 0.0
C534 C 0.34816 0.7722 0.40031 0.0
C535 C 0.36071 0.7631 0.41906 0.0
C536 C 0.35062 0.75154 0.43606 0.0
C537 C 0.36252 0.74289 0.45361 0.0
C538 C 0.38451 0.74579 0.45443 0.0
C539 C 0.39465 0.7574 0.43772 0.0
C540 C 0.38283 0.76608 0.42012 0.0
C541 C 0.32729 0.86759 0.36983 0.0
C542 C 0.34718 0.87541 0.36302 0.0
C543 C 0.32442 0.84477 0.37511 0.0
C544 C 0.34138 0.8294 0.37369 0.0
C545 C 0.36135 0.83724 0.36734 0.0
C546 C 0.36421 0.86002 0.36194 0.0
C547 C 0.33825 0.805 0.37834 0.0
C548 C 0.35035 0.79529 0.39528 0.0
C549 C 0.32341 0.79139 0.36623 0.0
C550 C 0.31065 0.80052 0.34768 0.0
C551 C 0.3206 0.81033 0.32959 0.0
C552 C 0.30845 0.81907 0.31227 0.0
C553 C 0.28633 0.81794 0.31277 0.0
C554 C 0.27632 0.808 0.33056 0.0
C555 C 0.2884 0.79926 0.34794 0.0
H556 H 0.27695 0.82471 0.29934 0.0
H557 H 0.39369 0.73907 0.46803 0.0
H558 H 0.58179 0.06529 0.66913 0.0
H559 H 0.54345 0.05968 0.67005 0.0
H560 H 0.54884 0.00104 0.62625 0.0
H561 H 0.58726 0.00656 0.62516 0.0
H562 H 0.51849 0.03069 0.61242 0.0
H563 H 0.53683 0.99339 0.67901 0.0
H564 H 0.55423 0.98892 0.71536 0.0
H565 H 0.51988 0.04647 0.74119 0.0
H566 H 0.5025 0.0515 0.70489 0.0
H567 H 0.40828 0.00679 0.62029 0.0
H568 H 0.44674 0.00182 0.62296 0.0
H569 H 0.45131 0.0602 0.66737 0.0
H570 H 0.41294 0.06519 0.665 0.0
H571 H 0.47671 0.02559 0.68082 0.0
H572 H 0.46176 0.06542 0.61357 0.0
H573 H 0.4447 0.07078 0.57717 0.0
H574 H 0.47312 0.00896 0.55266 0.0
H575 H 0.49013 0.00307 0.58905 0.0
C576 C 0.57487 0.05106 0.65987 0.0
C577 C 0.58757 0.0364 0.64704 0.0
C578 C 0.55297 0.04781 0.66049 0.0
C579 C 0.54335 0.02985 0.64834 0.0
C580 C 0.55599 0.01497 0.63578 0.0
C581 C 0.57794 0.01813 0.63523 0.0
C582 C 0.51996 0.02753 0.64775 0.0
C583 C 0.50936 0.02908 0.62732 0.0
C584 C 0.50809 0.02591 0.66727 0.0
C585 C 0.51848 0.02293 0.68916 0.0
C586 C 0.53311 0.00521 0.69239 0.0
C587 C 0.54295 0.00255 0.713 0.0
C588 C 0.5382 0.01743 0.73057 0.0
C589 C 0.52356 0.03497 0.72757 0.0
C590 C 0.51369 0.03771 0.70698 0.0
C591 C 0.41745 0.01847 0.63076 0.0
C592 C 0.40757 0.03648 0.64232 0.0
C593 C 0.43942 0.01562 0.63222 0.0
C594 C 0.45187 0.03078 0.6452 0.0
C595 C 0.44197 0.04832 0.65728 0.0
C596 C 0.42005 0.05119 0.65582 0.0
C597 C 0.47529 0.02907 0.64553 0.0
C598 C 0.48588 0.02683 0.6659 0.0
C599 C 0.48718 0.03013 0.62597 0.0
C600 C 0.477 0.03366 0.60409 0.0
C601 C 0.46422 0.05287 0.60047 0.0
C602 C 0.45459 0.05602 0.57984 0.0
C603 C 0.45776 0.04018 0.56263 0.0
C604 C 0.47063 0.02119 0.56602 0.0
C605 C 0.48028 0.01794 0.58664 0.0
H606 H 0.4503 0.04265 0.54667 0.0
H607 H 0.54583 0.01534 0.74651 0.0
H608 H 0.79257 0.19175 0.86344 0.0
H609 H 0.79684 0.23309 0.86204 0.0
H610 H 0.84761 0.23032 0.91043 0.0
H611 H 0.84337 0.18903 0.91209 0.0
H612 H 0.82093 0.26661 0.91801 0.0
H613 H 0.85912 0.233 0.85709 0.0
H614 H 0.86302 0.20878 0.8236 0.0
H615 H 0.81535 0.24781 0.7902 0.0
H616 H 0.81096 0.27209 0.82362 0.0
H617 H 0.87255 0.37178 0.89989 0.0
H618 H 0.86359 0.3316 0.90394 0.0
H619 H 0.81677 0.33635 0.85156 0.0
H620 H 0.82594 0.37636 0.84707 0.0
H621 H 0.8397 0.29923 0.84608 0.0
H622 H 0.8025 0.33414 0.9062 0.0
H623 H 0.79828 0.35835 0.93965 0.0
H624 H 0.8433 0.31723 0.97455 0.0
H625 H 0.84801 0.29295 0.9412 0.0
C626 C 0.80451 0.19994 0.87395 0.0
C627 C 0.81775 0.18708 0.88774 0.0
C628 C 0.80696 0.22355 0.87307 0.0
C629 C 0.82272 0.23468 0.88593 0.0
C630 C 0.83539 0.22202 0.90035 0.0
C631 C 0.83298 0.19842 0.90121 0.0
C632 C 0.82669 0.25936 0.88363 0.0
C633 C 0.82522 0.27376 0.90235 0.0
C634 C 0.83183 0.26868 0.86308 0.0
C635 C 0.83455 0.2542 0.84292 0.0
C636 C 0.84935 0.23631 0.84266 0.0
C637 C 0.85167 0.22259 0.82368 0.0
C638 C 0.83939 0.22671 0.8048 0.0
C639 C 0.82482 0.24461 0.80484 0.0
C640 C 0.82242 0.25837 0.82379 0.0
C641 C 0.86031 0.36429 0.88927 0.0
C642 C 0.84996 0.37726 0.87317 0.0
C643 C 0.85512 0.34135 0.89169 0.0
C644 C 0.83932 0.33104 0.87824 0.0
C645 C 0.82899 0.34396 0.86213 0.0
C646 C 0.83425 0.36684 0.85962 0.0
C647 C 0.83398 0.30661 0.88049 0.0
C648 C 0.83525 0.29219 0.86175 0.0
C649 C 0.8286 0.29732 0.90102 0.0
C650 C 0.82575 0.31185 0.92113 0.0
C651 C 0.81162 0.33036 0.92095 0.0
C652 C 0.80912 0.34408 0.9399 0.0
C653 C 0.82055 0.33936 0.9592 0.0
C654 C 0.83447 0.32088 0.95959 0.0
C655 C 0.83705 0.30712 0.94067 0.0
H656 H 0.8186 0.35 0.97385 0.0
H657 H 0.84121 0.21607 0.79012 0.0
H658 H 0.67704 0.6431 0.36684 0.0
H659 H 0.67736 0.68429 0.37385 0.0
H660 H 0.63508 0.69332 0.31808 0.0
H661 H 0.63506 0.65229 0.31066 0.0
H662 H 0.66401 0.7262 0.31984 0.0
H663 H 0.6164 0.69173 0.37083 0.0
H664 H 0.60658 0.6651 0.39985 0.0
H665 H 0.65344 0.69526 0.44371 0.0
H666 H 0.66374 0.72186 0.41482 0.0
H667 H 0.60873 0.82555 0.38173 0.0
H668 H 0.61459 0.78474 0.37598 0.0
H669 H 0.67929 0.7979 0.35792 0.0
H670 H 0.67343 0.83879 0.36314 0.0
H671 H 0.64029 0.75401 0.39339 0.0
H672 H 0.69316 0.76076 0.31707 0.0
H673 H 0.69984 0.78749 0.28711 0.0
H674 H 0.63616 0.81267 0.29185 0.0
H675 H 0.62905 0.78594 0.32164 0.0
C676 C 0.668 0.65388 0.35593 0.0
C677 C 0.65588 0.64441 0.3383 0.0
C678 C 0.66815 0.6774 0.36 0.0
C679 C 0.65598 0.69183 0.34669 0.0
C680 C 0.64457 0.6825 0.32857 0.0
C681 C 0.64452 0.65902 0.3244 0.0
C682 C 0.65423 0.71649 0.35221 0.0
C683 C 0.65895 0.73228 0.33596 0.0
C684 C 0.64731 0.72443 0.37314 0.0
C685 C 0.64098 0.70862 0.3906 0.0
C686 C 0.6247 0.69258 0.38662 0.0
C687 C 0.61904 0.6775 0.40304 0.0
C688 C 0.62942 0.67845 0.42359 0.0
C689 C 0.64544 0.69452 0.42777 0.0
C690 C 0.65119 0.70961 0.41139 0.0
C691 C 0.62426 0.81977 0.37668 0.0
C692 C 0.64054 0.83542 0.37266 0.0
C693 C 0.6276 0.79642 0.37346 0.0
C694 C 0.64728 0.78831 0.36621 0.0
C695 C 0.66386 0.80383 0.36313 0.0
C696 C 0.66049 0.82719 0.36619 0.0
C697 C 0.65011 0.76371 0.36105 0.0
C698 C 0.64559 0.74793 0.37736 0.0
C699 C 0.65674 0.75577 0.34002 0.0
C700 C 0.66067 0.77151 0.32173 0.0
C701 C 0.68057 0.77193 0.31164 0.0
C702 C 0.68443 0.7871 0.29471 0.0
C703 C 0.66846 0.80182 0.28764 0.0
C704 C 0.64855 0.80132 0.2974 0.0
C705 C 0.6446 0.78619 0.31432 0.0
H706 H 0.6715 0.81358 0.27456 0.0
H707 H 0.62502 0.66676 0.43628 0.0
H708 H 0.83886 0.67219 0.14019 0.0
H709 H 0.84039 0.7139 0.14142 0.0
H710 H 0.87171 0.7132 0.07868 0.0
H711 H 0.86995 0.67154 0.0771 0.0
H712 H 0.89205 0.74001 0.11401 0.0
H713 H 0.82394 0.72926 0.07788 0.0
H714 H 0.78771 0.71365 0.07403 0.0
H715 H 0.77067 0.74642 0.13531 0.0
H716 H 0.8069 0.76196 0.1397 0.0
H717 H 0.89109 0.85928 0.09854 0.0
H718 H 0.88794 0.81795 0.09392 0.0
H719 H 0.84234 0.81682 0.14626 0.0
H720 H 0.84484 0.85815 0.15041 0.0
H721 H 0.82902 0.79045 0.11458 0.0
H722 H 0.89506 0.79739 0.15432 0.0
H723 H 0.93138 0.81085 0.16279 0.0
H724 H 0.95215 0.78471 0.09997 0.0
H725 H 0.91591 0.77087 0.09124 0.0
C726 C 0.84594 0.68093 0.12659 0.0
C727 C 0.8543 0.66863 0.10856 0.0
C728 C 0.84673 0.70471 0.12729 0.0
C729 C 0.85611 0.71651 0.11011 0.0
C730 C 0.86439 0.70431 0.09205 0.0
C731 C 0.8633 0.68056 0.09117 0.0
C732 C 0.85802 0.74157 0.11142 0.0
C733 C 0.87832 0.75113 0.11376 0.0
C734 C 0.84002 0.75584 0.11188 0.0
C735 C 0.8182 0.74659 0.10922 0.0
C736 C 0.81253 0.73297 0.09064 0.0
C737 C 0.79198 0.72417 0.08834 0.0
C738 C 0.77692 0.72899 0.10445 0.0
C739 C 0.78236 0.74268 0.12286 0.0
C740 C 0.80289 0.7515 0.12525 0.0
C741 C 0.88039 0.85022 0.10905 0.0
C742 C 0.86818 0.86199 0.1248 0.0
C743 C 0.87871 0.82656 0.1065 0.0
C744 C 0.86508 0.8142 0.11992 0.0
C745 C 0.85292 0.82596 0.13567 0.0
C746 C 0.85441 0.84961 0.13806 0.0
C747 C 0.86314 0.78908 0.11731 0.0
C748 C 0.84281 0.77944 0.11471 0.0
C749 C 0.8811 0.77465 0.11713 0.0
C750 C 0.90277 0.78334 0.12204 0.0
C751 C 0.90735 0.79466 0.14225 0.0
C752 C 0.92794 0.80226 0.14714 0.0
C753 C 0.94406 0.79874 0.13188 0.0
C754 C 0.93964 0.78747 0.11176 0.0
C755 C 0.9191 0.77965 0.10687 0.0
H756 H 0.95998 0.8047 0.13567 0.0
H757 H 0.76101 0.72217 0.10263 0.0
H758 H 0.63732 0.32877 0.6005 0.0
H759 H 0.63303 0.28749 0.60155 0.0
H760 H 0.69106 0.28243 0.63973 0.0
H761 H 0.69563 0.32378 0.6386 0.0
H762 H 0.6872 0.24827 0.6079 0.0
H763 H 0.64475 0.28186 0.66535 0.0
H764 H 0.61776 0.30806 0.68036 0.0
H765 H 0.57025 0.27681 0.63803 0.0
H766 H 0.59704 0.25064 0.62251 0.0
H767 H 0.67142 0.13889 0.65154 0.0
H768 H 0.67716 0.17964 0.64715 0.0
H769 H 0.61687 0.18477 0.613 0.0
H770 H 0.61078 0.14405 0.61774 0.0
H771 H 0.62188 0.21898 0.64205 0.0
H772 H 0.66387 0.18489 0.58496 0.0
H773 H 0.69079 0.15899 0.56933 0.0
H774 H 0.73894 0.19112 0.61021 0.0
H775 H 0.71225 0.21701 0.62633 0.0
C776 C 0.64931 0.3189 0.60894 0.0
C777 C 0.66674 0.32959 0.61964 0.0
C778 C 0.64678 0.2953 0.60958 0.0
C779 C 0.66155 0.28198 0.62101 0.0
C780 C 0.67945 0.29245 0.63089 0.0
C781 C 0.682 0.31608 0.63027 0.0
C782 C 0.65784 0.25726 0.62346 0.0
C783 C 0.67305 0.24183 0.61558 0.0
C784 C 0.63914 0.24893 0.63308 0.0
C785 C 0.62294 0.26444 0.64262 0.0
C786 C 0.62857 0.28068 0.65913 0.0
C787 C 0.61331 0.29551 0.66775 0.0
C788 C 0.59232 0.29414 0.66011 0.0
C789 C 0.58653 0.27788 0.64391 0.0
C790 C 0.60174 0.26302 0.6352 0.0
C791 C 0.65936 0.14867 0.6431 0.0
C792 C 0.64066 0.13821 0.63493 0.0
C793 C 0.66272 0.17195 0.6405 0.0
C794 C 0.64759 0.18519 0.62945 0.0
C795 C 0.62879 0.17486 0.62152 0.0
C796 C 0.62535 0.15158 0.62422 0.0
C797 C 0.65124 0.20988 0.62644 0.0
C798 C 0.63602 0.22535 0.63428 0.0
C799 C 0.66991 0.21822 0.61674 0.0
C800 C 0.68602 0.20275 0.607 0.0
C801 C 0.68017 0.18632 0.59074 0.0
C802 C 0.69539 0.17166 0.58177 0.0
C803 C 0.71655 0.17337 0.58881 0.0
C804 C 0.72254 0.18979 0.6048 0.0
C805 C 0.70738 0.20448 0.61384 0.0
H806 H 0.72831 0.16201 0.58185 0.0
H807 H 0.58053 0.30566 0.66679 0.0
H808 H 0.09401 0.42976 0.83067 0.0
H809 H 0.05599 0.43752 0.83 0.0
H810 H 0.06104 0.46876 0.89504 0.0
H811 H 0.09911 0.46092 0.89595 0.0
H812 H 0.02956 0.43741 0.89212 0.0
H813 H 0.05201 0.50116 0.85065 0.0
H814 H 0.07076 0.52078 0.82118 0.0
H815 H 0.03453 0.48311 0.77203 0.0
H816 H 0.01576 0.46301 0.80121 0.0
H817 H 0.92375 0.47551 0.89557 0.0
H818 H 0.96241 0.47592 0.89469 0.0
H819 H 0.96051 0.44434 0.82968 0.0
H820 H 0.92172 0.44412 0.83026 0.0
H821 H 0.99055 0.47783 0.83309 0.0
H822 H 0.96987 0.41253 0.87396 0.0
H823 H 0.95123 0.39217 0.90304 0.0
H824 H 0.98451 0.43199 0.95289 0.0
H825 H 0.00313 0.45283 0.92407 0.0
C826 C 0.08709 0.4385 0.84475 0.0
C827 C 0.09956 0.44463 0.86341 0.0
C828 C 0.06537 0.44302 0.84429 0.0
C829 C 0.05573 0.45384 0.86242 0.0
C830 C 0.0682 0.46041 0.88088 0.0
C831 C 0.08995 0.45595 0.88134 0.0
C832 C 0.03244 0.45691 0.86266 0.0
C833 C 0.02106 0.44662 0.87945 0.0
C834 C 0.02136 0.46836 0.84574 0.0
C835 C 0.03261 0.48043 0.82814 0.0
C836 C 0.04816 0.49692 0.83356 0.0
C837 C 0.05877 0.50815 0.8169 0.0
C838 C 0.05388 0.50315 0.79474 0.0
C839 C 0.03832 0.48694 0.7892 0.0
C840 C 0.02767 0.47565 0.80579 0.0
C841 C 0.93151 0.46877 0.881 0.0
C842 C 0.91966 0.45959 0.86305 0.0
C843 C 0.95362 0.46899 0.88056 0.0
C844 C 0.96431 0.45987 0.86225 0.0
C845 C 0.95254 0.45141 0.84398 0.0
C846 C 0.93039 0.45123 0.84438 0.0
C847 C 0.98774 0.45834 0.86256 0.0
C848 C -0.00089 0.46881 0.84585 0.0
C849 C -0.00115 0.44696 0.87949 0.0
C850 C 0.98772 0.43441 0.89686 0.0
C851 C 0.97309 0.41708 0.89112 0.0
C852 C 0.96254 0.40543 0.90755 0.0
C853 C 0.96664 0.41083 0.9298 0.0
C854 C 0.98132 0.42785 0.93565 0.0
C855 C 0.99189 0.43958 0.91928 0.0
H856 H 0.95846 0.40179 0.9425 0.0
H857 H 0.06211 0.51187 0.78187 0.0
H858 H 0.58623 0.60268 0.38418 0.0
H859 H 0.54766 0.60312 0.38312 0.0
H860 H 0.5474 0.55832 0.32563 0.0
H861 H 0.5863 0.55807 0.32633 0.0
H862 H 0.51941 0.59211 0.32076 0.0
H863 H 0.53414 0.53736 0.3747 0.0
H864 H 0.5519 0.52126 0.40729 0.0
H865 H 0.52572 0.57423 0.44857 0.0
H866 H 0.50802 0.59087 0.41615 0.0
H867 H 0.40741 0.57581 0.37468 0.0
H868 H 0.44397 0.56349 0.36907 0.0
H869 H 0.46012 0.63061 0.34706 0.0
H870 H 0.42352 0.64285 0.35208 0.0
H871 H 0.4789 0.57673 0.38836 0.0
H872 H 0.49899 0.62862 0.31033 0.0
H873 H 0.48107 0.64107 0.27623 0.0
H874 H 0.43641 0.58613 0.28031 0.0
H875 H 0.45423 0.57314 0.31424 0.0
C876 C 0.57804 0.59285 0.37131 0.0
C877 C 0.58933 0.58025 0.35538 0.0
C878 C 0.55596 0.59304 0.3708 0.0
C879 C 0.54467 0.58046 0.35451 0.0
C880 C 0.55584 0.56805 0.3384 0.0
C881 C 0.57803 0.5679 0.33885 0.0
C882 C 0.5212 0.58085 0.35429 0.0
C883 C 0.51049 0.58859 0.33545 0.0
C884 C 0.50954 0.57555 0.37326 0.0
C885 C 0.51984 0.56544 0.39294 0.0
C886 C 0.53226 0.54566 0.39071 0.0
C887 C 0.54231 0.53643 0.40916 0.0
C888 C 0.53999 0.54674 0.42999 0.0
C889 C 0.52751 0.56626 0.43242 0.0
C890 C 0.51743 0.57558 0.41401 0.0
C891 C 0.41872 0.5879 0.3685 0.0
C892 C 0.41258 0.61031 0.36381 0.0
C893 C 0.43961 0.58083 0.36531 0.0
C894 C 0.45474 0.59603 0.3574 0.0
C895 C 0.44862 0.61842 0.35272 0.0
C896 C 0.42771 0.62544 0.35573 0.0
C897 C 0.47717 0.58894 0.35511 0.0
C898 C 0.4877 0.57993 0.37352 0.0
C899 C 0.48854 0.59246 0.33552 0.0
C900 C 0.47788 0.60001 0.31494 0.0
C901 C 0.48542 0.61911 0.30389 0.0
C902 C 0.47526 0.62629 0.2846 0.0
C903 C 0.45758 0.61443 0.27614 0.0
C904 C 0.45006 0.59534 0.28692 0.0
C905 C 0.46017 0.58808 0.3062 0.0
H906 H 0.44973 0.62002 0.26122 0.0
H907 H 0.54782 0.53958 0.44425 0.0
H908 H 0.58524 0.42461 0.62336 0.0
H909 H 0.54739 0.42711 0.63044 0.0
H910 H 0.55415 0.37847 0.68233 0.0
H911 H 0.5921 0.3755 0.67504 0.0
H912 H 0.52254 0.3669 0.65513 0.0
H913 H 0.54314 0.43483 0.69423 0.0
H914 H 0.56118 0.47179 0.70025 0.0
H915 H 0.52525 0.49996 0.64671 0.0
H916 H 0.50719 0.46308 0.64015 0.0
H917 H 0.41288 0.37753 0.6773 0.0
H918 H 0.45123 0.38006 0.68351 0.0
H919 H 0.4562 0.42575 0.62914 0.0
H920 H 0.41789 0.42357 0.62298 0.0
H921 H 0.48197 0.43881 0.66377 0.0
H922 H 0.46563 0.36961 0.6217 0.0
H923 H 0.44789 0.33256 0.61498 0.0
H924 H 0.4764 0.30694 0.67421 0.0
H925 H 0.49409 0.34397 0.68142 0.0
C926 C 0.57876 0.41462 0.63646 0.0
C927 C 0.59166 0.39978 0.64858 0.0
C928 C 0.55711 0.4162 0.64059 0.0
C929 C 0.54797 0.40317 0.65709 0.0
C930 C 0.5609 0.38873 0.66958 0.0
C931 C 0.58258 0.38708 0.6654 0.0
C932 C 0.52468 0.40333 0.65995 0.0
C933 C 0.51371 0.38259 0.65756 0.0
C934 C 0.51314 0.42384 0.66267 0.0
C935 C 0.5239 0.44612 0.66661 0.0
C936 C 0.53918 0.44885 0.68363 0.0
C937 C 0.5494 0.4698 0.68716 0.0
C938 C 0.54439 0.4882 0.67385 0.0
C939 C 0.52912 0.4857 0.65701 0.0
C940 C 0.51886 0.46478 0.6534 0.0
C941 C 0.4221 0.3883 0.66681 0.0
C942 C 0.41238 0.40016 0.64949 0.0
C943 C 0.444 0.3897 0.67037 0.0
C944 C 0.45655 0.40286 0.65661 0.0
C945 C 0.44678 0.41548 0.63993 0.0
C946 C 0.4249 0.41412 0.63637 0.0
C947 C 0.47996 0.40247 0.65859 0.0
C948 C 0.4909 0.42314 0.66181 0.0
C949 C 0.49152 0.3819 0.65662 0.0
C950 C 0.48096 0.35963 0.65224 0.0
C951 C 0.46797 0.35613 0.63338 0.0
C952 C 0.45795 0.33513 0.62947 0.0
C953 C 0.46096 0.31743 0.6442 0.0
C954 C 0.47405 0.32068 0.66284 0.0
C955 C 0.48408 0.34166 0.66684 0.0
H956 H 0.45319 0.30119 0.64114 0.0
H957 H 0.55232 0.5044 0.67661 0.0
H958 H 0.08678 0.51081 0.09816 0.0
H959 H 0.04867 0.51842 0.09669 0.0
H960 H 0.05376 0.55688 0.15808 0.0
H961 H 0.09182 0.54953 0.15967 0.0
H962 H 0.01374 0.51233 0.12408 0.0
H963 H 0.02742 0.60604 0.15092 0.0
H964 H 0.05641 0.63432 0.15118 0.0
H965 H 0.08307 0.60149 0.09398 0.0
H966 H 0.05415 0.57314 0.09328 0.0
H967 H 0.91578 0.56751 0.14651 0.0
H968 H 0.95259 0.55464 0.14934 0.0
H969 H 0.9661 0.58534 0.08715 0.0
H970 H 0.92932 0.59819 0.0841 0.0
H971 H 0.99688 0.5947 0.11943 0.0
H972 H 0.95976 0.53064 0.08725 0.0
H973 H 0.93153 0.50155 0.08458 0.0
H974 H 0.95213 0.47448 0.14652 0.0
H975 H 0.98029 0.50365 0.14973 0.0
C976 C 0.07974 0.52051 0.11158 0.0
C977 C 0.09238 0.52987 0.12886 0.0
C978 C 0.05795 0.52477 0.11073 0.0
C979 C 0.04855 0.5385 0.12709 0.0
C980 C 0.06084 0.54648 0.14516 0.0
C981 C 0.08258 0.54223 0.14603 0.0
C982 C 0.02647 0.54638 0.1242 0.0
C983 C 0.01 0.53031 0.12316 0.0
C984 C 0.02175 0.56983 0.12244 0.0
C985 C 0.03871 0.58738 0.12217 0.0
C986 C 0.03938 0.60497 0.13831 0.0
C987 C 0.05583 0.62099 0.13855 0.0
C988 C 0.07159 0.61971 0.12262 0.0
C989 C 0.07089 0.60245 0.10634 0.0
C990 C 0.05449 0.58638 0.10603 0.0
C991 C 0.92659 0.57159 0.13347 0.0
C992 C 0.91965 0.58381 0.11504 0.0
C993 C 0.94757 0.56417 0.13509 0.0
C994 C 0.96196 0.56895 0.11839 0.0
C995 C 0.95519 0.5815 0.10019 0.0
C996 C 0.93417 0.58874 0.09845 0.0
C997 C 0.98404 0.56067 0.1198 0.0
C998 C 0.00056 0.57671 0.12049 0.0
C999 C 0.9888 0.53717 0.12079 0.0
C1000 C 0.972 0.51948 0.11884 0.0
C1001 C 0.95816 0.5186 0.1004 0.0
C1002 C 0.94219 0.50208 0.09877 0.0
C1003 C 0.94001 0.48621 0.1154 0.0
C1004 C 0.95383 0.4868 0.13366 0.0
C1005 C 0.9698 0.50332 0.13539 0.0
H1006 H 0.92763 0.47343 0.11411 0.0
H1007 H 0.08436 0.63206 0.12287 0.0
H1008 H 0.17884 0.49233 0.08965 0.0
H1009 H 0.18601 0.47146 0.05512 0.0
H1010 H 0.20136 0.53454 0.02398 0.0
H1011 H 0.19448 0.55554 0.05848 0.0
H1012 H 0.16994 0.5073 0.00166 0.0
H1013 H 0.23992 0.50021 0.03324 0.0
H1014 H 0.26609 0.49058 0.06218 0.0
H1015 H 0.24543 0.42085 0.05909 0.0
H1016 H 0.2189 0.43013 0.03034 0.0
H1017 H 0.19415 0.45962 0.89932 0.0
H1018 H 0.20053 0.48044 0.93414 0.0
H1019 H 0.1937 0.41812 0.96969 0.0
H1020 H 0.18795 0.39701 0.93477 0.0
H1021 H 0.22283 0.44589 0.98969 0.0
H1022 H 0.15159 0.45189 0.96195 0.0
H1023 H 0.12396 0.45961 0.93387 0.0
H1024 H 0.14449 0.52926 0.93151 0.0
H1025 H 0.1725 0.52184 0.95932 0.0
C1026 C 0.18399 0.50172 0.07552 0.0
C1027 C 0.18601 0.52557 0.07671 0.0
C1028 C 0.18818 0.48978 0.05588 0.0
C1029 C 0.19426 0.50151 0.03712 0.0
C1030 C 0.19673 0.52524 0.03837 0.0
C1031 C 0.19283 0.53717 0.05808 0.0
C1032 C 0.19635 0.4892 0.01574 0.0
C1033 C 0.18177 0.49418 -0.00114 0.0
C1034 C 0.2113 0.47156 0.01253 0.0
C1035 C 0.22728 0.46592 0.02977 0.0
C1036 C 0.24082 0.48286 0.03887 0.0
C1037 C 0.25575 0.47746 0.05521 0.0
C1038 C 0.25738 0.45513 0.06251 0.0
C1039 C 0.24413 0.43814 0.05343 0.0
C1040 C 0.22916 0.44346 0.0371 0.0
C1041 C 0.19441 0.45027 0.91452 0.0
C1042 C 0.1902 0.42677 0.91441 0.0
C1043 C 0.19806 0.46219 0.93438 0.0
C1044 C 0.19707 0.45089 0.95448 0.0
C1045 C 0.19441 0.42715 0.95434 0.0
C1046 C 0.19107 0.41514 0.93439 0.0
C1047 C 0.19653 0.46414 0.97554 0.0
C1048 C 0.2112 0.45922 0.99239 0.0
C1049 C 0.18138 0.4816 0.97896 0.0
C1050 C 0.16428 0.48625 0.96255 0.0
C1051 C 0.15029 0.46882 0.95534 0.0
C1052 C 0.13456 0.47314 0.93948 0.0
C1053 C 0.13251 0.4949 0.93087 0.0
C1054 C 0.14613 0.5124 0.93817 0.0
C1055 C 0.16193 0.50816 0.95399 0.0
H1056 H 0.12033 0.4982 0.91857 0.0
H1057 H 0.26896 0.45098 0.07516 0.0
H1058 H 0.66431 0.92288 0.29762 0.0
H1059 H 0.68685 0.9278 0.26569 0.0
H1060 H 0.73287 0.96389 0.3068 0.0
H1061 H 0.71013 0.95962 0.33872 0.0
H1062 H 0.73035 0.98198 0.2665 0.0
H1063 H 0.738 0.90706 0.29621 0.0
H1064 H 0.72525 0.86989 0.30878 0.0
H1065 H 0.69978 0.85444 0.244 0.0
H1066 H 0.71213 0.89168 0.23112 0.0
H1067 H 0.82382 0.95657 0.20507 0.0
H1068 H 0.79648 0.96118 0.23305 0.0
H1069 H 0.75089 0.92808 0.18916 0.0
H1070 H 0.77802 0.9233 0.1612 0.0
H1071 H 0.75215 0.90947 0.22978 0.0
H1072 H 0.74729 0.9841 0.19963 0.0
H1073 H 0.76087 0.02117 0.18776 0.0
H1074 H 0.78245 0.03693 0.25394 0.0
H1075 H 0.76927 -0.00021 0.26616 0.0
C1076 C 0.67909 0.93215 0.2998 0.0
C1077 C 0.68562 0.94056 0.32073 0.0
C1078 C 0.69195 0.93492 0.28156 0.0
C1079 C 0.71172 0.94576 0.28402 0.0
C1080 C 0.7177 0.95537 0.3046 0.0
C1081 C 0.70472 0.95285 0.32283 0.0
C1082 C 0.72684 0.94547 0.26562 0.0
C1083 C 0.73527 0.96614 0.25856 0.0
C1084 C 0.73302 0.92478 0.25512 0.0
C1085 C 0.7258 0.90225 0.26276 0.0
C1086 C 0.72956 0.8958 0.28468 0.0
C1087 C 0.72242 0.87471 0.29186 0.0
C1088 C 0.71166 0.85984 0.27721 0.0
C1089 C 0.70808 0.86599 0.25534 0.0
C1090 C 0.71516 0.88708 0.24808 0.0
C1091 C 0.80792 0.95048 0.2013 0.0
C1092 C 0.80311 0.93944 0.18099 0.0
C1093 C 0.79231 0.95323 0.21725 0.0
C1094 C 0.77168 0.94504 0.21308 0.0
C1095 C 0.76674 0.9345 0.19265 0.0
C1096 C 0.78228 0.9318 0.17671 0.0
C1097 C 0.75561 0.94599 0.23055 0.0
C1098 C 0.7471 0.92536 0.23755 0.0
C1099 C 0.74955 0.96669 0.24105 0.0
C1100 C 0.75747 0.98906 0.23376 0.0
C1101 C 0.7551 0.99538 0.21162 0.0
C1102 C 0.76269 0.01642 0.20483 0.0
C1103 C 0.77257 0.03137 0.22007 0.0
C1104 C 0.77482 0.02532 0.24215 0.0
C1105 C 0.76727 0.00429 0.24901 0.0
H1106 H 0.77843 0.04766 0.21479 0.0
H1107 H 0.70613 0.84352 0.2828 0.0
H1108 H 0.32543 0.48084 0.59015 0.0
H1109 H 0.31971 0.50229 0.55664 0.0
H1110 H 0.33077 0.44153 0.51706 0.0
H1111 H 0.33689 0.41995 0.55059 0.0
H1112 H 0.35389 0.47599 0.50343 0.0
H1113 H 0.28118 0.46496 0.52026 0.0
H1114 H 0.24936 0.46504 0.54336 0.0
H1115 H 0.25436 0.53758 0.55268 0.0
H1116 H 0.28641 0.53791 0.52989 0.0
H1117 H 0.33121 0.53021 0.4036 0.0
H1118 H 0.32612 0.50465 0.43424 0.0
H1119 H 0.32219 0.56238 0.47934 0.0
H1120 H 0.3272 0.58822 0.44871 0.0
H1121 H 0.29309 0.52719 0.48831 0.0
H1122 H 0.3678 0.53702 0.47466 0.0
H1123 H 0.39963 0.53683 0.45156 0.0
H1124 H 0.39036 0.46568 0.43631 0.0
H1125 H 0.35826 0.46554 0.45909 0.0
C1126 C 0.32645 0.47195 0.57434 0.0
C1127 C 0.33176 0.44872 0.57302 0.0
C1128 C 0.32301 0.48422 0.55519 0.0
C1129 C 0.32462 0.47346 0.53436 0.0
C1130 C 0.32941 0.45013 0.53299 0.0
C1131 C 0.3329 0.43784 0.55215 0.0
C1132 C 0.32304 0.48701 0.51411 0.0
C1133 C 0.34038 0.4868 0.49989 0.0
C1134 C 0.30563 0.50153 0.5098 0.0
C1135 C 0.28632 0.50143 0.5235 0.0
C1136 C 0.27561 0.48091 0.52738 0.0
C1137 C 0.2575 0.48089 0.54039 0.0
C1138 C 0.24987 0.50129 0.54952 0.0
C1139 C 0.2603 0.52178 0.54561 0.0
C1140 C 0.27843 0.5219 0.53262 0.0
C1141 C 0.32902 0.53754 0.41998 0.0
C1142 C 0.32989 0.56124 0.42379 0.0
C1143 C 0.3261 0.52289 0.43745 0.0
C1144 C 0.32404 0.53166 0.45902 0.0
C1145 C 0.32377 0.55533 0.46276 0.0
C1146 C 0.32674 0.57003 0.44528 0.0
C1147 C 0.32394 0.51614 0.47785 0.0
C1148 C 0.30641 0.51609 0.49178 0.0
C1149 C 0.34113 0.50131 0.48194 0.0
C1150 C 0.3605 0.50133 0.46837 0.0
C1151 C 0.37245 0.52138 0.46623 0.0
C1152 C 0.39056 0.52133 0.45323 0.0
C1153 C 0.39698 0.50127 0.44242 0.0
C1154 C 0.38534 0.48121 0.44466 0.0
C1155 C 0.3672 0.48118 0.45762 0.0
H1156 H 0.411 0.50126 0.43236 0.0
H1157 H 0.23585 0.50124 0.55959 0.0
H1158 H 0.72419 0.08528 0.68251 0.0
H1159 H 0.74734 0.07933 0.71431 0.0
H1160 H 0.70627 0.02555 0.73574 0.0
H1161 H 0.68244 0.03216 0.70425 0.0
H1162 H 0.71514 0.05139 0.76886 0.0
H1163 H 0.75784 0.01472 0.71587 0.0
H1164 H 0.77644 0.00848 0.68079 0.0
H1165 H 0.81555 0.06712 0.69491 0.0
H1166 H 0.79698 0.07394 0.72993 0.0
H1167 H 0.79405 0.04204 0.8567 0.0
H1168 H 0.77417 0.02993 0.8232 0.0
H1169 H 0.78781 0.09438 0.79381 0.0
H1170 H 0.80716 0.10678 0.82723 0.0
H1171 H 0.7937 0.05237 0.76562 0.0
H1172 H 0.74355 0.09129 0.81525 0.0
H1173 H 0.72505 0.09529 0.85069 0.0
H1174 H 0.70059 0.02725 0.84256 0.0
H1175 H 0.71922 0.02277 0.80719 0.0
C1176 C 0.72019 0.072 0.69383 0.0
C1177 C 0.70148 0.05923 0.69093 0.0
C1178 C 0.73356 0.06845 0.71194 0.0
C1179 C 0.7288 0.05168 0.72726 0.0
C1180 C 0.71033 0.03852 0.72411 0.0
C1181 C 0.69674 0.04232 0.70613 0.0
C1182 C 0.74217 0.04949 0.74746 0.0
C1183 C 0.73231 0.05096 0.76807 0.0
C1184 C 0.76461 0.0489 0.74659 0.0
C1185 C 0.77592 0.0449 0.72553 0.0
C1186 C 0.77031 0.02638 0.71144 0.0
C1187 C 0.78087 0.02273 0.69157 0.0
C1188 C 0.79715 0.0374 0.68561 0.0
C1189 C 0.80294 0.05575 0.69955 0.0
C1190 C 0.79242 0.0595 0.71944 0.0
C1191 C 0.79289 0.05352 0.84301 0.0
C1192 C 0.80199 0.07538 0.84455 0.0
C1193 C 0.78159 0.04658 0.82396 0.0
C1194 C 0.77966 0.06128 0.80613 0.0
C1195 C 0.78928 0.08281 0.80741 0.0
C1196 C 0.80017 0.08991 0.82654 0.0
C1197 C 0.76656 0.05509 0.78654 0.0
C1198 C 0.77652 0.05208 0.76618 0.0
C1199 C 0.74426 0.05379 0.78762 0.0
C1200 C 0.73298 0.05659 0.80876 0.0
C1201 C 0.73439 0.07712 0.82113 0.0
C1202 C 0.72385 0.07949 0.84118 0.0
C1203 C 0.71172 0.0615 0.84891 0.0
C1204 C 0.71004 0.04114 0.83658 0.0
C1205 C 0.72057 0.03868 0.81654 0.0
H1206 H 0.70356 0.06337 0.86443 0.0
H1207 H 0.8053 0.03454 0.67021 0.0
H1208 H 0.79224 0.45303 0.91417 0.0
H1209 H 0.78608 0.47196 0.95008 0.0
H1210 H 0.84479 0.50899 0.94445 0.0
H1211 H 0.85104 0.49041 0.90885 0.0
H1212 H 0.84074 0.48684 0.98441 0.0
H1213 H 0.79924 0.5352 0.93569 0.0
H1214 H 0.77058 0.54235 0.90857 0.0
H1215 H 0.72454 0.51812 0.95393 0.0
H1216 H 0.75299 0.51054 0.98121 0.0
H1217 H 0.84928 0.57865 0.05576 0.0
H1218 H 0.84368 0.55573 0.02219 0.0
H1219 H 0.78329 0.53309 0.046 0.0
H1220 H 0.78864 0.55649 0.07981 0.0
H1221 H 0.78267 0.54141 0.00059 0.0
H1222 H 0.82332 0.49839 0.05142 0.0
H1223 H 0.85171 0.49163 0.07891 0.0
H1224 H 0.89879 0.50437 0.0303 0.0
H1225 H 0.87069 0.51157 0.00258 0.0
C1226 C 0.80374 0.46534 0.92054 0.0
C1227 C 0.82216 0.47016 0.90871 0.0
C1228 C 0.80017 0.47612 0.941 0.0
C1229 C 0.81503 0.49178 0.94985 0.0
C1230 C 0.8332 0.49686 0.9379 0.0
C1231 C 0.8367 0.48625 0.91751 0.0
C1232 C 0.81234 0.50258 0.97188 0.0
C1233 C 0.82806 0.49878 0.98797 0.0
C1234 C 0.7953 0.51742 0.97673 0.0
C1235 C 0.77825 0.52203 0.96036 0.0
C1236 C 0.78302 0.5312 0.93979 0.0
C1237 C 0.76682 0.53537 0.92441 0.0
C1238 C 0.74576 0.53061 0.92949 0.0
C1239 C 0.74086 0.52174 0.94999 0.0
C1240 C 0.75702 0.51752 0.96542 0.0
C1241 C 0.83469 0.569 0.05382 0.0
C1242 C 0.81952 0.5691 0.07053 0.0
C1243 C 0.83153 0.55588 0.03463 0.0
C1244 C 0.8133 0.54234 0.03189 0.0
C1245 C 0.79752 0.54333 0.04795 0.0
C1246 C 0.80061 0.55667 0.0672 0.0
C1247 C 0.81164 0.52642 0.01268 0.0
C1248 C 0.79509 0.5291 0.99723 0.0
C1249 C 0.82784 0.51034 0.00841 0.0
C1250 C 0.84486 0.50563 0.02493 0.0
C1251 C 0.83973 0.49987 0.04661 0.0
C1252 C 0.85577 0.49595 0.06224 0.0
C1253 C 0.87704 0.49759 0.05636 0.0
C1254 C 0.88231 0.5031 0.03482 0.0
C1255 C 0.86632 0.50706 0.01913 0.0
H1256 H 0.88944 0.49458 0.06849 0.0
H1257 H 0.73323 0.53386 0.91757 0.0
H1258 H 0.1626 0.05756 0.80223 0.0
H1259 H 0.1869 0.04758 0.7726 0.0
H1260 H 0.23478 0.02954 0.82069 0.0
H1261 H 0.21063 0.03965 0.85048 0.0
H1262 H 0.24939 0.05933 0.79166 0.0
H1263 H 0.21246 0.98865 0.78769 0.0
H1264 H 0.18142 0.96308 0.78565 0.0
H1265 H 0.16297 0.99074 0.72329 0.0
H1266 H 0.19373 0.01673 0.72509 0.0
H1267 H 0.32064 0.03529 0.70589 0.0
H1268 H 0.29814 0.02751 0.73732 0.0
H1269 H 0.24278 0.04578 0.69898 0.0
H1270 H 0.26506 0.05314 0.66736 0.0
H1271 H 0.23451 0.01027 0.72538 0.0
H1272 H 0.26729 0.0848 0.73263 0.0
H1273 H 0.29749 0.11156 0.73459 0.0
H1274 H 0.32275 0.07733 0.79103 0.0
H1275 H 0.29281 0.05017 0.78921 0.0
C1276 C 0.17818 0.05116 0.80652 0.0
C1277 C 0.18476 0.04961 0.8287 0.0
C1278 C 0.192 0.0453 0.78955 0.0
C1279 C 0.21258 0.03769 0.79447 0.0
C1280 C 0.21893 0.03534 0.81658 0.0
C1281 C 0.20511 0.04115 0.83356 0.0
C1282 C 0.22809 0.03457 0.77659 0.0
C1283 C 0.2464 0.04816 0.77741 0.0
C1284 C 0.22389 0.0204 0.75781 0.0
C1285 C 0.20535 0.00477 0.75661 0.0
C1286 C 0.2017 0.98942 0.77362 0.0
C1287 C 0.18416 0.97482 0.77249 0.0
C1288 C 0.17021 0.97531 0.75437 0.0
C1289 C 0.17379 0.99038 0.73732 0.0
C1290 C 0.19129 0.00503 0.73837 0.0
C1291 C 0.30364 0.03736 0.70405 0.0
C1292 C 0.29464 0.04516 0.68425 0.0
C1293 C 0.29083 0.03291 0.72202 0.0
C1294 C 0.26885 0.03642 0.72055 0.0
C1295 C 0.25971 0.04299 0.70044 0.0
C1296 C 0.2725 0.04732 0.68243 0.0
C1297 C 0.25557 0.03528 0.7404 0.0
C1298 C 0.23768 0.02101 0.73988 0.0
C1299 C 0.26004 0.04893 0.75947 0.0
C1300 C 0.27798 0.0653 0.76062 0.0
C1301 C 0.27938 0.08288 0.74535 0.0
C1302 C 0.29642 0.09813 0.74645 0.0
C1303 C 0.31206 0.0961 0.76288 0.0
C1304 C 0.31065 0.07885 0.77828 0.0
C1305 C 0.29365 0.06353 0.77723 0.0
H1306 H 0.32525 0.10793 0.7637 0.0
H1307 H 0.15665 0.96399 0.75352 0.0
H1308 H 0.6662 0.52097 0.3965 0.0
H1309 H 0.66703 0.49948 0.43044 0.0
H1310 H 0.67355 0.56204 0.46876 0.0
H1311 H 0.67298 0.58377 0.43477 0.0
H1312 H 0.69897 0.52833 0.48471 0.0
H1313 H 0.62596 0.53734 0.46372 0.0
H1314 H 0.59475 0.53548 0.43868 0.0
H1315 H 0.60191 0.46298 0.43163 0.0
H1316 H 0.63332 0.46444 0.45641 0.0
H1317 H 0.66511 0.48426 0.587 0.0
H1318 H 0.66893 0.50606 0.55346 0.0
H1319 H 0.66313 0.4442 0.51395 0.0
H1320 H 0.65914 0.42223 0.54742 0.0
H1321 H 0.63756 0.47809 0.49891 0.0
H1322 H 0.71065 0.46958 0.5209 0.0
H1323 H 0.74135 0.47212 0.54656 0.0
H1324 H 0.7334 0.54461 0.55255 0.0
H1325 H 0.70245 0.54247 0.52715 0.0
C1326 C 0.66798 0.53019 0.41211 0.0
C1327 C 0.66932 0.5541 0.41296 0.0
C1328 C 0.66839 0.51788 0.43149 0.0
C1329 C 0.66999 0.52922 0.45208 0.0
C1330 C 0.67221 0.55301 0.453 0.0
C1331 C 0.67184 0.56538 0.43358 0.0
C1332 C 0.66859 0.51625 0.47262 0.0
C1333 C 0.68545 0.51756 0.48798 0.0
C1334 C 0.65105 0.50196 0.47665 0.0
C1335 C 0.63212 0.50103 0.46176 0.0
C1336 C 0.62098 0.52103 0.45669 0.0
C1337 C 0.60323 0.52004 0.44257 0.0
C1338 C 0.59639 0.49913 0.43353 0.0
C1339 C 0.60724 0.47916 0.43863 0.0
C1340 C 0.62501 0.48005 0.45272 0.0
C1341 C 0.66474 0.47526 0.57119 0.0
C1342 C 0.66179 0.45152 0.56985 0.0
C1343 C 0.66703 0.48774 0.55205 0.0
C1344 C 0.66647 0.4767 0.53127 0.0
C1345 C 0.66363 0.453 0.52987 0.0
C1346 C 0.6614 0.44049 0.549 0.0
C1347 C 0.66804 0.48998 0.51093 0.0
C1348 C 0.65113 0.48881 0.49563 0.0
C1349 C 0.68546 0.5045 0.50707 0.0
C1350 C 0.7041 0.50583 0.52229 0.0
C1351 C 0.71534 0.48604 0.52783 0.0
C1352 C 0.73281 0.48742 0.5423 0.0
C1353 C 0.73929 0.50851 0.55122 0.0
C1354 C 0.72835 0.52828 0.54565 0.0
C1355 C 0.71085 0.527 0.5312 0.0
H1356 H 0.75282 0.50953 0.56242 0.0
H1357 H 0.58266 0.49839 0.4226 0.0
H1358 H 0.2731 0.99055 0.31092 0.0
H1359 H 0.24936 0.98576 0.27883 0.0
H1360 H 0.29096 0.93448 0.25154 0.0
H1361 H 0.31488 0.93932 0.28335 0.0
H1362 H 0.27501 0.96168 0.21968 0.0
H1363 H 0.24864 0.91911 0.28071 0.0
H1364 H 0.23642 0.91427 0.31877 0.0
H1365 H 0.18603 0.96194 0.30766 0.0
H1366 H 0.19815 0.9673 0.2696 0.0
H1367 H 0.20826 0.89166 0.15256 0.0
H1368 H 0.23165 0.90661 0.18202 0.0
H1369 H 0.18516 0.95765 0.19891 0.0
H1370 H 0.16161 0.94286 0.16938 0.0
H1371 H 0.20211 0.9353 0.23543 0.0
H1372 H 0.22659 0.97399 0.17227 0.0
H1373 H 0.23878 0.97718 0.13402 0.0
H1374 H 0.2928 0.93552 0.14885 0.0
H1375 H 0.28074 0.93175 0.18712 0.0
C1376 C 0.27737 0.97851 0.29793 0.0
C1377 C 0.29574 0.96512 0.2998 0.0
C1378 C 0.26375 0.97575 0.27965 0.0
C1379 C 0.26826 0.95951 0.26301 0.0
C1380 C 0.28717 0.94706 0.26424 0.0
C1381 C 0.30078 0.94979 0.28249 0.0
C1382 C 0.25268 0.95428 0.24507 0.0
C1383 C 0.2591 0.95582 0.22309 0.0
C1384 C 0.2318 0.94707 0.24958 0.0
C1385 C 0.22445 0.94382 0.27242 0.0
C1386 C 0.23506 0.9287 0.28645 0.0
C1387 C 0.22814 0.92584 0.30801 0.0
C1388 C 0.2105 0.93785 0.31566 0.0
C1389 C 0.19971 0.95269 0.30173 0.0
C1390 C 0.2066 0.95564 0.28017 0.0
C1391 C 0.20296 0.90603 0.16257 0.0
C1392 C 0.18311 0.91612 0.15863 0.0
C1393 C 0.21639 0.91462 0.1793 0.0
C1394 C 0.21019 0.93338 0.19242 0.0
C1395 C 0.19023 0.94322 0.18885 0.0
C1396 C 0.17684 0.93477 0.17197 0.0
C1397 C 0.22454 0.9424 0.21007 0.0
C1398 C 0.2179 0.94152 0.23199 0.0
C1399 C 0.24524 0.95008 0.2055 0.0
C1400 C 0.25266 0.95244 0.18253 0.0
C1401 C 0.24098 0.96535 0.16734 0.0
C1402 C 0.24788 0.96729 0.14565 0.0
C1403 C 0.26653 0.95652 0.139 0.0
C1404 C 0.27835 0.94383 0.15403 0.0
C1405 C 0.27149 0.94181 0.17572 0.0
H1406 H 0.27185 0.95804 0.1222 0.0
H1407 H 0.20516 0.93561 0.33235 0.0
H1408 H 0.67121 0.01595 0.59912 0.0
H1409 H 0.67679 0.99243 0.56598 0.0
H1410 H 0.66431 0.05043 0.5254 0.0
H1411 H 0.65849 0.0741 0.5585 0.0
H1412 H 0.64125 0.01367 0.51217 0.0
H1413 H 0.71396 0.02959 0.53013 0.0
H1414 H 0.74598 0.03214 0.55393 0.0
H1415 H 0.74395 0.95989 0.56314 0.0
H1416 H 0.71171 0.95695 0.53964 0.0
H1417 H 0.66669 0.96173 0.41131 0.0
H1418 H 0.67075 0.9869 0.44365 0.0
H1419 H 0.67759 0.92868 0.48521 0.0
H1420 H 0.6736 0.90316 0.45278 0.0
H1421 H 0.70466 0.96602 0.49741 0.0
H1422 H 0.63117 0.95052 0.48076 0.0
H1423 H 0.59953 0.94779 0.4564 0.0
H1424 H 0.60307 0.01954 0.44486 0.0
H1425 H 0.63503 0.02262 0.46882 0.0
C1426 C 0.66987 0.02379 0.58316 0.0
C1427 C 0.66431 0.04687 0.58142 0.0
C1428 C 0.67317 0.01034 0.56425 0.0
C1429 C 0.67108 0.01974 0.54327 0.0
C1430 C 0.666 0.04288 0.54147 0.0
C1431 C 0.66273 0.05638 0.56039 0.0
C1432 C 0.67282 0.00504 0.52322 0.0
C1433 C 0.65526 0.00356 0.50875 0.0
C1434 C 0.69089 0.99139 0.51914 0.0
C1435 C 0.71029 0.99309 0.53328 0.0
C1436 C 0.72022 0.01427 0.53738 0.0
C1437 C 0.73844 0.01578 0.55079 0.0
C1438 C 0.74696 0.9962 0.56009 0.0
C1439 C 0.73731 0.97505 0.55595 0.0
C1440 C 0.71908 0.97345 0.54256 0.0
C1441 C 0.66933 0.95421 0.42727 0.0
C1442 C 0.66947 0.93043 0.42956 0.0
C1443 C 0.67168 0.96864 0.4457 0.0
C1444 C 0.67412 0.95959 0.46676 0.0
C1445 C 0.67565 0.93592 0.46903 0.0
C1446 C 0.6733 0.92139 0.45052 0.0
C1447 C 0.67316 0.97482 0.48645 0.0
C1448 C 0.69075 0.97628 0.50084 0.0
C1449 C 0.6551 0.98847 0.49052 0.0
C1450 C 0.63564 0.98675 0.47641 0.0
C1451 C 0.62531 0.96569 0.4729 0.0
C1452 C 0.60731 0.96408 0.45917 0.0
C1453 C 0.59933 0.98347 0.44904 0.0
C1454 C 0.6093 0.00453 0.45268 0.0
C1455 C 0.62736 0.00622 0.46634 0.0
H1456 H 0.58541 0.98217 0.43841 0.0
H1457 H 0.76107 0.9974 0.57046 0.0
H1458 H 0.29699 0.41047 0.66433 0.0
H1459 H 0.2715 0.42293 0.69179 0.0
H1460 H 0.31635 0.47253 0.71801 0.0
H1461 H 0.34224 0.45992 0.69058 0.0
H1462 H 0.29858 0.44871 0.75024 0.0
H1463 H 0.27342 0.49059 0.68965 0.0
H1464 H 0.2626 0.49761 0.65115 0.0
H1465 H 0.21138 0.44986 0.65619 0.0
H1466 H 0.22208 0.44227 0.69463 0.0
H1467 H 0.21487 0.47717 0.82385 0.0
H1468 H 0.24038 0.484 0.79464 0.0
H1469 H 0.21323 0.42841 0.75581 0.0
H1470 H 0.18778 0.42146 0.78479 0.0
H1471 H 0.22372 0.46604 0.7306 0.0
H1472 H 0.25495 0.41881 0.78799 0.0
H1473 H 0.26625 0.41134 0.8263 0.0
H1474 H 0.30648 0.47043 0.8267 0.0
H1475 H 0.29518 0.4784 0.78846 0.0
C1476 C 0.30147 0.4241 0.67585 0.0
C1477 C 0.32165 0.43421 0.67528 0.0
C1478 C 0.28679 0.43133 0.69143 0.0
C1479 C 0.29191 0.44894 0.70666 0.0
C1480 C 0.31207 0.45904 0.70625 0.0
C1481 C 0.32681 0.4518 0.69061 0.0
C1482 C 0.27647 0.45558 0.72375 0.0
C1483 C 0.28235 0.45313 0.74598 0.0
C1484 C 0.25527 0.46121 0.71815 0.0
C1485 C 0.24863 0.46579 0.69504 0.0
C1486 C 0.25993 0.48147 0.68252 0.0
C1487 C 0.25381 0.48556 0.6607 0.0
C1488 C 0.23633 0.47417 0.65123 0.0
C1489 C 0.22491 0.45868 0.66356 0.0
C1490 C 0.23098 0.45451 0.68539 0.0
C1491 C 0.21414 0.46664 0.80894 0.0
C1492 C 0.19949 0.44861 0.80669 0.0
C1493 C 0.22871 0.47056 0.79231 0.0
C1494 C 0.22873 0.45659 0.77321 0.0
C1495 C 0.21341 0.43939 0.77044 0.0
C1496 C 0.19898 0.43535 0.78708 0.0
C1497 C 0.24573 0.45832 0.75685 0.0
C1498 C 0.24011 0.46232 0.73481 0.0
C1499 C 0.26719 0.45423 0.7626 0.0
C1500 C 0.27402 0.44937 0.78552 0.0
C1501 C 0.26607 0.43031 0.79633 0.0
C1502 C 0.27249 0.42596 0.818 0.0
C1503 C 0.28701 0.44044 0.82896 0.0
C1504 C 0.29519 0.45926 0.81822 0.0
C1505 C 0.28879 0.4637 0.79655 0.0
H1506 H 0.29198 0.43705 0.84573 0.0
H1507 H 0.23162 0.47736 0.63433 0.0
H1508 H 0.82618 0.09607 0.96489 0.0
H1509 H 0.82772 0.06877 0.99453 0.0
H1510 H 0.77968 0.02777 0.96118 0.0
H1511 H 0.77779 0.05535 0.93142 0.0
H1512 H 0.77649 0.02807 0.0077 0.0
H1513 H 0.82839 0.01374 0.95261 0.0
H1514 H 0.85686 0.02392 0.92722 0.0
H1515 H 0.8967 0.04443 0.98231 0.0
H1516 H 0.86831 0.03474 0.00802 0.0
H1517 H 0.81103 0.93035 0.0688 0.0
H1518 H 0.80109 0.95479 0.03808 0.0
H1519 H 0.84664 0.00513 0.06125 0.0
H1520 H 0.85666 0.98096 0.09185 0.0
H1521 H 0.84883 0.99596 0.0165 0.0
H1522 H 0.79536 0.01261 0.0712 0.0
H1523 H 0.76651 0.00254 0.0962 0.0
H1524 H 0.72951 0.97643 0.0411 0.0
H1525 H 0.75829 0.98606 0.01579 0.0
C1526 C 0.81562 0.0815 0.96405 0.0
C1527 C 0.80211 0.07763 0.94569 0.0
C1528 C 0.81653 0.06592 0.98098 0.0
C1529 C 0.80417 0.04604 0.97973 0.0
C1530 C 0.78943 0.04298 0.96232 0.0
C1531 C 0.78838 0.05873 0.94537 0.0
C1532 C 0.80835 0.02767 0.99545 0.0
C1533 C 0.79219 0.02073 0.00942 0.0
C1534 C 0.82887 0.01817 0.99763 0.0
C1535 C 0.84615 0.02366 0.98224 0.0
C1536 C 0.84317 0.02055 0.9593 0.0
C1537 C 0.8593 0.02623 0.94485 0.0
C1538 C 0.87856 0.03486 0.95314 0.0
C1539 C 0.88176 0.03776 0.97591 0.0
C1540 C 0.86566 0.03216 0.99043 0.0
C1541 C 0.81896 0.9466 0.06728 0.0
C1542 C 0.83461 0.95376 0.08275 0.0
C1543 C 0.81319 0.96055 0.04981 0.0
C1544 C 0.82305 0.98179 0.04754 0.0
C1545 C 0.83886 0.98879 0.06276 0.0
C1546 C 0.84452 0.97497 0.08026 0.0
C1547 C 0.81717 0.99686 0.02926 0.0
C1548 C 0.83305 0.00308 0.01465 0.0
C1549 C 0.79638 0.0055 0.02646 0.0
C1550 C 0.77907 -0.0002 0.04165 0.0
C1551 C 0.78115 0.00453 0.06444 0.0
C1552 C 0.7648 0.99894 0.07866 0.0
C1553 C 0.74622 0.98878 0.07025 0.0
C1554 C 0.74393 0.98426 0.04759 0.0
C1555 C 0.76025 0.98979 0.0333 0.0
H1556 H 0.73358 0.98447 0.08129 0.0
H1557 H 0.89103 0.03927 0.94193 0.0
H1558 H 0.18253 0.54545 0.2058 0.0
H1559 H 0.2064 0.55241 0.23734 0.0
H1560 H 0.25912 0.52778 0.19917 0.0
H1561 H 0.23534 0.52062 0.16746 0.0
H1562 H 0.26089 0.51494 0.24382 0.0
H1563 H 0.25085 0.58229 0.20085 0.0
H1564 H 0.2295 0.61144 0.18213 0.0
H1565 H 0.20177 0.63143 0.24387 0.0
H1566 H 0.22273 0.60214 0.26291 0.0
H1567 H 0.34495 0.57023 0.30311 0.0
H1568 H 0.32014 0.55672 0.2743 0.0
H1569 H 0.26835 0.58805 0.30937 0.0
H1570 H 0.29308 0.602 0.33803 0.0
H1571 H 0.26569 0.59658 0.26665 0.0
H1572 H 0.27651 0.5304 0.31015 0.0
H1573 H 0.29736 0.50098 0.32905 0.0
H1574 H 0.3232 0.47856 0.26712 0.0
H1575 H 0.30272 0.50808 0.24788 0.0
C1576 C 0.19913 0.54111 0.20419 0.0
C1577 C 0.20712 0.53282 0.18401 0.0
C1578 C 0.21273 0.54512 0.22223 0.0
C1579 C 0.23452 0.54096 0.22038 0.0
C1580 C 0.24233 0.53117 0.20082 0.0
C1581 C 0.22873 0.52717 0.18272 0.0
C1582 C 0.24935 0.5488 0.23809 0.0
C1583 C 0.26214 0.53279 0.24872 0.0
C1584 C 0.25061 0.57206 0.24463 0.0
C1585 C 0.23819 0.58987 0.23326 0.0
C1586 C 0.24008 0.59279 0.21041 0.0
C1587 C 0.22807 0.60935 0.19974 0.0
C1588 C 0.21424 0.62324 0.21179 0.0
C1589 C 0.21246 0.62064 0.23455 0.0
C1590 C 0.22441 0.60407 0.24529 0.0
C1591 C 0.32829 0.57429 0.30468 0.0
C1592 C 0.32097 0.58715 0.32287 0.0
C1593 C 0.31412 0.56643 0.28827 0.0
C1594 C 0.29237 0.57109 0.28988 0.0
C1595 C 0.28507 0.5842 0.30786 0.0
C1596 C 0.29923 0.59215 0.32422 0.0
C1597 C 0.27726 0.56272 0.27259 0.0
C1598 C 0.26443 0.57868 0.26192 0.0
C1599 C 0.27595 0.53942 0.26609 0.0
C1600 C 0.28823 0.5216 0.27761 0.0
C1601 C 0.28676 0.51932 0.30058 0.0
C1602 C 0.29849 0.5026 0.31136 0.0
C1603 C 0.31164 0.48795 0.2993 0.0
C1604 C 0.31304 0.48995 0.27644 0.0
C1605 C 0.30136 0.50665 0.26559 0.0
H1606 H 0.32071 0.47502 0.30767 0.0
H1607 H 0.20495 0.63605 0.2035 0.0
H1608 H 0.31272 0.02519 0.59116 0.0
H1609 H 0.30023 0.00835 0.55603 0.0
H1610 H 0.33166 0.06156 0.52106 0.0
H1611 H 0.34392 0.07874 0.5561 0.0
H1612 H 0.29308 0.05161 0.50268 0.0
H1613 H 0.35505 0.01044 0.52725 0.0
H1614 H 0.3763 0.98816 0.55353 0.0
H1615 H 0.32824 0.93626 0.55288 0.0
H1616 H 0.30655 0.95841 0.5268 0.0
H1617 H 0.32147 0.0021 0.40002 0.0
H1618 H 0.31726 0.0206 0.43613 0.0
H1619 H 0.28295 0.96208 0.45847 0.0
H1620 H 0.28716 0.94334 0.4223 0.0
H1621 H 0.31681 0.97286 0.48487 0.0
H1622 H 0.25776 0.01217 0.45459 0.0
H1623 H 0.23792 0.03471 0.4274 0.0
H1624 H 0.28156 0.09032 0.43756 0.0
H1625 H 0.30186 0.068 0.46458 0.0
C1626 C 0.31687 0.03339 0.576 0.0
C1627 C 0.32951 0.05316 0.57638 0.0
C1628 C 0.30971 0.02376 0.55596 0.0
C1629 C 0.31522 0.03359 0.53597 0.0
C1630 C 0.32722 0.05374 0.53633 0.0
C1631 C 0.33432 0.06344 0.55636 0.0
C1632 C 0.30965 0.0222 0.51461 0.0
C1633 C 0.29831 0.03443 0.4987 0.0
C1634 C 0.31602 -0.00042 0.5097 0.0
C1635 C 0.32907 0.98621 0.5253 0.0
C1636 C 0.34894 0.99436 0.53285 0.0
C1637 C 0.36107 0.98175 0.54769 0.0
C1638 C 0.35359 0.96084 0.55493 0.0
C1639 C 0.33399 0.95248 0.54729 0.0
C1640 C 0.32177 0.96505 0.53248 0.0
C1641 C 0.31264 0.99334 0.41245 0.0
C1642 C 0.30485 0.97116 0.4084 0.0
C1643 C 0.31012 0.004 0.43305 0.0
C1644 C 0.29975 0.99272 0.44994 0.0
C1645 C 0.29098 0.97106 0.4456 0.0
C1646 C 0.29337 0.96042 0.42493 0.0
C1647 C 0.30053 0.00239 0.47271 0.0
C1648 C 0.31111 0.98986 0.48893 0.0
C1649 C 0.2936 0.02478 0.47777 0.0
C1650 C 0.28142 0.03833 0.46154 0.0
C1651 C 0.26323 0.02914 0.45091 0.0
C1652 C 0.25188 0.04189 0.43555 0.0
C1653 C 0.25849 0.06392 0.43073 0.0
C1654 C 0.27646 0.07325 0.44131 0.0
C1655 C 0.28787 0.06056 0.45668 0.0
H1656 H 0.24968 0.07377 0.41883 0.0
H1657 H 0.36301 0.9511 0.56641 0.0
H1658 H 0.80476 0.52878 0.14886 0.0
H1659 H 0.7808 0.51721 0.17814 0.0
H1660 H 0.80713 0.56964 0.22152 0.0
H1661 H 0.83071 0.58158 0.19233 0.0
H1662 H 0.79942 0.52477 0.24142 0.0
H1663 H 0.76577 0.58307 0.19527 0.0
H1664 H 0.75275 0.5968 0.15937 0.0
H1665 H 0.71245 0.53802 0.1517 0.0
H1666 H 0.7255 0.5238 0.18745 0.0
H1667 H 0.73365 0.57003 0.32142 0.0
H1668 H 0.75718 0.55957 0.29151 0.0
H1669 H 0.70619 0.52283 0.25818 0.0
H1670 H 0.68218 0.53405 0.28789 0.0
H1671 H 0.72446 0.54802 0.23037 0.0
H1672 H 0.75057 0.49459 0.28046 0.0
H1673 H 0.7632 0.47926 0.31581 0.0
H1674 H 0.81691 0.52426 0.31574 0.0
H1675 H 0.80447 0.54013 0.28055 0.0
C1676 C 0.80562 0.53759 0.16476 0.0
C1677 C 0.81943 0.55618 0.16833 0.0
C1678 C 0.79198 0.53095 0.18141 0.0
C1679 C 0.7923 0.54259 0.2019 0.0
C1680 C 0.8068 0.5604 0.20582 0.0
C1681 C 0.82011 0.5673 0.1891 0.0
C1682 C 0.77628 0.53797 0.21867 0.0
C1683 C 0.78298 0.52972 0.23912 0.0
C1684 C 0.75474 0.54358 0.21518 0.0
C1685 C 0.74679 0.55225 0.19384 0.0
C1686 C 0.75427 0.57299 0.18583 0.0
C1687 C 0.74686 0.58087 0.16553 0.0
C1688 C 0.73184 0.56825 0.15322 0.0
C1689 C 0.72413 0.54775 0.16123 0.0
C1690 C 0.73152 0.53978 0.1815 0.0
C1691 C 0.72746 0.55949 0.30788 0.0
C1692 C 0.70604 0.55294 0.30697 0.0
C1693 C 0.74102 0.55331 0.29084 0.0
C1694 C 0.7336 0.54003 0.27274 0.0
C1695 C 0.7123 0.53298 0.27203 0.0
C1696 C 0.69861 0.53941 0.289 0.0
C1697 C 0.74767 0.53564 0.25372 0.0
C1698 C 0.74065 0.54226 0.23273 0.0
C1699 C 0.76884 0.52812 0.25667 0.0
C1700 C 0.77651 0.51862 0.27785 0.0
C1701 C 0.76501 0.50133 0.28804 0.0
C1702 C 0.77215 0.49253 0.30805 0.0
C1703 C 0.79084 0.50079 0.31802 0.0
C1704 C 0.80245 0.51786 0.30798 0.0
C1705 C 0.79537 0.52674 0.28797 0.0
H1706 H 0.79633 0.49395 0.33352 0.0
H1707 H 0.72612 0.57437 0.13751 0.0
H1708 H 0.2067 0.94803 0.07755 0.0
H1709 H 0.2078 0.9768 0.04905 0.0
H1710 H 0.16627 0.93548 0.00738 0.0
H1711 H 0.165 0.90665 0.03574 0.0
H1712 H 0.19857 0.95675 0.98412 0.0
H1713 H 0.14532 0.97545 0.03846 0.0
H1714 H 0.1328 0.98354 0.07618 0.0
H1715 H 0.17567 0.04029 0.08256 0.0
H1716 H 0.18867 0.0323 0.04495 0.0
H1717 H 0.14138 0.02832 0.915 0.0
H1718 H 0.15198 0.00228 0.94382 0.0
H1719 H 0.18995 0.0552 0.97544 0.0
H1720 H 0.17937 0.0816 0.9465 0.0
H1721 H 0.16557 0.03079 0.00485 0.0
H1722 H 0.21478 0.01535 0.94783 0.0
H1723 H 0.22626 0.00742 0.90972 0.0
H1724 H 0.19094 0.94481 0.908 0.0
H1725 H 0.17894 0.95255 0.94598 0.0
C1726 C 0.19812 0.94485 0.06215 0.0
C1727 C 0.18557 0.92518 0.05897 0.0
C1728 C 0.19873 0.96134 0.04594 0.0
C1729 C 0.18692 0.95833 0.02628 0.0
C1730 C 0.17546 0.93809 0.02249 0.0
C1731 C 0.1747 0.92169 0.03874 0.0
C1732 C 0.18497 0.97695 0.01039 0.0
C1733 C 0.19134 0.97293 0.98859 0.0
C1734 C 0.17601 0.99824 0.01647 0.0
C1735 C 0.16816 0.0031 0.03902 0.0
C1736 C 0.15221 0.98952 0.04799 0.0
C1737 C 0.145 0.99411 0.06933 0.0
C1738 C 0.15349 0.01237 0.08179 0.0
C1739 C 0.16916 0.02612 0.0729 0.0
C1740 C 0.17645 0.02157 0.05158 0.0
C1741 C 0.15192 0.03453 0.9281 0.0
C1742 C 0.15963 0.05702 0.9284 0.0
C1743 C 0.15805 0.01956 0.94449 0.0
C1744 C 0.17201 0.02674 0.96151 0.0
C1745 C 0.17927 0.04934 0.96231 0.0
C1746 C 0.17322 0.06437 0.94579 0.0
C1747 C 0.17876 0.01042 0.97843 0.0
C1748 C 0.17325 0.01483 0.00043 0.0
C1749 C 0.1885 0.9895 0.97252 0.0
C1750 C 0.19584 0.98462 0.94973 0.0
C1751 C 0.20933 -3e-05 0.93928 0.0
C1752 C 0.21595 0.9955 0.9177 0.0
C1753 C 0.20931 0.97564 0.90643 0.0
C1754 C 0.19607 0.96019 0.91674 0.0
C1755 C 0.18937 0.9646 0.93831 0.0
H1756 H 0.21445 0.97222 0.88972 0.0
H1757 H 0.14788 0.01591 0.0983 0.0
H1758 H 0.66445 0.45589 0.69051 0.0
H1759 H 0.69201 0.46754 0.71733 0.0
H1760 H 0.73747 0.42568 0.68276 0.0
H1761 H 0.71001 0.41364 0.65617 0.0
H1762 H 0.73918 0.41868 0.72587 0.0
H1763 H 0.73799 0.48401 0.67952 0.0
H1764 H 0.72147 0.51609 0.66018 0.0
H1765 H 0.70188 0.54542 0.72216 0.0
H1766 H 0.71804 0.51333 0.74185 0.0
H1767 H 0.83106 0.45305 0.78191 0.0
H1768 H 0.80558 0.45041 0.75123 0.0
H1769 H 0.76043 0.48935 0.78919 0.0
H1770 H 0.786 0.49243 0.81992 0.0
H1771 H 0.75843 0.49894 0.7445 0.0
H1772 H 0.75823 0.43338 0.79058 0.0
H1773 H 0.77458 0.40147 0.81034 0.0
H1774 H 0.79609 0.37252 0.74893 0.0
H1775 H 0.78014 0.40448 0.72884 0.0
C1776 C 0.68034 0.44923 0.68858 0.0
C1777 C 0.68504 0.43379 0.67126 0.0
C1778 C 0.69609 0.45602 0.70383 0.0
C1779 C 0.71682 0.44765 0.70189 0.0
C1780 C 0.72157 0.43236 0.68454 0.0
C1781 C 0.70585 0.4255 0.66935 0.0
C1782 C 0.73341 0.45388 0.71852 0.0
C1783 C 0.7436 0.43622 0.72967 0.0
C1784 C 0.73871 0.4768 0.72394 0.0
C1785 C 0.72905 0.49615 0.71213 0.0
C1786 C 0.73001 0.4972 0.68901 0.0
C1787 C 0.72074 0.51541 0.67799 0.0
C1788 C 0.71058 0.53275 0.68993 0.0
C1789 C 0.70973 0.53196 0.71292 0.0
C1790 C 0.71896 0.51378 0.72403 0.0
C1791 C 0.81588 0.46145 0.7836 0.0
C1792 C 0.81038 0.4726 0.80347 0.0
C1793 C 0.80134 0.45992 0.76605 0.0
C1794 C 0.781 0.46926 0.76818 0.0
C1795 C 0.77604 0.48193 0.78731 0.0
C1796 C 0.79065 0.48362 0.80486 0.0
C1797 C 0.76433 0.46372 0.75148 0.0
C1798 C 0.75404 0.48143 0.74051 0.0
C1799 C 0.75881 0.44083 0.74623 0.0
C1800 C 0.76817 0.42143 0.75824 0.0
C1801 C 0.76657 0.42029 0.78131 0.0
C1802 C 0.77575 0.40219 0.79257 0.0
C1803 C 0.78641 0.38501 0.7809 0.0
C1804 C 0.78785 0.38586 0.75795 0.0
C1805 C 0.77874 0.40396 0.74662 0.0
H1806 H 0.79352 0.37101 0.78965 0.0
H1807 H 0.70341 0.54683 0.68137 0.0
loop_
_geom_bond_atom_site_label_1
_geom_bond_atom_site_label_2
_geom_bond_distance
_geom_bond_site_symmetry_2
_ccdc_geom_bond_type
C0 O1 1.160 . S
C0 O7 1.185 . S
O1 C0 1.160 . S
O2 Zn3 1.899 . S
O2 C10 1.284 . S
Zn3 O2 1.899 . S
Zn3 O4 2.032 . S
Zn3 O7 2.086 . S
Zn3 O12 1.977 . S
O4 Zn3 2.032 . S
O4 C8 1.278 . S
C5 O6 1.203 . S
C5 O12 1.267 . S
O6 C5 1.203 . S
O7 C0 1.185 . S
O7 Zn3 2.086 . S
C8 O4 1.278 . S
C8 O9 1.211 . S
O9 C8 1.211 . S
C10 O2 1.284 . S
C10 O11 1.273 . S
O11 C10 1.273 . S
O12 Zn3 1.977 . S
O12 C5 1.267 . S
C13 O14 1.160 . S
C13 O20 1.185 . S
O14 C13 1.160 . S
O15 Zn16 1.899 . S
O15 C23 1.284 . S
Zn16 O15 1.899 . S
Zn16 O17 2.032 . S
Zn16 O20 2.086 . S
Zn16 O25 1.977 . S
O17 Zn16 2.032 . S
O17 C21 1.278 . S
C18 O19 1.203 . S
C18 O25 1.267 . S
O19 C18 1.203 . S
O20 C13 1.185 . S
O20 Zn16 2.086 . S
C21 O17 1.278 . S
C21 O22 1.211 . S
O22 C21 1.211 . S
C23 O15 1.284 . S
C23 O24 1.273 . S
O24 C23 1.273 . S
O25 Zn16 1.977 . S
O25 C18 1.267 . S
C26 O27 1.160 . S
C26 O33 1.185 . S
O27 C26 1.160 . S
O28 Zn29 1.899 . S
O28 C36 1.284 . S
Zn29 O28 1.899 . S
Zn29 O30 2.032 . S
Zn29 O33 2.086 . S
Zn29 O38 1.977 . S
O30 Zn29 2.032 . S
O30 C34 1.278 . S
C31 O32 1.203 . S
C31 O38 1.267 . S
O32 C31 1.203 . S
O33 C26 1.185 . S
O33 Zn29 2.086 . S
C34 O30 1.278 . S
C34 O35 1.211 . S
O35 C34 1.211 . S
C36 O28 1.284 . S
C36 O37 1.273 . S
O37 C36 1.273 . S
O38 Zn29 1.977 . S
O38 C31 1.267 . S
C39 O40 1.160 . S
C39 O46 1.185 . S
O40 C39 1.160 . S
O41 Zn42 1.899 . S
O41 C49 1.284 . S
Zn42 O41 1.899 . S
Zn42 O43 2.032 . S
Zn42 O46 2.086 . S
Zn42 O51 1.977 . S
O43 Zn42 2.032 . S
O43 C47 1.278 . S
C44 O45 1.203 . S
C44 O51 1.267 . S
O45 C44 1.203 . S
O46 C39 1.185 . S
O46 Zn42 2.086 . S
C47 O43 1.278 . S
C47 O48 1.211 . S
O48 C47 1.211 . S
C49 O41 1.284 . S
C49 O50 1.273 . S
O50 C49 1.273 . S
O51 Zn42 1.977 . S
O51 C44 1.267 . S
C52 O53 1.160 . S
C52 O59 1.185 . S
O53 C52 1.160 . S
O54 Zn55 1.899 . S
O54 C62 1.284 . S
Zn55 O54 1.899 . S
Zn55 O56 2.032 . S
Zn55 O59 2.086 . S
Zn55 O64 1.977 . S
O56 Zn55 2.032 . S
O56 C60 1.278 . S
C57 O58 1.203 . S
C57 O64 1.267 . S
O58 C57 1.203 . S
O59 C52 1.185 . S
O59 Zn55 2.086 . S
C60 O56 1.278 . S
C60 O61 1.211 . S
O61 C60 1.211 . S
C62 O54 1.284 . S
C62 O63 1.273 . S
O63 C62 1.273 . S
O64 Zn55 1.977 . S
O64 C57 1.267 . S
C65 O66 1.160 . S
C65 O72 1.185 . S
O66 C65 1.160 . S
O67 Zn68 1.899 . S
O67 C75 1.284 . S
Zn68 O67 1.899 . S
Zn68 O69 2.032 . S
Zn68 O72 2.086 . S
Zn68 O77 1.977 . S
O69 Zn68 2.032 . S
O69 C73 1.278 . S
C70 O71 1.203 . S
C70 O77 1.267 . S
O71 C70 1.203 . S
O72 C65 1.185 . S
O72 Zn68 2.086 . S
C73 O69 1.278 . S
C73 O74 1.211 . S
O74 C73 1.211 . S
C75 O67 1.284 . S
C75 O76 1.273 . S
O76 C75 1.273 . S
O77 Zn68 1.977 . S
O77 C70 1.267 . S
C78 O79 1.160 . S
C78 O85 1.185 . S
O79 C78 1.160 . S
O80 Zn81 1.899 . S
O80 C88 1.284 . S
Zn81 O80 1.899 . S
Zn81 O82 2.032 . S
Zn81 O85 2.086 . S
Zn81 O90 1.977 . S
O82 Zn81 2.032 . S
O82 C86 1.278 . S
C83 O84 1.203 . S
C83 O90 1.267 . S
O84 C83 1.203 . S
O85 C78 1.185 . S
O85 Zn81 2.086 . S
C86 O82 1.278 . S
C86 O87 1.211 . S
O87 C86 1.211 . S
C88 O80 1.284 . S
C88 O89 1.273 . S
O89 C88 1.273 . S
O90 Zn81 1.977 . S
O90 C83 1.267 . S
C91 O92 1.160 . S
C91 O98 1.185 . S
O92 C91 1.160 . S
O93 Zn94 1.899 . S
O93 C101 1.284 . S
Zn94 O93 1.899 . S
Zn94 O95 2.032 . S
Zn94 O98 2.086 . S
Zn94 O103 1.977 . S
O95 Zn94 2.032 . S
O95 C99 1.278 . S
C96 O97 1.203 . S
C96 O103 1.267 . S
O97 C96 1.203 . S
O98 C91 1.185 . S
O98 Zn94 2.086 . S
C99 O95 1.278 . S
C99 O100 1.211 . S
O100 C99 1.211 . S
C101 O93 1.284 . S
C101 O102 1.273 . S
O102 C101 1.273 . S
O103 Zn94 1.977 . S
O103 C96 1.267 . S
C104 O105 1.160 . S
C104 O111 1.185 . S
O105 C104 1.160 . S
O106 Zn107 1.899 . S
O106 C114 1.284 . S
Zn107 O106 1.899 . S
Zn107 O108 2.032 . S
Zn107 O111 2.086 . S
Zn107 O116 1.977 . S
O108 Zn107 2.032 . S
O108 C112 1.278 . S
C109 O110 1.203 . S
C109 O116 1.267 . S
O110 C109 1.203 . S
O111 C104 1.185 . S
O111 Zn107 2.086 . S
C112 O108 1.278 . S
C112 O113 1.211 . S
O113 C112 1.211 . S
C114 O106 1.284 . S
C114 O115 1.273 . S
O115 C114 1.273 . S
O116 Zn107 1.977 . S
O116 C109 1.267 . S
C117 O118 1.160 . S
C117 O124 1.185 . S
O118 C117 1.160 . S
O119 Zn120 1.899 . S
O119 C127 1.284 . S
Zn120 O119 1.899 . S
Zn120 O121 2.032 . S
Zn120 O124 2.086 . S
Zn120 O129 1.977 . S
O121 Zn120 2.032 . S
O121 C125 1.278 . S
C122 O123 1.203 . S
C122 O129 1.267 . S
O123 C122 1.203 . S
O124 C117 1.185 . S
O124 Zn120 2.086 . S
C125 O121 1.278 . S
C125 O126 1.211 . S
O126 C125 1.211 . S
C127 O119 1.284 . S
C127 O128 1.273 . S
O128 C127 1.273 . S
O129 Zn120 1.977 . S
O129 C122 1.267 . S
C130 O131 1.160 . S
C130 O137 1.185 . S
O131 C130 1.160 . S
O132 Zn133 1.899 . S
O132 C140 1.284 . S
Zn133 O132 1.899 . S
Zn133 O134 2.032 . S
Zn133 O137 2.086 . S
Zn133 O142 1.977 . S
O134 Zn133 2.032 . S
O134 C138 1.278 . S
C135 O136 1.203 . S
C135 O142 1.267 . S
O136 C135 1.203 . S
O137 C130 1.185 . S
O137 Zn133 2.086 . S
C138 O134 1.278 . S
C138 O139 1.211 . S
O139 C138 1.211 . S
C140 O132 1.284 . S
C140 O141 1.273 . S
O141 C140 1.273 . S
O142 Zn133 1.977 . S
O142 C135 1.267 . S
C143 O144 1.160 . S
C143 O150 1.185 . S
O144 C143 1.160 . S
O145 Zn146 1.899 . S
O145 C153 1.284 . S
Zn146 O145 1.899 . S
Zn146 O147 2.032 . S
Zn146 O150 2.086 . S
Zn146 O155 1.977 . S
O147 Zn146 2.032 . S
O147 C151 1.278 . S
C148 O149 1.203 . S
C148 O155 1.267 . S
O149 C148 1.203 . S
O150 C143 1.185 . S
O150 Zn146 2.086 . S
C151 O147 1.278 . S
C151 O152 1.211 . S
O152 C151 1.211 . S
C153 O145 1.284 . S
C153 O154 1.273 . S
O154 C153 1.273 . S
O155 Zn146 1.977 . S
O155 C148 1.267 . S
C156 O157 1.160 . S
C156 O163 1.185 . S
O157 C156 1.160 . S
O158 Zn159 1.899 . S
O158 C166 1.284 . S
Zn159 O158 1.899 . S
Zn159 O160 2.032 . S
Zn159 O163 2.086 . S
Zn159 O168 1.977 . S
O160 Zn159 2.032 . S
O160 C164 1.278 . S
C161 O162 1.203 . S
C161 O168 1.267 . S
O162 C161 1.203 . S
O163 C156 1.185 . S
O163 Zn159 2.086 . S
C164 O160 1.278 . S
C164 O165 1.211 . S
O165 C164 1.211 . S
C166 O158 1.284 . S
C166 O167 1.273 . S
O167 C166 1.273 . S
O168 Zn159 1.977 . S
O168 C161 1.267 . S
C169 O170 1.160 . S
C169 O176 1.185 . S
O170 C169 1.160 . S
O171 Zn172 1.899 . S
O171 C179 1.284 . S
Zn172 O171 1.899 . S
Zn172 O173 2.032 . S
Zn172 O176 2.086 . S
Zn172 O181 1.977 . S
O173 Zn172 2.032 . S
O173 C177 1.278 . S
C174 O175 1.203 . S
C174 O181 1.267 . S
O175 C174 1.203 . S
O176 C169 1.185 . S
O176 Zn172 2.086 . S
C177 O173 1.278 . S
C177 O178 1.211 . S
O178 C177 1.211 . S
C179 O171 1.284 . S
C179 O180 1.273 . S
O180 C179 1.273 . S
O181 Zn172 1.977 . S
O181 C174 1.267 . S
C182 O183 1.160 . S
C182 O189 1.185 . S
O183 C182 1.160 . S
O184 Zn185 1.899 . S
O184 C192 1.284 . S
Zn185 O184 1.899 . S
Zn185 O186 2.032 . S
Zn185 O189 2.086 . S
Zn185 O194 1.977 . S
O186 Zn185 2.032 . S
O186 C190 1.278 . S
C187 O188 1.203 . S
C187 O194 1.267 . S
O188 C187 1.203 . S
O189 C182 1.185 . S
O189 Zn185 2.086 . S
C190 O186 1.278 . S
C190 O191 1.211 . S
O191 C190 1.211 . S
C192 O184 1.284 . S
C192 O193 1.273 . S
O193 C192 1.273 . S
O194 Zn185 1.977 . S
O194 C187 1.267 . S
C195 O196 1.160 . S
C195 O202 1.185 . S
O196 C195 1.160 . S
O197 Zn198 1.899 . S
O197 C205 1.284 . S
Zn198 O197 1.899 . S
Zn198 O199 2.032 . S
Zn198 O202 2.086 . S
Zn198 O207 1.977 . S
O199 Zn198 2.032 . S
O199 C203 1.278 . S
C200 O201 1.203 . S
C200 O207 1.267 . S
O201 C200 1.203 . S
O202 C195 1.185 . S
O202 Zn198 2.086 . S
C203 O199 1.278 . S
C203 O204 1.211 . S
O204 C203 1.211 . S
C205 O197 1.284 . S
C205 O206 1.273 . S
O206 C205 1.273 . S
O207 Zn198 1.977 . S
O207 C200 1.267 . S
H208 C226 0.951 . S
H209 C228 0.951 . S
H210 C230 0.950 . S
H211 C231 0.950 . S
H212 C233 0.950 . S
H213 C236 0.950 . S
H214 C237 0.950 . S
H215 C239 0.950 . S
H216 C240 0.950 . S
H217 C241 0.951 . S
H218 C243 0.951 . S
H219 C245 0.950 . S
H220 C246 0.950 . S
H221 C248 0.950 . S
H222 C251 0.950 . S
H223 C252 0.950 . S
H224 C254 0.950 . S
H225 C255 0.950 . S
C226 H208 0.951 . S
C226 C227 1.366 . S
C226 C228 1.388 . S
C227 C226 1.366 . S
C227 C231 1.385 . S
C228 H209 0.951 . S
C228 C226 1.388 . S
C228 C229 1.366 . S
C229 C228 1.366 . S
C229 C230 1.414 . S
C229 C232 1.499 . S
C230 H210 0.950 . S
C230 C229 1.414 . S
C230 C231 1.374 . S
C231 H211 0.950 . S
C231 C227 1.385 . S
C231 C230 1.374 . S
C232 C229 1.499 . S
C232 C233 1.373 . S
C232 C234 1.389 . S
C233 H212 0.950 . S
C233 C232 1.373 . S
C233 C249 1.377 . S
C234 C232 1.389 . S
C234 C235 1.524 . S
C234 C248 1.377 . S
C235 C234 1.524 . S
C235 C236 1.397 . S
C235 C240 1.363 . S
C236 H213 0.950 . S
C236 C235 1.397 . S
C236 C237 1.334 . S
C237 H214 0.950 . S
C237 C236 1.334 . S
C237 C238 1.287 . S
C238 C237 1.287 . S
C238 C239 1.524 . S
C238 H257 0.913 . S
C239 H215 0.950 . S
C239 C238 1.524 . S
C239 C240 1.415 . S
C240 H216 0.950 . S
C240 C235 1.363 . S
C240 C239 1.415 . S
C241 H217 0.951 . S
C241 C242 1.366 . S
C241 C243 1.388 . S
C242 C241 1.366 . S
C242 C246 1.385 . S
C243 H218 0.951 . S
C243 C241 1.388 . S
C243 C244 1.366 . S
C244 C243 1.366 . S
C244 C245 1.414 . S
C244 C247 1.499 . S
C245 H219 0.950 . S
C245 C244 1.414 . S
C245 C246 1.374 . S
C246 H220 0.950 . S
C246 C242 1.385 . S
C246 C245 1.374 . S
C247 C244 1.499 . S
C247 C248 1.373 . S
C247 C249 1.389 . S
C248 H221 0.950 . S
C248 C234 1.377 . S
C248 C247 1.373 . S
C249 C233 1.377 . S
C249 C247 1.389 . S
C249 C250 1.524 . S
C250 C249 1.524 . S
C250 C251 1.397 . S
C250 C255 1.363 . S
C251 H222 0.950 . S
C251 C250 1.397 . S
C251 C252 1.334 . S
C252 H223 0.950 . S
C252 C251 1.334 . S
C252 C253 1.287 . S
C253 C252 1.287 . S
C253 C254 1.524 . S
C253 H256 0.999 . S
C254 H224 0.950 . S
C254 C253 1.524 . S
C254 C255 1.415 . S
C255 H225 0.950 . S
C255 C250 1.363 . S
C255 C254 1.415 . S
H256 C253 0.999 . S
H257 C238 0.913 . S
H258 C276 0.951 . S
H259 C278 0.951 . S
H260 C280 0.950 . S
H261 C281 0.950 . S
H262 C283 0.950 . S
H263 C286 0.950 . S
H264 C287 0.950 . S
H265 C289 0.950 . S
H266 C290 0.950 . S
H267 C291 0.951 . S
H268 C293 0.951 . S
H269 C295 0.950 . S
H270 C296 0.950 . S
H271 C298 0.950 . S
H272 C301 0.950 . S
H273 C302 0.950 . S
H274 C304 0.950 . S
H275 C305 0.950 . S
C276 H258 0.951 . S
C276 C277 1.366 . S
C276 C278 1.388 . S
C277 C276 1.366 . S
C277 C281 1.385 . S
C278 H259 0.951 . S
C278 C276 1.388 . S
C278 C279 1.366 . S
C279 C278 1.366 . S
C279 C280 1.414 . S
C279 C282 1.499 . S
C280 H260 0.950 . S
C280 C279 1.414 . S
C280 C281 1.374 . S
C281 H261 0.950 . S
C281 C277 1.385 . S
C281 C280 1.374 . S
C282 C279 1.499 . S
C282 C283 1.373 . S
C282 C284 1.389 . S
C283 H262 0.950 . S
C283 C282 1.373 . S
C283 C299 1.377 . S
C284 C282 1.389 . S
C284 C285 1.524 . S
C284 C298 1.377 . S
C285 C284 1.524 . S
C285 C286 1.397 . S
C285 C290 1.363 . S
C286 H263 0.950 . S
C286 C285 1.397 . S
C286 C287 1.334 . S
C287 H264 0.950 . S
C287 C286 1.334 . S
C287 C288 1.287 . S
C288 C287 1.287 . S
C288 C289 1.524 . S
C288 H307 0.913 . S
C289 H265 0.950 . S
C289 C288 1.524 . S
C289 C290 1.415 . S
C290 H266 0.950 . S
C290 C285 1.363 . S
C290 C289 1.415 . S
C291 H267 0.951 . S
C291 C292 1.366 . S
C291 C293 1.388 . S
C292 C291 1.366 . S
C292 C296 1.385 . S
C293 H268 0.951 . S
C293 C291 1.388 . S
C293 C294 1.366 . S
C294 C293 1.366 . S
C294 C295 1.414 . S
C294 C297 1.499 . S
C295 H269 0.950 . S
C295 C294 1.414 . S
C295 C296 1.374 . S
C296 H270 0.950 . S
C296 C292 1.385 . S
C296 C295 1.374 . S
C297 C294 1.499 . S
C297 C298 1.373 . S
C297 C299 1.389 . S
C298 H271 0.950 . S
C298 C284 1.377 . S
C298 C297 1.373 . S
C299 C283 1.377 . S
C299 C297 1.389 . S
C299 C300 1.524 . S
C300 C299 1.524 . S
C300 C301 1.397 . S
C300 C305 1.363 . S
C301 H272 0.950 . S
C301 C300 1.397 . S
C301 C302 1.334 . S
C302 H273 0.950 . S
C302 C301 1.334 . S
C302 C303 1.287 . S
C303 C302 1.287 . S
C303 C304 1.524 . S
C303 H306 0.999 . S
C304 H274 0.950 . S
C304 C303 1.524 . S
C304 C305 1.415 . S
C305 H275 0.950 . S
C305 C300 1.363 . S
C305 C304 1.415 . S
H306 C303 0.999 . S
H307 C288 0.913 . S
H308 C326 0.951 . S
H309 C328 0.951 . S
H310 C330 0.950 . S
H311 C331 0.950 . S
H312 C333 0.950 . S
H313 C336 0.950 . S
H314 C337 0.950 . S
H315 C339 0.950 . S
H316 C340 0.950 . S
H317 C341 0.951 . S
H318 C343 0.951 . S
H319 C345 0.950 . S
H320 C346 0.950 . S
H321 C348 0.950 . S
H322 C351 0.950 . S
H323 C352 0.950 . S
H324 C354 0.950 . S
H325 C355 0.950 . S
C326 H308 0.951 . S
C326 C327 1.366 . S
C326 C328 1.388 . S
C327 C326 1.366 . S
C327 C331 1.385 . S
C328 H309 0.951 . S
C328 C326 1.388 . S
C328 C329 1.366 . S
C329 C328 1.366 . S
C329 C330 1.414 . S
C329 C332 1.499 . S
C330 H310 0.950 . S
C330 C329 1.414 . S
C330 C331 1.374 . S
C331 H311 0.950 . S
C331 C327 1.385 . S
C331 C330 1.374 . S
C332 C329 1.499 . S
C332 C333 1.373 . S
C332 C334 1.389 . S
C333 H312 0.950 . S
C333 C332 1.373 . S
C333 C349 1.377 . S
C334 C332 1.389 . S
C334 C335 1.524 . S
C334 C348 1.377 . S
C335 C334 1.524 . S
C335 C336 1.397 . S
C335 C340 1.363 . S
C336 H313 0.950 . S
C336 C335 1.397 . S
C336 C337 1.334 . S
C337 H314 0.950 . S
C337 C336 1.334 . S
C337 C338 1.287 . S
C338 C337 1.287 . S
C338 C339 1.524 . S
C338 H357 0.913 . S
C339 H315 0.950 . S
C339 C338 1.524 . S
C339 C340 1.415 . S
C340 H316 0.950 . S
C340 C335 1.363 . S
C340 C339 1.415 . S
C341 H317 0.951 . S
C341 C342 1.366 . S
C341 C343 1.388 . S
C342 C341 1.366 . S
C342 C346 1.385 . S
C343 H318 0.951 . S
C343 C341 1.388 . S
C343 C344 1.366 . S
C344 C343 1.366 . S
C344 C345 1.414 . S
C344 C347 1.499 . S
C345 H319 0.950 . S
C345 C344 1.414 . S
C345 C346 1.374 . S
C346 H320 0.950 . S
C346 C342 1.385 . S
C346 C345 1.374 . S
C347 C344 1.499 . S
C347 C348 1.373 . S
C347 C349 1.389 . S
C348 H321 0.950 . S
C348 C334 1.377 . S
C348 C347 1.373 . S
C349 C333 1.377 . S
C349 C347 1.389 . S
C349 C350 1.524 . S
C350 C349 1.524 . S
C350 C351 1.397 . S
C350 C355 1.363 . S
C351 H322 0.950 . S
C351 C350 1.397 . S
C351 C352 1.334 . S
C352 H323 0.950 . S
C352 C351 1.334 . S
C352 C353 1.287 . S
C353 C352 1.287 . S
C353 C354 1.524 . S
C353 H356 0.999 . S
C354 H324 0.950 . S
C354 C353 1.524 . S
C354 C355 1.415 . S
C355 H325 0.950 . S
C355 C350 1.363 . S
C355 C354 1.415 . S
H356 C353 0.999 . S
H357 C338 0.913 . S
H358 C376 0.951 . S
H359 C378 0.951 . S
H360 C380 0.950 . S
H361 C381 0.950 . S
H362 C383 0.950 . S
H363 C386 0.950 . S
H364 C387 0.950 . S
H365 C389 0.950 1_565 S
H366 C390 0.950 1_655 S
H367 C391 0.951 . S
H368 C393 0.951 . S
H369 C395 0.950 . S
H370 C396 0.950 . S
H371 C398 0.950 . S
H372 C401 0.950 . S
H373 C402 0.950 . S
H374 C404 0.950 . S
H375 C405 0.950 . S
C376 H358 0.951 . S
C376 C377 1.366 . S
C376 C378 1.388 . S
C377 C376 1.366 . S
C377 C381 1.385 . S
C378 H359 0.951 . S
C378 C376 1.388 . S
C378 C379 1.366 . S
C379 C378 1.366 . S
C379 C380 1.414 . S
C379 C382 1.499 . S
C380 H360 0.950 . S
C380 C379 1.414 . S
C380 C381 1.374 . S
C381 H361 0.950 . S
C381 C377 1.385 . S
C381 C380 1.374 . S
C382 C379 1.499 . S
C382 C383 1.373 . S
C382 C384 1.389 . S
C383 H362 0.950 . S
C383 C382 1.373 . S
C383 C399 1.377 1_455 S
C384 C382 1.389 . S
C384 C385 1.524 . S
C384 C398 1.377 1_455 S
C385 C384 1.524 . S
C385 C386 1.397 . S
C385 C390 1.363 . S
C386 H363 0.950 . S
C386 C385 1.397 . S
C386 C387 1.334 . S
C387 H364 0.950 . S
C387 C386 1.334 . S
C387 C388 1.287 . S
C388 C387 1.287 . S
C388 C389 1.524 . S
C388 H407 0.913 . S
C389 H365 0.950 1_545 S
C389 C388 1.524 . S
C389 C390 1.415 . S
C390 H366 0.950 1_455 S
C390 C385 1.363 . S
C390 C389 1.415 . S
C391 H367 0.951 . S
C391 C392 1.366 . S
C391 C393 1.388 . S
C392 C391 1.366 . S
C392 C396 1.385 . S
C393 H368 0.951 . S
C393 C391 1.388 . S
C393 C394 1.366 . S
C394 C393 1.366 . S
C394 C395 1.414 . S
C394 C397 1.499 . S
C395 H369 0.950 . S
C395 C394 1.414 . S
C395 C396 1.374 . S
C396 H370 0.950 . S
C396 C392 1.385 . S
C396 C395 1.374 . S
C397 C394 1.499 . S
C397 C398 1.373 . S
C397 C399 1.389 . S
C398 H371 0.950 . S
C398 C384 1.377 1_655 S
C398 C397 1.373 . S
C399 C383 1.377 1_655 S
C399 C397 1.389 . S
C399 C400 1.524 . S
C400 C399 1.524 . S
C400 C401 1.397 . S
C400 C405 1.363 . S
C401 H372 0.950 . S
C401 C400 1.397 . S
C401 C402 1.334 . S
C402 H373 0.950 . S
C402 C401 1.334 . S
C402 C403 1.287 . S
C403 C402 1.287 . S
C403 C404 1.524 . S
C403 H406 0.999 . S
C404 H374 0.950 . S
C404 C403 1.524 . S
C404 C405 1.415 . S
C405 H375 0.950 . S
C405 C400 1.363 . S
C405 C404 1.415 . S
H406 C403 0.999 . S
H407 C388 0.913 . S
H408 C426 0.951 . S
H409 C428 0.951 . S
H410 C430 0.950 . S
H411 C431 0.950 . S
H412 C433 0.950 . S
H413 C436 0.950 . S
H414 C437 0.950 . S
H415 C439 0.950 . S
H416 C440 0.950 . S
H417 C441 0.951 . S
H418 C443 0.951 . S
H419 C445 0.950 . S
H420 C446 0.950 . S
H421 C448 0.950 . S
H422 C451 0.950 . S
H423 C452 0.950 . S
H424 C454 0.950 . S
H425 C455 0.950 . S
C426 H408 0.951 . S
C426 C427 1.366 . S
C426 C428 1.388 . S
C427 C426 1.366 . S
C427 C431 1.385 . S
C428 H409 0.951 . S
C428 C426 1.388 . S
C428 C429 1.366 . S
C429 C428 1.366 . S
C429 C430 1.414 . S
C429 C432 1.499 . S
C430 H410 0.950 . S
C430 C429 1.414 . S
C430 C431 1.374 . S
C431 H411 0.950 . S
C431 C427 1.385 . S
C431 C430 1.374 . S
C432 C429 1.499 . S
C432 C433 1.373 . S
C432 C434 1.389 . S
C433 H412 0.950 . S
C433 C432 1.373 . S
C433 C449 1.377 . S
C434 C432 1.389 . S
C434 C435 1.524 . S
C434 C448 1.377 . S
C435 C434 1.524 . S
C435 C436 1.397 . S
C435 C440 1.363 . S
C436 H413 0.950 . S
C436 C435 1.397 . S
C436 C437 1.334 . S
C437 H414 0.950 . S
C437 C436 1.334 . S
C437 C438 1.287 . S
C438 C437 1.287 . S
C438 C439 1.524 . S
C438 H457 0.913 . S
C439 H415 0.950 . S
C439 C438 1.524 . S
C439 C440 1.415 . S
C440 H416 0.950 . S
C440 C435 1.363 . S
C440 C439 1.415 . S
C441 H417 0.951 . S
C441 C442 1.366 . S
C441 C443 1.388 . S
C442 C441 1.366 . S
C442 C446 1.385 . S
C443 H418 0.951 . S
C443 C441 1.388 . S
C443 C444 1.366 . S
C444 C443 1.366 . S
C444 C445 1.414 . S
C444 C447 1.499 . S
C445 H419 0.950 . S
C445 C444 1.414 . S
C445 C446 1.374 . S
C446 H420 0.950 . S
C446 C442 1.385 . S
C446 C445 1.374 . S
C447 C444 1.499 . S
C447 C448 1.373 . S
C447 C449 1.389 . S
C448 H421 0.950 . S
C448 C434 1.377 . S
C448 C447 1.373 . S
C449 C433 1.377 . S
C449 C447 1.389 . S
C449 C450 1.524 . S
C450 C449 1.524 . S
C450 C451 1.397 . S
C450 C455 1.363 . S
C451 H422 0.950 . S
C451 C450 1.397 . S
C451 C452 1.334 . S
C452 H423 0.950 . S
C452 C451 1.334 . S
C452 C453 1.287 . S
C453 C452 1.287 . S
C453 C454 1.524 . S
C453 H456 0.999 . S
C454 H424 0.950 . S
C454 C453 1.524 . S
C454 C455 1.415 . S
C455 H425 0.950 . S
C455 C450 1.363 . S
C455 C454 1.415 . S
H456 C453 0.999 . S
H457 C438 0.913 . S
H458 C476 0.951 . S
H459 C478 0.951 . S
H460 C480 0.950 . S
H461 C481 0.950 . S
H462 C483 0.950 . S
H463 C486 0.950 . S
H464 C487 0.950 . S
H465 C489 0.950 . S
H466 C490 0.950 1_455 S
H467 C491 0.951 . S
H468 C493 0.951 . S
H469 C495 0.950 . S
H470 C496 0.950 . S
H471 C498 0.950 . S
H472 C501 0.950 . S
H473 C502 0.950 . S
H474 C504 0.950 . S
H475 C505 0.950 . S
C476 H458 0.951 . S
C476 C477 1.366 . S
C476 C478 1.388 . S
C477 C476 1.366 . S
C477 C481 1.385 . S
C478 H459 0.951 . S
C478 C476 1.388 . S
C478 C479 1.366 . S
C479 C478 1.366 . S
C479 C480 1.414 . S
C479 C482 1.499 . S
C480 H460 0.950 . S
C480 C479 1.414 . S
C480 C481 1.374 . S
C481 H461 0.950 . S
C481 C477 1.385 . S
C481 C480 1.374 . S
C482 C479 1.499 . S
C482 C483 1.373 . S
C482 C484 1.389 . S
C483 H462 0.950 . S
C483 C482 1.373 . S
C483 C499 1.377 1_655 S
C484 C482 1.389 . S
C484 C485 1.524 . S
C484 C498 1.377 1_655 S
C485 C484 1.524 . S
C485 C486 1.397 . S
C485 C490 1.363 . S
C486 H463 0.950 . S
C486 C485 1.397 . S
C486 C487 1.334 . S
C487 H464 0.950 . S
C487 C486 1.334 . S
C487 C488 1.287 . S
C488 C487 1.287 . S
C488 C489 1.524 . S
C488 H507 0.913 . S
C489 H465 0.950 . S
C489 C488 1.524 . S
C489 C490 1.415 . S
C490 H466 0.950 1_655 S
C490 C485 1.363 . S
C490 C489 1.415 . S
C491 H467 0.951 . S
C491 C492 1.366 . S
C491 C493 1.388 . S
C492 C491 1.366 . S
C492 C496 1.385 . S
C493 H468 0.951 . S
C493 C491 1.388 . S
C493 C494 1.366 . S
C494 C493 1.366 . S
C494 C495 1.414 . S
C494 C497 1.499 . S
C495 H469 0.950 . S
C495 C494 1.414 . S
C495 C496 1.374 . S
C496 H470 0.950 . S
C496 C492 1.385 . S
C496 C495 1.374 . S
C497 C494 1.499 . S
C497 C498 1.373 . S
C497 C499 1.389 . S
C498 H471 0.950 . S
C498 C484 1.377 1_455 S
C498 C497 1.373 . S
C499 C483 1.377 1_455 S
C499 C497 1.389 . S
C499 C500 1.524 . S
C500 C499 1.524 . S
C500 C501 1.397 . S
C500 C505 1.363 . S
C501 H472 0.950 . S
C501 C500 1.397 . S
C501 C502 1.334 . S
C502 H473 0.950 . S
C502 C501 1.334 . S
C502 C503 1.311 . S
C503 C502 1.311 . S
C503 C504 1.520 1_565 S
C503 H506 0.976 1_565 S
C504 H474 0.950 . S
C504 C503 1.520 1_545 S
C504 C505 1.415 1_545 S
C505 H475 0.950 . S
C505 C500 1.363 . S
C505 C504 1.415 1_565 S
H506 C503 0.976 1_545 S
H507 C488 0.913 . S
H508 C526 0.951 . S
H509 C528 0.951 . S
H510 C530 0.950 . S
H511 C531 0.950 . S
H512 C533 0.950 . S
H513 C536 0.950 . S
H514 C537 0.950 . S
H515 C539 0.950 . S
H516 C540 0.950 . S
H517 C541 0.951 . S
H518 C543 0.951 . S
H519 C545 0.950 . S
H520 C546 0.950 . S
H521 C548 0.950 . S
H522 C551 0.950 . S
H523 C552 0.950 . S
H524 C554 0.950 . S
H525 C555 0.950 . S
C526 H508 0.951 . S
C526 C527 1.366 . S
C526 C528 1.388 . S
C527 C526 1.366 . S
C527 C531 1.385 . S
C528 H509 0.951 . S
C528 C526 1.388 . S
C528 C529 1.366 . S
C529 C528 1.366 . S
C529 C530 1.414 . S
C529 C532 1.499 . S
C530 H510 0.950 . S
C530 C529 1.414 . S
C530 C531 1.374 . S
C531 H511 0.950 . S
C531 C527 1.385 . S
C531 C530 1.374 . S
C532 C529 1.499 . S
C532 C533 1.373 . S
C532 C534 1.389 . S
C533 H512 0.950 . S
C533 C532 1.373 . S
C533 C549 1.377 . S
C534 C532 1.389 . S
C534 C535 1.524 . S
C534 C548 1.377 . S
C535 C534 1.524 . S
C535 C536 1.397 . S
C535 C540 1.363 . S
C536 H513 0.950 . S
C536 C535 1.397 . S
C536 C537 1.334 . S
C537 H514 0.950 . S
C537 C536 1.334 . S
C537 C538 1.287 . S
C538 C537 1.287 . S
C538 C539 1.524 . S
C538 H557 0.913 . S
C539 H515 0.950 . S
C539 C538 1.524 . S
C539 C540 1.415 . S
C540 H516 0.950 . S
C540 C535 1.363 . S
C540 C539 1.415 . S
C541 H517 0.951 . S
C541 C542 1.366 . S
C541 C543 1.388 . S
C542 C541 1.366 . S
C542 C546 1.385 . S
C543 H518 0.951 . S
C543 C541 1.388 . S
C543 C544 1.366 . S
C544 C543 1.366 . S
C544 C545 1.414 . S
C544 C547 1.499 . S
C545 H519 0.950 . S
C545 C544 1.414 . S
C545 C546 1.374 . S
C546 H520 0.950 . S
C546 C542 1.385 . S
C546 C545 1.374 . S
C547 C544 1.499 . S
C547 C548 1.373 . S
C547 C549 1.389 . S
C548 H521 0.950 . S
C548 C534 1.377 . S
C548 C547 1.373 . S
C549 C533 1.377 . S
C549 C547 1.389 . S
C549 C550 1.524 . S
C550 C549 1.524 . S
C550 C551 1.397 . S
C550 C555 1.363 . S
C551 H522 0.950 . S
C551 C550 1.397 . S
C551 C552 1.334 . S
C552 H523 0.950 . S
C552 C551 1.334 . S
C552 C553 1.287 . S
C553 C552 1.287 . S
C553 C554 1.524 . S
C553 H556 0.999 . S
C554 H524 0.950 . S
C554 C553 1.524 . S
C554 C555 1.415 . S
C555 H525 0.950 . S
C555 C550 1.363 . S
C555 C554 1.415 . S
H556 C553 0.999 . S
H557 C538 0.913 . S
H558 C576 0.951 . S
H559 C578 0.951 . S
H560 C580 0.950 . S
H561 C581 0.950 . S
H562 C583 0.950 . S
H563 C586 0.950 . S
H564 C587 0.950 1_565 S
H565 C589 0.950 . S
H566 C590 0.950 . S
H567 C591 0.951 . S
H568 C593 0.951 . S
H569 C595 0.950 . S
H570 C596 0.950 . S
H571 C598 0.950 . S
H572 C601 0.950 . S
H573 C602 0.950 . S
H574 C604 0.950 . S
H575 C605 0.950 . S
C576 H558 0.951 . S
C576 C577 1.366 . S
C576 C578 1.388 . S
C577 C576 1.366 . S
C577 C581 1.385 . S
C578 H559 0.951 . S
C578 C576 1.388 . S
C578 C579 1.366 . S
C579 C578 1.366 . S
C579 C580 1.414 . S
C579 C582 1.499 . S
C580 H560 0.950 . S
C580 C579 1.414 . S
C580 C581 1.374 . S
C581 H561 0.950 . S
C581 C577 1.385 . S
C581 C580 1.374 . S
C582 C579 1.499 . S
C582 C583 1.373 . S
C582 C584 1.389 . S
C583 H562 0.950 . S
C583 C582 1.373 . S
C583 C599 1.377 . S
C584 C582 1.389 . S
C584 C585 1.524 . S
C584 C598 1.377 . S
C585 C584 1.524 . S
C585 C586 1.397 . S
C585 C590 1.363 . S
C586 H563 0.950 . S
C586 C585 1.397 . S
C586 C587 1.334 . S
C587 H564 0.950 1_545 S
C587 C586 1.334 . S
C587 C588 1.287 . S
C588 C587 1.287 . S
C588 C589 1.524 . S
C588 H607 0.913 1_545 S
C589 H565 0.950 . S
C589 C588 1.524 . S
C589 C590 1.415 . S
C590 H566 0.950 . S
C590 C585 1.363 . S
C590 C589 1.415 . S
C591 H567 0.951 . S
C591 C592 1.366 . S
C591 C593 1.388 . S
C592 C591 1.366 . S
C592 C596 1.385 . S
C593 H568 0.951 . S
C593 C591 1.388 . S
C593 C594 1.366 . S
C594 C593 1.366 . S
C594 C595 1.414 . S
C594 C597 1.499 . S
C595 H569 0.950 . S
C595 C594 1.414 . S
C595 C596 1.374 . S
C596 H570 0.950 . S
C596 C592 1.385 . S
C596 C595 1.374 . S
C597 C594 1.499 . S
C597 C598 1.373 . S
C597 C599 1.389 . S
C598 H571 0.950 . S
C598 C584 1.377 . S
C598 C597 1.373 . S
C599 C583 1.377 . S
C599 C597 1.389 . S
C599 C600 1.524 . S
C600 C599 1.524 . S
C600 C601 1.397 . S
C600 C605 1.363 . S
C601 H572 0.950 . S
C601 C600 1.397 . S
C601 C602 1.334 . S
C602 H573 0.950 . S
C602 C601 1.334 . S
C602 C603 1.287 . S
C603 C602 1.287 . S
C603 C604 1.524 . S
C603 H606 0.999 . S
C604 H574 0.950 . S
C604 C603 1.524 . S
C604 C605 1.415 . S
C605 H575 0.950 . S
C605 C600 1.363 . S
C605 C604 1.415 . S
H606 C603 0.999 . S
H607 C588 0.913 1_565 S
H608 C626 0.951 . S
H609 C628 0.951 . S
H610 C630 0.950 . S
H611 C631 0.950 . S
H612 C633 0.950 . S
H613 C636 0.950 . S
H614 C637 0.950 . S
H615 C639 0.950 . S
H616 C640 0.950 . S
H617 C641 0.951 . S
H618 C643 0.951 . S
H619 C645 0.950 . S
H620 C646 0.950 . S
H621 C648 0.950 . S
H622 C651 0.950 . S
H623 C652 0.950 . S
H624 C654 0.950 . S
H625 C655 0.950 . S
C626 H608 0.951 . S
C626 C627 1.366 . S
C626 C628 1.388 . S
C627 C626 1.366 . S
C627 C631 1.385 . S
C628 H609 0.951 . S
C628 C626 1.388 . S
C628 C629 1.366 . S
C629 C628 1.366 . S
C629 C630 1.414 . S
C629 C632 1.499 . S
C630 H610 0.950 . S
C630 C629 1.414 . S
C630 C631 1.374 . S
C631 H611 0.950 . S
C631 C627 1.385 . S
C631 C630 1.374 . S
C632 C629 1.499 . S
C632 C633 1.373 . S
C632 C634 1.389 . S
C633 H612 0.950 . S
C633 C632 1.373 . S
C633 C649 1.377 . S
C634 C632 1.389 . S
C634 C635 1.524 . S
C634 C648 1.377 . S
C635 C634 1.524 . S
C635 C636 1.397 . S
C635 C640 1.363 . S
C636 H613 0.950 . S
C636 C635 1.397 . S
C636 C637 1.334 . S
C637 H614 0.950 . S
C637 C636 1.334 . S
C637 C638 1.287 . S
C638 C637 1.287 . S
C638 C639 1.524 . S
C638 H657 0.913 . S
C639 H615 0.950 . S
C639 C638 1.524 . S
C639 C640 1.415 . S
C640 H616 0.950 . S
C640 C635 1.363 . S
C640 C639 1.415 . S
C641 H617 0.951 . S
C641 C642 1.366 . S
C641 C643 1.388 . S
C642 C641 1.366 . S
C642 C646 1.385 . S
C643 H618 0.951 . S
C643 C641 1.388 . S
C643 C644 1.366 . S
C644 C643 1.366 . S
C644 C645 1.414 . S
C644 C647 1.499 . S
C645 H619 0.950 . S
C645 C644 1.414 . S
C645 C646 1.374 . S
C646 H620 0.950 . S
C646 C642 1.385 . S
C646 C645 1.374 . S
C647 C644 1.499 . S
C647 C648 1.373 . S
C647 C649 1.389 . S
C648 H621 0.950 . S
C648 C634 1.377 . S
C648 C647 1.373 . S
C649 C633 1.377 . S
C649 C647 1.389 . S
C649 C650 1.524 . S
C650 C649 1.524 . S
C650 C651 1.397 . S
C650 C655 1.363 . S
C651 H622 0.950 . S
C651 C650 1.397 . S
C651 C652 1.334 . S
C652 H623 0.950 . S
C652 C651 1.334 . S
C652 C653 1.287 . S
C653 C652 1.287 . S
C653 C654 1.524 . S
C653 H656 0.999 . S
C654 H624 0.950 . S
C654 C653 1.524 . S
C654 C655 1.415 . S
C655 H625 0.950 . S
C655 C650 1.363 . S
C655 C654 1.415 . S
H656 C653 0.999 . S
H657 C638 0.913 . S
H658 C676 0.951 . S
H659 C678 0.951 . S
H660 C680 0.950 . S
H661 C681 0.950 . S
H662 C683 0.950 . S
H663 C686 0.950 . S
H664 C687 0.950 . S
H665 C689 0.950 . S
H666 C690 0.950 . S
H667 C691 0.951 . S
H668 C693 0.951 . S
H669 C695 0.950 . S
H670 C696 0.950 . S
H671 C698 0.950 . S
H672 C701 0.950 . S
H673 C702 0.950 . S
H674 C704 0.950 . S
H675 C705 0.950 . S
C676 H658 0.951 . S
C676 C677 1.366 . S
C676 C678 1.388 . S
C677 C676 1.366 . S
C677 C681 1.385 . S
C678 H659 0.951 . S
C678 C676 1.388 . S
C678 C679 1.366 . S
C679 C678 1.366 . S
C679 C680 1.414 . S
C679 C682 1.499 . S
C680 H660 0.950 . S
C680 C679 1.414 . S
C680 C681 1.374 . S
C681 H661 0.950 . S
C681 C677 1.385 . S
C681 C680 1.374 . S
C682 C679 1.499 . S
C682 C683 1.373 . S
C682 C684 1.389 . S
C683 H662 0.950 . S
C683 C682 1.373 . S
C683 C699 1.377 . S
C684 C682 1.389 . S
C684 C685 1.524 . S
C684 C698 1.377 . S
C685 C684 1.524 . S
C685 C686 1.397 . S
C685 C690 1.363 . S
C686 H663 0.950 . S
C686 C685 1.397 . S
C686 C687 1.334 . S
C687 H664 0.950 . S
C687 C686 1.334 . S
C687 C688 1.287 . S
C688 C687 1.287 . S
C688 C689 1.524 . S
C688 H707 0.913 . S
C689 H665 0.950 . S
C689 C688 1.524 . S
C689 C690 1.415 . S
C690 H666 0.950 . S
C690 C685 1.363 . S
C690 C689 1.415 . S
C691 H667 0.951 . S
C691 C692 1.366 . S
C691 C693 1.388 . S
C692 C691 1.366 . S
C692 C696 1.385 . S
C693 H668 0.951 . S
C693 C691 1.388 . S
C693 C694 1.366 . S
C694 C693 1.366 . S
C694 C695 1.414 . S
C694 C697 1.499 . S
C695 H669 0.950 . S
C695 C694 1.414 . S
C695 C696 1.374 . S
C696 H670 0.950 . S
C696 C692 1.385 . S
C696 C695 1.374 . S
C697 C694 1.499 . S
C697 C698 1.373 . S
C697 C699 1.389 . S
C698 H671 0.950 . S
C698 C684 1.377 . S
C698 C697 1.373 . S
C699 C683 1.377 . S
C699 C697 1.389 . S
C699 C700 1.524 . S
C700 C699 1.524 . S
C700 C701 1.397 . S
C700 C705 1.363 . S
C701 H672 0.950 . S
C701 C700 1.397 . S
C701 C702 1.334 . S
C702 H673 0.950 . S
C702 C701 1.334 . S
C702 C703 1.287 . S
C703 C702 1.287 . S
C703 C704 1.524 . S
C703 H706 0.999 . S
C704 H674 0.950 . S
C704 C703 1.524 . S
C704 C705 1.415 . S
C705 H675 0.950 . S
C705 C700 1.363 . S
C705 C704 1.415 . S
H706 C703 0.999 . S
H707 C688 0.913 . S
H708 C726 0.951 . S
H709 C728 0.951 . S
H710 C730 0.950 . S
H711 C731 0.950 . S
H712 C733 0.950 . S
H713 C736 0.950 . S
H714 C737 0.950 . S
H715 C739 0.950 . S
H716 C740 0.950 . S
H717 C741 0.951 . S
H718 C743 0.951 . S
H719 C745 0.950 . S
H720 C746 0.950 . S
H721 C748 0.950 . S
H722 C751 0.950 . S
H723 C752 0.950 . S
H724 C754 0.950 . S
H725 C755 0.950 . S
C726 H708 0.951 . S
C726 C727 1.366 . S
C726 C728 1.388 . S
C727 C726 1.366 . S
C727 C731 1.385 . S
C728 H709 0.951 . S
C728 C726 1.388 . S
C728 C729 1.366 . S
C729 C728 1.366 . S
C729 C730 1.414 . S
C729 C732 1.499 . S
C730 H710 0.950 . S
C730 C729 1.414 . S
C730 C731 1.374 . S
C731 H711 0.950 . S
C731 C727 1.385 . S
C731 C730 1.374 . S
C732 C729 1.499 . S
C732 C733 1.373 . S
C732 C734 1.389 . S
C733 H712 0.950 . S
C733 C732 1.373 . S
C733 C749 1.377 . S
C734 C732 1.389 . S
C734 C735 1.524 . S
C734 C748 1.377 . S
C735 C734 1.524 . S
C735 C736 1.397 . S
C735 C740 1.363 . S
C736 H713 0.950 . S
C736 C735 1.397 . S
C736 C737 1.334 . S
C737 H714 0.950 . S
C737 C736 1.334 . S
C737 C738 1.287 . S
C738 C737 1.287 . S
C738 C739 1.524 . S
C738 H757 0.913 . S
C739 H715 0.950 . S
C739 C738 1.524 . S
C739 C740 1.415 . S
C740 H716 0.950 . S
C740 C735 1.363 . S
C740 C739 1.415 . S
C741 H717 0.951 . S
C741 C742 1.366 . S
C741 C743 1.388 . S
C742 C741 1.366 . S
C742 C746 1.385 . S
C743 H718 0.951 . S
C743 C741 1.388 . S
C743 C744 1.366 . S
C744 C743 1.366 . S
C744 C745 1.414 . S
C744 C747 1.499 . S
C745 H719 0.950 . S
C745 C744 1.414 . S
C745 C746 1.374 . S
C746 H720 0.950 . S
C746 C742 1.385 . S
C746 C745 1.374 . S
C747 C744 1.499 . S
C747 C748 1.373 . S
C747 C749 1.389 . S
C748 H721 0.950 . S
C748 C734 1.377 . S
C748 C747 1.373 . S
C749 C733 1.377 . S
C749 C747 1.389 . S
C749 C750 1.524 . S
C750 C749 1.524 . S
C750 C751 1.397 . S
C750 C755 1.363 . S
C751 H722 0.950 . S
C751 C750 1.397 . S
C751 C752 1.334 . S
C752 H723 0.950 . S
C752 C751 1.334 . S
C752 C753 1.287 . S
C753 C752 1.287 . S
C753 C754 1.524 . S
C753 H756 0.999 . S
C754 H724 0.950 . S
C754 C753 1.524 . S
C754 C755 1.415 . S
C755 H725 0.950 . S
C755 C750 1.363 . S
C755 C754 1.415 . S
H756 C753 0.999 . S
H757 C738 0.913 . S
H758 C776 0.951 . S
H759 C778 0.951 . S
H760 C780 0.950 . S
H761 C781 0.950 . S
H762 C783 0.950 . S
H763 C786 0.950 . S
H764 C787 0.950 . S
H765 C789 0.950 . S
H766 C790 0.950 . S
H767 C791 0.951 . S
H768 C793 0.951 . S
H769 C795 0.950 . S
H770 C796 0.950 . S
H771 C798 0.950 . S
H772 C801 0.950 . S
H773 C802 0.950 . S
H774 C804 0.950 . S
H775 C805 0.950 . S
C776 H758 0.951 . S
C776 C777 1.366 . S
C776 C778 1.388 . S
C777 C776 1.366 . S
C777 C781 1.385 . S
C778 H759 0.951 . S
C778 C776 1.388 . S
C778 C779 1.366 . S
C779 C778 1.366 . S
C779 C780 1.414 . S
C779 C782 1.499 . S
C780 H760 0.950 . S
C780 C779 1.414 . S
C780 C781 1.374 . S
C781 H761 0.950 . S
C781 C777 1.385 . S
C781 C780 1.374 . S
C782 C779 1.499 . S
C782 C783 1.373 . S
C782 C784 1.389 . S
C783 H762 0.950 . S
C783 C782 1.373 . S
C783 C799 1.377 . S
C784 C782 1.389 . S
C784 C785 1.524 . S
C784 C798 1.377 . S
C785 C784 1.524 . S
C785 C786 1.397 . S
C785 C790 1.363 . S
C786 H763 0.950 . S
C786 C785 1.397 . S
C786 C787 1.334 . S
C787 H764 0.950 . S
C787 C786 1.334 . S
C787 C788 1.287 . S
C788 C787 1.287 . S
C788 C789 1.524 . S
C788 H807 0.913 . S
C789 H765 0.950 . S
C789 C788 1.524 . S
C789 C790 1.415 . S
C790 H766 0.950 . S
C790 C785 1.363 . S
C790 C789 1.415 . S
C791 H767 0.951 . S
C791 C792 1.366 . S
C791 C793 1.388 . S
C792 C791 1.366 . S
C792 C796 1.385 . S
C793 H768 0.951 . S
C793 C791 1.388 . S
C793 C794 1.366 . S
C794 C793 1.366 . S
C794 C795 1.414 . S
C794 C797 1.499 . S
C795 H769 0.950 . S
C795 C794 1.414 . S
C795 C796 1.374 . S
C796 H770 0.950 . S
C796 C792 1.385 . S
C796 C795 1.374 . S
C797 C794 1.499 . S
C797 C798 1.373 . S
C797 C799 1.389 . S
C798 H771 0.950 . S
C798 C784 1.377 . S
C798 C797 1.373 . S
C799 C783 1.377 . S
C799 C797 1.389 . S
C799 C800 1.524 . S
C800 C799 1.524 . S
C800 C801 1.397 . S
C800 C805 1.363 . S
C801 H772 0.950 . S
C801 C800 1.397 . S
C801 C802 1.334 . S
C802 H773 0.950 . S
C802 C801 1.334 . S
C802 C803 1.287 . S
C803 C802 1.287 . S
C803 C804 1.524 . S
C803 H806 0.999 . S
C804 H774 0.950 . S
C804 C803 1.524 . S
C804 C805 1.415 . S
C805 H775 0.950 . S
C805 C800 1.363 . S
C805 C804 1.415 . S
H806 C803 0.999 . S
H807 C788 0.913 . S
H808 C826 0.951 . S
H809 C828 0.951 . S
H810 C830 0.950 . S
H811 C831 0.950 . S
H812 C833 0.950 . S
H813 C836 0.950 . S
H814 C837 0.950 . S
H815 C839 0.950 . S
H816 C840 0.950 . S
H817 C841 0.951 . S
H818 C843 0.951 . S
H819 C845 0.950 . S
H820 C846 0.950 . S
H821 C848 0.950 . S
H822 C851 0.950 . S
H823 C852 0.950 . S
H824 C854 0.950 . S
H825 C855 0.950 . S
C826 H808 0.951 . S
C826 C827 1.366 . S
C826 C828 1.388 . S
C827 C826 1.366 . S
C827 C831 1.385 . S
C828 H809 0.951 . S
C828 C826 1.388 . S
C828 C829 1.366 . S
C829 C828 1.366 . S
C829 C830 1.414 . S
C829 C832 1.499 . S
C830 H810 0.950 . S
C830 C829 1.414 . S
C830 C831 1.374 . S
C831 H811 0.950 . S
C831 C827 1.385 . S
C831 C830 1.374 . S
C832 C829 1.499 . S
C832 C833 1.373 . S
C832 C834 1.389 . S
C833 H812 0.950 . S
C833 C832 1.373 . S
C833 C849 1.377 1_455 S
C834 C832 1.389 . S
C834 C835 1.524 . S
C834 C848 1.377 1_455 S
C835 C834 1.524 . S
C835 C836 1.397 . S
C835 C840 1.363 . S
C836 H813 0.950 . S
C836 C835 1.397 . S
C836 C837 1.334 . S
C837 H814 0.950 . S
C837 C836 1.334 . S
C837 C838 1.287 . S
C838 C837 1.287 . S
C838 C839 1.524 . S
C838 H857 0.913 . S
C839 H815 0.950 . S
C839 C838 1.524 . S
C839 C840 1.415 . S
C840 H816 0.950 . S
C840 C835 1.363 . S
C840 C839 1.415 . S
C841 H817 0.951 . S
C841 C842 1.366 . S
C841 C843 1.388 . S
C842 C841 1.366 . S
C842 C846 1.385 . S
C843 H818 0.951 . S
C843 C841 1.388 . S
C843 C844 1.366 . S
C844 C843 1.366 . S
C844 C845 1.414 . S
C844 C847 1.499 . S
C845 H819 0.950 . S
C845 C844 1.414 . S
C845 C846 1.374 . S
C846 H820 0.950 . S
C846 C842 1.385 . S
C846 C845 1.374 . S
C847 C844 1.499 . S
C847 C848 1.373 . S
C847 C849 1.389 . S
C848 H821 0.950 . S
C848 C834 1.377 1_655 S
C848 C847 1.373 . S
C849 C833 1.377 1_655 S
C849 C847 1.389 . S
C849 C850 1.524 . S
C850 C849 1.524 . S
C850 C851 1.397 . S
C850 C855 1.363 . S
C851 H822 0.950 . S
C851 C850 1.397 . S
C851 C852 1.334 . S
C852 H823 0.950 . S
C852 C851 1.334 . S
C852 C853 1.287 . S
C853 C852 1.287 . S
C853 C854 1.524 . S
C853 H856 0.999 . S
C854 H824 0.950 . S
C854 C853 1.524 . S
C854 C855 1.415 . S
C855 H825 0.950 . S
C855 C850 1.363 . S
C855 C854 1.415 . S
H856 C853 0.999 . S
H857 C838 0.913 . S
H858 C876 0.951 . S
H859 C878 0.951 . S
H860 C880 0.950 . S
H861 C881 0.950 . S
H862 C883 0.950 . S
H863 C886 0.950 . S
H864 C887 0.950 . S
H865 C889 0.950 . S
H866 C890 0.950 . S
H867 C891 0.951 . S
H868 C893 0.951 . S
H869 C895 0.950 . S
H870 C896 0.950 . S
H871 C898 0.950 . S
H872 C901 0.950 . S
H873 C902 0.950 . S
H874 C904 0.950 . S
H875 C905 0.950 . S
C876 H858 0.951 . S
C876 C877 1.366 . S
C876 C878 1.388 . S
C877 C876 1.366 . S
C877 C881 1.385 . S
C878 H859 0.951 . S
C878 C876 1.388 . S
C878 C879 1.366 . S
C879 C878 1.366 . S
C879 C880 1.414 . S
C879 C882 1.499 . S
C880 H860 0.950 . S
C880 C879 1.414 . S
C880 C881 1.374 . S
C881 H861 0.950 . S
C881 C877 1.385 . S
C881 C880 1.374 . S
C882 C879 1.499 . S
C882 C883 1.373 . S
C882 C884 1.389 . S
C883 H862 0.950 . S
C883 C882 1.373 . S
C883 C899 1.377 . S
C884 C882 1.389 . S
C884 C885 1.524 . S
C884 C898 1.377 . S
C885 C884 1.524 . S
C885 C886 1.397 . S
C885 C890 1.363 . S
C886 H863 0.950 . S
C886 C885 1.397 . S
C886 C887 1.334 . S
C887 H864 0.950 . S
C887 C886 1.334 . S
C887 C888 1.287 . S
C888 C887 1.287 . S
C888 C889 1.524 . S
C888 H907 0.913 . S
C889 H865 0.950 . S
C889 C888 1.524 . S
C889 C890 1.415 . S
C890 H866 0.950 . S
C890 C885 1.363 . S
C890 C889 1.415 . S
C891 H867 0.951 . S
C891 C892 1.366 . S
C891 C893 1.388 . S
C892 C891 1.366 . S
C892 C896 1.385 . S
C893 H868 0.951 . S
C893 C891 1.388 . S
C893 C894 1.366 . S
C894 C893 1.366 . S
C894 C895 1.414 . S
C894 C897 1.499 . S
C895 H869 0.950 . S
C895 C894 1.414 . S
C895 C896 1.374 . S
C896 H870 0.950 . S
C896 C892 1.385 . S
C896 C895 1.374 . S
C897 C894 1.499 . S
C897 C898 1.373 . S
C897 C899 1.389 . S
C898 H871 0.950 . S
C898 C884 1.377 . S
C898 C897 1.373 . S
C899 C883 1.377 . S
C899 C897 1.389 . S
C899 C900 1.524 . S
C900 C899 1.524 . S
C900 C901 1.397 . S
C900 C905 1.363 . S
C901 H872 0.950 . S
C901 C900 1.397 . S
C901 C902 1.334 . S
C902 H873 0.950 . S
C902 C901 1.334 . S
C902 C903 1.287 . S
C903 C902 1.287 . S
C903 C904 1.524 . S
C903 H906 0.999 . S
C904 H874 0.950 . S
C904 C903 1.524 . S
C904 C905 1.415 . S
C905 H875 0.950 . S
C905 C900 1.363 . S
C905 C904 1.415 . S
H906 C903 0.999 . S
H907 C888 0.913 . S
H908 C926 0.951 . S
H909 C928 0.951 . S
H910 C930 0.950 . S
H911 C931 0.950 . S
H912 C933 0.950 . S
H913 C936 0.950 . S
H914 C937 0.950 . S
H915 C939 0.950 . S
H916 C940 0.950 . S
H917 C941 0.951 . S
H918 C943 0.951 . S
H919 C945 0.950 . S
H920 C946 0.950 . S
H921 C948 0.950 . S
H922 C951 0.950 . S
H923 C952 0.950 . S
H924 C954 0.950 . S
H925 C955 0.950 . S
C926 H908 0.951 . S
C926 C927 1.366 . S
C926 C928 1.388 . S
C927 C926 1.366 . S
C927 C931 1.385 . S
C928 H909 0.951 . S
C928 C926 1.388 . S
C928 C929 1.366 . S
C929 C928 1.366 . S
C929 C930 1.414 . S
C929 C932 1.499 . S
C930 H910 0.950 . S
C930 C929 1.414 . S
C930 C931 1.374 . S
C931 H911 0.950 . S
C931 C927 1.385 . S
C931 C930 1.374 . S
C932 C929 1.499 . S
C932 C933 1.373 . S
C932 C934 1.389 . S
C933 H912 0.950 . S
C933 C932 1.373 . S
C933 C949 1.377 . S
C934 C932 1.389 . S
C934 C935 1.524 . S
C934 C948 1.377 . S
C935 C934 1.524 . S
C935 C936 1.397 . S
C935 C940 1.363 . S
C936 H913 0.950 . S
C936 C935 1.397 . S
C936 C937 1.334 . S
C937 H914 0.950 . S
C937 C936 1.334 . S
C937 C938 1.287 . S
C938 C937 1.287 . S
C938 C939 1.524 . S
C938 H957 0.913 . S
C939 H915 0.950 . S
C939 C938 1.524 . S
C939 C940 1.415 . S
C940 H916 0.950 . S
C940 C935 1.363 . S
C940 C939 1.415 . S
C941 H917 0.951 . S
C941 C942 1.366 . S
C941 C943 1.388 . S
C942 C941 1.366 . S
C942 C946 1.385 . S
C943 H918 0.951 . S
C943 C941 1.388 . S
C943 C944 1.366 . S
C944 C943 1.366 . S
C944 C945 1.414 . S
C944 C947 1.499 . S
C945 H919 0.950 . S
C945 C944 1.414 . S
C945 C946 1.374 . S
C946 H920 0.950 . S
C946 C942 1.385 . S
C946 C945 1.374 . S
C947 C944 1.499 . S
C947 C948 1.373 . S
C947 C949 1.389 . S
C948 H921 0.950 . S
C948 C934 1.377 . S
C948 C947 1.373 . S
C949 C933 1.377 . S
C949 C947 1.389 . S
C949 C950 1.524 . S
C950 C949 1.524 . S
C950 C951 1.397 . S
C950 C955 1.363 . S
C951 H922 0.950 . S
C951 C950 1.397 . S
C951 C952 1.334 . S
C952 H923 0.950 . S
C952 C951 1.334 . S
C952 C953 1.287 . S
C953 C952 1.287 . S
C953 C954 1.524 . S
C953 H956 0.999 . S
C954 H924 0.950 . S
C954 C953 1.524 . S
C954 C955 1.415 . S
C955 H925 0.950 . S
C955 C950 1.363 . S
C955 C954 1.415 . S
H956 C953 0.999 . S
H957 C938 0.913 . S
H958 C976 0.951 . S
H959 C978 0.951 . S
H960 C980 0.950 . S
H961 C981 0.950 . S
H962 C983 0.950 . S
H963 C986 0.950 . S
H964 C987 0.950 . S
H965 C989 0.950 . S
H966 C990 0.950 . S
H967 C991 0.951 . S
H968 C993 0.951 . S
H969 C995 0.950 . S
H970 C996 0.950 . S
H971 C998 0.950 . S
H972 C1001 0.950 . S
H973 C1002 0.950 . S
H974 C1004 0.950 . S
H975 C1005 0.950 . S
C976 H958 0.951 . S
C976 C977 1.366 . S
C976 C978 1.388 . S
C977 C976 1.366 . S
C977 C981 1.385 . S
C978 H959 0.951 . S
C978 C976 1.388 . S
C978 C979 1.366 . S
C979 C978 1.366 . S
C979 C980 1.414 . S
C979 C982 1.499 . S
C980 H960 0.950 . S
C980 C979 1.414 . S
C980 C981 1.374 . S
C981 H961 0.950 . S
C981 C977 1.385 . S
C981 C980 1.374 . S
C982 C979 1.499 . S
C982 C983 1.373 . S
C982 C984 1.389 . S
C983 H962 0.950 . S
C983 C982 1.373 . S
C983 C999 1.377 1_455 S
C984 C982 1.389 . S
C984 C985 1.524 . S
C984 C998 1.377 1_455 S
C985 C984 1.524 . S
C985 C986 1.397 . S
C985 C990 1.363 . S
C986 H963 0.950 . S
C986 C985 1.397 . S
C986 C987 1.334 . S
C987 H964 0.950 . S
C987 C986 1.334 . S
C987 C988 1.287 . S
C988 C987 1.287 . S
C988 C989 1.524 . S
C988 H1007 0.913 . S
C989 H965 0.950 . S
C989 C988 1.524 . S
C989 C990 1.415 . S
C990 H966 0.950 . S
C990 C985 1.363 . S
C990 C989 1.415 . S
C991 H967 0.951 . S
C991 C992 1.366 . S
C991 C993 1.388 . S
C992 C991 1.366 . S
C992 C996 1.385 . S
C993 H968 0.951 . S
C993 C991 1.388 . S
C993 C994 1.366 . S
C994 C993 1.366 . S
C994 C995 1.414 . S
C994 C997 1.499 . S
C995 H969 0.950 . S
C995 C994 1.414 . S
C995 C996 1.374 . S
C996 H970 0.950 . S
C996 C992 1.385 . S
C996 C995 1.374 . S
C997 C994 1.499 . S
C997 C998 1.373 . S
C997 C999 1.389 . S
C998 H971 0.950 . S
C998 C984 1.377 1_655 S
C998 C997 1.373 . S
C999 C983 1.377 1_655 S
C999 C997 1.389 . S
C999 C1000 1.524 . S
C1000 C999 1.524 . S
C1000 C1001 1.397 . S
C1000 C1005 1.363 . S
C1001 H972 0.950 . S
C1001 C1000 1.397 . S
C1001 C1002 1.334 . S
C1002 H973 0.950 . S
C1002 C1001 1.334 . S
C1002 C1003 1.287 . S
C1003 C1002 1.287 . S
C1003 C1004 1.524 . S
C1003 H1006 0.999 . S
C1004 H974 0.950 . S
C1004 C1003 1.524 . S
C1004 C1005 1.415 . S
C1005 H975 0.950 . S
C1005 C1000 1.363 . S
C1005 C1004 1.415 . S
H1006 C1003 0.999 . S
H1007 C988 0.913 . S
H1008 C1026 0.951 . S
H1009 C1028 0.951 . S
H1010 C1030 0.950 . S
H1011 C1031 0.950 . S
H1012 C1033 0.950 . S
H1013 C1036 0.950 . S
H1014 C1037 0.950 . S
H1015 C1039 0.950 . S
H1016 C1040 0.950 . S
H1017 C1041 0.951 . S
H1018 C1043 0.951 . S
H1019 C1045 0.950 . S
H1020 C1046 0.950 . S
H1021 C1048 0.950 . S
H1022 C1051 0.950 . S
H1023 C1052 0.950 . S
H1024 C1054 0.950 . S
H1025 C1055 0.950 . S
C1026 H1008 0.951 . S
C1026 C1027 1.366 . S
C1026 C1028 1.388 . S
C1027 C1026 1.366 . S
C1027 C1031 1.385 . S
C1028 H1009 0.951 . S
C1028 C1026 1.388 . S
C1028 C1029 1.366 . S
C1029 C1028 1.366 . S
C1029 C1030 1.414 . S
C1029 C1032 1.499 . S
C1030 H1010 0.950 . S
C1030 C1029 1.414 . S
C1030 C1031 1.374 . S
C1031 H1011 0.950 . S
C1031 C1027 1.385 . S
C1031 C1030 1.374 . S
C1032 C1029 1.499 . S
C1032 C1033 1.373 . S
C1032 C1034 1.389 . S
C1033 H1012 0.950 . S
C1033 C1032 1.373 . S
C1033 C1049 1.377 1_554 S
C1034 C1032 1.389 . S
C1034 C1035 1.524 . S
C1034 C1048 1.377 1_554 S
C1035 C1034 1.524 . S
C1035 C1036 1.397 . S
C1035 C1040 1.363 . S
C1036 H1013 0.950 . S
C1036 C1035 1.397 . S
C1036 C1037 1.334 . S
C1037 H1014 0.950 . S
C1037 C1036 1.334 . S
C1037 C1038 1.287 . S
C1038 C1037 1.287 . S
C1038 C1039 1.524 . S
C1038 H1057 0.913 . S
C1039 H1015 0.950 . S
C1039 C1038 1.524 . S
C1039 C1040 1.415 . S
C1040 H1016 0.950 . S
C1040 C1035 1.363 . S
C1040 C1039 1.415 . S
C1041 H1017 0.951 . S
C1041 C1042 1.366 . S
C1041 C1043 1.388 . S
C1042 C1041 1.366 . S
C1042 C1046 1.385 . S
C1043 H1018 0.951 . S
C1043 C1041 1.388 . S
C1043 C1044 1.366 . S
C1044 C1043 1.366 . S
C1044 C1045 1.414 . S
C1044 C1047 1.499 . S
C1045 H1019 0.950 . S
C1045 C1044 1.414 . S
C1045 C1046 1.374 . S
C1046 H1020 0.950 . S
C1046 C1042 1.385 . S
C1046 C1045 1.374 . S
C1047 C1044 1.499 . S
C1047 C1048 1.373 . S
C1047 C1049 1.389 . S
C1048 H1021 0.950 . S
C1048 C1034 1.377 1_556 S
C1048 C1047 1.373 . S
C1049 C1033 1.377 1_556 S
C1049 C1047 1.389 . S
C1049 C1050 1.524 . S
C1050 C1049 1.524 . S
C1050 C1051 1.397 . S
C1050 C1055 1.363 . S
C1051 H1022 0.950 . S
C1051 C1050 1.397 . S
C1051 C1052 1.334 . S
C1052 H1023 0.950 . S
C1052 C1051 1.334 . S
C1052 C1053 1.287 . S
C1053 C1052 1.287 . S
C1053 C1054 1.524 . S
C1053 H1056 0.999 . S
C1054 H1024 0.950 . S
C1054 C1053 1.524 . S
C1054 C1055 1.415 . S
C1055 H1025 0.950 . S
C1055 C1050 1.363 . S
C1055 C1054 1.415 . S
H1056 C1053 0.999 . S
H1057 C1038 0.913 . S
H1058 C1076 0.951 . S
H1059 C1078 0.951 . S
H1060 C1080 0.950 . S
H1061 C1081 0.950 . S
H1062 C1083 0.950 . S
H1063 C1086 0.950 . S
H1064 C1087 0.950 . S
H1065 C1089 0.950 . S
H1066 C1090 0.950 . S
H1067 C1091 0.951 . S
H1068 C1093 0.951 . S
H1069 C1095 0.950 . S
H1070 C1096 0.950 . S
H1071 C1098 0.950 . S
H1072 C1101 0.950 . S
H1073 C1102 0.950 . S
H1074 C1104 0.950 . S
H1075 C1105 0.950 . S
C1076 H1058 0.951 . S
C1076 C1077 1.366 . S
C1076 C1078 1.388 . S
C1077 C1076 1.366 . S
C1077 C1081 1.385 . S
C1078 H1059 0.951 . S
C1078 C1076 1.388 . S
C1078 C1079 1.366 . S
C1079 C1078 1.366 . S
C1079 C1080 1.414 . S
C1079 C1082 1.499 . S
C1080 H1060 0.950 . S
C1080 C1079 1.414 . S
C1080 C1081 1.374 . S
C1081 H1061 0.950 . S
C1081 C1077 1.385 . S
C1081 C1080 1.374 . S
C1082 C1079 1.499 . S
C1082 C1083 1.373 . S
C1082 C1084 1.389 . S
C1083 H1062 0.950 . S
C1083 C1082 1.373 . S
C1083 C1099 1.377 . S
C1084 C1082 1.389 . S
C1084 C1085 1.524 . S
C1084 C1098 1.377 . S
C1085 C1084 1.524 . S
C1085 C1086 1.397 . S
C1085 C1090 1.363 . S
C1086 H1063 0.950 . S
C1086 C1085 1.397 . S
C1086 C1087 1.334 . S
C1087 H1064 0.950 . S
C1087 C1086 1.334 . S
C1087 C1088 1.287 . S
C1088 C1087 1.287 . S
C1088 C1089 1.524 . S
C1088 H1107 0.913 . S
C1089 H1065 0.950 . S
C1089 C1088 1.524 . S
C1089 C1090 1.415 . S
C1090 H1066 0.950 . S
C1090 C1085 1.363 . S
C1090 C1089 1.415 . S
C1091 H1067 0.951 . S
C1091 C1092 1.366 . S
C1091 C1093 1.388 . S
C1092 C1091 1.366 . S
C1092 C1096 1.385 . S
C1093 H1068 0.951 . S
C1093 C1091 1.388 . S
C1093 C1094 1.366 . S
C1094 C1093 1.366 . S
C1094 C1095 1.414 . S
C1094 C1097 1.499 . S
C1095 H1069 0.950 . S
C1095 C1094 1.414 . S
C1095 C1096 1.374 . S
C1096 H1070 0.950 . S
C1096 C1092 1.385 . S
C1096 C1095 1.374 . S
C1097 C1094 1.499 . S
C1097 C1098 1.373 . S
C1097 C1099 1.389 . S
C1098 H1071 0.950 . S
C1098 C1084 1.377 . S
C1098 C1097 1.373 . S
C1099 C1083 1.377 . S
C1099 C1097 1.389 . S
C1099 C1100 1.524 . S
C1100 C1099 1.524 . S
C1100 C1101 1.397 . S
C1100 C1105 1.363 . S
C1101 H1072 0.950 . S
C1101 C1100 1.397 . S
C1101 C1102 1.334 . S
C1102 H1073 0.950 . S
C1102 C1101 1.334 . S
C1102 C1103 1.287 1_565 S
C1103 C1102 1.287 1_545 S
C1103 C1104 1.524 . S
C1103 H1106 0.999 . S
C1104 H1074 0.950 . S
C1104 C1103 1.524 . S
C1104 C1105 1.415 1_545 S
C1105 H1075 0.950 . S
C1105 C1100 1.363 . S
C1105 C1104 1.415 1_565 S
H1106 C1103 0.999 . S
H1107 C1088 0.913 . S
H1108 C1126 0.951 . S
H1109 C1128 0.951 . S
H1110 C1130 0.950 . S
H1111 C1131 0.950 . S
H1112 C1133 0.950 . S
H1113 C1136 0.950 . S
H1114 C1137 0.950 . S
H1115 C1139 0.950 . S
H1116 C1140 0.950 . S
H1117 C1141 0.951 . S
H1118 C1143 0.951 . S
H1119 C1145 0.950 . S
H1120 C1146 0.950 . S
H1121 C1148 0.950 . S
H1122 C1151 0.950 . S
H1123 C1152 0.950 . S
H1124 C1154 0.950 . S
H1125 C1155 0.950 . S
C1126 H1108 0.951 . S
C1126 C1127 1.366 . S
C1126 C1128 1.388 . S
C1127 C1126 1.366 . S
C1127 C1131 1.385 . S
C1128 H1109 0.951 . S
C1128 C1126 1.388 . S
C1128 C1129 1.366 . S
C1129 C1128 1.366 . S
C1129 C1130 1.414 . S
C1129 C1132 1.499 . S
C1130 H1110 0.950 . S
C1130 C1129 1.414 . S
C1130 C1131 1.374 . S
C1131 H1111 0.950 . S
C1131 C1127 1.385 . S
C1131 C1130 1.374 . S
C1132 C1129 1.499 . S
C1132 C1133 1.373 . S
C1132 C1134 1.389 . S
C1133 H1112 0.950 . S
C1133 C1132 1.373 . S
C1133 C1149 1.377 . S
C1134 C1132 1.389 . S
C1134 C1135 1.524 . S
C1134 C1148 1.377 . S
C1135 C1134 1.524 . S
C1135 C1136 1.397 . S
C1135 C1140 1.363 . S
C1136 H1113 0.950 . S
C1136 C1135 1.397 . S
C1136 C1137 1.334 . S
C1137 H1114 0.950 . S
C1137 C1136 1.334 . S
C1137 C1138 1.287 . S
C1138 C1137 1.287 . S
C1138 C1139 1.524 . S
C1138 H1157 0.913 . S
C1139 H1115 0.950 . S
C1139 C1138 1.524 . S
C1139 C1140 1.415 . S
C1140 H1116 0.950 . S
C1140 C1135 1.363 . S
C1140 C1139 1.415 . S
C1141 H1117 0.951 . S
C1141 C1142 1.366 . S
C1141 C1143 1.388 . S
C1142 C1141 1.366 . S
C1142 C1146 1.385 . S
C1143 H1118 0.951 . S
C1143 C1141 1.388 . S
C1143 C1144 1.366 . S
C1144 C1143 1.366 . S
C1144 C1145 1.414 . S
C1144 C1147 1.499 . S
C1145 H1119 0.950 . S
C1145 C1144 1.414 . S
C1145 C1146 1.374 . S
C1146 H1120 0.950 . S
C1146 C1142 1.385 . S
C1146 C1145 1.374 . S
C1147 C1144 1.499 . S
C1147 C1148 1.373 . S
C1147 C1149 1.389 . S
C1148 H1121 0.950 . S
C1148 C1134 1.377 . S
C1148 C1147 1.373 . S
C1149 C1133 1.377 . S
C1149 C1147 1.389 . S
C1149 C1150 1.524 . S
C1150 C1149 1.524 . S
C1150 C1151 1.397 . S
C1150 C1155 1.363 . S
C1151 H1122 0.950 . S
C1151 C1150 1.397 . S
C1151 C1152 1.334 . S
C1152 H1123 0.950 . S
C1152 C1151 1.334 . S
C1152 C1153 1.287 . S
C1153 C1152 1.287 . S
C1153 C1154 1.524 . S
C1153 H1156 0.999 . S
C1154 H1124 0.950 . S
C1154 C1153 1.524 . S
C1154 C1155 1.415 . S
C1155 H1125 0.950 . S
C1155 C1150 1.363 . S
C1155 C1154 1.415 . S
H1156 C1153 0.999 . S
H1157 C1138 0.913 . S
H1158 C1176 0.951 . S
H1159 C1178 0.951 . S
H1160 C1180 0.950 . S
H1161 C1181 0.950 . S
H1162 C1183 0.950 . S
H1163 C1186 0.950 . S
H1164 C1187 0.950 . S
H1165 C1189 0.950 . S
H1166 C1190 0.950 . S
H1167 C1191 0.951 . S
H1168 C1193 0.951 . S
H1169 C1195 0.950 . S
H1170 C1196 0.950 . S
H1171 C1198 0.950 . S
H1172 C1201 0.950 . S
H1173 C1202 0.950 . S
H1174 C1204 0.950 . S
H1175 C1205 0.950 . S
C1176 H1158 0.951 . S
C1176 C1177 1.366 . S
C1176 C1178 1.388 . S
C1177 C1176 1.366 . S
C1177 C1181 1.385 . S
C1178 H1159 0.951 . S
C1178 C1176 1.388 . S
C1178 C1179 1.366 . S
C1179 C1178 1.366 . S
C1179 C1180 1.414 . S
C1179 C1182 1.499 . S
C1180 H1160 0.950 . S
C1180 C1179 1.414 . S
C1180 C1181 1.374 . S
C1181 H1161 0.950 . S
C1181 C1177 1.385 . S
C1181 C1180 1.374 . S
C1182 C1179 1.499 . S
C1182 C1183 1.373 . S
C1182 C1184 1.389 . S
C1183 H1162 0.950 . S
C1183 C1182 1.373 . S
C1183 C1199 1.377 . S
C1184 C1182 1.389 . S
C1184 C1185 1.524 . S
C1184 C1198 1.377 . S
C1185 C1184 1.524 . S
C1185 C1186 1.397 . S
C1185 C1190 1.363 . S
C1186 H1163 0.950 . S
C1186 C1185 1.397 . S
C1186 C1187 1.334 . S
C1187 H1164 0.950 . S
C1187 C1186 1.334 . S
C1187 C1188 1.287 . S
C1188 C1187 1.287 . S
C1188 C1189 1.524 . S
C1188 H1207 0.913 . S
C1189 H1165 0.950 . S
C1189 C1188 1.524 . S
C1189 C1190 1.415 . S
C1190 H1166 0.950 . S
C1190 C1185 1.363 . S
C1190 C1189 1.415 . S
C1191 H1167 0.951 . S
C1191 C1192 1.366 . S
C1191 C1193 1.388 . S
C1192 C1191 1.366 . S
C1192 C1196 1.385 . S
C1193 H1168 0.951 . S
C1193 C1191 1.388 . S
C1193 C1194 1.366 . S
C1194 C1193 1.366 . S
C1194 C1195 1.414 . S
C1194 C1197 1.499 . S
C1195 H1169 0.950 . S
C1195 C1194 1.414 . S
C1195 C1196 1.374 . S
C1196 H1170 0.950 . S
C1196 C1192 1.385 . S
C1196 C1195 1.374 . S
C1197 C1194 1.499 . S
C1197 C1198 1.373 . S
C1197 C1199 1.389 . S
C1198 H1171 0.950 . S
C1198 C1184 1.377 . S
C1198 C1197 1.373 . S
C1199 C1183 1.377 . S
C1199 C1197 1.389 . S
C1199 C1200 1.524 . S
C1200 C1199 1.524 . S
C1200 C1201 1.397 . S
C1200 C1205 1.363 . S
C1201 H1172 0.950 . S
C1201 C1200 1.397 . S
C1201 C1202 1.334 . S
C1202 H1173 0.950 . S
C1202 C1201 1.334 . S
C1202 C1203 1.287 . S
C1203 C1202 1.287 . S
C1203 C1204 1.524 . S
C1203 H1206 0.999 . S
C1204 H1174 0.950 . S
C1204 C1203 1.524 . S
C1204 C1205 1.415 . S
C1205 H1175 0.950 . S
C1205 C1200 1.363 . S
C1205 C1204 1.415 . S
H1206 C1203 0.999 . S
H1207 C1188 0.913 . S
H1208 C1226 0.951 . S
H1209 C1228 0.951 . S
H1210 C1230 0.950 . S
H1211 C1231 0.950 . S
H1212 C1233 0.950 . S
H1213 C1236 0.950 . S
H1214 C1237 0.950 . S
H1215 C1239 0.950 . S
H1216 C1240 0.950 . S
H1217 C1241 0.951 . S
H1218 C1243 0.951 . S
H1219 C1245 0.950 . S
H1220 C1246 0.950 . S
H1221 C1248 0.949 1_554 S
H1222 C1251 0.950 . S
H1223 C1252 0.950 . S
H1224 C1254 0.950 . S
H1225 C1255 0.950 . S
C1226 H1208 0.951 . S
C1226 C1227 1.366 . S
C1226 C1228 1.388 . S
C1227 C1226 1.366 . S
C1227 C1231 1.385 . S
C1228 H1209 0.951 . S
C1228 C1226 1.388 . S
C1228 C1229 1.366 . S
C1229 C1228 1.366 . S
C1229 C1230 1.414 . S
C1229 C1232 1.499 . S
C1230 H1210 0.950 . S
C1230 C1229 1.414 . S
C1230 C1231 1.374 . S
C1231 H1211 0.950 . S
C1231 C1227 1.385 . S
C1231 C1230 1.374 . S
C1232 C1229 1.499 . S
C1232 C1233 1.373 . S
C1232 C1234 1.389 . S
C1233 H1212 0.950 . S
C1233 C1232 1.373 . S
C1233 C1249 1.377 1_556 S
C1234 C1232 1.389 . S
C1234 C1235 1.524 . S
C1234 C1248 1.386 . S
C1235 C1234 1.524 . S
C1235 C1236 1.397 . S
C1235 C1240 1.363 . S
C1236 H1213 0.950 . S
C1236 C1235 1.397 . S
C1236 C1237 1.334 . S
C1237 H1214 0.950 . S
C1237 C1236 1.334 . S
C1237 C1238 1.287 . S
C1238 C1237 1.287 . S
C1238 C1239 1.524 . S
C1238 H1257 0.913 . S
C1239 H1215 0.950 . S
C1239 C1238 1.524 . S
C1239 C1240 1.415 . S
C1240 H1216 0.950 . S
C1240 C1235 1.363 . S
C1240 C1239 1.415 . S
C1241 H1217 0.951 . S
C1241 C1242 1.366 . S
C1241 C1243 1.388 . S
C1242 C1241 1.366 . S
C1242 C1246 1.385 . S
C1243 H1218 0.951 . S
C1243 C1241 1.388 . S
C1243 C1244 1.366 . S
C1244 C1243 1.366 . S
C1244 C1245 1.414 . S
C1244 C1247 1.499 . S
C1245 H1219 0.950 . S
C1245 C1244 1.414 . S
C1245 C1246 1.374 . S
C1246 H1220 0.950 . S
C1246 C1242 1.385 . S
C1246 C1245 1.374 . S
C1247 C1244 1.499 . S
C1247 C1248 1.365 1_554 S
C1247 C1249 1.389 . S
C1248 H1221 0.949 1_556 S
C1248 C1234 1.386 . S
C1248 C1247 1.365 1_556 S
C1249 C1233 1.377 1_554 S
C1249 C1247 1.389 . S
C1249 C1250 1.524 . S
C1250 C1249 1.524 . S
C1250 C1251 1.397 . S
C1250 C1255 1.363 . S
C1251 H1222 0.950 . S
C1251 C1250 1.397 . S
C1251 C1252 1.334 . S
C1252 H1223 0.950 . S
C1252 C1251 1.334 . S
C1252 C1253 1.287 . S
C1253 C1252 1.287 . S
C1253 C1254 1.524 . S
C1253 H1256 0.999 . S
C1254 H1224 0.950 . S
C1254 C1253 1.524 . S
C1254 C1255 1.415 . S
C1255 H1225 0.950 . S
C1255 C1250 1.363 . S
C1255 C1254 1.415 . S
H1256 C1253 0.999 . S
H1257 C1238 0.913 . S
H1258 C1276 0.951 . S
H1259 C1278 0.951 . S
H1260 C1280 0.950 . S
H1261 C1281 0.950 . S
H1262 C1283 0.950 . S
H1263 C1286 0.950 . S
H1264 C1287 0.950 . S
H1265 C1289 0.942 1_565 S
H1266 C1290 0.950 . S
H1267 C1291 0.951 . S
H1268 C1293 0.951 . S
H1269 C1295 0.950 . S
H1270 C1296 0.950 . S
H1271 C1298 0.950 . S
H1272 C1301 0.950 . S
H1273 C1302 0.950 . S
H1274 C1304 0.950 . S
H1275 C1305 0.950 . S
C1276 H1258 0.951 . S
C1276 C1277 1.366 . S
C1276 C1278 1.388 . S
C1277 C1276 1.366 . S
C1277 C1281 1.385 . S
C1278 H1259 0.951 . S
C1278 C1276 1.388 . S
C1278 C1279 1.366 . S
C1279 C1278 1.366 . S
C1279 C1280 1.414 . S
C1279 C1282 1.499 . S
C1280 H1260 0.950 . S
C1280 C1279 1.414 . S
C1280 C1281 1.374 . S
C1281 H1261 0.950 . S
C1281 C1277 1.385 . S
C1281 C1280 1.374 . S
C1282 C1279 1.499 . S
C1282 C1283 1.373 . S
C1282 C1284 1.389 . S
C1283 H1262 0.950 . S
C1283 C1282 1.373 . S
C1283 C1299 1.377 . S
C1284 C1282 1.389 . S
C1284 C1285 1.524 . S
C1284 C1298 1.377 . S
C1285 C1284 1.524 . S
C1285 C1286 1.397 . S
C1285 C1290 1.363 . S
C1286 H1263 0.950 . S
C1286 C1285 1.397 . S
C1286 C1287 1.334 1_545 S
C1287 H1264 0.950 . S
C1287 C1286 1.334 1_565 S
C1287 C1288 1.287 . S
C1288 C1287 1.287 . S
C1288 C1289 1.515 1_565 S
C1288 H1307 0.913 . S
C1289 H1265 0.942 1_545 S
C1289 C1288 1.515 1_545 S
C1289 C1290 1.432 . S
C1290 H1266 0.950 . S
C1290 C1285 1.363 . S
C1290 C1289 1.432 . S
C1291 H1267 0.951 . S
C1291 C1292 1.366 . S
C1291 C1293 1.388 . S
C1292 C1291 1.366 . S
C1292 C1296 1.385 . S
C1293 H1268 0.951 . S
C1293 C1291 1.388 . S
C1293 C1294 1.366 . S
C1294 C1293 1.366 . S
C1294 C1295 1.414 . S
C1294 C1297 1.499 . S
C1295 H1269 0.950 . S
C1295 C1294 1.414 . S
C1295 C1296 1.374 . S
C1296 H1270 0.950 . S
C1296 C1292 1.385 . S
C1296 C1295 1.374 . S
C1297 C1294 1.499 . S
C1297 C1298 1.373 . S
C1297 C1299 1.389 . S
C1298 H1271 0.950 . S
C1298 C1284 1.377 . S
C1298 C1297 1.373 . S
C1299 C1283 1.377 . S
C1299 C1297 1.389 . S
C1299 C1300 1.524 . S
C1300 C1299 1.524 . S
C1300 C1301 1.397 . S
C1300 C1305 1.363 . S
C1301 H1272 0.950 . S
C1301 C1300 1.397 . S
C1301 C1302 1.334 . S
C1302 H1273 0.950 . S
C1302 C1301 1.334 . S
C1302 C1303 1.287 . S
C1303 C1302 1.287 . S
C1303 C1304 1.524 . S
C1303 H1306 0.999 . S
C1304 H1274 0.950 . S
C1304 C1303 1.524 . S
C1304 C1305 1.415 . S
C1305 H1275 0.950 . S
C1305 C1300 1.363 . S
C1305 C1304 1.415 . S
H1306 C1303 0.999 . S
H1307 C1288 0.913 . S
H1308 C1326 0.951 . S
H1309 C1328 0.951 . S
H1310 C1330 0.950 . S
H1311 C1331 0.950 . S
H1312 C1333 0.950 . S
H1313 C1336 0.950 . S
H1314 C1337 0.950 . S
H1315 C1339 0.950 . S
H1316 C1340 0.950 . S
H1317 C1341 0.951 . S
H1318 C1343 0.951 . S
H1319 C1345 0.950 . S
H1320 C1346 0.950 . S
H1321 C1348 0.950 . S
H1322 C1351 0.950 . S
H1323 C1352 0.950 . S
H1324 C1354 0.950 . S
H1325 C1355 0.950 . S
C1326 H1308 0.951 . S
C1326 C1327 1.366 . S
C1326 C1328 1.388 . S
C1327 C1326 1.366 . S
C1327 C1331 1.385 . S
C1328 H1309 0.951 . S
C1328 C1326 1.388 . S
C1328 C1329 1.366 . S
C1329 C1328 1.366 . S
C1329 C1330 1.414 . S
C1329 C1332 1.499 . S
C1330 H1310 0.950 . S
C1330 C1329 1.414 . S
C1330 C1331 1.374 . S
C1331 H1311 0.950 . S
C1331 C1327 1.385 . S
C1331 C1330 1.374 . S
C1332 C1329 1.499 . S
C1332 C1333 1.373 . S
C1332 C1334 1.389 . S
C1333 H1312 0.950 . S
C1333 C1332 1.373 . S
C1333 C1349 1.377 . S
C1334 C1332 1.389 . S
C1334 C1335 1.524 . S
C1334 C1348 1.377 . S
C1335 C1334 1.524 . S
C1335 C1336 1.397 . S
C1335 C1340 1.363 . S
C1336 H1313 0.950 . S
C1336 C1335 1.397 . S
C1336 C1337 1.334 . S
C1337 H1314 0.950 . S
C1337 C1336 1.334 . S
C1337 C1338 1.287 . S
C1338 C1337 1.287 . S
C1338 C1339 1.524 . S
C1338 H1357 0.913 . S
C1339 H1315 0.950 . S
C1339 C1338 1.524 . S
C1339 C1340 1.415 . S
C1340 H1316 0.950 . S
C1340 C1335 1.363 . S
C1340 C1339 1.415 . S
C1341 H1317 0.951 . S
C1341 C1342 1.366 . S
C1341 C1343 1.388 . S
C1342 C1341 1.366 . S
C1342 C1346 1.385 . S
C1343 H1318 0.951 . S
C1343 C1341 1.388 . S
C1343 C1344 1.366 . S
C1344 C1343 1.366 . S
C1344 C1345 1.414 . S
C1344 C1347 1.499 . S
C1345 H1319 0.950 . S
C1345 C1344 1.414 . S
C1345 C1346 1.374 . S
C1346 H1320 0.950 . S
C1346 C1342 1.385 . S
C1346 C1345 1.374 . S
C1347 C1344 1.499 . S
C1347 C1348 1.373 . S
C1347 C1349 1.389 . S
C1348 H1321 0.950 . S
C1348 C1334 1.377 . S
C1348 C1347 1.373 . S
C1349 C1333 1.377 . S
C1349 C1347 1.389 . S
C1349 C1350 1.524 . S
C1350 C1349 1.524 . S
C1350 C1351 1.397 . S
C1350 C1355 1.363 . S
C1351 H1322 0.950 . S
C1351 C1350 1.397 . S
C1351 C1352 1.334 . S
C1352 H1323 0.950 . S
C1352 C1351 1.334 . S
C1352 C1353 1.287 . S
C1353 C1352 1.287 . S
C1353 C1354 1.524 . S
C1353 H1356 0.999 . S
C1354 H1324 0.950 . S
C1354 C1353 1.524 . S
C1354 C1355 1.415 . S
C1355 H1325 0.950 . S
C1355 C1350 1.363 . S
C1355 C1354 1.415 . S
H1356 C1353 0.999 . S
H1357 C1338 0.913 . S
H1358 C1376 0.951 . S
H1359 C1378 0.951 . S
H1360 C1380 0.950 . S
H1361 C1381 0.950 . S
H1362 C1383 0.950 . S
H1363 C1386 0.950 . S
H1364 C1387 0.950 . S
H1365 C1389 0.950 . S
H1366 C1390 0.950 . S
H1367 C1391 0.951 . S
H1368 C1393 0.951 . S
H1369 C1395 0.950 . S
H1370 C1396 0.950 . S
H1371 C1398 0.950 . S
H1372 C1401 0.950 . S
H1373 C1402 0.951 1_545 S
H1374 C1404 0.950 . S
H1375 C1405 0.950 . S
C1376 H1358 0.951 . S
C1376 C1377 1.366 . S
C1376 C1378 1.388 . S
C1377 C1376 1.366 . S
C1377 C1381 1.385 . S
C1378 H1359 0.951 . S
C1378 C1376 1.388 . S
C1378 C1379 1.366 . S
C1379 C1378 1.366 . S
C1379 C1380 1.414 . S
C1379 C1382 1.499 . S
C1380 H1360 0.950 . S
C1380 C1379 1.414 . S
C1380 C1381 1.374 . S
C1381 H1361 0.950 . S
C1381 C1377 1.385 . S
C1381 C1380 1.374 . S
C1382 C1379 1.499 . S
C1382 C1383 1.373 . S
C1382 C1384 1.389 . S
C1383 H1362 0.950 . S
C1383 C1382 1.373 . S
C1383 C1399 1.377 . S
C1384 C1382 1.389 . S
C1384 C1385 1.524 . S
C1384 C1398 1.377 . S
C1385 C1384 1.524 . S
C1385 C1386 1.397 . S
C1385 C1390 1.363 . S
C1386 H1363 0.950 . S
C1386 C1385 1.397 . S
C1386 C1387 1.334 . S
C1387 H1364 0.950 . S
C1387 C1386 1.334 . S
C1387 C1388 1.287 . S
C1388 C1387 1.287 . S
C1388 C1389 1.524 . S
C1388 H1407 0.913 . S
C1389 H1365 0.950 . S
C1389 C1388 1.524 . S
C1389 C1390 1.415 . S
C1390 H1366 0.950 . S
C1390 C1385 1.363 . S
C1390 C1389 1.415 . S
C1391 H1367 0.951 . S
C1391 C1392 1.366 . S
C1391 C1393 1.388 . S
C1392 C1391 1.366 . S
C1392 C1396 1.385 . S
C1393 H1368 0.951 . S
C1393 C1391 1.388 . S
C1393 C1394 1.366 . S
C1394 C1393 1.366 . S
C1394 C1395 1.414 . S
C1394 C1397 1.499 . S
C1395 H1369 0.950 . S
C1395 C1394 1.414 . S
C1395 C1396 1.374 . S
C1396 H1370 0.950 . S
C1396 C1392 1.385 . S
C1396 C1395 1.374 . S
C1397 C1394 1.499 . S
C1397 C1398 1.373 . S
C1397 C1399 1.389 . S
C1398 H1371 0.950 . S
C1398 C1384 1.377 . S
C1398 C1397 1.373 . S
C1399 C1383 1.377 . S
C1399 C1397 1.389 . S
C1399 C1400 1.524 . S
C1400 C1399 1.524 . S
C1400 C1401 1.397 . S
C1400 C1405 1.363 . S
C1401 H1372 0.950 . S
C1401 C1400 1.397 . S
C1401 C1402 1.334 . S
C1402 H1373 0.951 1_565 S
C1402 C1401 1.334 . S
C1402 C1403 1.287 . S
C1403 C1402 1.287 . S
C1403 C1404 1.524 . S
C1403 H1406 0.999 . S
C1404 H1374 0.950 . S
C1404 C1403 1.524 . S
C1404 C1405 1.415 . S
C1405 H1375 0.950 . S
C1405 C1400 1.363 . S
C1405 C1404 1.415 . S
H1406 C1403 0.999 . S
H1407 C1388 0.913 . S
H1408 C1426 0.951 . S
H1409 C1428 0.951 . S
H1410 C1430 0.950 . S
H1411 C1431 0.950 . S
H1412 C1433 0.950 . S
H1413 C1436 0.950 . S
H1414 C1437 0.950 . S
H1415 C1439 0.950 . S
H1416 C1440 0.950 1_565 S
H1417 C1441 0.951 . S
H1418 C1443 0.951 . S
H1419 C1445 0.950 . S
H1420 C1446 0.950 . S
H1421 C1448 0.950 . S
H1422 C1451 0.950 . S
H1423 C1452 0.950 . S
H1424 C1454 0.950 . S
H1425 C1455 0.950 . S
C1426 H1408 0.951 . S
C1426 C1427 1.366 . S
C1426 C1428 1.388 . S
C1427 C1426 1.366 . S
C1427 C1431 1.385 . S
C1428 H1409 0.951 . S
C1428 C1426 1.388 . S
C1428 C1429 1.366 . S
C1429 C1428 1.366 . S
C1429 C1430 1.414 . S
C1429 C1432 1.499 . S
C1430 H1410 0.950 . S
C1430 C1429 1.414 . S
C1430 C1431 1.374 . S
C1431 H1411 0.950 . S
C1431 C1427 1.385 . S
C1431 C1430 1.374 . S
C1432 C1429 1.499 . S
C1432 C1433 1.373 1_545 S
C1432 C1434 1.389 . S
C1433 H1412 0.950 . S
C1433 C1432 1.373 1_565 S
C1433 C1449 1.377 . S
C1434 C1432 1.389 . S
C1434 C1435 1.524 . S
C1434 C1448 1.377 1_545 S
C1435 C1434 1.524 . S
C1435 C1436 1.397 . S
C1435 C1440 1.363 . S
C1436 H1413 0.950 . S
C1436 C1435 1.397 . S
C1436 C1437 1.334 . S
C1437 H1414 0.950 . S
C1437 C1436 1.334 . S
C1437 C1438 1.287 . S
C1438 C1437 1.287 . S
C1438 C1439 1.524 . S
C1438 H1457 0.913 . S
C1439 H1415 0.950 . S
C1439 C1438 1.524 . S
C1439 C1440 1.415 . S
C1440 H1416 0.950 1_545 S
C1440 C1435 1.363 . S
C1440 C1439 1.415 . S
C1441 H1417 0.951 . S
C1441 C1442 1.366 . S
C1441 C1443 1.388 . S
C1442 C1441 1.366 . S
C1442 C1446 1.385 . S
C1443 H1418 0.951 . S
C1443 C1441 1.388 . S
C1443 C1444 1.366 . S
C1444 C1443 1.366 . S
C1444 C1445 1.414 . S
C1444 C1447 1.499 . S
C1445 H1419 0.950 . S
C1445 C1444 1.414 . S
C1445 C1446 1.374 . S
C1446 H1420 0.950 . S
C1446 C1442 1.385 . S
C1446 C1445 1.374 . S
C1447 C1444 1.499 . S
C1447 C1448 1.373 . S
C1447 C1449 1.389 . S
C1448 H1421 0.950 . S
C1448 C1434 1.377 1_565 S
C1448 C1447 1.373 . S
C1449 C1433 1.377 . S
C1449 C1447 1.389 . S
C1449 C1450 1.524 . S
C1450 C1449 1.524 . S
C1450 C1451 1.397 . S
C1450 C1455 1.363 . S
C1451 H1422 0.950 . S
C1451 C1450 1.397 . S
C1451 C1452 1.334 . S
C1452 H1423 0.950 . S
C1452 C1451 1.334 . S
C1452 C1453 1.287 . S
C1453 C1452 1.287 . S
C1453 C1454 1.524 . S
C1453 H1456 0.999 . S
C1454 H1424 0.950 . S
C1454 C1453 1.524 . S
C1454 C1455 1.415 . S
C1455 H1425 0.950 . S
C1455 C1450 1.363 . S
C1455 C1454 1.415 . S
H1456 C1453 0.999 . S
H1457 C1438 0.913 . S
H1458 C1476 0.951 . S
H1459 C1478 0.951 . S
H1460 C1480 0.950 . S
H1461 C1481 0.950 . S
H1462 C1483 0.950 . S
H1463 C1486 0.950 . S
H1464 C1487 0.950 . S
H1465 C1489 0.950 . S
H1466 C1490 0.950 . S
H1467 C1491 0.951 . S
H1468 C1493 0.951 . S
H1469 C1495 0.950 . S
H1470 C1496 0.950 . S
H1471 C1498 0.950 . S
H1472 C1501 0.950 . S
H1473 C1502 0.950 . S
H1474 C1504 0.950 . S
H1475 C1505 0.950 . S
C1476 H1458 0.951 . S
C1476 C1477 1.366 . S
C1476 C1478 1.388 . S
C1477 C1476 1.366 . S
C1477 C1481 1.385 . S
C1478 H1459 0.951 . S
C1478 C1476 1.388 . S
C1478 C1479 1.366 . S
C1479 C1478 1.366 . S
C1479 C1480 1.414 . S
C1479 C1482 1.499 . S
C1480 H1460 0.950 . S
C1480 C1479 1.414 . S
C1480 C1481 1.374 . S
C1481 H1461 0.950 . S
C1481 C1477 1.385 . S
C1481 C1480 1.374 . S
C1482 C1479 1.499 . S
C1482 C1483 1.373 . S
C1482 C1484 1.389 . S
C1483 H1462 0.950 . S
C1483 C1482 1.373 . S
C1483 C1499 1.377 . S
C1484 C1482 1.389 . S
C1484 C1485 1.524 . S
C1484 C1498 1.377 . S
C1485 C1484 1.524 . S
C1485 C1486 1.397 . S
C1485 C1490 1.363 . S
C1486 H1463 0.950 . S
C1486 C1485 1.397 . S
C1486 C1487 1.334 . S
C1487 H1464 0.950 . S
C1487 C1486 1.334 . S
C1487 C1488 1.287 . S
C1488 C1487 1.287 . S
C1488 C1489 1.524 . S
C1488 H1507 0.913 . S
C1489 H1465 0.950 . S
C1489 C1488 1.524 . S
C1489 C1490 1.415 . S
C1490 H1466 0.950 . S
C1490 C1485 1.363 . S
C1490 C1489 1.415 . S
C1491 H1467 0.951 . S
C1491 C1492 1.366 . S
C1491 C1493 1.388 . S
C1492 C1491 1.366 . S
C1492 C1496 1.385 . S
C1493 H1468 0.951 . S
C1493 C1491 1.388 . S
C1493 C1494 1.366 . S
C1494 C1493 1.366 . S
C1494 C1495 1.414 . S
C1494 C1497 1.499 . S
C1495 H1469 0.950 . S
C1495 C1494 1.414 . S
C1495 C1496 1.374 . S
C1496 H1470 0.950 . S
C1496 C1492 1.385 . S
C1496 C1495 1.374 . S
C1497 C1494 1.499 . S
C1497 C1498 1.373 . S
C1497 C1499 1.389 . S
C1498 H1471 0.950 . S
C1498 C1484 1.377 . S
C1498 C1497 1.373 . S
C1499 C1483 1.377 . S
C1499 C1497 1.389 . S
C1499 C1500 1.524 . S
C1500 C1499 1.524 . S
C1500 C1501 1.397 . S
C1500 C1505 1.363 . S
C1501 H1472 0.950 . S
C1501 C1500 1.397 . S
C1501 C1502 1.334 . S
C1502 H1473 0.950 . S
C1502 C1501 1.334 . S
C1502 C1503 1.287 . S
C1503 C1502 1.287 . S
C1503 C1504 1.524 . S
C1503 H1506 0.999 . S
C1504 H1474 0.950 . S
C1504 C1503 1.524 . S
C1504 C1505 1.415 . S
C1505 H1475 0.950 . S
C1505 C1500 1.363 . S
C1505 C1504 1.415 . S
H1506 C1503 0.999 . S
H1507 C1488 0.913 . S
H1508 C1526 0.951 . S
H1509 C1528 0.951 . S
H1510 C1530 0.950 . S
H1511 C1531 0.950 . S
H1512 C1533 0.950 . S
H1513 C1536 0.950 . S
H1514 C1537 0.950 . S
H1515 C1539 0.950 . S
H1516 C1540 0.950 . S
H1517 C1541 0.951 . S
H1518 C1543 0.951 . S
H1519 C1545 0.950 . S
H1520 C1546 0.950 . S
H1521 C1548 0.950 . S
H1522 C1551 0.950 . S
H1523 C1552 0.950 . S
H1524 C1554 0.950 . S
H1525 C1555 0.950 1_556 S
C1526 H1508 0.951 . S
C1526 C1527 1.366 . S
C1526 C1528 1.388 . S
C1527 C1526 1.366 . S
C1527 C1531 1.385 . S
C1528 H1509 0.951 . S
C1528 C1526 1.388 . S
C1528 C1529 1.366 . S
C1529 C1528 1.366 . S
C1529 C1530 1.414 . S
C1529 C1532 1.499 . S
C1530 H1510 0.950 . S
C1530 C1529 1.414 . S
C1530 C1531 1.374 . S
C1531 H1511 0.950 . S
C1531 C1527 1.385 . S
C1531 C1530 1.374 . S
C1532 C1529 1.499 . S
C1532 C1533 1.365 1_545 S
C1532 C1534 1.389 1_556 S
C1533 H1512 0.950 . S
C1533 C1532 1.365 1_565 S
C1533 C1549 1.386 1_556 S
C1534 C1532 1.389 1_554 S
C1534 C1535 1.524 1_554 S
C1534 C1548 1.377 1_545 S
C1535 C1534 1.524 1_556 S
C1535 C1536 1.397 . S
C1535 C1540 1.363 1_556 S
C1536 H1513 0.950 . S
C1536 C1535 1.397 . S
C1536 C1537 1.334 . S
C1537 H1514 0.950 . S
C1537 C1536 1.334 . S
C1537 C1538 1.287 . S
C1538 C1537 1.287 . S
C1538 C1539 1.524 1_556 S
C1538 H1557 0.913 . S
C1539 H1515 0.950 . S
C1539 C1538 1.524 1_554 S
C1539 C1540 1.415 . S
C1540 H1516 0.950 . S
C1540 C1535 1.363 1_554 S
C1540 C1539 1.415 . S
C1541 H1517 0.951 . S
C1541 C1542 1.366 . S
C1541 C1543 1.388 . S
C1542 C1541 1.366 . S
C1542 C1546 1.385 . S
C1543 H1518 0.951 . S
C1543 C1541 1.388 . S
C1543 C1544 1.366 . S
C1544 C1543 1.366 . S
C1544 C1545 1.414 . S
C1544 C1547 1.499 . S
C1545 H1519 0.950 . S
C1545 C1544 1.414 . S
C1545 C1546 1.374 . S
C1546 H1520 0.950 . S
C1546 C1542 1.385 . S
C1546 C1545 1.374 . S
C1547 C1544 1.499 . S
C1547 C1548 1.373 . S
C1547 C1549 1.389 . S
C1548 H1521 0.950 . S
C1548 C1534 1.377 1_565 S
C1548 C1547 1.373 . S
C1549 C1533 1.386 1_554 S
C1549 C1547 1.389 . S
C1549 C1550 1.524 . S
C1550 C1549 1.524 . S
C1550 C1551 1.397 . S
C1550 C1555 1.363 . S
C1551 H1522 0.950 . S
C1551 C1550 1.397 . S
C1551 C1552 1.334 . S
C1552 H1523 0.950 . S
C1552 C1551 1.334 . S
C1552 C1553 1.287 . S
C1553 C1552 1.287 . S
C1553 C1554 1.524 . S
C1553 H1556 0.999 . S
C1554 H1524 0.950 . S
C1554 C1553 1.524 . S
C1554 C1555 1.415 . S
C1555 H1525 0.950 1_554 S
C1555 C1550 1.363 . S
C1555 C1554 1.415 . S
H1556 C1553 0.999 . S
H1557 C1538 0.913 . S
H1558 C1576 0.951 . S
H1559 C1578 0.951 . S
H1560 C1580 0.950 . S
H1561 C1581 0.950 . S
H1562 C1583 0.950 . S
H1563 C1586 0.950 . S
H1564 C1587 0.950 . S
H1565 C1589 0.950 . S
H1566 C1590 0.950 . S
H1567 C1591 0.951 . S
H1568 C1593 0.951 . S
H1569 C1595 0.950 . S
H1570 C1596 0.950 . S
H1571 C1598 0.950 . S
H1572 C1601 0.950 . S
H1573 C1602 0.950 . S
H1574 C1604 0.950 . S
H1575 C1605 0.950 . S
C1576 H1558 0.951 . S
C1576 C1577 1.366 . S
C1576 C1578 1.388 . S
C1577 C1576 1.366 . S
C1577 C1581 1.385 . S
C1578 H1559 0.951 . S
C1578 C1576 1.388 . S
C1578 C1579 1.366 . S
C1579 C1578 1.366 . S
C1579 C1580 1.414 . S
C1579 C1582 1.499 . S
C1580 H1560 0.950 . S
C1580 C1579 1.414 . S
C1580 C1581 1.374 . S
C1581 H1561 0.950 . S
C1581 C1577 1.385 . S
C1581 C1580 1.374 . S
C1582 C1579 1.499 . S
C1582 C1583 1.373 . S
C1582 C1584 1.389 . S
C1583 H1562 0.950 . S
C1583 C1582 1.373 . S
C1583 C1599 1.377 . S
C1584 C1582 1.389 . S
C1584 C1585 1.524 . S
C1584 C1598 1.377 . S
C1585 C1584 1.524 . S
C1585 C1586 1.397 . S
C1585 C1590 1.363 . S
C1586 H1563 0.950 . S
C1586 C1585 1.397 . S
C1586 C1587 1.334 . S
C1587 H1564 0.950 . S
C1587 C1586 1.334 . S
C1587 C1588 1.287 . S
C1588 C1587 1.287 . S
C1588 C1589 1.524 . S
C1588 H1607 0.913 . S
C1589 H1565 0.950 . S
C1589 C1588 1.524 . S
C1589 C1590 1.415 . S
C1590 H1566 0.950 . S
C1590 C1585 1.363 . S
C1590 C1589 1.415 . S
C1591 H1567 0.951 . S
C1591 C1592 1.366 . S
C1591 C1593 1.388 . S
C1592 C1591 1.366 . S
C1592 C1596 1.385 . S
C1593 H1568 0.951 . S
C1593 C1591 1.388 . S
C1593 C1594 1.366 . S
C1594 C1593 1.366 . S
C1594 C1595 1.414 . S
C1594 C1597 1.499 . S
C1595 H1569 0.950 . S
C1595 C1594 1.414 . S
C1595 C1596 1.374 . S
C1596 H1570 0.950 . S
C1596 C1592 1.385 . S
C1596 C1595 1.374 . S
C1597 C1594 1.499 . S
C1597 C1598 1.373 . S
C1597 C1599 1.389 . S
C1598 H1571 0.950 . S
C1598 C1584 1.377 . S
C1598 C1597 1.373 . S
C1599 C1583 1.377 . S
C1599 C1597 1.389 . S
C1599 C1600 1.524 . S
C1600 C1599 1.524 . S
C1600 C1601 1.397 . S
C1600 C1605 1.363 . S
C1601 H1572 0.950 . S
C1601 C1600 1.397 . S
C1601 C1602 1.334 . S
C1602 H1573 0.950 . S
C1602 C1601 1.334 . S
C1602 C1603 1.287 . S
C1603 C1602 1.287 . S
C1603 C1604 1.524 . S
C1603 H1606 0.999 . S
C1604 H1574 0.950 . S
C1604 C1603 1.524 . S
C1604 C1605 1.415 . S
C1605 H1575 0.950 . S
C1605 C1600 1.363 . S
C1605 C1604 1.415 . S
H1606 C1603 0.999 . S
H1607 C1588 0.913 . S
H1608 C1626 0.951 . S
H1609 C1628 0.951 1_565 S
H1610 C1630 0.950 . S
H1611 C1631 0.950 . S
H1612 C1633 0.950 . S
H1613 C1636 0.950 1_545 S
H1614 C1637 0.947 1_545 S
H1615 C1639 0.950 . S
H1616 C1640 0.950 . S
H1617 C1641 0.951 . S
H1618 C1643 0.951 1_545 S
H1619 C1645 0.950 . S
H1620 C1646 0.950 . S
H1621 C1648 0.950 . S
H1622 C1651 0.950 1_565 S
H1623 C1652 0.950 . S
H1624 C1654 0.950 . S
H1625 C1655 0.950 . S
C1626 H1608 0.951 . S
C1626 C1627 1.366 . S
C1626 C1628 1.388 . S
C1627 C1626 1.366 . S
C1627 C1631 1.385 . S
C1628 H1609 0.951 1_545 S
C1628 C1626 1.388 . S
C1628 C1629 1.366 . S
C1629 C1628 1.366 . S
C1629 C1630 1.414 . S
C1629 C1632 1.499 . S
C1630 H1610 0.950 . S
C1630 C1629 1.414 . S
C1630 C1631 1.374 . S
C1631 H1611 0.950 . S
C1631 C1627 1.385 . S
C1631 C1630 1.374 . S
C1632 C1629 1.499 . S
C1632 C1633 1.373 . S
C1632 C1634 1.389 1_545 S
C1633 H1612 0.950 . S
C1633 C1632 1.373 . S
C1633 C1649 1.377 . S
C1634 C1632 1.389 1_565 S
C1634 C1635 1.524 . S
C1634 C1648 1.377 . S
C1635 C1634 1.524 . S
C1635 C1636 1.397 . S
C1635 C1640 1.363 . S
C1636 H1613 0.950 1_565 S
C1636 C1635 1.397 . S
C1636 C1637 1.334 . S
C1637 H1614 0.947 1_565 S
C1637 C1636 1.334 . S
C1637 C1638 1.287 . S
C1638 C1637 1.287 . S
C1638 C1639 1.524 . S
C1638 H1657 0.913 . S
C1639 H1615 0.950 . S
C1639 C1638 1.524 . S
C1639 C1640 1.415 . S
C1640 H1616 0.950 . S
C1640 C1635 1.363 . S
C1640 C1639 1.415 . S
C1641 H1617 0.951 . S
C1641 C1642 1.366 . S
C1641 C1643 1.388 . S
C1642 C1641 1.366 . S
C1642 C1646 1.385 . S
C1643 H1618 0.951 1_565 S
C1643 C1641 1.388 . S
C1643 C1644 1.366 . S
C1644 C1643 1.366 . S
C1644 C1645 1.414 . S
C1644 C1647 1.499 . S
C1645 H1619 0.950 . S
C1645 C1644 1.414 . S
C1645 C1646 1.374 . S
C1646 H1620 0.950 . S
C1646 C1642 1.385 . S
C1646 C1645 1.374 . S
C1647 C1644 1.499 . S
C1647 C1648 1.373 . S
C1647 C1649 1.389 1_565 S
C1648 H1621 0.950 . S
C1648 C1634 1.377 . S
C1648 C1647 1.373 . S
C1649 C1633 1.377 . S
C1649 C1647 1.389 1_545 S
C1649 C1650 1.524 . S
C1650 C1649 1.524 . S
C1650 C1651 1.397 . S
C1650 C1655 1.363 . S
C1651 H1622 0.950 1_545 S
C1651 C1650 1.397 . S
C1651 C1652 1.334 . S
C1652 H1623 0.950 . S
C1652 C1651 1.334 . S
C1652 C1653 1.287 . S
C1653 C1652 1.287 . S
C1653 C1654 1.524 . S
C1653 H1656 0.999 . S
C1654 H1624 0.950 . S
C1654 C1653 1.524 . S
C1654 C1655 1.415 . S
C1655 H1625 0.950 . S
C1655 C1650 1.363 . S
C1655 C1654 1.415 . S
H1656 C1653 0.999 . S
H1657 C1638 0.913 . S
H1658 C1676 0.951 . S
H1659 C1678 0.951 . S
H1660 C1680 0.950 . S
H1661 C1681 0.950 . S
H1662 C1683 0.950 . S
H1663 C1686 0.950 . S
H1664 C1687 0.950 . S
H1665 C1689 0.950 . S
H1666 C1690 0.950 . S
H1667 C1691 0.951 . S
H1668 C1693 0.951 . S
H1669 C1695 0.950 . S
H1670 C1696 0.950 . S
H1671 C1698 0.950 . S
H1672 C1701 0.950 . S
H1673 C1702 0.950 . S
H1674 C1704 0.950 . S
H1675 C1705 0.950 . S
C1676 H1658 0.951 . S
C1676 C1677 1.366 . S
C1676 C1678 1.388 . S
C1677 C1676 1.366 . S
C1677 C1681 1.385 . S
C1678 H1659 0.951 . S
C1678 C1676 1.388 . S
C1678 C1679 1.366 . S
C1679 C1678 1.366 . S
C1679 C1680 1.414 . S
C1679 C1682 1.499 . S
C1680 H1660 0.950 . S
C1680 C1679 1.414 . S
C1680 C1681 1.374 . S
C1681 H1661 0.950 . S
C1681 C1677 1.385 . S
C1681 C1680 1.374 . S
C1682 C1679 1.499 . S
C1682 C1683 1.373 . S
C1682 C1684 1.389 . S
C1683 H1662 0.950 . S
C1683 C1682 1.373 . S
C1683 C1699 1.377 . S
C1684 C1682 1.389 . S
C1684 C1685 1.524 . S
C1684 C1698 1.377 . S
C1685 C1684 1.524 . S
C1685 C1686 1.397 . S
C1685 C1690 1.363 . S
C1686 H1663 0.950 . S
C1686 C1685 1.397 . S
C1686 C1687 1.334 . S
C1687 H1664 0.950 . S
C1687 C1686 1.334 . S
C1687 C1688 1.287 . S
C1688 C1687 1.287 . S
C1688 C1689 1.524 . S
C1688 H1707 0.913 . S
C1689 H1665 0.950 . S
C1689 C1688 1.524 . S
C1689 C1690 1.415 . S
C1690 H1666 0.950 . S
C1690 C1685 1.363 . S
C1690 C1689 1.415 . S
C1691 H1667 0.951 . S
C1691 C1692 1.366 . S
C1691 C1693 1.388 . S
C1692 C1691 1.366 . S
C1692 C1696 1.385 . S
C1693 H1668 0.951 . S
C1693 C1691 1.388 . S
C1693 C1694 1.366 . S
C1694 C1693 1.366 . S
C1694 C1695 1.414 . S
C1694 C1697 1.499 . S
C1695 H1669 0.950 . S
C1695 C1694 1.414 . S
C1695 C1696 1.374 . S
C1696 H1670 0.950 . S
C1696 C1692 1.385 . S
C1696 C1695 1.374 . S
C1697 C1694 1.499 . S
C1697 C1698 1.373 . S
C1697 C1699 1.389 . S
C1698 H1671 0.950 . S
C1698 C1684 1.377 . S
C1698 C1697 1.373 . S
C1699 C1683 1.377 . S
C1699 C1697 1.389 . S
C1699 C1700 1.524 . S
C1700 C1699 1.524 . S
C1700 C1701 1.397 . S
C1700 C1705 1.363 . S
C1701 H1672 0.950 . S
C1701 C1700 1.397 . S
C1701 C1702 1.334 . S
C1702 H1673 0.950 . S
C1702 C1701 1.334 . S
C1702 C1703 1.287 . S
C1703 C1702 1.287 . S
C1703 C1704 1.524 . S
C1703 H1706 0.999 . S
C1704 H1674 0.950 . S
C1704 C1703 1.524 . S
C1704 C1705 1.415 . S
C1705 H1675 0.950 . S
C1705 C1700 1.363 . S
C1705 C1704 1.415 . S
H1706 C1703 0.999 . S
H1707 C1688 0.913 . S
H1708 C1726 0.951 . S
H1709 C1728 0.951 . S
H1710 C1730 0.950 . S
H1711 C1731 0.950 . S
H1712 C1733 0.950 1_554 S
H1713 C1736 0.950 . S
H1714 C1737 0.950 . S
H1715 C1739 0.950 . S
H1716 C1740 0.950 . S
H1717 C1741 0.951 . S
H1718 C1743 0.951 . S
H1719 C1745 0.950 . S
H1720 C1746 0.950 . S
H1721 C1748 0.950 . S
H1722 C1751 0.950 . S
H1723 C1752 0.950 . S
H1724 C1754 0.950 1_565 S
H1725 C1755 0.950 . S
C1726 H1708 0.951 . S
C1726 C1727 1.366 . S
C1726 C1728 1.388 . S
C1727 C1726 1.366 . S
C1727 C1731 1.385 . S
C1728 H1709 0.951 . S
C1728 C1726 1.388 . S
C1728 C1729 1.366 . S
C1729 C1728 1.366 . S
C1729 C1730 1.414 . S
C1729 C1732 1.499 . S
C1730 H1710 0.950 . S
C1730 C1729 1.414 . S
C1730 C1731 1.374 . S
C1731 H1711 0.950 . S
C1731 C1727 1.385 . S
C1731 C1730 1.374 . S
C1732 C1729 1.499 . S
C1732 C1733 1.373 1_554 S
C1732 C1734 1.389 . S
C1733 H1712 0.950 1_556 S
C1733 C1732 1.373 1_556 S
C1733 C1749 1.377 1_565 S
C1734 C1732 1.389 . S
C1734 C1735 1.524 . S
C1734 C1748 1.377 1_564 S
C1735 C1734 1.524 . S
C1735 C1736 1.397 . S
C1735 C1740 1.363 1_565 S
C1736 H1713 0.950 . S
C1736 C1735 1.397 . S
C1736 C1737 1.334 . S
C1737 H1714 0.950 . S
C1737 C1736 1.334 . S
C1737 C1738 1.287 . S
C1738 C1737 1.287 . S
C1738 C1739 1.524 1_565 S
C1738 H1757 0.913 . S
C1739 H1715 0.950 . S
C1739 C1738 1.524 1_545 S
C1739 C1740 1.415 . S
C1740 H1716 0.950 . S
C1740 C1735 1.363 1_545 S
C1740 C1739 1.415 . S
C1741 H1717 0.951 . S
C1741 C1742 1.366 . S
C1741 C1743 1.388 . S
C1742 C1741 1.366 . S
C1742 C1746 1.385 . S
C1743 H1718 0.951 . S
C1743 C1741 1.388 . S
C1743 C1744 1.366 . S
C1744 C1743 1.366 . S
C1744 C1745 1.414 . S
C1744 C1747 1.499 . S
C1745 H1719 0.950 . S
C1745 C1744 1.414 . S
C1745 C1746 1.374 . S
C1746 H1720 0.950 . S
C1746 C1742 1.385 . S
C1746 C1745 1.374 . S
C1747 C1744 1.499 . S
C1747 C1748 1.373 . S
C1747 C1749 1.389 . S
C1748 H1721 0.950 . S
C1748 C1734 1.377 1_546 S
C1748 C1747 1.373 . S
C1749 C1733 1.377 1_545 S
C1749 C1747 1.389 . S
C1749 C1750 1.524 . S
C1750 C1749 1.524 . S
C1750 C1751 1.397 . S
C1750 C1755 1.363 1_545 S
C1751 H1722 0.950 . S
C1751 C1750 1.397 . S
C1751 C1752 1.334 . S
C1752 H1723 0.950 . S
C1752 C1751 1.334 . S
C1752 C1753 1.287 . S
C1753 C1752 1.287 . S
C1753 C1754 1.524 . S
C1753 H1756 0.999 . S
C1754 H1724 0.950 1_545 S
C1754 C1753 1.524 . S
C1754 C1755 1.415 1_545 S
C1755 H1725 0.950 . S
C1755 C1750 1.363 1_565 S
C1755 C1754 1.415 1_565 S
H1756 C1753 0.999 . S
H1757 C1738 0.913 . S
H1758 C1776 0.951 . S
H1759 C1778 0.951 . S
H1760 C1780 0.950 . S
H1761 C1781 0.950 . S
H1762 C1783 0.950 . S
H1763 C1786 0.950 . S
H1764 C1787 0.950 . S
H1765 C1789 0.950 . S
H1766 C1790 0.950 . S
H1767 C1791 0.951 . S
H1768 C1793 0.951 . S
H1769 C1795 0.950 . S
H1770 C1796 0.950 . S
H1771 C1798 0.950 . S
H1772 C1801 0.950 . S
H1773 C1802 0.950 . S
H1774 C1804 0.950 . S
H1775 C1805 0.950 . S
C1776 H1758 0.951 . S
C1776 C1777 1.366 . S
C1776 C1778 1.388 . S
C1777 C1776 1.366 . S
C1777 C1781 1.385 . S
C1778 H1759 0.951 . S
C1778 C1776 1.388 . S
C1778 C1779 1.366 . S
C1779 C1778 1.366 . S
C1779 C1780 1.414 . S
C1779 C1782 1.499 . S
C1780 H1760 0.950 . S
C1780 C1779 1.414 . S
C1780 C1781 1.374 . S
C1781 H1761 0.950 . S
C1781 C1777 1.385 . S
C1781 C1780 1.374 . S
C1782 C1779 1.499 . S
C1782 C1783 1.373 . S
C1782 C1784 1.389 . S
C1783 H1762 0.950 . S
C1783 C1782 1.373 . S
C1783 C1799 1.377 . S
C1784 C1782 1.389 . S
C1784 C1785 1.524 . S
C1784 C1798 1.377 . S
C1785 C1784 1.524 . S
C1785 C1786 1.397 . S
C1785 C1790 1.363 . S
C1786 H1763 0.950 . S
C1786 C1785 1.397 . S
C1786 C1787 1.334 . S
C1787 H1764 0.950 . S
C1787 C1786 1.334 . S
C1787 C1788 1.287 . S
C1788 C1787 1.287 . S
C1788 C1789 1.524 . S
C1788 H1807 0.913 . S
C1789 H1765 0.950 . S
C1789 C1788 1.524 . S
C1789 C1790 1.415 . S
C1790 H1766 0.950 . S
C1790 C1785 1.363 . S
C1790 C1789 1.415 . S
C1791 H1767 0.951 . S
C1791 C1792 1.366 . S
C1791 C1793 1.388 . S
C1792 C1791 1.366 . S
C1792 C1796 1.385 . S
C1793 H1768 0.951 . S
C1793 C1791 1.388 . S
C1793 C1794 1.366 . S
C1794 C1793 1.366 . S
C1794 C1795 1.414 . S
C1794 C1797 1.499 . S
C1795 H1769 0.950 . S
C1795 C1794 1.414 . S
C1795 C1796 1.374 . S
C1796 H1770 0.950 . S
C1796 C1792 1.385 . S
C1796 C1795 1.374 . S
C1797 C1794 1.499 . S
C1797 C1798 1.373 . S
C1797 C1799 1.389 . S
C1798 H1771 0.950 . S
C1798 C1784 1.377 . S
C1798 C1797 1.373 . S
C1799 C1783 1.377 . S
C1799 C1797 1.389 . S
C1799 C1800 1.524 . S
C1800 C1799 1.524 . S
C1800 C1801 1.397 . S
C1800 C1805 1.363 . S
C1801 H1772 0.950 . S
C1801 C1800 1.397 . S
C1801 C1802 1.334 . S
C1802 H1773 0.950 . S
C1802 C1801 1.334 . S
C1802 C1803 1.287 . S
C1803 C1802 1.287 . S
C1803 C1804 1.524 . S
C1803 H1806 0.999 . S
C1804 H1774 0.950 . S
C1804 C1803 1.524 . S
C1804 C1805 1.415 . S
C1805 H1775 0.950 . S
C1805 C1800 1.363 . S
C1805 C1804 1.415 . S
H1806 C1803 0.999 . S
H1807 C1788 0.913 . S
C227 C148 1.381 . S
C242 C8 1.374 . S
C277 C200 1.302 . S
C292 C18 1.307 . S
C327 C31 1.337 . S
C342 C125 1.328 . S
C377 C174 1.278 . S
C392 C47 1.280 . S
C427 C60 1.386 . S
C442 C177 1.394 . S
C477 C70 1.274 . S
C492 C151 1.275 . S
C527 C83 1.316 . S
C542 C203 1.312 . S
C577 C96 1.277 . S
C592 C122 1.277 . S
C627 C44 1.393 . S
C642 C112 1.389 . S
C677 C138 1.384 . S
C692 C21 1.382 . S
C727 C164 1.389 . S
C742 C73 1.393 . S
C777 C187 1.424 . S
C792 C99 1.415 . S
C827 C57 1.380 . S
C842 C109 1.378 . S
C877 C135 1.274 . S
C892 C86 1.275 . S
C927 C190 1.332 . S
C942 C34 1.333 . S
C977 C5 1.316 . S
C992 C161 1.314 . S
C1027 C10 1.052 . S
C1042 C62 1.054 . S
C1077 C13 1.017 . S
C1092 C65 1.015 . S
C1127 C26 1.033 . S
C1142 C78 1.032 . S
C1177 C91 0.982 . S
C1192 C49 0.980 . S
C1227 C114 1.026 . S
C1242 C166 1.029 . S
C1277 C169 0.928 . S
C1292 C117 0.930 . S
C1327 C140 1.191 . S
C1342 C182 1.195 . S
C1377 C195 0.984 . S
C1392 C153 0.983 . S
C1427 C101 1.018 . S
C1442 C23 1.020 . S
C1477 C36 1.085 . S
C1492 C52 1.081 . S
C1527 C39 1.101 . S
C1542 C75 1.098 . S
C1577 C0 0.945 . S
C1592 C88 0.944 . S
C1627 C127 1.002 . S
C1642 C205 0.999 . S
C1677 C156 1.047 . S
C1692 C130 1.046 . S
C1727 C143 1.074 . S
C1742 C179 1.072 . S
C1777 C192 1.020 . S
C1792 C104 1.017 . S
