# Generated by pormake.
# Topology vby, (6)-cn, num edge types: 1
# Building blocks:
#     Node 0, Type 0, BuildingBlock: HISSIN_clean_sbu_0, # of connection points: 6
#     Node 1, Type 0, BuildingBlock: HISSIN_clean_sbu_0, # of connection points: 6
#     Node 2, Type 0, BuildingBlock: HISSIN_clean_sbu_0, # of connection points: 6
#     Node 3, Type 0, BuildingBlock: HISSIN_clean_sbu_0, # of connection points: 6
#     Node 4, Type 0, BuildingBlock: HISSIN_clean_sbu_0, # of connection points: 6
#     Node 5, Type 0, BuildingBlock: HISSIN_clean_sbu_0, # of connection points: 6
#     Node 6, Type 0, BuildingBlock: HISSIN_clean_sbu_0, # of connection points: 6
#     Node 7, Type 0, BuildingBlock: HISSIN_clean_sbu_0, # of connection points: 6
#     Edge 8, Type (0, 0), BuildingBlock: OJICUG_clean_linker_0, # of connection points: 2
#     Edge 9, Type (0, 0), BuildingBlock: OJICUG_clean_linker_0, # of connection points: 2
#     Edge 10, Type (0, 0), BuildingBlock: OJICUG_clean_linker_0, # of connection points: 2
#     Edge 11, Type (0, 0), BuildingBlock: OJICUG_clean_linker_0, # of connection points: 2
#     Edge 12, Type (0, 0), BuildingBlock: OJICUG_clean_linker_0, # of connection points: 2
#     Edge 13, Type (0, 0), BuildingBlock: OJICUG_clean_linker_0, # of connection points: 2
#     Edge 14, Type (0, 0), BuildingBlock: OJICUG_clean_linker_0, # of connection points: 2
#     Edge 15, Type (0, 0), BuildingBlock: OJICUG_clean_linker_0, # of connection points: 2
#     Edge 16, Type (0, 0), BuildingBlock: OJICUG_clean_linker_0, # of connection points: 2
#     Edge 17, Type (0, 0), BuildingBlock: OJICUG_clean_linker_0, # of connection points: 2
#     Edge 18, Type (0, 0), BuildingBlock: OJICUG_clean_linker_0, # of connection points: 2
#     Edge 19, Type (0, 0), BuildingBlock: OJICUG_clean_linker_0, # of connection points: 2
#     Edge 20, Type (0, 0), BuildingBlock: OJICUG_clean_linker_0, # of connection points: 2
#     Edge 21, Type (0, 0), BuildingBlock: OJICUG_clean_linker_0, # of connection points: 2
#     Edge 22, Type (0, 0), BuildingBlock: OJICUG_clean_linker_0, # of connection points: 2
#     Edge 23, Type (0, 0), BuildingBlock: OJICUG_clean_linker_0, # of connection points: 2
#     Edge 24, Type (0, 0), BuildingBlock: OJICUG_clean_linker_0, # of connection points: 2
#     Edge 25, Type (0, 0), BuildingBlock: OJICUG_clean_linker_0, # of connection points: 2
#     Edge 26, Type (0, 0), BuildingBlock: OJICUG_clean_linker_0, # of connection points: 2
#     Edge 27, Type (0, 0), BuildingBlock: OJICUG_clean_linker_0, # of connection points: 2
#     Edge 28, Type (0, 0), BuildingBlock: OJICUG_clean_linker_0, # of connection points: 2
#     Edge 29, Type (0, 0), BuildingBlock: OJICUG_clean_linker_0, # of connection points: 2
#     Edge 30, Type (0, 0), BuildingBlock: OJICUG_clean_linker_0, # of connection points: 2
#     Edge 31, Type (0, 0), BuildingBlock: OJICUG_clean_linker_0, # of connection points: 2
# Relax obj value: 0.200
# Max RMSD: 0.225
# Mean RMSD: 0.225
data_MOF--net-vby--node1-HISSIN_clean_sbu_0--edge1-OJICUG_clean_linker_0
_symmetry_space_group_name_H-M    P1
_symmetry_Int_Tables_number       1
_symmetry_cell_setting            triclinic
loop_
_symmetry_equiv_pos_as_xyz
'x, y, z'
_cell_length_a     11.330063
_cell_length_b     87.060515
_cell_length_c     22.291556
_cell_angle_alpha  89.969499
_cell_angle_beta   89.396129
_cell_angle_gamma 90.126095
loop_
_atom_site_label
_atom_site_type_symbol
_atom_site_fract_x
_atom_site_fract_y
_atom_site_fract_z
_atom_type_partial_charge
Eu0 Eu 1.02263 0.37494 0.96763 0.0
Eu1 Eu 1.0301 0.41294 0.96944 0.0
C2 C 1.03756 0.39458 0.84788 0.0
C3 C 0.07058 0.33086 0.97332 0.0
C4 C 0.19428 0.33064 0.97348 0.0
C5 C 0.06666 0.30318 0.98411 0.0
C6 C 0.254 0.31667 0.97799 0.0
C7 C 1.00722 0.31712 0.97949 0.0
C8 C 0.19063 0.30278 0.98252 0.0
C9 C 1.00537 0.34505 0.96276 0.0
O10 O 0.83832 0.40711 0.95529 0.0
O11 O 0.83703 0.38206 -0.01212 0.0
C12 C 0.78187 0.39455 0.97154 0.0
O13 O 0.07596 0.38204 0.06095 0.0
O14 O 0.98783 0.43477 0.92625 0.0
O15 O 0.0956 0.43428 0.00683 0.0
O16 O 0.98735 0.40574 0.06386 0.0
C17 C 1.03556 0.39396 0.09102 0.0
O18 O 0.2163 0.38018 0.95585 0.0
O19 O 0.21715 0.40567 0.98382 0.0
O20 O 0.09068 0.40525 0.87864 0.0
O21 O 0.97439 0.35308 0.00967 0.0
O22 O 1.04219 0.35358 0.91823 0.0
O23 O 0.97936 0.38351 0.87493 0.0
C24 C 1.01447 0.4586 0.97903 0.0
C25 C 1.04933 0.46544 0.03313 0.0
C26 C 0.96881 0.48382 0.93925 0.0
C27 C 1.04835 0.48138 0.03927 0.0
C28 C 0.96998 0.46789 0.93307 0.0
C29 C 1.01288 0.49072 -0.00863 0.0
C30 C 1.04818 0.4427 0.96511 0.0
C31 C 0.27226 0.39293 0.96977 0.0
H32 H 0.24436 0.3412 0.9689 0.0
H33 H 1.01547 0.29268 -0.0131 0.0
H34 H 0.3496 0.31671 0.97748 0.0
H35 H 0.91157 0.31714 0.97916 0.0
H36 H 0.08503 0.45858 0.06919 0.0
H37 H 0.93871 0.49076 0.9021 0.0
H38 H 0.08311 0.48638 0.07993 0.0
H39 H 0.94343 0.46292 0.89073 0.0
Eu40 Eu 0.06977 0.63363 0.02542 0.0
Eu41 Eu 0.07712 0.67159 0.03014 0.0
C42 C 0.06338 0.65332 0.90513 0.0
C43 C 0.09102 0.5881 0.01318 0.0
C44 C 0.0567 0.58117 0.95918 0.0
C45 C 0.14327 0.56304 0.0524 0.0
C46 C 0.06118 0.56524 0.95284 0.0
C47 C 0.13874 0.57896 0.05876 0.0
C48 C 0.09949 0.55601 0.0005 0.0
C49 C 1.05333 0.60384 0.02742 0.0
O50 O 0.88317 0.6663 0.04027 0.0
O51 O 0.88237 0.64083 0.01195 0.0
C52 C 0.8273 0.65357 0.02606 0.0
O53 O 1.00792 0.64085 0.11668 0.0
O54 O 0.13023 0.69362 -0.00871 0.0
O55 O 1.053 0.69269 0.08077 0.0
O56 O 0.11981 0.6625 0.1222 0.0
C57 C 0.06078 0.65136 0.14839 0.0
O58 O 0.26133 0.6394 0.04034 0.0
O59 O 0.26252 0.66454 0.00906 0.0
O60 O 1.02386 0.66515 0.93607 0.0
O61 O 0.10945 0.6117 0.06808 0.0
O62 O 1.00864 0.61237 -0.01476 0.0
O63 O 0.1113 0.64138 0.9314 0.0
C64 C 1.0308 0.71568 0.02649 0.0
C65 C 0.90759 0.71588 0.02155 0.0
C66 C 1.03588 0.74338 0.01695 0.0
C67 C 0.84856 0.72984 0.01511 0.0
C68 C 0.0946 0.72944 0.0235 0.0
C69 C 0.91218 0.74375 0.01338 0.0
C70 C 0.09461 0.70143 0.03793 0.0
C71 C 0.31776 0.652 0.02469 0.0
H72 H 1.01854 0.5879 0.92343 0.0
H73 H 0.17538 0.55619 0.08936 0.0
H74 H 1.02654 0.56013 0.91237 0.0
H75 H 0.16503 0.58398 0.10103 0.0
H76 H 0.85723 0.70529 0.02361 0.0
H77 H 0.08711 0.7539 0.01641 0.0
H78 H 0.75327 0.72978 0.01166 0.0
H79 H 0.18986 0.72944 0.0275 0.0
Eu80 Eu 0.98521 0.63113 0.52947 0.0
Eu81 Eu 0.98223 0.66936 0.52292 0.0
C82 C 1.00273 0.65202 0.64794 0.0
C83 C 1.04342 0.58721 0.51397 0.0
C84 C 0.09391 0.57725 0.55596 0.0
C85 C 0.08589 0.56855 0.43537 0.0
C86 C 0.13786 0.56296 0.53816 0.0
C87 C 1.04235 0.58289 0.45317 0.0
C88 C 0.13146 0.55827 0.47792 0.0
C89 C 0.98162 0.60113 0.53552 0.0
O90 O 0.17587 0.66382 0.51466 0.0
O91 O 0.17688 0.63762 0.53333 0.0
C92 C 0.23154 0.65075 0.52362 0.0
O93 O 1.04556 0.63728 0.43615 0.0
O94 O 0.93922 0.69189 0.56075 0.0
O95 O 0.99855 0.68988 0.46814 0.0
O96 O 0.94297 0.6598 0.43159 0.0
C97 C 1.0018 0.64871 0.40527 0.0
O98 O 0.79818 0.63793 0.50917 0.0
O99 O 0.79761 0.66229 0.54767 0.0
O100 O 1.0427 0.66356 0.61571 0.0
O101 O 1.03581 0.60981 0.57428 0.0
O102 O 0.92186 0.60909 0.49664 0.0
O103 O 0.95109 0.6401 0.62313 0.0
C104 C 1.03266 0.71353 0.51622 0.0
C105 C 0.15547 0.714 0.50781 0.0
C106 C 1.02822 0.74131 0.52187 0.0
C107 C 0.21408 0.72814 0.50528 0.0
C108 C 0.96983 0.72721 0.52425 0.0
C109 C 0.15063 0.74194 0.51125 0.0
C110 C 0.96649 0.69913 0.51127 0.0
C111 C 0.7416 0.65014 0.52825 0.0
H112 H 0.09492 0.58024 0.60313 0.0
H113 H 0.0808 0.56532 0.38854 0.0
H114 H 0.17082 0.55526 0.57224 0.0
H115 H 1.00422 0.59033 0.41961 0.0
H116 H 0.20533 0.70351 0.50162 0.0
H117 H 0.97677 0.75174 0.52604 0.0
H118 H 0.30873 0.72828 0.49791 0.0
H119 H 0.87481 0.72701 0.53039 0.0
Eu120 Eu 0.10487 0.37759 0.47251 0.0
Eu121 Eu 0.09954 0.41591 0.46908 0.0
C122 C 0.08818 0.39718 0.59087 0.0
C123 C 0.05456 0.33336 0.47407 0.0
C124 C 0.93193 0.33267 0.48299 0.0
C125 C 0.0606 0.30567 0.46396 0.0
C126 C 0.87422 0.31846 0.48354 0.0
C127 C 0.11807 0.31984 0.46356 0.0
C128 C 0.93843 0.3048 0.47504 0.0
C129 C 0.12008 0.34775 0.48097 0.0
O130 O 0.29001 0.40973 0.48423 0.0
O131 O 0.29 0.38482 0.45003 0.0
C132 C 0.34588 0.39724 0.46708 0.0
O133 O 1.04888 0.38407 0.37966 0.0
O134 O 0.13249 0.43757 0.51506 0.0
O135 O 1.0535 0.43768 0.42655 0.0
O136 O 0.13541 0.40797 0.3742 0.0
C137 C 0.08825 0.39584 0.34844 0.0
O138 O 0.91145 0.38319 0.48353 0.0
O139 O 0.91091 0.40887 0.45705 0.0
O140 O 1.0375 0.40814 0.56039 0.0
O141 O 0.14847 0.35534 0.43243 0.0
O142 O 0.08693 0.35669 0.5249 0.0
O143 O 0.15025 0.38659 0.56362 0.0
C144 C 0.14385 0.46119 0.45992 0.0
C145 C 0.12943 0.46857 0.40436 0.0
C146 C 0.21225 0.48534 0.50225 0.0
C147 C 0.1527 0.4843 0.3984 0.0
C148 C 0.18938 0.46964 0.50813 0.0
C149 C 0.18972 0.493 0.448 0.0
C150 C 0.09099 0.44591 0.47146 0.0
C151 C 0.8558 0.396 0.4703 0.0
H152 H 0.88153 0.34304 0.49109 0.0
H153 H 0.11264 0.29535 0.4579 0.0
H154 H 0.77973 0.31815 0.49133 0.0
H155 H 0.21296 0.3202 0.45699 0.0
H156 H 0.0938 0.46242 0.36639 0.0
H157 H 0.23928 0.49164 0.54168 0.0
H158 H 0.13624 0.48978 0.35569 0.0
H159 H 0.1999 0.46436 0.55176 0.0
Eu160 Eu 0.49865 0.87362 0.97429 0.0
Eu161 Eu 0.50615 0.91184 0.97463 0.0
C162 C 0.5096 0.89276 0.8543 0.0
C163 C 0.54852 0.8297 0.98352 0.0
C164 C 0.67168 0.82978 -0.01113 0.0
C165 C 0.54657 0.80206 -0.00436 0.0
C166 C 0.73228 0.81598 -0.00321 0.0
C167 C 0.4863 0.81583 -0.01235 0.0
C168 C 0.67027 0.80196 -0.00043 0.0
C169 C 0.48319 0.84373 0.97037 0.0
O170 O 0.31404 0.90597 0.96198 0.0
O171 O 0.31286 0.88082 -0.00603 0.0
C172 C 0.25776 0.89337 0.97803 0.0
O173 O 0.55138 0.88089 0.06699 0.0
O174 O 0.46538 0.93357 0.92971 0.0
O175 O 0.56959 0.93337 0.01163 0.0
O176 O 0.46371 0.90468 0.06938 0.0
C177 C 0.50989 0.89277 0.09673 0.0
O178 O 0.69202 0.87907 0.96183 0.0
O179 O 0.69306 0.9046 -0.01065 0.0
O180 O 0.56383 0.9036 0.88378 0.0
O181 O 0.44728 0.85188 0.01607 0.0
O182 O 0.52365 0.85215 0.92628 0.0
O183 O 0.45065 0.88199 0.88253 0.0
C184 C 0.49792 0.95793 0.97893 0.0
C185 C 0.52647 0.96503 0.03348 0.0
C186 C 0.46736 0.98307 0.93444 0.0
C187 C 0.52912 0.98104 0.03783 0.0
C188 C 0.46485 0.96709 0.93009 0.0
C189 C 0.50368 0.99021 -0.01232 0.0
C190 C 0.52496 0.94161 0.96853 0.0
C191 C 0.74804 0.89183 0.97554 0.0
H192 H 0.72081 0.84045 -0.01408 0.0
H193 H 0.49652 0.79145 -0.00311 0.0
H194 H 0.82751 0.81625 0.00043 0.0
H195 H 0.39111 0.81562 0.98334 0.0
H196 H 0.55299 0.95828 0.07185 0.0
H197 H 0.44803 0.9898 0.89488 0.0
H198 H 0.55535 0.98623 0.07978 0.0
H199 H 0.44421 0.96191 0.88725 0.0
Eu200 Eu 0.5956 0.13414 -0.00116 0.0
Eu201 Eu 0.60311 0.17235 -0.00069 0.0
C202 C 0.59217 0.15321 0.87679 0.0
C203 C 0.60154 0.08797 -0.00475 0.0
C204 C 0.57214 0.08079 0.94098 0.0
C205 C 0.62973 0.06289 0.04064 0.0
C206 C 0.56803 0.06478 0.9372 0.0
C207 C 0.63368 0.07888 0.04443 0.0
C208 C 0.59287 0.05568 -0.01237 0.0
C209 C 0.57687 0.10439 0.00492 0.0
O210 O 0.40979 0.16691 0.01206 0.0
O211 O 0.40873 0.14141 0.98401 0.0
C212 C 0.35374 0.15417 -0.00191 0.0
O213 O 0.53754 0.14234 0.08965 0.0
O214 O 0.65046 0.1942 0.957 0.0
O215 O 0.58214 0.19373 0.04838 0.0
O216 O 0.65111 0.16391 0.09101 0.0
C217 C 0.59194 0.15315 0.1192 0.0
O218 O 0.78766 0.14005 0.01163 0.0
O219 O 0.78884 0.16517 0.97932 0.0
O220 O 0.55067 0.16509 0.90653 0.0
O221 O 0.63649 0.11241 0.04378 0.0
O222 O 0.53254 0.11261 0.96171 0.0
O223 O 0.63834 0.1413 0.90415 0.0
C224 C 0.55255 0.21636 -0.00714 0.0
C225 C 0.42882 0.21646 -0.00728 0.0
C226 C 0.55483 0.24402 0.98154 0.0
C227 C 0.36826 0.23036 -0.01207 0.0
C228 C 0.61508 0.23015 -0.01357 0.0
C229 C 0.43083 0.2443 0.9831 0.0
C230 C 0.61865 0.20225 0.00374 0.0
C231 C 0.84396 0.15264 -0.00458 0.0
H232 H 0.54631 0.0875 0.90237 0.0
H233 H 0.64862 0.05621 0.08041 0.0
H234 H 0.5414 0.05953 0.89541 0.0
H235 H 0.65494 0.08412 0.08706 0.0
H236 H 0.37936 0.20585 -0.00247 0.0
H237 H 0.60544 0.25457 0.97856 0.0
H238 H 0.27266 0.23023 -0.01155 0.0
H239 H 0.71074 0.23023 -0.01322 0.0
Eu240 Eu 0.55617 0.13422 0.4968 0.0
Eu241 Eu 0.54961 0.17243 0.49619 0.0
C242 C 0.5588 0.15328 0.61879 0.0
C243 C 0.53999 0.08821 0.49838 0.0
C244 C 0.58862 0.07961 0.54533 0.0
C245 C 0.47243 0.06451 0.45234 0.0
C246 C 0.58228 0.06359 0.54487 0.0
C247 C 0.47868 0.08053 0.45283 0.0
C248 C 0.52783 0.05586 0.49721 0.0
C249 C 0.5744 0.10444 0.49055 0.0
O250 O 0.74269 0.16694 0.48293 0.0
O251 O 0.74281 0.14157 0.51282 0.0
C252 C 0.79835 0.15426 0.49781 0.0
O253 O 0.61619 0.14255 0.4064 0.0
O254 O 0.50813 0.1944 0.5392 0.0
O255 O 0.56533 0.1937 0.44593 0.0
O256 O 0.5014 0.16391 0.40463 0.0
C257 C 0.5613 0.15324 0.3766 0.0
O258 O 0.36429 0.1401 0.4834 0.0
O259 O 0.36379 0.16517 0.51639 0.0
O260 O 0.60094 0.16517 0.58914 0.0
O261 O 0.52418 0.11277 0.44936 0.0
O262 O 0.61096 0.11244 0.53629 0.0
O263 O 0.51252 0.14138 0.59132 0.0
C264 C 0.59958 0.21669 0.49874 0.0
C265 C 0.7222 0.21739 0.4899 0.0
C266 C 0.5936 0.24436 0.50975 0.0
C267 C 0.77994 0.23159 0.48981 0.0
C268 C 0.5361 0.23019 0.50973 0.0
C269 C 0.71576 0.24524 0.49864 0.0
C270 C 0.53403 0.20233 0.49116 0.0
C271 C 0.30828 0.15267 0.49987 0.0
H272 H 0.63802 0.08518 0.58055 0.0
H273 H 0.428 0.05886 0.4156 0.0
H274 H 0.62647 0.05726 0.57991 0.0
H275 H 0.4412 0.08682 0.4157 0.0
H276 H 0.77254 0.20703 0.48144 0.0
H277 H 0.54156 0.25466 0.51608 0.0
H278 H 0.87443 0.23191 0.48201 0.0
H279 H 0.4412 0.22982 0.51625 0.0
Eu280 Eu 0.55169 0.87333 0.47725 0.0
Eu281 Eu 0.54515 0.91154 0.47681 0.0
C282 C 0.53983 0.89252 0.59691 0.0
C283 C 0.4996 0.82916 0.47631 0.0
C284 C 0.37684 0.82881 0.48488 0.0
C285 C 0.50201 0.8014 0.46902 0.0
C286 C 0.3172 0.81474 0.48666 0.0
C287 C 0.56138 0.81543 0.46733 0.0
C288 C 0.37963 0.80087 0.47985 0.0
C289 C 0.56689 0.84343 0.48226 0.0
O290 O 0.73701 0.90561 0.49022 0.0
O291 O 0.7375 0.88058 0.45688 0.0
C292 C 0.79303 0.89307 0.47357 0.0
O293 O 0.50085 0.88066 0.38428 0.0
O294 O 0.57729 0.93297 0.5244 0.0
O295 O 0.49026 0.93334 0.43755 0.0
O296 O 0.58922 0.90445 0.38229 0.0
C297 C 0.54306 0.89256 0.35472 0.0
O298 O 0.35872 0.87883 0.49093 0.0
O299 O 0.3586 0.90416 0.46052 0.0
O300 O 0.48485 0.9032 0.56711 0.0
O301 O 0.58901 0.85131 0.43366 0.0
O302 O 0.53971 0.8521 0.52798 0.0
O303 O 0.59975 0.88185 0.56887 0.0
C304 C 0.56199 0.95753 0.47542 0.0
C305 C 0.51364 0.96615 0.42845 0.0
C306 C 0.63023 0.98121 0.52143 0.0
C307 C 0.52043 0.98217 0.42889 0.0
C308 C 0.62353 0.96519 0.52096 0.0
C309 C 0.57506 0.98987 0.47656 0.0
C310 C 0.52705 0.94132 0.48329 0.0
C311 C 0.30303 0.89149 0.47579 0.0
H312 H 0.32787 0.83934 0.49185 0.0
H313 H 0.55276 0.79093 0.46426 0.0
H314 H 0.22261 0.81469 0.49421 0.0
H315 H 0.65638 0.81554 0.46107 0.0
H316 H 0.46408 0.9606 0.39324 0.0
H317 H 0.67479 0.98683 0.55817 0.0
H318 H 0.4764 0.98851 0.39385 0.0
H319 H 0.66081 0.95888 0.55811 0.0
C320 C 0.46775 0.37956 0.97171 0.0
C321 C 0.4026 0.39322 0.96967 0.0
H322 H 0.63872 0.36929 0.97449 0.0
C323 C 0.46315 0.40736 0.96792 0.0
H324 H 0.42368 0.36851 0.9732 0.0
C325 C 0.58631 0.40783 0.96813 0.0
C326 C 0.6515 0.39418 0.97091 0.0
H327 H 0.41544 0.41812 0.96595 0.0
H328 H 0.63026 0.41889 0.96668 0.0
C329 C 0.59096 0.38004 0.97274 0.0
C330 C 0.51322 0.63869 0.02749 0.0
C331 C 0.44811 0.65236 0.02515 0.0
H332 H 0.68401 0.62839 0.02924 0.0
C333 C 0.50871 0.6665 0.02358 0.0
H334 H 0.46921 0.62764 0.02872 0.0
C335 C 0.63192 0.66696 0.02446 0.0
C336 C 0.69698 0.65328 0.02611 0.0
H337 H 0.46102 0.67726 0.02214 0.0
H338 H 0.67604 0.67801 0.0232 0.0
C339 C 0.63637 0.63915 0.02757 0.0
C340 C 0.5474 0.63665 0.51892 0.0
C341 C 0.61115 0.65033 0.52684 0.0
H342 H 0.3778 0.62605 0.51185 0.0
C343 C 0.5491 0.66424 0.53274 0.0
H344 H 0.59251 0.62575 0.5142 0.0
C345 C 0.42583 0.66444 0.53072 0.0
C346 C 0.36207 0.65072 0.52359 0.0
H347 H 0.59571 0.675 0.53852 0.0
H348 H 0.38058 0.67532 0.53561 0.0
C349 C 0.42423 0.63682 0.51769 0.0
C350 C 0.66448 0.41026 0.47273 0.0
C351 C 0.72534 0.39619 0.47018 0.0
H352 H 0.49721 0.42163 0.47414 0.0
C353 C 0.66037 0.38248 0.46681 0.0
H354 H 0.71192 0.42104 0.47573 0.0
C355 C 0.53711 0.38285 0.46523 0.0
C356 C 0.47631 0.39693 0.46786 0.0
H357 H 0.70465 0.37148 0.46464 0.0
H358 H 0.48951 0.37208 0.46247 0.0
C359 C 0.54132 0.41061 0.47199 0.0
C360 C 0.93914 0.90622 0.9739 0.0
C361 C 0.87842 0.8921 0.97559 0.0
H362 H 0.10634 0.91772 0.97295 0.0
C363 C 0.94344 0.87843 0.97786 0.0
H364 H 0.89159 0.91699 0.97177 0.0
C365 C 0.06666 0.87888 0.97915 0.0
C366 C 0.12736 0.89301 0.97738 0.0
H367 H 0.89925 0.86738 0.97933 0.0
H368 H 0.11428 0.86812 0.98104 0.0
C369 C 0.0623 0.90667 0.9744 0.0
C370 C 0.16259 0.13978 -0.00043 0.0
C371 C 0.22334 0.1539 -0.00196 0.0
H372 H 0.99537 0.12828 0.00035 0.0
C373 C 0.15833 0.16758 -0.00412 0.0
H374 H 0.21014 0.12902 0.00162 0.0
C375 C 1.0351 0.16713 -0.00548 0.0
C376 C 0.97437 0.153 -0.00387 0.0
H377 H 0.20253 0.17863 -0.00548 0.0
H378 H 0.98747 0.17789 -0.00729 0.0
C379 C 1.03943 0.13934 -0.00097 0.0
C380 C 0.11769 0.16717 0.50034 0.0
C381 C 0.17783 0.15303 0.49914 0.0
H382 H 0.95072 0.17869 0.50019 0.0
C383 C 0.11214 0.13937 0.49681 0.0
H384 H 0.1658 0.17793 0.50169 0.0
C385 C 0.98895 0.13984 0.49651 0.0
C386 C 0.92879 0.15397 0.49767 0.0
H387 H 0.15574 0.12831 0.49581 0.0
H388 H 0.9409 0.12908 0.49494 0.0
C389 C 0.99444 0.16764 0.49917 0.0
C390 C 0.98368 0.87857 0.47323 0.0
C391 C 0.92351 0.89271 0.47434 0.0
H392 H 0.15069 0.86705 0.47352 0.0
C393 C 0.98918 0.90636 0.47663 0.0
H394 H 0.93558 0.86781 0.47191 0.0
C395 C 0.11238 0.9059 0.47698 0.0
C396 C 0.17257 0.89177 0.47591 0.0
H397 H 0.94555 0.91742 0.47757 0.0
H398 H 0.16042 0.91667 0.47851 0.0
C399 C 0.10694 0.8781 0.47446 0.0
C400 C 1.03248 0.53153 0.04855 0.0
C401 C 0.08158 0.53919 -0.00138 0.0
H402 H 0.96958 0.51025 0.08497 0.0
C403 C 0.1062 0.53086 0.94614 0.0
H404 H 1.0101 0.53774 0.0892 0.0
C405 C 0.08221 0.51516 0.94364 0.0
C406 C 1.03274 0.5075 -0.00649 0.0
H407 H 0.1447 0.53646 0.90717 0.0
H408 H 0.10443 0.50896 0.90296 0.0
C409 C 1.00841 0.51584 0.04604 0.0
C410 C 0.27152 0.51872 0.47905 0.0
C411 C 0.18919 0.51011 0.4462 0.0
H412 H 0.31923 0.54078 0.51405 0.0
C413 C 0.09674 0.51791 0.41766 0.0
H414 H 0.34498 0.51313 0.50073 0.0
C415 C 0.08246 0.53373 0.42505 0.0
C416 C 0.15996 0.54214 0.46132 0.0
H417 H 1.03055 0.51168 0.39275 0.0
H418 H 1.0061 0.53916 0.40543 0.0
C419 C 0.25687 0.53456 0.48667 0.0
C420 C 0.44589 1.01717 0.96123 0.0
C421 C 0.52445 1.00703 -0.01089 0.0
H422 H 0.40565 0.04048 0.93926 0.0
C423 C 0.62677 1.01299 0.01577 0.0
H424 H 0.36587 1.01294 0.94076 0.0
C425 C 0.65001 0.02874 0.01457 0.0
C426 C 0.57155 0.03888 -0.01339 0.0
H427 H 0.69034 1.00543 0.03648 0.0
H428 H 0.7301 0.03296 0.03498 0.0
C429 C 0.46915 0.03292 0.96003 0.0
C430 C 0.52435 0.02946 0.54254 0.0
C431 C 0.53729 0.03892 0.49185 0.0
H432 H 0.52528 1.00657 0.57731 0.0
C433 C 0.56487 0.03216 0.43617 0.0
H434 H 0.50214 0.03432 0.58593 0.0
C435 C 0.57889 1.01628 0.43125 0.0
C436 C 0.56589 1.00681 0.48194 0.0
H437 H 0.57792 0.03917 0.39649 0.0
H438 H 0.60107 1.01142 0.38787 0.0
C439 C 0.53837 1.01358 0.53763 0.0
C440 C 0.21528 0.27603 0.02187 0.0
C441 C 0.25301 0.28786 0.98326 0.0
H442 H 0.24251 0.25302 0.05234 0.0
C443 C 0.34849 0.2852 0.94395 0.0
H444 H 0.14271 0.27781 0.05309 0.0
C445 C 0.40524 0.27099 0.94332 0.0
C446 C 0.3677 0.25917 0.98203 0.0
H447 H 0.37809 0.29401 0.91289 0.0
H448 H 0.47783 0.26922 0.91211 0.0
C449 C 0.27205 0.26182 0.02125 0.0
C450 C 0.69081 0.77546 0.04193 0.0
C451 C 0.73402 0.7872 0.00433 0.0
H452 H 0.71386 0.75256 0.07456 0.0
C453 C 0.83614 0.78454 0.96963 0.0
H454 H 0.61311 0.77725 0.06975 0.0
C455 C 0.89355 0.7704 0.97224 0.0
C456 C 0.84998 0.75864 0.00961 0.0
H457 H 0.87032 0.79328 0.93947 0.0
H458 H 0.97114 0.7686 0.94434 0.0
C459 C 0.74818 0.76132 0.04452 0.0
C460 C 0.18203 0.76935 0.54167 0.0
C461 C 0.21046 0.75698 0.50379 0.0
H462 H 0.21382 0.79288 0.56404 0.0
C463 C 0.29353 0.75921 0.45733 0.0
H464 H 0.11924 0.76794 0.57824 0.0
C465 C 0.34718 0.77351 0.44898 0.0
C466 C 0.31895 0.78588 0.48694 0.0
H467 H 0.31557 0.74997 0.42672 0.0
H468 H 0.41 0.77492 0.41242 0.0
C469 C 0.23574 0.78365 0.53334 0.0
C470 C 0.90859 0.27768 0.44051 0.0
C471 C 0.87973 0.28963 0.48037 0.0
H472 H 0.8788 0.25434 0.41484 0.0
C473 C 0.79762 0.28682 0.52679 0.0
H474 H 0.9706 0.27956 0.40391 0.0
C475 C 0.7455 0.27237 0.53324 0.0
C476 C 0.7744 0.26042 0.49339 0.0
H477 H 0.77527 0.29572 0.55887 0.0
H478 H 0.68347 0.27049 0.56983 0.0
C479 C 0.85648 0.26323 0.44695 0.0
C480 C 0.05834 0.38078 0.19 0.0
C481 C 1.04878 0.39443 0.15687 0.0
H482 H 0.07696 0.37054 0.27676 0.0
C483 C 0.05409 0.40859 0.1871 0.0
H484 H 0.0545 0.36971 0.1679 0.0
C485 C 0.06949 0.40908 0.24925 0.0
C486 C 0.07716 0.39542 0.28248 0.0
H487 H 1.04791 0.41931 0.16264 0.0
H488 H 0.07325 0.42014 0.27138 0.0
C489 C 0.07099 0.38127 0.25229 0.0
C490 C 1.04683 0.66423 0.24828 0.0
C491 C 1.05086 0.65069 0.21429 0.0
H492 H 1.02517 0.67417 0.33561 0.0
C493 C 1.04054 0.63644 0.24356 0.0
H494 H 0.05395 0.67535 0.22669 0.0
C495 C 1.02672 0.63573 0.3059 0.0
C496 C 1.01931 0.64929 0.3397 0.0
H497 H 1.04375 0.62582 0.21824 0.0
H498 H 1.01925 0.62461 0.32748 0.0
C499 C 1.02949 0.66354 0.3104 0.0
C500 C 1.04123 0.66683 0.80651 0.0
C501 C 1.049 0.65308 0.83927 0.0
H502 H 1.02222 0.67727 0.72 0.0
C503 C 1.04042 0.63902 0.80868 0.0
H504 H 1.04761 0.67783 0.82892 0.0
C505 C 1.02322 0.63869 0.74669 0.0
C506 C 1.01699 0.65242 0.71379 0.0
H507 H 1.04518 0.62823 0.83281 0.0
H508 H 1.01665 0.62767 0.72438 0.0
C509 C 1.02691 0.6665 0.74423 0.0
C510 C 0.06869 0.38224 0.68607 0.0
C511 C 0.07297 0.39649 0.65648 0.0
H512 H 1.05048 0.37045 0.77027 0.0
C513 C 0.06175 0.41005 0.69002 0.0
H514 H 0.07612 0.37162 0.66099 0.0
C515 C 1.04989 0.40937 0.75239 0.0
C516 C 1.0453 0.39513 0.78198 0.0
H517 H 0.06473 0.42116 0.66818 0.0
H518 H 1.04367 0.42 0.77749 0.0
C519 C 1.05315 0.38155 0.74832 0.0
C520 C 0.52165 0.90668 0.19465 0.0
C521 C 0.5175 0.89279 0.16273 0.0
H522 H 0.53537 0.9175 0.28063 0.0
C523 C 0.52263 0.87885 0.19435 0.0
H524 H 0.5186 0.91759 0.17133 0.0
C525 C 0.53034 0.87879 0.25681 0.0
C526 C 0.53577 0.89268 0.28872 0.0
H527 H 0.51931 0.86797 0.17087 0.0
H528 H 0.53333 0.86787 0.28007 0.0
C529 C 0.53206 0.90663 0.25708 0.0
C530 C 0.58051 0.13933 0.21676 0.0
C531 C 0.58518 0.15324 0.185 0.0
H532 H 0.57163 0.12848 0.30297 0.0
C533 C 0.58131 0.16718 0.21652 0.0
H534 H 0.58363 0.12844 0.19329 0.0
C535 C 0.57101 0.1672 0.27902 0.0
C536 C 0.5682 0.15328 0.3108 0.0
H537 H 0.58406 0.17804 0.19279 0.0
H538 H 0.56737 0.17808 0.30256 0.0
C539 C 0.57396 0.13935 0.27929 0.0
C540 C 0.57929 0.16709 0.77906 0.0
C541 C 0.58447 0.15317 0.81079 0.0
H542 H 0.56853 0.17801 0.69325 0.0
C543 C 0.58031 0.13925 0.77898 0.0
H544 H 0.5826 0.17798 0.80246 0.0
C545 C 0.56988 0.13927 0.71655 0.0
C546 C 0.56613 0.1532 0.6848 0.0
H547 H 0.5834 0.12836 0.80238 0.0
H548 H 0.56657 0.12839 0.69309 0.0
C549 C 0.57155 0.1671 0.71659 0.0
C550 C 0.52746 0.90646 0.69409 0.0
C551 C 0.53319 0.89251 0.66271 0.0
H552 H 0.51784 0.91743 0.77999 0.0
C553 C 0.53056 0.87861 0.69461 0.0
H554 H 0.52966 0.91732 0.67031 0.0
C555 C 0.52038 0.87867 0.75711 0.0
C556 C 0.51644 0.89263 0.7885 0.0
H557 H 0.53421 0.86772 0.67117 0.0
H558 H 0.51771 0.86782 0.78095 0.0
C559 C 0.52101 0.90652 0.75662 0.0
loop_
_geom_bond_atom_site_label_1
_geom_bond_atom_site_label_2
_geom_bond_distance
_geom_bond_site_symmetry_2
_ccdc_geom_bond_type
Eu0 C9 2.828 . S
Eu0 O11 2.392 1_455 S
Eu0 O13 2.418 . S
Eu0 O18 2.373 . S
Eu0 O21 2.488 . S
Eu0 O22 2.471 1_554 S
Eu0 O23 2.349 1_554 S
Eu1 O10 2.373 1_455 S
Eu1 O14 2.488 . S
Eu1 O15 2.471 1_556 S
Eu1 O16 2.349 1_556 S
Eu1 O19 2.392 . S
Eu1 O20 2.418 . S
Eu1 C30 2.828 1_456 S
C2 O20 1.244 . S
C2 O23 1.265 . S
C3 C4 1.379 . S
C3 C7 1.373 1_556 S
C3 C9 1.505 1_556 S
C4 C3 1.379 . S
C4 C6 1.369 . S
C4 H32 0.930 . S
C5 C7 1.383 . S
C5 C8 1.382 1_554 S
C5 H33 0.930 . S
C6 C4 1.369 . S
C6 C8 1.392 . S
C6 H34 0.930 . S
C7 C3 1.373 1_554 S
C7 C5 1.383 . S
C7 H35 0.931 . S
C8 C5 1.382 1_556 S
C8 C6 1.392 . S
C9 Eu0 2.828 . S
C9 C3 1.505 1_554 S
C9 O21 1.249 . S
C9 O22 1.244 1_554 S
O10 Eu1 2.373 1_655 S
O10 C12 1.258 1_556 S
O11 Eu0 2.392 1_655 S
O11 C12 1.242 . S
C12 O10 1.258 1_554 S
C12 O11 1.242 . S
O13 Eu0 2.418 . S
O13 C17 1.244 . S
O14 Eu1 2.488 . S
O14 C30 1.249 1_456 S
O15 Eu1 2.471 1_554 S
O15 C30 1.244 1_455 S
O16 Eu1 2.349 1_554 S
O16 C17 1.265 . S
C17 O13 1.244 . S
C17 O16 1.265 . S
O18 Eu0 2.373 . S
O18 C31 1.258 . S
O19 Eu1 2.392 . S
O19 C31 1.242 1_556 S
O20 Eu1 2.418 . S
O20 C2 1.244 . S
O21 Eu0 2.488 . S
O21 C9 1.249 . S
O22 Eu0 2.471 1_556 S
O22 C9 1.244 1_556 S
O23 Eu0 2.349 1_556 S
O23 C2 1.265 . S
C24 C25 1.379 . S
C24 C28 1.373 1_554 S
C24 C30 1.505 . S
C25 C24 1.379 . S
C25 C27 1.369 . S
C25 H36 0.930 . S
C26 C28 1.383 . S
C26 C29 1.382 1_556 S
C26 H37 0.930 . S
C27 C25 1.369 . S
C27 C29 1.392 . S
C27 H38 0.930 . S
C28 C24 1.373 1_556 S
C28 C26 1.383 . S
C28 H39 0.931 . S
C29 C26 1.382 1_554 S
C29 C27 1.392 . S
C30 Eu1 2.828 1_654 S
C30 O14 1.249 1_654 S
C30 O15 1.244 1_655 S
C30 C24 1.505 . S
C31 O18 1.258 . S
C31 O19 1.242 1_554 S
H32 C4 0.930 . S
H33 C5 0.930 . S
H34 C6 0.930 . S
H35 C7 0.931 . S
H36 C25 0.930 . S
H37 C26 0.930 . S
H38 C27 0.930 . S
H39 C28 0.931 . S
Eu40 C49 2.828 1_655 S
Eu40 O51 2.392 . S
Eu40 O53 2.418 . S
Eu40 O58 2.373 1_655 S
Eu40 O61 2.488 . S
Eu40 O62 2.471 1_554 S
Eu40 O63 2.349 1_554 S
Eu41 O50 2.373 . S
Eu41 O54 2.488 . S
Eu41 O55 2.471 1_556 S
Eu41 O56 2.349 1_556 S
Eu41 O59 2.392 1_655 S
Eu41 O60 2.418 . S
Eu41 C70 2.828 1_556 S
C42 O60 1.244 . S
C42 O63 1.265 . S
C43 C44 1.379 . S
C43 C47 1.373 1_556 S
C43 C49 1.505 1_556 S
C44 C43 1.379 . S
C44 C46 1.369 . S
C44 H72 0.930 . S
C45 C47 1.383 . S
C45 C48 1.382 1_554 S
C45 H73 0.930 . S
C46 C44 1.369 . S
C46 C48 1.392 . S
C46 H74 0.930 . S
C47 C43 1.373 1_554 S
C47 C45 1.383 . S
C47 H75 0.931 . S
C48 C45 1.382 1_556 S
C48 C46 1.392 . S
C49 Eu40 2.828 1_455 S
C49 C43 1.505 1_554 S
C49 O61 1.249 1_455 S
C49 O62 1.244 1_454 S
O50 Eu41 2.373 . S
O50 C52 1.255 1_556 S
O51 Eu40 2.392 . S
O51 C52 1.244 . S
C52 O50 1.255 1_554 S
C52 O51 1.244 . S
O53 Eu40 2.418 . S
O53 C57 1.244 . S
O54 Eu41 2.488 . S
O54 C70 1.249 1_556 S
O55 Eu41 2.471 1_554 S
O55 C70 1.244 . S
O56 Eu41 2.349 1_554 S
O56 C57 1.265 . S
C57 O53 1.244 . S
C57 O56 1.265 . S
O58 Eu40 2.373 1_455 S
O58 C71 1.258 . S
O59 Eu41 2.392 1_455 S
O59 C71 1.242 1_556 S
O60 Eu41 2.418 . S
O60 C42 1.244 . S
O61 Eu40 2.488 . S
O61 C49 1.249 1_655 S
O62 Eu40 2.471 1_556 S
O62 C49 1.244 1_656 S
O63 Eu40 2.349 1_556 S
O63 C42 1.265 . S
C64 C65 1.379 . S
C64 C68 1.373 1_554 S
C64 C70 1.505 . S
C65 C64 1.379 . S
C65 C67 1.369 . S
C65 H76 0.930 . S
C66 C68 1.383 . S
C66 C69 1.382 1_556 S
C66 H77 0.930 . S
C67 C65 1.369 . S
C67 C69 1.392 . S
C67 H78 0.930 . S
C68 C64 1.373 1_556 S
C68 C66 1.383 . S
C68 H79 0.931 . S
C69 C66 1.382 1_554 S
C69 C67 1.392 . S
C70 Eu41 2.828 1_554 S
C70 O54 1.249 1_554 S
C70 O55 1.244 . S
C70 C64 1.505 . S
C71 O58 1.258 . S
C71 O59 1.242 1_554 S
H72 C44 0.930 . S
H73 C45 0.930 . S
H74 C46 0.930 . S
H75 C47 0.931 . S
H76 C65 0.930 . S
H77 C66 0.930 . S
H78 C67 0.930 . S
H79 C68 0.931 . S
Eu80 C89 2.828 1_455 S
Eu80 O91 2.392 . S
Eu80 O93 2.418 . S
Eu80 O98 2.373 1_455 S
Eu80 O101 2.488 . S
Eu80 O102 2.471 . S
Eu80 O103 2.349 . S
Eu81 O90 2.373 . S
Eu81 O94 2.488 . S
Eu81 O95 2.471 . S
Eu81 O96 2.349 . S
Eu81 O99 2.392 1_455 S
Eu81 O100 2.418 . S
Eu81 C110 2.828 . S
C82 O100 1.244 . S
C82 O103 1.265 . S
C83 C84 1.379 . S
C83 C87 1.373 . S
C83 C89 1.505 . S
C84 C83 1.379 . S
C84 C86 1.369 . S
C84 H112 0.930 . S
C85 C87 1.383 . S
C85 C88 1.382 . S
C85 H113 0.930 . S
C86 C84 1.369 . S
C86 C88 1.392 . S
C86 H114 0.930 . S
C87 C83 1.373 . S
C87 C85 1.383 . S
C87 H115 0.931 . S
C88 C85 1.382 . S
C88 C86 1.392 . S
C89 Eu80 2.828 1_655 S
C89 C83 1.505 . S
C89 O101 1.249 1_655 S
C89 O102 1.244 1_655 S
O90 Eu81 2.373 . S
O90 C92 1.258 . S
O91 Eu80 2.392 . S
O91 C92 1.242 . S
C92 O90 1.258 . S
C92 O91 1.242 . S
O93 Eu80 2.418 . S
O93 C97 1.244 . S
O94 Eu81 2.488 . S
O94 C110 1.249 . S
O95 Eu81 2.471 . S
O95 C110 1.244 . S
O96 Eu81 2.349 . S
O96 C97 1.265 . S
C97 O93 1.244 . S
C97 O96 1.265 . S
O98 Eu80 2.373 1_655 S
O98 C111 1.258 . S
O99 Eu81 2.392 1_655 S
O99 C111 1.242 . S
O100 Eu81 2.418 . S
O100 C82 1.244 . S
O101 Eu80 2.488 . S
O101 C89 1.249 1_455 S
O102 Eu80 2.471 . S
O102 C89 1.244 1_455 S
O103 Eu80 2.349 . S
O103 C82 1.265 . S
C104 C105 1.379 . S
C104 C108 1.373 . S
C104 C110 1.505 . S
C105 C104 1.379 . S
C105 C107 1.369 . S
C105 H116 0.930 . S
C106 C108 1.383 . S
C106 C109 1.382 . S
C106 H117 0.930 . S
C107 C105 1.369 . S
C107 C109 1.392 . S
C107 H118 0.930 . S
C108 C104 1.373 . S
C108 C106 1.383 . S
C108 H119 0.931 . S
C109 C106 1.382 . S
C109 C107 1.392 . S
C110 Eu81 2.828 . S
C110 O94 1.249 . S
C110 O95 1.244 . S
C110 C104 1.505 . S
C111 O98 1.258 . S
C111 O99 1.242 . S
H112 C84 0.930 . S
H113 C85 0.930 . S
H114 C86 0.930 . S
H115 C87 0.931 . S
H116 C105 0.930 . S
H117 C106 0.930 . S
H118 C107 0.930 . S
H119 C108 0.931 . S
Eu120 C129 2.828 . S
Eu120 O131 2.392 1_655 S
Eu120 O133 2.418 . S
Eu120 O138 2.373 . S
Eu120 O141 2.488 . S
Eu120 O142 2.471 . S
Eu120 O143 2.349 . S
Eu121 O130 2.373 1_655 S
Eu121 O134 2.488 . S
Eu121 O135 2.471 . S
Eu121 O136 2.349 . S
Eu121 O139 2.392 . S
Eu121 O140 2.418 . S
Eu121 C150 2.828 1_655 S
C122 O140 1.244 . S
C122 O143 1.265 . S
C123 C124 1.379 . S
C123 C127 1.373 . S
C123 C129 1.505 . S
C124 C123 1.379 . S
C124 C126 1.369 . S
C124 H152 0.930 . S
C125 C127 1.383 . S
C125 C128 1.382 . S
C125 H153 0.930 . S
C126 C124 1.369 . S
C126 C128 1.392 . S
C126 H154 0.930 . S
C127 C123 1.373 . S
C127 C125 1.383 . S
C127 H155 0.931 . S
C128 C125 1.382 . S
C128 C126 1.392 . S
C129 Eu120 2.828 . S
C129 C123 1.505 . S
C129 O141 1.249 . S
C129 O142 1.244 . S
O130 Eu121 2.373 1_455 S
O130 C132 1.258 . S
O131 Eu120 2.392 1_455 S
O131 C132 1.242 . S
C132 O130 1.258 . S
C132 O131 1.242 . S
O133 Eu120 2.418 . S
O133 C137 1.244 . S
O134 Eu121 2.488 . S
O134 C150 1.249 1_655 S
O135 Eu121 2.471 . S
O135 C150 1.244 1_655 S
O136 Eu121 2.349 . S
O136 C137 1.265 . S
C137 O133 1.244 . S
C137 O136 1.265 . S
O138 Eu120 2.373 . S
O138 C151 1.258 . S
O139 Eu121 2.392 . S
O139 C151 1.242 . S
O140 Eu121 2.418 . S
O140 C122 1.244 . S
O141 Eu120 2.488 . S
O141 C129 1.249 . S
O142 Eu120 2.471 . S
O142 C129 1.244 . S
O143 Eu120 2.349 . S
O143 C122 1.265 . S
C144 C145 1.379 . S
C144 C148 1.373 . S
C144 C150 1.505 . S
C145 C144 1.379 . S
C145 C147 1.369 . S
C145 H156 0.930 . S
C146 C148 1.383 . S
C146 C149 1.382 . S
C146 H157 0.930 . S
C147 C145 1.369 . S
C147 C149 1.392 . S
C147 H158 0.930 . S
C148 C144 1.373 . S
C148 C146 1.383 . S
C148 H159 0.931 . S
C149 C146 1.382 . S
C149 C147 1.392 . S
C150 Eu121 2.828 1_455 S
C150 O134 1.249 1_455 S
C150 O135 1.244 1_455 S
C150 C144 1.505 . S
C151 O138 1.258 . S
C151 O139 1.242 . S
H152 C124 0.930 . S
H153 C125 0.930 . S
H154 C126 0.930 . S
H155 C127 0.931 . S
H156 C145 0.930 . S
H157 C146 0.930 . S
H158 C147 0.930 . S
H159 C148 0.931 . S
Eu160 C169 2.828 . S
Eu160 O171 2.392 . S
Eu160 O173 2.418 . S
Eu160 O178 2.373 . S
Eu160 O181 2.488 . S
Eu160 O182 2.471 1_554 S
Eu160 O183 2.349 1_554 S
Eu161 O170 2.373 . S
Eu161 O174 2.488 . S
Eu161 O175 2.471 1_556 S
Eu161 O176 2.349 1_556 S
Eu161 O179 2.392 . S
Eu161 O180 2.418 . S
Eu161 C190 2.828 1_556 S
C162 O180 1.244 . S
C162 O183 1.265 . S
C163 C164 1.379 . S
C163 C167 1.373 1_556 S
C163 C169 1.505 1_556 S
C164 C163 1.379 . S
C164 C166 1.369 . S
C164 H192 0.930 . S
C165 C167 1.383 . S
C165 C168 1.382 1_554 S
C165 H193 0.930 . S
C166 C164 1.369 . S
C166 C168 1.392 . S
C166 H194 0.930 . S
C167 C163 1.373 1_554 S
C167 C165 1.383 . S
C167 H195 0.931 . S
C168 C165 1.382 1_556 S
C168 C166 1.392 . S
C169 Eu160 2.828 . S
C169 C163 1.505 1_554 S
C169 O181 1.249 . S
C169 O182 1.244 1_554 S
O170 Eu161 2.373 . S
O170 C172 1.258 1_556 S
O171 Eu160 2.392 . S
O171 C172 1.242 . S
C172 O170 1.258 1_554 S
C172 O171 1.242 . S
O173 Eu160 2.418 . S
O173 C177 1.244 . S
O174 Eu161 2.488 . S
O174 C190 1.249 1_556 S
O175 Eu161 2.471 1_554 S
O175 C190 1.244 . S
O176 Eu161 2.349 1_554 S
O176 C177 1.265 . S
C177 O173 1.244 . S
C177 O176 1.265 . S
O178 Eu160 2.373 . S
O178 C191 1.258 . S
O179 Eu161 2.392 . S
O179 C191 1.242 1_556 S
O180 Eu161 2.418 . S
O180 C162 1.244 . S
O181 Eu160 2.488 . S
O181 C169 1.249 . S
O182 Eu160 2.471 1_556 S
O182 C169 1.244 1_556 S
O183 Eu160 2.349 1_556 S
O183 C162 1.265 . S
C184 C185 1.379 . S
C184 C188 1.373 1_554 S
C184 C190 1.505 . S
C185 C184 1.379 . S
C185 C187 1.369 . S
C185 H196 0.930 . S
C186 C188 1.383 . S
C186 C189 1.382 1_556 S
C186 H197 0.930 . S
C187 C185 1.369 . S
C187 C189 1.392 . S
C187 H198 0.930 . S
C188 C184 1.373 1_556 S
C188 C186 1.383 . S
C188 H199 0.931 . S
C189 C186 1.382 1_554 S
C189 C187 1.392 . S
C190 Eu161 2.828 1_554 S
C190 O174 1.249 1_554 S
C190 O175 1.244 . S
C190 C184 1.505 . S
C191 O178 1.258 . S
C191 O179 1.242 1_554 S
H192 C164 0.930 . S
H193 C165 0.930 . S
H194 C166 0.930 . S
H195 C167 0.931 . S
H196 C185 0.930 . S
H197 C186 0.930 . S
H198 C187 0.930 . S
H199 C188 0.931 . S
Eu200 C209 2.828 . S
Eu200 O211 2.392 . S
Eu200 O213 2.418 . S
Eu200 O218 2.373 . S
Eu200 O221 2.488 . S
Eu200 O222 2.471 1_554 S
Eu200 O223 2.349 1_554 S
Eu201 O210 2.373 . S
Eu201 O214 2.488 . S
Eu201 O215 2.471 1_556 S
Eu201 O216 2.349 1_556 S
Eu201 O219 2.392 . S
Eu201 O220 2.418 . S
Eu201 C230 2.828 1_556 S
C202 O220 1.244 . S
C202 O223 1.265 . S
C203 C204 1.379 . S
C203 C207 1.373 1_556 S
C203 C209 1.505 1_556 S
C204 C203 1.379 . S
C204 C206 1.369 . S
C204 H232 0.930 . S
C205 C207 1.383 . S
C205 C208 1.382 1_554 S
C205 H233 0.930 . S
C206 C204 1.369 . S
C206 C208 1.392 . S
C206 H234 0.930 . S
C207 C203 1.373 1_554 S
C207 C205 1.383 . S
C207 H235 0.931 . S
C208 C205 1.382 1_556 S
C208 C206 1.392 . S
C209 Eu200 2.828 . S
C209 C203 1.505 1_554 S
C209 O221 1.249 . S
C209 O222 1.244 1_554 S
O210 Eu201 2.373 . S
O210 C212 1.255 1_556 S
O211 Eu200 2.392 . S
O211 C212 1.244 . S
C212 O210 1.255 1_554 S
C212 O211 1.244 . S
O213 Eu200 2.418 . S
O213 C217 1.244 . S
O214 Eu201 2.488 . S
O214 C230 1.249 1_556 S
O215 Eu201 2.471 1_554 S
O215 C230 1.244 . S
O216 Eu201 2.349 1_554 S
O216 C217 1.265 . S
C217 O213 1.244 . S
C217 O216 1.265 . S
O218 Eu200 2.373 . S
O218 C231 1.258 . S
O219 Eu201 2.392 . S
O219 C231 1.242 1_556 S
O220 Eu201 2.418 . S
O220 C202 1.244 . S
O221 Eu200 2.488 . S
O221 C209 1.249 . S
O222 Eu200 2.471 1_556 S
O222 C209 1.244 1_556 S
O223 Eu200 2.349 1_556 S
O223 C202 1.265 . S
C224 C225 1.379 . S
C224 C228 1.373 1_554 S
C224 C230 1.505 . S
C225 C224 1.379 . S
C225 C227 1.369 . S
C225 H236 0.930 . S
C226 C228 1.383 . S
C226 C229 1.382 1_556 S
C226 H237 0.930 . S
C227 C225 1.369 . S
C227 C229 1.392 . S
C227 H238 0.930 . S
C228 C224 1.373 1_556 S
C228 C226 1.383 . S
C228 H239 0.931 . S
C229 C226 1.382 1_554 S
C229 C227 1.392 . S
C230 Eu201 2.828 1_554 S
C230 O214 1.249 1_554 S
C230 O215 1.244 . S
C230 C224 1.505 . S
C231 O218 1.258 . S
C231 O219 1.242 1_554 S
H232 C204 0.930 . S
H233 C205 0.930 . S
H234 C206 0.930 . S
H235 C207 0.931 . S
H236 C225 0.930 . S
H237 C226 0.930 . S
H238 C227 0.930 . S
H239 C228 0.931 . S
Eu240 C249 2.828 . S
Eu240 O251 2.392 . S
Eu240 O253 2.418 . S
Eu240 O258 2.373 . S
Eu240 O261 2.488 . S
Eu240 O262 2.471 . S
Eu240 O263 2.349 . S
Eu241 O250 2.373 . S
Eu241 O254 2.488 . S
Eu241 O255 2.471 . S
Eu241 O256 2.349 . S
Eu241 O259 2.392 . S
Eu241 O260 2.418 . S
Eu241 C270 2.828 . S
C242 O260 1.244 . S
C242 O263 1.265 . S
C243 C244 1.379 . S
C243 C247 1.373 . S
C243 C249 1.505 . S
C244 C243 1.379 . S
C244 C246 1.369 . S
C244 H272 0.930 . S
C245 C247 1.383 . S
C245 C248 1.382 . S
C245 H273 0.930 . S
C246 C244 1.369 . S
C246 C248 1.392 . S
C246 H274 0.930 . S
C247 C243 1.373 . S
C247 C245 1.383 . S
C247 H275 0.931 . S
C248 C245 1.382 . S
C248 C246 1.392 . S
C249 Eu240 2.828 . S
C249 C243 1.505 . S
C249 O261 1.249 . S
C249 O262 1.244 . S
O250 Eu241 2.373 . S
O250 C252 1.258 . S
O251 Eu240 2.392 . S
O251 C252 1.242 . S
C252 O250 1.258 . S
C252 O251 1.242 . S
O253 Eu240 2.418 . S
O253 C257 1.244 . S
O254 Eu241 2.488 . S
O254 C270 1.249 . S
O255 Eu241 2.471 . S
O255 C270 1.244 . S
O256 Eu241 2.349 . S
O256 C257 1.265 . S
C257 O253 1.244 . S
C257 O256 1.265 . S
O258 Eu240 2.373 . S
O258 C271 1.258 . S
O259 Eu241 2.392 . S
O259 C271 1.242 . S
O260 Eu241 2.418 . S
O260 C242 1.244 . S
O261 Eu240 2.488 . S
O261 C249 1.249 . S
O262 Eu240 2.471 . S
O262 C249 1.244 . S
O263 Eu240 2.349 . S
O263 C242 1.265 . S
C264 C265 1.379 . S
C264 C268 1.373 . S
C264 C270 1.505 . S
C265 C264 1.379 . S
C265 C267 1.369 . S
C265 H276 0.930 . S
C266 C268 1.383 . S
C266 C269 1.382 . S
C266 H277 0.930 . S
C267 C265 1.369 . S
C267 C269 1.392 . S
C267 H278 0.930 . S
C268 C264 1.373 . S
C268 C266 1.383 . S
C268 H279 0.931 . S
C269 C266 1.382 . S
C269 C267 1.392 . S
C270 Eu241 2.828 . S
C270 O254 1.249 . S
C270 O255 1.244 . S
C270 C264 1.505 . S
C271 O258 1.258 . S
C271 O259 1.242 . S
H272 C244 0.930 . S
H273 C245 0.930 . S
H274 C246 0.930 . S
H275 C247 0.931 . S
H276 C265 0.930 . S
H277 C266 0.930 . S
H278 C267 0.930 . S
H279 C268 0.931 . S
Eu280 C289 2.828 . S
Eu280 O291 2.392 . S
Eu280 O293 2.418 . S
Eu280 O298 2.373 . S
Eu280 O301 2.488 . S
Eu280 O302 2.471 . S
Eu280 O303 2.349 . S
Eu281 O290 2.373 . S
Eu281 O294 2.488 . S
Eu281 O295 2.471 . S
Eu281 O296 2.349 . S
Eu281 O299 2.392 . S
Eu281 O300 2.418 . S
Eu281 C310 2.828 . S
C282 O300 1.244 . S
C282 O303 1.265 . S
C283 C284 1.379 . S
C283 C287 1.373 . S
C283 C289 1.505 . S
C284 C283 1.379 . S
C284 C286 1.369 . S
C284 H312 0.930 . S
C285 C287 1.383 . S
C285 C288 1.382 . S
C285 H313 0.930 . S
C286 C284 1.369 . S
C286 C288 1.392 . S
C286 H314 0.930 . S
C287 C283 1.373 . S
C287 C285 1.383 . S
C287 H315 0.931 . S
C288 C285 1.382 . S
C288 C286 1.392 . S
C289 Eu280 2.828 . S
C289 C283 1.505 . S
C289 O301 1.249 . S
C289 O302 1.244 . S
O290 Eu281 2.373 . S
O290 C292 1.258 . S
O291 Eu280 2.392 . S
O291 C292 1.242 . S
C292 O290 1.258 . S
C292 O291 1.242 . S
O293 Eu280 2.418 . S
O293 C297 1.244 . S
O294 Eu281 2.488 . S
O294 C310 1.249 . S
O295 Eu281 2.471 . S
O295 C310 1.244 . S
O296 Eu281 2.349 . S
O296 C297 1.265 . S
C297 O293 1.244 . S
C297 O296 1.265 . S
O298 Eu280 2.373 . S
O298 C311 1.258 . S
O299 Eu281 2.392 . S
O299 C311 1.242 . S
O300 Eu281 2.418 . S
O300 C282 1.244 . S
O301 Eu280 2.488 . S
O301 C289 1.249 . S
O302 Eu280 2.471 . S
O302 C289 1.244 . S
O303 Eu280 2.349 . S
O303 C282 1.265 . S
C304 C305 1.379 . S
C304 C308 1.373 . S
C304 C310 1.505 . S
C305 C304 1.379 . S
C305 C307 1.369 . S
C305 H316 0.930 . S
C306 C308 1.383 . S
C306 C309 1.382 . S
C306 H317 0.930 . S
C307 C305 1.369 . S
C307 C309 1.392 . S
C307 H318 0.930 . S
C308 C304 1.373 . S
C308 C306 1.383 . S
C308 H319 0.931 . S
C309 C306 1.382 . S
C309 C307 1.392 . S
C310 Eu281 2.828 . S
C310 O294 1.249 . S
C310 O295 1.244 . S
C310 C304 1.505 . S
C311 O298 1.258 . S
C311 O299 1.242 . S
H312 C284 0.930 . S
H313 C285 0.930 . S
H314 C286 0.930 . S
H315 C287 0.931 . S
H316 C305 0.930 . S
H317 C306 0.930 . S
H318 C307 0.930 . S
H319 C308 0.931 . S
C320 C321 1.387 1_556 S
C320 H324 0.950 . S
C320 C329 1.390 . S
C321 C320 1.387 1_554 S
C321 C323 1.387 . S
H322 C329 0.950 . S
C323 C321 1.387 . S
C323 C325 1.390 . S
C323 H327 0.950 . S
H324 C320 0.950 . S
C325 C323 1.390 . S
C325 C326 1.387 . S
C325 H328 0.950 . S
C326 C325 1.387 . S
C326 C329 1.387 1_554 S
H327 C323 0.950 . S
H328 C325 0.950 . S
C329 C320 1.390 . S
C329 H322 0.950 . S
C329 C326 1.387 1_556 S
C330 C331 1.387 1_556 S
C330 H334 0.950 . S
C330 C339 1.390 . S
C331 C330 1.387 1_554 S
C331 C333 1.387 . S
H332 C339 0.950 . S
C333 C331 1.387 . S
C333 C335 1.390 . S
C333 H337 0.950 . S
H334 C330 0.950 . S
C335 C333 1.390 . S
C335 C336 1.387 . S
C335 H338 0.950 . S
C336 C335 1.387 . S
C336 C339 1.387 1_554 S
H337 C333 0.950 . S
H338 C335 0.950 . S
C339 C330 1.390 . S
C339 H332 0.950 . S
C339 C336 1.387 1_556 S
C340 C341 1.387 . S
C340 H344 0.950 . S
C340 C349 1.390 . S
C341 C340 1.387 . S
C341 C343 1.387 . S
H342 C349 0.950 . S
C343 C341 1.387 . S
C343 C345 1.390 . S
C343 H347 0.950 . S
H344 C340 0.950 . S
C345 C343 1.390 . S
C345 C346 1.387 . S
C345 H348 0.950 . S
C346 C345 1.387 . S
C346 C349 1.387 . S
H347 C343 0.950 . S
H348 C345 0.950 . S
C349 C340 1.390 . S
C349 H342 0.950 . S
C349 C346 1.387 . S
C350 C351 1.387 . S
C350 H354 0.950 . S
C350 C359 1.390 . S
C351 C350 1.387 . S
C351 C353 1.387 . S
H352 C359 0.950 . S
C353 C351 1.387 . S
C353 C355 1.390 . S
C353 H357 0.950 . S
H354 C350 0.950 . S
C355 C353 1.390 . S
C355 C356 1.387 . S
C355 H358 0.950 . S
C356 C355 1.387 . S
C356 C359 1.387 . S
H357 C353 0.950 . S
H358 C355 0.950 . S
C359 C350 1.390 . S
C359 H352 0.950 . S
C359 C356 1.387 . S
C360 C361 1.387 1_455 S
C360 H364 0.950 1_455 S
C360 C369 1.390 . S
C361 C360 1.387 1_655 S
C361 C363 1.387 1_654 S
H362 C369 0.950 . S
C363 C361 1.387 1_456 S
C363 C365 1.390 . S
C363 H367 0.950 1_455 S
H364 C360 0.950 1_655 S
C365 C363 1.390 . S
C365 C366 1.387 1_556 S
C365 H368 0.950 . S
C366 C365 1.387 1_554 S
C366 C369 1.387 . S
H367 C363 0.950 1_655 S
H368 C365 0.950 . S
C369 C360 1.390 . S
C369 H362 0.950 . S
C369 C366 1.387 . S
C370 C371 1.387 1_656 S
C370 H374 0.950 1_655 S
C370 C379 1.390 . S
C371 C370 1.387 1_454 S
C371 C373 1.385 1_455 S
H372 C379 0.950 . S
C373 C371 1.385 1_655 S
C373 C375 1.395 . S
C373 H377 0.947 1_655 S
H374 C370 0.950 1_455 S
C375 C373 1.395 . S
C375 C376 1.387 . S
C375 H378 0.950 . S
C376 C375 1.387 . S
C376 C379 1.387 1_554 S
H377 C373 0.947 1_455 S
H378 C375 0.950 . S
C379 C370 1.390 . S
C379 H372 0.950 . S
C379 C376 1.387 1_556 S
C380 C381 1.387 . S
C380 H384 0.950 . S
C380 C389 1.390 . S
C381 C380 1.387 . S
C381 C383 1.387 . S
H382 C389 0.950 1_655 S
C383 C381 1.387 . S
C383 C385 1.390 . S
C383 H387 0.950 . S
H384 C380 0.950 . S
C385 C383 1.390 . S
C385 C386 1.387 1_455 S
C385 H388 0.950 1_455 S
C386 C385 1.387 1_655 S
C386 C389 1.387 1_655 S
H387 C383 0.950 . S
H388 C385 0.950 1_655 S
C389 C380 1.390 . S
C389 H382 0.950 1_455 S
C389 C386 1.387 1_455 S
C390 C391 1.387 . S
C390 H394 0.950 . S
C390 C399 1.390 . S
C391 C390 1.387 . S
C391 C393 1.387 . S
H392 C399 0.950 1_455 S
C393 C391 1.387 . S
C393 C395 1.389 . S
C393 H397 0.950 . S
H394 C390 0.950 . S
C395 C393 1.389 . S
C395 C396 1.388 1_655 S
C395 H398 0.950 1_655 S
C396 C395 1.388 1_455 S
C396 C399 1.387 1_455 S
H397 C393 0.950 . S
H398 C395 0.950 1_455 S
C399 C390 1.390 . S
C399 H392 0.950 1_655 S
C399 C396 1.387 1_655 S
C400 C401 1.387 1_554 S
C400 H404 0.950 . S
C400 C409 1.390 1_455 S
C401 C400 1.387 1_556 S
C401 C403 1.387 . S
H402 C409 0.950 . S
C403 C401 1.387 . S
C403 C405 1.390 1_455 S
C403 H407 0.950 . S
H404 C400 0.950 . S
C405 C403 1.390 1_655 S
C405 C406 1.387 1_556 S
C405 H408 0.950 . S
C406 C405 1.387 1_554 S
C406 C409 1.387 . S
H407 C403 0.950 . S
H408 C405 0.950 . S
C409 C400 1.390 1_655 S
C409 H402 0.950 . S
C409 C406 1.387 . S
C410 C411 1.387 . S
C410 H414 0.950 . S
C410 C419 1.390 . S
C411 C410 1.387 . S
C411 C413 1.387 1_455 S
H412 C419 0.950 . S
C413 C411 1.387 1_655 S
C413 C415 1.390 . S
C413 H417 0.950 . S
H414 C410 0.950 . S
C415 C413 1.390 . S
C415 C416 1.387 . S
C415 H418 0.950 . S
C416 C415 1.387 . S
C416 C419 1.387 1_655 S
H417 C413 0.950 . S
H418 C415 0.950 . S
C419 C410 1.390 . S
C419 H412 0.950 . S
C419 C416 1.387 1_455 S
C420 C421 1.330 1_546 S
C420 H424 0.957 . S
C420 C429 1.445 . S
C421 C420 1.330 1_564 S
C421 C423 1.387 . S
H422 C429 0.950 . S
C423 C421 1.387 . S
C423 C425 1.445 . S
C423 H427 0.950 . S
H424 C420 0.957 . S
C425 C423 1.445 . S
C425 C426 1.330 1_564 S
C425 H428 0.957 . S
C426 C425 1.330 1_546 S
C426 C429 1.387 . S
H427 C423 0.950 . S
H428 C425 0.957 . S
C429 C420 1.445 . S
C429 H422 0.950 . S
C429 C426 1.387 . S
C430 C431 1.387 . S
C430 H434 0.950 . S
C430 C439 1.390 1_545 S
C431 C430 1.387 . S
C431 C433 1.387 . S
H432 C439 0.950 . S
C433 C431 1.387 . S
C433 C435 1.390 1_545 S
C433 H437 0.950 . S
H434 C430 0.950 . S
C435 C433 1.390 1_565 S
C435 C436 1.387 . S
C435 H438 0.950 . S
C436 C435 1.387 . S
C436 C439 1.387 . S
H437 C433 0.950 . S
H438 C435 0.950 . S
C439 C430 1.390 1_565 S
C439 H432 0.950 . S
C439 C436 1.387 . S
C440 C441 1.387 1_554 S
C440 H444 0.950 . S
C440 C449 1.390 . S
C441 C440 1.387 1_556 S
C441 C443 1.387 . S
H442 C449 0.950 . S
C443 C441 1.387 . S
C443 C445 1.390 . S
C443 H447 0.950 . S
H444 C440 0.950 . S
C445 C443 1.390 . S
C445 C446 1.387 1_556 S
C445 H448 0.950 . S
C446 C445 1.387 1_554 S
C446 C449 1.387 . S
H447 C443 0.950 . S
H448 C445 0.950 . S
C449 C440 1.390 . S
C449 H442 0.950 . S
C449 C446 1.387 . S
C450 C451 1.387 1_554 S
C450 H454 0.950 . S
C450 C459 1.390 . S
C451 C450 1.387 1_556 S
C451 C453 1.387 . S
H452 C459 0.950 . S
C453 C451 1.387 . S
C453 C455 1.390 . S
C453 H457 0.950 . S
H454 C450 0.950 . S
C455 C453 1.390 . S
C455 C456 1.387 1_556 S
C455 H458 0.950 . S
C456 C455 1.387 1_554 S
C456 C459 1.387 . S
H457 C453 0.950 . S
H458 C455 0.950 . S
C459 C450 1.390 . S
C459 H452 0.950 . S
C459 C456 1.387 . S
C460 C461 1.387 . S
C460 H464 0.950 . S
C460 C469 1.390 . S
C461 C460 1.387 . S
C461 C463 1.387 . S
H462 C469 0.950 . S
C463 C461 1.387 . S
C463 C465 1.390 . S
C463 H467 0.950 . S
H464 C460 0.950 . S
C465 C463 1.390 . S
C465 C466 1.387 . S
C465 H468 0.950 . S
C466 C465 1.387 . S
C466 C469 1.387 . S
H467 C463 0.950 . S
H468 C465 0.950 . S
C469 C460 1.390 . S
C469 H462 0.950 . S
C469 C466 1.387 . S
C470 C471 1.387 . S
C470 H474 0.950 . S
C470 C479 1.390 . S
C471 C470 1.387 . S
C471 C473 1.387 . S
H472 C479 0.950 . S
C473 C471 1.387 . S
C473 C475 1.390 . S
C473 H477 0.950 . S
H474 C470 0.950 . S
C475 C473 1.390 . S
C475 C476 1.387 . S
C475 H478 0.950 . S
C476 C475 1.387 . S
C476 C479 1.387 . S
H477 C473 0.950 . S
H478 C475 0.950 . S
C479 C470 1.390 . S
C479 H472 0.950 . S
C479 C476 1.387 . S
C480 C481 1.387 . S
C480 H484 0.950 . S
C480 C489 1.390 1_455 S
C481 C480 1.387 . S
C481 C483 1.387 . S
H482 C489 0.950 . S
C483 C481 1.387 . S
C483 C485 1.390 1_455 S
C483 H487 0.950 . S
H484 C480 0.950 . S
C485 C483 1.390 1_655 S
C485 C486 1.387 . S
C485 H488 0.950 . S
C486 C485 1.387 . S
C486 C489 1.387 . S
H487 C483 0.950 . S
H488 C485 0.950 . S
C489 C480 1.390 1_655 S
C489 H482 0.950 . S
C489 C486 1.387 . S
C490 C491 1.387 . S
C490 H494 0.950 . S
C490 C499 1.390 1_655 S
C491 C490 1.387 . S
C491 C493 1.387 . S
H492 C499 0.950 . S
C493 C491 1.387 . S
C493 C495 1.390 1_655 S
C493 H497 0.950 . S
H494 C490 0.950 . S
C495 C493 1.390 1_455 S
C495 C496 1.387 . S
C495 H498 0.950 . S
C496 C495 1.387 . S
C496 C499 1.387 . S
H497 C493 0.950 . S
H498 C495 0.950 . S
C499 C490 1.390 1_455 S
C499 H492 0.950 . S
C499 C496 1.387 . S
C500 C501 1.387 . S
C500 H504 0.950 . S
C500 C509 1.390 1_655 S
C501 C500 1.387 . S
C501 C503 1.387 . S
H502 C509 0.950 . S
C503 C501 1.387 . S
C503 C505 1.390 1_655 S
C503 H507 0.950 . S
H504 C500 0.950 . S
C505 C503 1.390 1_455 S
C505 C506 1.387 . S
C505 H508 0.950 . S
C506 C505 1.387 . S
C506 C509 1.387 . S
H507 C503 0.950 . S
H508 C505 0.950 . S
C509 C500 1.390 1_455 S
C509 H502 0.950 . S
C509 C506 1.387 . S
C510 C511 1.387 . S
C510 H514 0.950 . S
C510 C519 1.390 1_655 S
C511 C510 1.387 . S
C511 C513 1.387 . S
H512 C519 0.950 . S
C513 C511 1.387 . S
C513 C515 1.390 1_655 S
C513 H517 0.950 . S
H514 C510 0.950 . S
C515 C513 1.390 1_455 S
C515 C516 1.387 . S
C515 H518 0.950 . S
C516 C515 1.387 . S
C516 C519 1.387 . S
H517 C513 0.950 . S
H518 C515 0.950 . S
C519 C510 1.390 1_455 S
C519 H512 0.950 . S
C519 C516 1.387 . S
C520 C521 1.387 . S
C520 H524 0.950 . S
C520 C529 1.390 . S
C521 C520 1.387 . S
C521 C523 1.387 . S
H522 C529 0.950 . S
C523 C521 1.387 . S
C523 C525 1.390 . S
C523 H527 0.950 . S
H524 C520 0.950 . S
C525 C523 1.390 . S
C525 C526 1.387 . S
C525 H528 0.950 . S
C526 C525 1.387 . S
C526 C529 1.387 . S
H527 C523 0.950 . S
H528 C525 0.950 . S
C529 C520 1.390 . S
C529 H522 0.950 . S
C529 C526 1.387 . S
C530 C531 1.387 . S
C530 H534 0.950 . S
C530 C539 1.390 . S
C531 C530 1.387 . S
C531 C533 1.387 . S
H532 C539 0.950 . S
C533 C531 1.387 . S
C533 C535 1.390 . S
C533 H537 0.950 . S
H534 C530 0.950 . S
C535 C533 1.390 . S
C535 C536 1.387 . S
C535 H538 0.950 . S
C536 C535 1.387 . S
C536 C539 1.387 . S
H537 C533 0.950 . S
H538 C535 0.950 . S
C539 C530 1.390 . S
C539 H532 0.950 . S
C539 C536 1.387 . S
C540 C541 1.387 . S
C540 H544 0.950 . S
C540 C549 1.390 . S
C541 C540 1.387 . S
C541 C543 1.387 . S
H542 C549 0.950 . S
C543 C541 1.387 . S
C543 C545 1.390 . S
C543 H547 0.950 . S
H544 C540 0.950 . S
C545 C543 1.390 . S
C545 C546 1.387 . S
C545 H548 0.950 . S
C546 C545 1.387 . S
C546 C549 1.387 . S
H547 C543 0.950 . S
H548 C545 0.950 . S
C549 C540 1.390 . S
C549 H542 0.950 . S
C549 C546 1.387 . S
C550 C551 1.387 . S
C550 H554 0.950 . S
C550 C559 1.390 . S
C551 C550 1.387 . S
C551 C553 1.387 . S
H552 C559 0.950 . S
C553 C551 1.387 . S
C553 C555 1.390 . S
C553 H557 0.950 . S
H554 C550 0.950 . S
C555 C553 1.390 . S
C555 C556 1.387 . S
C555 H558 0.950 . S
C556 C555 1.387 . S
C556 C559 1.387 . S
H557 C553 0.950 . S
H558 C555 0.950 . S
C559 C550 1.390 . S
C559 H552 0.950 . S
C559 C556 1.387 . S
C321 C31 2.264 . S
C326 C12 2.264 . S
C331 C71 2.264 . S
C336 C52 2.265 . S
C341 C111 2.264 . S
C346 C92 2.264 . S
C351 C151 2.262 . S
C356 C132 2.262 . S
C361 C191 2.262 . S
C366 C172 2.262 . S
C371 C212 2.265 . S
C376 C231 2.264 . S
C381 C271 2.262 . S
C386 C252 2.262 . S
C391 C292 2.262 . S
C396 C311 2.262 . S
C401 C48 2.821 . S
C406 C29 2.821 . S
C411 C149 2.818 . S
C416 C88 2.818 . S
C421 C189 2.817 . S
C426 C208 2.817 . S
C431 C248 2.818 . S
C436 C309 2.818 . S
C441 C8 1.997 . S
C446 C229 1.997 . S
C451 C168 1.997 . S
C456 C69 1.997 . S
C461 C109 1.993 . S
C466 C288 1.993 . S
C471 C128 1.996 . S
C476 C269 1.996 . S
C481 C17 1.586 . S
C486 C137 1.586 . S
C491 C57 1.514 . S
C496 C97 1.514 . S
C501 C42 1.589 . S
C506 C82 1.589 . S
C511 C122 1.515 . S
C516 C2 1.515 . S
C521 C177 1.589 . S
C526 C297 1.589 . S
C531 C217 1.515 . S
C536 C257 1.515 . S
C541 C202 1.589 . S
C546 C242 1.589 . S
C551 C282 1.514 . S
C556 C162 1.514 . S
