# Generated by pormake.
# Topology afi, (4)-cn, num edge types: 1
# Building blocks:
#     Node 0, Type 0, BuildingBlock: QUQFOY_clean_sbu_1, # of connection points: 4
#     Node 1, Type 0, BuildingBlock: QUQFOY_clean_sbu_1, # of connection points: 4
#     Node 2, Type 0, BuildingBlock: QUQFOY_clean_sbu_1, # of connection points: 4
#     Node 3, Type 0, BuildingBlock: QUQFOY_clean_sbu_1, # of connection points: 4
#     Node 4, Type 0, BuildingBlock: QUQFOY_clean_sbu_1, # of connection points: 4
#     Node 5, Type 0, BuildingBlock: QUQFOY_clean_sbu_1, # of connection points: 4
#     Node 6, Type 0, BuildingBlock: QUQFOY_clean_sbu_1, # of connection points: 4
#     Node 7, Type 0, BuildingBlock: QUQFOY_clean_sbu_1, # of connection points: 4
#     Node 8, Type 0, BuildingBlock: QUQFOY_clean_sbu_1, # of connection points: 4
#     Node 9, Type 0, BuildingBlock: QUQFOY_clean_sbu_1, # of connection points: 4
#     Node 10, Type 0, BuildingBlock: QUQFOY_clean_sbu_1, # of connection points: 4
#     Node 11, Type 0, BuildingBlock: QUQFOY_clean_sbu_1, # of connection points: 4
#     Node 12, Type 0, BuildingBlock: QUQFOY_clean_sbu_1, # of connection points: 4
#     Node 13, Type 0, BuildingBlock: QUQFOY_clean_sbu_1, # of connection points: 4
#     Node 14, Type 0, BuildingBlock: QUQFOY_clean_sbu_1, # of connection points: 4
#     Node 15, Type 0, BuildingBlock: QUQFOY_clean_sbu_1, # of connection points: 4
#     Node 16, Type 0, BuildingBlock: QUQFOY_clean_sbu_1, # of connection points: 4
#     Node 17, Type 0, BuildingBlock: QUQFOY_clean_sbu_1, # of connection points: 4
#     Node 18, Type 0, BuildingBlock: QUQFOY_clean_sbu_1, # of connection points: 4
#     Node 19, Type 0, BuildingBlock: QUQFOY_clean_sbu_1, # of connection points: 4
#     Node 20, Type 0, BuildingBlock: QUQFOY_clean_sbu_1, # of connection points: 4
#     Node 21, Type 0, BuildingBlock: QUQFOY_clean_sbu_1, # of connection points: 4
#     Node 22, Type 0, BuildingBlock: QUQFOY_clean_sbu_1, # of connection points: 4
#     Node 23, Type 0, BuildingBlock: QUQFOY_clean_sbu_1, # of connection points: 4
#     Edge 24, Type (0, 0), BuildingBlock: EZIPEK_clean_linker_0, # of connection points: 2
#     Edge 25, Type (0, 0), BuildingBlock: EZIPEK_clean_linker_0, # of connection points: 2
#     Edge 26, Type (0, 0), BuildingBlock: EZIPEK_clean_linker_0, # of connection points: 2
#     Edge 27, Type (0, 0), BuildingBlock: EZIPEK_clean_linker_0, # of connection points: 2
#     Edge 28, Type (0, 0), BuildingBlock: EZIPEK_clean_linker_0, # of connection points: 2
#     Edge 29, Type (0, 0), BuildingBlock: EZIPEK_clean_linker_0, # of connection points: 2
#     Edge 30, Type (0, 0), BuildingBlock: EZIPEK_clean_linker_0, # of connection points: 2
#     Edge 31, Type (0, 0), BuildingBlock: EZIPEK_clean_linker_0, # of connection points: 2
#     Edge 32, Type (0, 0), BuildingBlock: EZIPEK_clean_linker_0, # of connection points: 2
#     Edge 33, Type (0, 0), BuildingBlock: EZIPEK_clean_linker_0, # of connection points: 2
#     Edge 34, Type (0, 0), BuildingBlock: EZIPEK_clean_linker_0, # of connection points: 2
#     Edge 35, Type (0, 0), BuildingBlock: EZIPEK_clean_linker_0, # of connection points: 2
#     Edge 36, Type (0, 0), BuildingBlock: EZIPEK_clean_linker_0, # of connection points: 2
#     Edge 37, Type (0, 0), BuildingBlock: EZIPEK_clean_linker_0, # of connection points: 2
#     Edge 38, Type (0, 0), BuildingBlock: EZIPEK_clean_linker_0, # of connection points: 2
#     Edge 39, Type (0, 0), BuildingBlock: EZIPEK_clean_linker_0, # of connection points: 2
#     Edge 40, Type (0, 0), BuildingBlock: EZIPEK_clean_linker_0, # of connection points: 2
#     Edge 41, Type (0, 0), BuildingBlock: EZIPEK_clean_linker_0, # of connection points: 2
#     Edge 42, Type (0, 0), BuildingBlock: EZIPEK_clean_linker_0, # of connection points: 2
#     Edge 43, Type (0, 0), BuildingBlock: EZIPEK_clean_linker_0, # of connection points: 2
#     Edge 44, Type (0, 0), BuildingBlock: EZIPEK_clean_linker_0, # of connection points: 2
#     Edge 45, Type (0, 0), BuildingBlock: EZIPEK_clean_linker_0, # of connection points: 2
#     Edge 46, Type (0, 0), BuildingBlock: EZIPEK_clean_linker_0, # of connection points: 2
#     Edge 47, Type (0, 0), BuildingBlock: EZIPEK_clean_linker_0, # of connection points: 2
#     Edge 48, Type (0, 0), BuildingBlock: EZIPEK_clean_linker_0, # of connection points: 2
#     Edge 49, Type (0, 0), BuildingBlock: EZIPEK_clean_linker_0, # of connection points: 2
#     Edge 50, Type (0, 0), BuildingBlock: EZIPEK_clean_linker_0, # of connection points: 2
#     Edge 51, Type (0, 0), BuildingBlock: EZIPEK_clean_linker_0, # of connection points: 2
#     Edge 52, Type (0, 0), BuildingBlock: EZIPEK_clean_linker_0, # of connection points: 2
#     Edge 53, Type (0, 0), BuildingBlock: EZIPEK_clean_linker_0, # of connection points: 2
#     Edge 54, Type (0, 0), BuildingBlock: EZIPEK_clean_linker_0, # of connection points: 2
#     Edge 55, Type (0, 0), BuildingBlock: EZIPEK_clean_linker_0, # of connection points: 2
#     Edge 56, Type (0, 0), BuildingBlock: EZIPEK_clean_linker_0, # of connection points: 2
#     Edge 57, Type (0, 0), BuildingBlock: EZIPEK_clean_linker_0, # of connection points: 2
#     Edge 58, Type (0, 0), BuildingBlock: EZIPEK_clean_linker_0, # of connection points: 2
#     Edge 59, Type (0, 0), BuildingBlock: EZIPEK_clean_linker_0, # of connection points: 2
#     Edge 60, Type (0, 0), BuildingBlock: EZIPEK_clean_linker_0, # of connection points: 2
#     Edge 61, Type (0, 0), BuildingBlock: EZIPEK_clean_linker_0, # of connection points: 2
#     Edge 62, Type (0, 0), BuildingBlock: EZIPEK_clean_linker_0, # of connection points: 2
#     Edge 63, Type (0, 0), BuildingBlock: EZIPEK_clean_linker_0, # of connection points: 2
#     Edge 64, Type (0, 0), BuildingBlock: EZIPEK_clean_linker_0, # of connection points: 2
#     Edge 65, Type (0, 0), BuildingBlock: EZIPEK_clean_linker_0, # of connection points: 2
#     Edge 66, Type (0, 0), BuildingBlock: EZIPEK_clean_linker_0, # of connection points: 2
#     Edge 67, Type (0, 0), BuildingBlock: EZIPEK_clean_linker_0, # of connection points: 2
#     Edge 68, Type (0, 0), BuildingBlock: EZIPEK_clean_linker_0, # of connection points: 2
#     Edge 69, Type (0, 0), BuildingBlock: EZIPEK_clean_linker_0, # of connection points: 2
#     Edge 70, Type (0, 0), BuildingBlock: EZIPEK_clean_linker_0, # of connection points: 2
#     Edge 71, Type (0, 0), BuildingBlock: EZIPEK_clean_linker_0, # of connection points: 2
# Relax obj value: 0.128
# Max RMSD: 0.167
# Mean RMSD: 0.167
data_MOF--net-afi--node1-QUQFOY_clean_sbu_1--edge1-EZIPEK_clean_linker_0
_symmetry_space_group_name_H-M    P1
_symmetry_Int_Tables_number       1
_symmetry_cell_setting            triclinic
loop_
_symmetry_equiv_pos_as_xyz
'x, y, z'
_cell_length_a     51.086325
_cell_length_b     51.027362
_cell_length_c     32.813364
_cell_angle_alpha  90.002465
_cell_angle_beta   89.98505
_cell_angle_gamma 120.03771
loop_
_atom_site_label
_atom_site_type_symbol
_atom_site_fract_x
_atom_site_fract_y
_atom_site_fract_z
_atom_type_partial_charge
O0 O 0.48969 0.12675 0.26134 0.0
Cd1 Cd 0.4487 0.12271 0.24534 0.0
Cd2 Cd 0.45701 0.09539 0.17917 0.0
O3 O 0.49959 0.11182 0.20304 0.0
O4 O 0.44382 0.1495 0.2848 0.0
O5 O 0.4475 0.15726 0.21798 0.0
C6 C 0.44482 0.16569 0.25412 0.0
C7 C 0.4524 0.10076 0.10906 0.0
C8 C 0.50729 0.12225 0.23887 0.0
C9 C 0.40716 0.05673 0.23861 0.0
O10 O 0.4238 0.05765 0.20914 0.0
O11 O 0.41076 0.08105 0.25425 0.0
O12 O 0.45936 0.08145 0.12305 0.0
O13 O 0.44761 0.11703 0.13487 0.0
O14 O 0.35776 0.48843 0.26279 0.0
Cd15 Cd 0.32036 0.44765 0.24686 0.0
Cd16 Cd 0.35543 0.45552 0.18015 0.0
O17 O 0.38273 0.49765 0.20466 0.0
O18 O 0.28893 0.44329 0.28635 0.0
O19 O 0.28499 0.44714 0.21953 0.0
C20 C 0.27395 0.44466 0.25568 0.0
C21 C 0.34605 0.45283 0.11005 0.0
C22 C 0.38014 0.50562 0.24037 0.0
C23 C 0.3434 0.405 0.23892 0.0
O24 O 0.35882 0.42135 0.20906 0.0
O25 O 0.32333 0.40923 0.25535 0.0
O26 O 0.37177 0.45807 0.12408 0.0
O27 O 0.32515 0.44864 0.13578 0.0
O28 O 0.86457 0.35844 0.26413 0.0
Cd29 Cd 0.86925 0.32223 0.2463 0.0
Cd30 Cd 0.89538 0.35912 0.181 0.0
O31 O 0.87794 0.38404 0.20628 0.0
O32 O 0.84299 0.29012 0.28557 0.0
O33 O 0.83463 0.28653 0.2189 0.0
C34 C 0.82646 0.27521 0.25498 0.0
C35 C 0.89045 0.34977 0.1107 0.0
C36 C 0.86823 0.38071 0.24262 0.0
C37 C 0.9352 0.34855 0.23909 0.0
O38 O 0.93354 0.36449 0.21048 0.0
O39 O 0.91132 0.32684 0.25427 0.0
O40 O 0.909 0.37618 0.1251 0.0
O41 O 0.87457 0.32828 0.13619 0.0
O42 O 0.49981 0.86501 0.26464 0.0
Cd43 Cd 0.5408 0.86871 0.24959 0.0
Cd44 Cd 0.53344 0.89518 0.18291 0.0
O45 O 0.49083 0.88009 0.20582 0.0
O46 O 0.54498 0.84113 0.28826 0.0
O47 O 0.54195 0.83454 0.22115 0.0
C48 C 0.54419 0.82545 0.25705 0.0
C49 C 0.53867 0.88811 0.11365 0.0
C50 C 0.48266 0.8698 0.24163 0.0
C51 C 0.58299 0.93434 0.24231 0.0
O52 O 0.56681 0.93312 0.21212 0.0
O53 O 0.57886 0.91016 0.25907 0.0
O54 O 0.53271 0.90853 0.12595 0.0
O55 O 0.542 0.87159 0.14068 0.0
O56 O 0.63043 0.50255 0.26208 0.0
Cd57 Cd 0.66813 0.54312 0.24611 0.0
Cd58 Cd 0.6337 0.5358 0.1798 0.0
O59 O 0.60671 0.49312 0.20296 0.0
O60 O 0.69988 0.54702 0.28455 0.0
O61 O 0.70296 0.54338 0.2175 0.0
C62 C 0.71446 0.54574 0.25331 0.0
C63 C 0.64393 0.54094 0.10981 0.0
C64 C 0.6085 0.48527 0.2391 0.0
C65 C 0.6452 0.58565 0.23931 0.0
O66 O 0.62947 0.56907 0.20982 0.0
O67 O 0.66567 0.58176 0.25508 0.0
O68 O 0.6177 0.53412 0.12375 0.0
O69 O 0.6648 0.54522 0.13561 0.0
O70 O 0.12336 0.63294 0.26184 0.0
Cd71 Cd 0.11931 0.67064 0.25329 0.0
Cd72 Cd 0.09746 0.6445 0.1792 0.0
O73 O 0.11247 0.61574 0.19871 0.0
O74 O 0.1469 0.70109 0.29337 0.0
O75 O 0.15257 0.70733 0.22622 0.0
C76 C 0.16207 0.71729 0.2626 0.0
C77 C 0.10397 0.65721 0.10975 0.0
C78 C 0.12009 0.61365 0.23493 0.0
C79 C 0.05457 0.64791 0.24111 0.0
O80 O 0.0582 0.63788 0.20733 0.0
O81 O 0.07696 0.66416 0.26393 0.0
O82 O 0.08388 0.63074 0.12209 0.0
O83 O 0.12045 0.67704 0.13678 0.0
O84 O 0.86556 0.50204 0.28137 0.0
Cd85 Cd 0.86929 0.54347 0.29161 0.0
Cd86 Cd 0.88928 0.53772 0.3663 0.0
O87 O 0.87453 0.49439 0.34482 0.0
O88 O 0.8423 0.54725 0.25153 0.0
O89 O 0.83549 0.5458 0.31865 0.0
C90 C 0.82653 0.54718 0.28226 0.0
C91 C 0.88094 0.54134 0.43587 0.0
C92 C 0.86797 0.48543 0.30816 0.0
C93 C 0.93366 0.58568 0.30732 0.0
O94 O 0.9293 0.5713 0.34067 0.0
O95 O 0.9118 0.57982 0.2836 0.0
O96 O 0.90082 0.53471 0.42358 0.0
O97 O 0.86568 0.54638 0.40877 0.0
O98 O 0.35805 0.86806 0.28556 0.0
Cd99 Cd 0.32063 0.87158 0.30068 0.0
Cd100 Cd 0.35467 0.89803 0.36774 0.0
O101 O 0.38107 0.88152 0.34524 0.0
O102 O 0.2891 0.84413 0.26158 0.0
O103 O 0.28515 0.83706 0.32855 0.0
C104 C 0.27405 0.82814 0.2925 0.0
C105 C 0.34438 0.89284 0.43773 0.0
C106 C 0.37954 0.87211 0.30901 0.0
C107 C 0.34498 0.93725 0.30725 0.0
O108 O 0.36007 0.93592 0.33722 0.0
O109 O 0.32416 0.91311 0.29137 0.0
O110 O 0.37051 0.91259 0.42384 0.0
O111 O 0.32357 0.8761 0.4119 0.0
O112 O 0.48668 0.35973 0.28414 0.0
Cd113 Cd 0.44569 0.32194 0.29835 0.0
Cd114 Cd 0.45245 0.35646 0.36543 0.0
O115 O 0.49523 0.38387 0.3429 0.0
O116 O 0.44236 0.29157 0.25769 0.0
O117 O 0.44496 0.28597 0.32435 0.0
C118 C 0.4433 0.27588 0.28778 0.0
C119 C 0.4469 0.34556 0.4352 0.0
C120 C 0.50365 0.38173 0.30726 0.0
C121 C 0.40306 0.34495 0.30501 0.0
O122 O 0.41923 0.36041 0.33494 0.0
O123 O 0.40726 0.32472 0.28901 0.0
O124 O 0.45285 0.37166 0.42167 0.0
O125 O 0.44373 0.32519 0.40914 0.0
O126 O 0.12527 0.49097 0.27963 0.0
Cd127 Cd 0.12098 0.45031 0.29791 0.0
Cd128 Cd 0.0943 0.46099 0.3635 0.0
O129 O 0.11067 0.50282 0.33677 0.0
O130 O 0.14689 0.44436 0.25814 0.0
O131 O 0.15599 0.44957 0.3246 0.0
C132 C 0.16374 0.44616 0.28838 0.0
C133 C 0.09998 0.45852 0.43407 0.0
C134 C 0.12084 0.50929 0.30064 0.0
C135 C 0.055 0.40964 0.30613 0.0
O136 O 0.05636 0.427 0.33491 0.0
O137 O 0.07902 0.41253 0.29049 0.0
O138 O 0.08073 0.46521 0.41913 0.0
O139 O 0.11626 0.45315 0.40903 0.0
O140 O 0.63158 0.12369 0.28178 0.0
Cd141 Cd 0.66926 0.12053 0.29661 0.0
Cd142 Cd 0.63678 0.09625 0.36494 0.0
O143 O 0.61066 0.11327 0.34289 0.0
O144 O 0.70049 0.1472 0.25663 0.0
O145 O 0.70477 0.15552 0.3234 0.0
C146 C 0.71566 0.16376 0.2871 0.0
C147 C 0.64917 0.10261 0.43431 0.0
C148 C 0.61107 0.12114 0.30607 0.0
C149 C 0.64485 0.05516 0.30627 0.0
O150 O 0.62987 0.05733 0.33577 0.0
O151 O 0.66579 0.07885 0.28965 0.0
O152 O 0.62227 0.08362 0.42198 0.0
O153 O 0.66951 0.118 0.40722 0.0
O154 O 0.5029 0.63081 0.28196 0.0
Cd155 Cd 0.54342 0.66889 0.29673 0.0
Cd156 Cd 0.53662 0.6361 0.36472 0.0
O157 O 0.49372 0.60901 0.34245 0.0
O158 O 0.54693 0.69969 0.25679 0.0
O159 O 0.54341 0.70415 0.32361 0.0
C160 C 0.54547 0.71479 0.28728 0.0
C161 C 0.54129 0.64711 0.43439 0.0
C162 C 0.48567 0.60968 0.30606 0.0
C163 C 0.58599 0.64623 0.30517 0.0
O164 O 0.56959 0.63104 0.33515 0.0
O165 O 0.58209 0.66649 0.28867 0.0
O166 O 0.53451 0.62068 0.42124 0.0
O167 O 0.54592 0.6678 0.40805 0.0
O168 O 0.4966 0.86602 0.7849 0.0
Cd169 Cd 0.5383 0.87014 0.79399 0.0
Cd170 Cd 0.53339 0.89149 0.86875 0.0
O171 O 0.48975 0.87609 0.84821 0.0
O172 O 0.54193 0.84308 0.75374 0.0
O173 O 0.54185 0.83689 0.82084 0.0
C174 C 0.54297 0.82784 0.78441 0.0
C175 C 0.53878 0.88575 0.93876 0.0
C176 C 0.48035 0.86891 0.8118 0.0
C177 C 0.58041 0.93487 0.8078 0.0
O178 O 0.5665 0.93097 0.84145 0.0
O179 O 0.57425 0.91269 0.78451 0.0
O180 O 0.53167 0.90505 0.92536 0.0
O181 O 0.54325 0.86957 0.91245 0.0
O182 O 0.63124 0.50438 0.78298 0.0
Cd183 Cd 0.66838 0.54517 0.79957 0.0
Cd184 Cd 0.63287 0.53745 0.86465 0.0
O185 O 0.60577 0.49504 0.84069 0.0
O186 O 0.70103 0.54937 0.76261 0.0
O187 O 0.70261 0.54545 0.82986 0.0
C188 C 0.71484 0.54788 0.79456 0.0
C189 C 0.64335 0.54191 0.93445 0.0
C190 C 0.60871 0.48709 0.8051 0.0
C191 C 0.64547 0.58787 0.80547 0.0
O192 O 0.62959 0.5714 0.83496 0.0
O193 O 0.66576 0.58367 0.78976 0.0
O194 O 0.61738 0.53627 0.92089 0.0
O195 O 0.66381 0.54536 0.9084 0.0
O196 O 0.122 0.63261 0.78188 0.0
Cd197 Cd 0.11754 0.67001 0.79112 0.0
Cd198 Cd 0.09731 0.64419 0.86562 0.0
O199 O 0.11335 0.61638 0.84555 0.0
O200 O 0.14454 0.70085 0.75102 0.0
O201 O 0.15065 0.7067 0.81818 0.0
C202 C 0.1598 0.71696 0.7818 0.0
C203 C 0.10404 0.65703 0.93508 0.0
C204 C 0.12001 0.61392 0.80894 0.0
C205 C 0.05293 0.64627 0.80518 0.0
O206 O 0.05727 0.63629 0.83855 0.0
O207 O 0.07489 0.66301 0.782 0.0
O208 O 0.08492 0.63014 0.92295 0.0
O209 O 0.11942 0.67719 0.90781 0.0
O210 O 0.4896 0.12874 0.78158 0.0
Cd211 Cd 0.44842 0.12401 0.79791 0.0
Cd212 Cd 0.45712 0.09617 0.8632 0.0
O213 O 0.49932 0.11173 0.83823 0.0
O214 O 0.44422 0.15192 0.7598 0.0
O215 O 0.44593 0.1573 0.827 0.0
C216 C 0.44422 0.16698 0.79127 0.0
C217 C 0.45291 0.10141 0.93339 0.0
C218 C 0.50699 0.12313 0.80283 0.0
C219 C 0.40683 0.058 0.80379 0.0
O220 O 0.42313 0.05888 0.83364 0.0
O221 O 0.41087 0.08232 0.78755 0.0
O222 O 0.45879 0.08142 0.91906 0.0
O223 O 0.44925 0.11863 0.90795 0.0
O224 O 0.35919 0.49179 0.78158 0.0
Cd225 Cd 0.32165 0.45097 0.79699 0.0
Cd226 Cd 0.35624 0.45907 0.86455 0.0
O227 O 0.383 0.50156 0.84067 0.0
O228 O 0.29099 0.44652 0.75611 0.0
O229 O 0.28558 0.45018 0.82261 0.0
C230 C 0.27529 0.4477 0.78601 0.0
C231 C 0.34656 0.45514 0.93463 0.0
C232 C 0.38099 0.5093 0.80458 0.0
C233 C 0.34531 0.40895 0.80575 0.0
O234 O 0.36069 0.4256 0.83541 0.0
O235 O 0.32495 0.41269 0.78928 0.0
O236 O 0.37274 0.46193 0.92058 0.0
O237 O 0.32542 0.45027 0.90897 0.0
O238 O 0.86411 0.3568 0.78197 0.0
Cd239 Cd 0.8694 0.321 0.80022 0.0
Cd240 Cd 0.8961 0.35842 0.86453 0.0
O241 O 0.87898 0.3835 0.8389 0.0
O242 O 0.84204 0.28752 0.76335 0.0
O243 O 0.83584 0.2862 0.83043 0.0
C244 C 0.82657 0.27363 0.79518 0.0
C245 C 0.89102 0.34941 0.93485 0.0
C246 C 0.86841 0.37953 0.80298 0.0
C247 C 0.93542 0.34732 0.806 0.0
O248 O 0.93396 0.36317 0.83489 0.0
O249 O 0.91142 0.32574 0.79091 0.0
O250 O 0.91034 0.3755 0.92028 0.0
O251 O 0.87445 0.32805 0.90957 0.0
O252 O 0.12527 0.49124 0.76393 0.0
Cd253 Cd 0.12087 0.45059 0.74534 0.0
Cd254 Cd 0.09368 0.46095 0.6805 0.0
O255 O 0.10982 0.50273 0.70728 0.0
O256 O 0.14751 0.44471 0.78384 0.0
O257 O 0.15546 0.45005 0.71711 0.0
C258 C 0.16388 0.44665 0.7529 0.0
C259 C 0.09988 0.45874 0.61005 0.0
C260 C 0.12041 0.50938 0.74318 0.0
C261 C 0.05487 0.40945 0.73791 0.0
O262 O 0.05593 0.42667 0.70913 0.0
O263 O 0.07908 0.41266 0.75336 0.0
O264 O 0.08023 0.46497 0.62474 0.0
O265 O 0.11612 0.45348 0.63528 0.0
O266 O 0.63038 0.12493 0.76281 0.0
Cd267 Cd 0.66782 0.12058 0.75356 0.0
Cd268 Cd 0.64045 0.09863 0.67933 0.0
O269 O 0.61253 0.11434 0.69996 0.0
O270 O 0.69762 0.147 0.79515 0.0
O271 O 0.70527 0.15435 0.72845 0.0
C272 C 0.71454 0.16289 0.76531 0.0
C273 C 0.65148 0.10404 0.60931 0.0
C274 C 0.61093 0.12194 0.73638 0.0
C275 C 0.64411 0.05558 0.74082 0.0
O276 O 0.63367 0.05932 0.70748 0.0
O277 O 0.66094 0.07795 0.76337 0.0
O278 O 0.62522 0.08444 0.62283 0.0
O279 O 0.67202 0.1207 0.63545 0.0
O280 O 0.50429 0.6343 0.76226 0.0
Cd281 Cd 0.54482 0.67226 0.74693 0.0
Cd282 Cd 0.53783 0.63864 0.67961 0.0
O283 O 0.49509 0.61158 0.70241 0.0
O284 O 0.54824 0.70367 0.78577 0.0
O285 O 0.54456 0.70703 0.71878 0.0
C286 C 0.54654 0.7182 0.75474 0.0
C287 C 0.54195 0.64847 0.60957 0.0
C288 C 0.48707 0.61279 0.73865 0.0
C289 C 0.58742 0.64951 0.73935 0.0
O290 O 0.57105 0.63419 0.70945 0.0
O291 O 0.5835 0.66985 0.75558 0.0
O292 O 0.53594 0.62248 0.62361 0.0
O293 O 0.54614 0.66941 0.63526 0.0
O294 O 0.86376 0.49974 0.76438 0.0
Cd295 Cd 0.8674 0.54125 0.75515 0.0
Cd296 Cd 0.88805 0.53633 0.68015 0.0
O297 O 0.87391 0.493 0.70109 0.0
O298 O 0.84078 0.54461 0.79632 0.0
O299 O 0.83357 0.54434 0.72946 0.0
C300 C 0.82495 0.54532 0.7662 0.0
C301 C 0.88014 0.5404 0.61052 0.0
C302 C 0.8669 0.48361 0.73754 0.0
C303 C 0.93178 0.58395 0.74002 0.0
O304 O 0.92768 0.57007 0.7063 0.0
O305 O 0.90983 0.5775 0.76384 0.0
O306 O 0.9005 0.53449 0.62295 0.0
O307 O 0.8641 0.54439 0.63755 0.0
O308 O 0.3541 0.8669 0.76681 0.0
Cd309 Cd 0.31826 0.87169 0.74739 0.0
Cd310 Cd 0.35525 0.89675 0.68315 0.0
O311 O 0.37967 0.87895 0.70898 0.0
O312 O 0.28505 0.84504 0.78499 0.0
O313 O 0.28357 0.83726 0.71825 0.0
C314 C 0.27116 0.82874 0.75372 0.0
C315 C 0.34516 0.89132 0.61317 0.0
C316 C 0.37623 0.86984 0.74565 0.0
C317 C 0.34489 0.93756 0.73931 0.0
O318 O 0.36118 0.93544 0.71166 0.0
O319 O 0.32276 0.91388 0.75423 0.0
O320 O 0.37184 0.90961 0.62697 0.0
O321 O 0.32388 0.87581 0.63909 0.0
O322 O 0.48682 0.36181 0.76246 0.0
Cd323 Cd 0.44586 0.32375 0.74908 0.0
Cd324 Cd 0.45276 0.3564 0.68032 0.0
O325 O 0.49599 0.38319 0.70167 0.0
O326 O 0.44302 0.29377 0.79003 0.0
O327 O 0.44412 0.28728 0.72326 0.0
C328 C 0.44301 0.27757 0.75994 0.0
C329 C 0.44675 0.34527 0.61051 0.0
C330 C 0.5041 0.38269 0.7381 0.0
C331 C 0.40417 0.34744 0.74095 0.0
O332 O 0.42052 0.36222 0.71072 0.0
O333 O 0.40772 0.32702 0.75768 0.0
O334 O 0.4541 0.37179 0.62392 0.0
O335 O 0.44221 0.32454 0.63676 0.0
C336 C 0.38344 0.02204 0.29964 0.0
C337 C 0.38532 0.02685 0.25668 0.0
C338 C 0.35765 0.97208 0.24588 0.0
C339 C 0.35411 0.96732 0.28885 0.0
N340 N 0.35425 0.98851 0.35462 0.0
N341 N 0.36443 0.00632 0.19063 0.0
C342 C 0.36371 0.99259 0.31501 0.0
C343 C 0.36897 0.00179 0.23041 0.0
N344 N 0.40208 0.04447 0.32589 0.0
N345 N 0.35291 0.94926 0.21974 0.0
H346 H 0.3716 0.02783 0.17872 0.0
H347 H 0.35056 0.98861 0.17112 0.0
H348 H 0.34708 0.92751 0.2289 0.0
H349 H 0.35825 0.95297 0.18883 0.0
H350 H 0.40313 0.04062 0.3569 0.0
H351 H 0.41893 0.06585 0.31673 0.0
H352 H 0.35884 0.00651 0.374 0.0
H353 H 0.33893 0.96723 0.3664 0.0
C354 C 0.37887 0.35597 0.24439 0.0
C355 C 0.38096 0.35274 0.28725 0.0
C356 C 0.35466 0.38096 0.2994 0.0
C357 C 0.35126 0.38292 0.25655 0.0
N358 N 0.35005 0.36189 0.19031 0.0
N359 N 0.36017 0.35191 0.35354 0.0
C360 C 0.35982 0.36673 0.22978 0.0
C361 C 0.36504 0.36161 0.31402 0.0
N362 N 0.39669 0.35149 0.21748 0.0
N363 N 0.35079 0.39923 0.32624 0.0
H364 H 0.36665 0.33685 0.36475 0.0
H365 H 0.34665 0.35598 0.37339 0.0
H366 H 0.34573 0.41582 0.31777 0.0
H367 H 0.35607 0.40023 0.3571 0.0
H368 H 0.3977 0.35672 0.1866 0.0
H369 H 0.41286 0.34585 0.22587 0.0
H370 H 0.35381 0.34814 0.17047 0.0
H371 H 0.33522 0.36866 0.17912 0.0
C372 C 0.99037 0.36723 0.23029 0.0
C373 C 0.96534 0.35756 0.25686 0.0
C374 C 5e-05 0.37193 0.31491 0.0
C375 C 0.02497 0.38806 0.28838 0.0
N376 N 0.04238 0.40511 0.2192 0.0
N377 N 0.94761 0.35595 0.32617 0.0
C378 C 0.01995 0.3865 0.24549 0.0
C379 C 0.97031 0.36081 0.29977 0.0
N380 N 0.98592 0.35824 0.19047 0.0
N381 N 0.00474 0.3674 0.35463 0.0
H382 H 0.92584 0.35008 0.31714 0.0
H383 H 0.95138 0.36112 0.35711 0.0
H384 H 0.02628 0.37454 0.36631 0.0
H385 H 0.98714 0.35364 0.37434 0.0
H386 H 0.00368 0.36277 0.1707 0.0
H387 H 0.96451 0.34337 0.17872 0.0
H388 H 0.03846 0.40653 0.18832 0.0
H389 H 0.06392 0.42159 0.22831 0.0
C390 C 0.60642 0.97018 0.30234 0.0
C391 C 0.6049 0.96446 0.25964 0.0
C392 C 0.63253 0.01894 0.24665 0.0
C393 C 0.63567 0.02465 0.28942 0.0
N394 N 0.63514 0.00497 0.35646 0.0
N395 N 0.62646 0.98356 0.19336 0.0
C396 C 0.62594 -2e-05 0.31674 0.0
C397 C 0.62149 0.98893 0.23258 0.0
N398 N 0.58766 0.9483 0.32916 0.0
N399 N 0.63737 0.04113 0.21928 0.0
H400 H 0.61948 0.9618 0.18255 0.0
H401 H 0.64047 0.00086 0.17341 0.0
H402 H 0.6429 0.063 0.22734 0.0
H403 H 0.63237 0.03672 0.18837 0.0
H404 H 0.58632 0.95284 0.35983 0.0
H405 H 0.57103 0.92665 0.32065 0.0
H406 H 0.63045 0.98742 0.37674 0.0
H407 H 0.65037 0.02649 0.36758 0.0
C408 C 0.62383 0.6293 0.31434 0.0
C409 C 0.60774 0.63795 0.28756 0.0
C410 C 0.62863 0.62372 0.23006 0.0
C411 C 0.63749 0.60784 0.25691 0.0
N412 N 0.63887 0.59226 0.3267 0.0
N413 N 0.59132 0.63835 0.21793 0.0
C414 C 0.63441 0.61008 0.29977 0.0
C415 C 0.60953 0.63437 0.24472 0.0
N416 N 0.62878 0.63918 0.35378 0.0
N417 N 0.63812 0.62831 0.19046 0.0
H418 H 0.57489 0.64361 0.22646 0.0
H419 H 0.59017 0.63295 0.18709 0.0
H420 H 0.65297 0.62158 0.1792 0.0
H421 H 0.6341 0.64182 0.17052 0.0
H422 H 0.64248 0.63536 0.3736 0.0
H423 H 0.62216 0.65414 0.36494 0.0
H424 H 0.63374 0.59134 0.35761 0.0
H425 H 0.6444 0.57599 0.3183 0.0
C426 C 0.00835 0.64945 0.26527 0.0
C427 C 0.02392 0.63328 0.25902 0.0
C428 C 0.97955 0.58635 0.28103 0.0
C429 C 0.96474 0.60274 0.29092 0.0
N430 N 0.96539 0.6501 0.29638 0.0
N431 N 0.02725 0.58829 0.27107 0.0
C432 C 0.97922 0.63443 0.2841 0.0
C433 C 0.01037 0.6023 0.2699 0.0
N434 N 0.02113 0.67877 0.25239 0.0
N435 N 0.9638 0.55538 0.2803 0.0
H436 H 0.0503 0.59938 0.2644 0.0
H437 H 0.01916 0.56662 0.28288 0.0
H438 H 0.94074 0.5426 0.28654 0.0
H439 H 0.97283 0.54246 0.26914 0.0
H440 H 0.00987 0.69104 0.25239 0.0
H441 H 0.04258 0.69029 0.23918 0.0
H442 H 0.97579 0.6736 0.29585 0.0
H443 H 0.94398 0.63953 0.30977 0.0
C444 C 0.62917 0.97931 0.78236 0.0
C445 C 0.59782 0.96586 0.79107 0.0
C446 C 0.59871 0.0125 0.77173 0.0
C447 C 0.62916 0.025 0.75896 0.0
N448 N 0.6732 0.02018 0.74867 0.0
N449 N 0.55124 0.96688 0.78376 0.0
C450 C 0.64446 0.0084 0.76337 0.0
C451 C 0.58216 0.98168 0.78292 0.0
N452 N 0.64429 0.96459 0.79309 0.0
N453 N 0.5858 0.03033 0.77448 0.0
H454 H 0.53797 0.94381 0.78983 0.0
H455 H 0.53869 0.97669 0.77394 0.0
H456 H 0.59738 0.05339 0.76767 0.0
H457 H 0.56468 0.02299 0.78764 0.0
H458 H 0.66766 0.97427 0.79113 0.0
H459 H 0.63354 0.94324 0.80668 0.0
H460 H 0.68465 0.00813 0.74726 0.0
H461 H 0.68495 0.04162 0.73539 0.0
C462 C 0.62971 0.62661 0.81464 0.0
C463 C 0.63814 0.61034 0.78783 0.0
C464 C 0.62494 0.63215 0.73036 0.0
C465 C 0.60916 0.64122 0.75711 0.0
N466 N 0.59318 0.64229 0.82681 0.0
N467 N 0.63912 0.59444 0.71812 0.0
C468 C 0.61099 0.63774 0.79997 0.0
C469 C 0.63507 0.61258 0.74499 0.0
N470 N 0.63926 0.63113 0.85421 0.0
N471 N 0.62999 0.64195 0.69089 0.0
H472 H 0.64428 0.57793 0.7266 0.0
H473 H 0.634 0.59355 0.68721 0.0
H474 H 0.6237 0.65716 0.6797 0.0
H475 H 0.64345 0.63779 0.67106 0.0
H476 H 0.6356 0.64492 0.8741 0.0
H477 H 0.65381 0.62404 0.86548 0.0
H478 H 0.59197 0.63689 0.85765 0.0
H479 H 0.57715 0.64812 0.81837 0.0
C480 C 0.97733 0.63266 0.76321 0.0
C481 C 0.96278 0.60095 0.7566 0.0
C482 C 0.00834 0.6004 0.77759 0.0
C483 C 0.02203 0.63145 0.78813 0.0
N484 N 0.01937 0.67704 0.79456 0.0
N485 N 0.96167 0.55353 0.76742 0.0
C486 C 0.00651 0.64767 0.78186 0.0
C487 C 0.9775 0.5845 0.76662 0.0
N488 N 0.96352 0.64834 0.7509 0.0
N489 N 0.02513 0.58629 0.77639 0.0
H490 H 0.93861 0.54079 0.76105 0.0
H491 H 0.97062 0.54057 0.77867 0.0
H492 H 0.04822 0.59735 0.78278 0.0
H493 H 0.01692 0.56455 0.76479 0.0
H494 H 0.97398 0.67185 0.75124 0.0
H495 H 0.94205 0.63775 0.73772 0.0
H496 H 0.00817 0.68936 0.79451 0.0
H497 H 0.04082 0.68855 0.80776 0.0
C498 C 0.36772 0.00356 0.81304 0.0
C499 C 0.38482 0.02805 0.78619 0.0
C500 C 0.36432 0.99276 0.72878 0.0
C501 C 0.35381 0.968 0.75607 0.0
N502 N 0.35034 0.95098 0.82618 0.0
N503 N 0.40296 0.04445 0.71709 0.0
C504 C 0.35627 0.97351 0.79886 0.0
C505 C 0.38378 0.02247 0.7435 0.0
N506 N 0.36263 0.00899 0.85218 0.0
N507 N 0.35597 0.98789 0.68872 0.0
H508 H 0.41943 0.06608 0.72596 0.0
H509 H 0.40477 0.04006 0.6865 0.0
H510 H 0.34097 0.96638 0.6773 0.0
H511 H 0.36114 0.00547 0.66829 0.0
H512 H 0.34823 0.99178 0.87198 0.0
H513 H 0.37 0.03081 0.8631 0.0
H514 H 0.35496 0.9551 0.85721 0.0
H515 H 0.34404 0.92891 0.81803 0.0
C516 C 0.36192 0.37088 0.81554 0.0
C517 C 0.35341 0.38695 0.7885 0.0
C518 C 0.36709 0.3653 0.73133 0.0
C519 C 0.38274 0.35625 0.75834 0.0
N520 N 0.39872 0.35562 0.82814 0.0
N521 N 0.35318 0.40315 0.71872 0.0
C522 C 0.38083 0.3599 0.80114 0.0
C523 C 0.35689 0.38486 0.74572 0.0
N524 N 0.35222 0.36633 0.85505 0.0
N525 N 0.36217 0.35547 0.69188 0.0
H526 H 0.34827 0.41986 0.72712 0.0
H527 H 0.3585 0.40405 0.68789 0.0
H528 H 0.36841 0.34018 0.68083 0.0
H529 H 0.34883 0.35967 0.67189 0.0
H530 H 0.35595 0.35266 0.87507 0.0
H531 H 0.33748 0.37325 0.86613 0.0
H532 H 0.39979 0.36104 0.85896 0.0
H533 H 0.415 0.35011 0.81979 0.0
C534 C 0.02011 0.38574 0.79876 0.0
C535 C 0.02497 0.38756 0.75581 0.0
C536 C 0.97027 0.35983 0.74486 0.0
C537 C 0.96548 0.35639 0.78781 0.0
N538 N 0.98643 0.35694 0.85384 0.0
N539 N 0.00461 0.36696 0.68961 0.0
C540 C 0.99065 0.36613 0.8141 0.0
C541 C -1e-05 0.37129 0.72944 0.0
N542 N 0.04254 0.4044 0.825 0.0
N543 N 0.9474 0.35483 0.71871 0.0
H544 H 0.02614 0.37432 0.67772 0.0
H545 H 0.98699 0.35312 0.66999 0.0
H546 H 0.92558 0.34865 0.72793 0.0
H547 H 0.95103 0.36015 0.6878 0.0
H548 H 0.03869 0.40558 0.85598 0.0
H549 H 0.06395 0.42114 0.81584 0.0
H550 H 0.00433 0.36155 0.87338 0.0
H551 H 0.96512 0.34183 0.86566 0.0
C552 C 0.47035 0.22221 0.25375 0.0
C553 C 0.44398 0.19386 0.26091 0.0
C554 C 0.41819 0.2193 0.28961 0.0
C555 C 0.44382 0.24765 0.27991 0.0
N556 N 0.49328 0.27676 0.24944 0.0
N557 N 0.39147 0.1648 0.27994 0.0
C558 C 0.46955 0.24928 0.2608 0.0
C559 C 0.41754 0.19222 0.27745 0.0
N560 N 0.49663 0.22327 0.24229 0.0
N561 N 0.39453 0.21829 0.31049 0.0
H562 H 0.39014 0.14457 0.27091 0.0
H563 H 0.37055 0.16221 0.28772 0.0
H564 H 0.3935 0.2376 0.31807 0.0
H565 H 0.37675 0.19853 0.32264 0.0
H566 H 0.51752 0.2431 0.24125 0.0
H567 H 0.49818 0.20397 0.23671 0.0
H568 H 0.51083 0.27925 0.23071 0.0
H569 H 0.49478 0.29733 0.25693 0.0
C570 C 0.19435 0.42024 0.29187 0.0
C571 C 0.19214 0.44595 0.28093 0.0
C572 C 0.24396 0.47118 0.25428 0.0
C573 C 0.24535 0.44461 0.26247 0.0
N574 N 0.22101 0.39237 0.28341 0.0
N575 N 0.21312 0.49478 0.24827 0.0
C576 C 0.22033 0.41874 0.27991 0.0
C577 C 0.21641 0.47104 0.26093 0.0
N578 N 0.17164 0.39733 0.31376 0.0
N579 N 0.26945 0.49706 0.24225 0.0
H580 H 0.19426 0.49676 0.25525 0.0
H581 H 0.2283 0.51178 0.22891 0.0
H582 H 0.29013 0.49819 0.23711 0.0
H583 H 0.27091 0.51812 0.24042 0.0
H584 H 0.17331 0.3796 0.3267 0.0
H585 H 0.15166 0.397 0.32141 0.0
H586 H 0.20244 0.37179 0.2919 0.0
H587 H 0.23954 0.39038 0.27447 0.0
C588 C 0.74573 0.2203 0.28748 0.0
C589 C 0.7443 0.19224 0.27996 0.0
C590 C 0.79558 0.21864 0.25144 0.0
C591 C 0.79785 0.24666 0.26192 0.0
N592 N 0.77672 0.27482 0.29315 0.0
N593 N 0.76854 0.16406 0.26013 0.0
C594 C 0.77342 0.24766 0.28106 0.0
C595 C 0.76937 0.1912 0.26319 0.0
N596 N 0.72018 0.22081 0.29873 0.0
N597 N 0.81844 0.21829 0.2302 0.0
H598 H 0.74981 0.14357 0.26884 0.0
H599 H 0.78711 0.16193 0.25218 0.0
H600 H 0.83852 0.23791 0.22266 0.0
H601 H 0.81681 0.1988 0.21762 0.0
H602 H 0.71881 0.24046 0.30005 0.0
H603 H 0.6994 0.20127 0.30369 0.0
H604 H 0.76136 0.27678 0.31193 0.0
H605 H 0.79574 0.29562 0.28631 0.0
C606 C 0.51867 0.76896 0.25483 0.0
C607 C 0.54496 0.79718 0.26292 0.0
C608 C 0.57055 0.7713 0.29073 0.0
C609 C 0.54501 0.74312 0.28016 0.0
N610 N 0.49585 0.7145 0.24877 0.0
N611 N 0.59734 0.82593 0.28271 0.0
C612 C 0.51944 0.74179 0.26101 0.0
C613 C 0.57129 0.79856 0.27943 0.0
N614 N 0.49251 0.7681 0.2433 0.0
N615 N 0.59404 0.77196 0.31163 0.0
H616 H 0.59874 0.84631 0.2743 0.0
H617 H 0.6182 0.82839 0.29049 0.0
H618 H 0.59503 0.75253 0.31858 0.0
H619 H 0.61169 0.79151 0.32439 0.0
H620 H 0.47164 0.74828 0.24155 0.0
H621 H 0.49101 0.78749 0.23832 0.0
H622 H 0.47843 0.71232 0.23001 0.0
H623 H 0.49435 0.69382 0.25552 0.0
C624 C 0.77089 0.57154 0.2478 0.0
C625 C 0.74312 0.54574 0.25908 0.0
C626 C 0.77009 0.52037 0.2838 0.0
C627 C 0.79792 0.54706 0.27548 0.0
N628 N 0.82559 0.59927 0.25444 0.0
N629 N 0.71565 0.49647 0.29063 0.0
C630 C 0.79856 0.57296 0.25857 0.0
C631 C 0.74256 0.52044 0.27805 0.0
N632 N 0.77079 0.59464 0.2268 0.0
N633 N 0.76995 0.49452 0.2953 0.0
H634 H 0.69473 0.49446 0.28415 0.0
H635 H 0.714 0.47923 0.30934 0.0
H636 H 0.78964 0.49352 0.29992 0.0
H637 H 0.75046 0.4734 0.29726 0.0
H638 H 0.78997 0.61248 0.21363 0.0
H639 H 0.75106 0.59509 0.22015 0.0
H640 H 0.82756 0.61991 0.24639 0.0
H641 H 0.84625 0.60112 0.26223 0.0
C642 C 0.18992 0.77102 0.28661 0.0
C643 C 0.19064 0.74592 0.26928 0.0
C644 C 0.246 0.77493 0.26672 0.0
C645 C 0.24536 0.79949 0.28613 0.0
N646 N 0.21758 0.82043 0.3187 0.0
N647 N 0.21867 0.72173 0.24839 0.0
C648 C 0.21755 0.79733 0.29749 0.0
C649 C 0.21849 0.74729 0.26059 0.0
N650 N 0.16282 0.77005 0.29109 0.0
N651 N 0.27296 0.77803 0.25413 0.0
H652 H 0.199 0.70107 0.24331 0.0
H653 H 0.23817 0.72017 0.24614 0.0
H654 H 0.29386 0.79688 0.26099 0.0
H655 H 0.27468 0.76264 0.23512 0.0
H656 H 0.16073 0.78858 0.29951 0.0
H657 H 0.14219 0.75115 0.28329 0.0
H658 H 0.19838 0.81894 0.33196 0.0
H659 H 0.23727 0.8407 0.32535 0.0
C660 C 0.51958 0.74453 0.78014 0.0
C661 C 0.54533 0.74626 0.76092 0.0
C662 C 0.57051 0.80169 0.76037 0.0
C663 C 0.54415 0.79985 0.77754 0.0
N664 N 0.49196 0.77011 0.79807 0.0
N665 N 0.59387 0.77557 0.72836 0.0
C666 C 0.51826 0.77143 0.78611 0.0
C667 C 0.57034 0.7746 0.74953 0.0
N668 N 0.49636 0.7171 0.7927 0.0
N669 N 0.59607 0.82934 0.75603 0.0
H670 H 0.59526 0.75632 0.72169 0.0
H671 H 0.61114 0.79514 0.71508 0.0
H672 H 0.597 0.84961 0.76382 0.0
H673 H 0.61703 0.83225 0.74776 0.0
H674 H 0.4789 0.71466 0.81157 0.0
H675 H 0.49521 0.69657 0.786 0.0
H676 H 0.4713 0.7501 0.80026 0.0
H677 H 0.49009 0.78931 0.80295 0.0
C678 C 0.76948 0.57418 0.77536 0.0
C679 C 0.74358 0.54785 0.79014 0.0
C680 C 0.77171 0.52058 0.79175 0.0
C681 C 0.7969 0.54617 0.77398 0.0
N682 N 0.8196 0.59643 0.74552 0.0
N683 N 0.71815 0.49483 0.80762 0.0
C684 C 0.79571 0.57271 0.76469 0.0
C685 C 0.74423 0.52078 0.79743 0.0
N686 N 0.76929 0.60085 0.77304 0.0
N687 N 0.77402 0.49599 0.80301 0.0
H688 H 0.69758 0.49404 0.81233 0.0
H689 H 0.71618 0.47353 0.80858 0.0
H690 H 0.79282 0.49381 0.79646 0.0
H691 H 0.75801 0.47835 0.82082 0.0
H692 H 0.7883 0.62163 0.76652 0.0
H693 H 0.75051 0.60273 0.78098 0.0
H694 H 0.81885 0.61493 0.73354 0.0
H695 H 0.83986 0.59693 0.73932 0.0
C696 C 0.21485 0.79714 0.74679 0.0
C697 C 0.24266 0.79983 0.75931 0.0
C698 C 0.21614 0.74758 0.7846 0.0
C699 C 0.18819 0.74576 0.77513 0.0
N700 N 0.16006 0.76923 0.75192 0.0
N701 N 0.27035 0.77912 0.79294 0.0
C702 C 0.18728 0.77061 0.75727 0.0
C703 C 0.24345 0.7755 0.77918 0.0
N704 N 0.21485 0.81992 0.72484 0.0
N705 N 0.21666 0.7222 0.79684 0.0
H706 H 0.29119 0.79828 0.78682 0.0
H707 H 0.272 0.76385 0.8123 0.0
H708 H 0.19716 0.70128 0.80119 0.0
H709 H 0.23637 0.72108 0.79964 0.0
H710 H 0.1957 0.81807 0.71089 0.0
H711 H 0.23452 0.84022 0.71818 0.0
H712 H 0.15783 0.78759 0.74304 0.0
H713 H 0.13947 0.75019 0.75946 0.0
C714 C 0.46965 0.25062 0.78348 0.0
C715 C 0.44308 0.24915 0.76781 0.0
C716 C 0.41694 0.19371 0.76831 0.0
C717 C 0.44306 0.19514 0.78582 0.0
N718 N 0.49317 0.22434 0.81437 0.0
N719 N 0.39031 0.22034 0.75014 0.0
C720 C 0.46903 0.22344 0.79495 0.0
C721 C 0.41641 0.22096 0.76138 0.0
N722 N 0.49587 0.27796 0.7856 0.0
N723 N 0.3927 0.16624 0.75813 0.0
H724 H 0.38926 0.23988 0.74423 0.0
H725 H 0.36923 0.20074 0.74925 0.0
H726 H 0.39124 0.14568 0.76564 0.0
H727 H 0.37457 0.16367 0.74067 0.0
H728 H 0.51689 0.28043 0.79238 0.0
H729 H 0.49721 0.29836 0.77743 0.0
H730 H 0.51116 0.244 0.82636 0.0
H731 H 0.49456 0.20508 0.8209 0.0
C732 C 0.2204 0.4731 0.75186 0.0
C733 C 0.19236 0.44637 0.75912 0.0
C734 C 0.21871 0.42146 0.78766 0.0
C735 C 0.24674 0.44746 0.77788 0.0
N736 N 0.27492 0.49685 0.74681 0.0
N737 N 0.16429 0.39369 0.77792 0.0
C738 C 0.24776 0.47287 0.75861 0.0
C739 C 0.19135 0.42015 0.77552 0.0
N740 N 0.22091 0.4992 0.7407 0.0
N741 N 0.21827 0.39808 0.80866 0.0
H742 H 0.14389 0.39187 0.76879 0.0
H743 H 0.16221 0.37295 0.78564 0.0
H744 H 0.23783 0.39757 0.8163 0.0
H745 H 0.19873 0.38006 0.82085 0.0
H746 H 0.24052 0.52028 0.73965 0.0
H747 H 0.20141 0.50041 0.73548 0.0
H748 H 0.27692 0.51418 0.72798 0.0
H749 H 0.29568 0.49871 0.7539 0.0
C750 C 0.77008 0.24378 0.79708 0.0
C751 C 0.79797 0.24467 0.79055 0.0
C752 C 0.77121 0.19248 0.765 0.0
C753 C 0.7433 0.19105 0.77356 0.0
N754 N 0.71547 0.21363 0.80163 0.0
N755 N 0.82569 0.2193 0.77441 0.0
C756 C 0.74255 0.21615 0.79103 0.0
C757 C 0.79871 0.21886 0.77608 0.0
N758 N 0.76991 0.26978 0.80683 0.0
N759 N 0.77139 0.16868 0.7461 0.0
H760 H 0.84619 0.2382 0.78268 0.0
H761 H 0.82767 0.20039 0.7681 0.0
H762 H 0.75174 0.14835 0.73957 0.0
H763 H 0.79083 0.16957 0.73468 0.0
H764 H 0.7505 0.27156 0.80716 0.0
H765 H 0.78955 0.29047 0.81177 0.0
H766 H 0.71357 0.22955 0.81927 0.0
H767 H 0.69461 0.19476 0.79471 0.0
C768 C 0.42676 0.07826 0.04251 0.0
C769 C 0.44956 0.10339 0.06434 0.0
C770 C 0.47273 0.12913 0.99983 0.0
C771 C 0.45009 0.10386 0.97811 0.0
N772 N 0.40209 0.05759 0.97759 0.0
N773 N 0.49089 0.15495 0.06469 0.0
C774 C 0.42604 0.07936 0.99917 0.0
C775 C 0.47132 0.12966 0.04323 0.0
N776 N 0.40604 0.05313 0.06332 0.0
N777 N 0.49658 0.15175 0.9791 0.0
H778 H 0.49164 0.15574 0.09642 0.0
H779 H 0.50501 0.17587 0.05126 0.0
H780 H 0.4982 0.15236 0.9474 0.0
H781 H 0.51576 0.16898 0.99314 0.0
H782 H 0.39132 0.03258 0.04945 0.0
H783 H 0.40432 0.05237 0.09503 0.0
H784 H 0.38238 0.0406 0.99091 0.0
H785 H 0.40078 0.05797 0.94587 0.0
C786 C 0.35664 0.48224 1.00119 0.0
C787 C 0.34182 0.45459 0.9793 0.0
C788 C 0.32362 0.42641 0.0436 0.0
C789 C 0.34177 0.45367 0.06541 0.0
N790 N 0.37578 0.50766 0.06597 0.0
N791 N 0.31204 0.40017 0.97848 0.0
C792 C 0.35821 0.48167 0.04444 0.0
C793 C 0.32511 0.42661 1.00015 0.0
N794 N 0.36855 0.50906 0.98046 0.0
N795 N 0.30524 0.40035 0.06447 0.0
H796 H 0.31221 0.39955 0.94671 0.0
H797 H 0.30253 0.37881 0.99173 0.0
H798 H 0.3045 0.3992 0.09621 0.0
H799 H 0.28918 0.38036 0.05061 0.0
H800 H 0.37709 0.53006 0.99449 0.0
H801 H 0.36755 0.5102 0.94878 0.0
H802 H 0.3914 0.52809 0.0526 0.0
H803 H 0.3758 0.50857 0.09773 0.0
C804 C 0.91334 0.34597 1.00116 0.0
C805 C 0.88854 0.34445 0.97965 0.0
C806 C 0.86202 0.3391 0.04438 0.0
C807 C 0.88842 0.34457 0.06591 0.0
N808 N 0.93935 0.35323 0.06569 0.0
N809 N 0.83984 0.34121 0.97981 0.0
C810 C 0.91408 0.34786 0.0445 0.0
C811 C 0.86278 0.34095 1.00096 0.0
N812 N 0.93577 0.3447 0.98 0.0
N813 N 0.83635 0.33254 0.06546 0.0
H814 H 0.83941 0.34213 0.94809 0.0
H815 H 0.82213 0.34247 0.99351 0.0
H816 H 0.83535 0.33255 0.09718 0.0
H817 H 0.81542 0.32503 0.05175 0.0
H818 H 0.95309 0.34275 0.99366 0.0
H819 H 0.93569 0.343 0.9483 0.0
H820 H 0.96015 0.35979 0.05212 0.0
H821 H 0.93996 0.35235 0.09742 0.0
C822 C 0.51916 0.85873 0.04833 0.0
C823 C 0.54187 0.88437 0.0694 0.0
C824 C 0.56545 0.90857 1.00449 0.0
C825 C 0.54233 0.88329 0.9833 0.0
N826 N 0.50091 0.83183 0.98416 0.0
N827 N 0.59023 0.93019 0.06906 0.0
C828 C 0.52055 0.85743 1.005 0.0
C829 C 0.56617 0.90823 0.04785 0.0
N830 N 0.49528 0.83655 0.06953 0.0
N831 N 0.58638 0.93318 0.98303 0.0
H832 H 0.59147 0.9303 0.10081 0.0
H833 H 0.61005 0.94678 0.05547 0.0
H834 H 0.588 0.93332 0.95132 0.0
H835 H 0.60141 0.95388 0.99631 0.0
H836 H 0.47606 0.81911 0.05585 0.0
H837 H 0.49373 0.83649 0.10122 0.0
H838 H 0.4866 0.81119 0.99813 0.0
H839 H 0.50039 0.83048 0.95245 0.0
C840 C 0.64762 0.56755 0.04398 0.0
C841 C 0.64956 0.5443 0.06517 0.0
C842 C 0.65152 0.52148 1.00009 0.0
C843 C 0.64914 0.54449 0.979 0.0
N844 N 0.65169 0.59287 0.97957 0.0
N845 N 0.65914 0.50257 0.06433 0.0
C846 C 0.64924 0.5686 1.00064 0.0
C847 C 0.65366 0.52252 0.04346 0.0
N848 N 0.64373 0.58836 0.06541 0.0
N849 N 0.64984 0.49763 0.97881 0.0
H850 H 0.65936 0.50161 0.09604 0.0
H851 H 0.66561 0.48836 0.05042 0.0
H852 H 0.64869 0.49627 0.94709 0.0
H853 H 0.64767 0.47822 0.99241 0.0
H854 H 0.63821 0.60345 0.05204 0.0
H855 H 0.64484 0.58979 0.09714 0.0
H856 H 0.65476 0.61259 0.9933 0.0
H857 H 0.65323 0.59439 0.94785 0.0
C858 C 0.13347 0.669 1.00056 0.0
C859 C 0.10717 0.66411 0.97935 0.0
C860 C 0.08312 0.66396 0.04426 0.0
C861 C 0.10738 0.66413 0.06547 0.0
N862 N 0.1555 0.66612 0.06487 0.0
N863 N 0.05713 0.65772 0.97996 0.0
C864 C 0.13284 0.66709 0.04396 0.0
C865 C 0.08214 0.6621 1.00095 0.0
N866 N 0.15884 0.67496 0.97918 0.0
N867 N 0.06137 0.6662 0.06574 0.0
H868 H 0.0565 0.65854 0.94821 0.0
H869 H 0.03662 0.65213 0.99368 0.0
H870 H 0.06178 0.66796 0.09745 0.0
H871 H 0.04445 0.66896 0.05233 0.0
H872 H 0.17972 0.6818 0.99268 0.0
H873 H 0.15972 0.6753 0.94744 0.0
H874 H 0.17287 0.66437 0.05097 0.0
H875 H 0.15607 0.66529 0.09659 0.0
C876 C 0.86213 0.51277 0.54429 0.0
C877 C 0.87445 0.54044 0.56617 0.0
C878 C 0.88641 0.56884 0.50186 0.0
C879 C 0.87495 0.5412 0.48012 0.0
N880 N 0.84553 0.48681 0.47924 0.0
N881 N 0.89257 0.59402 0.56706 0.0
C882 C 0.86077 0.51311 0.50101 0.0
C883 C 0.88452 0.56824 0.54529 0.0
N884 N 0.85244 0.48621 0.565 0.0
N885 N 0.90052 0.59565 0.48106 0.0
H886 H 0.89225 0.59441 0.59883 0.0
H887 H 0.89744 0.61452 0.5539 0.0
H888 H 0.90155 0.59678 0.44931 0.0
H889 H 0.91252 0.61674 0.49499 0.0
H890 H 0.8469 0.46576 0.55105 0.0
H891 H 0.85109 0.48479 0.59673 0.0
H892 H 0.83227 0.46561 0.49242 0.0
H893 H 0.84398 0.48643 0.44751 0.0
C894 C 0.34247 0.91507 0.54755 0.0
C895 C 0.33941 0.88933 0.56857 0.0
C896 C 0.3355 0.86395 0.50333 0.0
C897 C 0.33893 0.88984 0.48239 0.0
N898 N 0.33887 0.93695 0.48346 0.0
N899 N 0.32717 0.83716 0.56754 0.0
C900 C 0.34035 0.91449 0.50425 0.0
C901 C 0.33377 0.86297 0.54675 0.0
N902 N 0.3479 0.94026 0.56908 0.0
N903 N 0.3358 0.84112 0.48187 0.0
H904 H 0.32712 0.836 0.59925 0.0
H905 H 0.3196 0.81626 0.5536 0.0
H906 H 0.33667 0.84082 0.45014 0.0
H907 H 0.33714 0.82336 0.49534 0.0
H908 H 0.35426 0.96111 0.55573 0.0
H909 H 0.34728 0.94075 0.60084 0.0
H910 H 0.33691 0.95419 0.49744 0.0
H911 H 0.33695 0.93693 0.45179 0.0
C912 C 0.42064 0.34177 0.54431 0.0
C913 C 0.44337 0.33926 0.56593 0.0
C914 C 0.46625 0.33658 0.50128 0.0
C915 C 0.44378 0.33959 0.47974 0.0
N916 N 0.39598 0.33814 0.4795 0.0
N917 N 0.48417 0.32833 0.56591 0.0
C918 C 0.41984 0.34007 0.50097 0.0
C919 C 0.46483 0.33445 0.54465 0.0
N920 N 0.4001 0.34629 0.56532 0.0
N921 N 0.49 0.33773 0.48045 0.0
H922 H 0.48491 0.3281 0.59763 0.0
H923 H 0.49803 0.3213 0.55229 0.0
H924 H 0.49165 0.3389 0.44875 0.0
H925 H 0.50909 0.33947 0.49442 0.0
H926 H 0.38544 0.35224 0.55162 0.0
H927 H 0.39846 0.34526 0.59704 0.0
H928 H 0.37636 0.33553 0.49293 0.0
H929 H 0.39464 0.33652 0.44778 0.0
C930 C 0.11605 0.48663 0.54364 0.0
C931 C 0.10412 0.45882 0.56519 0.0
C932 C 0.09375 0.43099 0.50037 0.0
C933 C 0.10398 0.45863 0.47897 0.0
N934 N 0.13052 0.5131 0.47864 0.0
N935 N 0.08114 0.40453 0.56556 0.0
C936 C 0.11673 0.48658 0.50022 0.0
C937 C 0.09336 0.43101 0.54395 0.0
N938 N 0.12606 0.51303 0.56492 0.0
N939 N 0.08435 0.4048 0.47886 0.0
H940 H 0.08079 0.4038 0.59732 0.0
H941 H 0.07025 0.38306 0.55261 0.0
H942 H 0.08329 0.40389 0.44712 0.0
H943 H 0.07892 0.3841 0.49182 0.0
H944 H 0.13156 0.53368 0.55172 0.0
H945 H 0.12797 0.51422 0.59661 0.0
H946 H 0.1427 0.53446 0.49172 0.0
H947 H 0.13179 0.51381 0.44689 0.0
C948 C 0.66168 0.1324 0.49961 0.0
C949 C 0.65611 0.10574 0.47862 0.0
C950 C 0.65627 0.08196 0.54367 0.0
C951 C 0.65736 0.10673 0.56476 0.0
N952 N 0.66011 0.15526 0.56386 0.0
N953 N 0.64863 0.0552 0.47964 0.0
C954 C 0.66039 0.13218 0.54305 0.0
C955 C 0.65379 0.08061 0.5004 0.0
N956 N 0.6677 0.15773 0.47802 0.0
N957 N 0.65829 0.06008 0.56518 0.0
H958 H 0.64901 0.05423 0.4479 0.0
H959 H 0.64279 0.03468 0.49361 0.0
H960 H 0.66049 0.06072 0.59684 0.0
H961 H 0.66043 0.04276 0.55178 0.0
H962 H 0.67512 0.17882 0.49128 0.0
H963 H 0.66744 0.15833 0.44628 0.0
H964 H 0.65845 0.17269 0.54992 0.0
H965 H 0.65972 0.15615 0.59559 0.0
C966 C 0.56959 0.66822 0.50009 0.0
C967 C 0.54171 0.65248 0.47885 0.0
C968 C 0.51392 0.63767 0.54354 0.0
C969 C 0.54179 0.65296 0.56491 0.0
N970 N 0.59556 0.6874 0.56475 0.0
N971 N 0.4874 0.62822 0.47898 0.0
C972 C 0.56946 0.66993 0.5435 0.0
C973 C 0.51386 0.63906 0.50024 0.0
N974 N 0.59613 0.68017 0.47881 0.0
N975 N 0.48752 0.62124 0.56473 0.0
H976 H 0.48667 0.62906 0.44725 0.0
H977 H 0.46644 0.62078 0.49256 0.0
H978 H 0.48638 0.62138 0.59647 0.0
H979 H 0.46691 0.60638 0.55115 0.0
H980 H 0.61728 0.6889 0.49238 0.0
H981 H 0.59695 0.67994 0.44705 0.0
H982 H 0.61604 0.70259 0.55116 0.0
H983 H 0.59631 0.68834 0.5965 0.0
C984 C 0.56287 0.14952 0.25496 0.0
C985 C 0.53401 0.12306 0.25731 0.0
C986 C 0.55616 0.09527 0.2891 0.0
C987 C 0.58471 0.1223 0.28975 0.0
N988 N 0.61512 0.17598 0.27805 0.0
N989 N 0.50189 0.07228 0.2825 0.0
C990 C 0.58809 0.14971 0.27388 0.0
C991 C 0.53027 0.09643 0.27629 0.0
N992 N 0.56616 0.17416 0.23408 0.0
N993 N 0.55401 0.06812 0.2985 0.0
H994 H 0.48224 0.07172 0.27245 0.0
H995 H 0.49759 0.05375 0.30052 0.0
H996 H 0.57248 0.06595 0.30714 0.0
H997 H 0.53448 0.04731 0.294 0.0
H998 H 0.58701 0.19307 0.22747 0.0
H999 H 0.54792 0.17493 0.22105 0.0
H1000 H 0.61835 0.19725 0.27079 0.0
H1001 H 0.63396 0.17678 0.29168 0.0
C1002 C 0.4567 0.55479 0.28855 0.0
C1003 C 0.45806 0.58325 0.28995 0.0
C1004 C 0.40839 0.56115 0.25687 0.0
C1005 C 0.40621 0.53236 0.25855 0.0
N1006 N 0.42547 0.50042 0.28209 0.0
N1007 N 0.43428 0.61337 0.28028 0.0
C1008 C 0.4295 0.52878 0.27635 0.0
C1009 C 0.43365 0.58645 0.27534 0.0
N1010 N 0.48196 0.55285 0.29669 0.0
N1011 N 0.38662 0.56431 0.23699 0.0
H1012 H 0.45247 0.63228 0.29361 0.0
H1013 H 0.41601 0.61641 0.27399 0.0
H1014 H 0.36744 0.54601 0.22431 0.0
H1015 H 0.38837 0.58514 0.23082 0.0
H1016 H 0.48326 0.53338 0.29162 0.0
H1017 H 0.50272 0.57144 0.30475 0.0
H1018 H 0.44013 0.49623 0.29925 0.0
H1019 H 0.40615 0.4807 0.27265 0.0
C1020 C 0.84042 0.43439 0.27461 0.0
C1021 C 0.86645 0.45687 0.29527 0.0
C1022 C 0.891 0.4264 0.28701 0.0
C1023 C 0.86648 0.40579 0.26233 0.0
N1024 N 0.81878 0.39062 0.22974 0.0
N1025 N 0.91858 0.47668 0.31563 0.0
C1026 C 0.84139 0.40989 0.25531 0.0
C1027 C 0.89219 0.45339 0.30047 0.0
N1028 N 0.8145 0.43602 0.27465 0.0
N1029 N 0.91338 0.42033 0.29743 0.0
H1030 H 0.92095 0.49707 0.32579 0.0
H1031 H 0.93909 0.47694 0.31494 0.0
H1032 H 0.91456 0.4018 0.28635 0.0
H1033 H 0.92963 0.43244 0.31955 0.0
H1034 H 0.79389 0.41896 0.26349 0.0
H1035 H 0.81291 0.45335 0.28921 0.0
H1036 H 0.80153 0.39425 0.21967 0.0
H1037 H 0.81826 0.37176 0.21654 0.0
C1038 C 0.42727 0.8428 0.25875 0.0
C1039 C 0.45601 0.8695 0.25943 0.0
C1040 C 0.43394 0.89795 0.28931 0.0
C1041 C 0.40563 0.87076 0.292 0.0
N1042 N 0.37548 0.81669 0.28364 0.0
N1043 N 0.48812 0.9212 0.28124 0.0
C1044 C 0.40226 0.84296 0.27778 0.0
C1045 C 0.45976 0.89667 0.27655 0.0
N1046 N 0.42389 0.81759 0.23934 0.0
N1047 N 0.43588 0.92526 0.2968 0.0
H1048 H 0.50772 0.9216 0.27131 0.0
H1049 H 0.4925 0.94032 0.29798 0.0
H1050 H 0.41739 0.92747 0.30522 0.0
H1051 H 0.45516 0.946 0.29083 0.0
H1052 H 0.40304 0.79835 0.23396 0.0
H1053 H 0.442 0.81665 0.22616 0.0
H1054 H 0.37237 0.79528 0.27766 0.0
H1055 H 0.35677 0.81612 0.29735 0.0
C1056 C 0.55523 0.45962 0.26352 0.0
C1057 C 0.58208 0.45848 0.25681 0.0
C1058 C 0.55831 0.40748 0.28638 0.0
C1059 C 0.53082 0.40786 0.2899 0.0
N1060 N 0.50127 0.43175 0.27563 0.0
N1061 N 0.60906 0.43101 0.2579 0.0
C1062 C 0.52876 0.43322 0.27671 0.0
C1063 C 0.58366 0.43232 0.26727 0.0
N1064 N 0.55536 0.48636 0.25897 0.0
N1065 N 0.56023 0.38369 0.30207 0.0
H1066 H 0.62806 0.44901 0.24441 0.0
H1067 H 0.6107 0.41159 0.26092 0.0
H1068 H 0.54184 0.36496 0.31543 0.0
H1069 H 0.58033 0.38325 0.30429 0.0
H1070 H 0.53752 0.48942 0.26796 0.0
H1071 H 0.57434 0.50644 0.24968 0.0
H1072 H 0.49778 0.44811 0.26174 0.0
H1073 H 0.48126 0.41296 0.28553 0.0
C1074 C 0.09594 0.55738 0.2434 0.0
C1075 C 0.12185 0.58667 0.24743 0.0
C1076 C 0.1477 0.56515 0.28636 0.0
C1077 C 0.12237 0.53588 0.2805 0.0
N1078 N 0.07488 0.50311 0.24699 0.0
N1079 N 0.17433 0.61794 0.26564 0.0
C1080 C 0.09739 0.5317 0.25672 0.0
C1081 C 0.14835 0.59042 0.26689 0.0
N1082 N 0.06919 0.55411 0.22955 0.0
N1083 N 0.17083 0.56879 0.31106 0.0
H1084 H 0.17566 0.63669 0.25091 0.0
H1085 H 0.19517 0.62157 0.2759 0.0
H1086 H 0.17151 0.55058 0.32442 0.0
H1087 H 0.18836 0.58982 0.32032 0.0
H1088 H 0.04871 0.53382 0.23109 0.0
H1089 H 0.06657 0.57207 0.2198 0.0
H1090 H 0.0581 0.49874 0.22561 0.0
H1091 H 0.07416 0.48352 0.25771 0.0
C1092 C 0.42916 0.84138 0.77874 0.0
C1093 C 0.45181 0.86749 0.79911 0.0
C1094 C 0.42171 0.89241 0.7904 0.0
C1095 C 0.40099 0.86783 0.76588 0.0
N1096 N 0.38542 0.81976 0.73392 0.0
N1097 N 0.47202 0.91992 0.81869 0.0
C1098 C 0.40481 0.84249 0.75927 0.0
C1099 C 0.44858 0.89345 0.80393 0.0
N1100 N 0.43051 0.81529 0.77917 0.0
N1101 N 0.4159 0.91504 0.80052 0.0
H1102 H 0.49238 0.92225 0.82879 0.0
H1103 H 0.47244 0.94052 0.81768 0.0
H1104 H 0.39751 0.91636 0.78931 0.0
H1105 H 0.4281 0.93136 0.82254 0.0
H1106 H 0.41334 0.79465 0.76822 0.0
H1107 H 0.44773 0.81362 0.79387 0.0
H1108 H 0.38887 0.80232 0.7241 0.0
H1109 H 0.36664 0.81932 0.72065 0.0
C1110 C 0.58086 0.43155 0.78848 0.0
C1111 C 0.5829 0.46027 0.78658 0.0
C1112 C 0.53281 0.43768 0.75526 0.0
C1113 C 0.53163 0.40929 0.75414 0.0
N1114 N 0.55551 0.37938 0.76488 0.0
N1115 N 0.56375 0.49206 0.76199 0.0
C1116 C 0.55593 0.40622 0.76952 0.0
C1117 C 0.55978 0.46375 0.76798 0.0
N1118 N 0.60246 0.42849 0.80902 0.0
N1119 N 0.50758 0.43951 0.74646 0.0
H1120 H 0.58286 0.51182 0.77183 0.0
H1121 H 0.54927 0.49618 0.74427 0.0
H1122 H 0.48695 0.42088 0.73805 0.0
H1123 H 0.50613 0.45891 0.75132 0.0
H1124 H 0.60077 0.40771 0.81532 0.0
H1125 H 0.62139 0.44683 0.8221 0.0
H1126 H 0.57374 0.37642 0.7718 0.0
H1127 H 0.53757 0.36047 0.75116 0.0
C1128 C 0.14789 0.59082 0.77544 0.0
C1129 C 0.12185 0.587 0.79633 0.0
C1130 C 0.09779 0.53194 0.78844 0.0
C1131 C 0.12219 0.53609 0.76335 0.0
N1132 N 0.16958 0.56899 0.7302 0.0
N1133 N 0.06983 0.55419 0.81699 0.0
C1134 C 0.14706 0.56542 0.75609 0.0
C1135 C 0.09632 0.55761 0.80178 0.0
N1136 N 0.17363 0.61855 0.7752 0.0
N1137 N 0.07582 0.50339 0.79936 0.0
H1138 H 0.06718 0.57212 0.82677 0.0
H1139 H 0.04948 0.53372 0.81657 0.0
H1140 H 0.07503 0.48376 0.78864 0.0
H1141 H 0.05963 0.49915 0.82163 0.0
H1142 H 0.19426 0.62233 0.76382 0.0
H1143 H 0.17509 0.63742 0.78976 0.0
H1144 H 0.18663 0.58997 0.71996 0.0
H1145 H 0.1702 0.55072 0.71693 0.0
C1146 C 0.55484 0.09781 0.74586 0.0
C1147 C 0.58414 0.12371 0.74973 0.0
C1148 C 0.56289 0.14959 0.78925 0.0
C1149 C 0.53359 0.12437 0.78324 0.0
N1150 N 0.50067 0.07696 0.74954 0.0
N1151 N 0.61564 0.17609 0.76859 0.0
C1152 C 0.52928 0.09936 0.75936 0.0
C1153 C 0.58806 0.15018 0.76962 0.0
N1154 N 0.55144 0.071 0.73193 0.0
N1155 N 0.56664 0.17265 0.81424 0.0
H1156 H 0.63434 0.17739 0.75382 0.0
H1157 H 0.61941 0.19693 0.77917 0.0
H1158 H 0.54851 0.1733 0.82784 0.0
H1159 H 0.58768 0.19011 0.82355 0.0
H1160 H 0.53114 0.05054 0.73353 0.0
H1161 H 0.56932 0.06829 0.72211 0.0
H1162 H 0.49624 0.06018 0.7281 0.0
H1163 H 0.48116 0.07637 0.76026 0.0
C1164 C 0.43071 0.53221 0.76949 0.0
C1165 C 0.40734 0.53597 0.78671 0.0
C1166 C 0.43505 0.58997 0.76939 0.0
C1167 C 0.45945 0.58658 0.75521 0.0
N1168 N 0.48327 0.55604 0.74967 0.0
N1169 N 0.38787 0.5682 0.80741 0.0
C1170 C 0.45801 0.55809 0.75725 0.0
C1171 C 0.40966 0.56483 0.78794 0.0
N1172 N 0.42666 0.50379 0.76434 0.0
N1173 N 0.43578 0.61689 0.76392 0.0
H1174 H 0.36862 0.55 0.82014 0.0
H1175 H 0.38969 0.58909 0.81324 0.0
H1176 H 0.45405 0.63569 0.75051 0.0
H1177 H 0.41752 0.62003 0.76985 0.0
H1178 H 0.44137 0.49945 0.74753 0.0
H1179 H 0.40732 0.48415 0.77395 0.0
H1180 H 0.48449 0.53658 0.75518 0.0
H1181 H 0.5041 0.57456 0.74165 0.0
C1182 C 0.89056 0.42496 0.75817 0.0
C1183 C 0.86623 0.40428 0.78302 0.0
C1184 C 0.83972 0.43245 0.77088 0.0
C1185 C 0.86566 0.45512 0.75022 0.0
N1186 N 0.9179 0.47538 0.72998 0.0
N1187 N 0.81854 0.38876 0.8159 0.0
C1188 C 0.89155 0.4519 0.74493 0.0
C1189 C 0.84099 0.40811 0.79018 0.0
N1190 N 0.91295 0.41901 0.74736 0.0
N1191 N 0.81363 0.43375 0.7709 0.0
H1192 H 0.81826 0.37002 0.82912 0.0
H1193 H 0.80121 0.39224 0.82608 0.0
H1194 H 0.8118 0.45093 0.75629 0.0
H1195 H 0.79311 0.41655 0.7821 0.0
H1196 H 0.92913 0.43126 0.7252 0.0
H1197 H 0.91412 0.40037 0.75804 0.0
H1198 H 0.93846 0.47573 0.73058 0.0
H1199 H 0.92022 0.49584 0.72023 0.0
loop_
_geom_bond_atom_site_label_1
_geom_bond_atom_site_label_2
_geom_bond_distance
_geom_bond_site_symmetry_2
_ccdc_geom_bond_type
O0 Cd1 2.223 . S
O0 C8 1.315 . S
Cd1 O0 2.223 . S
Cd1 O4 2.297 . S
Cd1 O5 2.439 . S
Cd1 O11 2.240 . S
Cd2 O3 2.240 . S
Cd2 O10 2.223 . S
Cd2 O12 2.297 . S
Cd2 O13 2.439 . S
O3 Cd2 2.240 . S
O3 C8 1.279 . S
O4 Cd1 2.297 . S
O4 C6 1.247 . S
O5 Cd1 2.439 . S
O5 C6 1.208 . S
C6 O4 1.247 . S
C6 O5 1.208 . S
C7 O12 1.247 . S
C7 O13 1.208 . S
C8 O0 1.315 . S
C8 O3 1.279 . S
C9 O10 1.315 . S
C9 O11 1.279 . S
O10 Cd2 2.223 . S
O10 C9 1.315 . S
O11 Cd1 2.240 . S
O11 C9 1.279 . S
O12 Cd2 2.297 . S
O12 C7 1.247 . S
O13 Cd2 2.439 . S
O13 C7 1.208 . S
O14 Cd15 2.223 . S
O14 C22 1.315 . S
Cd15 O14 2.223 . S
Cd15 O18 2.297 . S
Cd15 O19 2.439 . S
Cd15 O25 2.240 . S
Cd16 O17 2.240 . S
Cd16 O24 2.223 . S
Cd16 O26 2.297 . S
Cd16 O27 2.439 . S
O17 Cd16 2.240 . S
O17 C22 1.279 . S
O18 Cd15 2.297 . S
O18 C20 1.247 . S
O19 Cd15 2.439 . S
O19 C20 1.208 . S
C20 O18 1.247 . S
C20 O19 1.208 . S
C21 O26 1.247 . S
C21 O27 1.208 . S
C22 O14 1.315 . S
C22 O17 1.279 . S
C23 O24 1.315 . S
C23 O25 1.279 . S
O24 Cd16 2.223 . S
O24 C23 1.315 . S
O25 Cd15 2.240 . S
O25 C23 1.279 . S
O26 Cd16 2.297 . S
O26 C21 1.247 . S
O27 Cd16 2.439 . S
O27 C21 1.208 . S
O28 Cd29 2.223 . S
O28 C36 1.315 . S
Cd29 O28 2.223 . S
Cd29 O32 2.297 . S
Cd29 O33 2.439 . S
Cd29 O39 2.240 . S
Cd30 O31 2.240 . S
Cd30 O38 2.223 . S
Cd30 O40 2.297 . S
Cd30 O41 2.439 . S
O31 Cd30 2.240 . S
O31 C36 1.279 . S
O32 Cd29 2.297 . S
O32 C34 1.247 . S
O33 Cd29 2.439 . S
O33 C34 1.208 . S
C34 O32 1.247 . S
C34 O33 1.208 . S
C35 O40 1.247 . S
C35 O41 1.208 . S
C36 O28 1.315 . S
C36 O31 1.279 . S
C37 O38 1.315 . S
C37 O39 1.279 . S
O38 Cd30 2.223 . S
O38 C37 1.315 . S
O39 Cd29 2.240 . S
O39 C37 1.279 . S
O40 Cd30 2.297 . S
O40 C35 1.247 . S
O41 Cd30 2.439 . S
O41 C35 1.208 . S
O42 Cd43 2.223 . S
O42 C50 1.315 . S
Cd43 O42 2.223 . S
Cd43 O46 2.297 . S
Cd43 O47 2.439 . S
Cd43 O53 2.240 . S
Cd44 O45 2.240 . S
Cd44 O52 2.223 . S
Cd44 O54 2.297 . S
Cd44 O55 2.439 . S
O45 Cd44 2.240 . S
O45 C50 1.279 . S
O46 Cd43 2.297 . S
O46 C48 1.247 . S
O47 Cd43 2.439 . S
O47 C48 1.208 . S
C48 O46 1.247 . S
C48 O47 1.208 . S
C49 O54 1.247 . S
C49 O55 1.208 . S
C50 O42 1.315 . S
C50 O45 1.279 . S
C51 O52 1.315 . S
C51 O53 1.279 . S
O52 Cd44 2.223 . S
O52 C51 1.315 . S
O53 Cd43 2.240 . S
O53 C51 1.279 . S
O54 Cd44 2.297 . S
O54 C49 1.247 . S
O55 Cd44 2.439 . S
O55 C49 1.208 . S
O56 Cd57 2.223 . S
O56 C64 1.315 . S
Cd57 O56 2.223 . S
Cd57 O60 2.297 . S
Cd57 O61 2.439 . S
Cd57 O67 2.240 . S
Cd58 O59 2.240 . S
Cd58 O66 2.223 . S
Cd58 O68 2.297 . S
Cd58 O69 2.439 . S
O59 Cd58 2.240 . S
O59 C64 1.279 . S
O60 Cd57 2.297 . S
O60 C62 1.247 . S
O61 Cd57 2.439 . S
O61 C62 1.208 . S
C62 O60 1.247 . S
C62 O61 1.208 . S
C63 O68 1.247 . S
C63 O69 1.208 . S
C64 O56 1.315 . S
C64 O59 1.279 . S
C65 O66 1.315 . S
C65 O67 1.279 . S
O66 Cd58 2.223 . S
O66 C65 1.315 . S
O67 Cd57 2.240 . S
O67 C65 1.279 . S
O68 Cd58 2.297 . S
O68 C63 1.247 . S
O69 Cd58 2.439 . S
O69 C63 1.208 . S
O70 Cd71 2.223 . S
O70 C78 1.315 . S
Cd71 O70 2.223 . S
Cd71 O74 2.297 . S
Cd71 O75 2.439 . S
Cd71 O81 2.240 . S
Cd72 O73 2.240 . S
Cd72 O80 2.223 . S
Cd72 O82 2.297 . S
Cd72 O83 2.439 . S
O73 Cd72 2.240 . S
O73 C78 1.279 . S
O74 Cd71 2.297 . S
O74 C76 1.247 . S
O75 Cd71 2.439 . S
O75 C76 1.208 . S
C76 O74 1.247 . S
C76 O75 1.208 . S
C77 O82 1.247 . S
C77 O83 1.208 . S
C78 O70 1.315 . S
C78 O73 1.279 . S
C79 O80 1.315 . S
C79 O81 1.279 . S
O80 Cd72 2.223 . S
O80 C79 1.315 . S
O81 Cd71 2.240 . S
O81 C79 1.279 . S
O82 Cd72 2.297 . S
O82 C77 1.247 . S
O83 Cd72 2.439 . S
O83 C77 1.208 . S
O84 Cd85 2.223 . S
O84 C92 1.315 . S
Cd85 O84 2.223 . S
Cd85 O88 2.297 . S
Cd85 O89 2.439 . S
Cd85 O95 2.240 . S
Cd86 O87 2.240 . S
Cd86 O94 2.223 . S
Cd86 O96 2.297 . S
Cd86 O97 2.439 . S
O87 Cd86 2.240 . S
O87 C92 1.279 . S
O88 Cd85 2.297 . S
O88 C90 1.247 . S
O89 Cd85 2.439 . S
O89 C90 1.208 . S
C90 O88 1.247 . S
C90 O89 1.208 . S
C91 O96 1.247 . S
C91 O97 1.208 . S
C92 O84 1.315 . S
C92 O87 1.279 . S
C93 O94 1.315 . S
C93 O95 1.279 . S
O94 Cd86 2.223 . S
O94 C93 1.315 . S
O95 Cd85 2.240 . S
O95 C93 1.279 . S
O96 Cd86 2.297 . S
O96 C91 1.247 . S
O97 Cd86 2.439 . S
O97 C91 1.208 . S
O98 Cd99 2.223 . S
O98 C106 1.315 . S
Cd99 O98 2.223 . S
Cd99 O102 2.297 . S
Cd99 O103 2.439 . S
Cd99 O109 2.240 . S
Cd100 O101 2.240 . S
Cd100 O108 2.223 . S
Cd100 O110 2.297 . S
Cd100 O111 2.439 . S
O101 Cd100 2.240 . S
O101 C106 1.279 . S
O102 Cd99 2.297 . S
O102 C104 1.247 . S
O103 Cd99 2.439 . S
O103 C104 1.208 . S
C104 O102 1.247 . S
C104 O103 1.208 . S
C105 O110 1.247 . S
C105 O111 1.208 . S
C106 O98 1.315 . S
C106 O101 1.279 . S
C107 O108 1.315 . S
C107 O109 1.279 . S
O108 Cd100 2.223 . S
O108 C107 1.315 . S
O109 Cd99 2.240 . S
O109 C107 1.279 . S
O110 Cd100 2.297 . S
O110 C105 1.247 . S
O111 Cd100 2.439 . S
O111 C105 1.208 . S
O112 Cd113 2.223 . S
O112 C120 1.315 . S
Cd113 O112 2.223 . S
Cd113 O116 2.297 . S
Cd113 O117 2.439 . S
Cd113 O123 2.240 . S
Cd114 O115 2.240 . S
Cd114 O122 2.223 . S
Cd114 O124 2.297 . S
Cd114 O125 2.439 . S
O115 Cd114 2.240 . S
O115 C120 1.279 . S
O116 Cd113 2.297 . S
O116 C118 1.247 . S
O117 Cd113 2.439 . S
O117 C118 1.208 . S
C118 O116 1.247 . S
C118 O117 1.208 . S
C119 O124 1.247 . S
C119 O125 1.208 . S
C120 O112 1.315 . S
C120 O115 1.279 . S
C121 O122 1.315 . S
C121 O123 1.279 . S
O122 Cd114 2.223 . S
O122 C121 1.315 . S
O123 Cd113 2.240 . S
O123 C121 1.279 . S
O124 Cd114 2.297 . S
O124 C119 1.247 . S
O125 Cd114 2.439 . S
O125 C119 1.208 . S
O126 Cd127 2.223 . S
O126 C134 1.315 . S
Cd127 O126 2.223 . S
Cd127 O130 2.297 . S
Cd127 O131 2.439 . S
Cd127 O137 2.240 . S
Cd128 O129 2.240 . S
Cd128 O136 2.223 . S
Cd128 O138 2.297 . S
Cd128 O139 2.439 . S
O129 Cd128 2.240 . S
O129 C134 1.279 . S
O130 Cd127 2.297 . S
O130 C132 1.247 . S
O131 Cd127 2.439 . S
O131 C132 1.208 . S
C132 O130 1.247 . S
C132 O131 1.208 . S
C133 O138 1.247 . S
C133 O139 1.208 . S
C134 O126 1.315 . S
C134 O129 1.279 . S
C135 O136 1.315 . S
C135 O137 1.279 . S
O136 Cd128 2.223 . S
O136 C135 1.315 . S
O137 Cd127 2.240 . S
O137 C135 1.279 . S
O138 Cd128 2.297 . S
O138 C133 1.247 . S
O139 Cd128 2.439 . S
O139 C133 1.208 . S
O140 Cd141 2.223 . S
O140 C148 1.315 . S
Cd141 O140 2.223 . S
Cd141 O144 2.297 . S
Cd141 O145 2.439 . S
Cd141 O151 2.240 . S
Cd142 O143 2.240 . S
Cd142 O150 2.223 . S
Cd142 O152 2.297 . S
Cd142 O153 2.439 . S
O143 Cd142 2.240 . S
O143 C148 1.279 . S
O144 Cd141 2.297 . S
O144 C146 1.247 . S
O145 Cd141 2.439 . S
O145 C146 1.208 . S
C146 O144 1.247 . S
C146 O145 1.208 . S
C147 O152 1.247 . S
C147 O153 1.208 . S
C148 O140 1.315 . S
C148 O143 1.279 . S
C149 O150 1.315 . S
C149 O151 1.279 . S
O150 Cd142 2.223 . S
O150 C149 1.315 . S
O151 Cd141 2.240 . S
O151 C149 1.279 . S
O152 Cd142 2.297 . S
O152 C147 1.247 . S
O153 Cd142 2.439 . S
O153 C147 1.208 . S
O154 Cd155 2.223 . S
O154 C162 1.315 . S
Cd155 O154 2.223 . S
Cd155 O158 2.297 . S
Cd155 O159 2.439 . S
Cd155 O165 2.240 . S
Cd156 O157 2.240 . S
Cd156 O164 2.223 . S
Cd156 O166 2.297 . S
Cd156 O167 2.439 . S
O157 Cd156 2.240 . S
O157 C162 1.279 . S
O158 Cd155 2.297 . S
O158 C160 1.247 . S
O159 Cd155 2.439 . S
O159 C160 1.208 . S
C160 O158 1.247 . S
C160 O159 1.208 . S
C161 O166 1.247 . S
C161 O167 1.208 . S
C162 O154 1.315 . S
C162 O157 1.279 . S
C163 O164 1.315 . S
C163 O165 1.279 . S
O164 Cd156 2.223 . S
O164 C163 1.315 . S
O165 Cd155 2.240 . S
O165 C163 1.279 . S
O166 Cd156 2.297 . S
O166 C161 1.247 . S
O167 Cd156 2.439 . S
O167 C161 1.208 . S
O168 Cd169 2.223 . S
O168 C176 1.315 . S
Cd169 O168 2.223 . S
Cd169 O172 2.297 . S
Cd169 O173 2.439 . S
Cd169 O179 2.240 . S
Cd170 O171 2.240 . S
Cd170 O178 2.223 . S
Cd170 O180 2.297 . S
Cd170 O181 2.439 . S
O171 Cd170 2.240 . S
O171 C176 1.279 . S
O172 Cd169 2.297 . S
O172 C174 1.247 . S
O173 Cd169 2.439 . S
O173 C174 1.208 . S
C174 O172 1.247 . S
C174 O173 1.208 . S
C175 O180 1.247 . S
C175 O181 1.208 . S
C176 O168 1.315 . S
C176 O171 1.279 . S
C177 O178 1.315 . S
C177 O179 1.279 . S
O178 Cd170 2.223 . S
O178 C177 1.315 . S
O179 Cd169 2.240 . S
O179 C177 1.279 . S
O180 Cd170 2.297 . S
O180 C175 1.247 . S
O181 Cd170 2.439 . S
O181 C175 1.208 . S
O182 Cd183 2.223 . S
O182 C190 1.315 . S
Cd183 O182 2.223 . S
Cd183 O186 2.297 . S
Cd183 O187 2.439 . S
Cd183 O193 2.240 . S
Cd184 O185 2.240 . S
Cd184 O192 2.223 . S
Cd184 O194 2.297 . S
Cd184 O195 2.439 . S
O185 Cd184 2.240 . S
O185 C190 1.279 . S
O186 Cd183 2.297 . S
O186 C188 1.247 . S
O187 Cd183 2.439 . S
O187 C188 1.208 . S
C188 O186 1.247 . S
C188 O187 1.208 . S
C189 O194 1.247 . S
C189 O195 1.208 . S
C190 O182 1.315 . S
C190 O185 1.279 . S
C191 O192 1.315 . S
C191 O193 1.279 . S
O192 Cd184 2.223 . S
O192 C191 1.315 . S
O193 Cd183 2.240 . S
O193 C191 1.279 . S
O194 Cd184 2.297 . S
O194 C189 1.247 . S
O195 Cd184 2.439 . S
O195 C189 1.208 . S
O196 Cd197 2.223 . S
O196 C204 1.315 . S
Cd197 O196 2.223 . S
Cd197 O200 2.297 . S
Cd197 O201 2.439 . S
Cd197 O207 2.240 . S
Cd198 O199 2.240 . S
Cd198 O206 2.223 . S
Cd198 O208 2.297 . S
Cd198 O209 2.439 . S
O199 Cd198 2.240 . S
O199 C204 1.279 . S
O200 Cd197 2.297 . S
O200 C202 1.247 . S
O201 Cd197 2.439 . S
O201 C202 1.208 . S
C202 O200 1.247 . S
C202 O201 1.208 . S
C203 O208 1.247 . S
C203 O209 1.208 . S
C204 O196 1.315 . S
C204 O199 1.279 . S
C205 O206 1.315 . S
C205 O207 1.279 . S
O206 Cd198 2.223 . S
O206 C205 1.315 . S
O207 Cd197 2.240 . S
O207 C205 1.279 . S
O208 Cd198 2.297 . S
O208 C203 1.247 . S
O209 Cd198 2.439 . S
O209 C203 1.208 . S
O210 Cd211 2.223 . S
O210 C218 1.315 . S
Cd211 O210 2.223 . S
Cd211 O214 2.297 . S
Cd211 O215 2.439 . S
Cd211 O221 2.240 . S
Cd212 O213 2.240 . S
Cd212 O220 2.223 . S
Cd212 O222 2.297 . S
Cd212 O223 2.439 . S
O213 Cd212 2.240 . S
O213 C218 1.279 . S
O214 Cd211 2.297 . S
O214 C216 1.247 . S
O215 Cd211 2.439 . S
O215 C216 1.208 . S
C216 O214 1.247 . S
C216 O215 1.208 . S
C217 O222 1.247 . S
C217 O223 1.208 . S
C218 O210 1.315 . S
C218 O213 1.279 . S
C219 O220 1.315 . S
C219 O221 1.279 . S
O220 Cd212 2.223 . S
O220 C219 1.315 . S
O221 Cd211 2.240 . S
O221 C219 1.279 . S
O222 Cd212 2.297 . S
O222 C217 1.247 . S
O223 Cd212 2.439 . S
O223 C217 1.208 . S
O224 Cd225 2.223 . S
O224 C232 1.315 . S
Cd225 O224 2.223 . S
Cd225 O228 2.297 . S
Cd225 O229 2.439 . S
Cd225 O235 2.240 . S
Cd226 O227 2.240 . S
Cd226 O234 2.223 . S
Cd226 O236 2.297 . S
Cd226 O237 2.439 . S
O227 Cd226 2.240 . S
O227 C232 1.279 . S
O228 Cd225 2.297 . S
O228 C230 1.247 . S
O229 Cd225 2.439 . S
O229 C230 1.208 . S
C230 O228 1.247 . S
C230 O229 1.208 . S
C231 O236 1.247 . S
C231 O237 1.208 . S
C232 O224 1.315 . S
C232 O227 1.279 . S
C233 O234 1.315 . S
C233 O235 1.279 . S
O234 Cd226 2.223 . S
O234 C233 1.315 . S
O235 Cd225 2.240 . S
O235 C233 1.279 . S
O236 Cd226 2.297 . S
O236 C231 1.247 . S
O237 Cd226 2.439 . S
O237 C231 1.208 . S
O238 Cd239 2.223 . S
O238 C246 1.315 . S
Cd239 O238 2.223 . S
Cd239 O242 2.297 . S
Cd239 O243 2.439 . S
Cd239 O249 2.240 . S
Cd240 O241 2.240 . S
Cd240 O248 2.223 . S
Cd240 O250 2.297 . S
Cd240 O251 2.439 . S
O241 Cd240 2.240 . S
O241 C246 1.279 . S
O242 Cd239 2.297 . S
O242 C244 1.247 . S
O243 Cd239 2.439 . S
O243 C244 1.208 . S
C244 O242 1.247 . S
C244 O243 1.208 . S
C245 O250 1.247 . S
C245 O251 1.208 . S
C246 O238 1.315 . S
C246 O241 1.279 . S
C247 O248 1.315 . S
C247 O249 1.279 . S
O248 Cd240 2.223 . S
O248 C247 1.315 . S
O249 Cd239 2.240 . S
O249 C247 1.279 . S
O250 Cd240 2.297 . S
O250 C245 1.247 . S
O251 Cd240 2.439 . S
O251 C245 1.208 . S
O252 Cd253 2.223 . S
O252 C260 1.315 . S
Cd253 O252 2.223 . S
Cd253 O256 2.297 . S
Cd253 O257 2.439 . S
Cd253 O263 2.240 . S
Cd254 O255 2.240 . S
Cd254 O262 2.223 . S
Cd254 O264 2.297 . S
Cd254 O265 2.439 . S
O255 Cd254 2.240 . S
O255 C260 1.279 . S
O256 Cd253 2.297 . S
O256 C258 1.247 . S
O257 Cd253 2.439 . S
O257 C258 1.208 . S
C258 O256 1.247 . S
C258 O257 1.208 . S
C259 O264 1.247 . S
C259 O265 1.208 . S
C260 O252 1.315 . S
C260 O255 1.279 . S
C261 O262 1.315 . S
C261 O263 1.279 . S
O262 Cd254 2.223 . S
O262 C261 1.315 . S
O263 Cd253 2.240 . S
O263 C261 1.279 . S
O264 Cd254 2.297 . S
O264 C259 1.247 . S
O265 Cd254 2.439 . S
O265 C259 1.208 . S
O266 Cd267 2.223 . S
O266 C274 1.315 . S
Cd267 O266 2.223 . S
Cd267 O270 2.297 . S
Cd267 O271 2.439 . S
Cd267 O277 2.240 . S
Cd268 O269 2.240 . S
Cd268 O276 2.223 . S
Cd268 O278 2.297 . S
Cd268 O279 2.439 . S
O269 Cd268 2.240 . S
O269 C274 1.279 . S
O270 Cd267 2.297 . S
O270 C272 1.247 . S
O271 Cd267 2.439 . S
O271 C272 1.208 . S
C272 O270 1.247 . S
C272 O271 1.208 . S
C273 O278 1.247 . S
C273 O279 1.208 . S
C274 O266 1.315 . S
C274 O269 1.279 . S
C275 O276 1.315 . S
C275 O277 1.279 . S
O276 Cd268 2.223 . S
O276 C275 1.315 . S
O277 Cd267 2.240 . S
O277 C275 1.279 . S
O278 Cd268 2.297 . S
O278 C273 1.247 . S
O279 Cd268 2.439 . S
O279 C273 1.208 . S
O280 Cd281 2.223 . S
O280 C288 1.315 . S
Cd281 O280 2.223 . S
Cd281 O284 2.297 . S
Cd281 O285 2.439 . S
Cd281 O291 2.240 . S
Cd282 O283 2.240 . S
Cd282 O290 2.223 . S
Cd282 O292 2.297 . S
Cd282 O293 2.439 . S
O283 Cd282 2.240 . S
O283 C288 1.279 . S
O284 Cd281 2.297 . S
O284 C286 1.247 . S
O285 Cd281 2.439 . S
O285 C286 1.208 . S
C286 O284 1.247 . S
C286 O285 1.208 . S
C287 O292 1.247 . S
C287 O293 1.208 . S
C288 O280 1.315 . S
C288 O283 1.279 . S
C289 O290 1.315 . S
C289 O291 1.279 . S
O290 Cd282 2.223 . S
O290 C289 1.315 . S
O291 Cd281 2.240 . S
O291 C289 1.279 . S
O292 Cd282 2.297 . S
O292 C287 1.247 . S
O293 Cd282 2.439 . S
O293 C287 1.208 . S
O294 Cd295 2.223 . S
O294 C302 1.315 . S
Cd295 O294 2.223 . S
Cd295 O298 2.297 . S
Cd295 O299 2.439 . S
Cd295 O305 2.240 . S
Cd296 O297 2.240 . S
Cd296 O304 2.223 . S
Cd296 O306 2.297 . S
Cd296 O307 2.439 . S
O297 Cd296 2.240 . S
O297 C302 1.279 . S
O298 Cd295 2.297 . S
O298 C300 1.247 . S
O299 Cd295 2.439 . S
O299 C300 1.208 . S
C300 O298 1.247 . S
C300 O299 1.208 . S
C301 O306 1.247 . S
C301 O307 1.208 . S
C302 O294 1.315 . S
C302 O297 1.279 . S
C303 O304 1.315 . S
C303 O305 1.279 . S
O304 Cd296 2.223 . S
O304 C303 1.315 . S
O305 Cd295 2.240 . S
O305 C303 1.279 . S
O306 Cd296 2.297 . S
O306 C301 1.247 . S
O307 Cd296 2.439 . S
O307 C301 1.208 . S
O308 Cd309 2.223 . S
O308 C316 1.315 . S
Cd309 O308 2.223 . S
Cd309 O312 2.297 . S
Cd309 O313 2.439 . S
Cd309 O319 2.240 . S
Cd310 O311 2.240 . S
Cd310 O318 2.223 . S
Cd310 O320 2.297 . S
Cd310 O321 2.439 . S
O311 Cd310 2.240 . S
O311 C316 1.279 . S
O312 Cd309 2.297 . S
O312 C314 1.247 . S
O313 Cd309 2.439 . S
O313 C314 1.208 . S
C314 O312 1.247 . S
C314 O313 1.208 . S
C315 O320 1.247 . S
C315 O321 1.208 . S
C316 O308 1.315 . S
C316 O311 1.279 . S
C317 O318 1.315 . S
C317 O319 1.279 . S
O318 Cd310 2.223 . S
O318 C317 1.315 . S
O319 Cd309 2.240 . S
O319 C317 1.279 . S
O320 Cd310 2.297 . S
O320 C315 1.247 . S
O321 Cd310 2.439 . S
O321 C315 1.208 . S
O322 Cd323 2.223 . S
O322 C330 1.315 . S
Cd323 O322 2.223 . S
Cd323 O326 2.297 . S
Cd323 O327 2.439 . S
Cd323 O333 2.240 . S
Cd324 O325 2.240 . S
Cd324 O332 2.223 . S
Cd324 O334 2.297 . S
Cd324 O335 2.439 . S
O325 Cd324 2.240 . S
O325 C330 1.279 . S
O326 Cd323 2.297 . S
O326 C328 1.247 . S
O327 Cd323 2.439 . S
O327 C328 1.208 . S
C328 O326 1.247 . S
C328 O327 1.208 . S
C329 O334 1.247 . S
C329 O335 1.208 . S
C330 O322 1.315 . S
C330 O325 1.279 . S
C331 O332 1.315 . S
C331 O333 1.279 . S
O332 Cd324 2.223 . S
O332 C331 1.315 . S
O333 Cd323 2.240 . S
O333 C331 1.279 . S
O334 Cd324 2.297 . S
O334 C329 1.247 . S
O335 Cd324 2.439 . S
O335 C329 1.208 . S
C336 C337 1.363 . S
C336 C342 1.402 . S
C336 N344 1.356 . S
C337 C336 1.363 . S
C337 C343 1.347 1_545 S
C338 C339 1.363 . S
C338 C343 1.402 . S
C338 N345 1.356 . S
C339 C338 1.363 . S
C339 C342 1.347 1_565 S
N340 C342 1.343 1_565 S
N340 H352 0.984 1_565 S
N340 H353 0.985 . S
N341 C343 1.343 1_545 S
N341 H346 0.984 . S
N341 H347 0.985 1_545 S
C342 C336 1.402 . S
C342 C339 1.347 1_545 S
C342 N340 1.343 1_545 S
C343 C337 1.347 1_565 S
C343 C338 1.402 . S
C343 N341 1.343 1_565 S
N344 C336 1.356 . S
N344 H350 0.984 . S
N344 H351 0.984 . S
N345 C338 1.356 . S
N345 H348 0.984 . S
N345 H349 0.985 . S
H346 N341 0.984 . S
H347 N341 0.985 1_565 S
H348 N345 0.984 . S
H349 N345 0.985 . S
H350 N344 0.984 . S
H351 N344 0.984 . S
H352 N340 0.984 1_545 S
H353 N340 0.985 . S
C354 C355 1.363 . S
C354 C360 1.379 . S
C354 N362 1.356 . S
C355 C354 1.363 . S
C355 C361 1.363 . S
C356 C357 1.363 . S
C356 C361 1.379 . S
C356 N363 1.356 . S
C357 C356 1.363 . S
C357 C360 1.363 . S
N358 C360 1.356 . S
N358 H370 0.984 . S
N358 H371 0.985 . S
N359 C361 1.356 . S
N359 H364 0.984 . S
N359 H365 0.985 . S
C360 C354 1.379 . S
C360 C357 1.363 . S
C360 N358 1.356 . S
C361 C355 1.363 . S
C361 C356 1.379 . S
C361 N359 1.356 . S
N362 C354 1.356 . S
N362 H368 0.984 . S
N362 H369 0.984 . S
N363 C356 1.356 . S
N363 H366 0.984 . S
N363 H367 0.985 . S
H364 N359 0.984 . S
H365 N359 0.985 . S
H366 N363 0.984 . S
H367 N363 0.985 . S
H368 N362 0.984 . S
H369 N362 0.984 . S
H370 N358 0.984 . S
H371 N358 0.985 . S
C372 C373 1.363 1_455 S
C372 C378 1.379 . S
C372 N380 1.356 1_455 S
C373 C372 1.363 1_655 S
C373 C379 1.363 . S
C374 C375 1.363 1_655 S
C374 C379 1.379 . S
C374 N381 1.356 1_655 S
C375 C374 1.363 1_455 S
C375 C378 1.363 . S
N376 C378 1.356 . S
N376 H388 0.984 . S
N376 H389 0.985 . S
N377 C379 1.356 . S
N377 H382 0.984 . S
N377 H383 0.985 . S
C378 C372 1.379 . S
C378 C375 1.363 . S
C378 N376 1.356 . S
C379 C373 1.363 . S
C379 C374 1.379 . S
C379 N377 1.356 . S
N380 C372 1.356 1_655 S
N380 H386 0.984 1_655 S
N380 H387 0.984 . S
N381 C374 1.356 1_455 S
N381 H384 0.984 . S
N381 H385 0.985 1_455 S
H382 N377 0.984 . S
H383 N377 0.985 . S
H384 N381 0.984 . S
H385 N381 0.985 1_655 S
H386 N380 0.984 1_455 S
H387 N380 0.984 . S
H388 N376 0.984 . S
H389 N376 0.985 . S
C390 C391 1.363 . S
C390 C396 1.364 1_565 S
C390 N398 1.356 . S
C391 C390 1.363 . S
C391 C397 1.372 . S
C392 C393 1.363 . S
C392 C397 1.363 1_545 S
C392 N399 1.356 . S
C393 C392 1.363 . S
C393 C396 1.372 . S
N394 C396 1.367 . S
N394 H406 0.984 1_545 S
N394 H407 0.985 . S
N395 C397 1.367 . S
N395 H400 0.984 . S
N395 H401 0.985 1_565 S
C396 C390 1.364 1_545 S
C396 C393 1.372 . S
C396 N394 1.367 . S
C397 C391 1.372 . S
C397 C392 1.363 1_565 S
C397 N395 1.367 . S
N398 C390 1.356 . S
N398 H404 0.984 . S
N398 H405 0.984 . S
N399 C392 1.356 . S
N399 H402 0.984 . S
N399 H403 0.985 . S
H400 N395 0.984 . S
H401 N395 0.985 1_545 S
H402 N399 0.984 . S
H403 N399 0.985 . S
H404 N398 0.984 . S
H405 N398 0.984 . S
H406 N394 0.984 1_565 S
H407 N394 0.985 . S
C408 C409 1.363 . S
C408 C414 1.379 . S
C408 N416 1.356 . S
C409 C408 1.363 . S
C409 C415 1.363 . S
C410 C411 1.363 . S
C410 C415 1.379 . S
C410 N417 1.356 . S
C411 C410 1.363 . S
C411 C414 1.363 . S
N412 C414 1.356 . S
N412 H424 0.984 . S
N412 H425 0.985 . S
N413 C415 1.356 . S
N413 H418 0.984 . S
N413 H419 0.985 . S
C414 C408 1.379 . S
C414 C411 1.363 . S
C414 N412 1.356 . S
C415 C409 1.363 . S
C415 C410 1.379 . S
C415 N413 1.356 . S
N416 C408 1.356 . S
N416 H422 0.984 . S
N416 H423 0.984 . S
N417 C410 1.356 . S
N417 H420 0.984 . S
N417 H421 0.985 . S
H418 N413 0.984 . S
H419 N413 0.985 . S
H420 N417 0.984 . S
H421 N417 0.985 . S
H422 N416 0.984 . S
H423 N416 0.984 . S
H424 N412 0.984 . S
H425 N412 0.985 . S
C426 C427 1.363 . S
C426 C432 1.379 1_455 S
C426 N434 1.356 . S
C427 C426 1.363 . S
C427 C433 1.363 . S
C428 C429 1.363 . S
C428 C433 1.379 1_655 S
C428 N435 1.356 . S
C429 C428 1.363 . S
C429 C432 1.363 . S
N430 C432 1.356 . S
N430 H442 0.984 . S
N430 H443 0.985 . S
N431 C433 1.356 . S
N431 H436 0.984 . S
N431 H437 0.985 . S
C432 C426 1.379 1_655 S
C432 C429 1.363 . S
C432 N430 1.356 . S
C433 C427 1.363 . S
C433 C428 1.379 1_455 S
C433 N431 1.356 . S
N434 C426 1.356 . S
N434 H440 0.984 . S
N434 H441 0.984 . S
N435 C428 1.356 . S
N435 H438 0.984 . S
N435 H439 0.985 . S
H436 N431 0.984 . S
H437 N431 0.985 . S
H438 N435 0.984 . S
H439 N435 0.985 . S
H440 N434 0.984 . S
H441 N434 0.984 . S
H442 N430 0.984 . S
H443 N430 0.985 . S
C444 C445 1.363 . S
C444 C450 1.379 1_565 S
C444 N452 1.356 . S
C445 C444 1.363 . S
C445 C451 1.363 . S
C446 C447 1.363 . S
C446 C451 1.379 1_545 S
C446 N453 1.356 . S
C447 C446 1.363 . S
C447 C450 1.363 . S
N448 C450 1.356 . S
N448 H460 0.984 . S
N448 H461 0.985 . S
N449 C451 1.356 . S
N449 H454 0.984 . S
N449 H455 0.985 . S
C450 C444 1.379 1_545 S
C450 C447 1.363 . S
C450 N448 1.356 . S
C451 C445 1.363 . S
C451 C446 1.379 1_565 S
C451 N449 1.356 . S
N452 C444 1.356 . S
N452 H458 0.984 . S
N452 H459 0.984 . S
N453 C446 1.356 . S
N453 H456 0.984 . S
N453 H457 0.985 . S
H454 N449 0.984 . S
H455 N449 0.985 . S
H456 N453 0.984 . S
H457 N453 0.985 . S
H458 N452 0.984 . S
H459 N452 0.984 . S
H460 N448 0.984 . S
H461 N448 0.985 . S
C462 C463 1.363 . S
C462 C468 1.379 . S
C462 N470 1.356 . S
C463 C462 1.363 . S
C463 C469 1.363 . S
C464 C465 1.363 . S
C464 C469 1.379 . S
C464 N471 1.356 . S
C465 C464 1.363 . S
C465 C468 1.363 . S
N466 C468 1.356 . S
N466 H478 0.984 . S
N466 H479 0.985 . S
N467 C469 1.356 . S
N467 H472 0.984 . S
N467 H473 0.985 . S
C468 C462 1.379 . S
C468 C465 1.363 . S
C468 N466 1.356 . S
C469 C463 1.363 . S
C469 C464 1.379 . S
C469 N467 1.356 . S
N470 C462 1.356 . S
N470 H476 0.984 . S
N470 H477 0.984 . S
N471 C464 1.356 . S
N471 H474 0.984 . S
N471 H475 0.985 . S
H472 N467 0.984 . S
H473 N467 0.985 . S
H474 N471 0.984 . S
H475 N471 0.985 . S
H476 N470 0.984 . S
H477 N470 0.984 . S
H478 N466 0.984 . S
H479 N466 0.985 . S
C480 C481 1.363 . S
C480 C486 1.379 1_655 S
C480 N488 1.356 . S
C481 C480 1.363 . S
C481 C487 1.363 . S
C482 C483 1.363 . S
C482 C487 1.379 1_455 S
C482 N489 1.356 . S
C483 C482 1.363 . S
C483 C486 1.363 . S
N484 C486 1.356 . S
N484 H496 0.984 . S
N484 H497 0.985 . S
N485 C487 1.356 . S
N485 H490 0.984 . S
N485 H491 0.985 . S
C486 C480 1.379 1_455 S
C486 C483 1.363 . S
C486 N484 1.356 . S
C487 C481 1.363 . S
C487 C482 1.379 1_655 S
C487 N485 1.356 . S
N488 C480 1.356 . S
N488 H494 0.984 . S
N488 H495 0.984 . S
N489 C482 1.356 . S
N489 H492 0.984 . S
N489 H493 0.985 . S
H490 N485 0.984 . S
H491 N485 0.985 . S
H492 N489 0.984 . S
H493 N489 0.985 . S
H494 N488 0.984 . S
H495 N488 0.984 . S
H496 N484 0.984 . S
H497 N484 0.985 . S
C498 C499 1.363 1_565 S
C498 C504 1.379 . S
C498 N506 1.356 1_565 S
C499 C498 1.363 1_545 S
C499 C505 1.363 . S
C500 C501 1.363 1_545 S
C500 C505 1.379 . S
C500 N507 1.356 1_545 S
C501 C500 1.363 1_565 S
C501 C504 1.363 . S
N502 C504 1.356 . S
N502 H514 0.984 . S
N502 H515 0.985 . S
N503 C505 1.356 . S
N503 H508 0.984 . S
N503 H509 0.985 . S
C504 C498 1.379 . S
C504 C501 1.363 . S
C504 N502 1.356 . S
C505 C499 1.363 . S
C505 C500 1.379 . S
C505 N503 1.356 . S
N506 C498 1.356 1_545 S
N506 H512 0.984 1_545 S
N506 H513 0.984 . S
N507 C500 1.356 1_565 S
N507 H510 0.984 . S
N507 H511 0.985 1_565 S
H508 N503 0.984 . S
H509 N503 0.985 . S
H510 N507 0.984 . S
H511 N507 0.985 1_545 S
H512 N506 0.984 1_565 S
H513 N506 0.984 . S
H514 N502 0.984 . S
H515 N502 0.985 . S
C516 C517 1.363 . S
C516 C522 1.379 . S
C516 N524 1.356 . S
C517 C516 1.363 . S
C517 C523 1.363 . S
C518 C519 1.363 . S
C518 C523 1.379 . S
C518 N525 1.356 . S
C519 C518 1.363 . S
C519 C522 1.363 . S
N520 C522 1.356 . S
N520 H532 0.984 . S
N520 H533 0.985 . S
N521 C523 1.356 . S
N521 H526 0.984 . S
N521 H527 0.985 . S
C522 C516 1.379 . S
C522 C519 1.363 . S
C522 N520 1.356 . S
C523 C517 1.363 . S
C523 C518 1.379 . S
C523 N521 1.356 . S
N524 C516 1.356 . S
N524 H530 0.984 . S
N524 H531 0.984 . S
N525 C518 1.356 . S
N525 H528 0.984 . S
N525 H529 0.985 . S
H526 N521 0.984 . S
H527 N521 0.985 . S
H528 N525 0.984 . S
H529 N525 0.985 . S
H530 N524 0.984 . S
H531 N524 0.984 . S
H532 N520 0.984 . S
H533 N520 0.985 . S
C534 C535 1.363 . S
C534 C540 1.379 . S
C534 N542 1.356 . S
C535 C534 1.363 . S
C535 C541 1.363 1_455 S
C536 C537 1.363 . S
C536 C541 1.379 . S
C536 N543 1.356 . S
C537 C536 1.363 . S
C537 C540 1.363 1_655 S
N538 C540 1.356 1_655 S
N538 H550 0.984 1_655 S
N538 H551 0.985 . S
N539 C541 1.356 1_455 S
N539 H544 0.984 . S
N539 H545 0.985 1_455 S
C540 C534 1.379 . S
C540 C537 1.363 1_455 S
C540 N538 1.356 1_455 S
C541 C535 1.363 1_655 S
C541 C536 1.379 . S
C541 N539 1.356 1_655 S
N542 C534 1.356 . S
N542 H548 0.984 . S
N542 H549 0.984 . S
N543 C536 1.356 . S
N543 H546 0.984 . S
N543 H547 0.985 . S
H544 N539 0.984 . S
H545 N539 0.985 1_655 S
H546 N543 0.984 . S
H547 N543 0.985 . S
H548 N542 0.984 . S
H549 N542 0.984 . S
H550 N538 0.984 1_455 S
H551 N538 0.985 . S
C552 C553 1.363 . S
C552 C558 1.379 . S
C552 N560 1.356 . S
C553 C552 1.363 . S
C553 C559 1.363 . S
C554 C555 1.363 . S
C554 C559 1.379 . S
C554 N561 1.356 . S
C555 C554 1.363 . S
C555 C558 1.363 . S
N556 C558 1.356 . S
N556 H568 0.984 . S
N556 H569 0.985 . S
N557 C559 1.356 . S
N557 H562 0.984 . S
N557 H563 0.985 . S
C558 C552 1.379 . S
C558 C555 1.363 . S
C558 N556 1.356 . S
C559 C553 1.363 . S
C559 C554 1.379 . S
C559 N557 1.356 . S
N560 C552 1.356 . S
N560 H566 0.984 . S
N560 H567 0.984 . S
N561 C554 1.356 . S
N561 H564 0.984 . S
N561 H565 0.985 . S
H562 N557 0.984 . S
H563 N557 0.985 . S
H564 N561 0.984 . S
H565 N561 0.985 . S
H566 N560 0.984 . S
H567 N560 0.984 . S
H568 N556 0.984 . S
H569 N556 0.985 . S
C570 C571 1.363 . S
C570 C576 1.379 . S
C570 N578 1.356 . S
C571 C570 1.363 . S
C571 C577 1.363 . S
C572 C573 1.363 . S
C572 C577 1.379 . S
C572 N579 1.356 . S
C573 C572 1.363 . S
C573 C576 1.363 . S
N574 C576 1.356 . S
N574 H586 0.984 . S
N574 H587 0.985 . S
N575 C577 1.356 . S
N575 H580 0.984 . S
N575 H581 0.985 . S
C576 C570 1.379 . S
C576 C573 1.363 . S
C576 N574 1.356 . S
C577 C571 1.363 . S
C577 C572 1.379 . S
C577 N575 1.356 . S
N578 C570 1.356 . S
N578 H584 0.984 . S
N578 H585 0.984 . S
N579 C572 1.356 . S
N579 H582 0.984 . S
N579 H583 0.985 . S
H580 N575 0.984 . S
H581 N575 0.985 . S
H582 N579 0.984 . S
H583 N579 0.985 . S
H584 N578 0.984 . S
H585 N578 0.984 . S
H586 N574 0.984 . S
H587 N574 0.985 . S
C588 C589 1.363 . S
C588 C594 1.379 . S
C588 N596 1.356 . S
C589 C588 1.363 . S
C589 C595 1.363 . S
C590 C591 1.363 . S
C590 C595 1.379 . S
C590 N597 1.356 . S
C591 C590 1.363 . S
C591 C594 1.363 . S
N592 C594 1.356 . S
N592 H604 0.984 . S
N592 H605 0.985 . S
N593 C595 1.356 . S
N593 H598 0.984 . S
N593 H599 0.985 . S
C594 C588 1.379 . S
C594 C591 1.363 . S
C594 N592 1.356 . S
C595 C589 1.363 . S
C595 C590 1.379 . S
C595 N593 1.356 . S
N596 C588 1.356 . S
N596 H602 0.984 . S
N596 H603 0.984 . S
N597 C590 1.356 . S
N597 H600 0.984 . S
N597 H601 0.985 . S
H598 N593 0.984 . S
H599 N593 0.985 . S
H600 N597 0.984 . S
H601 N597 0.985 . S
H602 N596 0.984 . S
H603 N596 0.984 . S
H604 N592 0.984 . S
H605 N592 0.985 . S
C606 C607 1.363 . S
C606 C612 1.379 . S
C606 N614 1.356 . S
C607 C606 1.363 . S
C607 C613 1.363 . S
C608 C609 1.363 . S
C608 C613 1.379 . S
C608 N615 1.356 . S
C609 C608 1.363 . S
C609 C612 1.363 . S
N610 C612 1.356 . S
N610 H622 0.984 . S
N610 H623 0.985 . S
N611 C613 1.356 . S
N611 H616 0.984 . S
N611 H617 0.985 . S
C612 C606 1.379 . S
C612 C609 1.363 . S
C612 N610 1.356 . S
C613 C607 1.363 . S
C613 C608 1.379 . S
C613 N611 1.356 . S
N614 C606 1.356 . S
N614 H620 0.984 . S
N614 H621 0.984 . S
N615 C608 1.356 . S
N615 H618 0.984 . S
N615 H619 0.985 . S
H616 N611 0.984 . S
H617 N611 0.985 . S
H618 N615 0.984 . S
H619 N615 0.985 . S
H620 N614 0.984 . S
H621 N614 0.984 . S
H622 N610 0.984 . S
H623 N610 0.985 . S
C624 C625 1.363 . S
C624 C630 1.379 . S
C624 N632 1.356 . S
C625 C624 1.363 . S
C625 C631 1.363 . S
C626 C627 1.363 . S
C626 C631 1.379 . S
C626 N633 1.356 . S
C627 C626 1.363 . S
C627 C630 1.363 . S
N628 C630 1.356 . S
N628 H640 0.984 . S
N628 H641 0.985 . S
N629 C631 1.356 . S
N629 H634 0.984 . S
N629 H635 0.985 . S
C630 C624 1.379 . S
C630 C627 1.363 . S
C630 N628 1.356 . S
C631 C625 1.363 . S
C631 C626 1.379 . S
C631 N629 1.356 . S
N632 C624 1.356 . S
N632 H638 0.984 . S
N632 H639 0.984 . S
N633 C626 1.356 . S
N633 H636 0.984 . S
N633 H637 0.985 . S
H634 N629 0.984 . S
H635 N629 0.985 . S
H636 N633 0.984 . S
H637 N633 0.985 . S
H638 N632 0.984 . S
H639 N632 0.984 . S
H640 N628 0.984 . S
H641 N628 0.985 . S
C642 C643 1.363 . S
C642 C648 1.379 . S
C642 N650 1.356 . S
C643 C642 1.363 . S
C643 C649 1.363 . S
C644 C645 1.363 . S
C644 C649 1.379 . S
C644 N651 1.356 . S
C645 C644 1.363 . S
C645 C648 1.363 . S
N646 C648 1.356 . S
N646 H658 0.984 . S
N646 H659 0.985 . S
N647 C649 1.356 . S
N647 H652 0.984 . S
N647 H653 0.985 . S
C648 C642 1.379 . S
C648 C645 1.363 . S
C648 N646 1.356 . S
C649 C643 1.363 . S
C649 C644 1.379 . S
C649 N647 1.356 . S
N650 C642 1.356 . S
N650 H656 0.984 . S
N650 H657 0.984 . S
N651 C644 1.356 . S
N651 H654 0.984 . S
N651 H655 0.985 . S
H652 N647 0.984 . S
H653 N647 0.985 . S
H654 N651 0.984 . S
H655 N651 0.985 . S
H656 N650 0.984 . S
H657 N650 0.984 . S
H658 N646 0.984 . S
H659 N646 0.985 . S
C660 C661 1.363 . S
C660 C666 1.379 . S
C660 N668 1.356 . S
C661 C660 1.363 . S
C661 C667 1.363 . S
C662 C663 1.363 . S
C662 C667 1.379 . S
C662 N669 1.356 . S
C663 C662 1.363 . S
C663 C666 1.363 . S
N664 C666 1.356 . S
N664 H676 0.984 . S
N664 H677 0.985 . S
N665 C667 1.356 . S
N665 H670 0.984 . S
N665 H671 0.985 . S
C666 C660 1.379 . S
C666 C663 1.363 . S
C666 N664 1.356 . S
C667 C661 1.363 . S
C667 C662 1.379 . S
C667 N665 1.356 . S
N668 C660 1.356 . S
N668 H674 0.984 . S
N668 H675 0.984 . S
N669 C662 1.356 . S
N669 H672 0.984 . S
N669 H673 0.985 . S
H670 N665 0.984 . S
H671 N665 0.985 . S
H672 N669 0.984 . S
H673 N669 0.985 . S
H674 N668 0.984 . S
H675 N668 0.984 . S
H676 N664 0.984 . S
H677 N664 0.985 . S
C678 C679 1.363 . S
C678 C684 1.379 . S
C678 N686 1.356 . S
C679 C678 1.363 . S
C679 C685 1.363 . S
C680 C681 1.363 . S
C680 C685 1.379 . S
C680 N687 1.356 . S
C681 C680 1.363 . S
C681 C684 1.363 . S
N682 C684 1.356 . S
N682 H694 0.984 . S
N682 H695 0.985 . S
N683 C685 1.356 . S
N683 H688 0.984 . S
N683 H689 0.985 . S
C684 C678 1.379 . S
C684 C681 1.363 . S
C684 N682 1.356 . S
C685 C679 1.363 . S
C685 C680 1.379 . S
C685 N683 1.356 . S
N686 C678 1.356 . S
N686 H692 0.984 . S
N686 H693 0.984 . S
N687 C680 1.356 . S
N687 H690 0.984 . S
N687 H691 0.985 . S
H688 N683 0.984 . S
H689 N683 0.985 . S
H690 N687 0.984 . S
H691 N687 0.985 . S
H692 N686 0.984 . S
H693 N686 0.984 . S
H694 N682 0.984 . S
H695 N682 0.985 . S
C696 C697 1.363 . S
C696 C702 1.379 . S
C696 N704 1.356 . S
C697 C696 1.363 . S
C697 C703 1.363 . S
C698 C699 1.363 . S
C698 C703 1.379 . S
C698 N705 1.356 . S
C699 C698 1.363 . S
C699 C702 1.363 . S
N700 C702 1.356 . S
N700 H712 0.984 . S
N700 H713 0.985 . S
N701 C703 1.356 . S
N701 H706 0.984 . S
N701 H707 0.985 . S
C702 C696 1.379 . S
C702 C699 1.363 . S
C702 N700 1.356 . S
C703 C697 1.363 . S
C703 C698 1.379 . S
C703 N701 1.356 . S
N704 C696 1.356 . S
N704 H710 0.984 . S
N704 H711 0.984 . S
N705 C698 1.356 . S
N705 H708 0.984 . S
N705 H709 0.985 . S
H706 N701 0.984 . S
H707 N701 0.985 . S
H708 N705 0.984 . S
H709 N705 0.985 . S
H710 N704 0.984 . S
H711 N704 0.984 . S
H712 N700 0.984 . S
H713 N700 0.985 . S
C714 C715 1.363 . S
C714 C720 1.379 . S
C714 N722 1.356 . S
C715 C714 1.363 . S
C715 C721 1.363 . S
C716 C717 1.363 . S
C716 C721 1.379 . S
C716 N723 1.356 . S
C717 C716 1.363 . S
C717 C720 1.363 . S
N718 C720 1.356 . S
N718 H730 0.984 . S
N718 H731 0.985 . S
N719 C721 1.356 . S
N719 H724 0.984 . S
N719 H725 0.985 . S
C720 C714 1.379 . S
C720 C717 1.363 . S
C720 N718 1.356 . S
C721 C715 1.363 . S
C721 C716 1.379 . S
C721 N719 1.356 . S
N722 C714 1.356 . S
N722 H728 0.984 . S
N722 H729 0.984 . S
N723 C716 1.356 . S
N723 H726 0.984 . S
N723 H727 0.985 . S
H724 N719 0.984 . S
H725 N719 0.985 . S
H726 N723 0.984 . S
H727 N723 0.985 . S
H728 N722 0.984 . S
H729 N722 0.984 . S
H730 N718 0.984 . S
H731 N718 0.985 . S
C732 C733 1.363 . S
C732 C738 1.379 . S
C732 N740 1.356 . S
C733 C732 1.363 . S
C733 C739 1.363 . S
C734 C735 1.363 . S
C734 C739 1.379 . S
C734 N741 1.356 . S
C735 C734 1.363 . S
C735 C738 1.363 . S
N736 C738 1.356 . S
N736 H748 0.984 . S
N736 H749 0.985 . S
N737 C739 1.356 . S
N737 H742 0.984 . S
N737 H743 0.985 . S
C738 C732 1.379 . S
C738 C735 1.363 . S
C738 N736 1.356 . S
C739 C733 1.363 . S
C739 C734 1.379 . S
C739 N737 1.356 . S
N740 C732 1.356 . S
N740 H746 0.984 . S
N740 H747 0.984 . S
N741 C734 1.356 . S
N741 H744 0.984 . S
N741 H745 0.985 . S
H742 N737 0.984 . S
H743 N737 0.985 . S
H744 N741 0.984 . S
H745 N741 0.985 . S
H746 N740 0.984 . S
H747 N740 0.984 . S
H748 N736 0.984 . S
H749 N736 0.985 . S
C750 C751 1.363 . S
C750 C756 1.379 . S
C750 N758 1.356 . S
C751 C750 1.363 . S
C751 C757 1.363 . S
C752 C753 1.363 . S
C752 C757 1.379 . S
C752 N759 1.356 . S
C753 C752 1.363 . S
C753 C756 1.363 . S
N754 C756 1.356 . S
N754 H766 0.984 . S
N754 H767 0.985 . S
N755 C757 1.356 . S
N755 H760 0.984 . S
N755 H761 0.985 . S
C756 C750 1.379 . S
C756 C753 1.363 . S
C756 N754 1.356 . S
C757 C751 1.363 . S
C757 C752 1.379 . S
C757 N755 1.356 . S
N758 C750 1.356 . S
N758 H764 0.984 . S
N758 H765 0.984 . S
N759 C752 1.356 . S
N759 H762 0.984 . S
N759 H763 0.985 . S
H760 N755 0.984 . S
H761 N755 0.985 . S
H762 N759 0.984 . S
H763 N759 0.985 . S
H764 N758 0.984 . S
H765 N758 0.984 . S
H766 N754 0.984 . S
H767 N754 0.985 . S
C768 C769 1.363 . S
C768 C774 1.379 1_554 S
C768 N776 1.356 . S
C769 C768 1.363 . S
C769 C775 1.363 . S
C770 C771 1.363 . S
C770 C775 1.379 1_556 S
C770 N777 1.356 . S
C771 C770 1.363 . S
C771 C774 1.363 . S
N772 C774 1.356 . S
N772 H784 0.984 . S
N772 H785 0.985 . S
N773 C775 1.356 . S
N773 H778 0.984 . S
N773 H779 0.985 . S
C774 C768 1.379 1_556 S
C774 C771 1.363 . S
C774 N772 1.356 . S
C775 C769 1.363 . S
C775 C770 1.379 1_554 S
C775 N773 1.356 . S
N776 C768 1.356 . S
N776 H782 0.984 . S
N776 H783 0.984 . S
N777 C770 1.356 . S
N777 H780 0.984 . S
N777 H781 0.985 . S
H778 N773 0.984 . S
H779 N773 0.985 . S
H780 N777 0.984 . S
H781 N777 0.985 . S
H782 N776 0.984 . S
H783 N776 0.984 . S
H784 N772 0.984 . S
H785 N772 0.985 . S
C786 C787 1.363 . S
C786 C792 1.379 1_556 S
C786 N794 1.356 . S
C787 C786 1.363 . S
C787 C793 1.363 . S
C788 C789 1.363 . S
C788 C793 1.379 1_554 S
C788 N795 1.356 . S
C789 C788 1.363 . S
C789 C792 1.363 . S
N790 C792 1.356 . S
N790 H802 0.984 . S
N790 H803 0.985 . S
N791 C793 1.356 . S
N791 H796 0.984 . S
N791 H797 0.985 . S
C792 C786 1.379 1_554 S
C792 C789 1.363 . S
C792 N790 1.356 . S
C793 C787 1.363 . S
C793 C788 1.379 1_556 S
C793 N791 1.356 . S
N794 C786 1.356 . S
N794 H800 0.984 . S
N794 H801 0.984 . S
N795 C788 1.356 . S
N795 H798 0.984 . S
N795 H799 0.985 . S
H796 N791 0.984 . S
H797 N791 0.985 . S
H798 N795 0.984 . S
H799 N795 0.985 . S
H800 N794 0.984 . S
H801 N794 0.984 . S
H802 N790 0.984 . S
H803 N790 0.985 . S
C804 C805 1.363 . S
C804 C810 1.379 1_556 S
C804 N812 1.356 . S
C805 C804 1.363 . S
C805 C811 1.363 . S
C806 C807 1.363 . S
C806 C811 1.379 1_554 S
C806 N813 1.356 . S
C807 C806 1.363 . S
C807 C810 1.363 . S
N808 C810 1.356 . S
N808 H820 0.984 . S
N808 H821 0.985 . S
N809 C811 1.356 . S
N809 H814 0.984 . S
N809 H815 0.985 . S
C810 C804 1.379 1_554 S
C810 C807 1.363 . S
C810 N808 1.356 . S
C811 C805 1.363 . S
C811 C806 1.379 1_556 S
C811 N809 1.356 . S
N812 C804 1.356 . S
N812 H818 0.984 . S
N812 H819 0.984 . S
N813 C806 1.356 . S
N813 H816 0.984 . S
N813 H817 0.985 . S
H814 N809 0.984 . S
H815 N809 0.985 . S
H816 N813 0.984 . S
H817 N813 0.985 . S
H818 N812 0.984 . S
H819 N812 0.984 . S
H820 N808 0.984 . S
H821 N808 0.985 . S
C822 C823 1.363 . S
C822 C828 1.379 1_554 S
C822 N830 1.356 . S
C823 C822 1.363 . S
C823 C829 1.363 . S
C824 C825 1.363 . S
C824 C829 1.379 1_556 S
C824 N831 1.356 . S
C825 C824 1.363 . S
C825 C828 1.363 . S
N826 C828 1.356 . S
N826 H838 0.984 . S
N826 H839 0.985 . S
N827 C829 1.356 . S
N827 H832 0.984 . S
N827 H833 0.985 . S
C828 C822 1.379 1_556 S
C828 C825 1.363 . S
C828 N826 1.356 . S
C829 C823 1.363 . S
C829 C824 1.379 1_554 S
C829 N827 1.356 . S
N830 C822 1.356 . S
N830 H836 0.984 . S
N830 H837 0.984 . S
N831 C824 1.356 . S
N831 H834 0.984 . S
N831 H835 0.985 . S
H832 N827 0.984 . S
H833 N827 0.985 . S
H834 N831 0.984 . S
H835 N831 0.985 . S
H836 N830 0.984 . S
H837 N830 0.984 . S
H838 N826 0.984 . S
H839 N826 0.985 . S
C840 C841 1.363 . S
C840 C846 1.379 1_554 S
C840 N848 1.356 . S
C841 C840 1.363 . S
C841 C847 1.363 . S
C842 C843 1.363 . S
C842 C847 1.379 1_556 S
C842 N849 1.356 . S
C843 C842 1.363 . S
C843 C846 1.363 . S
N844 C846 1.356 . S
N844 H856 0.984 . S
N844 H857 0.985 . S
N845 C847 1.356 . S
N845 H850 0.984 . S
N845 H851 0.985 . S
C846 C840 1.379 1_556 S
C846 C843 1.363 . S
C846 N844 1.356 . S
C847 C841 1.363 . S
C847 C842 1.379 1_554 S
C847 N845 1.356 . S
N848 C840 1.356 . S
N848 H854 0.984 . S
N848 H855 0.984 . S
N849 C842 1.356 . S
N849 H852 0.984 . S
N849 H853 0.985 . S
H850 N845 0.984 . S
H851 N845 0.985 . S
H852 N849 0.984 . S
H853 N849 0.985 . S
H854 N848 0.984 . S
H855 N848 0.984 . S
H856 N844 0.984 . S
H857 N844 0.985 . S
C858 C859 1.363 . S
C858 C864 1.379 1_556 S
C858 N866 1.356 . S
C859 C858 1.363 . S
C859 C865 1.363 . S
C860 C861 1.363 . S
C860 C865 1.379 1_554 S
C860 N867 1.356 . S
C861 C860 1.363 . S
C861 C864 1.363 . S
N862 C864 1.356 . S
N862 H874 0.984 . S
N862 H875 0.985 . S
N863 C865 1.356 . S
N863 H868 0.984 . S
N863 H869 0.985 . S
C864 C858 1.379 1_554 S
C864 C861 1.363 . S
C864 N862 1.356 . S
C865 C859 1.363 . S
C865 C860 1.379 1_556 S
C865 N863 1.356 . S
N866 C858 1.356 . S
N866 H872 0.984 . S
N866 H873 0.984 . S
N867 C860 1.356 . S
N867 H870 0.984 . S
N867 H871 0.985 . S
H868 N863 0.984 . S
H869 N863 0.985 . S
H870 N867 0.984 . S
H871 N867 0.985 . S
H872 N866 0.984 . S
H873 N866 0.984 . S
H874 N862 0.984 . S
H875 N862 0.985 . S
C876 C877 1.363 . S
C876 C882 1.379 . S
C876 N884 1.356 . S
C877 C876 1.363 . S
C877 C883 1.363 . S
C878 C879 1.363 . S
C878 C883 1.379 . S
C878 N885 1.356 . S
C879 C878 1.363 . S
C879 C882 1.363 . S
N880 C882 1.356 . S
N880 H892 0.984 . S
N880 H893 0.985 . S
N881 C883 1.356 . S
N881 H886 0.984 . S
N881 H887 0.985 . S
C882 C876 1.379 . S
C882 C879 1.363 . S
C882 N880 1.356 . S
C883 C877 1.363 . S
C883 C878 1.379 . S
C883 N881 1.356 . S
N884 C876 1.356 . S
N884 H890 0.984 . S
N884 H891 0.984 . S
N885 C878 1.356 . S
N885 H888 0.984 . S
N885 H889 0.985 . S
H886 N881 0.984 . S
H887 N881 0.985 . S
H888 N885 0.984 . S
H889 N885 0.985 . S
H890 N884 0.984 . S
H891 N884 0.984 . S
H892 N880 0.984 . S
H893 N880 0.985 . S
C894 C895 1.363 . S
C894 C900 1.379 . S
C894 N902 1.356 . S
C895 C894 1.363 . S
C895 C901 1.363 . S
C896 C897 1.363 . S
C896 C901 1.379 . S
C896 N903 1.356 . S
C897 C896 1.363 . S
C897 C900 1.363 . S
N898 C900 1.356 . S
N898 H910 0.984 . S
N898 H911 0.985 . S
N899 C901 1.356 . S
N899 H904 0.984 . S
N899 H905 0.985 . S
C900 C894 1.379 . S
C900 C897 1.363 . S
C900 N898 1.356 . S
C901 C895 1.363 . S
C901 C896 1.379 . S
C901 N899 1.356 . S
N902 C894 1.356 . S
N902 H908 0.984 . S
N902 H909 0.984 . S
N903 C896 1.356 . S
N903 H906 0.984 . S
N903 H907 0.985 . S
H904 N899 0.984 . S
H905 N899 0.985 . S
H906 N903 0.984 . S
H907 N903 0.985 . S
H908 N902 0.984 . S
H909 N902 0.984 . S
H910 N898 0.984 . S
H911 N898 0.985 . S
C912 C913 1.363 . S
C912 C918 1.379 . S
C912 N920 1.356 . S
C913 C912 1.363 . S
C913 C919 1.363 . S
C914 C915 1.363 . S
C914 C919 1.379 . S
C914 N921 1.356 . S
C915 C914 1.363 . S
C915 C918 1.363 . S
N916 C918 1.356 . S
N916 H928 0.984 . S
N916 H929 0.985 . S
N917 C919 1.356 . S
N917 H922 0.984 . S
N917 H923 0.985 . S
C918 C912 1.379 . S
C918 C915 1.363 . S
C918 N916 1.356 . S
C919 C913 1.363 . S
C919 C914 1.379 . S
C919 N917 1.356 . S
N920 C912 1.356 . S
N920 H926 0.984 . S
N920 H927 0.984 . S
N921 C914 1.356 . S
N921 H924 0.984 . S
N921 H925 0.985 . S
H922 N917 0.984 . S
H923 N917 0.985 . S
H924 N921 0.984 . S
H925 N921 0.985 . S
H926 N920 0.984 . S
H927 N920 0.984 . S
H928 N916 0.984 . S
H929 N916 0.985 . S
C930 C931 1.363 . S
C930 C936 1.379 . S
C930 N938 1.356 . S
C931 C930 1.363 . S
C931 C937 1.363 . S
C932 C933 1.363 . S
C932 C937 1.379 . S
C932 N939 1.356 . S
C933 C932 1.363 . S
C933 C936 1.363 . S
N934 C936 1.356 . S
N934 H946 0.984 . S
N934 H947 0.985 . S
N935 C937 1.356 . S
N935 H940 0.984 . S
N935 H941 0.985 . S
C936 C930 1.379 . S
C936 C933 1.363 . S
C936 N934 1.356 . S
C937 C931 1.363 . S
C937 C932 1.379 . S
C937 N935 1.356 . S
N938 C930 1.356 . S
N938 H944 0.984 . S
N938 H945 0.984 . S
N939 C932 1.356 . S
N939 H942 0.984 . S
N939 H943 0.985 . S
H940 N935 0.984 . S
H941 N935 0.985 . S
H942 N939 0.984 . S
H943 N939 0.985 . S
H944 N938 0.984 . S
H945 N938 0.984 . S
H946 N934 0.984 . S
H947 N934 0.985 . S
C948 C949 1.363 . S
C948 C954 1.379 . S
C948 N956 1.356 . S
C949 C948 1.363 . S
C949 C955 1.363 . S
C950 C951 1.363 . S
C950 C955 1.379 . S
C950 N957 1.356 . S
C951 C950 1.363 . S
C951 C954 1.363 . S
N952 C954 1.356 . S
N952 H964 0.984 . S
N952 H965 0.985 . S
N953 C955 1.356 . S
N953 H958 0.984 . S
N953 H959 0.985 . S
C954 C948 1.379 . S
C954 C951 1.363 . S
C954 N952 1.356 . S
C955 C949 1.363 . S
C955 C950 1.379 . S
C955 N953 1.356 . S
N956 C948 1.356 . S
N956 H962 0.984 . S
N956 H963 0.984 . S
N957 C950 1.356 . S
N957 H960 0.984 . S
N957 H961 0.985 . S
H958 N953 0.984 . S
H959 N953 0.985 . S
H960 N957 0.984 . S
H961 N957 0.985 . S
H962 N956 0.984 . S
H963 N956 0.984 . S
H964 N952 0.984 . S
H965 N952 0.985 . S
C966 C967 1.363 . S
C966 C972 1.379 . S
C966 N974 1.356 . S
C967 C966 1.363 . S
C967 C973 1.363 . S
C968 C969 1.363 . S
C968 C973 1.379 . S
C968 N975 1.356 . S
C969 C968 1.363 . S
C969 C972 1.363 . S
N970 C972 1.356 . S
N970 H982 0.984 . S
N970 H983 0.985 . S
N971 C973 1.356 . S
N971 H976 0.984 . S
N971 H977 0.985 . S
C972 C966 1.379 . S
C972 C969 1.363 . S
C972 N970 1.356 . S
C973 C967 1.363 . S
C973 C968 1.379 . S
C973 N971 1.356 . S
N974 C966 1.356 . S
N974 H980 0.984 . S
N974 H981 0.984 . S
N975 C968 1.356 . S
N975 H978 0.984 . S
N975 H979 0.985 . S
H976 N971 0.984 . S
H977 N971 0.985 . S
H978 N975 0.984 . S
H979 N975 0.985 . S
H980 N974 0.984 . S
H981 N974 0.984 . S
H982 N970 0.984 . S
H983 N970 0.985 . S
C984 C985 1.363 . S
C984 C990 1.379 . S
C984 N992 1.356 . S
C985 C984 1.363 . S
C985 C991 1.363 . S
C986 C987 1.363 . S
C986 C991 1.379 . S
C986 N993 1.356 . S
C987 C986 1.363 . S
C987 C990 1.363 . S
N988 C990 1.356 . S
N988 H1000 0.984 . S
N988 H1001 0.985 . S
N989 C991 1.356 . S
N989 H994 0.984 . S
N989 H995 0.985 . S
C990 C984 1.379 . S
C990 C987 1.363 . S
C990 N988 1.356 . S
C991 C985 1.363 . S
C991 C986 1.379 . S
C991 N989 1.356 . S
N992 C984 1.356 . S
N992 H998 0.984 . S
N992 H999 0.984 . S
N993 C986 1.356 . S
N993 H996 0.984 . S
N993 H997 0.985 . S
H994 N989 0.984 . S
H995 N989 0.985 . S
H996 N993 0.984 . S
H997 N993 0.985 . S
H998 N992 0.984 . S
H999 N992 0.984 . S
H1000 N988 0.984 . S
H1001 N988 0.985 . S
C1002 C1003 1.363 . S
C1002 C1008 1.379 . S
C1002 N1010 1.356 . S
C1003 C1002 1.363 . S
C1003 C1009 1.363 . S
C1004 C1005 1.363 . S
C1004 C1009 1.379 . S
C1004 N1011 1.356 . S
C1005 C1004 1.363 . S
C1005 C1008 1.363 . S
N1006 C1008 1.356 . S
N1006 H1018 0.984 . S
N1006 H1019 0.985 . S
N1007 C1009 1.356 . S
N1007 H1012 0.984 . S
N1007 H1013 0.985 . S
C1008 C1002 1.379 . S
C1008 C1005 1.363 . S
C1008 N1006 1.356 . S
C1009 C1003 1.363 . S
C1009 C1004 1.379 . S
C1009 N1007 1.356 . S
N1010 C1002 1.356 . S
N1010 H1016 0.984 . S
N1010 H1017 0.984 . S
N1011 C1004 1.356 . S
N1011 H1014 0.984 . S
N1011 H1015 0.985 . S
H1012 N1007 0.984 . S
H1013 N1007 0.985 . S
H1014 N1011 0.984 . S
H1015 N1011 0.985 . S
H1016 N1010 0.984 . S
H1017 N1010 0.984 . S
H1018 N1006 0.984 . S
H1019 N1006 0.985 . S
C1020 C1021 1.363 . S
C1020 C1026 1.379 . S
C1020 N1028 1.356 . S
C1021 C1020 1.363 . S
C1021 C1027 1.363 . S
C1022 C1023 1.363 . S
C1022 C1027 1.379 . S
C1022 N1029 1.356 . S
C1023 C1022 1.363 . S
C1023 C1026 1.363 . S
N1024 C1026 1.356 . S
N1024 H1036 0.984 . S
N1024 H1037 0.985 . S
N1025 C1027 1.356 . S
N1025 H1030 0.984 . S
N1025 H1031 0.985 . S
C1026 C1020 1.379 . S
C1026 C1023 1.363 . S
C1026 N1024 1.356 . S
C1027 C1021 1.363 . S
C1027 C1022 1.379 . S
C1027 N1025 1.356 . S
N1028 C1020 1.356 . S
N1028 H1034 0.984 . S
N1028 H1035 0.984 . S
N1029 C1022 1.356 . S
N1029 H1032 0.984 . S
N1029 H1033 0.985 . S
H1030 N1025 0.984 . S
H1031 N1025 0.985 . S
H1032 N1029 0.984 . S
H1033 N1029 0.985 . S
H1034 N1028 0.984 . S
H1035 N1028 0.984 . S
H1036 N1024 0.984 . S
H1037 N1024 0.985 . S
C1038 C1039 1.363 . S
C1038 C1044 1.379 . S
C1038 N1046 1.356 . S
C1039 C1038 1.363 . S
C1039 C1045 1.363 . S
C1040 C1041 1.363 . S
C1040 C1045 1.379 . S
C1040 N1047 1.356 . S
C1041 C1040 1.363 . S
C1041 C1044 1.363 . S
N1042 C1044 1.356 . S
N1042 H1054 0.984 . S
N1042 H1055 0.985 . S
N1043 C1045 1.356 . S
N1043 H1048 0.984 . S
N1043 H1049 0.985 . S
C1044 C1038 1.379 . S
C1044 C1041 1.363 . S
C1044 N1042 1.356 . S
C1045 C1039 1.363 . S
C1045 C1040 1.379 . S
C1045 N1043 1.356 . S
N1046 C1038 1.356 . S
N1046 H1052 0.984 . S
N1046 H1053 0.984 . S
N1047 C1040 1.356 . S
N1047 H1050 0.984 . S
N1047 H1051 0.985 . S
H1048 N1043 0.984 . S
H1049 N1043 0.985 . S
H1050 N1047 0.984 . S
H1051 N1047 0.985 . S
H1052 N1046 0.984 . S
H1053 N1046 0.984 . S
H1054 N1042 0.984 . S
H1055 N1042 0.985 . S
C1056 C1057 1.363 . S
C1056 C1062 1.379 . S
C1056 N1064 1.356 . S
C1057 C1056 1.363 . S
C1057 C1063 1.363 . S
C1058 C1059 1.363 . S
C1058 C1063 1.379 . S
C1058 N1065 1.356 . S
C1059 C1058 1.363 . S
C1059 C1062 1.363 . S
N1060 C1062 1.356 . S
N1060 H1072 0.984 . S
N1060 H1073 0.985 . S
N1061 C1063 1.356 . S
N1061 H1066 0.984 . S
N1061 H1067 0.985 . S
C1062 C1056 1.379 . S
C1062 C1059 1.363 . S
C1062 N1060 1.356 . S
C1063 C1057 1.363 . S
C1063 C1058 1.379 . S
C1063 N1061 1.356 . S
N1064 C1056 1.356 . S
N1064 H1070 0.984 . S
N1064 H1071 0.984 . S
N1065 C1058 1.356 . S
N1065 H1068 0.984 . S
N1065 H1069 0.985 . S
H1066 N1061 0.984 . S
H1067 N1061 0.985 . S
H1068 N1065 0.984 . S
H1069 N1065 0.985 . S
H1070 N1064 0.984 . S
H1071 N1064 0.984 . S
H1072 N1060 0.984 . S
H1073 N1060 0.985 . S
C1074 C1075 1.363 . S
C1074 C1080 1.379 . S
C1074 N1082 1.356 . S
C1075 C1074 1.363 . S
C1075 C1081 1.363 . S
C1076 C1077 1.363 . S
C1076 C1081 1.379 . S
C1076 N1083 1.356 . S
C1077 C1076 1.363 . S
C1077 C1080 1.363 . S
N1078 C1080 1.356 . S
N1078 H1090 0.984 . S
N1078 H1091 0.985 . S
N1079 C1081 1.356 . S
N1079 H1084 0.984 . S
N1079 H1085 0.985 . S
C1080 C1074 1.379 . S
C1080 C1077 1.363 . S
C1080 N1078 1.356 . S
C1081 C1075 1.363 . S
C1081 C1076 1.379 . S
C1081 N1079 1.356 . S
N1082 C1074 1.356 . S
N1082 H1088 0.984 . S
N1082 H1089 0.984 . S
N1083 C1076 1.356 . S
N1083 H1086 0.984 . S
N1083 H1087 0.985 . S
H1084 N1079 0.984 . S
H1085 N1079 0.985 . S
H1086 N1083 0.984 . S
H1087 N1083 0.985 . S
H1088 N1082 0.984 . S
H1089 N1082 0.984 . S
H1090 N1078 0.984 . S
H1091 N1078 0.985 . S
C1092 C1093 1.363 . S
C1092 C1098 1.379 . S
C1092 N1100 1.356 . S
C1093 C1092 1.363 . S
C1093 C1099 1.363 . S
C1094 C1095 1.363 . S
C1094 C1099 1.379 . S
C1094 N1101 1.356 . S
C1095 C1094 1.363 . S
C1095 C1098 1.363 . S
N1096 C1098 1.356 . S
N1096 H1108 0.984 . S
N1096 H1109 0.985 . S
N1097 C1099 1.356 . S
N1097 H1102 0.984 . S
N1097 H1103 0.985 . S
C1098 C1092 1.379 . S
C1098 C1095 1.363 . S
C1098 N1096 1.356 . S
C1099 C1093 1.363 . S
C1099 C1094 1.379 . S
C1099 N1097 1.356 . S
N1100 C1092 1.356 . S
N1100 H1106 0.984 . S
N1100 H1107 0.984 . S
N1101 C1094 1.356 . S
N1101 H1104 0.984 . S
N1101 H1105 0.985 . S
H1102 N1097 0.984 . S
H1103 N1097 0.985 . S
H1104 N1101 0.984 . S
H1105 N1101 0.985 . S
H1106 N1100 0.984 . S
H1107 N1100 0.984 . S
H1108 N1096 0.984 . S
H1109 N1096 0.985 . S
C1110 C1111 1.363 . S
C1110 C1116 1.379 . S
C1110 N1118 1.356 . S
C1111 C1110 1.363 . S
C1111 C1117 1.363 . S
C1112 C1113 1.363 . S
C1112 C1117 1.379 . S
C1112 N1119 1.356 . S
C1113 C1112 1.363 . S
C1113 C1116 1.363 . S
N1114 C1116 1.356 . S
N1114 H1126 0.984 . S
N1114 H1127 0.985 . S
N1115 C1117 1.356 . S
N1115 H1120 0.984 . S
N1115 H1121 0.985 . S
C1116 C1110 1.379 . S
C1116 C1113 1.363 . S
C1116 N1114 1.356 . S
C1117 C1111 1.363 . S
C1117 C1112 1.379 . S
C1117 N1115 1.356 . S
N1118 C1110 1.356 . S
N1118 H1124 0.984 . S
N1118 H1125 0.984 . S
N1119 C1112 1.356 . S
N1119 H1122 0.984 . S
N1119 H1123 0.985 . S
H1120 N1115 0.984 . S
H1121 N1115 0.985 . S
H1122 N1119 0.984 . S
H1123 N1119 0.985 . S
H1124 N1118 0.984 . S
H1125 N1118 0.984 . S
H1126 N1114 0.984 . S
H1127 N1114 0.985 . S
C1128 C1129 1.363 . S
C1128 C1134 1.379 . S
C1128 N1136 1.356 . S
C1129 C1128 1.363 . S
C1129 C1135 1.363 . S
C1130 C1131 1.363 . S
C1130 C1135 1.379 . S
C1130 N1137 1.356 . S
C1131 C1130 1.363 . S
C1131 C1134 1.363 . S
N1132 C1134 1.356 . S
N1132 H1144 0.984 . S
N1132 H1145 0.985 . S
N1133 C1135 1.356 . S
N1133 H1138 0.984 . S
N1133 H1139 0.985 . S
C1134 C1128 1.379 . S
C1134 C1131 1.363 . S
C1134 N1132 1.356 . S
C1135 C1129 1.363 . S
C1135 C1130 1.379 . S
C1135 N1133 1.356 . S
N1136 C1128 1.356 . S
N1136 H1142 0.984 . S
N1136 H1143 0.984 . S
N1137 C1130 1.356 . S
N1137 H1140 0.984 . S
N1137 H1141 0.985 . S
H1138 N1133 0.984 . S
H1139 N1133 0.985 . S
H1140 N1137 0.984 . S
H1141 N1137 0.985 . S
H1142 N1136 0.984 . S
H1143 N1136 0.984 . S
H1144 N1132 0.984 . S
H1145 N1132 0.985 . S
C1146 C1147 1.363 . S
C1146 C1152 1.379 . S
C1146 N1154 1.356 . S
C1147 C1146 1.363 . S
C1147 C1153 1.363 . S
C1148 C1149 1.363 . S
C1148 C1153 1.379 . S
C1148 N1155 1.356 . S
C1149 C1148 1.363 . S
C1149 C1152 1.363 . S
N1150 C1152 1.356 . S
N1150 H1162 0.984 . S
N1150 H1163 0.985 . S
N1151 C1153 1.356 . S
N1151 H1156 0.984 . S
N1151 H1157 0.985 . S
C1152 C1146 1.379 . S
C1152 C1149 1.363 . S
C1152 N1150 1.356 . S
C1153 C1147 1.363 . S
C1153 C1148 1.379 . S
C1153 N1151 1.356 . S
N1154 C1146 1.356 . S
N1154 H1160 0.984 . S
N1154 H1161 0.984 . S
N1155 C1148 1.356 . S
N1155 H1158 0.984 . S
N1155 H1159 0.985 . S
H1156 N1151 0.984 . S
H1157 N1151 0.985 . S
H1158 N1155 0.984 . S
H1159 N1155 0.985 . S
H1160 N1154 0.984 . S
H1161 N1154 0.984 . S
H1162 N1150 0.984 . S
H1163 N1150 0.985 . S
C1164 C1165 1.363 . S
C1164 C1170 1.379 . S
C1164 N1172 1.356 . S
C1165 C1164 1.363 . S
C1165 C1171 1.363 . S
C1166 C1167 1.363 . S
C1166 C1171 1.379 . S
C1166 N1173 1.356 . S
C1167 C1166 1.363 . S
C1167 C1170 1.363 . S
N1168 C1170 1.356 . S
N1168 H1180 0.984 . S
N1168 H1181 0.985 . S
N1169 C1171 1.356 . S
N1169 H1174 0.984 . S
N1169 H1175 0.985 . S
C1170 C1164 1.379 . S
C1170 C1167 1.363 . S
C1170 N1168 1.356 . S
C1171 C1165 1.363 . S
C1171 C1166 1.379 . S
C1171 N1169 1.356 . S
N1172 C1164 1.356 . S
N1172 H1178 0.984 . S
N1172 H1179 0.984 . S
N1173 C1166 1.356 . S
N1173 H1176 0.984 . S
N1173 H1177 0.985 . S
H1174 N1169 0.984 . S
H1175 N1169 0.985 . S
H1176 N1173 0.984 . S
H1177 N1173 0.985 . S
H1178 N1172 0.984 . S
H1179 N1172 0.984 . S
H1180 N1168 0.984 . S
H1181 N1168 0.985 . S
C1182 C1183 1.363 . S
C1182 C1188 1.379 . S
C1182 N1190 1.356 . S
C1183 C1182 1.363 . S
C1183 C1189 1.363 . S
C1184 C1185 1.363 . S
C1184 C1189 1.379 . S
C1184 N1191 1.356 . S
C1185 C1184 1.363 . S
C1185 C1188 1.363 . S
N1186 C1188 1.356 . S
N1186 H1198 0.984 . S
N1186 H1199 0.985 . S
N1187 C1189 1.356 . S
N1187 H1192 0.984 . S
N1187 H1193 0.985 . S
C1188 C1182 1.379 . S
C1188 C1185 1.363 . S
C1188 N1186 1.356 . S
C1189 C1183 1.363 . S
C1189 C1184 1.379 . S
C1189 N1187 1.356 . S
N1190 C1182 1.356 . S
N1190 H1196 0.984 . S
N1190 H1197 0.984 . S
N1191 C1184 1.356 . S
N1191 H1194 0.984 . S
N1191 H1195 0.985 . S
H1192 N1187 0.984 . S
H1193 N1187 0.985 . S
H1194 N1191 0.984 . S
H1195 N1191 0.985 . S
H1196 N1190 0.984 . S
H1197 N1190 0.984 . S
H1198 N1186 0.984 . S
H1199 N1186 0.985 . S
C337 C9 1.787 . S
C339 C107 1.787 . S
C355 C121 1.787 . S
C357 C23 1.787 . S
C373 C37 1.787 . S
C375 C135 1.787 . S
C391 C51 1.787 . S
C393 C149 1.787 . S
C409 C163 1.787 . S
C411 C65 1.787 . S
C427 C79 1.787 . S
C429 C93 1.787 . S
C445 C177 1.787 . S
C447 C275 1.787 . S
C463 C191 1.787 . S
C465 C289 1.787 . S
C481 C303 1.787 . S
C483 C205 1.787 . S
C499 C219 1.787 . S
C501 C317 1.787 . S
C517 C233 1.787 . S
C519 C331 1.787 . S
C535 C261 1.787 . S
C537 C247 1.787 . S
C553 C6 1.486 . S
C555 C118 1.486 . S
C571 C132 1.486 . S
C573 C20 1.486 . S
C589 C146 1.486 . S
C591 C34 1.486 . S
C607 C48 1.486 . S
C609 C160 1.486 . S
C625 C62 1.486 . S
C627 C90 1.486 . S
C643 C76 1.486 . S
C645 C104 1.486 . S
C661 C286 1.486 . S
C663 C174 1.486 . S
C679 C188 1.486 . S
C681 C300 1.486 . S
C697 C314 1.486 . S
C699 C202 1.486 . S
C715 C328 1.486 . S
C717 C216 1.486 . S
C733 C258 1.486 . S
C735 C230 1.486 . S
C751 C244 1.486 . S
C753 C272 1.486 . S
C769 C7 1.560 . S
C771 C217 1.560 . S
C787 C231 1.560 . S
C789 C21 1.560 . S
C805 C245 1.560 . S
C807 C35 1.560 . S
C823 C49 1.560 . S
C825 C175 1.560 . S
C841 C63 1.560 . S
C843 C189 1.560 . S
C859 C203 1.560 . S
C861 C77 1.560 . S
C877 C301 1.560 . S
C879 C91 1.560 . S
C895 C315 1.560 . S
C897 C105 1.560 . S
C913 C329 1.560 . S
C915 C119 1.560 . S
C931 C259 1.560 . S
C933 C133 1.560 . S
C949 C147 1.560 . S
C951 C273 1.560 . S
C967 C161 1.560 . S
C969 C287 1.560 . S
C985 C8 1.461 . S
C987 C148 1.461 . S
C1003 C162 1.461 . S
C1005 C22 1.461 . S
C1021 C92 1.461 . S
C1023 C36 1.461 . S
C1039 C50 1.461 . S
C1041 C106 1.461 . S
C1057 C64 1.461 . S
C1059 C120 1.461 . S
C1075 C78 1.461 . S
C1077 C134 1.461 . S
C1093 C176 1.461 . S
C1095 C316 1.461 . S
C1111 C190 1.461 . S
C1113 C330 1.461 . S
C1129 C204 1.461 . S
C1131 C260 1.461 . S
C1147 C274 1.461 . S
C1149 C218 1.461 . S
C1165 C232 1.461 . S
C1167 C288 1.461 . S
C1183 C246 1.461 . S
C1185 C302 1.461 . S
