# Generated by pormake.
# Topology wme, (6)-cn, num edge types: 1
# Building blocks:
#     Node 0, Type 0, BuildingBlock: BETDAH_clean_sbu_0, # of connection points: 6
#     Node 1, Type 0, BuildingBlock: BETDAH_clean_sbu_0, # of connection points: 6
#     Node 2, Type 0, BuildingBlock: BETDAH_clean_sbu_0, # of connection points: 6
#     Node 3, Type 0, BuildingBlock: BETDAH_clean_sbu_0, # of connection points: 6
#     Node 4, Type 0, BuildingBlock: BETDAH_clean_sbu_0, # of connection points: 6
#     Node 5, Type 0, BuildingBlock: BETDAH_clean_sbu_0, # of connection points: 6
#     Node 6, Type 0, BuildingBlock: BETDAH_clean_sbu_0, # of connection points: 6
#     Node 7, Type 0, BuildingBlock: BETDAH_clean_sbu_0, # of connection points: 6
#     Node 8, Type 0, BuildingBlock: BETDAH_clean_sbu_0, # of connection points: 6
#     Node 9, Type 0, BuildingBlock: BETDAH_clean_sbu_0, # of connection points: 6
#     Node 10, Type 0, BuildingBlock: BETDAH_clean_sbu_0, # of connection points: 6
#     Node 11, Type 0, BuildingBlock: BETDAH_clean_sbu_0, # of connection points: 6
#     Edge 12, Type (0, 0), BuildingBlock: EZIPEK_clean_linker_0, # of connection points: 2
#     Edge 13, Type (0, 0), BuildingBlock: EZIPEK_clean_linker_0, # of connection points: 2
#     Edge 14, Type (0, 0), BuildingBlock: EZIPEK_clean_linker_0, # of connection points: 2
#     Edge 15, Type (0, 0), BuildingBlock: EZIPEK_clean_linker_0, # of connection points: 2
#     Edge 16, Type (0, 0), BuildingBlock: EZIPEK_clean_linker_0, # of connection points: 2
#     Edge 17, Type (0, 0), BuildingBlock: EZIPEK_clean_linker_0, # of connection points: 2
#     Edge 18, Type (0, 0), BuildingBlock: EZIPEK_clean_linker_0, # of connection points: 2
#     Edge 19, Type (0, 0), BuildingBlock: EZIPEK_clean_linker_0, # of connection points: 2
#     Edge 20, Type (0, 0), BuildingBlock: EZIPEK_clean_linker_0, # of connection points: 2
#     Edge 21, Type (0, 0), BuildingBlock: EZIPEK_clean_linker_0, # of connection points: 2
#     Edge 22, Type (0, 0), BuildingBlock: EZIPEK_clean_linker_0, # of connection points: 2
#     Edge 23, Type (0, 0), BuildingBlock: EZIPEK_clean_linker_0, # of connection points: 2
#     Edge 24, Type (0, 0), BuildingBlock: EZIPEK_clean_linker_0, # of connection points: 2
#     Edge 25, Type (0, 0), BuildingBlock: EZIPEK_clean_linker_0, # of connection points: 2
#     Edge 26, Type (0, 0), BuildingBlock: EZIPEK_clean_linker_0, # of connection points: 2
#     Edge 27, Type (0, 0), BuildingBlock: EZIPEK_clean_linker_0, # of connection points: 2
#     Edge 28, Type (0, 0), BuildingBlock: EZIPEK_clean_linker_0, # of connection points: 2
#     Edge 29, Type (0, 0), BuildingBlock: EZIPEK_clean_linker_0, # of connection points: 2
#     Edge 30, Type (0, 0), BuildingBlock: EZIPEK_clean_linker_0, # of connection points: 2
#     Edge 31, Type (0, 0), BuildingBlock: EZIPEK_clean_linker_0, # of connection points: 2
#     Edge 32, Type (0, 0), BuildingBlock: EZIPEK_clean_linker_0, # of connection points: 2
#     Edge 33, Type (0, 0), BuildingBlock: EZIPEK_clean_linker_0, # of connection points: 2
#     Edge 34, Type (0, 0), BuildingBlock: EZIPEK_clean_linker_0, # of connection points: 2
#     Edge 35, Type (0, 0), BuildingBlock: EZIPEK_clean_linker_0, # of connection points: 2
#     Edge 36, Type (0, 0), BuildingBlock: EZIPEK_clean_linker_0, # of connection points: 2
#     Edge 37, Type (0, 0), BuildingBlock: EZIPEK_clean_linker_0, # of connection points: 2
#     Edge 38, Type (0, 0), BuildingBlock: EZIPEK_clean_linker_0, # of connection points: 2
#     Edge 39, Type (0, 0), BuildingBlock: EZIPEK_clean_linker_0, # of connection points: 2
#     Edge 40, Type (0, 0), BuildingBlock: EZIPEK_clean_linker_0, # of connection points: 2
#     Edge 41, Type (0, 0), BuildingBlock: EZIPEK_clean_linker_0, # of connection points: 2
#     Edge 42, Type (0, 0), BuildingBlock: EZIPEK_clean_linker_0, # of connection points: 2
#     Edge 43, Type (0, 0), BuildingBlock: EZIPEK_clean_linker_0, # of connection points: 2
#     Edge 44, Type (0, 0), BuildingBlock: EZIPEK_clean_linker_0, # of connection points: 2
#     Edge 45, Type (0, 0), BuildingBlock: EZIPEK_clean_linker_0, # of connection points: 2
#     Edge 46, Type (0, 0), BuildingBlock: EZIPEK_clean_linker_0, # of connection points: 2
#     Edge 47, Type (0, 0), BuildingBlock: EZIPEK_clean_linker_0, # of connection points: 2
# Relax obj value: 0.113
# Max RMSD: 0.231
# Mean RMSD: 0.231
data_MOF--net-wme--node1-BETDAH_clean_sbu_0--edge1-EZIPEK_clean_linker_0
_symmetry_space_group_name_H-M    P1
_symmetry_Int_Tables_number       1
_symmetry_cell_setting            triclinic
loop_
_symmetry_equiv_pos_as_xyz
'x, y, z'
_cell_length_a     32.189984
_cell_length_b     32.18829
_cell_length_c     37.159789
_cell_angle_alpha  89.922923
_cell_angle_beta   90.293438
_cell_angle_gamma 119.70879
loop_
_atom_site_label
_atom_site_type_symbol
_atom_site_fract_x
_atom_site_fract_y
_atom_site_fract_z
_atom_type_partial_charge
Ho0 Ho 0.22704 0.37415 0.09722 0.0
Ho1 Ho 0.27396 0.32209 0.12993 0.0
C2 C 0.33825 0.43515 0.11948 0.0
C3 C 0.19104 0.42863 0.07953 0.0
C4 C 0.18803 0.47259 0.0871 0.0
C5 C 0.20533 0.49918 0.11893 0.0
C6 C 0.19909 0.53896 0.12558 0.0
C7 C 0.17779 0.55557 0.09971 0.0
C8 C 0.15542 0.52414 0.0702 0.0
C9 C 0.1618 0.48477 0.06345 0.0
C10 C 0.2571 0.32777 0.04983 0.0
C11 C 0.15709 0.26556 0.11426 0.0
C12 C 0.3004 0.25866 0.13995 0.0
C13 C 0.27542 0.20573 0.13766 0.0
C14 C 0.2334 0.18041 0.11704 0.0
C15 C 0.21074 0.1305 0.11408 0.0
C16 C 0.22968 0.10494 0.13171 0.0
C17 C 0.27128 0.13007 0.15275 0.0
C18 C 0.29397 0.18007 0.15568 0.0
C19 C 0.2499 0.36754 0.18019 0.0
O20 O 0.29691 0.43463 0.11803 0.0
O21 O 0.33982 0.39462 0.12044 0.0
O22 O 0.22996 0.43269 0.06529 0.0
O23 O 0.17234 0.39417 0.10309 0.0
O24 O 0.21824 0.33015 0.04569 0.0
O25 O 0.27818 0.35217 0.07708 0.0
O26 O 0.19654 0.2627 0.11908 0.0
O27 O 0.15952 0.30688 0.10828 0.0
O28 O 0.30563 0.28123 0.10957 0.0
O29 O 0.28762 0.27697 0.1661 0.0
O30 O 0.28842 0.36395 0.18094 0.0
O31 O 0.22519 0.34545 0.15254 0.0
H32 H 0.22259 0.48851 0.13912 0.0
H33 H 0.20973 0.55487 0.15189 0.0
H34 H 0.13149 0.52851 0.05218 0.0
H35 H 0.14486 0.46283 0.03993 0.0
H36 H 0.21835 0.19919 0.10289 0.0
H37 H 0.17871 0.11184 0.09773 0.0
H38 H 0.28647 0.11098 0.16656 0.0
H39 H 0.32626 0.19874 0.17175 0.0
Ho40 Ho 0.87297 0.22592 0.60581 0.0
Ho41 Ho 0.97084 0.26003 0.63876 0.0
C42 C 0.92901 0.3342 0.63629 0.0
C43 C 0.78391 0.19658 0.58797 0.0
C44 C 0.73454 0.18197 0.60091 0.0
C45 C 0.72388 0.21232 0.62136 0.0
C46 C 0.676 0.19934 0.62882 0.0
C47 C 0.63778 0.15594 0.61585 0.0
C48 C 0.6486 0.12503 0.59659 0.0
C49 C 0.69627 0.13782 0.58933 0.0
C50 C 0.94914 0.25638 0.55691 0.0
C51 C 0.90265 0.14818 0.62302 0.0
C52 C 0.06186 0.29119 0.64515 0.0
C53 C 0.0937 0.27087 0.65073 0.0
C54 C 0.13857 0.29344 0.63395 0.0
C55 C 0.1664 0.27117 0.63245 0.0
C56 C 0.15001 0.2259 0.64786 0.0
C57 C 0.10573 0.20377 0.66571 0.0
C58 C 0.07748 0.22588 0.6668 0.0
C59 C 0.89966 0.2158 0.68797 0.0
O60 O 0.88825 0.29833 0.62415 0.0
O61 O 0.96681 0.32895 0.64382 0.0
O62 O 0.81715 0.24161 0.58905 0.0
O63 O 0.80087 0.16809 0.59505 0.0
O64 O 0.90568 0.22223 0.55147 0.0
O65 O 0.94729 0.27273 0.58702 0.0
O66 O 0.94726 0.1838 0.62093 0.0
O67 O 0.86707 0.15708 0.62458 0.0
O68 O 0.03559 0.29162 0.67191 0.0
O69 O 0.03805 0.27763 0.61496 0.0
O70 O 0.93947 0.21475 0.68751 0.0
O71 O 0.90029 0.24242 0.6625 0.0
H72 H 0.75234 0.24668 0.63057 0.0
H73 H 0.66868 0.22415 0.64332 0.0
H74 H 0.62001 0.09175 0.58588 0.0
H75 H 0.70316 0.11381 0.5733 0.0
H76 H 0.15133 0.32763 0.6207 0.0
H77 H 0.20049 0.28894 0.61874 0.0
H78 H 0.09255 0.1689 0.67789 0.0
H79 H 0.04247 0.20726 0.6791 0.0
Ho80 Ho 0.67688 0.85821 0.09871 0.0
Ho81 Ho 0.73431 0.95521 0.13218 0.0
C82 C 0.62151 0.91186 0.12534 0.0
C83 C 0.61379 0.77121 0.07912 0.0
C84 C 0.57954 0.72181 0.09184 0.0
C85 C 0.54579 0.71279 0.11909 0.0
C86 C 0.50948 0.6657 0.12659 0.0
C87 C 0.50608 0.62672 0.10697 0.0
C88 C 0.5408 0.63564 0.08073 0.0
C89 C 0.57705 0.68254 0.07332 0.0
C90 C 0.72233 0.93434 0.05104 0.0
C91 C 0.78198 0.88651 0.11933 0.0
C92 C 0.80209 0.04334 0.14035 0.0
C93 C 0.8551 0.06958 0.13713 0.0
C94 C 0.87858 0.05563 0.11206 0.0
C95 C 0.9284 0.08271 0.1077 0.0
C96 C 0.9557 0.12429 0.12827 0.0
C97 C 0.9324 0.13754 0.15388 0.0
C98 C 0.88262 0.11048 0.15824 0.0
C99 C 0.68852 0.88665 0.18286 0.0
O100 O 0.62101 0.87068 0.1241 0.0
O101 O 0.66274 0.95295 0.12488 0.0
O102 O 0.60377 0.80506 0.08568 0.0
O103 O 0.6596 0.78648 0.08153 0.0
O104 O 0.71558 0.89175 0.04532 0.0
O105 O 0.70111 0.93205 0.07974 0.0
O106 O 0.78931 0.93086 0.12162 0.0
O107 O 0.73854 0.84999 0.11559 0.0
O108 O 0.78357 1.01339 0.16713 0.0
O109 O 0.77798 0.02622 0.11047 0.0
O110 O 0.69535 0.93004 0.18431 0.0
O111 O 0.70771 0.88202 0.15425 0.0
H112 H 0.54645 0.74217 0.13376 0.0
H113 H 0.48294 0.65984 0.14674 0.0
H114 H 0.53878 0.60636 0.06502 0.0
H115 H 0.60216 0.6883 0.05197 0.0
H116 H 0.85832 0.02429 0.09536 0.0
H117 H 0.94555 0.07176 0.08781 0.0
H118 H 0.95268 0.16943 0.17004 0.0
H119 H 0.86546 0.12203 0.17768 0.0
Ho120 Ho 0.83729 0.66543 0.60002 0.0
Ho121 Ho 0.79313 0.72611 0.63208 0.0
C122 C 0.72533 0.61025 0.62517 0.0
C123 C 0.87085 0.60793 0.58822 0.0
C124 C 0.87332 0.56544 0.60139 0.0
C125 C 0.88408 0.56111 0.63756 0.0
C126 C 0.89409 0.52493 0.648 0.0
C127 C 0.8935 0.49234 0.62253 0.0
C128 C 0.88136 0.4958 0.58671 0.0
C129 C 0.87141 0.53191 0.57628 0.0
C130 C 0.80879 0.71213 0.55205 0.0
C131 C 0.90953 0.77569 0.61716 0.0
C132 C 0.76559 0.78918 0.62759 0.0
C133 C 0.78938 0.84219 0.62781 0.0
C134 C 0.77556 0.86517 0.60214 0.0
C135 C 0.79823 0.9152 0.60065 0.0
C136 C 0.83532 0.94332 0.62479 0.0
C137 C 0.84986 0.92047 0.65013 0.0
C138 C 0.82723 0.87031 0.65154 0.0
C139 C 0.82762 0.69661 0.68771 0.0
O140 O 0.76447 0.6077 0.6183 0.0
O141 O 0.72632 0.65198 0.62994 0.0
O142 O 0.83113 0.60196 0.57351 0.0
O143 O 0.89247 0.64686 0.60768 0.0
O144 O 0.84389 0.70396 0.54619 0.0
O145 O 0.78928 0.69134 0.58092 0.0
O146 O 0.87223 0.78161 0.62412 0.0
O147 O 0.90483 0.73387 0.6088 0.0
O148 O 0.76411 0.76699 0.65763 0.0
O149 O 0.77552 0.77103 0.59979 0.0
O150 O 0.80536 0.72082 0.69131 0.0
O151 O 0.82883 0.68819 0.65427 0.0
H152 H 0.88629 0.58659 0.65756 0.0
H153 H 0.90344 0.52306 0.67576 0.0
H154 H 0.88076 0.4712 0.56657 0.0
H155 H 0.86391 0.53471 0.5482 0.0
H156 H 0.74705 0.84431 0.58315 0.0
H157 H 0.78631 0.932 0.58103 0.0
H158 H 0.87828 0.9415 0.6691 0.0
H159 H 0.83926 0.85359 0.67115 0.0
Ho160 Ho 0.19673 0.82612 0.10479 0.0
Ho161 Ho 0.09753 0.78744 0.13232 0.0
C162 C 0.14419 0.71726 0.1239 0.0
C163 C 0.28828 0.87057 0.09097 0.0
C164 C 0.33473 0.87345 0.10091 0.0
C165 C 0.35972 0.89603 0.13262 0.0
C166 C 0.40519 0.90157 0.14 0.0
C167 C 0.42656 0.88235 0.11695 0.0
C168 C 0.403 0.86487 0.08335 0.0
C169 C 0.35778 0.85934 0.07596 0.0
C170 C 0.12433 0.794 0.0527 0.0
C171 C 0.16009 0.90118 0.12106 0.0
C172 C 1.00607 0.75186 0.13687 0.0
C173 C 0.97578 0.77483 0.13522 0.0
C174 C 0.94514 0.76625 0.10559 0.0
C175 C 0.91732 0.78861 0.10315 0.0
C176 C 0.91954 0.81992 0.13033 0.0
C177 C 0.95041 0.829 0.15975 0.0
C178 C 0.97833 0.80678 0.16217 0.0
C179 C 0.16328 0.82489 0.18601 0.0
O180 O 0.1862 0.75644 0.12462 0.0
O181 O 0.10406 0.71982 0.1235 0.0
O182 O 0.25665 0.83288 0.07331 0.0
O183 O 0.26829 0.8853 0.11436 0.0
O184 O 0.16175 0.7889 0.05156 0.0
O185 O 0.12936 0.81784 0.08081 0.0
O186 O 0.11613 0.86456 0.12419 0.0
O187 O 0.19689 0.89478 0.11551 0.0
O188 O 1.02755 0.75233 0.10698 0.0
O189 O 1.03385 0.76099 0.16505 0.0
O190 O 0.1232 0.82505 0.18466 0.0
O191 O 0.16547 0.80054 0.15962 0.0
H192 H 0.34484 0.91081 0.15141 0.0
H193 H 0.42333 0.92287 0.16323 0.0
H194 H 0.41956 0.85607 0.0617 0.0
H195 H 0.34136 0.84508 0.05002 0.0
H196 H 0.94268 0.74219 0.08427 0.0
H197 H 0.89352 0.78095 0.08034 0.0
H198 H 0.9524 0.85284 0.18108 0.0
H199 H 1.00182 0.81466 0.18521 0.0
Ho200 Ho 0.38953 0.1837 0.60304 0.0
Ho201 Ho 0.32771 0.08556 0.63357 0.0
C202 C 0.44403 0.12887 0.62407 0.0
C203 C 0.44061 0.27453 0.58579 0.0
C204 C 0.4826 0.32211 0.59657 0.0
C205 C 0.48115 0.34825 0.62657 0.0
C206 C 0.5189 0.39497 0.6338 0.0
C207 C 0.55895 0.41719 0.61103 0.0
C208 C 0.56063 0.39107 0.58129 0.0
C209 C 0.52311 0.34434 0.57419 0.0
C210 C 0.34354 0.10886 0.55342 0.0
C211 C 0.28244 0.15438 0.62739 0.0
C212 C 0.26809 0.99462 0.63982 0.0
C213 C 0.21504 0.96603 0.63621 0.0
C214 C 0.18968 0.9819 0.61445 0.0
C215 C 0.13962 0.95472 0.61123 0.0
C216 C 0.11378 0.91106 0.62966 0.0
C217 C 0.13908 0.8955 0.65168 0.0
C218 C 0.18914 0.92271 0.65493 0.0
C219 C 0.36397 0.15322 0.68599 0.0
O220 O 0.4475 0.17135 0.6237 0.0
O221 O 0.40099 0.08925 0.62502 0.0
O222 O 0.44888 0.24121 0.57377 0.0
O223 O 0.40162 0.25656 0.60498 0.0
O224 O 0.38602 0.14515 0.54975 0.0
O225 O 0.32715 0.11636 0.5818 0.0
O226 O 0.2726 0.1093 0.6275 0.0
O227 O 0.32636 0.18976 0.62211 0.0
O228 O 0.28467 0.02372 0.66732 0.0
O229 O 0.29191 1.01435 0.61038 0.0
O230 O 0.3226 0.11459 0.68656 0.0
O231 O 0.38675 0.15306 0.65802 0.0
H232 H 0.45039 0.33306 0.64411 0.0
H233 H 0.51645 0.41414 0.65688 0.0
H234 H 0.59088 0.40714 0.56321 0.0
H235 H 0.52532 0.32592 0.55053 0.0
H236 H 0.20861 1.01525 0.5998 0.0
H237 H 0.12104 0.96751 0.59408 0.0
H238 H 0.12006 0.86201 0.66613 0.0
H239 H 0.20769 0.90977 0.67198 0.0
Ho240 Ho 0.67636 0.8234 0.40458 0.0
Ho241 Ho 0.7305 0.77617 0.37389 0.0
C242 C 0.61694 0.71185 0.38288 0.0
C243 C 0.61965 0.8579 0.41862 0.0
C244 C 0.57617 0.861 0.40815 0.0
C245 C 0.57124 0.87715 0.37391 0.0
C246 C 0.53387 0.88694 0.36666 0.0
C247 C 0.50054 0.88096 0.39344 0.0
C248 C 0.50481 0.86379 0.4273 0.0
C249 C 0.54206 0.85399 0.43453 0.0
C250 C 0.72124 0.79374 0.45398 0.0
C251 C 0.78513 0.89384 0.38511 0.0
C252 C 0.7967 0.75269 0.37009 0.0
C253 C 0.84982 0.77956 0.37414 0.0
C254 C 0.87216 0.81163 0.40295 0.0
C255 C 0.92202 0.83502 0.4075 0.0
C256 C 0.95071 0.82677 0.38345 0.0
C257 C 0.92862 0.79552 0.35428 0.0
C258 C 0.87871 0.77217 0.34969 0.0
C259 C 0.6866 0.79985 0.32192 0.0
O260 O 0.61738 0.75319 0.38308 0.0
O261 O 0.65753 0.71024 0.38263 0.0
O262 O 0.61471 0.81863 0.43313 0.0
O263 O 0.65702 0.87845 0.39776 0.0
O264 O 0.71681 0.83148 0.45798 0.0
O265 O 0.69891 0.77335 0.42579 0.0
O266 O 0.78856 0.85501 0.37887 0.0
O267 O 0.74443 0.89082 0.39469 0.0
O268 O 0.77841 0.76179 0.34164 0.0
O269 O 0.77207 0.74815 0.39915 0.0
O270 O 0.69166 0.76206 0.3213 0.0
O271 O 0.70669 0.82407 0.35026 0.0
H272 H 0.597 0.8835 0.35297 0.0
H273 H 0.53152 0.90011 0.34033 0.0
H274 H 0.47974 0.85884 0.44845 0.0
H275 H 0.54513 0.84236 0.4613 0.0
H276 H 0.85103 0.81813 0.42234 0.0
H277 H 0.93817 0.85892 0.43019 0.0
H278 H 0.94999 0.78857 0.3354 0.0
H279 H 0.86258 0.74772 0.3273 0.0
Ho280 Ho 0.87519 0.66316 0.90873 0.0
Ho281 Ho 0.97315 0.72026 0.87908 0.0
C282 C 0.92785 0.6071 0.88307 0.0
C283 C 0.78602 0.60305 0.92526 0.0
C284 C 0.73925 0.56241 0.91252 0.0
C285 C 0.71515 0.5661 0.88191 0.0
C286 C 0.66836 0.52974 0.87339 0.0
C287 C 0.64439 0.48911 0.89545 0.0
C288 C 0.66872 0.48499 0.92554 0.0
C289 C 0.71549 0.52111 0.93393 0.0
C290 C 0.94965 0.70479 0.95886 0.0
C291 C 0.90832 0.77132 0.89597 0.0
C292 C 0.06233 0.78612 0.87375 0.0
C293 C 0.09001 0.83938 0.87575 0.0
C294 C 0.1196 0.86185 0.90578 0.0
C295 C 0.14742 0.91182 0.90772 0.0
C296 C 0.14646 0.94048 0.87959 0.0
C297 C 0.1164 0.91833 0.84981 0.0
C298 C 0.08843 0.8683 0.84788 0.0
C299 C 0.90758 0.68082 0.82527 0.0
O300 O 0.88676 0.60691 0.88217 0.0
O301 O 0.96884 0.64804 0.88612 0.0
O302 O 0.82138 0.59525 0.93208 0.0
O303 O 0.80083 0.64513 0.9111 0.0
O304 O 0.90814 0.70161 0.96284 0.0
O305 O 0.9476 0.68403 0.92991 0.0
O306 O 0.9518 0.7769 0.89206 0.0
O307 O 0.87071 0.7287 0.89917 0.0
O308 O 0.03438 0.76624 0.84591 0.0
O309 O 0.04272 0.76387 0.90368 0.0
O310 O 0.94952 0.68405 0.82573 0.0
O311 O 0.90167 0.69809 0.85453 0.0
H312 H 0.7319 0.59761 0.86505 0.0
H313 H 0.65044 0.53381 0.85003 0.0
H314 H 0.65112 0.45408 0.94297 0.0
H315 H 0.73263 0.5174 0.95792 0.0
H316 H 0.12172 0.84067 0.92766 0.0
H317 H 0.1705 0.92811 0.93083 0.0
H318 H 0.1153 0.9398 0.82775 0.0
H319 H 0.06609 0.85236 0.82437 0.0
Ho320 Ho 0.22815 0.85932 0.41196 0.0
Ho321 Ho 0.26663 0.95877 0.38051 0.0
C322 C 0.33783 0.91338 0.38427 0.0
C323 C 0.1949 0.76861 0.42625 0.0
C324 C 0.1846 0.72103 0.41123 0.0
C325 C 0.21943 0.7066 0.41077 0.0
C326 C 0.20711 0.65939 0.40132 0.0
C327 C 0.15964 0.62528 0.39235 0.0
C328 C 0.12512 0.63988 0.39194 0.0
C329 C 0.13739 0.68696 0.40125 0.0
C330 C 0.25515 0.93414 0.46099 0.0
C331 C 0.15458 0.89504 0.39658 0.0
C332 C 0.29989 0.05019 0.37543 0.0
C333 C 0.27805 0.08176 0.37526 0.0
C334 C 0.28421 0.11073 0.40547 0.0
C335 C 0.26363 0.14022 0.4066 0.0
C336 C 0.23652 0.14178 0.37747 0.0
C337 C 0.23003 0.11283 0.34724 0.0
C338 C 0.2505 0.08305 0.34614 0.0
C339 C 0.22021 0.88793 0.33032 0.0
O340 O 0.30088 0.87302 0.39563 0.0
O341 O 0.33416 0.95204 0.37651 0.0
O342 O 0.23902 0.80185 0.433 0.0
O343 O 0.16906 0.78664 0.41414 0.0
O344 O 0.22021 0.89096 0.466 0.0
O345 O 0.27474 0.93287 0.43236 0.0
O346 O 0.19176 0.93877 0.39933 0.0
O347 O 0.16103 0.85793 0.39422 0.0
O348 O 0.2936 0.02287 0.3474 0.0
O349 O 0.29611 0.02806 0.40578 0.0
O350 O 0.22038 0.9283 0.3315 0.0
O351 O 0.24677 0.88779 0.35574 0.0
H352 H 0.25595 0.73135 0.41872 0.0
H353 H 0.23441 0.64906 0.40207 0.0
H354 H 0.08826 0.61438 0.38539 0.0
H355 H 0.10932 0.69624 0.40182 0.0
H356 H 0.3051 0.11059 0.42839 0.0
H357 H 0.26937 0.16235 0.4301 0.0
H358 H 0.20945 0.11363 0.32436 0.0
H359 H 0.24477 0.06116 0.32251 0.0
Ho360 Ho 0.39464 0.21639 0.90997 0.0
Ho361 Ho 0.3359 0.25764 0.87705 0.0
C362 C 0.45111 0.32754 0.88372 0.0
C363 C 0.45234 0.18419 0.92747 0.0
C364 C 0.4945 0.17937 0.91651 0.0
C365 C 0.49626 0.15966 0.88305 0.0
C366 C 0.53282 0.14902 0.8755 0.0
C367 C 0.56853 0.15772 0.90119 0.0
C368 C 0.56737 0.17829 0.93428 0.0
C369 C 0.53085 0.18892 0.94182 0.0
C370 C 0.34335 0.24035 0.95765 0.0
C371 C 0.28632 0.14385 0.88932 0.0
C372 C 0.27796 0.2914 0.87189 0.0
C373 C 0.22483 0.26718 0.87322 0.0
C374 C 0.19887 0.22636 0.89485 0.0
C375 C 0.14909 0.20502 0.89798 0.0
C376 C 0.12408 0.22397 0.87954 0.0
C377 C 0.14972 0.26419 0.85739 0.0
C378 C 0.19969 0.28565 0.85429 0.0
C379 C 0.36405 0.21454 0.82717 0.0
O380 O 0.45386 0.29002 0.89538 0.0
O381 O 0.40958 0.3246 0.87447 0.0
O382 O 0.45887 0.22585 0.93793 0.0
O383 O 0.41266 0.16001 0.90919 0.0
O384 O 0.3511 0.20479 0.96217 0.0
O385 O 0.36599 0.26165 0.93004 0.0
O386 O 0.27971 0.18128 0.89087 0.0
O387 O 0.32989 0.14989 0.89027 0.0
O388 O 0.29734 0.2834 0.84372 0.0
O389 O 0.29861 0.29015 0.90192 0.0
O390 O 0.32413 0.21536 0.82659 0.0
O391 O 0.38882 0.23904 0.85395 0.0
H392 H 0.46873 0.15129 0.86301 0.0
H393 H 0.53282 0.13323 0.84978 0.0
H394 H 0.59438 0.18541 0.95456 0.0
H395 H 0.53023 0.20337 0.968 0.0
H396 H 0.21718 0.21137 0.90993 0.0
H397 H 0.13011 0.17404 0.91516 0.0
H398 H 0.1311 0.27935 0.8429 0.0
H399 H 0.21875 0.31706 0.83754 0.0
Ho400 Ho 0.18822 0.38392 0.40334 0.0
Ho401 Ho 0.09644 0.32077 0.36751 0.0
C402 C 0.12773 0.43211 0.3743 0.0
C403 C 0.27309 0.45276 0.42223 0.0
C404 C 0.32447 0.48119 0.41107 0.0
C405 C 0.33835 0.50947 0.37962 0.0
C406 C 0.38683 0.54256 0.37301 0.0
C407 C 0.42267 0.54825 0.39761 0.0
C408 C 0.40908 0.51844 0.42809 0.0
C409 C 0.36066 0.48548 0.43475 0.0
C410 C 0.11022 0.33906 0.45038 0.0
C411 C 0.17051 0.2814 0.38616 0.0
C412 C 1.01304 0.24683 0.35303 0.0
C413 C 0.98897 0.19362 0.35623 0.0
C414 C 0.97513 0.17121 0.39015 0.0
C415 C 0.9469 0.1214 0.39295 0.0
C416 C 0.93191 0.0926 0.36201 0.0
C417 C 0.94756 0.11451 0.32819 0.0
C418 C 0.97551 0.16452 0.32532 0.0
C419 C 0.16601 0.36962 0.31875 0.0
O420 O 0.17053 0.43807 0.38089 0.0
O421 O 0.08997 0.38842 0.37077 0.0
O422 O 0.24179 0.45894 0.40408 0.0
O423 O 0.25581 0.40832 0.43239 0.0
O424 O 0.15311 0.34662 0.45654 0.0
O425 O 0.11207 0.35689 0.41991 0.0
O426 O 0.12513 0.27069 0.38376 0.0
O427 O 0.20436 0.32632 0.38879 0.0
O428 O 0.04618 0.2683 0.32879 0.0
O429 O 1.02446 0.27058 0.38304 0.0
O430 O 0.12217 0.36093 0.31611 0.0
O431 O 0.17112 0.35178 0.34804 0.0
H432 H 0.31164 0.50753 0.3608 0.0
H433 H 0.39616 0.56522 0.34944 0.0
H434 H 0.43583 0.52225 0.44764 0.0
H435 H 0.35133 0.4648 0.45937 0.0
H436 H 0.98468 0.19217 0.41466 0.0
H437 H 0.93528 0.10543 0.41929 0.0
H438 H 0.93637 0.09303 0.30391 0.0
H439 H 0.98527 0.18052 0.29884 0.0
Ho440 Ho 0.84123 0.18452 0.91176 0.0
Ho441 Ho 0.80642 0.08563 0.88033 0.0
C442 C 0.73199 0.12764 0.88831 0.0
C443 C 0.88234 0.27573 0.92653 0.0
C444 C 0.8887 0.32241 0.91337 0.0
C445 C 0.93529 0.36106 0.90848 0.0
C446 C 0.9431 0.40704 0.90045 0.0
C447 C 0.90447 0.41554 0.89709 0.0
C448 C 0.85772 0.37667 0.90074 0.0
C449 C 0.84988 0.33061 0.90881 0.0
C450 C 0.81009 0.11022 0.96091 0.0
C451 C 0.91949 0.15254 0.89315 0.0
C452 C 0.77436 0.99476 0.87293 0.0
C453 C 0.79786 0.9654 0.87728 0.0
C454 C 0.83826 0.98074 0.89969 0.0
C455 C 0.86068 0.95309 0.90339 0.0
C456 C 0.84324 0.9097 0.88461 0.0
C457 C 0.80322 0.89463 0.86194 0.0
C458 C 0.78073 0.92225 0.85831 0.0
C459 C 0.84143 0.15521 0.82958 0.0
O460 O 0.76991 0.17047 0.89203 0.0
O461 O 0.73658 0.0887 0.8856 0.0
O462 O 0.84062 0.24389 0.93903 0.0
O463 O 0.90271 0.25617 0.90825 0.0
O464 O 0.8075 0.14874 0.96549 0.0
O465 O 0.83392 0.11659 0.93271 0.0
O466 O 0.88418 0.10777 0.89046 0.0
O467 O 0.91111 0.1882 0.89852 0.0
O468 O 0.78911 0.02467 0.84594 0.0
O469 O 0.76896 1.01397 0.90231 0.0
O470 O 0.8432 0.11592 0.82846 0.0
O471 O 0.81664 0.1541 0.85658 0.0
H472 H 0.96593 0.35603 0.91209 0.0
H473 H 0.97943 0.43636 0.89809 0.0
H474 H 0.82734 0.38234 0.89852 0.0
H475 H 0.81354 0.30181 0.91249 0.0
H476 H 0.85243 1.01407 0.91439 0.0
H477 H 0.8914 0.96531 0.92108 0.0
H478 H 0.78913 0.86122 0.8473 0.0
H479 H 0.74988 0.90986 0.84072 0.0
C480 C 0.19246 0.98163 0.09192 0.0
C481 C 0.16971 0.95161 0.12195 0.0
C482 C 0.17818 1.02131 0.1556 0.0
C483 C 0.2067 0.05188 0.12748 0.0
N484 N 0.24436 0.06202 0.06974 0.0
N485 N 0.14376 0.94324 0.18366 0.0
C486 C 0.21441 0.03224 0.09571 0.0
C487 C 0.16275 0.97143 0.15402 0.0
N488 N 0.19218 0.96153 0.05946 0.0
N489 N 0.16521 0.03992 0.18359 0.0
H490 H 0.1306 0.90652 0.18336 0.0
H491 H 0.14368 0.9566 0.20915 0.0
H492 H 0.17626 0.07626 0.18575 0.0
H493 H 0.14035 1.01903 0.203 0.0
H494 H 0.20356 0.98084 0.03558 0.0
H495 H 0.17631 0.92466 0.05569 0.0
H496 H 0.25597 0.05021 0.04796 0.0
H497 H 0.26062 0.09919 0.07124 0.0
C498 C 0.24939 0.19603 0.66535 0.0
C499 C 0.24407 0.16663 0.63516 0.0
C500 C 0.17069 0.16799 0.61786 0.0
C501 C 0.17999 0.20241 0.64524 0.0
N502 N 0.22947 0.25149 0.69404 0.0
N503 N 0.20039 0.12539 0.58176 0.0
C504 C 0.21966 0.21695 0.66874 0.0
C505 C 0.20446 0.15223 0.61143 0.0
N506 N 0.2815 0.20208 0.6918 0.0
N507 N 0.12952 0.15045 0.59799 0.0
H508 H 0.22341 0.11208 0.57684 0.0
H509 H 0.17602 0.11843 0.56097 0.0
H510 H 0.1051 0.16258 0.60092 0.0
H511 H 0.11774 0.12165 0.58037 0.0
H512 H 0.28421 0.21908 0.71622 0.0
H513 H 0.302 0.18539 0.69092 0.0
H514 H 0.26127 0.26833 0.70872 0.0
H515 H 0.20697 0.26554 0.69896 0.0
C516 C 0.04175 0.15511 0.14729 0.0
C517 C 1.00845 0.15529 0.12217 0.0
C518 C 0.07527 0.21616 0.08668 0.0
C519 C 0.10797 0.22195 0.11475 0.0
N520 N 0.12173 0.19657 0.17268 0.0
N521 N 0.99307 0.18861 0.06897 0.0
C522 C 0.09119 0.19079 0.14507 0.0
C523 C 1.02514 0.18621 0.09194 0.0
N524 N 1.02613 0.12018 0.17296 0.0
N525 N 0.09235 0.23845 0.05442 0.0
H526 H 0.95613 0.16703 0.07153 0.0
H527 H 1.00286 0.21452 0.04903 0.0
H528 H 0.12876 0.25965 0.04929 0.0
H529 H 0.07098 0.23187 0.03164 0.0
H530 H 0.04896 0.11465 0.18972 0.0
H531 H 0.99028 0.09389 0.17544 0.0
H532 H 0.11051 0.18008 0.19763 0.0
H533 H 0.15835 0.21964 0.17137 0.0
C534 C 0.8888 0.02569 0.59835 0.0
C535 C 0.85612 0.99649 0.62532 0.0
C536 C 0.86369 0.06823 0.65445 0.0
C537 C 0.89126 0.09698 0.62511 0.0
N538 N 0.92567 0.10171 0.56668 0.0
N539 N 0.80625 0.98933 0.67582 0.0
C540 C 0.90306 0.07543 0.59649 0.0
C541 C 0.8419 1.01762 0.65249 0.0
N542 N 0.90668 1.00597 0.57484 0.0
N543 N 0.85998 0.08937 0.68511 0.0
H544 H 0.78936 0.95207 0.67556 0.0
H545 H 0.79042 1.00261 0.69332 0.0
H546 H 0.87773 0.12618 0.68833 0.0
H547 H 0.84436 0.07073 0.70869 0.0
H548 H 0.93428 0.02605 0.55695 0.0
H549 H 0.89657 0.96975 0.57527 0.0
H550 H 0.93046 0.08686 0.54328 0.0
H551 H 0.93652 0.13794 0.56421 0.0
C552 C 0.8451 0.81959 0.15066 0.0
C553 C 0.88691 0.84047 0.12929 0.0
C554 C 0.86288 0.89572 0.1029 0.0
C555 C 0.82169 0.87569 0.12522 0.0
N556 N 0.78121 0.82783 0.17722 0.0
N557 N 0.94065 0.90386 0.0901 0.0
C558 C 0.81518 0.84041 0.15117 0.0
C559 C 0.89738 0.88032 0.10696 0.0
N560 N 0.8328 0.77859 0.16951 0.0
N561 N 0.86801 0.92769 0.07669 0.0
H562 H 0.96624 0.89304 0.09211 0.0
H563 H 0.95275 0.9361 0.07651 0.0
H564 H 0.84445 0.94079 0.07353 0.0
H565 H 0.8939 0.93912 0.0567 0.0
H566 H 0.79982 0.75849 0.18201 0.0
H567 H 0.85382 0.76224 0.1702 0.0
H568 H 0.77834 0.80655 0.19926 0.0
H569 H 0.75905 0.8427 0.17893 0.0
C570 C 0.97962 0.84175 0.65175 0.0
C571 C 0.95984 0.81697 0.61885 0.0
C572 C 0.04087 0.85473 0.59279 0.0
C573 C 0.06041 0.88076 0.62517 0.0
N574 N 0.04738 0.90686 0.68259 0.0
N575 N 0.97048 0.8084 0.55566 0.0
C576 C 1.02937 0.87669 0.65373 0.0
C577 C 0.99022 0.82625 0.58864 0.0
N578 N 0.95168 0.83005 0.68176 0.0
N579 N 0.07077 0.85531 0.56653 0.0
H580 H 0.93372 0.7875 0.55155 0.0
H581 H 0.98997 0.81794 0.53185 0.0
H582 H 0.10793 0.87562 0.56835 0.0
H583 H 0.05902 0.83272 0.54423 0.0
H584 H 0.96527 0.84223 0.70747 0.0
H585 H 0.91525 0.80519 0.68161 0.0
H586 H 1.02605 0.9093 0.70251 0.0
H587 H 0.08347 0.93259 0.68497 0.0
C588 C 0.0717 0.85207 0.42234 0.0
C589 C 0.10399 0.88559 0.39709 0.0
C590 C 0.03617 0.88801 0.36789 0.0
C591 C 1.00365 0.84911 0.38957 0.0
N592 N 0.99027 0.7912 0.43582 0.0
N593 N 0.11673 0.93449 0.34448 0.0
C594 C 1.0214 0.83063 0.41659 0.0
C595 C 0.08626 0.90385 0.36976 0.0
N596 N 0.0893 0.84167 0.45247 0.0
N597 N 1.01917 0.91038 0.34594 0.0
H598 H 0.15359 0.9485 0.34559 0.0
H599 H 0.1053 0.94408 0.32125 0.0
H600 H 0.98285 0.89951 0.3438 0.0
H601 H 0.04111 0.94204 0.33227 0.0
H602 H 0.06796 0.82134 0.47375 0.0
H603 H 0.12583 0.8576 0.45794 0.0
H604 H 1.00115 0.77266 0.45287 0.0
H605 H 0.95324 0.77457 0.4327 0.0
C606 C 0.16888 0.02347 0.90189 0.0
C607 C 0.17938 0.99348 0.88029 0.0
C608 C 0.2505 0.06434 0.85749 0.0
C609 C 0.24512 0.09373 0.88347 0.0
N610 N 0.19718 0.10065 0.93042 0.0
N611 N 0.23379 0.98497 0.84066 0.0
C612 C 0.20341 0.07325 0.90544 0.0
C613 C 0.22117 1.01384 0.85895 0.0
N614 N 0.12534 1.00452 0.91832 0.0
N615 N 0.2818 0.08497 0.82982 0.0
H616 H 0.21326 0.94774 0.84072 0.0
H617 H 0.26674 0.99785 0.82802 0.0
H618 H 0.3001 0.12176 0.82599 0.0
H619 H 0.28451 0.06581 0.80825 0.0
H620 H 0.11303 0.02501 0.93121 0.0
H621 H 0.0997 0.96833 0.91657 0.0
H622 H 0.17155 0.0867 0.95061 0.0
H623 H 0.21878 0.1375 0.93185 0.0
C624 C 0.22092 0.25012 0.3575 0.0
C625 C 0.18457 0.24345 0.38244 0.0
C626 C 0.17707 0.16594 0.39973 0.0
C627 C 0.21722 0.17574 0.37811 0.0
N628 N 0.28225 0.23109 0.34076 0.0
N629 N 0.13294 0.19766 0.43131 0.0
C630 C 0.2404 0.21888 0.35815 0.0
C631 C 0.16364 0.20183 0.40447 0.0
N632 N 0.23572 0.2852 0.332 0.0
N633 N 0.15126 0.12194 0.4153 0.0
H634 H 0.12318 0.2235 0.4364 0.0
H635 H 0.12053 0.17077 0.45066 0.0
H636 H 0.16031 0.09513 0.41262 0.0
H637 H 0.1187 0.11061 0.42814 0.0
H638 H 0.25768 0.28802 0.31056 0.0
H639 H 0.22235 0.30862 0.32993 0.0
H640 H 0.30387 0.2647 0.3295 0.0
H641 H 0.29766 0.20923 0.34024 0.0
C642 C 0.03946 0.1718 0.85693 0.0
C643 C 0.0711 0.20219 0.88407 0.0
C644 C 1.002 0.18954 0.92034 0.0
C645 C 0.97071 0.16437 0.89126 0.0
N646 N 0.96027 0.13508 0.83022 0.0
N647 N 0.08317 0.24387 0.94037 0.0
C648 C 0.98953 0.15598 0.85923 0.0
C649 C 0.05251 0.21189 0.91556 0.0
N650 N 0.05708 0.15726 0.82925 0.0
N651 N 0.98327 0.19086 0.95298 0.0
H652 H 0.12028 0.26052 0.9381 0.0
H653 H 0.07201 0.25678 0.96175 0.0
H654 H 0.94656 0.17437 0.95759 0.0
H655 H 1.00372 0.20415 0.97631 0.0
H656 H 0.03549 0.13095 0.81079 0.0
H657 H 0.0934 0.16861 0.82645 0.0
H658 H 0.97275 0.13378 0.80469 0.0
H659 H 0.92354 0.12167 0.83097 0.0
C660 C 0.84877 0.02279 0.35246 0.0
C661 C 0.89624 0.04027 0.36508 0.0
C662 C 0.87257 0.9605 0.39005 0.0
C663 C 0.82558 0.94267 0.37587 0.0
N664 N 0.77513 0.95399 0.33314 0.0
N665 N 0.95597 0.02343 0.38908 0.0
C666 C 0.81561 0.97298 0.3539 0.0
C667 C 0.90896 1.00832 0.38179 0.0
N668 N 0.83433 0.05388 0.3406 0.0
N669 N 0.88211 0.9327 0.41257 0.0
H670 H 0.98328 0.05799 0.38327 0.0
H671 H 0.96832 1.00071 0.39781 0.0
H672 H 0.85691 0.8976 0.41877 0.0
H673 H 0.91392 0.9454 0.42703 0.0
H674 H 0.79871 0.04336 0.33495 0.0
H675 H 0.85685 0.09083 0.33976 0.0
H676 H 0.76873 0.97368 0.31382 0.0
H677 H 0.75066 0.9175 0.33209 0.0
C678 C 0.87457 0.81888 0.92451 0.0
C679 C 0.89981 0.81295 0.89547 0.0
C680 C 0.89623 0.87772 0.86274 0.0
C681 C 0.86561 0.87892 0.8896 0.0
N682 N 0.82229 0.84822 0.94495 0.0
N683 N 0.93014 0.83316 0.83488 0.0
C684 C 0.85426 0.84916 0.92038 0.0
C685 C 0.91006 0.84189 0.86418 0.0
N686 N 0.87056 0.79592 0.95637 0.0
N687 N 0.91243 0.91121 0.83598 0.0
H688 H 0.94061 0.80729 0.83455 0.0
H689 H 0.93312 0.849 0.80986 0.0
H690 H 0.90256 0.9375 0.83395 0.0
H691 H 0.93875 0.91558 0.81775 0.0
H692 H 0.85757 0.80283 0.97988 0.0
H693 H 0.88406 0.77278 0.96023 0.0
H694 H 0.80793 0.8232 0.96559 0.0
H695 H 0.80725 0.87036 0.9433 0.0
C696 C 0.17237 0.6613 0.14565 0.0
C697 C 0.14486 0.67095 0.12052 0.0
C698 C 0.15328 0.61735 0.07765 0.0
C699 C 0.17395 0.60149 0.10469 0.0
N700 N 0.23357 0.63953 0.15121 0.0
N701 N 0.10356 0.65202 0.06343 0.0
C702 C 0.19167 0.63137 0.13577 0.0
C703 C 0.13304 0.64652 0.08705 0.0
N704 N 0.1808 0.68139 0.17911 0.0
N705 N 0.16183 0.61333 0.04225 0.0
H706 H 0.08834 0.6733 0.0689 0.0
H707 H 0.09072 0.63157 0.04003 0.0
H708 H 0.18596 0.60231 0.03441 0.0
H709 H 0.15161 0.62816 0.02141 0.0
H710 H 0.19711 0.67232 0.19959 0.0
H711 H 0.1671 0.70327 0.18719 0.0
H712 H 0.25025 0.66376 0.17219 0.0
H713 H 0.25586 0.62916 0.13853 0.0
C714 C 0.56973 0.16518 0.59094 0.0
C715 C 0.58679 0.14585 0.61775 0.0
C716 C 0.50796 0.11027 0.6479 0.0
C717 C 0.49044 0.12828 0.62027 0.0
N718 N 0.50221 0.16446 0.56153 0.0
N719 N 0.57048 0.09405 0.66881 0.0
C720 C 0.52075 0.15325 0.5907 0.0
C721 C 0.55524 0.11639 0.64527 0.0
N722 N 0.60077 0.19612 0.56595 0.0
N723 N 0.48043 0.08955 0.67754 0.0
H724 H 0.60511 0.09916 0.66838 0.0
H725 H 0.54813 0.06819 0.68712 0.0
H726 H 0.44576 0.0839 0.67998 0.0
H727 H 0.49277 0.0806 0.70058 0.0
H728 H 0.59252 0.21676 0.54892 0.0
H729 H 0.63622 0.20403 0.56377 0.0
H730 H 0.52027 0.17707 0.5373 0.0
H731 H 0.46696 0.15699 0.56019 0.0
C732 C 0.42521 0.56147 0.0858 0.0
C733 C 0.46351 0.57734 0.11087 0.0
C734 C 0.41968 0.50005 0.14282 0.0
C735 C 0.38312 0.48295 0.11605 0.0
N736 N 0.35667 0.49457 0.05785 0.0
N737 N 0.50058 0.5598 0.16054 0.0
C738 C 0.38749 0.51297 0.08641 0.0
C739 C 0.46171 0.54598 0.1386 0.0
N740 N 0.42411 0.5932 0.06183 0.0
N741 N 0.41333 0.47346 0.17309 0.0
H742 H 0.5312 0.59338 0.15871 0.0
H743 H 0.50392 0.53697 0.17871 0.0
H744 H 0.38323 0.44003 0.17711 0.0
H745 H 0.43594 0.48597 0.19541 0.0
H746 H 0.39445 0.58545 0.04585 0.0
H747 H 0.45118 0.62881 0.06007 0.0
H748 H 0.36129 0.51283 0.03373 0.0
H749 H 0.329 0.45923 0.05672 0.0
C750 C 0.95271 0.46229 0.62158 0.0
C751 C 0.90767 0.45581 0.63261 0.0
C752 C 0.88892 0.37853 0.65932 0.0
C753 C 0.92922 0.38062 0.64205 0.0
N754 N 1.00135 0.42626 0.60769 0.0
N755 N 0.83163 0.40672 0.66123 0.0
C756 C 0.96216 0.42338 0.624 0.0
C757 C 0.87568 0.41391 0.65176 0.0
N758 N 0.98684 0.50609 0.60934 0.0
N759 N 0.86366 0.34271 0.68342 0.0
H760 H 0.82079 0.43188 0.65648 0.0
H761 H 0.80461 0.37449 0.67142 0.0
H762 H 0.87362 0.31736 0.69022 0.0
H763 H 0.83639 0.34114 0.69934 0.0
H764 H 1.02206 0.51491 0.60433 0.0
H765 H 0.98109 0.53518 0.60728 0.0
H766 H 1.02254 0.45298 0.58949 0.0
H767 H 1.01216 0.40114 0.61172 0.0
C768 C 0.54017 0.87727 0.09748 0.0
C769 C 0.57336 0.90878 0.12344 0.0
C770 C 0.50603 0.91009 0.15404 0.0
C771 C 0.47473 0.88429 0.12482 0.0
N772 N 0.4587 0.81531 0.08935 0.0
N773 N 0.5876 0.95723 0.17642 0.0
C774 C 0.49063 0.85969 0.10209 0.0
C775 C 0.55633 0.92631 0.1515 0.0
N776 N 0.55573 0.86423 0.06774 0.0
N777 N 0.48702 0.90957 0.18683 0.0
H778 H 0.62393 0.96799 0.17647 0.0
H779 H 0.57795 0.97493 0.19519 0.0
H780 H 0.45118 0.88556 0.19235 0.0
H781 H 0.5075 0.92487 0.20989 0.0
H782 H 0.53269 0.84418 0.04687 0.0
H783 H 0.59186 0.87748 0.06232 0.0
H784 H 0.46914 0.79391 0.07541 0.0
H785 H 0.42293 0.79767 0.0973 0.0
C786 C 0.64144 0.55352 0.60046 0.0
C787 C 0.67866 0.56313 0.62572 0.0
C788 C 0.63674 0.47712 0.64208 0.0
C789 C 0.59888 0.46795 0.61776 0.0
N790 N 0.56061 0.49916 0.57917 0.0
N791 N 0.70642 0.5355 0.67565 0.0
C792 C 0.59986 0.50681 0.59872 0.0
C793 C 0.67457 0.52523 0.64803 0.0
N794 N 0.64695 0.58806 0.57642 0.0
N795 N 0.63748 0.43955 0.65864 0.0
H796 H 0.73417 0.57005 0.6809 0.0
H797 H 0.70292 0.5109 0.6953 0.0
H798 H 0.61005 0.40423 0.65572 0.0
H799 H 0.66665 0.44281 0.67322 0.0
H800 H 0.62433 0.58161 0.55446 0.0
H801 H 0.67624 0.62255 0.57664 0.0
H802 H 0.55659 0.52662 0.56792 0.0
H803 H 0.53012 0.46555 0.57675 0.0
C804 C 0.3844 0.87578 0.35978 0.0
C805 C 0.38426 0.91297 0.38031 0.0
C806 C 0.46527 0.93555 0.40259 0.0
C807 C 0.46186 0.89376 0.38666 0.0
N808 N 0.41609 0.82181 0.35195 0.0
N809 N 0.42416 0.9772 0.42315 0.0
C810 C 0.42103 0.86352 0.36543 0.0
C811 C 0.42493 0.94305 0.40184 0.0
N812 N 0.34972 0.85271 0.33423 0.0
N813 N 0.50752 0.9686 0.41798 0.0
H814 H 0.39631 0.98487 0.42267 0.0
H815 H 0.44972 0.996 0.44292 0.0
H816 H 0.53755 0.96426 0.41905 0.0
H817 H 0.51423 1.00209 0.42672 0.0
H818 H 0.34997 0.82837 0.31593 0.0
H819 H 0.32328 0.86171 0.3289 0.0
H820 H 0.38478 0.79549 0.33989 0.0
H821 H 0.44206 0.81171 0.35524 0.0
C822 C 0.5835 0.41143 0.86559 0.0
C823 C 0.59341 0.45118 0.88786 0.0
C824 C 0.50754 0.41368 0.90277 0.0
C825 C 0.4977 0.37376 0.88063 0.0
N826 N 0.5239 0.34037 0.83404 0.0
N827 N 0.56405 0.49508 0.92151 0.0
C828 C 0.53509 0.37454 0.85989 0.0
C829 C 0.55504 0.45386 0.90439 0.0
N830 N 0.62056 0.40816 0.8508 0.0
N831 N 0.47216 0.41219 0.92383 0.0
H832 H 0.59834 0.52459 0.92391 0.0
H833 H 0.53737 0.50161 0.93082 0.0
H834 H 0.43682 0.38455 0.92249 0.0
H835 H 0.47813 0.4369 0.94405 0.0
H836 H 0.61647 0.37765 0.83792 0.0
H837 H 0.65617 0.43511 0.85333 0.0
H838 H 0.54844 0.34098 0.81562 0.0
H839 H 0.48876 0.31377 0.8287 0.0
C840 C 0.15034 0.55778 0.35129 0.0
C841 C 0.14533 0.57351 0.38593 0.0
C842 C 0.1133 0.49109 0.4088 0.0
C843 C 0.12379 0.47677 0.37545 0.0
N844 N 0.15314 0.49622 0.31496 0.0
N845 N 0.12454 0.556 0.44845 0.0
C846 C 0.14216 0.51005 0.3466 0.0
C847 C 0.12693 0.54018 0.41479 0.0
N848 N 0.16232 0.58839 0.32277 0.0
N849 N 0.09049 0.45756 0.43494 0.0
H850 H 0.13325 0.59121 0.45381 0.0
H851 H 0.11704 0.53536 0.47161 0.0
H852 H 0.08109 0.42184 0.43169 0.0
H853 H 0.07728 0.46393 0.45854 0.0
H854 H 0.16214 0.57827 0.29617 0.0
H855 H 0.16931 0.62355 0.32545 0.0
H856 H 0.17221 0.51967 0.29425 0.0
H857 H 0.14446 0.4609 0.31001 0.0
C858 C 0.64589 0.0974 0.90939 0.0
C859 C 0.68426 0.12584 0.88563 0.0
C860 C 0.64494 0.17283 0.87007 0.0
C861 C 0.60681 0.14476 0.89389 0.0
N862 N 0.56509 0.07315 0.92935 0.0
N863 N 0.7117 0.17986 0.83523 0.0
C864 C 0.6055 0.10475 0.91137 0.0
C865 C 0.68091 0.16015 0.86342 0.0
N866 N 0.64877 0.06488 0.93135 0.0
N867 N 0.64812 0.21304 0.85495 0.0
H868 H 0.73728 0.17014 0.82892 0.0
H869 H 0.70852 0.20162 0.81592 0.0
H870 H 0.62258 0.22351 0.85896 0.0
H871 H 0.67795 0.23806 0.8408 0.0
H872 H 0.62556 0.04802 0.95269 0.0
H873 H 0.67584 0.05627 0.92952 0.0
H874 H 0.55951 0.04061 0.93947 0.0
H875 H 0.53514 0.07748 0.93139 0.0
C876 C 0.50468 0.58789 0.36739 0.0
C877 C 0.47333 0.58896 0.39381 0.0
C878 C 0.53907 0.66548 0.41631 0.0
C879 C 0.56897 0.66732 0.38747 0.0
N880 N 0.57768 0.63258 0.33266 0.0
N881 N 0.45855 0.63379 0.43894 0.0
C882 C 0.55119 0.62894 0.36231 0.0
C883 C 0.49003 0.62915 0.41703 0.0
N884 N 0.49036 0.54724 0.34763 0.0
N885 N 0.55791 0.6976 0.44399 0.0
H886 H 0.42228 0.60843 0.44022 0.0
H887 H 0.46739 0.66492 0.45325 0.0
H888 H 0.59364 0.72437 0.44515 0.0
H889 H 0.5394 0.69471 0.46762 0.0
H890 H 0.51302 0.54207 0.33062 0.0
H891 H 0.45665 0.51703 0.35041 0.0
H892 H 0.56475 0.60847 0.3113 0.0
H893 H 0.61147 0.6619 0.32805 0.0
C894 C 0.93843 0.5395 0.85795 0.0
C895 C 0.92605 0.55983 0.88701 0.0
C896 C 0.90583 0.48831 0.92362 0.0
C897 C 0.91309 0.46577 0.89341 0.0
N898 N 0.9321 0.4678 0.83063 0.0
N899 N 0.89216 0.55088 0.94632 0.0
C900 C 0.92859 0.49096 0.86026 0.0
C901 C 0.9081 0.5334 0.91947 0.0
N902 N 0.95948 0.56659 0.82813 0.0
N903 N 0.89854 0.46742 0.9568 0.0
H904 H 0.89547 0.58471 0.94561 0.0
H905 H 0.87274 0.53062 0.96833 0.0
H906 H 0.89685 0.4346 0.96115 0.0
H907 H 0.89865 0.48455 0.98059 0.0
H908 H 0.97379 0.55596 0.8074 0.0
H909 H 0.96572 0.60147 0.82528 0.0
H910 H 0.93829 0.48201 0.80476 0.0
H911 H 0.92536 0.4326 0.83144 0.0
C912 C 0.18031 0.32561 0.26844 0.0
C913 C 0.19058 0.36974 0.2846 0.0
C914 C 0.23454 0.41211 0.22992 0.0
C915 C 0.22766 0.36834 0.21533 0.0
N916 N 0.20371 0.28528 0.22515 0.0
N917 N 0.23251 0.4557 0.28287 0.0
C918 C 0.20333 0.32567 0.23588 0.0
C919 C 0.21919 0.41326 0.26589 0.0
N920 N 0.14721 0.28321 0.28341 0.0
N921 N 0.25507 0.4524 0.20915 0.0
H922 H 0.2222 0.45746 0.30915 0.0
H923 H 0.25677 0.48892 0.27225 0.0
H924 H 0.26714 0.45268 0.1831 0.0
H925 H 0.25693 0.48445 0.21656 0.0
H926 H 0.13394 0.25041 0.27031 0.0
H927 H 0.13025 0.28082 0.30771 0.0
H928 H 0.19184 0.25507 0.24135 0.0
H929 H 0.21977 0.2833 0.20148 0.0
C930 C 0.90377 0.24061 0.75239 0.0
C931 C 0.87585 0.21118 0.72342 0.0
C932 C 0.81453 0.15823 0.76647 0.0
C933 C 0.84713 0.18186 0.79526 0.0
N934 N 0.92119 0.24753 0.81646 0.0
N935 N 0.80127 0.14734 0.70155 0.0
C936 C 0.89082 0.22438 0.78849 0.0
C937 C 0.82962 0.17208 0.73009 0.0
N938 N 0.94269 0.28409 0.74509 0.0
N939 N 0.76959 0.12199 0.77422 0.0
H940 H 0.8108 0.15901 0.67511 0.0
H941 H 0.76896 0.11555 0.70367 0.0
H942 H 0.75816 0.11165 0.80061 0.0
H943 H 0.74271 0.10429 0.75518 0.0
H944 H 0.96274 0.30925 0.76472 0.0
H945 H 0.95215 0.29683 0.71886 0.0
H946 H 0.95625 0.27512 0.81339 0.0
H947 H 0.91135 0.2376 0.84307 0.0
C948 C 0.73117 0.87804 0.23727 0.0
C949 C 0.68789 0.86246 0.21759 0.0
C950 C 0.64304 0.80995 0.26844 0.0
C951 C 0.68672 0.82292 0.28673 0.0
N952 N 0.77288 0.86077 0.28408 0.0
N953 N 0.60307 0.80939 0.21239 0.0
C954 C 0.73091 0.85462 0.2699 0.0
C955 C 0.6439 0.82714 0.23264 0.0
N956 N 0.77278 0.91597 0.22517 0.0
N957 N 0.60072 0.78192 0.28562 0.0
H958 H 0.60259 0.82155 0.18644 0.0
H959 H 0.57055 0.78033 0.22002 0.0
H960 H 0.59898 0.76833 0.31142 0.0
H961 H 0.56762 0.77491 0.27558 0.0
H962 H 0.80384 0.93294 0.24071 0.0
H963 H 0.77561 0.93271 0.20057 0.0
H964 H 0.8055 0.87886 0.27076 0.0
H965 H 0.77474 0.84409 0.30757 0.0
C966 C 0.89681 0.70502 0.72546 0.0
C967 C 0.8468 0.68236 0.71979 0.0
C968 C 0.8356 0.65373 0.78302 0.0
C969 C 0.88546 0.6826 0.78968 0.0
N970 N 0.96054 0.74767 0.76834 0.0
N971 N 0.7676 0.63734 0.74472 0.0
C972 C 0.91534 0.71137 0.76115 0.0
C973 C 0.81591 0.65725 0.7491 0.0
N974 N 0.92696 0.72088 0.69683 0.0
N975 N 0.80714 0.62227 0.80873 0.0
H976 H 0.75189 0.63672 0.71996 0.0
H977 H 0.74344 0.62359 0.7659 0.0
H978 H 0.82016 0.61964 0.8339 0.0
H979 H 0.77157 0.5965 0.80417 0.0
H980 H 0.96379 0.73482 0.69922 0.0
H981 H 0.91416 0.71417 0.67056 0.0
H982 H 0.98217 0.77216 0.74892 0.0
H983 H 0.97374 0.75755 0.79444 0.0
C984 C 0.16479 0.80142 0.25061 0.0
C985 C 0.18856 0.83343 0.22169 0.0
C986 C 0.24461 0.89227 0.26547 0.0
C987 C 0.21506 0.86441 0.29429 0.0
N988 N 0.14939 0.79047 0.31514 0.0
N989 N 0.25141 0.90977 0.20155 0.0
C990 C 0.17632 0.81791 0.28712 0.0
C991 C 0.2292 0.87862 0.22912 0.0
N992 N 0.13084 0.75537 0.2429 0.0
N993 N 0.28767 0.93177 0.273 0.0
H994 H 0.24195 0.90017 0.17479 0.0
H995 H 0.27721 0.94551 0.20523 0.0
H996 H 0.30011 0.94195 0.2993 0.0
H997 H 0.31296 0.95143 0.25347 0.0
H998 H 0.11426 0.72877 0.26221 0.0
H999 H 0.12209 0.74283 0.21651 0.0
H1000 H 0.11739 0.75846 0.3121 0.0
H1001 H 0.1588 0.80078 0.34187 0.0
C1002 C 0.38931 0.23919 0.76273 0.0
C1003 C 0.38426 0.2089 0.79229 0.0
C1004 C 0.3872 0.15112 0.75061 0.0
C1005 C 0.38567 0.17827 0.72092 0.0
N1006 N 0.40109 0.25411 0.69816 0.0
N1007 N 0.39456 0.14512 0.81549 0.0
C1008 C 0.39245 0.22463 0.72693 0.0
C1009 C 0.38899 0.16796 0.78651 0.0
N1010 N 0.3894 0.28105 0.76902 0.0
N1011 N 0.3849 0.10824 0.74423 0.0
H1012 H 0.39623 0.1576 0.8416 0.0
H1013 H 0.40109 0.11662 0.81374 0.0
H1014 H 0.38675 0.09692 0.71827 0.0
H1015 H 0.38024 0.08361 0.76418 0.0
H1016 H 0.38747 0.30255 0.74893 0.0
H1017 H 0.39067 0.29396 0.79499 0.0
H1018 H 0.40876 0.28944 0.70009 0.0
H1019 H 0.40432 0.24369 0.67227 0.0
C1020 C 0.27528 0.2319 0.99913 0.0
C1021 C 0.32187 0.26062 0.98431 0.0
C1022 C 0.32334 0.33258 0.00972 0.0
C1023 C 0.27725 0.30431 0.02507 0.0
N1024 N 0.20936 0.22645 0.03524 0.0
N1025 N 0.39514 0.33617 0.98615 0.0
C1026 C 0.25316 0.25371 0.01982 0.0
C1027 C 0.3471 0.31038 0.99252 0.0
N1028 N 0.25232 0.18364 0.99356 0.0
N1029 N 0.34381 0.38126 0.00998 0.0
H1030 H 0.4146 0.32087 0.97594 0.0
H1031 H 0.41675 0.37118 0.99504 0.0
H1032 H 0.32695 0.39876 0.02098 0.0
H1033 H 0.37479 0.40392 0.99586 0.0
H1034 H 0.21717 0.16003 1.00069 0.0
H1035 H 0.26879 0.16651 0.98139 0.0
H1036 H 0.19009 0.18932 0.03505 0.0
H1037 H 0.19214 0.24126 0.04951 0.0
C1038 C 0.07754 0.33097 0.51582 0.0
C1039 C 0.06939 0.3235 0.47799 0.0
C1040 C 0.98366 0.27058 0.49165 0.0
C1041 C 0.99046 0.28063 0.52938 0.0
N1042 N 0.04489 0.34472 0.56951 0.0
N1043 N 1.00744 0.31286 0.4357 0.0
C1044 C 0.03772 0.3176 0.53955 0.0
C1045 C 1.02043 0.3009 0.46717 0.0
N1046 N 0.12279 0.35414 0.52969 0.0
N1047 N 0.9425 0.23376 0.47793 0.0
H1048 H 1.03182 0.34011 0.41933 0.0
H1049 H 0.97165 0.29974 0.42857 0.0
H1050 H 0.91497 0.2081 0.49337 0.0
H1051 H 0.93857 0.22599 0.45043 0.0
H1052 H 0.12925 0.35506 0.55732 0.0
H1053 H 0.15352 0.37171 0.51425 0.0
H1054 H 0.07776 0.37465 0.5757 0.0
H1055 H 1.01747 0.34149 0.58573 0.0
C1056 C 0.78882 0.99363 0.00887 0.0
C1057 C 0.74348 0.97712 0.02546 0.0
C1058 C 0.74115 0.04744 0.99978 0.0
C1059 C 0.78733 0.06492 0.98405 0.0
N1060 N 0.85944 0.05953 0.98207 0.0
N1061 N 0.67121 0.98181 0.02752 0.0
C1062 C 0.812 0.03892 0.9905 0.0
C1063 C 0.71859 1.00271 0.0188 0.0
N1064 N 0.80971 0.96564 0.00985 0.0
N1065 N 0.71842 0.07366 0.99722 0.0
H1066 H 0.65229 0.94786 0.03874 0.0
H1067 H 0.64886 0.99505 0.01979 0.0
H1068 H 0.72881 0.10259 0.98007 0.0
H1069 H 0.68979 0.06793 0.01345 0.0
H1070 H 0.83914 0.97212 0.99429 0.0
H1071 H 0.79525 0.93333 0.02361 0.0
H1072 H 0.88115 0.0455 0.98972 0.0
H1073 H 0.87893 0.09358 0.97105 0.0
C1074 C 0.81083 0.78375 0.51965 0.0
C1075 C 0.78807 0.73345 0.52566 0.0
C1076 C 0.71948 0.72392 0.48881 0.0
C1077 C 0.74375 0.77372 0.48017 0.0
N1078 N 0.81613 0.85007 0.48455 0.0
N1079 N 0.72453 0.65497 0.50986 0.0
C1080 C 0.79035 0.80336 0.49501 0.0
C1081 C 0.74352 0.70347 0.50842 0.0
N1082 N 0.85138 0.81325 0.53856 0.0
N1083 N 0.67217 0.69626 0.48024 0.0
H1084 H 0.74085 0.63868 0.52379 0.0
H1085 H 0.6951 0.63111 0.49457 0.0
H1086 H 0.6524 0.70987 0.46787 0.0
H1087 H 0.65109 0.66118 0.48907 0.0
H1088 H 0.86656 0.8503 0.53935 0.0
H1089 H 0.86788 0.80029 0.55582 0.0
H1090 H 0.85224 0.87203 0.49054 0.0
H1091 H 0.80255 0.86611 0.46742 0.0
C1092 C 1.00999 0.77396 0.99943 0.0
C1093 C 0.9933 0.72788 0.98396 0.0
C1094 C 0.06798 0.7312 0.00571 0.0
C1095 C 0.08127 0.77353 0.02642 0.0
N1096 N 0.06211 0.83545 0.04148 0.0
N1097 N 1.00281 0.65826 0.98112 0.0
C1098 C 0.05104 0.79451 0.02314 0.0
C1099 C 1.02134 0.70544 0.98965 0.0
N1100 N 0.98909 0.80019 0.98934 0.0
N1101 N 0.09989 0.71573 0.99953 0.0
H1102 H 0.96826 0.63733 0.9712 0.0
H1103 H 1.01941 0.63863 0.9882 0.0
H1104 H 0.1353 0.73354 0.00787 0.0
H1105 H 0.09284 0.688 0.98169 0.0
H1106 H 1.00259 0.83597 0.99622 0.0
H1107 H 0.9611 0.78785 0.97087 0.0
H1108 H 0.03752 0.84708 0.0457 0.0
H1109 H 0.09562 0.85786 0.05253 0.0
C1110 C 0.24973 0.99911 0.49767 0.0
C1111 C 0.276 0.97606 0.48757 0.0
C1112 C 0.34483 0.03705 0.52349 0.0
C1113 C 0.3203 0.06295 0.53056 0.0
N1114 N 0.25164 0.07181 0.5184 0.0
N1115 N 0.35006 0.97464 0.49032 0.0
C1116 C 0.27311 0.04444 0.51631 0.0
C1117 C 0.32402 0.99576 0.50024 0.0
N1118 N 0.20217 0.97781 0.48933 0.0
N1119 N 0.3872 0.05026 0.54062 0.0
H1120 H 0.33515 0.94172 0.47718 0.0
H1121 H 0.38692 0.99055 0.49381 0.0
H1122 H 0.40356 0.07966 0.55759 0.0
H1123 H 0.4043 0.03002 0.54064 0.0
H1124 H 0.17955 0.98955 0.49922 0.0
H1125 H 0.18435 0.94586 0.47494 0.0
H1126 H 0.2196 0.06328 0.50549 0.0
H1127 H 0.26842 0.10579 0.52998 0.0
loop_
_geom_bond_atom_site_label_1
_geom_bond_atom_site_label_2
_geom_bond_distance
_geom_bond_site_symmetry_2
_ccdc_geom_bond_type
Ho0 C3 2.811 . S
Ho0 O20 2.322 . S
Ho0 O22 2.378 . S
Ho0 O23 2.524 . S
Ho0 O24 2.381 . S
Ho0 O25 2.669 . S
Ho0 O27 2.346 . S
Ho0 O31 2.305 . S
Ho1 C12 2.811 . S
Ho1 O21 2.346 . S
Ho1 O25 2.305 . S
Ho1 O26 2.322 . S
Ho1 O28 2.378 . S
Ho1 O29 2.524 . S
Ho1 O30 2.381 . S
Ho1 O31 2.669 . S
C2 O20 1.259 . S
C2 O21 1.268 . S
C3 Ho0 2.811 . S
C3 C4 1.488 . S
C3 O22 1.215 . S
C3 O23 1.289 . S
C4 C3 1.488 . S
C4 C5 1.348 . S
C4 C9 1.413 . S
C5 C4 1.348 . S
C5 C6 1.442 . S
C5 H32 0.930 . S
C6 C5 1.442 . S
C6 C7 1.381 . S
C6 H33 0.931 . S
C7 C6 1.381 . S
C7 C8 1.321 . S
C8 C7 1.321 . S
C8 C9 1.403 . S
C8 H34 0.934 . S
C9 C4 1.413 . S
C9 C8 1.403 . S
C9 H35 0.930 . S
C10 O24 1.275 . S
C10 O25 1.256 . S
C11 O26 1.259 . S
C11 O27 1.268 . S
C12 Ho1 2.811 . S
C12 C13 1.488 . S
C12 O28 1.215 . S
C12 O29 1.289 . S
C13 C12 1.488 . S
C13 C14 1.348 . S
C13 C18 1.413 . S
C14 C13 1.348 . S
C14 C15 1.442 . S
C14 H36 0.930 . S
C15 C14 1.442 . S
C15 C16 1.381 . S
C15 H37 0.931 . S
C16 C15 1.381 . S
C16 C17 1.321 . S
C17 C16 1.321 . S
C17 C18 1.403 . S
C17 H38 0.934 . S
C18 C13 1.413 . S
C18 C17 1.403 . S
C18 H39 0.930 . S
C19 O30 1.275 . S
C19 O31 1.256 . S
O20 Ho0 2.322 . S
O20 C2 1.259 . S
O21 Ho1 2.346 . S
O21 C2 1.268 . S
O22 Ho0 2.378 . S
O22 C3 1.215 . S
O23 Ho0 2.524 . S
O23 C3 1.289 . S
O24 Ho0 2.381 . S
O24 C10 1.275 . S
O25 Ho0 2.669 . S
O25 Ho1 2.305 . S
O25 C10 1.256 . S
O26 Ho1 2.322 . S
O26 C11 1.259 . S
O27 Ho0 2.346 . S
O27 C11 1.268 . S
O28 Ho1 2.378 . S
O28 C12 1.215 . S
O29 Ho1 2.524 . S
O29 C12 1.289 . S
O30 Ho1 2.381 . S
O30 C19 1.275 . S
O31 Ho0 2.305 . S
O31 Ho1 2.669 . S
O31 C19 1.256 . S
H32 C5 0.930 . S
H33 C6 0.931 . S
H34 C8 0.934 . S
H35 C9 0.930 . S
H36 C14 0.930 . S
H37 C15 0.931 . S
H38 C17 0.934 . S
H39 C18 0.930 . S
Ho40 C43 2.811 . S
Ho40 O60 2.322 . S
Ho40 O62 2.378 . S
Ho40 O63 2.524 . S
Ho40 O64 2.381 . S
Ho40 O65 2.669 . S
Ho40 O67 2.346 . S
Ho40 O71 2.305 . S
Ho41 C52 2.811 . S
Ho41 O61 2.346 . S
Ho41 O65 2.305 . S
Ho41 O66 2.322 . S
Ho41 O68 2.378 . S
Ho41 O69 2.524 . S
Ho41 O70 2.381 . S
Ho41 O71 2.669 . S
C42 O60 1.259 . S
C42 O61 1.268 . S
C43 Ho40 2.811 . S
C43 C44 1.488 . S
C43 O62 1.215 . S
C43 O63 1.289 . S
C44 C43 1.488 . S
C44 C45 1.348 . S
C44 C49 1.413 . S
C45 C44 1.348 . S
C45 C46 1.442 . S
C45 H72 0.930 . S
C46 C45 1.442 . S
C46 C47 1.381 . S
C46 H73 0.931 . S
C47 C46 1.381 . S
C47 C48 1.321 . S
C48 C47 1.321 . S
C48 C49 1.403 . S
C48 H74 0.934 . S
C49 C44 1.413 . S
C49 C48 1.403 . S
C49 H75 0.930 . S
C50 O64 1.275 . S
C50 O65 1.256 . S
C51 O66 1.259 . S
C51 O67 1.268 . S
C52 Ho41 2.811 . S
C52 C53 1.488 1_655 S
C52 O68 1.215 . S
C52 O69 1.289 . S
C53 C52 1.488 1_455 S
C53 C54 1.348 . S
C53 C58 1.413 . S
C54 C53 1.348 . S
C54 C55 1.442 . S
C54 H76 0.930 . S
C55 C54 1.442 . S
C55 C56 1.381 . S
C55 H77 0.931 . S
C56 C55 1.381 . S
C56 C57 1.321 . S
C57 C56 1.321 . S
C57 C58 1.403 . S
C57 H78 0.934 . S
C58 C53 1.413 . S
C58 C57 1.403 . S
C58 H79 0.930 . S
C59 O70 1.275 . S
C59 O71 1.256 . S
O60 Ho40 2.322 . S
O60 C42 1.259 . S
O61 Ho41 2.346 . S
O61 C42 1.268 . S
O62 Ho40 2.378 . S
O62 C43 1.215 . S
O63 Ho40 2.524 . S
O63 C43 1.289 . S
O64 Ho40 2.381 . S
O64 C50 1.275 . S
O65 Ho40 2.669 . S
O65 Ho41 2.305 . S
O65 C50 1.256 . S
O66 Ho41 2.322 . S
O66 C51 1.259 . S
O67 Ho40 2.346 . S
O67 C51 1.268 . S
O68 Ho41 2.378 . S
O68 C52 1.215 . S
O69 Ho41 2.524 . S
O69 C52 1.289 . S
O70 Ho41 2.381 . S
O70 C59 1.275 . S
O71 Ho40 2.305 . S
O71 Ho41 2.669 . S
O71 C59 1.256 . S
H72 C45 0.930 . S
H73 C46 0.931 . S
H74 C48 0.934 . S
H75 C49 0.930 . S
H76 C54 0.930 . S
H77 C55 0.931 . S
H78 C57 0.934 . S
H79 C58 0.930 . S
Ho80 C83 2.811 . S
Ho80 O100 2.322 . S
Ho80 O102 2.378 . S
Ho80 O103 2.524 . S
Ho80 O104 2.381 . S
Ho80 O105 2.669 . S
Ho80 O107 2.346 . S
Ho80 O111 2.305 . S
Ho81 C92 2.811 . S
Ho81 O101 2.346 . S
Ho81 O105 2.305 . S
Ho81 O106 2.322 . S
Ho81 O108 2.378 . S
Ho81 O109 2.524 . S
Ho81 O110 2.381 . S
Ho81 O111 2.669 . S
C82 O100 1.259 . S
C82 O101 1.268 . S
C83 Ho80 2.811 . S
C83 C84 1.488 . S
C83 O102 1.215 . S
C83 O103 1.289 . S
C84 C83 1.488 . S
C84 C85 1.348 . S
C84 C89 1.413 . S
C85 C84 1.348 . S
C85 C86 1.442 . S
C85 H112 0.930 . S
C86 C85 1.442 . S
C86 C87 1.381 . S
C86 H113 0.931 . S
C87 C86 1.381 . S
C87 C88 1.321 . S
C88 C87 1.321 . S
C88 C89 1.403 . S
C88 H114 0.934 . S
C89 C84 1.413 . S
C89 C88 1.403 . S
C89 H115 0.930 . S
C90 O104 1.275 . S
C90 O105 1.256 . S
C91 O106 1.259 . S
C91 O107 1.268 . S
C92 Ho81 2.811 . S
C92 C93 1.488 1_565 S
C92 O108 1.215 . S
C92 O109 1.289 . S
C93 C92 1.488 1_545 S
C93 C94 1.348 . S
C93 C98 1.413 . S
C94 C93 1.348 . S
C94 C95 1.442 . S
C94 H116 0.930 . S
C95 C94 1.442 . S
C95 C96 1.381 . S
C95 H117 0.931 . S
C96 C95 1.381 . S
C96 C97 1.321 . S
C97 C96 1.321 . S
C97 C98 1.403 . S
C97 H118 0.934 . S
C98 C93 1.413 . S
C98 C97 1.403 . S
C98 H119 0.930 . S
C99 O110 1.275 . S
C99 O111 1.256 . S
O100 Ho80 2.322 . S
O100 C82 1.259 . S
O101 Ho81 2.346 . S
O101 C82 1.268 . S
O102 Ho80 2.378 . S
O102 C83 1.215 . S
O103 Ho80 2.524 . S
O103 C83 1.289 . S
O104 Ho80 2.381 . S
O104 C90 1.275 . S
O105 Ho80 2.669 . S
O105 Ho81 2.305 . S
O105 C90 1.256 . S
O106 Ho81 2.322 . S
O106 C91 1.259 . S
O107 Ho80 2.346 . S
O107 C91 1.268 . S
O108 Ho81 2.378 . S
O108 C92 1.215 . S
O109 Ho81 2.524 . S
O109 C92 1.289 . S
O110 Ho81 2.381 . S
O110 C99 1.275 . S
O111 Ho80 2.305 . S
O111 Ho81 2.669 . S
O111 C99 1.256 . S
H112 C85 0.930 . S
H113 C86 0.931 . S
H114 C88 0.934 . S
H115 C89 0.930 . S
H116 C94 0.930 . S
H117 C95 0.931 . S
H118 C97 0.934 . S
H119 C98 0.930 . S
Ho120 C123 2.811 . S
Ho120 O140 2.322 . S
Ho120 O142 2.378 . S
Ho120 O143 2.524 . S
Ho120 O144 2.381 . S
Ho120 O145 2.669 . S
Ho120 O147 2.346 . S
Ho120 O151 2.305 . S
Ho121 C132 2.811 . S
Ho121 O141 2.346 . S
Ho121 O145 2.305 . S
Ho121 O146 2.322 . S
Ho121 O148 2.378 . S
Ho121 O149 2.524 . S
Ho121 O150 2.381 . S
Ho121 O151 2.669 . S
C122 O140 1.259 . S
C122 O141 1.268 . S
C123 Ho120 2.811 . S
C123 C124 1.488 . S
C123 O142 1.215 . S
C123 O143 1.289 . S
C124 C123 1.488 . S
C124 C125 1.348 . S
C124 C129 1.413 . S
C125 C124 1.348 . S
C125 C126 1.442 . S
C125 H152 0.930 . S
C126 C125 1.442 . S
C126 C127 1.381 . S
C126 H153 0.931 . S
C127 C126 1.381 . S
C127 C128 1.321 . S
C128 C127 1.321 . S
C128 C129 1.403 . S
C128 H154 0.934 . S
C129 C124 1.413 . S
C129 C128 1.403 . S
C129 H155 0.930 . S
C130 O144 1.275 . S
C130 O145 1.256 . S
C131 O146 1.259 . S
C131 O147 1.268 . S
C132 Ho121 2.811 . S
C132 C133 1.488 . S
C132 O148 1.215 . S
C132 O149 1.289 . S
C133 C132 1.488 . S
C133 C134 1.348 . S
C133 C138 1.413 . S
C134 C133 1.348 . S
C134 C135 1.442 . S
C134 H156 0.930 . S
C135 C134 1.442 . S
C135 C136 1.381 . S
C135 H157 0.931 . S
C136 C135 1.381 . S
C136 C137 1.321 . S
C137 C136 1.321 . S
C137 C138 1.403 . S
C137 H158 0.934 . S
C138 C133 1.413 . S
C138 C137 1.403 . S
C138 H159 0.930 . S
C139 O150 1.275 . S
C139 O151 1.256 . S
O140 Ho120 2.322 . S
O140 C122 1.259 . S
O141 Ho121 2.346 . S
O141 C122 1.268 . S
O142 Ho120 2.378 . S
O142 C123 1.215 . S
O143 Ho120 2.524 . S
O143 C123 1.289 . S
O144 Ho120 2.381 . S
O144 C130 1.275 . S
O145 Ho120 2.669 . S
O145 Ho121 2.305 . S
O145 C130 1.256 . S
O146 Ho121 2.322 . S
O146 C131 1.259 . S
O147 Ho120 2.346 . S
O147 C131 1.268 . S
O148 Ho121 2.378 . S
O148 C132 1.215 . S
O149 Ho121 2.524 . S
O149 C132 1.289 . S
O150 Ho121 2.381 . S
O150 C139 1.275 . S
O151 Ho120 2.305 . S
O151 Ho121 2.669 . S
O151 C139 1.256 . S
H152 C125 0.930 . S
H153 C126 0.931 . S
H154 C128 0.934 . S
H155 C129 0.930 . S
H156 C134 0.930 . S
H157 C135 0.931 . S
H158 C137 0.934 . S
H159 C138 0.930 . S
Ho160 C163 2.811 . S
Ho160 O180 2.322 . S
Ho160 O182 2.378 . S
Ho160 O183 2.524 . S
Ho160 O184 2.381 . S
Ho160 O185 2.669 . S
Ho160 O187 2.346 . S
Ho160 O191 2.305 . S
Ho161 C172 2.811 . S
Ho161 O181 2.346 . S
Ho161 O185 2.305 . S
Ho161 O186 2.322 . S
Ho161 O188 2.378 . S
Ho161 O189 2.524 . S
Ho161 O190 2.381 . S
Ho161 O191 2.669 . S
C162 O180 1.259 . S
C162 O181 1.268 . S
C163 Ho160 2.811 . S
C163 C164 1.488 . S
C163 O182 1.215 . S
C163 O183 1.289 . S
C164 C163 1.488 . S
C164 C165 1.348 . S
C164 C169 1.413 . S
C165 C164 1.348 . S
C165 C166 1.442 . S
C165 H192 0.930 . S
C166 C165 1.442 . S
C166 C167 1.381 . S
C166 H193 0.931 . S
C167 C166 1.381 . S
C167 C168 1.321 . S
C168 C167 1.321 . S
C168 C169 1.403 . S
C168 H194 0.934 . S
C169 C164 1.413 . S
C169 C168 1.403 . S
C169 H195 0.930 . S
C170 O184 1.275 . S
C170 O185 1.256 . S
C171 O186 1.259 . S
C171 O187 1.268 . S
C172 Ho161 2.811 . S
C172 C173 1.488 1_455 S
C172 O188 1.215 . S
C172 O189 1.289 . S
C173 C172 1.488 1_655 S
C173 C174 1.348 . S
C173 C178 1.413 . S
C174 C173 1.348 . S
C174 C175 1.442 . S
C174 H196 0.930 . S
C175 C174 1.442 . S
C175 C176 1.381 . S
C175 H197 0.931 . S
C176 C175 1.381 . S
C176 C177 1.321 . S
C177 C176 1.321 . S
C177 C178 1.403 . S
C177 H198 0.934 . S
C178 C173 1.413 . S
C178 C177 1.403 . S
C178 H199 0.930 . S
C179 O190 1.275 . S
C179 O191 1.256 . S
O180 Ho160 2.322 . S
O180 C162 1.259 . S
O181 Ho161 2.346 . S
O181 C162 1.268 . S
O182 Ho160 2.378 . S
O182 C163 1.215 . S
O183 Ho160 2.524 . S
O183 C163 1.289 . S
O184 Ho160 2.381 . S
O184 C170 1.275 . S
O185 Ho160 2.669 . S
O185 Ho161 2.305 . S
O185 C170 1.256 . S
O186 Ho161 2.322 . S
O186 C171 1.259 . S
O187 Ho160 2.346 . S
O187 C171 1.268 . S
O188 Ho161 2.378 . S
O188 C172 1.215 . S
O189 Ho161 2.524 . S
O189 C172 1.289 . S
O190 Ho161 2.381 . S
O190 C179 1.275 . S
O191 Ho160 2.305 . S
O191 Ho161 2.669 . S
O191 C179 1.256 . S
H192 C165 0.930 . S
H193 C166 0.931 . S
H194 C168 0.934 . S
H195 C169 0.930 . S
H196 C174 0.930 . S
H197 C175 0.931 . S
H198 C177 0.934 . S
H199 C178 0.930 . S
Ho200 C203 2.811 . S
Ho200 O220 2.322 . S
Ho200 O222 2.378 . S
Ho200 O223 2.524 . S
Ho200 O224 2.381 . S
Ho200 O225 2.669 . S
Ho200 O227 2.346 . S
Ho200 O231 2.305 . S
Ho201 C212 2.811 . S
Ho201 O221 2.346 . S
Ho201 O225 2.305 . S
Ho201 O226 2.322 . S
Ho201 O228 2.378 . S
Ho201 O229 2.524 . S
Ho201 O230 2.381 . S
Ho201 O231 2.669 . S
C202 O220 1.259 . S
C202 O221 1.268 . S
C203 Ho200 2.811 . S
C203 C204 1.488 . S
C203 O222 1.215 . S
C203 O223 1.289 . S
C204 C203 1.488 . S
C204 C205 1.348 . S
C204 C209 1.413 . S
C205 C204 1.348 . S
C205 C206 1.442 . S
C205 H232 0.930 . S
C206 C205 1.442 . S
C206 C207 1.381 . S
C206 H233 0.931 . S
C207 C206 1.381 . S
C207 C208 1.321 . S
C208 C207 1.321 . S
C208 C209 1.403 . S
C208 H234 0.934 . S
C209 C204 1.413 . S
C209 C208 1.403 . S
C209 H235 0.930 . S
C210 O224 1.275 . S
C210 O225 1.256 . S
C211 O226 1.259 . S
C211 O227 1.268 . S
C212 Ho201 2.811 . S
C212 C213 1.488 1_545 S
C212 O228 1.215 . S
C212 O229 1.289 . S
C213 C212 1.488 1_565 S
C213 C214 1.348 . S
C213 C218 1.413 . S
C214 C213 1.348 . S
C214 C215 1.442 . S
C214 H236 0.930 . S
C215 C214 1.442 . S
C215 C216 1.381 . S
C215 H237 0.931 . S
C216 C215 1.381 . S
C216 C217 1.321 . S
C217 C216 1.321 . S
C217 C218 1.403 . S
C217 H238 0.934 . S
C218 C213 1.413 . S
C218 C217 1.403 . S
C218 H239 0.930 . S
C219 O230 1.275 . S
C219 O231 1.256 . S
O220 Ho200 2.322 . S
O220 C202 1.259 . S
O221 Ho201 2.346 . S
O221 C202 1.268 . S
O222 Ho200 2.378 . S
O222 C203 1.215 . S
O223 Ho200 2.524 . S
O223 C203 1.289 . S
O224 Ho200 2.381 . S
O224 C210 1.275 . S
O225 Ho200 2.669 . S
O225 Ho201 2.305 . S
O225 C210 1.256 . S
O226 Ho201 2.322 . S
O226 C211 1.259 . S
O227 Ho200 2.346 . S
O227 C211 1.268 . S
O228 Ho201 2.378 . S
O228 C212 1.215 . S
O229 Ho201 2.524 . S
O229 C212 1.289 . S
O230 Ho201 2.381 . S
O230 C219 1.275 . S
O231 Ho200 2.305 . S
O231 Ho201 2.669 . S
O231 C219 1.256 . S
H232 C205 0.930 . S
H233 C206 0.931 . S
H234 C208 0.934 . S
H235 C209 0.930 . S
H236 C214 0.930 . S
H237 C215 0.931 . S
H238 C217 0.934 . S
H239 C218 0.930 . S
Ho240 C243 2.811 . S
Ho240 O260 2.322 . S
Ho240 O262 2.378 . S
Ho240 O263 2.524 . S
Ho240 O264 2.381 . S
Ho240 O265 2.669 . S
Ho240 O267 2.346 . S
Ho240 O271 2.305 . S
Ho241 C252 2.811 . S
Ho241 O261 2.346 . S
Ho241 O265 2.305 . S
Ho241 O266 2.322 . S
Ho241 O268 2.378 . S
Ho241 O269 2.524 . S
Ho241 O270 2.381 . S
Ho241 O271 2.669 . S
C242 O260 1.259 . S
C242 O261 1.268 . S
C243 Ho240 2.811 . S
C243 C244 1.488 . S
C243 O262 1.215 . S
C243 O263 1.289 . S
C244 C243 1.488 . S
C244 C245 1.348 . S
C244 C249 1.413 . S
C245 C244 1.348 . S
C245 C246 1.442 . S
C245 H272 0.930 . S
C246 C245 1.442 . S
C246 C247 1.381 . S
C246 H273 0.931 . S
C247 C246 1.381 . S
C247 C248 1.321 . S
C248 C247 1.321 . S
C248 C249 1.403 . S
C248 H274 0.934 . S
C249 C244 1.413 . S
C249 C248 1.403 . S
C249 H275 0.930 . S
C250 O264 1.275 . S
C250 O265 1.256 . S
C251 O266 1.259 . S
C251 O267 1.268 . S
C252 Ho241 2.811 . S
C252 C253 1.488 . S
C252 O268 1.215 . S
C252 O269 1.289 . S
C253 C252 1.488 . S
C253 C254 1.348 . S
C253 C258 1.413 . S
C254 C253 1.348 . S
C254 C255 1.442 . S
C254 H276 0.930 . S
C255 C254 1.442 . S
C255 C256 1.381 . S
C255 H277 0.931 . S
C256 C255 1.381 . S
C256 C257 1.321 . S
C257 C256 1.321 . S
C257 C258 1.403 . S
C257 H278 0.934 . S
C258 C253 1.413 . S
C258 C257 1.403 . S
C258 H279 0.930 . S
C259 O270 1.275 . S
C259 O271 1.256 . S
O260 Ho240 2.322 . S
O260 C242 1.259 . S
O261 Ho241 2.346 . S
O261 C242 1.268 . S
O262 Ho240 2.378 . S
O262 C243 1.215 . S
O263 Ho240 2.524 . S
O263 C243 1.289 . S
O264 Ho240 2.381 . S
O264 C250 1.275 . S
O265 Ho240 2.669 . S
O265 Ho241 2.305 . S
O265 C250 1.256 . S
O266 Ho241 2.322 . S
O266 C251 1.259 . S
O267 Ho240 2.346 . S
O267 C251 1.268 . S
O268 Ho241 2.378 . S
O268 C252 1.215 . S
O269 Ho241 2.524 . S
O269 C252 1.289 . S
O270 Ho241 2.381 . S
O270 C259 1.275 . S
O271 Ho240 2.305 . S
O271 Ho241 2.669 . S
O271 C259 1.256 . S
H272 C245 0.930 . S
H273 C246 0.931 . S
H274 C248 0.934 . S
H275 C249 0.930 . S
H276 C254 0.930 . S
H277 C255 0.931 . S
H278 C257 0.934 . S
H279 C258 0.930 . S
Ho280 C283 2.811 . S
Ho280 O300 2.322 . S
Ho280 O302 2.378 . S
Ho280 O303 2.524 . S
Ho280 O304 2.381 . S
Ho280 O305 2.669 . S
Ho280 O307 2.346 . S
Ho280 O311 2.305 . S
Ho281 C292 2.811 . S
Ho281 O301 2.346 . S
Ho281 O305 2.305 . S
Ho281 O306 2.322 . S
Ho281 O308 2.378 . S
Ho281 O309 2.524 . S
Ho281 O310 2.381 . S
Ho281 O311 2.669 . S
C282 O300 1.259 . S
C282 O301 1.268 . S
C283 Ho280 2.811 . S
C283 C284 1.488 . S
C283 O302 1.215 . S
C283 O303 1.289 . S
C284 C283 1.488 . S
C284 C285 1.348 . S
C284 C289 1.413 . S
C285 C284 1.348 . S
C285 C286 1.442 . S
C285 H312 0.930 . S
C286 C285 1.442 . S
C286 C287 1.381 . S
C286 H313 0.931 . S
C287 C286 1.381 . S
C287 C288 1.321 . S
C288 C287 1.321 . S
C288 C289 1.403 . S
C288 H314 0.934 . S
C289 C284 1.413 . S
C289 C288 1.403 . S
C289 H315 0.930 . S
C290 O304 1.275 . S
C290 O305 1.256 . S
C291 O306 1.259 . S
C291 O307 1.268 . S
C292 Ho281 2.811 . S
C292 C293 1.488 1_655 S
C292 O308 1.215 . S
C292 O309 1.289 . S
C293 C292 1.488 1_455 S
C293 C294 1.348 . S
C293 C298 1.413 . S
C294 C293 1.348 . S
C294 C295 1.442 . S
C294 H316 0.930 . S
C295 C294 1.442 . S
C295 C296 1.381 . S
C295 H317 0.931 . S
C296 C295 1.381 . S
C296 C297 1.321 . S
C297 C296 1.321 . S
C297 C298 1.403 . S
C297 H318 0.934 . S
C298 C293 1.413 . S
C298 C297 1.403 . S
C298 H319 0.930 . S
C299 O310 1.275 . S
C299 O311 1.256 . S
O300 Ho280 2.322 . S
O300 C282 1.259 . S
O301 Ho281 2.346 . S
O301 C282 1.268 . S
O302 Ho280 2.378 . S
O302 C283 1.215 . S
O303 Ho280 2.524 . S
O303 C283 1.289 . S
O304 Ho280 2.381 . S
O304 C290 1.275 . S
O305 Ho280 2.669 . S
O305 Ho281 2.305 . S
O305 C290 1.256 . S
O306 Ho281 2.322 . S
O306 C291 1.259 . S
O307 Ho280 2.346 . S
O307 C291 1.268 . S
O308 Ho281 2.378 . S
O308 C292 1.215 . S
O309 Ho281 2.524 . S
O309 C292 1.289 . S
O310 Ho281 2.381 . S
O310 C299 1.275 . S
O311 Ho280 2.305 . S
O311 Ho281 2.669 . S
O311 C299 1.256 . S
H312 C285 0.930 . S
H313 C286 0.931 . S
H314 C288 0.934 . S
H315 C289 0.930 . S
H316 C294 0.930 . S
H317 C295 0.931 . S
H318 C297 0.934 . S
H319 C298 0.930 . S
Ho320 C323 2.811 . S
Ho320 O340 2.322 . S
Ho320 O342 2.378 . S
Ho320 O343 2.524 . S
Ho320 O344 2.381 . S
Ho320 O345 2.669 . S
Ho320 O347 2.346 . S
Ho320 O351 2.305 . S
Ho321 C332 2.811 . S
Ho321 O341 2.346 . S
Ho321 O345 2.305 . S
Ho321 O346 2.322 . S
Ho321 O348 2.378 . S
Ho321 O349 2.524 . S
Ho321 O350 2.381 . S
Ho321 O351 2.669 . S
C322 O340 1.259 . S
C322 O341 1.268 . S
C323 Ho320 2.811 . S
C323 C324 1.488 . S
C323 O342 1.215 . S
C323 O343 1.289 . S
C324 C323 1.488 . S
C324 C325 1.348 . S
C324 C329 1.413 . S
C325 C324 1.348 . S
C325 C326 1.442 . S
C325 H352 0.930 . S
C326 C325 1.442 . S
C326 C327 1.381 . S
C326 H353 0.931 . S
C327 C326 1.381 . S
C327 C328 1.321 . S
C328 C327 1.321 . S
C328 C329 1.403 . S
C328 H354 0.934 . S
C329 C324 1.413 . S
C329 C328 1.403 . S
C329 H355 0.930 . S
C330 O344 1.275 . S
C330 O345 1.256 . S
C331 O346 1.259 . S
C331 O347 1.268 . S
C332 Ho321 2.811 . S
C332 C333 1.488 1_565 S
C332 O348 1.215 . S
C332 O349 1.289 . S
C333 C332 1.488 1_545 S
C333 C334 1.348 . S
C333 C338 1.413 . S
C334 C333 1.348 . S
C334 C335 1.442 . S
C334 H356 0.930 . S
C335 C334 1.442 . S
C335 C336 1.381 . S
C335 H357 0.931 . S
C336 C335 1.381 . S
C336 C337 1.321 . S
C337 C336 1.321 . S
C337 C338 1.403 . S
C337 H358 0.934 . S
C338 C333 1.413 . S
C338 C337 1.403 . S
C338 H359 0.930 . S
C339 O350 1.275 . S
C339 O351 1.256 . S
O340 Ho320 2.322 . S
O340 C322 1.259 . S
O341 Ho321 2.346 . S
O341 C322 1.268 . S
O342 Ho320 2.378 . S
O342 C323 1.215 . S
O343 Ho320 2.524 . S
O343 C323 1.289 . S
O344 Ho320 2.381 . S
O344 C330 1.275 . S
O345 Ho320 2.669 . S
O345 Ho321 2.305 . S
O345 C330 1.256 . S
O346 Ho321 2.322 . S
O346 C331 1.259 . S
O347 Ho320 2.346 . S
O347 C331 1.268 . S
O348 Ho321 2.378 . S
O348 C332 1.215 . S
O349 Ho321 2.524 . S
O349 C332 1.289 . S
O350 Ho321 2.381 . S
O350 C339 1.275 . S
O351 Ho320 2.305 . S
O351 Ho321 2.669 . S
O351 C339 1.256 . S
H352 C325 0.930 . S
H353 C326 0.931 . S
H354 C328 0.934 . S
H355 C329 0.930 . S
H356 C334 0.930 . S
H357 C335 0.931 . S
H358 C337 0.934 . S
H359 C338 0.930 . S
Ho360 C363 2.811 . S
Ho360 O380 2.322 . S
Ho360 O382 2.378 . S
Ho360 O383 2.524 . S
Ho360 O384 2.381 . S
Ho360 O385 2.669 . S
Ho360 O387 2.346 . S
Ho360 O391 2.305 . S
Ho361 C372 2.811 . S
Ho361 O381 2.346 . S
Ho361 O385 2.305 . S
Ho361 O386 2.322 . S
Ho361 O388 2.378 . S
Ho361 O389 2.524 . S
Ho361 O390 2.381 . S
Ho361 O391 2.669 . S
C362 O380 1.259 . S
C362 O381 1.268 . S
C363 Ho360 2.811 . S
C363 C364 1.488 . S
C363 O382 1.215 . S
C363 O383 1.289 . S
C364 C363 1.488 . S
C364 C365 1.348 . S
C364 C369 1.413 . S
C365 C364 1.348 . S
C365 C366 1.442 . S
C365 H392 0.930 . S
C366 C365 1.442 . S
C366 C367 1.381 . S
C366 H393 0.931 . S
C367 C366 1.381 . S
C367 C368 1.321 . S
C368 C367 1.321 . S
C368 C369 1.403 . S
C368 H394 0.934 . S
C369 C364 1.413 . S
C369 C368 1.403 . S
C369 H395 0.930 . S
C370 O384 1.275 . S
C370 O385 1.256 . S
C371 O386 1.259 . S
C371 O387 1.268 . S
C372 Ho361 2.811 . S
C372 C373 1.488 . S
C372 O388 1.215 . S
C372 O389 1.289 . S
C373 C372 1.488 . S
C373 C374 1.348 . S
C373 C378 1.413 . S
C374 C373 1.348 . S
C374 C375 1.442 . S
C374 H396 0.930 . S
C375 C374 1.442 . S
C375 C376 1.381 . S
C375 H397 0.931 . S
C376 C375 1.381 . S
C376 C377 1.321 . S
C377 C376 1.321 . S
C377 C378 1.403 . S
C377 H398 0.934 . S
C378 C373 1.413 . S
C378 C377 1.403 . S
C378 H399 0.930 . S
C379 O390 1.275 . S
C379 O391 1.256 . S
O380 Ho360 2.322 . S
O380 C362 1.259 . S
O381 Ho361 2.346 . S
O381 C362 1.268 . S
O382 Ho360 2.378 . S
O382 C363 1.215 . S
O383 Ho360 2.524 . S
O383 C363 1.289 . S
O384 Ho360 2.381 . S
O384 C370 1.275 . S
O385 Ho360 2.669 . S
O385 Ho361 2.305 . S
O385 C370 1.256 . S
O386 Ho361 2.322 . S
O386 C371 1.259 . S
O387 Ho360 2.346 . S
O387 C371 1.268 . S
O388 Ho361 2.378 . S
O388 C372 1.215 . S
O389 Ho361 2.524 . S
O389 C372 1.289 . S
O390 Ho361 2.381 . S
O390 C379 1.275 . S
O391 Ho360 2.305 . S
O391 Ho361 2.669 . S
O391 C379 1.256 . S
H392 C365 0.930 . S
H393 C366 0.931 . S
H394 C368 0.934 . S
H395 C369 0.930 . S
H396 C374 0.930 . S
H397 C375 0.931 . S
H398 C377 0.934 . S
H399 C378 0.930 . S
Ho400 C403 2.811 . S
Ho400 O420 2.322 . S
Ho400 O422 2.378 . S
Ho400 O423 2.524 . S
Ho400 O424 2.381 . S
Ho400 O425 2.669 . S
Ho400 O427 2.346 . S
Ho400 O431 2.305 . S
Ho401 C412 2.811 . S
Ho401 O421 2.346 . S
Ho401 O425 2.305 . S
Ho401 O426 2.322 . S
Ho401 O428 2.378 . S
Ho401 O429 2.524 . S
Ho401 O430 2.381 . S
Ho401 O431 2.669 . S
C402 O420 1.259 . S
C402 O421 1.268 . S
C403 Ho400 2.811 . S
C403 C404 1.488 . S
C403 O422 1.215 . S
C403 O423 1.289 . S
C404 C403 1.488 . S
C404 C405 1.348 . S
C404 C409 1.413 . S
C405 C404 1.348 . S
C405 C406 1.442 . S
C405 H432 0.930 . S
C406 C405 1.442 . S
C406 C407 1.381 . S
C406 H433 0.931 . S
C407 C406 1.381 . S
C407 C408 1.321 . S
C408 C407 1.321 . S
C408 C409 1.403 . S
C408 H434 0.934 . S
C409 C404 1.413 . S
C409 C408 1.403 . S
C409 H435 0.930 . S
C410 O424 1.275 . S
C410 O425 1.256 . S
C411 O426 1.259 . S
C411 O427 1.268 . S
C412 Ho401 2.811 . S
C412 C413 1.488 1_455 S
C412 O428 1.215 . S
C412 O429 1.289 . S
C413 C412 1.488 1_655 S
C413 C414 1.348 . S
C413 C418 1.413 . S
C414 C413 1.348 . S
C414 C415 1.442 . S
C414 H436 0.930 . S
C415 C414 1.442 . S
C415 C416 1.381 . S
C415 H437 0.931 . S
C416 C415 1.381 . S
C416 C417 1.321 . S
C417 C416 1.321 . S
C417 C418 1.403 . S
C417 H438 0.934 . S
C418 C413 1.413 . S
C418 C417 1.403 . S
C418 H439 0.930 . S
C419 O430 1.275 . S
C419 O431 1.256 . S
O420 Ho400 2.322 . S
O420 C402 1.259 . S
O421 Ho401 2.346 . S
O421 C402 1.268 . S
O422 Ho400 2.378 . S
O422 C403 1.215 . S
O423 Ho400 2.524 . S
O423 C403 1.289 . S
O424 Ho400 2.381 . S
O424 C410 1.275 . S
O425 Ho400 2.669 . S
O425 Ho401 2.305 . S
O425 C410 1.256 . S
O426 Ho401 2.322 . S
O426 C411 1.259 . S
O427 Ho400 2.346 . S
O427 C411 1.268 . S
O428 Ho401 2.378 . S
O428 C412 1.215 . S
O429 Ho401 2.524 . S
O429 C412 1.289 . S
O430 Ho401 2.381 . S
O430 C419 1.275 . S
O431 Ho400 2.305 . S
O431 Ho401 2.669 . S
O431 C419 1.256 . S
H432 C405 0.930 . S
H433 C406 0.931 . S
H434 C408 0.934 . S
H435 C409 0.930 . S
H436 C414 0.930 . S
H437 C415 0.931 . S
H438 C417 0.934 . S
H439 C418 0.930 . S
Ho440 C443 2.811 . S
Ho440 O460 2.322 . S
Ho440 O462 2.378 . S
Ho440 O463 2.524 . S
Ho440 O464 2.381 . S
Ho440 O465 2.669 . S
Ho440 O467 2.346 . S
Ho440 O471 2.305 . S
Ho441 C452 2.811 . S
Ho441 O461 2.346 . S
Ho441 O465 2.305 . S
Ho441 O466 2.322 . S
Ho441 O468 2.378 . S
Ho441 O469 2.524 . S
Ho441 O470 2.381 . S
Ho441 O471 2.669 . S
C442 O460 1.259 . S
C442 O461 1.268 . S
C443 Ho440 2.811 . S
C443 C444 1.488 . S
C443 O462 1.215 . S
C443 O463 1.289 . S
C444 C443 1.488 . S
C444 C445 1.348 . S
C444 C449 1.413 . S
C445 C444 1.348 . S
C445 C446 1.442 . S
C445 H472 0.930 . S
C446 C445 1.442 . S
C446 C447 1.381 . S
C446 H473 0.931 . S
C447 C446 1.381 . S
C447 C448 1.321 . S
C448 C447 1.321 . S
C448 C449 1.403 . S
C448 H474 0.934 . S
C449 C444 1.413 . S
C449 C448 1.403 . S
C449 H475 0.930 . S
C450 O464 1.275 . S
C450 O465 1.256 . S
C451 O466 1.259 . S
C451 O467 1.268 . S
C452 Ho441 2.811 . S
C452 C453 1.488 1_545 S
C452 O468 1.215 . S
C452 O469 1.289 . S
C453 C452 1.488 1_565 S
C453 C454 1.348 . S
C453 C458 1.413 . S
C454 C453 1.348 . S
C454 C455 1.442 . S
C454 H476 0.930 . S
C455 C454 1.442 . S
C455 C456 1.381 . S
C455 H477 0.931 . S
C456 C455 1.381 . S
C456 C457 1.321 . S
C457 C456 1.321 . S
C457 C458 1.403 . S
C457 H478 0.934 . S
C458 C453 1.413 . S
C458 C457 1.403 . S
C458 H479 0.930 . S
C459 O470 1.275 . S
C459 O471 1.256 . S
O460 Ho440 2.322 . S
O460 C442 1.259 . S
O461 Ho441 2.346 . S
O461 C442 1.268 . S
O462 Ho440 2.378 . S
O462 C443 1.215 . S
O463 Ho440 2.524 . S
O463 C443 1.289 . S
O464 Ho440 2.381 . S
O464 C450 1.275 . S
O465 Ho440 2.669 . S
O465 Ho441 2.305 . S
O465 C450 1.256 . S
O466 Ho441 2.322 . S
O466 C451 1.259 . S
O467 Ho440 2.346 . S
O467 C451 1.268 . S
O468 Ho441 2.378 . S
O468 C452 1.215 . S
O469 Ho441 2.524 . S
O469 C452 1.289 . S
O470 Ho441 2.381 . S
O470 C459 1.275 . S
O471 Ho440 2.305 . S
O471 Ho441 2.669 . S
O471 C459 1.256 . S
H472 C445 0.930 . S
H473 C446 0.931 . S
H474 C448 0.934 . S
H475 C449 0.930 . S
H476 C454 0.930 . S
H477 C455 0.931 . S
H478 C457 0.934 . S
H479 C458 0.930 . S
C480 C481 1.363 . S
C480 C486 1.379 1_565 S
C480 N488 1.356 . S
C481 C480 1.363 . S
C481 C487 1.363 . S
C482 C483 1.363 1_565 S
C482 C487 1.379 . S
C482 N489 1.356 . S
C483 C482 1.363 1_545 S
C483 C486 1.363 . S
N484 C486 1.356 . S
N484 H496 0.984 . S
N484 H497 0.985 . S
N485 C487 1.356 . S
N485 H490 0.984 . S
N485 H491 0.985 . S
C486 C480 1.379 1_545 S
C486 C483 1.363 . S
C486 N484 1.356 . S
C487 C481 1.363 . S
C487 C482 1.379 . S
C487 N485 1.356 . S
N488 C480 1.356 . S
N488 H494 0.984 . S
N488 H495 0.984 . S
N489 C482 1.356 . S
N489 H492 0.984 1_565 S
N489 H493 0.985 . S
H490 N485 0.984 . S
H491 N485 0.985 . S
H492 N489 0.984 1_545 S
H493 N489 0.985 . S
H494 N488 0.984 . S
H495 N488 0.984 . S
H496 N484 0.984 . S
H497 N484 0.985 . S
C498 C499 1.363 . S
C498 C504 1.379 . S
C498 N506 1.356 . S
C499 C498 1.363 . S
C499 C505 1.363 . S
C500 C501 1.363 . S
C500 C505 1.379 . S
C500 N507 1.356 . S
C501 C500 1.363 . S
C501 C504 1.363 . S
N502 C504 1.356 . S
N502 H514 0.984 . S
N502 H515 0.985 . S
N503 C505 1.356 . S
N503 H508 0.984 . S
N503 H509 0.985 . S
C504 C498 1.379 . S
C504 C501 1.363 . S
C504 N502 1.356 . S
C505 C499 1.363 . S
C505 C500 1.379 . S
C505 N503 1.356 . S
N506 C498 1.356 . S
N506 H512 0.984 . S
N506 H513 0.984 . S
N507 C500 1.356 . S
N507 H510 0.984 . S
N507 H511 0.985 . S
H508 N503 0.984 . S
H509 N503 0.985 . S
H510 N507 0.984 . S
H511 N507 0.985 . S
H512 N506 0.984 . S
H513 N506 0.984 . S
H514 N502 0.984 . S
H515 N502 0.985 . S
C516 C517 1.363 1_455 S
C516 C522 1.379 . S
C516 N524 1.356 1_455 S
C517 C516 1.363 1_655 S
C517 C523 1.363 . S
C518 C519 1.363 . S
C518 C523 1.379 1_455 S
C518 N525 1.356 . S
C519 C518 1.363 . S
C519 C522 1.363 . S
N520 C522 1.356 . S
N520 H532 0.984 . S
N520 H533 0.985 . S
N521 C523 1.356 . S
N521 H526 0.984 . S
N521 H527 0.985 . S
C522 C516 1.379 . S
C522 C519 1.363 . S
C522 N520 1.356 . S
C523 C517 1.363 . S
C523 C518 1.379 1_655 S
C523 N521 1.356 . S
N524 C516 1.356 1_655 S
N524 H530 0.984 1_655 S
N524 H531 0.984 . S
N525 C518 1.356 . S
N525 H528 0.984 . S
N525 H529 0.985 . S
H526 N521 0.984 . S
H527 N521 0.985 . S
H528 N525 0.984 . S
H529 N525 0.985 . S
H530 N524 0.984 1_455 S
H531 N524 0.984 . S
H532 N520 0.984 . S
H533 N520 0.985 . S
C534 C535 1.363 1_545 S
C534 C540 1.379 . S
C534 N542 1.356 1_545 S
C535 C534 1.363 1_565 S
C535 C541 1.363 1_565 S
C536 C537 1.363 . S
C536 C541 1.379 . S
C536 N543 1.356 . S
C537 C536 1.363 . S
C537 C540 1.363 . S
N538 C540 1.356 . S
N538 H550 0.984 . S
N538 H551 0.985 . S
N539 C541 1.356 1_565 S
N539 H544 0.984 . S
N539 H545 0.985 . S
C540 C534 1.379 . S
C540 C537 1.363 . S
C540 N538 1.356 . S
C541 C535 1.363 1_545 S
C541 C536 1.379 . S
C541 N539 1.356 1_545 S
N542 C534 1.356 1_565 S
N542 H548 0.984 . S
N542 H549 0.984 . S
N543 C536 1.356 . S
N543 H546 0.984 . S
N543 H547 0.985 . S
H544 N539 0.984 . S
H545 N539 0.985 . S
H546 N543 0.984 . S
H547 N543 0.985 . S
H548 N542 0.984 . S
H549 N542 0.984 . S
H550 N538 0.984 . S
H551 N538 0.985 . S
C552 C553 1.363 . S
C552 C558 1.379 . S
C552 N560 1.356 . S
C553 C552 1.363 . S
C553 C559 1.363 . S
C554 C555 1.363 . S
C554 C559 1.379 . S
C554 N561 1.356 . S
C555 C554 1.363 . S
C555 C558 1.363 . S
N556 C558 1.356 . S
N556 H568 0.984 . S
N556 H569 0.985 . S
N557 C559 1.356 . S
N557 H562 0.984 . S
N557 H563 0.985 . S
C558 C552 1.379 . S
C558 C555 1.363 . S
C558 N556 1.356 . S
C559 C553 1.363 . S
C559 C554 1.379 . S
C559 N557 1.356 . S
N560 C552 1.356 . S
N560 H566 0.984 . S
N560 H567 0.984 . S
N561 C554 1.356 . S
N561 H564 0.984 . S
N561 H565 0.985 . S
H562 N557 0.984 . S
H563 N557 0.985 . S
H564 N561 0.984 . S
H565 N561 0.985 . S
H566 N560 0.984 . S
H567 N560 0.984 . S
H568 N556 0.984 . S
H569 N556 0.985 . S
C570 C571 1.363 . S
C570 C576 1.379 . S
C570 N578 1.356 . S
C571 C570 1.363 . S
C571 C577 1.363 . S
C572 C573 1.363 . S
C572 C577 1.379 1_455 S
C572 N579 1.356 . S
C573 C572 1.363 . S
C573 C576 1.363 1_455 S
N574 C576 1.356 . S
N574 H586 0.984 . S
N574 H587 0.985 1_655 S
N575 C577 1.356 . S
N575 H580 0.984 . S
N575 H581 0.985 . S
C576 C570 1.379 . S
C576 C573 1.363 1_655 S
C576 N574 1.356 . S
C577 C571 1.363 . S
C577 C572 1.379 1_655 S
C577 N575 1.356 . S
N578 C570 1.356 . S
N578 H584 0.984 . S
N578 H585 0.984 . S
N579 C572 1.356 . S
N579 H582 0.984 . S
N579 H583 0.985 . S
H580 N575 0.984 . S
H581 N575 0.985 . S
H582 N579 0.984 . S
H583 N579 0.985 . S
H584 N578 0.984 . S
H585 N578 0.984 . S
H586 N574 0.984 . S
H587 N574 0.985 1_455 S
C588 C589 1.363 . S
C588 C594 1.379 1_455 S
C588 N596 1.356 . S
C589 C588 1.363 . S
C589 C595 1.363 . S
C590 C591 1.363 1_455 S
C590 C595 1.379 . S
C590 N597 1.356 . S
C591 C590 1.363 1_655 S
C591 C594 1.363 . S
N592 C594 1.356 . S
N592 H604 0.984 . S
N592 H605 0.985 . S
N593 C595 1.356 . S
N593 H598 0.984 . S
N593 H599 0.985 . S
C594 C588 1.379 1_655 S
C594 C591 1.363 . S
C594 N592 1.356 . S
C595 C589 1.363 . S
C595 C590 1.379 . S
C595 N593 1.356 . S
N596 C588 1.356 . S
N596 H602 0.984 . S
N596 H603 0.984 . S
N597 C590 1.356 . S
N597 H600 0.984 1_455 S
N597 H601 0.985 . S
H598 N593 0.984 . S
H599 N593 0.985 . S
H600 N597 0.984 1_655 S
H601 N597 0.985 . S
H602 N596 0.984 . S
H603 N596 0.984 . S
H604 N592 0.984 . S
H605 N592 0.985 . S
C606 C607 1.363 . S
C606 C612 1.379 1_565 S
C606 N614 1.356 . S
C607 C606 1.363 . S
C607 C613 1.363 1_565 S
C608 C609 1.363 . S
C608 C613 1.379 . S
C608 N615 1.356 . S
C609 C608 1.363 . S
C609 C612 1.363 . S
N610 C612 1.356 . S
N610 H622 0.984 . S
N610 H623 0.985 . S
N611 C613 1.356 1_565 S
N611 H616 0.984 . S
N611 H617 0.985 . S
C612 C606 1.379 1_545 S
C612 C609 1.363 . S
C612 N610 1.356 . S
C613 C607 1.363 1_545 S
C613 C608 1.379 . S
C613 N611 1.356 1_545 S
N614 C606 1.356 . S
N614 H620 0.984 . S
N614 H621 0.984 . S
N615 C608 1.356 . S
N615 H618 0.984 . S
N615 H619 0.985 . S
H616 N611 0.984 . S
H617 N611 0.985 . S
H618 N615 0.984 . S
H619 N615 0.985 . S
H620 N614 0.984 . S
H621 N614 0.984 . S
H622 N610 0.984 . S
H623 N610 0.985 . S
C624 C625 1.363 . S
C624 C630 1.379 . S
C624 N632 1.356 . S
C625 C624 1.363 . S
C625 C631 1.363 . S
C626 C627 1.363 . S
C626 C631 1.379 . S
C626 N633 1.356 . S
C627 C626 1.363 . S
C627 C630 1.363 . S
N628 C630 1.356 . S
N628 H640 0.984 . S
N628 H641 0.985 . S
N629 C631 1.356 . S
N629 H634 0.984 . S
N629 H635 0.985 . S
C630 C624 1.379 . S
C630 C627 1.363 . S
C630 N628 1.356 . S
C631 C625 1.363 . S
C631 C626 1.379 . S
C631 N629 1.356 . S
N632 C624 1.356 . S
N632 H638 0.984 . S
N632 H639 0.984 . S
N633 C626 1.356 . S
N633 H636 0.984 . S
N633 H637 0.985 . S
H634 N629 0.984 . S
H635 N629 0.985 . S
H636 N633 0.984 . S
H637 N633 0.985 . S
H638 N632 0.984 . S
H639 N632 0.984 . S
H640 N628 0.984 . S
H641 N628 0.985 . S
C642 C643 1.363 1_655 S
C642 C648 1.379 . S
C642 N650 1.356 . S
C643 C642 1.363 1_455 S
C643 C649 1.363 . S
C644 C645 1.363 . S
C644 C649 1.379 1_655 S
C644 N651 1.356 . S
C645 C644 1.363 . S
C645 C648 1.363 . S
N646 C648 1.356 . S
N646 H658 0.984 . S
N646 H659 0.985 . S
N647 C649 1.356 . S
N647 H652 0.984 . S
N647 H653 0.985 . S
C648 C642 1.379 . S
C648 C645 1.363 . S
C648 N646 1.356 . S
C649 C643 1.363 . S
C649 C644 1.379 1_455 S
C649 N647 1.356 . S
N650 C642 1.356 . S
N650 H656 0.984 . S
N650 H657 0.984 1_655 S
N651 C644 1.356 . S
N651 H654 0.984 . S
N651 H655 0.985 . S
H652 N647 0.984 . S
H653 N647 0.985 . S
H654 N651 0.984 . S
H655 N651 0.985 . S
H656 N650 0.984 . S
H657 N650 0.984 1_455 S
H658 N646 0.984 . S
H659 N646 0.985 . S
C660 C661 1.363 1_565 S
C660 C666 1.379 . S
C660 N668 1.356 1_565 S
C661 C660 1.363 1_545 S
C661 C667 1.363 . S
C662 C663 1.363 . S
C662 C667 1.379 1_565 S
C662 N669 1.356 . S
C663 C662 1.363 . S
C663 C666 1.363 . S
N664 C666 1.356 . S
N664 H676 0.984 . S
N664 H677 0.985 . S
N665 C667 1.356 . S
N665 H670 0.984 . S
N665 H671 0.985 . S
C666 C660 1.379 . S
C666 C663 1.363 . S
C666 N664 1.356 . S
C667 C661 1.363 . S
C667 C662 1.379 1_545 S
C667 N665 1.356 . S
N668 C660 1.356 1_545 S
N668 H674 0.984 . S
N668 H675 0.984 . S
N669 C662 1.356 . S
N669 H672 0.984 . S
N669 H673 0.985 . S
H670 N665 0.984 . S
H671 N665 0.985 . S
H672 N669 0.984 . S
H673 N669 0.985 . S
H674 N668 0.984 . S
H675 N668 0.984 . S
H676 N664 0.984 . S
H677 N664 0.985 . S
C678 C679 1.363 . S
C678 C684 1.379 . S
C678 N686 1.356 . S
C679 C678 1.363 . S
C679 C685 1.363 . S
C680 C681 1.363 . S
C680 C685 1.379 . S
C680 N687 1.356 . S
C681 C680 1.363 . S
C681 C684 1.363 . S
N682 C684 1.356 . S
N682 H694 0.984 . S
N682 H695 0.985 . S
N683 C685 1.356 . S
N683 H688 0.984 . S
N683 H689 0.985 . S
C684 C678 1.379 . S
C684 C681 1.363 . S
C684 N682 1.356 . S
C685 C679 1.363 . S
C685 C680 1.379 . S
C685 N683 1.356 . S
N686 C678 1.356 . S
N686 H692 0.984 . S
N686 H693 0.984 . S
N687 C680 1.356 . S
N687 H690 0.984 . S
N687 H691 0.985 . S
H688 N683 0.984 . S
H689 N683 0.985 . S
H690 N687 0.984 . S
H691 N687 0.985 . S
H692 N686 0.984 . S
H693 N686 0.984 . S
H694 N682 0.984 . S
H695 N682 0.985 . S
C696 C697 1.363 . S
C696 C702 1.379 . S
C696 N704 1.356 . S
C697 C696 1.363 . S
C697 C703 1.363 . S
C698 C699 1.363 . S
C698 C703 1.379 . S
C698 N705 1.356 . S
C699 C698 1.363 . S
C699 C702 1.363 . S
N700 C702 1.356 . S
N700 H712 0.984 . S
N700 H713 0.985 . S
N701 C703 1.356 . S
N701 H706 0.984 . S
N701 H707 0.985 . S
C702 C696 1.379 . S
C702 C699 1.363 . S
C702 N700 1.356 . S
C703 C697 1.363 . S
C703 C698 1.379 . S
C703 N701 1.356 . S
N704 C696 1.356 . S
N704 H710 0.984 . S
N704 H711 0.984 . S
N705 C698 1.356 . S
N705 H708 0.984 . S
N705 H709 0.985 . S
H706 N701 0.984 . S
H707 N701 0.985 . S
H708 N705 0.984 . S
H709 N705 0.985 . S
H710 N704 0.984 . S
H711 N704 0.984 . S
H712 N700 0.984 . S
H713 N700 0.985 . S
C714 C715 1.363 . S
C714 C720 1.379 . S
C714 N722 1.356 . S
C715 C714 1.363 . S
C715 C721 1.363 . S
C716 C717 1.363 . S
C716 C721 1.379 . S
C716 N723 1.356 . S
C717 C716 1.363 . S
C717 C720 1.363 . S
N718 C720 1.356 . S
N718 H730 0.984 . S
N718 H731 0.985 . S
N719 C721 1.356 . S
N719 H724 0.984 . S
N719 H725 0.985 . S
C720 C714 1.379 . S
C720 C717 1.363 . S
C720 N718 1.356 . S
C721 C715 1.363 . S
C721 C716 1.379 . S
C721 N719 1.356 . S
N722 C714 1.356 . S
N722 H728 0.984 . S
N722 H729 0.984 . S
N723 C716 1.356 . S
N723 H726 0.984 . S
N723 H727 0.985 . S
H724 N719 0.984 . S
H725 N719 0.985 . S
H726 N723 0.984 . S
H727 N723 0.985 . S
H728 N722 0.984 . S
H729 N722 0.984 . S
H730 N718 0.984 . S
H731 N718 0.985 . S
C732 C733 1.363 . S
C732 C738 1.379 . S
C732 N740 1.356 . S
C733 C732 1.363 . S
C733 C739 1.363 . S
C734 C735 1.363 . S
C734 C739 1.379 . S
C734 N741 1.356 . S
C735 C734 1.363 . S
C735 C738 1.363 . S
N736 C738 1.356 . S
N736 H748 0.984 . S
N736 H749 0.985 . S
N737 C739 1.356 . S
N737 H742 0.984 . S
N737 H743 0.985 . S
C738 C732 1.379 . S
C738 C735 1.363 . S
C738 N736 1.356 . S
C739 C733 1.363 . S
C739 C734 1.379 . S
C739 N737 1.356 . S
N740 C732 1.356 . S
N740 H746 0.984 . S
N740 H747 0.984 . S
N741 C734 1.356 . S
N741 H744 0.984 . S
N741 H745 0.985 . S
H742 N737 0.984 . S
H743 N737 0.985 . S
H744 N741 0.984 . S
H745 N741 0.985 . S
H746 N740 0.984 . S
H747 N740 0.984 . S
H748 N736 0.984 . S
H749 N736 0.985 . S
C750 C751 1.363 . S
C750 C756 1.379 . S
C750 N758 1.356 . S
C751 C750 1.363 . S
C751 C757 1.363 . S
C752 C753 1.363 . S
C752 C757 1.379 . S
C752 N759 1.356 . S
C753 C752 1.363 . S
C753 C756 1.363 . S
N754 C756 1.356 . S
N754 H766 0.984 . S
N754 H767 0.985 . S
N755 C757 1.356 . S
N755 H760 0.984 . S
N755 H761 0.985 . S
C756 C750 1.379 . S
C756 C753 1.363 . S
C756 N754 1.356 . S
C757 C751 1.363 . S
C757 C752 1.379 . S
C757 N755 1.356 . S
N758 C750 1.356 . S
N758 H764 0.984 . S
N758 H765 0.984 . S
N759 C752 1.356 . S
N759 H762 0.984 . S
N759 H763 0.985 . S
H760 N755 0.984 . S
H761 N755 0.985 . S
H762 N759 0.984 . S
H763 N759 0.985 . S
H764 N758 0.984 . S
H765 N758 0.984 . S
H766 N754 0.984 . S
H767 N754 0.985 . S
C768 C769 1.363 . S
C768 C774 1.379 . S
C768 N776 1.356 . S
C769 C768 1.363 . S
C769 C775 1.363 . S
C770 C771 1.363 . S
C770 C775 1.379 . S
C770 N777 1.356 . S
C771 C770 1.363 . S
C771 C774 1.363 . S
N772 C774 1.356 . S
N772 H784 0.984 . S
N772 H785 0.985 . S
N773 C775 1.356 . S
N773 H778 0.984 . S
N773 H779 0.985 . S
C774 C768 1.379 . S
C774 C771 1.363 . S
C774 N772 1.356 . S
C775 C769 1.363 . S
C775 C770 1.379 . S
C775 N773 1.356 . S
N776 C768 1.356 . S
N776 H782 0.984 . S
N776 H783 0.984 . S
N777 C770 1.356 . S
N777 H780 0.984 . S
N777 H781 0.985 . S
H778 N773 0.984 . S
H779 N773 0.985 . S
H780 N777 0.984 . S
H781 N777 0.985 . S
H782 N776 0.984 . S
H783 N776 0.984 . S
H784 N772 0.984 . S
H785 N772 0.985 . S
C786 C787 1.363 . S
C786 C792 1.379 . S
C786 N794 1.356 . S
C787 C786 1.363 . S
C787 C793 1.363 . S
C788 C789 1.363 . S
C788 C793 1.379 . S
C788 N795 1.356 . S
C789 C788 1.363 . S
C789 C792 1.363 . S
N790 C792 1.356 . S
N790 H802 0.984 . S
N790 H803 0.985 . S
N791 C793 1.356 . S
N791 H796 0.984 . S
N791 H797 0.985 . S
C792 C786 1.379 . S
C792 C789 1.363 . S
C792 N790 1.356 . S
C793 C787 1.363 . S
C793 C788 1.379 . S
C793 N791 1.356 . S
N794 C786 1.356 . S
N794 H800 0.984 . S
N794 H801 0.984 . S
N795 C788 1.356 . S
N795 H798 0.984 . S
N795 H799 0.985 . S
H796 N791 0.984 . S
H797 N791 0.985 . S
H798 N795 0.984 . S
H799 N795 0.985 . S
H800 N794 0.984 . S
H801 N794 0.984 . S
H802 N790 0.984 . S
H803 N790 0.985 . S
C804 C805 1.363 . S
C804 C810 1.379 . S
C804 N812 1.356 . S
C805 C804 1.363 . S
C805 C811 1.363 . S
C806 C807 1.363 . S
C806 C811 1.379 . S
C806 N813 1.356 . S
C807 C806 1.363 . S
C807 C810 1.363 . S
N808 C810 1.356 . S
N808 H820 0.984 . S
N808 H821 0.985 . S
N809 C811 1.356 . S
N809 H814 0.984 . S
N809 H815 0.985 . S
C810 C804 1.379 . S
C810 C807 1.363 . S
C810 N808 1.356 . S
C811 C805 1.363 . S
C811 C806 1.379 . S
C811 N809 1.356 . S
N812 C804 1.356 . S
N812 H818 0.984 . S
N812 H819 0.984 . S
N813 C806 1.356 . S
N813 H816 0.984 . S
N813 H817 0.985 . S
H814 N809 0.984 . S
H815 N809 0.985 . S
H816 N813 0.984 . S
H817 N813 0.985 . S
H818 N812 0.984 . S
H819 N812 0.984 . S
H820 N808 0.984 . S
H821 N808 0.985 . S
C822 C823 1.363 . S
C822 C828 1.379 . S
C822 N830 1.356 . S
C823 C822 1.363 . S
C823 C829 1.363 . S
C824 C825 1.363 . S
C824 C829 1.379 . S
C824 N831 1.356 . S
C825 C824 1.363 . S
C825 C828 1.363 . S
N826 C828 1.356 . S
N826 H838 0.984 . S
N826 H839 0.985 . S
N827 C829 1.356 . S
N827 H832 0.984 . S
N827 H833 0.985 . S
C828 C822 1.379 . S
C828 C825 1.363 . S
C828 N826 1.356 . S
C829 C823 1.363 . S
C829 C824 1.379 . S
C829 N827 1.356 . S
N830 C822 1.356 . S
N830 H836 0.984 . S
N830 H837 0.984 . S
N831 C824 1.356 . S
N831 H834 0.984 . S
N831 H835 0.985 . S
H832 N827 0.984 . S
H833 N827 0.985 . S
H834 N831 0.984 . S
H835 N831 0.985 . S
H836 N830 0.984 . S
H837 N830 0.984 . S
H838 N826 0.984 . S
H839 N826 0.985 . S
C840 C841 1.363 . S
C840 C846 1.379 . S
C840 N848 1.356 . S
C841 C840 1.363 . S
C841 C847 1.363 . S
C842 C843 1.363 . S
C842 C847 1.379 . S
C842 N849 1.356 . S
C843 C842 1.363 . S
C843 C846 1.363 . S
N844 C846 1.356 . S
N844 H856 0.984 . S
N844 H857 0.985 . S
N845 C847 1.356 . S
N845 H850 0.984 . S
N845 H851 0.985 . S
C846 C840 1.379 . S
C846 C843 1.363 . S
C846 N844 1.356 . S
C847 C841 1.363 . S
C847 C842 1.379 . S
C847 N845 1.356 . S
N848 C840 1.356 . S
N848 H854 0.984 . S
N848 H855 0.984 . S
N849 C842 1.356 . S
N849 H852 0.984 . S
N849 H853 0.985 . S
H850 N845 0.984 . S
H851 N845 0.985 . S
H852 N849 0.984 . S
H853 N849 0.985 . S
H854 N848 0.984 . S
H855 N848 0.984 . S
H856 N844 0.984 . S
H857 N844 0.985 . S
C858 C859 1.363 . S
C858 C864 1.379 . S
C858 N866 1.356 . S
C859 C858 1.363 . S
C859 C865 1.363 . S
C860 C861 1.363 . S
C860 C865 1.379 . S
C860 N867 1.356 . S
C861 C860 1.363 . S
C861 C864 1.363 . S
N862 C864 1.356 . S
N862 H874 0.984 . S
N862 H875 0.985 . S
N863 C865 1.356 . S
N863 H868 0.984 . S
N863 H869 0.985 . S
C864 C858 1.379 . S
C864 C861 1.363 . S
C864 N862 1.356 . S
C865 C859 1.363 . S
C865 C860 1.379 . S
C865 N863 1.356 . S
N866 C858 1.356 . S
N866 H872 0.984 . S
N866 H873 0.984 . S
N867 C860 1.356 . S
N867 H870 0.984 . S
N867 H871 0.985 . S
H868 N863 0.984 . S
H869 N863 0.985 . S
H870 N867 0.984 . S
H871 N867 0.985 . S
H872 N866 0.984 . S
H873 N866 0.984 . S
H874 N862 0.984 . S
H875 N862 0.985 . S
C876 C877 1.363 . S
C876 C882 1.379 . S
C876 N884 1.356 . S
C877 C876 1.363 . S
C877 C883 1.363 . S
C878 C879 1.363 . S
C878 C883 1.379 . S
C878 N885 1.356 . S
C879 C878 1.363 . S
C879 C882 1.363 . S
N880 C882 1.356 . S
N880 H892 0.984 . S
N880 H893 0.985 . S
N881 C883 1.356 . S
N881 H886 0.984 . S
N881 H887 0.985 . S
C882 C876 1.379 . S
C882 C879 1.363 . S
C882 N880 1.356 . S
C883 C877 1.363 . S
C883 C878 1.379 . S
C883 N881 1.356 . S
N884 C876 1.356 . S
N884 H890 0.984 . S
N884 H891 0.984 . S
N885 C878 1.356 . S
N885 H888 0.984 . S
N885 H889 0.985 . S
H886 N881 0.984 . S
H887 N881 0.985 . S
H888 N885 0.984 . S
H889 N885 0.985 . S
H890 N884 0.984 . S
H891 N884 0.984 . S
H892 N880 0.984 . S
H893 N880 0.985 . S
C894 C895 1.363 . S
C894 C900 1.379 . S
C894 N902 1.356 . S
C895 C894 1.363 . S
C895 C901 1.363 . S
C896 C897 1.363 . S
C896 C901 1.379 . S
C896 N903 1.356 . S
C897 C896 1.363 . S
C897 C900 1.363 . S
N898 C900 1.356 . S
N898 H910 0.984 . S
N898 H911 0.985 . S
N899 C901 1.356 . S
N899 H904 0.984 . S
N899 H905 0.985 . S
C900 C894 1.379 . S
C900 C897 1.363 . S
C900 N898 1.356 . S
C901 C895 1.363 . S
C901 C896 1.379 . S
C901 N899 1.356 . S
N902 C894 1.356 . S
N902 H908 0.984 . S
N902 H909 0.984 . S
N903 C896 1.356 . S
N903 H906 0.984 . S
N903 H907 0.985 . S
H904 N899 0.984 . S
H905 N899 0.985 . S
H906 N903 0.984 . S
H907 N903 0.985 . S
H908 N902 0.984 . S
H909 N902 0.984 . S
H910 N898 0.984 . S
H911 N898 0.985 . S
C912 C913 1.363 . S
C912 C918 1.379 . S
C912 N920 1.356 . S
C913 C912 1.363 . S
C913 C919 1.363 . S
C914 C915 1.363 . S
C914 C919 1.379 . S
C914 N921 1.356 . S
C915 C914 1.363 . S
C915 C918 1.363 . S
N916 C918 1.356 . S
N916 H928 0.984 . S
N916 H929 0.985 . S
N917 C919 1.356 . S
N917 H922 0.984 . S
N917 H923 0.985 . S
C918 C912 1.379 . S
C918 C915 1.363 . S
C918 N916 1.356 . S
C919 C913 1.363 . S
C919 C914 1.379 . S
C919 N917 1.356 . S
N920 C912 1.356 . S
N920 H926 0.984 . S
N920 H927 0.984 . S
N921 C914 1.356 . S
N921 H924 0.984 . S
N921 H925 0.985 . S
H922 N917 0.984 . S
H923 N917 0.985 . S
H924 N921 0.984 . S
H925 N921 0.985 . S
H926 N920 0.984 . S
H927 N920 0.984 . S
H928 N916 0.984 . S
H929 N916 0.985 . S
C930 C931 1.363 . S
C930 C936 1.379 . S
C930 N938 1.356 . S
C931 C930 1.363 . S
C931 C937 1.363 . S
C932 C933 1.363 . S
C932 C937 1.379 . S
C932 N939 1.356 . S
C933 C932 1.363 . S
C933 C936 1.363 . S
N934 C936 1.356 . S
N934 H946 0.984 . S
N934 H947 0.985 . S
N935 C937 1.356 . S
N935 H940 0.984 . S
N935 H941 0.985 . S
C936 C930 1.379 . S
C936 C933 1.363 . S
C936 N934 1.356 . S
C937 C931 1.363 . S
C937 C932 1.379 . S
C937 N935 1.356 . S
N938 C930 1.356 . S
N938 H944 0.984 . S
N938 H945 0.984 . S
N939 C932 1.356 . S
N939 H942 0.984 . S
N939 H943 0.985 . S
H940 N935 0.984 . S
H941 N935 0.985 . S
H942 N939 0.984 . S
H943 N939 0.985 . S
H944 N938 0.984 . S
H945 N938 0.984 . S
H946 N934 0.984 . S
H947 N934 0.985 . S
C948 C949 1.363 . S
C948 C954 1.379 . S
C948 N956 1.356 . S
C949 C948 1.363 . S
C949 C955 1.363 . S
C950 C951 1.363 . S
C950 C955 1.379 . S
C950 N957 1.356 . S
C951 C950 1.363 . S
C951 C954 1.363 . S
N952 C954 1.356 . S
N952 H964 0.984 . S
N952 H965 0.985 . S
N953 C955 1.356 . S
N953 H958 0.984 . S
N953 H959 0.985 . S
C954 C948 1.379 . S
C954 C951 1.363 . S
C954 N952 1.356 . S
C955 C949 1.363 . S
C955 C950 1.379 . S
C955 N953 1.356 . S
N956 C948 1.356 . S
N956 H962 0.984 . S
N956 H963 0.984 . S
N957 C950 1.356 . S
N957 H960 0.984 . S
N957 H961 0.985 . S
H958 N953 0.984 . S
H959 N953 0.985 . S
H960 N957 0.984 . S
H961 N957 0.985 . S
H962 N956 0.984 . S
H963 N956 0.984 . S
H964 N952 0.984 . S
H965 N952 0.985 . S
C966 C967 1.363 . S
C966 C972 1.379 . S
C966 N974 1.356 . S
C967 C966 1.363 . S
C967 C973 1.363 . S
C968 C969 1.363 . S
C968 C973 1.379 . S
C968 N975 1.356 . S
C969 C968 1.363 . S
C969 C972 1.363 . S
N970 C972 1.356 . S
N970 H982 0.984 . S
N970 H983 0.985 . S
N971 C973 1.356 . S
N971 H976 0.984 . S
N971 H977 0.985 . S
C972 C966 1.379 . S
C972 C969 1.363 . S
C972 N970 1.356 . S
C973 C967 1.363 . S
C973 C968 1.379 . S
C973 N971 1.356 . S
N974 C966 1.356 . S
N974 H980 0.984 . S
N974 H981 0.984 . S
N975 C968 1.356 . S
N975 H978 0.984 . S
N975 H979 0.985 . S
H976 N971 0.984 . S
H977 N971 0.985 . S
H978 N975 0.984 . S
H979 N975 0.985 . S
H980 N974 0.984 . S
H981 N974 0.984 . S
H982 N970 0.984 . S
H983 N970 0.985 . S
C984 C985 1.363 . S
C984 C990 1.379 . S
C984 N992 1.356 . S
C985 C984 1.363 . S
C985 C991 1.363 . S
C986 C987 1.363 . S
C986 C991 1.379 . S
C986 N993 1.356 . S
C987 C986 1.363 . S
C987 C990 1.363 . S
N988 C990 1.356 . S
N988 H1000 0.984 . S
N988 H1001 0.985 . S
N989 C991 1.356 . S
N989 H994 0.984 . S
N989 H995 0.985 . S
C990 C984 1.379 . S
C990 C987 1.363 . S
C990 N988 1.356 . S
C991 C985 1.363 . S
C991 C986 1.379 . S
C991 N989 1.356 . S
N992 C984 1.356 . S
N992 H998 0.984 . S
N992 H999 0.984 . S
N993 C986 1.356 . S
N993 H996 0.984 . S
N993 H997 0.985 . S
H994 N989 0.984 . S
H995 N989 0.985 . S
H996 N993 0.984 . S
H997 N993 0.985 . S
H998 N992 0.984 . S
H999 N992 0.984 . S
H1000 N988 0.984 . S
H1001 N988 0.985 . S
C1002 C1003 1.363 . S
C1002 C1008 1.379 . S
C1002 N1010 1.356 . S
C1003 C1002 1.363 . S
C1003 C1009 1.363 . S
C1004 C1005 1.363 . S
C1004 C1009 1.379 . S
C1004 N1011 1.356 . S
C1005 C1004 1.363 . S
C1005 C1008 1.363 . S
N1006 C1008 1.356 . S
N1006 H1018 0.984 . S
N1006 H1019 0.985 . S
N1007 C1009 1.356 . S
N1007 H1012 0.984 . S
N1007 H1013 0.985 . S
C1008 C1002 1.379 . S
C1008 C1005 1.363 . S
C1008 N1006 1.356 . S
C1009 C1003 1.363 . S
C1009 C1004 1.379 . S
C1009 N1007 1.356 . S
N1010 C1002 1.356 . S
N1010 H1016 0.984 . S
N1010 H1017 0.984 . S
N1011 C1004 1.356 . S
N1011 H1014 0.984 . S
N1011 H1015 0.985 . S
H1012 N1007 0.984 . S
H1013 N1007 0.985 . S
H1014 N1011 0.984 . S
H1015 N1011 0.985 . S
H1016 N1010 0.984 . S
H1017 N1010 0.984 . S
H1018 N1006 0.984 . S
H1019 N1006 0.985 . S
C1020 C1021 1.363 1_554 S
C1020 C1026 1.379 . S
C1020 N1028 1.356 . S
C1021 C1020 1.363 1_556 S
C1021 C1027 1.363 . S
C1022 C1023 1.363 1_556 S
C1022 C1027 1.379 . S
C1022 N1029 1.356 . S
C1023 C1022 1.363 1_554 S
C1023 C1026 1.363 . S
N1024 C1026 1.356 . S
N1024 H1036 0.984 . S
N1024 H1037 0.985 . S
N1025 C1027 1.356 . S
N1025 H1030 0.984 . S
N1025 H1031 0.985 . S
C1026 C1020 1.379 . S
C1026 C1023 1.363 . S
C1026 N1024 1.356 . S
C1027 C1021 1.363 . S
C1027 C1022 1.379 . S
C1027 N1025 1.356 . S
N1028 C1020 1.356 . S
N1028 H1034 0.984 . S
N1028 H1035 0.984 . S
N1029 C1022 1.356 . S
N1029 H1032 0.984 . S
N1029 H1033 0.985 . S
H1030 N1025 0.984 . S
H1031 N1025 0.985 . S
H1032 N1029 0.984 . S
H1033 N1029 0.985 . S
H1034 N1028 0.984 . S
H1035 N1028 0.984 . S
H1036 N1024 0.984 . S
H1037 N1024 0.985 . S
C1038 C1039 1.363 . S
C1038 C1044 1.379 1_455 S
C1038 N1046 1.356 . S
C1039 C1038 1.363 . S
C1039 C1045 1.363 . S
C1040 C1041 1.363 . S
C1040 C1045 1.379 1_655 S
C1040 N1047 1.356 . S
C1041 C1040 1.363 . S
C1041 C1044 1.363 . S
N1042 C1044 1.356 . S
N1042 H1054 0.984 . S
N1042 H1055 0.985 . S
N1043 C1045 1.356 . S
N1043 H1048 0.984 . S
N1043 H1049 0.985 . S
C1044 C1038 1.379 1_655 S
C1044 C1041 1.363 . S
C1044 N1042 1.356 . S
C1045 C1039 1.363 . S
C1045 C1040 1.379 1_455 S
C1045 N1043 1.356 . S
N1046 C1038 1.356 . S
N1046 H1052 0.984 . S
N1046 H1053 0.984 . S
N1047 C1040 1.356 . S
N1047 H1050 0.984 . S
N1047 H1051 0.985 . S
H1048 N1043 0.984 . S
H1049 N1043 0.985 . S
H1050 N1047 0.984 . S
H1051 N1047 0.985 . S
H1052 N1046 0.984 . S
H1053 N1046 0.984 . S
H1054 N1042 0.984 . S
H1055 N1042 0.985 . S
C1056 C1057 1.363 1_556 S
C1056 C1062 1.379 1_565 S
C1056 N1064 1.356 . S
C1057 C1056 1.363 1_554 S
C1057 C1063 1.363 . S
C1058 C1059 1.363 1_554 S
C1058 C1063 1.379 1_545 S
C1058 N1065 1.356 . S
C1059 C1058 1.363 1_556 S
C1059 C1062 1.363 . S
N1060 C1062 1.356 . S
N1060 H1072 0.984 . S
N1060 H1073 0.985 . S
N1061 C1063 1.356 . S
N1061 H1066 0.984 . S
N1061 H1067 0.985 . S
C1062 C1056 1.379 1_545 S
C1062 C1059 1.363 . S
C1062 N1060 1.356 . S
C1063 C1057 1.363 . S
C1063 C1058 1.379 1_565 S
C1063 N1061 1.356 . S
N1064 C1056 1.356 . S
N1064 H1070 0.984 . S
N1064 H1071 0.984 . S
N1065 C1058 1.356 . S
N1065 H1068 0.984 . S
N1065 H1069 0.985 . S
H1066 N1061 0.984 . S
H1067 N1061 0.985 . S
H1068 N1065 0.984 . S
H1069 N1065 0.985 . S
H1070 N1064 0.984 . S
H1071 N1064 0.984 . S
H1072 N1060 0.984 . S
H1073 N1060 0.985 . S
C1074 C1075 1.363 . S
C1074 C1080 1.379 . S
C1074 N1082 1.356 . S
C1075 C1074 1.363 . S
C1075 C1081 1.363 . S
C1076 C1077 1.363 . S
C1076 C1081 1.379 . S
C1076 N1083 1.356 . S
C1077 C1076 1.363 . S
C1077 C1080 1.363 . S
N1078 C1080 1.356 . S
N1078 H1090 0.984 . S
N1078 H1091 0.985 . S
N1079 C1081 1.356 . S
N1079 H1084 0.984 . S
N1079 H1085 0.985 . S
C1080 C1074 1.379 . S
C1080 C1077 1.363 . S
C1080 N1078 1.356 . S
C1081 C1075 1.363 . S
C1081 C1076 1.379 . S
C1081 N1079 1.356 . S
N1082 C1074 1.356 . S
N1082 H1088 0.984 . S
N1082 H1089 0.984 . S
N1083 C1076 1.356 . S
N1083 H1086 0.984 . S
N1083 H1087 0.985 . S
H1084 N1079 0.984 . S
H1085 N1079 0.985 . S
H1086 N1083 0.984 . S
H1087 N1083 0.985 . S
H1088 N1082 0.984 . S
H1089 N1082 0.984 . S
H1090 N1078 0.984 . S
H1091 N1078 0.985 . S
C1092 C1093 1.363 1_554 S
C1092 C1098 1.379 1_655 S
C1092 N1100 1.356 . S
C1093 C1092 1.363 1_556 S
C1093 C1099 1.363 . S
C1094 C1095 1.363 1_556 S
C1094 C1099 1.379 1_455 S
C1094 N1101 1.356 . S
C1095 C1094 1.363 1_554 S
C1095 C1098 1.363 . S
N1096 C1098 1.356 . S
N1096 H1108 0.984 . S
N1096 H1109 0.985 . S
N1097 C1099 1.356 . S
N1097 H1102 0.984 . S
N1097 H1103 0.985 . S
C1098 C1092 1.379 1_455 S
C1098 C1095 1.363 . S
C1098 N1096 1.356 . S
C1099 C1093 1.363 . S
C1099 C1094 1.379 1_655 S
C1099 N1097 1.356 . S
N1100 C1092 1.356 . S
N1100 H1106 0.984 . S
N1100 H1107 0.984 . S
N1101 C1094 1.356 . S
N1101 H1104 0.984 . S
N1101 H1105 0.985 . S
H1102 N1097 0.984 . S
H1103 N1097 0.985 . S
H1104 N1101 0.984 . S
H1105 N1101 0.985 . S
H1106 N1100 0.984 . S
H1107 N1100 0.984 . S
H1108 N1096 0.984 . S
H1109 N1096 0.985 . S
C1110 C1111 1.363 . S
C1110 C1116 1.379 1_565 S
C1110 N1118 1.356 . S
C1111 C1110 1.363 . S
C1111 C1117 1.363 . S
C1112 C1113 1.363 . S
C1112 C1117 1.379 1_545 S
C1112 N1119 1.356 . S
C1113 C1112 1.363 . S
C1113 C1116 1.363 . S
N1114 C1116 1.356 . S
N1114 H1126 0.984 . S
N1114 H1127 0.985 . S
N1115 C1117 1.356 . S
N1115 H1120 0.984 . S
N1115 H1121 0.985 . S
C1116 C1110 1.379 1_545 S
C1116 C1113 1.363 . S
C1116 N1114 1.356 . S
C1117 C1111 1.363 . S
C1117 C1112 1.379 1_565 S
C1117 N1115 1.356 . S
N1118 C1110 1.356 . S
N1118 H1124 0.984 . S
N1118 H1125 0.984 . S
N1119 C1112 1.356 . S
N1119 H1122 0.984 . S
N1119 H1123 0.985 . S
H1120 N1115 0.984 . S
H1121 N1115 0.985 . S
H1122 N1119 0.984 . S
H1123 N1119 0.985 . S
H1124 N1118 0.984 . S
H1125 N1118 0.984 . S
H1126 N1114 0.984 . S
H1127 N1114 0.985 . S
C481 C171 1.413 . S
C483 C16 1.480 . S
C499 C211 1.413 . S
C501 C56 1.479 . S
C517 C96 1.480 . S
C519 C11 1.413 . S
C535 C136 1.480 . S
C537 C51 1.413 . S
C553 C176 1.479 . S
C555 C91 1.413 . S
C571 C131 1.413 . S
C573 C216 1.480 . S
C589 C331 1.413 . S
C591 C256 1.480 . S
C607 C296 1.480 . S
C609 C371 1.413 . S
C625 C411 1.413 . S
C627 C336 1.479 . S
C643 C376 1.480 . S
C645 C451 1.413 . S
C661 C416 1.480 . S
C663 C251 1.413 . S
C679 C291 1.413 . S
C681 C456 1.479 . S
C697 C162 1.877 . S
C699 C7 1.857 . S
C715 C47 1.858 . S
C717 C202 1.877 . S
C733 C87 1.858 . S
C735 C2 1.877 . S
C751 C127 1.857 . S
C753 C42 1.877 . S
C769 C82 1.877 . S
C771 C167 1.858 . S
C787 C122 1.877 . S
C789 C207 1.858 . S
C805 C322 1.877 . S
C807 C247 1.857 . S
C823 C287 1.858 . S
C825 C362 1.877 . S
C841 C327 1.858 . S
C843 C402 1.877 . S
C859 C442 1.877 . S
C861 C367 1.857 . S
C877 C407 1.858 . S
C879 C242 1.877 . S
C895 C282 1.877 . S
C897 C447 1.858 . S
C913 C419 1.610 . S
C915 C19 1.610 . S
C931 C59 1.610 . S
C933 C459 1.610 . S
C949 C99 1.610 . S
C951 C259 1.610 . S
C967 C139 1.610 . S
C969 C299 1.610 . S
C985 C179 1.610 . S
C987 C339 1.610 . S
C1003 C379 1.610 . S
C1005 C219 1.610 . S
C1021 C370 2.431 . S
C1023 C10 2.431 . S
C1039 C410 2.431 . S
C1041 C50 2.431 . S
C1057 C90 2.431 . S
C1059 C450 2.431 . S
C1075 C130 2.431 . S
C1077 C250 2.431 . S
C1093 C290 2.431 . S
C1095 C170 2.431 . S
C1111 C330 2.431 . S
C1113 C210 2.431 . S
