# Generated by pormake.
# Topology nfb, (4)-cn, num edge types: 1
# Building blocks:
#     Node 0, Type 0, BuildingBlock: GALJAG_clean_sbu_0, # of connection points: 4
#     Node 1, Type 0, BuildingBlock: GALJAG_clean_sbu_0, # of connection points: 4
#     Node 2, Type 0, BuildingBlock: GALJAG_clean_sbu_0, # of connection points: 4
#     Node 3, Type 0, BuildingBlock: GALJAG_clean_sbu_0, # of connection points: 4
#     Node 4, Type 0, BuildingBlock: GALJAG_clean_sbu_0, # of connection points: 4
#     Node 5, Type 0, BuildingBlock: GALJAG_clean_sbu_0, # of connection points: 4
#     Node 6, Type 0, BuildingBlock: GALJAG_clean_sbu_0, # of connection points: 4
#     Node 7, Type 0, BuildingBlock: GALJAG_clean_sbu_0, # of connection points: 4
#     Node 8, Type 0, BuildingBlock: GALJAG_clean_sbu_0, # of connection points: 4
#     Node 9, Type 0, BuildingBlock: GALJAG_clean_sbu_0, # of connection points: 4
#     Node 10, Type 0, BuildingBlock: GALJAG_clean_sbu_0, # of connection points: 4
#     Node 11, Type 0, BuildingBlock: GALJAG_clean_sbu_0, # of connection points: 4
#     Node 12, Type 0, BuildingBlock: GALJAG_clean_sbu_0, # of connection points: 4
#     Node 13, Type 0, BuildingBlock: GALJAG_clean_sbu_0, # of connection points: 4
#     Node 14, Type 0, BuildingBlock: GALJAG_clean_sbu_0, # of connection points: 4
#     Node 15, Type 0, BuildingBlock: GALJAG_clean_sbu_0, # of connection points: 4
#     Node 16, Type 0, BuildingBlock: GALJAG_clean_sbu_0, # of connection points: 4
#     Node 17, Type 0, BuildingBlock: GALJAG_clean_sbu_0, # of connection points: 4
#     Node 18, Type 0, BuildingBlock: GALJAG_clean_sbu_0, # of connection points: 4
#     Node 19, Type 0, BuildingBlock: GALJAG_clean_sbu_0, # of connection points: 4
#     Node 20, Type 0, BuildingBlock: GALJAG_clean_sbu_0, # of connection points: 4
#     Node 21, Type 0, BuildingBlock: GALJAG_clean_sbu_0, # of connection points: 4
#     Node 22, Type 0, BuildingBlock: GALJAG_clean_sbu_0, # of connection points: 4
#     Node 23, Type 0, BuildingBlock: GALJAG_clean_sbu_0, # of connection points: 4
#     Node 24, Type 0, BuildingBlock: GALJAG_clean_sbu_0, # of connection points: 4
#     Node 25, Type 0, BuildingBlock: GALJAG_clean_sbu_0, # of connection points: 4
#     Node 26, Type 0, BuildingBlock: GALJAG_clean_sbu_0, # of connection points: 4
#     Node 27, Type 0, BuildingBlock: GALJAG_clean_sbu_0, # of connection points: 4
#     Node 28, Type 0, BuildingBlock: GALJAG_clean_sbu_0, # of connection points: 4
#     Node 29, Type 0, BuildingBlock: GALJAG_clean_sbu_0, # of connection points: 4
#     Node 30, Type 0, BuildingBlock: GALJAG_clean_sbu_0, # of connection points: 4
#     Node 31, Type 0, BuildingBlock: GALJAG_clean_sbu_0, # of connection points: 4
#     Node 32, Type 0, BuildingBlock: GALJAG_clean_sbu_0, # of connection points: 4
#     Node 33, Type 0, BuildingBlock: GALJAG_clean_sbu_0, # of connection points: 4
#     Node 34, Type 0, BuildingBlock: GALJAG_clean_sbu_0, # of connection points: 4
#     Node 35, Type 0, BuildingBlock: GALJAG_clean_sbu_0, # of connection points: 4
#     Node 36, Type 0, BuildingBlock: GALJAG_clean_sbu_0, # of connection points: 4
#     Node 37, Type 0, BuildingBlock: GALJAG_clean_sbu_0, # of connection points: 4
#     Node 38, Type 0, BuildingBlock: GALJAG_clean_sbu_0, # of connection points: 4
#     Node 39, Type 0, BuildingBlock: GALJAG_clean_sbu_0, # of connection points: 4
#     Node 40, Type 0, BuildingBlock: GALJAG_clean_sbu_0, # of connection points: 4
#     Node 41, Type 0, BuildingBlock: GALJAG_clean_sbu_0, # of connection points: 4
#     Node 42, Type 0, BuildingBlock: GALJAG_clean_sbu_0, # of connection points: 4
#     Node 43, Type 0, BuildingBlock: GALJAG_clean_sbu_0, # of connection points: 4
#     Node 44, Type 0, BuildingBlock: GALJAG_clean_sbu_0, # of connection points: 4
#     Node 45, Type 0, BuildingBlock: GALJAG_clean_sbu_0, # of connection points: 4
#     Node 46, Type 0, BuildingBlock: GALJAG_clean_sbu_0, # of connection points: 4
#     Node 47, Type 0, BuildingBlock: GALJAG_clean_sbu_0, # of connection points: 4
#     Edge 48, Type (0, 0), BuildingBlock: AJUNOK_clean_linker_0, # of connection points: 2
#     Edge 49, Type (0, 0), BuildingBlock: AJUNOK_clean_linker_0, # of connection points: 2
#     Edge 50, Type (0, 0), BuildingBlock: AJUNOK_clean_linker_0, # of connection points: 2
#     Edge 51, Type (0, 0), BuildingBlock: AJUNOK_clean_linker_0, # of connection points: 2
#     Edge 52, Type (0, 0), BuildingBlock: AJUNOK_clean_linker_0, # of connection points: 2
#     Edge 53, Type (0, 0), BuildingBlock: AJUNOK_clean_linker_0, # of connection points: 2
#     Edge 54, Type (0, 0), BuildingBlock: AJUNOK_clean_linker_0, # of connection points: 2
#     Edge 55, Type (0, 0), BuildingBlock: AJUNOK_clean_linker_0, # of connection points: 2
#     Edge 56, Type (0, 0), BuildingBlock: AJUNOK_clean_linker_0, # of connection points: 2
#     Edge 57, Type (0, 0), BuildingBlock: AJUNOK_clean_linker_0, # of connection points: 2
#     Edge 58, Type (0, 0), BuildingBlock: AJUNOK_clean_linker_0, # of connection points: 2
#     Edge 59, Type (0, 0), BuildingBlock: AJUNOK_clean_linker_0, # of connection points: 2
#     Edge 60, Type (0, 0), BuildingBlock: AJUNOK_clean_linker_0, # of connection points: 2
#     Edge 61, Type (0, 0), BuildingBlock: AJUNOK_clean_linker_0, # of connection points: 2
#     Edge 62, Type (0, 0), BuildingBlock: AJUNOK_clean_linker_0, # of connection points: 2
#     Edge 63, Type (0, 0), BuildingBlock: AJUNOK_clean_linker_0, # of connection points: 2
#     Edge 64, Type (0, 0), BuildingBlock: AJUNOK_clean_linker_0, # of connection points: 2
#     Edge 65, Type (0, 0), BuildingBlock: AJUNOK_clean_linker_0, # of connection points: 2
#     Edge 66, Type (0, 0), BuildingBlock: AJUNOK_clean_linker_0, # of connection points: 2
#     Edge 67, Type (0, 0), BuildingBlock: AJUNOK_clean_linker_0, # of connection points: 2
#     Edge 68, Type (0, 0), BuildingBlock: AJUNOK_clean_linker_0, # of connection points: 2
#     Edge 69, Type (0, 0), BuildingBlock: AJUNOK_clean_linker_0, # of connection points: 2
#     Edge 70, Type (0, 0), BuildingBlock: AJUNOK_clean_linker_0, # of connection points: 2
#     Edge 71, Type (0, 0), BuildingBlock: AJUNOK_clean_linker_0, # of connection points: 2
#     Edge 72, Type (0, 0), BuildingBlock: AJUNOK_clean_linker_0, # of connection points: 2
#     Edge 73, Type (0, 0), BuildingBlock: AJUNOK_clean_linker_0, # of connection points: 2
#     Edge 74, Type (0, 0), BuildingBlock: AJUNOK_clean_linker_0, # of connection points: 2
#     Edge 75, Type (0, 0), BuildingBlock: AJUNOK_clean_linker_0, # of connection points: 2
#     Edge 76, Type (0, 0), BuildingBlock: AJUNOK_clean_linker_0, # of connection points: 2
#     Edge 77, Type (0, 0), BuildingBlock: AJUNOK_clean_linker_0, # of connection points: 2
#     Edge 78, Type (0, 0), BuildingBlock: AJUNOK_clean_linker_0, # of connection points: 2
#     Edge 79, Type (0, 0), BuildingBlock: AJUNOK_clean_linker_0, # of connection points: 2
#     Edge 80, Type (0, 0), BuildingBlock: AJUNOK_clean_linker_0, # of connection points: 2
#     Edge 81, Type (0, 0), BuildingBlock: AJUNOK_clean_linker_0, # of connection points: 2
#     Edge 82, Type (0, 0), BuildingBlock: AJUNOK_clean_linker_0, # of connection points: 2
#     Edge 83, Type (0, 0), BuildingBlock: AJUNOK_clean_linker_0, # of connection points: 2
#     Edge 84, Type (0, 0), BuildingBlock: AJUNOK_clean_linker_0, # of connection points: 2
#     Edge 85, Type (0, 0), BuildingBlock: AJUNOK_clean_linker_0, # of connection points: 2
#     Edge 86, Type (0, 0), BuildingBlock: AJUNOK_clean_linker_0, # of connection points: 2
#     Edge 87, Type (0, 0), BuildingBlock: AJUNOK_clean_linker_0, # of connection points: 2
#     Edge 88, Type (0, 0), BuildingBlock: AJUNOK_clean_linker_0, # of connection points: 2
#     Edge 89, Type (0, 0), BuildingBlock: AJUNOK_clean_linker_0, # of connection points: 2
#     Edge 90, Type (0, 0), BuildingBlock: AJUNOK_clean_linker_0, # of connection points: 2
#     Edge 91, Type (0, 0), BuildingBlock: AJUNOK_clean_linker_0, # of connection points: 2
#     Edge 92, Type (0, 0), BuildingBlock: AJUNOK_clean_linker_0, # of connection points: 2
#     Edge 93, Type (0, 0), BuildingBlock: AJUNOK_clean_linker_0, # of connection points: 2
#     Edge 94, Type (0, 0), BuildingBlock: AJUNOK_clean_linker_0, # of connection points: 2
#     Edge 95, Type (0, 0), BuildingBlock: AJUNOK_clean_linker_0, # of connection points: 2
#     Edge 96, Type (0, 0), BuildingBlock: AJUNOK_clean_linker_0, # of connection points: 2
#     Edge 97, Type (0, 0), BuildingBlock: AJUNOK_clean_linker_0, # of connection points: 2
#     Edge 98, Type (0, 0), BuildingBlock: AJUNOK_clean_linker_0, # of connection points: 2
#     Edge 99, Type (0, 0), BuildingBlock: AJUNOK_clean_linker_0, # of connection points: 2
#     Edge 100, Type (0, 0), BuildingBlock: AJUNOK_clean_linker_0, # of connection points: 2
#     Edge 101, Type (0, 0), BuildingBlock: AJUNOK_clean_linker_0, # of connection points: 2
#     Edge 102, Type (0, 0), BuildingBlock: AJUNOK_clean_linker_0, # of connection points: 2
#     Edge 103, Type (0, 0), BuildingBlock: AJUNOK_clean_linker_0, # of connection points: 2
#     Edge 104, Type (0, 0), BuildingBlock: AJUNOK_clean_linker_0, # of connection points: 2
#     Edge 105, Type (0, 0), BuildingBlock: AJUNOK_clean_linker_0, # of connection points: 2
#     Edge 106, Type (0, 0), BuildingBlock: AJUNOK_clean_linker_0, # of connection points: 2
#     Edge 107, Type (0, 0), BuildingBlock: AJUNOK_clean_linker_0, # of connection points: 2
#     Edge 108, Type (0, 0), BuildingBlock: AJUNOK_clean_linker_0, # of connection points: 2
#     Edge 109, Type (0, 0), BuildingBlock: AJUNOK_clean_linker_0, # of connection points: 2
#     Edge 110, Type (0, 0), BuildingBlock: AJUNOK_clean_linker_0, # of connection points: 2
#     Edge 111, Type (0, 0), BuildingBlock: AJUNOK_clean_linker_0, # of connection points: 2
#     Edge 112, Type (0, 0), BuildingBlock: AJUNOK_clean_linker_0, # of connection points: 2
#     Edge 113, Type (0, 0), BuildingBlock: AJUNOK_clean_linker_0, # of connection points: 2
#     Edge 114, Type (0, 0), BuildingBlock: AJUNOK_clean_linker_0, # of connection points: 2
#     Edge 115, Type (0, 0), BuildingBlock: AJUNOK_clean_linker_0, # of connection points: 2
#     Edge 116, Type (0, 0), BuildingBlock: AJUNOK_clean_linker_0, # of connection points: 2
#     Edge 117, Type (0, 0), BuildingBlock: AJUNOK_clean_linker_0, # of connection points: 2
#     Edge 118, Type (0, 0), BuildingBlock: AJUNOK_clean_linker_0, # of connection points: 2
#     Edge 119, Type (0, 0), BuildingBlock: AJUNOK_clean_linker_0, # of connection points: 2
#     Edge 120, Type (0, 0), BuildingBlock: AJUNOK_clean_linker_0, # of connection points: 2
#     Edge 121, Type (0, 0), BuildingBlock: AJUNOK_clean_linker_0, # of connection points: 2
#     Edge 122, Type (0, 0), BuildingBlock: AJUNOK_clean_linker_0, # of connection points: 2
#     Edge 123, Type (0, 0), BuildingBlock: AJUNOK_clean_linker_0, # of connection points: 2
#     Edge 124, Type (0, 0), BuildingBlock: AJUNOK_clean_linker_0, # of connection points: 2
#     Edge 125, Type (0, 0), BuildingBlock: AJUNOK_clean_linker_0, # of connection points: 2
#     Edge 126, Type (0, 0), BuildingBlock: AJUNOK_clean_linker_0, # of connection points: 2
#     Edge 127, Type (0, 0), BuildingBlock: AJUNOK_clean_linker_0, # of connection points: 2
#     Edge 128, Type (0, 0), BuildingBlock: AJUNOK_clean_linker_0, # of connection points: 2
#     Edge 129, Type (0, 0), BuildingBlock: AJUNOK_clean_linker_0, # of connection points: 2
#     Edge 130, Type (0, 0), BuildingBlock: AJUNOK_clean_linker_0, # of connection points: 2
#     Edge 131, Type (0, 0), BuildingBlock: AJUNOK_clean_linker_0, # of connection points: 2
#     Edge 132, Type (0, 0), BuildingBlock: AJUNOK_clean_linker_0, # of connection points: 2
#     Edge 133, Type (0, 0), BuildingBlock: AJUNOK_clean_linker_0, # of connection points: 2
#     Edge 134, Type (0, 0), BuildingBlock: AJUNOK_clean_linker_0, # of connection points: 2
#     Edge 135, Type (0, 0), BuildingBlock: AJUNOK_clean_linker_0, # of connection points: 2
#     Edge 136, Type (0, 0), BuildingBlock: AJUNOK_clean_linker_0, # of connection points: 2
#     Edge 137, Type (0, 0), BuildingBlock: AJUNOK_clean_linker_0, # of connection points: 2
#     Edge 138, Type (0, 0), BuildingBlock: AJUNOK_clean_linker_0, # of connection points: 2
#     Edge 139, Type (0, 0), BuildingBlock: AJUNOK_clean_linker_0, # of connection points: 2
#     Edge 140, Type (0, 0), BuildingBlock: AJUNOK_clean_linker_0, # of connection points: 2
#     Edge 141, Type (0, 0), BuildingBlock: AJUNOK_clean_linker_0, # of connection points: 2
#     Edge 142, Type (0, 0), BuildingBlock: AJUNOK_clean_linker_0, # of connection points: 2
#     Edge 143, Type (0, 0), BuildingBlock: AJUNOK_clean_linker_0, # of connection points: 2
# Relax obj value: 0.318
# Max RMSD: 0.087
# Mean RMSD: 0.085
data_MOF--net-nfb--node1-GALJAG_clean_sbu_0--edge1-AJUNOK_clean_linker_0
_symmetry_space_group_name_H-M    P1
_symmetry_Int_Tables_number       1
_symmetry_cell_setting            triclinic
loop_
_symmetry_equiv_pos_as_xyz
'x, y, z'
_cell_length_a     43.233211
_cell_length_b     43.223728
_cell_length_c     43.421121
_cell_angle_alpha  90.014229
_cell_angle_beta   90.024099
_cell_angle_gamma 90.108489
loop_
_atom_site_label
_atom_site_type_symbol
_atom_site_fract_x
_atom_site_fract_y
_atom_site_fract_z
_atom_type_partial_charge
In0 In 0.10887 0.13175 0.38941 0.0
O1 O 0.08814 0.13866 0.43615 0.0
O2 O 0.1116 0.09606 0.42792 0.0
C3 C 0.10793 0.19329 0.38486 0.0
C4 C 0.17206 0.12517 0.38534 0.0
C5 C 0.05599 0.11206 0.35969 0.0
O6 O 0.09712 0.17904 0.40788 0.0
O7 O 0.11831 0.17631 0.36349 0.0
O8 O 0.06976 0.13699 0.35336 0.0
O9 O 0.07137 0.0949 0.37753 0.0
C10 C 0.09703 0.11296 0.44673 0.0
O11 O 0.15401 0.11251 0.36583 0.0
O12 O 0.15809 0.13964 0.4062 0.0
In13 In 0.38559 0.63197 0.88193 0.0
O14 O 0.4219 0.59474 0.86877 0.0
O15 O 0.38191 0.59727 0.8414 0.0
C16 C 0.38708 0.69568 0.87942 0.0
C17 C 0.3246 0.62255 0.88176 0.0
C18 C 0.40996 0.62037 0.93714 0.0
O19 O 0.40253 0.67916 0.86066 0.0
O20 O 0.37171 0.68007 0.89846 0.0
O21 O 0.38423 0.60967 0.92837 0.0
O22 O 0.42397 0.63709 0.9177 0.0
C23 C 0.40566 0.58186 0.8483 0.0
O24 O 0.34175 0.61396 0.90369 0.0
O25 O 0.33835 0.63577 0.85965 0.0
In26 In 0.90118 0.87907 0.38846 0.0
O27 O 0.92531 0.87325 0.43383 0.0
O28 O 0.9017 0.91584 0.42596 0.0
C29 C 0.90183 0.81773 0.38384 0.0
C30 C 0.83783 0.88485 0.38524 0.0
C31 C 0.95392 0.89798 0.35817 0.0
O32 O 0.90466 0.83152 0.40935 0.0
O33 O 0.89945 0.83493 0.36036 0.0
O34 O 0.93762 0.91625 0.37407 0.0
O35 O 0.94126 0.87201 0.35413 0.0
C36 C 0.91756 0.89944 0.44416 0.0
O37 O 0.85528 0.897 0.36491 0.0
O38 O 0.85246 0.87151 0.40635 0.0
In39 In 0.63332 0.40199 0.89089 0.0
O40 O 0.63976 0.43949 0.85336 0.0
O41 O 0.59612 0.43729 0.87466 0.0
C42 C 0.62803 0.33858 0.88782 0.0
C43 C 0.69516 0.40365 0.89349 0.0
C44 C 0.61094 0.41536 0.94665 0.0
O45 O 0.61773 0.35587 0.86642 0.0
O46 O 0.63936 0.35337 0.91003 0.0
O47 O 0.63611 0.42606 0.93646 0.0
O48 O 0.59607 0.3985 0.92795 0.0
C49 C 0.61386 0.45234 0.85706 0.0
O50 O 0.67805 0.41549 0.91384 0.0
O51 O 0.68099 0.39219 0.87066 0.0
In52 In 0.12983 0.88292 0.62649 0.0
O53 O 0.09122 0.87603 0.66273 0.0
O54 O 0.09497 0.92031 0.64301 0.0
C55 C 0.19319 0.88838 0.62713 0.0
C56 C 0.12926 0.82143 0.63022 0.0
C57 C 0.11344 0.90489 0.57142 0.0
O58 O 0.17653 0.90092 0.64786 0.0
O59 O 0.17782 0.87462 0.60672 0.0
O60 O 0.10498 0.87872 0.58126 0.0
O61 O 0.13055 0.92021 0.58948 0.0
C62 C 0.07886 0.90217 0.65925 0.0
O63 O 0.11841 0.83587 0.6073 0.0
O64 O 0.13932 0.83822 0.65194 0.0
In65 In 0.63123 0.61671 0.12397 0.0
O66 O 0.67708 0.60267 0.10358 0.0
O67 O 0.67732 0.62579 0.14709 0.0
C68 C 0.60974 0.60397 0.06778 0.0
C69 C 0.61178 0.56586 0.15703 0.0
C70 C 0.62795 0.68024 0.12562 0.0
O71 O 0.63519 0.59387 0.07788 0.0
O72 O 0.59427 0.61991 0.08672 0.0
O73 O 0.61435 0.66382 0.14592 0.0
O74 O 0.64128 0.66455 0.10527 0.0
C75 C 0.69284 0.61441 0.12514 0.0
O76 O 0.63699 0.5797 0.16195 0.0
O77 O 0.59429 0.58036 0.13878 0.0
In78 In 0.89647 0.14135 0.6316 0.0
O79 O 0.90352 0.18822 0.60974 0.0
O80 O 0.90006 0.18589 0.65888 0.0
C81 C 0.90874 0.12038 0.57505 0.0
C82 C 0.94848 0.12062 0.66191 0.0
C83 C 0.83304 0.13724 0.63679 0.0
O84 O 0.9186 0.14599 0.58509 0.0
O85 O 0.89315 0.10466 0.59412 0.0
O86 O 0.85084 0.12161 0.65417 0.0
O87 O 0.84732 0.15414 0.6181 0.0
C88 C 0.90341 0.20249 0.63512 0.0
O89 O 0.93461 0.10493 0.64162 0.0
O90 O 0.93371 0.14445 0.66988 0.0
In91 In 0.3859 0.40056 0.11767 0.0
O92 O 0.34164 0.40397 0.0904 0.0
O93 O 0.33812 0.40157 0.13948 0.0
C94 C 0.41071 0.41774 0.06405 0.0
C95 C 0.40457 0.45133 0.15103 0.0
C96 C 0.38984 0.33721 0.12293 0.0
O97 O 0.38534 0.42808 0.07402 0.0
O98 O 0.42418 0.39862 0.08155 0.0
O99 O 0.40052 0.35497 0.14378 0.0
O100 O 0.37893 0.35149 0.10028 0.0
C101 C 0.32439 0.4027 0.11378 0.0
O102 O 0.37826 0.43896 0.15373 0.0
O103 O 0.423 0.4356 0.13476 0.0
In104 In 0.38731 0.13737 0.12615 0.0
O105 O 0.36588 0.18412 0.10762 0.0
O106 O 0.40447 0.1855 0.13749 0.0
C107 C 0.35567 0.08596 0.10587 0.0
C108 C 0.443 0.11974 0.10651 0.0
C109 C 0.38227 0.134 0.18704 0.0
O110 O 0.34931 0.10006 0.13049 0.0
O111 O 0.37468 0.10049 0.08913 0.0
O112 O 0.40806 0.13246 0.17347 0.0
O113 O 0.35874 0.13628 0.16987 0.0
C114 C 0.38495 0.20084 0.12262 0.0
O115 O 0.43154 0.11116 0.13186 0.0
O116 O 0.42614 0.13753 0.09061 0.0
In117 In 0.39275 0.88895 0.62677 0.0
O118 O 0.43183 0.85408 0.63586 0.0
O119 O 0.42953 0.87231 0.5909 0.0
C120 C 0.32954 0.88751 0.61971 0.0
C121 C 0.38872 0.88628 0.68774 0.0
C122 C 0.41272 0.94467 0.60934 0.0
O123 O 0.3462 0.86522 0.61014 0.0
O124 O 0.34498 0.90993 0.62972 0.0
O125 O 0.41896 0.93265 0.63508 0.0
O126 O 0.3965 0.92803 0.59152 0.0
C127 C 0.44502 0.85661 0.61009 0.0
O128 O 0.39381 0.91116 0.67343 0.0
O129 O 0.38718 0.86205 0.67144 0.0
In130 In 0.63127 0.87995 0.12914 0.0
O131 O 0.65304 0.83366 0.11081 0.0
O132 O 0.61063 0.83182 0.13504 0.0
C133 C 0.66428 0.93106 0.11048 0.0
C134 C 0.5755 0.89899 0.11093 0.0
C135 C 0.63585 0.87973 0.19028 0.0
O136 O 0.66834 0.91777 0.13596 0.0
O137 O 0.64716 0.9158 0.09238 0.0
O138 O 0.61258 0.8903 0.17623 0.0
O139 O 0.65755 0.87001 0.17329 0.0
C140 C 0.63178 0.81672 0.12214 0.0
O141 O 0.58687 0.90521 0.13697 0.0
O142 O 0.59241 0.88264 0.0936 0.0
In143 In 0.63318 0.12912 0.63458 0.0
O144 O 0.5943 0.16518 0.63942 0.0
O145 O 0.59742 0.14248 0.5966 0.0
C146 C 0.69667 0.13353 0.63111 0.0
C147 C 0.6303 0.13191 0.69571 0.0
C148 C 0.61628 0.07258 0.61627 0.0
O149 O 0.67943 0.15373 0.61849 0.0
O150 O 0.68181 0.11177 0.64315 0.0
O151 O 0.60786 0.08464 0.64135 0.0
O152 O 0.63324 0.08957 0.59953 0.0
C153 C 0.58162 0.16004 0.61376 0.0
O154 O 0.62913 0.10673 0.68111 0.0
O155 O 0.63193 0.15617 0.6795 0.0
In156 In 0.38505 0.89553 0.88016 0.0
O157 O 0.42823 0.92207 0.87001 0.0
O158 O 0.42517 0.90025 0.91398 0.0
C159 C 0.38036 0.89308 0.81921 0.0
C160 C 0.38431 0.83216 0.88685 0.0
C161 C 0.35366 0.94725 0.89981 0.0
O162 O 0.40577 0.89689 0.83293 0.0
O163 O 0.35658 0.89163 0.83616 0.0
O164 O 0.35013 0.93514 0.87363 0.0
O165 O 0.3698 0.93088 0.91786 0.0
C166 C 0.44108 0.91639 0.89548 0.0
O167 O 0.36177 0.84854 0.89629 0.0
O168 O 0.40662 0.84793 0.87713 0.0
In169 In 0.63775 0.88057 0.38438 0.0
O170 O 0.61223 0.92493 0.37738 0.0
O171 O 0.63645 0.91952 0.41991 0.0
C172 C 0.63518 0.87604 0.3233 0.0
C173 C 0.70129 0.8812 0.38861 0.0
C174 C 0.58755 0.84682 0.40433 0.0
O175 O 0.6243 0.89884 0.3379 0.0
O176 O 0.64656 0.85474 0.33974 0.0
O177 O 0.60152 0.84159 0.37939 0.0
O178 O 0.6019 0.86554 0.42154 0.0
C179 C 0.61949 0.93639 0.40313 0.0
O180 O 0.68526 0.86047 0.40207 0.0
O181 O 0.68521 0.9012 0.3751 0.0
In182 In 0.6262 0.1385 0.88899 0.0
O183 O 0.58125 0.11307 0.8851 0.0
O184 O 0.58747 0.14198 0.92456 0.0
C185 C 0.6291 0.13244 0.8281 0.0
C186 C 0.63046 0.20207 0.89074 0.0
C187 C 0.6577 0.08716 0.90952 0.0
O188 O 0.60379 0.1321 0.84257 0.0
O189 O 0.65322 0.13501 0.84441 0.0
O190 O 0.66566 0.10253 0.88611 0.0
O191 O 0.637 0.1004 0.9252 0.0
C192 C 0.57008 0.12361 0.90981 0.0
O193 O 0.6479 0.18534 0.90751 0.0
O194 O 0.61182 0.18671 0.87475 0.0
In195 In 0.37226 0.12293 0.38004 0.0
O196 O 0.32585 0.14501 0.39874 0.0
O197 O 0.32373 0.10494 0.37107 0.0
C198 C 0.42324 0.15435 0.40159 0.0
C199 C 0.39235 0.06708 0.39704 0.0
C200 C 0.37542 0.12926 0.31917 0.0
O201 O 0.41016 0.16036 0.37634 0.0
O202 O 0.40792 0.13577 0.41817 0.0
O203 O 0.37582 0.10318 0.33224 0.0
O204 O 0.37377 0.15248 0.33683 0.0
C205 C 0.30871 0.12522 0.38526 0.0
O206 O 0.39955 0.07963 0.37181 0.0
O207 O 0.37443 0.08269 0.414 0.0
In208 In 0.13128 0.38463 0.11698 0.0
O209 O 0.17411 0.4134 0.1093 0.0
O210 O 0.1791 0.36413 0.11009 0.0
C211 C 0.10419 0.43898 0.10605 0.0
C212 C 0.11185 0.35172 0.06612 0.0
C213 C 0.13293 0.37853 0.1803 0.0
O214 O 0.12861 0.43019 0.0928 0.0
O215 O 0.0926 0.41972 0.12473 0.0
O216 O 0.11482 0.36193 0.16404 0.0
O217 O 0.14911 0.3967 0.16462 0.0
C218 C 0.19196 0.39037 0.10789 0.0
O219 O 0.13611 0.34528 0.08098 0.0
O220 O 0.09512 0.3714 0.07964 0.0
In221 In 0.1299 0.61697 0.89153 0.0
O222 O 0.17601 0.59391 0.89958 0.0
O223 O 0.1754 0.64028 0.88192 0.0
C224 C 0.10048 0.56444 0.90518 0.0
C225 C 0.11801 0.64996 0.94467 0.0
C226 C 0.12676 0.61992 0.82847 0.0
O227 O 0.12785 0.57014 0.9137 0.0
O228 O 0.08762 0.58541 0.88949 0.0
O229 O 0.11604 0.64173 0.84516 0.0
O230 O 0.13683 0.59733 0.84368 0.0
C231 C 0.19129 0.61703 0.88994 0.0
O232 O 0.09643 0.64067 0.92719 0.0
O233 O 0.14442 0.64595 0.93333 0.0
In234 In 0.89316 0.62341 0.3757 0.0
O235 O 0.93742 0.62591 0.40218 0.0
O236 O 0.93012 0.58559 0.37472 0.0
C237 C 0.89436 0.68486 0.37966 0.0
C238 C 0.88853 0.6202 0.31227 0.0
C239 C 0.86098 0.60444 0.42724 0.0
O240 O 0.91863 0.6687 0.37964 0.0
O241 O 0.86911 0.67006 0.37852 0.0
O242 O 0.85649 0.63 0.41391 0.0
O243 O 0.87812 0.58644 0.41193 0.0
C244 C 0.94763 0.60017 0.39305 0.0
O245 O 0.86864 0.60718 0.32962 0.0
O246 O 0.9099 0.63321 0.32694 0.0
In247 In 0.88888 0.38929 0.90949 0.0
O248 O 0.84309 0.40835 0.92472 0.0
O249 O 0.84237 0.36671 0.89843 0.0
C250 C 0.9062 0.44697 0.92327 0.0
C251 C 0.91077 0.35603 0.95876 0.0
C252 C 0.89466 0.38835 0.84656 0.0
O253 O 0.8818 0.43452 0.93326 0.0
O254 O 0.9232 0.42945 0.90723 0.0
O255 O 0.90666 0.36724 0.86312 0.0
O256 O 0.88145 0.40908 0.86187 0.0
C257 C 0.82704 0.38791 0.91149 0.0
O258 O 0.92719 0.37524 0.94414 0.0
O259 O 0.88525 0.35045 0.94578 0.0
In260 In 0.13145 0.38724 0.37923 0.0
O261 O 0.15786 0.3973 0.33287 0.0
O262 O 0.11217 0.37969 0.33101 0.0
C263 C 0.1642 0.40577 0.43049 0.0
C264 C 0.07956 0.41747 0.39264 0.0
C265 C 0.12504 0.32608 0.38474 0.0
O266 O 0.1655 0.37876 0.41963 0.0
O267 O 0.15073 0.42456 0.4127 0.0
O268 O 0.10398 0.34484 0.39227 0.0
O269 O 0.14984 0.33831 0.3751 0.0
C270 C 0.13567 0.38778 0.31598 0.0
O271 O 0.08616 0.39119 0.40345 0.0
O272 O 0.09913 0.42881 0.37416 0.0
In273 In 0.88714 0.62471 0.11268 0.0
O274 O 0.84096 0.60374 0.10022 0.0
O275 O 0.84142 0.64822 0.12181 0.0
C276 C 0.91022 0.56909 0.09977 0.0
C277 C 0.90509 0.65772 0.06106 0.0
C278 C 0.89069 0.62583 0.17612 0.0
O279 O 0.88406 0.57806 0.0904 0.0
O280 O 0.92535 0.58871 0.11535 0.0
O281 O 0.90369 0.64676 0.15991 0.0
O282 O 0.87786 0.60518 0.16027 0.0
C283 C 0.82556 0.62585 0.11154 0.0
O284 O 0.88006 0.66224 0.07524 0.0
O285 O 0.92316 0.6399 0.07544 0.0
In286 In 0.91211 0.39639 0.64948 0.0
O287 O 0.96286 0.40421 0.64663 0.0
O288 O 0.93458 0.44447 0.6529 0.0
C289 C 0.91039 0.33543 0.64092 0.0
C290 C 0.90102 0.39505 0.71134 0.0
C291 C 0.89187 0.41175 0.59194 0.0
O292 O 0.93541 0.35002 0.64485 0.0
O293 O 0.8861 0.35167 0.64048 0.0
O294 O 0.87316 0.4108 0.61459 0.0
O295 O 0.91952 0.40574 0.59887 0.0
C296 C 0.96143 0.43324 0.64963 0.0
O297 O 0.88434 0.41129 0.69332 0.0
O298 O 0.92215 0.38032 0.69794 0.0
In299 In 0.13201 0.62602 0.62939 0.0
O300 O 0.15374 0.60769 0.67567 0.0
O301 O 0.11209 0.63318 0.6775 0.0
C302 C 0.16523 0.60612 0.57906 0.0
C303 C 0.07614 0.60685 0.61105 0.0
C304 C 0.13527 0.68768 0.62778 0.0
O305 O 0.16955 0.63191 0.59194 0.0
O306 O 0.14772 0.58846 0.59436 0.0
O307 O 0.11255 0.67265 0.61723 0.0
O308 O 0.15713 0.67144 0.63844 0.0
C309 C 0.13288 0.61966 0.69256 0.0
O310 O 0.08741 0.6329 0.60428 0.0
O311 O 0.09321 0.58993 0.62764 0.0
In312 In 0.89418 0.87935 0.62877 0.0
O313 O 0.90607 0.83394 0.60641 0.0
O314 O 0.88384 0.83229 0.6502 0.0
C315 C 0.91333 0.89932 0.57396 0.0
C316 C 0.83078 0.88682 0.6289 0.0
C317 C 0.94452 0.89969 0.66186 0.0
O318 O 0.91858 0.87237 0.58391 0.0
O319 O 0.89818 0.91667 0.59195 0.0
O320 O 0.92674 0.91792 0.64762 0.0
O321 O 0.93398 0.87259 0.66354 0.0
C322 C 0.89533 0.81748 0.62786 0.0
O323 O 0.84742 0.8866 0.60519 0.0
O324 O 0.84619 0.88554 0.65376 0.0
In325 In 0.63552 0.3797 0.13045 0.0
O326 O 0.68352 0.38261 0.11046 0.0
O327 O 0.67911 0.37893 0.1595 0.0
C328 C 0.61558 0.39951 0.07573 0.0
C329 C 0.63048 0.31622 0.13211 0.0
C330 C 0.61537 0.43157 0.16106 0.0
O331 O 0.64217 0.4056 0.0862 0.0
O332 O 0.59877 0.38291 0.09293 0.0
O333 O 0.597 0.41374 0.14683 0.0
O334 O 0.64227 0.4207 0.16349 0.0
C335 C 0.69678 0.38078 0.13633 0.0
O336 O 0.62036 0.33283 0.15413 0.0
O337 O 0.64077 0.33176 0.10996 0.0
In338 In 0.13326 0.13994 0.62933 0.0
O339 O 0.12514 0.18446 0.6032 0.0
O340 O 0.14595 0.18759 0.64762 0.0
C341 C 0.11212 0.11867 0.57573 0.0
C342 C 0.19616 0.12967 0.63115 0.0
C343 C 0.08271 0.12329 0.66415 0.0
O344 O 0.10788 0.14606 0.58492 0.0
O345 O 0.12757 0.10157 0.5937 0.0
O346 O 0.10044 0.10358 0.65194 0.0
O347 O 0.09328 0.15038 0.66283 0.0
C348 C 0.13648 0.20157 0.62386 0.0
O349 O 0.18099 0.1371 0.65499 0.0
O350 O 0.17938 0.12485 0.60798 0.0
In351 In 0.38849 0.63699 0.1219 0.0
O352 O 0.34285 0.63086 0.09748 0.0
O353 O 0.3428 0.63055 0.14679 0.0
C354 C 0.41165 0.62323 0.06663 0.0
C355 C 0.39041 0.70048 0.1279 0.0
C356 C 0.40877 0.58555 0.15313 0.0
O357 O 0.38648 0.61235 0.07666 0.0
O358 O 0.42576 0.64123 0.08485 0.0
O359 O 0.38512 0.60075 0.16091 0.0
O360 O 0.42478 0.59905 0.13286 0.0
C361 C 0.32742 0.62896 0.12208 0.0
O362 O 0.37456 0.68587 0.10856 0.0
O363 O 0.40635 0.68301 0.14536 0.0
In364 In 0.87017 0.13686 0.39122 0.0
O365 O 0.90349 0.09832 0.37372 0.0
O366 O 0.91104 0.1438 0.35794 0.0
C367 C 0.8072 0.12825 0.3861 0.0
C368 C 0.89281 0.11932 0.44566 0.0
C369 C 0.86865 0.19867 0.39278 0.0
O370 O 0.82434 0.13108 0.36255 0.0
O371 O 0.8222 0.1264 0.41079 0.0
O372 O 0.86628 0.18232 0.4167 0.0
O373 O 0.87204 0.18387 0.36792 0.0
C374 C 0.92149 0.11667 0.35974 0.0
O375 O 0.89722 0.14587 0.4343 0.0
O376 O 0.87666 0.10117 0.42936 0.0
In377 In 0.38222 0.39732 0.88143 0.0
O378 O 0.3364 0.41023 0.90279 0.0
O379 O 0.33606 0.38912 0.85824 0.0
C380 C 0.40648 0.41406 0.93543 0.0
C381 C 0.38628 0.33373 0.88002 0.0
C382 C 0.40141 0.44758 0.84739 0.0
O383 O 0.38016 0.4228 0.92636 0.0
O384 O 0.42075 0.39623 0.91727 0.0
O385 O 0.41972 0.4317 0.86361 0.0
O386 O 0.37509 0.43532 0.84473 0.0
C387 C 0.32061 0.4 0.88049 0.0
O388 O 0.39753 0.35041 0.85858 0.0
O389 O 0.3746 0.34919 0.9016 0.0
In390 In 0.1395 0.8788 0.39071 0.0
O391 O 0.10589 0.91606 0.37112 0.0
O392 O 0.0994 0.86987 0.35701 0.0
C393 C 0.20285 0.88467 0.385 0.0
C394 C 0.11833 0.90304 0.44301 0.0
C395 C 0.13799 0.81733 0.39705 0.0
O396 O 0.18543 0.88223 0.36159 0.0
O397 O 0.18813 0.88709 0.40979 0.0
O398 O 0.14082 0.83524 0.4198 0.0
O399 O 0.13577 0.83036 0.37113 0.0
C400 C 0.0884 0.89682 0.35766 0.0
O401 O 0.11217 0.87581 0.43437 0.0
O402 O 0.13563 0.91841 0.42512 0.0
In403 In 0.62987 0.63767 0.88249 0.0
O404 O 0.6119 0.68549 0.86327 0.0
O405 O 0.63936 0.68482 0.90357 0.0
C406 C 0.60936 0.58659 0.85057 0.0
C407 C 0.69081 0.63465 0.87456 0.0
C408 C 0.61194 0.6193 0.93829 0.0
O409 O 0.59229 0.60142 0.86898 0.0
O410 O 0.63419 0.6006 0.84448 0.0
O411 O 0.63832 0.61351 0.92725 0.0
O412 O 0.59427 0.63499 0.92113 0.0
C413 C 0.62552 0.70122 0.88409 0.0
O414 O 0.67742 0.62418 0.89825 0.0
O415 O 0.67322 0.64625 0.85432 0.0
In416 In 0.63074 0.90124 0.8822 0.0
O417 O 0.5856 0.9233 0.86973 0.0
O418 O 0.58927 0.90339 0.91452 0.0
C419 C 0.64161 0.90199 0.8218 0.0
C420 C 0.66081 0.95262 0.90511 0.0
C421 C 0.63039 0.83784 0.88877 0.0
O422 O 0.61827 0.91472 0.83382 0.0
O423 O 0.66042 0.88977 0.84053 0.0
O424 O 0.65075 0.8546 0.90194 0.0
O425 O 0.61063 0.85318 0.87408 0.0
C426 C 0.57271 0.91768 0.89518 0.0
O427 O 0.64226 0.93667 0.92105 0.0
O428 O 0.66758 0.93997 0.87986 0.0
In429 In 0.61113 0.12503 0.38639 0.0
O430 O 0.57068 0.13305 0.42051 0.0
O431 O 0.57407 0.16395 0.38339 0.0
C432 C 0.67181 0.14333 0.39267 0.0
C433 C 0.60289 0.06678 0.40587 0.0
C434 C 0.61167 0.11311 0.32572 0.0
O435 O 0.65509 0.15077 0.37017 0.0
O436 O 0.65662 0.13137 0.41448 0.0
O437 O 0.62604 0.09672 0.34496 0.0
O438 O 0.59594 0.13487 0.33713 0.0
C439 C 0.5578 0.15441 0.40559 0.0
O440 O 0.58998 0.07756 0.38211 0.0
O441 O 0.6196 0.08581 0.42043 0.0
In442 In 0.38366 0.13347 0.88374 0.0
O443 O 0.37162 0.09601 0.9204 0.0
O444 O 0.34483 0.09666 0.88006 0.0
C445 C 0.38155 0.19714 0.88509 0.0
C446 C 0.43976 0.12138 0.90605 0.0
C447 C 0.37996 0.12784 0.82276 0.0
O448 O 0.36243 0.18095 0.90063 0.0
O449 O 0.40096 0.1812 0.87059 0.0
O450 O 0.40311 0.11847 0.83792 0.0
O451 O 0.35815 0.13905 0.83863 0.0
C452 C 0.35202 0.08189 0.90404 0.0
O453 O 0.43031 0.11129 0.8804 0.0
O454 O 0.42076 0.13797 0.92078 0.0
In455 In 0.4004 0.87754 0.3834 0.0
O456 O 0.43673 0.86136 0.42015 0.0
O457 O 0.44079 0.84319 0.37572 0.0
C458 C 0.33797 0.86676 0.39187 0.0
C459 C 0.4093 0.93657 0.40011 0.0
C460 C 0.39618 0.88453 0.32215 0.0
O461 O 0.35402 0.85284 0.37205 0.0
O462 O 0.3541 0.88243 0.41043 0.0
O463 O 0.40672 0.90552 0.33948 0.0
O464 O 0.38892 0.85968 0.33564 0.0
C465 C 0.45313 0.84593 0.40176 0.0
O466 O 0.42148 0.92478 0.37644 0.0
O467 O 0.39263 0.91834 0.41569 0.0
In468 In 0.62872 0.11619 0.13292 0.0
O469 O 0.66857 0.08038 0.13578 0.0
O470 O 0.63993 0.0785 0.09666 0.0
C471 C 0.63576 0.17967 0.13197 0.0
C472 C 0.573 0.10668 0.10795 0.0
C473 C 0.62489 0.10666 0.19364 0.0
O474 O 0.61803 0.16503 0.14959 0.0
O475 O 0.6515 0.16222 0.11436 0.0
O476 O 0.60165 0.10573 0.17605 0.0
O477 O 0.65051 0.11168 0.18043 0.0
C478 C 0.66084 0.06534 0.11206 0.0
O479 O 0.58217 0.0934 0.13216 0.0
O480 O 0.59255 0.12454 0.09551 0.0
In481 In 0.39383 0.13252 0.62862 0.0
O482 O 0.39872 0.10888 0.67486 0.0
O483 O 0.38049 0.15467 0.6741 0.0
C484 C 0.41091 0.07568 0.61213 0.0
C485 C 0.33135 0.13806 0.61726 0.0
C486 C 0.44717 0.16353 0.61209 0.0
O487 O 0.41468 0.08645 0.63893 0.0
O488 O 0.39786 0.0937 0.59318 0.0
O489 O 0.4295 0.15117 0.5924 0.0
O490 O 0.43563 0.16399 0.63865 0.0
C491 C 0.38777 0.13128 0.68994 0.0
O492 O 0.34787 0.16098 0.62507 0.0
O493 O 0.34681 0.11403 0.61196 0.0
In494 In 0.38818 0.9006 0.12953 0.0
O495 O 0.43484 0.92261 0.13516 0.0
O496 O 0.42616 0.89793 0.09344 0.0
C497 C 0.38384 0.90259 0.19073 0.0
C498 C 0.35624 0.95156 0.10855 0.0
C499 C 0.38689 0.83705 0.12589 0.0
O500 O 0.40619 0.91469 0.17629 0.0
O501 O 0.36277 0.89101 0.17406 0.0
O502 O 0.40751 0.85284 0.13889 0.0
O503 O 0.36616 0.8534 0.11286 0.0
C504 C 0.44517 0.91315 0.10962 0.0
O505 O 0.37442 0.93622 0.0917 0.0
O506 O 0.35091 0.9386 0.13399 0.0
In507 In 0.63325 0.88267 0.62835 0.0
O508 O 0.67962 0.85572 0.6337 0.0
O509 O 0.67933 0.89338 0.60309 0.0
C510 C 0.57968 0.85182 0.61117 0.0
C511 C 0.63971 0.88823 0.6896 0.0
C512 C 0.61765 0.94078 0.61397 0.0
O513 O 0.59671 0.86568 0.592 0.0
O514 O 0.59192 0.8499 0.63735 0.0
O515 O 0.61023 0.92773 0.6389 0.0
O516 O 0.63362 0.92441 0.59581 0.0
C517 C 0.6955 0.87375 0.61719 0.0
O518 O 0.63218 0.91051 0.67244 0.0
O519 O 0.64348 0.8627 0.67592 0.0
In520 In 0.88591 0.63071 0.8747 0.0
O521 O 0.83887 0.60899 0.88004 0.0
O522 O 0.84089 0.65565 0.86403 0.0
C523 C 0.90034 0.57563 0.89768 0.0
C524 C 0.89619 0.63128 0.8119 0.0
C525 C 0.90373 0.66281 0.92683 0.0
O526 O 0.87321 0.5864 0.89752 0.0
O527 O 0.92069 0.59234 0.8848 0.0
O528 O 0.92301 0.64907 0.90972 0.0
O529 O 0.8772 0.66426 0.91502 0.0
C530 C 0.82429 0.63258 0.87102 0.0
O531 O 0.89157 0.65586 0.82712 0.0
O532 O 0.89927 0.60776 0.82864 0.0
In533 In 0.89118 0.38665 0.14149 0.0
O534 O 0.90747 0.36463 0.18842 0.0
O535 O 0.886 0.40852 0.1885 0.0
C536 C 0.91153 0.35326 0.09187 0.0
C537 C 0.82974 0.38255 0.14082 0.0
C538 C 0.91071 0.44043 0.11849 0.0
O539 O 0.92951 0.36973 0.10802 0.0
O540 O 0.88508 0.35 0.10368 0.0
O541 O 0.88467 0.42874 0.11229 0.0
O542 O 0.9272 0.42507 0.13705 0.0
C543 C 0.89707 0.38701 0.2044 0.0
O544 O 0.84383 0.40805 0.1386 0.0
O545 O 0.8466 0.35873 0.14268 0.0
In546 In 0.12822 0.39559 0.61948 0.0
O547 O 0.07883 0.4075 0.6107 0.0
O548 O 0.10748 0.44255 0.63133 0.0
C549 C 0.13478 0.3348 0.61366 0.0
C550 C 0.1516 0.41113 0.56307 0.0
C551 C 0.13029 0.39066 0.68221 0.0
O552 O 0.10918 0.34815 0.60865 0.0
O553 O 0.15722 0.35243 0.62034 0.0
O554 O 0.14991 0.4072 0.66747 0.0
O555 O 0.11056 0.37739 0.66524 0.0
C556 C 0.08094 0.43458 0.62169 0.0
O557 O 0.16867 0.41155 0.58704 0.0
O558 O 0.12373 0.40423 0.56816 0.0
In559 In 0.1333 0.62201 0.13136 0.0
O560 O 0.17953 0.59824 0.12547 0.0
O561 O 0.17862 0.64773 0.12788 0.0
C562 C 0.10827 0.56789 0.11601 0.0
C563 C 0.13089 0.62648 0.19465 0.0
C564 C 0.11557 0.65331 0.07897 0.0
O565 O 0.13491 0.57629 0.10742 0.0
O566 O 0.09388 0.58694 0.13285 0.0
O567 O 0.09772 0.63488 0.09294 0.0
O568 O 0.13965 0.65956 0.09416 0.0
C569 C 0.19453 0.62337 0.12525 0.0
O570 O 0.11772 0.64642 0.17749 0.0
O571 O 0.14375 0.60516 0.17983 0.0
In572 In 0.88821 0.62229 0.61508 0.0
O573 O 0.93526 0.63126 0.59566 0.0
O574 O 0.9265 0.58608 0.61372 0.0
C575 C 0.89095 0.68404 0.61877 0.0
C576 C 0.85769 0.60534 0.56155 0.0
C577 C 0.88192 0.61366 0.67787 0.0
O578 O 0.91301 0.66787 0.60866 0.0
O579 O 0.86721 0.669 0.6268 0.0
O580 O 0.8598 0.62286 0.66112 0.0
O581 O 0.90509 0.60514 0.66259 0.0
C582 C 0.94555 0.60448 0.60121 0.0
O583 O 0.8695 0.58562 0.57954 0.0
O584 O 0.85747 0.63211 0.57282 0.0
In585 In 0.12584 0.38469 0.88137 0.0
O586 O 0.16962 0.41049 0.89364 0.0
O587 O 0.17384 0.36493 0.87499 0.0
C588 C 0.09803 0.43709 0.89805 0.0
C589 C 0.12285 0.38276 0.81795 0.0
C590 C 0.11001 0.34969 0.93201 0.0
O591 O 0.12443 0.42913 0.90757 0.0
O592 O 0.08534 0.41863 0.87927 0.0
O593 O 0.0905 0.36545 0.9171 0.0
O594 O 0.13567 0.3476 0.91841 0.0
C595 C 0.18731 0.38899 0.88487 0.0
O596 O 0.11167 0.361 0.83437 0.0
O597 O 0.13379 0.40469 0.83356 0.0
In598 In 0.13311 0.62377 0.39397 0.0
O599 O 0.08637 0.62478 0.41603 0.0
O600 O 0.09692 0.58592 0.38749 0.0
C601 C 0.13423 0.68452 0.40395 0.0
C602 C 0.1642 0.60272 0.4452 0.0
C603 C 0.1378 0.62456 0.33059 0.0
O604 O 0.10931 0.66924 0.4031 0.0
O605 O 0.15877 0.66905 0.40049 0.0
O606 O 0.15435 0.60636 0.34673 0.0
O607 O 0.12035 0.64133 0.34644 0.0
C608 C 0.07729 0.59961 0.40425 0.0
O609 O 0.17359 0.62514 0.42905 0.0
O610 O 0.14218 0.58812 0.43281 0.0
In611 In 0.90016 0.38986 0.40237 0.0
O612 O 0.95014 0.39153 0.41361 0.0
O613 O 0.92977 0.43324 0.39601 0.0
C614 C 0.886 0.33017 0.40352 0.0
C615 C 0.88312 0.40591 0.46034 0.0
C616 C 0.89538 0.39191 0.33996 0.0
O617 O 0.91355 0.33994 0.40288 0.0
O618 O 0.86511 0.35066 0.40468 0.0
O619 O 0.87722 0.40767 0.35708 0.0
O620 O 0.91512 0.37623 0.35453 0.0
C621 C 0.95362 0.41957 0.40608 0.0
O622 O 0.86733 0.41512 0.43726 0.0
O623 O 0.90599 0.38916 0.45371 0.0
C624 C 0.13824 0.2732 0.36637 0.0
C625 C 0.1203 0.29236 0.38543 0.0
C626 C 0.13336 0.2412 0.3656 0.0
C627 C 0.11076 0.22724 0.38428 0.0
H628 H 0.15594 0.28302 0.35165 0.0
H629 H 0.14787 0.22726 0.35074 0.0
S630 S 0.05773 0.26721 0.4383 0.0
N631 N 0.07888 0.29521 0.42323 0.0
N632 N 0.07015 0.23491 0.42226 0.0
C633 C 0.09269 0.24612 0.40348 0.0
C634 C 0.09734 0.27875 0.40393 0.0
C635 C 0.27217 0.63981 0.86608 0.0
C636 C 0.29078 0.61926 0.88288 0.0
C637 C 0.23996 0.63886 0.86859 0.0
C638 C 0.22525 0.61698 0.88757 0.0
H639 H 0.28256 0.65732 0.8515 0.0
H640 H 0.22651 0.65542 0.85553 0.0
S641 S 0.26366 0.55673 0.93482 0.0
N642 N 0.29239 0.57568 0.91827 0.0
N643 N 0.23164 0.57344 0.92251 0.0
C644 C 0.24357 0.59567 0.90381 0.0
C645 C 0.27642 0.59696 0.90161 0.0
C646 C 0.88195 0.76769 0.40355 0.0
C647 C 0.89994 0.78397 0.38198 0.0
C648 C 0.87944 0.73543 0.40217 0.0
C649 C 0.89574 0.71864 0.37984 0.0
H650 H 0.86943 0.78002 0.42134 0.0
H651 H 0.86533 0.72351 0.41905 0.0
S652 S 0.94602 0.7504 0.31842 0.0
N653 N 0.93372 0.78115 0.33739 0.0
N654 N 0.93027 0.72021 0.33574 0.0
C655 C 0.91395 0.73459 0.35832 0.0
C656 C 0.91571 0.76744 0.35912 0.0
C657 C 0.77725 0.37418 0.88569 0.0
C658 C 0.79319 0.39098 0.90846 0.0
C659 C 0.74566 0.37905 0.88036 0.0
C660 C 0.72887 0.40067 0.89783 0.0
H661 H 0.78936 0.35757 0.87144 0.0
H662 H 0.73426 0.36547 0.8627 0.0
S663 S 0.7598 0.45043 0.96043 0.0
N664 N 0.78981 0.43004 0.94872 0.0
N665 N 0.73048 0.439 0.93886 0.0
C666 C 0.7445 0.41748 0.92081 0.0
C667 C 0.77664 0.41266 0.92611 0.0
C668 C 0.1147 0.73791 0.60919 0.0
C669 C 0.13519 0.72174 0.62848 0.0
C670 C 0.1129 0.77016 0.61008 0.0
C671 C 0.13114 0.78741 0.63067 0.0
H672 H 0.09996 0.72556 0.59315 0.0
H673 H 0.09691 0.78161 0.59464 0.0
S674 S 0.18839 0.75614 0.68616 0.0
N675 N 0.1742 0.72527 0.66871 0.0
N676 N 0.17051 0.78609 0.67072 0.0
C677 C 0.15167 0.77158 0.6502 0.0
C678 C 0.15383 0.73868 0.64898 0.0
C679 C 0.74299 0.59858 0.10202 0.0
C680 C 0.72675 0.61708 0.12315 0.0
C681 C 0.77493 0.6019 0.09815 0.0
C682 C 0.79168 0.62416 0.11488 0.0
H683 H 0.73097 0.58138 0.08837 0.0
H684 H 0.78655 0.58693 0.08182 0.0
S685 S 0.75989 0.67862 0.17285 0.0
N686 N 0.72965 0.65851 0.16098 0.0
N687 N 0.78973 0.66498 0.15345 0.0
C688 C 0.7757 0.64295 0.13598 0.0
C689 C 0.74321 0.63928 0.14022 0.0
C690 C 0.89018 0.25458 0.61511 0.0
C691 C 0.90599 0.23624 0.63669 0.0
C692 C 0.89143 0.2869 0.61673 0.0
C693 C 0.90946 0.30164 0.63927 0.0
H694 H 0.87621 0.24387 0.59731 0.0
H695 H 0.87856 0.30043 0.60009 0.0
S696 S 0.95566 0.26396 0.70053 0.0
N697 N 0.93996 0.23495 0.68124 0.0
N698 N 0.94354 0.29584 0.68341 0.0
C699 C 0.92581 0.28357 0.66059 0.0
C700 C 0.92375 0.25074 0.65954 0.0
C701 C 0.27155 0.41803 0.13006 0.0
C702 C 0.29074 0.40025 0.11101 0.0
C703 C 0.23935 0.41539 0.12804 0.0
C704 C 0.22559 0.39411 0.1077 0.0
H705 H 0.28149 0.43416 0.14644 0.0
H706 H 0.22514 0.42939 0.14314 0.0
S707 S 0.26589 0.34186 0.05351 0.0
N708 N 0.29397 0.36101 0.071 0.0
N709 N 0.23327 0.35496 0.06838 0.0
C710 C 0.24452 0.37604 0.08875 0.0
C711 C 0.27723 0.37943 0.09009 0.0
C712 C 0.35956 0.11356 0.23532 0.0
C713 C 0.38002 0.13395 0.2206 0.0
C714 C 0.35825 0.1122 0.26748 0.0
C715 C 0.37653 0.13199 0.28563 0.0
H716 H 0.34515 0.09804 0.22192 0.0
H717 H 0.34273 0.09571 0.27824 0.0
S718 S 0.43265 0.19044 0.25783 0.0
N719 N 0.4186 0.17454 0.22614 0.0
N720 N 0.41501 0.17301 0.2868 0.0
C721 C 0.39639 0.1531 0.27115 0.0
C722 C 0.39844 0.1538 0.23846 0.0
C723 C 0.40091 0.86583 0.73964 0.0
C724 C 0.38395 0.88612 0.72102 0.0
C725 C 0.39901 0.86785 0.77173 0.0
C726 C 0.3793 0.88945 0.78584 0.0
H727 H 0.41667 0.8493 0.7294 0.0
H728 H 0.41331 0.85273 0.78563 0.0
S729 S 0.32844 0.94595 0.74692 0.0
N730 N 0.3461 0.92759 0.71856 0.0
N731 N 0.34149 0.93032 0.77912 0.0
C732 C 0.36114 0.90879 0.76746 0.0
C733 C 0.36377 0.90741 0.73485 0.0
C734 C 0.61581 0.89624 0.24114 0.0
C735 C 0.63679 0.87829 0.2241 0.0
C736 C 0.61533 0.895 0.27324 0.0
C737 C 0.63546 0.87544 0.28946 0.0
H738 H 0.59975 0.91157 0.22964 0.0
H739 H 0.59895 0.9095 0.28542 0.0
S740 S 0.69457 0.82345 0.25566 0.0
N741 N 0.67817 0.84025 0.22567 0.0
N742 N 0.67698 0.83766 0.2863 0.0
C743 C 0.6564 0.85711 0.27277 0.0
C744 C 0.65717 0.85867 0.23999 0.0
C745 C 0.60908 0.15032 0.77775 0.0
C746 C 0.63011 0.13208 0.79445 0.0
C747 C 0.60982 0.15093 0.74554 0.0
C748 C 0.6309 0.13251 0.72932 0.0
H749 H 0.59228 0.16452 0.78968 0.0
H750 H 0.59338 0.16527 0.73326 0.0
S751 S 0.69055 0.0808 0.76238 0.0
N752 N 0.67291 0.09581 0.79264 0.0
N753 N 0.6733 0.09576 0.73187 0.0
C754 C 0.65188 0.11406 0.74572 0.0
C755 C 0.65177 0.11417 0.77846 0.0
C756 C 0.87389 0.76624 0.64335 0.0
C757 C 0.89547 0.78349 0.62626 0.0
C758 C 0.87246 0.73399 0.64066 0.0
C759 C 0.8929 0.71795 0.62121 0.0
H760 H 0.85758 0.77776 0.65839 0.0
H761 H 0.85531 0.72155 0.65401 0.0
S762 S 0.95456 0.75243 0.57261 0.0
N763 N 0.9382 0.78225 0.58984 0.0
N764 N 0.93584 0.72161 0.58516 0.0
C765 C 0.91501 0.7349 0.60451 0.0
C766 C 0.91619 0.76771 0.60692 0.0
C767 C 0.78032 0.36169 0.12048 0.0
C768 C 0.79597 0.38101 0.14126 0.0
C769 C 0.74797 0.36182 0.11899 0.0
C770 C 0.73052 0.38046 0.139 0.0
H771 H 0.79316 0.34717 0.10467 0.0
H772 H 0.73652 0.34719 0.10221 0.0
S773 S 0.76085 0.43398 0.19841 0.0
N774 N 0.79204 0.41891 0.18238 0.0
N775 N 0.73102 0.41798 0.18065 0.0
C776 C 0.74592 0.39912 0.16051 0.0
C777 C 0.77881 0.39972 0.16135 0.0
C778 C 0.11676 0.25029 0.60072 0.0
C779 C 0.13769 0.23541 0.62058 0.0
C780 C 0.11637 0.28254 0.59813 0.0
C781 C 0.13738 0.3009 0.61474 0.0
H782 H 0.10001 0.23698 0.58768 0.0
H783 H 0.09935 0.29317 0.5832 0.0
S784 S 0.19779 0.27302 0.66872 0.0
N785 N 0.18045 0.24124 0.65649 0.0
N786 N 0.18022 0.30194 0.65112 0.0
C787 C 0.15905 0.28626 0.63398 0.0
C788 C 0.15904 0.25345 0.63707 0.0
C789 C 0.24609 0.60316 0.14015 0.0
C790 C 0.22829 0.62425 0.1231 0.0
C791 C 0.27844 0.60491 0.13997 0.0
C792 C 0.29368 0.62706 0.12185 0.0
H793 H 0.23495 0.58581 0.15436 0.0
H794 H 0.29159 0.58875 0.15382 0.0
S795 S 0.25747 0.68671 0.07242 0.0
N796 N 0.22802 0.66776 0.0877 0.0
N797 N 0.28896 0.67008 0.08616 0.0
C798 C 0.27616 0.64773 0.10414 0.0
C799 C 0.24331 0.64659 0.10508 0.0
C800 C 0.8907 0.24832 0.37466 0.0
C801 C 0.87032 0.23251 0.39429 0.0
C802 C 0.89541 0.28013 0.37785 0.0
C803 C 0.87918 0.2972 0.4001 0.0
H804 H 0.90399 0.23584 0.35755 0.0
H805 H 0.91195 0.29147 0.36285 0.0
S806 S 0.82179 0.26698 0.45572 0.0
N807 N 0.83312 0.23621 0.43615 0.0
N808 N 0.84107 0.29659 0.44113 0.0
C809 C 0.85781 0.28198 0.41902 0.0
C810 C 0.85364 0.24939 0.4164 0.0
C811 C 0.2389 0.37315 0.86524 0.0
C812 C 0.2212 0.39234 0.88449 0.0
C813 C 0.27102 0.37642 0.86349 0.0
C814 C 0.28662 0.39863 0.88135 0.0
H815 H 0.22785 0.35566 0.85112 0.0
H816 H 0.28377 0.36101 0.84848 0.0
S817 S 0.25093 0.45476 0.93526 0.0
N818 N 0.22149 0.43468 0.92146 0.0
N819 N 0.2821 0.44037 0.91865 0.0
C820 C 0.26925 0.41798 0.90073 0.0
C821 C 0.23645 0.41497 0.90217 0.0
C822 C 0.11576 0.76661 0.38241 0.0
C823 C 0.13665 0.78366 0.40045 0.0
C824 C 0.11428 0.7344 0.38477 0.0
C825 C 0.13435 0.71833 0.4045 0.0
H826 H 0.10039 0.77825 0.36647 0.0
H827 H 0.09808 0.72192 0.37029 0.0
S828 S 0.19304 0.75234 0.45662 0.0
N829 N 0.17715 0.78243 0.43931 0.0
N830 N 0.1754 0.72146 0.44255 0.0
C831 C 0.15532 0.73505 0.42267 0.0
C832 C 0.15616 0.76793 0.42098 0.0
C833 C 0.77374 0.61201 0.88841 0.0
C834 C 0.79033 0.63314 0.87018 0.0
C835 C 0.74149 0.6125 0.88926 0.0
C836 C 0.72465 0.63376 0.8715 0.0
H837 H 0.78576 0.59535 0.90269 0.0
H838 H 0.72968 0.59613 0.90408 0.0
S839 S 0.75713 0.69292 0.8187 0.0
N840 N 0.78772 0.67533 0.83323 0.0
N841 N 0.72675 0.6759 0.8344 0.0
C842 C 0.74087 0.65451 0.85249 0.0
C843 C 0.77384 0.65433 0.85199 0.0
C844 C 0.62943 0.9211 0.7694 0.0
C845 C 0.64475 0.89956 0.78817 0.0
C846 C 0.62867 0.91755 0.73745 0.0
C847 C 0.6427 0.89199 0.72316 0.0
H848 H 0.61746 0.94062 0.77952 0.0
H849 H 0.61619 0.93452 0.72396 0.0
S850 S 0.68695 0.82974 0.76195 0.0
N851 N 0.67544 0.8525 0.79026 0.0
N852 N 0.67355 0.84548 0.72996 0.0
C853 C 0.65876 0.87063 0.74156 0.0
C854 C 0.65997 0.87455 0.77416 0.0
C855 C 0.59336 0.1143 0.24079 0.0
C856 C 0.62157 0.10533 0.22733 0.0
C857 C 0.59018 0.11633 0.27277 0.0
C858 C 0.61481 0.10864 0.29234 0.0
H859 H 0.5739 0.12089 0.22651 0.0
H860 H 0.56838 0.12419 0.28224 0.0
S861 S 0.69298 0.08255 0.26872 0.0
N862 N 0.67434 0.08807 0.23596 0.0
N863 N 0.66805 0.09095 0.29629 0.0
C864 C 0.64281 0.09862 0.27928 0.0
C865 C 0.64628 0.09723 0.24667 0.0
C866 C 0.40186 0.10894 0.74076 0.0
C867 C 0.38422 0.1301 0.72361 0.0
C868 C 0.39984 0.10797 0.77287 0.0
C869 C 0.37967 0.12769 0.78888 0.0
H870 H 0.41789 0.09347 0.72936 0.0
H871 H 0.41438 0.09179 0.78524 0.0
S872 S 0.32725 0.18614 0.75448 0.0
N873 N 0.3452 0.17054 0.72475 0.0
N874 N 0.34099 0.16837 0.78523 0.0
C875 C 0.36121 0.14835 0.77196 0.0
C876 C 0.36363 0.14968 0.73926 0.0
C877 C 0.40377 0.91833 0.24218 0.0
C878 C 0.38436 0.8992 0.22447 0.0
C879 C 0.40717 0.91361 0.27388 0.0
C880 C 0.39176 0.88922 0.28883 0.0
H881 H 0.4167 0.93691 0.23143 0.0
H882 H 0.42247 0.92883 0.28662 0.0
S883 S 0.33778 0.83292 0.25292 0.0
N884 N 0.34891 0.85541 0.22425 0.0
N885 N 0.35573 0.84619 0.28379 0.0
C886 C 0.37197 0.87014 0.27148 0.0
C887 C 0.36812 0.87526 0.23929 0.0
C888 C 0.0795 0.12663 0.52983 0.0
C889 C 0.10265 0.10938 0.54459 0.0
C890 C 0.0756 0.12505 0.49801 0.0
C891 C 0.09485 0.10629 0.47988 0.0
H892 H 0.06571 0.14313 0.54264 0.0
H893 H 0.05898 0.14045 0.48737 0.0
S894 S 0.15452 0.05176 0.50833 0.0
N895 N 0.14163 0.0692 0.53964 0.0
N896 N 0.13441 0.06627 0.4794 0.0
C897 C 0.11559 0.08617 0.49472 0.0
C898 C 0.1195 0.08773 0.52731 0.0
C899 C 0.40729 0.59233 0.98651 0.0
C900 C 0.41996 0.61672 0.96926 0.0
C901 C 0.40773 0.59303 0.01859 0.0
C902 C 0.42082 0.61818 0.03444 0.0
H903 H 0.39481 0.57374 0.97521 0.0
H904 H 0.39558 0.57495 0.03098 0.0
S905 S 0.46258 0.68457 0.99985 0.0
N906 N 0.45037 0.66412 0.97007 0.0
N907 N 0.45118 0.66548 0.03079 0.0
C908 C 0.43693 0.64078 0.01757 0.0
C909 C 0.43649 0.64004 0.98472 0.0
C910 C 0.94341 0.88947 0.49394 0.0
C911 C 0.92265 0.90746 0.47669 0.0
C912 C 0.94235 0.88944 0.52602 0.0
C913 C 0.92055 0.90745 0.5419 0.0
H914 H 0.95901 0.87352 0.4826 0.0
H915 H 0.95715 0.87346 0.53835 0.0
S916 S 0.86579 0.96361 0.50759 0.0
N917 N 0.88331 0.94767 0.47776 0.0
N918 N 0.88134 0.94759 0.53844 0.0
C919 C 0.90231 0.92839 0.52514 0.0
C920 C 0.90337 0.92841 0.49231 0.0
C921 C 0.62189 0.43689 0.99821 0.0
C922 C 0.60362 0.4174 0.97971 0.0
C923 C 0.62354 0.43253 0.02998 0.0
C924 C 0.60674 0.40877 0.04436 0.0
H925 H 0.63699 0.45403 0.98789 0.0
H926 H 0.63968 0.44658 0.04303 0.0
S927 S 0.54995 0.35634 0.0072 0.0
N928 N 0.56425 0.37708 0.97859 0.0
N929 N 0.56715 0.3691 0.03873 0.0
C930 C 0.58543 0.3917 0.02676 0.0
C931 C 0.58386 0.39602 0.99421 0.0
C932 C 0.13107 0.93076 0.52348 0.0
C933 C 0.10819 0.91388 0.53925 0.0
C934 C 0.13222 0.93046 0.49125 0.0
C935 C 0.11051 0.91327 0.47424 0.0
H936 H 0.14991 0.94156 0.53598 0.0
H937 H 0.15194 0.94094 0.47991 0.0
S938 S 0.04083 0.87373 0.50463 0.0
N939 N 0.05951 0.88587 0.53557 0.0
N940 N 0.06172 0.88528 0.47492 0.0
C941 C 0.08515 0.90021 0.48964 0.0
C942 C 0.08397 0.90051 0.52232 0.0
C943 C 0.62171 0.58714 0.98425 0.0
C944 C 0.60414 0.61038 0.97001 0.0
C945 C 0.62073 0.58294 0.01605 0.0
C946 C 0.60234 0.60203 0.03474 0.0
H947 H 0.63782 0.57334 0.971 0.0
H948 H 0.63629 0.56617 0.02622 0.0
S949 S 0.54723 0.6619 0.00787 0.0
N950 N 0.56405 0.6493 0.97611 0.0
N951 N 0.56236 0.64159 0.03633 0.0
C952 C 0.58201 0.62297 0.02047 0.0
C953 C 0.58291 0.62715 0.98789 0.0
C954 C 0.9249 0.13154 0.49116 0.0
C955 C 0.90273 0.11229 0.47729 0.0
C956 C 0.92901 0.13166 0.523 0.0
C957 C 0.91092 0.11261 0.54209 0.0
H958 H 0.93775 0.14823 0.47755 0.0
H959 H 0.9448 0.14845 0.5328 0.0
S960 S 0.85465 0.05305 0.5164 0.0
N961 N 0.8663 0.06991 0.48429 0.0
N962 N 0.8739 0.07017 0.54453 0.0
C963 C 0.89133 0.09063 0.52825 0.0
C964 C 0.88721 0.09044 0.49565 0.0
C965 C 0.43329 0.39787 0.98336 0.0
C966 C 0.41706 0.42061 0.96686 0.0
C967 C 0.43465 0.39894 0.01559 0.0
C968 C 0.41983 0.42281 0.03187 0.0
H969 H 0.44226 0.37762 0.97169 0.0
H970 H 0.44451 0.37941 0.02774 0.0
S971 S 0.38285 0.49245 0.99847 0.0
N972 N 0.39213 0.47094 0.96842 0.0
N973 N 0.39484 0.47308 0.029 0.0
C974 C 0.40753 0.44782 0.01531 0.0
C975 C 0.40605 0.44666 0.98267 0.0
C976 C 0.52109 0.08341 0.11346 0.0
C977 C 0.54025 0.10517 0.09879 0.0
C978 C 0.48905 0.08683 0.11341 0.0
C979 C 0.47506 0.11197 0.09847 0.0
H980 H 0.53095 0.06491 0.12713 0.0
H981 H 0.47533 0.07083 0.12695 0.0
S982 S 0.51447 0.17125 0.0508 0.0
N983 N 0.54279 0.14966 0.06451 0.0
N984 N 0.48213 0.15595 0.06422 0.0
C985 C 0.49358 0.1317 0.08052 0.0
C986 C 0.5264 0.1283 0.08069 0.0
C987 C 0.40096 0.99436 0.58256 0.0
C988 C 0.41925 0.97759 0.60352 0.0
C989 C 0.40034 0.0268 0.5834 0.0
C990 C 0.41792 0.04315 0.60527 0.0
H991 H 0.38517 0.98243 0.56723 0.0
H992 H 0.38416 0.03888 0.56865 0.0
S993 S 0.47439 0.01021 0.66036 0.0
N994 N 0.45921 0.97987 0.64291 0.0
N995 N 0.45781 0.04068 0.6446 0.0
C996 C 0.43876 0.02676 0.62387 0.0
C997 C 0.43951 0.99393 0.62293 0.0
C998 C 0.4971 0.93425 0.12096 0.0
C999 C 0.47838 0.91526 0.10244 0.0
C1000 C 0.52911 0.93051 0.12149 0.0
C1001 C 0.54352 0.90774 0.10345 0.0
H1002 H 0.48685 0.95064 0.13682 0.0
H1003 H 0.54241 0.94426 0.13765 0.0
S1004 S 0.50548 0.85655 0.04629 0.0
N1005 N 0.47683 0.87627 0.06198 0.0
N1006 N 0.53739 0.86931 0.06296 0.0
C1007 C 0.52552 0.89103 0.08223 0.0
C1008 C 0.49275 0.8948 0.08171 0.0
C1009 C 0.62906 0.02354 0.58862 0.0
C1010 C 0.61055 0.03957 0.60994 0.0
C1011 C 0.62951 0.99109 0.58814 0.0
C1012 C 0.61149 0.9739 0.609 0.0
H1013 H 0.64491 0.036 0.57379 0.0
H1014 H 0.64565 0.97955 0.57293 0.0
S1015 S 0.555 1.00499 0.66523 0.0
N1016 N 0.57047 0.03588 0.64909 0.0
N1017 N 0.5714 0.97511 0.64824 0.0
C1018 C 0.59069 0.9897 0.6282 0.0
C1019 C 0.59019 0.02255 0.62864 0.0
C1020 C 0.4908 0.90754 0.92314 0.0
C1021 C 0.47398 0.92363 0.90054 0.0
C1022 C 0.52321 0.90768 0.92292 0.0
C1023 C 0.53961 0.92388 0.90005 0.0
H1024 H 0.479 0.89292 0.93967 0.0
H1025 H 0.53533 0.89325 0.93934 0.0
S1026 S 0.50626 0.97477 0.83985 0.0
N1027 N 0.47602 0.96019 0.85795 0.0
N1028 N 0.53682 0.96033 0.85746 0.0
C1029 C 0.52304 0.94261 0.87942 0.0
C1030 C 0.49018 0.94254 0.8797 0.0
C1031 C 0.58697 0.98242 0.39412 0.0
C1032 C 0.6109 0.96835 0.41088 0.0
C1033 C 0.58269 0.01435 0.39497 0.0
C1034 C 0.60235 0.03338 0.4125 0.0
H1035 H 0.57251 0.96889 0.37875 0.0
H1036 H 0.56517 0.02432 0.38017 0.0
S1037 S 0.66466 1.00716 0.46511 0.0
N1038 N 0.65152 0.97506 0.44907 0.0
N1039 N 0.64361 0.0355 0.45064 0.0
C1040 C 0.62428 0.01932 0.43189 0.0
C1041 C 0.62857 0.98661 0.43109 0.0
C1042 C 0.48777 0.14143 0.93064 0.0
C1043 C 0.47207 0.11728 0.91555 0.0
C1044 C 0.52018 0.14194 0.93169 0.0
C1045 C 0.53748 0.11829 0.9177 0.0
H1046 H 0.47517 0.1613 0.9392 0.0
H1047 H 0.53163 0.16222 0.94098 0.0
S1048 S 0.5068 0.04614 0.88311 0.0
N1049 N 0.47575 0.06643 0.89202 0.0
N1050 N 0.53666 0.06731 0.8941 0.0
C1051 C 0.52188 0.09231 0.90606 0.0
C1052 C 0.48906 0.09183 0.90494 0.0
C1053 C 0.38654 0.98419 0.423 0.0
C1054 C 0.41018 0.97013 0.40573 0.0
C1055 C 0.38228 0.0163 0.42218 0.0
C1056 C 0.40152 0.03512 0.40402 0.0
H1057 H 0.36985 0.97022 0.43539 0.0
H1058 H 0.36249 0.02607 0.43396 0.0
S1059 S 0.47113 0.01029 0.36077 0.0
N1060 N 0.45629 0.97791 0.37455 0.0
N1061 N 0.44821 0.03824 0.37294 0.0
C1062 C 0.42712 0.02167 0.38933 0.0
C1063 C 0.43149 0.9891 0.39022 0.0
C1064 C 0.10681 0.48961 0.08007 0.0
C1065 C 0.09433 0.47144 0.10387 0.0
C1066 C 0.10829 0.5217 0.08279 0.0
C1067 C 0.097 0.53661 0.10918 0.0
H1068 H 0.11811 0.47886 0.06054 0.0
H1069 H 0.12059 0.53465 0.06525 0.0
S1070 S 0.0552 0.50016 0.17422 0.0
N1071 N 0.06526 0.47094 0.15186 0.0
N1072 N 0.06777 0.53172 0.15675 0.0
C1073 C 0.08057 0.51921 0.13105 0.0
C1074 C 0.07923 0.48634 0.12839 0.0
C1075 C 0.07483 0.51854 0.88249 0.0
C1076 C 0.08757 0.53328 0.90845 0.0
C1077 C 0.07418 0.48616 0.88062 0.0
C1078 C 0.08622 0.46812 0.90471 0.0
H1079 H 0.06879 0.53185 0.86222 0.0
H1080 H 0.0677 0.47549 0.85897 0.0
S1081 S 0.11254 0.496 0.98101 0.0
N1082 N 0.10544 0.52782 0.96117 0.0
N1083 N 0.104 0.46693 0.95779 0.0
C1084 C 0.09435 0.48266 0.93244 0.0
C1085 C 0.09511 0.51543 0.93428 0.0
C1086 C 0.02604 0.6045 0.42876 0.0
C1087 C 0.04462 0.59027 0.40635 0.0
C1088 C 0.99394 0.60472 0.4259 0.0
C1089 C 0.97936 0.59066 0.40059 0.0
H1090 H 0.03642 0.61772 0.44731 0.0
H1091 H 0.98067 0.61806 0.44237 0.0
S1092 S 0.01721 0.54411 0.33969 0.0
N1093 N 0.04605 0.55699 0.36115 0.0
N1094 N 0.98527 0.5574 0.3558 0.0
C1095 C 0.99731 0.57292 0.38025 0.0
C1096 C 0.03019 0.57272 0.38315 0.0
C1097 C 0.93092 0.52673 0.89862 0.0
C1098 C 0.9067 0.54481 0.91037 0.0
C1099 C 0.93266 0.49506 0.90541 0.0
C1100 C 0.91029 0.48081 0.92426 0.0
H1101 H 0.9472 0.53648 0.8823 0.0
H1102 H 0.95015 0.48135 0.89396 0.0
S1103 S 0.84614 0.51998 0.96555 0.0
N1104 N 0.86298 0.54762 0.94543 0.0
N1105 N 0.86619 0.48835 0.95836 0.0
C1106 C 0.88808 0.49954 0.93879 0.0
C1107 C 0.88623 0.53155 0.93173 0.0
C1108 C 0.03577 0.42523 0.42771 0.0
C1109 C 0.04934 0.43128 0.39898 0.0
C1110 C 1.00376 0.42614 0.43128 0.0
C1111 C 0.98456 0.43317 0.40622 0.0
H1112 H 0.04967 0.41658 0.44662 0.0
H1113 H 0.99388 0.41795 0.45274 0.0
S1114 S 1.00924 0.45738 0.32829 0.0
N1115 N 0.04186 0.44992 0.34669 0.0
N1116 N 0.98119 0.45157 0.3535 0.0
C1117 C 0.99799 0.44366 0.37874 0.0
C1118 C 0.03074 0.44273 0.37506 0.0
C1119 C 0.93685 0.49114 0.12652 0.0
C1120 C 0.91886 0.47161 0.10782 0.0
C1121 C 0.93693 0.52319 0.12164 0.0
C1122 C 0.919 0.53632 0.09798 0.0
H1123 H 0.94856 0.48206 0.14664 0.0
H1124 H 0.94865 0.53782 0.13823 0.0
S1125 S 0.8752 0.49393 0.03795 0.0
N1126 N 0.88819 0.46671 0.06119 0.0
N1127 N 0.88823 0.52695 0.05203 0.0
C1128 C 0.90436 0.51658 0.07684 0.0
C1129 C 0.90429 0.48411 0.08179 0.0
C1130 C 0.01188 0.45179 0.66772 0.0
C1131 C 0.98926 0.45173 0.64453 0.0
C1132 C 0.04338 0.45217 0.6601 0.0
C1133 C 0.05271 0.45164 0.62911 0.0
H1134 H 1.00537 0.44739 0.69142 0.0
H1135 H 0.06014 0.44817 0.67824 0.0
S1136 S 1.00232 0.45884 0.56068 0.0
N1137 N 0.97815 0.45779 0.59013 0.0
N1138 N 0.03741 0.45709 0.57567 0.0
C1139 C 0.03042 0.45619 0.60616 0.0
C1140 C 0.99848 0.45661 0.61398 0.0
C1141 C 0.02854 0.6185 0.58188 0.0
C1142 C 0.04399 0.59916 0.60283 0.0
C1143 C 0.99645 0.61779 0.57928 0.0
C1144 C 0.97865 0.59768 0.59748 0.0
H1145 H 0.04109 0.63584 0.56888 0.0
H1146 H 0.98541 0.63469 0.56449 0.0
S1147 S 1.00848 0.53734 0.65037 0.0
N1148 N 0.03974 0.55552 0.638 0.0
N1149 N 0.97893 0.55416 0.63305 0.0
C1150 C 0.99395 0.5756 0.61571 0.0
C1151 C 0.02686 0.57636 0.61842 0.0
C1152 C 0.97298 0.13138 0.3366 0.0
C1153 C 0.955 0.10991 0.35333 0.0
C1154 C 1.0056 0.13023 0.33658 0.0
C1155 C 0.02198 0.10767 0.35346 0.0
H1156 H 0.96181 0.1504 0.32478 0.0
H1157 H 0.01807 0.14842 0.32473 0.0
S1158 S 0.98603 0.04443 0.39914 0.0
N1159 N 0.95627 0.06389 0.38538 0.0
N1160 N 0.01722 0.0618 0.38554 0.0
C1161 C 1.00425 0.08477 0.36857 0.0
C1162 C 0.97096 0.08587 0.36845 0.0
C1163 C 0.4312 0.49747 0.85452 0.0
C1164 C 0.40696 0.48115 0.83996 0.0
C1165 C 0.43219 0.53015 0.85478 0.0
C1166 C 0.40908 0.54811 0.84039 0.0
H1167 H 0.4484 0.48503 0.86773 0.0
H1168 H 0.45016 0.54136 0.86815 0.0
S1169 S 0.34335 0.5168 0.79476 0.0
N1170 N 0.36135 0.48569 0.80756 0.0
N1171 N 0.36331 0.54664 0.80786 0.0
C1172 C 0.38627 0.53202 0.82347 0.0
C1173 C 0.38519 0.49876 0.82332 0.0
C1174 C 0.03723 0.87974 0.33554 0.0
C1175 C 0.05474 0.90254 0.35096 0.0
C1176 C 1.0046 0.88001 0.33573 0.0
C1177 C 0.98774 0.90303 0.35149 0.0
H1178 H 0.04879 0.86038 0.3247 0.0
H1179 H 0.99254 0.86086 0.32497 0.0
S1180 S 0.02228 0.96973 0.3932 0.0
N1181 N 0.05247 0.9503 0.38037 0.0
N1182 N 0.99146 0.95078 0.38088 0.0
C1183 C 1.00493 0.92722 0.36514 0.0
C1184 C 0.03825 0.92698 0.36484 0.0
C1185 C 0.58439 0.50257 0.86277 0.0
C1186 C 0.60812 0.48554 0.84826 0.0
C1187 C 0.58319 0.53521 0.8611 0.0
C1188 C 0.6056 0.55242 0.84475 0.0
H1189 H 0.56777 0.49082 0.87733 0.0
H1190 H 0.56575 0.5471 0.87451 0.0
S1191 S 0.66945 0.51882 0.7983 0.0
N1192 N 0.65224 0.48843 0.81374 0.0
N1193 N 0.64992 0.54926 0.81045 0.0
C1194 C 0.62779 0.53547 0.82794 0.0
C1195 C 0.62907 0.50227 0.82974 0.0
C1196 C 0.99607 0.88537 0.68511 0.0
C1197 C 0.97819 0.9063 0.66768 0.0
C1198 C 0.02872 0.88594 0.68442 0.0
C1199 C 0.04517 0.90742 0.66619 0.0
H1200 H 0.98476 0.86714 0.69801 0.0
H1201 H 0.04113 0.86814 0.69686 0.0
S1202 S 1.00959 0.96799 0.61702 0.0
N1203 N 0.97974 0.95012 0.63271 0.0
N1204 N 0.04067 0.95117 0.63135 0.0
C1205 C 0.0276 0.92972 0.65017 0.0
C1206 C 0.99432 0.92916 0.65093 0.0
C1207 C 0.63208 0.48358 0.18133 0.0
C1208 C 0.6091 0.46528 0.1671 0.0
C1209 C 0.63123 0.51617 0.18037 0.0
C1210 C 0.60739 0.53223 0.16503 0.0
H1211 H 0.65207 0.47267 0.19173 0.0
H1212 H 0.65059 0.52879 0.19006 0.0
S1213 S 0.53895 0.49562 0.12803 0.0
N1214 N 0.55973 0.46604 0.14028 0.0
N1215 N 0.55814 0.52702 0.13841 0.0
C1216 C 0.58287 0.51431 0.15296 0.0
C1217 C 0.5837 0.481 0.15401 0.0
C1218 C 0.99863 0.14 0.68469 0.0
C1219 C 0.98218 0.11628 0.66943 0.0
C1220 C 0.03126 0.14066 0.68527 0.0
C1221 C 0.0491 0.11745 0.67095 0.0
H1222 H 0.9863 0.15945 0.69449 0.0
H1223 H 0.04258 0.16056 0.69546 0.0
S1224 S 0.01761 0.0482 0.6312 0.0
N1225 N 0.98654 0.06739 0.64218 0.0
N1226 N 0.04752 0.06845 0.6436 0.0
C1227 C 0.03296 0.0923 0.65786 0.0
C1228 C 0.99969 0.09177 0.65701 0.0
C1229 C 0.4352 0.53404 0.14496 0.0
C1230 C 0.41232 0.55163 0.16013 0.0
C1231 C 0.43421 0.50137 0.14449 0.0
C1232 C 0.41018 0.48473 0.15901 0.0
H1233 H 0.45296 0.54556 0.1316 0.0
H1234 H 0.45122 0.48923 0.13075 0.0
S1235 S 0.34744 0.51927 0.20617 0.0
N1236 N 0.36716 0.54941 0.19343 0.0
N1237 N 0.36518 0.48848 0.1923 0.0
C1238 C 0.38871 0.50193 0.17642 0.0
C1239 C 0.38981 0.53517 0.17705 0.0
C1240 C 0.36488 0.0346 0.07944 0.0
C1241 C 0.34862 0.0521 0.10159 0.0
C1242 C 0.36502 1.00191 0.0801 0.0
C1243 C 0.34894 0.98513 0.10296 0.0
H1244 H 0.37936 0.04619 0.06266 0.0
H1245 H 0.3796 0.98982 0.0638 0.0
S1246 S 0.29859 0.01954 0.16318 0.0
N1247 N 0.3128 0.04974 0.14467 0.0
N1248 N 0.31313 0.98879 0.14592 0.0
C1249 C 0.3305 1.0023 0.12357 0.0
C1250 C 0.33032 0.03556 0.12288 0.0
C1251 C 0.49651 0.86258 0.58256 0.0
C1252 C 0.47864 0.84844 0.60589 0.0
C1253 C 0.52925 0.86134 0.58278 0.0
C1254 C 0.54564 0.84594 0.60636 0.0
H1255 H 0.48527 0.87647 0.5651 0.0
H1256 H 0.54177 0.87437 0.5655 0.0
S1257 S 0.50994 0.80093 0.67001 0.0
N1258 N 0.48013 0.81529 0.65106 0.0
N1259 N 0.54102 0.81309 0.65151 0.0
C1260 C 0.52796 0.82968 0.62834 0.0
C1261 C 0.49473 0.83089 0.6281 0.0
C1262 C 0.65447 0.01461 0.08376 0.0
C1263 C 0.66915 0.03188 0.10721 0.0
C1264 C 0.65543 0.98195 0.08324 0.0
C1265 C 0.67103 0.96496 0.1062 0.0
H1266 H 0.6404 0.02626 0.06671 0.0
H1267 H 0.64196 0.96995 0.06589 0.0
S1268 S 0.71742 0.99893 0.1699 0.0
N1269 N 0.70305 0.02927 0.1518 0.0
N1270 N 0.70476 0.96833 0.15089 0.0
C1271 C 0.68798 0.98202 0.12823 0.0
C1272 C 0.68707 0.01527 0.1287 0.0
C1273 C 0.53102 0.18295 0.63122 0.0
C1274 C 0.54807 0.16757 0.60814 0.0
C1275 C 0.49844 0.18384 0.6308 0.0
C1276 C 0.48111 0.16957 0.60719 0.0
H1277 H 0.54283 0.1928 0.65094 0.0
H1278 H 0.4867 0.19428 0.65022 0.0
S1279 S 0.51429 0.12997 0.53885 0.0
N1280 N 0.54489 0.14054 0.55912 0.0
N1281 N 0.48388 0.14238 0.55826 0.0
C1282 C 0.49786 0.15635 0.58261 0.0
C1283 C 0.53118 0.1553 0.58311 0.0
C1284 C 0.36153 0.03018 0.92986 0.0
C1285 C 0.34535 0.04784 0.90773 0.0
C1286 C 0.36194 0.99747 0.92885 0.0
C1287 C 0.3463 0.98081 0.9056 0.0
H1288 H 0.37567 0.0417 0.94698 0.0
H1289 H 0.3764 0.98529 0.94521 0.0
S1290 S 0.29661 0.01548 0.84494 0.0
N1291 N 0.31023 0.0456 0.86405 0.0
N1292 N 0.31117 0.98468 0.86208 0.0
C1293 C 0.32808 0.99809 0.88486 0.0
C1294 C 0.32755 0.03135 0.88595 0.0
C1295 C 0.53613 0.85459 0.43116 0.0
C1296 C 0.55378 0.83922 0.40849 0.0
C1297 C 0.50342 0.85441 0.43052 0.0
C1298 C 0.48681 0.83895 0.4071 0.0
H1299 H 0.54759 0.86864 0.4484 0.0
H1300 H 0.49117 0.86832 0.44728 0.0
S1301 S 0.52163 0.79088 0.3453 0.0
N1302 N 0.55171 0.80476 0.36428 0.0
N1303 N 0.49076 0.80462 0.36299 0.0
C1304 C 0.50414 0.8214 0.38588 0.0
C1305 C 0.53739 0.82147 0.3866 0.0
C1306 C 0.64916 0.03509 0.93485 0.0
C1307 C 0.66539 0.05338 0.91328 0.0
C1308 C 0.64996 1.00241 0.93383 0.0
C1309 C 0.66697 0.9864 0.91114 0.0
H1310 H 0.63408 0.04601 0.95152 0.0
H1311 H 0.63543 0.98968 0.94972 0.0
S1312 S 0.71722 0.02313 0.85206 0.0
N1313 N 0.7019 0.05265 0.87072 0.0
N1314 N 0.70334 0.99174 0.86878 0.0
C1315 C 0.68526 1.00441 0.89103 0.0
C1316 C 0.68449 0.03767 0.8921 0.0
C1317 C 0.47336 0.14574 0.43039 0.0
C1318 C 0.4569 0.16147 0.40713 0.0
C1319 C 0.50603 0.14571 0.43126 0.0
C1320 C 0.52387 0.16146 0.40895 0.0
H1321 H 0.46103 0.13161 0.44696 0.0
H1322 H 0.51734 0.13163 0.44852 0.0
S1323 S 0.49221 0.21004 0.34583 0.0
N1324 N 0.46122 0.19618 0.36327 0.0
N1325 N 0.52215 0.19615 0.36494 0.0
C1326 C 0.50766 0.17934 0.38712 0.0
C1327 C 0.4744 0.17933 0.38619 0.0
C1328 C 0.0824 0.35606 0.98304 0.0
C1329 C 0.10656 0.34254 0.96582 0.0
C1330 C 0.08295 0.35668 0.0156 0.0
C1331 C 0.1076 0.34371 0.03258 0.0
H1332 H 0.06391 0.36815 0.97134 0.0
H1333 H 0.06478 0.36915 0.02744 0.0
S1334 S 0.17432 0.30149 0.99889 0.0
N1335 N 0.15413 0.31281 0.96865 0.0
N1336 N 0.15508 0.31384 0.02933 0.0
C1337 C 0.13057 0.32792 0.01569 0.0
C1338 C 0.13006 0.32739 0.98255 0.0
C1339 C 0.08808 0.64804 0.99499 0.0
C1340 C 0.11412 0.65818 0.97816 0.0
C1341 C 0.08761 0.64867 0.02762 0.0
C1342 C 0.11302 0.65977 0.04492 0.0
H1343 H 0.06873 0.63757 0.98301 0.0
H1344 H 0.06784 0.63875 0.03936 0.0
S1345 S 0.18549 0.69225 0.01191 0.0
N1346 N 0.16492 0.68208 0.98151 0.0
N1347 N 0.1639 0.68372 0.04208 0.0
C1348 C 0.13821 0.67205 0.0282 0.0
C1349 C 0.1388 0.67111 0.99513 0.0
C1350 C 0.83911 0.62381 0.47756 0.0
C1351 C 0.85353 0.59981 0.46089 0.0
C1352 C 0.83832 0.624 0.51004 0.0
C1353 C 0.85175 0.60013 0.52771 0.0
H1354 H 0.82991 0.64372 0.4655 0.0
H1355 H 0.82856 0.64404 0.52142 0.0
S1356 S 0.88891 0.52969 0.49568 0.0
N1357 N 0.87892 0.5498 0.4649 0.0
N1358 N 0.87729 0.55013 0.52566 0.0
C1359 C 0.86412 0.57477 0.51138 0.0
C1360 C 0.86505 0.57463 0.47817 0.0
C1361 C 0.89347 0.33211 0.00873 0.0
C1362 C 0.91656 0.34779 0.99189 0.0
C1363 C 0.8937 0.3314 0.04117 0.0
C1364 C 0.91705 0.34626 0.05842 0.0
H1365 H 0.87379 0.32212 0.99691 0.0
H1366 H 0.87416 0.32088 0.0528 0.0
S1367 S 0.98599 0.38569 0.02558 0.0
N1368 N 0.96583 0.37486 0.99509 0.0
N1369 N 0.96625 0.3735 0.05581 0.0
C1370 C 0.94188 0.35941 0.04185 0.0
C1371 C 0.94161 0.36018 0.00872 0.0
C1372 C 0.14716 0.43618 0.51114 0.0
C1373 C 0.16256 0.41518 0.53063 0.0
C1374 C 0.15049 0.43502 0.47881 0.0
C1375 C 0.16855 0.41205 0.46433 0.0
H1376 H 0.13103 0.45265 0.52088 0.0
H1377 H 0.13674 0.45072 0.46504 0.0
S1378 S 0.21503 0.35253 0.50503 0.0
N1379 N 0.19822 0.37204 0.53313 0.0
N1380 N 0.20366 0.36898 0.4726 0.0
C1381 C 0.18531 0.39189 0.4837 0.0
C1382 C 0.18248 0.39363 0.5167 0.0
C1383 C 0.93221 0.65302 0.97702 0.0
C1384 C 0.90872 0.6687 0.96072 0.0
C1385 C 0.9324 0.65164 0.00962 0.0
C1386 C 0.90914 0.66593 0.0275 0.0
H1387 H 0.94943 0.63986 0.96453 0.0
H1388 H 0.94983 0.63757 0.02074 0.0
S1389 S 0.84515 0.71397 0.99639 0.0
N1390 N 0.86365 0.70182 0.96542 0.0
N1391 N 0.86405 0.69939 0.02606 0.0
C1392 C 0.88701 0.68371 0.01151 0.0
C1393 C 0.88678 0.68504 0.9784 0.0
C1394 C 0.90293 0.43103 0.50767 0.0
C1395 C 0.87845 0.41548 0.49294 0.0
C1396 C 0.90532 0.43202 0.53991 0.0
C1397 C 0.8834 0.41743 0.55904 0.0
H1398 H 0.92165 0.44067 0.4941 0.0
H1399 H 0.92567 0.44271 0.54991 0.0
S1400 S 0.81371 0.37521 0.53207 0.0
N1401 N 0.83083 0.38655 0.49993 0.0
N1402 N 0.83514 0.38861 0.5607 0.0
C1403 C 0.85757 0.40365 0.54472 0.0
C1404 C 0.8552 0.40254 0.51163 0.0
C1405 C 0.15745 0.57696 0.52916 0.0
C1406 C 0.17246 0.60087 0.54554 0.0
C1407 C 0.1571 0.57621 0.49663 0.0
C1408 C 0.17191 0.59922 0.47885 0.0
H1409 H 0.144 0.55978 0.54146 0.0
H1410 H 0.14347 0.55845 0.48539 0.0
S1411 S 0.21841 0.66438 0.51027 0.0
N1412 N 0.20548 0.64624 0.54117 0.0
N1413 N 0.20502 0.64473 0.4805 0.0
C1414 C 0.18919 0.62175 0.49495 0.0
C1415 C 0.1894 0.62261 0.52808 0.0
C1416 C 0.25671 0.14384 0.40514 0.0
C1417 C 0.27388 0.12529 0.38481 0.0
C1418 C 0.22403 0.14338 0.40506 0.0
C1419 C 0.20686 0.12463 0.38442 0.0
H1420 H 0.26855 0.15863 0.42148 0.0
H1421 H 0.21212 0.15808 0.4214 0.0
S1422 S 0.2405 0.07237 0.32567 0.0
N1423 N 0.27087 0.08784 0.34289 0.0
N1424 N 0.20993 0.08745 0.34274 0.0
C1425 C 0.22372 0.10626 0.36374 0.0
C1426 C 0.25699 0.10648 0.36395 0.0
C1427 C 0.36534 0.7461 0.89967 0.0
C1428 C 0.38646 0.7305 0.88015 0.0
C1429 C 0.36435 0.77874 0.90167 0.0
C1430 C 0.38478 0.79739 0.88461 0.0
H1431 H 0.34927 0.73296 0.91365 0.0
H1432 H 0.34772 0.78939 0.917 0.0
S1433 S 0.44386 0.76849 0.82917 0.0
N1434 N 0.42762 0.7367 0.84275 0.0
N1435 N 0.42627 0.7975 0.84657 0.0
C1436 C 0.40585 0.78207 0.86479 0.0
C1437 C 0.40657 0.74889 0.86254 0.0
C1438 C 0.75427 0.86437 0.40732 0.0
C1439 C 0.73608 0.88222 0.38726 0.0
C1440 C 0.78688 0.86567 0.40638 0.0
C1441 C 0.80302 0.88456 0.38507 0.0
H1442 H 0.74326 0.84948 0.42413 0.0
H1443 H 0.79958 0.85149 0.42257 0.0
S1444 S 0.76644 0.93511 0.32657 0.0
N1445 N 0.73695 0.91914 0.34481 0.0
N1446 N 0.79787 0.92105 0.343 0.0
C1447 C 0.78514 0.90221 0.3646 0.0
C1448 C 0.75189 0.90117 0.36573 0.0
C1449 C 0.64537 0.25485 0.9119 0.0
C1450 C 0.63071 0.23685 0.8892 0.0
C1451 C 0.64413 0.2875 0.91115 0.0
C1452 C 0.62844 0.30379 0.88754 0.0
H1453 H 0.65749 0.24368 0.93067 0.0
H1454 H 0.6557 0.3001 0.9294 0.0
S1455 S 0.5873 0.26773 0.82174 0.0
N1456 N 0.60054 0.2381 0.84174 0.0
N1457 N 0.59863 0.299 0.84048 0.0
C1458 C 0.61414 0.28609 0.86446 0.0
C1459 C 0.61517 0.25286 0.86527 0.0
C1460 C 0.27642 0.86728 0.60435 0.0
C1461 C 0.29479 0.88758 0.62186 0.0
C1462 C 0.24378 0.86791 0.60628 0.0
C1463 C 0.22796 0.88845 0.62622 0.0
H1464 H 0.28726 0.85104 0.58875 0.0
H1465 H 0.23083 0.85191 0.59202 0.0
S1466 S 0.26516 0.94546 0.67821 0.0
N1467 N 0.29439 0.9285 0.66055 0.0
N1468 N 0.23359 0.92903 0.66434 0.0
C1469 C 0.24606 0.90844 0.64425 0.0
C1470 C 0.27922 0.90817 0.64201 0.0
C1471 C 0.60866 0.73322 0.14208 0.0
C1472 C 0.62945 0.71501 0.12508 0.0
C1473 C 0.60953 0.76586 0.1406 0.0
C1474 C 0.6315 0.78192 0.12239 0.0
H1475 H 0.59128 0.72221 0.15634 0.0
H1476 H 0.59283 0.77864 0.15412 0.0
S1477 S 0.69206 0.74526 0.07431 0.0
N1478 N 0.67331 0.71581 0.08979 0.0
N1479 N 0.67497 0.7767 0.08754 0.0
C1480 C 0.65269 0.76401 0.10564 0.0
C1481 C 0.65165 0.73079 0.10685 0.0
C1482 C 0.78146 0.15609 0.61697 0.0
C1483 C 0.79826 0.13623 0.63679 0.0
C1484 C 0.74884 0.15549 0.61533 0.0
C1485 C 0.73139 0.13477 0.63325 0.0
H1486 H 0.79362 0.17234 0.60233 0.0
H1487 H 0.73728 0.17113 0.59963 0.0
S1488 S 0.76367 0.07864 0.6899 0.0
N1489 N 0.7945 0.09589 0.6754 0.0
N1490 N 0.73365 0.09442 0.67246 0.0
C1491 C 0.74788 0.115 0.65348 0.0
C1492 C 0.78109 0.1158 0.65523 0.0
C1493 C 0.37003 0.25338 0.10125 0.0
C1494 C 0.3853 0.2356 0.12364 0.0
C1495 C 0.3718 0.28599 0.1014 0.0
C1496 C 0.38863 0.30247 0.12413 0.0
H1497 H 0.35704 0.24204 0.08313 0.0
H1498 H 0.35976 0.29842 0.08336 0.0
S1499 S 0.43142 0.26703 0.18912 0.0
N1500 N 0.41706 0.23723 0.17004 0.0
N1501 N 0.41995 0.29813 0.17026 0.0
C1502 C 0.40344 0.28501 0.14704 0.0
C1503 C 0.40189 0.25179 0.14678 0.0
C1504 C 0.11081 0.36726 0.23338 0.0
C1505 C 0.13491 0.37882 0.21493 0.0
C1506 C 0.11146 0.37034 0.26579 0.0
C1507 C 0.13635 0.38489 0.28141 0.0
H1508 H 0.09089 0.35644 0.2227 0.0
H1509 H 0.09203 0.3613 0.27872 0.0
S1510 S 0.20622 0.41758 0.24403 0.0
N1511 N 0.18517 0.40448 0.21508 0.0
N1512 N 0.18625 0.40987 0.27552 0.0
C1513 C 0.16093 0.39584 0.26328 0.0
C1514 C 0.16022 0.39292 0.23029 0.0
C1515 C 0.1117 0.63905 0.7433 0.0
C1516 C 0.13239 0.61945 0.72722 0.0
C1517 C 0.11024 0.63965 0.77582 0.0
C1518 C 0.12903 0.6203 0.79387 0.0
H1519 H 0.09644 0.65427 0.73064 0.0
H1520 H 0.09389 0.65505 0.78684 0.0
S1521 S 0.18789 0.5653 0.76355 0.0
N1522 N 0.17271 0.58088 0.7323 0.0
N1523 N 0.1698 0.58143 0.79292 0.0
C1524 C 0.15 0.60073 0.77808 0.0
C1525 C 0.15173 0.60046 0.745 0.0
C1526 C 0.90863 0.64355 0.22914 0.0
C1527 C 0.88933 0.62485 0.21084 0.0
C1528 C 0.90799 0.64176 0.26165 0.0
C1529 C 0.88774 0.62148 0.27758 0.0
H1530 H 0.92471 0.65941 0.2183 0.0
H1531 H 0.92362 0.65657 0.27445 0.0
S1532 S 0.83148 0.56828 0.24075 0.0
N1533 N 0.84865 0.58567 0.21152 0.0
N1534 N 0.84743 0.58284 0.27213 0.0
C1535 C 0.86795 0.60308 0.25961 0.0
C1536 C 0.86877 0.60463 0.2265 0.0
C1537 C 0.91421 0.36967 0.79484 0.0
C1538 C 0.89512 0.38947 0.81202 0.0
C1539 C 0.91549 0.37153 0.76244 0.0
C1540 C 0.89754 0.39308 0.74564 0.0
H1541 H 0.92866 0.3529 0.80649 0.0
H1542 H 0.93095 0.35592 0.75048 0.0
S1543 S 0.84252 0.4493 0.77938 0.0
N1544 N 0.85691 0.43085 0.80942 0.0
N1545 N 0.85938 0.43397 0.74889 0.0
C1546 C 0.87785 0.41254 0.76246 0.0
C1547 C 0.87666 0.41084 0.79546 0.0
C1548 C 0.74619 0.86478 0.64513 0.0
C1549 C 0.73019 0.87582 0.61895 0.0
C1550 C 0.77837 0.86954 0.64898 0.0
C1551 C 0.79612 0.88514 0.62659 0.0
H1552 H 0.73364 0.85288 0.66319 0.0
H1553 H 0.78952 0.8603 0.66933 0.0
S1554 S 0.76571 0.91872 0.55385 0.0
N1555 N 0.73491 0.90353 0.57055 0.0
N1556 N 0.79499 0.91163 0.57723 0.0
C1557 C 0.78041 0.89613 0.60028 0.0
C1558 C 0.74766 0.89173 0.59662 0.0
C1559 C 0.62016 0.23095 0.15522 0.0
C1560 C 0.6361 0.21447 0.13193 0.0
C1561 C 0.61839 0.26359 0.15534 0.0
C1562 C 0.63221 0.2814 0.13198 0.0
H1563 H 0.60873 0.21849 0.17363 0.0
H1564 H 0.6059 0.27489 0.17379 0.0
S1565 S 0.67707 0.24991 0.06574 0.0
N1566 N 0.66629 0.21886 0.08511 0.0
N1567 N 0.66296 0.2797 0.08491 0.0
C1568 C 0.6484 0.26519 0.10861 0.0
C1569 C 0.65037 0.23198 0.10869 0.0
C1570 C 0.24849 0.15176 0.64592 0.0
C1571 C 0.23078 0.13049 0.62865 0.0
C1572 C 0.2807 0.15524 0.6411 0.0
C1573 C 0.29669 0.13722 0.61917 0.0
H1574 H 0.23728 0.16635 0.66284 0.0
H1575 H 0.2933 0.17164 0.65524 0.0
S1576 S 0.26125 0.07792 0.56823 0.0
N1577 N 0.2319 0.09134 0.58853 0.0
N1578 N 0.29205 0.09706 0.58031 0.0
C1579 C 0.27924 0.11572 0.60201 0.0
C1580 C 0.24648 0.1126 0.60649 0.0
C1581 C 0.36763 0.78418 0.10889 0.0
C1582 C 0.38756 0.80224 0.12713 0.0
C1583 C 0.36876 0.75153 0.10961 0.0
C1584 C 0.3897 0.73527 0.12878 0.0
H1585 H 0.35122 0.7953 0.09366 0.0
H1586 H 0.353 0.73892 0.09481 0.0
S1587 S 0.44614 0.77141 0.18211 0.0
N1588 N 0.42854 0.80103 0.16575 0.0
N1589 N 0.4303 0.74012 0.167 0.0
C1590 C 0.4094 0.75301 0.14749 0.0
C1591 C 0.40843 0.78626 0.14667 0.0
C1592 C 0.72408 0.13262 0.41639 0.0
C1593 C 0.70653 0.1419 0.39071 0.0
C1594 C 0.75623 0.12757 0.4143 0.0
C1595 C 0.77253 0.13118 0.3863 0.0
H1596 H 0.71285 0.12889 0.4384 0.0
H1597 H 0.76842 0.12082 0.435 0.0
S1598 S 0.7376 0.15443 0.31175 0.0
N1599 N 0.70815 0.15408 0.33597 0.0
N1600 N 0.76826 0.14451 0.33216 0.0
C1601 C 0.75529 0.1403 0.36036 0.0
C1602 C 0.72251 0.1457 0.36251 0.0
C1603 C 0.36833 0.28317 0.90349 0.0
C1604 C 0.3853 0.29889 0.88035 0.0
C1605 C 0.36659 0.25052 0.90472 0.0
C1606 C 0.38203 0.23194 0.88306 0.0
H1607 H 0.35612 0.29621 0.92095 0.0
H1608 H 0.35342 0.2398 0.92307 0.0
S1609 S 0.4288 0.2612 0.8171 0.0
N1610 N 0.4171 0.29291 0.83477 0.0
N1611 N 0.41428 0.23206 0.83701 0.0
C1612 C 0.39886 0.24738 0.85961 0.0
C1613 C 0.40038 0.2806 0.85826 0.0
C1614 C 0.25436 0.88793 0.41216 0.0
C1615 C 0.2375 0.88123 0.38505 0.0
C1616 C 0.28644 0.8825 0.41442 0.0
C1617 C 0.30332 0.8695 0.38991 0.0
H1618 H 0.24262 0.89749 0.43203 0.0
H1619 H 0.29813 0.88862 0.43564 0.0
S1620 S 0.27067 0.8479 0.31358 0.0
N1621 N 0.24059 0.86113 0.33294 0.0
N1622 N 0.30052 0.85055 0.33719 0.0
C1623 C 0.2868 0.8626 0.36263 0.0
C1624 C 0.25412 0.86858 0.36019 0.0
C1625 C 0.60789 0.75459 0.86696 0.0
C1626 C 0.62679 0.73604 0.88573 0.0
C1627 C 0.60915 0.78723 0.86848 0.0
C1628 C 0.62962 0.80301 0.88859 0.0
H1629 H 0.59187 0.74386 0.851 0.0
H1630 H 0.594 0.80022 0.85343 0.0
S1631 S 0.68453 0.7655 0.94242 0.0
N1632 N 0.66694 0.73629 0.92521 0.0
N1633 N 0.66936 0.79717 0.92754 0.0
C1634 C 0.64876 0.78478 0.90735 0.0
C1635 C 0.64732 0.75154 0.90606 0.0
C1636 C 0.90841 0.6043 0.76171 0.0
C1637 C 0.8934 0.62856 0.77745 0.0
C1638 C 0.90399 0.59924 0.72985 0.0
C1639 C 0.88346 0.61747 0.71231 0.0
H1640 H 0.92389 0.58907 0.77412 0.0
H1641 H 0.91679 0.58077 0.71886 0.0
S1642 S 0.83761 0.6835 0.74239 0.0
N1643 N 0.85686 0.67093 0.77278 0.0
N1644 N 0.84791 0.66094 0.71345 0.0
C1645 C 0.86793 0.64154 0.72784 0.0
C1646 C 0.87306 0.64721 0.76016 0.0
C1647 C 0.9124 0.36874 0.28945 0.0
C1648 C 0.89456 0.391 0.30543 0.0
C1649 C 0.91304 0.36728 0.257 0.0
C1650 C 0.89616 0.38828 0.23895 0.0
H1651 H 0.92611 0.35209 0.30213 0.0
H1652 H 0.92712 0.34976 0.24603 0.0
S1653 S 0.84516 0.45075 0.26911 0.0
N1654 N 0.85914 0.43412 0.30037 0.0
N1655 N 0.86037 0.43185 0.23976 0.0
C1656 C 0.87804 0.41058 0.25464 0.0
C1657 C 0.87721 0.41182 0.28768 0.0
C1658 C 0.14267 0.40625 0.76845 0.0
C1659 C 0.12466 0.38326 0.78328 0.0
C1660 C 0.14505 0.40811 0.73606 0.0
C1661 C 0.12925 0.38728 0.71675 0.0
H1662 H 0.15518 0.42318 0.782 0.0
H1663 H 0.15896 0.42642 0.72611 0.0
S1664 S 0.07967 0.32204 0.74347 0.0
N1665 N 0.09144 0.33863 0.77568 0.0
N1666 N 0.09541 0.34216 0.71517 0.0
C1667 C 0.11139 0.36392 0.73124 0.0
C1668 C 0.10924 0.36189 0.76429 0.0
C1669 C 0.15139 0.60342 0.27768 0.0
C1670 C 0.13709 0.62614 0.29592 0.0
C1671 C 0.14908 0.60392 0.24523 0.0
C1672 C 0.13248 0.6272 0.2293 0.0
H1673 H 0.16408 0.5848 0.28854 0.0
H1674 H 0.16045 0.58563 0.2325 0.0
S1675 S 0.09176 0.69298 0.266 0.0
N1676 N 0.10629 0.67336 0.29522 0.0
N1677 N 0.10223 0.67405 0.23467 0.0
C1678 C 0.11848 0.65032 0.24721 0.0
C1679 C 0.12073 0.64983 0.28027 0.0
loop_
_geom_bond_atom_site_label_1
_geom_bond_atom_site_label_2
_geom_bond_distance
_geom_bond_site_symmetry_2
_ccdc_geom_bond_type
In0 O1 2.294 . S
In0 O2 2.326 . S
In0 O6 2.266 . S
In0 O7 2.326 . S
In0 O8 2.266 . S
In0 O9 2.326 . S
In0 O11 2.294 . S
In0 O12 2.326 . S
O1 In0 2.294 . S
O1 C10 1.240 . S
O2 In0 2.326 . S
O2 C10 1.252 . S
C3 O6 1.252 . S
C3 O7 1.260 . S
C4 O11 1.240 . S
C4 O12 1.252 . S
C5 O8 1.252 . S
C5 O9 1.260 . S
O6 In0 2.266 . S
O6 C3 1.252 . S
O7 In0 2.326 . S
O7 C3 1.260 . S
O8 In0 2.266 . S
O8 C5 1.252 . S
O9 In0 2.326 . S
O9 C5 1.260 . S
C10 O1 1.240 . S
C10 O2 1.252 . S
O11 In0 2.294 . S
O11 C4 1.240 . S
O12 In0 2.326 . S
O12 C4 1.252 . S
In13 O14 2.294 . S
In13 O15 2.326 . S
In13 O19 2.266 . S
In13 O20 2.326 . S
In13 O21 2.266 . S
In13 O22 2.326 . S
In13 O24 2.294 . S
In13 O25 2.326 . S
O14 In13 2.294 . S
O14 C23 1.240 . S
O15 In13 2.326 . S
O15 C23 1.252 . S
C16 O19 1.252 . S
C16 O20 1.260 . S
C17 O24 1.240 . S
C17 O25 1.252 . S
C18 O21 1.252 . S
C18 O22 1.260 . S
O19 In13 2.266 . S
O19 C16 1.252 . S
O20 In13 2.326 . S
O20 C16 1.260 . S
O21 In13 2.266 . S
O21 C18 1.252 . S
O22 In13 2.326 . S
O22 C18 1.260 . S
C23 O14 1.240 . S
C23 O15 1.252 . S
O24 In13 2.294 . S
O24 C17 1.240 . S
O25 In13 2.326 . S
O25 C17 1.252 . S
In26 O27 2.294 . S
In26 O28 2.326 . S
In26 O32 2.266 . S
In26 O33 2.326 . S
In26 O34 2.266 . S
In26 O35 2.326 . S
In26 O37 2.294 . S
In26 O38 2.326 . S
O27 In26 2.294 . S
O27 C36 1.240 . S
O28 In26 2.326 . S
O28 C36 1.252 . S
C29 O32 1.252 . S
C29 O33 1.260 . S
C30 O37 1.240 . S
C30 O38 1.252 . S
C31 O34 1.252 . S
C31 O35 1.260 . S
O32 In26 2.266 . S
O32 C29 1.252 . S
O33 In26 2.326 . S
O33 C29 1.260 . S
O34 In26 2.266 . S
O34 C31 1.252 . S
O35 In26 2.326 . S
O35 C31 1.260 . S
C36 O27 1.240 . S
C36 O28 1.252 . S
O37 In26 2.294 . S
O37 C30 1.240 . S
O38 In26 2.326 . S
O38 C30 1.252 . S
In39 O40 2.294 . S
In39 O41 2.326 . S
In39 O45 2.266 . S
In39 O46 2.326 . S
In39 O47 2.266 . S
In39 O48 2.326 . S
In39 O50 2.294 . S
In39 O51 2.326 . S
O40 In39 2.294 . S
O40 C49 1.240 . S
O41 In39 2.326 . S
O41 C49 1.252 . S
C42 O45 1.252 . S
C42 O46 1.260 . S
C43 O50 1.240 . S
C43 O51 1.252 . S
C44 O47 1.252 . S
C44 O48 1.260 . S
O45 In39 2.266 . S
O45 C42 1.252 . S
O46 In39 2.326 . S
O46 C42 1.260 . S
O47 In39 2.266 . S
O47 C44 1.252 . S
O48 In39 2.326 . S
O48 C44 1.260 . S
C49 O40 1.240 . S
C49 O41 1.252 . S
O50 In39 2.294 . S
O50 C43 1.240 . S
O51 In39 2.326 . S
O51 C43 1.252 . S
In52 O53 2.294 . S
In52 O54 2.326 . S
In52 O58 2.266 . S
In52 O59 2.326 . S
In52 O60 2.266 . S
In52 O61 2.326 . S
In52 O63 2.294 . S
In52 O64 2.326 . S
O53 In52 2.294 . S
O53 C62 1.240 . S
O54 In52 2.326 . S
O54 C62 1.252 . S
C55 O58 1.252 . S
C55 O59 1.260 . S
C56 O63 1.240 . S
C56 O64 1.252 . S
C57 O60 1.252 . S
C57 O61 1.260 . S
O58 In52 2.266 . S
O58 C55 1.252 . S
O59 In52 2.326 . S
O59 C55 1.260 . S
O60 In52 2.266 . S
O60 C57 1.252 . S
O61 In52 2.326 . S
O61 C57 1.260 . S
C62 O53 1.240 . S
C62 O54 1.252 . S
O63 In52 2.294 . S
O63 C56 1.240 . S
O64 In52 2.326 . S
O64 C56 1.252 . S
In65 O66 2.294 . S
In65 O67 2.326 . S
In65 O71 2.266 . S
In65 O72 2.326 . S
In65 O73 2.266 . S
In65 O74 2.326 . S
In65 O76 2.294 . S
In65 O77 2.326 . S
O66 In65 2.294 . S
O66 C75 1.240 . S
O67 In65 2.326 . S
O67 C75 1.252 . S
C68 O71 1.252 . S
C68 O72 1.260 . S
C69 O76 1.240 . S
C69 O77 1.252 . S
C70 O73 1.252 . S
C70 O74 1.260 . S
O71 In65 2.266 . S
O71 C68 1.252 . S
O72 In65 2.326 . S
O72 C68 1.260 . S
O73 In65 2.266 . S
O73 C70 1.252 . S
O74 In65 2.326 . S
O74 C70 1.260 . S
C75 O66 1.240 . S
C75 O67 1.252 . S
O76 In65 2.294 . S
O76 C69 1.240 . S
O77 In65 2.326 . S
O77 C69 1.252 . S
In78 O79 2.294 . S
In78 O80 2.326 . S
In78 O84 2.266 . S
In78 O85 2.326 . S
In78 O86 2.266 . S
In78 O87 2.326 . S
In78 O89 2.294 . S
In78 O90 2.326 . S
O79 In78 2.294 . S
O79 C88 1.240 . S
O80 In78 2.326 . S
O80 C88 1.252 . S
C81 O84 1.252 . S
C81 O85 1.260 . S
C82 O89 1.240 . S
C82 O90 1.252 . S
C83 O86 1.252 . S
C83 O87 1.260 . S
O84 In78 2.266 . S
O84 C81 1.252 . S
O85 In78 2.326 . S
O85 C81 1.260 . S
O86 In78 2.266 . S
O86 C83 1.252 . S
O87 In78 2.326 . S
O87 C83 1.260 . S
C88 O79 1.240 . S
C88 O80 1.252 . S
O89 In78 2.294 . S
O89 C82 1.240 . S
O90 In78 2.326 . S
O90 C82 1.252 . S
In91 O92 2.294 . S
In91 O93 2.326 . S
In91 O97 2.266 . S
In91 O98 2.326 . S
In91 O99 2.266 . S
In91 O100 2.326 . S
In91 O102 2.294 . S
In91 O103 2.326 . S
O92 In91 2.294 . S
O92 C101 1.240 . S
O93 In91 2.326 . S
O93 C101 1.252 . S
C94 O97 1.252 . S
C94 O98 1.260 . S
C95 O102 1.240 . S
C95 O103 1.252 . S
C96 O99 1.252 . S
C96 O100 1.260 . S
O97 In91 2.266 . S
O97 C94 1.252 . S
O98 In91 2.326 . S
O98 C94 1.260 . S
O99 In91 2.266 . S
O99 C96 1.252 . S
O100 In91 2.326 . S
O100 C96 1.260 . S
C101 O92 1.240 . S
C101 O93 1.252 . S
O102 In91 2.294 . S
O102 C95 1.240 . S
O103 In91 2.326 . S
O103 C95 1.252 . S
In104 O105 2.294 . S
In104 O106 2.326 . S
In104 O110 2.266 . S
In104 O111 2.326 . S
In104 O112 2.266 . S
In104 O113 2.326 . S
In104 O115 2.294 . S
In104 O116 2.326 . S
O105 In104 2.294 . S
O105 C114 1.240 . S
O106 In104 2.326 . S
O106 C114 1.252 . S
C107 O110 1.252 . S
C107 O111 1.260 . S
C108 O115 1.240 . S
C108 O116 1.252 . S
C109 O112 1.252 . S
C109 O113 1.260 . S
O110 In104 2.266 . S
O110 C107 1.252 . S
O111 In104 2.326 . S
O111 C107 1.260 . S
O112 In104 2.266 . S
O112 C109 1.252 . S
O113 In104 2.326 . S
O113 C109 1.260 . S
C114 O105 1.240 . S
C114 O106 1.252 . S
O115 In104 2.294 . S
O115 C108 1.240 . S
O116 In104 2.326 . S
O116 C108 1.252 . S
In117 O118 2.294 . S
In117 O119 2.326 . S
In117 O123 2.266 . S
In117 O124 2.326 . S
In117 O125 2.266 . S
In117 O126 2.326 . S
In117 O128 2.294 . S
In117 O129 2.326 . S
O118 In117 2.294 . S
O118 C127 1.240 . S
O119 In117 2.326 . S
O119 C127 1.252 . S
C120 O123 1.252 . S
C120 O124 1.260 . S
C121 O128 1.240 . S
C121 O129 1.252 . S
C122 O125 1.252 . S
C122 O126 1.260 . S
O123 In117 2.266 . S
O123 C120 1.252 . S
O124 In117 2.326 . S
O124 C120 1.260 . S
O125 In117 2.266 . S
O125 C122 1.252 . S
O126 In117 2.326 . S
O126 C122 1.260 . S
C127 O118 1.240 . S
C127 O119 1.252 . S
O128 In117 2.294 . S
O128 C121 1.240 . S
O129 In117 2.326 . S
O129 C121 1.252 . S
In130 O131 2.294 . S
In130 O132 2.326 . S
In130 O136 2.266 . S
In130 O137 2.326 . S
In130 O138 2.266 . S
In130 O139 2.326 . S
In130 O141 2.294 . S
In130 O142 2.326 . S
O131 In130 2.294 . S
O131 C140 1.240 . S
O132 In130 2.326 . S
O132 C140 1.252 . S
C133 O136 1.252 . S
C133 O137 1.260 . S
C134 O141 1.240 . S
C134 O142 1.252 . S
C135 O138 1.252 . S
C135 O139 1.260 . S
O136 In130 2.266 . S
O136 C133 1.252 . S
O137 In130 2.326 . S
O137 C133 1.260 . S
O138 In130 2.266 . S
O138 C135 1.252 . S
O139 In130 2.326 . S
O139 C135 1.260 . S
C140 O131 1.240 . S
C140 O132 1.252 . S
O141 In130 2.294 . S
O141 C134 1.240 . S
O142 In130 2.326 . S
O142 C134 1.252 . S
In143 O144 2.294 . S
In143 O145 2.326 . S
In143 O149 2.266 . S
In143 O150 2.326 . S
In143 O151 2.266 . S
In143 O152 2.326 . S
In143 O154 2.294 . S
In143 O155 2.326 . S
O144 In143 2.294 . S
O144 C153 1.240 . S
O145 In143 2.326 . S
O145 C153 1.252 . S
C146 O149 1.252 . S
C146 O150 1.260 . S
C147 O154 1.240 . S
C147 O155 1.252 . S
C148 O151 1.252 . S
C148 O152 1.260 . S
O149 In143 2.266 . S
O149 C146 1.252 . S
O150 In143 2.326 . S
O150 C146 1.260 . S
O151 In143 2.266 . S
O151 C148 1.252 . S
O152 In143 2.326 . S
O152 C148 1.260 . S
C153 O144 1.240 . S
C153 O145 1.252 . S
O154 In143 2.294 . S
O154 C147 1.240 . S
O155 In143 2.326 . S
O155 C147 1.252 . S
In156 O157 2.294 . S
In156 O158 2.326 . S
In156 O162 2.266 . S
In156 O163 2.326 . S
In156 O164 2.266 . S
In156 O165 2.326 . S
In156 O167 2.294 . S
In156 O168 2.326 . S
O157 In156 2.294 . S
O157 C166 1.240 . S
O158 In156 2.326 . S
O158 C166 1.252 . S
C159 O162 1.252 . S
C159 O163 1.260 . S
C160 O167 1.240 . S
C160 O168 1.252 . S
C161 O164 1.252 . S
C161 O165 1.260 . S
O162 In156 2.266 . S
O162 C159 1.252 . S
O163 In156 2.326 . S
O163 C159 1.260 . S
O164 In156 2.266 . S
O164 C161 1.252 . S
O165 In156 2.326 . S
O165 C161 1.260 . S
C166 O157 1.240 . S
C166 O158 1.252 . S
O167 In156 2.294 . S
O167 C160 1.240 . S
O168 In156 2.326 . S
O168 C160 1.252 . S
In169 O170 2.294 . S
In169 O171 2.326 . S
In169 O175 2.266 . S
In169 O176 2.326 . S
In169 O177 2.266 . S
In169 O178 2.326 . S
In169 O180 2.294 . S
In169 O181 2.326 . S
O170 In169 2.294 . S
O170 C179 1.240 . S
O171 In169 2.326 . S
O171 C179 1.252 . S
C172 O175 1.252 . S
C172 O176 1.260 . S
C173 O180 1.240 . S
C173 O181 1.252 . S
C174 O177 1.252 . S
C174 O178 1.260 . S
O175 In169 2.266 . S
O175 C172 1.252 . S
O176 In169 2.326 . S
O176 C172 1.260 . S
O177 In169 2.266 . S
O177 C174 1.252 . S
O178 In169 2.326 . S
O178 C174 1.260 . S
C179 O170 1.240 . S
C179 O171 1.252 . S
O180 In169 2.294 . S
O180 C173 1.240 . S
O181 In169 2.326 . S
O181 C173 1.252 . S
In182 O183 2.294 . S
In182 O184 2.326 . S
In182 O188 2.266 . S
In182 O189 2.326 . S
In182 O190 2.266 . S
In182 O191 2.326 . S
In182 O193 2.294 . S
In182 O194 2.326 . S
O183 In182 2.294 . S
O183 C192 1.240 . S
O184 In182 2.326 . S
O184 C192 1.252 . S
C185 O188 1.252 . S
C185 O189 1.260 . S
C186 O193 1.240 . S
C186 O194 1.252 . S
C187 O190 1.252 . S
C187 O191 1.260 . S
O188 In182 2.266 . S
O188 C185 1.252 . S
O189 In182 2.326 . S
O189 C185 1.260 . S
O190 In182 2.266 . S
O190 C187 1.252 . S
O191 In182 2.326 . S
O191 C187 1.260 . S
C192 O183 1.240 . S
C192 O184 1.252 . S
O193 In182 2.294 . S
O193 C186 1.240 . S
O194 In182 2.326 . S
O194 C186 1.252 . S
In195 O196 2.294 . S
In195 O197 2.326 . S
In195 O201 2.266 . S
In195 O202 2.326 . S
In195 O203 2.266 . S
In195 O204 2.326 . S
In195 O206 2.294 . S
In195 O207 2.326 . S
O196 In195 2.294 . S
O196 C205 1.240 . S
O197 In195 2.326 . S
O197 C205 1.252 . S
C198 O201 1.252 . S
C198 O202 1.260 . S
C199 O206 1.240 . S
C199 O207 1.252 . S
C200 O203 1.252 . S
C200 O204 1.260 . S
O201 In195 2.266 . S
O201 C198 1.252 . S
O202 In195 2.326 . S
O202 C198 1.260 . S
O203 In195 2.266 . S
O203 C200 1.252 . S
O204 In195 2.326 . S
O204 C200 1.260 . S
C205 O196 1.240 . S
C205 O197 1.252 . S
O206 In195 2.294 . S
O206 C199 1.240 . S
O207 In195 2.326 . S
O207 C199 1.252 . S
In208 O209 2.294 . S
In208 O210 2.326 . S
In208 O214 2.266 . S
In208 O215 2.326 . S
In208 O216 2.266 . S
In208 O217 2.326 . S
In208 O219 2.294 . S
In208 O220 2.326 . S
O209 In208 2.294 . S
O209 C218 1.240 . S
O210 In208 2.326 . S
O210 C218 1.252 . S
C211 O214 1.252 . S
C211 O215 1.260 . S
C212 O219 1.240 . S
C212 O220 1.252 . S
C213 O216 1.252 . S
C213 O217 1.260 . S
O214 In208 2.266 . S
O214 C211 1.252 . S
O215 In208 2.326 . S
O215 C211 1.260 . S
O216 In208 2.266 . S
O216 C213 1.252 . S
O217 In208 2.326 . S
O217 C213 1.260 . S
C218 O209 1.240 . S
C218 O210 1.252 . S
O219 In208 2.294 . S
O219 C212 1.240 . S
O220 In208 2.326 . S
O220 C212 1.252 . S
In221 O222 2.294 . S
In221 O223 2.326 . S
In221 O227 2.266 . S
In221 O228 2.326 . S
In221 O229 2.266 . S
In221 O230 2.326 . S
In221 O232 2.294 . S
In221 O233 2.326 . S
O222 In221 2.294 . S
O222 C231 1.240 . S
O223 In221 2.326 . S
O223 C231 1.252 . S
C224 O227 1.252 . S
C224 O228 1.260 . S
C225 O232 1.240 . S
C225 O233 1.252 . S
C226 O229 1.252 . S
C226 O230 1.260 . S
O227 In221 2.266 . S
O227 C224 1.252 . S
O228 In221 2.326 . S
O228 C224 1.260 . S
O229 In221 2.266 . S
O229 C226 1.252 . S
O230 In221 2.326 . S
O230 C226 1.260 . S
C231 O222 1.240 . S
C231 O223 1.252 . S
O232 In221 2.294 . S
O232 C225 1.240 . S
O233 In221 2.326 . S
O233 C225 1.252 . S
In234 O235 2.294 . S
In234 O236 2.326 . S
In234 O240 2.266 . S
In234 O241 2.326 . S
In234 O242 2.266 . S
In234 O243 2.326 . S
In234 O245 2.294 . S
In234 O246 2.326 . S
O235 In234 2.294 . S
O235 C244 1.240 . S
O236 In234 2.326 . S
O236 C244 1.252 . S
C237 O240 1.252 . S
C237 O241 1.260 . S
C238 O245 1.240 . S
C238 O246 1.252 . S
C239 O242 1.252 . S
C239 O243 1.260 . S
O240 In234 2.266 . S
O240 C237 1.252 . S
O241 In234 2.326 . S
O241 C237 1.260 . S
O242 In234 2.266 . S
O242 C239 1.252 . S
O243 In234 2.326 . S
O243 C239 1.260 . S
C244 O235 1.240 . S
C244 O236 1.252 . S
O245 In234 2.294 . S
O245 C238 1.240 . S
O246 In234 2.326 . S
O246 C238 1.252 . S
In247 O248 2.294 . S
In247 O249 2.326 . S
In247 O253 2.266 . S
In247 O254 2.326 . S
In247 O255 2.266 . S
In247 O256 2.326 . S
In247 O258 2.294 . S
In247 O259 2.326 . S
O248 In247 2.294 . S
O248 C257 1.240 . S
O249 In247 2.326 . S
O249 C257 1.252 . S
C250 O253 1.252 . S
C250 O254 1.260 . S
C251 O258 1.240 . S
C251 O259 1.252 . S
C252 O255 1.252 . S
C252 O256 1.260 . S
O253 In247 2.266 . S
O253 C250 1.252 . S
O254 In247 2.326 . S
O254 C250 1.260 . S
O255 In247 2.266 . S
O255 C252 1.252 . S
O256 In247 2.326 . S
O256 C252 1.260 . S
C257 O248 1.240 . S
C257 O249 1.252 . S
O258 In247 2.294 . S
O258 C251 1.240 . S
O259 In247 2.326 . S
O259 C251 1.252 . S
In260 O261 2.294 . S
In260 O262 2.326 . S
In260 O266 2.266 . S
In260 O267 2.326 . S
In260 O268 2.266 . S
In260 O269 2.326 . S
In260 O271 2.294 . S
In260 O272 2.326 . S
O261 In260 2.294 . S
O261 C270 1.240 . S
O262 In260 2.326 . S
O262 C270 1.252 . S
C263 O266 1.252 . S
C263 O267 1.260 . S
C264 O271 1.240 . S
C264 O272 1.252 . S
C265 O268 1.252 . S
C265 O269 1.260 . S
O266 In260 2.266 . S
O266 C263 1.252 . S
O267 In260 2.326 . S
O267 C263 1.260 . S
O268 In260 2.266 . S
O268 C265 1.252 . S
O269 In260 2.326 . S
O269 C265 1.260 . S
C270 O261 1.240 . S
C270 O262 1.252 . S
O271 In260 2.294 . S
O271 C264 1.240 . S
O272 In260 2.326 . S
O272 C264 1.252 . S
In273 O274 2.294 . S
In273 O275 2.326 . S
In273 O279 2.266 . S
In273 O280 2.326 . S
In273 O281 2.266 . S
In273 O282 2.326 . S
In273 O284 2.294 . S
In273 O285 2.326 . S
O274 In273 2.294 . S
O274 C283 1.240 . S
O275 In273 2.326 . S
O275 C283 1.252 . S
C276 O279 1.252 . S
C276 O280 1.260 . S
C277 O284 1.240 . S
C277 O285 1.252 . S
C278 O281 1.252 . S
C278 O282 1.260 . S
O279 In273 2.266 . S
O279 C276 1.252 . S
O280 In273 2.326 . S
O280 C276 1.260 . S
O281 In273 2.266 . S
O281 C278 1.252 . S
O282 In273 2.326 . S
O282 C278 1.260 . S
C283 O274 1.240 . S
C283 O275 1.252 . S
O284 In273 2.294 . S
O284 C277 1.240 . S
O285 In273 2.326 . S
O285 C277 1.252 . S
In286 O287 2.294 . S
In286 O288 2.326 . S
In286 O292 2.266 . S
In286 O293 2.326 . S
In286 O294 2.266 . S
In286 O295 2.326 . S
In286 O297 2.294 . S
In286 O298 2.326 . S
O287 In286 2.294 . S
O287 C296 1.240 . S
O288 In286 2.326 . S
O288 C296 1.252 . S
C289 O292 1.252 . S
C289 O293 1.260 . S
C290 O297 1.240 . S
C290 O298 1.252 . S
C291 O294 1.252 . S
C291 O295 1.260 . S
O292 In286 2.266 . S
O292 C289 1.252 . S
O293 In286 2.326 . S
O293 C289 1.260 . S
O294 In286 2.266 . S
O294 C291 1.252 . S
O295 In286 2.326 . S
O295 C291 1.260 . S
C296 O287 1.240 . S
C296 O288 1.252 . S
O297 In286 2.294 . S
O297 C290 1.240 . S
O298 In286 2.326 . S
O298 C290 1.252 . S
In299 O300 2.294 . S
In299 O301 2.326 . S
In299 O305 2.266 . S
In299 O306 2.326 . S
In299 O307 2.266 . S
In299 O308 2.326 . S
In299 O310 2.294 . S
In299 O311 2.326 . S
O300 In299 2.294 . S
O300 C309 1.240 . S
O301 In299 2.326 . S
O301 C309 1.252 . S
C302 O305 1.252 . S
C302 O306 1.260 . S
C303 O310 1.240 . S
C303 O311 1.252 . S
C304 O307 1.252 . S
C304 O308 1.260 . S
O305 In299 2.266 . S
O305 C302 1.252 . S
O306 In299 2.326 . S
O306 C302 1.260 . S
O307 In299 2.266 . S
O307 C304 1.252 . S
O308 In299 2.326 . S
O308 C304 1.260 . S
C309 O300 1.240 . S
C309 O301 1.252 . S
O310 In299 2.294 . S
O310 C303 1.240 . S
O311 In299 2.326 . S
O311 C303 1.252 . S
In312 O313 2.294 . S
In312 O314 2.326 . S
In312 O318 2.266 . S
In312 O319 2.326 . S
In312 O320 2.266 . S
In312 O321 2.326 . S
In312 O323 2.294 . S
In312 O324 2.326 . S
O313 In312 2.294 . S
O313 C322 1.240 . S
O314 In312 2.326 . S
O314 C322 1.252 . S
C315 O318 1.252 . S
C315 O319 1.260 . S
C316 O323 1.240 . S
C316 O324 1.252 . S
C317 O320 1.252 . S
C317 O321 1.260 . S
O318 In312 2.266 . S
O318 C315 1.252 . S
O319 In312 2.326 . S
O319 C315 1.260 . S
O320 In312 2.266 . S
O320 C317 1.252 . S
O321 In312 2.326 . S
O321 C317 1.260 . S
C322 O313 1.240 . S
C322 O314 1.252 . S
O323 In312 2.294 . S
O323 C316 1.240 . S
O324 In312 2.326 . S
O324 C316 1.252 . S
In325 O326 2.294 . S
In325 O327 2.326 . S
In325 O331 2.266 . S
In325 O332 2.326 . S
In325 O333 2.266 . S
In325 O334 2.326 . S
In325 O336 2.294 . S
In325 O337 2.326 . S
O326 In325 2.294 . S
O326 C335 1.240 . S
O327 In325 2.326 . S
O327 C335 1.252 . S
C328 O331 1.252 . S
C328 O332 1.260 . S
C329 O336 1.240 . S
C329 O337 1.252 . S
C330 O333 1.252 . S
C330 O334 1.260 . S
O331 In325 2.266 . S
O331 C328 1.252 . S
O332 In325 2.326 . S
O332 C328 1.260 . S
O333 In325 2.266 . S
O333 C330 1.252 . S
O334 In325 2.326 . S
O334 C330 1.260 . S
C335 O326 1.240 . S
C335 O327 1.252 . S
O336 In325 2.294 . S
O336 C329 1.240 . S
O337 In325 2.326 . S
O337 C329 1.252 . S
In338 O339 2.294 . S
In338 O340 2.326 . S
In338 O344 2.266 . S
In338 O345 2.326 . S
In338 O346 2.266 . S
In338 O347 2.326 . S
In338 O349 2.294 . S
In338 O350 2.326 . S
O339 In338 2.294 . S
O339 C348 1.240 . S
O340 In338 2.326 . S
O340 C348 1.252 . S
C341 O344 1.252 . S
C341 O345 1.260 . S
C342 O349 1.240 . S
C342 O350 1.252 . S
C343 O346 1.252 . S
C343 O347 1.260 . S
O344 In338 2.266 . S
O344 C341 1.252 . S
O345 In338 2.326 . S
O345 C341 1.260 . S
O346 In338 2.266 . S
O346 C343 1.252 . S
O347 In338 2.326 . S
O347 C343 1.260 . S
C348 O339 1.240 . S
C348 O340 1.252 . S
O349 In338 2.294 . S
O349 C342 1.240 . S
O350 In338 2.326 . S
O350 C342 1.252 . S
In351 O352 2.294 . S
In351 O353 2.326 . S
In351 O357 2.266 . S
In351 O358 2.326 . S
In351 O359 2.266 . S
In351 O360 2.326 . S
In351 O362 2.294 . S
In351 O363 2.326 . S
O352 In351 2.294 . S
O352 C361 1.240 . S
O353 In351 2.326 . S
O353 C361 1.252 . S
C354 O357 1.252 . S
C354 O358 1.260 . S
C355 O362 1.240 . S
C355 O363 1.252 . S
C356 O359 1.252 . S
C356 O360 1.260 . S
O357 In351 2.266 . S
O357 C354 1.252 . S
O358 In351 2.326 . S
O358 C354 1.260 . S
O359 In351 2.266 . S
O359 C356 1.252 . S
O360 In351 2.326 . S
O360 C356 1.260 . S
C361 O352 1.240 . S
C361 O353 1.252 . S
O362 In351 2.294 . S
O362 C355 1.240 . S
O363 In351 2.326 . S
O363 C355 1.252 . S
In364 O365 2.294 . S
In364 O366 2.326 . S
In364 O370 2.266 . S
In364 O371 2.326 . S
In364 O372 2.266 . S
In364 O373 2.326 . S
In364 O375 2.294 . S
In364 O376 2.326 . S
O365 In364 2.294 . S
O365 C374 1.240 . S
O366 In364 2.326 . S
O366 C374 1.252 . S
C367 O370 1.252 . S
C367 O371 1.260 . S
C368 O375 1.240 . S
C368 O376 1.252 . S
C369 O372 1.252 . S
C369 O373 1.260 . S
O370 In364 2.266 . S
O370 C367 1.252 . S
O371 In364 2.326 . S
O371 C367 1.260 . S
O372 In364 2.266 . S
O372 C369 1.252 . S
O373 In364 2.326 . S
O373 C369 1.260 . S
C374 O365 1.240 . S
C374 O366 1.252 . S
O375 In364 2.294 . S
O375 C368 1.240 . S
O376 In364 2.326 . S
O376 C368 1.252 . S
In377 O378 2.294 . S
In377 O379 2.326 . S
In377 O383 2.266 . S
In377 O384 2.326 . S
In377 O385 2.266 . S
In377 O386 2.326 . S
In377 O388 2.294 . S
In377 O389 2.326 . S
O378 In377 2.294 . S
O378 C387 1.240 . S
O379 In377 2.326 . S
O379 C387 1.252 . S
C380 O383 1.252 . S
C380 O384 1.260 . S
C381 O388 1.240 . S
C381 O389 1.252 . S
C382 O385 1.252 . S
C382 O386 1.260 . S
O383 In377 2.266 . S
O383 C380 1.252 . S
O384 In377 2.326 . S
O384 C380 1.260 . S
O385 In377 2.266 . S
O385 C382 1.252 . S
O386 In377 2.326 . S
O386 C382 1.260 . S
C387 O378 1.240 . S
C387 O379 1.252 . S
O388 In377 2.294 . S
O388 C381 1.240 . S
O389 In377 2.326 . S
O389 C381 1.252 . S
In390 O391 2.294 . S
In390 O392 2.326 . S
In390 O396 2.266 . S
In390 O397 2.326 . S
In390 O398 2.266 . S
In390 O399 2.326 . S
In390 O401 2.294 . S
In390 O402 2.326 . S
O391 In390 2.294 . S
O391 C400 1.240 . S
O392 In390 2.326 . S
O392 C400 1.252 . S
C393 O396 1.252 . S
C393 O397 1.260 . S
C394 O401 1.240 . S
C394 O402 1.252 . S
C395 O398 1.252 . S
C395 O399 1.260 . S
O396 In390 2.266 . S
O396 C393 1.252 . S
O397 In390 2.326 . S
O397 C393 1.260 . S
O398 In390 2.266 . S
O398 C395 1.252 . S
O399 In390 2.326 . S
O399 C395 1.260 . S
C400 O391 1.240 . S
C400 O392 1.252 . S
O401 In390 2.294 . S
O401 C394 1.240 . S
O402 In390 2.326 . S
O402 C394 1.252 . S
In403 O404 2.294 . S
In403 O405 2.326 . S
In403 O409 2.266 . S
In403 O410 2.326 . S
In403 O411 2.266 . S
In403 O412 2.326 . S
In403 O414 2.294 . S
In403 O415 2.326 . S
O404 In403 2.294 . S
O404 C413 1.240 . S
O405 In403 2.326 . S
O405 C413 1.252 . S
C406 O409 1.252 . S
C406 O410 1.260 . S
C407 O414 1.240 . S
C407 O415 1.252 . S
C408 O411 1.252 . S
C408 O412 1.260 . S
O409 In403 2.266 . S
O409 C406 1.252 . S
O410 In403 2.326 . S
O410 C406 1.260 . S
O411 In403 2.266 . S
O411 C408 1.252 . S
O412 In403 2.326 . S
O412 C408 1.260 . S
C413 O404 1.240 . S
C413 O405 1.252 . S
O414 In403 2.294 . S
O414 C407 1.240 . S
O415 In403 2.326 . S
O415 C407 1.252 . S
In416 O417 2.294 . S
In416 O418 2.326 . S
In416 O422 2.266 . S
In416 O423 2.326 . S
In416 O424 2.266 . S
In416 O425 2.326 . S
In416 O427 2.294 . S
In416 O428 2.326 . S
O417 In416 2.294 . S
O417 C426 1.240 . S
O418 In416 2.326 . S
O418 C426 1.252 . S
C419 O422 1.252 . S
C419 O423 1.260 . S
C420 O427 1.240 . S
C420 O428 1.252 . S
C421 O424 1.252 . S
C421 O425 1.260 . S
O422 In416 2.266 . S
O422 C419 1.252 . S
O423 In416 2.326 . S
O423 C419 1.260 . S
O424 In416 2.266 . S
O424 C421 1.252 . S
O425 In416 2.326 . S
O425 C421 1.260 . S
C426 O417 1.240 . S
C426 O418 1.252 . S
O427 In416 2.294 . S
O427 C420 1.240 . S
O428 In416 2.326 . S
O428 C420 1.252 . S
In429 O430 2.294 . S
In429 O431 2.326 . S
In429 O435 2.266 . S
In429 O436 2.326 . S
In429 O437 2.266 . S
In429 O438 2.326 . S
In429 O440 2.294 . S
In429 O441 2.326 . S
O430 In429 2.294 . S
O430 C439 1.240 . S
O431 In429 2.326 . S
O431 C439 1.252 . S
C432 O435 1.252 . S
C432 O436 1.260 . S
C433 O440 1.240 . S
C433 O441 1.252 . S
C434 O437 1.252 . S
C434 O438 1.260 . S
O435 In429 2.266 . S
O435 C432 1.252 . S
O436 In429 2.326 . S
O436 C432 1.260 . S
O437 In429 2.266 . S
O437 C434 1.252 . S
O438 In429 2.326 . S
O438 C434 1.260 . S
C439 O430 1.240 . S
C439 O431 1.252 . S
O440 In429 2.294 . S
O440 C433 1.240 . S
O441 In429 2.326 . S
O441 C433 1.252 . S
In442 O443 2.294 . S
In442 O444 2.326 . S
In442 O448 2.266 . S
In442 O449 2.326 . S
In442 O450 2.266 . S
In442 O451 2.326 . S
In442 O453 2.294 . S
In442 O454 2.326 . S
O443 In442 2.294 . S
O443 C452 1.240 . S
O444 In442 2.326 . S
O444 C452 1.252 . S
C445 O448 1.252 . S
C445 O449 1.260 . S
C446 O453 1.240 . S
C446 O454 1.252 . S
C447 O450 1.252 . S
C447 O451 1.260 . S
O448 In442 2.266 . S
O448 C445 1.252 . S
O449 In442 2.326 . S
O449 C445 1.260 . S
O450 In442 2.266 . S
O450 C447 1.252 . S
O451 In442 2.326 . S
O451 C447 1.260 . S
C452 O443 1.240 . S
C452 O444 1.252 . S
O453 In442 2.294 . S
O453 C446 1.240 . S
O454 In442 2.326 . S
O454 C446 1.252 . S
In455 O456 2.294 . S
In455 O457 2.326 . S
In455 O461 2.266 . S
In455 O462 2.326 . S
In455 O463 2.266 . S
In455 O464 2.326 . S
In455 O466 2.294 . S
In455 O467 2.326 . S
O456 In455 2.294 . S
O456 C465 1.240 . S
O457 In455 2.326 . S
O457 C465 1.252 . S
C458 O461 1.252 . S
C458 O462 1.260 . S
C459 O466 1.240 . S
C459 O467 1.252 . S
C460 O463 1.252 . S
C460 O464 1.260 . S
O461 In455 2.266 . S
O461 C458 1.252 . S
O462 In455 2.326 . S
O462 C458 1.260 . S
O463 In455 2.266 . S
O463 C460 1.252 . S
O464 In455 2.326 . S
O464 C460 1.260 . S
C465 O456 1.240 . S
C465 O457 1.252 . S
O466 In455 2.294 . S
O466 C459 1.240 . S
O467 In455 2.326 . S
O467 C459 1.252 . S
In468 O469 2.294 . S
In468 O470 2.326 . S
In468 O474 2.266 . S
In468 O475 2.326 . S
In468 O476 2.266 . S
In468 O477 2.326 . S
In468 O479 2.294 . S
In468 O480 2.326 . S
O469 In468 2.294 . S
O469 C478 1.240 . S
O470 In468 2.326 . S
O470 C478 1.252 . S
C471 O474 1.252 . S
C471 O475 1.260 . S
C472 O479 1.240 . S
C472 O480 1.252 . S
C473 O476 1.252 . S
C473 O477 1.260 . S
O474 In468 2.266 . S
O474 C471 1.252 . S
O475 In468 2.326 . S
O475 C471 1.260 . S
O476 In468 2.266 . S
O476 C473 1.252 . S
O477 In468 2.326 . S
O477 C473 1.260 . S
C478 O469 1.240 . S
C478 O470 1.252 . S
O479 In468 2.294 . S
O479 C472 1.240 . S
O480 In468 2.326 . S
O480 C472 1.252 . S
In481 O482 2.294 . S
In481 O483 2.326 . S
In481 O487 2.266 . S
In481 O488 2.326 . S
In481 O489 2.266 . S
In481 O490 2.326 . S
In481 O492 2.294 . S
In481 O493 2.326 . S
O482 In481 2.294 . S
O482 C491 1.240 . S
O483 In481 2.326 . S
O483 C491 1.252 . S
C484 O487 1.252 . S
C484 O488 1.260 . S
C485 O492 1.240 . S
C485 O493 1.252 . S
C486 O489 1.252 . S
C486 O490 1.260 . S
O487 In481 2.266 . S
O487 C484 1.252 . S
O488 In481 2.326 . S
O488 C484 1.260 . S
O489 In481 2.266 . S
O489 C486 1.252 . S
O490 In481 2.326 . S
O490 C486 1.260 . S
C491 O482 1.240 . S
C491 O483 1.252 . S
O492 In481 2.294 . S
O492 C485 1.240 . S
O493 In481 2.326 . S
O493 C485 1.252 . S
In494 O495 2.294 . S
In494 O496 2.326 . S
In494 O500 2.266 . S
In494 O501 2.326 . S
In494 O502 2.266 . S
In494 O503 2.326 . S
In494 O505 2.294 . S
In494 O506 2.326 . S
O495 In494 2.294 . S
O495 C504 1.240 . S
O496 In494 2.326 . S
O496 C504 1.252 . S
C497 O500 1.252 . S
C497 O501 1.260 . S
C498 O505 1.240 . S
C498 O506 1.252 . S
C499 O502 1.252 . S
C499 O503 1.260 . S
O500 In494 2.266 . S
O500 C497 1.252 . S
O501 In494 2.326 . S
O501 C497 1.260 . S
O502 In494 2.266 . S
O502 C499 1.252 . S
O503 In494 2.326 . S
O503 C499 1.260 . S
C504 O495 1.240 . S
C504 O496 1.252 . S
O505 In494 2.294 . S
O505 C498 1.240 . S
O506 In494 2.326 . S
O506 C498 1.252 . S
In507 O508 2.294 . S
In507 O509 2.326 . S
In507 O513 2.266 . S
In507 O514 2.326 . S
In507 O515 2.266 . S
In507 O516 2.326 . S
In507 O518 2.294 . S
In507 O519 2.326 . S
O508 In507 2.294 . S
O508 C517 1.240 . S
O509 In507 2.326 . S
O509 C517 1.252 . S
C510 O513 1.252 . S
C510 O514 1.260 . S
C511 O518 1.240 . S
C511 O519 1.252 . S
C512 O515 1.252 . S
C512 O516 1.260 . S
O513 In507 2.266 . S
O513 C510 1.252 . S
O514 In507 2.326 . S
O514 C510 1.260 . S
O515 In507 2.266 . S
O515 C512 1.252 . S
O516 In507 2.326 . S
O516 C512 1.260 . S
C517 O508 1.240 . S
C517 O509 1.252 . S
O518 In507 2.294 . S
O518 C511 1.240 . S
O519 In507 2.326 . S
O519 C511 1.252 . S
In520 O521 2.294 . S
In520 O522 2.326 . S
In520 O526 2.266 . S
In520 O527 2.326 . S
In520 O528 2.266 . S
In520 O529 2.326 . S
In520 O531 2.294 . S
In520 O532 2.326 . S
O521 In520 2.294 . S
O521 C530 1.240 . S
O522 In520 2.326 . S
O522 C530 1.252 . S
C523 O526 1.252 . S
C523 O527 1.260 . S
C524 O531 1.240 . S
C524 O532 1.252 . S
C525 O528 1.252 . S
C525 O529 1.260 . S
O526 In520 2.266 . S
O526 C523 1.252 . S
O527 In520 2.326 . S
O527 C523 1.260 . S
O528 In520 2.266 . S
O528 C525 1.252 . S
O529 In520 2.326 . S
O529 C525 1.260 . S
C530 O521 1.240 . S
C530 O522 1.252 . S
O531 In520 2.294 . S
O531 C524 1.240 . S
O532 In520 2.326 . S
O532 C524 1.252 . S
In533 O534 2.294 . S
In533 O535 2.326 . S
In533 O539 2.266 . S
In533 O540 2.326 . S
In533 O541 2.266 . S
In533 O542 2.326 . S
In533 O544 2.294 . S
In533 O545 2.326 . S
O534 In533 2.294 . S
O534 C543 1.240 . S
O535 In533 2.326 . S
O535 C543 1.252 . S
C536 O539 1.252 . S
C536 O540 1.260 . S
C537 O544 1.240 . S
C537 O545 1.252 . S
C538 O541 1.252 . S
C538 O542 1.260 . S
O539 In533 2.266 . S
O539 C536 1.252 . S
O540 In533 2.326 . S
O540 C536 1.260 . S
O541 In533 2.266 . S
O541 C538 1.252 . S
O542 In533 2.326 . S
O542 C538 1.260 . S
C543 O534 1.240 . S
C543 O535 1.252 . S
O544 In533 2.294 . S
O544 C537 1.240 . S
O545 In533 2.326 . S
O545 C537 1.252 . S
In546 O547 2.294 . S
In546 O548 2.326 . S
In546 O552 2.266 . S
In546 O553 2.326 . S
In546 O554 2.266 . S
In546 O555 2.326 . S
In546 O557 2.294 . S
In546 O558 2.326 . S
O547 In546 2.294 . S
O547 C556 1.240 . S
O548 In546 2.326 . S
O548 C556 1.252 . S
C549 O552 1.252 . S
C549 O553 1.260 . S
C550 O557 1.240 . S
C550 O558 1.252 . S
C551 O554 1.252 . S
C551 O555 1.260 . S
O552 In546 2.266 . S
O552 C549 1.252 . S
O553 In546 2.326 . S
O553 C549 1.260 . S
O554 In546 2.266 . S
O554 C551 1.252 . S
O555 In546 2.326 . S
O555 C551 1.260 . S
C556 O547 1.240 . S
C556 O548 1.252 . S
O557 In546 2.294 . S
O557 C550 1.240 . S
O558 In546 2.326 . S
O558 C550 1.252 . S
In559 O560 2.294 . S
In559 O561 2.326 . S
In559 O565 2.266 . S
In559 O566 2.326 . S
In559 O567 2.266 . S
In559 O568 2.326 . S
In559 O570 2.294 . S
In559 O571 2.326 . S
O560 In559 2.294 . S
O560 C569 1.240 . S
O561 In559 2.326 . S
O561 C569 1.252 . S
C562 O565 1.252 . S
C562 O566 1.260 . S
C563 O570 1.240 . S
C563 O571 1.252 . S
C564 O567 1.252 . S
C564 O568 1.260 . S
O565 In559 2.266 . S
O565 C562 1.252 . S
O566 In559 2.326 . S
O566 C562 1.260 . S
O567 In559 2.266 . S
O567 C564 1.252 . S
O568 In559 2.326 . S
O568 C564 1.260 . S
C569 O560 1.240 . S
C569 O561 1.252 . S
O570 In559 2.294 . S
O570 C563 1.240 . S
O571 In559 2.326 . S
O571 C563 1.252 . S
In572 O573 2.294 . S
In572 O574 2.326 . S
In572 O578 2.266 . S
In572 O579 2.326 . S
In572 O580 2.266 . S
In572 O581 2.326 . S
In572 O583 2.294 . S
In572 O584 2.326 . S
O573 In572 2.294 . S
O573 C582 1.240 . S
O574 In572 2.326 . S
O574 C582 1.252 . S
C575 O578 1.252 . S
C575 O579 1.260 . S
C576 O583 1.240 . S
C576 O584 1.252 . S
C577 O580 1.252 . S
C577 O581 1.260 . S
O578 In572 2.266 . S
O578 C575 1.252 . S
O579 In572 2.326 . S
O579 C575 1.260 . S
O580 In572 2.266 . S
O580 C577 1.252 . S
O581 In572 2.326 . S
O581 C577 1.260 . S
C582 O573 1.240 . S
C582 O574 1.252 . S
O583 In572 2.294 . S
O583 C576 1.240 . S
O584 In572 2.326 . S
O584 C576 1.252 . S
In585 O586 2.294 . S
In585 O587 2.326 . S
In585 O591 2.266 . S
In585 O592 2.326 . S
In585 O593 2.266 . S
In585 O594 2.326 . S
In585 O596 2.294 . S
In585 O597 2.326 . S
O586 In585 2.294 . S
O586 C595 1.240 . S
O587 In585 2.326 . S
O587 C595 1.252 . S
C588 O591 1.252 . S
C588 O592 1.260 . S
C589 O596 1.240 . S
C589 O597 1.252 . S
C590 O593 1.252 . S
C590 O594 1.260 . S
O591 In585 2.266 . S
O591 C588 1.252 . S
O592 In585 2.326 . S
O592 C588 1.260 . S
O593 In585 2.266 . S
O593 C590 1.252 . S
O594 In585 2.326 . S
O594 C590 1.260 . S
C595 O586 1.240 . S
C595 O587 1.252 . S
O596 In585 2.294 . S
O596 C589 1.240 . S
O597 In585 2.326 . S
O597 C589 1.252 . S
In598 O599 2.294 . S
In598 O600 2.326 . S
In598 O604 2.266 . S
In598 O605 2.326 . S
In598 O606 2.266 . S
In598 O607 2.326 . S
In598 O609 2.294 . S
In598 O610 2.326 . S
O599 In598 2.294 . S
O599 C608 1.240 . S
O600 In598 2.326 . S
O600 C608 1.252 . S
C601 O604 1.252 . S
C601 O605 1.260 . S
C602 O609 1.240 . S
C602 O610 1.252 . S
C603 O606 1.252 . S
C603 O607 1.260 . S
O604 In598 2.266 . S
O604 C601 1.252 . S
O605 In598 2.326 . S
O605 C601 1.260 . S
O606 In598 2.266 . S
O606 C603 1.252 . S
O607 In598 2.326 . S
O607 C603 1.260 . S
C608 O599 1.240 . S
C608 O600 1.252 . S
O609 In598 2.294 . S
O609 C602 1.240 . S
O610 In598 2.326 . S
O610 C602 1.252 . S
In611 O612 2.294 . S
In611 O613 2.326 . S
In611 O617 2.266 . S
In611 O618 2.326 . S
In611 O619 2.266 . S
In611 O620 2.326 . S
In611 O622 2.294 . S
In611 O623 2.326 . S
O612 In611 2.294 . S
O612 C621 1.240 . S
O613 In611 2.326 . S
O613 C621 1.252 . S
C614 O617 1.252 . S
C614 O618 1.260 . S
C615 O622 1.240 . S
C615 O623 1.252 . S
C616 O619 1.252 . S
C616 O620 1.260 . S
O617 In611 2.266 . S
O617 C614 1.252 . S
O618 In611 2.326 . S
O618 C614 1.260 . S
O619 In611 2.266 . S
O619 C616 1.252 . S
O620 In611 2.326 . S
O620 C616 1.260 . S
C621 O612 1.240 . S
C621 O613 1.252 . S
O622 In611 2.294 . S
O622 C615 1.240 . S
O623 In611 2.326 . S
O623 C615 1.252 . S
C624 C625 1.369 . S
C624 C626 1.419 . S
C624 H628 0.930 . S
C625 C624 1.369 . S
C625 C634 1.429 . S
C626 C624 1.419 . S
C626 C627 1.363 . S
C626 H629 0.929 . S
C627 C626 1.363 . S
C627 C633 1.428 . S
H628 C624 0.930 . S
H629 C626 0.929 . S
S630 N631 1.613 . S
S630 N632 1.610 . S
N631 S630 1.613 . S
N631 C634 1.350 . S
N632 S630 1.610 . S
N632 C633 1.351 . S
C633 C627 1.428 . S
C633 N632 1.351 . S
C633 C634 1.434 . S
C634 C625 1.429 . S
C634 N631 1.350 . S
C634 C633 1.434 . S
C635 C636 1.369 . S
C635 C637 1.419 . S
C635 H639 0.930 . S
C636 C635 1.369 . S
C636 C645 1.429 . S
C637 C635 1.419 . S
C637 C638 1.363 . S
C637 H640 0.929 . S
C638 C637 1.363 . S
C638 C644 1.428 . S
H639 C635 0.930 . S
H640 C637 0.929 . S
S641 N642 1.613 . S
S641 N643 1.610 . S
N642 S641 1.613 . S
N642 C645 1.350 . S
N643 S641 1.610 . S
N643 C644 1.351 . S
C644 C638 1.428 . S
C644 N643 1.351 . S
C644 C645 1.434 . S
C645 C636 1.429 . S
C645 N642 1.350 . S
C645 C644 1.434 . S
C646 C647 1.369 . S
C646 C648 1.419 . S
C646 H650 0.930 . S
C647 C646 1.369 . S
C647 C656 1.429 . S
C648 C646 1.419 . S
C648 C649 1.363 . S
C648 H651 0.929 . S
C649 C648 1.363 . S
C649 C655 1.428 . S
H650 C646 0.930 . S
H651 C648 0.929 . S
S652 N653 1.613 . S
S652 N654 1.610 . S
N653 S652 1.613 . S
N653 C656 1.350 . S
N654 S652 1.610 . S
N654 C655 1.351 . S
C655 C649 1.428 . S
C655 N654 1.351 . S
C655 C656 1.434 . S
C656 C647 1.429 . S
C656 N653 1.350 . S
C656 C655 1.434 . S
C657 C658 1.369 . S
C657 C659 1.419 . S
C657 H661 0.930 . S
C658 C657 1.369 . S
C658 C667 1.429 . S
C659 C657 1.419 . S
C659 C660 1.363 . S
C659 H662 0.929 . S
C660 C659 1.363 . S
C660 C666 1.428 . S
H661 C657 0.930 . S
H662 C659 0.929 . S
S663 N664 1.613 . S
S663 N665 1.610 . S
N664 S663 1.613 . S
N664 C667 1.350 . S
N665 S663 1.610 . S
N665 C666 1.351 . S
C666 C660 1.428 . S
C666 N665 1.351 . S
C666 C667 1.434 . S
C667 C658 1.429 . S
C667 N664 1.350 . S
C667 C666 1.434 . S
C668 C669 1.369 . S
C668 C670 1.419 . S
C668 H672 0.930 . S
C669 C668 1.369 . S
C669 C678 1.429 . S
C670 C668 1.419 . S
C670 C671 1.363 . S
C670 H673 0.929 . S
C671 C670 1.363 . S
C671 C677 1.428 . S
H672 C668 0.930 . S
H673 C670 0.929 . S
S674 N675 1.613 . S
S674 N676 1.610 . S
N675 S674 1.613 . S
N675 C678 1.350 . S
N676 S674 1.610 . S
N676 C677 1.351 . S
C677 C671 1.428 . S
C677 N676 1.351 . S
C677 C678 1.434 . S
C678 C669 1.429 . S
C678 N675 1.350 . S
C678 C677 1.434 . S
C679 C680 1.369 . S
C679 C681 1.419 . S
C679 H683 0.930 . S
C680 C679 1.369 . S
C680 C689 1.429 . S
C681 C679 1.419 . S
C681 C682 1.363 . S
C681 H684 0.929 . S
C682 C681 1.363 . S
C682 C688 1.428 . S
H683 C679 0.930 . S
H684 C681 0.929 . S
S685 N686 1.613 . S
S685 N687 1.610 . S
N686 S685 1.613 . S
N686 C689 1.350 . S
N687 S685 1.610 . S
N687 C688 1.351 . S
C688 C682 1.428 . S
C688 N687 1.351 . S
C688 C689 1.434 . S
C689 C680 1.429 . S
C689 N686 1.350 . S
C689 C688 1.434 . S
C690 C691 1.369 . S
C690 C692 1.419 . S
C690 H694 0.930 . S
C691 C690 1.369 . S
C691 C700 1.429 . S
C692 C690 1.419 . S
C692 C693 1.363 . S
C692 H695 0.929 . S
C693 C692 1.363 . S
C693 C699 1.428 . S
H694 C690 0.930 . S
H695 C692 0.929 . S
S696 N697 1.613 . S
S696 N698 1.610 . S
N697 S696 1.613 . S
N697 C700 1.350 . S
N698 S696 1.610 . S
N698 C699 1.351 . S
C699 C693 1.428 . S
C699 N698 1.351 . S
C699 C700 1.434 . S
C700 C691 1.429 . S
C700 N697 1.350 . S
C700 C699 1.434 . S
C701 C702 1.369 . S
C701 C703 1.419 . S
C701 H705 0.930 . S
C702 C701 1.369 . S
C702 C711 1.429 . S
C703 C701 1.419 . S
C703 C704 1.363 . S
C703 H706 0.929 . S
C704 C703 1.363 . S
C704 C710 1.428 . S
H705 C701 0.930 . S
H706 C703 0.929 . S
S707 N708 1.613 . S
S707 N709 1.610 . S
N708 S707 1.613 . S
N708 C711 1.350 . S
N709 S707 1.610 . S
N709 C710 1.351 . S
C710 C704 1.428 . S
C710 N709 1.351 . S
C710 C711 1.434 . S
C711 C702 1.429 . S
C711 N708 1.350 . S
C711 C710 1.434 . S
C712 C713 1.369 . S
C712 C714 1.419 . S
C712 H716 0.930 . S
C713 C712 1.369 . S
C713 C722 1.429 . S
C714 C712 1.419 . S
C714 C715 1.363 . S
C714 H717 0.929 . S
C715 C714 1.363 . S
C715 C721 1.428 . S
H716 C712 0.930 . S
H717 C714 0.929 . S
S718 N719 1.613 . S
S718 N720 1.610 . S
N719 S718 1.613 . S
N719 C722 1.350 . S
N720 S718 1.610 . S
N720 C721 1.351 . S
C721 C715 1.428 . S
C721 N720 1.351 . S
C721 C722 1.434 . S
C722 C713 1.429 . S
C722 N719 1.350 . S
C722 C721 1.434 . S
C723 C724 1.369 . S
C723 C725 1.419 . S
C723 H727 0.930 . S
C724 C723 1.369 . S
C724 C733 1.429 . S
C725 C723 1.419 . S
C725 C726 1.363 . S
C725 H728 0.929 . S
C726 C725 1.363 . S
C726 C732 1.428 . S
H727 C723 0.930 . S
H728 C725 0.929 . S
S729 N730 1.613 . S
S729 N731 1.610 . S
N730 S729 1.613 . S
N730 C733 1.350 . S
N731 S729 1.610 . S
N731 C732 1.351 . S
C732 C726 1.428 . S
C732 N731 1.351 . S
C732 C733 1.434 . S
C733 C724 1.429 . S
C733 N730 1.350 . S
C733 C732 1.434 . S
C734 C735 1.369 . S
C734 C736 1.419 . S
C734 H738 0.930 . S
C735 C734 1.369 . S
C735 C744 1.429 . S
C736 C734 1.419 . S
C736 C737 1.363 . S
C736 H739 0.929 . S
C737 C736 1.363 . S
C737 C743 1.428 . S
H738 C734 0.930 . S
H739 C736 0.929 . S
S740 N741 1.613 . S
S740 N742 1.610 . S
N741 S740 1.613 . S
N741 C744 1.350 . S
N742 S740 1.610 . S
N742 C743 1.351 . S
C743 C737 1.428 . S
C743 N742 1.351 . S
C743 C744 1.434 . S
C744 C735 1.429 . S
C744 N741 1.350 . S
C744 C743 1.434 . S
C745 C746 1.369 . S
C745 C747 1.419 . S
C745 H749 0.930 . S
C746 C745 1.369 . S
C746 C755 1.429 . S
C747 C745 1.419 . S
C747 C748 1.363 . S
C747 H750 0.929 . S
C748 C747 1.363 . S
C748 C754 1.428 . S
H749 C745 0.930 . S
H750 C747 0.929 . S
S751 N752 1.613 . S
S751 N753 1.610 . S
N752 S751 1.613 . S
N752 C755 1.350 . S
N753 S751 1.610 . S
N753 C754 1.351 . S
C754 C748 1.428 . S
C754 N753 1.351 . S
C754 C755 1.434 . S
C755 C746 1.429 . S
C755 N752 1.350 . S
C755 C754 1.434 . S
C756 C757 1.369 . S
C756 C758 1.419 . S
C756 H760 0.930 . S
C757 C756 1.369 . S
C757 C766 1.429 . S
C758 C756 1.419 . S
C758 C759 1.363 . S
C758 H761 0.929 . S
C759 C758 1.363 . S
C759 C765 1.428 . S
H760 C756 0.930 . S
H761 C758 0.929 . S
S762 N763 1.613 . S
S762 N764 1.610 . S
N763 S762 1.613 . S
N763 C766 1.350 . S
N764 S762 1.610 . S
N764 C765 1.351 . S
C765 C759 1.428 . S
C765 N764 1.351 . S
C765 C766 1.434 . S
C766 C757 1.429 . S
C766 N763 1.350 . S
C766 C765 1.434 . S
C767 C768 1.369 . S
C767 C769 1.419 . S
C767 H771 0.930 . S
C768 C767 1.369 . S
C768 C777 1.429 . S
C769 C767 1.419 . S
C769 C770 1.363 . S
C769 H772 0.929 . S
C770 C769 1.363 . S
C770 C776 1.428 . S
H771 C767 0.930 . S
H772 C769 0.929 . S
S773 N774 1.613 . S
S773 N775 1.610 . S
N774 S773 1.613 . S
N774 C777 1.350 . S
N775 S773 1.610 . S
N775 C776 1.351 . S
C776 C770 1.428 . S
C776 N775 1.351 . S
C776 C777 1.434 . S
C777 C768 1.429 . S
C777 N774 1.350 . S
C777 C776 1.434 . S
C778 C779 1.369 . S
C778 C780 1.419 . S
C778 H782 0.930 . S
C779 C778 1.369 . S
C779 C788 1.429 . S
C780 C778 1.419 . S
C780 C781 1.363 . S
C780 H783 0.929 . S
C781 C780 1.363 . S
C781 C787 1.428 . S
H782 C778 0.930 . S
H783 C780 0.929 . S
S784 N785 1.613 . S
S784 N786 1.610 . S
N785 S784 1.613 . S
N785 C788 1.350 . S
N786 S784 1.610 . S
N786 C787 1.351 . S
C787 C781 1.428 . S
C787 N786 1.351 . S
C787 C788 1.434 . S
C788 C779 1.429 . S
C788 N785 1.350 . S
C788 C787 1.434 . S
C789 C790 1.369 . S
C789 C791 1.419 . S
C789 H793 0.930 . S
C790 C789 1.369 . S
C790 C799 1.429 . S
C791 C789 1.419 . S
C791 C792 1.363 . S
C791 H794 0.929 . S
C792 C791 1.363 . S
C792 C798 1.428 . S
H793 C789 0.930 . S
H794 C791 0.929 . S
S795 N796 1.613 . S
S795 N797 1.610 . S
N796 S795 1.613 . S
N796 C799 1.350 . S
N797 S795 1.610 . S
N797 C798 1.351 . S
C798 C792 1.428 . S
C798 N797 1.351 . S
C798 C799 1.434 . S
C799 C790 1.429 . S
C799 N796 1.350 . S
C799 C798 1.434 . S
C800 C801 1.369 . S
C800 C802 1.419 . S
C800 H804 0.930 . S
C801 C800 1.369 . S
C801 C810 1.429 . S
C802 C800 1.419 . S
C802 C803 1.363 . S
C802 H805 0.929 . S
C803 C802 1.363 . S
C803 C809 1.428 . S
H804 C800 0.930 . S
H805 C802 0.929 . S
S806 N807 1.613 . S
S806 N808 1.610 . S
N807 S806 1.613 . S
N807 C810 1.350 . S
N808 S806 1.610 . S
N808 C809 1.351 . S
C809 C803 1.428 . S
C809 N808 1.351 . S
C809 C810 1.434 . S
C810 C801 1.429 . S
C810 N807 1.350 . S
C810 C809 1.434 . S
C811 C812 1.369 . S
C811 C813 1.419 . S
C811 H815 0.930 . S
C812 C811 1.369 . S
C812 C821 1.429 . S
C813 C811 1.419 . S
C813 C814 1.363 . S
C813 H816 0.929 . S
C814 C813 1.363 . S
C814 C820 1.428 . S
H815 C811 0.930 . S
H816 C813 0.929 . S
S817 N818 1.613 . S
S817 N819 1.610 . S
N818 S817 1.613 . S
N818 C821 1.350 . S
N819 S817 1.610 . S
N819 C820 1.351 . S
C820 C814 1.428 . S
C820 N819 1.351 . S
C820 C821 1.434 . S
C821 C812 1.429 . S
C821 N818 1.350 . S
C821 C820 1.434 . S
C822 C823 1.369 . S
C822 C824 1.419 . S
C822 H826 0.930 . S
C823 C822 1.369 . S
C823 C832 1.429 . S
C824 C822 1.419 . S
C824 C825 1.363 . S
C824 H827 0.929 . S
C825 C824 1.363 . S
C825 C831 1.428 . S
H826 C822 0.930 . S
H827 C824 0.929 . S
S828 N829 1.613 . S
S828 N830 1.610 . S
N829 S828 1.613 . S
N829 C832 1.350 . S
N830 S828 1.610 . S
N830 C831 1.351 . S
C831 C825 1.428 . S
C831 N830 1.351 . S
C831 C832 1.434 . S
C832 C823 1.429 . S
C832 N829 1.350 . S
C832 C831 1.434 . S
C833 C834 1.369 . S
C833 C835 1.419 . S
C833 H837 0.930 . S
C834 C833 1.369 . S
C834 C843 1.429 . S
C835 C833 1.419 . S
C835 C836 1.363 . S
C835 H838 0.929 . S
C836 C835 1.363 . S
C836 C842 1.428 . S
H837 C833 0.930 . S
H838 C835 0.929 . S
S839 N840 1.613 . S
S839 N841 1.610 . S
N840 S839 1.613 . S
N840 C843 1.350 . S
N841 S839 1.610 . S
N841 C842 1.351 . S
C842 C836 1.428 . S
C842 N841 1.351 . S
C842 C843 1.434 . S
C843 C834 1.429 . S
C843 N840 1.350 . S
C843 C842 1.434 . S
C844 C845 1.369 . S
C844 C846 1.419 . S
C844 H848 0.930 . S
C845 C844 1.369 . S
C845 C854 1.429 . S
C846 C844 1.419 . S
C846 C847 1.363 . S
C846 H849 0.929 . S
C847 C846 1.363 . S
C847 C853 1.428 . S
H848 C844 0.930 . S
H849 C846 0.929 . S
S850 N851 1.613 . S
S850 N852 1.610 . S
N851 S850 1.613 . S
N851 C854 1.350 . S
N852 S850 1.610 . S
N852 C853 1.351 . S
C853 C847 1.428 . S
C853 N852 1.351 . S
C853 C854 1.434 . S
C854 C845 1.429 . S
C854 N851 1.350 . S
C854 C853 1.434 . S
C855 C856 1.369 . S
C855 C857 1.419 . S
C855 H859 0.930 . S
C856 C855 1.369 . S
C856 C865 1.429 . S
C857 C855 1.419 . S
C857 C858 1.363 . S
C857 H860 0.929 . S
C858 C857 1.363 . S
C858 C864 1.428 . S
H859 C855 0.930 . S
H860 C857 0.929 . S
S861 N862 1.613 . S
S861 N863 1.610 . S
N862 S861 1.613 . S
N862 C865 1.350 . S
N863 S861 1.610 . S
N863 C864 1.351 . S
C864 C858 1.428 . S
C864 N863 1.351 . S
C864 C865 1.434 . S
C865 C856 1.429 . S
C865 N862 1.350 . S
C865 C864 1.434 . S
C866 C867 1.369 . S
C866 C868 1.419 . S
C866 H870 0.930 . S
C867 C866 1.369 . S
C867 C876 1.429 . S
C868 C866 1.419 . S
C868 C869 1.363 . S
C868 H871 0.929 . S
C869 C868 1.363 . S
C869 C875 1.428 . S
H870 C866 0.930 . S
H871 C868 0.929 . S
S872 N873 1.613 . S
S872 N874 1.610 . S
N873 S872 1.613 . S
N873 C876 1.350 . S
N874 S872 1.610 . S
N874 C875 1.351 . S
C875 C869 1.428 . S
C875 N874 1.351 . S
C875 C876 1.434 . S
C876 C867 1.429 . S
C876 N873 1.350 . S
C876 C875 1.434 . S
C877 C878 1.369 . S
C877 C879 1.419 . S
C877 H881 0.930 . S
C878 C877 1.369 . S
C878 C887 1.429 . S
C879 C877 1.419 . S
C879 C880 1.363 . S
C879 H882 0.929 . S
C880 C879 1.363 . S
C880 C886 1.428 . S
H881 C877 0.930 . S
H882 C879 0.929 . S
S883 N884 1.613 . S
S883 N885 1.610 . S
N884 S883 1.613 . S
N884 C887 1.350 . S
N885 S883 1.610 . S
N885 C886 1.351 . S
C886 C880 1.428 . S
C886 N885 1.351 . S
C886 C887 1.434 . S
C887 C878 1.429 . S
C887 N884 1.350 . S
C887 C886 1.434 . S
C888 C889 1.369 . S
C888 C890 1.419 . S
C888 H892 0.930 . S
C889 C888 1.369 . S
C889 C898 1.429 . S
C890 C888 1.419 . S
C890 C891 1.363 . S
C890 H893 0.929 . S
C891 C890 1.363 . S
C891 C897 1.428 . S
H892 C888 0.930 . S
H893 C890 0.929 . S
S894 N895 1.613 . S
S894 N896 1.610 . S
N895 S894 1.613 . S
N895 C898 1.350 . S
N896 S894 1.610 . S
N896 C897 1.351 . S
C897 C891 1.428 . S
C897 N896 1.351 . S
C897 C898 1.434 . S
C898 C889 1.429 . S
C898 N895 1.350 . S
C898 C897 1.434 . S
C899 C900 1.369 1_554 S
C899 C901 1.419 . S
C899 H903 0.930 1_554 S
C900 C899 1.369 1_556 S
C900 C909 1.429 1_556 S
C901 C899 1.419 . S
C901 C902 1.363 . S
C901 H904 0.929 . S
C902 C901 1.363 . S
C902 C908 1.428 . S
H903 C899 0.930 1_556 S
H904 C901 0.929 . S
S905 N906 1.613 1_554 S
S905 N907 1.610 . S
N906 S905 1.613 1_556 S
N906 C909 1.350 1_556 S
N907 S905 1.610 . S
N907 C908 1.351 . S
C908 C902 1.428 . S
C908 N907 1.351 . S
C908 C909 1.434 . S
C909 C900 1.429 1_554 S
C909 N906 1.350 1_554 S
C909 C908 1.434 . S
C910 C911 1.369 . S
C910 C912 1.419 . S
C910 H914 0.930 . S
C911 C910 1.369 . S
C911 C920 1.429 . S
C912 C910 1.419 . S
C912 C913 1.363 . S
C912 H915 0.929 . S
C913 C912 1.363 . S
C913 C919 1.428 . S
H914 C910 0.930 . S
H915 C912 0.929 . S
S916 N917 1.613 . S
S916 N918 1.610 . S
N917 S916 1.613 . S
N917 C920 1.350 . S
N918 S916 1.610 . S
N918 C919 1.351 . S
C919 C913 1.428 . S
C919 N918 1.351 . S
C919 C920 1.434 . S
C920 C911 1.429 . S
C920 N917 1.350 . S
C920 C919 1.434 . S
C921 C922 1.369 1_554 S
C921 C923 1.419 . S
C921 H925 0.930 1_554 S
C922 C921 1.369 1_556 S
C922 C931 1.429 1_556 S
C923 C921 1.419 . S
C923 C924 1.363 . S
C923 H926 0.929 . S
C924 C923 1.363 . S
C924 C930 1.428 . S
H925 C921 0.930 1_556 S
H926 C923 0.929 . S
S927 N928 1.613 1_554 S
S927 N929 1.610 . S
N928 S927 1.613 1_556 S
N928 C931 1.350 1_556 S
N929 S927 1.610 . S
N929 C930 1.351 . S
C930 C924 1.428 . S
C930 N929 1.351 . S
C930 C931 1.434 . S
C931 C922 1.429 1_554 S
C931 N928 1.350 1_554 S
C931 C930 1.434 . S
C932 C933 1.369 . S
C932 C934 1.419 . S
C932 H936 0.930 . S
C933 C932 1.369 . S
C933 C942 1.429 . S
C934 C932 1.419 . S
C934 C935 1.363 . S
C934 H937 0.929 . S
C935 C934 1.363 . S
C935 C941 1.428 . S
H936 C932 0.930 . S
H937 C934 0.929 . S
S938 N939 1.613 . S
S938 N940 1.610 . S
N939 S938 1.613 . S
N939 C942 1.350 . S
N940 S938 1.610 . S
N940 C941 1.351 . S
C941 C935 1.428 . S
C941 N940 1.351 . S
C941 C942 1.434 . S
C942 C933 1.429 . S
C942 N939 1.350 . S
C942 C941 1.434 . S
C943 C944 1.369 . S
C943 C945 1.419 . S
C943 H947 0.930 . S
C944 C943 1.369 . S
C944 C953 1.429 . S
C945 C943 1.419 . S
C945 C946 1.363 1_556 S
C945 H948 0.929 1_556 S
C946 C945 1.363 1_554 S
C946 C952 1.428 1_554 S
H947 C943 0.930 . S
H948 C945 0.929 1_554 S
S949 N950 1.613 . S
S949 N951 1.610 1_556 S
N950 S949 1.613 . S
N950 C953 1.350 . S
N951 S949 1.610 1_554 S
N951 C952 1.351 1_554 S
C952 C946 1.428 1_556 S
C952 N951 1.351 1_556 S
C952 C953 1.434 . S
C953 C944 1.429 . S
C953 N950 1.350 . S
C953 C952 1.434 . S
C954 C955 1.369 . S
C954 C956 1.419 . S
C954 H958 0.930 . S
C955 C954 1.369 . S
C955 C964 1.429 . S
C956 C954 1.419 . S
C956 C957 1.363 . S
C956 H959 0.929 . S
C957 C956 1.363 . S
C957 C963 1.428 . S
H958 C954 0.930 . S
H959 C956 0.929 . S
S960 N961 1.613 . S
S960 N962 1.610 . S
N961 S960 1.613 . S
N961 C964 1.350 . S
N962 S960 1.610 . S
N962 C963 1.351 . S
C963 C957 1.428 . S
C963 N962 1.351 . S
C963 C964 1.434 . S
C964 C955 1.429 . S
C964 N961 1.350 . S
C964 C963 1.434 . S
C965 C966 1.369 . S
C965 C967 1.419 . S
C965 H969 0.930 . S
C966 C965 1.369 . S
C966 C975 1.429 . S
C967 C965 1.419 . S
C967 C968 1.363 1_556 S
C967 H970 0.929 1_556 S
C968 C967 1.363 1_554 S
C968 C974 1.428 1_554 S
H969 C965 0.930 . S
H970 C967 0.929 1_554 S
S971 N972 1.613 . S
S971 N973 1.610 1_556 S
N972 S971 1.613 . S
N972 C975 1.350 . S
N973 S971 1.610 1_554 S
N973 C974 1.351 1_554 S
C974 C968 1.428 1_556 S
C974 N973 1.351 1_556 S
C974 C975 1.434 . S
C975 C966 1.429 . S
C975 N972 1.350 . S
C975 C974 1.434 . S
C976 C977 1.369 . S
C976 C978 1.419 . S
C976 H980 0.930 . S
C977 C976 1.369 . S
C977 C986 1.429 . S
C978 C976 1.419 . S
C978 C979 1.363 . S
C978 H981 0.929 . S
C979 C978 1.363 . S
C979 C985 1.428 . S
H980 C976 0.930 . S
H981 C978 0.929 . S
S982 N983 1.613 . S
S982 N984 1.610 . S
N983 S982 1.613 . S
N983 C986 1.350 . S
N984 S982 1.610 . S
N984 C985 1.351 . S
C985 C979 1.428 . S
C985 N984 1.351 . S
C985 C986 1.434 . S
C986 C977 1.429 . S
C986 N983 1.350 . S
C986 C985 1.434 . S
C987 C988 1.369 1_545 S
C987 C989 1.419 . S
C987 H991 0.930 1_545 S
C988 C987 1.369 1_565 S
C988 C997 1.429 1_565 S
C989 C987 1.419 . S
C989 C990 1.363 . S
C989 H992 0.929 . S
C990 C989 1.363 . S
C990 C996 1.428 . S
H991 C987 0.930 1_565 S
H992 C989 0.929 . S
S993 N994 1.613 1_545 S
S993 N995 1.610 . S
N994 S993 1.613 1_565 S
N994 C997 1.350 1_565 S
N995 S993 1.610 . S
N995 C996 1.351 . S
C996 C990 1.428 . S
C996 N995 1.351 . S
C996 C997 1.434 . S
C997 C988 1.429 1_545 S
C997 N994 1.350 1_545 S
C997 C996 1.434 . S
C998 C999 1.369 . S
C998 C1000 1.419 . S
C998 H1002 0.930 . S
C999 C998 1.369 . S
C999 C1008 1.429 . S
C1000 C998 1.419 . S
C1000 C1001 1.363 . S
C1000 H1003 0.929 . S
C1001 C1000 1.363 . S
C1001 C1007 1.428 . S
H1002 C998 0.930 . S
H1003 C1000 0.929 . S
S1004 N1005 1.613 . S
S1004 N1006 1.610 . S
N1005 S1004 1.613 . S
N1005 C1008 1.350 . S
N1006 S1004 1.610 . S
N1006 C1007 1.351 . S
C1007 C1001 1.428 . S
C1007 N1006 1.351 . S
C1007 C1008 1.434 . S
C1008 C999 1.429 . S
C1008 N1005 1.350 . S
C1008 C1007 1.434 . S
C1009 C1010 1.369 1_565 S
C1009 C1011 1.419 . S
C1009 H1013 0.930 1_565 S
C1010 C1009 1.369 1_545 S
C1010 C1019 1.429 1_545 S
C1011 C1009 1.419 . S
C1011 C1012 1.363 . S
C1011 H1014 0.929 . S
C1012 C1011 1.363 . S
C1012 C1018 1.428 . S
H1013 C1009 0.930 1_545 S
H1014 C1011 0.929 . S
S1015 N1016 1.613 1_565 S
S1015 N1017 1.610 . S
N1016 S1015 1.613 1_545 S
N1016 C1019 1.350 1_545 S
N1017 S1015 1.610 . S
N1017 C1018 1.351 . S
C1018 C1012 1.428 . S
C1018 N1017 1.351 . S
C1018 C1019 1.434 . S
C1019 C1010 1.429 1_565 S
C1019 N1016 1.350 1_565 S
C1019 C1018 1.434 . S
C1020 C1021 1.369 . S
C1020 C1022 1.419 . S
C1020 H1024 0.930 . S
C1021 C1020 1.369 . S
C1021 C1030 1.429 . S
C1022 C1020 1.419 . S
C1022 C1023 1.363 . S
C1022 H1025 0.929 . S
C1023 C1022 1.363 . S
C1023 C1029 1.428 . S
H1024 C1020 0.930 . S
H1025 C1022 0.929 . S
S1026 N1027 1.613 . S
S1026 N1028 1.610 . S
N1027 S1026 1.613 . S
N1027 C1030 1.350 . S
N1028 S1026 1.610 . S
N1028 C1029 1.351 . S
C1029 C1023 1.428 . S
C1029 N1028 1.351 . S
C1029 C1030 1.434 . S
C1030 C1021 1.429 . S
C1030 N1027 1.350 . S
C1030 C1029 1.434 . S
C1031 C1032 1.369 1_545 S
C1031 C1033 1.419 . S
C1031 H1035 0.930 1_545 S
C1032 C1031 1.369 1_565 S
C1032 C1041 1.429 1_565 S
C1033 C1031 1.419 . S
C1033 C1034 1.363 . S
C1033 H1036 0.929 . S
C1034 C1033 1.363 . S
C1034 C1040 1.428 . S
H1035 C1031 0.930 1_565 S
H1036 C1033 0.929 . S
S1037 N1038 1.613 1_545 S
S1037 N1039 1.610 . S
N1038 S1037 1.613 1_565 S
N1038 C1041 1.350 1_565 S
N1039 S1037 1.610 . S
N1039 C1040 1.351 . S
C1040 C1034 1.428 . S
C1040 N1039 1.351 . S
C1040 C1041 1.434 . S
C1041 C1032 1.429 1_545 S
C1041 N1038 1.350 1_545 S
C1041 C1040 1.434 . S
C1042 C1043 1.369 . S
C1042 C1044 1.419 . S
C1042 H1046 0.930 . S
C1043 C1042 1.369 . S
C1043 C1052 1.429 . S
C1044 C1042 1.419 . S
C1044 C1045 1.363 . S
C1044 H1047 0.929 . S
C1045 C1044 1.363 . S
C1045 C1051 1.428 . S
H1046 C1042 0.930 . S
H1047 C1044 0.929 . S
S1048 N1049 1.613 . S
S1048 N1050 1.610 . S
N1049 S1048 1.613 . S
N1049 C1052 1.350 . S
N1050 S1048 1.610 . S
N1050 C1051 1.351 . S
C1051 C1045 1.428 . S
C1051 N1050 1.351 . S
C1051 C1052 1.434 . S
C1052 C1043 1.429 . S
C1052 N1049 1.350 . S
C1052 C1051 1.434 . S
C1053 C1054 1.369 . S
C1053 C1055 1.419 . S
C1053 H1057 0.930 . S
C1054 C1053 1.369 . S
C1054 C1063 1.429 . S
C1055 C1053 1.419 . S
C1055 C1056 1.363 1_565 S
C1055 H1058 0.929 1_565 S
C1056 C1055 1.363 1_545 S
C1056 C1062 1.428 1_545 S
H1057 C1053 0.930 . S
H1058 C1055 0.929 1_545 S
S1059 N1060 1.613 . S
S1059 N1061 1.610 1_565 S
N1060 S1059 1.613 . S
N1060 C1063 1.350 . S
N1061 S1059 1.610 1_545 S
N1061 C1062 1.351 1_545 S
C1062 C1056 1.428 1_565 S
C1062 N1061 1.351 1_565 S
C1062 C1063 1.434 . S
C1063 C1054 1.429 . S
C1063 N1060 1.350 . S
C1063 C1062 1.434 . S
C1064 C1065 1.369 . S
C1064 C1066 1.419 . S
C1064 H1068 0.930 . S
C1065 C1064 1.369 . S
C1065 C1074 1.429 . S
C1066 C1064 1.419 . S
C1066 C1067 1.363 . S
C1066 H1069 0.929 . S
C1067 C1066 1.363 . S
C1067 C1073 1.428 . S
H1068 C1064 0.930 . S
H1069 C1066 0.929 . S
S1070 N1071 1.613 . S
S1070 N1072 1.610 . S
N1071 S1070 1.613 . S
N1071 C1074 1.350 . S
N1072 S1070 1.610 . S
N1072 C1073 1.351 . S
C1073 C1067 1.428 . S
C1073 N1072 1.351 . S
C1073 C1074 1.434 . S
C1074 C1065 1.429 . S
C1074 N1071 1.350 . S
C1074 C1073 1.434 . S
C1075 C1076 1.369 . S
C1075 C1077 1.419 . S
C1075 H1079 0.930 . S
C1076 C1075 1.369 . S
C1076 C1085 1.429 . S
C1077 C1075 1.419 . S
C1077 C1078 1.363 . S
C1077 H1080 0.929 . S
C1078 C1077 1.363 . S
C1078 C1084 1.428 . S
H1079 C1075 0.930 . S
H1080 C1077 0.929 . S
S1081 N1082 1.613 . S
S1081 N1083 1.610 . S
N1082 S1081 1.613 . S
N1082 C1085 1.350 . S
N1083 S1081 1.610 . S
N1083 C1084 1.351 . S
C1084 C1078 1.428 . S
C1084 N1083 1.351 . S
C1084 C1085 1.434 . S
C1085 C1076 1.429 . S
C1085 N1082 1.350 . S
C1085 C1084 1.434 . S
C1086 C1087 1.369 . S
C1086 C1088 1.419 . S
C1086 H1090 0.930 . S
C1087 C1086 1.369 . S
C1087 C1096 1.429 . S
C1088 C1086 1.419 . S
C1088 C1089 1.363 1_455 S
C1088 H1091 0.929 1_455 S
C1089 C1088 1.363 1_655 S
C1089 C1095 1.428 1_655 S
H1090 C1086 0.930 . S
H1091 C1088 0.929 1_655 S
S1092 N1093 1.613 . S
S1092 N1094 1.610 1_455 S
N1093 S1092 1.613 . S
N1093 C1096 1.350 . S
N1094 S1092 1.610 1_655 S
N1094 C1095 1.351 1_655 S
C1095 C1089 1.428 1_455 S
C1095 N1094 1.351 1_455 S
C1095 C1096 1.434 . S
C1096 C1087 1.429 . S
C1096 N1093 1.350 . S
C1096 C1095 1.434 . S
C1097 C1098 1.369 . S
C1097 C1099 1.419 . S
C1097 H1101 0.930 . S
C1098 C1097 1.369 . S
C1098 C1107 1.429 . S
C1099 C1097 1.419 . S
C1099 C1100 1.363 . S
C1099 H1102 0.929 . S
C1100 C1099 1.363 . S
C1100 C1106 1.428 . S
H1101 C1097 0.930 . S
H1102 C1099 0.929 . S
S1103 N1104 1.613 . S
S1103 N1105 1.610 . S
N1104 S1103 1.613 . S
N1104 C1107 1.350 . S
N1105 S1103 1.610 . S
N1105 C1106 1.351 . S
C1106 C1100 1.428 . S
C1106 N1105 1.351 . S
C1106 C1107 1.434 . S
C1107 C1098 1.429 . S
C1107 N1104 1.350 . S
C1107 C1106 1.434 . S
C1108 C1109 1.369 1_655 S
C1108 C1110 1.419 . S
C1108 H1112 0.930 1_655 S
C1109 C1108 1.369 1_455 S
C1109 C1118 1.429 1_455 S
C1110 C1108 1.419 . S
C1110 C1111 1.363 . S
C1110 H1113 0.929 . S
C1111 C1110 1.363 . S
C1111 C1117 1.428 . S
H1112 C1108 0.930 1_455 S
H1113 C1110 0.929 . S
S1114 N1115 1.613 1_655 S
S1114 N1116 1.610 . S
N1115 S1114 1.613 1_455 S
N1115 C1118 1.350 1_455 S
N1116 S1114 1.610 . S
N1116 C1117 1.351 . S
C1117 C1111 1.428 . S
C1117 N1116 1.351 . S
C1117 C1118 1.434 . S
C1118 C1109 1.429 1_655 S
C1118 N1115 1.350 1_655 S
C1118 C1117 1.434 . S
C1119 C1120 1.369 . S
C1119 C1121 1.419 . S
C1119 H1123 0.930 . S
C1120 C1119 1.369 . S
C1120 C1129 1.429 . S
C1121 C1119 1.419 . S
C1121 C1122 1.363 . S
C1121 H1124 0.929 . S
C1122 C1121 1.363 . S
C1122 C1128 1.428 . S
H1123 C1119 0.930 . S
H1124 C1121 0.929 . S
S1125 N1126 1.613 . S
S1125 N1127 1.610 . S
N1126 S1125 1.613 . S
N1126 C1129 1.350 . S
N1127 S1125 1.610 . S
N1127 C1128 1.351 . S
C1128 C1122 1.428 . S
C1128 N1127 1.351 . S
C1128 C1129 1.434 . S
C1129 C1120 1.429 . S
C1129 N1126 1.350 . S
C1129 C1128 1.434 . S
C1130 C1131 1.369 1_455 S
C1130 C1132 1.419 . S
C1130 H1134 0.930 1_455 S
C1131 C1130 1.369 1_655 S
C1131 C1140 1.429 1_655 S
C1132 C1130 1.419 . S
C1132 C1133 1.363 . S
C1132 H1135 0.929 . S
C1133 C1132 1.363 . S
C1133 C1139 1.428 . S
H1134 C1130 0.930 1_655 S
H1135 C1132 0.929 . S
S1136 N1137 1.613 1_455 S
S1136 N1138 1.610 . S
N1137 S1136 1.613 1_655 S
N1137 C1140 1.350 1_655 S
N1138 S1136 1.610 . S
N1138 C1139 1.351 . S
C1139 C1133 1.428 . S
C1139 N1138 1.351 . S
C1139 C1140 1.434 . S
C1140 C1131 1.429 1_455 S
C1140 N1137 1.350 1_455 S
C1140 C1139 1.434 . S
C1141 C1142 1.369 1_655 S
C1141 C1143 1.419 . S
C1141 H1145 0.930 1_655 S
C1142 C1141 1.369 1_455 S
C1142 C1151 1.429 1_455 S
C1143 C1141 1.419 . S
C1143 C1144 1.363 . S
C1143 H1146 0.929 . S
C1144 C1143 1.363 . S
C1144 C1150 1.428 . S
H1145 C1141 0.930 1_455 S
H1146 C1143 0.929 . S
S1147 N1148 1.613 1_655 S
S1147 N1149 1.610 . S
N1148 S1147 1.613 1_455 S
N1148 C1151 1.350 1_455 S
N1149 S1147 1.610 . S
N1149 C1150 1.351 . S
C1150 C1144 1.428 . S
C1150 N1149 1.351 . S
C1150 C1151 1.434 . S
C1151 C1142 1.429 1_655 S
C1151 N1148 1.350 1_655 S
C1151 C1150 1.434 . S
C1152 C1153 1.369 . S
C1152 C1154 1.419 1_655 S
C1152 H1156 0.930 . S
C1153 C1152 1.369 . S
C1153 C1162 1.429 . S
C1154 C1152 1.419 1_455 S
C1154 C1155 1.363 . S
C1154 H1157 0.929 . S
C1155 C1154 1.363 . S
C1155 C1161 1.428 . S
H1156 C1152 0.930 . S
H1157 C1154 0.929 . S
S1158 N1159 1.613 . S
S1158 N1160 1.610 1_655 S
N1159 S1158 1.613 . S
N1159 C1162 1.350 . S
N1160 S1158 1.610 1_455 S
N1160 C1161 1.351 . S
C1161 C1155 1.428 . S
C1161 N1160 1.351 . S
C1161 C1162 1.434 1_455 S
C1162 C1153 1.429 . S
C1162 N1159 1.350 . S
C1162 C1161 1.434 1_655 S
C1163 C1164 1.369 . S
C1163 C1165 1.419 . S
C1163 H1167 0.930 . S
C1164 C1163 1.369 . S
C1164 C1173 1.429 . S
C1165 C1163 1.419 . S
C1165 C1166 1.363 . S
C1165 H1168 0.929 . S
C1166 C1165 1.363 . S
C1166 C1172 1.428 . S
H1167 C1163 0.930 . S
H1168 C1165 0.929 . S
S1169 N1170 1.613 . S
S1169 N1171 1.610 . S
N1170 S1169 1.613 . S
N1170 C1173 1.350 . S
N1171 S1169 1.610 . S
N1171 C1172 1.351 . S
C1172 C1166 1.428 . S
C1172 N1171 1.351 . S
C1172 C1173 1.434 . S
C1173 C1164 1.429 . S
C1173 N1170 1.350 . S
C1173 C1172 1.434 . S
C1174 C1175 1.369 . S
C1174 C1176 1.419 1_455 S
C1174 H1178 0.930 . S
C1175 C1174 1.369 . S
C1175 C1184 1.429 . S
C1176 C1174 1.419 1_655 S
C1176 C1177 1.363 . S
C1176 H1179 0.929 . S
C1177 C1176 1.363 . S
C1177 C1183 1.428 . S
H1178 C1174 0.930 . S
H1179 C1176 0.929 . S
S1180 N1181 1.596 1_655 S
S1180 N1182 1.625 . S
N1181 S1180 1.596 1_455 S
N1181 C1184 1.350 . S
N1182 S1180 1.625 . S
N1182 C1183 1.351 . S
C1183 C1177 1.428 . S
C1183 N1182 1.351 . S
C1183 C1184 1.434 1_655 S
C1184 C1175 1.429 . S
C1184 N1181 1.350 . S
C1184 C1183 1.434 1_455 S
C1185 C1186 1.369 . S
C1185 C1187 1.419 . S
C1185 H1189 0.930 . S
C1186 C1185 1.369 . S
C1186 C1195 1.429 . S
C1187 C1185 1.419 . S
C1187 C1188 1.363 . S
C1187 H1190 0.929 . S
C1188 C1187 1.363 . S
C1188 C1194 1.428 . S
H1189 C1185 0.930 . S
H1190 C1187 0.929 . S
S1191 N1192 1.613 . S
S1191 N1193 1.610 . S
N1192 S1191 1.613 . S
N1192 C1195 1.350 . S
N1193 S1191 1.610 . S
N1193 C1194 1.351 . S
C1194 C1188 1.428 . S
C1194 N1193 1.351 . S
C1194 C1195 1.434 . S
C1195 C1186 1.429 . S
C1195 N1192 1.350 . S
C1195 C1194 1.434 . S
C1196 C1197 1.369 . S
C1196 C1198 1.419 1_655 S
C1196 H1200 0.930 . S
C1197 C1196 1.369 . S
C1197 C1206 1.429 . S
C1198 C1196 1.419 1_455 S
C1198 C1199 1.363 . S
C1198 H1201 0.929 . S
C1199 C1198 1.363 . S
C1199 C1205 1.428 . S
H1200 C1196 0.930 . S
H1201 C1198 0.929 . S
S1202 N1203 1.613 . S
S1202 N1204 1.610 1_655 S
N1203 S1202 1.613 . S
N1203 C1206 1.350 . S
N1204 S1202 1.610 1_455 S
N1204 C1205 1.351 . S
C1205 C1199 1.428 . S
C1205 N1204 1.351 . S
C1205 C1206 1.434 1_455 S
C1206 C1197 1.429 . S
C1206 N1203 1.350 . S
C1206 C1205 1.434 1_655 S
C1207 C1208 1.369 . S
C1207 C1209 1.419 . S
C1207 H1211 0.930 . S
C1208 C1207 1.369 . S
C1208 C1217 1.429 . S
C1209 C1207 1.419 . S
C1209 C1210 1.363 . S
C1209 H1212 0.929 . S
C1210 C1209 1.363 . S
C1210 C1216 1.428 . S
H1211 C1207 0.930 . S
H1212 C1209 0.929 . S
S1213 N1214 1.613 . S
S1213 N1215 1.610 . S
N1214 S1213 1.613 . S
N1214 C1217 1.350 . S
N1215 S1213 1.610 . S
N1215 C1216 1.351 . S
C1216 C1210 1.428 . S
C1216 N1215 1.351 . S
C1216 C1217 1.434 . S
C1217 C1208 1.429 . S
C1217 N1214 1.350 . S
C1217 C1216 1.434 . S
C1218 C1219 1.369 . S
C1218 C1220 1.419 1_655 S
C1218 H1222 0.930 . S
C1219 C1218 1.369 . S
C1219 C1228 1.429 . S
C1220 C1218 1.419 1_455 S
C1220 C1221 1.363 . S
C1220 H1223 0.929 . S
C1221 C1220 1.363 . S
C1221 C1227 1.428 . S
H1222 C1218 0.930 . S
H1223 C1220 0.929 . S
S1224 N1225 1.613 1_455 S
S1224 N1226 1.610 . S
N1225 S1224 1.613 1_655 S
N1225 C1228 1.350 . S
N1226 S1224 1.610 . S
N1226 C1227 1.351 . S
C1227 C1221 1.428 . S
C1227 N1226 1.351 . S
C1227 C1228 1.434 1_455 S
C1228 C1219 1.429 . S
C1228 N1225 1.350 . S
C1228 C1227 1.434 1_655 S
C1229 C1230 1.369 . S
C1229 C1231 1.419 . S
C1229 H1233 0.930 . S
C1230 C1229 1.369 . S
C1230 C1239 1.429 . S
C1231 C1229 1.419 . S
C1231 C1232 1.363 . S
C1231 H1234 0.929 . S
C1232 C1231 1.363 . S
C1232 C1238 1.428 . S
H1233 C1229 0.930 . S
H1234 C1231 0.929 . S
S1235 N1236 1.613 . S
S1235 N1237 1.610 . S
N1236 S1235 1.613 . S
N1236 C1239 1.350 . S
N1237 S1235 1.610 . S
N1237 C1238 1.351 . S
C1238 C1232 1.428 . S
C1238 N1237 1.351 . S
C1238 C1239 1.434 . S
C1239 C1230 1.429 . S
C1239 N1236 1.350 . S
C1239 C1238 1.434 . S
C1240 C1241 1.369 . S
C1240 C1242 1.419 1_545 S
C1240 H1244 0.930 . S
C1241 C1240 1.369 . S
C1241 C1250 1.429 . S
C1242 C1240 1.419 1_565 S
C1242 C1243 1.363 . S
C1242 H1245 0.929 . S
C1243 C1242 1.363 . S
C1243 C1249 1.428 . S
H1244 C1240 0.930 . S
H1245 C1242 0.929 . S
S1246 N1247 1.613 . S
S1246 N1248 1.610 1_545 S
N1247 S1246 1.613 . S
N1247 C1250 1.350 . S
N1248 S1246 1.610 1_565 S
N1248 C1249 1.351 . S
C1249 C1243 1.428 . S
C1249 N1248 1.351 . S
C1249 C1250 1.434 1_565 S
C1250 C1241 1.429 . S
C1250 N1247 1.350 . S
C1250 C1249 1.434 1_545 S
C1251 C1252 1.369 . S
C1251 C1253 1.419 . S
C1251 H1255 0.930 . S
C1252 C1251 1.369 . S
C1252 C1261 1.429 . S
C1253 C1251 1.419 . S
C1253 C1254 1.363 . S
C1253 H1256 0.929 . S
C1254 C1253 1.363 . S
C1254 C1260 1.428 . S
H1255 C1251 0.930 . S
H1256 C1253 0.929 . S
S1257 N1258 1.613 . S
S1257 N1259 1.610 . S
N1258 S1257 1.613 . S
N1258 C1261 1.350 . S
N1259 S1257 1.610 . S
N1259 C1260 1.351 . S
C1260 C1254 1.428 . S
C1260 N1259 1.351 . S
C1260 C1261 1.434 . S
C1261 C1252 1.429 . S
C1261 N1258 1.350 . S
C1261 C1260 1.434 . S
C1262 C1263 1.369 . S
C1262 C1264 1.419 1_545 S
C1262 H1266 0.930 . S
C1263 C1262 1.369 . S
C1263 C1272 1.429 . S
C1264 C1262 1.419 1_565 S
C1264 C1265 1.363 . S
C1264 H1267 0.929 . S
C1265 C1264 1.363 . S
C1265 C1271 1.428 . S
H1266 C1262 0.930 . S
H1267 C1264 0.929 . S
S1268 N1269 1.613 1_565 S
S1268 N1270 1.610 . S
N1269 S1268 1.613 1_545 S
N1269 C1272 1.350 . S
N1270 S1268 1.610 . S
N1270 C1271 1.351 . S
C1271 C1265 1.428 . S
C1271 N1270 1.351 . S
C1271 C1272 1.434 1_565 S
C1272 C1263 1.429 . S
C1272 N1269 1.350 . S
C1272 C1271 1.434 1_545 S
C1273 C1274 1.369 . S
C1273 C1275 1.419 . S
C1273 H1277 0.930 . S
C1274 C1273 1.369 . S
C1274 C1283 1.429 . S
C1275 C1273 1.419 . S
C1275 C1276 1.363 . S
C1275 H1278 0.929 . S
C1276 C1275 1.363 . S
C1276 C1282 1.428 . S
H1277 C1273 0.930 . S
H1278 C1275 0.929 . S
S1279 N1280 1.613 . S
S1279 N1281 1.610 . S
N1280 S1279 1.613 . S
N1280 C1283 1.350 . S
N1281 S1279 1.610 . S
N1281 C1282 1.351 . S
C1282 C1276 1.428 . S
C1282 N1281 1.351 . S
C1282 C1283 1.434 . S
C1283 C1274 1.429 . S
C1283 N1280 1.350 . S
C1283 C1282 1.434 . S
C1284 C1285 1.369 . S
C1284 C1286 1.419 1_545 S
C1284 H1288 0.930 . S
C1285 C1284 1.369 . S
C1285 C1294 1.429 . S
C1286 C1284 1.419 1_565 S
C1286 C1287 1.363 . S
C1286 H1289 0.929 . S
C1287 C1286 1.363 . S
C1287 C1293 1.428 . S
H1288 C1284 0.930 . S
H1289 C1286 0.929 . S
S1290 N1291 1.613 . S
S1290 N1292 1.610 1_545 S
N1291 S1290 1.613 . S
N1291 C1294 1.350 . S
N1292 S1290 1.610 1_565 S
N1292 C1293 1.351 . S
C1293 C1287 1.428 . S
C1293 N1292 1.351 . S
C1293 C1294 1.434 1_565 S
C1294 C1285 1.429 . S
C1294 N1291 1.350 . S
C1294 C1293 1.434 1_545 S
C1295 C1296 1.369 . S
C1295 C1297 1.419 . S
C1295 H1299 0.930 . S
C1296 C1295 1.369 . S
C1296 C1305 1.429 . S
C1297 C1295 1.419 . S
C1297 C1298 1.363 . S
C1297 H1300 0.929 . S
C1298 C1297 1.363 . S
C1298 C1304 1.428 . S
H1299 C1295 0.930 . S
H1300 C1297 0.929 . S
S1301 N1302 1.613 . S
S1301 N1303 1.610 . S
N1302 S1301 1.613 . S
N1302 C1305 1.350 . S
N1303 S1301 1.610 . S
N1303 C1304 1.351 . S
C1304 C1298 1.428 . S
C1304 N1303 1.351 . S
C1304 C1305 1.434 . S
C1305 C1296 1.429 . S
C1305 N1302 1.350 . S
C1305 C1304 1.434 . S
C1306 C1307 1.369 . S
C1306 C1308 1.419 1_545 S
C1306 H1310 0.930 . S
C1307 C1306 1.369 . S
C1307 C1316 1.429 . S
C1308 C1306 1.419 1_565 S
C1308 C1309 1.363 . S
C1308 H1311 0.929 . S
C1309 C1308 1.363 . S
C1309 C1315 1.428 . S
H1310 C1306 0.930 . S
H1311 C1308 0.929 . S
S1312 N1313 1.613 . S
S1312 N1314 1.610 1_545 S
N1313 S1312 1.613 . S
N1313 C1316 1.350 . S
N1314 S1312 1.610 1_565 S
N1314 C1315 1.351 . S
C1315 C1309 1.428 . S
C1315 N1314 1.351 . S
C1315 C1316 1.434 1_565 S
C1316 C1307 1.429 . S
C1316 N1313 1.350 . S
C1316 C1315 1.434 1_545 S
C1317 C1318 1.369 . S
C1317 C1319 1.419 . S
C1317 H1321 0.930 . S
C1318 C1317 1.369 . S
C1318 C1327 1.429 . S
C1319 C1317 1.419 . S
C1319 C1320 1.363 . S
C1319 H1322 0.929 . S
C1320 C1319 1.363 . S
C1320 C1326 1.428 . S
H1321 C1317 0.930 . S
H1322 C1319 0.929 . S
S1323 N1324 1.613 . S
S1323 N1325 1.610 . S
N1324 S1323 1.613 . S
N1324 C1327 1.350 . S
N1325 S1323 1.610 . S
N1325 C1326 1.351 . S
C1326 C1320 1.428 . S
C1326 N1325 1.351 . S
C1326 C1327 1.434 . S
C1327 C1318 1.429 . S
C1327 N1324 1.350 . S
C1327 C1326 1.434 . S
C1328 C1329 1.369 . S
C1328 C1330 1.419 1_556 S
C1328 H1332 0.930 . S
C1329 C1328 1.369 . S
C1329 C1338 1.429 . S
C1330 C1328 1.419 1_554 S
C1330 C1331 1.363 . S
C1330 H1333 0.929 . S
C1331 C1330 1.363 . S
C1331 C1337 1.428 . S
H1332 C1328 0.930 . S
H1333 C1330 0.929 . S
S1334 N1335 1.613 1_554 S
S1334 N1336 1.610 . S
N1335 S1334 1.613 1_556 S
N1335 C1338 1.350 . S
N1336 S1334 1.610 . S
N1336 C1337 1.351 . S
C1337 C1331 1.428 . S
C1337 N1336 1.351 . S
C1337 C1338 1.434 1_554 S
C1338 C1329 1.429 . S
C1338 N1335 1.350 . S
C1338 C1337 1.434 1_556 S
C1339 C1340 1.369 . S
C1339 C1341 1.419 1_556 S
C1339 H1343 0.930 . S
C1340 C1339 1.369 . S
C1340 C1349 1.429 . S
C1341 C1339 1.419 1_554 S
C1341 C1342 1.363 . S
C1341 H1344 0.929 . S
C1342 C1341 1.363 . S
C1342 C1348 1.428 . S
H1343 C1339 0.930 . S
H1344 C1341 0.929 . S
S1345 N1346 1.613 1_554 S
S1345 N1347 1.610 . S
N1346 S1345 1.613 1_556 S
N1346 C1349 1.350 . S
N1347 S1345 1.610 . S
N1347 C1348 1.351 . S
C1348 C1342 1.428 . S
C1348 N1347 1.351 . S
C1348 C1349 1.434 1_554 S
C1349 C1340 1.429 . S
C1349 N1346 1.350 . S
C1349 C1348 1.434 1_556 S
C1350 C1351 1.369 . S
C1350 C1352 1.419 . S
C1350 H1354 0.930 . S
C1351 C1350 1.369 . S
C1351 C1360 1.429 . S
C1352 C1350 1.419 . S
C1352 C1353 1.363 . S
C1352 H1355 0.929 . S
C1353 C1352 1.363 . S
C1353 C1359 1.428 . S
H1354 C1350 0.930 . S
H1355 C1352 0.929 . S
S1356 N1357 1.613 . S
S1356 N1358 1.610 . S
N1357 S1356 1.613 . S
N1357 C1360 1.350 . S
N1358 S1356 1.610 . S
N1358 C1359 1.351 . S
C1359 C1353 1.428 . S
C1359 N1358 1.351 . S
C1359 C1360 1.434 . S
C1360 C1351 1.429 . S
C1360 N1357 1.350 . S
C1360 C1359 1.434 . S
C1361 C1362 1.369 . S
C1361 C1363 1.419 1_556 S
C1361 H1365 0.930 . S
C1362 C1361 1.369 . S
C1362 C1371 1.429 . S
C1363 C1361 1.419 1_554 S
C1363 C1364 1.363 . S
C1363 H1366 0.929 . S
C1364 C1363 1.363 . S
C1364 C1370 1.428 . S
H1365 C1361 0.930 . S
H1366 C1363 0.929 . S
S1367 N1368 1.613 . S
S1367 N1369 1.610 1_556 S
N1368 S1367 1.613 . S
N1368 C1371 1.350 . S
N1369 S1367 1.610 1_554 S
N1369 C1370 1.351 . S
C1370 C1364 1.428 . S
C1370 N1369 1.351 . S
C1370 C1371 1.434 1_554 S
C1371 C1362 1.429 . S
C1371 N1368 1.350 . S
C1371 C1370 1.434 1_556 S
C1372 C1373 1.369 . S
C1372 C1374 1.419 . S
C1372 H1376 0.930 . S
C1373 C1372 1.369 . S
C1373 C1382 1.429 . S
C1374 C1372 1.419 . S
C1374 C1375 1.363 . S
C1374 H1377 0.929 . S
C1375 C1374 1.363 . S
C1375 C1381 1.428 . S
H1376 C1372 0.930 . S
H1377 C1374 0.929 . S
S1378 N1379 1.613 . S
S1378 N1380 1.610 . S
N1379 S1378 1.613 . S
N1379 C1382 1.350 . S
N1380 S1378 1.610 . S
N1380 C1381 1.351 . S
C1381 C1375 1.428 . S
C1381 N1380 1.351 . S
C1381 C1382 1.434 . S
C1382 C1373 1.429 . S
C1382 N1379 1.350 . S
C1382 C1381 1.434 . S
C1383 C1384 1.369 . S
C1383 C1385 1.419 1_556 S
C1383 H1387 0.930 . S
C1384 C1383 1.369 . S
C1384 C1393 1.429 . S
C1385 C1383 1.419 1_554 S
C1385 C1386 1.363 . S
C1385 H1388 0.929 . S
C1386 C1385 1.363 . S
C1386 C1392 1.428 . S
H1387 C1383 0.930 . S
H1388 C1385 0.929 . S
S1389 N1390 1.613 1_554 S
S1389 N1391 1.610 . S
N1390 S1389 1.613 1_556 S
N1390 C1393 1.350 . S
N1391 S1389 1.610 . S
N1391 C1392 1.351 . S
C1392 C1386 1.428 . S
C1392 N1391 1.351 . S
C1392 C1393 1.434 1_554 S
C1393 C1384 1.429 . S
C1393 N1390 1.350 . S
C1393 C1392 1.434 1_556 S
C1394 C1395 1.369 . S
C1394 C1396 1.419 . S
C1394 H1398 0.930 . S
C1395 C1394 1.369 . S
C1395 C1404 1.429 . S
C1396 C1394 1.419 . S
C1396 C1397 1.363 . S
C1396 H1399 0.929 . S
C1397 C1396 1.363 . S
C1397 C1403 1.428 . S
H1398 C1394 0.930 . S
H1399 C1396 0.929 . S
S1400 N1401 1.613 . S
S1400 N1402 1.610 . S
N1401 S1400 1.613 . S
N1401 C1404 1.350 . S
N1402 S1400 1.610 . S
N1402 C1403 1.351 . S
C1403 C1397 1.428 . S
C1403 N1402 1.351 . S
C1403 C1404 1.434 . S
C1404 C1395 1.429 . S
C1404 N1401 1.350 . S
C1404 C1403 1.434 . S
C1405 C1406 1.369 . S
C1405 C1407 1.419 . S
C1405 H1409 0.930 . S
C1406 C1405 1.369 . S
C1406 C1415 1.429 . S
C1407 C1405 1.419 . S
C1407 C1408 1.363 . S
C1407 H1410 0.929 . S
C1408 C1407 1.363 . S
C1408 C1414 1.428 . S
H1409 C1405 0.930 . S
H1410 C1407 0.929 . S
S1411 N1412 1.613 . S
S1411 N1413 1.610 . S
N1412 S1411 1.613 . S
N1412 C1415 1.350 . S
N1413 S1411 1.610 . S
N1413 C1414 1.351 . S
C1414 C1408 1.428 . S
C1414 N1413 1.351 . S
C1414 C1415 1.434 . S
C1415 C1406 1.429 . S
C1415 N1412 1.350 . S
C1415 C1414 1.434 . S
C1416 C1417 1.369 . S
C1416 C1418 1.419 . S
C1416 H1420 0.930 . S
C1417 C1416 1.369 . S
C1417 C1426 1.429 . S
C1418 C1416 1.419 . S
C1418 C1419 1.363 . S
C1418 H1421 0.929 . S
C1419 C1418 1.363 . S
C1419 C1425 1.428 . S
H1420 C1416 0.930 . S
H1421 C1418 0.929 . S
S1422 N1423 1.613 . S
S1422 N1424 1.610 . S
N1423 S1422 1.613 . S
N1423 C1426 1.350 . S
N1424 S1422 1.610 . S
N1424 C1425 1.351 . S
C1425 C1419 1.428 . S
C1425 N1424 1.351 . S
C1425 C1426 1.434 . S
C1426 C1417 1.429 . S
C1426 N1423 1.350 . S
C1426 C1425 1.434 . S
C1427 C1428 1.369 . S
C1427 C1429 1.419 . S
C1427 H1431 0.930 . S
C1428 C1427 1.369 . S
C1428 C1437 1.429 . S
C1429 C1427 1.419 . S
C1429 C1430 1.363 . S
C1429 H1432 0.929 . S
C1430 C1429 1.363 . S
C1430 C1436 1.428 . S
H1431 C1427 0.930 . S
H1432 C1429 0.929 . S
S1433 N1434 1.613 . S
S1433 N1435 1.610 . S
N1434 S1433 1.613 . S
N1434 C1437 1.350 . S
N1435 S1433 1.610 . S
N1435 C1436 1.351 . S
C1436 C1430 1.428 . S
C1436 N1435 1.351 . S
C1436 C1437 1.434 . S
C1437 C1428 1.429 . S
C1437 N1434 1.350 . S
C1437 C1436 1.434 . S
C1438 C1439 1.369 . S
C1438 C1440 1.419 . S
C1438 H1442 0.930 . S
C1439 C1438 1.369 . S
C1439 C1448 1.429 . S
C1440 C1438 1.419 . S
C1440 C1441 1.363 . S
C1440 H1443 0.929 . S
C1441 C1440 1.363 . S
C1441 C1447 1.428 . S
H1442 C1438 0.930 . S
H1443 C1440 0.929 . S
S1444 N1445 1.613 . S
S1444 N1446 1.610 . S
N1445 S1444 1.613 . S
N1445 C1448 1.350 . S
N1446 S1444 1.610 . S
N1446 C1447 1.351 . S
C1447 C1441 1.428 . S
C1447 N1446 1.351 . S
C1447 C1448 1.434 . S
C1448 C1439 1.429 . S
C1448 N1445 1.350 . S
C1448 C1447 1.434 . S
C1449 C1450 1.369 . S
C1449 C1451 1.419 . S
C1449 H1453 0.930 . S
C1450 C1449 1.369 . S
C1450 C1459 1.429 . S
C1451 C1449 1.419 . S
C1451 C1452 1.363 . S
C1451 H1454 0.929 . S
C1452 C1451 1.363 . S
C1452 C1458 1.428 . S
H1453 C1449 0.930 . S
H1454 C1451 0.929 . S
S1455 N1456 1.613 . S
S1455 N1457 1.610 . S
N1456 S1455 1.613 . S
N1456 C1459 1.350 . S
N1457 S1455 1.610 . S
N1457 C1458 1.351 . S
C1458 C1452 1.428 . S
C1458 N1457 1.351 . S
C1458 C1459 1.434 . S
C1459 C1450 1.429 . S
C1459 N1456 1.350 . S
C1459 C1458 1.434 . S
C1460 C1461 1.369 . S
C1460 C1462 1.419 . S
C1460 H1464 0.930 . S
C1461 C1460 1.369 . S
C1461 C1470 1.429 . S
C1462 C1460 1.419 . S
C1462 C1463 1.363 . S
C1462 H1465 0.929 . S
C1463 C1462 1.363 . S
C1463 C1469 1.428 . S
H1464 C1460 0.930 . S
H1465 C1462 0.929 . S
S1466 N1467 1.613 . S
S1466 N1468 1.610 . S
N1467 S1466 1.613 . S
N1467 C1470 1.350 . S
N1468 S1466 1.610 . S
N1468 C1469 1.351 . S
C1469 C1463 1.428 . S
C1469 N1468 1.351 . S
C1469 C1470 1.434 . S
C1470 C1461 1.429 . S
C1470 N1467 1.350 . S
C1470 C1469 1.434 . S
C1471 C1472 1.369 . S
C1471 C1473 1.419 . S
C1471 H1475 0.930 . S
C1472 C1471 1.369 . S
C1472 C1481 1.429 . S
C1473 C1471 1.419 . S
C1473 C1474 1.363 . S
C1473 H1476 0.929 . S
C1474 C1473 1.363 . S
C1474 C1480 1.428 . S
H1475 C1471 0.930 . S
H1476 C1473 0.929 . S
S1477 N1478 1.613 . S
S1477 N1479 1.610 . S
N1478 S1477 1.613 . S
N1478 C1481 1.350 . S
N1479 S1477 1.610 . S
N1479 C1480 1.351 . S
C1480 C1474 1.428 . S
C1480 N1479 1.351 . S
C1480 C1481 1.434 . S
C1481 C1472 1.429 . S
C1481 N1478 1.350 . S
C1481 C1480 1.434 . S
C1482 C1483 1.369 . S
C1482 C1484 1.419 . S
C1482 H1486 0.930 . S
C1483 C1482 1.369 . S
C1483 C1492 1.429 . S
C1484 C1482 1.419 . S
C1484 C1485 1.363 . S
C1484 H1487 0.929 . S
C1485 C1484 1.363 . S
C1485 C1491 1.428 . S
H1486 C1482 0.930 . S
H1487 C1484 0.929 . S
S1488 N1489 1.613 . S
S1488 N1490 1.610 . S
N1489 S1488 1.613 . S
N1489 C1492 1.350 . S
N1490 S1488 1.610 . S
N1490 C1491 1.351 . S
C1491 C1485 1.428 . S
C1491 N1490 1.351 . S
C1491 C1492 1.434 . S
C1492 C1483 1.429 . S
C1492 N1489 1.350 . S
C1492 C1491 1.434 . S
C1493 C1494 1.369 . S
C1493 C1495 1.419 . S
C1493 H1497 0.930 . S
C1494 C1493 1.369 . S
C1494 C1503 1.429 . S
C1495 C1493 1.419 . S
C1495 C1496 1.363 . S
C1495 H1498 0.929 . S
C1496 C1495 1.363 . S
C1496 C1502 1.428 . S
H1497 C1493 0.930 . S
H1498 C1495 0.929 . S
S1499 N1500 1.613 . S
S1499 N1501 1.610 . S
N1500 S1499 1.613 . S
N1500 C1503 1.350 . S
N1501 S1499 1.610 . S
N1501 C1502 1.351 . S
C1502 C1496 1.428 . S
C1502 N1501 1.351 . S
C1502 C1503 1.434 . S
C1503 C1494 1.429 . S
C1503 N1500 1.350 . S
C1503 C1502 1.434 . S
C1504 C1505 1.369 . S
C1504 C1506 1.419 . S
C1504 H1508 0.930 . S
C1505 C1504 1.369 . S
C1505 C1514 1.429 . S
C1506 C1504 1.419 . S
C1506 C1507 1.363 . S
C1506 H1509 0.929 . S
C1507 C1506 1.363 . S
C1507 C1513 1.428 . S
H1508 C1504 0.930 . S
H1509 C1506 0.929 . S
S1510 N1511 1.613 . S
S1510 N1512 1.610 . S
N1511 S1510 1.613 . S
N1511 C1514 1.350 . S
N1512 S1510 1.610 . S
N1512 C1513 1.351 . S
C1513 C1507 1.428 . S
C1513 N1512 1.351 . S
C1513 C1514 1.434 . S
C1514 C1505 1.429 . S
C1514 N1511 1.350 . S
C1514 C1513 1.434 . S
C1515 C1516 1.369 . S
C1515 C1517 1.419 . S
C1515 H1519 0.930 . S
C1516 C1515 1.369 . S
C1516 C1525 1.429 . S
C1517 C1515 1.419 . S
C1517 C1518 1.363 . S
C1517 H1520 0.929 . S
C1518 C1517 1.363 . S
C1518 C1524 1.428 . S
H1519 C1515 0.930 . S
H1520 C1517 0.929 . S
S1521 N1522 1.613 . S
S1521 N1523 1.610 . S
N1522 S1521 1.613 . S
N1522 C1525 1.350 . S
N1523 S1521 1.610 . S
N1523 C1524 1.351 . S
C1524 C1518 1.428 . S
C1524 N1523 1.351 . S
C1524 C1525 1.434 . S
C1525 C1516 1.429 . S
C1525 N1522 1.350 . S
C1525 C1524 1.434 . S
C1526 C1527 1.369 . S
C1526 C1528 1.419 . S
C1526 H1530 0.930 . S
C1527 C1526 1.369 . S
C1527 C1536 1.429 . S
C1528 C1526 1.419 . S
C1528 C1529 1.363 . S
C1528 H1531 0.929 . S
C1529 C1528 1.363 . S
C1529 C1535 1.428 . S
H1530 C1526 0.930 . S
H1531 C1528 0.929 . S
S1532 N1533 1.613 . S
S1532 N1534 1.610 . S
N1533 S1532 1.613 . S
N1533 C1536 1.350 . S
N1534 S1532 1.610 . S
N1534 C1535 1.351 . S
C1535 C1529 1.428 . S
C1535 N1534 1.351 . S
C1535 C1536 1.434 . S
C1536 C1527 1.429 . S
C1536 N1533 1.350 . S
C1536 C1535 1.434 . S
C1537 C1538 1.369 . S
C1537 C1539 1.419 . S
C1537 H1541 0.930 . S
C1538 C1537 1.369 . S
C1538 C1547 1.429 . S
C1539 C1537 1.419 . S
C1539 C1540 1.363 . S
C1539 H1542 0.929 . S
C1540 C1539 1.363 . S
C1540 C1546 1.428 . S
H1541 C1537 0.930 . S
H1542 C1539 0.929 . S
S1543 N1544 1.613 . S
S1543 N1545 1.610 . S
N1544 S1543 1.613 . S
N1544 C1547 1.350 . S
N1545 S1543 1.610 . S
N1545 C1546 1.351 . S
C1546 C1540 1.428 . S
C1546 N1545 1.351 . S
C1546 C1547 1.434 . S
C1547 C1538 1.429 . S
C1547 N1544 1.350 . S
C1547 C1546 1.434 . S
C1548 C1549 1.369 . S
C1548 C1550 1.419 . S
C1548 H1552 0.930 . S
C1549 C1548 1.369 . S
C1549 C1558 1.429 . S
C1550 C1548 1.419 . S
C1550 C1551 1.363 . S
C1550 H1553 0.929 . S
C1551 C1550 1.363 . S
C1551 C1557 1.428 . S
H1552 C1548 0.930 . S
H1553 C1550 0.929 . S
S1554 N1555 1.613 . S
S1554 N1556 1.610 . S
N1555 S1554 1.613 . S
N1555 C1558 1.350 . S
N1556 S1554 1.610 . S
N1556 C1557 1.351 . S
C1557 C1551 1.428 . S
C1557 N1556 1.351 . S
C1557 C1558 1.434 . S
C1558 C1549 1.429 . S
C1558 N1555 1.350 . S
C1558 C1557 1.434 . S
C1559 C1560 1.369 . S
C1559 C1561 1.419 . S
C1559 H1563 0.930 . S
C1560 C1559 1.369 . S
C1560 C1569 1.429 . S
C1561 C1559 1.419 . S
C1561 C1562 1.363 . S
C1561 H1564 0.929 . S
C1562 C1561 1.363 . S
C1562 C1568 1.428 . S
H1563 C1559 0.930 . S
H1564 C1561 0.929 . S
S1565 N1566 1.613 . S
S1565 N1567 1.610 . S
N1566 S1565 1.613 . S
N1566 C1569 1.350 . S
N1567 S1565 1.610 . S
N1567 C1568 1.351 . S
C1568 C1562 1.428 . S
C1568 N1567 1.351 . S
C1568 C1569 1.434 . S
C1569 C1560 1.429 . S
C1569 N1566 1.350 . S
C1569 C1568 1.434 . S
C1570 C1571 1.369 . S
C1570 C1572 1.419 . S
C1570 H1574 0.930 . S
C1571 C1570 1.369 . S
C1571 C1580 1.429 . S
C1572 C1570 1.419 . S
C1572 C1573 1.363 . S
C1572 H1575 0.929 . S
C1573 C1572 1.363 . S
C1573 C1579 1.428 . S
H1574 C1570 0.930 . S
H1575 C1572 0.929 . S
S1576 N1577 1.613 . S
S1576 N1578 1.610 . S
N1577 S1576 1.613 . S
N1577 C1580 1.350 . S
N1578 S1576 1.610 . S
N1578 C1579 1.351 . S
C1579 C1573 1.428 . S
C1579 N1578 1.351 . S
C1579 C1580 1.434 . S
C1580 C1571 1.429 . S
C1580 N1577 1.350 . S
C1580 C1579 1.434 . S
C1581 C1582 1.369 . S
C1581 C1583 1.419 . S
C1581 H1585 0.930 . S
C1582 C1581 1.369 . S
C1582 C1591 1.429 . S
C1583 C1581 1.419 . S
C1583 C1584 1.363 . S
C1583 H1586 0.929 . S
C1584 C1583 1.363 . S
C1584 C1590 1.428 . S
H1585 C1581 0.930 . S
H1586 C1583 0.929 . S
S1587 N1588 1.613 . S
S1587 N1589 1.610 . S
N1588 S1587 1.613 . S
N1588 C1591 1.350 . S
N1589 S1587 1.610 . S
N1589 C1590 1.351 . S
C1590 C1584 1.428 . S
C1590 N1589 1.351 . S
C1590 C1591 1.434 . S
C1591 C1582 1.429 . S
C1591 N1588 1.350 . S
C1591 C1590 1.434 . S
C1592 C1593 1.369 . S
C1592 C1594 1.419 . S
C1592 H1596 0.930 . S
C1593 C1592 1.369 . S
C1593 C1602 1.429 . S
C1594 C1592 1.419 . S
C1594 C1595 1.363 . S
C1594 H1597 0.929 . S
C1595 C1594 1.363 . S
C1595 C1601 1.428 . S
H1596 C1592 0.930 . S
H1597 C1594 0.929 . S
S1598 N1599 1.613 . S
S1598 N1600 1.610 . S
N1599 S1598 1.613 . S
N1599 C1602 1.350 . S
N1600 S1598 1.610 . S
N1600 C1601 1.351 . S
C1601 C1595 1.428 . S
C1601 N1600 1.351 . S
C1601 C1602 1.434 . S
C1602 C1593 1.429 . S
C1602 N1599 1.350 . S
C1602 C1601 1.434 . S
C1603 C1604 1.369 . S
C1603 C1605 1.419 . S
C1603 H1607 0.930 . S
C1604 C1603 1.369 . S
C1604 C1613 1.429 . S
C1605 C1603 1.419 . S
C1605 C1606 1.363 . S
C1605 H1608 0.929 . S
C1606 C1605 1.363 . S
C1606 C1612 1.428 . S
H1607 C1603 0.930 . S
H1608 C1605 0.929 . S
S1609 N1610 1.613 . S
S1609 N1611 1.610 . S
N1610 S1609 1.613 . S
N1610 C1613 1.350 . S
N1611 S1609 1.610 . S
N1611 C1612 1.351 . S
C1612 C1606 1.428 . S
C1612 N1611 1.351 . S
C1612 C1613 1.434 . S
C1613 C1604 1.429 . S
C1613 N1610 1.350 . S
C1613 C1612 1.434 . S
C1614 C1615 1.369 . S
C1614 C1616 1.419 . S
C1614 H1618 0.930 . S
C1615 C1614 1.369 . S
C1615 C1624 1.429 . S
C1616 C1614 1.419 . S
C1616 C1617 1.363 . S
C1616 H1619 0.929 . S
C1617 C1616 1.363 . S
C1617 C1623 1.428 . S
H1618 C1614 0.930 . S
H1619 C1616 0.929 . S
S1620 N1621 1.613 . S
S1620 N1622 1.610 . S
N1621 S1620 1.613 . S
N1621 C1624 1.350 . S
N1622 S1620 1.610 . S
N1622 C1623 1.351 . S
C1623 C1617 1.428 . S
C1623 N1622 1.351 . S
C1623 C1624 1.434 . S
C1624 C1615 1.429 . S
C1624 N1621 1.350 . S
C1624 C1623 1.434 . S
C1625 C1626 1.369 . S
C1625 C1627 1.419 . S
C1625 H1629 0.930 . S
C1626 C1625 1.369 . S
C1626 C1635 1.429 . S
C1627 C1625 1.419 . S
C1627 C1628 1.363 . S
C1627 H1630 0.929 . S
C1628 C1627 1.363 . S
C1628 C1634 1.428 . S
H1629 C1625 0.930 . S
H1630 C1627 0.929 . S
S1631 N1632 1.613 . S
S1631 N1633 1.610 . S
N1632 S1631 1.613 . S
N1632 C1635 1.350 . S
N1633 S1631 1.610 . S
N1633 C1634 1.351 . S
C1634 C1628 1.428 . S
C1634 N1633 1.351 . S
C1634 C1635 1.434 . S
C1635 C1626 1.429 . S
C1635 N1632 1.350 . S
C1635 C1634 1.434 . S
C1636 C1637 1.369 . S
C1636 C1638 1.419 . S
C1636 H1640 0.930 . S
C1637 C1636 1.369 . S
C1637 C1646 1.429 . S
C1638 C1636 1.419 . S
C1638 C1639 1.363 . S
C1638 H1641 0.929 . S
C1639 C1638 1.363 . S
C1639 C1645 1.428 . S
H1640 C1636 0.930 . S
H1641 C1638 0.929 . S
S1642 N1643 1.613 . S
S1642 N1644 1.610 . S
N1643 S1642 1.613 . S
N1643 C1646 1.350 . S
N1644 S1642 1.610 . S
N1644 C1645 1.351 . S
C1645 C1639 1.428 . S
C1645 N1644 1.351 . S
C1645 C1646 1.434 . S
C1646 C1637 1.429 . S
C1646 N1643 1.350 . S
C1646 C1645 1.434 . S
C1647 C1648 1.369 . S
C1647 C1649 1.419 . S
C1647 H1651 0.930 . S
C1648 C1647 1.369 . S
C1648 C1657 1.429 . S
C1649 C1647 1.419 . S
C1649 C1650 1.363 . S
C1649 H1652 0.929 . S
C1650 C1649 1.363 . S
C1650 C1656 1.428 . S
H1651 C1647 0.930 . S
H1652 C1649 0.929 . S
S1653 N1654 1.613 . S
S1653 N1655 1.610 . S
N1654 S1653 1.613 . S
N1654 C1657 1.350 . S
N1655 S1653 1.610 . S
N1655 C1656 1.351 . S
C1656 C1650 1.428 . S
C1656 N1655 1.351 . S
C1656 C1657 1.434 . S
C1657 C1648 1.429 . S
C1657 N1654 1.350 . S
C1657 C1656 1.434 . S
C1658 C1659 1.369 . S
C1658 C1660 1.419 . S
C1658 H1662 0.930 . S
C1659 C1658 1.369 . S
C1659 C1668 1.429 . S
C1660 C1658 1.419 . S
C1660 C1661 1.363 . S
C1660 H1663 0.929 . S
C1661 C1660 1.363 . S
C1661 C1667 1.428 . S
H1662 C1658 0.930 . S
H1663 C1660 0.929 . S
S1664 N1665 1.613 . S
S1664 N1666 1.610 . S
N1665 S1664 1.613 . S
N1665 C1668 1.350 . S
N1666 S1664 1.610 . S
N1666 C1667 1.351 . S
C1667 C1661 1.428 . S
C1667 N1666 1.351 . S
C1667 C1668 1.434 . S
C1668 C1659 1.429 . S
C1668 N1665 1.350 . S
C1668 C1667 1.434 . S
C1669 C1670 1.369 . S
C1669 C1671 1.419 . S
C1669 H1673 0.930 . S
C1670 C1669 1.369 . S
C1670 C1679 1.429 . S
C1671 C1669 1.419 . S
C1671 C1672 1.363 . S
C1671 H1674 0.929 . S
C1672 C1671 1.363 . S
C1672 C1678 1.428 . S
H1673 C1669 0.930 . S
H1674 C1671 0.929 . S
S1675 N1676 1.613 . S
S1675 N1677 1.610 . S
N1676 S1675 1.613 . S
N1676 C1679 1.350 . S
N1677 S1675 1.610 . S
N1677 C1678 1.351 . S
C1678 C1672 1.428 . S
C1678 N1677 1.351 . S
C1678 C1679 1.434 . S
C1679 C1670 1.429 . S
C1679 N1676 1.350 . S
C1679 C1678 1.434 . S
C625 C265 1.788 . S
C627 C3 1.792 . S
C636 C17 1.776 . S
C638 C231 1.772 . S
C647 C29 1.794 . S
C649 C237 1.788 . S
C658 C257 1.772 . S
C660 C43 1.774 . S
C669 C304 1.786 . S
C671 C56 1.786 . S
C680 C75 1.779 . S
C682 C283 1.778 . S
C691 C88 1.787 . S
C693 C289 1.782 . S
C702 C101 1.773 . S
C704 C218 1.779 . S
C713 C109 1.785 . S
C715 C200 1.791 . S
C724 C121 1.782 . S
C726 C159 1.789 . S
C735 C135 1.788 . S
C737 C172 1.791 . S
C746 C185 1.790 . S
C748 C147 1.783 . S
C757 C322 1.572 . S
C759 C575 1.581 . S
C768 C537 1.565 . S
C770 C335 1.572 . S
C779 C348 1.580 . S
C781 C549 1.581 . S
C790 C569 1.570 . S
C792 C361 1.564 . S
C801 C369 1.585 . S
C803 C614 1.590 . S
C812 C595 1.567 . S
C814 C387 1.569 . S
C823 C395 1.582 . S
C825 C601 1.589 . S
C834 C530 1.575 . S
C836 C407 1.567 . S
C845 C419 1.587 . S
C847 C511 1.575 . S
C856 C473 1.588 . S
C858 C434 1.582 . S
C867 C491 1.580 . S
C869 C447 1.582 . S
C878 C497 1.586 . S
C880 C460 1.589 . S
C889 C341 1.284 . S
C891 C10 1.274 . S
C900 C18 1.279 . S
C902 C354 1.287 . S
C911 C36 1.281 . S
C913 C315 1.289 . S
C922 C44 1.277 . S
C924 C328 1.286 . S
C933 C57 1.275 . S
C935 C394 1.286 . S
C944 C408 1.285 . S
C946 C68 1.276 . S
C955 C368 1.282 . S
C957 C81 1.275 . S
C966 C380 1.291 . S
C968 C94 1.278 . S
C977 C472 1.282 . S
C979 C108 1.273 . S
C988 C122 1.277 . S
C990 C484 1.290 . S
C999 C504 1.280 . S
C1001 C134 1.272 . S
C1010 C148 1.277 . S
C1012 C512 1.288 . S
C1021 C166 1.266 . S
C1023 C426 1.277 . S
C1032 C179 1.277 . S
C1034 C433 1.285 . S
C1043 C446 1.281 . S
C1045 C192 1.270 . S
C1054 C459 1.280 . S
C1056 C199 1.270 . S
C1065 C211 1.281 . S
C1067 C562 1.289 . S
C1076 C224 1.276 . S
C1078 C588 1.289 . S
C1087 C608 1.278 . S
C1089 C244 1.271 . S
C1098 C523 1.289 . S
C1100 C250 1.276 . S
C1109 C264 1.267 . S
C1111 C621 1.276 . S
C1120 C538 1.291 . S
C1122 C276 1.280 . S
C1131 C296 1.271 . S
C1133 C556 1.282 . S
C1142 C303 1.274 . S
C1144 C582 1.283 . S
C1153 C374 1.795 . S
C1155 C5 1.858 . S
C1164 C382 1.787 . S
C1166 C23 1.852 . S
C1175 C400 1.799 . S
C1177 C31 1.859 . S
C1186 C49 1.852 . S
C1188 C406 1.789 . S
C1197 C317 1.790 . S
C1199 C62 1.854 . S
C1208 C330 1.787 . S
C1210 C69 1.853 . S
C1219 C82 1.856 . S
C1221 C343 1.795 . S
C1230 C356 1.793 . S
C1232 C95 1.853 . S
C1241 C107 1.856 . S
C1243 C498 1.797 . S
C1252 C127 1.851 . S
C1254 C510 1.791 . S
C1263 C478 1.801 . S
C1265 C133 1.859 . S
C1274 C153 1.854 . S
C1276 C486 1.793 . S
C1285 C452 1.795 . S
C1287 C161 1.855 . S
C1296 C174 1.858 . S
C1298 C465 1.796 . S
C1307 C187 1.855 . S
C1309 C420 1.795 . S
C1318 C198 1.859 . S
C1320 C439 1.800 . S
C1329 C590 1.792 . S
C1331 C212 1.853 . S
C1340 C225 1.852 . S
C1342 C564 1.788 . S
C1351 C239 1.858 . S
C1353 C576 1.796 . S
C1362 C251 1.854 . S
C1364 C536 1.794 . S
C1373 C550 1.793 . S
C1375 C263 1.855 . S
C1384 C525 1.794 . S
C1386 C277 1.853 . S
C1395 C615 1.800 . S
C1397 C291 1.858 . S
C1406 C302 1.857 . S
C1408 C602 1.799 . S
C1417 C205 1.687 . S
C1419 C4 1.691 . S
C1428 C16 1.684 . S
C1430 C160 1.685 . S
C1439 C173 1.685 . S
C1441 C30 1.693 . S
C1450 C186 1.683 . S
C1452 C42 1.685 . S
C1461 C120 1.682 . S
C1463 C55 1.682 . S
C1472 C70 1.676 . S
C1474 C140 1.688 . S
C1483 C83 1.686 . S
C1485 C146 1.680 . S
C1494 C114 1.682 . S
C1496 C96 1.683 . S
C1505 C213 1.679 . S
C1507 C270 1.686 . S
C1516 C309 1.689 . S
C1518 C226 1.680 . S
C1527 C278 1.677 . S
C1529 C238 1.688 . S
C1538 C252 1.681 . S
C1540 C290 1.686 . S
C1549 C517 1.626 . S
C1551 C316 1.612 . S
C1560 C471 1.619 . S
C1562 C329 1.617 . S
C1571 C342 1.621 . S
C1573 C485 1.616 . S
C1582 C499 1.606 . S
C1584 C355 1.627 . S
C1593 C432 1.607 . S
C1595 C367 1.609 . S
C1604 C381 1.627 . S
C1606 C445 1.611 . S
C1615 C393 1.609 . S
C1617 C458 1.607 . S
C1626 C413 1.617 . S
C1628 C421 1.619 . S
C1637 C524 1.620 . S
C1639 C577 1.615 . S
C1648 C616 1.606 . S
C1650 C543 1.628 . S
C1659 C589 1.630 . S
C1661 C551 1.607 . S
C1670 C603 1.607 . S
C1672 C563 1.628 . S
