# Generated by pormake.
# Topology umb, (4)-cn, num edge types: 1
# Building blocks:
#     Node 0, Type 0, BuildingBlock: ESEHIV_clean_sbu_0, # of connection points: 4
#     Node 1, Type 0, BuildingBlock: ESEHIV_clean_sbu_0, # of connection points: 4
#     Node 2, Type 0, BuildingBlock: ESEHIV_clean_sbu_0, # of connection points: 4
#     Node 3, Type 0, BuildingBlock: ESEHIV_clean_sbu_0, # of connection points: 4
#     Node 4, Type 0, BuildingBlock: ESEHIV_clean_sbu_0, # of connection points: 4
#     Node 5, Type 0, BuildingBlock: ESEHIV_clean_sbu_0, # of connection points: 4
#     Node 6, Type 0, BuildingBlock: ESEHIV_clean_sbu_0, # of connection points: 4
#     Node 7, Type 0, BuildingBlock: ESEHIV_clean_sbu_0, # of connection points: 4
#     Node 8, Type 0, BuildingBlock: ESEHIV_clean_sbu_0, # of connection points: 4
#     Node 9, Type 0, BuildingBlock: ESEHIV_clean_sbu_0, # of connection points: 4
#     Node 10, Type 0, BuildingBlock: ESEHIV_clean_sbu_0, # of connection points: 4
#     Node 11, Type 0, BuildingBlock: ESEHIV_clean_sbu_0, # of connection points: 4
#     Edge 12, Type (0, 0), BuildingBlock: ZUJKAS_clean_linker_0, # of connection points: 2
#     Edge 13, Type (0, 0), BuildingBlock: ZUJKAS_clean_linker_0, # of connection points: 2
#     Edge 14, Type (0, 0), BuildingBlock: ZUJKAS_clean_linker_0, # of connection points: 2
#     Edge 15, Type (0, 0), BuildingBlock: ZUJKAS_clean_linker_0, # of connection points: 2
#     Edge 16, Type (0, 0), BuildingBlock: ZUJKAS_clean_linker_0, # of connection points: 2
#     Edge 17, Type (0, 0), BuildingBlock: ZUJKAS_clean_linker_0, # of connection points: 2
#     Edge 18, Type (0, 0), BuildingBlock: ZUJKAS_clean_linker_0, # of connection points: 2
#     Edge 19, Type (0, 0), BuildingBlock: ZUJKAS_clean_linker_0, # of connection points: 2
#     Edge 20, Type (0, 0), BuildingBlock: ZUJKAS_clean_linker_0, # of connection points: 2
#     Edge 21, Type (0, 0), BuildingBlock: ZUJKAS_clean_linker_0, # of connection points: 2
#     Edge 22, Type (0, 0), BuildingBlock: ZUJKAS_clean_linker_0, # of connection points: 2
#     Edge 23, Type (0, 0), BuildingBlock: ZUJKAS_clean_linker_0, # of connection points: 2
#     Edge 24, Type (0, 0), BuildingBlock: ZUJKAS_clean_linker_0, # of connection points: 2
#     Edge 25, Type (0, 0), BuildingBlock: ZUJKAS_clean_linker_0, # of connection points: 2
#     Edge 26, Type (0, 0), BuildingBlock: ZUJKAS_clean_linker_0, # of connection points: 2
#     Edge 27, Type (0, 0), BuildingBlock: ZUJKAS_clean_linker_0, # of connection points: 2
#     Edge 28, Type (0, 0), BuildingBlock: ZUJKAS_clean_linker_0, # of connection points: 2
#     Edge 29, Type (0, 0), BuildingBlock: ZUJKAS_clean_linker_0, # of connection points: 2
#     Edge 30, Type (0, 0), BuildingBlock: ZUJKAS_clean_linker_0, # of connection points: 2
#     Edge 31, Type (0, 0), BuildingBlock: ZUJKAS_clean_linker_0, # of connection points: 2
#     Edge 32, Type (0, 0), BuildingBlock: ZUJKAS_clean_linker_0, # of connection points: 2
#     Edge 33, Type (0, 0), BuildingBlock: ZUJKAS_clean_linker_0, # of connection points: 2
#     Edge 34, Type (0, 0), BuildingBlock: ZUJKAS_clean_linker_0, # of connection points: 2
#     Edge 35, Type (0, 0), BuildingBlock: ZUJKAS_clean_linker_0, # of connection points: 2
# Relax obj value: 0.166
# Max RMSD: 0.156
# Mean RMSD: 0.143
data_MOF--net-umb--node1-ESEHIV_clean_sbu_0--edge1-ZUJKAS_clean_linker_0
_symmetry_space_group_name_H-M    P1
_symmetry_Int_Tables_number       1
_symmetry_cell_setting            triclinic
loop_
_symmetry_equiv_pos_as_xyz
'x, y, z'
_cell_length_a     64.674797
_cell_length_b     68.38335
_cell_length_c     52.001554
_cell_angle_alpha  89.842673
_cell_angle_beta   90.164578
_cell_angle_gamma 118.21552
loop_
_atom_site_label
_atom_site_type_symbol
_atom_site_fract_x
_atom_site_fract_y
_atom_site_fract_z
_atom_type_partial_charge
Cu0 Cu 0.56245 0.18073 0.34847 0.0
N1 N 0.59025 0.18088 0.33832 0.0
N2 N 0.62743 0.19461 0.32528 0.0
C3 C 0.60802 0.19726 0.3254 0.0
C4 C 0.62154 0.17568 0.33841 0.0
C5 C 0.59868 0.16732 0.3465 0.0
O6 O 0.55691 0.20074 0.32591 0.0
C7 C 0.56547 0.17492 0.40124 0.0
O8 O 0.56048 0.15502 0.39308 0.0
H9 H 0.60747 0.21189 0.3183 0.0
H10 H 0.58957 0.15323 0.3591 0.0
N11 N 0.53724 0.15215 0.34476 0.0
N12 N 0.51686 0.11525 0.34113 0.0
C13 C 0.53829 0.13319 0.34076 0.0
C14 C 0.51427 0.146 0.34736 0.0
C15 C 0.50161 0.12321 0.34504 0.0
C16 C 0.56897 0.22182 0.32606 0.0
O17 O 0.58542 0.23139 0.34354 0.0
H18 H 0.5544 0.13244 0.33783 0.0
H19 H 0.5073 0.15727 0.35135 0.0
O20 O 0.56628 0.18921 0.38486 0.0
H21 H 0.63339 0.16917 0.34334 0.0
H22 H 0.4828 0.11324 0.34704 0.0
Cu23 Cu 0.36421 0.54627 0.6781 0.0
N24 N 0.39344 0.57103 0.67365 0.0
N25 N 0.41986 0.60674 0.6686 0.0
C26 C 0.39748 0.59089 0.66441 0.0
C27 C 0.43024 0.59615 0.68072 0.0
C28 C 0.4139 0.57424 0.68394 0.0
O29 O 0.34318 0.54579 0.65105 0.0
C30 C 0.36433 0.54227 0.73133 0.0
O31 O 0.37715 0.53279 0.72509 0.0
H32 H 0.38382 0.59377 0.65613 0.0
H33 H 0.41635 0.5619 0.69462 0.0
N34 N 0.36725 0.52068 0.67395 0.0
N35 N 0.38413 0.4993 0.66698 0.0
C36 C 0.38625 0.51982 0.66495 0.0
C37 C 0.35227 0.49985 0.68142 0.0
C38 C 0.36275 0.48662 0.67732 0.0
C39 C 0.33294 0.55767 0.64896 0.0
O40 O 0.33492 0.57146 0.66751 0.0
H41 H 0.40187 0.53424 0.65836 0.0
H42 H 0.33541 0.49491 0.6903 0.0
O43 O 0.35521 0.54851 0.71343 0.0
H44 H 0.44784 0.60391 0.68854 0.0
H45 H 0.3555 0.46924 0.6823 0.0
Cu46 Cu 0.84017 0.39818 1.00287 0.0
N47 N 0.83989 0.39003 0.03726 0.0
N48 N 0.83617 0.39123 0.07997 0.0
C49 C 0.83448 0.39953 0.05694 0.0
C50 C 0.84284 0.37572 0.07448 0.0
C51 C 0.84519 0.37506 0.04811 0.0
O52 O 0.8723 0.41864 0.99336 0.0
C53 C 0.81305 0.42033 0.9857 0.0
O54 O 0.81664 0.41772 0.9614 0.0
H55 H 0.82932 0.41232 0.0543 0.0
H56 H 0.85063 0.36462 0.03768 0.0
N57 N 0.82788 0.3732 0.98129 0.0
N58 N 0.80717 0.34772 0.95147 0.0
C59 C 0.81008 0.36616 0.96411 0.0
C60 C 0.83646 0.35879 0.97937 0.0
C61 C 0.82375 0.34308 0.96114 0.0
C62 C 0.88348 0.43667 1.00579 0.0
O63 O 0.87262 0.44134 1.02417 0.0
H64 H 0.79945 0.37428 0.96098 0.0
H65 H 0.8513 0.3599 0.99016 0.0
O66 O 0.82134 0.41319 1.00334 0.0
H67 H 0.8463 0.36589 0.08849 0.0
H68 H 0.82696 0.32965 0.95496 0.0
Cu69 Cu 0.43621 0.82443 0.33862 0.0
N70 N 0.40573 0.8195 0.3325 0.0
N71 N 0.3666 0.80102 0.33207 0.0
C72 C 0.38663 0.79948 0.33166 0.0
C73 C 0.37337 0.82295 0.33229 0.0
C74 C 0.39757 0.83433 0.33262 0.0
O75 O 0.44164 0.80422 0.31659 0.0
C76 C 0.424 0.80562 0.38885 0.0
O77 O 0.4074 0.78862 0.37673 0.0
H78 H 0.38745 0.78405 0.33216 0.0
H79 H 0.40831 0.85207 0.33446 0.0
N80 N 0.45688 0.85325 0.32825 0.0
N81 N 0.47332 0.88998 0.32304 0.0
C82 C 0.45857 0.87238 0.33733 0.0
C83 C 0.47128 0.85895 0.30782 0.0
C84 C 0.48143 0.88159 0.30452 0.0
C85 C 0.44149 0.78604 0.3223 0.0
O86 O 0.43828 0.77916 0.34627 0.0
H87 H 0.44824 0.87322 0.35322 0.0
H88 H 0.47355 0.84732 0.29561 0.0
O89 O 0.43929 0.82178 0.37577 0.0
H90 H 0.36175 0.83019 0.33409 0.0
H91 H 0.49345 0.89108 0.28935 0.0
Cu92 Cu 0.63957 0.46168 0.68015 0.0
N93 N 0.61722 0.43303 0.67136 0.0
N94 N 0.5919 0.39697 0.67447 0.0
C95 C 0.60671 0.41551 0.68722 0.0
C96 C 0.59285 0.40316 0.64965 0.0
C97 C 0.60851 0.42547 0.64781 0.0
O98 O 0.66671 0.47057 0.65794 0.0
C99 C 0.65088 0.44991 0.72918 0.0
O100 O 0.65709 0.43717 0.71601 0.0
H101 H 0.60995 0.41627 0.70768 0.0
H102 H 0.6136 0.43542 0.63047 0.0
N103 N 0.62646 0.48001 0.67288 0.0
N104 N 0.59925 0.49072 0.66615 0.0
C105 C 0.60346 0.47395 0.67332 0.0
C106 C 0.63732 0.50132 0.66523 0.0
C107 C 0.62054 0.50803 0.66111 0.0
C108 C 0.67432 0.45727 0.65116 0.0
O109 O 0.66564 0.43761 0.662 0.0
H110 H 0.59014 0.45755 0.67892 0.0
H111 H 0.65606 0.51116 0.66253 0.0
O112 O 0.645 0.46276 0.71714 0.0
H113 H 0.58368 0.39218 0.63383 0.0
H114 H 0.62375 0.52422 0.65441 0.0
Cu115 Cu 0.17549 0.61584 0.99672 0.0
N116 N 0.18427 0.62634 0.03022 0.0
N117 N 0.19137 0.62595 0.07233 0.0
C118 C 0.18043 0.6137 0.05141 0.0
C119 C 0.20245 0.64717 0.06393 0.0
C120 C 0.19805 0.64734 0.03795 0.0
O121 O 0.14183 0.59634 0.99613 0.0
C122 C 0.18665 0.58081 0.99769 0.0
O123 O 0.16651 0.57029 1.00979 0.0
H124 H 0.17063 0.59578 0.05121 0.0
H125 H 0.20499 0.66168 1.02541 0.0
N126 N 0.1835 0.63953 0.97387 0.0
N127 N 0.20082 0.66459 0.94254 0.0
C128 C 0.19991 0.64684 0.95519 0.0
C129 C 0.17366 0.65298 0.97301 0.0
C130 C 0.18427 0.66841 0.95378 0.0
C131 C 0.13139 0.5827 0.97801 0.0
O132 O 0.14368 0.5817 0.95847 0.0
H133 H 0.21111 0.63944 0.95121 0.0
H134 H 0.15968 0.65158 0.9855 0.0
O135 O 0.19282 0.6001 0.98871 0.0
H136 H 0.21316 0.66153 0.07562 0.0
H137 H 0.17981 0.68123 0.94829 0.0
Cu138 Cu 0.82184 0.46348 0.38206 0.0
N139 N 0.81353 0.43408 0.3895 0.0
N140 N 0.80172 0.39793 0.38457 0.0
C141 C 0.80752 0.41738 0.37265 0.0
C142 C 0.80456 0.40272 0.40993 0.0
C143 C 0.81195 0.42507 0.41289 0.0
O144 O 0.80436 0.47298 0.40464 0.0
C145 C 0.80012 0.45383 0.33232 0.0
O146 O 0.78083 0.44056 0.34468 0.0
H147 H 0.80662 0.41932 0.35212 0.0
H148 H 0.8155 0.43409 0.43081 0.0
N149 N 0.85339 0.47991 0.39013 0.0
N150 N 0.89069 0.48801 0.39655 0.0
C151 C 0.86931 0.47262 0.38845 0.0
C152 C 0.86494 0.50063 0.39955 0.0
C153 C 0.88805 0.50573 0.40348 0.0
C154 C 0.78284 0.46063 0.41006 0.0
O155 O 0.77097 0.44183 0.39768 0.0
H156 H 0.86522 0.45635 0.38127 0.0
H157 H 0.85703 0.51114 0.40356 0.0
O158 O 0.81849 0.46626 0.34515 0.0
H159 H 0.80115 0.3909 0.42532 0.0
H160 H 0.90168 0.52109 0.41131 0.0
Cu161 Cu 0.38375 0.82999 0.70876 0.0
N162 N 0.40823 0.82377 0.71579 0.0
N163 N 0.43059 0.80719 0.71152 0.0
C164 C 0.41332 0.81046 0.70121 0.0
C165 C 0.43686 0.81926 0.73339 0.0
C166 C 0.42295 0.82947 0.736 0.0
O167 O 0.35694 0.81056 0.73002 0.0
C168 C 0.39497 0.83784 0.65708 0.0
O169 O 0.41416 0.85345 0.66757 0.0
H170 H 0.40403 0.80294 0.68362 0.0
H171 H 0.42304 0.83973 0.75184 0.0
N172 N 0.39281 0.85948 0.71706 0.0
N173 N 0.41472 0.89607 0.72242 0.0
C174 C 0.41463 0.8768 0.71656 0.0
C175 C 0.37864 0.868 0.72373 0.0
C176 C 0.3921 0.89058 0.72709 0.0
C177 C 0.35078 0.79002 0.73296 0.0
O178 O 0.36146 0.78121 0.71955 0.0
H179 H 0.4301 0.87529 0.71185 0.0
H180 H 0.35977 0.8585 0.72551 0.0
O181 O 0.37801 0.82539 0.67175 0.0
H182 H 0.44978 0.81988 0.7471 0.0
H183 H 0.38563 0.90212 0.73177 0.0
Cu184 Cu 0.55774 0.39056 0.05874 0.0
N185 N 0.54895 0.38278 1.02443 0.0
N186 N 0.55318 0.38376 0.9816 0.0
C187 C 0.5641 0.39008 1.00459 0.0
C188 C 0.53012 0.37194 0.9873 0.0
C189 C 0.52757 0.37142 1.01372 0.0
O190 O 0.54743 0.41187 0.06901 0.0
C191 C 0.60694 0.41545 0.07418 0.0
O192 O 0.60071 0.41901 0.09698 0.0
H193 H 0.58274 0.40072 1.00703 0.0
H194 H 0.51124 0.36385 1.02426 0.0
N195 N 0.545 0.36559 0.08038 0.0
N196 N 0.54043 0.34089 0.11129 0.0
C197 C 0.55548 0.36014 0.09958 0.0
C198 C 0.52262 0.34937 0.08008 0.0
C199 C 0.51976 0.33416 0.09897 0.0
C200 C 0.55367 0.42944 0.05574 0.0
O201 O 0.56788 0.43316 0.03619 0.0
H202 H 0.57377 0.37004 0.10474 0.0
H203 H 0.50919 0.34879 0.06722 0.0
O204 O 0.59146 0.40397 0.05769 0.0
H205 H 0.51602 0.3644 0.97344 0.0
H206 H 0.50349 0.31954 0.10365 0.0
Cu207 Cu 0.175 0.54027 0.37972 0.0
N208 N 0.1682 0.56359 0.38492 0.0
N209 N 0.17524 0.59883 0.38702 0.0
C210 C 0.18432 0.58473 0.38936 0.0
C211 C 0.15243 0.58598 0.38098 0.0
C212 C 0.14819 0.56429 0.37952 0.0
O213 O 0.19588 0.54079 0.40698 0.0
C214 C 0.17212 0.54025 0.32686 0.0
O215 O 0.1499 0.53194 0.33317 0.0
H216 H 0.20278 0.58983 0.39195 0.0
H217 H 0.13209 0.55034 0.37304 0.0
N218 N 0.14759 0.51323 0.38236 0.0
N219 N 0.10982 0.4894 0.38914 0.0
C220 C 0.12763 0.50983 0.39397 0.0
C221 C 0.14255 0.49405 0.37043 0.0
C222 C 0.11917 0.47934 0.37443 0.0
C223 C 0.2179 0.55332 0.4088 0.0
O224 O 0.2292 0.567 0.38992 0.0
H225 H 0.12581 0.52262 0.40431 0.0
H226 H 0.15465 0.49144 0.35844 0.0
O227 O 0.18723 0.54448 0.34469 0.0
H228 H 0.14001 0.59192 0.37651 0.0
H229 H 0.10959 0.46294 0.36615 0.0
Cu230 Cu 0.62228 0.18344 0.71942 0.0
N231 N 0.59464 0.18338 0.72999 0.0
N232 N 0.56943 0.1961 0.7391 0.0
C233 C 0.59215 0.20127 0.73598 0.0
C234 C 0.55713 0.174 0.73541 0.0
C235 C 0.57273 0.16619 0.72993 0.0
O236 O 0.64828 0.20436 0.74083 0.0
C237 C 0.62121 0.20296 0.6709 0.0
O238 O 0.6152 0.21553 0.68466 0.0
H239 H 0.60654 0.21801 0.73603 0.0
H240 H 0.5682 0.14931 0.725 0.0
N241 N 0.619 0.15524 0.72571 0.0
N242 N 0.60313 0.11829 0.72768 0.0
C243 C 0.60249 0.13576 0.71623 0.0
C244 C 0.6308 0.14999 0.74336 0.0
C245 C 0.62106 0.12722 0.74464 0.0
C246 C 0.65771 0.22546 0.74017 0.0
O247 O 0.65117 0.2351 0.72242 0.0
H248 H 0.58944 0.13442 0.70228 0.0
H249 H 0.64487 0.16188 0.75523 0.0
O250 O 0.62612 0.18911 0.68228 0.0
H251 H 0.53819 0.16437 0.73548 0.0
H252 H 0.62636 0.11798 0.75759 0.0
Cu253 Cu 0.44047 0.60833 0.06184 0.0
N254 N 0.44305 0.61989 0.02873 0.0
N255 N 0.43568 0.62095 0.98681 0.0
C256 C 0.43333 0.60793 1.00736 0.0
C257 C 0.44746 0.64198 0.99566 0.0
C258 C 0.45196 0.64126 1.02153 0.0
O259 O 0.45388 0.5882 0.06204 0.0
C260 C 0.39374 0.5742 0.05986 0.0
O261 O 0.40289 0.56333 0.04767 0.0
H262 H 0.42382 0.59 1.00717 0.0
H263 H 0.46048 0.65528 0.03437 0.0
N264 N 0.45617 0.63107 0.08569 0.0
N265 N 0.46374 0.65517 0.11795 0.0
C266 C 0.44696 0.63941 0.10304 0.0
C267 C 0.47947 0.64193 0.08964 0.0
C268 C 0.4842 0.65676 0.10948 0.0
C269 C 0.45102 0.575 0.08058 0.0
O270 O 0.43837 0.5747 0.10045 0.0
H271 H 0.42832 0.63367 0.10504 0.0
H272 H 0.49212 0.63908 0.07893 0.0
O273 O 0.40729 0.59317 0.0693 0.0
H274 H 0.45229 0.65682 0.98435 0.0
H275 H 0.50143 0.66797 0.11694 0.0
H276 H 0.56785 0.14811 0.43858 0.0
H277 H 0.57978 0.1571 0.48329 0.0
H278 H 0.58946 0.22332 0.47163 0.0
H279 H 0.57752 0.21447 0.42635 0.0
H280 H 0.62479 0.19379 0.50113 0.0
H281 H 0.54596 0.19804 0.53707 0.0
H282 H 0.54538 0.18362 0.5078 0.0
H283 H 0.5599 0.21336 0.50837 0.0
C284 C 0.57236 0.1646 0.44541 0.0
C285 C 0.57166 0.18057 0.42878 0.0
C286 C 0.57926 0.1697 0.47103 0.0
C287 C 0.58543 0.19082 0.48083 0.0
C288 C 0.58457 0.20683 0.46449 0.0
H289 H 0.61693 0.2338 0.64104 0.0
H290 H 0.61081 0.23292 0.59458 0.0
C291 C 0.57777 0.20177 0.43863 0.0
C292 C 0.59309 0.19583 0.50809 0.0
H293 H 0.57514 0.20318 0.5673 0.0
C294 C 0.61405 0.19603 0.51561 0.0
C295 C 0.5791 0.19881 0.52689 0.0
C296 C 0.55624 0.19837 0.51984 0.0
C297 C 0.62133 0.19895 0.54147 0.0
C298 C 0.6069 0.2011 0.56049 0.0
C299 C 0.5862 0.20145 0.55281 0.0
C300 C 0.61253 0.20243 0.5885 0.0
C301 C 0.64454 0.19993 0.54804 0.0
C302 C 0.61573 0.18568 0.60071 0.0
C303 C 0.61952 0.18626 0.62732 0.0
C304 C 0.61978 0.20343 0.64238 0.0
C305 C 0.61685 0.22032 0.63006 0.0
C306 C 0.61329 0.21983 0.60346 0.0
H307 H 0.6566 0.2054 0.53127 0.0
H308 H 0.65328 0.21141 0.5643 0.0
H309 H 0.64153 0.18312 0.5536 0.0
H310 H 0.61462 0.17175 0.5898 0.0
H311 H 0.62142 0.17285 0.6362 0.0
H312 H 0.35928 0.57722 0.75068 0.0
H313 H 0.36818 0.5917 0.79487 0.0
H314 H 0.37861 0.53624 0.81726 0.0
H315 H 0.37015 0.52196 0.77341 0.0
H316 H 0.35084 0.57371 0.84607 0.0
H317 H 0.4428 0.59132 0.83022 0.0
H318 H 0.42208 0.58502 0.80421 0.0
H319 H 0.42161 0.56307 0.82373 0.0
C320 C 0.36288 0.56786 0.76521 0.0
C321 C 0.36426 0.54858 0.75854 0.0
C322 C 0.36807 0.57619 0.7904 0.0
C323 C 0.37461 0.56531 0.80917 0.0
C324 C 0.37412 0.54516 0.80295 0.0
H325 H 0.42776 0.58266 0.96342 0.0
H326 H 0.41179 0.5702 0.92034 0.0
C327 C 0.36916 0.53696 0.77789 0.0
C328 C 0.38369 0.57558 0.83467 0.0
H329 H 0.4321 0.59389 0.87331 0.0
C330 C 0.36866 0.57836 0.85198 0.0
C331 C 0.40702 0.58178 0.84227 0.0
C332 C 0.42441 0.58037 0.82407 0.0
C333 C 0.37611 0.5863 0.8771 0.0
C334 C 0.3992 0.59177 0.8849 0.0
C335 C 0.41435 0.58953 0.86735 0.0
C336 C 0.4079 0.59919 0.91142 0.0
C337 C 0.35904 0.58809 0.89541 0.0
C338 C 0.41121 0.61975 0.92065 0.0
C339 C 0.42041 0.62696 0.94531 0.0
C340 C 0.42643 0.61373 0.96124 0.0
C341 C 0.42305 0.59315 0.95185 0.0
C342 C 0.41401 0.58602 0.92718 0.0
H343 H 0.34075 0.57952 0.88798 0.0
H344 H 0.35958 0.58091 0.91443 0.0
H345 H 0.36407 0.60585 0.89834 0.0
H346 H 0.40695 0.63032 0.90866 0.0
H347 H 0.42258 0.64279 0.95199 0.0
H348 H 0.83819 0.4766 0.30105 0.0
H349 H 0.84324 0.46756 0.25683 0.0
H350 H 0.77212 0.41426 0.25632 0.0
H351 H 0.76678 0.42335 0.30036 0.0
H352 H 0.84031 0.42799 0.24146 0.0
H353 H 0.77591 0.44422 0.18747 0.0
H354 H 0.78541 0.45452 0.21963 0.0
H355 H 0.76358 0.42616 0.21464 0.0
C356 C 0.82343 0.46325 0.29137 0.0
C357 C 0.80205 0.45073 0.30432 0.0
C358 C 0.82639 0.45805 0.2661 0.0
C359 C 0.80803 0.44032 0.25315 0.0
C360 C 0.78642 0.42827 0.2657 0.0
H361 H 0.82381 0.36696 0.12413 0.0
H362 H 0.81695 0.37867 0.16629 0.0
C363 C 0.78341 0.43348 0.29096 0.0
C364 C 0.81209 0.43341 0.22736 0.0
H365 H 0.79242 0.4245 0.16523 0.0
C366 C 0.8299 0.42732 0.22476 0.0
C367 C 0.79861 0.43267 0.20554 0.0
C368 C 0.77995 0.43993 0.20681 0.0
C369 C 0.83444 0.42029 0.20107 0.0
C370 C 0.82053 0.41894 0.17941 0.0
C371 C 0.80291 0.4253 0.1819 0.0
C372 C 0.82444 0.41158 0.15383 0.0
C373 C 0.85439 0.41476 0.19934 0.0
C374 C 0.83047 0.42599 0.13267 0.0
C375 C 0.83439 0.41935 0.10857 0.0
C376 C 0.83223 0.39805 0.10499 0.0
C377 C 0.826 0.38357 0.12622 0.0
C378 C 0.82205 0.39024 0.15036 0.0
H379 H 0.86689 0.42194 0.21562 0.0
H380 H 0.84721 0.39647 0.19992 0.0
H381 H 0.86417 0.42096 0.18104 0.0
H382 H 0.83244 0.44254 0.13488 0.0
H383 H 0.83946 0.43109 0.09284 0.0
H384 H 0.39275 0.77448 0.4217 0.0
H385 H 0.38669 0.77891 0.4672 0.0
H386 H 0.44551 0.84485 0.46601 0.0
H387 H 0.45153 0.84071 0.42027 0.0
H388 H 0.41515 0.78818 0.51055 0.0
H389 H 0.39187 0.85533 0.49193 0.0
H390 H 0.39377 0.83827 0.46659 0.0
H391 H 0.41999 0.86086 0.47949 0.0
C392 C 0.40459 0.78988 0.43111 0.0
C393 C 0.42253 0.80733 0.4172 0.0
C394 C 0.40106 0.79238 0.45717 0.0
C395 C 0.41531 0.81237 0.46989 0.0
C396 C 0.43395 0.82944 0.45643 0.0
H397 H 0.42551 0.86536 0.6214 0.0
H398 H 0.4284 0.85785 0.57616 0.0
C399 C 0.4375 0.82698 0.43032 0.0
C400 C 0.41025 0.81549 0.49704 0.0
H401 H 0.39624 0.84786 0.53564 0.0
C402 C 0.41087 0.80114 0.51604 0.0
C403 C 0.40446 0.83228 0.50414 0.0
C404 C 0.40224 0.84745 0.48447 0.0
C405 C 0.40666 0.80361 0.54206 0.0
C406 C 0.4013 0.82066 0.5492 0.0
C407 C 0.40031 0.83477 0.53013 0.0
C408 C 0.39829 0.82516 0.57652 0.0
C409 C 0.40877 0.78845 0.56182 0.0
C410 C 0.37997 0.80947 0.59172 0.0
C411 C 0.37818 0.81376 0.61779 0.0
C412 C 0.39472 0.8338 0.62903 0.0
C413 C 0.41253 0.84969 0.61345 0.0
C414 C 0.41423 0.84545 0.58752 0.0
H415 H 0.41753 0.77918 0.55391 0.0
H416 H 0.41882 0.79803 0.57885 0.0
H417 H 0.39098 0.7762 0.56838 0.0
H418 H 0.36721 0.79384 0.5835 0.0
H419 H 0.36428 0.80117 0.62927 0.0
H420 H 0.53261 0.3853 0.93638 0.0
H421 H 0.55144 0.39676 0.89437 0.0
H422 H 0.61728 0.40783 0.92743 0.0
H423 H 0.5986 0.39613 0.96941 0.0
H424 H 0.62101 0.44307 0.8964 0.0
H425 H 0.57296 0.36221 0.84631 0.0
H426 H 0.55438 0.37152 0.86178 0.0
H427 H 0.57329 0.36469 0.88089 0.0
C428 C 0.55099 0.38983 0.93473 0.0
C429 C 0.564 0.38974 0.95646 0.0
C430 C 0.56177 0.39642 0.91064 0.0
C431 C 0.58573 0.40296 0.90769 0.0
C432 C 0.59876 0.40287 0.92925 0.0
H433 H 0.65564 0.41967 0.75993 0.0
H434 H 0.64206 0.4095 0.80421 0.0
C435 C 0.58803 0.39624 0.95331 0.0
C436 C 0.59737 0.41042 0.88228 0.0
H437 H 0.59634 0.39356 0.82029 0.0
C438 C 0.6157 0.43223 0.87977 0.0
C439 C 0.59065 0.39618 0.86068 0.0
C440 C 0.5719 0.37228 0.86249 0.0
C441 C 0.6271 0.44032 0.85612 0.0
C442 C 0.61981 0.4263 0.8343 0.0
C443 C 0.60184 0.40435 0.83697 0.0
C444 C 0.63024 0.43409 0.8084 0.0
C445 C 0.64702 0.46372 0.85477 0.0
C446 C 0.62844 0.45154 0.7961 0.0
C447 C 0.63629 0.45748 0.77079 0.0
C448 C 0.64594 0.44597 0.75715 0.0
C449 C 0.6484 0.42897 0.76983 0.0
C450 C 0.64054 0.42305 0.79514 0.0
H451 H 0.65472 0.46995 0.87406 0.0
H452 H 0.66111 0.46478 0.84177 0.0
H453 H 0.64031 0.47482 0.84713 0.0
H454 H 0.62017 0.46005 0.80573 0.0
H455 H 0.63395 0.47054 0.76162 0.0
H456 H 0.21407 0.57316 0.30819 0.0
H457 H 0.2214 0.58875 0.26439 0.0
H458 H 0.15262 0.53859 0.24108 0.0
H459 H 0.14509 0.52327 0.28451 0.0
H460 H 0.21906 0.57089 0.21318 0.0
H461 H 0.1513 0.59752 0.22849 0.0
H462 H 0.16358 0.58882 0.25455 0.0
H463 H 0.1409 0.56852 0.23453 0.0
C464 C 0.20076 0.56521 0.29354 0.0
C465 C 0.1789 0.54716 0.29984 0.0
C466 C 0.20491 0.57417 0.26858 0.0
C467 C 0.18731 0.56514 0.24967 0.0
C468 C 0.16623 0.54614 0.25552 0.0
H469 H 0.15804 0.58855 0.09485 0.0
H470 H 0.15916 0.57466 0.13795 0.0
C471 C 0.16201 0.53734 0.28034 0.0
C472 C 0.19004 0.57614 0.22429 0.0
H473 H 0.1644 0.59896 0.18542 0.0
C474 C 0.20732 0.57727 0.20716 0.0
C475 C 0.17478 0.58459 0.21655 0.0
C476 C 0.15674 0.58504 0.23456 0.0
C477 C 0.20905 0.58577 0.1821 0.0
C478 C 0.19321 0.59347 0.17414 0.0
C479 C 0.17638 0.59287 0.1915 0.0
C480 C 0.19327 0.60166 0.14765 0.0
C481 C 0.22722 0.58578 0.16398 0.0
C482 C 0.21199 0.62157 0.13887 0.0
C483 C 0.21136 0.62961 0.11422 0.0
C484 C 0.19201 0.61784 0.09786 0.0
C485 C 0.17332 0.59788 0.10678 0.0
C486 C 0.17389 0.58996 0.13146 0.0
H487 H 0.23536 0.5758 0.17154 0.0
H488 H 0.21927 0.57912 0.14491 0.0
H489 H 0.24128 0.60308 0.16112 0.0
H490 H 0.22696 0.63103 0.15119 0.0
H491 H 0.22614 0.64491 0.10791 0.0
H492 H 0.80701 0.38808 0.3352 0.0
H493 H 0.78383 0.3525 0.31346 0.0
H494 H 0.74971 0.3232 0.38504 0.0
H495 H 0.77221 0.35862 0.4068 0.0
H496 H 0.77218 0.30155 0.33237 0.0
H497 H 0.70117 0.3254 0.3249 0.0
H498 H 0.73187 0.34564 0.32629 0.0
H499 H 0.71691 0.33133 0.35493 0.0
C500 C 0.79475 0.37402 0.34639 0.0
C501 C 0.79122 0.37633 0.37271 0.0
C502 C 0.78173 0.35369 0.33396 0.0
C503 C 0.76513 0.33541 0.34772 0.0
C504 C 0.76259 0.33722 0.37422 0.0
H505 H 0.66734 0.20387 0.35107 0.0
H506 H 0.7044 0.23771 0.34759 0.0
C507 C 0.77553 0.35749 0.38664 0.0
C508 C 0.74827 0.31518 0.33427 0.0
H509 H 0.69034 0.28752 0.31876 0.0
C510 C 0.75437 0.29851 0.32882 0.0
C511 C 0.72532 0.31161 0.32917 0.0
C512 C 0.71832 0.32945 0.33391 0.0
C513 C 0.73742 0.2776 0.32001 0.0
C514 C 0.71385 0.27331 0.31727 0.0
C515 C 0.70835 0.29068 0.32088 0.0
C516 C 0.69401 0.25056 0.31468 0.0
C517 C 0.74484 0.2602 0.3144 0.0
C518 C 0.67581 0.24619 0.29708 0.0
C519 C 0.65432 0.22691 0.29939 0.0
C520 C 0.65073 0.21164 0.31922 0.0
C521 C 0.66962 0.21514 0.33538 0.0
C522 C 0.69097 0.23451 0.33328 0.0
H523 H 0.76305 0.26796 0.30682 0.0
H524 H 0.74463 0.25149 0.33252 0.0
H525 H 0.73297 0.24779 0.30028 0.0
H526 H 0.67772 0.25836 0.28262 0.0
H527 H 0.64008 0.22447 0.28657 0.0
H528 H 0.47244 0.80806 0.72111 0.0
H529 H 0.48431 0.78052 0.70721 0.0
H530 H 0.4181 0.7441 0.66797 0.0
H531 H 0.40614 0.77097 0.68178 0.0
H532 H 0.4621 0.73662 0.71955 0.0
H533 H 0.46293 0.74425 0.61411 0.0
H534 H 0.46403 0.76571 0.63515 0.0
H535 H 0.43629 0.74236 0.62668 0.0
C536 C 0.46054 0.79427 0.70934 0.0
C537 C 0.43842 0.79189 0.7024 0.0
C538 C 0.46742 0.77868 0.70125 0.0
C539 C 0.45236 0.76061 0.68594 0.0
C540 C 0.4304 0.75835 0.67892 0.0
H541 H 0.39554 0.62965 0.66004 0.0
H542 H 0.41092 0.66953 0.66076 0.0
C543 C 0.42354 0.77379 0.68696 0.0
C544 C 0.45784 0.74246 0.67966 0.0
H545 H 0.45133 0.70674 0.63086 0.0
C546 C 0.46065 0.73047 0.70007 0.0
C547 C 0.45612 0.73457 0.6542 0.0
C548 C 0.45494 0.74759 0.63131 0.0
C549 C 0.45921 0.70959 0.69597 0.0
C550 C 0.45497 0.7007 0.67084 0.0
C551 C 0.45438 0.71358 0.65014 0.0
C552 C 0.44697 0.67687 0.66659 0.0
C553 C 0.46012 0.69631 0.71877 0.0
C554 C 0.46235 0.66785 0.6688 0.0
C555 C 0.45362 0.64483 0.66816 0.0
C556 C 0.42933 0.63047 0.66559 0.0
C557 C 0.41427 0.63985 0.66201 0.0
C558 C 0.42304 0.66279 0.66246 0.0
H559 H 0.46284 0.70541 0.73718 0.0
H560 H 0.44352 0.68043 0.72003 0.0
H561 H 0.47466 0.69221 0.71624 0.0
H562 H 0.48094 0.67857 0.67177 0.0
H563 H 0.46588 0.63836 0.67034 0.0
H564 H 0.64569 0.43141 0.10588 0.0
H565 H 0.68628 0.44219 0.09313 0.0
H566 H 0.66458 0.42952 1.01373 0.0
H567 H 0.62454 0.41909 1.02608 0.0
H568 H 0.6987 0.41342 0.06908 0.0
H569 H 0.72484 0.48768 1.00808 0.0
H570 H 0.70037 0.47789 0.03007 0.0
H571 H 0.69685 0.46549 0.99877 0.0
C572 C 0.64974 0.43138 0.08569 0.0
C573 C 0.63189 0.42424 0.06704 0.0
C574 C 0.67288 0.43755 0.07843 0.0
C575 C 0.6785 0.43701 0.05243 0.0
C576 C 0.66081 0.43062 0.03381 0.0
H577 H 0.77671 0.42048 0.95842 0.0
H578 H 0.74625 0.42862 0.97564 0.0
C579 C 0.63781 0.42437 0.041 0.0
C580 C 0.70193 0.44021 0.04474 0.0
H581 H 0.74562 0.4666 1.00069 0.0
C582 C 0.70926 0.42538 0.05456 0.0
C583 C 0.71552 0.45569 1.02559 0.0
C584 C 0.7091 0.47273 1.01521 0.0
C585 C 0.72911 0.42476 0.04478 0.0
C586 C 0.74224 0.4397 1.02497 0.0
C587 C 0.73543 0.45511 1.01577 0.0
C588 C 0.76251 0.43878 1.01309 0.0
C589 C 0.73519 0.40737 0.05486 0.0
C590 C 0.78217 0.44283 1.02806 0.0
C591 C 0.79934 0.43804 1.0184 0.0
C592 C 0.79734 0.42939 0.99346 0.0
C593 C 0.77867 0.42712 0.97769 0.0
C594 C 0.76129 0.43173 0.98751 0.0
H595 H 0.72052 0.39421 0.06594 0.0
H596 H 0.7398 0.39944 0.03884 0.0
H597 H 0.75062 0.41534 0.06783 0.0
H598 H 0.78363 0.44868 0.04766 0.0
H599 H 0.81374 0.44026 0.03088 0.0
H600 H 0.35539 0.76328 0.35855 0.0
H601 H 0.31624 0.73355 0.36806 0.0
H602 H 0.28568 0.76867 0.32737 0.0
H603 H 0.32522 0.7987 0.31736 0.0
H604 H 0.27729 0.74017 0.39419 0.0
H605 H 0.25764 0.70254 0.29619 0.0
H606 H 0.28754 0.71915 0.30695 0.0
H607 H 0.26975 0.73215 0.29995 0.0
C608 C 0.34043 0.76461 0.35122 0.0
C609 C 0.34339 0.78322 0.33688 0.0
C610 C 0.31807 0.74771 0.35695 0.0
C611 C 0.29821 0.749 0.3484 0.0
C612 C 0.30091 0.76747 0.33408 0.0
H613 H 0.16504 0.62679 0.35897 0.0
H614 H 0.1907 0.66637 0.35189 0.0
C615 C 0.32341 0.78454 0.32842 0.0
C616 C 0.27483 0.73057 0.35444 0.0
H617 H 0.23286 0.68173 0.3298 0.0
C618 C 0.26721 0.72757 0.38006 0.0
C619 C 0.26175 0.71438 0.33587 0.0
C620 C 0.26944 0.71701 0.30814 0.0
C621 C 0.24743 0.70809 0.3879 0.0
C622 C 0.23543 0.69106 0.36972 0.0
C623 C 0.24213 0.69478 0.34374 0.0
C624 C 0.21802 0.66834 0.37753 0.0
C625 C 0.24004 0.70571 0.4157 0.0
C626 C 0.22465 0.65642 0.3947 0.0
C627 C 0.20996 0.63386 0.39894 0.0
C628 C 0.18847 0.62268 0.38583 0.0
C629 C 0.18135 0.63489 0.36958 0.0
C630 C 0.19605 0.65751 0.3654 0.0
H631 H 0.24462 0.72213 0.42428 0.0
H632 H 0.22088 0.6947 0.41788 0.0
H633 H 0.24951 0.69849 0.42675 0.0
H634 H 0.24174 0.66426 0.40384 0.0
H635 H 0.21582 0.62498 0.41177 0.0
H636 H 0.6062 0.38084 0.71428 0.0
H637 H 0.58875 0.3425 0.72881 0.0
H638 H 0.53338 0.32413 0.67273 0.0
H639 H 0.55111 0.36274 0.65773 0.0
H640 H 0.54564 0.31194 0.74795 0.0
H641 H 0.56319 0.28594 0.65244 0.0
H642 H 0.5748 0.31473 0.66109 0.0
H643 H 0.54439 0.2986 0.65253 0.0
C644 C 0.59008 0.36879 0.70532 0.0
C645 C 0.58014 0.37477 0.68467 0.0
C646 C 0.58011 0.34684 0.71365 0.0
C647 C 0.55998 0.33042 0.7016 0.0
C648 C 0.54921 0.33649 0.68192 0.0
H649 H 0.52994 0.19229 0.71641 0.0
H650 H 0.51952 0.22208 0.71065 0.0
C651 C 0.55934 0.3585 0.67337 0.0
C652 C 0.55186 0.30689 0.70842 0.0
H653 H 0.55133 0.25996 0.6856 0.0
C654 C 0.54641 0.30038 0.73422 0.0
C655 C 0.5528 0.29182 0.69044 0.0
C656 C 0.55925 0.29806 0.66261 0.0
C657 C 0.54324 0.27968 0.74282 0.0
C658 C 0.54573 0.26528 0.72517 0.0
C659 C 0.5494 0.27108 0.69906 0.0
C660 C 0.54833 0.24589 0.73361 0.0
C661 C 0.53814 0.27375 0.77086 0.0
C662 C 0.5676 0.24928 0.74898 0.0
C663 C 0.57361 0.23234 0.75223 0.0
C664 C 0.5605 0.21176 0.7401 0.0
C665 C 0.54024 0.2079 0.7262 0.0
C666 C 0.5343 0.22491 0.72283 0.0
H667 H 0.52893 0.28228 0.77961 0.0
H668 H 0.52728 0.25556 0.77354 0.0
H669 H 0.55494 0.27919 0.78134 0.0
H670 H 0.57896 0.26547 0.75705 0.0
H671 H 0.5892 0.23567 0.76317 0.0
H672 H 0.18018 0.54097 1.01696 0.0
H673 H 0.2106 0.53031 1.02638 0.0
H674 H 0.26268 0.59139 0.99242 0.0
H675 H 0.23243 0.60188 0.9823 0.0
H676 H 0.27071 0.5566 0.9815 0.0
H677 H 0.25496 0.55968 0.08622 0.0
H678 H 0.23024 0.54016 0.06791 0.0
H679 H 0.24179 0.5694 0.06222 0.0
C680 C 0.19804 0.55194 1.01106 0.0
C681 C 0.20394 0.57244 0.99922 0.0
C682 C 0.21542 0.54588 1.01664 0.0
C683 C 0.23898 0.56033 1.01072 0.0
C684 C 0.24463 0.58006 0.99733 0.0
H685 H 0.37021 0.59594 0.07676 0.0
H686 H 0.33022 0.58767 0.06595 0.0
C687 C 0.22728 0.58604 0.99157 0.0
C688 C 0.25814 0.55596 1.0199 0.0
H689 H 0.28635 0.55352 0.07447 0.0
C690 C 0.27399 0.55559 1.0018 0.0
C691 C 0.26244 0.55489 0.04645 0.0
C692 C 0.24661 0.55622 0.06689 0.0
C693 C 0.29458 0.55515 1.00951 0.0
C694 C 0.29909 0.55447 0.03608 0.0
C695 C 0.28272 0.55385 0.05414 0.0
C696 C 0.322 0.55731 0.04552 0.0
C697 C 0.31199 0.55682 0.98919 0.0
C698 C 0.33033 0.54247 0.03861 0.0
C699 C 0.35335 0.54726 0.04461 0.0
C700 C 0.36829 0.56686 0.05783 0.0
C701 C 0.35925 0.58078 0.06641 0.0
C702 C 0.33635 0.57606 0.06025 0.0
H703 H 0.30795 0.56162 0.97014 0.0
H704 H 0.33009 0.56919 0.99476 0.0
H705 H 0.31151 0.54048 0.98706 0.0
H706 H 0.31932 0.5276 1.0278 0.0
H707 H 0.3597 0.53608 0.03794 0.0
H708 H 0.54393 0.09768 0.35849 0.0
H709 H 0.53568 0.05904 0.35568 0.0
H710 H 0.46996 0.04213 0.31777 0.0
H711 H 0.47801 0.0809 0.32101 0.0
H712 H 0.46507 0.01176 0.35389 0.0
H713 H 0.5413 0.02841 0.29218 0.0
H714 H 0.54973 0.04402 0.3215 0.0
H715 H 0.53207 0.04906 0.2983 0.0
C716 C 0.52784 0.08579 0.34931 0.0
C717 C 0.51175 0.09237 0.33963 0.0
C718 C 0.52315 0.0637 0.34769 0.0
C719 C 0.50247 0.04777 0.33596 0.0
C720 C 0.48612 0.05418 0.32674 0.0
H721 H 0.48154 0.91924 0.28434 0.0
H722 H 0.48767 0.9572 0.28793 0.0
C723 C 0.49069 0.07629 0.32862 0.0
C724 C 0.49787 0.02443 0.33358 0.0
H725 H 0.52126 0.99237 0.31083 0.0
C726 C 0.47727 0.00748 0.34434 0.0
C727 C 0.51365 0.01882 0.32081 0.0
C728 C 0.5353 0.03601 0.30731 0.0
C729 C 0.4722 0.98513 0.34305 0.0
C730 C 0.48849 0.97965 0.33124 0.0
C731 C 0.50891 0.99658 0.32016 0.0
C732 C 0.48446 0.95643 0.32939 0.0
C733 C 0.44921 0.96762 0.35384 0.0
C734 C 0.48087 0.94338 0.35152 0.0
C735 C 0.47718 0.92156 0.34947 0.0
C736 C 0.47748 0.91255 0.3253 0.0
C737 C 0.4815 0.92578 0.30325 0.0
C738 C 0.48489 0.94746 0.30527 0.0
H739 H 0.43608 0.97372 0.35519 0.0
H740 H 0.44175 0.9524 0.34184 0.0
H741 H 0.45217 0.96314 0.37353 0.0
H742 H 0.48112 0.95012 0.37041 0.0
H743 H 0.47443 0.91183 0.3668 0.0
H744 H 0.39139 0.46865 0.69306 0.0
H745 H 0.42618 0.46331 0.69053 0.0
H746 H 0.45405 0.51229 0.63014 0.0
H747 H 0.41907 0.51727 0.63208 0.0
H748 H 0.46135 0.47486 0.62256 0.0
H749 H 0.4889 0.5123 0.71969 0.0
H750 H 0.46017 0.4887 0.71792 0.0
H751 H 0.46594 0.51394 0.70157 0.0
C752 C 0.40464 0.47787 0.67882 0.0
C753 C 0.40265 0.49361 0.66298 0.0
C754 C 0.4246 0.47496 0.67758 0.0
C755 C 0.44283 0.48774 0.66052 0.0
C756 C 0.44023 0.50241 0.64359 0.0
H757 H 0.59001 0.52536 0.67007 0.0
H758 H 0.55158 0.52396 0.66735 0.0
C759 C 0.42032 0.50534 0.64483 0.0
C760 C 0.4653 0.48703 0.66136 0.0
H761 H 0.51317 0.5 0.69931 0.0
C762 C 0.47266 0.48023 0.63935 0.0
C763 C 0.48013 0.49445 0.68317 0.0
C764 C 0.47357 0.50296 0.70689 0.0
C765 C 0.49453 0.48058 0.63861 0.0
C766 C 0.50918 0.48767 0.66058 0.0
C767 C 0.50181 0.49448 0.68256 0.0
C768 C 0.53243 0.48849 0.66112 0.0
C769 C 0.50202 0.47393 0.61414 0.0
C770 C 0.53433 0.46901 0.6586 0.0
C771 C 0.55626 0.46978 0.65997 0.0
C772 C 0.5767 0.49004 0.6641 0.0
C773 C 0.57469 0.50955 0.66657 0.0
C774 C 0.55274 0.50875 0.66518 0.0
H775 H 0.49154 0.47424 0.59733 0.0
H776 H 0.52088 0.48508 0.61015 0.0
H777 H 0.49947 0.45678 0.61625 0.0
H778 H 0.51882 0.45316 0.65587 0.0
H779 H 0.55717 0.45449 0.65768 0.0
H780 H 0.91258 0.47473 0.03134 0.0
H781 H 0.95446 0.49883 1.02434 0.0
H782 H 0.95366 0.45688 0.9622 0.0
H783 H 0.9116 0.43261 0.96898 0.0
H784 H 0.99032 0.48552 1.02672 0.0
H785 H 0.98645 0.52049 0.93121 0.0
H786 H 0.9612 0.50724 0.952 0.0
H787 H 0.9709 0.49074 0.93398 0.0
C788 C 0.92121 0.47067 1.01603 0.0
C789 C 0.90869 0.45173 1.00068 0.0
C790 C 0.94518 0.48447 1.0121 0.0
C791 C 0.95712 0.47977 0.99261 0.0
C792 C 0.9447 0.46099 0.9771 0.0
H793 H 0.1042 0.54866 0.94543 0.0
H794 H 0.06213 0.52305 0.94886 0.0
C795 C 0.92068 0.44709 0.98108 0.0
C796 C 0.98274 0.49414 0.98932 0.0
H797 H 0.02411 0.53068 0.94814 0.0
C798 C 0.99773 0.4954 1.00955 0.0
C799 C 0.99235 0.50687 0.96683 0.0
C800 C 0.97695 0.50649 0.94478 0.0
C801 C 0.02211 0.50903 1.00789 0.0
C802 C 0.03171 0.52219 0.98563 0.0
C803 C 0.01673 0.52066 0.96522 0.0
C804 C 0.05719 0.53793 0.98339 0.0
C805 C 0.03735 0.5089 0.02985 0.0
C806 C 0.06833 0.55507 1.00137 0.0
C807 C 0.09238 0.56964 0.99956 0.0
C808 C 0.10576 0.56757 0.9795 0.0
C809 C 0.09445 0.5507 0.96114 0.0
C810 C 0.07039 0.53605 0.96306 0.0
H811 H 0.02843 0.49345 0.04146 0.0
H812 H 0.05425 0.51048 1.02275 0.0
H813 H 0.0412 0.52312 0.04274 0.0
H814 H 0.05841 0.55721 1.01684 0.0
H815 H 0.10046 0.58255 1.0139 0.0
H816 H 0.0914 0.50151 0.42879 0.0
H817 H 0.0513 0.49585 0.43195 0.0
H818 H 0.03249 0.45568 0.3634 0.0
H819 H 0.07279 0.46193 0.35961 0.0
H820 H 0.02214 0.48983 0.36008 0.0
H821 H 0.98814 0.44468 0.45177 0.0
H822 H 0.0161 0.46893 0.45541 0.0
H823 H 0.0137 0.44623 0.43595 0.0
C824 C 0.07864 0.49118 0.41462 0.0
C825 C 0.08536 0.48236 0.39382 0.0
C826 C 0.05565 0.48775 0.41661 0.0
C827 C 0.03887 0.47521 0.39801 0.0
C828 C 0.04517 0.46533 0.37803 0.0
H829 H 0.89358 0.44985 0.40111 0.0
H830 H 0.92919 0.44591 0.40085 0.0
C831 C 0.06819 0.46878 0.376 0.0
C832 C 0.01577 0.47477 0.39767 0.0
H833 H 0.96763 0.46323 0.4343 0.0
C834 C 0.01008 0.48376 0.37618 0.0
C835 C 1.00004 0.46674 0.41862 0.0
C836 C 0.00467 0.4559 0.44163 0.0
C837 C 0.98939 0.48556 0.37538 0.0
C838 C 0.97423 0.47856 0.39686 0.0
C839 C 0.97949 0.46888 0.41801 0.0
C840 C 0.95277 0.48111 0.39763 0.0
C841 C 0.98393 0.49489 0.35151 0.0
C842 C 0.9543 0.50226 0.39634 0.0
C843 C 0.93397 0.50457 0.39625 0.0
C844 C 0.91174 0.48577 0.39757 0.0
C845 C 0.91036 0.46465 0.39952 0.0
C846 C 0.9307 0.46236 0.3996 0.0
H847 H 0.99379 0.49386 0.33456 0.0
H848 H 0.96487 0.48596 0.34702 0.0
H849 H 0.98903 0.51263 0.35472 0.0
H850 H 0.97124 0.51697 0.39527 0.0
H851 H 0.93566 0.52104 0.39463 0.0
H852 H 0.5899 0.08616 0.76408 0.0
H853 H 0.5593 0.04772 0.76048 0.0
H854 H 0.54672 0.05932 0.68181 0.0
H855 H 0.57735 0.098 0.68535 0.0
H856 H 0.50639 0.03851 0.7088 0.0
H857 H 0.55933 0.99537 0.72475 0.0
H858 H 0.56306 0.01459 0.75 0.0
H859 H 0.57245 0.02469 0.71787 0.0
C860 C 0.58101 0.08047 0.74583 0.0
C861 C 0.58618 0.09517 0.72495 0.0
C862 C 0.56348 0.05843 0.74379 0.0
C863 C 0.55096 0.0505 0.72075 0.0
C864 C 0.55623 0.06505 0.69976 0.0
H865 H 0.454 0.91056 0.69332 0.0
H866 H 0.48702 0.94813 0.69183 0.0
C867 C 0.57368 0.08716 0.70183 0.0
C868 C 0.53145 0.02744 0.71912 0.0
H869 H 0.51769 0.97322 0.72882 0.0
C870 C 0.5089 0.02422 0.71295 0.0
C871 C 0.53476 0.00876 0.72419 0.0
C872 C 0.55875 0.01097 0.72931 0.0
C873 C 0.48948 0.0029 0.71245 0.0
C874 C 0.4926 0.98434 0.71887 0.0
C875 C 0.51526 0.98749 0.72427 0.0
C876 C 0.4726 0.9615 0.72005 0.0
C877 C 0.46587 1.00049 0.70476 0.0
C878 C 0.4537 0.95642 0.73675 0.0
C879 C 0.43478 0.93496 0.73761 0.0
C880 C 0.43453 0.91806 0.72205 0.0
C881 C 0.45374 0.9231 0.70576 0.0
C882 C 0.47258 0.9446 0.70478 0.0
H883 H 0.46768 0.01495 0.6933 0.0
H884 H 0.45568 0.98517 0.69334 0.0
H885 H 0.45573 0.9995 0.72233 0.0
H886 H 0.45362 0.96904 0.74922 0.0
H887 H 0.42046 0.93153 0.75067 0.0
H888 H 0.44557 0.54239 0.11487 0.0
H889 H 0.46353 0.5179 0.11326 0.0
H890 H 0.49865 0.54915 0.04276 0.0
H891 H 0.48086 0.57372 0.04419 0.0
H892 H 0.4599 0.48788 0.07264 0.0
H893 H 0.55193 0.55225 0.08991 0.0
H894 H 0.5271 0.5566 0.09711 0.0
H895 H 0.53713 0.5586 0.06454 0.0
C896 C 0.45718 0.54413 0.09906 0.0
C897 C 0.46184 0.5601 0.07971 0.0
C898 C 0.4674 0.53009 0.09817 0.0
C899 C 0.48266 0.53192 0.07809 0.0
C900 C 0.48724 0.54772 0.05867 0.0
H901 H 0.56147 0.46663 0.02882 0.0
H902 H 0.54389 0.49087 0.03577 0.0
C903 C 0.47694 0.56168 0.05946 0.0
C904 C 0.4934 0.51696 0.07705 0.0
H905 H 0.54609 0.51671 0.077 0.0
C906 C 0.47872 0.49411 0.07381 0.0
C907 C 0.51796 0.52518 0.07854 0.0
C908 C 0.5345 0.54947 0.08294 0.0
C909 C 0.488 0.47931 0.07118 0.0
C910 C 0.51261 0.48756 0.07242 0.0
C911 C 0.52724 0.51039 0.07606 0.0
C912 C 0.5236 0.47294 0.06894 0.0
C913 C 0.4714 0.45513 0.06615 0.0
C914 C 0.51841 0.45499 0.08558 0.0
C915 C 0.52839 0.44098 0.08159 0.0
C916 C 0.54393 0.4448 0.06101 0.0
C917 C 0.54955 0.46315 0.04482 0.0
C918 C 0.53951 0.47706 0.04877 0.0
H919 H 0.45398 0.45254 0.05937 0.0
H920 H 0.47872 0.44827 0.05156 0.0
H921 H 0.46871 0.44559 0.08424 0.0
H922 H 0.5066 0.45177 0.10163 0.0
H923 H 0.52379 0.42709 0.09451 0.0
H924 H 0.5372 0.20733 0.28633 0.0
H925 H 0.53376 0.22917 0.2508 0.0
H926 H 0.59012 0.28856 0.28295 0.0
H927 H 0.59387 0.26684 0.31843 0.0
H928 H 0.52436 0.26506 0.2513 0.0
H929 H 0.61202 0.28975 0.20893 0.0
H930 H 0.59887 0.26792 0.23257 0.0
H931 H 0.6124 0.29651 0.24234 0.0
C932 C 0.54886 0.22505 0.28592 0.0
C933 C 0.56589 0.23527 0.30526 0.0
C934 C 0.54687 0.23752 0.26555 0.0
C935 C 0.56195 0.26047 0.2639 0.0
C936 C 0.57862 0.27082 0.28346 0.0
H937 H 0.57375 0.3595 0.14868 0.0
H938 H 0.57948 0.34074 0.18621 0.0
C939 C 0.58061 0.25837 0.30388 0.0
C940 C 0.55998 0.2735 0.24185 0.0
H941 H 0.58984 0.30546 0.19023 0.0
C942 C 0.53868 0.27387 0.23795 0.0
C943 C 0.5787 0.28512 0.22445 0.0
C944 C 0.60174 0.28472 0.22706 0.0
C945 C 0.5356 0.28558 0.21729 0.0
C946 C 0.55417 0.29689 0.19963 0.0
C947 C 0.57561 0.2968 0.20373 0.0
C948 C 0.55136 0.30827 0.17639 0.0
C949 C 0.51255 0.28596 0.21478 0.0
C950 C 0.53411 0.29621 0.15797 0.0
C951 C 0.53085 0.30685 0.13653 0.0
C952 C 0.54486 0.32985 0.1328 0.0
C953 C 0.56269 0.3418 0.15084 0.0
C954 C 0.56592 0.3311 0.17238 0.0
H955 H 0.50304 0.28226 0.2334 0.0
H956 H 0.51521 0.30234 0.20775 0.0
H957 H 0.50122 0.27311 0.20077 0.0
H958 H 0.52311 0.27848 0.16018 0.0
H959 H 0.51735 0.29697 0.1228 0.0
H960 H 0.26534 0.5743 0.41856 0.0
H961 H 0.2851 0.57457 0.45899 0.0
H962 H 0.21799 0.53355 0.49438 0.0
H963 H 0.19826 0.53262 0.45407 0.0
H964 H 0.2829 0.58989 0.50577 0.0
H965 H 0.25216 0.49958 0.513 0.0
H966 H 0.24869 0.51237 0.48408 0.0
H967 H 0.22826 0.50582 0.51024 0.0
C968 C 0.25482 0.56516 0.43489 0.0
C969 C 0.23022 0.55326 0.43295 0.0
C970 C 0.26613 0.56537 0.45802 0.0
C971 C 0.25308 0.55373 0.47966 0.0
C972 C 0.22852 0.54213 0.47782 0.0
H973 H 0.30503 0.57707 0.63847 0.0
H974 H 0.28544 0.57634 0.59778 0.0
C975 C 0.21724 0.54172 0.45471 0.0
C976 C 0.26502 0.55418 0.50437 0.0
H977 H 0.26925 0.52081 0.55084 0.0
C978 C 0.28003 0.57478 0.51555 0.0
C979 C 0.26154 0.53449 0.51704 0.0
C980 C 0.24698 0.51184 0.50535 0.0
C981 C 0.29136 0.57624 0.53916 0.0
C982 C 0.28707 0.55653 0.55236 0.0
C983 C 0.27231 0.53594 0.54098 0.0
C984 C 0.29844 0.55678 0.57742 0.0
C985 C 0.30823 0.59891 0.54937 0.0
C986 C 0.31154 0.54535 0.57993 0.0
C987 C 0.32234 0.54539 0.60325 0.0
C988 C 0.32041 0.55694 0.62469 0.0
C989 C 0.30703 0.56815 0.62231 0.0
C990 C 0.29598 0.56791 0.59896 0.0
H991 H 0.31462 0.61161 0.53385 0.0
H992 H 0.29914 0.604 0.56384 0.0
H993 H 0.32362 0.5988 0.55873 0.0
H994 H 0.31365 0.53656 0.56369 0.0
H995 H 0.33253 0.53659 0.60431 0.0
H996 H 0.78816 0.36434 0.9165 0.0
H997 H 0.76198 0.34434 0.8806 0.0
H998 H 0.76323 0.28436 0.90387 0.0
H999 H 0.78898 0.30407 0.93986 0.0
H1000 H 0.77152 0.32134 0.83991 0.0
H1001 H 0.69264 0.26478 0.89575 0.0
H1002 H 0.71621 0.2896 0.90941 0.0
H1003 H 0.71928 0.26496 0.90598 0.0
C1004 C 0.78257 0.34682 0.9142 0.0
C1005 C 0.79071 0.33583 0.93111 0.0
C1006 C 0.76773 0.33544 0.89358 0.0
C1007 C 0.76045 0.31279 0.88966 0.0
C1008 C 0.76833 0.30175 0.90667 0.0
H1009 H 0.67546 0.21105 0.77955 0.0
H1010 H 0.70104 0.23294 0.81475 0.0
C1011 C 0.78325 0.31311 0.92713 0.0
C1012 C 0.74534 0.30078 0.86733 0.0
H1013 H 0.69256 0.25679 0.85132 0.0
C1014 C 0.75417 0.30734 0.84236 0.0
C1015 C 0.72277 0.28243 0.87056 0.0
C1016 C 0.71201 0.27509 0.89684 0.0
C1017 C 0.74131 0.29569 0.82057 0.0
C1018 C 0.71876 0.27724 0.8238 0.0
C1019 C 0.70986 0.27085 0.8488 0.0
C1020 C 0.70408 0.26424 0.80159 0.0
C1021 C 0.75236 0.30282 0.79438 0.0
C1022 C 0.69721 0.27448 0.78237 0.0
C1023 C 0.68267 0.262 0.76209 0.0
C1024 C 0.67446 0.23894 0.7607 0.0
C1025 C 0.68148 0.22876 0.77991 0.0
C1026 C 0.69607 0.24126 0.80013 0.0
H1027 H 0.77175 0.31288 0.79568 0.0
H1028 H 0.74808 0.28825 0.78189 0.0
H1029 H 0.74549 0.3132 0.78503 0.0
H1030 H 0.70268 0.29207 0.78332 0.0
H1031 H 0.67748 0.2704 0.7478 0.0
H1032 H 0.42856 0.66591 0.12392 0.0
H1033 H 0.42438 0.688 0.1586 0.0
H1034 H 0.48752 0.69426 0.19416 0.0
H1035 H 0.49186 0.6724 0.15961 0.0
H1036 H 0.41953 0.68154 0.21075 0.0
H1037 H 0.50159 0.75849 0.18925 0.0
H1038 H 0.48912 0.7353 0.16737 0.0
H1039 H 0.50625 0.73493 0.19452 0.0
C1040 C 0.44149 0.6719 0.13918 0.0
C1041 C 0.4607 0.66756 0.13877 0.0
C1042 C 0.43912 0.68459 0.15897 0.0
C1043 C 0.4559 0.69322 0.17875 0.0
C1044 C 0.47471 0.68837 0.17876 0.0
H1045 H 0.44028 0.74543 0.32655 0.0
H1046 H 0.44342 0.72273 0.29195 0.0
C1047 C 0.47716 0.67582 0.15895 0.0
C1048 C 0.45371 0.70712 0.19948 0.0
H1049 H 0.4828 0.75771 0.2288 0.0
C1050 C 0.43333 0.69823 0.21464 0.0
C1051 C 0.47156 0.72904 0.20437 0.0
C1052 C 0.49326 0.74012 0.18786 0.0
C1053 C 0.43052 0.71046 0.2348 0.0
C1054 C 0.44876 0.73204 0.2403 0.0
C1055 C 0.46894 0.74107 0.22484 0.0
C1056 C 0.44706 0.7458 0.26152 0.0
C1057 C 0.40782 0.7003 0.24969 0.0
C1058 C 0.44875 0.76663 0.25611 0.0
C1059 C 0.44717 0.77972 0.27585 0.0
C1060 C 0.44396 0.77234 0.30155 0.0
C1061 C 0.44264 0.75161 0.307 0.0
C1062 C 0.44425 0.73851 0.28719 0.0
H1063 H 0.3935 0.68654 0.2389 0.0
H1064 H 0.4104 0.69344 0.26806 0.0
H1065 H 0.40219 0.71293 0.25427 0.0
H1066 H 0.45105 0.77269 0.2365 0.0
H1067 H 0.44832 0.7956 0.27089 0.0
H1068 H 0.68048 0.48661 0.6124 0.0
H1069 H 0.70009 0.49011 0.57122 0.0
H1070 H 0.72253 0.44307 0.59685 0.0
H1071 H 0.70191 0.43865 0.63757 0.0
H1072 H 0.74261 0.50258 0.55466 0.0
H1073 H 0.68893 0.41329 0.53274 0.0
H1074 H 0.68303 0.42608 0.55999 0.0
H1075 H 0.70545 0.41756 0.56181 0.0
C1076 C 0.68981 0.47718 0.60938 0.0
C1077 C 0.68942 0.46215 0.62813 0.0
C1078 C 0.70099 0.47917 0.58577 0.0
C1079 C 0.71222 0.46636 0.58054 0.0
C1080 C 0.71326 0.45252 0.59999 0.0
H1081 H 0.80573 0.4861 0.45163 0.0
H1082 H 0.78852 0.489 0.49221 0.0
C1083 C 0.70167 0.45018 0.62339 0.0
C1084 C 0.72213 0.46695 0.55453 0.0
H1085 H 0.72136 0.43378 0.50516 0.0
C1086 C 0.73786 0.48754 0.54377 0.0
C1087 C 0.71552 0.4474 0.53993 0.0
C1088 C 0.69711 0.42488 0.54908 0.0
C1089 C 0.74748 0.48909 0.51914 0.0
C1090 C 0.74189 0.46943 0.50519 0.0
C1091 C 0.72587 0.44889 0.51582 0.0
C1092 C 0.75246 0.4695 0.4797 0.0
C1093 C 0.76305 0.51184 0.50817 0.0
C1094 C 0.73807 0.45731 0.45906 0.0
C1095 C 0.74793 0.45513 0.43603 0.0
C1096 C 0.7724 0.46537 0.43298 0.0
C1097 C 0.7868 0.4783 0.45322 0.0
C1098 C 0.77694 0.48008 0.47645 0.0
H1099 H 0.75891 0.52448 0.51664 0.0
H1100 H 0.78161 0.51675 0.5129 0.0
H1101 H 0.76125 0.51211 0.48696 0.0
H1102 H 0.71915 0.44896 0.46099 0.0
H1103 H 0.73638 0.44503 0.4208 0.0
H1104 H 0.21439 0.70735 0.92903 0.0
H1105 H 0.23883 0.7278 0.8926 0.0
H1106 H 0.2472 0.67094 0.87197 0.0
H1107 H 0.22212 0.65007 0.90801 0.0
H1108 H 0.28498 0.73863 0.88173 0.0
H1109 H 0.22558 0.68609 0.8043 0.0
H1110 H 0.21607 0.68452 0.8372 0.0
H1111 H 0.23309 0.67121 0.82783 0.0
C1112 C 0.22114 0.69903 0.91662 0.0
C1113 C 0.21601 0.67691 0.92143 0.0
C1114 C 0.23528 0.71084 0.89585 0.0
C1115 C 0.24456 0.70083 0.87925 0.0
C1116 C 0.23987 0.6789 0.88419 0.0
H1117 H 0.33524 0.74632 0.74512 0.0
H1118 H 0.30937 0.72511 0.78038 0.0
C1119 C 0.22572 0.66705 0.90503 0.0
C1120 C 0.25945 0.71356 0.85709 0.0
H1121 H 0.26318 0.71405 0.79147 0.0
C1122 C 0.28017 0.7333 0.86199 0.0
C1123 C 0.25318 0.70661 0.83131 0.0
C1124 C 0.23068 0.68606 0.82472 0.0
C1125 C 0.29497 0.74606 0.84191 0.0
C1126 C 0.28868 0.73915 0.81612 0.0
C1127 C 0.26798 0.71938 0.81122 0.0
C1128 C 0.30359 0.75198 0.79402 0.0
C1129 C 0.31753 0.76655 0.84856 0.0
C1130 C 0.30854 0.77404 0.78947 0.0
C1131 C 0.32338 0.78628 0.76927 0.0
C1132 C 0.33348 0.77665 0.75308 0.0
C1133 C 0.32786 0.75433 0.7572 0.0
C1134 C 0.31304 0.74213 0.77739 0.0
H1135 H 0.32268 0.76637 0.86893 0.0
H1136 H 0.3321 0.76815 0.83598 0.0
H1137 H 0.31514 0.78144 0.84569 0.0
H1138 H 0.30104 0.78186 0.80167 0.0
H1139 H 0.32721 0.80338 0.76662 0.0
loop_
_geom_bond_atom_site_label_1
_geom_bond_atom_site_label_2
_geom_bond_distance
_geom_bond_site_symmetry_2
_ccdc_geom_bond_type
Cu0 N1 1.999 . S
Cu0 O6 1.974 . S
Cu0 N11 1.985 . S
Cu0 O20 1.959 . S
N1 Cu0 1.999 . S
N1 C3 1.263 . S
N1 C5 1.389 . S
N2 C3 1.358 . S
N2 C4 1.400 . S
C3 N1 1.263 . S
C3 N2 1.358 . S
C3 H9 0.930 . S
C4 N2 1.400 . S
C4 C5 1.351 . S
C4 H21 0.930 . S
C5 N1 1.389 . S
C5 C4 1.351 . S
C5 H10 0.930 . S
O6 Cu0 1.974 . S
O6 C16 1.282 . S
C7 O8 1.261 . S
C7 O20 1.251 . S
O8 C7 1.261 . S
H9 C3 0.930 . S
H10 C5 0.930 . S
N11 Cu0 1.985 . S
N11 C13 1.335 . S
N11 C14 1.390 . S
N12 C13 1.345 . S
N12 C15 1.336 . S
C13 N11 1.335 . S
C13 N12 1.345 . S
C13 H18 0.930 . S
C14 N11 1.390 . S
C14 C15 1.346 . S
C14 H19 0.930 . S
C15 N12 1.336 . S
C15 C14 1.346 . S
C15 H22 0.929 . S
C16 O6 1.282 . S
C16 O17 1.216 . S
O17 C16 1.216 . S
H18 C13 0.930 . S
H19 C14 0.930 . S
O20 Cu0 1.959 . S
O20 C7 1.251 . S
H21 C4 0.930 . S
H22 C15 0.929 . S
Cu23 N24 1.999 . S
Cu23 O29 1.974 . S
Cu23 N34 1.985 . S
Cu23 O43 1.959 . S
N24 Cu23 1.999 . S
N24 C26 1.263 . S
N24 C28 1.389 . S
N25 C26 1.358 . S
N25 C27 1.400 . S
C26 N24 1.263 . S
C26 N25 1.358 . S
C26 H32 0.930 . S
C27 N25 1.400 . S
C27 C28 1.351 . S
C27 H44 0.930 . S
C28 N24 1.389 . S
C28 C27 1.351 . S
C28 H33 0.930 . S
O29 Cu23 1.974 . S
O29 C39 1.282 . S
C30 O31 1.261 . S
C30 O43 1.251 . S
O31 C30 1.261 . S
H32 C26 0.930 . S
H33 C28 0.930 . S
N34 Cu23 1.985 . S
N34 C36 1.335 . S
N34 C37 1.390 . S
N35 C36 1.345 . S
N35 C38 1.336 . S
C36 N34 1.335 . S
C36 N35 1.345 . S
C36 H41 0.930 . S
C37 N34 1.390 . S
C37 C38 1.346 . S
C37 H42 0.930 . S
C38 N35 1.336 . S
C38 C37 1.346 . S
C38 H45 0.929 . S
C39 O29 1.282 . S
C39 O40 1.216 . S
O40 C39 1.216 . S
H41 C36 0.930 . S
H42 C37 0.930 . S
O43 Cu23 1.959 . S
O43 C30 1.251 . S
H44 C27 0.930 . S
H45 C38 0.929 . S
Cu46 N47 1.999 . S
Cu46 O52 1.974 . S
Cu46 N57 1.985 1_554 S
Cu46 O66 1.959 . S
N47 Cu46 1.999 . S
N47 C49 1.263 . S
N47 C51 1.389 . S
N48 C49 1.358 . S
N48 C50 1.400 . S
C49 N47 1.263 . S
C49 N48 1.358 . S
C49 H55 0.930 . S
C50 N48 1.400 . S
C50 C51 1.351 . S
C50 H67 0.930 . S
C51 N47 1.389 . S
C51 C50 1.351 . S
C51 H56 0.930 . S
O52 Cu46 1.974 . S
O52 C62 1.282 1_554 S
C53 O54 1.261 . S
C53 O66 1.251 1_556 S
O54 C53 1.261 . S
H55 C49 0.930 . S
H56 C51 0.930 . S
N57 Cu46 1.985 1_556 S
N57 C59 1.335 . S
N57 C60 1.390 . S
N58 C59 1.345 . S
N58 C61 1.336 . S
C59 N57 1.335 . S
C59 N58 1.345 . S
C59 H64 0.930 . S
C60 N57 1.390 . S
C60 C61 1.346 . S
C60 H65 0.930 . S
C61 N58 1.336 . S
C61 C60 1.346 . S
C61 H68 0.929 . S
C62 O52 1.282 1_556 S
C62 O63 1.216 . S
O63 C62 1.216 . S
H64 C59 0.930 . S
H65 C60 0.930 . S
O66 Cu46 1.959 . S
O66 C53 1.251 1_554 S
H67 C50 0.930 . S
H68 C61 0.929 . S
Cu69 N70 1.999 . S
Cu69 O75 1.974 . S
Cu69 N80 1.985 . S
Cu69 O89 1.959 . S
N70 Cu69 1.999 . S
N70 C72 1.263 . S
N70 C74 1.389 . S
N71 C72 1.358 . S
N71 C73 1.400 . S
C72 N70 1.263 . S
C72 N71 1.358 . S
C72 H78 0.930 . S
C73 N71 1.400 . S
C73 C74 1.351 . S
C73 H90 0.930 . S
C74 N70 1.389 . S
C74 C73 1.351 . S
C74 H79 0.930 . S
O75 Cu69 1.974 . S
O75 C85 1.282 . S
C76 O77 1.261 . S
C76 O89 1.251 . S
O77 C76 1.261 . S
H78 C72 0.930 . S
H79 C74 0.930 . S
N80 Cu69 1.985 . S
N80 C82 1.335 . S
N80 C83 1.390 . S
N81 C82 1.345 . S
N81 C84 1.336 . S
C82 N80 1.335 . S
C82 N81 1.345 . S
C82 H87 0.930 . S
C83 N80 1.390 . S
C83 C84 1.346 . S
C83 H88 0.930 . S
C84 N81 1.336 . S
C84 C83 1.346 . S
C84 H91 0.929 . S
C85 O75 1.282 . S
C85 O86 1.216 . S
O86 C85 1.216 . S
H87 C82 0.930 . S
H88 C83 0.930 . S
O89 Cu69 1.959 . S
O89 C76 1.251 . S
H90 C73 0.930 . S
H91 C84 0.929 . S
Cu92 N93 1.999 . S
Cu92 O98 1.974 . S
Cu92 N103 1.985 . S
Cu92 O112 1.959 . S
N93 Cu92 1.999 . S
N93 C95 1.263 . S
N93 C97 1.389 . S
N94 C95 1.358 . S
N94 C96 1.400 . S
C95 N93 1.263 . S
C95 N94 1.358 . S
C95 H101 0.930 . S
C96 N94 1.400 . S
C96 C97 1.351 . S
C96 H113 0.930 . S
C97 N93 1.389 . S
C97 C96 1.351 . S
C97 H102 0.930 . S
O98 Cu92 1.974 . S
O98 C108 1.282 . S
C99 O100 1.261 . S
C99 O112 1.251 . S
O100 C99 1.261 . S
H101 C95 0.930 . S
H102 C97 0.930 . S
N103 Cu92 1.985 . S
N103 C105 1.335 . S
N103 C106 1.390 . S
N104 C105 1.345 . S
N104 C107 1.336 . S
C105 N103 1.335 . S
C105 N104 1.345 . S
C105 H110 0.930 . S
C106 N103 1.390 . S
C106 C107 1.346 . S
C106 H111 0.930 . S
C107 N104 1.336 . S
C107 C106 1.346 . S
C107 H114 0.929 . S
C108 O98 1.282 . S
C108 O109 1.216 . S
O109 C108 1.216 . S
H110 C105 0.930 . S
H111 C106 0.930 . S
O112 Cu92 1.959 . S
O112 C99 1.251 . S
H113 C96 0.930 . S
H114 C107 0.929 . S
Cu115 N116 1.999 . S
Cu115 O121 1.974 . S
Cu115 N126 1.985 1_554 S
Cu115 O135 1.959 . S
N116 Cu115 1.999 . S
N116 C118 1.263 . S
N116 C120 1.389 . S
N117 C118 1.358 . S
N117 C119 1.400 . S
C118 N116 1.263 . S
C118 N117 1.358 . S
C118 H124 0.930 . S
C119 N117 1.400 . S
C119 C120 1.351 . S
C119 H136 0.930 . S
C120 N116 1.389 . S
C120 C119 1.351 . S
C120 H125 0.930 . S
O121 Cu115 1.974 . S
O121 C131 1.282 1_554 S
C122 O123 1.261 . S
C122 O135 1.251 1_556 S
O123 C122 1.261 . S
H124 C118 0.930 . S
H125 C120 0.930 . S
N126 Cu115 1.985 1_556 S
N126 C128 1.335 . S
N126 C129 1.390 . S
N127 C128 1.345 . S
N127 C130 1.336 . S
C128 N126 1.335 . S
C128 N127 1.345 . S
C128 H133 0.930 . S
C129 N126 1.390 . S
C129 C130 1.346 . S
C129 H134 0.930 . S
C130 N127 1.336 . S
C130 C129 1.346 . S
C130 H137 0.929 . S
C131 O121 1.282 1_556 S
C131 O132 1.216 . S
O132 C131 1.216 . S
H133 C128 0.930 . S
H134 C129 0.930 . S
O135 Cu115 1.959 . S
O135 C122 1.251 1_554 S
H136 C119 0.930 . S
H137 C130 0.929 . S
Cu138 N139 1.999 . S
Cu138 O144 1.974 . S
Cu138 N149 1.985 . S
Cu138 O158 1.959 . S
N139 Cu138 1.999 . S
N139 C141 1.263 . S
N139 C143 1.389 . S
N140 C141 1.358 . S
N140 C142 1.400 . S
C141 N139 1.263 . S
C141 N140 1.358 . S
C141 H147 0.930 . S
C142 N140 1.400 . S
C142 C143 1.351 . S
C142 H159 0.930 . S
C143 N139 1.389 . S
C143 C142 1.351 . S
C143 H148 0.930 . S
O144 Cu138 1.974 . S
O144 C154 1.282 . S
C145 O146 1.261 . S
C145 O158 1.251 . S
O146 C145 1.261 . S
H147 C141 0.930 . S
H148 C143 0.930 . S
N149 Cu138 1.985 . S
N149 C151 1.335 . S
N149 C152 1.390 . S
N150 C151 1.345 . S
N150 C153 1.336 . S
C151 N149 1.335 . S
C151 N150 1.345 . S
C151 H156 0.930 . S
C152 N149 1.390 . S
C152 C153 1.346 . S
C152 H157 0.930 . S
C153 N150 1.336 . S
C153 C152 1.346 . S
C153 H160 0.929 . S
C154 O144 1.282 . S
C154 O155 1.216 . S
O155 C154 1.216 . S
H156 C151 0.930 . S
H157 C152 0.930 . S
O158 Cu138 1.959 . S
O158 C145 1.251 . S
H159 C142 0.930 . S
H160 C153 0.929 . S
Cu161 N162 1.999 . S
Cu161 O167 1.974 . S
Cu161 N172 1.985 . S
Cu161 O181 1.959 . S
N162 Cu161 1.999 . S
N162 C164 1.263 . S
N162 C166 1.389 . S
N163 C164 1.358 . S
N163 C165 1.400 . S
C164 N162 1.263 . S
C164 N163 1.358 . S
C164 H170 0.930 . S
C165 N163 1.400 . S
C165 C166 1.351 . S
C165 H182 0.930 . S
C166 N162 1.389 . S
C166 C165 1.351 . S
C166 H171 0.930 . S
O167 Cu161 1.974 . S
O167 C177 1.282 . S
C168 O169 1.261 . S
C168 O181 1.251 . S
O169 C168 1.261 . S
H170 C164 0.930 . S
H171 C166 0.930 . S
N172 Cu161 1.985 . S
N172 C174 1.335 . S
N172 C175 1.390 . S
N173 C174 1.345 . S
N173 C176 1.336 . S
C174 N172 1.335 . S
C174 N173 1.345 . S
C174 H179 0.930 . S
C175 N172 1.390 . S
C175 C176 1.346 . S
C175 H180 0.930 . S
C176 N173 1.336 . S
C176 C175 1.346 . S
C176 H183 0.929 . S
C177 O167 1.282 . S
C177 O178 1.216 . S
O178 C177 1.216 . S
H179 C174 0.930 . S
H180 C175 0.930 . S
O181 Cu161 1.959 . S
O181 C168 1.251 . S
H182 C165 0.930 . S
H183 C176 0.929 . S
Cu184 N185 1.999 . S
Cu184 O190 1.974 . S
Cu184 N195 1.985 1_556 S
Cu184 O204 1.959 . S
N185 Cu184 1.999 . S
N185 C187 1.263 . S
N185 C189 1.389 . S
N186 C187 1.358 . S
N186 C188 1.400 . S
C187 N185 1.263 . S
C187 N186 1.358 . S
C187 H193 0.930 . S
C188 N186 1.400 . S
C188 C189 1.351 . S
C188 H205 0.930 . S
C189 N185 1.389 . S
C189 C188 1.351 . S
C189 H194 0.930 . S
O190 Cu184 1.974 . S
O190 C200 1.282 1_556 S
C191 O192 1.261 . S
C191 O204 1.251 1_554 S
O192 C191 1.261 . S
H193 C187 0.930 . S
H194 C189 0.930 . S
N195 Cu184 1.985 1_554 S
N195 C197 1.335 . S
N195 C198 1.390 . S
N196 C197 1.345 . S
N196 C199 1.336 . S
C197 N195 1.335 . S
C197 N196 1.345 . S
C197 H202 0.930 . S
C198 N195 1.390 . S
C198 C199 1.346 . S
C198 H203 0.930 . S
C199 N196 1.336 . S
C199 C198 1.346 . S
C199 H206 0.929 . S
C200 O190 1.282 1_554 S
C200 O201 1.216 . S
O201 C200 1.216 . S
H202 C197 0.930 . S
H203 C198 0.930 . S
O204 Cu184 1.959 . S
O204 C191 1.251 1_556 S
H205 C188 0.930 . S
H206 C199 0.929 . S
Cu207 N208 1.999 . S
Cu207 O213 1.974 . S
Cu207 N218 1.985 . S
Cu207 O227 1.959 . S
N208 Cu207 1.999 . S
N208 C210 1.263 . S
N208 C212 1.389 . S
N209 C210 1.358 . S
N209 C211 1.400 . S
C210 N208 1.263 . S
C210 N209 1.358 . S
C210 H216 0.930 . S
C211 N209 1.400 . S
C211 C212 1.351 . S
C211 H228 0.930 . S
C212 N208 1.389 . S
C212 C211 1.351 . S
C212 H217 0.930 . S
O213 Cu207 1.974 . S
O213 C223 1.282 . S
C214 O215 1.261 . S
C214 O227 1.251 . S
O215 C214 1.261 . S
H216 C210 0.930 . S
H217 C212 0.930 . S
N218 Cu207 1.985 . S
N218 C220 1.335 . S
N218 C221 1.390 . S
N219 C220 1.345 . S
N219 C222 1.336 . S
C220 N218 1.335 . S
C220 N219 1.345 . S
C220 H225 0.930 . S
C221 N218 1.390 . S
C221 C222 1.346 . S
C221 H226 0.930 . S
C222 N219 1.336 . S
C222 C221 1.346 . S
C222 H229 0.929 . S
C223 O213 1.282 . S
C223 O224 1.216 . S
O224 C223 1.216 . S
H225 C220 0.930 . S
H226 C221 0.930 . S
O227 Cu207 1.959 . S
O227 C214 1.251 . S
H228 C211 0.930 . S
H229 C222 0.929 . S
Cu230 N231 1.999 . S
Cu230 O236 1.974 . S
Cu230 N241 1.985 . S
Cu230 O250 1.959 . S
N231 Cu230 1.999 . S
N231 C233 1.263 . S
N231 C235 1.389 . S
N232 C233 1.358 . S
N232 C234 1.400 . S
C233 N231 1.263 . S
C233 N232 1.358 . S
C233 H239 0.930 . S
C234 N232 1.400 . S
C234 C235 1.351 . S
C234 H251 0.930 . S
C235 N231 1.389 . S
C235 C234 1.351 . S
C235 H240 0.930 . S
O236 Cu230 1.974 . S
O236 C246 1.282 . S
C237 O238 1.261 . S
C237 O250 1.251 . S
O238 C237 1.261 . S
H239 C233 0.930 . S
H240 C235 0.930 . S
N241 Cu230 1.985 . S
N241 C243 1.335 . S
N241 C244 1.390 . S
N242 C243 1.345 . S
N242 C245 1.336 . S
C243 N241 1.335 . S
C243 N242 1.345 . S
C243 H248 0.930 . S
C244 N241 1.390 . S
C244 C245 1.346 . S
C244 H249 0.930 . S
C245 N242 1.336 . S
C245 C244 1.346 . S
C245 H252 0.929 . S
C246 O236 1.282 . S
C246 O247 1.216 . S
O247 C246 1.216 . S
H248 C243 0.930 . S
H249 C244 0.930 . S
O250 Cu230 1.959 . S
O250 C237 1.251 . S
H251 C234 0.930 . S
H252 C245 0.929 . S
Cu253 N254 1.999 . S
Cu253 O259 1.974 . S
Cu253 N264 1.985 1_556 S
Cu253 O273 1.959 . S
N254 Cu253 1.999 . S
N254 C256 1.263 . S
N254 C258 1.389 . S
N255 C256 1.358 . S
N255 C257 1.400 . S
C256 N254 1.263 . S
C256 N255 1.358 . S
C256 H262 0.930 . S
C257 N255 1.400 . S
C257 C258 1.351 . S
C257 H274 0.930 . S
C258 N254 1.389 . S
C258 C257 1.351 . S
C258 H263 0.930 . S
O259 Cu253 1.974 . S
O259 C269 1.282 1_556 S
C260 O261 1.261 . S
C260 O273 1.251 1_554 S
O261 C260 1.261 . S
H262 C256 0.930 . S
H263 C258 0.930 . S
N264 Cu253 1.985 1_554 S
N264 C266 1.335 . S
N264 C267 1.390 . S
N265 C266 1.345 . S
N265 C268 1.336 . S
C266 N264 1.335 . S
C266 N265 1.345 . S
C266 H271 0.930 . S
C267 N264 1.390 . S
C267 C268 1.346 . S
C267 H272 0.930 . S
C268 N265 1.336 . S
C268 C267 1.346 . S
C268 H275 0.929 . S
C269 O259 1.282 1_554 S
C269 O270 1.216 . S
O270 C269 1.216 . S
H271 C266 0.930 . S
H272 C267 0.930 . S
O273 Cu253 1.959 . S
O273 C260 1.251 1_556 S
H274 C257 0.930 . S
H275 C268 0.929 . S
H276 C284 0.929 . S
H277 C286 0.930 . S
H278 C288 0.930 . S
H279 C291 0.929 . S
H280 C294 0.930 . S
H281 C296 0.960 . S
H282 C296 0.960 . S
H283 C296 0.960 . S
C284 H276 0.929 . S
C284 C285 1.377 . S
C284 C286 1.384 . S
C285 C284 1.377 . S
C285 C291 1.390 . S
C286 H277 0.930 . S
C286 C284 1.384 . S
C286 C287 1.372 . S
C287 C286 1.372 . S
C287 C288 1.400 . S
C287 C292 1.490 . S
C288 H278 0.930 . S
C288 C287 1.400 . S
C288 C291 1.386 . S
H289 C305 0.930 . S
H290 C306 0.931 . S
C291 H279 0.929 . S
C291 C285 1.390 . S
C291 C288 1.386 . S
C292 C287 1.490 . S
C292 C294 1.395 . S
C292 C295 1.403 . S
H293 C299 0.930 . S
C294 H280 0.930 . S
C294 C292 1.395 . S
C294 C297 1.403 . S
C295 C292 1.403 . S
C295 C296 1.524 . S
C295 C299 1.400 . S
C296 H281 0.960 . S
C296 H282 0.960 . S
C296 H283 0.960 . S
C296 C295 1.524 . S
C297 C294 1.403 . S
C297 C298 1.392 . S
C297 C301 1.495 . S
C298 C297 1.392 . S
C298 C299 1.385 . S
C298 C300 1.478 . S
C299 H293 0.930 . S
C299 C295 1.400 . S
C299 C298 1.385 . S
C300 C298 1.478 . S
C300 C302 1.381 . S
C300 C306 1.383 . S
C301 C297 1.495 . S
C301 H307 0.959 . S
C301 H308 0.961 . S
C301 H309 0.960 . S
C302 C300 1.381 . S
C302 C303 1.394 . S
C302 H310 0.930 . S
C303 C302 1.394 . S
C303 C304 1.383 . S
C303 H311 0.929 . S
C304 C303 1.383 . S
C304 C305 1.377 . S
C305 H289 0.930 . S
C305 C304 1.377 . S
C305 C306 1.379 . S
C306 H290 0.931 . S
C306 C300 1.383 . S
C306 C305 1.379 . S
H307 C301 0.959 . S
H308 C301 0.961 . S
H309 C301 0.960 . S
H310 C302 0.930 . S
H311 C303 0.929 . S
H312 C320 0.929 . S
H313 C322 0.930 . S
H314 C324 0.930 . S
H315 C327 0.929 . S
H316 C330 0.930 . S
H317 C332 0.960 . S
H318 C332 0.960 . S
H319 C332 0.960 . S
C320 H312 0.929 . S
C320 C321 1.377 . S
C320 C322 1.384 . S
C321 C320 1.377 . S
C321 C327 1.390 . S
C322 H313 0.930 . S
C322 C320 1.384 . S
C322 C323 1.372 . S
C323 C322 1.372 . S
C323 C324 1.400 . S
C323 C328 1.490 . S
C324 H314 0.930 . S
C324 C323 1.400 . S
C324 C327 1.386 . S
H325 C341 0.930 . S
H326 C342 0.931 . S
C327 H315 0.929 . S
C327 C321 1.390 . S
C327 C324 1.386 . S
C328 C323 1.490 . S
C328 C330 1.395 . S
C328 C331 1.403 . S
H329 C335 0.930 . S
C330 H316 0.930 . S
C330 C328 1.395 . S
C330 C333 1.403 . S
C331 C328 1.403 . S
C331 C332 1.524 . S
C331 C335 1.400 . S
C332 H317 0.960 . S
C332 H318 0.960 . S
C332 H319 0.960 . S
C332 C331 1.524 . S
C333 C330 1.403 . S
C333 C334 1.392 . S
C333 C337 1.495 . S
C334 C333 1.392 . S
C334 C335 1.385 . S
C334 C336 1.478 . S
C335 H329 0.930 . S
C335 C331 1.400 . S
C335 C334 1.385 . S
C336 C334 1.478 . S
C336 C338 1.381 . S
C336 C342 1.383 . S
C337 C333 1.495 . S
C337 H343 0.959 . S
C337 H344 0.961 . S
C337 H345 0.960 . S
C338 C336 1.381 . S
C338 C339 1.394 . S
C338 H346 0.930 . S
C339 C338 1.394 . S
C339 C340 1.383 . S
C339 H347 0.929 . S
C340 C339 1.383 . S
C340 C341 1.377 . S
C341 H325 0.930 . S
C341 C340 1.377 . S
C341 C342 1.379 . S
C342 H326 0.931 . S
C342 C336 1.383 . S
C342 C341 1.379 . S
H343 C337 0.959 . S
H344 C337 0.961 . S
H345 C337 0.960 . S
H346 C338 0.930 . S
H347 C339 0.929 . S
H348 C356 0.929 . S
H349 C358 0.930 . S
H350 C360 0.930 . S
H351 C363 0.929 . S
H352 C366 0.930 . S
H353 C368 0.960 . S
H354 C368 0.960 . S
H355 C368 0.960 . S
C356 H348 0.929 . S
C356 C357 1.377 . S
C356 C358 1.384 . S
C357 C356 1.377 . S
C357 C363 1.390 . S
C358 H349 0.930 . S
C358 C356 1.384 . S
C358 C359 1.372 . S
C359 C358 1.372 . S
C359 C360 1.400 . S
C359 C364 1.490 . S
C360 H350 0.930 . S
C360 C359 1.400 . S
C360 C363 1.386 . S
H361 C377 0.930 . S
H362 C378 0.931 . S
C363 H351 0.929 . S
C363 C357 1.390 . S
C363 C360 1.386 . S
C364 C359 1.490 . S
C364 C366 1.395 . S
C364 C367 1.403 . S
H365 C371 0.930 . S
C366 H352 0.930 . S
C366 C364 1.395 . S
C366 C369 1.403 . S
C367 C364 1.403 . S
C367 C368 1.524 . S
C367 C371 1.400 . S
C368 H353 0.960 . S
C368 H354 0.960 . S
C368 H355 0.960 . S
C368 C367 1.524 . S
C369 C366 1.403 . S
C369 C370 1.392 . S
C369 C373 1.495 . S
C370 C369 1.392 . S
C370 C371 1.385 . S
C370 C372 1.478 . S
C371 H365 0.930 . S
C371 C367 1.400 . S
C371 C370 1.385 . S
C372 C370 1.478 . S
C372 C374 1.381 . S
C372 C378 1.383 . S
C373 C369 1.495 . S
C373 H379 0.959 . S
C373 H380 0.961 . S
C373 H381 0.960 . S
C374 C372 1.381 . S
C374 C375 1.394 . S
C374 H382 0.930 . S
C375 C374 1.394 . S
C375 C376 1.383 . S
C375 H383 0.929 . S
C376 C375 1.383 . S
C376 C377 1.377 . S
C377 H361 0.930 . S
C377 C376 1.377 . S
C377 C378 1.379 . S
C378 H362 0.931 . S
C378 C372 1.383 . S
C378 C377 1.379 . S
H379 C373 0.959 . S
H380 C373 0.961 . S
H381 C373 0.960 . S
H382 C374 0.930 . S
H383 C375 0.929 . S
H384 C392 0.929 . S
H385 C394 0.930 . S
H386 C396 0.930 . S
H387 C399 0.929 . S
H388 C402 0.930 . S
H389 C404 0.960 . S
H390 C404 0.960 . S
H391 C404 0.960 . S
C392 H384 0.929 . S
C392 C393 1.377 . S
C392 C394 1.384 . S
C393 C392 1.377 . S
C393 C399 1.390 . S
C394 H385 0.930 . S
C394 C392 1.384 . S
C394 C395 1.372 . S
C395 C394 1.372 . S
C395 C396 1.400 . S
C395 C400 1.490 . S
C396 H386 0.930 . S
C396 C395 1.400 . S
C396 C399 1.386 . S
H397 C413 0.930 . S
H398 C414 0.931 . S
C399 H387 0.929 . S
C399 C393 1.390 . S
C399 C396 1.386 . S
C400 C395 1.490 . S
C400 C402 1.395 . S
C400 C403 1.403 . S
H401 C407 0.930 . S
C402 H388 0.930 . S
C402 C400 1.395 . S
C402 C405 1.403 . S
C403 C400 1.403 . S
C403 C404 1.524 . S
C403 C407 1.400 . S
C404 H389 0.960 . S
C404 H390 0.960 . S
C404 H391 0.960 . S
C404 C403 1.524 . S
C405 C402 1.403 . S
C405 C406 1.392 . S
C405 C409 1.495 . S
C406 C405 1.392 . S
C406 C407 1.385 . S
C406 C408 1.478 . S
C407 H401 0.930 . S
C407 C403 1.400 . S
C407 C406 1.385 . S
C408 C406 1.478 . S
C408 C410 1.381 . S
C408 C414 1.383 . S
C409 C405 1.495 . S
C409 H415 0.959 . S
C409 H416 0.961 . S
C409 H417 0.960 . S
C410 C408 1.381 . S
C410 C411 1.394 . S
C410 H418 0.930 . S
C411 C410 1.394 . S
C411 C412 1.383 . S
C411 H419 0.929 . S
C412 C411 1.383 . S
C412 C413 1.377 . S
C413 H397 0.930 . S
C413 C412 1.377 . S
C413 C414 1.379 . S
C414 H398 0.931 . S
C414 C408 1.383 . S
C414 C413 1.379 . S
H415 C409 0.959 . S
H416 C409 0.961 . S
H417 C409 0.960 . S
H418 C410 0.930 . S
H419 C411 0.929 . S
H420 C428 0.929 . S
H421 C430 0.930 . S
H422 C432 0.930 . S
H423 C435 0.929 . S
H424 C438 0.930 . S
H425 C440 0.960 . S
H426 C440 0.960 . S
H427 C440 0.960 . S
C428 H420 0.929 . S
C428 C429 1.377 . S
C428 C430 1.384 . S
C429 C428 1.377 . S
C429 C435 1.390 . S
C430 H421 0.930 . S
C430 C428 1.384 . S
C430 C431 1.372 . S
C431 C430 1.372 . S
C431 C432 1.400 . S
C431 C436 1.490 . S
C432 H422 0.930 . S
C432 C431 1.400 . S
C432 C435 1.386 . S
H433 C449 0.930 . S
H434 C450 0.931 . S
C435 H423 0.929 . S
C435 C429 1.390 . S
C435 C432 1.386 . S
C436 C431 1.490 . S
C436 C438 1.395 . S
C436 C439 1.403 . S
H437 C443 0.930 . S
C438 H424 0.930 . S
C438 C436 1.395 . S
C438 C441 1.403 . S
C439 C436 1.403 . S
C439 C440 1.524 . S
C439 C443 1.400 . S
C440 H425 0.960 . S
C440 H426 0.960 . S
C440 H427 0.960 . S
C440 C439 1.524 . S
C441 C438 1.403 . S
C441 C442 1.392 . S
C441 C445 1.495 . S
C442 C441 1.392 . S
C442 C443 1.385 . S
C442 C444 1.478 . S
C443 H437 0.930 . S
C443 C439 1.400 . S
C443 C442 1.385 . S
C444 C442 1.478 . S
C444 C446 1.381 . S
C444 C450 1.383 . S
C445 C441 1.495 . S
C445 H451 0.959 . S
C445 H452 0.961 . S
C445 H453 0.960 . S
C446 C444 1.381 . S
C446 C447 1.394 . S
C446 H454 0.930 . S
C447 C446 1.394 . S
C447 C448 1.383 . S
C447 H455 0.929 . S
C448 C447 1.383 . S
C448 C449 1.377 . S
C449 H433 0.930 . S
C449 C448 1.377 . S
C449 C450 1.379 . S
C450 H434 0.931 . S
C450 C444 1.383 . S
C450 C449 1.379 . S
H451 C445 0.959 . S
H452 C445 0.961 . S
H453 C445 0.960 . S
H454 C446 0.930 . S
H455 C447 0.929 . S
H456 C464 0.929 . S
H457 C466 0.930 . S
H458 C468 0.930 . S
H459 C471 0.929 . S
H460 C474 0.930 . S
H461 C476 0.960 . S
H462 C476 0.960 . S
H463 C476 0.960 . S
C464 H456 0.929 . S
C464 C465 1.377 . S
C464 C466 1.384 . S
C465 C464 1.377 . S
C465 C471 1.390 . S
C466 H457 0.930 . S
C466 C464 1.384 . S
C466 C467 1.372 . S
C467 C466 1.372 . S
C467 C468 1.400 . S
C467 C472 1.490 . S
C468 H458 0.930 . S
C468 C467 1.400 . S
C468 C471 1.386 . S
H469 C485 0.930 . S
H470 C486 0.931 . S
C471 H459 0.929 . S
C471 C465 1.390 . S
C471 C468 1.386 . S
C472 C467 1.490 . S
C472 C474 1.395 . S
C472 C475 1.403 . S
H473 C479 0.930 . S
C474 H460 0.930 . S
C474 C472 1.395 . S
C474 C477 1.403 . S
C475 C472 1.403 . S
C475 C476 1.524 . S
C475 C479 1.400 . S
C476 H461 0.960 . S
C476 H462 0.960 . S
C476 H463 0.960 . S
C476 C475 1.524 . S
C477 C474 1.403 . S
C477 C478 1.392 . S
C477 C481 1.495 . S
C478 C477 1.392 . S
C478 C479 1.385 . S
C478 C480 1.478 . S
C479 H473 0.930 . S
C479 C475 1.400 . S
C479 C478 1.385 . S
C480 C478 1.478 . S
C480 C482 1.381 . S
C480 C486 1.383 . S
C481 C477 1.495 . S
C481 H487 0.959 . S
C481 H488 0.961 . S
C481 H489 0.960 . S
C482 C480 1.381 . S
C482 C483 1.394 . S
C482 H490 0.930 . S
C483 C482 1.394 . S
C483 C484 1.383 . S
C483 H491 0.929 . S
C484 C483 1.383 . S
C484 C485 1.377 . S
C485 H469 0.930 . S
C485 C484 1.377 . S
C485 C486 1.379 . S
C486 H470 0.931 . S
C486 C480 1.383 . S
C486 C485 1.379 . S
H487 C481 0.959 . S
H488 C481 0.961 . S
H489 C481 0.960 . S
H490 C482 0.930 . S
H491 C483 0.929 . S
H492 C500 0.929 . S
H493 C502 0.930 . S
H494 C504 0.930 . S
H495 C507 0.929 . S
H496 C510 0.930 . S
H497 C512 0.960 . S
H498 C512 0.960 . S
H499 C512 0.960 . S
C500 H492 0.929 . S
C500 C501 1.377 . S
C500 C502 1.384 . S
C501 C500 1.377 . S
C501 C507 1.390 . S
C502 H493 0.930 . S
C502 C500 1.384 . S
C502 C503 1.372 . S
C503 C502 1.372 . S
C503 C504 1.400 . S
C503 C508 1.490 . S
C504 H494 0.930 . S
C504 C503 1.400 . S
C504 C507 1.386 . S
H505 C521 0.930 . S
H506 C522 0.931 . S
C507 H495 0.929 . S
C507 C501 1.390 . S
C507 C504 1.386 . S
C508 C503 1.490 . S
C508 C510 1.395 . S
C508 C511 1.403 . S
H509 C515 0.930 . S
C510 H496 0.930 . S
C510 C508 1.395 . S
C510 C513 1.403 . S
C511 C508 1.403 . S
C511 C512 1.524 . S
C511 C515 1.400 . S
C512 H497 0.960 . S
C512 H498 0.960 . S
C512 H499 0.960 . S
C512 C511 1.524 . S
C513 C510 1.403 . S
C513 C514 1.392 . S
C513 C517 1.495 . S
C514 C513 1.392 . S
C514 C515 1.385 . S
C514 C516 1.478 . S
C515 H509 0.930 . S
C515 C511 1.400 . S
C515 C514 1.385 . S
C516 C514 1.478 . S
C516 C518 1.381 . S
C516 C522 1.383 . S
C517 C513 1.495 . S
C517 H523 0.959 . S
C517 H524 0.961 . S
C517 H525 0.960 . S
C518 C516 1.381 . S
C518 C519 1.394 . S
C518 H526 0.930 . S
C519 C518 1.394 . S
C519 C520 1.383 . S
C519 H527 0.929 . S
C520 C519 1.383 . S
C520 C521 1.377 . S
C521 H505 0.930 . S
C521 C520 1.377 . S
C521 C522 1.379 . S
C522 H506 0.931 . S
C522 C516 1.383 . S
C522 C521 1.379 . S
H523 C517 0.959 . S
H524 C517 0.961 . S
H525 C517 0.960 . S
H526 C518 0.930 . S
H527 C519 0.929 . S
H528 C536 0.929 . S
H529 C538 0.930 . S
H530 C540 0.930 . S
H531 C543 0.929 . S
H532 C546 0.930 . S
H533 C548 0.960 . S
H534 C548 0.960 . S
H535 C548 0.960 . S
C536 H528 0.929 . S
C536 C537 1.377 . S
C536 C538 1.384 . S
C537 C536 1.377 . S
C537 C543 1.390 . S
C538 H529 0.930 . S
C538 C536 1.384 . S
C538 C539 1.372 . S
C539 C538 1.372 . S
C539 C540 1.400 . S
C539 C544 1.490 . S
C540 H530 0.930 . S
C540 C539 1.400 . S
C540 C543 1.386 . S
H541 C557 0.930 . S
H542 C558 0.931 . S
C543 H531 0.929 . S
C543 C537 1.390 . S
C543 C540 1.386 . S
C544 C539 1.490 . S
C544 C546 1.395 . S
C544 C547 1.403 . S
H545 C551 0.930 . S
C546 H532 0.930 . S
C546 C544 1.395 . S
C546 C549 1.403 . S
C547 C544 1.403 . S
C547 C548 1.524 . S
C547 C551 1.400 . S
C548 H533 0.960 . S
C548 H534 0.960 . S
C548 H535 0.960 . S
C548 C547 1.524 . S
C549 C546 1.403 . S
C549 C550 1.392 . S
C549 C553 1.495 . S
C550 C549 1.392 . S
C550 C551 1.385 . S
C550 C552 1.478 . S
C551 H545 0.930 . S
C551 C547 1.400 . S
C551 C550 1.385 . S
C552 C550 1.478 . S
C552 C554 1.381 . S
C552 C558 1.383 . S
C553 C549 1.495 . S
C553 H559 0.959 . S
C553 H560 0.961 . S
C553 H561 0.960 . S
C554 C552 1.381 . S
C554 C555 1.394 . S
C554 H562 0.930 . S
C555 C554 1.394 . S
C555 C556 1.383 . S
C555 H563 0.929 . S
C556 C555 1.383 . S
C556 C557 1.377 . S
C557 H541 0.930 . S
C557 C556 1.377 . S
C557 C558 1.379 . S
C558 H542 0.931 . S
C558 C552 1.383 . S
C558 C557 1.379 . S
H559 C553 0.959 . S
H560 C553 0.961 . S
H561 C553 0.960 . S
H562 C554 0.930 . S
H563 C555 0.929 . S
H564 C572 0.929 . S
H565 C574 0.930 . S
H566 C576 0.930 . S
H567 C579 0.929 . S
H568 C582 0.930 . S
H569 C584 0.960 . S
H570 C584 0.960 1_554 S
H571 C584 0.960 . S
C572 H564 0.929 . S
C572 C573 1.377 . S
C572 C574 1.384 . S
C573 C572 1.377 . S
C573 C579 1.390 1_554 S
C574 H565 0.930 . S
C574 C572 1.384 . S
C574 C575 1.372 . S
C575 C574 1.372 . S
C575 C576 1.400 1_554 S
C575 C580 1.490 . S
C576 H566 0.930 . S
C576 C575 1.400 1_556 S
C576 C579 1.386 . S
H577 C593 0.930 . S
H578 C594 0.931 . S
C579 H567 0.929 . S
C579 C573 1.390 1_556 S
C579 C576 1.386 . S
C580 C575 1.490 . S
C580 C582 1.395 . S
C580 C583 1.403 1_554 S
H581 C587 0.930 . S
C582 H568 0.930 . S
C582 C580 1.395 . S
C582 C585 1.403 . S
C583 C580 1.403 1_556 S
C583 C584 1.524 . S
C583 C587 1.400 . S
C584 H569 0.960 . S
C584 H570 0.960 1_556 S
C584 H571 0.960 . S
C584 C583 1.524 . S
C585 C582 1.403 . S
C585 C586 1.404 . S
C585 C589 1.495 . S
C586 C585 1.404 . S
C586 C587 1.377 1_554 S
C586 C588 1.475 1_554 S
C587 H581 0.930 . S
C587 C583 1.400 . S
C587 C586 1.377 1_556 S
C588 C586 1.475 1_556 S
C588 C590 1.357 1_556 S
C588 C594 1.409 . S
C589 C585 1.495 . S
C589 H595 0.959 . S
C589 H596 0.961 1_554 S
C589 H597 0.960 . S
C590 C588 1.357 1_554 S
C590 C591 1.394 . S
C590 H598 0.930 . S
C591 C590 1.394 . S
C591 C592 1.383 1_554 S
C591 H599 0.929 . S
C592 C591 1.383 1_556 S
C592 C593 1.377 . S
C593 H577 0.930 . S
C593 C592 1.377 . S
C593 C594 1.379 . S
C594 H578 0.931 . S
C594 C588 1.409 . S
C594 C593 1.379 . S
H595 C589 0.959 . S
H596 C589 0.961 1_556 S
H597 C589 0.960 . S
H598 C590 0.930 . S
H599 C591 0.929 . S
H600 C608 0.929 . S
H601 C610 0.930 . S
H602 C612 0.930 . S
H603 C615 0.929 . S
H604 C618 0.930 . S
H605 C620 0.960 . S
H606 C620 0.960 . S
H607 C620 0.960 . S
C608 H600 0.929 . S
C608 C609 1.377 . S
C608 C610 1.384 . S
C609 C608 1.377 . S
C609 C615 1.390 . S
C610 H601 0.930 . S
C610 C608 1.384 . S
C610 C611 1.372 . S
C611 C610 1.372 . S
C611 C612 1.400 . S
C611 C616 1.490 . S
C612 H602 0.930 . S
C612 C611 1.400 . S
C612 C615 1.386 . S
H613 C629 0.930 . S
H614 C630 0.931 . S
C615 H603 0.929 . S
C615 C609 1.390 . S
C615 C612 1.386 . S
C616 C611 1.490 . S
C616 C618 1.395 . S
C616 C619 1.403 . S
H617 C623 0.930 . S
C618 H604 0.930 . S
C618 C616 1.395 . S
C618 C621 1.403 . S
C619 C616 1.403 . S
C619 C620 1.524 . S
C619 C623 1.400 . S
C620 H605 0.960 . S
C620 H606 0.960 . S
C620 H607 0.960 . S
C620 C619 1.524 . S
C621 C618 1.403 . S
C621 C622 1.392 . S
C621 C625 1.495 . S
C622 C621 1.392 . S
C622 C623 1.385 . S
C622 C624 1.478 . S
C623 H617 0.930 . S
C623 C619 1.400 . S
C623 C622 1.385 . S
C624 C622 1.478 . S
C624 C626 1.381 . S
C624 C630 1.383 . S
C625 C621 1.495 . S
C625 H631 0.959 . S
C625 H632 0.961 . S
C625 H633 0.960 . S
C626 C624 1.381 . S
C626 C627 1.394 . S
C626 H634 0.930 . S
C627 C626 1.394 . S
C627 C628 1.383 . S
C627 H635 0.929 . S
C628 C627 1.383 . S
C628 C629 1.377 . S
C629 H613 0.930 . S
C629 C628 1.377 . S
C629 C630 1.379 . S
C630 H614 0.931 . S
C630 C624 1.383 . S
C630 C629 1.379 . S
H631 C625 0.959 . S
H632 C625 0.961 . S
H633 C625 0.960 . S
H634 C626 0.930 . S
H635 C627 0.929 . S
H636 C644 0.929 . S
H637 C646 0.930 . S
H638 C648 0.930 . S
H639 C651 0.929 . S
H640 C654 0.930 . S
H641 C656 0.960 . S
H642 C656 0.960 . S
H643 C656 0.960 . S
C644 H636 0.929 . S
C644 C645 1.377 . S
C644 C646 1.384 . S
C645 C644 1.377 . S
C645 C651 1.390 . S
C646 H637 0.930 . S
C646 C644 1.384 . S
C646 C647 1.372 . S
C647 C646 1.372 . S
C647 C648 1.400 . S
C647 C652 1.490 . S
C648 H638 0.930 . S
C648 C647 1.400 . S
C648 C651 1.386 . S
H649 C665 0.930 . S
H650 C666 0.931 . S
C651 H639 0.929 . S
C651 C645 1.390 . S
C651 C648 1.386 . S
C652 C647 1.490 . S
C652 C654 1.395 . S
C652 C655 1.403 . S
H653 C659 0.930 . S
C654 H640 0.930 . S
C654 C652 1.395 . S
C654 C657 1.403 . S
C655 C652 1.403 . S
C655 C656 1.524 . S
C655 C659 1.400 . S
C656 H641 0.960 . S
C656 H642 0.960 . S
C656 H643 0.960 . S
C656 C655 1.524 . S
C657 C654 1.403 . S
C657 C658 1.392 . S
C657 C661 1.495 . S
C658 C657 1.392 . S
C658 C659 1.385 . S
C658 C660 1.478 . S
C659 H653 0.930 . S
C659 C655 1.400 . S
C659 C658 1.385 . S
C660 C658 1.478 . S
C660 C662 1.381 . S
C660 C666 1.383 . S
C661 C657 1.495 . S
C661 H667 0.959 . S
C661 H668 0.961 . S
C661 H669 0.960 . S
C662 C660 1.381 . S
C662 C663 1.394 . S
C662 H670 0.930 . S
C663 C662 1.394 . S
C663 C664 1.383 . S
C663 H671 0.929 . S
C664 C663 1.383 . S
C664 C665 1.377 . S
C665 H649 0.930 . S
C665 C664 1.377 . S
C665 C666 1.379 . S
C666 H650 0.931 . S
C666 C660 1.383 . S
C666 C665 1.379 . S
H667 C661 0.959 . S
H668 C661 0.961 . S
H669 C661 0.960 . S
H670 C662 0.930 . S
H671 C663 0.929 . S
H672 C680 0.929 . S
H673 C682 0.930 . S
H674 C684 0.930 . S
H675 C687 0.929 . S
H676 C690 0.930 . S
H677 C692 0.960 . S
H678 C692 0.960 . S
H679 C692 0.960 . S
C680 H672 0.929 . S
C680 C681 1.377 1_554 S
C680 C682 1.384 . S
C681 C680 1.377 1_556 S
C681 C687 1.390 . S
C682 H673 0.930 . S
C682 C680 1.384 . S
C682 C683 1.372 1_554 S
C683 C682 1.372 1_556 S
C683 C684 1.400 . S
C683 C688 1.490 . S
C684 H674 0.930 . S
C684 C683 1.400 . S
C684 C687 1.386 . S
H685 C701 0.930 . S
H686 C702 0.931 . S
C687 H675 0.929 . S
C687 C681 1.390 . S
C687 C684 1.386 . S
C688 C683 1.490 . S
C688 C690 1.395 . S
C688 C691 1.403 1_556 S
H689 C695 0.930 . S
C690 H676 0.930 . S
C690 C688 1.395 . S
C690 C693 1.403 . S
C691 C688 1.403 1_554 S
C691 C692 1.524 . S
C691 C695 1.400 . S
C692 H677 0.960 . S
C692 H678 0.960 . S
C692 H679 0.960 . S
C692 C691 1.524 . S
C693 C690 1.403 . S
C693 C694 1.392 . S
C693 C697 1.495 . S
C694 C693 1.392 . S
C694 C695 1.385 1_556 S
C694 C696 1.478 . S
C695 H689 0.930 . S
C695 C691 1.400 . S
C695 C694 1.385 1_554 S
C696 C694 1.478 . S
C696 C698 1.381 1_556 S
C696 C702 1.383 . S
C697 C693 1.495 . S
C697 H703 0.959 . S
C697 H704 0.961 . S
C697 H705 0.960 . S
C698 C696 1.381 1_554 S
C698 C699 1.394 . S
C698 H706 0.930 . S
C699 C698 1.394 . S
C699 C700 1.383 . S
C699 H707 0.929 . S
C700 C699 1.383 . S
C700 C701 1.377 1_554 S
C701 H685 0.930 . S
C701 C700 1.377 1_556 S
C701 C702 1.379 . S
C702 H686 0.931 . S
C702 C696 1.383 . S
C702 C701 1.379 . S
H703 C697 0.959 . S
H704 C697 0.961 . S
H705 C697 0.960 . S
H706 C698 0.930 . S
H707 C699 0.929 . S
H708 C716 0.929 . S
H709 C718 0.930 . S
H710 C720 0.930 . S
H711 C723 0.929 . S
H712 C726 0.930 . S
H713 C728 0.960 . S
H714 C728 0.960 . S
H715 C728 0.960 . S
C716 H708 0.929 . S
C716 C717 1.377 . S
C716 C718 1.384 . S
C717 C716 1.377 . S
C717 C723 1.390 . S
C718 H709 0.930 . S
C718 C716 1.384 . S
C718 C719 1.372 . S
C719 C718 1.372 . S
C719 C720 1.400 . S
C719 C724 1.490 . S
C720 H710 0.930 . S
C720 C719 1.400 . S
C720 C723 1.386 . S
H721 C737 0.930 . S
H722 C738 0.931 . S
C723 H711 0.929 . S
C723 C717 1.390 . S
C723 C720 1.386 . S
C724 C719 1.490 . S
C724 C726 1.395 1_545 S
C724 C727 1.403 . S
H725 C731 0.947 1_545 S
C726 H712 0.930 . S
C726 C724 1.395 1_565 S
C726 C729 1.403 . S
C727 C724 1.403 . S
C727 C728 1.524 . S
C727 C731 1.373 1_545 S
C728 H713 0.960 . S
C728 H714 0.960 . S
C728 H715 0.960 . S
C728 C727 1.524 . S
C729 C726 1.403 . S
C729 C730 1.392 . S
C729 C733 1.495 . S
C730 C729 1.392 . S
C730 C731 1.401 . S
C730 C732 1.478 . S
C731 H725 0.947 1_565 S
C731 C727 1.373 1_565 S
C731 C730 1.401 . S
C732 C730 1.478 . S
C732 C734 1.381 . S
C732 C738 1.383 . S
C733 C729 1.495 . S
C733 H739 0.959 . S
C733 H740 0.961 . S
C733 H741 0.960 . S
C734 C732 1.381 . S
C734 C735 1.394 . S
C734 H742 0.930 . S
C735 C734 1.394 . S
C735 C736 1.383 . S
C735 H743 0.929 . S
C736 C735 1.383 . S
C736 C737 1.377 . S
C737 H721 0.930 . S
C737 C736 1.377 . S
C737 C738 1.379 . S
C738 H722 0.931 . S
C738 C732 1.383 . S
C738 C737 1.379 . S
H739 C733 0.959 . S
H740 C733 0.961 . S
H741 C733 0.960 . S
H742 C734 0.930 . S
H743 C735 0.929 . S
H744 C752 0.929 . S
H745 C754 0.930 . S
H746 C756 0.930 . S
H747 C759 0.929 . S
H748 C762 0.930 . S
H749 C764 0.960 . S
H750 C764 0.960 . S
H751 C764 0.960 . S
C752 H744 0.929 . S
C752 C753 1.377 . S
C752 C754 1.384 . S
C753 C752 1.377 . S
C753 C759 1.390 . S
C754 H745 0.930 . S
C754 C752 1.384 . S
C754 C755 1.372 . S
C755 C754 1.372 . S
C755 C756 1.400 . S
C755 C760 1.490 . S
C756 H746 0.930 . S
C756 C755 1.400 . S
C756 C759 1.386 . S
H757 C773 0.930 . S
H758 C774 0.931 . S
C759 H747 0.929 . S
C759 C753 1.390 . S
C759 C756 1.386 . S
C760 C755 1.490 . S
C760 C762 1.395 . S
C760 C763 1.403 . S
H761 C767 0.930 . S
C762 H748 0.930 . S
C762 C760 1.395 . S
C762 C765 1.403 . S
C763 C760 1.403 . S
C763 C764 1.524 . S
C763 C767 1.400 . S
C764 H749 0.960 . S
C764 H750 0.960 . S
C764 H751 0.960 . S
C764 C763 1.524 . S
C765 C762 1.403 . S
C765 C766 1.392 . S
C765 C769 1.495 . S
C766 C765 1.392 . S
C766 C767 1.385 . S
C766 C768 1.478 . S
C767 H761 0.930 . S
C767 C763 1.400 . S
C767 C766 1.385 . S
C768 C766 1.478 . S
C768 C770 1.381 . S
C768 C774 1.383 . S
C769 C765 1.495 . S
C769 H775 0.959 . S
C769 H776 0.961 . S
C769 H777 0.960 . S
C770 C768 1.381 . S
C770 C771 1.394 . S
C770 H778 0.930 . S
C771 C770 1.394 . S
C771 C772 1.383 . S
C771 H779 0.929 . S
C772 C771 1.383 . S
C772 C773 1.377 . S
C773 H757 0.930 . S
C773 C772 1.377 . S
C773 C774 1.379 . S
C774 H758 0.931 . S
C774 C768 1.383 . S
C774 C773 1.379 . S
H775 C769 0.959 . S
H776 C769 0.961 . S
H777 C769 0.960 . S
H778 C770 0.930 . S
H779 C771 0.929 . S
H780 C788 0.929 . S
H781 C790 0.930 . S
H782 C792 0.930 . S
H783 C795 0.929 . S
H784 C798 0.930 . S
H785 C800 0.960 . S
H786 C800 0.960 1_655 S
H787 C800 0.960 1_654 S
C788 H780 0.929 . S
C788 C789 1.375 . S
C788 C790 1.384 . S
C789 C788 1.375 . S
C789 C795 1.392 1_556 S
C790 H781 0.930 . S
C790 C788 1.384 . S
C790 C791 1.401 . S
C791 C790 1.401 . S
C791 C792 1.371 1_556 S
C791 C796 1.490 . S
C792 H782 0.930 . S
C792 C791 1.371 1_554 S
C792 C795 1.386 . S
H793 C809 0.930 . S
H794 C810 0.931 . S
C795 H783 0.929 . S
C795 C789 1.392 1_554 S
C795 C792 1.386 . S
C796 C791 1.490 . S
C796 C798 1.390 1_556 S
C796 C799 1.408 1_655 S
H797 C803 0.930 . S
C798 H784 0.930 . S
C798 C796 1.390 1_554 S
C798 C801 1.403 . S
C799 C796 1.408 1_455 S
C799 C800 1.524 . S
C799 C803 1.400 . S
C800 H785 0.960 . S
C800 H786 0.960 1_455 S
C800 H787 0.960 1_456 S
C800 C799 1.524 . S
C801 C798 1.403 . S
C801 C802 1.394 1_655 S
C801 C805 1.495 . S
C802 C801 1.394 1_455 S
C802 C803 1.383 1_554 S
C802 C804 1.477 . S
C803 H797 0.930 . S
C803 C799 1.400 . S
C803 C802 1.383 1_556 S
C804 C802 1.477 . S
C804 C806 1.345 1_554 S
C804 C810 1.419 . S
C805 C801 1.495 . S
C805 H811 0.959 . S
C805 H812 0.950 1_655 S
C805 H813 0.965 1_554 S
C806 C804 1.345 1_556 S
C806 C807 1.394 . S
C806 H814 0.930 . S
C807 C806 1.394 . S
C807 C808 1.357 1_556 S
C807 H815 0.929 . S
C808 C807 1.357 1_554 S
C808 C809 1.404 . S
C809 H793 0.930 . S
C809 C808 1.404 . S
C809 C810 1.379 . S
C810 H794 0.931 . S
C810 C804 1.419 . S
C810 C809 1.379 . S
H811 C805 0.959 . S
H812 C805 0.950 1_455 S
H813 C805 0.965 1_556 S
H814 C806 0.930 . S
H815 C807 0.929 . S
H816 C824 0.929 . S
H817 C826 0.930 . S
H818 C828 0.930 . S
H819 C831 0.929 . S
H820 C834 0.930 . S
H821 C836 0.960 . S
H822 C836 0.987 . S
H823 C836 0.960 . S
C824 H816 0.929 . S
C824 C825 1.377 . S
C824 C826 1.384 . S
C825 C824 1.377 . S
C825 C831 1.390 . S
C826 H817 0.930 . S
C826 C824 1.384 . S
C826 C827 1.372 . S
C827 C826 1.372 . S
C827 C828 1.400 . S
C827 C832 1.490 . S
C828 H818 0.930 . S
C828 C827 1.400 . S
C828 C831 1.386 . S
H829 C845 0.930 . S
H830 C846 0.931 . S
C831 H819 0.929 . S
C831 C825 1.390 . S
C831 C828 1.386 . S
C832 C827 1.490 . S
C832 C834 1.395 . S
C832 C835 1.403 1_455 S
H833 C839 0.930 . S
C834 H820 0.930 . S
C834 C832 1.395 . S
C834 C837 1.403 . S
C835 C832 1.403 1_655 S
C835 C836 1.524 . S
C835 C839 1.400 . S
C836 H821 0.960 . S
C836 H822 0.987 . S
C836 H823 0.960 . S
C836 C835 1.524 . S
C837 C834 1.403 . S
C837 C838 1.392 1_455 S
C837 C841 1.495 . S
C838 C837 1.392 1_655 S
C838 C839 1.385 . S
C838 C840 1.478 . S
C839 H833 0.930 . S
C839 C835 1.400 . S
C839 C838 1.385 . S
C840 C838 1.478 . S
C840 C842 1.381 . S
C840 C846 1.383 . S
C841 C837 1.495 . S
C841 H847 0.959 . S
C841 H848 0.961 . S
C841 H849 0.960 . S
C842 C840 1.381 . S
C842 C843 1.394 . S
C842 H850 0.930 . S
C843 C842 1.394 . S
C843 C844 1.383 . S
C843 H851 0.929 . S
C844 C843 1.383 . S
C844 C845 1.377 . S
C845 H829 0.930 . S
C845 C844 1.377 . S
C845 C846 1.379 . S
C846 H830 0.931 . S
C846 C840 1.383 . S
C846 C845 1.379 . S
H847 C841 0.959 . S
H848 C841 0.961 . S
H849 C841 0.960 . S
H850 C842 0.930 . S
H851 C843 0.929 . S
H852 C860 0.929 . S
H853 C862 0.930 . S
H854 C864 0.930 . S
H855 C867 0.929 . S
H856 C870 0.930 . S
H857 C872 0.960 . S
H858 C872 0.960 . S
H859 C872 0.960 1_545 S
C860 H852 0.929 . S
C860 C861 1.377 . S
C860 C862 1.384 . S
C861 C860 1.377 . S
C861 C867 1.390 . S
C862 H853 0.930 . S
C862 C860 1.384 . S
C862 C863 1.372 . S
C863 C862 1.372 . S
C863 C864 1.400 . S
C863 C868 1.490 . S
C864 H854 0.930 . S
C864 C863 1.400 . S
C864 C867 1.386 . S
H865 C881 0.930 . S
H866 C882 0.931 . S
C867 H855 0.929 . S
C867 C861 1.390 . S
C867 C864 1.386 . S
C868 C863 1.490 . S
C868 C870 1.395 . S
C868 C871 1.403 1_545 S
H869 C875 0.930 . S
C870 H856 0.930 . S
C870 C868 1.395 . S
C870 C873 1.403 . S
C871 C868 1.403 1_565 S
C871 C872 1.524 . S
C871 C875 1.400 . S
C872 H857 0.960 . S
C872 H858 0.960 . S
C872 H859 0.960 1_565 S
C872 C871 1.524 . S
C873 C870 1.403 . S
C873 C874 1.392 1_545 S
C873 C877 1.495 . S
C874 C873 1.392 1_565 S
C874 C875 1.385 . S
C874 C876 1.478 . S
C875 H869 0.930 . S
C875 C871 1.400 . S
C875 C874 1.385 . S
C876 C874 1.478 . S
C876 C878 1.381 . S
C876 C882 1.383 . S
C877 C873 1.495 . S
C877 H883 0.959 . S
C877 H884 0.961 . S
C877 H885 0.960 1_545 S
C878 C876 1.381 . S
C878 C879 1.394 . S
C878 H886 0.930 . S
C879 C878 1.394 . S
C879 C880 1.383 . S
C879 H887 0.929 . S
C880 C879 1.383 . S
C880 C881 1.377 . S
C881 H865 0.930 . S
C881 C880 1.377 . S
C881 C882 1.379 . S
C882 H866 0.931 . S
C882 C876 1.383 . S
C882 C881 1.379 . S
H883 C877 0.959 . S
H884 C877 0.961 . S
H885 C877 0.960 1_565 S
H886 C878 0.930 . S
H887 C879 0.929 . S
H888 C896 0.929 . S
H889 C898 0.930 . S
H890 C900 0.930 . S
H891 C903 0.929 . S
H892 C906 0.930 . S
H893 C908 0.960 . S
H894 C908 0.960 . S
H895 C908 0.960 . S
C896 H888 0.929 . S
C896 C897 1.377 . S
C896 C898 1.384 . S
C897 C896 1.377 . S
C897 C903 1.390 1_554 S
C898 H889 0.930 . S
C898 C896 1.384 . S
C898 C899 1.373 . S
C899 C898 1.373 . S
C899 C900 1.399 1_554 S
C899 C904 1.490 1_554 S
C900 H890 0.930 . S
C900 C899 1.399 1_556 S
C900 C903 1.386 . S
H901 C917 0.930 . S
H902 C918 0.931 . S
C903 H891 0.929 . S
C903 C897 1.390 1_556 S
C903 C900 1.386 . S
C904 C899 1.490 1_556 S
C904 C906 1.409 . S
C904 C907 1.389 1_556 S
H905 C911 0.930 . S
C906 H892 0.930 . S
C906 C904 1.409 . S
C906 C909 1.403 . S
C907 C904 1.389 1_554 S
C907 C908 1.524 . S
C907 C911 1.400 . S
C908 H893 0.960 . S
C908 H894 0.960 . S
C908 H895 0.960 . S
C908 C907 1.524 . S
C909 C906 1.403 . S
C909 C910 1.392 . S
C909 C913 1.495 . S
C910 C909 1.392 . S
C910 C911 1.385 1_556 S
C910 C912 1.478 . S
C911 H905 0.930 . S
C911 C907 1.400 . S
C911 C910 1.385 1_554 S
C912 C910 1.478 . S
C912 C914 1.381 1_556 S
C912 C918 1.383 . S
C913 C909 1.495 . S
C913 H919 0.959 . S
C913 H920 0.961 . S
C913 H921 0.960 . S
C914 C912 1.381 1_554 S
C914 C915 1.394 . S
C914 H922 0.930 . S
C915 C914 1.394 . S
C915 C916 1.383 1_554 S
C915 H923 0.929 . S
C916 C915 1.383 1_556 S
C916 C917 1.377 . S
C917 H901 0.930 . S
C917 C916 1.377 . S
C917 C918 1.379 . S
C918 H902 0.931 . S
C918 C912 1.383 . S
C918 C917 1.379 . S
H919 C913 0.959 . S
H920 C913 0.961 . S
H921 C913 0.960 . S
H922 C914 0.930 . S
H923 C915 0.929 . S
H924 C932 0.929 . S
H925 C934 0.930 . S
H926 C936 0.930 . S
H927 C939 0.929 . S
H928 C942 0.930 . S
H929 C944 0.960 . S
H930 C944 0.960 . S
H931 C944 0.960 . S
C932 H924 0.929 . S
C932 C933 1.377 . S
C932 C934 1.384 . S
C933 C932 1.377 . S
C933 C939 1.390 . S
C934 H925 0.930 . S
C934 C932 1.384 . S
C934 C935 1.372 . S
C935 C934 1.372 . S
C935 C936 1.400 . S
C935 C940 1.490 . S
C936 H926 0.930 . S
C936 C935 1.400 . S
C936 C939 1.386 . S
H937 C953 0.930 . S
H938 C954 0.931 . S
C939 H927 0.929 . S
C939 C933 1.390 . S
C939 C936 1.386 . S
C940 C935 1.490 . S
C940 C942 1.395 . S
C940 C943 1.403 . S
H941 C947 0.930 . S
C942 H928 0.930 . S
C942 C940 1.395 . S
C942 C945 1.403 . S
C943 C940 1.403 . S
C943 C944 1.524 . S
C943 C947 1.400 . S
C944 H929 0.960 . S
C944 H930 0.960 . S
C944 H931 0.960 . S
C944 C943 1.524 . S
C945 C942 1.403 . S
C945 C946 1.392 . S
C945 C949 1.495 . S
C946 C945 1.392 . S
C946 C947 1.385 . S
C946 C948 1.478 . S
C947 H941 0.930 . S
C947 C943 1.400 . S
C947 C946 1.385 . S
C948 C946 1.478 . S
C948 C950 1.381 . S
C948 C954 1.383 . S
C949 C945 1.495 . S
C949 H955 0.959 . S
C949 H956 0.961 . S
C949 H957 0.960 . S
C950 C948 1.381 . S
C950 C951 1.394 . S
C950 H958 0.930 . S
C951 C950 1.394 . S
C951 C952 1.383 . S
C951 H959 0.929 . S
C952 C951 1.383 . S
C952 C953 1.377 . S
C953 H937 0.930 . S
C953 C952 1.377 . S
C953 C954 1.379 . S
C954 H938 0.931 . S
C954 C948 1.383 . S
C954 C953 1.379 . S
H955 C949 0.959 . S
H956 C949 0.961 . S
H957 C949 0.960 . S
H958 C950 0.930 . S
H959 C951 0.929 . S
H960 C968 0.929 . S
H961 C970 0.930 . S
H962 C972 0.930 . S
H963 C975 0.929 . S
H964 C978 0.930 . S
H965 C980 0.960 . S
H966 C980 0.960 . S
H967 C980 0.960 . S
C968 H960 0.929 . S
C968 C969 1.377 . S
C968 C970 1.384 . S
C969 C968 1.377 . S
C969 C975 1.390 . S
C970 H961 0.930 . S
C970 C968 1.384 . S
C970 C971 1.372 . S
C971 C970 1.372 . S
C971 C972 1.400 . S
C971 C976 1.490 . S
C972 H962 0.930 . S
C972 C971 1.400 . S
C972 C975 1.386 . S
H973 C989 0.930 . S
H974 C990 0.931 . S
C975 H963 0.929 . S
C975 C969 1.390 . S
C975 C972 1.386 . S
C976 C971 1.490 . S
C976 C978 1.395 . S
C976 C979 1.403 . S
H977 C983 0.930 . S
C978 H964 0.930 . S
C978 C976 1.395 . S
C978 C981 1.403 . S
C979 C976 1.403 . S
C979 C980 1.524 . S
C979 C983 1.400 . S
C980 H965 0.960 . S
C980 H966 0.960 . S
C980 H967 0.960 . S
C980 C979 1.524 . S
C981 C978 1.403 . S
C981 C982 1.392 . S
C981 C985 1.495 . S
C982 C981 1.392 . S
C982 C983 1.385 . S
C982 C984 1.478 . S
C983 H977 0.930 . S
C983 C979 1.400 . S
C983 C982 1.385 . S
C984 C982 1.478 . S
C984 C986 1.381 . S
C984 C990 1.383 . S
C985 C981 1.495 . S
C985 H991 0.959 . S
C985 H992 0.961 . S
C985 H993 0.960 . S
C986 C984 1.381 . S
C986 C987 1.394 . S
C986 H994 0.930 . S
C987 C986 1.394 . S
C987 C988 1.383 . S
C987 H995 0.929 . S
C988 C987 1.383 . S
C988 C989 1.377 . S
C989 H973 0.930 . S
C989 C988 1.377 . S
C989 C990 1.379 . S
C990 H974 0.931 . S
C990 C984 1.383 . S
C990 C989 1.379 . S
H991 C985 0.959 . S
H992 C985 0.961 . S
H993 C985 0.960 . S
H994 C986 0.930 . S
H995 C987 0.929 . S
H996 C1004 0.929 . S
H997 C1006 0.930 . S
H998 C1008 0.930 . S
H999 C1011 0.929 . S
H1000 C1014 0.930 . S
H1001 C1016 0.960 . S
H1002 C1016 0.960 . S
H1003 C1016 0.960 . S
C1004 H996 0.929 . S
C1004 C1005 1.377 . S
C1004 C1006 1.384 . S
C1005 C1004 1.377 . S
C1005 C1011 1.390 . S
C1006 H997 0.930 . S
C1006 C1004 1.384 . S
C1006 C1007 1.372 . S
C1007 C1006 1.372 . S
C1007 C1008 1.400 . S
C1007 C1012 1.490 . S
C1008 H998 0.930 . S
C1008 C1007 1.400 . S
C1008 C1011 1.386 . S
H1009 C1025 0.930 . S
H1010 C1026 0.931 . S
C1011 H999 0.929 . S
C1011 C1005 1.390 . S
C1011 C1008 1.386 . S
C1012 C1007 1.490 . S
C1012 C1014 1.395 . S
C1012 C1015 1.403 . S
H1013 C1019 0.930 . S
C1014 H1000 0.930 . S
C1014 C1012 1.395 . S
C1014 C1017 1.403 . S
C1015 C1012 1.403 . S
C1015 C1016 1.524 . S
C1015 C1019 1.400 . S
C1016 H1001 0.960 . S
C1016 H1002 0.960 . S
C1016 H1003 0.960 . S
C1016 C1015 1.524 . S
C1017 C1014 1.403 . S
C1017 C1018 1.392 . S
C1017 C1021 1.495 . S
C1018 C1017 1.392 . S
C1018 C1019 1.385 . S
C1018 C1020 1.478 . S
C1019 H1013 0.930 . S
C1019 C1015 1.400 . S
C1019 C1018 1.385 . S
C1020 C1018 1.478 . S
C1020 C1022 1.381 . S
C1020 C1026 1.383 . S
C1021 C1017 1.495 . S
C1021 H1027 0.959 . S
C1021 H1028 0.961 . S
C1021 H1029 0.960 . S
C1022 C1020 1.381 . S
C1022 C1023 1.394 . S
C1022 H1030 0.930 . S
C1023 C1022 1.394 . S
C1023 C1024 1.383 . S
C1023 H1031 0.929 . S
C1024 C1023 1.383 . S
C1024 C1025 1.377 . S
C1025 H1009 0.930 . S
C1025 C1024 1.377 . S
C1025 C1026 1.379 . S
C1026 H1010 0.931 . S
C1026 C1020 1.383 . S
C1026 C1025 1.379 . S
H1027 C1021 0.959 . S
H1028 C1021 0.961 . S
H1029 C1021 0.960 . S
H1030 C1022 0.930 . S
H1031 C1023 0.929 . S
H1032 C1040 0.929 . S
H1033 C1042 0.930 . S
H1034 C1044 0.930 . S
H1035 C1047 0.929 . S
H1036 C1050 0.930 . S
H1037 C1052 0.960 . S
H1038 C1052 0.960 . S
H1039 C1052 0.960 . S
C1040 H1032 0.929 . S
C1040 C1041 1.377 . S
C1040 C1042 1.384 . S
C1041 C1040 1.377 . S
C1041 C1047 1.390 . S
C1042 H1033 0.930 . S
C1042 C1040 1.384 . S
C1042 C1043 1.372 . S
C1043 C1042 1.372 . S
C1043 C1044 1.400 . S
C1043 C1048 1.490 . S
C1044 H1034 0.930 . S
C1044 C1043 1.400 . S
C1044 C1047 1.386 . S
H1045 C1061 0.930 . S
H1046 C1062 0.931 . S
C1047 H1035 0.929 . S
C1047 C1041 1.390 . S
C1047 C1044 1.386 . S
C1048 C1043 1.490 . S
C1048 C1050 1.395 . S
C1048 C1051 1.403 . S
H1049 C1055 0.930 . S
C1050 H1036 0.930 . S
C1050 C1048 1.395 . S
C1050 C1053 1.403 . S
C1051 C1048 1.403 . S
C1051 C1052 1.524 . S
C1051 C1055 1.400 . S
C1052 H1037 0.960 . S
C1052 H1038 0.960 . S
C1052 H1039 0.960 . S
C1052 C1051 1.524 . S
C1053 C1050 1.403 . S
C1053 C1054 1.392 . S
C1053 C1057 1.495 . S
C1054 C1053 1.392 . S
C1054 C1055 1.385 . S
C1054 C1056 1.478 . S
C1055 H1049 0.930 . S
C1055 C1051 1.400 . S
C1055 C1054 1.385 . S
C1056 C1054 1.478 . S
C1056 C1058 1.381 . S
C1056 C1062 1.383 . S
C1057 C1053 1.495 . S
C1057 H1063 0.959 . S
C1057 H1064 0.961 . S
C1057 H1065 0.960 . S
C1058 C1056 1.381 . S
C1058 C1059 1.394 . S
C1058 H1066 0.930 . S
C1059 C1058 1.394 . S
C1059 C1060 1.383 . S
C1059 H1067 0.929 . S
C1060 C1059 1.383 . S
C1060 C1061 1.377 . S
C1061 H1045 0.930 . S
C1061 C1060 1.377 . S
C1061 C1062 1.379 . S
C1062 H1046 0.931 . S
C1062 C1056 1.383 . S
C1062 C1061 1.379 . S
H1063 C1057 0.959 . S
H1064 C1057 0.961 . S
H1065 C1057 0.960 . S
H1066 C1058 0.930 . S
H1067 C1059 0.929 . S
H1068 C1076 0.929 . S
H1069 C1078 0.930 . S
H1070 C1080 0.930 . S
H1071 C1083 0.929 . S
H1072 C1086 0.930 . S
H1073 C1088 0.960 . S
H1074 C1088 0.960 . S
H1075 C1088 0.960 . S
C1076 H1068 0.929 . S
C1076 C1077 1.377 . S
C1076 C1078 1.384 . S
C1077 C1076 1.377 . S
C1077 C1083 1.390 . S
C1078 H1069 0.930 . S
C1078 C1076 1.384 . S
C1078 C1079 1.372 . S
C1079 C1078 1.372 . S
C1079 C1080 1.400 . S
C1079 C1084 1.490 . S
C1080 H1070 0.930 . S
C1080 C1079 1.400 . S
C1080 C1083 1.386 . S
H1081 C1097 0.930 . S
H1082 C1098 0.931 . S
C1083 H1071 0.929 . S
C1083 C1077 1.390 . S
C1083 C1080 1.386 . S
C1084 C1079 1.490 . S
C1084 C1086 1.395 . S
C1084 C1087 1.403 . S
H1085 C1091 0.930 . S
C1086 H1072 0.930 . S
C1086 C1084 1.395 . S
C1086 C1089 1.403 . S
C1087 C1084 1.403 . S
C1087 C1088 1.524 . S
C1087 C1091 1.400 . S
C1088 H1073 0.960 . S
C1088 H1074 0.960 . S
C1088 H1075 0.960 . S
C1088 C1087 1.524 . S
C1089 C1086 1.403 . S
C1089 C1090 1.392 . S
C1089 C1093 1.495 . S
C1090 C1089 1.392 . S
C1090 C1091 1.385 . S
C1090 C1092 1.478 . S
C1091 H1085 0.930 . S
C1091 C1087 1.400 . S
C1091 C1090 1.385 . S
C1092 C1090 1.478 . S
C1092 C1094 1.381 . S
C1092 C1098 1.383 . S
C1093 C1089 1.495 . S
C1093 H1099 0.959 . S
C1093 H1100 0.961 . S
C1093 H1101 0.960 . S
C1094 C1092 1.381 . S
C1094 C1095 1.394 . S
C1094 H1102 0.930 . S
C1095 C1094 1.394 . S
C1095 C1096 1.383 . S
C1095 H1103 0.929 . S
C1096 C1095 1.383 . S
C1096 C1097 1.377 . S
C1097 H1081 0.930 . S
C1097 C1096 1.377 . S
C1097 C1098 1.379 . S
C1098 H1082 0.931 . S
C1098 C1092 1.383 . S
C1098 C1097 1.379 . S
H1099 C1093 0.959 . S
H1100 C1093 0.961 . S
H1101 C1093 0.960 . S
H1102 C1094 0.930 . S
H1103 C1095 0.929 . S
H1104 C1112 0.929 . S
H1105 C1114 0.930 . S
H1106 C1116 0.930 . S
H1107 C1119 0.929 . S
H1108 C1122 0.930 . S
H1109 C1124 0.960 . S
H1110 C1124 0.960 . S
H1111 C1124 0.960 . S
C1112 H1104 0.929 . S
C1112 C1113 1.377 . S
C1112 C1114 1.384 . S
C1113 C1112 1.377 . S
C1113 C1119 1.390 . S
C1114 H1105 0.930 . S
C1114 C1112 1.384 . S
C1114 C1115 1.372 . S
C1115 C1114 1.372 . S
C1115 C1116 1.400 . S
C1115 C1120 1.490 . S
C1116 H1106 0.930 . S
C1116 C1115 1.400 . S
C1116 C1119 1.386 . S
H1117 C1133 0.930 . S
H1118 C1134 0.931 . S
C1119 H1107 0.929 . S
C1119 C1113 1.390 . S
C1119 C1116 1.386 . S
C1120 C1115 1.490 . S
C1120 C1122 1.395 . S
C1120 C1123 1.403 . S
H1121 C1127 0.930 . S
C1122 H1108 0.930 . S
C1122 C1120 1.395 . S
C1122 C1125 1.403 . S
C1123 C1120 1.403 . S
C1123 C1124 1.524 . S
C1123 C1127 1.400 . S
C1124 H1109 0.960 . S
C1124 H1110 0.960 . S
C1124 H1111 0.960 . S
C1124 C1123 1.524 . S
C1125 C1122 1.403 . S
C1125 C1126 1.392 . S
C1125 C1129 1.495 . S
C1126 C1125 1.392 . S
C1126 C1127 1.385 . S
C1126 C1128 1.478 . S
C1127 H1121 0.930 . S
C1127 C1123 1.400 . S
C1127 C1126 1.385 . S
C1128 C1126 1.478 . S
C1128 C1130 1.381 . S
C1128 C1134 1.383 . S
C1129 C1125 1.495 . S
C1129 H1135 0.959 . S
C1129 H1136 0.961 . S
C1129 H1137 0.960 . S
C1130 C1128 1.381 . S
C1130 C1131 1.394 . S
C1130 H1138 0.930 . S
C1131 C1130 1.394 . S
C1131 C1132 1.383 . S
C1131 H1139 0.929 . S
C1132 C1131 1.383 . S
C1132 C1133 1.377 . S
C1133 H1117 0.930 . S
C1133 C1132 1.377 . S
C1133 C1134 1.379 . S
C1134 H1118 0.931 . S
C1134 C1128 1.383 . S
C1134 C1133 1.379 . S
H1135 C1129 0.959 . S
H1136 C1129 0.961 . S
H1137 C1129 0.960 . S
H1138 C1130 0.930 . S
H1139 C1131 0.929 . S
C285 C7 1.644 . S
C304 C237 1.657 . S
C321 C30 1.303 . S
C340 N255 1.219 . S
C357 C145 1.308 . S
C376 N48 1.252 . S
C393 C76 1.639 . S
C412 C168 1.633 . S
C429 N186 1.248 . S
C448 C99 1.321 . S
C465 C214 1.301 . S
C484 N117 1.229 . S
C501 N140 0.853 . S
C520 N2 0.801 . S
C537 N163 0.845 . S
C556 N25 0.773 . S
C573 C191 1.376 . S
C592 C53 1.398 . S
C609 N71 0.863 . S
C628 N209 0.834 . S
C645 N94 0.857 . S
C664 N232 0.870 . S
C681 C122 1.375 . S
C700 C260 1.354 . S
C717 N12 2.508 . S
C736 N81 2.493 . S
C753 N35 2.255 . S
C772 N104 2.230 . S
C789 C62 2.579 . S
C808 C131 2.593 1_554 S
C825 N219 2.250 . S
C844 N150 2.264 . S
C861 N242 2.508 . S
C880 N173 2.510 . S
C897 C269 2.577 . S
C916 C200 2.592 1_556 S
C933 C16 2.336 . S
C952 N196 2.324 . S
C969 C223 2.083 . S
C988 C39 2.085 . S
C1005 N58 2.338 . S
C1024 C246 2.319 . S
C1041 N265 2.339 . S
C1060 C85 2.321 . S
C1077 C108 2.084 . S
C1096 C154 2.074 . S
C1113 N127 2.337 . S
C1132 C177 2.331 . S
